drugbank_target|O60264 SWI/SNF-related matrix-associated actin-dependent regulator of chromatin subfamily A member 5 (DB02379; DB02670)
 OpenBabel12092120553D

  0  0  0     0  0            999 V3000
M  V30 BEGIN CTAB
M  V30 COUNTS 17153 17328 0 0 0
M  V30 BEGIN ATOM
M  V30 1 H -0.908 1.98254 -0.117106 0
M  V30 2 N 0 1.576 0 0
M  V30 3 C 0.933 2.03868 1.02534 0
M  V30 4 C 1.911 0.928543 1.3348 0
M  V30 5 O 3.095 1.19667 1.45644 0
M  V30 6 C 0.222 2.43627 2.35294 0
M  V30 7 C -0.732 3.65373 2.2001 0
M  V30 8 S 0.101 5.13292 1.52614 0
M  V30 9 C 1.257 5.56322 2.86805 0
M  V30 10 H 1.49 2.90518 0.631377 0
M  V30 11 H -0.977 1.52953 0.210867 0
M  V30 12 H 0.981 2.67203 3.11629 0
M  V30 13 H -0.358 1.57376 2.7183 0
M  V30 14 H -1.165 3.90944 3.18086 0
M  V30 15 H -1.563 3.418 1.51819 0
M  V30 16 H 0.729 5.58782 3.83104 0
M  V30 17 H 1.672 6.56266 2.65933 0
M  V30 18 H 2.08 4.83886 2.90714 0
M  V30 19 N 1.4781 -0.272755 1.55222 0
M  V30 20 C 2.7031 -1.02683 1.80197 0
M  V30 21 C 3.1281 -1.79142 0.573551 0
M  V30 22 O 2.4861 -1.74917 -0.476849 0
M  V30 23 C 2.5341 -1.9609 3.02624 0
M  V30 24 O 1.6381 -3.04863 2.77727 0
M  V30 25 H 0.9791 -0.293557 0.595584 0
M  V30 26 H 3.5091 -0.30159 2.02365 0
M  V30 27 H 3.5191 -2.38039 3.31363 0
M  V30 28 H 2.1941 -1.39851 3.91682 0
M  V30 29 H 0.7711 -2.67228 2.60084 0
M  V30 30 N 2.9562 -1.48159 -0.537278 0
M  V30 31 C 4.1812 -1.59707 -1.32319 0
M  V30 32 C 4.6062 -0.254859 -1.86365 0
M  V30 33 O 3.9642 0.772378 -1.64024 0
M  V30 34 C 4.0122 -2.6412 -2.45505 0
M  V30 35 O 3.1162 -2.20774 -3.48328 0
M  V30 36 H 2.4572 -0.535791 -0.392204 0
M  V30 37 H 4.9872 -1.94092 -0.647268 0
M  V30 38 H 4.9972 -2.85166 -2.91795 0
M  V30 39 H 3.6722 -3.61567 -2.05528 0
M  V30 40 H 2.2492 -2.09911 -3.08207 0
M  V30 41 N 4.4343 0.785586 -1.36625 0
M  V30 42 C 5.3973 1.87999 -1.31107 0
M  V30 43 C 6.3973 1.59316 -0.217959 0
M  V30 44 O 7.5873 1.67656 -0.472977 0
M  V30 45 C 4.7193 3.24861 -1.03334 0
M  V30 46 H 5.9123 1.94307 -2.2844 0
M  V30 47 H 3.4653 0.983813 -1.21453 0
M  V30 48 H 4.2003 3.24235 -0.0647432 0
M  V30 49 H 3.9853 3.4707 -1.82441 0
M  V30 50 H 5.4753 4.04929 -1.02088 0
M  V30 51 N 5.9124 1.20967 1.01018 0
M  V30 52 C 6.8754 0.965918 2.07853 0
M  V30 53 C 7.8754 -0.0610545 1.60684 0
M  V30 54 O 9.0654 0.175681 1.73312 0
M  V30 55 C 6.1974 0.455513 3.37843 0
M  V30 56 H 7.3904 1.91365 2.3091 0
M  V30 57 H 4.9434 1.02594 1.17916 0
M  V30 58 H 5.6784 -0.497381 3.20463 0
M  V30 59 H 5.4634 1.19622 3.73407 0
M  V30 60 H 6.9534 0.304667 4.16487 0
M  V30 61 N 7.3905 -1.2043 1.01659 0
M  V30 62 C 8.3005 -2.2689 0.596484 0
M  V30 63 C 9.3165 -1.70107 -0.36599 0
M  V30 64 O 10.4925 -2.00117 -0.226942 0
M  V30 65 C 7.5575 -3.4665 -0.0586659 0
M  V30 66 C 6.6185 -4.18662 0.949751 0
M  V30 67 C 5.8515 -5.32705 0.32577 0
M  V30 68 O 6.0745 -5.63656 -0.874509 0
M  V30 69 O 5.0085 -5.92803 1.04249 0
M  V30 70 H 8.8345 -2.65041 1.4828 0
M  V30 71 H 6.4195 -1.27048 0.786082 0
M  V30 72 H 8.3015 -4.19256 -0.424564 0
M  V30 73 H 6.9765 -3.10375 -0.91918 0
M  V30 74 H 5.8835 -3.48229 1.36702 0
M  V30 75 H 7.2165 -4.58878 1.78023 0
M  V30 76 N 8.8686 -0.792821 -1.36206 0
M  V30 77 C 10.2796 -0.429513 -1.81692 0
M  V30 78 C 10.6306 1.04695 -1.65932 0
M  V30 79 O 9.7556 1.81256 -1.18218 0
M  V30 80 C 10.3506 -0.772831 -3.29868 0
M  V30 81 C 8.9096 -0.462307 -3.7355 0
M  V30 82 C 8.0566 -1.00569 -2.5842 0
M  V30 83 H 11.0076 -0.985672 -1.24379 0
M  V30 84 H 11.0286 -0.0651928 -3.80444 0
M  V30 85 H 10.5406 -1.84747 -3.41307 0
M  V30 86 H 8.6416 0.604158 -3.67669 0
M  V30 87 H 8.7546 -0.985299 -4.68859 0
M  V30 88 H 7.1186 -0.428734 -2.51066 0
M  V30 89 H 7.9016 -2.08616 -2.72643 0
M  V30 90 N 10.3467 1.47872 -0.545128 0
M  V30 91 C 11.7577 1.86384 -0.108581 0
M  V30 92 C 12.1087 1.45309 1.31832 0
M  V30 93 O 11.2337 0.850641 1.9898 0
M  V30 94 C 11.8287 3.38265 -0.190274 0
M  V30 95 C 10.3877 3.75914 0.191164 0
M  V30 96 C 9.5347 2.71926 -0.543273 0
M  V30 97 H 12.4857 1.39561 -0.755537 0
M  V30 98 H 12.5067 3.75831 0.594217 0
M  V30 99 H 12.0187 3.6813 -1.2289 0
M  V30 100 H 10.1197 3.51665 1.23136 0
M  V30 101 H 10.2327 4.78836 -0.158987 0
M  V30 102 H 8.5967 2.54697 0.0122495 0
M  V30 103 H 9.3797 3.04634 -1.58282 0
M  V30 104 N 11.8248 0.280983 1.55075 0
M  V30 105 C 13.2358 -0.215629 1.85451 0
M  V30 106 C 13.5868 -1.54991 1.203 0
M  V30 107 O 12.7118 -2.10699 0.493435 0
M  V30 108 C 13.3068 -0.398026 3.36454 0
M  V30 109 C 11.8658 -0.838866 3.66933 0
M  V30 110 C 11.0128 0.064458 2.77225 0
M  V30 111 H 13.9638 0.502601 1.50531 0
M  V30 112 H 13.9848 -1.23569 3.59876 0
M  V30 113 H 13.4968 0.573241 3.83843 0
M  V30 114 H 11.5978 -1.8214 3.25048 0
M  V30 115 H 11.7108 -0.672123 4.74362 0
M  V30 116 H 10.0748 -0.452863 2.50642 0
M  V30 117 H 10.8578 1.03172 3.2743 0
M  V30 118 N 13.3029 -1.57598 0.00835791 0
M  V30 119 C 14.7139 -1.7892 -0.53333 0
M  V30 120 C 15.0649 -0.916609 -1.73473 0
M  V30 121 O 14.1899 -0.121336 -2.1606 0
M  V30 122 C 14.7849 -3.24488 -0.974313 0
M  V30 123 C 13.3439 -3.46878 -1.46125 0
M  V30 124 C 12.4909 -2.74157 -0.416302 0
M  V30 125 H 15.4419 -1.56958 0.234495 0
M  V30 126 H 15.4629 -3.3306 -1.83988 0
M  V30 127 H 14.9749 -3.87972 -0.099718 0
M  V30 128 H 13.0759 -2.8862 -2.35646 0
M  V30 129 H 13.1889 -4.55572 -1.48295 0
M  V30 130 H 11.5529 -2.39022 -0.87981 0
M  V30 131 H 12.3359 -3.40345 0.44947 0
M  V30 132 N 14.781 0.264519 -1.55364 0
M  V30 133 C 16.192 0.834936 -1.6699 0
M  V30 134 C 16.543 1.86718 -0.602552 0
M  V30 135 O 15.668 2.14899 0.254425 0
M  V30 136 C 16.263 1.5212 -3.02729 0
M  V30 137 C 14.822 2.03954 -3.16354 0
M  V30 138 C 13.969 0.884498 -2.62815 0
M  V30 139 H 16.92 0.0406869 -1.58648 0
M  V30 140 H 16.941 2.38853 -2.96191 0
M  V30 141 H 16.453 0.769668 -3.80392 0
M  V30 142 H 14.554 2.82041 -2.43482 0
M  V30 143 H 14.667 2.24902 -4.23032 0
M  V30 144 H 13.031 1.2802 -2.20188 0
M  V30 145 H 13.814 0.14634 -3.42988 0
M  V30 146 N 16.2591 1.48442 0.529413 0
M  V30 147 C 17.6701 1.5002 1.11134 0
M  V30 148 C 18.0211 0.27031 1.94329 0
M  V30 149 O 17.1461 -0.622507 2.07253 0
M  V30 150 C 17.7411 2.71834 2.02217 0
M  V30 151 C 16.3001 2.76283 2.55627 0
M  V30 152 C 15.4471 2.43542 1.326 0
M  V30 153 H 18.3981 1.5555 0.314641 0
M  V30 154 H 18.4191 2.50384 2.8651 0
M  V30 155 H 17.9311 3.61331 1.41639 0
M  V30 156 H 16.0321 1.90995 3.19924 0
M  V30 157 H 16.1451 3.77725 2.94721 0
M  V30 158 H 14.5091 1.94709 1.64196 0
M  V30 159 H 15.2921 3.3528 0.737734 0
M  V30 160 N 17.7372 -0.778329 1.37039 0
M  V30 161 C 19.1482 -1.35421 1.28523 0
M  V30 162 C 19.4992 -1.96075 -0.0700901 0
M  V30 163 O 18.6242 -1.93352 -0.971801 0
M  V30 164 C 19.2192 -2.46211 2.32735 0
M  V30 165 C 17.7782 -2.99585 2.27873 0
M  V30 166 C 16.9252 -1.72748 2.16918 0
M  V30 167 H 19.8762 -0.5791 1.47757 0
M  V30 168 H 19.8972 -3.2552 1.9702 0
M  V30 169 H 19.4092 -2.02036 3.31365 0
M  V30 170 H 17.5102 -3.48152 1.32745 0
M  V30 171 H 17.6232 -3.55646 3.21018 0
M  V30 172 H 15.9872 -1.95416 1.63354 0
M  V30 173 H 16.7702 -1.30686 3.17452 0
M  V30 174 N 19.2153 -1.21501 -1.00376 0
M  V30 175 C 20.1253 -0.991447 -2.12621 0
M  V30 176 C 21.1413 0.0568446 -1.73907 0
M  V30 177 O 22.3173 -0.13348 -2.00957 0
M  V30 178 C 19.3823 -0.560312 -3.42142 0
M  V30 179 C 18.4433 -1.68096 -3.95022 0
M  V30 180 C 17.6763 -1.2703 -5.18362 0
M  V30 181 O 17.8993 -0.144438 -5.70217 0
M  V30 182 O 16.8333 -2.08269 -5.64719 0
M  V30 183 H 20.6593 -1.93158 -2.34358 0
M  V30 184 H 18.2443 -0.999999 -1.10997 0
M  V30 185 H 20.1263 -0.329724 -4.20108 0
M  V30 186 H 18.8013 0.351089 -3.2179 0
M  V30 187 H 17.7083 -1.96597 -3.18278 0
M  V30 188 H 19.0413 -2.56983 -4.19786 0
M  V30 189 N 20.6934 1.19889 -1.02296 0
M  V30 190 C 21.9184 1.9393 -0.735237 0
M  V30 191 C 22.3434 1.74639 0.698782 0
M  V30 192 O 21.7014 1.04481 1.48167 0
M  V30 193 C 21.7494 3.43916 -1.08417 0
M  V30 194 O 20.8534 4.11917 -0.199446 0
M  V30 195 H 20.1944 0.605645 -0.272196 0
M  V30 196 H 22.7244 1.52137 -1.36804 0
M  V30 197 H 22.7344 3.9456 -1.03856 0
M  V30 198 H 21.4094 3.5728 -2.12894 0
M  V30 199 H 19.9864 3.71666 -0.303136 0
M  V30 200 N 22.1715 0.800033 1.35784 0
M  V30 201 C 23.1345 0.211565 2.28221 0
M  V30 202 C 24.1345 -0.59728 1.49296 0
M  V30 203 O 25.3245 -0.416721 1.69142 0
M  V30 204 C 22.4565 -0.705846 3.33513 0
M  V30 205 H 23.6495 1.02677 2.81776 0
M  V30 206 H 21.2025 0.570211 1.45528 0
M  V30 207 H 21.9375 -1.54498 2.85133 0
M  V30 208 H 21.7225 -0.127655 3.91892 0
M  V30 209 H 23.2125 -1.11211 4.02519 0
M  V30 210 N 23.6496 -1.47581 0.552962 0
M  V30 211 C 25.0606 -1.86324 0.118463 0
M  V30 212 C 25.4116 -1.46006 -1.3106 0
M  V30 213 O 24.5366 -0.861182 -1.98526 0
M  V30 214 C 25.1316 -3.3816 0.20821 0
M  V30 215 C 23.6906 -3.7601 -0.171226 0
M  V30 216 C 22.8376 -2.71634 0.557686 0
M  V30 217 H 25.7886 -1.39159 0.762928 0
M  V30 218 H 25.8096 -3.76141 -0.574278 0
M  V30 219 H 25.3216 -3.67473 1.24841 0
M  V30 220 H 23.4226 -3.52313 -1.21269 0
M  V30 221 H 23.5356 -4.78745 0.184379 0
M  V30 222 H 21.8996 -2.547 0.00125792 0
M  V30 223 H 22.6826 -3.0379 1.59896 0
M  V30 224 N 25.1277 -0.289203 -1.54924 0
M  V30 225 C 26.3527 0.329299 -2.04769 0
M  V30 226 C 26.7777 1.4763 -1.16564 0
M  V30 227 O 26.1357 1.80527 -0.167186 0
M  V30 228 C 26.1837 0.774438 -3.52186 0
M  V30 229 O 25.2877 1.88038 -3.67036 0
M  V30 230 H 24.6287 0.0659259 -0.660719 0
M  V30 231 H 27.1587 -0.42761 -2.00082 0
M  V30 232 H 27.1687 1.06642 -3.93816 0
M  V30 233 H 25.8437 -0.0646707 -4.1585 0
M  V30 234 H 24.4207 1.58985 -3.3731 0
M  V30 235 N 26.6058 1.57591 -0.0167156 0
M  V30 236 C 27.5528 2.09462 0.969251 0
M  V30 237 C 28.5228 0.99381 1.33089 0
M  V30 238 O 29.7078 1.26726 1.42636 0
M  V30 239 C 26.8478 2.61622 2.25051 0
M  V30 240 C 25.9608 3.85666 1.94642 0
M  V30 241 C 25.0958 4.26266 3.16972 0
M  V30 242 C 24.1348 5.43101 2.82326 0
M  V30 243 N 23.2718 5.78915 3.97243 0
M  V30 244 H 28.1118 2.93428 0.519997 0
M  V30 245 H 25.6488 1.45044 0.245087 0
M  V30 246 H 27.6068 2.89949 2.99976 0
M  V30 247 H 26.2368 1.80505 2.67615 0
M  V30 248 H 25.2888 3.64145 1.10013 0
M  V30 249 H 26.6008 4.70678 1.65117 0
M  V30 250 H 25.7548 4.55963 4.00228 0
M  V30 251 H 24.4938 3.39996 3.49648 0
M  V30 252 H 23.4988 5.1311 1.97479 0
M  V30 253 H 24.7238 6.3106 2.50879 0
M  V30 254 H 22.6698 4.95602 4.29785 0
M  V30 255 H 22.5868 6.58539 3.71299 0
M  V30 256 H 23.8548 6.13212 4.81239 0
M  V30 257 N 28.0839 -0.256276 1.55502 0
M  V30 258 C 29.4949 -0.826068 1.67431 0
M  V30 259 C 29.8459 -1.86396 0.612446 0
M  V30 260 O 28.9709 -2.15031 -0.243025 0
M  V30 261 C 29.5659 -1.50512 3.03532 0
M  V30 262 C 28.1249 -2.02273 3.17431 0
M  V30 263 C 27.2719 -0.870548 2.63281 0
M  V30 264 H 30.2229 -0.0322728 1.58667 0
M  V30 265 H 30.2439 -2.37279 2.97454 0
M  V30 266 H 29.7559 -0.749484 3.80794 0
M  V30 267 H 27.8569 -2.80746 2.44974 0
M  V30 268 H 27.9699 -2.22655 4.24219 0
M  V30 269 H 26.3339 -1.26851 2.20864 0
M  V30 270 H 27.1169 -0.128149 3.43061 0
M  V30 271 N 29.562 -1.4872 -0.521534 0
M  V30 272 C 30.525 -1.63379 -1.60748 0
M  V30 273 C 31.525 -0.50661 -1.52611 0
M  V30 274 O 32.715 -0.772601 -1.5613 0
M  V30 275 C 29.847 -1.61192 -3.00383 0
M  V30 276 H 31.04 -2.60217 -1.49087 0
M  V30 277 H 28.593 -1.37444 -0.744235 0
M  V30 278 H 29.328 -0.65863 -3.17541 0
M  V30 279 H 29.113 -2.43032 -3.07698 0
M  V30 280 H 30.603 -1.7466 -3.7932 0
M  V30 281 N 31.0401 0.771051 -1.3745 0
M  V30 282 C 32.0031 1.86598 -1.33093 0
M  V30 283 C 33.0031 1.59076 -0.234845 0
M  V30 284 O 34.1931 1.67145 -0.490732 0
M  V30 285 C 31.3251 3.23747 -1.06773 0
M  V30 286 H 32.5181 1.91873 -2.30488 0
M  V30 287 H 30.0711 0.970876 -1.2249 0
M  V30 288 H 30.8061 3.24148 -0.099129 0
M  V30 289 H 30.5911 3.45115 -1.86112 0
M  V30 290 H 32.0811 4.03824 -1.06377 0
M  V30 291 N 32.5182 1.22032 0.997298 0
M  V30 292 C 33.7432 1.06921 1.77715 0
M  V30 293 C 34.1682 -0.376226 1.84299 0
M  V30 294 O 33.5262 -1.27165 1.29223 0
M  V30 295 C 33.5742 1.67996 3.19076 0
M  V30 296 O 32.6782 0.930653 4.01762 0
M  V30 297 H 32.0192 0.375814 0.547412 0
M  V30 298 H 34.5492 1.61737 1.25309 0
M  V30 299 H 34.5592 1.72538 3.69723 0
M  V30 300 H 33.2342 2.73182 3.13599 0
M  V30 301 H 31.8112 0.960917 3.60307 0
M  V30 302 N 33.9963 -1.19345 1.0293 0
M  V30 303 C 35.2453 -1.88363 0.721256 0
M  V30 304 C 35.5583 -1.80514 -0.753254 0
M  V30 305 O 36.7643 -2.44788 -1.17436 0
M  V30 306 C 35.2203 -3.37872 1.23978 0
M  V30 307 C 34.8283 -3.54278 2.74211 0
M  V30 308 C 36.5723 -4.12365 1.00775 0
M  V30 309 C 34.4793 -4.97682 3.19479 0
M  V30 310 H 33.4093 -0.705484 0.266098 0
M  V30 311 H 36.0603 -1.34928 1.24365 0
M  V30 312 H 34.4423 -3.90707 0.6453 0
M  V30 313 H 35.6163 -3.11769 3.39318 0
M  V30 314 H 33.9313 -2.93174 2.95699 0
M  V30 315 H 36.5283 -5.18119 1.32123 0
M  V30 316 H 36.8713 -4.16263 -0.0554308 0
M  V30 317 H 37.4043 -3.65668 1.56625 0
M  V30 318 H 34.1433 -4.98945 4.25128 0
M  V30 319 H 33.6633 -5.4095 2.591 0
M  V30 320 H 35.3423 -5.66337 3.12845 0
M  V30 321 N 35.4744 -0.807222 -1.35358 0
M  V30 322 C 36.4374 -0.223665 -2.28106 0
M  V30 323 C 37.4374 0.589354 -1.4961 0
M  V30 324 O 38.6274 0.407745 -1.69361 0
M  V30 325 C 35.7594 0.688149 -3.33882 0
M  V30 326 H 36.9524 -1.04169 -2.81227 0
M  V30 327 H 34.5054 -0.577921 -1.45223 0
M  V30 328 H 35.2404 1.52984 -2.85948 0
M  V30 329 H 35.0254 0.10687 -3.91954 0
M  V30 330 H 36.5154 1.09075 -4.03104 0
M  V30 331 N 36.9525 1.47285 -0.560781 0
M  V30 332 C 38.1775 2.07359 -0.0410566 0
M  V30 333 C 38.6025 1.41017 1.24483 0
M  V30 334 O 37.9605 0.486368 1.74654 0
M  V30 335 C 38.0085 3.6035 0.134123 0
M  V30 336 O 37.1125 3.94681 1.19587 0
M  V30 337 H 36.4535 0.661887 -0.0529291 0
M  V30 338 H 38.9835 1.89252 -0.777482 0
M  V30 339 H 38.9935 4.0652 0.347207 0
M  V30 340 H 37.6685 4.08034 -0.805047 0
M  V30 341 H 36.2455 3.60251 0.962987 0
M  V30 342 N 38.4306 0.297415 1.54768 0
M  V30 343 C 39.6786 -0.312295 1.99673 0
M  V30 344 C 39.9996 -1.54686 1.18732 0
M  V30 345 O 39.2696 -1.93854 0.282382 0
M  V30 346 H 37.8496 -0.118381 0.73756 0
M  V30 347 H 40.5116 0.407915 1.90583 0
M  V30 348 H 39.6076 -0.586813 3.06534 0
M  V30 349 N 39.9087 -1.5758 0.0250728 0
M  V30 350 C 41.1567 -1.91255 -0.653151 0
M  V30 351 C 41.4777 -0.901691 -1.729 0
M  V30 352 O 40.7477 0.0573785 -1.95816 0
M  V30 353 H 39.3277 -0.705942 -0.244243 0
M  V30 354 H 41.9897 -1.94767 0.0719209 0
M  V30 355 H 41.0857 -2.91752 -1.10847 0
M  V30 356 N 41.3868 0.248026 -1.55636 0
M  V30 357 C 42.6118 0.998028 -1.81808 0
M  V30 358 C 43.0368 1.78207 -0.601979 0
M  V30 359 O 42.3948 1.75653 0.448961 0
M  V30 360 C 42.4428 1.9125 -3.05705 0
M  V30 361 O 41.5468 3.00406 -2.82542 0
M  V30 362 H 40.8878 0.284045 -0.600179 0
M  V30 363 H 43.4178 0.269357 -2.02819 0
M  V30 364 H 43.4278 2.32737 -3.35108 0
M  V30 365 H 42.1028 1.33602 -3.93857 0
M  V30 366 H 40.6798 2.63056 -2.64303 0
M  V30 367 N 42.8649 1.48995 0.513639 0
M  V30 368 C 43.8129 1.65199 1.63744 0
M  V30 369 C 44.8069 0.51809 1.61283 0
M  V30 370 O 46.0129 0.697335 1.65943 0
M  V30 371 H 42.3879 0.52069 0.542574 0
M  V30 372 H 44.3589 2.59552 1.47226 0
M  V30 373 C 43.1079 1.72409 3.01945 0
M  V30 374 H 42.4309 2.59029 3.04539 0
M  V30 375 H 43.8709 1.87785 3.80148 0
M  V30 376 C 42.3299 0.46618 3.33659 0
M  V30 377 O 42.8599 -0.413744 3.99564 0
M  V30 378 N 41.0659 0.332931 2.88687 0
M  V30 379 H 40.6129 1.04996 2.35231 0
M  V30 380 H 40.5709 -0.507665 3.10274 0
M  V30 381 N 44.343 -0.763751 1.37857 0
M  V30 382 C 45.568 -1.55805 1.36893 0
M  V30 383 C 45.993 -1.88054 -0.0416135 0
M  V30 384 O 45.351 -1.49825 -1.02089 0
M  V30 385 C 45.399 -2.84012 2.22192 0
M  V30 386 O 44.503 -3.78732 1.63204 0
M  V30 387 H 43.844 -0.471638 0.46739 0
M  V30 388 H 46.374 -0.944657 1.81487 0
M  V30 389 H 46.384 -3.33037 2.35691 0
M  V30 390 H 45.059 -2.59869 3.24716 0
M  V30 391 H 43.636 -3.37402 1.58791 0
M  V30 392 N 45.8211 -1.22559 -0.990812 0
M  V30 393 C 47.0461 -1.07862 -1.77145 0
M  V30 394 C 47.4711 0.366447 -1.84496 0
M  V30 395 O 46.8291 1.26478 -1.29896 0
M  V30 396 C 46.8771 -1.69686 -3.18181 0
M  V30 397 O 45.9811 -0.951946 -4.01263 0
M  V30 398 H 45.3221 -0.378712 -0.545411 0
M  V30 399 H 47.8521 -1.62399 -1.2445 0
M  V30 400 H 47.8621 -1.74496 -3.68802 0
M  V30 401 H 46.5371 -2.74841 -3.12146 0
M  V30 402 H 45.1141 -0.980011 -3.59792 0
M  V30 403 N 47.2992 1.18797 -1.03562 0
M  V30 404 C 48.2472 2.24297 -0.615905 0
M  V30 405 C 49.2412 1.65643 0.354808 0
M  V30 406 O 50.4472 1.78618 0.22265 0
M  V30 407 H 46.8222 0.729909 -0.180934 0
M  V30 408 H 48.7932 2.5701 -1.5162 0
M  V30 409 C 47.5422 3.47698 0.0104735 0
M  V30 410 H 46.8652 3.93125 -0.727509 0
M  V30 411 H 48.3052 4.23159 0.266995 0
M  V30 412 C 46.7642 3.12489 1.25905 0
M  V30 413 O 47.2942 3.25761 2.35038 0
M  V30 414 N 45.5002 2.6686 1.15039 0
M  V30 415 H 45.0472 2.56261 0.262328 0
M  V30 416 H 45.0052 2.43674 1.98672 0
M  V30 417 N 48.7773 0.814389 1.34928 0
M  V30 418 C 49.7243 0.22822 2.29669 0
M  V30 419 C 50.6943 -0.642164 1.53184 0
M  V30 420 O 51.8793 -0.585605 1.81591 0
M  V30 421 C 49.0193 -0.61089 3.3965 0
M  V30 422 C 48.1323 0.280792 4.31086 0
M  V30 423 C 47.2673 -0.567067 5.28165 0
M  V30 424 C 46.3063 0.324531 6.11239 0
M  V30 425 N 45.4433 -0.483756 7.00431 0
M  V30 426 H 50.2833 1.04153 2.79206 0
M  V30 427 H 47.8203 0.525133 1.37407 0
M  V30 428 H 49.7783 -1.11263 4.0209 0
M  V30 429 H 48.4083 -1.38939 2.91369 0
M  V30 430 H 47.4603 0.900688 3.69583 0
M  V30 431 H 48.7723 0.966723 4.89342 0
M  V30 432 H 47.9263 -1.13363 5.96015 0
M  V30 433 H 46.6653 -1.28654 4.70425 0
M  V30 434 H 45.6703 0.903298 5.42329 0
M  V30 435 H 46.8953 1.04198 6.71059 0
M  V30 436 H 44.8413 -1.18706 6.45171 0
M  V30 437 H 44.7583 0.143965 7.55863 0
M  V30 438 H 46.0263 -1.03334 7.7262 0
M  V30 439 N 50.2554 -1.46986 0.568584 0
M  V30 440 C 51.5034 -2.02041 0.0487022 0
M  V30 441 C 51.8244 -1.44408 -1.31039 0
M  V30 442 O 51.0944 -0.623477 -1.85714 0
M  V30 443 H 49.6744 -0.746849 0.015014 0
M  V30 444 H 52.3364 -1.80257 0.741168 0
M  V30 445 H 51.4324 -3.12085 -0.0308961 0
M  V30 446 N 51.7335 -0.305618 -1.54608 0
M  V30 447 C 52.9815 0.301701 -1.99835 0
M  V30 448 C 53.3025 1.54054 -1.19551 0
M  V30 449 O 52.5725 1.93702 -0.292658 0
M  V30 450 H 51.1525 0.114468 -0.738178 0
M  V30 451 H 53.8145 -0.418016 -1.90364 0
M  V30 452 H 52.9105 0.570548 -3.06841 0
M  V30 453 N 53.2116 1.57565 -0.0334293 0
M  V30 454 C 54.6226 1.79746 0.504798 0
M  V30 455 C 54.9736 0.944091 1.71992 0
M  V30 456 O 54.0986 0.155694 2.15839 0
M  V30 457 C 54.6936 3.25997 0.922567 0
M  V30 458 C 53.2526 3.49159 1.40588 0
M  V30 459 C 52.3996 2.74785 0.372633 0
M  V30 460 H 55.3506 1.56565 -0.259436 0
M  V30 461 H 55.3716 3.35945 1.78666 0
M  V30 462 H 54.8836 3.88081 0.0379825 0
M  V30 463 H 52.9846 2.92332 2.31025 0
M  V30 464 H 53.0976 4.57873 1.41028 0
M  V30 465 H 51.4616 2.40391 0.841672 0
M  V30 466 H 52.2446 3.39587 -0.503559 0
M  V30 467 N 54.6897 -0.239769 1.55765 0
M  V30 468 C 55.5997 -1.31831 1.94056 0
M  V30 469 C 56.6157 -1.52275 0.841925 0
M  V30 470 O 57.7917 -1.65759 1.14394 0
M  V30 471 C 54.8567 -2.65156 2.23368 0
M  V30 472 C 53.9177 -2.53173 3.46701 0
M  V30 473 C 53.1507 -3.8014 3.74606 0
M  V30 474 O 53.3737 -4.82343 3.04469 0
M  V30 475 O 52.3077 -3.78344 4.68123 0
M  V30 476 H 56.1337 -1.02347 2.85935 0
M  V30 477 H 53.7187 -0.441123 1.42739 0
M  V30 478 H 55.6007 -3.43929 2.43497 0
M  V30 479 H 54.2757 -2.94358 1.34666 0
M  V30 480 H 53.1827 -1.72662 3.31871 0
M  V30 481 H 54.5157 -2.28915 4.35728 0
M  V30 482 N 56.1678 -1.49265 -0.50573 0
M  V30 483 C 57.4158 -1.582 -1.25766 0
M  V30 484 C 57.7368 -0.268482 -1.93143 0
M  V30 485 O 57.0068 0.711833 -1.8251 0
M  V30 486 H 55.5868 -0.582873 -0.467191 0
M  V30 487 H 58.2488 -1.85865 -0.586525 0
M  V30 488 H 57.3448 -2.37563 -2.02412 0
M  V30 489 N 57.6459 0.756429 -1.3826 0
M  V30 490 C 58.8919 1.51772 -1.34511 0
M  V30 491 C 59.2249 1.94089 0.0656691 0
M  V30 492 O 58.4999 1.65221 1.02626 0
M  V30 493 C 58.7829 2.77226 -2.29821 0
M  V30 494 C 58.6359 2.41065 -3.79747 0
M  V30 495 C 59.9549 3.79236 -2.23312 0
M  V30 496 H 57.0739 0.550578 -0.489931 0
M  V30 497 H 59.7159 0.866607 -1.69086 0
M  V30 498 H 57.8659 3.32784 -2.00467 0
M  V30 499 H 59.5379 1.91303 -4.19763 0
M  V30 500 H 57.7809 1.7356 -3.97567 0
M  V30 501 H 58.4519 3.3081 -4.41892 0
M  V30 502 H 60.9279 3.3321 -2.49219 0
M  V30 503 H 59.8039 4.64714 -2.92116 0
M  V30 504 H 60.0649 4.24615 -1.23102 0
M  V30 505 N 59.124 1.23083 0.984299 0
M  V30 506 C 60.087 1.00979 2.05757 0
M  V30 507 C 61.087 -0.0269573 1.60777 0
M  V30 508 O 62.277 0.212403 1.729 0
M  V30 509 C 59.409 0.527072 3.36801 0
M  V30 510 H 60.602 1.9622 2.26799 0
M  V30 511 H 58.155 1.05072 1.15714 0
M  V30 512 H 58.89 -0.429294 3.21446 0
M  V30 513 H 58.675 1.27515 3.70786 0
M  V30 514 H 60.165 0.392942 4.15747 0
M  V30 515 N 60.6021 -1.18246 1.0419 0
M  V30 516 C 61.5651 -2.20128 0.638452 0
M  V30 517 C 62.5651 -1.57885 -0.304805 0
M  V30 518 O 63.7551 -1.73967 -0.0900369 0
M  V30 519 C 60.8871 -3.4084 -0.0637751 0
M  V30 520 H 62.0801 -2.57336 1.54007 0
M  V30 521 H 59.6331 -1.32152 0.834598 0
M  V30 522 H 60.3681 -3.09166 -0.979136 0
M  V30 523 H 60.1531 -3.8726 0.614198 0
M  V30 524 H 61.6431 -4.16274 -0.332512 0
M  V30 525 N 62.0802 -0.821533 -1.34494 0
M  V30 526 C 63.0122 -0.199946 -2.28326 0
M  V30 527 C 64.0252 0.609377 -1.50965 0
M  V30 528 O 65.2142 0.439285 -1.7301 0
M  V30 529 C 62.3142 0.738431 -3.30757 0
M  V30 530 C 61.4872 -0.0277632 -4.37391 0
M  V30 531 C 60.5462 0.831332 -5.19591 0
M  V30 532 O 59.5722 0.276822 -5.68526 0
M  V30 533 N 60.7742 2.15132 -5.39165 0
M  V30 534 H 63.5392 -1.00609 -2.82308 0
M  V30 535 H 61.1002 -0.678366 -1.47003 0
M  V30 536 H 63.0922 1.31773 -3.82646 0
M  V30 537 H 61.6622 1.44533 -2.7718 0
M  V30 538 H 60.8822 -0.788359 -3.86236 0
M  V30 539 H 62.1702 -0.555251 -5.05761 0
M  V30 540 H 61.5682 2.62559 -5.01078 0
M  V30 541 H 60.1252 2.6795 -5.94177 0
M  V30 542 N 63.5583 1.46682 -0.576371 0
M  V30 543 C 64.5213 2.28707 0.150239 0
M  V30 544 C 65.5213 1.38035 0.824794 0
M  V30 545 O 66.7113 1.60476 0.677719 0
M  V30 546 C 63.8433 3.18248 1.22192 0
M  V30 547 H 65.0363 2.94423 -0.570521 0
M  V30 548 H 62.5893 1.52688 -0.334078 0
M  V30 549 H 63.3243 2.57265 1.97447 0
M  V30 550 H 63.1093 3.85 0.742812 0
M  V30 551 H 64.5993 3.80001 1.73172 0
M  V30 552 N 65.0364 0.313813 1.54444 0
M  V30 553 C 66.2824 -0.292108 2.00685 0
M  V30 554 C 66.6154 -1.52548 1.20177 0
M  V30 555 O 65.8904 -1.92452 0.281531 0
M  V30 556 C 66.1734 -0.635968 3.5444 0
M  V30 557 C 66.0264 0.607437 4.4568 0
M  V30 558 C 67.3454 -1.45747 4.15266 0
M  V30 559 H 64.4644 -0.104697 0.729526 0
M  V30 560 H 67.1064 0.428457 1.85106 0
M  V30 561 H 65.2564 -1.24986 3.67846 0
M  V30 562 H 66.9284 1.24581 4.44159 0
M  V30 563 H 65.1714 1.23822 4.15753 0
M  V30 564 H 65.8424 0.322515 5.51057 0
M  V30 565 H 68.3184 -0.938645 4.05375 0
M  V30 566 H 67.1944 -1.66683 5.2298 0
M  V30 567 H 67.4554 -2.45063 3.67963 0
M  V30 568 N 66.5145 -1.57545 0.0417849 0
M  V30 569 C 67.4775 -2.09885 -0.92093 0
M  V30 570 C 68.4775 -1.01648 -1.24596 0
M  V30 571 O 69.6675 -1.27759 -1.1842 0
M  V30 572 C 66.7995 -2.57527 -2.23367 0
M  V30 573 H 67.9925 -2.96236 -0.467382 0
M  V30 574 H 65.5455 -1.5493 -0.206467 0
M  V30 575 H 66.2805 -1.74542 -2.73323 0
M  V30 576 H 66.0655 -3.36613 -2.01083 0
M  V30 577 H 67.5555 -2.98201 -2.92346 0
M  V30 578 N 67.9926 0.231505 -1.5589 0
M  V30 579 C 69.2176 0.978689 -1.82856 0
M  V30 580 C 69.6426 1.77559 -0.620846 0
M  V30 581 O 69.0006 1.76119 0.430305 0
M  V30 582 C 69.0486 1.87997 -3.07716 0
M  V30 583 O 68.1526 2.97393 -2.85712 0
M  V30 584 H 67.4936 0.277663 -0.603158 0
M  V30 585 H 70.0236 0.24783 -2.03093 0
M  V30 586 H 70.0336 2.2917 -3.37558 0
M  V30 587 H 68.7086 1.29417 -3.95252 0
M  V30 588 H 67.2856 2.60238 -2.67078 0
M  V30 589 N 69.4707 1.49531 0.497807 0
M  V30 590 C 70.4337 1.65916 1.58128 0
M  V30 591 C 71.4337 0.530825 1.51786 0
M  V30 592 O 72.6237 0.797342 1.54881 0
M  V30 593 C 69.7557 1.65951 2.9778 0
M  V30 594 H 70.9487 2.62556 1.44929 0
M  V30 595 H 68.5017 1.38611 0.722275 0
M  V30 596 H 69.2367 0.709065 3.16453 0
M  V30 597 H 69.0217 2.47897 3.03792 0
M  V30 598 H 70.5117 1.80673 3.76493 0
M  V30 599 N 70.9488 -0.749086 1.3866 0
M  V30 600 C 71.9118 -1.84457 1.36045 0
M  V30 601 C 72.9118 -1.58682 0.260122 0
M  V30 602 O 74.1018 -1.66343 0.517261 0
M  V30 603 C 71.2338 -3.22008 1.11911 0
M  V30 604 H 72.4268 -1.88182 2.33512 0
M  V30 605 H 69.9798 -0.951266 1.24019 0
M  V30 606 H 70.7148 -3.2395 0.150686 0
M  V30 607 H 70.4998 -3.42111 1.91579 0
M  V30 608 H 71.9898 -4.0208 1.12788 0
M  V30 609 N 72.4269 -1.23603 -0.977757 0
M  V30 610 C 73.6519 -1.09735 -1.75991 0
M  V30 611 C 74.0769 0.346858 -1.84874 0
M  V30 612 O 73.4349 1.25093 -1.3123 0
M  V30 613 C 73.4829 -1.73051 -3.16363 0
M  V30 614 O 72.5869 -0.994452 -4.0023 0
M  V30 615 H 71.9279 -0.384476 -0.541364 0
M  V30 616 H 74.4579 -1.6371 -1.2272 0
M  V30 617 H 74.4679 -1.78398 -3.66931 0
M  V30 618 H 73.1429 -2.78137 -3.09213 0
M  V30 619 H 71.7199 -1.01812 -3.58732 0
M  V30 620 N 73.905 1.17692 -1.04816 0
M  V30 621 C 74.868 2.19787 -0.650117 0
M  V30 622 C 75.868 1.58044 0.296427 0
M  V30 623 O 77.058 1.74012 0.0808097 0
M  V30 624 C 74.19 3.40869 0.0456987 0
M  V30 625 H 75.383 2.56516 -1.5537 0
M  V30 626 H 72.936 1.31708 -0.841594 0
M  V30 627 H 73.671 3.09681 0.962726 0
M  V30 628 H 73.456 3.86928 -0.634727 0
M  V30 629 H 74.946 4.16445 0.310432 0
M  V30 630 N 75.3831 0.828654 1.34056 0
M  V30 631 C 76.6311 0.41863 1.97717 0
M  V30 632 C 76.9521 -1.02314 1.66002 0
M  V30 633 O 76.2221 -1.71119 0.953683 0
M  V30 634 H 74.8021 0.151809 0.731412 0
M  V30 635 H 77.4641 1.05936 1.63596 0
M  V30 636 H 76.5601 0.542318 3.07352 0
M  V30 637 N 76.8612 -1.46375 0.584142 0
M  V30 638 C 78.2722 -1.86031 0.157959 0
M  V30 639 C 78.6232 -1.48753 -1.27933 0
M  V30 640 O 77.7482 -0.903098 -1.96655 0
M  V30 641 C 78.3432 -3.37642 0.279892 0
M  V30 642 C 76.9022 -3.76289 -0.09143 0
M  V30 643 C 76.0492 -2.7039 0.615178 0
M  V30 644 H 79.0002 -1.37509 0.792274 0
M  V30 645 H 79.0212 -3.77275 -0.494364 0
M  V30 646 H 78.5332 -3.64742 1.32607 0
M  V30 647 H 76.6342 -3.54806 -1.13769 0
M  V30 648 H 76.7472 -4.78246 0.285886 0
M  V30 649 H 75.1112 -2.5464 0.0552833 0
M  V30 650 H 75.8942 -3.0033 1.66303 0
M  V30 651 N 78.3393 -0.321999 -1.54275 0
M  V30 652 C 79.3023 0.531975 -2.22941 0
M  V30 653 C 80.3023 1.04478 -1.22234 0
M  V30 654 O 81.4923 0.937452 -1.46825 0
M  V30 655 C 78.6243 1.73874 -2.93224 0
M  V30 656 H 79.8173 -0.0682612 -2.99822 0
M  V30 657 H 77.3703 -0.0730644 -1.56129 0
M  V30 658 H 78.1053 2.37825 -2.20476 0
M  V30 659 H 77.8903 1.37847 -3.6707 0
M  V30 660 H 79.3803 2.34496 -3.45545 0
M  V30 661 N 79.8174 1.5752 -0.0501392 0
M  V30 662 C 81.0944 1.83996 0.663685 0
M  V30 663 C 81.4744 0.938339 1.89099 0
M  V30 664 O 80.8224 -0.00087759 2.285 0
M  V30 665 C 81.0324 3.33702 1.02196 0
M  V30 666 C 82.3804 4.00691 1.40469 0
M  V30 667 O 83.4044 3.38321 1.11433 0
M  V30 668 O 82.2634 5.10658 1.94654 0
M  V30 669 H 79.3574 0.759385 0.32751 0
M  V30 670 H 81.9034 1.69514 -0.0794238 0
M  V30 671 H 80.6754 3.91015 0.149364 0
M  V30 672 H 80.2984 3.53368 1.82255 0
M  V30 673 N 81.2955 -0.223234 1.56011 0
M  V30 674 C 82.2585 -1.26014 1.9145 0
M  V30 675 C 83.2585 -1.3989 0.792937 0
M  V30 676 O 84.4485 -1.38184 1.0607 0
M  V30 677 C 81.5805 -2.63422 2.16383 0
M  V30 678 H 82.7735 -0.95796 2.84189 0
M  V30 679 H 80.3265 -0.463576 1.49267 0
M  V30 680 H 81.0615 -2.98741 1.2619 0
M  V30 681 H 80.8465 -2.54728 2.98088 0
M  V30 682 H 82.3365 -3.38249 2.44903 0
M  V30 683 N 82.7736 -1.49793 -0.48987 0
M  V30 684 C 83.6836 -1.70036 -1.61632 0
M  V30 685 C 84.6996 -0.583102 -1.63939 0
M  V30 686 O 85.8756 -0.859169 -1.82154 0
M  V30 687 C 82.9406 -1.77277 -2.97949 0
M  V30 688 C 82.0016 -3.00918 -3.06181 0
M  V30 689 C 81.2346 -3.07804 -4.35996 0
M  V30 690 O 81.4576 -2.21982 -5.25433 0
M  V30 691 O 80.3916 -4.00369 -4.49431 0
M  V30 692 H 84.2176 -2.65486 -1.47482 0
M  V30 693 H 81.8026 -1.33666 -0.667362 0
M  V30 694 H 83.6846 -1.84329 -3.78947 0
M  V30 695 H 82.3596 -0.850076 -3.12339 0
M  V30 696 H 81.2666 -2.99377 -2.2433 0
M  V30 697 H 82.5996 -3.92704 -2.96723 0
M  V30 698 N 84.2517 0.741722 -1.39055 0
M  V30 699 C 85.1847 1.86416 -1.31622 0
M  V30 700 C 86.1627 1.61473 -0.191076 0
M  V30 701 O 87.3467 1.84825 -0.370399 0
M  V30 702 C 84.4737 3.22266 -1.04221 0
M  V30 703 C 83.5197 3.66079 -2.18834 0
M  V30 704 S 84.3527 3.7623 -3.81066 0
M  V30 705 C 85.5087 5.14881 -3.55877 0
M  V30 706 H 85.7417 1.92437 -2.26617 0
M  V30 707 H 83.2747 0.905907 -1.25031 0
M  V30 708 H 85.2327 4.00714 -0.890964 0
M  V30 709 H 83.8937 3.1391 -0.109237 0
M  V30 710 H 83.0867 4.64648 -1.95238 0
M  V30 711 H 82.6887 2.94817 -2.30128 0
M  V30 712 H 84.9807 6.01006 -3.12726 0
M  V30 713 H 85.9237 5.43503 -4.53884 0
M  V30 714 H 86.3317 4.84239 -2.90126 0
M  V30 715 N 85.7298 1.2412 0.971189 0
M  V30 716 C 86.6398 1.04747 2.09917 0
M  V30 717 C 87.6558 -0.0107162 1.73997 0
M  V30 718 O 88.8318 0.186714 2.00533 0
M  V30 719 C 85.8968 0.650828 3.40537 0
M  V30 720 C 84.9578 1.7851 3.90426 0
M  V30 721 C 84.1908 1.40729 5.14812 0
M  V30 722 O 84.4138 0.29557 5.69634 0
M  V30 723 O 83.3478 2.23168 5.58999 0
M  V30 724 H 87.1738 1.99304 2.29154 0
M  V30 725 H 84.7588 1.02908 1.08307 0
M  V30 726 H 86.6408 0.440992 4.19086 0
M  V30 727 H 85.3158 -0.265649 3.22608 0
M  V30 728 H 84.2228 2.04966 3.12953 0
M  V30 729 H 85.5558 2.68023 4.12825 0
M  V30 730 N 87.2079 -1.17134 1.05439 0
M  V30 731 C 88.1179 -2.24878 0.668365 0
M  V30 732 C 89.1339 -1.71186 -0.311687 0
M  V30 733 O 90.3099 -2.00738 -0.163161 0
M  V30 734 C 87.3749 -3.46662 0.051648 0
M  V30 735 C 86.4359 -4.15429 1.08246 0
M  V30 736 C 85.6689 -5.31399 0.495082 0
M  V30 737 O 85.8919 -5.66153 -0.694743 0
M  V30 738 O 84.8259 -5.89187 1.23056 0
M  V30 739 H 88.6519 -2.60189 1.56637 0
M  V30 740 H 86.2369 -1.24482 0.826104 0
M  V30 741 H 88.1189 -4.20394 -0.290966 0
M  V30 742 H 86.7939 -3.13142 -0.819971 0
M  V30 743 H 85.7009 -3.43704 1.47711 0
M  V30 744 H 87.0339 -4.52982 1.92532 0
M  V30 745 N 88.686 -0.835752 -1.33615 0
M  V30 746 C 89.935 -0.426289 -1.97144 0
M  V30 747 C 90.248 1.01912 -1.66953 0
M  V30 748 O 91.454 1.53311 -2.24072 0
M  V30 749 C 89.91 -0.711321 -3.52801 0
M  V30 750 C 89.518 -2.1712 -3.91871 0
M  V30 751 C 91.262 -0.368654 -4.22896 0
M  V30 752 C 89.169 -2.40044 -5.40493 0
M  V30 753 H 88.099 -0.15567 -0.737755 0
M  V30 754 H 90.75 -1.0239 -1.52278 0
M  V30 755 H 89.132 -0.0433766 -3.95976 0
M  V30 756 H 90.306 -2.87936 -3.59763 0
M  V30 757 H 88.621 -2.47654 -3.34749 0
M  V30 758 H 91.218 -0.517601 -5.32189 0
M  V30 759 H 91.561 0.688078 -4.10574 0
M  V30 760 H 92.094 -0.991702 -3.8524 0
M  V30 761 H 88.833 -3.44271 -5.57815 0
M  V30 762 H 88.353 -1.73785 -5.74072 0
M  V30 763 H 90.032 -2.23042 -6.0734 0
M  V30 764 N 90.1641 1.46063 -0.591896 0
M  V30 765 C 91.4111 2.02338 -0.0809991 0
M  V30 766 C 91.7391 1.46228 1.28249 0
M  V30 767 O 90.9941 0.620818 1.85592 0
M  V30 768 C 91.2931 3.57391 0.0249813 0
M  V30 769 C 90.9591 4.32583 -1.27211 0
M  V30 770 C 89.6211 4.52844 -1.62745 0
M  V30 771 C 91.9731 4.75687 -2.13005 0
M  V30 772 C 89.3011 5.13462 -2.83855 0
M  V30 773 C 91.6531 5.37644 -3.3335 0
M  V30 774 C 90.3171 5.5613 -3.69155 0
M  V30 775 H 89.5871 0.740407 -0.0296397 0
M  V30 776 H 92.2341 1.75321 -0.770374 0
M  V30 777 H 90.5391 3.83597 0.797537 0
M  V30 778 H 92.2361 3.98621 0.436184 0
M  V30 779 H 88.8261 4.17116 -0.985499 0
M  V30 780 H 93.0101 4.59782 -1.86855 0
M  V30 781 H 88.2661 5.25965 -3.11722 0
M  V30 782 H 92.4401 5.7 -4.00092 0
M  V30 783 H 90.0671 6.0287 -4.63089 0
M  V30 784 N 91.6422 0.330177 1.54103 0
M  V30 785 C 92.9192 -0.325007 1.92881 0
M  V30 786 C 93.2992 -1.6934 1.26045 0
M  V30 787 O 92.6472 -2.24855 0.406526 0
M  V30 788 C 92.8572 -0.410634 3.46576 0
M  V30 789 C 94.2052 -0.667801 4.19316 0
M  V30 790 O 95.2292 -0.49329 3.52768 0
M  V30 791 O 94.0882 -1.00491 5.37181 0
M  V30 792 H 91.1822 -0.186873 0.80561 0
M  V30 793 H 93.7282 0.380376 1.65382 0
M  V30 794 H 92.5002 0.550164 3.87413 0
M  V30 795 H 92.1232 -1.16333 3.802 0
M  V30 796 N 93.1203 -1.57491 0.0584922 0
M  V30 797 C 94.3973 -1.84346 -0.653918 0
M  V30 798 C 94.7773 -0.948355 -1.88599 0
M  V30 799 O 94.1253 -0.0112403 -2.28497 0
M  V30 800 C 94.3353 -3.34239 -1.00425 0
M  V30 801 C 95.6833 -4.01431 -1.38342 0
M  V30 802 O 96.7073 -3.38907 -1.09637 0
M  V30 803 O 95.5663 -5.11683 -1.91943 0
M  V30 804 H 92.6603 -0.761112 -0.323478 0
M  V30 805 H 95.2063 -1.6947 0.0884125 0
M  V30 806 H 93.9783 -3.91089 -0.128625 0
M  V30 807 H 93.6013 -3.54329 -1.80378 0
M  V30 808 N 94.5984 0.214957 -1.56127 0
M  V30 809 C 95.5614 1.24997 -1.92116 0
M  V30 810 C 96.5614 1.39467 -0.800344 0
M  V30 811 O 97.7514 1.37619 -1.06802 0
M  V30 812 C 94.8834 2.62271 -2.17777 0
M  V30 813 H 96.0764 0.942875 -2.84693 0
M  V30 814 H 93.6294 0.455654 -1.49511 0
M  V30 815 H 94.3644 2.98068 -1.27773 0
M  V30 816 H 94.1494 2.53143 -2.99434 0
M  V30 817 H 95.6394 3.36946 -2.46693 0
M  V30 818 N 96.0765 1.50051 0.48192 0
M  V30 819 C 97.3015 1.64508 1.26301 0
M  V30 820 C 97.7265 0.323851 1.85291 0
M  V30 821 O 97.0845 -0.710969 1.66778 0
M  V30 822 C 97.1325 2.7305 2.35533 0
M  V30 823 O 96.2365 2.3355 3.39895 0
M  V30 824 H 95.5775 0.549978 0.372048 0
M  V30 825 H 98.1075 1.9636 0.574786 0
M  V30 826 H 98.1175 2.95799 2.8101 0
M  V30 827 H 96.7925 3.68946 1.91967 0
M  V30 828 H 95.3695 2.21205 3.00204 0
M  V30 829 N 97.5546 -0.734337 1.39446 0
M  V30 830 C 98.9656 -1.31264 1.32766 0
M  V30 831 C 99.3166 -1.96198 -0.00767497 0
M  V30 832 O 98.4416 -1.96346 -0.909796 0
M  V30 833 C 99.0366 -2.38682 2.4045 0
M  V30 834 C 97.5956 -2.92184 2.37288 0
M  V30 835 C 96.7426 -1.6576 2.22304 0
M  V30 836 H 99.6936 -0.531799 1.49525 0
M  V30 837 H 99.7146 -3.19087 2.07276 0
M  V30 838 H 99.2266 -1.91392 3.37625 0
M  V30 839 H 97.3276 -3.43752 1.43754 0
M  V30 840 H 97.4406 -3.45253 3.3217 0
M  V30 841 H 95.8046 -1.9012 1.69489 0
M  V30 842 H 96.5876 -1.20521 3.21449 0
M  V30 843 N 99.0327 -1.24633 -0.964593 0
M  V30 844 C 100.281 -1.08573 -1.70459 0
M  V30 845 C 100.602 0.375655 -1.91347 0
M  V30 846 O 99.8717 1.26779 -1.49345 0
M  V30 847 H 98.4517 -0.398784 -0.631649 0
M  V30 848 H 101.114 -1.56601 -1.16026 0
M  V30 849 H 100.21 -1.58623 -2.68785 0
M  V30 850 N 100.511 1.16574 -1.06058 0
M  V30 851 C 101.458 2.20883 -0.669263 0
M  V30 852 C 102.428 1.62729 0.332918 0
M  V30 853 O 103.613 1.895 0.222346 0
M  V30 854 C 100.753 3.45049 -0.0593572 0
M  V30 855 C 99.8658 4.17458 -1.11143 0
M  V30 856 C 99.0008 5.29135 -0.467916 0
M  V30 857 C 98.0398 5.93343 -1.50369 0
M  V30 858 N 97.1768 6.96516 -0.883706 0
M  V30 859 H 102.017 2.53709 -1.5632 0
M  V30 860 H 99.5538 1.24616 -0.781625 0
M  V30 861 H 101.512 4.16033 0.311771 0
M  V30 862 H 100.142 3.12781 0.797992 0
M  V30 863 H 99.1938 3.45101 -1.60029 0
M  V30 864 H 100.506 4.61307 -1.89731 0
M  V30 865 H 99.6598 6.06684 -0.0436871 0
M  V30 866 H 98.3988 4.86443 0.349864 0
M  V30 867 H 97.4038 5.14517 -1.93784 0
M  V30 868 H 98.6288 6.38114 -2.32352 0
M  V30 869 H 96.5748 6.55943 -0.086595 0
M  V30 870 H 96.4918 7.38723 -1.607 0
M  V30 871 H 97.7598 7.77993 -0.484543 0
M  V30 872 N 101.989 0.842826 1.3317 0
M  V30 873 C 102.921 0.236245 2.27979 0
M  V30 874 C 103.934 -0.585282 1.51915 0
M  V30 875 O 105.123 -0.411705 1.73687 0
M  V30 876 C 102.223 -0.685717 3.3189 0
M  V30 877 C 101.396 0.0973448 4.37292 0
M  V30 878 C 100.455 -0.748565 5.20848 0
M  V30 879 O 99.4809 -0.186339 5.68895 0
M  V30 880 N 100.683 -2.06527 5.42519 0
M  V30 881 H 103.448 1.05088 2.80672 0
M  V30 882 H 101.009 0.701667 1.45905 0
M  V30 883 H 103.001 -1.25669 3.84694 0
M  V30 884 H 101.571 -1.40105 2.79445 0
M  V30 885 H 100.791 0.849706 3.84933 0
M  V30 886 H 102.079 0.635643 5.04814 0
M  V30 887 H 101.477 -2.54554 5.05192 0
M  V30 888 H 100.034 -2.58464 5.98364 0
M  V30 889 N 103.467 -1.45747 0.599634 0
M  V30 890 C 104.414 -2.30467 -0.123849 0
M  V30 891 C 105.384 -1.41632 -0.86774 0
M  V30 892 O 106.569 -1.70568 -0.855056 0
M  V30 893 C 103.709 -3.26402 -1.12051 0
M  V30 894 C 102.822 -4.3034 -0.37832 0
M  V30 895 C 101.957 -5.13389 -1.364 0
M  V30 896 C 100.996 -6.09061 -0.609171 0
M  V30 897 N 100.133 -6.84918 -1.54374 0
M  V30 898 H 104.973 -2.91802 0.604627 0
M  V30 899 H 102.51 -1.43797 0.309972 0
M  V30 900 H 104.468 -3.80482 -1.7114 0
M  V30 901 H 103.098 -2.66839 -1.8165 0
M  V30 902 H 102.15 -3.78984 0.327929 0
M  V30 903 H 103.462 -4.98354 0.210997 0
M  V30 904 H 102.616 -5.7183 -2.02719 0
M  V30 905 H 101.355 -4.45376 -1.98725 0
M  V30 906 H 100.36 -5.49758 0.0676979 0
M  V30 907 H 101.585 -6.79099 0.00891991 0
M  V30 908 H 99.531 -6.19601 -2.15478 0
M  V30 909 H 99.448 -7.49254 -1.00766 0
M  V30 910 H 100.716 -7.47906 -2.19676 0
M  V30 911 N 104.945 -0.338344 -1.53925 0
M  V30 912 C 105.855 0.529421 -2.28548 0
M  V30 913 C 106.871 1.11645 -1.3346 0
M  V30 914 O 108.047 1.13325 -1.66492 0
M  V30 915 C 105.112 1.66713 -3.03987 0
M  V30 916 C 104.173 1.11041 -4.14691 0
M  V30 917 C 103.406 2.19389 -4.86522 0
M  V30 918 O 103.629 3.40013 -4.57982 0
M  V30 919 O 102.563 1.83976 -5.73094 0
M  V30 920 H 106.389 -0.0770399 -3.03602 0
M  V30 921 H 103.974 -0.103555 -1.49041 0
M  V30 922 H 105.856 2.32918 -3.5118 0
M  V30 923 H 104.531 2.25949 -2.31794 0
M  V30 924 H 103.438 0.413024 -3.71813 0
M  V30 925 H 104.771 0.562975 -4.8897 0
M  V30 926 N 106.423 1.57458 -0.0668435 0
M  V30 927 C 107.672 1.92477 0.602947 0
M  V30 928 C 107.985 0.948419 1.71068 0
M  V30 929 O 109.191 1.19124 2.43971 0
M  V30 930 C 107.647 3.41903 1.12383 0
M  V30 931 C 107.255 4.47975 0.04737 0
M  V30 932 C 108.999 3.85931 1.76797 0
M  V30 933 C 106.906 5.88529 0.582022 0
M  V30 934 H 105.836 0.718387 0.22899 0
M  V30 935 H 108.487 1.82978 -0.138276 0
M  V30 936 H 106.869 3.46459 1.91787 0
M  V30 937 H 108.043 4.55029 -0.726978 0
M  V30 938 H 106.358 4.13384 -0.500243 0
M  V30 939 H 108.955 4.88322 2.17821 0
M  V30 940 H 109.298 3.23029 2.62599 0
M  V30 941 H 109.831 3.83958 1.04024 0
M  V30 942 H 106.57 6.55065 -0.238721 0
M  V30 943 H 106.09 5.85004 1.324 0
M  V30 944 H 107.769 6.38258 1.05999 0
M  V30 945 N 107.901 -0.206675 1.56239 0
M  V30 946 C 108.833 -1.27997 1.9013 0
M  V30 947 C 109.846 -1.42299 0.790883 0
M  V30 948 O 111.035 -1.42931 1.06925 0
M  V30 949 C 108.135 -2.65368 2.10792 0
M  V30 950 C 107.308 -2.72824 3.41886 0
M  V30 951 C 106.367 -3.9131 3.51799 0
M  V30 952 O 105.393 -3.78953 4.24716 0
M  V30 953 N 106.595 -5.06265 2.84035 0
M  V30 954 H 109.36 -0.992444 2.82791 0
M  V30 955 H 106.921 -0.396652 1.56966 0
M  V30 956 H 108.913 -3.43039 2.14724 0
M  V30 957 H 107.483 -2.86657 1.24685 0
M  V30 958 H 106.703 -1.81515 3.49923 0
M  V30 959 H 107.991 -2.74786 4.28217 0
M  V30 960 H 107.389 -5.19203 2.246 0
M  V30 961 H 105.946 -5.81925 2.93609 0
M  V30 962 N 109.379 -1.50304 -0.473955 0
M  V30 963 C 110.289 -1.7174 -1.5982 0
M  V30 964 C 111.305 -0.600457 -1.63311 0
M  V30 965 O 112.481 -0.878441 -1.81233 0
M  V30 966 C 109.546 -1.80427 -2.96052 0
M  V30 967 C 108.607 -3.04148 -3.02972 0
M  V30 968 C 107.84 -3.12411 -4.32706 0
M  V30 969 O 108.063 -2.27542 -5.23049 0
M  V30 970 O 106.997 -4.05113 -4.45159 0
M  V30 971 H 110.823 -2.67035 -1.44657 0
M  V30 972 H 108.408 -1.34366 -0.653148 0
M  V30 973 H 110.29 -1.88338 -3.7697 0
M  V30 974 H 108.965 -0.883156 -3.11419 0
M  V30 975 H 107.872 -3.0174 -2.21142 0
M  V30 976 H 109.205 -3.95829 -2.92541 0
M  V30 977 N 110.857 0.726932 -1.39834 0
M  V30 978 C 112.268 1.30558 -1.3346 0
M  V30 979 C 112.619 1.962 -0.00273003 0
M  V30 980 O 111.744 1.96826 0.899371 0
M  V30 981 C 112.339 2.37404 -2.41713 0
M  V30 982 C 110.898 2.90921 -2.38835 0
M  V30 983 C 110.045 1.64578 -2.2318 0
M  V30 984 H 112.996 0.523862 -1.49804 0
M  V30 985 H 113.017 3.17984 -2.08966 0
M  V30 986 H 112.529 1.89599 -3.38635 0
M  V30 987 H 110.63 3.42985 -1.45575 0
M  V30 988 H 110.743 3.43487 -3.33997 0
M  V30 989 H 109.107 1.89219 -1.70494 0
M  V30 990 H 109.89 1.18814 -3.22084 0
M  V30 991 N 112.336 1.25143 0.95797 0
M  V30 992 C 113.613 1.00472 1.67823 0
M  V30 993 C 113.993 -0.470056 2.058 0
M  V30 994 O 113.341 -1.44663 1.76875 0
M  V30 995 C 113.551 1.9372 2.90299 0
M  V30 996 C 114.899 2.21371 3.62326 0
M  V30 997 O 115.923 1.91451 3.00375 0
M  V30 998 O 114.782 2.72231 4.7387 0
M  V30 999 H 111.876 0.380752 0.734137 0
M  V30 1000 H 114.422 1.36283 1.01119 0
M  V30 1001 H 113.194 2.93316 2.59001 0
M  V30 1002 H 112.817 1.58286 3.64735 0
M  V30 1003 N 113.814 -1.1601 1.06675 0
M  V30 1004 C 115.225 -1.68235 0.809565 0
M  V30 1005 C 115.576 -1.8454 -0.666303 0
M  V30 1006 O 114.701 -1.54374 -1.5165 0
M  V30 1007 C 115.296 -3.05585 1.46299 0
M  V30 1008 C 113.855 -3.54915 1.25349 0
M  V30 1009 C 113.002 -2.30804 1.53703 0
M  V30 1010 H 115.953 -1.00318 1.22971 0
M  V30 1011 H 115.974 -3.70174 0.880431 0
M  V30 1012 H 115.486 -2.93686 2.53713 0
M  V30 1013 H 113.587 -3.72067 0.199261 0
M  V30 1014 H 113.7 -4.36774 1.9689 0
M  V30 1015 H 112.064 -2.36007 0.957739 0
M  V30 1016 H 112.847 -2.21499 2.62284 0
M  V30 1017 N 115.292 -0.849877 -1.32721 0
M  V30 1018 C 116.52 -0.464754 -2.01613 0
M  V30 1019 C 116.935 0.937191 -1.63897 0
M  V30 1020 O 116.292 1.61081 -0.857856 0
M  V30 1021 C 116.343 -0.588638 -3.56675 0
M  V30 1022 O 116.064 -1.93535 -3.93034 0
M  V30 1023 C 117.565 -0.2019 -4.4284 0
M  V30 1024 H 114.785 -0.183215 -0.645502 0
M  V30 1025 H 117.329 -1.1455 -1.69407 0
M  V30 1026 H 115.484 0.0443159 -3.87375 0
M  V30 1027 H 115.898 -1.92871 -4.87751 0
M  V30 1028 H 117.372 -0.339599 -5.50954 0
M  V30 1029 H 117.849 0.857224 -4.30753 0
M  V30 1030 H 118.455 -0.809733 -4.17521 0
M  V30 1031 N 116.77 1.45427 -0.607355 0
M  V30 1032 C 118 2.06314 -0.108656 0
M  V30 1033 C 118.408 1.45269 1.21217 0
M  V30 1034 O 117.751 0.561115 1.74921 0
M  V30 1035 C 117.813 3.59345 0.105618 0
M  V30 1036 C 117.477 4.42723 -1.13337 0
M  V30 1037 C 118.474 4.77715 -2.05145 0
M  V30 1038 C 116.159 4.83478 -1.36213 0
M  V30 1039 C 118.153 5.52317 -3.18158 0
M  V30 1040 C 115.84 5.57835 -2.49527 0
M  V30 1041 C 116.838 5.92171 -3.40327 0
M  V30 1042 O 116.526 6.65019 -4.51669 0
M  V30 1043 H 116.258 0.672782 -0.0658842 0
M  V30 1044 H 118.812 1.87664 -0.834945 0
M  V30 1045 H 117.042 3.76394 0.886796 0
M  V30 1046 H 118.731 4.02076 0.555886 0
M  V30 1047 H 119.497 4.46787 -1.88697 0
M  V30 1048 H 115.376 4.56188 -0.664362 0
M  V30 1049 H 118.92 5.79036 -3.89054 0
M  V30 1050 H 114.817 5.88177 -2.65928 0
M  V30 1051 H 115.585 6.83469 -4.50348 0
M  V30 1052 N 118.248 0.346503 1.53744 0
M  V30 1053 C 119.158 -0.517293 2.28826 0
M  V30 1054 C 120.174 -1.10935 1.3405 0
M  V30 1055 O 121.35 -1.1244 1.6709 0
M  V30 1056 C 118.415 -1.65098 3.04866 0
M  V30 1057 C 117.476 -1.0884 4.15274 0
M  V30 1058 C 116.709 -2.16806 4.87679 0
M  V30 1059 O 116.932 -3.3758 4.59778 0
M  V30 1060 O 115.866 -1.80934 5.74061 0
M  V30 1061 H 119.692 0.0931396 3.03557 0
M  V30 1062 H 117.277 0.111458 1.48984 0
M  V30 1063 H 119.159 -2.31053 3.5241 0
M  V30 1064 H 117.834 -2.24717 2.32989 0
M  V30 1065 H 116.741 -0.3933 3.72027 0
M  V30 1066 H 118.074 -0.537036 4.89261 0
M  V30 1067 N 119.726 -1.57421 0.075193 0
M  V30 1068 C 120.636 -2.1642 -0.905511 0
M  V30 1069 C 121.652 -1.12828 -1.32461 0
M  V30 1070 O 122.828 -1.45109 -1.39661 0
M  V30 1071 C 119.893 -2.71693 -2.15369 0
M  V30 1072 C 118.954 -3.90171 -1.79068 0
M  V30 1073 C 118.187 -4.42798 -2.97936 0
M  V30 1074 O 118.41 -3.94416 -4.12058 0
M  V30 1075 O 117.344 -5.34085 -2.77555 0
M  V30 1076 H 121.17 -3.00588 -0.433626 0
M  V30 1077 H 118.755 -1.48664 -0.148067 0
M  V30 1078 H 120.637 -3.07104 -2.88557 0
M  V30 1079 H 119.312 -1.90582 -2.61649 0
M  V30 1080 H 118.219 -3.59606 -1.03122 0
M  V30 1081 H 119.552 -4.72584 -1.37569 0
M  V30 1082 N 121.204 0.198386 -1.56346 0
M  V30 1083 C 122.151 1.24589 -1.94284 0
M  V30 1084 C 123.121 1.454 -0.802997 0
M  V30 1085 O 124.306 1.58588 -1.06087 0
M  V30 1086 C 121.446 2.58631 -2.28482 0
M  V30 1087 C 120.559 2.45426 -3.55514 0
M  V30 1088 C 119.694 3.7215 -3.79049 0
M  V30 1089 C 118.733 3.53763 -4.99518 0
M  V30 1090 N 117.87 4.72491 -5.19323 0
M  V30 1091 H 122.71 0.915356 -2.83593 0
M  V30 1092 H 120.247 0.440629 -1.40346 0
M  V30 1093 H 122.205 3.3672 -2.46324 0
M  V30 1094 H 120.835 2.89734 -1.42317 0
M  V30 1095 H 119.887 1.58652 -3.45737 0
M  V30 1096 H 121.199 2.27772 -4.43758 0
M  V30 1097 H 120.353 4.58679 -3.97113 0
M  V30 1098 H 119.092 3.92754 -2.89129 0
M  V30 1099 H 118.097 2.65619 -4.8138 0
M  V30 1100 H 119.322 3.34607 -5.90944 0
M  V30 1101 H 117.268 4.93365 -4.3235 0
M  V30 1102 H 117.185 4.5765 -6.01741 0
M  V30 1103 H 118.453 5.6038 -5.41843 0
M  V30 1104 N 122.682 1.50554 0.465978 0
M  V30 1105 C 123.615 1.64436 1.58227 0
M  V30 1106 C 124.593 0.492367 1.54966 0
M  V30 1107 O 125.777 0.712536 1.74514 0
M  V30 1108 C 122.904 1.63165 2.96808 0
M  V30 1109 C 121.95 2.83987 3.18204 0
M  V30 1110 S 122.783 4.45219 2.97557 0
M  V30 1111 C 123.939 4.46649 4.3847 0
M  V30 1112 H 124.172 2.58861 1.46213 0
M  V30 1113 H 121.705 1.3988 0.653678 0
M  V30 1114 H 123.663 1.63116 3.76701 0
M  V30 1115 H 122.324 0.69967 3.06208 0
M  V30 1116 H 121.517 2.79416 4.19455 0
M  V30 1117 H 121.119 2.81629 2.46092 0
M  V30 1118 H 123.411 4.20526 5.31191 0
M  V30 1119 H 124.354 5.48295 4.48082 0
M  V30 1120 H 124.762 3.76296 4.20787 0
M  V30 1121 N 124.16 -0.719506 1.40217 0
M  V30 1122 C 125.092 -1.84428 1.36084 0
M  V30 1123 C 126.105 -1.60597 0.266913 0
M  V30 1124 O 127.294 -1.70544 0.526983 0
M  V30 1125 C 124.394 -3.20757 1.094 0
M  V30 1126 C 123.567 -3.71817 2.30372 0
M  V30 1127 C 122.626 -4.86748 1.99907 0
M  V30 1128 O 121.652 -4.99603 2.72737 0
M  V30 1129 N 122.854 -5.7226 0.974635 0
M  V30 1130 H 125.619 -1.88473 2.33019 0
M  V30 1131 H 123.18 -0.900885 1.3452 0
M  V30 1132 H 125.172 -3.95235 0.870116 0
M  V30 1133 H 123.742 -3.11884 0.211452 0
M  V30 1134 H 122.962 -2.88514 2.68614 0
M  V30 1135 H 124.25 -4.02666 3.11026 0
M  V30 1136 H 123.648 -5.6448 0.371368 0
M  V30 1137 H 122.205 -6.46739 0.810656 0
M  V30 1138 N 125.638 -1.25649 -0.95132 0
M  V30 1139 C 126.866 -1.13343 -1.73092 0
M  V30 1140 C 127.281 0.312434 -1.86197 0
M  V30 1141 O 126.638 1.21465 -1.36207 0
M  V30 1142 C 126.689 -1.78602 -3.14299 0
M  V30 1143 O 126.41 -3.17537 -3.01831 0
M  V30 1144 C 127.911 -1.72119 -4.08522 0
M  V30 1145 H 125.131 -0.395181 -0.542285 0
M  V30 1146 H 127.675 -1.66076 -1.19328 0
M  V30 1147 H 125.83 -1.29832 -3.64996 0
M  V30 1148 H 126.244 -3.49676 -3.90931 0
M  V30 1149 H 127.718 -2.22435 -5.052 0
M  V30 1150 H 128.195 -0.685635 -4.33815 0
M  V30 1151 H 128.801 -2.20393 -3.63741 0
M  V30 1152 N 127.117 1.15442 -1.07289 0
M  V30 1153 C 128.394 1.82306 -0.708792 0
M  V30 1154 C 128.774 1.94991 0.808807 0
M  V30 1155 O 128.122 1.50085 1.72298 0
M  V30 1156 C 128.332 3.18695 -1.42247 0
M  V30 1157 C 129.68 3.94341 -1.57417 0
M  V30 1158 O 130.704 3.28247 -1.38319 0
M  V30 1159 O 129.563 5.12839 -1.88834 0
M  V30 1160 H 126.657 0.787628 -0.252132 0
M  V30 1161 H 129.203 1.22559 -1.17377 0
M  V30 1162 H 127.975 3.04557 -2.45684 0
M  V30 1163 H 127.598 3.86128 -0.948223 0
M  V30 1164 N 128.595 0.856903 1.32268 0
M  V30 1165 C 130.011 0.547061 1.49931 0
M  V30 1166 C 130.211 -0.921781 1.7918 0
M  V30 1167 O 129.267 -1.70469 1.8627 0
M  V30 1168 C 130.58 1.43599 2.64196 0
M  V30 1169 C 132.128 1.43665 2.78081 0
M  V30 1170 C 132.603 2.31085 3.95428 0
M  V30 1171 N 134.094 2.28893 4.02694 0
M  V30 1172 C 134.829 2.93262 4.92732 0
M  V30 1173 N 134.325 3.66751 5.87763 0
M  V30 1174 N 136.118 2.82638 4.85873 0
M  V30 1175 H 128.269 1.8075 1.11549 0
M  V30 1176 H 130.532 0.772144 0.549997 0
M  V30 1177 H 130.238 2.48058 2.49319 0
M  V30 1178 H 130.112 1.12502 3.60032 0
M  V30 1179 H 132.499 0.399701 2.92381 0
M  V30 1180 H 132.58 1.7878 1.82952 0
M  V30 1181 H 132.224 3.34849 3.81888 0
M  V30 1182 H 132.154 1.93302 4.89839 0
M  V30 1183 H 134.645 1.75466 3.34694 0
M  V30 1184 H 134.958 4.13027 6.53168 0
M  V30 1185 H 133.303 3.70859 5.87783 0
M  V30 1186 H 136.494 2.24774 4.10602 0
M  V30 1187 H 136.667 3.33084 5.55841 0
M  V30 1188 N 130.073 -1.45103 0.615059 0
M  V30 1189 C 131.036 -2.29025 -0.0895485 0
M  V30 1190 C 132.036 -1.40174 -0.787906 0
M  V30 1191 O 133.226 -1.62217 -0.634933 0
M  V30 1192 C 130.358 -3.21376 -1.13711 0
M  V30 1193 H 131.551 -2.92807 0.648382 0
M  V30 1194 H 129.104 -1.51749 0.374444 0
M  V30 1195 H 129.839 -2.6241 -1.90556 0
M  V30 1196 H 129.624 -3.86834 -0.640475 0
M  V30 1197 H 131.114 -3.84459 -1.63036 0
M  V30 1198 N 131.551 -0.354651 -1.53558 0
M  V30 1199 C 132.499 0.512195 -2.26891 0
M  V30 1200 C 133.493 1.09263 -1.29452 0
M  V30 1201 O 134.699 1.03709 -1.47121 0
M  V30 1202 H 131.074 0.183878 -0.729173 0
M  V30 1203 H 133.045 -0.128202 -2.98124 0
M  V30 1204 C 131.794 1.64563 -3.06291 0
M  V30 1205 H 131.117 1.20829 -3.81104 0
M  V30 1206 H 132.557 2.22711 -3.60799 0
M  V30 1207 C 131.016 2.58158 -2.16462 0
M  V30 1208 O 131.546 3.60695 -1.76811 0
M  V30 1209 N 129.752 2.27096 -1.81317 0
M  V30 1210 H 129.299 1.43751 -2.1376 0
M  V30 1211 H 129.257 2.89975 -1.21498 0
M  V30 1212 N 133.029 1.57378 -0.0835403 0
M  V30 1213 C 134.445 1.57246 0.273109 0
M  V30 1214 C 134.645 1.09385 1.69225 0
M  V30 1215 O 133.701 0.765051 2.40631 0
M  V30 1216 C 135.014 3.00614 0.0720628 0
M  V30 1217 C 136.562 3.12684 0.1407 0
M  V30 1218 C 137.037 4.57989 -0.0322094 0
M  V30 1219 N 138.528 4.63194 0.0230085 0
M  V30 1220 C 139.263 5.73335 -0.0861941 0
M  V30 1221 N 138.759 6.9235 -0.24958 0
M  V30 1222 N 140.552 5.62093 -0.0282886 0
M  V30 1223 H 132.703 1.86801 -1.0109 0
M  V30 1224 H 134.966 0.861687 -0.395222 0
M  V30 1225 H 134.672 3.39786 -0.907662 0
M  V30 1226 H 134.546 3.68193 0.81936 0
M  V30 1227 H 136.933 2.73391 1.11092 0
M  V30 1228 H 137.014 2.47719 -0.637896 0
M  V30 1229 H 136.658 4.97973 -0.999247 0
M  V30 1230 H 136.588 5.21 0.765937 0
M  V30 1231 H 139.079 3.77613 0.14722 0
M  V30 1232 H 139.392 7.72117 -0.324733 0
M  V30 1233 H 137.737 6.94415 -0.285097 0
M  V30 1234 H 140.928 4.67997 0.0981408 0
M  V30 1235 H 141.101 6.47895 -0.116845 0
M  V30 1236 N 134.507 -0.190092 1.56449 0
M  V30 1237 C 135.754 -0.909705 1.80916 0
M  V30 1238 C 136.082 -1.83047 0.657583 0
M  V30 1239 O 135.337 -1.92428 -0.356356 0
M  V30 1240 C 135.636 -1.75382 3.1141 0
M  V30 1241 C 135.302 -0.983606 4.40041 0
M  V30 1242 C 133.964 -0.770967 4.74984 0
M  V30 1243 C 136.316 -0.442024 5.19322 0
M  V30 1244 C 133.644 -0.0053448 5.867 0
M  V30 1245 C 135.996 0.310412 6.31838 0
M  V30 1246 C 134.66 0.534023 6.6536 0
M  V30 1247 H 133.93 -0.332885 0.662019 0
M  V30 1248 H 136.577 -0.175762 1.90692 0
M  V30 1249 H 134.882 -2.55659 2.96893 0
M  V30 1250 H 136.579 -2.31331 3.27547 0
M  V30 1251 H 133.169 -1.15936 4.12622 0
M  V30 1252 H 137.353 -0.593693 4.92736 0
M  V30 1253 H 132.609 0.177825 6.11141 0
M  V30 1254 H 136.783 0.737419 6.92485 0
M  V30 1255 H 134.41 1.12918 7.51767 0
M  V30 1256 N 135.985 -1.50799 -0.457987 0
M  V30 1257 C 136.895 -1.73426 -1.57989 0
M  V30 1258 C 137.911 -0.617745 -1.62665 0
M  V30 1259 O 139.087 -0.897614 -1.80291 0
M  V30 1260 C 136.152 -1.83557 -2.94122 0
M  V30 1261 C 135.213 -3.07345 -2.99729 0
M  V30 1262 C 134.446 -3.16983 -4.29368 0
M  V30 1263 O 134.669 -2.33077 -5.20607 0
M  V30 1264 O 133.603 -4.09812 -4.40837 0
M  V30 1265 H 137.429 -2.68555 -1.41817 0
M  V30 1266 H 135.014 -1.35052 -0.638859 0
M  V30 1267 H 136.896 -1.92326 -3.74952 0
M  V30 1268 H 135.571 -0.916137 -3.10465 0
M  V30 1269 H 134.478 -3.04068 -2.1793 0
M  V30 1270 H 135.811 -3.9891 -2.88326 0
M  V30 1271 N 137.463 0.71206 -1.40597 0
M  V30 1272 C 138.693 1.49894 -1.42181 0
M  V30 1273 C 139.101 1.89189 -0.0208078 0
M  V30 1274 O 138.444 1.56223 0.966436 0
M  V30 1275 C 138.506 2.80215 -2.25211 0
M  V30 1276 C 138.17 2.63221 -3.73582 0
M  V30 1277 C 139.167 2.30249 -4.66135 0
M  V30 1278 C 136.852 2.79376 -4.17438 0
M  V30 1279 C 138.846 2.13645 -6.00529 0
M  V30 1280 C 136.533 2.6239 -5.51901 0
M  V30 1281 C 137.531 2.29573 -6.43262 0
M  V30 1282 O 137.219 2.12719 -7.75246 0
M  V30 1283 H 136.951 0.469031 -0.486812 0
M  V30 1284 H 139.505 0.88564 -1.85326 0
M  V30 1285 H 137.735 3.4389 -1.76852 0
M  V30 1286 H 139.424 3.41947 -2.18694 0
M  V30 1287 H 140.19 2.17398 -4.33547 0
M  V30 1288 H 136.069 3.03906 -3.46644 0
M  V30 1289 H 139.613 1.87953 -6.71803 0
M  V30 1290 H 135.51 2.74826 -5.84073 0
M  V30 1291 H 136.278 2.27611 -7.86216 0
M  V30 1292 N 138.941 1.26152 0.944643 0
M  V30 1293 C 139.871 1.09902 2.06019 0
M  V30 1294 C 140.852 0.00519538 1.70099 0
M  V30 1295 O 142.037 0.176583 1.93396 0
M  V30 1296 C 139.167 0.727562 3.39594 0
M  V30 1297 C 138.121 1.77274 3.89561 0
M  V30 1298 C 137.447 1.25569 5.19747 0
M  V30 1299 C 138.747 3.17357 4.14827 0
M  V30 1300 H 140.441 2.03217 2.19871 0
M  V30 1301 H 137.987 0.978452 1.05652 0
M  V30 1302 H 139.94 0.600777 4.17095 0
M  V30 1303 H 138.664 -0.241287 3.25707 0
M  V30 1304 H 137.323 1.88814 3.14237 0
M  V30 1305 H 136.971 0.276783 5.02238 0
M  V30 1306 H 136.671 1.95433 5.54148 0
M  V30 1307 H 138.195 1.1415 5.99835 0
M  V30 1308 H 139.609 3.08914 4.82954 0
M  V30 1309 H 138.006 3.84781 4.60504 0
M  V30 1310 H 139.076 3.63673 3.20734 0
M  V30 1311 N 140.419 -1.14872 1.07899 0
M  V30 1312 C 141.349 -2.2193 0.725887 0
M  V30 1313 C 142.33 -1.67622 -0.28927 0
M  V30 1314 O 143.515 -1.93533 -0.160787 0
M  V30 1315 C 140.645 -3.47061 0.128856 0
M  V30 1316 C 139.599 -4.14363 1.07178 0
M  V30 1317 C 138.925 -5.33636 0.337229 0
M  V30 1318 C 140.225 -4.63492 2.40775 0
M  V30 1319 H 141.919 -2.51724 1.62097 0
M  V30 1320 H 139.465 -1.20991 0.780838 0
M  V30 1321 H 141.418 -4.21199 -0.130147 0
M  V30 1322 H 140.142 -3.16617 -0.80134 0
M  V30 1323 H 138.801 -3.42173 1.3158 0
M  V30 1324 H 138.449 -4.99449 -0.596606 0
M  V30 1325 H 138.149 -5.79609 0.965788 0
M  V30 1326 H 139.673 -6.10539 0.0861567 0
M  V30 1327 H 141.087 -5.2913 2.20669 0
M  V30 1328 H 139.484 -5.20148 2.99276 0
M  V30 1329 H 140.554 -3.78834 3.02676 0
M  V30 1330 N 141.898 -0.863906 -1.31812 0
M  V30 1331 C 142.845 -0.313303 -2.28664 0
M  V30 1332 C 143.815 0.584868 -1.55462 0
M  V30 1333 O 145 0.517805 -1.83639 0
M  V30 1334 C 142.14 0.48441 -3.41683 0
M  V30 1335 C 141.253 -0.440594 -4.29747 0
M  V30 1336 C 140.388 0.370652 -5.29905 0
M  V30 1337 C 139.427 -0.551164 -6.09613 0
M  V30 1338 N 138.564 0.223462 -7.01744 0
M  V30 1339 H 143.404 -1.14444 -2.75148 0
M  V30 1340 H 140.941 -0.575769 -1.35364 0
M  V30 1341 H 142.899 0.962627 -4.05943 0
M  V30 1342 H 141.529 1.28029 -2.96325 0
M  V30 1343 H 140.581 -1.03724 -3.65986 0
M  V30 1344 H 141.893 -1.14767 -4.85417 0
M  V30 1345 H 141.047 0.911638 -5.99812 0
M  V30 1346 H 139.786 1.11105 -4.74876 0
M  V30 1347 H 138.791 -1.10396 -5.38603 0
M  V30 1348 H 140.016 -1.29032 -6.66729 0
M  V30 1349 H 137.962 0.946787 -6.49132 0
M  V30 1350 H 137.879 -0.424399 -7.54808 0
M  V30 1351 H 139.147 0.745876 -7.75923 0
M  V30 1352 N 143.376 1.44774 -0.622745 0
M  V30 1353 C 144.308 2.28856 0.125485 0
M  V30 1354 C 145.321 1.40811 0.817069 0
M  V30 1355 O 146.51 1.65044 0.679918 0
M  V30 1356 C 143.61 3.16963 1.19949 0
M  V30 1357 C 142.783 4.33374 0.592064 0
M  V30 1358 C 141.842 5.02577 1.55893 0
M  V30 1359 O 140.868 5.58873 1.07933 0
M  V30 1360 N 142.07 5.03256 2.89334 0
M  V30 1361 H 144.835 2.93713 -0.596068 0
M  V30 1362 H 142.396 1.55129 -0.463303 0
M  V30 1363 H 144.388 3.60123 1.84644 0
M  V30 1364 H 142.958 2.53913 1.82337 0
M  V30 1365 H 142.178 3.93509 -0.233322 0
M  V30 1366 H 143.466 5.08527 0.166738 0
M  V30 1367 H 142.864 4.58836 3.30887 0
M  V30 1368 H 141.421 5.50232 3.49412 0
M  V30 1369 N 144.854 0.36279 1.53368 0
M  V30 1370 C 146.082 -0.228613 2.05633 0
M  V30 1371 C 146.497 -1.42676 1.23649 0
M  V30 1372 O 145.854 -1.80394 0.27647 0
M  V30 1373 C 145.905 -0.624845 3.56059 0
M  V30 1374 O 145.626 0.525675 4.34935 0
M  V30 1375 C 147.127 -1.27493 4.24571 0
M  V30 1376 H 144.347 -0.0407183 0.669763 0
M  V30 1377 H 146.891 0.520352 1.97769 0
M  V30 1378 H 145.046 -1.32373 3.64083 0
M  V30 1379 H 145.46 0.205969 5.24095 0
M  V30 1380 H 146.934 -1.50277 5.31151 0
M  V30 1381 H 147.411 -2.23439 3.78116 0
M  V30 1382 H 148.017 -0.617558 4.20792 0
M  V30 1383 N 146.332 -1.57332 0.0918853 0
M  V30 1384 C 147.242 -2.17368 -0.882505 0
M  V30 1385 C 148.258 -1.14226 -1.31257 0
M  V30 1386 O 149.434 -1.46582 -1.38115 0
M  V30 1387 C 146.499 -2.73962 -2.12476 0
M  V30 1388 C 145.56 -3.92048 -1.7492 0
M  V30 1389 C 144.793 -4.45933 -2.93223 0
M  V30 1390 O 145.016 -3.98764 -4.07852 0
M  V30 1391 O 143.95 -5.36999 -2.71875 0
M  V30 1392 H 147.776 -3.01031 -0.40172 0
M  V30 1393 H 145.361 -1.48813 -0.132291 0
M  V30 1394 H 147.243 -3.10147 -2.85283 0
M  V30 1395 H 145.918 -1.93347 -2.59613 0
M  V30 1396 H 144.825 -3.6068 -0.993025 0
M  V30 1397 H 146.158 -4.74017 -1.32548 0
M  V30 1398 N 147.81 0.181792 -1.56548 0
M  V30 1399 C 148.74 1.22765 -1.98623 0
M  V30 1400 C 149.721 1.46747 -0.860189 0
M  V30 1401 O 150.906 1.58259 -1.12551 0
M  V30 1402 C 148.036 2.56894 -2.33715 0
M  V30 1403 C 146.99 2.475 -3.49182 0
M  V30 1404 C 146.316 3.86023 -3.69986 0
M  V30 1405 C 147.616 1.98866 -4.82959 0
M  V30 1406 H 149.31 0.877942 -2.86239 0
M  V30 1407 H 146.856 0.42088 -1.37712 0
M  V30 1408 H 148.809 3.30253 -2.61746 0
M  V30 1409 H 147.533 2.93632 -1.42997 0
M  V30 1410 H 146.192 1.76596 -3.21262 0
M  V30 1411 H 145.84 4.20136 -2.76576 0
M  V30 1412 H 145.54 3.80609 -4.47672 0
M  V30 1413 H 147.064 4.60984 -4.00407 0
M  V30 1414 H 148.478 2.61992 -5.09934 0
M  V30 1415 H 146.875 2.04424 -5.64208 0
M  V30 1416 H 147.945 0.942465 -4.75653 0
M  V30 1417 N 149.288 1.51039 0.449983 0
M  V30 1418 C 150.535 1.63081 1.20045 0
M  V30 1419 C 150.863 0.341024 1.91487 0
M  V30 1420 O 150.118 -0.674276 1.83717 0
M  V30 1421 C 150.417 2.77556 2.25161 0
M  V30 1422 C 150.083 4.17289 1.70823 0
M  V30 1423 C 148.745 4.55305 1.55725 0
M  V30 1424 C 151.097 5.04536 1.3074 0
M  V30 1425 C 148.425 5.78287 0.989999 0
M  V30 1426 C 150.777 6.28085 0.754482 0
M  V30 1427 C 149.441 6.64885 0.590308 0
M  V30 1428 H 148.711 0.596755 0.439277 0
M  V30 1429 H 151.358 1.85037 0.49333 0
M  V30 1430 H 149.663 2.49771 3.01863 0
M  V30 1431 H 151.36 2.84073 2.83026 0
M  V30 1432 H 147.95 3.8731 1.83546 0
M  V30 1433 H 152.134 4.75782 1.41229 0
M  V30 1434 H 147.39 6.05456 0.850451 0
M  V30 1435 H 151.564 6.95038 0.435324 0
M  V30 1436 H 149.191 7.60055 0.14862 0
M  V30 1437 N 150.766 -0.704594 1.40972 0
M  V30 1438 C 151.729 -1.80035 1.41845 0
M  V30 1439 C 152.729 -1.57774 0.310474 0
M  V30 1440 O 153.919 -1.64613 0.56992 0
M  V30 1441 C 151.051 -3.18284 1.22098 0
M  V30 1442 H 152.244 -1.80658 2.3938 0
M  V30 1443 H 149.797 -0.911329 1.26982 0
M  V30 1444 H 150.532 -3.23306 0.253672 0
M  V30 1445 H 150.317 -3.35843 2.02366 0
M  V30 1446 H 151.807 -3.98289 1.25522 0
M  V30 1447 N 152.244 -1.26651 -0.937939 0
M  V30 1448 C 153.194 -1.05156 -2.02302 0
M  V30 1449 C 154.178 0.0171233 -1.60891 0
M  V30 1450 O 155.37 -0.200213 -1.75864 0
M  V30 1451 C 152.499 -0.689962 -3.36295 0
M  V30 1452 C 151.585 -1.79626 -3.84181 0
M  V30 1453 N 151.976 -3.03422 -4.04684 0
M  V30 1454 C 150.274 -1.6806 -4.13124 0
M  V30 1455 C 150.975 -3.75345 -4.444 0
M  V30 1456 N 149.951 -3.03051 -4.51288 0
M  V30 1457 H 153.753 -1.99117 -2.1617 0
M  V30 1458 H 151.267 -1.17216 -1.12402 0
M  V30 1459 H 153.264 -0.517112 -4.13681 0
M  V30 1460 H 151.924 0.242139 -3.23796 0
M  V30 1461 H 152.935 -3.39293 -3.91281 0
M  V30 1462 H 149.612 -0.818629 -4.09396 0
M  V30 1463 H 151.002 -4.81691 -4.68427 0
M  V30 1464 N 153.722 1.14298 -1.08507 0
M  V30 1465 C 154.969 1.85359 -0.815373 0
M  V30 1466 C 155.297 1.83001 0.658865 0
M  V30 1467 O 154.552 1.25655 1.50031 0
M  V30 1468 C 154.851 3.33547 -1.28379 0
M  V30 1469 C 154.517 3.56093 -2.76602 0
M  V30 1470 C 153.179 3.61955 -3.17084 0
M  V30 1471 C 155.531 3.64834 -3.72217 0
M  V30 1472 C 152.859 3.74082 -4.51973 0
M  V30 1473 C 155.211 3.78487 -5.06883 0
M  V30 1474 C 153.875 3.82598 -5.46969 0
M  V30 1475 H 153.145 0.678276 -0.298366 0
M  V30 1476 H 155.792 1.35002 -1.35819 0
M  V30 1477 H 154.097 3.86191 -0.660593 0
M  V30 1478 H 155.794 3.86959 -1.05186 0
M  V30 1479 H 152.384 3.52179 -2.4427 0
M  V30 1480 H 156.568 3.59595 -3.42061 0
M  V30 1481 H 151.824 3.75527 -4.82483 0
M  V30 1482 H 155.998 3.84193 -5.80834 0
M  V30 1483 H 153.625 3.91747 -6.51489 0
M  V30 1484 N 155.201 0.870884 1.31352 0
M  V30 1485 C 156.45 0.478408 1.95944 0
M  V30 1486 C 156.763 -0.974493 1.69597 0
M  V30 1487 O 157.969 -1.47316 2.28058 0
M  V30 1488 C 156.425 0.804609 3.50791 0
M  V30 1489 C 156.033 2.27433 3.85977 0
M  V30 1490 C 157.777 0.480648 4.2177 0
M  V30 1491 C 155.684 2.5429 5.33939 0
M  V30 1492 H 154.614 0.175175 0.733369 0
M  V30 1493 H 157.265 1.06391 1.4951 0
M  V30 1494 H 155.647 0.148347 3.95722 0
M  V30 1495 H 156.821 2.97373 3.52002 0
M  V30 1496 H 155.136 2.56442 3.28065 0
M  V30 1497 H 157.733 0.658519 5.30629 0
M  V30 1498 H 158.076 -0.578979 4.12254 0
M  V30 1499 H 158.609 1.09349 3.82476 0
M  V30 1500 H 155.348 3.58939 5.48491 0
M  V30 1501 H 154.868 1.88945 5.69263 0
M  V30 1502 H 156.547 2.39066 6.01212 0
M  V30 1503 N 156.679 -1.44442 0.630414 0
M  V30 1504 C 157.611 -2.2892 -0.113347 0
M  V30 1505 C 158.624 -1.41243 -0.80959 0
M  V30 1506 O 159.813 -1.65402 -0.671156 0
M  V30 1507 C 156.913 -3.17594 -1.18266 0
M  V30 1508 C 156.086 -4.33682 -0.569073 0
M  V30 1509 C 155.145 -5.03397 -1.53226 0
M  V30 1510 O 154.171 -5.59438 -1.04967 0
M  V30 1511 N 155.373 -5.04783 -2.86661 0
M  V30 1512 H 158.138 -2.93392 0.611636 0
M  V30 1513 H 155.699 -1.54881 0.471523 0
M  V30 1514 H 157.691 -3.61097 -1.82732 0
M  V30 1515 H 156.261 -2.54876 -1.80988 0
M  V30 1516 H 155.481 -3.9338 0.254187 0
M  V30 1517 H 156.769 -5.08608 -0.139767 0
M  V30 1518 H 156.167 -4.60584 -3.28449 0
M  V30 1519 H 154.724 -5.52077 -3.46489 0
M  V30 1520 N 158.157 -0.370918 -1.53173 0
M  V30 1521 C 159.568 0.107139 -1.86392 0
M  V30 1522 C 159.919 1.47714 -1.29132 0
M  V30 1523 O 159.044 2.07464 -0.615439 0
M  V30 1524 C 159.639 0.201187 -3.38202 0
M  V30 1525 C 158.198 0.623507 -3.712 0
M  V30 1526 C 157.345 -0.225978 -2.76378 0
M  V30 1527 H 160.296 -0.58951 -1.47345 0
M  V30 1528 H 160.317 1.02377 -3.66468 0
M  V30 1529 H 159.829 -0.796058 -3.79848 0
M  V30 1530 H 157.93 1.62879 -3.35114 0
M  V30 1531 H 158.043 0.394414 -4.77474 0
M  V30 1532 H 156.407 0.305962 -2.52856 0
M  V30 1533 H 157.19 -1.22086 -3.20858 0
M  V30 1534 N 159.635 1.57281 -0.100228 0
M  V30 1535 C 160.598 2.13158 0.842398 0
M  V30 1536 C 161.598 1.06202 1.20738 0
M  V30 1537 O 162.788 1.32066 1.13597 0
M  V30 1538 C 159.92 2.65639 2.13655 0
M  V30 1539 H 161.113 2.97766 0.357114 0
M  V30 1540 H 158.666 1.5559 0.148823 0
M  V30 1541 H 159.401 1.84566 2.66657 0
M  V30 1542 H 159.186 3.43844 1.88451 0
M  V30 1543 H 160.676 3.08846 2.81077 0
M  V30 1544 N 161.113 -0.173488 1.56642 0
M  V30 1545 C 162.076 -1.19859 1.95362 0
M  V30 1546 C 163.076 -1.37296 0.83704 0
M  V30 1547 O 164.266 -1.34739 1.10413 0
M  V30 1548 C 161.398 -2.56405 2.24654 0
M  V30 1549 H 162.591 -0.867062 2.87092 0
M  V30 1550 H 160.144 -0.415853 1.50666 0
M  V30 1551 H 160.879 -2.94576 1.35631 0
M  V30 1552 H 160.664 -2.45115 3.06041 0
M  V30 1553 H 162.154 -3.30287 2.5554 0
M  V30 1554 N 162.591 -1.51276 -0.441967 0
M  V30 1555 C 163.523 -1.68444 -1.55433 0
M  V30 1556 C 164.536 -0.565187 -1.52674 0
M  V30 1557 O 165.725 -0.839356 -1.57534 0
M  V30 1558 C 162.825 -1.67966 -2.94348 0
M  V30 1559 C 161.998 -2.964 -3.21661 0
M  V30 1560 C 161.057 -2.88171 -4.40277 0
M  V30 1561 O 160.083 -3.62119 -4.39157 0
M  V30 1562 N 161.285 -2.03706 -5.43584 0
M  V30 1563 H 164.05 -2.644 -1.41112 0
M  V30 1564 H 161.611 -1.49104 -0.630838 0
M  V30 1565 H 163.603 -1.60035 -3.71713 0
M  V30 1566 H 162.173 -0.796225 -3.0229 0
M  V30 1567 H 161.393 -3.18234 -2.32638 0
M  V30 1568 H 162.681 -3.81427 -3.36736 0
M  V30 1569 H 162.079 -1.42995 -5.47329 0
M  V30 1570 H 160.636 -2.01658 -6.1982 0
M  V30 1571 N 164.069 0.697108 -1.41344 0
M  V30 1572 C 165.016 1.81106 -1.43071 0
M  V30 1573 C 165.986 1.63632 -0.285275 0
M  V30 1574 O 167.171 1.84504 -0.486091 0
M  V30 1575 C 164.311 3.18975 -1.31715 0
M  V30 1576 C 163.424 3.47892 -2.56115 0
M  V30 1577 C 162.559 4.75367 -2.37064 0
M  V30 1578 C 161.598 4.97247 -3.56948 0
M  V30 1579 N 160.735 6.15947 -3.36977 0
M  V30 1580 H 165.575 1.78965 -2.38276 0
M  V30 1581 H 163.112 0.873975 -1.18322 0
M  V30 1582 H 165.07 3.98615 -1.23133 0
M  V30 1583 H 163.7 3.20297 -0.401183 0
M  V30 1584 H 162.752 2.62669 -2.75153 0
M  V30 1585 H 164.064 3.59962 -3.45295 0
M  V30 1586 H 163.218 5.63059 -2.25941 0
M  V30 1587 H 161.957 4.65541 -1.45338 0
M  V30 1588 H 160.962 4.08004 -3.68527 0
M  V30 1589 H 162.187 5.08934 -4.49626 0
M  V30 1590 H 160.133 6.07336 -2.47949 0
M  V30 1591 H 160.05 6.28777 -4.19732 0
M  V30 1592 H 161.318 7.06377 -3.29623 0
M  V30 1593 N 165.547 1.27147 0.931209 0
M  V30 1594 C 166.775 1.16082 1.71267 0
M  V30 1595 C 167.19 -0.282772 1.8667 0
M  V30 1596 O 166.547 -1.19283 1.38122 0
M  V30 1597 C 166.598 1.8358 3.11417 0
M  V30 1598 O 166.319 3.22299 2.96741 0
M  V30 1599 C 167.82 1.78597 4.05732 0
M  V30 1600 H 165.04 0.403758 0.535929 0
M  V30 1601 H 167.584 1.67953 1.16671 0
M  V30 1602 H 165.739 1.35623 3.62885 0
M  V30 1603 H 166.153 3.55851 3.85319 0
M  V30 1604 H 167.627 2.30444 5.01597 0
M  V30 1605 H 168.104 0.754564 4.3267 0
M  V30 1606 H 168.71 2.26152 3.60188 0
M  V30 1607 N 167.025 -1.13721 1.09112 0
M  V30 1608 C 168.436 -1.6648 0.845068 0
M  V30 1609 C 168.787 -1.85911 -0.62701 0
M  V30 1610 O 167.912 -1.57556 -1.48341 0
M  V30 1611 C 168.507 -3.02413 1.52748 0
M  V30 1612 C 167.066 -3.52176 1.32849 0
M  V30 1613 C 166.213 -2.27492 1.58564 0
M  V30 1614 H 169.164 -0.976872 1.25072 0
M  V30 1615 H 169.185 -3.68223 0.958752 0
M  V30 1616 H 168.697 -2.88238 2.59885 0
M  V30 1617 H 166.798 -3.7156 0.278137 0
M  V30 1618 H 166.911 -4.32499 2.0611 0
M  V30 1619 H 165.275 -2.33923 1.00758 0
M  V30 1620 H 166.058 -2.15886 2.66924 0
M  V30 1621 N 168.503 -0.877838 -1.30888 0
M  V30 1622 C 169.731 -0.507414 -2.00581 0
M  V30 1623 C 170.146 0.902216 -1.65848 0
M  V30 1624 O 169.503 1.59225 -0.891831 0
M  V30 1625 C 169.554 -0.664162 -3.55347 0
M  V30 1626 O 169.275 -2.01829 -3.8884 0
M  V30 1627 C 170.776 -0.295787 -4.42312 0
M  V30 1628 H 167.996 -0.196866 -0.641471 0
M  V30 1629 H 170.54 -1.18117 -1.66939 0
M  V30 1630 H 168.695 -0.0378619 -3.87381 0
M  V30 1631 H 169.109 -2.03174 -4.8355 0
M  V30 1632 H 170.583 -0.456388 -5.5011 0
M  V30 1633 H 171.06 0.765663 -4.32475 0
M  V30 1634 H 171.666 -0.898113 -4.15709 0
M  V30 1635 N 169.982 1.44106 -0.638065 0
M  V30 1636 C 171.207 2.0685 -0.150916 0
M  V30 1637 C 171.632 1.47417 1.16833 0
M  V30 1638 O 170.99 0.578264 1.71831 0
M  V30 1639 C 171.038 3.60555 -0.05708 0
M  V30 1640 O 170.142 4.00465 0.984972 0
M  V30 1641 H 169.483 0.658151 -0.0879399 0
M  V30 1642 H 172.013 1.84865 -0.876707 0
M  V30 1643 H 172.023 4.07789 0.131232 0
M  V30 1644 H 170.698 4.03193 -1.02021 0
M  V30 1645 H 169.275 3.64849 0.770672 0
M  V30 1646 N 171.46 0.379036 1.52974 0
M  V30 1647 C 172.871 -0.0972525 1.86447 0
M  V30 1648 C 173.222 -1.47027 1.29914 0
M  V30 1649 O 172.347 -2.07135 0.626433 0
M  V30 1650 C 172.942 -0.183248 3.38304 0
M  V30 1651 C 171.501 -0.603812 3.71525 0
M  V30 1652 C 170.648 0.240632 2.76254 0
M  V30 1653 H 173.599 0.597316 1.4703 0
M  V30 1654 H 173.62 -1.00432 3.67006 0
M  V30 1655 H 173.132 0.816191 3.79421 0
M  V30 1656 H 171.233 -1.61099 3.35973 0
M  V30 1657 H 171.346 -0.369086 4.77676 0
M  V30 1658 H 169.71 -0.292548 2.53014 0
M  V30 1659 H 170.493 1.23786 3.20206 0
M  V30 1660 N 172.938 -1.57226 0.108567 0
M  V30 1661 C 173.868 -2.17778 -0.84232 0
M  V30 1662 C 174.849 -1.11487 -1.2847 0
M  V30 1663 O 176.034 -1.39681 -1.34918 0
M  V30 1664 C 173.164 -2.76888 -2.09644 0
M  V30 1665 C 172.118 -3.88669 -1.79221 0
M  V30 1666 C 171.444 -4.34541 -3.11574 0
M  V30 1667 C 172.744 -5.11251 -1.06864 0
M  V30 1668 H 174.438 -2.97489 -0.337774 0
M  V30 1669 H 171.984 -1.43097 -0.161025 0
M  V30 1670 H 173.937 -3.17904 -2.76614 0
M  V30 1671 H 172.661 -1.94451 -2.62405 0
M  V30 1672 H 171.32 -3.48213 -1.14644 0
M  V30 1673 H 170.968 -3.48977 -3.62249 0
M  V30 1674 H 170.668 -5.09914 -2.91996 0
M  V30 1675 H 172.192 -4.782 -3.7968 0
M  V30 1676 H 173.606 -5.49352 -1.63968 0
M  V30 1677 H 172.003 -5.9214 -0.974178 0
M  V30 1678 H 173.073 -4.8487 -0.0536168 0
M  V30 1679 N 174.416 0.165178 -1.56732 0
M  V30 1680 C 175.363 1.2044 -1.96883 0
M  V30 1681 C 176.333 1.43664 -0.833657 0
M  V30 1682 O 177.518 1.56302 -1.09427 0
M  V30 1683 C 174.658 2.53727 -2.33916 0
M  V30 1684 C 173.771 2.3783 -3.6064 0
M  V30 1685 C 172.906 3.64026 -3.86857 0
M  V30 1686 C 171.945 3.43088 -5.06909 0
M  V30 1687 N 171.082 4.61369 -5.29229 0
M  V30 1688 H 175.922 0.854996 -2.85471 0
M  V30 1689 H 173.459 0.41076 -1.41249 0
M  V30 1690 H 175.417 3.31419 -2.53411 0
M  V30 1691 H 174.047 2.8665 -1.48431 0
M  V30 1692 H 173.099 1.51282 -3.49024 0
M  V30 1693 H 174.411 2.18308 -4.4849 0
M  V30 1694 H 173.565 4.50152 -4.06753 0
M  V30 1695 H 172.304 3.86533 -2.97394 0
M  V30 1696 H 171.309 2.55349 -4.86906 0
M  V30 1697 H 172.534 3.21997 -5.97909 0
M  V30 1698 H 170.48 4.84084 -4.42718 0
M  V30 1699 H 170.397 4.44783 -6.11313 0
M  V30 1700 H 171.665 5.48761 -5.53608 0
M  V30 1701 N 175.894 1.51508 0.433938 0
M  V30 1702 C 176.827 1.67756 1.54704 0
M  V30 1703 C 177.805 0.525127 1.53887 0
M  V30 1704 O 178.989 0.749393 1.72963 0
M  V30 1705 C 176.116 1.69424 2.9328 0
M  V30 1706 C 175.162 2.90673 3.12108 0
M  V30 1707 S 175.995 4.51431 2.88046 0
M  V30 1708 C 177.151 4.55849 4.28897 0
M  V30 1709 H 177.384 2.61904 1.40689 0
M  V30 1710 H 174.917 1.41235 0.62386 0
M  V30 1711 H 176.875 1.7107 3.73156 0
M  V30 1712 H 175.536 0.764464 3.04655 0
M  V30 1713 H 174.729 2.88251 4.13434 0
M  V30 1714 H 174.331 2.86786 2.40062 0
M  V30 1715 H 176.623 4.31699 5.22152 0
M  V30 1716 H 177.566 5.57676 4.36351 0
M  V30 1717 H 177.974 3.85137 4.12711 0
M  V30 1718 N 177.372 -0.689602 1.41712 0
M  V30 1719 C 178.319 -1.80345 1.44029 0
M  V30 1720 C 179.289 -1.63478 0.293948 0
M  V30 1721 O 180.474 -1.84244 0.495869 0
M  V30 1722 C 177.614 -3.18272 1.33405 0
M  V30 1723 C 176.727 -3.46529 2.57956 0
M  V30 1724 C 175.862 -4.74103 2.39582 0
M  V30 1725 C 174.901 -4.95347 3.5958 0
M  V30 1726 N 174.038 -6.14151 3.40239 0
M  V30 1727 H 178.878 -1.77698 2.39222 0
M  V30 1728 H 176.415 -0.867688 1.18784 0
M  V30 1729 H 178.373 -3.97956 1.25246 0
M  V30 1730 H 177.003 -3.2008 0.418164 0
M  V30 1731 H 176.055 -2.61207 2.76542 0
M  V30 1732 H 177.367 -3.58126 3.47199 0
M  V30 1733 H 176.521 -5.61853 2.28924 0
M  V30 1734 H 175.26 -4.64763 1.47805 0
M  V30 1735 H 174.265 -4.06044 3.70686 0
M  V30 1736 H 175.49 -5.06542 4.52318 0
M  V30 1737 H 173.436 -6.06013 2.51167 0
M  V30 1738 H 173.353 -6.26543 4.23061 0
M  V30 1739 H 174.621 -7.04619 3.33365 0
M  V30 1740 N 178.85 -1.27639 -0.924453 0
M  V30 1741 C 180.261 -1.12834 -1.48746 0
M  V30 1742 C 180.612 0.285505 -1.94112 0
M  V30 1743 O 179.737 1.17874 -1.81479 0
M  V30 1744 C 180.332 -2.04217 -2.70334 0
M  V30 1745 C 178.891 -1.93509 -3.22848 0
M  V30 1746 C 178.038 -1.96583 -1.95577 0
M  V30 1747 H 180.989 -1.40484 -0.738233 0
M  V30 1748 H 181.01 -1.59989 -3.4523 0
M  V30 1749 H 180.522 -3.07111 -2.37285 0
M  V30 1750 H 178.623 -0.936131 -3.60649 0
M  V30 1751 H 178.736 -2.79917 -3.88823 0
M  V30 1752 H 177.1 -1.4085 -2.12211 0
M  V30 1753 H 177.883 -3.01137 -1.64837 0
M  V30 1754 N 180.328 1.1314 -1.09713 0
M  V30 1755 C 181.576 1.84119 -0.833338 0
M  V30 1756 C 181.897 1.84097 0.642904 0
M  V30 1757 O 181.167 1.29881 1.46655 0
M  V30 1758 H 179.747 0.681766 -0.305293 0
M  V30 1759 H 182.409 1.37038 -1.38588 0
M  V30 1760 H 181.505 2.88543 -1.18951 0
M  V30 1761 N 181.806 0.884767 1.30421 0
M  V30 1762 C 183.222 0.57874 1.48737 0
M  V30 1763 C 183.422 -0.883567 1.81095 0
M  V30 1764 O 182.478 -1.6648 1.89844 0
M  V30 1765 C 183.791 1.49171 2.61091 0
M  V30 1766 C 185.339 1.49532 2.74971 0
M  V30 1767 C 185.814 2.39421 3.90438 0
M  V30 1768 N 187.305 2.37383 3.97748 0
M  V30 1769 C 188.04 3.03647 4.86401 0
M  V30 1770 N 187.536 3.79136 5.79852 0
M  V30 1771 N 189.329 2.9288 4.79768 0
M  V30 1772 H 181.48 1.83075 1.0769 0
M  V30 1773 H 183.743 0.783637 0.533495 0
M  V30 1774 H 183.449 2.53291 2.44001 0
M  V30 1775 H 183.323 1.20113 3.57565 0
M  V30 1776 H 185.71 0.46163 2.91467 0
M  V30 1777 H 185.791 1.8262 1.79119 0
M  V30 1778 H 185.435 3.42874 3.74699 0
M  V30 1779 H 185.365 2.03649 4.85628 0
M  V30 1780 H 187.856 1.82525 3.30897 0
M  V30 1781 H 188.169 4.26789 6.4426 0
M  V30 1782 H 186.514 3.83243 5.79784 0
M  V30 1783 H 189.705 2.33433 4.05742 0
M  V30 1784 H 189.878 3.448 5.4865 0
M  V30 1785 N 183.284 -1.43765 0.645699 0
M  V30 1786 C 184.695 -1.85193 0.236719 0
M  V30 1787 C 185.046 -1.54045 -1.21509 0
M  V30 1788 O 184.171 -0.985694 -1.92647 0
M  V30 1789 C 184.766 -3.36151 0.422845 0
M  V30 1790 C 183.325 -3.76338 0.0682492 0
M  V30 1791 C 182.472 -2.67538 0.729306 0
M  V30 1792 H 185.423 -1.34025 0.849883 0
M  V30 1793 H 185.444 -3.79032 -0.333904 0
M  V30 1794 H 184.956 -3.5879 1.47958 0
M  V30 1795 H 183.057 -3.59312 -0.986179 0
M  V30 1796 H 183.17 -4.76603 0.488469 0
M  V30 1797 H 181.534 -2.54176 0.163235 0
M  V30 1798 H 182.317 -2.93006 1.78892 0
M  V30 1799 N 184.763 -0.387143 -1.52771 0
M  V30 1800 C 186.179 -0.037007 -1.59557 0
M  V30 1801 C 186.379 1.44801 -1.40124 0
M  V30 1802 O 185.435 2.21227 -1.21716 0
M  V30 1803 C 186.748 -0.512256 -2.96305 0
M  V30 1804 C 188.296 -0.468328 -3.09476 0
M  V30 1805 C 188.771 -0.919731 -4.4867 0
M  V30 1806 N 190.262 -0.875656 -4.54848 0
M  V30 1807 C 190.997 -1.19637 -5.6078 0
M  V30 1808 N 190.493 -1.58745 -6.74368 0
M  V30 1809 N 192.286 -1.11776 -5.50874 0
M  V30 1810 H 184.437 -1.35395 -1.63652 0
M  V30 1811 H 186.7 -0.554818 -0.768688 0
M  V30 1812 H 186.406 -1.54935 -3.15734 0
M  V30 1813 H 186.28 0.089805 -3.77093 0
M  V30 1814 H 188.667 0.559671 -2.89744 0
M  V30 1815 H 188.748 -1.10616 -2.30646 0
M  V30 1816 H 188.392 -1.94595 -4.69143 0
M  V30 1817 H 188.322 -0.258927 -5.25963 0
M  V30 1818 H 190.813 -0.587843 -3.733 0
M  V30 1819 H 191.126 -1.81586 -7.51163 0
M  V30 1820 H 189.471 -1.6263 -6.75705 0
M  V30 1821 H 192.662 -0.811264 -4.61016 0
M  V30 1822 H 192.835 -1.37103 -6.3333 0
M  V30 1823 N 186.241 1.57166 -0.116904 0
M  V30 1824 C 187.49 1.94298 0.541407 0
M  V30 1825 C 187.803 1.00236 1.67964 0
M  V30 1826 O 189.009 1.26826 2.40057 0
M  V30 1827 C 187.465 3.45306 1.01449 0
M  V30 1828 C 187.073 4.47899 -0.0951738 0
M  V30 1829 C 188.817 3.91361 1.6443 0
M  V30 1830 C 186.724 5.90083 0.394491 0
M  V30 1831 H 185.654 0.725308 0.206019 0
M  V30 1832 H 188.305 1.82446 -0.196419 0
M  V30 1833 H 186.687 3.52385 1.80667 0
M  V30 1834 H 187.861 4.52486 -0.871374 0
M  V30 1835 H 186.176 4.11583 -0.631505 0
M  V30 1836 H 188.773 4.95004 2.02176 0
M  V30 1837 H 189.116 3.3122 2.52189 0
M  V30 1838 H 189.649 3.87073 0.917559 0
M  V30 1839 H 186.388 6.53974 -0.447004 0
M  V30 1840 H 185.908 5.88921 1.13722 0
M  V30 1841 H 187.587 6.41307 0.856399 0
M  V30 1842 N 187.719 -0.156864 1.56817 0
M  V30 1843 C 188.666 -1.19394 1.97519 0
M  V30 1844 C 189.636 -1.4322 0.841265 0
M  V30 1845 O 190.821 -1.55719 1.10255 0
M  V30 1846 C 187.961 -2.52483 2.35258 0
M  V30 1847 C 187.074 -2.35914 3.61896 0
M  V30 1848 C 186.209 -3.61969 3.88782 0
M  V30 1849 C 185.248 -3.40395 5.08722 0
M  V30 1850 N 184.385 -4.58556 5.31668 0
M  V30 1851 H 189.225 -0.839845 2.85921 0
M  V30 1852 H 186.762 -0.403264 1.41464 0
M  V30 1853 H 188.72 -3.30071 2.55165 0
M  V30 1854 H 187.35 -2.85859 1.49949 0
M  V30 1855 H 186.402 -1.49429 3.49821 0
M  V30 1856 H 187.714 -2.15926 4.49641 0
M  V30 1857 H 186.868 -4.47989 4.09135 0
M  V30 1858 H 185.607 -3.84951 2.9944 0
M  V30 1859 H 184.612 -2.52763 4.88253 0
M  V30 1860 H 185.837 -3.18822 5.99608 0
M  V30 1861 H 183.783 -4.81729 4.45279 0
M  V30 1862 H 183.7 -4.41535 6.13664 0
M  V30 1863 H 184.968 -5.45817 5.5651 0
M  V30 1864 N 189.197 -1.51736 -0.425897 0
M  V30 1865 C 190.144 -1.73875 -1.51776 0
M  V30 1866 C 191.114 -0.580702 -1.55618 0
M  V30 1867 O 192.299 -0.81641 -1.72451 0
M  V30 1868 C 189.439 -1.88012 -2.89388 0
M  V30 1869 C 188.552 -3.15606 -2.94986 0
M  V30 1870 C 187.687 -3.20271 -4.23793 0
M  V30 1871 C 186.726 -4.42134 -4.23302 0
M  V30 1872 N 185.863 -4.44284 -5.43651 0
M  V30 1873 H 190.703 -2.67071 -1.32201 0
M  V30 1874 H 188.24 -1.32351 -0.642008 0
M  V30 1875 H 190.198 -1.9419 -3.69251 0
M  V30 1876 H 188.828 -0.98213 -3.07496 0
M  V30 1877 H 187.88 -3.18681 -2.07717 0
M  V30 1878 H 189.192 -4.05486 -2.90486 0
M  V30 1879 H 188.346 -3.25428 -5.12036 0
M  V30 1880 H 187.085 -2.28299 -4.30965 0
M  V30 1881 H 186.09 -4.3714 -3.3345 0
M  V30 1882 H 187.315 -5.35382 -4.17783 0
M  V30 1883 H 185.261 -3.55188 -5.51523 0
M  V30 1884 H 185.178 -5.27988 -5.41078 0
M  V30 1885 H 186.446 -4.53649 -6.33895 0
M  V30 1886 N 190.675 0.682077 -1.42076 0
M  V30 1887 C 191.952 1.43755 -1.32642 0
M  V30 1888 C 192.332 2.11063 0.0396611 0
M  V30 1889 O 191.68 2.02701 1.05474 0
M  V30 1890 C 191.89 2.44596 -2.48946 0
M  V30 1891 C 193.238 3.09454 -2.9073 0
M  V30 1892 O 194.262 2.54922 -2.48783 0
M  V30 1893 O 193.121 4.08253 -3.63307 0
M  V30 1894 H 190.215 0.640857 -0.522715 0
M  V30 1895 H 192.761 0.711415 -1.54068 0
M  V30 1896 H 191.533 1.93609 -3.40046 0
M  V30 1897 H 191.156 3.24701 -2.29467 0
M  V30 1898 N 192.153 1.28127 0.917671 0
M  V30 1899 C 193.063 1.13556 2.05286 0
M  V30 1900 C 194.079 0.0630914 1.73886 0
M  V30 1901 O 195.255 0.271598 1.9956 0
M  V30 1902 C 192.32 0.794676 3.3747 0
M  V30 1903 C 191.381 1.94909 3.82504 0
M  V30 1904 C 190.614 1.62437 5.0838 0
M  V30 1905 O 190.837 0.536905 5.67867 0
M  V30 1906 O 189.771 2.46677 5.4903 0
M  V30 1907 H 193.597 2.08844 2.20495 0
M  V30 1908 H 191.182 1.07409 1.03845 0
M  V30 1909 H 193.064 0.618344 4.16839 0
M  V30 1910 H 191.739 -0.128581 3.23445 0
M  V30 1911 H 190.646 2.18055 3.03978 0
M  V30 1912 H 191.979 2.85291 4.01086 0
M  V30 1913 N 193.631 -1.12557 1.10312 0
M  V30 1914 C 194.578 -2.18247 0.750781 0
M  V30 1915 C 195.548 -1.63853 -0.272293 0
M  V30 1916 O 196.733 -1.90195 -0.151862 0
M  V30 1917 C 193.873 -3.44591 0.187379 0
M  V30 1918 C 192.986 -4.13046 1.2656 0
M  V30 1919 C 192.121 -5.27034 0.663978 0
M  V30 1920 C 191.16 -5.87353 1.72287 0
M  V30 1921 N 190.297 -6.92757 1.1416 0
M  V30 1922 H 195.137 -2.47732 1.65628 0
M  V30 1923 H 192.674 -1.21629 0.827337 0
M  V30 1924 H 194.632 -4.16904 -0.157148 0
M  V30 1925 H 193.262 -3.15527 -0.681355 0
M  V30 1926 H 192.314 -3.38924 1.72727 0
M  V30 1927 H 193.626 -4.53947 2.06721 0
M  V30 1928 H 192.78 -6.06104 0.268824 0
M  V30 1929 H 191.519 -4.87407 -0.169082 0
M  V30 1930 H 190.524 -5.06971 2.12746 0
M  V30 1931 H 191.749 -6.29051 2.55875 0
M  V30 1932 H 189.695 -6.5517 0.329984 0
M  V30 1933 H 189.612 -7.3225 1.88007 0
M  V30 1934 H 190.88 -7.75658 0.772956 0
M  V30 1935 N 195.109 -0.891671 -1.2995 0
M  V30 1936 C 196.041 -0.320695 -2.26945 0
M  V30 1937 C 197.054 0.528497 -1.53983 0
M  V30 1938 O 198.243 0.346959 -1.75096 0
M  V30 1939 C 195.343 0.562066 -3.34207 0
M  V30 1940 C 194.516 -0.259576 -4.36629 0
M  V30 1941 C 193.575 0.554739 -5.23268 0
M  V30 1942 O 192.601 -0.0249311 -5.69195 0
M  V30 1943 N 193.803 1.8625 -5.4981 0
M  V30 1944 H 196.568 -1.15432 -2.76578 0
M  V30 1945 H 194.129 -0.755336 -1.432 0
M  V30 1946 H 196.121 1.11304 -3.89093 0
M  V30 1947 H 194.691 1.29637 -2.84452 0
M  V30 1948 H 193.911 -0.991986 -3.81514 0
M  V30 1949 H 195.199 -0.822564 -5.02107 0
M  V30 1950 H 194.597 2.35628 -5.14292 0
M  V30 1951 H 193.154 2.36078 -6.07545 0
M  V30 1952 N 196.587 1.43421 -0.653314 0
M  V30 1953 C 197.535 2.32546 0.0501531 0
M  V30 1954 C 198.529 1.48617 0.812985 0
M  V30 1955 O 199.735 1.64825 0.723375 0
M  V30 1956 H 196.11 0.751185 0.0350032 0
M  V30 1957 H 198.081 2.89602 -0.719261 0
M  V30 1958 C 196.83 3.32925 1.00279 0
M  V30 1959 H 196.153 3.97532 0.425236 0
M  V30 1960 H 197.593 3.9792 1.46409 0
M  V30 1961 C 196.052 2.63532 2.09886 0
M  V30 1962 O 196.582 2.45092 3.18265 0
M  V30 1963 N 194.788 2.22905 1.86445 0
M  V30 1964 H 194.335 2.38103 0.98309 0
M  V30 1965 H 194.293 1.76805 2.59976 0
M  V30 1966 N 198.065 0.39524 1.52563 0
M  V30 1967 C 198.995 -0.428384 2.29537 0
M  V30 1968 C 199.976 -1.05831 1.33169 0
M  V30 1969 O 201.161 -1.06995 1.62067 0
M  V30 1970 C 198.291 -1.55274 3.10656 0
M  V30 1971 C 197.245 -1.04855 4.14957 0
M  V30 1972 C 196.571 -2.26543 4.84337 0
M  V30 1973 C 197.871 -0.112324 5.22179 0
M  V30 1974 H 199.565 0.213867 2.98635 0
M  V30 1975 H 197.111 0.104298 1.43622 0
M  V30 1976 H 199.064 -2.1358 3.63265 0
M  V30 1977 H 197.788 -2.22266 2.39302 0
M  V30 1978 H 196.447 -0.487985 3.63338 0
M  V30 1979 H 196.095 -2.92059 4.09525 0
M  V30 1980 H 195.795 -1.93466 5.54837 0
M  V30 1981 H 197.319 -2.85481 5.39753 0
M  V30 1982 H 198.733 -0.603752 5.70112 0
M  V30 1983 H 197.13 0.128968 5.99961 0
M  V30 1984 H 198.2 0.837052 4.77621 0
M  V30 1985 N 199.544 -1.57102 0.125237 0
M  V30 1986 C 200.474 -2.18659 -0.819174 0
M  V30 1987 C 201.455 -1.12843 -1.27281 0
M  V30 1988 O 202.64 -1.41104 -1.33429 0
M  V30 1989 C 199.77 -2.79096 -2.06695 0
M  V30 1990 C 198.724 -3.90548 -1.75088 0
M  V30 1991 C 198.05 -4.37821 -3.06948 0
M  V30 1992 C 199.35 -5.12356 -1.01435 0
M  V30 1993 H 201.044 -2.9783 -0.306202 0
M  V30 1994 H 198.59 -1.4326 -0.145839 0
M  V30 1995 H 200.543 -3.2082 -2.73226 0
M  V30 1996 H 199.267 -1.97223 -2.60328 0
M  V30 1997 H 197.926 -3.49409 -1.10944 0
M  V30 1998 H 197.574 -3.52799 -3.58527 0
M  V30 1999 H 197.274 -5.12982 -2.86571 0
M  V30 2000 H 198.798 -4.822 -3.74587 0
M  V30 2001 H 200.212 -5.5106 -1.58132 0
M  V30 2002 H 198.609 -5.9314 -0.911319 0
M  V30 2003 H 199.679 -4.849 -0.00218681 0
M  V30 2004 N 201.022 0.148545 -1.56898 0
M  V30 2005 C 202.247 0.880385 -1.87787 0
M  V30 2006 C 202.672 1.74018 -0.714093 0
M  V30 2007 O 202.03 1.78153 0.336343 0
M  V30 2008 C 202.078 1.71422 -3.17249 0
M  V30 2009 O 201.182 2.8183 -3.01074 0
M  V30 2010 H 200.523 0.245301 -0.617028 0
M  V30 2011 H 203.053 0.139826 -2.04122 0
M  V30 2012 H 203.063 2.10954 -3.49231 0
M  V30 2013 H 201.738 1.08284 -4.01556 0
M  V30 2014 H 200.315 2.45715 -2.80497 0
M  V30 2015 N 202.5 1.5196 0.417844 0
M  V30 2016 C 203.746 1.65836 1.16732 0
M  V30 2017 C 204.079 0.382881 1.90388 0
M  V30 2018 O 203.354 -0.618368 1.84408 0
M  V30 2019 C 203.637 2.87466 2.16876 0
M  V30 2020 C 203.49 4.25041 1.47174 0
M  V30 2021 C 204.809 3.04613 3.17646 0
M  V30 2022 H 201.928 0.603515 0.423011 0
M  V30 2023 H 204.57 1.84494 0.454105 0
M  V30 2024 H 202.72 2.71689 2.777 0
M  V30 2025 H 204.392 4.52527 0.895376 0
M  V30 2026 H 202.635 4.26843 0.773806 0
M  V30 2027 H 203.306 5.06176 2.20204 0
M  V30 2028 H 205.782 3.1923 2.66892 0
M  V30 2029 H 204.658 3.91247 3.8499 0
M  V30 2030 H 204.919 2.17541 3.84874 0
M  V30 2031 N 203.978 -0.674533 1.42435 0
M  V30 2032 C 205.226 -1.43175 1.42637 0
M  V30 2033 C 205.547 -1.94951 0.0438992 0
M  V30 2034 O 204.817 -1.7308 -0.917607 0
M  V30 2035 H 203.397 -0.531307 0.525092 0
M  V30 2036 H 206.059 -0.797006 1.77859 0
M  V30 2037 H 205.155 -2.28463 2.12629 0
M  V30 2038 N 205.456 -1.28612 -0.910864 0
M  V30 2039 C 206.733 -1.06632 -1.63979 0
M  V30 2040 C 207.113 0.393351 -2.07403 0
M  V30 2041 O 206.461 1.37999 -1.82122 0
M  V30 2042 C 206.671 -2.0436 -2.8291 0
M  V30 2043 C 208.019 -2.34666 -3.5386 0
M  V30 2044 O 209.043 -2.02467 -2.93062 0
M  V30 2045 O 207.902 -2.89631 -4.63439 0
M  V30 2046 H 204.996 -0.407737 -0.7195 0
M  V30 2047 H 207.542 -1.39942 -0.959914 0
M  V30 2048 H 206.314 -3.02727 -2.47936 0
M  V30 2049 H 205.937 -1.71714 -3.58609 0
M  V30 2050 N 206.934 1.1197 -1.10907 0
M  V30 2051 C 208.164 1.8713 -0.875553 0
M  V30 2052 C 208.572 1.8016 0.577843 0
M  V30 2053 O 207.915 1.17699 1.41042 0
M  V30 2054 C 207.977 3.37005 -1.2517 0
M  V30 2055 C 207.641 3.67748 -2.71313 0
M  V30 2056 C 208.638 3.65698 -3.69542 0
M  V30 2057 C 206.323 3.96928 -3.07821 0
M  V30 2058 C 208.317 3.92395 -5.023 0
M  V30 2059 C 206.004 4.23284 -4.40765 0
M  V30 2060 C 207.002 4.21005 -5.37814 0
M  V30 2061 O 206.69 4.46704 -6.68364 0
M  V30 2062 H 206.422 0.598786 -0.313737 0
M  V30 2063 H 208.976 1.42568 -1.47863 0
M  V30 2064 H 207.206 3.82146 -0.591741 0
M  V30 2065 H 208.895 3.93519 -0.994877 0
M  V30 2066 H 209.661 3.43211 -3.42682 0
M  V30 2067 H 205.54 3.97841 -2.32902 0
M  V30 2068 H 209.084 3.90531 -5.78041 0
M  V30 2069 H 204.981 4.45246 -4.67361 0
M  V30 2070 H 205.749 4.64299 -6.74069 0
M  V30 2071 N 208.412 0.89855 1.29475 0
M  V30 2072 C 209.828 0.594483 1.48115 0
M  V30 2073 C 210.028 -0.86431 1.82022 0
M  V30 2074 O 209.084 -1.64457 1.91599 0
M  V30 2075 C 210.397 1.51932 2.59494 0
M  V30 2076 C 211.945 1.5244 2.7337 0
M  V30 2077 C 212.42 2.43548 3.87877 0
M  V30 2078 N 213.911 2.41589 3.95208 0
M  V30 2079 C 214.646 3.08789 4.83153 0
M  V30 2080 N 214.142 3.85265 5.75798 0
M  V30 2081 N 215.935 2.97952 4.76635 0
M  V30 2082 H 208.086 1.84207 1.05742 0
M  V30 2083 H 210.349 0.789251 0.525154 0
M  V30 2084 H 210.055 2.55865 2.41301 0
M  V30 2085 H 209.929 1.23899 3.56271 0
M  V30 2086 H 212.316 0.492518 2.90961 0
M  V30 2087 H 212.397 1.8451 1.77172 0
M  V30 2088 H 212.041 3.46829 3.71041 0
M  V30 2089 H 211.971 2.08788 4.83441 0
M  V30 2090 H 214.462 1.86025 3.28943 0
M  V30 2091 H 214.775 4.33598 6.39697 0
M  V30 2092 H 213.12 3.89371 5.75687 0
M  V30 2093 H 216.311 2.37723 4.03244 0
M  V30 2094 H 216.484 3.50599 5.44962 0
M  V30 2095 N 209.89 -1.43072 0.660911 0
M  V30 2096 C 210.84 -2.27948 -0.04847 0
M  V30 2097 C 211.824 -1.40325 -0.787246 0
M  V30 2098 O 213.016 -1.63893 -0.668446 0
M  V30 2099 C 210.145 -3.28143 -1.00881 0
M  V30 2100 C 209.231 -4.23252 -0.268108 0
M  V30 2101 N 209.622 -5.00656 0.719528 0
M  V30 2102 C 207.92 -4.43092 -0.508493 0
M  V30 2103 C 208.621 -5.70019 1.15988 0
M  V30 2104 N 207.597 -5.41364 0.492584 0
M  V30 2105 H 211.399 -2.85213 0.709279 0
M  V30 2106 H 208.913 -1.54869 0.488822 0
M  V30 2107 H 210.91 -3.87736 -1.53188 0
M  V30 2108 H 209.57 -2.7244 -1.76654 0
M  V30 2109 H 210.581 -5.06115 1.09855 0
M  V30 2110 H 207.258 -3.98449 -1.24679 0
M  V30 2111 H 208.648 -6.4214 1.97751 0
M  V30 2112 N 211.368 -0.403325 -1.52352 0
M  V30 2113 C 212.784 -0.0539281 -1.59509 0
M  V30 2114 C 212.984 1.43307 -1.41652 0
M  V30 2115 O 212.04 2.19924 -1.24056 0
M  V30 2116 C 213.353 -0.543654 -2.95745 0
M  V30 2117 C 214.901 -0.501125 -3.08962 0
M  V30 2118 C 215.376 -0.967267 -4.47669 0
M  V30 2119 N 216.867 -0.923849 -4.53893 0
M  V30 2120 C 217.602 -1.25578 -5.5948 0
M  V30 2121 N 217.098 -1.65889 -6.72646 0
M  V30 2122 N 218.891 -1.17613 -5.49658 0
M  V30 2123 H 211.042 -1.37123 -1.62206 0
M  V30 2124 H 213.305 -0.56294 -0.76276 0
M  V30 2125 H 213.011 -1.58275 -3.14073 0
M  V30 2126 H 212.885 0.0498042 -3.77167 0
M  V30 2127 H 215.272 0.528909 -2.90321 0
M  V30 2128 H 215.353 -1.13056 -2.2946 0
M  V30 2129 H 214.997 -1.9956 -4.67053 0
M  V30 2130 H 214.927 -0.314698 -5.25659 0
M  V30 2131 H 217.418 -0.627403 -3.72655 0
M  V30 2132 H 217.731 -1.89543 -7.49195 0
M  V30 2133 H 216.076 -1.69787 -6.73942 0
M  V30 2134 H 219.267 -0.860115 -4.6013 0
M  V30 2135 H 219.44 -1.43812 -6.3184 0
M  V30 2136 N 212.846 1.57033 -0.133567 0
M  V30 2137 C 214.262 1.58035 0.222944 0
M  V30 2138 C 214.462 1.14713 1.6566 0
M  V30 2139 O 213.518 0.841218 2.38075 0
M  V30 2140 C 214.831 3.00691 -0.0236116 0
M  V30 2141 C 216.379 3.12973 0.0411512 0
M  V30 2142 C 216.854 4.57654 -0.177899 0
M  V30 2143 N 218.345 4.63033 -0.124365 0
M  V30 2144 C 219.08 5.72771 -0.268553 0
M  V30 2145 N 218.576 6.91206 -0.46972 0
M  V30 2146 N 220.369 5.61718 -0.2071 0
M  V30 2147 H 212.52 1.8349 -1.06981 0
M  V30 2148 H 214.783 0.848677 -0.422436 0
M  V30 2149 H 214.489 3.36726 -1.0153 0
M  V30 2150 H 214.363 3.70614 0.701808 0
M  V30 2151 H 216.75 2.76787 1.02338 0
M  V30 2152 H 216.831 2.45564 -0.716383 0
M  V30 2153 H 216.475 4.94542 -1.15717 0
M  V30 2154 H 216.405 5.23173 0.599797 0
M  V30 2155 H 218.896 3.7789 0.027011 0
M  V30 2156 H 219.209 7.70693 -0.570212 0
M  V30 2157 H 217.554 6.93156 -0.505876 0
M  V30 2158 H 220.745 4.68072 -0.0507986 0
M  V30 2159 H 220.918 6.47195 -0.322909 0
M  V30 2160 N 214.325 -0.140222 1.56975 0
M  V30 2161 C 215.553 -0.866437 1.87884 0
M  V30 2162 C 215.968 -1.74428 0.722517 0
M  V30 2163 O 215.325 -1.79891 -0.30749 0
M  V30 2164 C 215.376 -1.71753 3.18093 0
M  V30 2165 O 215.097 -0.875056 4.29272 0
M  V30 2166 C 216.598 -2.55074 3.62563 0
M  V30 2167 H 213.818 -0.25019 0.622612 0
M  V30 2168 H 216.362 -0.130977 2.0408 0
M  V30 2169 H 214.517 -2.40598 3.03631 0
M  V30 2170 H 214.931 -1.46002 5.03769 0
M  V30 2171 H 216.405 -3.10356 4.5649 0
M  V30 2172 H 216.882 -3.31434 2.88181 0
M  V30 2173 H 217.488 -1.91509 3.79743 0
M  V30 2174 N 215.803 -1.52179 -0.40978 0
M  V30 2175 C 216.713 -1.78364 -1.52392 0
M  V30 2176 C 217.729 -0.669183 -1.60617 0
M  V30 2177 O 218.905 -0.954518 -1.77344 0
M  V30 2178 C 215.97 -1.92822 -2.88133 0
M  V30 2179 C 215.031 -3.16725 -2.898 0
M  V30 2180 C 214.264 -3.30483 -4.19067 0
M  V30 2181 O 214.487 -2.49522 -5.12928 0
M  V30 2182 O 213.421 -4.2363 -4.27576 0
M  V30 2183 H 217.247 -2.72931 -1.33201 0
M  V30 2184 H 214.832 -1.37016 -0.59557 0
M  V30 2185 H 216.714 -2.04157 -3.68643 0
M  V30 2186 H 215.389 -1.01444 -3.07393 0
M  V30 2187 H 214.296 -3.10848 -2.08146 0
M  V30 2188 H 215.629 -4.07881 -2.75489 0
M  V30 2189 N 217.281 0.66697 -1.42791 0
M  V30 2190 C 218.213 1.7925 -1.42836 0
M  V30 2191 C 219.226 1.59496 -0.326333 0
M  V30 2192 O 220.415 1.6847 -0.589916 0
M  V30 2193 C 217.515 3.16476 -1.21229 0
M  V30 2194 C 216.688 3.63011 -2.44013 0
M  V30 2195 C 215.747 4.78993 -2.17834 0
M  V30 2196 O 214.773 4.89137 -2.91091 0
M  V30 2197 N 215.975 5.68248 -1.18635 0
M  V30 2198 H 218.74 1.79695 -2.39854 0
M  V30 2199 H 216.301 0.850338 -1.37771 0
M  V30 2200 H 218.293 3.91734 -1.01621 0
M  V30 2201 H 216.863 3.10884 -0.32706 0
M  V30 2202 H 216.083 2.78346 -2.79137 0
M  V30 2203 H 217.371 3.90845 -3.25757 0
M  V30 2204 H 216.769 5.62712 -0.580615 0
M  V30 2205 H 215.326 6.43285 -1.05013 0
M  V30 2206 N 218.759 1.29093 0.90403 0
M  V30 2207 C 219.669 1.15727 2.0407 0
M  V30 2208 C 220.685 0.0815308 1.73809 0
M  V30 2209 O 221.861 0.292749 1.99261 0
M  V30 2210 C 218.926 0.830424 3.36608 0
M  V30 2211 C 217.987 1.98955 3.80415 0
M  V30 2212 C 217.22 1.6782 5.06628 0
M  V30 2213 O 217.443 0.597105 5.67266 0
M  V30 2214 O 216.377 2.52486 5.46383 0
M  V30 2215 H 220.203 2.11171 2.18267 0
M  V30 2216 H 217.788 1.08504 1.027 0
M  V30 2217 H 219.67 0.662521 4.16159 0
M  V30 2218 H 218.345 -0.0942678 3.23563 0
M  V30 2219 H 217.252 2.21267 3.01648 0
M  V30 2220 H 218.585 2.89529 3.98037 0
M  V30 2221 N 220.237 -1.11381 1.11499 0
M  V30 2222 C 221.147 -2.21019 0.786628 0
M  V30 2223 C 222.163 -1.72597 -0.220507 0
M  V30 2224 O 223.339 -2.01321 -0.0565251 0
M  V30 2225 C 220.404 -3.459 0.235333 0
M  V30 2226 C 219.465 -4.09107 1.30115 0
M  V30 2227 C 218.698 -5.28027 0.776068 0
M  V30 2228 O 218.921 -5.6904 -0.393661 0
M  V30 2229 O 217.855 -5.81835 1.54114 0
M  V30 2230 H 221.681 -2.51521 1.70209 0
M  V30 2231 H 219.266 -1.19928 0.890928 0
M  V30 2232 H 221.148 -4.21346 -0.067715 0
M  V30 2233 H 219.823 -3.17049 -0.652828 0
M  V30 2234 H 218.73 -3.35391 1.65722 0
M  V30 2235 H 220.063 -4.42139 2.16273 0
M  V30 2236 N 221.715 -0.905404 -1.28997 0
M  V30 2237 C 222.992 -0.453513 -1.9027 0
M  V30 2238 C 223.372 1.06721 -1.82137 0
M  V30 2239 O 222.72 1.91159 -1.25182 0
M  V30 2240 C 222.93 -0.974494 -3.35119 0
M  V30 2241 C 224.278 -1.0216 -4.12127 0
M  V30 2242 O 225.302 -0.922557 -3.44046 0
M  V30 2243 O 224.161 -1.17121 -5.33802 0
M  V30 2244 H 221.255 -0.142347 -0.814657 0
M  V30 2245 H 223.801 -0.995642 -1.37423 0
M  V30 2246 H 222.573 -2.01848 -3.35221 0
M  V30 2247 H 222.196 -0.412706 -3.95452 0
M  V30 2248 N 223.193 1.4272 -0.668489 0
M  V30 2249 C 224.103 2.34596 0.0139753 0
M  V30 2250 C 225.119 1.5474 0.795703 0
M  V30 2251 O 226.295 1.87334 0.739466 0
M  V30 2252 C 223.36 3.33202 0.957982 0
M  V30 2253 C 222.421 4.28957 0.17149 0
M  V30 2254 C 221.654 5.22853 1.07053 0
M  V30 2255 O 221.877 5.21531 2.31001 0
M  V30 2256 O 220.811 5.9952 0.534727 0
M  V30 2257 H 224.637 2.9448 -0.742661 0
M  V30 2258 H 222.222 1.43117 -0.428705 0
M  V30 2259 H 224.104 3.93796 1.50008 0
M  V30 2260 H 222.779 2.758 1.69458 0
M  V30 2261 H 221.686 3.71796 -0.414558 0
M  V30 2262 H 223.019 4.89383 -0.52586 0
M  V30 2263 N 224.671 0.411399 1.52136 0
M  V30 2264 C 225.581 -0.419774 2.30814 0
M  V30 2265 C 226.597 -1.0515 1.38634 0
M  V30 2266 O 227.773 -1.05252 1.71709 0
M  V30 2267 C 224.838 -1.52019 3.11594 0
M  V30 2268 C 223.899 -0.91129 4.19516 0
M  V30 2269 C 223.132 -1.95927 4.96436 0
M  V30 2270 O 223.355 -3.17775 4.73683 0
M  V30 2271 O 222.289 -1.56423 5.81219 0
M  V30 2272 H 226.115 0.221805 3.02889 0
M  V30 2273 H 223.7 0.174547 1.48377 0
M  V30 2274 H 225.582 -2.15898 3.61892 0
M  V30 2275 H 224.257 -2.14633 2.42311 0
M  V30 2276 H 223.164 -0.235157 3.7336 0
M  V30 2277 H 224.497 -0.32904 4.91099 0
M  V30 2278 N 226.149 -1.5696 0.141893 0
M  V30 2279 C 227.079 -2.19516 -0.795936 0
M  V30 2280 C 228.06 -1.14187 -1.26077 0
M  V30 2281 O 229.245 -1.42511 -1.31925 0
M  V30 2282 C 226.375 -2.81272 -2.03723 0
M  V30 2283 C 225.329 -3.92384 -1.70936 0
M  V30 2284 C 224.655 -4.41052 -3.02287 0
M  V30 2285 C 225.955 -5.13403 -0.959954 0
M  V30 2286 H 227.649 -2.98138 -0.274596 0
M  V30 2287 H 225.195 -1.43406 -0.130636 0
M  V30 2288 H 227.148 -3.237 -2.69808 0
M  V30 2289 H 225.872 -1.99973 -2.58221 0
M  V30 2290 H 224.531 -3.50566 -1.07232 0
M  V30 2291 H 224.179 -3.56582 -3.54765 0
M  V30 2292 H 223.879 -5.15993 -2.81114 0
M  V30 2293 H 225.403 -4.86146 -3.69451 0
M  V30 2294 H 226.817 -5.52706 -1.52279 0
M  V30 2295 H 225.214 -5.94073 -0.848357 0
M  V30 2296 H 226.284 -4.84875 0.0492434 0
M  V30 2297 N 227.627 0.131896 -1.57047 0
M  V30 2298 C 228.557 1.16384 -2.02428 0
M  V30 2299 C 229.538 1.43936 -0.90644 0
M  V30 2300 O 230.723 1.54599 -1.17528 0
M  V30 2301 C 227.853 2.49328 -2.4177 0
M  V30 2302 C 226.807 2.36266 -3.56879 0
M  V30 2303 C 226.133 3.74057 -3.8208 0
M  V30 2304 C 227.433 1.834 -4.89042 0
M  V30 2305 H 229.127 0.786433 -2.88887 0
M  V30 2306 H 226.673 0.376855 -1.38981 0
M  V30 2307 H 228.626 3.21759 -2.7212 0
M  V30 2308 H 227.35 2.88934 -1.52266 0
M  V30 2309 H 226.009 1.66286 -3.26718 0
M  V30 2310 H 225.657 4.11125 -2.89803 0
M  V30 2311 H 225.357 3.66174 -4.59554 0
M  V30 2312 H 226.881 4.48012 -4.1487 0
M  V30 2313 H 228.295 2.45636 -5.18011 0
M  V30 2314 H 226.692 1.8637 -5.70426 0
M  V30 2315 H 227.762 0.790662 -4.7841 0
M  V30 2316 N 229.106 1.52395 0.401703 0
M  V30 2317 C 230.334 1.70676 1.16949 0
M  V30 2318 C 230.749 0.419503 1.8408 0
M  V30 2319 O 230.106 -0.605061 1.72178 0
M  V30 2320 C 230.157 2.84753 2.22706 0
M  V30 2321 O 229.878 4.08495 1.58314 0
M  V30 2322 C 231.379 3.14608 3.12309 0
M  V30 2323 H 228.599 0.571787 0.351142 0
M  V30 2324 H 231.143 1.98987 0.471652 0
M  V30 2325 H 229.298 2.58941 2.88147 0
M  V30 2326 H 229.712 4.72117 2.28485 0
M  V30 2327 H 231.186 3.97923 3.82572 0
M  V30 2328 H 231.663 2.28464 3.75101 0
M  V30 2329 H 232.269 3.42212 2.52529 0
M  V30 2330 N 230.584 -0.659388 1.43143 0
M  V30 2331 C 231.494 -1.80167 1.50256 0
M  V30 2332 C 232.51 -1.69571 0.390106 0
M  V30 2333 O 233.686 -1.90849 0.643319 0
M  V30 2334 C 230.751 -3.16409 1.41725 0
M  V30 2335 C 229.812 -3.38848 2.63591 0
M  V30 2336 C 229.045 -4.68591 2.55458 0
M  V30 2337 O 229.268 -5.47532 1.59891 0
M  V30 2338 O 228.202 -4.92614 3.45854 0
M  V30 2339 H 232.028 -1.77121 2.46702 0
M  V30 2340 H 229.613 -0.817092 1.25076 0
M  V30 2341 H 231.495 -3.9768 1.39387 0
M  V30 2342 H 230.17 -3.20059 0.484118 0
M  V30 2343 H 229.077 -2.57366 2.71502 0
M  V30 2344 H 230.41 -3.4004 3.55856 0
M  V30 2345 N 232.062 -1.29571 -0.897171 0
M  V30 2346 C 233.287 -1.20705 -1.68656 0
M  V30 2347 C 233.712 0.228582 -1.86706 0
M  V30 2348 O 233.07 1.16494 -1.3892 0
M  V30 2349 C 233.118 -1.9282 -3.04717 0
M  V30 2350 O 232.222 -1.24697 -3.93096 0
M  V30 2351 H 231.563 -0.418126 -0.515816 0
M  V30 2352 H 234.093 -1.71183 -1.12061 0
M  V30 2353 H 234.103 -2.01372 -3.54843 0
M  V30 2354 H 232.778 -2.97239 -2.90899 0
M  V30 2355 H 231.355 -1.2442 -3.51531 0
M  V30 2356 N 233.54 1.10788 -1.12088 0
M  V30 2357 C 234.765 1.87002 -0.896949 0
M  V30 2358 C 235.19 1.79933 0.548261 0
M  V30 2359 O 234.548 1.16662 1.38779 0
M  V30 2360 C 234.596 3.3349 -1.37174 0
M  V30 2361 O 233.7 4.08745 -0.547831 0
M  V30 2362 H 233.041 0.580397 -0.322545 0
M  V30 2363 H 235.571 1.39996 -1.49206 0
M  V30 2364 H 235.581 3.84339 -1.36922 0
M  V30 2365 H 234.256 3.37951 -2.42408 0
M  V30 2366 H 232.833 3.6776 -0.617034 0
M  V30 2367 N 235.018 0.912232 1.28515 0
M  V30 2368 C 235.965 0.397954 2.27343 0
M  V30 2369 C 236.935 -0.526766 1.57526 0
M  V30 2370 O 238.12 -0.449292 1.85435 0
M  V30 2371 C 235.26 -0.357263 3.43246 0
M  V30 2372 C 234.373 0.599788 4.27816 0
M  V30 2373 C 233.508 -0.173725 5.30916 0
M  V30 2374 C 232.547 0.777039 6.07148 0
M  V30 2375 N 231.684 0.0371398 7.0209 0
M  V30 2376 H 236.524 1.24577 2.70711 0
M  V30 2377 H 234.061 0.625612 1.33133 0
M  V30 2378 H 236.019 -0.8113 4.09236 0
M  V30 2379 H 234.649 -1.16943 3.00872 0
M  V30 2380 H 233.701 1.17235 3.61884 0
M  V30 2381 H 235.013 1.32704 4.80823 0
M  V30 2382 H 234.167 -0.688394 6.02782 0
M  V30 2383 H 232.906 -0.934041 4.78672 0
M  V30 2384 H 231.911 1.3031 5.34134 0
M  V30 2385 H 233.136 1.53689 6.61481 0
M  V30 2386 H 231.082 -0.705213 6.52198 0
M  V30 2387 H 230.999 0.704249 7.52713 0
M  V30 2388 H 232.267 -0.457383 7.78157 0
M  V30 2389 N 236.496 -1.42363 0.676048 0
M  V30 2390 C 237.459 -2.29199 0.00766941 0
M  V30 2391 C 238.459 -1.43389 -0.727745 0
M  V30 2392 O 239.649 -1.64764 -0.56556 0
M  V30 2393 C 236.781 -3.2591 -0.999785 0
M  V30 2394 H 237.974 -2.89794 0.771988 0
M  V30 2395 H 235.527 -1.50024 0.438468 0
M  V30 2396 H 236.262 -2.70256 -1.79255 0
M  V30 2397 H 236.047 -3.89202 -0.475829 0
M  V30 2398 H 237.537 -3.91028 -1.46583 0
M  V30 2399 N 237.974 -0.419461 -1.51915 0
M  V30 2400 C 239.202 0.152136 -2.0634 0
M  V30 2401 C 239.617 1.37988 -1.28859 0
M  V30 2402 O 238.974 1.79243 -0.343232 0
M  V30 2403 C 239.025 0.492266 -3.58133 0
M  V30 2404 O 238.746 -0.686736 -4.32684 0
M  V30 2405 C 240.247 1.11648 -4.2901 0
M  V30 2406 H 237.467 0.0158325 -0.670813 0
M  V30 2407 H 240.011 -0.593394 -1.95702 0
M  V30 2408 H 238.166 1.18769 -3.68745 0
M  V30 2409 H 238.58 -0.400341 -5.2297 0
M  V30 2410 H 240.054 1.3046 -5.36362 0
M  V30 2411 H 240.531 2.09251 -3.86148 0
M  V30 2412 H 241.137 0.460958 -4.22795 0
M  V30 2413 N 239.452 1.56882 -0.150215 0
M  V30 2414 C 240.4 2.18214 0.805313 0
M  V30 2415 C 241.394 1.14006 1.25296 0
M  V30 2416 O 242.6 1.3225 1.22107 0
M  V30 2417 H 238.975 0.698762 0.277913 0
M  V30 2418 H 240.946 2.97231 0.263862 0
M  V30 2419 C 239.695 2.82065 2.03309 0
M  V30 2420 H 239.018 3.61968 1.69763 0
M  V30 2421 H 240.458 3.28477 2.68103 0
M  V30 2422 C 238.917 1.80739 2.84315 0
M  V30 2423 O 239.447 1.27983 3.80767 0
M  V30 2424 N 237.653 1.4997 2.48913 0
M  V30 2425 H 237.2 1.93062 1.70542 0
M  V30 2426 H 237.158 0.824217 3.03404 0
M  V30 2427 N 240.93 -0.123565 1.57115 0
M  V30 2428 C 242.176 -0.833386 1.84885 0
M  V30 2429 C 242.509 -1.79742 0.735292 0
M  V30 2430 O 241.784 -1.92764 -0.25925 0
M  V30 2431 C 242.067 -1.5873 3.23228 0
M  V30 2432 C 241.92 -0.643183 4.45178 0
M  V30 2433 C 243.239 -2.54453 3.59085 0
M  V30 2434 H 240.358 -0.301518 0.6725 0
M  V30 2435 H 243 -0.097778 1.89748 0
M  V30 2436 H 241.15 -2.21438 3.19214 0
M  V30 2437 H 242.822 -0.0253015 4.61293 0
M  V30 2438 H 241.065 0.0456139 4.33776 0
M  V30 2439 H 241.736 -1.20724 5.38637 0
M  V30 2440 H 244.212 -2.01853 3.63861 0
M  V30 2441 H 243.088 -3.04238 4.5687 0
M  V30 2442 H 243.349 -3.36906 2.86264 0
M  V30 2443 N 242.408 -1.52605 -0.393616 0
M  V30 2444 C 243.648 -1.6911 -1.1481 0
M  V30 2445 C 244.012 -0.41969 -1.87357 0
M  V30 2446 O 245.213 -0.461034 -2.64817 0
M  V30 2447 C 243.484 -2.88909 -2.10395 0
M  V30 2448 S 245.043 -3.25977 -2.93742 0
M  V30 2449 H 241.861 -0.595337 -0.38871 0
M  V30 2450 H 244.463 -1.90641 -0.433178 0
M  V30 2451 H 243.167 -3.79672 -1.55812 0
M  V30 2452 H 242.698 -2.69698 -2.86403 0
M  V30 2453 H 244.713 -2.75806 -4.12487 0
M  V30 2454 N 243.887 0.651787 -1.4349 0
M  V30 2455 C 245.115 1.43937 -1.48626 0
M  V30 2456 C 245.53 1.8851 -0.104587 0
M  V30 2457 O 244.887 1.5958 0.885464 0
M  V30 2458 C 244.938 2.6734 -2.43334 0
M  V30 2459 O 244.659 2.24631 -3.76128 0
M  V30 2460 C 246.16 3.60683 -2.57726 0
M  V30 2461 H 243.38 0.44213 -0.504739 0
M  V30 2462 H 245.924 0.798944 -1.88248 0
M  V30 2463 H 244.079 3.2752 -2.06904 0
M  V30 2464 H 244.493 3.04485 -4.2707 0
M  V30 2465 H 245.967 4.43933 -3.28067 0
M  V30 2466 H 246.444 4.08126 -1.62265 0
M  V30 2467 H 247.05 3.06384 -2.94973 0
M  V30 2468 N 245.365 1.30045 0.890287 0
M  V30 2469 C 246.781 1.08261 1.17268 0
M  V30 2470 C 246.981 -0.160063 2.00863 0
M  V30 2471 O 246.037 -0.855181 2.37577 0
M  V30 2472 C 247.35 2.34323 1.8845 0
M  V30 2473 C 248.898 2.39735 2.01237 0
M  V30 2474 C 249.373 3.65625 2.7583 0
M  V30 2475 N 250.864 3.66402 2.83379 0
M  V30 2476 C 251.599 4.60498 3.41657 0
M  V30 2477 N 251.095 5.64933 4.01026 0
M  V30 2478 N 252.888 4.48051 3.39421 0
M  V30 2479 H 245.039 2.09777 0.332762 0
M  V30 2480 H 247.302 0.92446 0.209948 0
M  V30 2481 H 247.008 3.2498 1.34465 0
M  V30 2482 H 246.882 2.4256 2.88867 0
M  V30 2483 H 249.269 1.4956 2.54393 0
M  V30 2484 H 249.35 2.35476 0.999232 0
M  V30 2485 H 248.994 4.56156 2.23347 0
M  V30 2486 H 248.924 3.67144 3.77509 0
M  V30 2487 H 251.415 2.90896 2.41222 0
M  V30 2488 H 251.728 6.32841 4.43545 0
M  V30 2489 H 250.073 5.68732 3.99461 0
M  V30 2490 H 253.264 3.65649 2.92264 0
M  V30 2491 H 253.437 5.21565 3.84544 0
M  V30 2492 N 246.843 -1.10192 1.12674 0
M  V30 2493 C 248.09 -1.82205 0.883606 0
M  V30 2494 C 248.418 -1.8532 -0.590492 0
M  V30 2495 O 247.673 -1.31137 -1.45264 0
M  V30 2496 C 247.972 -3.28552 1.4067 0
M  V30 2497 C 247.638 -3.45582 2.89627 0
M  V30 2498 C 246.3 -3.49937 3.30299 0
M  V30 2499 C 248.652 -3.50768 3.85501 0
M  V30 2500 C 245.98 -3.57049 4.65546 0
M  V30 2501 C 248.332 -3.59414 5.20581 0
M  V30 2502 C 246.996 -3.62034 5.60792 0
M  V30 2503 H 246.266 -0.666735 0.323334 0
M  V30 2504 H 248.913 -1.29868 1.40736 0
M  V30 2505 H 247.218 -3.83473 0.80347 0
M  V30 2506 H 248.915 -3.82788 1.19475 0
M  V30 2507 H 245.505 -3.42871 2.57172 0
M  V30 2508 H 249.689 -3.46651 3.55171 0
M  V30 2509 H 244.945 -3.57361 4.96088 0
M  V30 2510 H 249.119 -3.62371 5.94693 0
M  V30 2511 H 246.746 -3.67298 6.6558 0
M  V30 2512 N 248.321 -0.919034 -1.28029 0
M  V30 2513 C 249.231 -0.416756 -2.30869 0
M  V30 2514 C 250.247 0.498235 -1.66714 0
M  V30 2515 O 251.423 0.383144 -1.97722 0
M  V30 2516 C 248.488 0.330274 -3.45123 0
M  V30 2517 C 247.549 -0.618578 -4.2482 0
M  V30 2518 C 246.782 0.0928959 -5.33619 0
M  V30 2519 O 247.005 1.31375 -5.55065 0
M  V30 2520 O 245.939 -0.574499 -5.99152 0
M  V30 2521 H 249.765 -1.27043 -2.75851 0
M  V30 2522 H 247.35 -0.684052 -1.3282 0
M  V30 2523 H 249.232 0.751972 -4.14636 0
M  V30 2524 H 247.907 1.1597 -3.02213 0
M  V30 2525 H 246.814 -1.08978 -3.57875 0
M  V30 2526 H 248.147 -1.41497 -4.71423 0
M  V30 2527 N 249.799 1.42003 -0.683588 0
M  V30 2528 C 251.076 1.95112 -0.138075 0
M  V30 2529 C 251.456 1.62359 1.34918 0
M  V30 2530 O 250.804 0.924311 2.08971 0
M  V30 2531 C 251.014 3.46505 -0.416581 0
M  V30 2532 C 252.362 4.23254 -0.337834 0
M  V30 2533 O 253.386 3.54468 -0.35082 0
M  V30 2534 O 252.245 5.45743 -0.287596 0
M  V30 2535 H 249.339 0.826961 -0.00797996 0
M  V30 2536 H 251.885 1.51784 -0.758924 0
M  V30 2537 H 250.657 3.63582 -1.4465 0
M  V30 2538 H 250.28 3.969 0.235839 0
M  V30 2539 N 251.277 0.427512 1.51691 0
M  V30 2540 C 252.502 -0.143601 2.06902 0
M  V30 2541 C 252.927 -1.36536 1.29382 0
M  V30 2542 O 252.285 -1.78289 0.329043 0
M  V30 2543 C 252.333 -0.454207 3.57728 0
M  V30 2544 O 251.437 -1.54228 3.82475 0
M  V30 2545 H 250.778 -0.00617128 0.663971 0
M  V30 2546 H 253.308 0.606014 1.95419 0
M  V30 2547 H 253.318 -0.707525 4.01818 0
M  V30 2548 H 251.993 0.438812 4.13579 0
M  V30 2549 H 250.57 -1.2797 3.50254 0
M  V30 2550 N 252.755 -1.56801 0.158532 0
M  V30 2551 C 254.166 -1.83189 -0.360366 0
M  V30 2552 C 254.517 -1.07778 -1.63946 0
M  V30 2553 O 253.642 -0.326718 -2.13919 0
M  V30 2554 C 254.237 -3.32297 -0.660595 0
M  V30 2555 C 252.796 -3.59227 -1.12398 0
M  V30 2556 C 251.943 -2.76877 -0.153097 0
M  V30 2557 H 254.894 -1.54008 0.383031 0
M  V30 2558 H 254.915 -3.4908 -1.51405 0
M  V30 2559 H 254.427 -3.87156 0.270527 0
M  V30 2560 H 252.528 -3.09766 -2.07064 0
M  V30 2561 H 252.641 -4.67632 -1.04197 0
M  V30 2562 H 251.005 -2.46319 -0.647983 0
M  V30 2563 H 251.788 -3.34511 0.77182 0
M  V30 2564 N 254.233 0.115231 -1.57178 0
M  V30 2565 C 255.458 0.840354 -1.89612 0
M  V30 2566 C 255.883 1.72464 -0.750845 0
M  V30 2567 O 255.241 1.78826 0.298478 0
M  V30 2568 C 255.289 1.64654 -3.20814 0
M  V30 2569 O 254.393 2.7538 -3.06985 0
M  V30 2570 H 253.734 0.232158 -0.622092 0
M  V30 2571 H 256.264 0.0964977 -2.04372 0
M  V30 2572 H 256.274 2.03499 -3.53627 0
M  V30 2573 H 254.949 0.997416 -4.03763 0
M  V30 2574 H 253.526 2.3971 -2.85646 0
M  V30 2575 N 255.711 1.52812 0.385517 0
M  V30 2576 C 256.941 1.71658 1.14966 0
M  V30 2577 C 257.349 0.436253 1.84102 0
M  V30 2578 O 256.692 -0.599313 1.73649 0
M  V30 2579 C 256.754 2.81309 2.23843 0
M  V30 2580 C 256.418 4.22313 1.74644 0
M  V30 2581 C 257.415 5.05352 1.22129 0
M  V30 2582 C 255.1 4.68648 1.80761 0
M  V30 2583 C 257.094 6.32807 0.763838 0
M  V30 2584 C 254.781 5.96086 1.34627 0
M  V30 2585 C 255.779 6.77996 0.825264 0
M  V30 2586 O 255.467 8.03045 0.370669 0
M  V30 2587 H 255.199 0.578022 0.350523 0
M  V30 2588 H 257.753 2.00263 0.456509 0
M  V30 2589 H 255.983 2.48133 2.96592 0
M  V30 2590 H 257.672 2.88524 2.85497 0
M  V30 2591 H 258.438 4.70736 1.16758 0
M  V30 2592 H 254.317 4.04979 2.20256 0
M  V30 2593 H 257.861 6.96689 0.356494 0
M  V30 2594 H 253.758 6.30205 1.39686 0
M  V30 2595 H 254.526 8.17021 0.491829 0
M  V30 2596 N 257.189 -0.644168 1.43834 0
M  V30 2597 C 258.435 -1.40603 1.46146 0
M  V30 2598 C 258.768 -1.93997 0.0887717 0
M  V30 2599 O 258.043 -1.72854 -0.891724 0
M  V30 2600 C 258.326 -2.58086 2.51124 0
M  V30 2601 C 258.179 -2.10126 3.97702 0
M  V30 2602 C 259.498 -3.60291 2.52742 0
M  V30 2603 H 256.617 -0.509905 0.532134 0
M  V30 2604 H 259.259 -0.729502 1.75437 0
M  V30 2605 H 257.409 -3.15801 2.26278 0
M  V30 2606 H 259.081 -1.57342 4.33637 0
M  V30 2607 H 257.324 -1.41419 4.10101 0
M  V30 2608 H 257.995 -2.94649 4.66783 0
M  V30 2609 H 260.471 -3.12352 2.7491 0
M  V30 2610 H 259.347 -4.40032 3.28121 0
M  V30 2611 H 259.608 -4.1349 1.56455 0
M  V30 2612 N 258.668 -1.30515 -0.883378 0
M  V30 2613 C 259.615 -1.17032 -1.98927 0
M  V30 2614 C 260.585 -0.0594241 -1.65994 0
M  V30 2615 O 261.77 -0.229895 -1.8941 0
M  V30 2616 C 258.91 -0.869777 -3.33959 0
M  V30 2617 C 258.023 -2.06271 -3.79574 0
M  V30 2618 C 257.158 -1.70011 -5.03259 0
M  V30 2619 C 256.197 -2.8579 -5.41286 0
M  V30 2620 N 255.334 -2.49816 -6.56153 0
M  V30 2621 H 260.174 -2.1164 -2.09792 0
M  V30 2622 H 257.711 -1.05296 -1.02719 0
M  V30 2623 H 259.669 -0.676138 -4.11685 0
M  V30 2624 H 258.299 0.0394332 -3.22776 0
M  V30 2625 H 257.351 -2.36755 -2.97744 0
M  V30 2626 H 258.663 -2.92971 -4.03694 0
M  V30 2627 H 257.817 -1.47032 -5.88614 0
M  V30 2628 H 256.556 -0.804829 -4.81013 0
M  V30 2629 H 255.561 -3.09434 -4.54456 0
M  V30 2630 H 256.786 -3.76008 -5.65504 0
M  V30 2631 H 254.732 -1.62795 -6.35479 0
M  V30 2632 H 254.649 -3.30048 -6.8015 0
M  V30 2633 H 255.917 -2.30197 -7.44735 0
M  V30 2634 N 260.146 1.09593 -1.13257 0
M  V30 2635 C 261.392 1.82181 -0.904521 0
M  V30 2636 C 261.747 1.83967 0.563358 0
M  V30 2637 O 261.04 1.29566 1.41149 0
M  V30 2638 C 261.234 3.27802 -1.42411 0
M  V30 2639 C 261.063 3.40201 -2.94097 0
M  V30 2640 C 259.833 3.52104 -3.62424 0
M  V30 2641 C 262.031 3.32875 -3.92044 0
M  V30 2642 N 260.013 3.53169 -5.0214 0
M  V30 2643 C 261.384 3.40789 -5.17941 0
M  V30 2644 C 263.439 3.16531 -3.84334 0
M  V30 2645 C 262.142 3.34042 -6.37031 0
M  V30 2646 C 264.168 3.11109 -5.02956 0
M  V30 2647 C 263.53 3.19614 -6.27715 0
M  V30 2648 H 259.629 0.681015 -0.384373 0
M  V30 2649 H 262.213 1.3099 -1.44048 0
M  V30 2650 H 260.384 3.77466 -0.915086 0
M  V30 2651 H 262.116 3.88393 -1.13722 0
M  V30 2652 H 258.871 3.5548 -3.12939 0
M  V30 2653 H 259.295 3.57291 -5.75041 0
M  V30 2654 H 263.937 3.08827 -2.88766 0
M  V30 2655 H 261.655 3.4051 -7.32857 0
M  V30 2656 H 265.241 2.99601 -4.98729 0
M  V30 2657 H 264.121 3.15432 -7.17964 0
M  V30 2658 N 261.624 0.925811 1.2754 0
M  V30 2659 C 262.872 0.564138 1.94067 0
M  V30 2660 C 263.193 -0.897188 1.73134 0
M  V30 2661 O 262.463 -1.63573 1.07799 0
M  V30 2662 H 261.043 0.205645 0.718136 0
M  V30 2663 H 263.705 1.1778 1.55287 0
M  V30 2664 H 262.801 0.76881 3.02483 0
M  V30 2665 N 263.102 -1.41638 0.69111 0
M  V30 2666 C 264.049 -2.30789 0.0229705 0
M  V30 2667 C 265.019 -1.46863 -0.775911 0
M  V30 2668 O 266.204 -1.75661 -0.74485 0
M  V30 2669 C 263.344 -3.32868 -0.910666 0
M  V30 2670 C 262.457 -4.31875 -0.103874 0
M  V30 2671 C 261.592 -5.21024 -1.03475 0
M  V30 2672 C 260.631 -6.11702 -0.220598 0
M  V30 2673 N 259.768 -6.93349 -1.10504 0
M  V30 2674 H 264.608 -2.87366 0.788978 0
M  V30 2675 H 262.145 -1.41535 0.400794 0
M  V30 2676 H 264.103 -3.90596 -1.46597 0
M  V30 2677 H 262.733 -2.77851 -1.64312 0
M  V30 2678 H 261.785 -3.76131 0.568285 0
M  V30 2679 H 263.097 -4.96003 0.527504 0
M  V30 2680 H 262.251 -5.83565 -1.65943 0
M  V30 2681 H 260.99 -4.57112 -1.69999 0
M  V30 2682 H 259.995 -5.48215 0.417187 0
M  V30 2683 H 261.22 -6.77668 0.440784 0
M  V30 2684 H 259.166 -6.3205 -1.75638 0
M  V30 2685 H 259.083 -7.54146 -0.529125 0
M  V30 2686 H 260.351 -7.60362 -1.71667 0
M  V30 2687 N 264.58 -0.43555 -1.51462 0
M  V30 2688 C 265.51 0.367376 -2.30592 0
M  V30 2689 C 266.491 1.02263 -1.35928 0
M  V30 2690 O 267.676 1.02661 -1.64847 0
M  V30 2691 C 264.806 1.46983 -3.14664 0
M  V30 2692 C 263.76 0.938161 -4.17591 0
M  V30 2693 C 263.086 2.13622 -4.90173 0
M  V30 2694 C 264.386 -0.0261621 -5.22293 0
M  V30 2695 H 266.08 -0.292969 -2.97963 0
M  V30 2696 H 263.626 -0.14234 -1.43295 0
M  V30 2697 H 265.579 2.03873 -3.688 0
M  V30 2698 H 264.303 2.15843 -2.4511 0
M  V30 2699 H 262.962 0.391481 -3.64504 0
M  V30 2700 H 262.61 2.81098 -4.17124 0
M  V30 2701 H 262.31 1.78688 -5.59772 0
M  V30 2702 H 263.834 2.7107 -5.47132 0
M  V30 2703 H 265.248 0.452384 -5.71512 0
M  V30 2704 H 263.645 -0.287992 -5.99409 0
M  V30 2705 H 264.715 -0.963391 -4.75233 0
M  V30 2706 N 266.058 1.56714 -0.166846 0
M  V30 2707 C 267.474 1.58473 0.189372 0
M  V30 2708 C 267.674 1.18201 1.63189 0
M  V30 2709 O 266.73 0.891528 2.36237 0
M  V30 2710 C 268.043 3.00573 -0.0873872 0
M  V30 2711 C 269.591 3.1299 -0.0252443 0
M  V30 2712 C 270.066 4.57174 -0.274934 0
M  V30 2713 N 271.557 4.62665 -0.222553 0
M  V30 2714 C 272.292 5.72072 -0.389985 0
M  V30 2715 N 271.788 6.90054 -0.616229 0
M  V30 2716 N 273.581 5.61153 -0.326202 0
M  V30 2717 H 265.732 1.8118 -1.10849 0
M  V30 2718 H 267.995 0.839525 -0.440342 0
M  V30 2719 H 267.701 3.34497 -1.0865 0
M  V30 2720 H 267.575 3.72019 0.623037 0
M  V30 2721 H 269.962 2.78895 0.96444 0
M  V30 2722 H 270.043 2.43989 -0.768309 0
M  V30 2723 H 269.687 4.91976 -1.26181 0
M  V30 2724 H 269.617 5.24328 0.48869 0
M  V30 2725 H 272.108 3.77863 -0.0531512 0
M  V30 2726 H 272.421 7.69311 -0.733559 0
M  V30 2727 H 270.766 6.91927 -0.652791 0
M  V30 2728 H 273.957 4.67859 -0.150072 0
M  V30 2729 H 274.13 6.46364 -0.460116 0
M  V30 2730 N 267.536 -0.106894 1.57237 0
M  V30 2731 C 268.813 -0.843526 1.76477 0
M  V30 2732 C 269.193 -1.97499 0.745464 0
M  V30 2733 O 268.541 -2.27357 -0.228306 0
M  V30 2734 C 268.751 -1.34903 3.21873 0
M  V30 2735 C 270.099 -1.79654 3.8472 0
M  V30 2736 O 271.123 -1.44554 3.2555 0
M  V30 2737 O 269.982 -2.44515 4.88748 0
M  V30 2738 H 267.076 -0.401468 0.723016 0
M  V30 2739 H 269.622 -0.0896927 1.69463 0
M  V30 2740 H 268.394 -0.53781 3.87586 0
M  V30 2741 H 268.017 -2.16522 3.33473 0
M  V30 2742 N 269.014 -1.53014 -0.377408 0
M  V30 2743 C 270.244 -1.72265 -1.14054 0
M  V30 2744 C 270.652 -0.44601 -1.83868 0
M  V30 2745 O 269.995 0.590095 -1.73964 0
M  V30 2746 C 270.057 -2.82492 -2.22348 0
M  V30 2747 C 269.721 -4.23233 -1.72402 0
M  V30 2748 C 270.718 -5.05992 -1.19448 0
M  V30 2749 C 268.403 -4.696 -1.78273 0
M  V30 2750 C 270.397 -6.33203 -0.730268 0
M  V30 2751 C 268.084 -5.96792 -1.31464 0
M  V30 2752 C 269.082 -6.78424 -0.789297 0
M  V30 2753 O 268.77 -8.0323 -0.328077 0
M  V30 2754 H 268.502 -0.579873 -0.347453 0
M  V30 2755 H 271.056 -2.00502 -0.445882 0
M  V30 2756 H 269.286 -2.49702 -2.95272 0
M  V30 2757 H 270.975 -2.90034 -2.83963 0
M  V30 2758 H 271.741 -4.71349 -1.14259 0
M  V30 2759 H 267.62 -4.06142 -2.18106 0
M  V30 2760 H 271.164 -6.96868 -0.319542 0
M  V30 2761 H 267.061 -6.30937 -1.36342 0
M  V30 2762 H 267.829 -8.1727 -0.448493 0
M  V30 2763 N 270.492 0.636531 -1.44174 0
M  V30 2764 C 271.424 1.7618 -1.46606 0
M  V30 2765 C 272.437 1.58768 -0.360091 0
M  V30 2766 O 273.626 1.67181 -0.625518 0
M  V30 2767 C 270.726 3.13833 -1.27915 0
M  V30 2768 C 269.899 3.57753 -2.51658 0
M  V30 2769 C 268.958 4.74265 -2.27945 0
M  V30 2770 O 267.984 4.82852 -3.01401 0
M  V30 2771 N 269.186 5.65604 -1.30662 0
M  V30 2772 H 271.951 1.74567 -2.43612 0
M  V30 2773 H 269.512 0.820924 -1.39544 0
M  V30 2774 H 271.504 3.8949 -1.09907 0
M  V30 2775 H 270.074 3.10121 -0.39293 0
M  V30 2776 H 269.294 2.72362 -2.84978 0
M  V30 2777 H 270.582 3.83847 -3.33974 0
M  V30 2778 H 269.98 5.61354 -0.699844 0
M  V30 2779 H 268.537 6.40913 -1.18634 0
M  V30 2780 N 271.97 1.30982 0.876444 0
M  V30 2781 C 273.216 1.20474 1.63138 0
M  V30 2782 C 273.549 -0.238096 1.92735 0
M  V30 2783 O 272.824 -1.1692 1.55435 0
M  V30 2784 C 273.107 2.04244 2.96574 0
M  V30 2785 C 272.96 3.56793 2.73896 0
M  V30 2786 C 274.279 1.88684 3.97601 0
M  V30 2787 H 271.398 0.439001 0.591985 0
M  V30 2788 H 274.04 1.60704 1.01361 0
M  V30 2789 H 272.19 1.70063 3.493 0
M  V30 2790 H 273.862 4.01077 2.27892 0
M  V30 2791 H 272.105 3.80548 2.08245 0
M  V30 2792 H 272.776 4.10706 3.68815 0
M  V30 2793 H 275.252 2.18584 3.54062 0
M  V30 2794 H 274.128 2.4961 4.88862 0
M  V30 2795 H 274.389 0.848343 4.33884 0
M  V30 2796 N 273.449 -1.08991 1.13837 0
M  V30 2797 C 274.865 -1.33312 0.877506 0
M  V30 2798 C 275.065 -1.95587 -0.48456 0
M  V30 2799 O 274.121 -2.20509 -1.23013 0
M  V30 2800 C 275.434 -2.24045 2.0056 0
M  V30 2801 C 276.982 -2.37542 2.03821 0
M  V30 2802 C 277.457 -3.31614 3.15905 0
M  V30 2803 N 278.948 -3.39189 3.15445 0
M  V30 2804 C 279.683 -4.11992 3.98811 0
M  V30 2805 N 279.179 -4.87553 4.92203 0
M  V30 2806 N 280.972 -4.07762 3.86894 0
M  V30 2807 H 273.123 -0.669456 2.01574 0
M  V30 2808 H 275.386 -0.357482 0.878015 0
M  V30 2809 H 275.092 -1.85521 2.98789 0
M  V30 2810 H 274.966 -3.24466 1.92359 0
M  V30 2811 H 277.353 -2.75327 1.06202 0
M  V30 2812 H 277.434 -1.36884 2.16093 0
M  V30 2813 H 277.078 -2.94551 4.13766 0
M  V30 2814 H 277.008 -4.32186 3.0087 0
M  V30 2815 H 279.499 -2.85314 2.47799 0
M  V30 2816 H 279.812 -5.40549 5.52292 0
M  V30 2817 H 278.157 -4.86627 4.96205 0
M  V30 2818 H 281.348 -3.47833 3.13257 0
M  V30 2819 H 281.521 -4.64238 4.52092 0
M  V30 2820 N 274.927 -0.932562 -1.27047 0
M  V30 2821 C 276.175 -0.574422 -1.93765 0
M  V30 2822 C 276.496 0.887993 -1.73608 0
M  V30 2823 O 275.766 1.62999 -1.08665 0
M  V30 2824 H 274.346 -0.209451 -0.717035 0
M  V30 2825 H 277.008 -1.18601 -1.5466 0
M  V30 2826 H 276.104 -0.784841 -3.02071 0
M  V30 2827 N 276.405 1.4127 -0.698611 0
M  V30 2828 C 277.335 2.33447 -0.049629 0
M  V30 2829 C 278.316 1.51982 0.763898 0
M  V30 2830 O 279.501 1.80509 0.716257 0
M  V30 2831 C 276.631 3.35828 0.885267 0
M  V30 2832 C 275.585 4.27627 0.178613 0
M  V30 2833 C 274.911 5.20406 1.22807 0
M  V30 2834 C 276.211 5.13459 -0.956933 0
M  V30 2835 H 277.905 2.87966 -0.81951 0
M  V30 2836 H 275.451 1.38461 -0.395538 0
M  V30 2837 H 277.404 3.9924 1.34854 0
M  V30 2838 H 276.128 2.79666 1.68685 0
M  V30 2839 H 274.787 3.65643 -0.26466 0
M  V30 2840 H 274.435 4.60558 2.02226 0
M  V30 2841 H 274.135 5.82661 0.760239 0
M  V30 2842 H 275.659 5.86695 1.69179 0
M  V30 2843 H 277.073 5.70421 -0.573805 0
M  V30 2844 H 275.47 5.8467 -1.35205 0
M  V30 2845 H 276.54 4.50443 -1.79524 0
M  V30 2846 N 277.883 0.443576 1.51229 0
M  V30 2847 C 278.831 -0.37904 2.29491 0
M  V30 2848 C 279.825 -1.0153 1.35603 0
M  V30 2849 O 281.031 -0.94955 1.52917 0
M  V30 2850 H 277.406 -0.141053 0.738653 0
M  V30 2851 H 279.377 0.301799 2.9687 0
M  V30 2852 C 278.126 -1.46426 3.15364 0
M  V30 2853 H 277.449 -0.984037 3.87501 0
M  V30 2854 H 278.889 -2.01297 3.7317 0
M  V30 2855 C 277.348 -2.45099 2.31146 0
M  V30 2856 O 277.878 -3.49773 1.9754 0
M  V30 2857 N 276.084 -2.16139 1.94249 0
M  V30 2858 H 275.631 -1.31044 2.21777 0
M  V30 2859 H 275.589 -2.82398 1.38198 0
M  V30 2860 N 279.361 -1.56624 0.175154 0
M  V30 2861 C 280.607 -1.98061 -0.462976 0
M  V30 2862 C 280.962 -1.05949 -1.60601 0
M  V30 2863 O 280.255 -0.0999027 -1.91339 0
M  V30 2864 C 280.449 -3.43419 -0.989864 0
M  V30 2865 C 280.278 -4.49587 0.100583 0
M  V30 2866 C 279.048 -5.02281 0.551539 0
M  V30 2867 C 281.246 -5.06322 0.902369 0
M  V30 2868 N 279.228 -5.92088 1.62189 0
M  V30 2869 C 280.599 -5.92607 1.82256 0
M  V30 2870 C 282.654 -4.88811 0.947019 0
M  V30 2871 C 281.357 -6.63254 2.78364 0
M  V30 2872 C 283.383 -5.60182 1.89606 0
M  V30 2873 C 282.745 -6.46197 2.80372 0
M  V30 2874 H 278.844 -0.769833 -0.137409 0
M  V30 2875 H 281.428 -1.9273 0.276256 0
M  V30 2876 H 279.599 -3.49288 -1.6986 0
M  V30 2877 H 281.331 -3.7186 -1.59694 0
M  V30 2878 H 278.086 -4.73367 0.148537 0
M  V30 2879 H 278.51 -6.41696 2.15767 0
M  V30 2880 H 283.152 -4.22004 0.259304 0
M  V30 2881 H 280.87 -7.29271 3.48122 0
M  V30 2882 H 284.456 -5.48617 1.93676 0
M  V30 2883 H 283.336 -7.00453 3.52612 0
M  V30 2884 N 280.839 0.0985539 -1.57292 0
M  V30 2885 C 281.769 1.12064 -2.04851 0
M  V30 2886 C 282.75 1.41981 -0.936767 0
M  V30 2887 O 283.935 1.52071 -1.20781 0
M  V30 2888 C 281.065 2.44144 -2.47004 0
M  V30 2889 C 280.019 2.28643 -3.6181 0
M  V30 2890 C 279.345 3.65869 -3.89929 0
M  V30 2891 C 280.645 1.72986 -4.92822 0
M  V30 2892 H 282.339 0.724979 -2.9049 0
M  V30 2893 H 279.885 0.34729 -1.39749 0
M  V30 2894 H 281.838 3.15914 -2.78884 0
M  V30 2895 H 280.562 2.85639 -1.5836 0
M  V30 2896 H 279.221 1.59318 -3.30172 0
M  V30 2897 H 278.869 4.04885 -2.98458 0
M  V30 2898 H 278.569 3.56344 -4.67218 0
M  V30 2899 H 280.093 4.39112 -4.2428 0
M  V30 2900 H 281.507 2.34593 -5.23105 0
M  V30 2901 H 279.904 1.74229 -5.74251 0
M  V30 2902 H 280.974 0.689007 -4.7998 0
M  V30 2903 N 282.317 1.53212 0.369288 0
M  V30 2904 C 283.566 1.68436 1.10961 0
M  V30 2905 C 283.879 0.440738 1.9057 0
M  V30 2906 O 285.085 0.473446 2.6734 0
M  V30 2907 C 283.541 2.97744 2.0218 0
M  V30 2908 C 283.149 4.29355 1.279 0
M  V30 2909 C 284.893 3.22334 2.76226 0
M  V30 2910 C 282.8 5.49755 2.17999 0
M  V30 2911 H 281.73 0.627568 0.41794 0
M  V30 2912 H 284.381 1.79713 0.370884 0
M  V30 2913 H 282.763 2.8026 2.79768 0
M  V30 2914 H 283.937 4.57458 0.554007 0
M  V30 2915 H 282.252 4.11179 0.657311 0
M  V30 2916 H 284.849 4.09471 3.43857 0
M  V30 2917 H 285.192 2.38238 3.41392 0
M  V30 2918 H 285.725 3.40475 2.05723 0
M  V30 2919 H 282.464 6.36318 1.57417 0
M  V30 2920 H 281.984 5.25937 2.88359 0
M  V30 2921 H 283.663 5.84401 2.77641 0
M  V30 2922 N 283.795 -0.628877 1.44509 0
M  V30 2923 C 285.02 -1.42048 1.5112 0
M  V30 2924 C 285.445 -1.87594 0.137818 0
M  V30 2925 O 284.803 -1.58873 -0.873437 0
M  V30 2926 C 284.851 -2.61541 2.48251 0
M  V30 2927 O 283.955 -3.61453 1.98559 0
M  V30 2928 H 283.296 -0.424942 0.510216 0
M  V30 2929 H 285.826 -0.767374 1.89664 0
M  V30 2930 H 285.836 -3.09057 2.66361 0
M  V30 2931 H 284.511 -2.27736 3.48007 0
M  V30 2932 H 283.088 -3.20731 1.90227 0
M  V30 2933 N 285.273 -1.31445 -0.869486 0
M  V30 2934 C 286.203 -1.21727 -1.99261 0
M  V30 2935 C 287.184 -0.104359 -1.6978 0
M  V30 2936 O 288.369 -0.289038 -1.92037 0
M  V30 2937 C 285.499 -0.924317 -3.34774 0
M  V30 2938 C 284.453 -1.99685 -3.78563 0
M  V30 2939 C 283.779 -1.55658 -5.11541 0
M  V30 2940 C 285.079 -3.41003 -3.95619 0
M  V30 2941 H 286.773 -2.1569 -2.07649 0
M  V30 2942 H 284.319 -1.03839 -0.997675 0
M  V30 2943 H 286.272 -0.842934 -4.12883 0
M  V30 2944 H 284.996 0.0509793 -3.2656 0
M  V30 2945 H 283.655 -2.06813 -3.02694 0
M  V30 2946 H 283.303 -0.569132 -4.9977 0
M  V30 2947 H 283.003 -2.27409 -5.41811 0
M  V30 2948 H 284.527 -1.48928 -5.92159 0
M  V30 2949 H 285.941 -3.36547 -4.64122 0
M  V30 2950 H 284.338 -4.10975 -4.37286 0
M  V30 2951 H 285.408 -3.81754 -2.98985 0
M  V30 2952 N 286.751 1.08385 -1.14413 0
M  V30 2953 C 287.981 1.8425 -0.934644 0
M  V30 2954 C 288.389 1.81907 0.520234 0
M  V30 2955 O 287.732 1.22126 1.37226 0
M  V30 2956 C 287.794 3.32853 -1.35828 0
M  V30 2957 C 287.458 3.5893 -2.82875 0
M  V30 2958 C 288.455 3.53756 -3.80989 0
M  V30 2959 C 286.14 3.86934 -3.20293 0
M  V30 2960 C 288.134 3.76216 -5.14529 0
M  V30 2961 C 285.821 4.09047 -4.54008 0
M  V30 2962 C 286.819 4.03682 -5.50936 0
M  V30 2963 O 286.507 4.25214 -6.82238 0
M  V30 2964 H 286.239 0.588502 -0.332628 0
M  V30 2965 H 288.793 1.37792 -1.52324 0
M  V30 2966 H 287.023 3.8007 -0.713019 0
M  V30 2967 H 288.712 3.90154 -1.11957 0
M  V30 2968 H 289.478 3.32135 -3.53428 0
M  V30 2969 H 285.357 3.9023 -2.45442 0
M  V30 2970 H 288.901 3.71943 -5.90173 0
M  V30 2971 H 284.798 4.30151 -4.8129 0
M  V30 2972 H 285.566 4.42619 -6.88499 0
M  V30 2973 N 288.23 0.939286 1.26551 0
M  V30 2974 C 289.14 0.453432 2.30176 0
M  V30 2975 C 290.156 -0.471649 1.67486 0
M  V30 2976 O 291.332 -0.35164 1.98306 0
M  V30 2977 C 288.397 -0.275326 3.45605 0
M  V30 2978 C 287.458 0.686084 4.23782 0
M  V30 2979 C 286.691 -0.00798994 5.33699 0
M  V30 2980 O 286.914 -1.22528 5.57085 0
M  V30 2981 O 285.848 0.669746 5.98162 0
M  V30 2982 H 289.674 1.31416 2.73795 0
M  V30 2983 H 287.259 0.705095 1.31715 0
M  V30 2984 H 289.141 -0.685911 4.1578 0
M  V30 2985 H 287.816 -1.11147 3.0402 0
M  V30 2986 H 286.723 1.14658 3.56096 0
M  V30 2987 H 288.056 1.48979 4.69112 0
M  V30 2988 N 289.708 -1.40897 0.706093 0
M  V30 2989 C 290.656 -2.32572 0.0361893 0
M  V30 2990 C 291.65 -1.51532 -0.757266 0
M  V30 2991 O 292.856 -1.67396 -0.661703 0
M  V30 2992 H 289.231 -0.751966 -0.00709935 0
M  V30 2993 H 291.202 -2.86733 0.826249 0
M  V30 2994 C 289.951 -3.36418 -0.87854 0
M  V30 2995 H 289.274 -3.98836 -0.277401 0
M  V30 2996 H 290.714 -4.0308 -1.3154 0
M  V30 2997 C 289.173 -2.71141 -1.99961 0
M  V30 2998 O 289.703 -2.56735 -3.0895 0
M  V30 2999 N 287.909 -2.29671 -1.78043 0
M  V30 3000 H 287.456 -2.41588 -0.894042 0
M  V30 3001 H 287.414 -1.86332 -2.53235 0
M  V30 3002 N 291.186 -0.45159 -1.50991 0
M  V30 3003 C 292.434 0.109857 -2.01801 0
M  V30 3004 C 292.755 1.41958 -1.3369 0
M  V30 3005 O 292.025 1.9003 -0.475951 0
M  V30 3006 H 290.605 0.0435884 -0.745727 0
M  V30 3007 H 293.267 -0.597557 -1.85514 0
M  V30 3008 H 292.363 0.275489 -3.10882 0
M  V30 3009 N 292.664 1.56529 -0.183458 0
M  V30 3010 C 293.913 1.96419 0.458511 0
M  V30 3011 C 294.226 1.0727 1.63562 0
M  V30 3012 O 295.432 1.36893 2.34462 0
M  V30 3013 C 293.888 3.49298 0.867122 0
M  V30 3014 C 293.496 4.47092 -0.285057 0
M  V30 3015 C 295.24 3.97983 1.47683 0
M  V30 3016 C 293.147 5.91225 0.143862 0
M  V30 3017 H 292.077 0.733394 0.175071 0
M  V30 3018 H 294.728 1.81448 -0.273624 0
M  V30 3019 H 293.11 3.59731 1.65559 0
M  V30 3020 H 294.284 4.48383 -1.0625 0
M  V30 3021 H 292.599 4.08535 -0.805503 0
M  V30 3022 H 295.196 5.03134 1.80999 0
M  V30 3023 H 295.539 3.41618 2.37914 0
M  V30 3024 H 296.072 3.90617 0.752562 0
M  V30 3025 H 292.811 6.5149 -0.723974 0
M  V30 3026 H 292.331 5.93214 0.886413 0
M  V30 3027 H 294.01 6.44362 0.583628 0
M  V30 3028 N 294.142 -0.090211 1.57342 0
M  V30 3029 C 295.09 -1.12792 2.03422 0
M  V30 3030 C 296.084 -1.41182 0.936166 0
M  V30 3031 O 297.29 -1.40805 1.12133 0
M  V30 3032 H 293.665 -0.380986 0.648347 0
M  V30 3033 H 295.636 -0.71299 2.89757 0
M  V30 3034 C 294.385 -2.43855 2.47851 0
M  V30 3035 H 293.708 -2.22855 3.31927 0
M  V30 3036 H 295.148 -3.14955 2.83865 0
M  V30 3037 C 293.607 -3.08503 1.3538 0
M  V30 3038 O 294.137 -3.95805 0.685641 0
M  V30 3039 N 292.343 -2.68831 1.10355 0
M  V30 3040 H 291.89 -1.97929 1.64869 0
M  V30 3041 H 291.848 -3.12412 0.353031 0
M  V30 3042 N 295.62 -1.53406 -0.361157 0
M  V30 3043 C 296.868 -1.69467 -1.10115 0
M  V30 3044 C 297.189 -0.451352 -1.89705 0
M  V30 3045 O 296.459 0.534636 -1.88463 0
M  V30 3046 H 295.039 -0.624749 -0.409508 0
M  V30 3047 H 297.701 -1.90609 -0.406699 0
M  V30 3048 H 296.797 -2.55774 -1.78847 0
M  V30 3049 N 297.098 0.621204 -1.44841 0
M  V30 3050 C 298.347 1.37658 -1.47422 0
M  V30 3051 C 298.66 1.95264 -0.114629 0
M  V30 3052 O 299.866 2.71494 -0.0180199 0
M  V30 3053 C 298.322 2.49285 -2.59586 0
M  V30 3054 C 297.93 1.98149 -4.01797 0
M  V30 3055 C 299.674 3.26409 -2.71399 0
M  V30 3056 C 297.581 3.07178 -5.05367 0
M  V30 3057 H 296.511 0.517344 -0.548517 0
M  V30 3058 H 299.162 0.667257 -1.70938 0
M  V30 3059 H 297.544 3.22839 -2.29328 0
M  V30 3060 H 298.718 1.31395 -4.41669 0
M  V30 3061 H 297.033 1.33812 -3.94314 0
M  V30 3062 H 299.63 4.07706 -3.45948 0
M  V30 3063 H 299.973 3.76535 -1.77559 0
M  V30 3064 H 300.506 2.5995 -3.01116 0
M  V30 3065 H 297.245 2.61985 -6.00869 0
M  V30 3066 H 296.765 3.72542 -4.70077 0
M  V30 3067 H 298.444 3.71789 -5.29511 0
M  V30 3068 N 298.576 1.31904 0.862503 0
M  V30 3069 C 299.506 1.22782 1.98612 0
M  V30 3070 C 300.487 0.113362 1.69722 0
M  V30 3071 O 301.672 0.299218 1.91881 0
M  V30 3072 C 298.802 0.942058 3.34279 0
M  V30 3073 C 297.756 2.0169 3.77499 0
M  V30 3074 C 297.082 1.58369 5.10709 0
M  V30 3075 C 298.382 3.43096 3.93805 0
M  V30 3076 H 300.076 2.16788 2.06502 0
M  V30 3077 H 297.622 1.04366 0.992154 0
M  V30 3078 H 299.575 0.864818 4.1243 0
M  V30 3079 H 298.299 -0.0336603 3.26583 0
M  V30 3080 H 296.958 2.08416 3.01593 0
M  V30 3081 H 296.606 0.595628 4.99461 0
M  V30 3082 H 296.306 2.30279 5.40597 0
M  V30 3083 H 297.83 1.52067 5.91361 0
M  V30 3084 H 299.244 3.39003 4.62331 0
M  V30 3085 H 297.641 4.13288 4.35101 0
M  V30 3086 H 298.711 3.83334 2.96957 0
M  V30 3087 N 300.054 -1.07777 1.14986 0
M  V30 3088 C 301.017 -2.13041 0.845358 0
M  V30 3089 C 302.017 -1.60071 -0.152931 0
M  V30 3090 O 303.207 -1.74033 0.0761879 0
M  V30 3091 C 300.339 -3.39896 0.261383 0
M  V30 3092 H 301.532 -2.41485 1.77834 0
M  V30 3093 H 299.085 -1.23595 0.956757 0
M  V30 3094 H 299.82 -3.17091 -0.68 0
M  V30 3095 H 299.605 -3.79642 0.980514 0
M  V30 3096 H 301.095 -4.17548 0.0657687 0
M  V30 3097 N 301.532 -0.945985 -1.26051 0
M  V30 3098 C 302.809 -0.513816 -1.88731 0
M  V30 3099 C 303.189 1.00872 -1.8544 0
M  V30 3100 O 302.537 1.8708 -1.312 0
M  V30 3101 C 302.747 -1.08062 -3.31849 0
M  V30 3102 C 304.095 -1.1522 -4.08668 0
M  V30 3103 O 305.119 -1.03155 -3.40936 0
M  V30 3104 O 303.978 -1.34044 -5.29806 0
M  V30 3105 H 301.072 -0.168193 -0.809716 0
M  V30 3106 H 303.618 -1.03886 -1.34186 0
M  V30 3107 H 302.39 -2.1241 -3.2863 0
M  V30 3108 H 302.013 -0.538307 -3.93939 0
M  V30 3109 N 303.011 1.40521 -0.713556 0
M  V30 3110 C 303.921 2.34522 -0.0606667 0
M  V30 3111 C 304.937 1.57193 0.74607 0
M  V30 3112 O 306.113 1.89591 0.679493 0
M  V30 3113 C 303.178 3.36081 0.851491 0
M  V30 3114 C 302.239 4.29286 0.0349339 0
M  V30 3115 C 301.472 5.25994 0.903649 0
M  V30 3116 O 301.695 5.28616 2.14292 0
M  V30 3117 O 300.629 6.00918 0.343723 0
M  V30 3118 H 304.455 2.91968 -0.835972 0
M  V30 3119 H 302.04 1.41681 -0.47402 0
M  V30 3120 H 303.922 3.98369 1.37404 0
M  V30 3121 H 302.597 2.81052 1.60598 0
M  V30 3122 H 301.504 3.70289 -0.532633 0
M  V30 3123 H 302.837 4.87462 -0.681287 0
M  V30 3124 N 304.489 0.459591 1.5075 0
M  V30 3125 C 305.422 -0.386257 2.24907 0
M  V30 3126 C 306.4 -1.006 1.27744 0
M  V30 3127 O 307.584 -1.04416 1.56938 0
M  V30 3128 C 304.711 -1.54021 3.01654 0
M  V30 3129 C 303.757 -1.03898 4.13651 0
M  V30 3130 S 304.59 0.0370501 5.35487 0
M  V30 3131 C 305.746 -1.12105 6.15779 0
M  V30 3132 H 305.979 0.243272 2.96303 0
M  V30 3133 H 303.512 0.244339 1.52454 0
M  V30 3134 H 305.47 -2.20163 3.46466 0
M  V30 3135 H 304.131 -2.14121 2.29806 0
M  V30 3136 H 303.324 -1.90254 4.66711 0
M  V30 3137 H 302.926 -0.45545 3.71216 0
M  V30 3138 H 305.218 -2.03501 6.46215 0
M  V30 3139 H 306.161 -0.62995 7.05292 0
M  V30 3140 H 306.569 -1.36967 5.47631 0
M  V30 3141 N 305.967 -1.56429 0.191757 0
M  V30 3142 C 307.215 -1.97095 -0.447006 0
M  V30 3143 C 307.536 -1.07967 -1.62383 0
M  V30 3144 O 306.806 -0.150248 -1.95323 0
M  V30 3145 H 305.386 -0.727832 -0.168135 0
M  V30 3146 H 308.048 -1.92911 0.27771 0
M  V30 3147 H 307.144 -3.01848 -0.793371 0
M  V30 3148 N 307.445 0.0818655 -1.57387 0
M  V30 3149 C 308.375 1.09885 -2.06028 0
M  V30 3150 C 309.356 1.4098 -0.951774 0
M  V30 3151 O 310.541 1.50781 -1.22387 0
M  V30 3152 C 307.671 2.4151 -2.4958 0
M  V30 3153 C 306.625 2.24792 -3.64215 0
M  V30 3154 C 305.951 3.61712 -3.93787 0
M  V30 3155 C 307.251 1.67749 -4.94629 0
M  V30 3156 H 308.945 0.694128 -2.91243 0
M  V30 3157 H 306.491 0.332448 -1.4011 0
M  V30 3158 H 308.444 3.12939 -2.82219 0
M  V30 3159 H 307.168 2.83943 -1.61381 0
M  V30 3160 H 305.827 1.55807 -3.31843 0
M  V30 3161 H 305.475 4.01697 -3.02735 0
M  V30 3162 H 305.175 3.51368 -4.70971 0
M  V30 3163 H 306.699 4.34587 -4.28913 0
M  V30 3164 H 308.113 2.29032 -5.25564 0
M  V30 3165 H 306.51 1.68128 -5.76067 0
M  V30 3166 H 307.58 0.638059 -4.80684 0
M  V30 3167 N 308.923 1.53595 0.353017 0
M  V30 3168 C 310.171 1.70049 1.09215 0
M  V30 3169 C 310.492 0.461406 1.89463 0
M  V30 3170 O 309.762 -0.524633 1.88744 0
M  V30 3171 H 308.342 0.626912 0.40619 0
M  V30 3172 H 311.004 1.90822 0.396585 0
M  V30 3173 H 310.1 2.56718 1.77488 0
M  V30 3174 N 310.401 -0.613514 1.45168 0
M  V30 3175 C 311.348 -1.72456 1.53387 0
M  V30 3176 C 312.318 -1.6169 0.380191 0
M  V30 3177 O 313.503 -1.81356 0.592836 0
M  V30 3178 C 310.643 -3.10753 1.50088 0
M  V30 3179 C 309.756 -3.32368 2.75963 0
M  V30 3180 C 308.891 -4.60737 2.64376 0
M  V30 3181 C 307.93 -4.7559 3.85332 0
M  V30 3182 N 307.067 -5.95253 3.72315 0
M  V30 3183 H 311.907 -1.64768 2.48305 0
M  V30 3184 H 309.444 -0.803503 1.23216 0
M  V30 3185 H 311.402 -3.90758 1.46164 0
M  V30 3186 H 310.032 -3.17413 0.587243 0
M  V30 3187 H 309.084 -2.4618 2.89999 0
M  V30 3188 H 310.396 -3.39218 3.65695 0
M  V30 3189 H 309.55 -5.48928 2.58385 0
M  V30 3190 H 308.289 -4.56275 1.72233 0
M  V30 3191 H 307.294 -3.85824 3.91688 0
M  V30 3192 H 308.519 -4.81854 4.78533 0
M  V30 3193 H 306.465 -5.91847 2.82937 0
M  V30 3194 H 306.382 -6.03236 4.55677 0
M  V30 3195 H 307.65 -6.85958 3.70246 0
M  V30 3196 N 311.879 -1.3236 -0.855495 0
M  V30 3197 C 313.107 -1.2587 -1.64208 0
M  V30 3198 C 313.522 0.173457 -1.88002 0
M  V30 3199 O 312.879 1.11027 -1.44842 0
M  V30 3200 C 312.93 -2.01424 -3.00184 0
M  V30 3201 O 312.651 -3.39051 -2.77445 0
M  V30 3202 C 314.152 -2.01948 -3.94629 0
M  V30 3203 H 311.372 -0.434318 -0.511477 0
M  V30 3204 H 313.916 -1.74469 -1.0668 0
M  V30 3205 H 312.071 -1.56549 -3.5436 0
M  V30 3206 H 312.485 -3.77711 -3.63916 0
M  V30 3207 H 313.959 -2.59297 -4.87308 0
M  V30 3208 H 314.436 -1.00554 -4.27534 0
M  V30 3209 H 315.042 -2.46767 -3.4639 0
M  V30 3210 N 313.357 1.07166 -1.15556 0
M  V30 3211 C 314.287 2.16403 -0.877046 0
M  V30 3212 C 315.268 1.69217 0.173111 0
M  V30 3213 O 316.453 1.94181 0.027084 0
M  V30 3214 C 313.583 3.45349 -0.367632 0
M  V30 3215 C 312.537 4.05995 -1.35468 0
M  V30 3216 C 311.863 5.30045 -0.704038 0
M  V30 3217 C 313.163 4.45804 -2.72132 0
M  V30 3218 H 314.857 2.39959 -1.79053 0
M  V30 3219 H 312.403 1.15325 -0.862331 0
M  V30 3220 H 314.356 4.21095 -0.160317 0
M  V30 3221 H 313.08 3.21385 0.581326 0
M  V30 3222 H 311.739 3.32296 -1.54839 0
M  V30 3223 H 311.387 5.02373 0.251128 0
M  V30 3224 H 311.087 5.71579 -1.36277 0
M  V30 3225 H 312.611 6.08495 -0.50654 0
M  V30 3226 H 314.025 5.12671 -2.56595 0
M  V30 3227 H 312.422 4.98296 -3.34397 0
M  V30 3228 H 313.492 3.57083 -3.28054 0
M  V30 3229 N 314.835 0.952656 1.25548 0
M  V30 3230 C 315.767 0.428609 2.25157 0
M  V30 3231 C 316.78 -0.454428 1.56329 0
M  V30 3232 O 317.969 -0.263023 1.76552 0
M  V30 3233 C 315.069 -0.401972 3.36508 0
M  V30 3234 C 314.242 0.467601 4.34893 0
M  V30 3235 C 313.301 -0.30445 5.25319 0
M  V30 3236 O 312.327 0.296473 5.68427 0
M  V30 3237 N 313.529 -1.59805 5.5807 0
M  V30 3238 H 316.294 1.28497 2.70756 0
M  V30 3239 H 313.855 0.822798 1.39433 0
M  V30 3240 H 315.847 -0.926134 3.9396 0
M  V30 3241 H 314.417 -1.15918 2.90313 0
M  V30 3242 H 313.637 1.17288 3.76347 0
M  V30 3243 H 314.925 1.06119 4.97611 0
M  V30 3244 H 314.323 -2.10823 5.24948 0
M  V30 3245 H 312.88 -2.06822 6.18116 0
M  V30 3246 N 316.313 -1.40141 0.720998 0
M  V30 3247 C 317.541 -2.05096 0.272656 0
M  V30 3248 C 317.956 -1.54334 -1.0875 0
M  V30 3249 O 317.313 -0.702211 -1.6845 0
M  V30 3250 C 317.364 -3.60636 0.249835 0
M  V30 3251 O 317.085 -4.09526 1.55629 0
M  V30 3252 C 318.586 -4.42772 -0.216396 0
M  V30 3253 H 315.806 -0.659897 0.121558 0
M  V30 3254 H 318.35 -1.79449 0.980723 0
M  V30 3255 H 316.505 -3.85232 -0.409237 0
M  V30 3256 H 316.919 -5.03758 1.4604 0
M  V30 3257 H 318.393 -5.51702 -0.181212 0
M  V30 3258 H 318.87 -4.20756 -1.25941 0
M  V30 3259 H 319.476 -4.23294 0.412596 0
M  V30 3260 N 317.792 -0.46758 -1.50504 0
M  V30 3261 C 319.041 0.0902868 -2.01498 0
M  V30 3262 C 319.354 1.411 -1.35463 0
M  V30 3263 O 320.56 2.0536 -1.77594 0
M  V30 3264 C 319.016 0.21142 -3.59278 0
M  V30 3265 C 318.624 -1.10065 -4.34269 0
M  V30 3266 C 320.368 0.721433 -4.18325 0
M  V30 3267 C 318.275 -0.943505 -5.83825 0
M  V30 3268 H 317.205 0.037517 -0.753066 0
M  V30 3269 H 319.856 -0.601943 -1.73346 0
M  V30 3270 H 318.238 0.967352 -3.84003 0
M  V30 3271 H 319.412 -1.86726 -4.21272 0
M  V30 3272 H 317.727 -1.5415 -3.86816 0
M  V30 3273 H 320.324 0.85598 -5.27804 0
M  V30 3274 H 320.667 1.71186 -3.79475 0
M  V30 3275 H 321.2 0.0229843 -3.97793 0
M  V30 3276 H 317.939 -1.90719 -6.27141 0
M  V30 3277 H 317.459 -0.217213 -5.99407 0
M  V30 3278 H 319.138 -0.608715 -6.4413 0
M  V30 3279 N 319.27 1.56325 -0.20005 0
M  V30 3280 C 320.495 2.02548 0.44597 0
M  V30 3281 C 320.92 1.07922 1.5406 0
M  V30 3282 O 320.278 0.0635775 1.81188 0
M  V30 3283 C 320.326 3.47175 0.974761 0
M  V30 3284 O 319.43 3.55671 2.08739 0
M  V30 3285 H 318.771 0.655862 0.103638 0
M  V30 3286 H 321.301 2.02201 -0.312381 0
M  V30 3287 H 321.311 3.87067 1.2901 0
M  V30 3288 H 319.986 4.15538 0.17347 0
M  V30 3289 H 318.563 3.27657 1.78032 0
M  V30 3290 N 320.748 -0.0735177 1.57428 0
M  V30 3291 C 321.678 -1.0879 2.06608 0
M  V30 3292 C 322.659 -1.40473 0.959237 0
M  V30 3293 O 323.844 -1.5013 1.23185 0
M  V30 3294 C 320.974 -2.40183 2.50857 0
M  V30 3295 C 319.928 -2.22858 3.65402 0
M  V30 3296 C 319.254 -3.59619 3.957 0
M  V30 3297 C 320.554 -1.65123 4.95511 0
M  V30 3298 H 322.248 -0.678673 2.91607 0
M  V30 3299 H 319.794 -0.325013 1.40284 0
M  V30 3300 H 321.747 -3.11437 2.83874 0
M  V30 3301 H 320.471 -2.83083 1.62885 0
M  V30 3302 H 319.13 -1.54045 3.32664 0
M  V30 3303 H 318.778 -4.00086 3.04861 0
M  V30 3304 H 318.478 -3.48866 4.72828 0
M  V30 3305 H 320.002 -4.32306 4.31212 0
M  V30 3306 H 321.416 -2.26241 5.26771 0
M  V30 3307 H 319.813 -1.65071 5.7695 0
M  V30 3308 H 320.883 -0.612559 4.81015 0
M  V30 3309 N 322.226 -1.5378 -0.344866 0
M  V30 3310 C 323.156 -1.84662 -1.42906 0
M  V30 3311 C 324.137 -0.701648 -1.54955 0
M  V30 3312 O 325.322 -0.953438 -1.69184 0
M  V30 3313 C 322.452 -2.05503 -2.79974 0
M  V30 3314 C 321.406 -3.21318 -2.82734 0
M  V30 3315 C 320.732 -3.2749 -4.22675 0
M  V30 3316 C 322.032 -4.59456 -2.48389 0
M  V30 3317 H 323.726 -2.75461 -1.17311 0
M  V30 3318 H 321.272 -1.32542 -0.562896 0
M  V30 3319 H 323.225 -2.25691 -3.55867 0
M  V30 3320 H 321.949 -1.11434 -3.07002 0
M  V30 3321 H 320.608 -3.00984 -2.09294 0
M  V30 3322 H 320.256 -2.31019 -4.4681 0
M  V30 3323 H 319.956 -4.05316 -4.25433 0
M  V30 3324 H 321.48 -3.49887 -5.00412 0
M  V30 3325 H 322.894 -4.79667 -3.13995 0
M  V30 3326 H 321.291 -5.39675 -2.62432 0
M  V30 3327 H 322.361 -4.63155 -1.4358 0
M  V30 3328 N 323.704 0.605807 -1.45491 0
M  V30 3329 C 324.952 1.36207 -1.49305 0
M  V30 3330 C 325.273 1.94519 -0.136863 0
M  V30 3331 O 324.543 1.77261 0.833983 0
M  V30 3332 H 323.123 0.50565 -0.549843 0
M  V30 3333 H 325.785 0.711239 -1.81459 0
M  V30 3334 H 324.881 2.18058 -2.23287 0
M  V30 3335 N 325.182 1.32811 0.848464 0
M  V30 3336 C 326.412 1.26556 1.63301 0
M  V30 3337 C 326.82 -0.1676 1.88456 0
M  V30 3338 O 326.163 -1.11713 1.45828 0
M  V30 3339 C 326.225 1.96202 3.01239 0
M  V30 3340 C 325.889 3.45528 2.99098 0
M  V30 3341 C 326.886 4.40903 2.75501 0
M  V30 3342 C 324.571 3.87558 3.19537 0
M  V30 3343 C 326.565 5.76282 2.72356 0
M  V30 3344 C 324.252 5.23044 3.16019 0
M  V30 3345 C 325.25 6.17217 2.92458 0
M  V30 3346 O 324.938 7.50223 2.88825 0
M  V30 3347 H 324.67 0.43771 0.515156 0
M  V30 3348 H 327.224 1.7559 1.0657 0
M  V30 3349 H 325.454 1.41746 3.59785 0
M  V30 3350 H 327.143 1.83573 3.62016 0
M  V30 3351 H 327.909 4.09756 2.5947 0
M  V30 3352 H 323.788 3.14674 3.369 0
M  V30 3353 H 327.332 6.4976 2.53886 0
M  V30 3354 H 323.229 5.53818 3.31596 0
M  V30 3355 H 323.997 7.59657 3.04735 0
M  V30 3356 N 326.66 -1.06551 1.16123 0
M  V30 3357 C 327.593 -2.13382 0.80892 0
M  V30 3358 C 328.571 -1.61128 -0.21827 0
M  V30 3359 O 329.755 -1.88219 -0.102952 0
M  V30 3360 C 326.882 -3.38083 0.204303 0
M  V30 3361 C 325.928 -4.09133 1.20469 0
M  V30 3362 S 326.761 -4.5948 2.75024 0
M  V30 3363 C 327.917 -5.87446 2.16005 0
M  V30 3364 H 328.15 -2.42937 1.71373 0
M  V30 3365 H 325.683 -1.18947 0.984428 0
M  V30 3366 H 327.641 -4.10268 -0.138081 0
M  V30 3367 H 326.302 -3.0669 -0.678234 0
M  V30 3368 H 325.495 -4.98685 0.730019 0
M  V30 3369 H 325.097 -3.4295 1.49202 0
M  V30 3370 H 327.389 -6.60065 1.5271 0
M  V30 3371 H 328.332 -6.39639 3.03756 0
M  V30 3372 H 328.74 -5.41354 1.59989 0
M  V30 3373 N 328.138 -0.959301 -1.25041 0
M  V30 3374 C 329.085 -0.482057 -2.2571 0
M  V30 3375 C 330.055 0.467939 -1.59372 0
M  V30 3376 O 331.24 0.380159 -1.86974 0
M  V30 3377 C 328.38 0.229623 -3.44335 0
M  V30 3378 C 327.493 -0.758156 -4.25295 0
M  V30 3379 C 326.628 -0.0234403 -5.31195 0
M  V30 3380 C 325.667 -1.00184 -6.03846 0
M  V30 3381 N 324.804 -0.29769 -7.01469 0
M  V30 3382 H 329.644 -1.34538 -2.65901 0
M  V30 3383 H 327.181 -0.674592 -1.3072 0
M  V30 3384 H 329.139 0.658856 -4.11965 0
M  V30 3385 H 327.769 1.05696 -3.05005 0
M  V30 3386 H 326.821 -1.30586 -3.57284 0
M  V30 3387 H 328.133 -1.50458 -4.75567 0
M  V30 3388 H 327.287 0.464201 -6.04922 0
M  V30 3389 H 326.026 0.755741 -4.81809 0
M  V30 3390 H 325.031 -1.50044 -5.2893 0
M  V30 3391 H 326.256 -1.78133 -6.55321 0
M  V30 3392 H 324.202 0.462668 -6.54366 0
M  V30 3393 H 324.119 -0.983128 -7.4958 0
M  V30 3394 H 325.387 0.16826 -7.79318 0
M  V30 3395 N 329.616 1.39756 -0.72842 0
M  V30 3396 C 330.566 2.2792 -0.0603424 0
M  V30 3397 C 331.55 1.43922 0.719399 0
M  V30 3398 O 332.742 1.66895 0.589489 0
M  V30 3399 C 329.871 3.32582 0.851104 0
M  V30 3400 C 328.957 4.24049 0.0658641 0
M  V30 3401 N 329.348 4.96653 -0.957578 0
M  V30 3402 C 327.646 4.45013 0.296509 0
M  V30 3403 C 328.347 5.63836 -1.43052 0
M  V30 3404 N 327.323 5.38397 -0.750315 0
M  V30 3405 H 331.125 2.81504 -0.84455 0
M  V30 3406 H 328.639 1.5236 -0.562155 0
M  V30 3407 H 330.636 3.94603 1.34514 0
M  V30 3408 H 329.296 2.80558 1.63454 0
M  V30 3409 H 330.307 5.00297 -1.33877 0
M  V30 3410 H 326.984 4.03943 1.05527 0
M  V30 3411 H 328.374 6.31974 -2.28163 0
M  V30 3412 N 331.094 0.475555 1.50254 0
M  V30 3413 C 332.324 -0.0753399 2.06463 0
M  V30 3414 C 332.732 -1.33661 1.33908 0
M  V30 3415 O 332.075 -1.79219 0.403257 0
M  V30 3416 C 332.137 -0.424921 3.5698 0
M  V30 3417 C 331.801 0.734965 4.51051 0
M  V30 3418 C 332.798 1.61827 4.94073 0
M  V30 3419 C 330.483 0.926557 4.9368 0
M  V30 3420 C 332.477 2.67754 5.78434 0
M  V30 3421 C 330.164 1.98904 5.77824 0
M  V30 3422 C 331.162 2.8629 6.20103 0
M  V30 3423 O 330.85 3.90708 7.02568 0
M  V30 3424 H 330.582 0.00576308 0.675975 0
M  V30 3425 H 333.136 0.664662 1.94349 0
M  V30 3426 H 331.366 -1.21817 3.67012 0
M  V30 3427 H 333.055 -0.911422 3.95535 0
M  V30 3428 H 333.821 1.48196 4.61804 0
M  V30 3429 H 329.7 0.25584 4.6029 0
M  V30 3430 H 333.244 3.35992 6.11355 0
M  V30 3431 H 329.141 2.12541 6.09505 0
M  V30 3432 H 329.909 3.87751 7.20827 0
M  V30 3433 N 332.573 -1.56217 0.208337 0
M  V30 3434 C 333.989 -1.58919 -0.14729 0
M  V30 3435 C 334.189 -1.22486 -1.59998 0
M  V30 3436 O 333.245 -0.953849 -2.3379 0
M  V30 3437 C 334.558 -3.00236 0.167048 0
M  V30 3438 C 336.106 -3.12813 0.108219 0
M  V30 3439 C 336.581 -4.56284 0.396049 0
M  V30 3440 N 338.072 -4.61912 0.345142 0
M  V30 3441 C 338.807 -5.70837 0.541523 0
M  V30 3442 N 338.303 -6.88178 0.798968 0
M  V30 3443 N 340.096 -5.60091 0.474867 0
M  V30 3444 H 332.247 -1.78177 1.15614 0
M  V30 3445 H 334.51 -0.827555 0.462446 0
M  V30 3446 H 334.216 -3.31499 1.1748 0
M  V30 3447 H 334.09 -3.7354 -0.524184 0
M  V30 3448 H 336.477 -2.81354 -0.890157 0
M  V30 3449 H 336.558 -2.41866 0.832729 0
M  V30 3450 H 336.202 -4.88458 1.3918 0
M  V30 3451 H 336.132 -5.25439 -0.349502 0
M  V30 3452 H 338.623 -3.77589 0.153316 0
M  V30 3453 H 338.936 -7.67095 0.93727 0
M  V30 3454 H 337.281 -6.89953 0.836013 0
M  V30 3455 H 340.472 -4.67297 0.274064 0
M  V30 3456 H 340.645 -6.44917 0.631326 0
M  V30 3457 N 334.051 0.0651679 -1.57465 0
M  V30 3458 C 334.999 1.09542 -2.05191 0
M  V30 3459 C 335.993 1.39675 -0.958509 0
M  V30 3460 O 337.199 1.39003 -1.14359 0
M  V30 3461 H 333.574 0.370623 -0.654326 0
M  V30 3462 H 335.545 0.666802 -2.90854 0
M  V30 3463 C 334.294 2.39881 -2.51699 0
M  V30 3464 H 333.617 2.17547 -3.3543 0
M  V30 3465 H 335.057 3.104 -2.88839 0
M  V30 3466 C 333.516 3.0631 -1.40271 0
M  V30 3467 O 334.046 3.94664 -0.748523 0
M  V30 3468 N 332.252 2.67041 -1.14618 0
M  V30 3469 H 331.799 1.95281 -1.67997 0
M  V30 3470 H 331.757 3.1181 -0.402688 0
M  V30 3471 N 335.529 1.53961 0.336706 0
M  V30 3472 C 336.778 1.70751 1.07363 0
M  V30 3473 C 337.091 0.481061 1.89592 0
M  V30 3474 O 338.297 0.530046 2.66276 0
M  V30 3475 C 336.753 3.01965 1.95818 0
M  V30 3476 C 336.361 4.31971 1.18764 0
M  V30 3477 C 338.105 3.28121 2.69327 0
M  V30 3478 C 336.012 5.54255 2.06289 0
M  V30 3479 H 334.942 0.636292 0.404535 0
M  V30 3480 H 337.593 1.80459 0.332681 0
M  V30 3481 H 335.975 2.86132 2.7376 0
M  V30 3482 H 337.149 4.5853 0.456849 0
M  V30 3483 H 335.464 4.12481 0.569946 0
M  V30 3484 H 338.061 4.16673 3.35094 0
M  V30 3485 H 338.404 2.45426 3.36261 0
M  V30 3486 H 338.937 3.44762 1.98454 0
M  V30 3487 H 335.676 6.39513 1.43885 0
M  V30 3488 H 335.196 5.31935 2.77138 0
M  V30 3489 H 336.875 5.90159 2.65182 0
M  V30 3490 N 337.007 -0.598083 1.45811 0
M  V30 3491 C 338.418 -1.18011 1.44673 0
M  V30 3492 C 338.769 -1.95378 0.179364 0
M  V30 3493 O 337.894 -2.04124 -0.718509 0
M  V30 3494 C 338.489 -2.14677 2.62105 0
M  V30 3495 C 337.048 -2.68236 2.64057 0
M  V30 3496 C 336.195 -1.43816 2.37091 0
M  V30 3497 H 339.146 -0.38686 1.53913 0
M  V30 3498 H 339.167 -2.97878 2.36746 0
M  V30 3499 H 338.679 -1.5834 3.5433 0
M  V30 3500 H 336.78 -3.28486 1.75864 0
M  V30 3501 H 336.893 -3.12021 3.63566 0
M  V30 3502 H 335.257 -1.731 1.86838 0
M  V30 3503 H 336.04 -0.893333 3.31473 0
M  V30 3504 N 338.485 -1.33259 -0.841409 0
M  V30 3505 C 339.733 -1.24326 -1.59334 0
M  V30 3506 C 340.054 0.191564 -1.94057 0
M  V30 3507 O 339.324 1.11967 -1.60749 0
M  V30 3508 H 337.904 -0.457174 -0.590763 0
M  V30 3509 H 340.566 -1.66947 -1.00571 0
M  V30 3510 H 339.662 -1.8352 -2.52442 0
M  V30 3511 N 339.963 1.05934 -1.16686 0
M  V30 3512 C 341.374 1.60263 -0.957745 0
M  V30 3513 C 341.725 1.89789 0.49745 0
M  V30 3514 O 340.85 1.67401 1.37135 0
M  V30 3515 C 341.445 2.91172 -1.73218 0
M  V30 3516 C 340.004 3.42188 -1.56794 0
M  V30 3517 C 339.151 2.16028 -1.73859 0
M  V30 3518 H 342.102 0.888392 -1.31504 0
M  V30 3519 H 342.123 3.60744 -1.21014 0
M  V30 3520 H 341.635 2.6965 -2.79124 0
M  V30 3521 H 339.736 3.68762 -0.533437 0
M  V30 3522 H 339.849 4.17273 -2.35414 0
M  V30 3523 H 338.213 2.26426 -1.16633 0
M  V30 3524 H 338.996 1.96985 -2.81161 0
M  V30 3525 N 341.441 0.965919 1.2453 0
M  V30 3526 C 342.391 0.465731 2.23193 0
M  V30 3527 C 343.375 -0.451277 1.54442 0
M  V30 3528 O 344.567 -0.282489 1.74731 0
M  V30 3529 C 341.696 -0.244511 3.42428 0
M  V30 3530 C 340.782 0.691222 4.18429 0
M  V30 3531 N 341.173 1.82771 4.71623 0
M  V30 3532 C 339.471 0.501649 4.4317 0
M  V30 3533 C 340.172 2.41285 5.29298 0
M  V30 3534 N 339.148 1.69819 5.16394 0
M  V30 3535 H 342.95 1.33291 2.61937 0
M  V30 3536 H 340.464 0.824789 1.39896 0
M  V30 3537 H 342.461 -0.620056 4.12263 0
M  V30 3538 H 341.121 -1.10815 3.05205 0
M  V30 3539 H 342.132 2.20929 4.68413 0
M  V30 3540 H 338.809 -0.318177 4.16286 0
M  V30 3541 H 340.199 3.37181 5.8117 0
M  V30 3542 N 342.919 -1.39368 0.735821 0
M  V30 3543 C 343.852 -2.28155 0.0451175 0
M  V30 3544 C 344.83 -1.44433 -0.746852 0
M  V30 3545 O 346.014 -1.73823 -0.729237 0
M  V30 3546 C 343.141 -3.253 -0.943266 0
M  V30 3547 C 342.187 -4.25826 -0.239685 0
M  V30 3548 S 343.02 -5.25166 1.04693 0
M  V30 3549 C 344.176 -6.2587 0.0611639 0
M  V30 3550 H 344.409 -2.86388 0.79807 0
M  V30 3551 H 341.942 -1.45104 0.527653 0
M  V30 3552 H 343.9 -3.81789 -1.50824 0
M  V30 3553 H 342.561 -2.66085 -1.66906 0
M  V30 3554 H 341.754 -4.94229 -0.987596 0
M  V30 3555 H 341.356 -3.73141 0.253274 0
M  V30 3556 H 343.648 -6.73007 -0.778941 0
M  V30 3557 H 344.591 -7.04508 0.712362 0
M  V30 3558 H 344.999 -5.63639 -0.311602 0
M  V30 3559 N 344.397 -0.483516 -1.5 0
M  V30 3560 C 345.643 0.0672592 -2.02688 0
M  V30 3561 C 345.976 1.38247 -1.36387 0
M  V30 3562 O 345.251 1.88131 -0.493675 0
M  V30 3563 C 345.534 0.238109 -3.59312 0
M  V30 3564 C 345.387 -1.099 -4.36168 0
M  V30 3565 C 346.706 0.986916 -4.28892 0
M  V30 3566 H 343.825 0.0229696 -0.736642 0
M  V30 3567 H 346.467 -0.631527 -1.79197 0
M  V30 3568 H 344.617 0.8333 -3.79458 0
M  V30 3569 H 346.289 -1.73172 -4.27562 0
M  V30 3570 H 344.532 -1.69261 -3.99416 0
M  V30 3571 H 345.203 -0.932954 -5.44059 0
M  V30 3572 H 347.679 0.482302 -4.13295 0
M  V30 3573 H 346.555 1.07527 -5.38265 0
M  V30 3574 H 346.816 2.0265 -3.92919 0
M  V30 3575 N 345.875 1.56104 -0.216619 0
M  V30 3576 C 346.805 2.23063 0.690296 0
M  V30 3577 C 347.786 1.20072 1.20485 0
M  V30 3578 O 348.971 1.48643 1.24976 0
M  V30 3579 C 346.101 2.90672 1.90072 0
M  V30 3580 C 345.055 4.00092 1.5202 0
M  V30 3581 C 344.381 4.54972 2.80899 0
M  V30 3582 C 345.681 5.17398 0.71391 0
M  V30 3583 H 347.375 2.99109 0.132038 0
M  V30 3584 H 344.921 1.43866 0.0620664 0
M  V30 3585 H 346.874 3.36204 2.54057 0
M  V30 3586 H 345.598 2.12066 2.48386 0
M  V30 3587 H 344.257 3.55283 0.903839 0
M  V30 3588 H 343.905 3.73102 3.37348 0
M  V30 3589 H 343.605 5.28817 2.56176 0
M  V30 3590 H 345.129 5.0322 3.45836 0
M  V30 3591 H 346.543 5.59342 1.25735 0
M  V30 3592 H 344.94 5.97444 0.563951 0
M  V30 3593 H 346.01 4.84088 -0.280527 0
M  V30 3594 N 347.353 -0.0568162 1.57498 0
M  V30 3595 C 348.599 -0.75422 1.88253 0
M  V30 3596 C 348.932 -1.76461 0.810865 0
M  V30 3597 O 348.207 -1.93691 -0.177259 0
M  V30 3598 C 348.49 -1.44878 3.2967 0
M  V30 3599 C 348.343 -0.453789 4.47505 0
M  V30 3600 C 349.662 -2.38994 3.69554 0
M  V30 3601 H 346.781 -0.272724 0.684683 0
M  V30 3602 H 349.423 -0.0172113 1.89992 0
M  V30 3603 H 347.573 -2.077 3.28318 0
M  V30 3604 H 349.245 0.170371 4.60985 0
M  V30 3605 H 347.488 0.229552 4.33192 0
M  V30 3606 H 348.159 -0.977699 5.43273 0
M  V30 3607 H 350.635 -1.86239 3.72095 0
M  V30 3608 H 349.511 -2.84587 4.69363 0
M  V30 3609 H 349.772 -3.24461 3.00296 0
M  V30 3610 N 348.832 -1.54138 -0.328536 0
M  V30 3611 C 350.243 -1.63395 -0.903272 0
M  V30 3612 C 350.594 -0.524828 -1.8905 0
M  V30 3613 O 349.719 0.343068 -2.13663 0
M  V30 3614 C 350.314 -2.9618 -1.64507 0
M  V30 3615 C 348.873 -3.0765 -2.1686 0
M  V30 3616 C 348.02 -2.58933 -0.992416 0
M  V30 3617 H 350.971 -1.58344 -0.106253 0
M  V30 3618 H 350.992 -2.86061 -2.50897 0
M  V30 3619 H 350.504 -3.76884 -0.926302 0
M  V30 3620 H 348.605 -2.31611 -2.91868 0
M  V30 3621 H 348.718 -4.1337 -2.42202 0
M  V30 3622 H 347.082 -2.14706 -1.37016 0
M  V30 3623 H 347.865 -3.42089 -0.288041 0
M  V30 3624 N 350.31 0.590341 -1.46126 0
M  V30 3625 C 351.257 1.69994 -1.56111 0
M  V30 3626 C 352.227 1.61065 -0.405867 0
M  V30 3627 O 353.412 1.8039 -0.621613 0
M  V30 3628 C 350.552 3.08326 -1.55013 0
M  V30 3629 C 349.665 3.27936 -2.81215 0
M  V30 3630 C 348.8 4.56473 -2.71673 0
M  V30 3631 C 347.839 4.694 -3.92849 0
M  V30 3632 N 346.976 5.89254 -3.81738 0
M  V30 3633 H 351.816 1.60797 -2.50895 0
M  V30 3634 H 349.353 0.783799 -1.24479 0
M  V30 3635 H 351.311 3.88383 -1.52362 0
M  V30 3636 H 349.941 3.16439 -0.637667 0
M  V30 3637 H 348.993 2.41536 -2.93879 0
M  V30 3638 H 350.305 3.33357 -3.71045 0
M  V30 3639 H 349.459 5.44748 -2.67085 0
M  V30 3640 H 348.198 4.53477 -1.7947 0
M  V30 3641 H 347.203 3.79544 -3.97777 0
M  V30 3642 H 348.428 4.7418 -4.86138 0
M  V30 3643 H 346.374 5.87271 -2.92317 0
M  V30 3644 H 346.291 5.95911 -4.65217 0
M  V30 3645 H 347.559 6.79981 -3.81112 0
M  V30 3646 N 351.788 1.33704 0.83433 0
M  V30 3647 C 353.013 1.28615 1.62705 0
M  V30 3648 C 353.438 -0.139242 1.87584 0
M  V30 3649 O 352.796 -1.09734 1.4432 0
M  V30 3650 C 352.844 2.07139 2.95171 0
M  V30 3651 O 351.948 1.4331 3.86699 0
M  V30 3652 H 351.289 0.44226 0.49528 0
M  V30 3653 H 353.819 1.76335 1.03766 0
M  V30 3654 H 353.829 2.18073 3.44831 0
M  V30 3655 H 352.504 3.10779 2.76386 0
M  V30 3656 H 351.081 1.4105 3.45195 0
M  V30 3657 N 353.266 -1.05314 1.17247 0
M  V30 3658 C 354.494 -1.81971 0.984593 0
M  V30 3659 C 354.909 -1.82929 -0.467166 0
M  V30 3660 O 354.266 -1.25564 -1.32438 0
M  V30 3661 C 354.317 -3.28143 1.51672 0
M  V30 3662 O 354.038 -3.27347 2.91163 0
M  V30 3663 C 355.539 -4.21493 1.37326 0
M  V30 3664 H 352.759 -0.573455 0.348411 0
M  V30 3665 H 355.303 -1.32808 1.55506 0
M  V30 3666 H 353.458 -3.74582 0.988302 0
M  V30 3667 H 353.872 -4.18824 3.15732 0
M  V30 3668 H 355.346 -5.22043 1.79375 0
M  V30 3669 H 355.823 -4.38031 0.320169 0
M  V30 3670 H 356.429 -3.80909 1.89178 0
M  V30 3671 N 354.744 -0.972509 -1.24016 0
M  V30 3672 C 355.674 -0.525548 -2.27509 0
M  V30 3673 C 356.655 0.437262 -1.64384 0
M  V30 3674 O 357.84 0.332343 -1.91335 0
M  V30 3675 C 354.97 0.180448 -3.46831 0
M  V30 3676 C 353.924 -0.698859 -4.22256 0
M  V30 3677 C 353.25 0.138903 -5.3452 0
M  V30 3678 C 354.55 -1.98582 -4.83076 0
M  V30 3679 H 356.244 -1.39058 -2.65148 0
M  V30 3680 H 353.79 -0.67009 -1.27459 0
M  V30 3681 H 355.743 0.504387 -4.18371 0
M  V30 3682 H 354.467 1.07987 -3.08231 0
M  V30 3683 H 353.126 -1.00614 -3.52523 0
M  V30 3684 H 352.774 1.03862 -4.9216 0
M  V30 3685 H 352.474 -0.446259 -5.85903 0
M  V30 3686 H 353.998 0.457404 -6.08884 0
M  V30 3687 H 355.412 -1.72715 -5.46665 0
M  V30 3688 H 353.809 -2.5181 -5.44713 0
M  V30 3689 H 354.879 -2.67769 -4.04262 0
M  V30 3690 N 356.222 1.38976 -0.743202 0
M  V30 3691 C 357.172 2.27843 -0.084513 0
M  V30 3692 C 358.156 1.44677 0.704094 0
M  V30 3693 O 359.348 1.67511 0.571755 0
M  V30 3694 C 356.477 3.33466 0.815781 0
M  V30 3695 C 355.563 4.24095 0.0208844 0
M  V30 3696 N 355.954 4.95609 -1.0102 0
M  V30 3697 C 354.252 4.45303 0.249293 0
M  V30 3698 C 354.953 5.62287 -1.49024 0
M  V30 3699 N 353.929 5.37571 -0.807377 0
M  V30 3700 H 357.731 2.80593 -0.87436 0
M  V30 3701 H 355.245 1.51755 -0.578283 0
M  V30 3702 H 357.242 3.96008 1.30321 0
M  V30 3703 H 355.902 2.82276 1.6047 0
M  V30 3704 H 356.913 4.98849 -1.39176 0
M  V30 3705 H 353.59 4.0504 1.01237 0
M  V30 3706 H 354.98 6.29519 -2.34853 0
M  V30 3707 N 357.7 0.491464 1.49741 0
M  V30 3708 C 358.648 -0.305837 2.30581 0
M  V30 3709 C 359.642 -0.971642 1.38764 0
M  V30 3710 O 360.848 -0.90042 1.5586 0
M  V30 3711 H 357.223 -0.117482 0.742767 0
M  V30 3712 H 359.194 0.396093 2.95759 0
M  V30 3713 C 357.943 -1.36319 3.19863 0
M  V30 3714 H 357.266 -0.860258 3.90435 0
M  V30 3715 H 358.706 -1.89323 3.79385 0
M  V30 3716 C 357.165 -2.37621 2.38826 0
M  V30 3717 O 357.695 -3.43311 2.08567 0
M  V30 3718 N 355.901 -2.09849 2.01026 0
M  V30 3719 H 355.448 -1.23922 2.25834 0
M  V30 3720 H 355.406 -2.77859 1.47112 0
M  V30 3721 N 359.178 -1.55987 0.224894 0
M  V30 3722 C 360.424 -1.99433 -0.39973 0
M  V30 3723 C 360.779 -1.11004 -1.57149 0
M  V30 3724 O 360.072 -0.160725 -1.90925 0
M  V30 3725 C 360.266 -3.46394 -0.880106 0
M  V30 3726 C 360.095 -4.4904 0.243565 0
M  V30 3727 C 358.865 -5.00272 0.711056 0
M  V30 3728 C 361.063 -5.03195 1.06299 0
M  V30 3729 N 359.045 -5.86628 1.80944 0
M  V30 3730 C 360.416 -5.86508 2.01017 0
M  V30 3731 C 362.471 -4.8555 1.10205 0
M  V30 3732 C 361.174 -6.54062 2.99324 0
M  V30 3733 C 363.2 -5.53866 2.07332 0
M  V30 3734 C 362.562 -6.3695 3.00789 0
M  V30 3735 H 358.661 -0.773815 -0.112847 0
M  V30 3736 H 361.245 -1.91754 0.337432 0
M  V30 3737 H 359.416 -3.54515 -1.58662 0
M  V30 3738 H 361.148 -3.76752 -1.47783 0
M  V30 3739 H 357.903 -4.72655 0.29906 0
M  V30 3740 H 358.327 -6.34507 2.36073 0
M  V30 3741 H 362.969 -4.20966 0.39343 0
M  V30 3742 H 360.687 -7.17827 3.71147 0
M  V30 3743 H 364.273 -5.42178 2.11032 0
M  V30 3744 H 363.153 -6.8888 3.74718 0
M  V30 3745 N 360.656 0.0484629 -1.57525 0
M  V30 3746 C 361.589 1.08755 -2.00618 0
M  V30 3747 C 362.567 1.36272 -0.887058 0
M  V30 3748 O 363.751 1.49255 -1.15131 0
M  V30 3749 C 360.878 2.42675 -2.36277 0
M  V30 3750 C 359.924 2.31142 -3.58435 0
M  V30 3751 S 360.757 1.68326 -5.08357 0
M  V30 3752 C 361.913 3.03776 -5.47239 0
M  V30 3753 H 362.146 0.720415 -2.88439 0
M  V30 3754 H 359.679 0.257801 -1.52233 0
M  V30 3755 H 361.637 3.19699 -2.57494 0
M  V30 3756 H 360.298 2.76541 -1.48942 0
M  V30 3757 H 359.491 3.29957 -3.80978 0
M  V30 3758 H 359.093 1.62258 -3.36969 0
M  V30 3759 H 361.385 4.00106 -5.46737 0
M  V30 3760 H 362.328 2.85988 -6.47778 0
M  V30 3761 H 362.736 3.05456 -4.74718 0
M  V30 3762 N 362.134 1.5431 0.320358 0
M  V30 3763 C 363.359 1.76954 1.08175 0
M  V30 3764 C 363.784 0.518193 1.80821 0
M  V30 3765 O 363.142 -0.530411 1.73368 0
M  V30 3766 C 363.19 2.96451 2.05303 0
M  V30 3767 O 362.294 2.68221 3.13259 0
M  V30 3768 H 361.635 0.586275 0.311733 0
M  V30 3769 H 364.165 2.01342 0.363676 0
M  V30 3770 H 364.175 3.23887 2.48116 0
M  V30 3771 H 362.85 3.87196 1.51829 0
M  V30 3772 H 361.427 2.51744 2.75099 0
M  V30 3773 N 363.613 -0.582584 1.46437 0
M  V30 3774 C 364.523 -1.71949 1.59595 0
M  V30 3775 C 365.539 -1.67264 0.479443 0
M  V30 3776 O 366.715 -1.87171 0.743579 0
M  V30 3777 C 363.78 -3.08452 1.58298 0
M  V30 3778 C 362.841 -3.244 2.81182 0
M  V30 3779 C 362.074 -4.54391 2.79937 0
M  V30 3780 O 362.297 -5.38287 1.8869 0
M  V30 3781 O 361.231 -4.73588 3.71481 0
M  V30 3782 H 365.057 -1.63795 2.55744 0
M  V30 3783 H 362.642 -0.749643 1.29231 0
M  V30 3784 H 364.524 -3.89732 1.60271 0
M  V30 3785 H 363.199 -3.17043 0.653094 0
M  V30 3786 H 362.106 -2.42613 2.84763 0
M  V30 3787 H 363.439 -3.20699 3.7338 0
M  V30 3788 N 365.091 -1.34144 -0.827227 0
M  V30 3789 C 366.338 -1.26258 -1.58319 0
M  V30 3790 C 366.666 0.168595 -1.93768 0
M  V30 3791 O 365.921 1.12877 -1.59866 0
M  V30 3792 C 366.22 -2.09464 -2.89585 0
M  V30 3793 C 365.886 -3.58521 -2.73448 0
M  V30 3794 C 364.548 -3.99155 -2.68754 0
M  V30 3795 C 366.9 -4.53189 -2.57428 0
M  V30 3796 C 364.228 -5.32656 -2.45957 0
M  V30 3797 C 366.58 -5.86864 -2.36163 0
M  V30 3798 C 365.244 -6.26667 -2.29879 0
M  V30 3799 H 364.514 -0.462013 -0.579332 0
M  V30 3800 H 367.161 -1.65845 -0.95748 0
M  V30 3801 H 365.466 -1.62692 -3.56425 0
M  V30 3802 H 367.163 -2.00712 -3.47154 0
M  V30 3803 H 363.753 -3.26264 -2.77939 0
M  V30 3804 H 367.937 -4.22696 -2.60081 0
M  V30 3805 H 363.193 -5.62519 -2.39546 0
M  V30 3806 H 367.367 -6.59813 -2.22754 0
M  V30 3807 H 364.994 -7.30049 -2.11975 0
M  V30 3808 N 366.569 1.04691 -1.17803 0
M  V30 3809 C 367.516 2.12557 -0.899343 0
M  V30 3810 C 368.486 1.65339 0.158771 0
M  V30 3811 O 369.671 1.90789 0.0204797 0
M  V30 3812 C 366.811 3.42481 -0.424315 0
M  V30 3813 C 365.924 4.03346 -1.54713 0
M  V30 3814 C 365.059 5.21208 -1.02546 0
M  V30 3815 C 364.098 5.74089 -2.12339 0
M  V30 3816 N 363.235 6.83247 -1.61612 0
M  V30 3817 H 368.075 2.35734 -1.823 0
M  V30 3818 H 365.612 1.1564 -0.909159 0
M  V30 3819 H 367.57 4.16996 -0.130421 0
M  V30 3820 H 366.2 3.19471 0.462377 0
M  V30 3821 H 365.252 3.2622 -1.95664 0
M  V30 3822 H 366.564 4.38628 -2.37501 0
M  V30 3823 H 365.718 6.02812 -0.685718 0
M  V30 3824 H 364.457 4.87414 -0.167084 0
M  V30 3825 H 363.462 4.91111 -2.47165 0
M  V30 3826 H 364.687 6.0993 -2.98601 0
M  V30 3827 H 362.633 6.5134 -0.780533 0
M  V30 3828 H 362.55 7.17559 -2.38003 0
M  V30 3829 H 363.818 7.68491 -1.30545 0
M  V30 3830 N 368.047 0.979072 1.23499 0
M  V30 3831 C 369.463 0.687475 1.44034 0
M  V30 3832 C 369.663 -0.746801 1.8715 0
M  V30 3833 O 368.719 -1.51939 2.0167 0
M  V30 3834 C 370.032 1.68127 2.49307 0
M  V30 3835 C 371.58 1.69516 2.63122 0
M  V30 3836 C 372.055 2.67723 3.71603 0
M  V30 3837 N 373.546 2.66233 3.79044 0
M  V30 3838 C 374.281 3.38891 4.62537 0
M  V30 3839 N 373.777 4.21103 5.50131 0
M  V30 3840 N 375.57 3.27661 4.56721 0
M  V30 3841 H 367.721 1.90559 0.938135 0
M  V30 3842 H 369.984 0.821051 0.473897 0
M  V30 3843 H 369.69 2.70693 2.2454 0
M  V30 3844 H 369.564 1.46306 3.4767 0
M  V30 3845 H 371.951 0.676561 2.8724 0
M  V30 3846 H 372.032 1.95404 1.65079 0
M  V30 3847 H 371.676 3.69724 3.48233 0
M  V30 3848 H 371.606 2.39111 4.69184 0
M  V30 3849 H 374.097 2.06568 3.16446 0
M  V30 3850 H 374.41 4.73403 6.10827 0
M  V30 3851 H 372.755 4.25195 5.49759 0
M  V30 3852 H 375.946 2.62887 3.87309 0
M  V30 3853 H 376.119 3.84547 5.21562 0
M  V30 3854 N 369.525 -1.3858 0.750561 0
M  V30 3855 C 370.771 -2.0095 0.31477 0
M  V30 3856 C 371.126 -1.58509 -1.09053 0
M  V30 3857 O 370.419 -0.8112 -1.7358 0
M  V30 3858 C 370.613 -3.55455 0.372373 0
M  V30 3859 C 370.442 -4.12898 1.78173 0
M  V30 3860 C 369.212 -4.44797 2.39757 0
M  V30 3861 C 371.41 -4.35366 2.7379 0
M  V30 3862 N 369.392 -4.87831 3.72685 0
M  V30 3863 C 370.763 -4.80775 3.91478 0
M  V30 3864 C 372.818 -4.1746 2.71351 0
M  V30 3865 C 371.521 -5.10155 5.07084 0
M  V30 3866 C 373.547 -4.47963 3.86113 0
M  V30 3867 C 372.909 -4.93593 5.02539 0
M  V30 3868 H 369.008 -0.765083 0.161776 0
M  V30 3869 H 371.592 -1.68246 0.979867 0
M  V30 3870 H 369.763 -3.87512 -0.26244 0
M  V30 3871 H 371.495 -4.04614 -0.0834479 0
M  V30 3872 H 368.25 -4.33135 1.91548 0
M  V30 3873 H 368.674 -5.13685 4.40972 0
M  V30 3874 H 373.316 -3.81372 1.82524 0
M  V30 3875 H 371.034 -5.45141 5.96529 0
M  V30 3876 H 374.62 -4.35717 3.85542 0
M  V30 3877 H 373.5 -5.16746 5.89867 0
M  V30 3878 N 371.003 -0.499398 -1.49478 0
M  V30 3879 C 372.249 0.0457576 -2.02748 0
M  V30 3880 C 372.582 1.36793 -1.37846 0
M  V30 3881 O 371.857 1.87596 -0.513601 0
M  V30 3882 C 372.14 0.199986 -3.59544 0
M  V30 3883 C 371.993 -1.1452 -4.34977 0
M  V30 3884 C 373.312 0.94137 -4.29914 0
M  V30 3885 H 370.431 0.0151552 -0.736844 0
M  V30 3886 H 373.073 -0.650498 -1.78518 0
M  V30 3887 H 371.223 0.793007 -3.8032 0
M  V30 3888 H 372.895 -1.77697 -4.25701 0
M  V30 3889 H 371.138 -1.73488 -3.97598 0
M  V30 3890 H 371.809 -0.990607 -5.43039 0
M  V30 3891 H 374.285 0.43844 -4.13784 0
M  V30 3892 H 373.161 1.01812 -5.39375 0
M  V30 3893 H 373.422 1.98471 -3.95046 0
M  V30 3894 N 372.481 1.55866 -0.233164 0
M  V30 3895 C 373.892 1.847 0.272554 0
M  V30 3896 C 374.243 1.15477 1.58617 0
M  V30 3897 O 373.368 0.42841 2.12117 0
M  V30 3898 C 373.963 3.35071 0.501299 0
M  V30 3899 C 372.522 3.6418 0.951304 0
M  V30 3900 C 371.669 2.77292 0.0208209 0
M  V30 3901 H 374.62 1.52005 -0.456074 0
M  V30 3902 H 374.641 3.55906 1.34577 0
M  V30 3903 H 374.153 3.85424 -0.454936 0
M  V30 3904 H 372.254 3.19293 1.92049 0
M  V30 3905 H 372.367 4.72071 0.817675 0
M  V30 3906 H 370.731 2.49131 0.529723 0
M  V30 3907 H 371.514 3.30448 -0.93054 0
M  V30 3908 N 373.959 -0.0401083 1.57549 0
M  V30 3909 C 375.187 -0.745196 1.93014 0
M  V30 3910 C 375.602 -1.6948 0.831984 0
M  V30 3911 O 374.959 -1.81482 -0.192463 0
M  V30 3912 C 375.01 -1.51176 3.28372 0
M  V30 3913 O 374.731 -0.600284 4.33968 0
M  V30 3914 C 376.232 -2.315 3.78051 0
M  V30 3915 H 373.452 -0.210088 0.637263 0
M  V30 3916 H 375.996 -0.000924689 2.045 0
M  V30 3917 H 374.151 -2.20801 3.18317 0
M  V30 3918 H 374.565 -1.13669 5.12035 0
M  V30 3919 H 376.039 -2.80697 4.75303 0
M  V30 3920 H 376.516 -3.12436 3.08675 0
M  V30 3921 H 377.122 -1.66971 3.91153 0
M  V30 3922 N 375.437 -1.54477 -0.31217 0
M  V30 3923 C 376.367 -1.87652 -1.38957 0
M  V30 3924 C 377.348 -0.734358 -1.53431 0
M  V30 3925 O 378.533 -0.98911 -1.67123 0
M  V30 3926 C 375.663 -2.11396 -2.75552 0
M  V30 3927 C 374.617 -3.27243 -2.75855 0
M  V30 3928 C 373.943 -3.36382 -4.15633 0
M  V30 3929 C 375.243 -4.64622 -2.38587 0
M  V30 3930 H 376.937 -2.77887 -1.11442 0
M  V30 3931 H 374.483 -1.33707 -0.534655 0
M  V30 3932 H 376.436 -2.33189 -3.51 0
M  V30 3933 H 375.16 -1.17921 -3.04569 0
M  V30 3934 H 373.819 -3.05356 -2.02863 0
M  V30 3935 H 373.467 -2.40445 -4.41809 0
M  V30 3936 H 373.167 -4.14249 -4.1674 0
M  V30 3937 H 374.691 -3.60422 -4.92877 0
M  V30 3938 H 376.105 -4.86219 -3.03749 0
M  V30 3939 H 374.502 -5.45121 -2.50925 0
M  V30 3940 H 375.572 -4.66097 -1.33723 0
M  V30 3941 N 376.915 0.57481 -1.46744 0
M  V30 3942 C 378.331 0.898981 -1.31873 0
M  V30 3943 C 378.531 1.99313 -0.29605 0
M  V30 3944 O 377.587 2.50728 0.298621 0
M  V30 3945 C 378.9 1.30886 -2.7072 0
M  V30 3946 C 380.448 1.42127 -2.78871 0
M  V30 3947 C 380.923 1.86478 -4.18318 0
M  V30 3948 N 382.414 1.93658 -4.20774 0
M  V30 3949 C 383.149 2.29267 -5.2557 0
M  V30 3950 N 382.645 2.63612 -6.40688 0
M  V30 3951 N 384.438 2.29889 -5.1294 0
M  V30 3952 H 376.589 -0.147839 -2.11885 0
M  V30 3953 H 378.852 -0.00347013 -0.947994 0
M  V30 3954 H 378.558 0.578853 -3.46904 0
M  V30 3955 H 378.432 2.26874 -3.01343 0
M  V30 3956 H 380.819 2.14213 -2.0297 0
M  V30 3957 H 380.9 0.443705 -2.51922 0
M  V30 3958 H 380.544 1.14968 -4.94717 0
M  V30 3959 H 380.474 2.85207 -4.42679 0
M  V30 3960 H 382.965 1.69574 -3.37718 0
M  V30 3961 H 383.278 2.89759 -7.16421 0
M  V30 3962 H 381.623 2.61232 -6.44036 0
M  V30 3963 H 384.814 2.02485 -4.22039 0
M  V30 3964 H 384.987 2.57312 -5.94722 0
M  V30 3965 N 378.394 1.34581 0.820102 0
M  V30 3966 C 379.619 1.30333 1.61332 0
M  V30 3967 C 380.044 -0.119339 1.87721 0
M  V30 3968 O 379.402 -1.08197 1.45475 0
M  V30 3969 C 379.45 2.10258 2.92957 0
M  V30 3970 O 378.554 1.47404 3.85157 0
M  V30 3971 H 377.895 0.447488 0.490561 0
M  V30 3972 H 380.425 1.77425 1.01889 0
M  V30 3973 H 380.435 2.21718 3.42498 0
M  V30 3974 H 379.11 3.13693 2.73074 0
M  V30 3975 H 377.687 1.44703 3.43679 0
M  V30 3976 N 379.872 -1.04064 1.18357 0
M  V30 3977 C 381.118 -1.77528 0.980397 0
M  V30 3978 C 381.451 -1.87948 -0.48879 0
M  V30 3979 O 380.726 -1.3876 -1.36293 0
M  V30 3980 C 381.009 -3.20797 1.63588 0
M  V30 3981 C 380.862 -3.1832 3.17793 0
M  V30 3982 C 382.181 -4.18911 1.34914 0
M  V30 3983 H 379.3 -0.644443 0.357578 0
M  V30 3984 H 381.942 -1.2156 1.46024 0
M  V30 3985 H 380.092 -3.68586 1.22788 0
M  V30 3986 H 381.764 -2.78521 3.67728 0
M  V30 3987 H 380.007 -2.56351 3.49952 0
M  V30 3988 H 380.678 -4.19489 3.58794 0
M  V30 3989 H 383.154 -3.7967 1.70265 0
M  V30 3990 H 382.03 -5.17374 1.83346 0
M  V30 3991 H 382.291 -4.41262 0.272027 0
M  V30 3992 N 381.35 -0.985608 -1.22978 0
M  V30 3993 C 382.59 -0.665487 -1.93263 0
M  V30 3994 C 382.954 0.78706 -1.75127 0
M  V30 3995 O 384.155 1.21826 -2.39608 0
M  V30 3996 C 382.426 -1.0515 -3.41582 0
M  V30 3997 S 383.985 -0.848637 -4.30516 0
M  V30 3998 H 380.803 -0.24355 -0.667985 0
M  V30 3999 H 383.405 -1.26635 -1.48942 0
M  V30 4000 H 382.109 -2.10517 -3.52293 0
M  V30 4001 H 381.64 -0.442134 -3.90908 0
M  V30 4002 H 383.655 0.264717 -4.95493 0
M  V30 4003 N 382.828 1.3818 -0.7579 0
M  V30 4004 C 383.758 2.33027 -0.148597 0
M  V30 4005 C 384.739 1.55085 0.69875 0
M  V30 4006 O 385.924 1.83384 0.639053 0
M  V30 4007 C 383.054 3.3928 0.742034 0
M  V30 4008 C 382.008 4.28 -0.00291946 0
M  V30 4009 C 381.334 5.25146 1.00625 0
M  V30 4010 C 382.634 5.08938 -1.17385 0
M  V30 4011 H 384.328 2.84231 -0.940909 0
M  V30 4012 H 381.874 1.36659 -0.453908 0
M  V30 4013 H 383.827 4.046 1.17799 0
M  V30 4014 H 382.551 2.86569 1.56671 0
M  V30 4015 H 381.21 3.64192 -0.419504 0
M  V30 4016 H 380.858 4.68721 1.8251 0
M  V30 4017 H 380.558 5.85361 0.512428 0
M  V30 4018 H 382.082 5.93342 1.44143 0
M  V30 4019 H 383.496 5.67474 -0.815224 0
M  V30 4020 H 381.893 5.7841 -1.59882 0
M  V30 4021 H 382.963 4.42424 -1.98468 0
M  V30 4022 N 384.306 0.507319 1.49211 0
M  V30 4023 C 385.555 -0.0368315 2.01666 0
M  V30 4024 C 385.868 -1.37459 1.39156 0
M  V30 4025 O 387.074 -2.00579 1.82976 0
M  V30 4026 C 385.53 -0.116089 3.59713 0
M  V30 4027 C 385.138 1.2154 4.31198 0
M  V30 4028 C 386.882 -0.610268 4.2009 0
M  V30 4029 C 384.789 1.09796 5.81119 0
M  V30 4030 H 383.719 -0.0175376 0.753796 0
M  V30 4031 H 386.37 0.647691 1.71689 0
M  V30 4032 H 384.752 -0.8652 3.86433 0
M  V30 4033 H 385.926 1.9783 4.16173 0
M  V30 4034 H 384.241 1.64352 3.82593 0
M  V30 4035 H 386.838 -0.715742 5.29888 0
M  V30 4036 H 387.181 -1.61064 3.8388 0
M  V30 4037 H 387.714 0.0824916 3.97714 0
M  V30 4038 H 384.453 2.0728 6.21864 0
M  V30 4039 H 383.973 0.376058 5.9862 0
M  V30 4040 H 385.652 0.779281 6.4229 0
M  V30 4041 N 385.784 -1.5574 0.241426 0
M  V30 4042 C 387.032 -1.98417 -0.384075 0
M  V30 4043 C 387.353 -1.13078 -1.58866 0
M  V30 4044 O 386.623 -0.212312 -1.94746 0
M  V30 4045 H 385.203 -0.732813 -0.144894 0
M  V30 4046 H 387.865 -1.9193 0.338943 0
M  V30 4047 H 386.961 -3.04219 -0.696939 0
M  V30 4048 N 387.262 0.0317525 -1.57568 0
M  V30 4049 C 388.539 0.758366 -1.803 0
M  V30 4050 C 388.919 1.93718 -0.838845 0
M  V30 4051 O 388.267 2.28187 0.119571 0
M  V30 4052 C 388.477 1.19392 -3.27943 0
M  V30 4053 C 389.825 1.61094 -3.92854 0
M  V30 4054 O 390.849 1.28857 -3.32076 0
M  V30 4055 O 389.708 2.20918 -4.99858 0
M  V30 4056 H 386.802 0.366514 -0.741348 0
M  V30 4057 H 389.348 0.00873765 -1.69698 0
M  V30 4058 H 388.12 0.352275 -3.89711 0
M  V30 4059 H 387.743 2.00365 -3.43424 0
M  V30 4060 N 388.74 1.54641 0.303973 0
M  V30 4061 C 389.687 1.85386 1.37479 0
M  V30 4062 C 390.657 0.702528 1.50512 0
M  V30 4063 O 391.842 0.950867 1.65418 0
M  V30 4064 C 388.982 2.10413 2.73533 0
M  V30 4065 C 388.095 3.38049 2.68974 0
M  V30 4066 C 387.23 3.52934 3.97002 0
M  V30 4067 C 386.269 4.74373 3.86829 0
M  V30 4068 N 385.406 4.8608 5.06627 0
M  V30 4069 H 390.246 2.76732 1.1056 0
M  V30 4070 H 387.783 1.37034 0.534805 0
M  V30 4071 H 389.741 2.22919 3.52652 0
M  V30 4072 H 388.371 1.22338 2.98719 0
M  V30 4073 H 387.423 3.3418 1.81736 0
M  V30 4074 H 388.735 4.27288 2.57346 0
M  V30 4075 H 387.889 3.65088 4.84557 0
M  V30 4076 H 386.628 2.61824 4.1146 0
M  V30 4077 H 385.633 4.62255 2.97658 0
M  V30 4078 H 386.858 5.66888 3.73918 0
M  V30 4079 H 384.804 3.97891 5.21554 0
M  V30 4080 H 384.721 5.69315 4.9741 0
M  V30 4081 H 385.989 5.02587 5.95841 0
M  V30 4082 N 390.218 -0.567019 1.47046 0
M  V30 4083 C 391.128 -1.70247 1.6141 0
M  V30 4084 C 392.144 -1.66746 0.497157 0
M  V30 4085 O 393.32 -1.86371 0.763389 0
M  V30 4086 C 390.385 -3.06756 1.61561 0
M  V30 4087 C 389.446 -3.21399 2.84607 0
M  V30 4088 C 388.679 -4.51396 2.84741 0
M  V30 4089 O 388.902 -5.36255 1.94388 0
M  V30 4090 O 387.836 -4.69621 3.76483 0
M  V30 4091 H 391.662 -1.61073 2.57467 0
M  V30 4092 H 389.247 -0.735894 1.30019 0
M  V30 4093 H 391.129 -3.8801 1.64396 0
M  V30 4094 H 389.804 -3.16333 0.686684 0
M  V30 4095 H 388.711 -2.39579 2.8732 0
M  V30 4096 H 390.044 -3.16721 3.76761 0
M  V30 4097 N 391.696 -1.35014 -0.812953 0
M  V30 4098 C 392.628 -1.23262 -1.93233 0
M  V30 4099 C 393.641 -0.157371 -1.62038 0
M  V30 4100 O 394.83 -0.410096 -1.73725 0
M  V30 4101 C 391.93 -0.87392 -3.27438 0
M  V30 4102 C 391.103 -2.04622 -3.86586 0
M  V30 4103 C 390.162 -1.66432 -4.99186 0
M  V30 4104 O 389.188 -2.38222 -5.16951 0
M  V30 4105 N 390.39 -0.584248 -5.77552 0
M  V30 4106 H 393.155 -2.19699 -2.03844 0
M  V30 4107 H 390.716 -1.281 -0.99005 0
M  V30 4108 H 392.708 -0.600039 -4.00227 0
M  V30 4109 H 391.278 0.00057392 -3.126 0
M  V30 4110 H 390.498 -2.48427 -3.06068 0
M  V30 4111 H 391.786 -2.82999 -4.22835 0
M  V30 4112 H 391.184 0.0123526 -5.65699 0
M  V30 4113 H 389.741 -0.37013 -6.50748 0
M  V30 4114 N 393.175 1.03435 -1.18907 0
M  V30 4115 C 394.591 1.28973 -0.940111 0
M  V30 4116 C 394.791 1.97676 0.390691 0
M  V30 4117 O 393.847 2.26127 1.12352 0
M  V30 4118 C 395.16 2.14221 -2.11021 0
M  V30 4119 C 396.708 2.27547 -2.14922 0
M  V30 4120 C 397.183 3.16164 -3.31367 0
M  V30 4121 N 398.674 3.23752 -3.31269 0
M  V30 4122 C 399.409 3.92495 -4.18014 0
M  V30 4123 N 398.905 4.63515 -5.14904 0
M  V30 4124 N 400.698 3.88838 -4.05908 0
M  V30 4125 H 392.849 0.57252 -2.04538 0
M  V30 4126 H 395.112 0.315184 -0.894071 0
M  V30 4127 H 394.818 1.71054 -3.073 0
M  V30 4128 H 394.692 3.14919 -2.0762 0
M  V30 4129 H 397.079 2.69947 -1.19217 0
M  V30 4130 H 397.16 1.26418 -2.22378 0
M  V30 4131 H 396.804 2.74474 -4.27348 0
M  V30 4132 H 396.734 4.17339 -3.21148 0
M  V30 4133 H 399.225 2.73167 -2.61129 0
M  V30 4134 H 399.538 5.13583 -5.77453 0
M  V30 4135 H 397.883 4.62398 -5.18857 0
M  V30 4136 H 401.074 3.32491 -3.29495 0
M  V30 4137 H 401.247 4.4214 -4.73726 0
M  V30 4138 N 394.653 0.992116 1.22453 0
M  V30 4139 C 395.616 0.546883 2.2258 0
M  V30 4140 C 396.616 -0.369829 1.56489 0
M  V30 4141 O 397.806 -0.161896 1.73446 0
M  V30 4142 C 394.938 -0.204659 3.40285 0
M  V30 4143 H 396.131 1.43234 2.63484 0
M  V30 4144 H 393.684 0.779239 1.3549 0
M  V30 4145 H 394.419 -1.10614 3.04853 0
M  V30 4146 H 394.204 0.45354 3.89468 0
M  V30 4147 H 395.694 -0.504358 4.14543 0
M  V30 4148 N 396.131 -1.37776 0.765217 0
M  V30 4149 C 397.094 -2.28686 0.153416 0
M  V30 4150 C 398.094 -1.47727 -0.635081 0
M  V30 4151 O 399.284 -1.68027 -0.459632 0
M  V30 4152 C 396.416 -3.31608 -0.790495 0
M  V30 4153 H 397.609 -2.84297 0.954723 0
M  V30 4154 H 395.162 -1.46932 0.53299 0
M  V30 4155 H 395.897 -2.81109 -1.61705 0
M  V30 4156 H 395.682 -3.9144 -0.227348 0
M  V30 4157 H 397.172 -3.99559 -1.21419 0
M  V30 4158 N 397.609 -0.515225 -1.4894 0
M  V30 4159 C 398.856 0.024215 -2.02486 0
M  V30 4160 C 399.184 1.35671 -1.39368 0
M  V30 4161 O 398.439 1.88566 -0.523574 0
M  V30 4162 C 398.738 0.210595 -3.56779 0
M  V30 4163 C 398.404 -1.04569 -4.38607 0
M  V30 4164 C 397.066 -1.39002 -4.60686 0
M  V30 4165 C 399.418 -1.88008 -4.86109 0
M  V30 4166 C 396.746 -2.568 -5.27514 0
M  V30 4167 C 399.098 -3.04972 -5.54234 0
M  V30 4168 C 397.762 -3.39768 -5.74555 0
M  V30 4169 H 397.032 0.00886088 -0.740947 0
M  V30 4170 H 399.679 -0.678263 -1.79086 0
M  V30 4171 H 397.984 0.99572 -3.78936 0
M  V30 4172 H 399.681 0.642659 -3.95817 0
M  V30 4173 H 396.271 -0.767497 -4.21672 0
M  V30 4174 H 400.455 -1.62719 -4.68867 0
M  V30 4175 H 395.711 -2.8398 -5.41447 0
M  V30 4176 H 399.885 -3.69943 -5.90013 0
M  V30 4177 H 397.512 -4.31148 -6.26112 0
M  V30 4178 N 399.087 1.5561 -0.249682 0
M  V30 4179 C 400.333 1.99306 0.374841 0
M  V30 4180 C 400.666 1.13767 1.57387 0
M  V30 4181 O 399.941 0.201711 1.93451 0
M  V30 4182 C 400.224 3.51507 0.781986 0
M  V30 4183 C 400.077 4.4781 -0.422629 0
M  V30 4184 C 401.396 4.08884 1.62793 0
M  V30 4185 H 398.515 0.724572 0.134773 0
M  V30 4186 H 401.157 1.86719 -0.351549 0
M  V30 4187 H 399.307 3.62363 1.4009 0
M  V30 4188 H 400.979 4.48931 -1.06108 0
M  V30 4189 H 399.222 4.20518 -1.06524 0
M  V30 4190 H 399.893 5.51919 -0.0943766 0
M  V30 4191 H 402.369 4.01147 1.10547 0
M  V30 4192 H 401.245 5.1564 1.88166 0
M  V30 4193 H 401.506 3.57515 2.60068 0
M  V30 4194 N 400.565 -0.0233959 1.57583 0
M  V30 4195 C 401.981 -0.379134 1.55031 0
M  V30 4196 C 402.181 -1.76255 0.976548 0
M  V30 4197 O 401.237 -2.45266 0.600078 0
M  V30 4198 C 402.55 -0.275792 2.99433 0
M  V30 4199 C 404.098 -0.352458 3.11009 0
M  V30 4200 C 404.573 -0.278501 4.57152 0
M  V30 4201 N 406.064 -0.337123 4.61972 0
M  V30 4202 C 406.799 -0.302876 5.726 0
M  V30 4203 N 406.295 -0.220589 6.92449 0
M  V30 4204 N 408.088 -0.353023 5.6099 0
M  V30 4205 H 400.239 0.881869 1.93227 0
M  V30 4206 H 402.502 0.335867 0.886509 0
M  V30 4207 H 402.208 0.675108 3.4516 0
M  V30 4208 H 402.082 -1.06721 3.61788 0
M  V30 4209 H 404.469 -1.29379 2.65226 0
M  V30 4210 H 404.55 0.468409 2.51475 0
M  V30 4211 H 404.194 0.659189 5.03604 0
M  V30 4212 H 404.124 -1.11755 5.14605 0
M  V30 4213 H 406.615 -0.403002 3.75745 0
M  V30 4214 H 406.928 -0.199713 7.72542 0
M  V30 4215 H 405.273 -0.186555 6.9475 0
M  V30 4216 H 408.464 -0.415339 4.66254 0
M  V30 4217 H 408.637 -0.322866 6.47195 0
M  V30 4218 N 402.043 -1.548 -0.295768 0
M  V30 4219 C 403.32 -1.65014 -1.05023 0
M  V30 4220 C 403.7 -0.501805 -2.05049 0
M  V30 4221 O 403.048 0.500869 -2.22943 0
M  V30 4222 C 403.258 -3.03252 -1.72741 0
M  V30 4223 C 404.606 -3.60242 -2.24746 0
M  V30 4224 O 405.63 -3.05737 -1.82765 0
M  V30 4225 O 404.489 -4.55687 -3.01681 0
M  V30 4226 H 401.583 -0.669314 -0.485744 0
M  V30 4227 H 404.129 -1.67144 -0.293438 0
M  V30 4228 H 402.901 -3.7827 -1.00138 0
M  V30 4229 H 402.524 -3.04922 -2.55163 0
M  V30 4230 N 403.521 0.559213 -1.47345 0
M  V30 4231 C 404.767 1.31843 -1.54095 0
M  V30 4232 C 405.1 1.93149 -0.201726 0
M  V30 4233 O 404.375 1.77759 0.789428 0
M  V30 4234 C 404.658 2.43006 -2.65744 0
M  V30 4235 C 404.511 1.86581 -4.09277 0
M  V30 4236 C 405.83 3.44943 -2.73318 0
M  V30 4237 H 402.949 0.478012 -0.560957 0
M  V30 4238 H 405.591 0.625977 -1.79392 0
M  V30 4239 H 403.741 3.02072 -2.44305 0
M  V30 4240 H 405.413 1.31792 -4.42073 0
M  V30 4241 H 403.656 1.17268 -4.17649 0
M  V30 4242 H 404.327 2.66933 -4.83168 0
M  V30 4243 H 406.803 2.95793 -2.92653 0
M  V30 4244 H 405.679 4.20153 -3.53218 0
M  V30 4245 H 405.94 4.03665 -1.80296 0
M  V30 4246 N 404.999 1.35443 0.805782 0
M  V30 4247 C 405.929 1.31095 1.93226 0
M  V30 4248 C 406.91 0.185244 1.69088 0
M  V30 4249 O 408.095 0.380332 1.90439 0
M  V30 4250 C 405.225 1.08299 3.29983 0
M  V30 4251 C 404.179 2.17519 3.68605 0
M  V30 4252 C 403.505 1.79887 5.03532 0
M  V30 4253 C 404.805 3.5949 3.78898 0
M  V30 4254 H 406.499 2.25352 1.97122 0
M  V30 4255 H 404.045 1.0848 0.946996 0
M  V30 4256 H 405.998 1.03897 4.08391 0
M  V30 4257 H 404.722 0.104885 3.26432 0
M  V30 4258 H 403.381 2.2102 2.92482 0
M  V30 4259 H 403.029 0.80693 4.96485 0
M  V30 4260 H 402.729 2.53001 5.30344 0
M  V30 4261 H 404.253 1.77011 5.84379 0
M  V30 4262 H 405.667 3.58307 4.47536 0
M  V30 4263 H 404.064 4.31371 4.1718 0
M  V30 4264 H 405.134 3.95584 2.80431 0
M  V30 4265 N 406.477 -1.02803 1.19454 0
M  V30 4266 C 407.407 -2.12999 0.956758 0
M  V30 4267 C 408.388 -1.69743 -0.110188 0
M  V30 4268 O 409.573 -1.94148 0.0450038 0
M  V30 4269 C 406.703 -3.43746 0.495553 0
M  V30 4270 C 405.657 -4.00688 1.50443 0
M  V30 4271 C 404.983 -5.27067 0.900275 0
M  V30 4272 C 406.283 -4.35397 2.8849 0
M  V30 4273 H 407.977 -2.33148 1.87836 0
M  V30 4274 H 405.523 -1.12045 0.904539 0
M  V30 4275 H 407.476 -4.2021 0.316493 0
M  V30 4276 H 406.2 -3.23321 -0.461646 0
M  V30 4277 H 404.859 -3.2632 1.67065 0
M  V30 4278 H 404.507 -5.02959 -0.064503 0
M  V30 4279 H 404.207 -5.66127 1.57397 0
M  V30 4280 H 405.731 -6.06196 0.73203 0
M  V30 4281 H 407.145 -5.02795 2.75446 0
M  V30 4282 H 405.542 -4.85541 3.52661 0
M  V30 4283 H 406.612 -3.44662 3.41081 0
M  V30 4284 N 407.956 -0.998596 -1.21925 0
M  V30 4285 C 409.367 -0.711939 -1.72593 0
M  V30 4286 C 409.718 0.770842 -1.80423 0
M  V30 4287 O 408.843 1.60237 -1.4544 0
M  V30 4288 C 409.438 -1.28567 -3.13458 0
M  V30 4289 C 407.997 -1.04828 -3.61508 0
M  V30 4290 C 407.144 -1.4024 -2.39224 0
M  V30 4291 H 410.095 -1.17027 -1.07193 0
M  V30 4292 H 410.116 -0.667098 -3.74607 0
M  V30 4293 H 409.628 -2.36486 -3.07727 0
M  V30 4294 H 407.729 0.0140383 -3.72597 0
M  V30 4295 H 407.842 -1.71566 -4.47328 0
M  V30 4296 H 406.206 -0.821077 -2.41103 0
M  V30 4297 H 406.989 -2.49176 -2.36149 0
M  V30 4298 N 409.434 1.37368 -0.772513 0
M  V30 4299 C 410.682 1.99279 -0.336516 0
M  V30 4300 C 411.003 1.6163 1.09091 0
M  V30 4301 O 410.273 0.882109 1.74916 0
M  V30 4302 H 408.853 0.737063 -0.121435 0
M  V30 4303 H 411.515 1.67836 -0.990809 0
M  V30 4304 H 410.611 3.09332 -0.414763 0
M  V30 4305 N 410.912 0.523116 1.48665 0
M  V30 4306 C 411.822 -0.247406 2.33292 0
M  V30 4307 C 412.838 -0.945769 1.46052 0
M  V30 4308 O 414.014 -0.922253 1.79043 0
M  V30 4309 C 411.079 -1.28487 3.22012 0
M  V30 4310 C 410.14 -0.597592 4.2512 0
M  V30 4311 C 409.373 -1.58563 5.09601 0
M  V30 4312 O 409.596 -2.81763 4.95949 0
M  V30 4313 O 408.53 -1.12879 5.91221 0
M  V30 4314 H 412.356 0.445869 3.00409 0
M  V30 4315 H 409.941 0.284128 1.46673 0
M  V30 4316 H 411.823 -1.88459 3.7691 0
M  V30 4317 H 410.498 -1.96068 2.57564 0
M  V30 4318 H 409.405 0.0424407 3.74076 0
M  V30 4319 H 410.738 0.0361517 4.92187 0
M  V30 4320 N 412.39 -1.55475 0.257931 0
M  V30 4321 C 413.636 -2.00237 -0.357338 0
M  V30 4322 C 413.991 -1.14313 -1.54759 0
M  V30 4323 O 413.284 -0.201187 -1.90541 0
M  V30 4324 C 413.478 -3.48183 -0.806433 0
M  V30 4325 C 413.307 -4.48422 0.338758 0
M  V30 4326 C 412.077 -4.98651 0.817011 0
M  V30 4327 C 414.275 -5.00827 1.16949 0
M  V30 4328 N 412.257 -5.82658 1.93346 0
M  V30 4329 C 413.628 -5.82113 2.13413 0
M  V30 4330 C 415.683 -4.83104 1.2048 0
M  V30 4331 C 414.386 -6.47566 3.13131 0
M  V30 4332 C 416.412 -5.49343 2.19034 0
M  V30 4333 C 415.774 -6.30427 3.14232 0
M  V30 4334 H 411.873 -0.776034 -0.0964083 0
M  V30 4335 H 414.457 -1.90995 0.37803 0
M  V30 4336 H 412.628 -3.57801 -1.51107 0
M  V30 4337 H 414.36 -3.79802 -1.39758 0
M  V30 4338 H 411.115 -4.71914 0.39925 0
M  V30 4339 H 411.539 -6.29356 2.49478 0
M  V30 4340 H 416.181 -4.20036 0.482634 0
M  V30 4341 H 413.899 -7.09793 3.8629 0
M  V30 4342 H 417.485 -5.37579 2.22485 0
M  V30 4343 H 416.365 -6.80777 3.89246 0
M  V30 4344 N 413.868 0.0150385 -1.57593 0
M  V30 4345 C 415.145 0.7392 -1.81094 0
M  V30 4346 C 415.525 1.92817 -0.859344 0
M  V30 4347 O 414.873 2.28301 0.095362 0
M  V30 4348 C 415.083 1.15907 -3.29191 0
M  V30 4349 C 416.431 1.56918 -3.9454 0
M  V30 4350 O 417.455 1.25328 -3.33424 0
M  V30 4351 O 416.314 2.15604 -5.02173 0
M  V30 4352 H 413.408 0.358631 -0.745193 0
M  V30 4353 H 415.954 -0.00926156 -1.69697 0
M  V30 4354 H 414.726 0.310921 -3.90063 0
M  V30 4355 H 414.349 1.96711 -3.45529 0
M  V30 4356 N 415.346 1.54954 0.287554 0
M  V30 4357 C 416.592 1.75132 1.02257 0
M  V30 4358 C 416.925 0.542858 1.86458 0
M  V30 4359 O 416.2 -0.459856 1.88986 0
M  V30 4360 C 416.483 3.04812 1.91733 0
M  V30 4361 C 416.336 4.35985 1.10622 0
M  V30 4362 C 417.655 3.30438 2.90687 0
M  V30 4363 H 414.774 0.637194 0.370341 0
M  V30 4364 H 417.416 1.87678 0.296111 0
M  V30 4365 H 415.566 2.94247 2.53675 0
M  V30 4366 H 417.238 4.58487 0.508636 0
M  V30 4367 H 415.481 4.31865 0.409271 0
M  V30 4368 H 416.152 5.23017 1.76513 0
M  V30 4369 H 418.628 3.40701 2.38877 0
M  V30 4370 H 417.504 4.22467 3.50447 0
M  V30 4371 H 417.765 2.49377 3.65053 0
M  V30 4372 N 416.824 -0.551391 1.4764 0
M  V30 4373 C 418.064 -1.31901 1.56145 0
M  V30 4374 C 418.428 -1.90724 0.221013 0
M  V30 4375 O 419.629 -2.6819 0.180945 0
M  V30 4376 C 417.9 -2.39517 2.65267 0
M  V30 4377 S 419.459 -3.26289 2.93395 0
M  V30 4378 H 416.277 -0.448965 0.551318 0
M  V30 4379 H 418.879 -0.630599 1.85051 0
M  V30 4380 H 417.583 -1.94747 3.6125 0
M  V30 4381 H 417.114 -3.13092 2.38195 0
M  V30 4382 H 419.129 -4.39122 2.31055 0
M  V30 4383 N 418.302 -1.35869 -0.798587 0
M  V30 4384 C 419.548 -1.2978 -1.55836 0
M  V30 4385 C 419.881 0.125322 -1.93795 0
M  V30 4386 O 419.156 1.07658 -1.61987 0
M  V30 4387 C 419.439 -2.21188 -2.84162 0
M  V30 4388 C 419.292 -3.72155 -2.52628 0
M  V30 4389 C 420.611 -2.11545 -3.85923 0
M  V30 4390 H 417.73 -0.472769 -0.565383 0
M  V30 4391 H 420.372 -1.66341 -0.918192 0
M  V30 4392 H 418.522 -1.90139 -3.38791 0
M  V30 4393 H 420.194 -4.13682 -2.04121 0
M  V30 4394 H 418.437 -3.92042 -1.85704 0
M  V30 4395 H 419.108 -4.31511 -3.44242 0
M  V30 4396 H 421.584 -2.38855 -3.40716 0
M  V30 4397 H 420.46 -2.77688 -4.73477 0
M  V30 4398 H 420.721 -1.09987 -4.282 0
M  V30 4399 N 419.78 1.02168 -1.19998 0
M  V30 4400 C 421.008 1.79296 -1.03249 0
M  V30 4401 C 421.423 1.84103 0.418502 0
M  V30 4402 O 420.78 1.29031 1.29063 0
M  V30 4403 C 420.831 3.24007 -1.60319 0
M  V30 4404 O 420.552 3.19512 -2.99739 0
M  V30 4405 C 422.053 4.17704 -1.48453 0
M  V30 4406 H 419.273 0.564016 -0.363493 0
M  V30 4407 H 421.817 1.28639 -1.58973 0
M  V30 4408 H 419.972 3.7183 -1.08727 0
M  V30 4409 H 420.386 4.10306 -3.26725 0
M  V30 4410 H 421.86 5.17104 -1.93153 0
M  V30 4411 H 422.337 4.37029 -0.436193 0
M  V30 4412 H 422.943 3.7576 -1.99211 0
M  V30 4413 N 421.258 1.00505 1.21394 0
M  V30 4414 C 422.483 0.706367 1.95001 0
M  V30 4415 C 422.908 -0.72463 1.73582 0
M  V30 4416 O 422.266 -1.49702 1.0227 0
M  V30 4417 C 422.314 1.03299 3.45487 0
M  V30 4418 O 421.418 0.138275 4.12168 0
M  V30 4419 H 420.759 0.263175 0.609619 0
M  V30 4420 H 423.289 1.34531 1.54151 0
M  V30 4421 H 423.299 0.979872 3.96059 0
M  V30 4422 H 421.974 2.07567 3.60401 0
M  V30 4423 H 420.551 0.247928 3.72075 0
M  V30 4424 N 422.737 -1.36956 0.779787 0
M  V30 4425 C 423.967 -2.03459 0.358877 0
M  V30 4426 C 424.375 -1.58939 -1.02641 0
M  V30 4427 O 423.718 -0.769777 -1.66794 0
M  V30 4428 C 423.78 -3.5796 0.332393 0
M  V30 4429 C 423.444 -4.25644 1.66362 0
M  V30 4430 C 424.441 -4.49205 2.61746 0
M  V30 4431 C 422.126 -4.63313 1.94027 0
M  V30 4432 C 424.12 -5.09503 3.82996 0
M  V30 4433 C 421.807 -5.2333 3.15546 0
M  V30 4434 C 422.805 -5.46363 4.0985 0
M  V30 4435 O 422.493 -6.05122 5.29228 0
M  V30 4436 H 422.225 -0.659767 0.147254 0
M  V30 4437 H 424.779 -1.76111 1.05708 0
M  V30 4438 H 423.009 -3.84388 -0.422237 0
M  V30 4439 H 424.698 -4.05852 -0.0625389 0
M  V30 4440 H 425.464 -4.20508 2.41657 0
M  V30 4441 H 421.343 -4.44715 1.21448 0
M  V30 4442 H 424.887 -5.27397 4.56617 0
M  V30 4443 H 420.784 -5.51451 3.35517 0
M  V30 4444 H 421.552 -6.23595 5.30161 0
M  V30 4445 N 424.215 -0.530993 -1.48385 0
M  V30 4446 C 425.125 0.23503 -2.3342 0
M  V30 4447 C 426.141 0.93801 -1.46552 0
M  V30 4448 O 427.317 0.912745 -1.7953 0
M  V30 4449 C 424.382 1.26778 -3.22689 0
M  V30 4450 C 423.443 0.575038 -4.25431 0
M  V30 4451 C 422.676 1.55858 -5.10435 0
M  V30 4452 O 422.899 2.79129 -4.97437 0
M  V30 4453 O 421.833 1.09742 -5.91811 0
M  V30 4454 H 425.659 -0.461794 -3.00169 0
M  V30 4455 H 423.244 -0.291903 -1.46521 0
M  V30 4456 H 425.126 1.86457 -3.77904 0
M  V30 4457 H 423.801 1.94699 -2.586 0
M  V30 4458 H 422.708 -0.0622782 -3.74048 0
M  V30 4459 H 424.041 -0.062253 -4.92161 0
M  V30 4460 N 425.693 1.55336 -0.266172 0
M  V30 4461 C 426.626 2.18256 0.666296 0
M  V30 4462 C 427.604 1.14064 1.1588 0
M  V30 4463 O 428.788 1.42546 1.23341 0
M  V30 4464 C 425.915 2.79867 1.90768 0
M  V30 4465 C 424.961 3.97283 1.55141 0
M  V30 4466 S 425.794 5.31694 0.637313 0
M  V30 4467 C 426.95 5.96769 1.88727 0
M  V30 4468 H 427.183 2.97008 0.131647 0
M  V30 4469 H 424.716 1.54317 -0.0504869 0
M  V30 4470 H 426.674 3.15996 2.62025 0
M  V30 4471 H 425.335 2.01025 2.41346 0
M  V30 4472 H 424.528 4.3905 2.4749 0
M  V30 4473 H 424.13 3.6253 0.919113 0
M  V30 4474 H 426.422 6.15458 2.83227 0
M  V30 4475 H 427.365 6.91752 1.51276 0
M  V30 4476 H 427.773 5.26034 2.04814 0
M  V30 4477 N 427.171 -0.0066808 1.57599 0
M  V30 4478 C 428.101 -0.999296 2.11036 0
M  V30 4479 C 429.082 -1.36278 1.01795 0
M  V30 4480 O 430.267 -1.4477 1.29442 0
M  V30 4481 C 427.397 -2.29328 2.60818 0
M  V30 4482 C 426.351 -2.07159 3.74525 0
M  V30 4483 C 425.677 -3.42512 4.10596 0
M  V30 4484 C 426.977 -1.43959 5.02069 0
M  V30 4485 H 428.671 -0.554382 2.94223 0
M  V30 4486 H 426.217 -0.265221 1.41536 0
M  V30 4487 H 428.17 -2.99117 2.96828 0
M  V30 4488 H 426.894 -2.7592 1.74745 0
M  V30 4489 H 425.553 -1.39797 3.38899 0
M  V30 4490 H 425.201 -3.86795 3.21556 0
M  V30 4491 H 424.901 -3.28498 4.87199 0
M  V30 4492 H 426.425 -4.13628 4.4916 0
M  V30 4493 H 427.839 -2.03696 5.35893 0
M  V30 4494 H 426.236 -1.40452 5.83432 0
M  V30 4495 H 427.306 -0.407992 4.83181 0
M  V30 4496 N 428.649 -1.55105 -0.279332 0
M  V30 4497 C 429.898 -1.74618 -1.00952 0
M  V30 4498 C 430.211 -0.551096 -1.87676 0
M  V30 4499 O 431.417 -0.628507 -2.64125 0
M  V30 4500 C 429.873 -3.09025 -1.84476 0
M  V30 4501 C 429.481 -4.36081 -1.0265 0
M  V30 4502 C 431.225 -3.37891 -2.56963 0
M  V30 4503 C 429.132 -5.6153 -1.85576 0
M  V30 4504 H 428.062 -0.650868 -0.38064 0
M  V30 4505 H 430.713 -1.81569 -0.265475 0
M  V30 4506 H 429.095 -2.96095 -2.62952 0
M  V30 4507 H 430.269 -4.59909 -0.286354 0
M  V30 4508 H 428.584 -4.14312 -0.416464 0
M  V30 4509 H 431.181 -4.28822 -3.19399 0
M  V30 4510 H 431.524 -2.57737 -3.26921 0
M  V30 4511 H 432.057 -3.5189 -1.85522 0
M  V30 4512 H 428.796 -6.44413 -1.2005 0
M  V30 4513 H 428.316 -5.41854 -2.57204 0
M  V30 4514 H 429.995 -5.99594 -2.43096 0
M  V30 4515 N 430.127 0.543554 -1.4793 0
M  V30 4516 C 431.074 1.64942 -1.6144 0
M  V30 4517 C 432.044 1.59692 -0.456903 0
M  V30 4518 O 433.229 1.78321 -0.678688 0
M  V30 4519 C 430.369 3.03238 -1.64744 0
M  V30 4520 C 429.482 3.18823 -2.91506 0
M  V30 4521 C 428.617 4.47599 -2.86057 0
M  V30 4522 C 427.656 4.56664 -4.07584 0
M  V30 4523 N 426.793 5.76811 -4.00292 0
M  V30 4524 H 431.633 1.52733 -2.55884 0
M  V30 4525 H 429.17 0.7438 -1.2691 0
M  V30 4526 H 431.128 3.83339 -1.64641 0
M  V30 4527 H 429.758 3.1425 -0.738017 0
M  V30 4528 H 428.81 2.32064 -3.01414 0
M  V30 4529 H 430.122 3.21384 -3.81463 0
M  V30 4530 H 429.276 5.35975 -2.84281 0
M  V30 4531 H 428.015 4.47538 -1.93807 0
M  V30 4532 H 427.02 3.66697 -4.09651 0
M  V30 4533 H 428.245 4.58474 -5.00978 0
M  V30 4534 H 426.191 5.77673 -3.10853 0
M  V30 4535 H 426.108 5.80808 -4.8394 0
M  V30 4536 H 427.376 6.67512 -4.02553 0
M  V30 4537 N 431.605 1.3629 0.791371 0
M  V30 4538 C 432.515 1.32606 1.93527 0
M  V30 4539 C 433.531 0.228541 1.72493 0
M  V30 4540 O 434.707 0.460571 1.96063 0
M  V30 4541 C 431.772 1.11271 3.28359 0
M  V30 4542 C 430.833 2.3048 3.62185 0
M  V30 4543 C 430.066 2.10154 4.90583 0
M  V30 4544 O 430.289 1.07572 5.60165 0
M  V30 4545 O 429.223 2.97884 5.23019 0
M  V30 4546 H 433.049 2.28909 1.99585 0
M  V30 4547 H 430.634 1.16818 0.931344 0
M  V30 4548 H 432.516 1.01283 4.09047 0
M  V30 4549 H 431.191 0.180292 3.23198 0
M  V30 4550 H 430.098 2.46036 2.81811 0
M  V30 4551 H 431.431 3.22221 3.72068 0
M  V30 4552 N 433.083 -1.0153 1.20538 0
M  V30 4553 C 434.03 -2.10098 0.955383 0
M  V30 4554 C 435 -1.65702 -0.114878 0
M  V30 4555 O 436.185 -1.90776 0.0301118 0
M  V30 4556 C 433.325 -3.41236 0.514969 0
M  V30 4557 C 432.438 -3.99102 1.65353 0
M  V30 4558 C 431.573 -5.18306 1.16329 0
M  V30 4559 C 430.612 -5.68258 2.27485 0
M  V30 4560 N 429.749 -6.78722 1.7967 0
M  V30 4561 H 434.589 -2.30818 1.88486 0
M  V30 4562 H 432.126 -1.13189 0.939499 0
M  V30 4563 H 434.084 -4.16504 0.240935 0
M  V30 4564 H 432.714 -3.20585 -0.377512 0
M  V30 4565 H 431.766 -3.20918 2.04245 0
M  V30 4566 H 433.078 -4.32177 2.49047 0
M  V30 4567 H 432.232 -6.00782 0.845302 0
M  V30 4568 H 430.971 -4.86799 0.296254 0
M  V30 4569 H 429.976 -4.84385 2.60099 0
M  V30 4570 H 431.201 -6.01798 3.14667 0
M  V30 4571 H 429.147 -6.49042 0.95295 0
M  V30 4572 H 429.064 -7.10996 2.56944 0
M  V30 4573 H 430.332 -7.64759 1.50875 0
M  V30 4574 N 434.561 -1.01147 -1.20859 0
M  V30 4575 C 435.786 -0.716698 -1.94623 0
M  V30 4576 C 436.211 0.715415 -1.73964 0
M  V30 4577 O 435.569 1.49157 -1.03062 0
M  V30 4578 C 435.617 -1.0513 -3.44935 0
M  V30 4579 O 434.721 -0.160131 -4.12089 0
M  V30 4580 H 434.062 -0.266404 -0.608214 0
M  V30 4581 H 436.592 -1.35346 -1.53436 0
M  V30 4582 H 436.602 -1.00086 -3.95533 0
M  V30 4583 H 435.277 -2.09475 -3.59295 0
M  V30 4584 H 433.854 -0.267657 -3.71938 0
M  V30 4585 N 436.039 1.36541 -0.78704 0
M  V30 4586 C 437.285 1.99599 -0.358872 0
M  V30 4587 C 437.618 1.62323 1.06606 0
M  V30 4588 O 436.893 0.876858 1.73613 0
M  V30 4589 C 437.176 3.56327 -0.519944 0
M  V30 4590 C 437.029 4.03464 -1.98839 0
M  V30 4591 C 438.348 4.4005 0.0664737 0
M  V30 4592 H 435.467 0.725107 -0.131869 0
M  V30 4593 H 438.109 1.6199 -0.992936 0
M  V30 4594 H 436.259 3.88495 0.0198321 0
M  V30 4595 H 437.931 3.81793 -2.58905 0
M  V30 4596 H 436.174 3.55092 -2.49183 0
M  V30 4597 H 436.845 5.12439 -2.05207 0
M  V30 4598 H 439.321 4.14228 -0.394267 0
M  V30 4599 H 438.197 5.48847 -0.0762682 0
M  V30 4600 H 438.458 4.26655 1.15835 0
M  V30 4601 N 437.518 0.538854 1.48102 0
M  V30 4602 C 438.765 0.0080018 2.02498 0
M  V30 4603 C 439.093 -1.33437 1.41509 0
M  V30 4604 O 438.348 -1.87709 0.553507 0
M  V30 4605 C 438.647 -0.153808 3.57069 0
M  V30 4606 C 438.313 1.11533 4.36888 0
M  V30 4607 C 436.975 1.46314 4.58417 0
M  V30 4608 C 439.327 1.95718 4.83057 0
M  V30 4609 C 436.655 2.6516 5.23361 0
M  V30 4610 C 439.007 3.13751 5.49312 0
M  V30 4611 C 437.671 3.48866 5.69077 0
M  V30 4612 H 436.941 0.00292807 0.740994 0
M  V30 4613 H 439.588 0.706668 1.77984 0
M  V30 4614 H 437.893 -0.935309 3.80472 0
M  V30 4615 H 439.59 -0.579607 3.96789 0
M  V30 4616 H 436.18 0.834484 4.20398 0
M  V30 4617 H 440.364 1.70158 4.66219 0
M  V30 4618 H 435.62 2.92558 5.36861 0
M  V30 4619 H 439.794 3.79282 5.84053 0
M  V30 4620 H 437.421 4.41054 6.19173 0
M  V30 4621 N 438.996 -1.55193 0.274407 0
M  V30 4622 C 439.943 -2.225 -0.613374 0
M  V30 4623 C 440.913 -1.19823 -1.15029 0
M  V30 4624 O 442.098 -1.48362 -1.19973 0
M  V30 4625 C 439.238 -2.94927 -1.79199 0
M  V30 4626 C 438.351 -4.12322 -1.28899 0
M  V30 4627 C 437.486 -4.72394 -2.42934 0
M  V30 4628 C 436.525 -5.81984 -1.89634 0
M  V30 4629 N 435.662 -6.36123 -2.9714 0
M  V30 4630 H 440.502 -2.97982 -0.032756 0
M  V30 4631 H 438.039 -1.47099 -0.00440146 0
M  V30 4632 H 439.997 -3.35134 -2.48478 0
M  V30 4633 H 438.627 -2.2187 -2.34465 0
M  V30 4634 H 437.679 -3.7724 -0.489327 0
M  V30 4635 H 438.991 -4.91355 -0.858587 0
M  V30 4636 H 438.145 -5.15317 -3.20208 0
M  V30 4637 H 436.884 -3.92636 -2.8929 0
M  V30 4638 H 435.889 -5.38511 -1.1084 0
M  V30 4639 H 437.114 -6.6361 -1.44215 0
M  V30 4640 H 435.06 -5.59259 -3.42878 0
M  V30 4641 H 434.977 -7.10427 -2.58515 0
M  V30 4642 H 436.245 -6.83704 -3.74391 0
M  V30 4643 N 440.474 -0.00167713 -1.576 0
M  V30 4644 C 441.421 0.989195 -2.08527 0
M  V30 4645 C 442.391 1.34031 -0.981065 0
M  V30 4646 O 443.576 1.43839 -1.2536 0
M  V30 4647 C 440.716 2.27537 -2.59463 0
M  V30 4648 C 439.829 1.98314 -3.83791 0
M  V30 4649 C 438.964 3.21025 -4.23222 0
M  V30 4650 C 438.003 2.87495 -5.40382 0
M  V30 4651 N 437.14 4.02749 -5.75098 0
M  V30 4652 H 441.98 0.547973 -2.92919 0
M  V30 4653 H 439.517 0.258917 -1.44803 0
M  V30 4654 H 441.475 3.02729 -2.87073 0
M  V30 4655 H 440.105 2.69325 -1.77943 0
M  V30 4656 H 439.157 1.13482 -3.63078 0
M  V30 4657 H 440.469 1.69601 -4.69081 0
M  V30 4658 H 439.623 4.04561 -4.52123 0
M  V30 4659 H 438.362 3.52877 -3.36644 0
M  V30 4660 H 437.367 2.02367 -5.11202 0
M  V30 4661 H 438.592 2.56889 -6.28637 0
M  V30 4662 H 436.538 4.34494 -4.91478 0
M  V30 4663 H 436.455 3.77566 -6.54966 0
M  V30 4664 H 437.723 4.87068 -6.08592 0
M  V30 4665 N 441.952 1.55251 0.271103 0
M  V30 4666 C 443.199 1.75946 1.00245 0
M  V30 4667 C 443.527 0.561611 1.86215 0
M  V30 4668 O 442.782 -0.455832 1.90317 0
M  V30 4669 C 443.081 3.01879 1.91321 0
M  V30 4670 C 442.747 4.34337 1.21086 0
M  V30 4671 C 441.409 4.70338 1.01666 0
M  V30 4672 C 443.761 5.16325 0.71119 0
M  V30 4673 C 441.089 5.8588 0.310099 0
M  V30 4674 C 443.441 6.32597 0.0182157 0
M  V30 4675 C 442.105 6.67236 -0.18768 0
M  V30 4676 H 441.375 0.643833 0.366824 0
M  V30 4677 H 444.022 1.89521 0.27458 0
M  V30 4678 H 442.327 2.83212 2.70736 0
M  V30 4679 H 444.024 3.15088 2.48033 0
M  V30 4680 H 440.614 4.06043 1.37213 0
M  V30 4681 H 444.798 4.88987 0.848844 0
M  V30 4682 H 440.054 6.1124 0.139873 0
M  V30 4683 H 444.228 6.9538 -0.376711 0
M  V30 4684 H 441.855 7.56618 -0.73715 0
M  V30 4685 N 443.43 -0.535701 1.48216 0
M  V30 4686 C 444.378 -1.66179 1.62749 0
M  V30 4687 C 445.372 -1.62034 0.49409 0
M  V30 4688 O 446.578 -1.6696 0.672624 0
M  V30 4689 H 442.953 -0.550244 0.512578 0
M  V30 4690 H 444.924 -1.51063 2.57337 0
M  V30 4691 C 443.673 -3.04471 1.67907 0
M  V30 4692 H 442.996 -3.08351 2.54479 0
M  V30 4693 H 444.436 -3.82894 1.82121 0
M  V30 4694 C 442.895 -3.34314 0.416596 0
M  V30 4695 O 443.425 -3.98905 -0.473014 0
M  V30 4696 N 441.631 -2.89149 0.290038 0
M  V30 4697 H 441.178 -2.36764 1.01493 0
M  V30 4698 H 441.136 -3.09486 -0.55367 0
M  V30 4699 N 444.908 -1.36708 -0.784132 0
M  V30 4700 C 446.154 -1.32433 -1.54379 0
M  V30 4701 C 446.509 0.0941816 -1.92169 0
M  V30 4702 O 445.802 1.04997 -1.60269 0
M  V30 4703 C 445.996 -2.18571 -2.82774 0
M  V30 4704 C 445.825 -3.68656 -2.57533 0
M  V30 4705 C 444.595 -4.37813 -2.52286 0
M  V30 4706 C 446.793 -4.61802 -2.2637 0
M  V30 4707 N 444.775 -5.7351 -2.18997 0
M  V30 4708 C 446.146 -5.85785 -2.03115 0
M  V30 4709 C 448.201 -4.50313 -2.12421 0
M  V30 4710 C 446.904 -6.99569 -1.67321 0
M  V30 4711 C 448.93 -5.63969 -1.78026 0
M  V30 4712 C 448.292 -6.86994 -1.55622 0
M  V30 4713 H 444.391 -0.539886 -0.565727 0
M  V30 4714 H 446.975 -1.71812 -0.915908 0
M  V30 4715 H 445.146 -1.81429 -3.43421 0
M  V30 4716 H 446.878 -2.05646 -3.48557 0
M  V30 4717 H 443.633 -3.90674 -2.67714 0
M  V30 4718 H 444.057 -6.45189 -2.05084 0
M  V30 4719 H 448.699 -3.55781 -2.28429 0
M  V30 4720 H 446.417 -7.94047 -1.5005 0
M  V30 4721 H 450.003 -5.57044 -1.67909 0
M  V30 4722 H 448.883 -7.7345 -1.294 0
M  V30 4723 N 446.386 1.0089 -1.21074 0
M  V30 4724 C 447.802 1.2695 -0.967257 0
M  V30 4725 C 448.002 1.9846 0.348673 0
M  V30 4726 O 447.058 2.28459 1.0753 0
M  V30 4727 C 448.371 2.09697 -2.15517 0
M  V30 4728 C 449.919 2.22937 -2.197 0
M  V30 4729 C 450.394 3.09064 -3.37999 0
M  V30 4730 N 451.885 3.16653 -3.38061 0
M  V30 4731 C 452.62 3.8354 -4.26245 0
M  V30 4732 N 452.116 4.52488 -5.2462 0
M  V30 4733 N 453.909 3.80141 -4.14064 0
M  V30 4734 H 446.06 0.529005 -2.05707 0
M  V30 4735 H 448.323 0.296148 -0.900556 0
M  V30 4736 H 448.029 1.64497 -3.10859 0
M  V30 4737 H 447.903 3.10444 -2.14253 0
M  V30 4738 H 450.29 2.67357 -1.24916 0
M  V30 4739 H 450.371 1.21673 -2.2501 0
M  V30 4740 H 450.015 2.65347 -4.33074 0
M  V30 4741 H 449.945 4.10433 -3.29928 0
M  V30 4742 H 452.436 2.67566 -2.66865 0
M  V30 4743 H 452.749 5.01219 -5.88217 0
M  V30 4744 H 451.094 4.51288 -5.28549 0
M  V30 4745 H 454.285 3.25427 -3.36474 0
M  V30 4746 H 454.458 4.31992 -4.82998 0
M  V30 4747 N 447.864 1.01787 1.20321 0
M  V30 4748 C 449.094 0.72614 1.93419 0
M  V30 4749 C 449.502 -0.717317 1.75075 0
M  V30 4750 O 448.845 -1.49836 1.06278 0
M  V30 4751 C 448.907 0.983621 3.45782 0
M  V30 4752 C 448.571 2.41645 3.87888 0
M  V30 4753 C 449.568 3.39732 3.93545 0
M  V30 4754 C 447.253 2.75752 4.19841 0
M  V30 4755 C 449.247 4.69988 4.30569 0
M  V30 4756 C 446.934 4.06221 4.56539 0
M  V30 4757 C 447.932 5.0315 4.61876 0
M  V30 4758 O 447.62 6.31284 4.97731 0
M  V30 4759 H 447.352 0.265824 0.621541 0
M  V30 4760 H 449.906 1.3623 1.53722 0
M  V30 4761 H 448.136 0.290301 3.85609 0
M  V30 4762 H 449.825 0.683279 4.00108 0
M  V30 4763 H 450.591 3.14718 3.69022 0
M  V30 4764 H 446.47 2.00993 4.14877 0
M  V30 4765 H 450.014 5.45642 4.3465 0
M  V30 4766 H 445.911 4.31013 4.80518 0
M  V30 4767 H 446.679 6.35591 5.15719 0
M  V30 4768 N 449.342 -1.36122 0.79427 0
M  V30 4769 C 450.272 -2.32551 0.210328 0
M  V30 4770 C 451.253 -1.56884 -0.657386 0
M  V30 4771 O 452.438 -1.85014 -0.590207 0
M  V30 4772 C 449.568 -3.41128 -0.651819 0
M  V30 4773 C 448.522 -4.27842 0.116395 0
M  V30 4774 C 447.848 -5.2763 -0.86666 0
M  V30 4775 C 449.148 -5.05647 1.30837 0
M  V30 4776 H 450.842 -2.81636 1.01594 0
M  V30 4777 H 448.388 -1.35407 0.489981 0
M  V30 4778 H 450.341 -4.07581 -1.07031 0
M  V30 4779 H 449.065 -2.90622 -1.49019 0
M  V30 4780 H 447.724 -3.62952 0.515915 0
M  V30 4781 H 447.372 -4.73395 -1.70019 0
M  V30 4782 H 447.072 -5.86514 -0.35705 0
M  V30 4783 H 448.596 -5.96955 -1.28361 0
M  V30 4784 H 450.01 -5.65113 0.965393 0
M  V30 4785 H 448.407 -5.73967 1.75161 0
M  V30 4786 H 449.477 -4.37006 2.10128 0
M  V30 4787 N 450.82 -0.546701 -1.47814 0
M  V30 4788 C 452.066 -0.0187684 -2.02791 0
M  V30 4789 C 452.399 1.32338 -1.42128 0
M  V30 4790 O 451.674 1.85867 -0.573023 0
M  V30 4791 C 451.957 0.0854985 -3.59998 0
M  V30 4792 C 451.81 -1.283 -4.31114 0
M  V30 4793 C 453.129 0.80412 -4.32691 0
M  V30 4794 H 450.248 -0.0082946 -0.736953 0
M  V30 4795 H 452.89 -0.706962 -1.76358 0
M  V30 4796 H 451.04 0.671609 -3.82651 0
M  V30 4797 H 452.712 -1.91151 -4.19832 0
M  V30 4798 H 450.955 -1.86049 -3.91878 0
M  V30 4799 H 451.626 -1.16287 -5.39612 0
M  V30 4800 H 454.102 0.306576 -4.14969 0
M  V30 4801 H 452.978 0.846011 -5.42341 0
M  V30 4802 H 453.239 1.85802 -4.01161 0
M  V30 4803 N 452.299 1.55045 -0.282633 0
M  V30 4804 C 453.548 1.98938 0.332667 0
M  V30 4805 C 453.861 1.17455 1.56409 0
M  V30 4806 O 455.067 1.51527 2.25282 0
M  V30 4807 C 453.523 3.54105 0.643226 0
M  V30 4808 C 453.131 4.44374 -0.568814 0
M  V30 4809 C 454.875 4.06569 1.22074 0
M  V30 4810 C 452.782 5.90943 -0.232426 0
M  V30 4811 H 451.712 0.743043 0.128075 0
M  V30 4812 H 454.363 1.79341 -0.388464 0
M  V30 4813 H 452.745 3.69532 1.42346 0
M  V30 4814 H 453.919 4.40718 -1.34551 0
M  V30 4815 H 452.234 4.02585 -1.06369 0
M  V30 4816 H 454.831 5.13626 1.48635 0
M  V30 4817 H 455.174 3.56057 2.15707 0
M  V30 4818 H 455.707 3.94612 0.502621 0
M  V30 4819 H 452.446 6.45567 -1.13683 0
M  V30 4820 H 451.966 5.9765 0.507357 0
M  V30 4821 H 453.645 6.4677 0.172657 0
M  V30 4822 N 453.777 0.010035 1.57597 0
M  V30 4823 C 455.054 -0.710296 1.82248 0
M  V30 4824 C 455.434 -1.91426 0.889911 0
M  V30 4825 O 454.782 -2.28424 -0.0590292 0
M  V30 4826 C 454.992 -1.10655 3.30993 0
M  V30 4827 C 456.34 -1.50621 3.96987 0
M  V30 4828 O 457.364 -1.20007 3.35375 0
M  V30 4829 O 456.223 -2.07587 5.05539 0
M  V30 4830 H 453.317 -0.34673 0.750804 0
M  V30 4831 H 455.863 0.0362578 1.69661 0
M  V30 4832 H 454.635 -0.248826 3.90508 0
M  V30 4833 H 454.258 -1.91189 3.48615 0
M  V30 4834 N 455.255 -1.55392 -0.262866 0
M  V30 4835 C 456.165 -1.92077 -1.34698 0
M  V30 4836 C 457.181 -0.819227 -1.53508 0
M  V30 4837 O 458.357 -1.11921 -1.67439 0
M  V30 4838 C 455.422 -2.19407 -2.68443 0
M  V30 4839 C 454.483 -3.42905 -2.58292 0
M  V30 4840 C 453.716 -3.68921 -3.85659 0
M  V30 4841 O 453.939 -2.97275 -4.8681 0
M  V30 4842 O 452.873 -4.62455 -3.85252 0
M  V30 4843 H 456.699 -2.84384 -1.06581 0
M  V30 4844 H 454.284 -1.42069 -0.462264 0
M  V30 4845 H 456.166 -2.38365 -3.47506 0
M  V30 4846 H 454.841 -1.30282 -2.96325 0
M  V30 4847 H 453.748 -3.29272 -1.7757 0
M  V30 4848 H 455.081 -4.32282 -2.35358 0
M  V30 4849 N 456.733 0.527833 -1.48498 0
M  V30 4850 C 457.696 1.61439 -1.62696 0
M  V30 4851 C 458.696 1.52824 -0.500136 0
M  V30 4852 O 459.886 1.56456 -0.765976 0
M  V30 4853 C 457.018 3.01063 -1.59918 0
M  V30 4854 H 458.211 1.50189 -2.59583 0
M  V30 4855 H 455.764 0.750055 -1.37127 0
M  V30 4856 H 456.499 3.17818 -0.645163 0
M  V30 4857 H 456.284 3.08725 -2.41726 0
M  V30 4858 H 457.774 3.80057 -1.73051 0
M  V30 4859 N 458.211 1.37122 0.776871 0
M  V30 4860 C 459.161 1.28989 1.88005 0
M  V30 4861 C 460.145 0.178765 1.59904 0
M  V30 4862 O 461.337 0.412705 1.72121 0
M  V30 4863 C 458.466 1.09402 3.25402 0
M  V30 4864 C 457.552 2.25036 3.59471 0
M  V30 4865 N 457.943 3.50407 3.64759 0
M  V30 4866 C 456.241 2.17078 3.89607 0
M  V30 4867 C 456.942 4.26628 3.95428 0
M  V30 4868 N 455.918 3.55709 4.11062 0
M  V30 4869 H 459.72 2.2394 1.90337 0
M  V30 4870 H 457.234 1.30021 0.973052 0
M  V30 4871 H 459.231 1.01661 4.04315 0
M  V30 4872 H 457.891 0.153632 3.24336 0
M  V30 4873 H 458.902 3.8438 3.47091 0
M  V30 4874 H 455.579 1.31067 3.96393 0
M  V30 4875 H 456.969 5.35107 4.06338 0
M  V30 4876 N 459.689 -1.00246 1.21608 0
M  V30 4877 C 461.105 -1.26435 0.973975 0
M  V30 4878 C 461.305 -1.98642 -0.338143 0
M  V30 4879 O 460.361 -2.29026 -1.06317 0
M  V30 4880 C 461.674 -2.08551 2.16626 0
M  V30 4881 C 463.222 -2.21769 2.20879 0
M  V30 4882 C 463.697 -3.07267 3.39633 0
M  V30 4883 N 465.188 -3.14855 3.39736 0
M  V30 4884 C 465.923 -3.81274 4.28273 0
M  V30 4885 N 465.419 -4.497 5.27012 0
M  V30 4886 N 467.212 -3.7794 4.16074 0
M  V30 4887 H 459.363 -0.518089 2.05984 0
M  V30 4888 H 461.626 -0.291368 0.902113 0
M  V30 4889 H 461.332 -1.62847 3.11727 0
M  V30 4890 H 461.206 -3.09303 2.15897 0
M  V30 4891 H 463.593 -2.66691 1.26332 0
M  V30 4892 H 463.674 -1.20478 2.25652 0
M  V30 4893 H 463.318 -2.63047 4.34475 0
M  V30 4894 H 463.248 -4.08678 3.321 0
M  V30 4895 H 465.739 -2.66147 2.6828 0
M  V30 4896 H 466.052 -4.98092 5.90867 0
M  V30 4897 H 464.397 -4.48479 5.30935 0
M  V30 4898 H 467.588 -3.23638 3.38195 0
M  V30 4899 H 467.761 -4.29424 4.85282 0
M  V30 4900 N 461.167 -1.02423 -1.1978 0
M  V30 4901 C 462.416 -0.713265 -1.88667 0
M  V30 4902 C 462.729 0.7609 -1.80193 0
M  V30 4903 O 463.935 1.18473 -2.44288 0
M  V30 4904 C 462.391 -1.22545 -3.38394 0
M  V30 4905 C 461.999 -2.72706 -3.55437 0
M  V30 4906 C 463.743 -0.990257 -4.12788 0
M  V30 4907 C 461.65 -3.17367 -4.99031 0
M  V30 4908 H 460.58 -0.263105 -0.706606 0
M  V30 4909 H 463.231 -1.23792 -1.35454 0
M  V30 4910 H 461.613 -0.628732 -3.90977 0
M  V30 4911 H 462.787 -3.37993 -3.13205 0
M  V30 4912 H 461.102 -2.94453 -2.94425 0
M  V30 4913 H 463.699 -1.29926 -5.18675 0
M  V30 4914 H 464.042 0.0730761 -4.16236 0
M  V30 4915 H 464.575 -1.55074 -3.66329 0
M  V30 4916 H 461.314 -4.23009 -5.00743 0
M  V30 4917 H 460.834 -2.56805 -5.42044 0
M  V30 4918 H 462.513 -3.10441 -5.67658 0
M  V30 4919 N 462.645 1.35699 -0.801477 0
M  V30 4920 C 463.592 2.29876 -0.206294 0
M  V30 4921 C 464.562 1.52565 0.656752 0
M  V30 4922 O 465.747 1.81024 0.602906 0
M  V30 4923 C 462.887 3.39052 0.643272 0
M  V30 4924 C 462 4.31335 -0.239644 0
M  V30 4925 C 461.135 5.27599 0.61744 0
M  V30 4926 C 460.174 6.11521 -0.26619 0
M  V30 4927 N 459.311 6.99938 0.550571 0
M  V30 4928 H 464.151 2.80187 -1.01484 0
M  V30 4929 H 461.688 1.37902 -0.511997 0
M  V30 4930 H 463.646 4.0101 1.15094 0
M  V30 4931 H 462.276 2.9003 1.41713 0
M  V30 4932 H 461.328 3.70426 -0.865381 0
M  V30 4933 H 462.64 4.90243 -0.919985 0
M  V30 4934 H 461.794 5.94906 1.19045 0
M  V30 4935 H 460.533 4.69176 1.33137 0
M  V30 4936 H 459.538 5.43166 -0.851507 0
M  V30 4937 H 460.763 6.72022 -0.9779 0
M  V30 4938 H 458.709 6.44008 1.24856 0
M  V30 4939 H 458.626 7.55966 -0.071832 0
M  V30 4940 H 459.894 7.71599 1.10702 0
M  V30 4941 N 464.123 0.554532 1.47522 0
M  V30 4942 C 465.071 -0.207765 2.3167 0
M  V30 4943 C 466.065 -0.911914 1.4276 0
M  V30 4944 O 467.271 -0.833504 1.59539 0
M  V30 4945 H 463.646 -0.0858726 0.747081 0
M  V30 4946 H 465.617 0.521178 2.93813 0
M  V30 4947 C 464.366 -1.2263 3.25357 0
M  V30 4948 H 463.689 -0.693887 3.93732 0
M  V30 4949 H 465.129 -1.73062 3.87073 0
M  V30 4950 C 463.588 -2.27278 2.4869 0
M  V30 4951 O 464.118 -3.34156 2.22941 0
M  V30 4952 N 462.324 -2.01134 2.09746 0
M  V30 4953 H 461.871 -1.14232 2.30887 0
M  V30 4954 H 461.829 -2.71369 1.58765 0
M  V30 4955 N 465.601 -1.54893 0.290851 0
M  V30 4956 C 466.511 -2.26812 -0.59945 0
M  V30 4957 C 467.527 -1.29963 -1.15696 0
M  V30 4958 O 468.703 -1.62928 -1.18391 0
M  V30 4959 C 465.768 -2.98716 -1.75982 0
M  V30 4960 C 464.829 -4.1108 -1.2374 0
M  V30 4961 C 464.062 -4.79546 -2.34246 0
M  V30 4962 O 464.285 -4.47309 -3.53936 0
M  V30 4963 O 463.219 -5.67165 -2.01512 0
M  V30 4964 H 467.045 -3.03696 -0.0163561 0
M  V30 4965 H 464.63 -1.49289 0.0576755 0
M  V30 4966 H 466.512 -3.43851 -2.43607 0
M  V30 4967 H 465.187 -2.24737 -2.3297 0
M  V30 4968 H 464.094 -3.70367 -0.527163 0
M  V30 4969 H 465.427 -4.87007 -0.71307 0
M  V30 4970 N 467.08 -0.0183926 -1.57589 0
M  V30 4971 C 468.027 0.967022 -2.09565 0
M  V30 4972 C 468.997 1.32983 -0.995225 0
M  V30 4973 O 470.182 1.42501 -1.26878 0
M  V30 4974 C 467.322 2.24772 -2.61861 0
M  V30 4975 C 466.435 1.94232 -3.85873 0
M  V30 4976 C 465.57 3.16518 -4.26603 0
M  V30 4977 C 464.609 2.81748 -5.43401 0
M  V30 4978 N 463.746 3.96626 -5.79338 0
M  V30 4979 H 468.586 0.516874 -2.93483 0
M  V30 4980 H 466.123 0.243544 -1.4507 0
M  V30 4981 H 468.081 2.99667 -2.90268 0
M  V30 4982 H 466.711 2.67423 -1.8079 0
M  V30 4983 H 465.763 1.09625 -3.64262 0
M  V30 4984 H 467.075 1.64616 -4.70853 0
M  V30 4985 H 466.229 3.99743 -4.56389 0
M  V30 4986 H 464.968 3.49286 -3.40368 0
M  V30 4987 H 463.973 1.96933 -5.1332 0
M  V30 4988 H 465.198 2.50207 -6.31327 0
M  V30 4989 H 463.144 4.29257 -4.96059 0
M  V30 4990 H 463.061 3.70598 -6.58933 0
M  V30 4991 H 464.329 4.80586 -6.13724 0
M  V30 4992 N 468.558 1.5553 0.254621 0
M  V30 4993 C 469.783 1.81383 1.00573 0
M  V30 4994 C 470.208 0.594419 1.78461 0
M  V30 4995 O 469.566 -0.456403 1.75461 0
M  V30 4996 C 469.614 3.04892 1.92545 0
M  V30 4997 O 468.718 2.81266 3.01601 0
M  V30 4998 H 468.059 0.598969 0.286587 0
M  V30 4999 H 470.589 2.02703 0.277952 0
M  V30 5000 H 470.599 3.34119 2.34155 0
M  V30 5001 H 469.274 3.93287 1.3527 0
M  V30 5002 H 467.851 2.63185 2.64174 0
M  V30 5003 N 470.036 -0.519951 1.48776 0
M  V30 5004 C 470.983 -1.62352 1.64044 0
M  V30 5005 C 471.953 -1.58945 0.482251 0
M  V30 5006 O 473.138 -1.77219 0.706971 0
M  V30 5007 C 470.278 -3.00579 1.69547 0
M  V30 5008 C 469.391 -3.14145 2.96541 0
M  V30 5009 C 468.526 -4.42991 2.93142 0
M  V30 5010 C 467.565 -4.50122 4.14797 0
M  V30 5011 N 466.702 -5.7037 4.09418 0
M  V30 5012 H 471.542 -1.48643 2.58281 0
M  V30 5013 H 469.079 -0.723516 1.28077 0
M  V30 5014 H 471.037 -3.80671 1.70719 0
M  V30 5015 H 469.667 -3.13036 0.787918 0
M  V30 5016 H 468.719 -2.27239 3.05068 0
M  V30 5017 H 470.031 -3.15275 3.86527 0
M  V30 5018 H 469.185 -5.31385 2.92772 0
M  V30 5019 H 467.924 -4.44398 2.00902 0
M  V30 5020 H 466.929 -3.60133 4.15433 0
M  V30 5021 H 468.154 -4.50445 5.08208 0
M  V30 5022 H 466.1 -5.72655 3.20004 0
M  V30 5023 H 466.017 -5.73036 4.93119 0
M  V30 5024 H 467.285 -6.61023 4.13121 0
M  V30 5025 N 471.514 -1.37532 -0.769588 0
M  V30 5026 C 472.444 -1.36172 -1.89682 0
M  V30 5027 C 473.425 -0.23001 -1.68538 0
M  V30 5028 O 474.61 -0.43069 -1.89364 0
M  V30 5029 C 471.74 -1.1701 -3.26995 0
M  V30 5030 C 470.694 -2.27216 -3.62708 0
M  V30 5031 C 470.02 -1.93174 -4.98586 0
M  V30 5032 C 471.32 -3.6941 -3.69234 0
M  V30 5033 H 473.014 -2.30499 -1.91078 0
M  V30 5034 H 470.56 -1.10953 -0.917902 0
M  V30 5035 H 472.513 -1.14688 -4.05493 0
M  V30 5036 H 471.237 -0.191395 -3.26039 0
M  V30 5037 H 469.896 -2.28697 -2.86519 0
M  V30 5038 H 469.544 -0.938281 -4.94171 0
M  V30 5039 H 469.244 -2.66973 -5.23449 0
M  V30 5040 H 470.768 -1.92443 -5.79481 0
M  V30 5041 H 472.182 -3.70047 -4.37879 0
M  V30 5042 H 470.579 -4.4228 -4.05597 0
M  V30 5043 H 471.649 -4.0288 -2.69844 0
M  V30 5044 N 472.992 0.995999 -1.22138 0
M  V30 5045 C 474.217 1.77601 -1.0711 0
M  V30 5046 C 474.642 1.84339 0.374264 0
M  V30 5047 O 474 1.29359 1.27028 0
M  V30 5048 C 474.048 3.18897 -1.68336 0
M  V30 5049 O 473.152 4.01663 -0.934928 0
M  V30 5050 H 472.493 0.547011 -0.376397 0
M  V30 5051 H 475.023 1.25137 -1.6187 0
M  V30 5052 H 475.033 3.69539 -1.72931 0
M  V30 5053 H 473.708 3.13308 -2.73516 0
M  V30 5054 H 472.285 3.60204 -0.964751 0
M  V30 5055 N 474.47 1.03057 1.19235 0
M  V30 5056 C 475.38 0.622922 2.26179 0
M  V30 5057 C 476.396 -0.346113 1.70523 0
M  V30 5058 O 477.572 -0.203572 2.00369 0
M  V30 5059 C 474.637 -0.0182063 3.46695 0
M  V30 5060 C 473.698 0.998546 4.17526 0
M  V30 5061 C 472.931 0.387917 5.32288 0
M  V30 5062 O 473.154 -0.808668 5.64639 0
M  V30 5063 O 472.088 1.1116 5.91546 0
M  V30 5064 H 475.914 1.51363 2.63292 0
M  V30 5065 H 473.499 0.800856 1.26122 0
M  V30 5066 H 475.381 -0.375606 4.19723 0
M  V30 5067 H 474.056 -0.882895 3.11427 0
M  V30 5068 H 472.963 1.40756 3.4661 0
M  V30 5069 H 474.296 1.83366 4.56769 0
M  V30 5070 N 475.948 -1.35272 0.808662 0
M  V30 5071 C 477.197 -1.97963 0.386483 0
M  V30 5072 C 477.51 -1.64866 -1.05255 0
M  V30 5073 O 478.716 -2.20937 -1.57794 0
M  V30 5074 C 477.172 -3.54162 0.640096 0
M  V30 5075 C 476.78 -3.96166 2.0918 0
M  V30 5076 C 478.524 -4.23553 0.283376 0
M  V30 5077 C 476.431 -5.4522 2.29106 0
M  V30 5078 H 475.361 -0.740742 0.140774 0
M  V30 5079 H 478.012 -1.5431 0.993012 0
M  V30 5080 H 476.394 -3.95983 -0.0364117 0
M  V30 5081 H 477.568 -3.65491 2.80629 0
M  V30 5082 H 475.883 -3.3967 2.40859 0
M  V30 5083 H 478.48 -5.33124 0.410273 0
M  V30 5084 H 478.823 -4.09105 -0.770659 0
M  V30 5085 H 479.356 -3.8716 0.913884 0
M  V30 5086 H 476.095 -5.64638 3.32962 0
M  V30 5087 H 475.615 -5.77457 1.62184 0
M  V30 5088 H 477.294 -6.1171 2.1076 0
M  V30 5089 N 477.426 -0.562348 -1.47226 0
M  V30 5090 C 478.672 -0.0402761 -2.0276 0
M  V30 5091 C 479.005 1.30823 -1.43523 0
M  V30 5092 O 478.28 1.85249 -0.592705 0
M  V30 5093 C 478.563 0.047311 -3.60069 0
M  V30 5094 C 478.416 -1.32865 -4.29729 0
M  V30 5095 C 479.735 0.758182 -4.3352 0
M  V30 5096 H 476.854 -0.0161105 -0.736824 0
M  V30 5097 H 479.496 -0.725628 -1.75598 0
M  V30 5098 H 477.646 0.630986 -3.83342 0
M  V30 5099 H 479.318 -1.95593 -4.17781 0
M  V30 5100 H 477.561 -1.90195 -3.89882 0
M  V30 5101 H 478.232 -1.22004 -5.38349 0
M  V30 5102 H 480.708 0.262546 -4.15271 0
M  V30 5103 H 479.584 0.78844 -5.43208 0
M  V30 5104 H 479.845 1.81537 -4.03109 0
M  V30 5105 N 478.904 1.54736 -0.299062 0
M  V30 5106 C 480.32 1.59507 0.0543849 0
M  V30 5107 C 480.52 1.31606 1.52585 0
M  V30 5108 O 479.576 1.08853 2.27832 0
M  V30 5109 C 480.889 2.98751 -0.34181 0
M  V30 5110 C 482.437 3.1165 -0.290414 0
M  V30 5111 C 482.912 4.53199 -0.661402 0
M  V30 5112 N 484.403 4.59114 -0.613863 0
M  V30 5113 C 485.138 5.66709 -0.873417 0
M  V30 5114 N 484.634 6.82349 -1.19884 0
M  V30 5115 N 486.427 5.56369 -0.800608 0
M  V30 5116 H 478.578 1.71133 -1.25806 0
M  V30 5117 H 480.841 0.799186 -0.509908 0
M  V30 5118 H 480.547 3.24085 -1.36608 0
M  V30 5119 H 480.421 3.75961 0.305508 0
M  V30 5120 H 482.808 2.86066 0.724605 0
M  V30 5121 H 482.889 2.366 -0.972327 0
M  V30 5122 H 482.533 4.79513 -1.67422 0
M  V30 5123 H 482.463 5.26583 0.0425612 0
M  V30 5124 H 484.954 3.76053 -0.3732 0
M  V30 5125 H 485.267 7.60326 -1.38291 0
M  V30 5126 H 483.612 6.83906 -1.23685 0
M  V30 5127 H 486.803 4.64904 -0.546045 0
M  V30 5128 H 486.976 6.40139 -1.00626 0
M  V30 5129 N 480.382 0.0267497 1.57577 0
M  V30 5130 C 481.292 -0.971633 2.13533 0
M  V30 5131 C 482.308 -1.35868 1.08701 0
M  V30 5132 O 483.484 -1.44058 1.40746 0
M  V30 5133 C 480.549 -2.23622 2.64941 0
M  V30 5134 C 479.61 -1.90982 3.8448 0
M  V30 5135 C 478.843 -3.11411 4.33427 0
M  V30 5136 O 479.066 -4.23992 3.81558 0
M  V30 5137 O 478 -2.93848 5.25297 0
M  V30 5138 H 481.826 -0.525853 2.99113 0
M  V30 5139 H 479.411 -0.193712 1.48139 0
M  V30 5140 H 481.293 -2.97864 2.98086 0
M  V30 5141 H 479.968 -2.67386 1.82446 0
M  V30 5142 H 478.875 -1.14132 3.56265 0
M  V30 5143 H 480.208 -1.52036 4.6813 0
M  V30 5144 N 481.861 -1.55662 -0.24637 0
M  V30 5145 C 483.108 -1.77519 -0.974335 0
M  V30 5146 C 483.436 -0.591165 -1.85298 0
M  V30 5147 O 482.691 0.425497 -1.91018 0
M  V30 5148 C 482.99 -3.04885 -1.86494 0
M  V30 5149 C 482.656 -4.36209 -1.14161 0
M  V30 5150 C 481.318 -4.71896 -0.941701 0
M  V30 5151 C 483.67 -5.17391 -0.628957 0
M  V30 5152 C 480.998 -5.86299 -0.216852 0
M  V30 5153 C 483.35 -6.32546 0.0824273 0
M  V30 5154 C 482.014 -6.66853 0.293807 0
M  V30 5155 H 481.284 -0.649588 -0.356535 0
M  V30 5156 H 483.931 -1.89934 -0.244394 0
M  V30 5157 H 482.236 -2.87484 -2.66196 0
M  V30 5158 H 483.933 -3.18994 -2.42989 0
M  V30 5159 H 480.523 -4.08174 -1.30736 0
M  V30 5160 H 484.707 -4.90276 -0.770943 0
M  V30 5161 H 479.963 -6.11385 -0.0426124 0
M  V30 5162 H 484.137 -6.94693 0.487292 0
M  V30 5163 H 481.764 -7.55349 0.857428 0
M  V30 5164 N 483.339 0.512053 -1.4905 0
M  V30 5165 C 484.286 1.6148 -1.64902 0
M  V30 5166 C 485.256 1.58687 -0.490673 0
M  V30 5167 O 486.441 1.76842 -0.71636 0
M  V30 5168 C 483.581 2.99676 -1.71139 0
M  V30 5169 C 482.694 3.12568 -2.98203 0
M  V30 5170 C 481.829 4.4143 -2.95487 0
M  V30 5171 C 480.868 4.47916 -4.17179 0
M  V30 5172 N 480.005 5.68191 -4.12437 0
M  V30 5173 H 484.845 1.47271 -2.59066 0
M  V30 5174 H 482.382 0.716713 -1.28459 0
M  V30 5175 H 484.34 3.79761 -1.72736 0
M  V30 5176 H 482.97 3.12614 -0.804508 0
M  V30 5177 H 482.022 2.25618 -3.06269 0
M  V30 5178 H 483.334 3.1322 -3.88194 0
M  V30 5179 H 482.488 5.29825 -2.95585 0
M  V30 5180 H 481.227 4.43326 -2.03256 0
M  V30 5181 H 480.232 3.57925 -4.17337 0
M  V30 5182 H 481.457 4.47744 -5.1059 0
M  V30 5183 H 479.403 5.7095 -3.23036 0
M  V30 5184 H 479.32 5.70413 -4.96151 0
M  V30 5185 H 480.588 6.58823 -4.16621 0
M  V30 5186 N 484.817 1.37938 0.762283 0
M  V30 5187 C 486.045 1.36883 1.55147 0
M  V30 5188 C 486.46 -0.0435348 1.8875 0
M  V30 5189 O 485.817 -1.00786 1.52146 0
M  V30 5190 C 485.868 2.21624 2.85596 0
M  V30 5191 O 485.589 3.57358 2.5343 0
M  V30 5192 C 487.09 2.28653 3.7978 0
M  V30 5193 H 484.31 0.468521 0.480343 0
M  V30 5194 H 486.854 1.81404 0.944079 0
M  V30 5195 H 485.009 1.80588 3.42734 0
M  V30 5196 H 485.423 4.01883 3.37032 0
M  V30 5197 H 486.897 2.9225 4.68288 0
M  V30 5198 H 487.374 1.29767 4.19592 0
M  V30 5199 H 487.98 2.70043 3.28568 0
M  V30 5200 N 486.295 -0.989507 1.22664 0
M  V30 5201 C 487.523 -1.76496 1.07967 0
M  V30 5202 C 487.938 -1.85148 -0.369543 0
M  V30 5203 O 487.295 -1.32408 -1.25596 0
M  V30 5204 C 487.346 -3.19642 1.68853 0
M  V30 5205 O 487.067 -3.11453 3.08105 0
M  V30 5206 C 488.568 -4.13621 1.59475 0
M  V30 5207 H 485.788 -0.55418 0.378319 0
M  V30 5208 H 488.332 -1.24378 1.62328 0
M  V30 5209 H 486.487 -3.68816 1.18547 0
M  V30 5210 H 486.901 -4.01499 3.37489 0
M  V30 5211 H 488.375 -5.11801 2.06795 0
M  V30 5212 H 488.852 -4.35718 0.55191 0
M  V30 5213 H 489.458 -3.70346 2.09103 0
M  V30 5214 N 487.773 -1.03688 -1.18687 0
M  V30 5215 C 488.721 -0.618292 -2.24232 0
M  V30 5216 C 489.715 0.353045 -1.6568 0
M  V30 5217 O 490.921 0.220749 -1.78641 0
M  V30 5218 H 487.296 -0.181711 -0.729716 0
M  V30 5219 H 489.267 -1.51893 -2.56848 0
M  V30 5220 C 488.016 0.00677342 -3.47699 0
M  V30 5221 H 487.339 -0.731692 -3.93047 0
M  V30 5222 H 488.779 0.262492 -4.23187 0
M  V30 5223 C 487.238 1.25572 -3.12623 0
M  V30 5224 O 487.768 2.34691 -3.26011 0
M  V30 5225 N 485.974 1.14755 -2.66982 0
M  V30 5226 H 485.521 0.259601 -2.56289 0
M  V30 5227 H 485.479 1.98412 -2.43885 0
M  V30 5228 N 489.251 1.34841 -0.815825 0
M  V30 5229 C 490.667 1.51543 -0.500697 0
M  V30 5230 C 490.867 1.76261 0.976444 0
M  V30 5231 O 489.923 1.8094 1.76117 0
M  V30 5232 C 491.236 2.68487 -1.35407 0
M  V30 5233 C 492.784 2.82368 -1.35046 0
M  V30 5234 C 493.259 4.02347 -2.18816 0
M  V30 5235 N 494.75 4.09542 -2.16402 0
M  V30 5236 C 495.485 5.01517 -2.77971 0
M  V30 5237 N 494.981 5.98763 -3.48503 0
M  V30 5238 N 496.774 4.94334 -2.67563 0
M  V30 5239 H 488.925 1.17055 -1.77234 0
M  V30 5240 H 491.188 0.573481 -0.754866 0
M  V30 5241 H 490.894 2.56829 -2.40274 0
M  V30 5242 H 490.768 3.63321 -1.01377 0
M  V30 5243 H 493.155 2.93471 -0.309604 0
M  V30 5244 H 493.236 1.88363 -1.73069 0
M  V30 5245 H 492.88 3.92004 -3.22948 0
M  V30 5246 H 492.81 4.95551 -1.78148 0
M  V30 5247 H 495.301 3.39932 -1.65091 0
M  V30 5248 H 495.614 6.6556 -3.92747 0
M  V30 5249 H 493.959 5.98909 -3.52609 0
M  V30 5250 H 497.15 4.1732 -2.12041 0
M  V30 5251 H 497.323 5.6582 -3.15834 0
M  V30 5252 N 490.729 0.570148 1.46925 0
M  V30 5253 C 491.659 -0.158274 2.32963 0
M  V30 5254 C 492.64 -0.896093 1.44583 0
M  V30 5255 O 493.825 -0.874022 1.7342 0
M  V30 5256 C 490.955 -1.18055 3.26619 0
M  V30 5257 C 489.909 -0.558379 4.24342 0
M  V30 5258 C 489.235 -1.68623 5.07415 0
M  V30 5259 C 490.535 0.496295 5.19937 0
M  V30 5260 H 492.229 0.560046 2.94115 0
M  V30 5261 H 489.775 0.270775 1.41431 0
M  V30 5262 H 491.728 -1.69841 3.85658 0
M  V30 5263 H 490.452 -1.92899 2.63548 0
M  V30 5264 H 489.111 -0.0617157 3.66548 0
M  V30 5265 H 488.759 -2.42402 4.40738 0
M  V30 5266 H 488.459 -1.27564 5.73586 0
M  V30 5267 H 489.983 -2.20709 5.69315 0
M  V30 5268 H 491.397 0.0640052 5.73264 0
M  V30 5269 H 489.794 0.82649 5.94381 0
M  V30 5270 H 490.864 1.38735 4.6463 0
M  V30 5271 N 492.207 -1.54576 0.307264 0
M  V30 5272 C 493.137 -2.26708 -0.55907 0
M  V30 5273 C 494.118 -1.26893 -1.1328 0
M  V30 5274 O 495.303 -1.55677 -1.16097 0
M  V30 5275 C 492.433 -3.01259 -1.72801 0
M  V30 5276 C 491.387 -4.08275 -1.28435 0
M  V30 5277 C 490.713 -4.70575 -2.53895 0
M  V30 5278 C 492.013 -5.2068 -0.411038 0
M  V30 5279 H 493.707 -2.9937 0.042576 0
M  V30 5280 H 491.253 -1.43983 0.0219173 0
M  V30 5281 H 493.206 -3.50444 -2.34023 0
M  V30 5282 H 491.93 -2.26187 -2.356 0
M  V30 5283 H 490.589 -3.59949 -0.695161 0
M  V30 5284 H 490.237 -3.92136 -3.15021 0
M  V30 5285 H 489.937 -5.42854 -2.24908 0
M  V30 5286 H 491.461 -5.22527 -3.15908 0
M  V30 5287 H 492.875 -5.65721 -0.929097 0
M  V30 5288 H 491.272 -5.99716 -0.214664 0
M  V30 5289 H 492.342 -4.81629 0.562287 0
M  V30 5290 N 493.685 -0.035106 -1.57561 0
M  V30 5291 C 494.615 0.942993 -2.13612 0
M  V30 5292 C 495.596 1.33531 -1.05373 0
M  V30 5293 O 496.781 1.41287 -1.33235 0
M  V30 5294 C 493.911 2.22332 -2.66807 0
M  V30 5295 C 492.865 1.97156 -3.79886 0
M  V30 5296 C 492.191 3.31506 -4.19533 0
M  V30 5297 C 493.491 1.30596 -5.05709 0
M  V30 5298 H 495.185 0.476179 -2.95589 0
M  V30 5299 H 492.731 0.227602 -1.4219 0
M  V30 5300 H 494.684 2.91142 -3.04654 0
M  V30 5301 H 493.408 2.7119 -1.81999 0
M  V30 5302 H 492.067 1.30763 -3.42486 0
M  V30 5303 H 491.715 3.78134 -3.31698 0
M  V30 5304 H 491.415 3.15465 -4.95738 0
M  V30 5305 H 492.939 4.01574 -4.59968 0
M  V30 5306 H 494.353 1.89416 -5.41105 0
M  V30 5307 H 492.75 1.24934 -5.86951 0
M  V30 5308 H 493.82 0.279742 -4.84092 0
M  V30 5309 N 495.163 1.55791 0.238111 0
M  V30 5310 C 496.391 1.82098 0.982233 0
M  V30 5311 C 496.806 0.612025 1.78605 0
M  V30 5312 O 496.163 -0.419381 1.77616 0
M  V30 5313 C 496.214 3.0673 1.91309 0
M  V30 5314 O 495.935 4.2296 1.14179 0
M  V30 5315 C 497.436 3.45903 2.77248 0
M  V30 5316 H 494.656 0.605748 0.288635 0
M  V30 5317 H 497.2 2.02862 0.258341 0
M  V30 5318 H 495.355 2.87991 2.59114 0
M  V30 5319 H 495.769 4.93653 1.7722 0
M  V30 5320 H 497.243 4.36189 3.38295 0
M  V30 5321 H 497.72 2.66891 3.48806 0
M  V30 5322 H 498.326 3.67024 2.14881 0
M  V30 5323 N 496.642 -0.504142 1.49319 0
M  V30 5324 C 497.89 -1.25598 1.58334 0
M  V30 5325 C 498.211 -1.93114 0.270538 0
M  V30 5326 O 497.481 -1.82585 -0.709891 0
M  V30 5327 H 496.061 -0.466571 0.58337 0
M  V30 5328 H 498.723 -0.584547 1.85928 0
M  V30 5329 H 497.819 -2.02159 2.37778 0
M  V30 5330 N 498.12 -1.38341 -0.754957 0
M  V30 5331 C 499.348 -1.37704 -1.54419 0
M  V30 5332 C 499.763 0.0335243 -1.8877 0
M  V30 5333 O 499.12 0.999773 -1.52679 0
M  V30 5334 C 499.171 -2.23136 -2.84416 0
M  V30 5335 O 498.892 -3.58697 -2.51531 0
M  V30 5336 C 500.393 -2.30664 -3.78562 0
M  V30 5337 H 497.613 -0.471061 -0.477852 0
M  V30 5338 H 500.157 -1.81902 -0.934446 0
M  V30 5339 H 498.312 -1.82403 -3.41772 0
M  V30 5340 H 498.726 -4.03665 -3.34896 0
M  V30 5341 H 500.2 -2.9473 -4.66732 0
M  V30 5342 H 500.677 -1.3199 -4.18898 0
M  V30 5343 H 501.283 -2.71781 -3.27131 0
M  V30 5344 N 499.598 0.982988 -1.23187 0
M  V30 5345 C 501.009 1.53847 -1.05773 0
M  V30 5346 C 501.36 1.92568 0.375744 0
M  V30 5347 O 500.485 1.75783 1.26211 0
M  V30 5348 C 501.08 2.79567 -1.91384 0
M  V30 5349 C 499.639 3.31524 -1.78238 0
M  V30 5350 C 498.786 2.04534 -1.87246 0
M  V30 5351 H 501.737 0.802962 -1.36888 0
M  V30 5352 H 501.758 3.52317 -1.43711 0
M  V30 5353 H 501.27 2.51353 -2.95708 0
M  V30 5354 H 499.371 3.64623 -0.766875 0
M  V30 5355 H 499.484 4.01457 -2.61475 0
M  V30 5356 H 497.848 2.1855 -1.30797 0
M  V30 5357 H 498.631 1.78706 -2.9312 0
M  V30 5358 N 501.076 1.04316 1.18135 0
M  V30 5359 C 502.006 0.657299 2.24058 0
M  V30 5360 C 502.987 -0.340678 1.66654 0
M  V30 5361 O 504.172 -0.220223 1.92947 0
M  V30 5362 C 501.302 0.0220715 3.47293 0
M  V30 5363 C 500.256 0.943857 4.17463 0
M  V30 5364 C 499.582 0.172973 5.3442 0
M  V30 5365 C 500.882 2.26409 4.70677 0
M  V30 5366 H 502.576 1.5428 2.56589 0
M  V30 5367 H 500.122 0.743263 1.23335 0
M  V30 5368 H 502.075 -0.259607 4.206 0
M  V30 5369 H 500.799 -0.898323 3.14003 0
M  V30 5370 H 499.458 1.20996 3.46057 0
M  V30 5371 H 499.106 -0.749907 4.97379 0
M  V30 5372 H 498.806 0.787098 5.82304 0
M  V30 5373 H 500.33 -0.101628 6.10515 0
M  V30 5374 H 501.744 2.04294 5.35665 0
M  V30 5375 H 500.141 2.8314 5.29105 0
M  V30 5376 H 501.211 2.90883 3.87962 0
M  V30 5377 N 502.554 -1.34406 0.822964 0
M  V30 5378 C 503.486 -2.28305 0.202375 0
M  V30 5379 C 504.499 -1.5103 -0.60777 0
M  V30 5380 O 505.688 -1.73057 -0.437444 0
M  V30 5381 C 502.788 -3.30836 -0.734911 0
M  V30 5382 C 501.961 -4.37388 0.0324177 0
M  V30 5383 C 501.02 -5.1968 -0.825803 0
M  V30 5384 O 500.046 -5.68556 -0.270771 0
M  V30 5385 N 501.248 -5.39393 -2.14558 0
M  V30 5386 H 504.013 -2.82201 1.00909 0
M  V30 5387 H 501.574 -1.4693 0.67993 0
M  V30 5388 H 503.566 -3.82786 -1.31365 0
M  V30 5389 H 502.136 -2.77334 -1.44238 0
M  V30 5390 H 501.356 -3.86152 0.792469 0
M  V30 5391 H 502.644 -5.05702 0.560633 0
M  V30 5392 H 502.042 -5.01357 -2.62025 0
M  V30 5393 H 500.599 -5.94461 -2.67318 0
M  V30 5394 N 504.032 -0.577932 -1.46621 0
M  V30 5395 C 504.98 0.170882 -2.31971 0
M  V30 5396 C 505.974 0.889086 -1.44193 0
M  V30 5397 O 507.18 0.808017 -1.60845 0
M  V30 5398 H 503.555 0.0739763 -0.748353 0
M  V30 5399 H 505.526 -0.567856 -2.92947 0
M  V30 5400 C 504.275 1.17438 -3.27267 0
M  V30 5401 H 503.598 0.63116 -3.94787 0
M  V30 5402 H 505.038 1.66882 -3.89778 0
M  V30 5403 C 503.497 2.23292 -2.52274 0
M  V30 5404 O 504.027 3.30567 -2.28229 0
M  V30 5405 N 502.233 1.97772 -2.12919 0
M  V30 5406 H 501.78 1.10545 -2.32675 0
M  V30 5407 H 501.738 2.68809 -1.63062 0
M  V30 5408 N 505.51 1.54411 -0.315457 0
M  V30 5409 C 506.458 2.25514 0.569771 0
M  V30 5410 C 507.452 1.2663 1.12522 0
M  V30 5411 O 508.658 1.44434 1.07419 0
M  V30 5412 H 505.033 0.724257 0.202376 0
M  V30 5413 H 507.004 2.98354 -0.0522895 0
M  V30 5414 C 505.753 3.02004 1.72305 0
M  V30 5415 H 505.076 3.77906 1.30488 0
M  V30 5416 H 506.516 3.55014 2.31821 0
M  V30 5417 C 504.975 2.09822 2.63583 0
M  V30 5418 O 505.505 1.67574 3.65078 0
M  V30 5419 N 503.711 1.75478 2.31637 0
M  V30 5420 H 503.258 2.10032 1.49145 0
M  V30 5421 H 503.216 1.14079 2.92973 0
M  V30 5422 N 506.988 0.0434614 1.5754 0
M  V30 5423 C 507.918 -0.931651 2.14109 0
M  V30 5424 C 508.899 -1.32971 1.06079 0
M  V30 5425 O 510.084 -1.40579 1.33982 0
M  V30 5426 C 507.214 -2.20914 2.67982 0
M  V30 5427 C 506.168 -1.95139 3.80926 0
M  V30 5428 C 505.494 -3.29276 4.21285 0
M  V30 5429 C 506.794 -1.27913 5.06395 0
M  V30 5430 H 508.488 -0.460497 2.95837 0
M  V30 5431 H 506.034 -0.220058 1.42309 0
M  V30 5432 H 507.987 -2.89522 3.06194 0
M  V30 5433 H 506.711 -2.70221 1.83434 0
M  V30 5434 H 505.37 -1.28945 3.43175 0
M  V30 5435 H 505.018 -3.76369 3.33699 0
M  V30 5436 H 504.718 -3.12831 4.97404 0
M  V30 5437 H 506.242 -3.99129 4.62091 0
M  V30 5438 H 507.656 -1.86544 5.42102 0
M  V30 5439 H 506.053 -1.2182 5.87605 0
M  V30 5440 H 507.123 -0.254066 4.84234 0
M  V30 5441 N 508.466 -1.55915 -0.229846 0
M  V30 5442 C 509.416 -1.8813 -1.28807 0
M  V30 5443 C 510.4 -0.743621 -1.42685 0
M  V30 5444 O 511.592 -1.00588 -1.4564 0
M  V30 5445 C 508.721 -2.19431 -2.64017 0
M  V30 5446 C 507.807 -3.39569 -2.54074 0
M  V30 5447 N 508.198 -4.58404 -2.13774 0
M  V30 5448 C 506.496 -3.43019 -2.85051 0
M  V30 5449 C 507.197 -5.40557 -2.1488 0
M  V30 5450 N 506.173 -4.80054 -2.55047 0
M  V30 5451 H 509.975 -2.77527 -0.967261 0
M  V30 5452 H 507.489 -1.5637 -0.438433 0
M  V30 5453 H 509.486 -2.40681 -3.40409 0
M  V30 5454 H 508.146 -1.31341 -2.9695 0
M  V30 5455 H 509.157 -4.83716 -1.8504 0
M  V30 5456 H 505.834 -2.65249 -3.22411 0
M  V30 5457 H 507.224 -6.45666 -1.85918 0
M  V30 5458 N 509.944 0.496216 -1.49584 0
M  V30 5459 C 510.854 1.62352 -1.69349 0
M  V30 5460 C 511.87 1.64184 -0.576147 0
M  V30 5461 O 513.046 1.82517 -0.85144 0
M  V30 5462 C 510.111 2.98698 -1.76013 0
M  V30 5463 C 509.172 3.07454 -2.99617 0
M  V30 5464 C 508.405 4.37296 -3.05953 0
M  V30 5465 O 508.628 5.2637 -2.19752 0
M  V30 5466 O 507.562 4.51124 -3.9846 0
M  V30 5467 H 511.388 1.48606 -2.64859 0
M  V30 5468 H 508.973 0.673022 -1.33382 0
M  V30 5469 H 510.855 3.79725 -1.82721 0
M  V30 5470 H 509.53 3.12696 -0.836828 0
M  V30 5471 H 508.437 2.25597 -2.98424 0
M  V30 5472 H 509.77 2.98385 -3.91443 0
M  V30 5473 N 511.423 1.38739 0.74761 0
M  V30 5474 C 512.353 1.39173 1.87492 0
M  V30 5475 C 513.334 0.256794 1.6815 0
M  V30 5476 O 514.519 0.460762 1.88655 0
M  V30 5477 C 511.649 1.22197 3.25093 0
M  V30 5478 C 510.603 2.32957 3.59047 0
M  V30 5479 C 509.929 2.01082 4.95449 0
M  V30 5480 C 511.229 3.75237 3.6331 0
M  V30 5481 H 512.923 2.3351 1.87386 0
M  V30 5482 H 510.469 1.12399 0.900134 0
M  V30 5483 H 512.422 1.21124 4.03617 0
M  V30 5484 H 511.146 0.243241 3.25693 0
M  V30 5485 H 509.805 2.33226 2.82845 0
M  V30 5486 H 509.453 1.01678 4.92616 0
M  V30 5487 H 509.153 2.75267 5.19136 0
M  V30 5488 H 510.677 2.01638 5.76346 0
M  V30 5489 H 512.091 3.76966 4.31937 0
M  V30 5490 H 510.488 4.48677 3.98509 0
M  V30 5491 H 511.558 4.07122 2.634 0
M  V30 5492 N 512.901 -0.976442 1.23707 0
M  V30 5493 C 514.147 -1.72158 1.08319 0
M  V30 5494 C 514.502 -1.88701 -0.375445 0
M  V30 5495 O 513.795 -1.43107 -1.274 0
M  V30 5496 C 513.989 -3.11814 1.74662 0
M  V30 5497 C 513.818 -3.08892 3.26827 0
M  V30 5498 C 512.588 -3.13861 3.96004 0
M  V30 5499 C 514.786 -2.9175 4.2354 0
M  V30 5500 N 512.768 -3.00867 5.35119 0
M  V30 5501 C 514.139 -2.8696 5.49595 0
M  V30 5502 C 516.194 -2.76265 4.14225 0
M  V30 5503 C 514.897 -2.68268 6.67401 0
M  V30 5504 C 516.923 -2.58938 5.317 0
M  V30 5505 C 516.285 -2.54849 6.56682 0
M  V30 5506 H 512.384 -0.638896 0.450927 0
M  V30 5507 H 514.968 -1.15835 1.56494 0
M  V30 5508 H 513.139 -3.66347 1.29014 0
M  V30 5509 H 514.871 -3.74984 1.52215 0
M  V30 5510 H 511.626 -3.22198 3.4711 0
M  V30 5511 H 512.05 -2.97634 6.08065 0
M  V30 5512 H 516.692 -2.78213 3.18366 0
M  V30 5513 H 514.41 -2.65063 7.63392 0
M  V30 5514 H 517.996 -2.47914 5.26336 0
M  V30 5515 H 516.876 -2.41611 7.46052 0
M  V30 5516 N 514.379 -1.04941 -1.1758 0
M  V30 5517 C 515.604 -0.778253 -1.92245 0
M  V30 5518 C 516.029 0.659707 -1.76152 0
M  V30 5519 O 515.387 1.45803 -1.07755 0
M  V30 5520 C 515.435 -1.16051 -3.41416 0
M  V30 5521 O 514.539 -0.291153 -4.11371 0
M  V30 5522 H 513.88 -0.285619 -0.599431 0
M  V30 5523 H 516.41 -1.40159 -1.49052 0
M  V30 5524 H 516.42 -1.12619 -3.92149 0
M  V30 5525 H 515.095 -2.208 -3.52449 0
M  V30 5526 H 513.672 -0.385851 -3.70898 0
M  V30 5527 N 515.857 1.33968 -0.830081 0
M  V30 5528 C 516.787 2.31911 -0.271911 0
M  V30 5529 C 517.768 1.58571 0.61556 0
M  V30 5530 O 518.953 1.86514 0.540946 0
M  V30 5531 C 516.083 3.42737 0.561146 0
M  V30 5532 C 515.037 4.27383 -0.229789 0
M  V30 5533 C 514.363 5.29742 0.726463 0
M  V30 5534 C 515.663 5.02 -1.44197 0
M  V30 5535 H 517.357 2.78844 -1.09025 0
M  V30 5536 H 514.903 1.34061 -0.52571 0
M  V30 5537 H 516.856 4.10276 0.961867 0
M  V30 5538 H 515.58 2.94471 1.41261 0
M  V30 5539 H 514.239 3.61456 -0.611964 0
M  V30 5540 H 513.887 4.77736 1.57408 0
M  V30 5541 H 513.587 5.87255 0.20142 0
M  V30 5542 H 515.111 6.00149 1.12489 0
M  V30 5543 H 516.525 5.62355 -1.11488 0
M  V30 5544 H 514.922 5.69122 -1.90317 0
M  V30 5545 H 515.992 4.31281 -2.2164 0
M  V30 5546 N 517.335 0.585699 1.46312 0
M  V30 5547 C 518.265 -0.133556 2.33118 0
M  V30 5548 C 519.246 -0.880707 1.45525 0
M  V30 5549 O 520.431 -0.855579 1.74337 0
M  V30 5550 C 517.561 -1.14585 3.27853 0
M  V30 5551 C 516.515 -0.513341 4.2491 0
M  V30 5552 C 515.841 -1.63231 5.09175 0
M  V30 5553 C 517.141 0.551413 5.19381 0
M  V30 5554 H 518.835 0.59121 2.93505 0
M  V30 5555 H 516.381 0.285761 1.41136 0
M  V30 5556 H 518.334 -1.65741 3.87438 0
M  V30 5557 H 517.058 -1.90093 2.65579 0
M  V30 5558 H 515.717 -0.0228349 3.66593 0
M  V30 5559 H 515.365 -2.37713 4.43285 0
M  V30 5560 H 515.065 -1.21473 5.74907 0
M  V30 5561 H 516.589 -2.14658 5.71624 0
M  V30 5562 H 518.003 0.124804 5.73164 0
M  V30 5563 H 516.4 0.889486 5.93471 0
M  V30 5564 H 517.47 1.43655 4.63132 0
M  V30 5565 N 518.813 -1.54241 0.323641 0
M  V30 5566 C 519.761 -2.25813 -0.557804 0
M  V30 5567 C 520.755 -1.27225 -1.11849 0
M  V30 5568 O 521.961 -1.45001 -1.06652 0
M  V30 5569 H 518.336 -0.72532 -0.198532 0
M  V30 5570 H 520.307 -2.98322 0.0681112 0
M  V30 5571 C 519.056 -3.02913 -1.70701 0
M  V30 5572 H 518.379 -3.78593 -1.28482 0
M  V30 5573 H 519.819 -3.56238 -2.29935 0
M  V30 5574 C 518.278 -2.11217 -2.62467 0
M  V30 5575 O 518.808 -1.69508 -3.64184 0
M  V30 5576 N 517.014 -1.76704 -2.30703 0
M  V30 5577 H 516.561 -2.1082 -1.48029 0
M  V30 5578 H 516.519 -1.15631 -2.92364 0
M  V30 5579 N 520.291 -0.0518155 -1.57515 0
M  V30 5580 C 521.538 0.621823 -1.92716 0
M  V30 5581 C 521.866 1.70813 -0.930229 0
M  V30 5582 O 521.121 1.95616 0.0573708 0
M  V30 5583 C 521.42 1.25607 -3.34601 0
M  V30 5584 C 521.086 0.297901 -4.49915 0
M  V30 5585 C 519.748 0.034243 -4.81188 0
M  V30 5586 C 522.1 -0.358738 -5.19964 0
M  V30 5587 C 519.428 -0.893479 -5.79857 0
M  V30 5588 C 521.78 -1.27466 -6.19625 0
M  V30 5589 C 520.444 -1.54698 -6.49326 0
M  V30 5590 H 519.714 0.227541 -0.705199 0
M  V30 5591 H 522.361 -0.118432 -1.91133 0
M  V30 5592 H 520.666 2.07161 -3.32553 0
M  V30 5593 H 522.363 1.78424 -3.59118 0
M  V30 5594 H 518.953 0.513581 -4.25512 0
M  V30 5595 H 523.137 -0.168133 -4.96015 0
M  V30 5596 H 518.393 -1.11193 -6.01204 0
M  V30 5597 H 522.567 -1.78953 -6.73015 0
M  V30 5598 H 520.194 -2.26748 -7.25596 0
M  V30 5599 N 521.769 1.56035 0.221574 0
M  V30 5600 C 522.699 1.95434 1.2778 0
M  V30 5601 C 523.68 0.822564 1.48889 0
M  V30 5602 O 524.865 1.08486 1.61072 0
M  V30 5603 C 521.995 2.27102 2.62759 0
M  V30 5604 C 520.949 3.4277 2.56306 0
M  V30 5605 C 520.275 3.60043 3.95314 0
M  V30 5606 C 521.575 4.77742 2.11093 0
M  V30 5607 H 523.269 2.83912 0.950504 0
M  V30 5608 H 520.815 1.36596 0.455791 0
M  V30 5609 H 522.768 2.53256 3.36807 0
M  V30 5610 H 521.492 1.35478 2.97176 0
M  V30 5611 H 520.151 3.16664 1.84715 0
M  V30 5612 H 519.799 2.65794 4.27039 0
M  V30 5613 H 519.499 4.37841 3.91879 0
M  V30 5614 H 521.023 3.88545 4.71025 0
M  V30 5615 H 522.437 5.03102 2.74885 0
M  V30 5616 H 520.834 5.58823 2.18716 0
M  V30 5617 H 521.904 4.731 1.06321 0
M  V30 5618 N 523.247 -0.488276 1.49845 0
M  V30 5619 C 524.177 -1.59675 1.70371 0
M  V30 5620 C 525.158 -1.60878 0.552473 0
M  V30 5621 O 526.343 -1.77417 0.78973 0
M  V30 5622 C 523.473 -2.98098 1.782 0
M  V30 5623 C 522.427 -3.11761 2.93239 0
M  V30 5624 C 521.753 -4.51661 2.86193 0
M  V30 5625 C 523.053 -2.90589 4.33999 0
M  V30 5626 H 524.747 -1.42752 2.63177 0
M  V30 5627 H 522.293 -0.685317 1.26647 0
M  V30 5628 H 524.246 -3.75555 1.91144 0
M  V30 5629 H 522.97 -3.16138 0.820018 0
M  V30 5630 H 521.629 -2.36732 2.79917 0
M  V30 5631 H 521.277 -4.66595 1.87877 0
M  V30 5632 H 520.977 -4.61742 3.63412 0
M  V30 5633 H 522.501 -5.31162 3.01163 0
M  V30 5634 H 523.915 -3.57807 4.47936 0
M  V30 5635 H 522.312 -3.1213 5.12538 0
M  V30 5636 H 523.382 -1.86595 4.4756 0
M  V30 5637 N 524.725 -1.39134 -0.740242 0
M  V30 5638 C 526.136 -1.32208 -1.31825 0
M  V30 5639 C 526.487 0.0159919 -1.96193 0
M  V30 5640 O 525.612 0.918111 -1.95958 0
M  V30 5641 C 526.207 -2.39436 -2.39699 0
M  V30 5642 C 524.766 -2.36048 -2.93187 0
M  V30 5643 C 523.913 -2.21599 -1.66701 0
M  V30 5644 H 526.864 -1.49298 -0.538133 0
M  V30 5645 H 526.885 -2.05922 -3.19963 0
M  V30 5646 H 526.397 -3.36811 -1.92821 0
M  V30 5647 H 524.498 -1.42295 -3.44359 0
M  V30 5648 H 524.611 -3.30704 -3.46658 0
M  V30 5649 H 522.975 -1.68681 -1.90837 0
M  V30 5650 H 523.758 -3.20936 -1.21882 0
M  V30 5651 N 526.204 0.969867 -1.24223 0
M  V30 5652 C 527.481 1.68774 -0.988664 0
M  V30 5653 C 527.861 2.05342 0.489673 0
M  V30 5654 O 527.209 1.75486 1.46345 0
M  V30 5655 C 527.419 2.92135 -1.90941 0
M  V30 5656 C 528.767 3.64422 -2.17903 0
M  V30 5657 O 529.791 3.02188 -1.88576 0
M  V30 5658 O 528.65 4.76446 -2.67697 0
M  V30 5659 H 525.744 0.737736 -0.37373 0
M  V30 5660 H 528.29 1.02415 -1.35312 0
M  V30 5661 H 527.062 2.61788 -2.90831 0
M  V30 5662 H 526.685 3.66228 -1.54798 0
M  V30 5663 N 527.682 1.05563 1.17022 0
M  V30 5664 C 528.928 0.769074 1.87652 0
M  V30 5665 C 529.261 -0.702326 1.81055 0
M  V30 5666 O 528.536 -1.5139 1.22112 0
M  V30 5667 C 528.819 1.25492 3.37526 0
M  V30 5668 C 528.672 2.78953 3.52853 0
M  V30 5669 C 529.991 0.856919 4.31677 0
M  V30 5670 H 527.11 0.280854 0.681388 0
M  V30 5671 H 529.752 1.31027 1.37593 0
M  V30 5672 H 527.902 0.794516 3.80289 0
M  V30 5673 H 529.574 3.33146 3.19079 0
M  V30 5674 H 527.817 3.18046 2.95007 0
M  V30 5675 H 528.488 3.08011 4.58076 0
M  V30 5676 H 530.964 1.25334 3.96775 0
M  V30 5677 H 529.84 1.22443 5.35069 0
M  V30 5678 H 530.101 -0.238787 4.41455 0
M  V30 5679 N 529.16 -1.33526 0.837174 0
M  V30 5680 C 530.407 -1.97837 0.432064 0
M  V30 5681 C 530.735 -1.66324 -1.00829 0
M  V30 5682 O 529.99 -0.93448 -1.71948 0
M  V30 5683 C 530.289 -3.52367 0.597675 0
M  V30 5684 C 529.955 -4.03826 2.00587 0
M  V30 5685 C 528.617 -4.1759 2.39106 0
M  V30 5686 C 530.969 -4.31333 2.92576 0
M  V30 5687 C 528.297 -4.56195 3.68921 0
M  V30 5688 C 530.649 -4.7139 4.2187 0
M  V30 5689 C 529.313 -4.8336 4.60347 0
M  V30 5690 H 528.583 -0.723937 0.158104 0
M  V30 5691 H 531.23 -1.5923 1.06387 0
M  V30 5692 H 529.535 -3.91624 -0.117452 0
M  V30 5693 H 531.232 -4.00126 0.26454 0
M  V30 5694 H 527.822 -3.93586 1.69671 0
M  V30 5695 H 532.006 -4.20224 2.64056 0
M  V30 5696 H 527.262 -4.63655 3.9854 0
M  V30 5697 H 531.436 -4.91631 4.93226 0
M  V30 5698 H 529.063 -5.1303 5.60985 0
M  V30 5699 N 530.638 -0.59345 -1.46 0
M  V30 5700 C 531.586 0.146268 -2.3214 0
M  V30 5701 C 532.58 0.873743 -1.45128 0
M  V30 5702 O 533.786 0.790912 -1.61693 0
M  V30 5703 H 530.161 0.0660349 -0.749095 0
M  V30 5704 H 532.132 -0.598895 -2.92328 0
M  V30 5705 C 530.881 1.1396 -3.28494 0
M  V30 5706 H 530.204 0.589252 -3.95434 0
M  V30 5707 H 531.644 1.62738 -3.91526 0
M  V30 5708 C 530.103 2.20604 -2.54628 0
M  V30 5709 O 530.633 3.28128 -2.31722 0
M  V30 5710 N 528.839 1.95502 -2.15005 0
M  V30 5711 H 528.386 1.0807 -2.33834 0
M  V30 5712 H 528.344 2.67064 -1.65904 0
M  V30 5713 N 532.116 1.54067 -0.331816 0
M  V30 5714 C 533.341 2.05599 0.272705 0
M  V30 5715 C 533.766 1.2059 1.44359 0
M  V30 5716 O 533.124 0.216907 1.79998 0
M  V30 5717 C 533.172 3.54188 0.677021 0
M  V30 5718 O 532.276 3.72082 1.77844 0
M  V30 5719 H 531.617 0.662286 0.0476801 0
M  V30 5720 H 534.147 1.98826 -0.482624 0
M  V30 5721 H 534.157 3.96608 0.957415 0
M  V30 5722 H 532.832 4.15513 -0.179325 0
M  V30 5723 H 531.409 3.41566 1.49622 0
M  V30 5724 N 533.594 0.0601682 1.57485 0
M  V30 5725 C 534.557 -0.896373 2.10945 0
M  V30 5726 C 535.557 -1.23402 1.03095 0
M  V30 5727 O 536.747 -1.16921 1.29132 0
M  V30 5728 C 533.879 -2.20346 2.60116 0
M  V30 5729 H 535.072 -0.432778 2.96761 0
M  V30 5730 H 532.625 -0.188372 1.55161 0
M  V30 5731 H 533.36 -2.71268 1.7772 0
M  V30 5732 H 533.145 -1.9714 3.38937 0
M  V30 5733 H 534.635 -2.88846 3.01592 0
M  V30 5734 N 535.072 -1.5615 -0.213296 0
M  V30 5735 C 536.349 -1.70349 -0.961281 0
M  V30 5736 C 536.729 -0.609791 -2.02101 0
M  V30 5737 O 536.077 0.381987 -2.25285 0
M  V30 5738 C 536.287 -3.11982 -1.56424 0
M  V30 5739 C 537.635 -3.71649 -2.05334 0
M  V30 5740 O 538.659 -3.14995 -1.66302 0
M  V30 5741 O 537.518 -4.71038 -2.77102 0
M  V30 5742 H 534.612 -0.694121 -0.449582 0
M  V30 5743 H 537.158 -1.68464 -0.204426 0
M  V30 5744 H 535.93 -3.83046 -0.799457 0
M  V30 5745 H 535.553 -3.18019 -2.38641 0
M  V30 5746 N 536.55 0.480323 -1.50102 0
M  V30 5747 C 537.827 1.24159 -1.51142 0
M  V30 5748 C 538.207 2.09605 -0.250818 0
M  V30 5749 O 537.555 2.15274 0.766118 0
M  V30 5750 C 537.765 2.08057 -2.80202 0
M  V30 5751 C 539.113 2.66556 -3.30504 0
M  V30 5752 O 540.137 2.18308 -2.81461 0
M  V30 5753 O 538.996 3.54442 -4.15973 0
M  V30 5754 H 536.09 0.562928 -0.605839 0
M  V30 5755 H 538.636 0.492899 -1.62384 0
M  V30 5756 H 537.408 1.45032 -3.6343 0
M  V30 5757 H 537.031 2.90079 -2.71919 0
M  V30 5758 N 538.028 1.39524 0.732853 0
M  V30 5759 C 539.275 1.36865 1.49246 0
M  V30 5760 C 539.603 -0.0347118 1.94469 0
M  V30 5761 O 538.858 -1.01596 1.67262 0
M  V30 5762 C 539.157 2.28916 2.74468 0
M  V30 5763 C 538.823 3.76506 2.481 0
M  V30 5764 C 537.485 4.16721 2.40619 0
M  V30 5765 C 539.837 4.69846 2.25598 0
M  V30 5766 C 537.165 5.48334 2.08679 0
M  V30 5767 C 539.517 6.01739 1.95174 0
M  V30 5768 C 538.181 6.41015 1.86163 0
M  V30 5769 H 537.451 0.500824 0.546129 0
M  V30 5770 H 540.098 1.72047 0.840958 0
M  V30 5771 H 538.403 1.86859 3.4437 0
M  V30 5772 H 540.1 2.2415 3.32502 0
M  V30 5773 H 536.69 3.44635 2.54803 0
M  V30 5774 H 540.874 4.39608 2.30344 0
M  V30 5775 H 536.13 5.77685 2.00226 0
M  V30 5776 H 540.304 6.73591 1.76771 0
M  V30 5777 H 537.931 7.42917 1.61179 0
M  V30 5778 N 539.506 -0.963266 1.24736 0
M  V30 5779 C 540.783 -1.68248 0.9976 0
M  V30 5780 C 541.163 -2.05599 -0.478776 0
M  V30 5781 O 540.511 -1.7626 -1.45412 0
M  V30 5782 C 540.721 -2.91118 1.92487 0
M  V30 5783 C 542.069 -3.63261 2.19833 0
M  V30 5784 O 543.093 -3.01184 1.90176 0
M  V30 5785 O 541.952 -4.75019 2.7022 0
M  V30 5786 H 539.046 -0.735744 0.377637 0
M  V30 5787 H 541.592 -1.01696 1.35853 0
M  V30 5788 H 540.364 -2.60242 2.92215 0
M  V30 5789 H 539.987 -3.65402 1.56738 0
M  V30 5790 N 540.985 -1.06182 -1.16461 0
M  V30 5791 C 542.21 -0.798599 -1.91408 0
M  V30 5792 C 542.635 0.640987 -1.76842 0
M  V30 5793 O 541.993 1.44652 -1.09296 0
M  V30 5794 C 542.041 -1.19665 -3.40165 0
M  V30 5795 O 541.145 -0.334768 -4.11039 0
M  V30 5796 H 540.486 -0.291961 -0.596368 0
M  V30 5797 H 543.016 -1.41732 -1.47557 0
M  V30 5798 H 543.026 -1.16772 -3.90933 0
M  V30 5799 H 541.701 -2.24526 -3.50087 0
M  V30 5800 H 540.278 -0.425168 -3.70468 0
M  V30 5801 N 542.463 1.3308 -0.844243 0
M  V30 5802 C 543.709 1.98304 -0.452453 0
M  V30 5803 C 544.064 1.65645 0.978746 0
M  V30 5804 O 543.357 0.928849 1.6758 0
M  V30 5805 C 543.551 3.52045 -0.616354 0
M  V30 5806 C 543.38 3.99643 -2.06193 0
M  V30 5807 C 542.15 4.27224 -2.69829 0
M  V30 5808 C 544.348 4.15471 -3.03131 0
M  V30 5809 N 542.33 4.60998 -4.05406 0
M  V30 5810 C 543.701 4.52665 -4.23668 0
M  V30 5811 C 545.756 3.97776 -2.99465 0
M  V30 5812 C 544.459 4.74011 -5.41023 0
M  V30 5813 C 546.485 4.20301 -4.16055 0
M  V30 5814 C 545.847 4.57801 -5.35348 0
M  V30 5815 H 541.946 0.752122 -0.214096 0
M  V30 5816 H 544.53 1.61096 -1.09344 0
M  V30 5817 H 542.701 3.884 -0.00513205 0
M  V30 5818 H 544.433 4.04228 -0.19548 0
M  V30 5819 H 541.188 4.18911 -2.20931 0
M  V30 5820 H 541.612 4.82087 -4.75312 0
M  V30 5821 H 546.254 3.67893 -2.08362 0
M  V30 5822 H 543.972 5.02753 -6.32665 0
M  V30 5823 H 547.558 4.08122 -4.14641 0
M  V30 5824 H 546.438 4.74884 -6.24063 0
M  V30 5825 N 543.941 0.601185 1.45683 0
M  V30 5826 C 545.188 0.0938811 2.02282 0
M  V30 5827 C 545.516 -1.27315 1.47041 0
M  V30 5828 O 544.771 -1.85193 0.632623 0
M  V30 5829 C 545.07 -0.00222425 3.574 0
M  V30 5830 C 544.736 1.29963 4.31764 0
M  V30 5831 C 543.398 1.65625 4.51798 0
M  V30 5832 C 545.75 2.1603 4.74321 0
M  V30 5833 C 543.078 2.87119 5.11644 0
M  V30 5834 C 545.43 3.36766 5.3551 0
M  V30 5835 C 544.094 3.72689 5.53768 0
M  V30 5836 H 543.364 0.0343535 0.740203 0
M  V30 5837 H 546.011 0.781522 1.74827 0
M  V30 5838 H 544.316 -0.773096 3.84097 0
M  V30 5839 H 546.013 -0.410794 3.9889 0
M  V30 5840 H 542.603 1.01204 4.1648 0
M  V30 5841 H 546.787 1.89778 4.58582 0
M  V30 5842 H 542.043 3.15065 5.2397 0
M  V30 5843 H 546.217 4.03713 5.67441 0
M  V30 5844 H 543.844 4.66918 5.99909 0
M  V30 5845 N 545.419 -1.53889 0.339982 0
M  V30 5846 C 546.696 -1.93084 -0.312719 0
M  V30 5847 C 547.076 -1.2712 -1.68534 0
M  V30 5848 O 546.424 -0.420835 -2.24591 0
M  V30 5849 C 546.634 -3.4683 -0.388558 0
M  V30 5850 C 547.982 -4.19732 -0.641088 0
M  V30 5851 O 549.006 -3.53075 -0.470818 0
M  V30 5852 O 547.865 -5.3781 -0.970685 0
M  V30 5853 H 544.959 -0.806784 -0.18174 0
M  V30 5854 H 547.505 -1.65137 0.390898 0
M  V30 5855 H 546.277 -3.87055 0.574821 0
M  V30 5856 H 545.9 -3.80933 -1.1391 0
M  V30 5857 N 546.897 -0.0685191 -1.57451 0
M  V30 5858 C 548.125 0.610462 -1.97689 0
M  V30 5859 C 548.54 1.63346 -0.946758 0
M  V30 5860 O 547.897 1.82377 0.0669868 0
M  V30 5861 C 547.948 1.28196 -3.38006 0
M  V30 5862 O 547.669 0.299906 -4.37072 0
M  V30 5863 C 549.17 2.04907 -3.931 0
M  V30 5864 H 546.39 0.165689 -0.650222 0
M  V30 5865 H 548.934 -0.139953 -2.04021 0
M  V30 5866 H 547.089 1.98348 -3.32771 0
M  V30 5867 H 547.503 0.78126 -5.18649 0
M  V30 5868 H 548.977 2.47287 -4.93511 0
M  V30 5869 H 549.454 2.9043 -3.29465 0
M  V30 5870 H 550.06 1.39629 -4.01726 0
M  V30 5871 N 548.375 1.56261 0.205012 0
M  V30 5872 C 549.323 1.94631 1.27364 0
M  V30 5873 C 550.317 0.830434 1.47649 0
M  V30 5874 O 551.523 1.01538 1.48627 0
M  V30 5875 H 547.898 0.618755 0.427371 0
M  V30 5876 H 549.869 2.83768 0.922941 0
M  V30 5877 C 548.618 2.29358 2.61324 0
M  V30 5878 H 547.941 3.14744 2.46528 0
M  V30 5879 H 549.381 2.60076 3.34868 0
M  V30 5880 C 547.84 1.12461 3.17575 0
M  V30 5881 O 548.37 0.394407 3.99759 0
M  V30 5882 N 546.576 0.904036 2.7618 0
M  V30 5883 H 546.123 1.49956 2.09454 0
M  V30 5884 H 546.081 0.123662 3.14157 0
M  V30 5885 N 549.853 -0.472356 1.50355 0
M  V30 5886 C 550.801 -1.59126 1.69651 0
M  V30 5887 C 551.795 -1.59793 0.56237 0
M  V30 5888 O 553.001 -1.63957 0.742832 0
M  V30 5889 H 549.376 -0.528008 0.535454 0
M  V30 5890 H 551.347 -1.40013 2.63513 0
M  V30 5891 C 550.096 -2.97075 1.8067 0
M  V30 5892 H 549.419 -2.9728 2.67329 0
M  V30 5893 H 550.859 -3.74825 1.98197 0
M  V30 5894 C 549.318 -3.32247 0.558016 0
M  V30 5895 O 549.848 -4.00553 -0.303399 0
M  V30 5896 N 548.054 -2.87659 0.412415 0
M  V30 5897 H 547.601 -2.32246 1.11443 0
M  V30 5898 H 547.559 -3.11556 -0.421908 0
M  V30 5899 N 551.331 -1.39911 -0.725443 0
M  V30 5900 C 552.571 -1.39096 -1.49772 0
M  V30 5901 C 552.935 0.0106452 -1.91997 0
M  V30 5902 O 554.136 0.143859 -2.68415 0
M  V30 5903 C 552.407 -2.34441 -2.69764 0
M  V30 5904 S 553.966 -2.51898 -3.59295 0
M  V30 5905 H 550.784 -0.49314 -0.512186 0
M  V30 5906 H 553.386 -1.76093 -0.849197 0
M  V30 5907 H 552.09 -3.35123 -2.36898 0
M  V30 5908 H 551.621 -1.98692 -3.39537 0
M  V30 5909 H 553.636 -1.76402 -4.63785 0
M  V30 5910 N 552.809 0.956637 -1.25245 0
M  V30 5911 C 553.739 2.07058 -1.07931 0
M  V30 5912 C 554.72 1.70096 0.0110361 0
M  V30 5913 O 555.905 1.93555 -0.158121 0
M  V30 5914 C 553.035 3.40272 -0.695124 0
M  V30 5915 C 551.989 3.91235 -1.73549 0
M  V30 5916 C 551.315 5.20921 -1.20604 0
M  V30 5917 C 552.615 4.17837 -3.13385 0
M  V30 5918 H 554.309 2.218 -2.01109 0
M  V30 5919 H 551.855 1.06581 -0.968326 0
M  V30 5920 H 553.808 4.1765 -0.560949 0
M  V30 5921 H 552.532 3.25462 0.272355 0
M  V30 5922 H 551.191 3.16025 -1.85807 0
M  V30 5923 H 550.839 5.02479 -0.228846 0
M  V30 5924 H 550.539 5.55987 -1.90136 0
M  V30 5925 H 552.063 6.00897 -1.08421 0
M  V30 5926 H 553.477 4.8588 -3.04292 0
M  V30 5927 H 551.874 4.64154 -3.80369 0
M  V30 5928 H 552.944 3.2419 -3.60595 0
M  V30 5929 N 554.287 1.06798 1.15896 0
M  V30 5930 C 555.535 0.786211 1.8618 0
M  V30 5931 C 555.856 -0.689547 1.82401 0
M  V30 5932 O 555.126 -1.49913 1.26107 0
M  V30 5933 H 553.706 0.287843 0.689315 0
M  V30 5934 H 556.368 1.35055 1.40521 0
M  V30 5935 H 555.464 1.1157 2.91477 0
M  V30 5936 N 555.766 -1.3263 0.851289 0
M  V30 5937 C 557.043 -1.91982 0.374448 0
M  V30 5938 C 557.423 -1.77568 -1.14161 0
M  V30 5939 O 556.771 -1.1717 -1.96172 0
M  V30 5940 C 556.981 -3.38862 0.835088 0
M  V30 5941 C 558.329 -4.15999 0.850309 0
M  V30 5942 O 559.353 -3.47566 0.779505 0
M  V30 5943 O 558.212 -5.38189 0.949481 0
M  V30 5944 H 555.306 -0.819846 0.10854 0
M  V30 5945 H 557.852 -1.41422 0.937966 0
M  V30 5946 H 556.624 -3.43281 1.87814 0
M  V30 5947 H 556.247 -3.96821 0.248833 0
M  V30 5948 N 557.244 -0.608902 -1.45362 0
M  V30 5949 C 558.176 0.147318 -2.28726 0
M  V30 5950 C 559.189 0.830468 -1.40025 0
M  V30 5951 O 560.378 0.695636 -1.64387 0
M  V30 5952 C 557.478 1.22968 -3.15804 0
M  V30 5953 C 556.651 0.633391 -4.3279 0
M  V30 5954 C 555.71 1.60682 -5.01067 0
M  V30 5955 O 554.736 1.13261 -5.57818 0
M  V30 5956 N 555.938 2.94123 -5.00472 0
M  V30 5957 H 558.703 -0.568014 -2.94268 0
M  V30 5958 H 556.264 -0.448479 -1.55564 0
M  V30 5959 H 558.256 1.88072 -3.58345 0
M  V30 5960 H 556.826 1.84752 -2.52162 0
M  V30 5961 H 556.046 -0.195762 -3.93714 0
M  V30 5962 H 557.334 0.215255 -5.08344 0
M  V30 5963 H 556.732 3.3525 -4.55657 0
M  V30 5964 H 555.289 3.54646 -5.46872 0
M  V30 5965 N 558.722 1.53707 -0.348139 0
M  V30 5966 C 559.669 2.25173 0.506518 0
M  V30 5967 C 560.639 1.25174 1.09182 0
M  V30 5968 O 561.824 1.53917 1.12757 0
M  V30 5969 C 558.964 3.03141 1.64923 0
M  V30 5970 C 558.077 4.18002 1.0908 0
M  V30 5971 C 557.212 4.83447 2.20119 0
M  V30 5972 C 556.251 5.90369 1.61651 0
M  V30 5973 N 555.388 6.49575 2.66451 0
M  V30 5974 H 560.228 2.97799 -0.109452 0
M  V30 5975 H 557.765 1.46953 -0.0657866 0
M  V30 5976 H 559.723 3.46607 2.32205 0
M  V30 5977 H 558.353 2.32803 2.23612 0
M  V30 5978 H 557.405 3.79145 0.308783 0
M  V30 5979 H 558.717 4.94892 0.623178 0
M  V30 5980 H 557.871 5.30008 2.95257 0
M  V30 5981 H 556.61 4.05991 2.70227 0
M  V30 5982 H 555.615 5.43186 0.850209 0
M  V30 5983 H 556.84 6.69735 1.1239 0
M  V30 5984 H 554.786 5.74981 3.15805 0
M  V30 5985 H 554.703 7.21952 2.24325 0
M  V30 5986 H 555.971 7.00789 3.41344 0
M  V30 5987 N 560.2 0.0768682 1.57412 0
M  V30 5988 C 561.13 -0.886026 2.16037 0
M  V30 5989 C 562.111 -1.30691 1.08876 0
M  V30 5990 O 563.296 -1.37705 1.36934 0
M  V30 5991 C 560.426 -2.1518 2.72608 0
M  V30 5992 C 559.38 -1.87015 3.8498 0
M  V30 5993 C 558.706 -3.20266 4.28175 0
M  V30 5994 C 560.006 -1.17143 5.08994 0
M  V30 5995 H 561.7 -0.397642 2.96748 0
M  V30 5996 H 559.246 -0.189823 1.42743 0
M  V30 5997 H 561.199 -2.82962 3.12266 0
M  V30 5998 H 559.923 -2.66269 1.89125 0
M  V30 5999 H 558.582 -1.21636 3.45833 0
M  V30 6000 H 558.23 -3.69207 3.41607 0
M  V30 6001 H 557.93 -3.0221 5.03927 0
M  V30 6002 H 559.454 -3.89237 4.70454 0
M  V30 6003 H 560.868 -1.75003 5.45937 0
M  V30 6004 H 559.265 -1.09328 5.90057 0
M  V30 6005 H 560.335 -0.151295 4.84664 0
M  V30 6006 N 561.678 -1.56367 -0.196722 0
M  V30 6007 C 562.924 -1.80796 -0.918725 0
M  V30 6008 C 563.257 -0.650645 -1.82976 0
M  V30 6009 O 562.532 0.348889 -1.91345 0
M  V30 6010 C 562.815 -3.15472 -1.73636 0
M  V30 6011 C 562.668 -4.41693 -0.85015 0
M  V30 6012 C 563.987 -3.46824 -2.70927 0
M  V30 6013 H 561.106 -0.657702 -0.332561 0
M  V30 6014 H 563.748 -1.89086 -0.186186 0
M  V30 6015 H 561.898 -3.08536 -2.36088 0
M  V30 6016 H 563.57 -4.60673 -0.240459 0
M  V30 6017 H 561.813 -4.33517 -0.156785 0
M  V30 6018 H 562.484 -5.32419 -1.45719 0
M  V30 6019 H 564.96 -3.54049 -2.18607 0
M  V30 6020 H 563.836 -4.4218 -3.25219 0
M  V30 6021 H 564.097 -2.70236 -3.49893 0
M  V30 6022 N 563.156 0.464375 -1.50603 0
M  V30 6023 C 564.066 1.58723 -1.72754 0
M  V30 6024 C 565.082 1.62925 -0.610844 0
M  V30 6025 O 566.258 1.8067 -0.889963 0
M  V30 6026 C 563.323 2.94897 -1.82309 0
M  V30 6027 C 562.384 3.0103 -3.06071 0
M  V30 6028 C 561.617 4.30708 -3.1516 0
M  V30 6029 O 561.84 5.2159 -2.30868 0
M  V30 6030 O 560.774 4.42571 -4.0794 0
M  V30 6031 H 564.6 1.42954 -2.67951 0
M  V30 6032 H 562.185 0.644579 -1.3478 0
M  V30 6033 H 564.067 3.75764 -1.90735 0
M  V30 6034 H 562.742 3.10851 -0.902967 0
M  V30 6035 H 561.649 2.19217 -3.03142 0
M  V30 6036 H 562.982 2.90014 -3.97684 0
M  V30 6037 N 564.634 1.40294 0.718013 0
M  V30 6038 C 566.05 1.2227 1.02577 0
M  V30 6039 C 566.25 0.0961976 2.0127 0
M  V30 6040 O 565.306 -0.546695 2.46511 0
M  V30 6041 C 566.619 2.56348 1.57182 0
M  V30 6042 C 568.167 2.6334 1.69178 0
M  V30 6043 C 568.642 3.9768 2.27188 0
M  V30 6044 N 570.133 3.99409 2.34578 0
M  V30 6045 C 570.868 5.00141 2.8044 0
M  V30 6046 N 570.364 6.11268 3.26073 0
M  V30 6047 N 572.157 4.87511 2.79802 0
M  V30 6048 H 564.308 2.12304 0.0637899 0
M  V30 6049 H 566.571 0.943632 0.0909036 0
M  V30 6050 H 566.277 3.3942 0.921262 0
M  V30 6051 H 566.151 2.77266 2.55741 0
M  V30 6052 H 568.538 1.80641 2.33351 0
M  V30 6053 H 568.619 2.46255 0.692247 0
M  V30 6054 H 568.263 4.80817 1.63638 0
M  V30 6055 H 568.193 4.12093 3.27852 0
M  V30 6056 H 570.684 3.19162 2.02346 0
M  V30 6057 H 570.997 6.84023 3.59628 0
M  V30 6058 H 569.342 6.14837 3.24038 0
M  V30 6059 H 572.533 3.9979 2.43487 0
M  V30 6060 H 572.706 5.66158 3.15228 0
M  V30 6061 N 566.112 -0.949982 1.2575 0
M  V30 6062 C 567.042 -2.06483 1.09028 0
M  V30 6063 C 568.023 -1.701 -0.00201532 0
M  V30 6064 O 569.208 -1.93469 0.168383 0
M  V30 6065 C 566.338 -3.39899 0.71316 0
M  V30 6066 C 565.292 -3.90309 1.75621 0
M  V30 6067 C 564.618 -5.20274 1.23365 0
M  V30 6068 C 565.918 -4.16169 3.15596 0
M  V30 6069 H 567.612 -2.20731 2.02283 0
M  V30 6070 H 565.158 -1.06066 0.973964 0
M  V30 6071 H 567.111 -4.17346 0.58309 0
M  V30 6072 H 565.835 -3.25602 -0.255091 0
M  V30 6073 H 564.494 -3.15035 1.8748 0
M  V30 6074 H 564.142 -5.02351 0.255491 0
M  V30 6075 H 563.842 -5.54971 1.93082 0
M  V30 6076 H 565.366 -6.00314 1.11607 0
M  V30 6077 H 566.78 -4.84259 3.06864 0
M  V30 6078 H 565.177 -4.62131 3.82825 0
M  V30 6079 H 566.247 -3.22273 3.6231 0
M  V30 6080 N 567.59 -1.07411 -1.15328 0
M  V30 6081 C 568.54 -0.664788 -2.18093 0
M  V30 6082 C 569.524 0.310395 -1.57878 0
M  V30 6083 O 570.716 0.124026 -1.76565 0
M  V30 6084 C 567.845 -0.0647822 -3.43239 0
M  V30 6085 C 566.931 -1.06514 -4.10506 0
M  V30 6086 N 567.322 -2.24491 -4.53252 0
M  V30 6087 C 565.62 -0.898613 -4.36853 0
M  V30 6088 C 566.321 -2.8796 -5.05424 0
M  V30 6089 N 565.297 -2.15622 -4.99007 0
M  V30 6090 H 569.099 -1.56333 -2.48872 0
M  V30 6091 H 566.613 -0.947393 -1.31902 0
M  V30 6092 H 568.61 0.246363 -4.16171 0
M  V30 6093 H 567.27 0.828866 -3.13943 0
M  V30 6094 H 568.281 -2.62205 -4.46619 0
M  V30 6095 H 564.958 -0.0579118 -4.1746 0
M  V30 6096 H 566.348 -3.88137 -5.48452 0
M  V30 6097 N 569.068 1.32177 -0.85831 0
M  V30 6098 C 570.001 2.26823 -0.25035 0
M  V30 6099 C 570.979 1.50571 0.61378 0
M  V30 6100 O 572.163 1.79682 0.569777 0
M  V30 6101 C 569.29 3.32472 0.646556 0
M  V30 6102 C 568.336 4.26255 -0.144675 0
M  V30 6103 S 569.169 5.13608 -1.5155 0
M  V30 6104 C 570.325 6.22778 -0.624408 0
M  V30 6105 H 570.558 2.7804 -1.05267 0
M  V30 6106 H 568.091 1.39764 -0.656152 0
M  V30 6107 H 570.049 3.93817 1.15837 0
M  V30 6108 H 568.71 2.80031 1.42272 0
M  V30 6109 H 567.903 5.01114 0.538613 0
M  V30 6110 H 567.505 3.69346 -0.588198 0
M  V30 6111 H 569.797 6.77287 0.169846 0
M  V30 6112 H 570.74 6.95233 -1.34376 0
M  V30 6113 H 571.148 5.64156 -0.197128 0
M  V30 6114 N 570.547 0.616602 1.45037 0
M  V30 6115 C 571.793 0.115501 2.02471 0
M  V30 6116 C 572.126 -1.25406 1.4828 0
M  V30 6117 O 571.401 -1.82922 0.661051 0
M  V30 6118 C 571.684 0.0863588 3.59996 0
M  V30 6119 C 571.537 1.48723 4.24501 0
M  V30 6120 C 572.856 -0.596762 4.36035 0
M  V30 6121 H 569.975 0.0434461 0.735718 0
M  V30 6122 H 572.617 0.7903 1.72784 0
M  V30 6123 H 570.767 -0.488277 3.85419 0
M  V30 6124 H 572.439 2.10964 4.10234 0
M  V30 6125 H 570.682 2.04534 3.82555 0
M  V30 6126 H 571.353 1.419 5.3345 0
M  V30 6127 H 573.829 -0.10824 4.15959 0
M  V30 6128 H 572.705 -0.586289 5.4576 0
M  V30 6129 H 572.966 -1.66451 4.09569 0
M  V30 6130 N 572.025 -1.5352 0.356285 0
M  V30 6131 C 572.955 -2.28372 -0.486661 0
M  V30 6132 C 573.936 -1.30432 -1.09185 0
M  V30 6133 O 575.121 -1.59291 -1.11085 0
M  V30 6134 C 572.251 -3.06604 -1.63129 0
M  V30 6135 C 571.205 -4.12154 -1.15381 0
M  V30 6136 C 570.531 -4.78415 -2.38796 0
M  V30 6137 C 571.831 -5.21724 -0.245179 0
M  V30 6138 H 573.525 -2.99083 0.137797 0
M  V30 6139 H 571.071 -1.43841 0.0677134 0
M  V30 6140 H 573.024 -3.57712 -2.22755 0
M  V30 6141 H 571.748 -2.33568 -2.28284 0
M  V30 6142 H 570.407 -3.61978 -0.580294 0
M  V30 6143 H 570.055 -4.01959 -3.02387 0
M  V30 6144 H 569.755 -5.49734 -2.07524 0
M  V30 6145 H 571.279 -5.32313 -2.99125 0
M  V30 6146 H 572.693 -5.68391 -0.748646 0
M  V30 6147 H 571.09 -6.00095 -0.0237608 0
M  V30 6148 H 572.16 -4.79596 0.715229 0
M  V30 6149 N 573.503 -0.0852151 -1.57369 0
M  V30 6150 C 574.919 0.271436 -1.57275 0
M  V30 6151 C 575.119 1.69109 -1.09565 0
M  V30 6152 O 574.175 2.40549 -0.767611 0
M  V30 6153 C 575.488 0.0688638 -3.00621 0
M  V30 6154 C 577.036 0.137373 -3.12698 0
M  V30 6155 C 577.511 -0.0370832 -4.57985 0
M  V30 6156 N 579.002 0.0180794 -4.63196 0
M  V30 6157 C 579.737 -0.0922953 -5.73326 0
M  V30 6158 N 579.233 -0.256948 -6.92323 0
M  V30 6159 N 581.026 -0.0342702 -5.6209 0
M  V30 6160 H 573.177 -1.01288 -1.86693 0
M  V30 6161 H 575.44 -0.396138 -0.861266 0
M  V30 6162 H 575.146 -0.911277 -3.39689 0
M  V30 6163 H 575.02 0.815442 -3.6828 0
M  V30 6164 H 577.407 1.10801 -2.73509 0
M  V30 6165 H 577.488 -0.640532 -2.47651 0
M  V30 6166 H 577.132 -1.00455 -4.97867 0
M  V30 6167 H 577.062 0.760392 -5.21081 0
M  V30 6168 H 579.553 0.143202 -3.77629 0
M  V30 6169 H 579.866 -0.332949 -7.72082 0
M  V30 6170 H 578.211 -0.292487 -6.94384 0
M  V30 6171 H 581.402 0.0931605 -4.68007 0
M  V30 6172 H 581.575 -0.12374 -6.47882 0
M  V30 6173 N 574.981 1.5647 0.188427 0
M  V30 6174 C 576.392 1.70864 0.752494 0
M  V30 6175 C 576.743 0.692905 1.83557 0
M  V30 6176 O 575.868 -0.149307 2.15884 0
M  V30 6177 C 576.463 3.09789 1.37173 0
M  V30 6178 C 575.022 3.25925 1.88281 0
M  V30 6179 C 574.169 2.66817 0.755259 0
M  V30 6180 H 577.12 1.58657 -0.0367408 0
M  V30 6181 H 577.141 3.07489 2.24122 0
M  V30 6182 H 576.653 3.83693 0.583219 0
M  V30 6183 H 574.754 2.56948 2.6983 0
M  V30 6184 H 574.867 4.33498 2.04001 0
M  V30 6185 H 573.231 2.2617 1.17128 0
M  V30 6186 H 574.014 3.43294 -0.0211237 0
M  V30 6187 N 576.459 -0.456382 1.50847 0
M  V30 6188 C 577.706 -1.20736 1.62571 0
M  V30 6189 C 578.034 -1.9163 0.332904 0
M  V30 6190 O 577.289 -1.8343 -0.682058 0
M  V30 6191 C 577.588 -2.26336 2.76599 0
M  V30 6192 C 577.254 -1.7259 4.16562 0
M  V30 6193 C 575.916 -1.57654 4.54641 0
M  V30 6194 C 578.268 -1.32877 5.03977 0
M  V30 6195 C 575.596 -1.0145 5.77862 0
M  V30 6196 C 577.948 -0.7811 6.27759 0
M  V30 6197 C 576.612 -0.618488 6.64628 0
M  V30 6198 H 575.882 -0.441803 0.594888 0
M  V30 6199 H 578.529 -0.501169 1.84826 0
M  V30 6200 H 576.834 -3.0292 2.48489 0
M  V30 6201 H 578.531 -2.84227 2.82871 0
M  V30 6202 H 575.121 -1.85187 3.86528 0
M  V30 6203 H 579.305 -1.43245 4.75179 0
M  V30 6204 H 574.561 -0.876109 6.0509 0
M  V30 6205 H 578.735 -0.464783 6.94847 0
M  V30 6206 H 576.362 -0.180838 7.59985 0
M  V30 6207 N 577.937 -1.40673 -0.710563 0
M  V30 6208 C 578.867 -1.44095 -1.83736 0
M  V30 6209 C 579.848 -0.301286 -1.67411 0
M  V30 6210 O 581.033 -0.510618 -1.87367 0
M  V30 6211 C 578.163 -1.30773 -3.21738 0
M  V30 6212 C 577.117 -2.42395 -3.52745 0
M  V30 6213 C 576.443 -2.14147 -4.89944 0
M  V30 6214 C 577.743 -3.84738 -3.53234 0
M  V30 6215 H 579.437 -2.38396 -1.81129 0
M  V30 6216 H 576.983 -1.14746 -0.870017 0
M  V30 6217 H 578.936 -1.31783 -4.00264 0
M  V30 6218 H 577.66 -0.329507 -3.24934 0
M  V30 6219 H 576.319 -2.40643 -2.76562 0
M  V30 6220 H 575.967 -1.14703 -4.89747 0
M  V30 6221 H 575.667 -2.88934 -5.11655 0
M  V30 6222 H 577.191 -2.16848 -5.70797 0
M  V30 6223 H 578.605 -3.88286 -4.2179 0
M  V30 6224 H 577.002 -4.59085 -3.86473 0
M  V30 6225 H 578.072 -4.13962 -2.52514 0
M  V30 6226 N 579.415 0.9433 -1.26252 0
M  V30 6227 C 580.345 2.05902 -1.10122 0
M  V30 6228 C 581.326 1.70099 -0.00700552 0
M  V30 6229 O 582.511 1.93377 -0.178641 0
M  V30 6230 C 579.641 3.39516 -0.731175 0
M  V30 6231 C 578.595 3.89372 -1.77688 0
M  V30 6232 C 577.921 5.19613 -1.26122 0
M  V30 6233 C 579.221 4.14489 -3.17799 0
M  V30 6234 H 580.915 2.19655 -2.03451 0
M  V30 6235 H 578.461 1.05548 -0.979576 0
M  V30 6236 H 580.414 4.17031 -0.605215 0
M  V30 6237 H 579.138 3.25733 0.23782 0
M  V30 6238 H 577.797 3.14036 -1.89148 0
M  V30 6239 H 577.445 5.02208 -0.282128 0
M  V30 6240 H 577.145 5.53939 -1.96023 0
M  V30 6241 H 578.669 5.99713 -1.14789 0
M  V30 6242 H 580.083 4.82625 -3.09428 0
M  V30 6243 H 578.48 4.60094 -3.85271 0
M  V30 6244 H 579.55 3.20347 -3.64014 0
M  V30 6245 N 580.893 1.08022 1.14757 0
M  V30 6246 C 582.309 0.807072 1.3769 0
M  V30 6247 C 582.509 -0.585504 1.92806 0
M  V30 6248 O 581.565 -1.34301 2.13821 0
M  V30 6249 C 582.878 1.88651 2.34161 0
M  V30 6250 C 584.426 1.91206 2.47809 0
M  V30 6251 C 584.901 2.98253 3.47576 0
M  V30 6252 N 586.392 2.974 3.55117 0
M  V30 6253 C 587.127 3.76872 4.32152 0
M  V30 6254 N 586.623 4.66212 5.12463 0
M  V30 6255 N 588.416 3.6519 4.27309 0
M  V30 6256 H 580.567 1.97824 0.77326 0
M  V30 6257 H 582.83 0.85826 0.402608 0
M  V30 6258 H 582.536 2.88749 2.00791 0
M  V30 6259 H 582.41 1.75244 3.3402 0
M  V30 6260 H 584.797 0.917564 2.80472 0
M  V30 6261 H 584.878 2.08691 1.47925 0
M  V30 6262 H 584.522 3.97907 3.15646 0
M  V30 6263 H 584.452 2.78014 4.47231 0
M  V30 6264 H 586.943 2.32643 2.97801 0
M  V30 6265 H 587.256 5.23468 5.68508 0
M  V30 6266 H 585.601 4.70257 5.11745 0
M  V30 6267 H 588.792 2.94765 3.63636 0
M  V30 6268 H 588.965 4.27366 4.87095 0
M  V30 6269 N 582.371 -1.3172 0.865308 0
M  V30 6270 C 583.787 -1.4958 0.556596 0
M  V30 6271 C 583.987 -1.79763 -0.910353 0
M  V30 6272 O 583.043 -1.87351 -1.6928 0
M  V30 6273 C 584.356 -2.63277 1.45279 0
M  V30 6274 C 585.904 -2.77161 1.45433 0
M  V30 6275 C 586.379 -3.93949 2.33598 0
M  V30 6276 N 587.87 -4.01228 2.31453 0
M  V30 6277 C 588.605 -4.90855 2.96393 0
M  V30 6278 N 588.101 -5.85416 3.70486 0
M  V30 6279 N 589.894 -4.84063 2.85726 0
M  V30 6280 H 582.045 -1.10396 1.81456 0
M  V30 6281 H 584.308 -0.54507 0.775631 0
M  V30 6282 H 584.014 -2.47734 2.49641 0
M  V30 6283 H 583.888 -3.59309 1.14792 0
M  V30 6284 H 586.275 -2.9212 0.41831 0
M  V30 6285 H 586.356 -1.8181 1.79941 0
M  V30 6286 H 586 -3.79748 3.37274 0
M  V30 6287 H 585.93 -4.88598 1.96417 0
M  V30 6288 H 588.421 -3.3357 1.77593 0
M  V30 6289 H 588.734 -6.50525 4.17178 0
M  V30 6290 H 587.079 -5.85409 3.74594 0
M  V30 6291 H 590.27 -4.09163 2.27384 0
M  V30 6292 H 590.443 -5.53708 3.36617 0
M  V30 6293 N 583.85 -0.624285 -1.44708 0
M  V30 6294 C 585.099 -0.123539 -2.01321 0
M  V30 6295 C 585.412 1.25966 -1.49639 0
M  V30 6296 O 586.618 1.85405 -1.98336 0
M  V30 6297 C 585.074 -0.170124 -3.59498 0
M  V30 6298 C 584.682 -1.55421 -4.20176 0
M  V30 6299 C 586.426 0.274513 -4.23611 0
M  V30 6300 C 584.332 -1.55628 -5.70556 0
M  V30 6301 H 583.263 -0.0424183 -0.752806 0
M  V30 6302 H 585.913 -0.782076 -1.65999 0
M  V30 6303 H 584.296 0.555385 -3.92086 0
M  V30 6304 H 585.47 -2.30276 -3.99136 0
M  V30 6305 H 583.784 -1.94235 -3.68323 0
M  V30 6306 H 586.382 0.292402 -5.339 0
M  V30 6307 H 586.725 1.3005 -3.95465 0
M  V30 6308 H 587.258 -0.398275 -3.95801 0
M  V30 6309 H 583.997 -2.56041 -6.03426 0
M  V30 6310 H 583.517 -0.850563 -5.93739 0
M  V30 6311 H 585.196 -1.28721 -6.34066 0
M  V30 6312 N 585.328 1.53329 -0.364422 0
M  V30 6313 C 586.275 2.25698 0.482607 0
M  V30 6314 C 587.245 1.26325 1.07848 0
M  V30 6315 O 588.43 1.55104 1.11119 0
M  V30 6316 C 585.57 3.04873 1.61699 0
M  V30 6317 C 584.683 4.19135 1.0464 0
M  V30 6318 C 583.818 4.85754 2.14979 0
M  V30 6319 C 582.857 5.9205 1.5538 0
M  V30 6320 N 581.994 6.52365 2.59547 0
M  V30 6321 H 586.834 2.97666 -0.141032 0
M  V30 6322 H 584.371 1.46875 -0.0813692 0
M  V30 6323 H 586.329 3.49051 2.28516 0
M  V30 6324 H 584.959 2.35162 2.2113 0
M  V30 6325 H 584.011 3.79451 0.268553 0
M  V30 6326 H 585.323 4.95525 0.570653 0
M  V30 6327 H 584.477 5.3311 2.89619 0
M  V30 6328 H 583.216 4.08834 2.65906 0
M  V30 6329 H 582.221 5.44058 0.792549 0
M  V30 6330 H 583.446 6.7089 1.0528 0
M  V30 6331 H 581.392 5.78298 3.09689 0
M  V30 6332 H 581.309 7.2429 2.16655 0
M  V30 6333 H 582.577 7.0437 3.33892 0
M  V30 6334 N 586.806 0.0935595 1.57322 0
M  V30 6335 C 587.769 -0.851426 2.12799 0
M  V30 6336 C 588.769 -1.21187 1.0569 0
M  V30 6337 O 589.959 -1.14156 1.31583 0
M  V30 6338 C 587.091 -2.14779 2.64731 0
M  V30 6339 H 588.284 -0.369733 2.97612 0
M  V30 6340 H 585.837 -0.155417 1.55525 0
M  V30 6341 H 586.572 -2.67437 1.83434 0
M  V30 6342 H 586.357 -1.89907 3.43042 0
M  V30 6343 H 587.847 -2.82383 3.07651 0
M  V30 6344 N 588.284 -1.56567 -0.180126 0
M  V30 6345 C 589.561 -1.7235 -0.924931 0
M  V30 6346 C 589.941 -0.652523 -2.00762 0
M  V30 6347 O 589.289 0.334115 -2.26044 0
M  V30 6348 C 589.499 -3.1523 -1.49771 0
M  V30 6349 C 590.847 -3.75921 -1.97405 0
M  V30 6350 O 591.871 -3.18452 -1.59583 0
M  V30 6351 O 590.73 -4.7681 -2.67048 0
M  V30 6352 H 587.824 -0.703502 -0.434758 0
M  V30 6353 H 590.37 -1.6886 -0.168647 0
M  V30 6354 H 589.142 -3.84656 -0.718027 0
M  V30 6355 H 588.765 -3.23009 -2.31842 0
M  V30 6356 N 589.762 0.448376 -1.51087 0
M  V30 6357 C 591.008 1.20049 -1.6345 0
M  V30 6358 C 591.341 1.91121 -0.344444 0
M  V30 6359 O 590.616 1.83125 0.655396 0
M  V30 6360 C 590.899 2.22624 -2.83038 0
M  V30 6361 C 590.752 1.55708 -4.21989 0
M  V30 6362 C 592.071 3.23718 -2.98152 0
M  V30 6363 H 589.19 0.435085 -0.59487 0
M  V30 6364 H 591.832 0.491183 -1.83541 0
M  V30 6365 H 589.982 2.83117 -2.66039 0
M  V30 6366 H 591.654 0.986367 -4.50631 0
M  V30 6367 H 589.897 0.859647 -4.25197 0
M  V30 6368 H 590.568 2.30357 -5.01637 0
M  V30 6369 H 593.044 2.73269 -3.13788 0
M  V30 6370 H 591.92 3.92795 -3.83411 0
M  V30 6371 H 592.181 3.89179 -2.09743 0
M  V30 6372 N 591.24 1.41047 0.703093 0
M  V30 6373 C 592.15 1.44645 1.84703 0
M  V30 6374 C 593.166 0.337778 1.7069 0
M  V30 6375 O 594.342 0.584327 1.92737 0
M  V30 6376 C 591.407 1.31928 3.20618 0
M  V30 6377 C 590.468 2.53047 3.46794 0
M  V30 6378 C 589.701 2.40927 4.76224 0
M  V30 6379 O 589.924 1.42978 5.5219 0
M  V30 6380 O 588.858 3.30543 5.03016 0
M  V30 6381 H 592.684 2.41139 1.84624 0
M  V30 6382 H 590.269 1.22504 0.855167 0
M  V30 6383 H 592.151 1.27092 4.01778 0
M  V30 6384 H 590.826 0.385469 3.21397 0
M  V30 6385 H 589.733 2.6346 2.65593 0
M  V30 6386 H 591.066 3.45231 3.50822 0
M  V30 6387 N 592.718 -0.936591 1.26751 0
M  V30 6388 C 593.665 -2.03597 1.08706 0
M  V30 6389 C 594.635 -1.66097 -0.00926542 0
M  V30 6390 O 595.82 -1.90199 0.151377 0
M  V30 6391 C 592.96 -3.3727 0.73094 0
M  V30 6392 C 592.073 -3.87778 1.90399 0
M  V30 6393 C 591.208 -5.09859 1.49056 0
M  V30 6394 C 590.247 -5.5264 2.63164 0
M  V30 6395 N 589.384 -6.65921 2.22471 0
M  V30 6396 H 594.224 -2.18364 2.02784 0
M  V30 6397 H 591.761 -1.06985 1.00958 0
M  V30 6398 H 593.719 -4.14128 0.505328 0
M  V30 6399 H 592.349 -3.22337 -0.172868 0
M  V30 6400 H 591.401 -3.07279 2.2424 0
M  V30 6401 H 592.713 -4.15464 2.76028 0
M  V30 6402 H 591.867 -5.9419 1.22567 0
M  V30 6403 H 590.606 -4.8393 0.60524 0
M  V30 6404 H 589.611 -4.66863 2.90377 0
M  V30 6405 H 590.836 -5.80568 3.52303 0
M  V30 6406 H 588.782 -6.41667 1.36379 0
M  V30 6407 H 588.699 -6.93216 3.01641 0
M  V30 6408 H 589.967 -7.53616 1.99205 0
M  V30 6409 N 594.196 -1.08629 -1.14182 0
M  V30 6410 C 595.421 -0.83902 -1.89671 0
M  V30 6411 C 595.846 0.603332 -1.78161 0
M  V30 6412 O 595.204 1.42301 -1.12339 0
M  V30 6413 C 595.252 -1.26854 -3.37551 0
M  V30 6414 O 594.356 -0.42188 -4.10236 0
M  V30 6415 H 593.697 -0.304545 -0.590041 0
M  V30 6416 H 596.227 -1.4483 -1.44518 0
M  V30 6417 H 596.237 -1.25038 -3.88368 0
M  V30 6418 H 594.912 -2.31901 -3.45246 0
M  V30 6419 H 593.489 -0.503654 -3.69483 0
M  V30 6420 N 595.674 1.31259 -0.872281 0
M  V30 6421 C 596.604 2.30929 -0.345554 0
M  V30 6422 C 597.585 1.60449 0.5648 0
M  V30 6423 O 598.77 1.8814 0.481335 0
M  V30 6424 C 595.9 3.44348 0.451823 0
M  V30 6425 C 594.854 4.26435 -0.365641 0
M  V30 6426 C 594.18 5.31785 0.557562 0
M  V30 6427 C 595.48 4.97159 -1.60095 0
M  V30 6428 H 597.174 2.75234 -1.17841 0
M  V30 6429 H 594.72 1.3232 -0.568094 0
M  V30 6430 H 596.673 4.13128 0.830854 0
M  V30 6431 H 595.397 2.98816 1.31821 0
M  V30 6432 H 594.056 3.59326 -0.726649 0
M  V30 6433 H 593.704 4.82502 1.4213 0
M  V30 6434 H 593.404 5.87598 0.0144878 0
M  V30 6435 H 594.928 6.03424 0.933387 0
M  V30 6436 H 596.342 5.58523 -1.29323 0
M  V30 6437 H 594.739 5.62779 -2.08327 0
M  V30 6438 H 595.809 4.24012 -2.35249 0
M  V30 6439 N 597.152 0.631951 1.44375 0
M  V30 6440 C 598.563 0.219036 1.85411 0
M  V30 6441 C 598.914 -1.22974 1.52879 0
M  V30 6442 O 598.039 -1.93579 0.967266 0
M  V30 6443 C 598.634 0.39075 3.36539 0
M  V30 6444 C 597.193 0.0323351 3.76386 0
M  V30 6445 C 596.34 0.703744 2.68221 0
M  V30 6446 H 599.291 0.837056 1.3483 0
M  V30 6447 H 599.312 -0.370056 3.78696 0
M  V30 6448 H 598.824 1.44527 3.60185 0
M  V30 6449 H 596.925 -1.02042 3.58355 0
M  V30 6450 H 597.038 0.442969 4.77048 0
M  V30 6451 H 595.402 0.138974 2.54321 0
M  V30 6452 H 596.185 1.76088 2.947 0
M  V30 6453 N 598.631 -1.53133 0.372548 0
M  V30 6454 C 600.042 -1.86404 -0.105155 0
M  V30 6455 C 600.393 -1.29289 -1.47576 0
M  V30 6456 O 599.518 -0.617646 -2.07398 0
M  V30 6457 C 600.113 -3.38223 -0.197588 0
M  V30 6458 C 598.672 -3.71266 -0.619556 0
M  V30 6459 C 597.819 -2.76353 0.228919 0
M  V30 6460 H 600.77 -1.47282 0.591077 0
M  V30 6461 H 600.791 -3.66577 -1.01987 0
M  V30 6462 H 600.303 -3.79763 0.800099 0
M  V30 6463 H 598.404 -3.35287 -1.62522 0
M  V30 6464 H 598.517 -4.77515 -0.389332 0
M  V30 6465 H 596.881 -2.52888 -0.303271 0
M  V30 6466 H 597.664 -3.20728 1.22428 0
M  V30 6467 N 600.109 -0.101901 -1.5727 0
M  V30 6468 C 601.056 0.854577 -2.14396 0
M  V30 6469 C 602.026 1.27521 -1.06432 0
M  V30 6470 O 603.211 1.35575 -1.34253 0
M  V30 6471 C 600.351 2.10576 -2.73408 0
M  V30 6472 C 599.464 1.73504 -3.95626 0
M  V30 6473 C 598.599 2.9346 -4.42781 0
M  V30 6474 C 597.638 2.52547 -5.57572 0
M  V30 6475 N 596.775 3.65359 -5.99547 0
M  V30 6476 H 601.615 0.360578 -2.9581 0
M  V30 6477 H 599.152 0.166303 -1.46157 0
M  V30 6478 H 601.11 2.83859 -3.05745 0
M  V30 6479 H 599.74 2.57463 -1.94711 0
M  V30 6480 H 598.792 0.901622 -3.6956 0
M  V30 6481 H 600.104 1.39426 -4.78917 0
M  V30 6482 H 599.258 3.74988 -4.76937 0
M  V30 6483 H 597.997 3.30753 -3.58404 0
M  V30 6484 H 597.002 1.69446 -5.23037 0
M  V30 6485 H 598.227 2.1639 -6.43702 0
M  V30 6486 H 596.173 4.02358 -5.18116 0
M  V30 6487 H 596.09 3.35148 -6.77652 0
M  V30 6488 H 597.358 4.47378 -6.38336 0
M  V30 6489 N 601.587 1.56661 0.17182 0
M  V30 6490 C 602.534 1.96371 1.21273 0
M  V30 6491 C 603.504 0.82756 1.44016 0
M  V30 6492 O 604.689 1.08764 1.56764 0
M  V30 6493 C 601.829 2.32838 2.54716 0
M  V30 6494 C 600.942 3.59628 2.39356 0
M  V30 6495 C 600.077 3.85311 3.65662 0
M  V30 6496 C 599.116 5.0545 3.45234 0
M  V30 6497 N 598.253 5.27268 4.63608 0
M  V30 6498 H 603.093 2.85106 0.86709 0
M  V30 6499 H 600.63 1.41073 0.416744 0
M  V30 6500 H 602.588 2.52004 3.3249 0
M  V30 6501 H 601.218 1.47214 2.87277 0
M  V30 6502 H 600.27 3.4838 1.52761 0
M  V30 6503 H 601.582 4.4756 2.20207 0
M  V30 6504 H 600.736 4.04841 4.51872 0
M  V30 6505 H 599.475 2.95753 3.8779 0
M  V30 6506 H 598.48 4.85819 2.5741 0
M  V30 6507 H 599.705 5.96538 3.24529 0
M  V30 6508 H 597.651 4.40662 4.85956 0
M  V30 6509 H 597.568 6.09422 4.4737 0
M  V30 6510 H 598.836 5.51277 5.51103 0
M  V30 6511 N 603.065 -0.440357 1.51323 0
M  V30 6512 C 603.975 -1.55955 1.75258 0
M  V30 6513 C 604.991 -1.61933 0.636687 0
M  V30 6514 O 606.167 -1.79231 0.918593 0
M  V30 6515 C 603.232 -2.9196 1.86977 0
M  V30 6516 C 602.293 -2.96122 3.10822 0
M  V30 6517 C 601.526 -4.2564 3.21973 0
M  V30 6518 O 601.749 -5.17851 2.39137 0
M  V30 6519 O 600.683 -4.36025 4.14929 0
M  V30 6520 H 604.509 -1.38673 2.70191 0
M  V30 6521 H 602.094 -0.623055 1.35788 0
M  V30 6522 H 603.976 -3.72682 1.96688 0
M  V30 6523 H 602.651 -3.09375 0.952307 0
M  V30 6524 H 601.558 -2.14366 3.06591 0
M  V30 6525 H 602.891 -2.83651 4.02247 0
M  V30 6526 N 604.543 -1.41418 -0.695603 0
M  V30 6527 C 605.789 -1.40982 -1.4578 0
M  V30 6528 C 606.122 -0.0187763 -1.94191 0
M  V30 6529 O 605.397 0.95346 -1.69527 0
M  V30 6530 C 605.68 -2.41657 -2.66972 0
M  V30 6531 C 605.533 -3.89869 -2.24327 0
M  V30 6532 C 606.852 -2.39589 -3.69168 0
M  V30 6533 H 603.971 -0.513405 -0.528757 0
M  V30 6534 H 606.613 -1.72693 -0.792275 0
M  V30 6535 H 604.763 -2.14746 -3.23754 0
M  V30 6536 H 606.435 -4.27683 -1.72872 0
M  V30 6537 H 604.678 -4.04737 -1.56111 0
M  V30 6538 H 605.349 -4.55857 -3.11285 0
M  V30 6539 H 607.825 -2.63471 -3.2206 0
M  V30 6540 H 606.701 -3.12044 -4.51575 0
M  V30 6541 H 606.962 -1.41447 -4.18862 0
M  V30 6542 N 606.021 0.929856 -1.27246 0
M  V30 6543 C 606.968 2.03017 -1.09785 0
M  V30 6544 C 607.938 1.661 0.000456744 0
M  V30 6545 O 609.123 1.90116 -0.161462 0
M  V30 6546 C 606.263 3.36878 -0.748816 0
M  V30 6547 C 605.376 3.86763 -1.92453 0
M  V30 6548 C 604.511 5.09061 -1.51758 0
M  V30 6549 C 603.55 5.51237 -2.66091 0
M  V30 6550 N 602.687 6.64732 -2.25999 0
M  V30 6551 H 607.527 2.17285 -2.03939 0
M  V30 6552 H 605.064 1.06448 -1.01524 0
M  V30 6553 H 607.022 4.13855 -0.527283 0
M  V30 6554 H 605.652 3.22424 0.155771 0
M  V30 6555 H 604.704 3.06086 -2.25867 0
M  V30 6556 H 606.016 4.13994 -2.78227 0
M  V30 6557 H 605.17 5.93532 -1.25716 0
M  V30 6558 H 603.909 4.83602 -0.630896 0
M  V30 6559 H 602.914 4.65316 -2.92849 0
M  V30 6560 H 604.139 5.78692 -3.55377 0
M  V30 6561 H 602.085 6.40935 -1.3978 0
M  V30 6562 H 602.002 6.91607 -3.05313 0
M  V30 6563 H 603.27 7.52549 -2.03199 0
M  V30 6564 N 607.499 1.09233 1.13605 0
M  V30 6565 C 608.748 0.82205 1.84188 0
M  V30 6566 C 609.061 -0.654548 1.84323 0
M  V30 6567 O 610.267 -1.04029 2.50779 0
M  V30 6568 C 608.723 1.42066 3.30674 0
M  V30 6569 C 608.331 2.92965 3.38933 0
M  V30 6570 C 610.075 1.22924 4.06313 0
M  V30 6571 C 607.982 3.45922 4.79679 0
M  V30 6572 H 606.912 0.303854 0.690064 0
M  V30 6573 H 609.563 1.31479 1.28006 0
M  V30 6574 H 607.945 0.855613 3.86646 0
M  V30 6575 H 609.119 3.55679 2.92966 0
M  V30 6576 H 607.434 3.11118 2.76757 0
M  V30 6577 H 610.031 1.59945 5.10217 0
M  V30 6578 H 610.374 0.169726 4.15954 0
M  V30 6579 H 610.907 1.76168 3.56665 0
M  V30 6580 H 607.646 4.51484 4.75229 0
M  V30 6581 H 607.166 2.87971 5.26149 0
M  V30 6582 H 608.845 3.43009 5.48592 0
M  V30 6583 N 608.977 -1.30795 0.87923 0
M  V30 6584 C 610.207 -2.00237 0.50881 0
M  V30 6585 C 610.615 -1.66115 -0.905682 0
M  V30 6586 O 609.958 -0.89138 -1.60624 0
M  V30 6587 C 610.02 -3.54508 0.597003 0
M  V30 6588 C 609.684 -4.12131 1.97477 0
M  V30 6589 C 610.681 -4.28552 2.94346 0
M  V30 6590 C 608.366 -4.47644 2.2786 0
M  V30 6591 C 610.36 -4.79689 4.19735 0
M  V30 6592 C 608.047 -4.98481 3.53496 0
M  V30 6593 C 609.045 -5.14456 4.49248 0
M  V30 6594 O 608.733 -5.64199 5.72656 0
M  V30 6595 H 608.465 -0.647026 0.195788 0
M  V30 6596 H 611.019 -1.67785 1.1848 0
M  V30 6597 H 609.249 -3.86461 -0.135945 0
M  V30 6598 H 610.938 -4.05198 0.238684 0
M  V30 6599 H 611.704 -4.01424 2.72183 0
M  V30 6600 H 607.583 -4.34481 1.54102 0
M  V30 6601 H 611.127 -4.92073 4.9448 0
M  V30 6602 H 607.024 -5.25044 3.75498 0
M  V30 6603 H 607.792 -5.82551 5.74957 0
M  V30 6604 N 610.455 -0.639598 -1.44038 0
M  V30 6605 C 611.701 -0.147698 -2.02261 0
M  V30 6606 C 612.034 1.23031 -1.50256 0
M  V30 6607 O 611.309 1.81847 -0.690068 0
M  V30 6608 C 611.592 -0.14362 -3.59813 0
M  V30 6609 C 611.445 -1.55458 -4.22082 0
M  V30 6610 C 612.764 0.527317 -4.36929 0
M  V30 6611 H 609.883 -0.0551453 -0.734934 0
M  V30 6612 H 612.525 -0.817688 -1.71505 0
M  V30 6613 H 610.675 0.426898 -3.86147 0
M  V30 6614 H 612.347 -2.17464 -4.06826 0
M  V30 6615 H 610.59 -2.10594 -3.79253 0
M  V30 6616 H 611.261 -1.50369 -5.31124 0
M  V30 6617 H 613.737 0.0420504 -4.16079 0
M  V30 6618 H 612.613 0.499389 -5.46624 0
M  V30 6619 H 612.874 1.59914 -4.12165 0
M  V30 6620 N 611.933 1.52934 -0.380664 0
M  V30 6621 C 613.181 2.01069 0.203874 0
M  V30 6622 C 613.502 1.26922 1.4804 0
M  V30 6623 O 612.772 0.386787 1.92044 0
M  V30 6624 H 611.352 0.742882 0.0783279 0
M  V30 6625 H 614.014 1.88099 -0.510368 0
M  V30 6626 H 613.11 3.09258 0.42021 0
M  V30 6627 N 613.412 0.11024 1.57214 0
M  V30 6628 C 614.342 -0.840002 2.17867 0
M  V30 6629 C 615.323 -1.28352 1.11624 0
M  V30 6630 O 616.508 -1.3477 1.39824 0
M  V30 6631 C 613.638 -2.09349 2.77111 0
M  V30 6632 C 612.592 -1.78807 3.8886 0
M  V30 6633 C 611.918 -3.11112 4.34872 0
M  V30 6634 C 613.218 -1.0632 5.11364 0
M  V30 6635 H 614.912 -0.334608 2.97524 0
M  V30 6636 H 612.458 -0.159502 1.43114 0
M  V30 6637 H 614.411 -2.76275 3.18198 0
M  V30 6638 H 613.135 -2.62198 1.9473 0
M  V30 6639 H 611.794 -1.14273 3.48335 0
M  V30 6640 H 611.442 -3.61877 3.49362 0
M  V30 6641 H 611.142 -2.91453 5.10224 0
M  V30 6642 H 612.666 -3.79171 4.78604 0
M  V30 6643 H 614.08 -1.63383 5.49526 0
M  V30 6644 H 612.477 -0.967876 5.92243 0
M  V30 6645 H 613.547 -0.0484569 4.84876 0
M  V30 6646 N 614.89 -1.56749 -0.16351 0
M  V30 6647 C 616.115 -1.86938 -0.898264 0
M  V30 6648 C 616.54 -0.697456 -1.74692 0
M  V30 6649 O 615.898 0.353327 -1.77824 0
M  V30 6650 C 615.946 -3.15599 -1.74441 0
M  V30 6651 O 615.05 -2.98371 -2.8469 0
M  V30 6652 H 614.391 -0.614659 -0.251178 0
M  V30 6653 H 616.921 -2.03979 -0.159298 0
M  V30 6654 H 616.931 -3.47202 -2.14277 0
M  V30 6655 H 615.606 -4.00505 -1.1211 0
M  V30 6656 H 614.183 -2.7814 -2.4838 0
M  V30 6657 N 616.368 0.432326 -1.51554 0
M  V30 6658 C 617.315 1.52512 -1.7323 0
M  V30 6659 C 618.285 1.55863 -0.5741 0
M  V30 6660 O 619.47 1.72796 -0.809093 0
M  V30 6661 C 616.61 2.90183 -1.86783 0
M  V30 6662 C 615.723 2.96322 -3.14352 0
M  V30 6663 C 614.858 4.25147 -3.18471 0
M  V30 6664 C 613.897 4.25172 -4.40335 0
M  V30 6665 N 613.034 5.45529 -4.41975 0
M  V30 6666 H 617.874 1.33332 -2.66508 0
M  V30 6667 H 615.411 0.647613 -1.32077 0
M  V30 6668 H 617.369 3.70071 -1.92623 0
M  V30 6669 H 615.999 3.0791 -0.969087 0
M  V30 6670 H 615.051 2.09066 -3.17798 0
M  V30 6671 H 616.363 2.92203 -4.04251 0
M  V30 6672 H 615.517 5.13411 -3.23255 0
M  V30 6673 H 614.256 4.31929 -2.2647 0
M  V30 6674 H 613.261 3.353 -4.35723 0
M  V30 6675 H 614.486 4.20049 -5.33606 0
M  V30 6676 H 612.432 5.53024 -3.52847 0
M  V30 6677 H 612.349 5.43311 -5.25689 0
M  V30 6678 H 613.617 6.35812 -4.50958 0
M  V30 6679 N 617.846 1.41785 0.688094 0
M  V30 6680 C 618.779 1.38643 1.81255 0
M  V30 6681 C 619.757 0.252583 1.60626 0
M  V30 6682 O 620.941 0.440691 1.83276 0
M  V30 6683 C 618.068 1.16449 3.18053 0
M  V30 6684 C 617.114 2.32651 3.57457 0
M  V30 6685 S 617.947 3.95152 3.61407 0
M  V30 6686 C 619.103 3.75275 5.00919 0
M  V30 6687 H 619.336 2.33799 1.83644 0
M  V30 6688 H 616.869 1.28398 0.857513 0
M  V30 6689 H 618.827 1.0433 3.97021 0
M  V30 6690 H 617.488 0.229002 3.13264 0
M  V30 6691 H 616.681 2.12835 4.56856 0
M  V30 6692 H 616.283 2.41215 2.85817 0
M  V30 6693 H 618.575 3.35443 5.88629 0
M  V30 6694 H 619.518 4.74302 5.25778 0
M  V30 6695 H 619.926 3.08401 4.7281 0
M  V30 6696 N 619.324 -0.923095 1.27737 0
M  V30 6697 C 620.256 -2.02871 1.06658 0
M  V30 6698 C 621.269 -1.62786 0.0212095 0
M  V30 6699 O 622.458 -1.76548 0.263267 0
M  V30 6700 C 619.558 -3.33603 0.59682 0
M  V30 6701 C 618.731 -4.02354 1.71551 0
M  V30 6702 C 617.79 -5.11364 1.24071 0
M  V30 6703 O 616.816 -5.35075 1.94123 0
M  V30 6704 N 618.018 -5.80416 0.0988444 0
M  V30 6705 H 620.783 -2.21515 2.01869 0
M  V30 6706 H 618.344 -1.09378 1.19365 0
M  V30 6707 H 620.336 -4.03845 0.262984 0
M  V30 6708 H 618.906 -3.11499 -0.262187 0
M  V30 6709 H 618.126 -3.25786 2.2194 0
M  V30 6710 H 619.414 -4.45035 2.46619 0
M  V30 6711 H 618.812 -5.63611 -0.485743 0
M  V30 6712 H 617.369 -6.51563 -0.17578 0
M  V30 6713 N 620.802 -1.09834 -1.13024 0
M  V30 6714 C 622.218 -0.828875 -1.36388 0
M  V30 6715 C 622.418 0.554756 -1.93713 0
M  V30 6716 O 621.474 1.30882 -2.15931 0
M  V30 6717 C 622.787 -1.92352 -2.3113 0
M  V30 6718 C 624.335 -1.95124 -2.44735 0
M  V30 6719 C 624.81 -3.03745 -3.42787 0
M  V30 6720 N 626.301 -3.03012 -3.5034 0
M  V30 6721 C 627.036 -3.83699 -4.26101 0
M  V30 6722 N 626.532 -4.74306 -5.04981 0
M  V30 6723 N 628.325 -3.71942 -4.21445 0
M  V30 6724 H 620.476 -1.99029 -0.74169 0
M  V30 6725 H 622.739 -0.864557 -0.388903 0
M  V30 6726 H 622.445 -2.91906 -1.96172 0
M  V30 6727 H 622.319 -1.80536 -3.3119 0
M  V30 6728 H 624.706 -0.962069 -2.78977 0
M  V30 6729 H 624.787 -2.11018 -1.44586 0
M  V30 6730 H 624.431 -4.02878 -3.09276 0
M  V30 6731 H 624.361 -2.85094 -4.42752 0
M  V30 6732 H 626.852 -2.37352 -2.94062 0
M  V30 6733 H 627.165 -5.32446 -5.60108 0
M  V30 6734 H 625.51 -4.78339 -5.04199 0
M  V30 6735 H 628.701 -3.00513 -3.589 0
M  V30 6736 H 628.874 -4.35062 -4.80235 0
M  V30 6737 N 622.28 1.30327 -0.886154 0
M  V30 6738 C 623.19 2.31854 -0.357866 0
M  V30 6739 C 624.206 1.65392 0.540502 0
M  V30 6740 O 625.382 1.96683 0.433339 0
M  V30 6741 C 622.447 3.44171 0.417999 0
M  V30 6742 C 621.508 4.26257 -0.510263 0
M  V30 6743 C 620.741 5.3321 0.228669 0
M  V30 6744 O 620.964 5.51542 1.45458 0
M  V30 6745 O 619.898 6.0042 -0.421832 0
M  V30 6746 H 623.724 2.78995 -1.19982 0
M  V30 6747 H 621.309 1.34518 -0.650028 0
M  V30 6748 H 623.191 4.12588 0.857251 0
M  V30 6749 H 621.866 2.99164 1.23623 0
M  V30 6750 H 620.773 3.60533 -0.99835 0
M  V30 6751 H 622.106 4.74871 -1.29454 0
M  V30 6752 N 623.758 0.647228 1.43697 0
M  V30 6753 C 625.004 0.167001 2.02713 0
M  V30 6754 C 625.359 -1.20351 1.50111 0
M  V30 6755 O 624.652 -1.79047 0.682113 0
M  V30 6756 C 624.846 0.111481 3.57226 0
M  V30 6757 C 624.675 1.47507 4.2482 0
M  V30 6758 C 623.445 2.06594 4.61137 0
M  V30 6759 C 625.643 2.41224 4.54219 0
M  V30 6760 N 623.625 3.3602 5.13774 0
M  V30 6761 C 624.996 3.55278 5.08112 0
M  V30 6762 C 627.051 2.40102 4.36183 0
M  V30 6763 C 625.754 4.68426 5.45866 0
M  V30 6764 C 627.78 3.52326 4.74995 0
M  V30 6765 C 627.142 4.65104 5.29015 0
M  V30 6766 H 623.241 0.105402 0.774864 0
M  V30 6767 H 625.825 0.854229 1.7496 0
M  V30 6768 H 623.996 -0.545073 3.84556 0
M  V30 6769 H 625.728 -0.379063 4.02921 0
M  V30 6770 H 622.483 1.59366 4.45981 0
M  V30 6771 H 622.907 4.02233 5.44552 0
M  V30 6772 H 627.549 1.54151 3.93697 0
M  V30 6773 H 625.267 5.55074 5.87298 0
M  V30 6774 H 628.853 3.52652 4.6274 0
M  V30 6775 H 627.733 5.50506 5.58492 0
M  V30 6776 N 625.236 -1.5273 0.388769 0
M  V30 6777 C 626.466 -2.05693 -0.193397 0
M  V30 6778 C 626.874 -1.26038 -1.41107 0
M  V30 6779 O 626.217 -0.30001 -1.81234 0
M  V30 6780 C 626.279 -3.53962 -0.628561 0
M  V30 6781 C 625.943 -4.54519 0.475576 0
M  V30 6782 C 626.94 -5.02526 1.33281 0
M  V30 6783 C 624.625 -4.98174 0.642453 0
M  V30 6784 C 626.619 -5.92812 2.34205 0
M  V30 6785 C 624.306 -5.88262 1.65503 0
M  V30 6786 C 625.304 -6.35473 2.50325 0
M  V30 6787 O 624.992 -7.23781 3.49852 0
M  V30 6788 H 624.724 -0.675197 -0.0329395 0
M  V30 6789 H 627.278 -1.97835 0.552326 0
M  V30 6790 H 625.508 -3.59437 -1.42625 0
M  V30 6791 H 627.197 -3.89669 -1.13633 0
M  V30 6792 H 627.963 -4.6953 1.21519 0
M  V30 6793 H 623.842 -4.60999 -0.00805093 0
M  V30 6794 H 627.386 -6.29585 3.00447 0
M  V30 6795 H 623.283 -6.20672 1.77304 0
M  V30 6796 H 624.051 -7.4184 3.45855 0
M  V30 6797 N 626.714 -0.118576 -1.57153 0
M  V30 6798 C 627.942 0.54726 -1.99531 0
M  V30 6799 C 628.357 1.60251 -0.998246 0
M  V30 6800 O 627.714 1.82498 0.00893106 0
M  V30 6801 C 627.765 1.17378 -3.41913 0
M  V30 6802 O 627.486 0.160703 -4.37805 0
M  V30 6803 C 628.987 1.92297 -3.9942 0
M  V30 6804 H 626.207 0.144919 -0.655164 0
M  V30 6805 H 628.751 -0.20479 -2.03472 0
M  V30 6806 H 626.906 1.87661 -3.38913 0
M  V30 6807 H 627.32 0.61586 -5.20872 0
M  V30 6808 H 628.794 2.31462 -5.01128 0
M  V30 6809 H 629.271 2.79801 -3.38538 0
M  V30 6810 H 629.877 1.26777 -4.05965 0
M  V30 6811 N 628.193 1.56834 0.155195 0
M  V30 6812 C 629.609 1.51315 0.50755 0
M  V30 6813 C 629.809 0.825614 1.83809 0
M  V30 6814 O 628.865 0.39271 2.49427 0
M  V30 6815 C 630.178 2.96074 0.52542 0
M  V30 6816 C 631.726 3.06968 0.611505 0
M  V30 6817 C 632.201 4.53218 0.660115 0
M  V30 6818 N 633.692 4.5753 0.722564 0
M  V30 6819 C 634.427 5.68056 0.781023 0
M  V30 6820 N 633.923 6.88173 0.799327 0
M  V30 6821 N 635.716 5.56068 0.821278 0
M  V30 6822 H 627.867 1.9993 -0.717063 0
M  V30 6823 H 630.13 0.911507 -0.260496 0
M  V30 6824 H 629.836 3.49599 -0.383875 0
M  V30 6825 H 629.71 3.51587 1.36624 0
M  V30 6826 H 632.097 2.53468 1.51122 0
M  V30 6827 H 632.178 2.54513 -0.256306 0
M  V30 6828 H 631.822 5.07354 -0.23541 0
M  V30 6829 H 631.752 5.03447 1.5443 0
M  V30 6830 H 634.243 3.71054 0.716049 0
M  V30 6831 H 634.556 7.6816 0.845553 0
M  V30 6832 H 632.901 6.90751 0.767337 0
M  V30 6833 H 636.092 4.61142 0.804091 0
M  V30 6834 H 636.265 6.42223 0.863372 0
M  V30 6835 N 629.671 -0.424282 1.51781 0
M  V30 6836 C 630.92 -1.16961 1.64326 0
M  V30 6837 C 631.233 -1.92035 0.371749 0
M  V30 6838 O 632.439 -2.68873 0.37676 0
M  V30 6839 C 630.895 -2.12782 2.90262 0
M  V30 6840 C 630.503 -1.43295 4.24465 0
M  V30 6841 C 632.247 -2.87667 3.12166 0
M  V30 6842 C 630.154 -2.37676 5.41538 0
M  V30 6843 H 629.084 -0.440293 0.612093 0
M  V30 6844 H 631.735 -0.435431 1.78259 0
M  V30 6845 H 630.117 -2.8969 2.69992 0
M  V30 6846 H 631.291 -0.718564 4.55163 0
M  V30 6847 H 629.606 -0.805118 4.08542 0
M  V30 6848 H 632.203 -3.58395 3.96808 0
M  V30 6849 H 632.546 -3.49758 2.25776 0
M  V30 6850 H 633.079 -2.17863 3.32837 0
M  V30 6851 H 629.818 -1.80255 6.30229 0
M  V30 6852 H 629.338 -3.07132 5.15199 0
M  V30 6853 H 631.017 -2.98529 5.74012 0
M  V30 6854 N 631.149 -1.42148 -0.680565 0
M  V30 6855 C 632.079 -1.4796 -1.80638 0
M  V30 6856 C 633.06 -0.336728 -1.66734 0
M  V30 6857 O 634.245 -0.550247 -1.86242 0
M  V30 6858 C 631.375 -1.37569 -3.18892 0
M  V30 6859 C 630.329 -2.49823 -3.47524 0
M  V30 6860 C 629.655 -2.24491 -4.85291 0
M  V30 6861 C 630.955 -3.92144 -3.44994 0
M  V30 6862 H 632.649 -2.42184 -1.76032 0
M  V30 6863 H 630.195 -1.16566 -0.845481 0
M  V30 6864 H 632.148 -1.40243 -3.97379 0
M  V30 6865 H 630.872 -0.398357 -3.24162 0
M  V30 6866 H 629.531 -2.46455 -2.71395 0
M  V30 6867 H 629.179 -1.25066 -4.87204 0
M  V30 6868 H 628.879 -2.99722 -5.05411 0
M  V30 6869 H 630.403 -2.28906 -5.66069 0
M  V30 6870 H 631.817 -3.97145 -4.13459 0
M  V30 6871 H 630.214 -4.67179 -3.76648 0
M  V30 6872 H 631.284 -4.19225 -2.43676 0
M  V30 6873 N 632.627 0.916307 -1.28225 0
M  V30 6874 C 633.56 2.01954 -1.06254 0
M  V30 6875 C 634.538 1.62587 0.0205983 0
M  V30 6876 O 635.722 1.88073 -0.126824 0
M  V30 6877 C 632.849 3.33086 -0.614141 0
M  V30 6878 C 631.895 3.91435 -1.69354 0
M  V30 6879 S 632.728 4.22603 -3.28887 0
M  V30 6880 C 633.884 5.568 -2.85876 0
M  V30 6881 H 634.117 2.20281 -1.99659 0
M  V30 6882 H 631.65 1.06085 -1.12184 0
M  V30 6883 H 633.608 4.089 -0.36213 0
M  V30 6884 H 632.269 3.12664 0.300036 0
M  V30 6885 H 631.462 4.86098 -1.33136 0
M  V30 6886 H 631.064 3.22248 -1.89821 0
M  V30 6887 H 633.356 6.3658 -2.31888 0
M  V30 6888 H 634.299 5.97927 -3.79326 0
M  V30 6889 H 634.707 5.17865 -2.24669 0
M  V30 6890 N 634.105 1.10431 1.1244 0
M  V30 6891 C 635.052 0.753103 2.18167 0
M  V30 6892 C 636.022 -0.270549 1.63882 0
M  V30 6893 O 637.207 -0.149837 1.90211 0
M  V30 6894 C 634.347 0.191046 3.44571 0
M  V30 6895 C 633.46 1.26999 4.12911 0
M  V30 6896 C 632.595 0.669586 5.26963 0
M  V30 6897 C 631.634 1.72912 5.87169 0
M  V30 6898 N 630.771 1.14898 6.92635 0
M  V30 6899 H 635.611 1.65892 2.47556 0
M  V30 6900 H 633.148 0.828631 1.21541 0
M  V30 6901 H 635.106 -0.152712 4.1692 0
M  V30 6902 H 633.736 -0.677997 3.15599 0
M  V30 6903 H 632.788 1.73087 3.3874 0
M  V30 6904 H 634.1 2.07204 4.53727 0
M  V30 6905 H 633.254 0.275274 6.06075 0
M  V30 6906 H 631.993 -0.163895 4.87425 0
M  V30 6907 H 630.998 2.13286 5.06744 0
M  V30 6908 H 632.223 2.56544 6.28778 0
M  V30 6909 H 630.169 0.336956 6.55134 0
M  V30 6910 H 630.086 1.88786 7.32049 0
M  V30 6911 H 631.354 0.78121 7.75576 0
M  V30 6912 N 635.583 -1.29855 0.893053 0
M  V30 6913 C 636.86 -1.90694 0.435336 0
M  V30 6914 C 637.24 -1.8111 -1.08454 0
M  V30 6915 O 636.588 -1.23352 -1.92345 0
M  V30 6916 C 636.798 -3.36033 0.942472 0
M  V30 6917 C 638.146 -4.13083 0.982226 0
M  V30 6918 O 639.17 -3.4491 0.889686 0
M  V30 6919 O 638.029 -5.34896 1.12022 0
M  V30 6920 H 635.123 -0.815978 0.134567 0
M  V30 6921 H 637.669 -1.38367 0.982484 0
M  V30 6922 H 636.441 -3.37132 1.9864 0
M  V30 6923 H 636.064 -3.95828 0.374952 0
M  V30 6924 N 637.061 -0.65484 -1.43351 0
M  V30 6925 C 638.31 -0.166215 -2.01014 0
M  V30 6926 C 638.623 1.22764 -1.52278 0
M  V30 6927 O 639.829 1.81156 -2.02224 0
M  V30 6928 C 638.285 -0.246341 -3.59056 0
M  V30 6929 C 637.893 -1.64299 -4.16785 0
M  V30 6930 C 639.637 0.184597 -4.24098 0
M  V30 6931 C 637.544 -1.67695 -5.67126 0
M  V30 6932 H 636.474 -0.0583769 -0.751737 0
M  V30 6933 H 639.125 -0.817111 -1.64303 0
M  V30 6934 H 637.507 0.472092 -3.93176 0
M  V30 6935 H 638.681 -2.3869 -3.94162 0
M  V30 6936 H 636.996 -2.02004 -3.6412 0
M  V30 6937 H 639.593 0.179088 -5.344 0
M  V30 6938 H 639.936 1.21632 -3.98135 0
M  V30 6939 H 640.469 -0.482141 -3.94867 0
M  V30 6940 H 637.208 -2.68783 -5.9786 0
M  V30 6941 H 636.728 -0.976313 -5.91801 0
M  V30 6942 H 638.407 -1.42142 -6.31193 0
M  V30 6943 N 638.539 1.52521 -0.396863 0
M  V30 6944 C 639.816 1.94112 0.240842 0
M  V30 6945 C 640.196 1.33288 1.637 0
M  V30 6946 O 639.544 0.503901 2.22875 0
M  V30 6947 C 639.754 3.48033 0.259567 0
M  V30 6948 C 641.102 4.21822 0.484866 0
M  V30 6949 O 642.126 3.54579 0.339453 0
M  V30 6950 O 640.985 5.41042 0.770412 0
M  V30 6951 H 638.079 0.812973 0.151671 0
M  V30 6952 H 640.625 1.63572 -0.451918 0
M  V30 6953 H 639.397 3.84655 -0.718078 0
M  V30 6954 H 639.02 3.84899 0.996937 0
M  V30 6955 N 640.017 0.126909 1.57088 0
M  V30 6956 C 641.266 -0.529024 1.94639 0
M  V30 6957 C 641.579 -1.67323 1.01304 0
M  V30 6958 O 642.785 -2.39245 1.28352 0
M  V30 6959 C 641.241 -0.992483 3.45945 0
M  V30 6960 C 640.849 0.123691 4.47829 0
M  V30 6961 C 642.593 -1.61934 3.924 0
M  V30 6962 C 640.5 -0.356911 5.90322 0
M  V30 6963 H 639.43 -0.201397 0.726605 0
M  V30 6964 H 642.081 0.208032 1.82317 0
M  V30 6965 H 640.463 -1.7842 3.53528 0
M  V30 6966 H 641.637 0.900168 4.51922 0
M  V30 6967 H 639.952 0.657699 4.11173 0
M  V30 6968 H 642.549 -1.9902 4.96281 0
M  V30 6969 H 642.892 -2.50075 3.32819 0
M  V30 6970 H 643.425 -0.892894 3.8765 0
M  V30 6971 H 640.164 0.488636 6.53676 0
M  V30 6972 H 639.684 -1.0997 5.89633 0
M  V30 6973 H 641.363 -0.815547 6.41839 0
M  V30 6974 N 641.495 -1.56914 -0.146875 0
M  V30 6975 C 642.425 -2.01308 -1.1831 0
M  V30 6976 C 643.406 -0.892664 -1.44795 0
M  V30 6977 O 644.591 -1.16048 -1.55713 0
M  V30 6978 C 641.721 -2.3938 -2.51624 0
M  V30 6979 C 640.675 -3.54608 -2.3966 0
M  V30 6980 C 640.001 -3.78493 -3.77686 0
M  V30 6981 C 641.301 -4.87269 -1.88058 0
M  V30 6982 H 642.995 -2.88123 -0.813964 0
M  V30 6983 H 640.541 -1.38615 -0.3901 0
M  V30 6984 H 642.494 -2.69037 -3.24341 0
M  V30 6985 H 641.218 -1.49502 -2.90373 0
M  V30 6986 H 639.877 -3.25116 -1.69396 0
M  V30 6987 H 639.525 -2.85866 -4.13871 0
M  V30 6988 H 639.225 -4.56039 -3.70543 0
M  V30 6989 H 640.749 -4.10576 -4.51951 0
M  V30 6990 H 642.163 -5.15644 -2.50568 0
M  V30 6991 H 640.56 -5.68622 -1.91805 0
M  V30 6992 H 641.63 -4.77634 -0.836277 0
M  V30 6993 N 642.974 0.416227 -1.52004 0
M  V30 6994 C 643.922 1.5272 -1.7544 0
M  V30 6995 C 644.916 1.57596 -0.621289 0
M  V30 6996 O 646.122 1.61087 -0.803172 0
M  V30 6997 H 642.497 0.507772 -0.554682 0
M  V30 6998 H 644.468 1.30136 -2.68528 0
M  V30 6999 C 643.217 2.90165 -1.91571 0
M  V30 7000 H 642.54 2.87154 -2.78178 0
M  V30 7001 H 643.98 3.67211 -2.11972 0
M  V30 7002 C 642.439 3.29947 -0.680942 0
M  V30 7003 O 642.969 4.01403 0.154527 0
M  V30 7004 N 641.175 2.8593 -0.518894 0
M  V30 7005 H 640.722 2.2795 -1.19986 0
M  V30 7006 H 640.68 3.12907 0.305985 0
M  V30 7007 N 644.452 1.42507 0.673017 0
M  V30 7008 C 645.677 1.4668 1.46627 0
M  V30 7009 C 646.102 0.080066 1.8793 0
M  V30 7010 O 645.46 -0.921879 1.56112 0
M  V30 7011 C 645.508 2.40091 2.69051 0
M  V30 7012 O 644.612 1.8735 3.67387 0
M  V30 7013 H 643.953 0.496908 0.44043 0
M  V30 7014 H 646.483 1.87215 0.825334 0
M  V30 7015 H 646.493 2.56731 3.17101 0
M  V30 7016 H 645.168 3.4084 2.3833 0
M  V30 7017 H 643.745 1.80274 3.26429 0
M  V30 7018 N 645.93 -0.909495 1.28709 0
M  V30 7019 C 646.893 -1.99399 1.13016 0
M  V30 7020 C 647.893 -1.60654 0.068536 0
M  V30 7021 O 649.083 -1.71334 0.314671 0
M  V30 7022 C 646.215 -3.33078 0.726085 0
M  V30 7023 H 647.408 -2.14751 2.09338 0
M  V30 7024 H 644.961 -1.09272 1.11756 0
M  V30 7025 H 645.696 -3.23428 -0.23771 0
M  V30 7026 H 645.481 -3.62562 1.49302 0
M  V30 7027 H 646.971 -4.12681 0.639058 0
M  V30 7028 N 647.408 -1.11026 -1.11852 0
M  V30 7029 C 648.656 -0.854769 -1.83134 0
M  V30 7030 C 648.977 0.621375 -1.84835 0
M  V30 7031 O 648.247 1.45129 -1.31584 0
M  V30 7032 H 646.827 -0.313229 -0.678157 0
M  V30 7033 H 649.489 -1.40178 -1.35411 0
M  V30 7034 H 648.585 -1.22311 -2.87135 0
M  V30 7035 N 648.886 1.2938 -0.899927 0
M  V30 7036 C 649.833 2.27713 -0.376243 0
M  V30 7037 C 650.803 1.57016 0.541774 0
M  V30 7038 O 651.988 1.84997 0.466966 0
M  V30 7039 C 649.128 3.42889 0.39 0
M  V30 7040 C 648.241 4.28369 -0.558938 0
M  V30 7041 C 647.376 5.30726 0.224379 0
M  V30 7042 C 646.415 6.07862 -0.719068 0
M  V30 7043 N 645.552 7.02094 0.0298569 0
M  V30 7044 H 650.392 2.71888 -1.21988 0
M  V30 7045 H 647.929 1.33724 -0.612879 0
M  V30 7046 H 649.887 4.08443 0.850314 0
M  V30 7047 H 648.517 2.99743 1.19809 0
M  V30 7048 H 647.569 3.62986 -1.13777 0
M  V30 7049 H 648.881 4.82068 -1.2811 0
M  V30 7050 H 648.035 6.02098 0.745881 0
M  V30 7051 H 646.774 4.77759 0.979674 0
M  V30 7052 H 645.779 5.35353 -1.25207 0
M  V30 7053 H 647.004 6.62917 -1.4737 0
M  V30 7054 H 644.95 6.51496 0.767415 0
M  V30 7055 H 644.867 7.5335 -0.632391 0
M  V30 7056 H 646.135 7.77685 0.531615 0
M  V30 7057 N 650.364 0.662433 1.43002 0
M  V30 7058 C 651.297 -0.073459 2.28082 0
M  V30 7059 C 652.275 -0.820869 1.40358 0
M  V30 7060 O 653.459 -0.818545 1.698 0
M  V30 7061 C 650.586 -1.11097 3.19961 0
M  V30 7062 C 649.632 -0.460557 4.24006 0
M  V30 7063 S 650.465 0.772717 5.29896 0
M  V30 7064 C 651.621 -0.264028 6.25343 0
M  V30 7065 H 651.854 0.648227 2.90147 0
M  V30 7066 H 649.387 0.451566 1.47649 0
M  V30 7067 H 651.345 -1.70452 3.73439 0
M  V30 7068 H 650.006 -1.80503 2.57056 0
M  V30 7069 H 649.199 -1.24299 4.88432 0
M  V30 7070 H 648.801 0.0591038 3.73953 0
M  V30 7071 H 651.093 -1.12748 6.68052 0
M  V30 7072 H 652.036 0.345443 7.07257 0
M  V30 7073 H 652.444 -0.603964 5.6126 0
M  V30 7074 N 651.842 -1.52309 0.404946 0
M  V30 7075 C 653.119 -1.94237 -0.230544 0
M  V30 7076 C 653.499 -1.34154 -1.6299 0
M  V30 7077 O 652.847 -0.515713 -2.22604 0
M  V30 7078 C 653.057 -3.48166 -0.241106 0
M  V30 7079 C 654.405 -4.22074 -0.462488 0
M  V30 7080 O 655.429 -3.54754 -0.320644 0
M  V30 7081 O 654.288 -5.41443 -0.741708 0
M  V30 7082 H 651.382 -0.813766 -0.147358 0
M  V30 7083 H 653.928 -1.6333 0.460587 0
M  V30 7084 H 652.7 -3.84269 0.738467 0
M  V30 7085 H 652.323 -3.85422 -0.97651 0
M  V30 7086 N 653.32 -0.135238 -1.57019 0
M  V30 7087 C 654.267 0.808908 -2.1616 0
M  V30 7088 C 655.237 1.25234 -1.09113 0
M  V30 7089 O 656.422 1.32697 -1.37099 0
M  V30 7090 C 653.562 2.04729 -2.77813 0
M  V30 7091 C 652.675 1.65074 -3.99218 0
M  V30 7092 C 651.81 2.84002 -4.48906 0
M  V30 7093 C 650.849 2.40663 -5.62803 0
M  V30 7094 N 649.986 3.5256 -6.07162 0
M  V30 7095 H 654.826 0.297751 -2.96509 0
M  V30 7096 H 652.363 0.135264 -1.46477 0
M  V30 7097 H 654.321 2.7731 -3.11697 0
M  V30 7098 H 652.951 2.53275 -2.00128 0
M  V30 7099 H 652.003 0.823029 -3.7139 0
M  V30 7100 H 653.315 1.29236 -4.81767 0
M  V30 7101 H 652.469 3.64788 -4.84783 0
M  V30 7102 H 651.208 3.23076 -3.65339 0
M  V30 7103 H 650.213 1.58314 -5.26514 0
M  V30 7104 H 651.438 2.02687 -6.48147 0
M  V30 7105 H 649.384 3.91278 -5.26534 0
M  V30 7106 H 649.301 3.20699 -6.84608 0
M  V30 7107 H 650.569 4.33738 -6.47682 0
M  V30 7108 N 654.798 1.5699 0.138552 0
M  V30 7109 C 655.731 1.94064 1.2006 0
M  V30 7110 C 656.709 0.807601 1.41126 0
M  V30 7111 O 657.893 1.06399 1.556 0
M  V30 7112 C 655.02 2.21999 2.55801 0
M  V30 7113 C 654.066 3.44617 2.5128 0
M  V30 7114 S 654.899 4.97888 1.97149 0
M  V30 7115 C 656.055 5.28954 3.34602 0
M  V30 7116 H 656.288 2.83843 0.884337 0
M  V30 7117 H 653.821 1.50507 0.344517 0
M  V30 7118 H 655.779 2.38772 3.33914 0
M  V30 7119 H 654.44 1.32869 2.84613 0
M  V30 7120 H 653.633 3.61466 3.51224 0
M  V30 7121 H 653.235 3.27129 1.8128 0
M  V30 7122 H 655.527 5.22938 4.30745 0
M  V30 7123 H 656.47 6.30346 3.22598 0
M  V30 7124 H 656.878 4.56455 3.32128 0
M  V30 7125 N 656.276 -0.40816 1.52223 0
M  V30 7126 C 657.692 -0.74685 1.41047 0
M  V30 7127 C 657.892 -1.94788 0.51573 0
M  V30 7128 O 656.948 -2.52494 -0.0181156 0
M  V30 7129 C 658.261 -0.999878 2.83589 0
M  V30 7130 C 659.809 -1.10253 2.92939 0
M  V30 7131 C 660.284 -1.38832 4.36451 0
M  V30 7132 N 661.775 -1.45694 4.3969 0
M  V30 7133 C 662.51 -1.69435 5.47795 0
M  V30 7134 N 662.006 -1.90774 6.66016 0
M  V30 7135 N 663.799 -1.71458 5.35312 0
M  V30 7136 H 655.95 0.382409 2.08929 0
M  V30 7137 H 658.213 0.108807 0.941735 0
M  V30 7138 H 657.919 -0.189723 3.51188 0
M  V30 7139 H 657.793 -1.91978 3.24691 0
M  V30 7140 H 660.18 -1.90328 2.2552 0
M  V30 7141 H 660.261 -0.160973 2.55293 0
M  V30 7142 H 659.905 -0.592741 5.04429 0
M  V30 7143 H 659.835 -2.34241 4.71634 0
M  V30 7144 H 662.326 -1.3099 3.54472 0
M  V30 7145 H 662.639 -2.08342 7.44186 0
M  V30 7146 H 660.984 -1.88037 6.69079 0
M  V30 7147 H 664.175 -1.54326 4.41929 0
M  V30 7148 H 664.348 -1.89621 6.19635 0
M  V30 7149 N 657.755 -1.42862 -0.66545 0
M  V30 7150 C 658.685 -1.49867 -1.79059 0
M  V30 7151 C 659.666 -0.354394 -1.66367 0
M  V30 7152 O 660.851 -0.569969 -1.85647 0
M  V30 7153 C 657.981 -1.40943 -3.17415 0
M  V30 7154 C 656.935 -2.53495 -3.44854 0
M  V30 7155 C 656.261 -2.29626 -4.82883 0
M  V30 7156 C 657.561 -3.95781 -3.40815 0
M  V30 7157 H 659.255 -2.44037 -1.73453 0
M  V30 7158 H 656.801 -1.17456 -0.833071 0
M  V30 7159 H 658.754 -1.4445 -3.95869 0
M  V30 7160 H 657.478 -0.432716 -3.23721 0
M  V30 7161 H 656.137 -2.4932 -2.68766 0
M  V30 7162 H 655.785 -1.30226 -4.8585 0
M  V30 7163 H 655.485 -3.05065 -5.02204 0
M  V30 7164 H 657.009 -2.34897 -5.63609 0
M  V30 7165 H 658.423 -4.01508 -4.09224 0
M  V30 7166 H 656.82 -4.71148 -3.71672 0
M  V30 7167 H 657.89 -4.21786 -2.39216 0
M  V30 7168 N 659.233 0.902656 -1.29189 0
M  V30 7169 C 660.163 2.02294 -1.16616 0
M  V30 7170 C 661.144 1.6999 -0.0611175 0
M  V30 7171 O 662.329 1.9271 -0.240072 0
M  V30 7172 C 659.459 3.37018 -0.83882 0
M  V30 7173 C 658.413 3.83522 -1.89986 0
M  V30 7174 C 657.739 5.15337 -1.42589 0
M  V30 7175 C 659.039 4.04169 -3.30824 0
M  V30 7176 H 660.733 2.13071 -2.10336 0
M  V30 7177 H 658.279 1.02378 -1.01266 0
M  V30 7178 H 660.232 4.14895 -0.737584 0
M  V30 7179 H 658.956 3.26325 0.134071 0
M  V30 7180 H 657.615 3.07859 -1.99043 0
M  V30 7181 H 657.263 5.01056 -0.441759 0
M  V30 7182 H 656.963 5.47423 -2.13547 0
M  V30 7183 H 658.487 5.95758 -1.3381 0
M  V30 7184 H 659.901 4.72537 -3.24626 0
M  V30 7185 H 658.298 4.47604 -3.99713 0
M  V30 7186 H 659.368 3.08604 -3.74021 0
M  V30 7187 N 660.711 1.11618 1.11262 0
M  V30 7188 C 661.659 0.771291 2.1944 0
M  V30 7189 C 662.653 -0.238073 1.67719 0
M  V30 7190 O 663.859 -0.0971628 1.79738 0
M  V30 7191 H 660.234 0.231548 0.715465 0
M  V30 7192 H 662.205 1.69226 2.45775 0
M  V30 7193 C 660.954 0.232765 3.4692 0
M  V30 7194 H 660.277 1.00072 3.87073 0
M  V30 7195 H 661.717 0.0296561 4.2399 0
M  V30 7196 C 660.176 -1.03738 3.20531 0
M  V30 7197 O 660.706 -2.11675 3.41404 0
M  V30 7198 N 658.912 -0.960906 2.74253 0
M  V30 7199 H 658.459 -0.0824323 2.57468 0
M  V30 7200 H 658.417 -1.8114 2.56974 0
M  V30 7201 N 662.189 -1.289 0.906776 0
M  V30 7202 C 663.438 -1.9455 0.532262 0
M  V30 7203 C 663.751 -1.72219 -0.927353 0
M  V30 7204 O 664.957 -2.32033 -1.40971 0
M  V30 7205 C 663.413 -3.48438 0.901041 0
M  V30 7206 C 663.021 -3.79558 2.37991 0
M  V30 7207 C 664.765 -4.20284 0.596777 0
M  V30 7208 C 662.672 -5.26723 2.68918 0
M  V30 7209 H 661.602 -0.728259 0.195333 0
M  V30 7210 H 664.253 -1.46519 1.10474 0
M  V30 7211 H 662.635 -3.95162 0.257419 0
M  V30 7212 H 663.809 -3.43668 3.06967 0
M  V30 7213 H 662.124 -3.20868 2.65391 0
M  V30 7214 H 664.721 -5.28612 0.8046 0
M  V30 7215 H 665.064 -4.13694 -0.465072 0
M  V30 7216 H 665.597 -3.79315 1.19855 0
M  V30 7217 H 662.336 -5.38384 3.73928 0
M  V30 7218 H 661.856 -5.63836 2.04571 0
M  V30 7219 H 663.535 -5.94391 2.55555 0
M  V30 7220 N 663.667 -0.670007 -1.42649 0
M  V30 7221 C 664.597 -0.00258501 -2.335 0
M  V30 7222 C 665.578 0.794364 -1.50412 0
M  V30 7223 O 666.763 0.75248 -1.79029 0
M  V30 7224 C 663.893 0.952748 -3.33976 0
M  V30 7225 C 662.847 0.264733 -4.2718 0
M  V30 7226 C 662.173 1.33267 -5.17826 0
M  V30 7227 C 663.473 -0.853289 -5.15283 0
M  V30 7228 H 665.167 -0.761326 -2.89559 0
M  V30 7229 H 662.713 -0.367561 -1.3923 0
M  V30 7230 H 664.666 1.4287 -3.96442 0
M  V30 7231 H 663.39 1.74285 -2.7621 0
M  V30 7232 H 662.049 -0.190938 -3.66102 0
M  V30 7233 H 661.697 2.11464 -4.5639 0
M  V30 7234 H 661.397 0.877476 -5.81011 0
M  V30 7235 H 662.921 1.80965 -5.83167 0
M  V30 7236 H 664.335 -0.458763 -5.71462 0
M  V30 7237 H 662.732 -1.23398 -5.87276 0
M  V30 7238 H 663.802 -1.70412 -4.53969 0
M  V30 7239 N 665.145 1.52092 -0.413018 0
M  V30 7240 C 666.078 2.23613 0.455234 0
M  V30 7241 C 667.056 1.2459 1.04481 0
M  V30 7242 O 668.24 1.53653 1.09193 0
M  V30 7243 C 665.367 2.96775 1.63224 0
M  V30 7244 C 664.413 4.10261 1.16568 0
M  V30 7245 S 665.246 5.35348 0.127633 0
M  V30 7246 C 666.402 6.1204 1.30987 0
M  V30 7247 H 666.635 2.96911 -0.152042 0
M  V30 7248 H 664.168 1.53134 -0.197343 0
M  V30 7249 H 666.126 3.39532 2.30713 0
M  V30 7250 H 664.787 2.23113 2.21087 0
M  V30 7251 H 663.98 4.6064 2.04515 0
M  V30 7252 H 663.582 3.6964 0.569386 0
M  V30 7253 H 665.874 6.39651 2.23276 0
M  V30 7254 H 666.817 7.03022 0.846533 0
M  V30 7255 H 667.225 5.43161 1.53743 0
M  V30 7256 N 666.623 0.143563 1.56945 0
M  V30 7257 C 667.555 -0.828353 2.13708 0
M  V30 7258 C 668.568 -1.21313 1.08568 0
M  V30 7259 O 669.757 -1.1578 1.35857 0
M  V30 7260 C 666.857 -2.12248 2.64204 0
M  V30 7261 C 666.03 -1.90561 3.93707 0
M  V30 7262 C 665.089 -3.03931 4.29549 0
M  V30 7263 O 664.115 -2.75772 4.97934 0
M  V30 7264 N 665.317 -4.31016 3.88852 0
M  V30 7265 H 668.082 -0.343242 2.97728 0
M  V30 7266 H 665.643 -0.0401152 1.6185 0
M  V30 7267 H 667.635 -2.87132 2.85197 0
M  V30 7268 H 666.205 -2.52033 1.84928 0
M  V30 7269 H 665.425 -0.997327 3.81375 0
M  V30 7270 H 666.713 -1.73405 4.78339 0
M  V30 7271 H 666.111 -4.56762 3.33743 0
M  V30 7272 H 664.668 -5.02691 4.14903 0
M  V30 7273 N 668.101 -1.57061 -0.130224 0
M  V30 7274 C 669.031 -2.02552 -1.16168 0
M  V30 7275 C 670.012 -0.907971 -1.4384 0
M  V30 7276 O 671.197 -1.17693 -1.54473 0
M  V30 7277 C 668.327 -2.42035 -2.49071 0
M  V30 7278 C 667.281 -3.5713 -2.35886 0
M  V30 7279 C 666.607 -3.82478 -3.7365 0
M  V30 7280 C 667.907 -4.89236 -1.8288 0
M  V30 7281 H 669.601 -2.8897 -0.783359 0
M  V30 7282 H 667.147 -1.39021 -0.375376 0
M  V30 7283 H 669.1 -2.72462 -3.21469 0
M  V30 7284 H 667.824 -1.52573 -2.88771 0
M  V30 7285 H 666.483 -3.26895 -1.65938 0
M  V30 7286 H 666.131 -2.9024 -4.10816 0
M  V30 7287 H 665.831 -4.59944 -3.65685 0
M  V30 7288 H 667.355 -4.15347 -4.47571 0
M  V30 7289 H 668.769 -5.18272 -2.45085 0
M  V30 7290 H 667.166 -5.70624 -1.85763 0
M  V30 7291 H 668.236 -4.78494 -0.785571 0
M  V30 7292 N 669.579 0.400081 -1.52437 0
M  V30 7293 C 670.995 0.739359 -1.41441 0
M  V30 7294 C 671.195 1.94512 -0.526053 0
M  V30 7295 O 670.251 2.525 0.00472502 0
M  V30 7296 C 671.564 0.984824 -2.84116 0
M  V30 7297 C 673.112 1.08698 -2.93519 0
M  V30 7298 C 673.587 1.36515 -4.37181 0
M  V30 7299 N 675.078 1.43361 -4.40457 0
M  V30 7300 C 675.813 1.66528 -5.48686 0
M  V30 7301 N 675.309 1.87239 -6.67018 0
M  V30 7302 N 677.102 1.68617 -5.36213 0
M  V30 7303 H 669.253 -0.393484 -2.08723 0
M  V30 7304 H 671.516 -0.1138 -0.941145 0
M  V30 7305 H 671.222 0.171096 -3.51284 0
M  V30 7306 H 671.096 1.90253 -3.25705 0
M  V30 7307 H 673.483 1.89129 -2.26526 0
M  V30 7308 H 673.564 0.147432 -2.55375 0
M  V30 7309 H 673.208 0.565982 -5.04737 0
M  V30 7310 H 673.138 2.31737 -4.7287 0
M  V30 7311 H 675.629 1.29108 -3.55161 0
M  V30 7312 H 675.942 2.04392 -7.45281 0
M  V30 7313 H 674.287 1.84486 -6.70067 0
M  V30 7314 H 677.478 1.5198 -4.42741 0
M  V30 7315 H 677.651 1.86332 -6.20632 0
M  V30 7316 N 671.057 1.43213 0.657864 0
M  V30 7317 C 672.004 1.48011 1.77092 0
M  V30 7318 C 672.974 0.330291 1.62783 0
M  V30 7319 O 674.159 0.536787 1.83094 0
M  V30 7320 C 671.299 1.40461 3.15222 0
M  V30 7321 C 670.412 2.65612 3.40697 0
M  V30 7322 C 669.547 2.50083 4.68649 0
M  V30 7323 C 668.586 3.70525 4.87214 0
M  V30 7324 N 667.723 3.53835 6.0642 0
M  V30 7325 H 672.563 2.43121 1.72326 0
M  V30 7326 H 670.1 1.20687 0.841013 0
M  V30 7327 H 672.058 1.34079 3.95068 0
M  V30 7328 H 670.688 0.489359 3.19069 0
M  V30 7329 H 669.74 2.82292 2.54982 0
M  V30 7330 H 671.052 3.5509 3.50303 0
M  V30 7331 H 670.206 2.41383 5.56614 0
M  V30 7332 H 668.945 1.58121 4.61356 0
M  V30 7333 H 667.95 3.79639 3.97686 0
M  V30 7334 H 669.175 4.63489 4.96341 0
M  V30 7335 H 667.121 2.64604 6.00267 0
M  V30 7336 H 667.038 4.36912 6.16963 0
M  V30 7337 H 668.306 3.48978 6.97019 0
M  V30 7338 N 672.536 -0.895792 1.29666 0
M  V30 7339 C 673.776 -1.6609 1.19136 0
M  V30 7340 C 674.14 -1.90336 -0.252245 0
M  V30 7341 O 675.341 -2.64469 -0.480593 0
M  V30 7342 C 673.612 -2.97129 1.98618 0
M  V30 7343 S 675.171 -3.88146 2.04666 0
M  V30 7344 H 671.989 -0.570188 0.424744 0
M  V30 7345 H 674.591 -1.06411 1.64003 0
M  V30 7346 H 673.295 -2.77199 3.02637 0
M  V30 7347 H 672.826 -3.61847 1.54371 0
M  V30 7348 H 674.841 -4.82301 1.16618 0
M  V30 7349 N 674.014 -1.12206 -1.10668 0
M  V30 7350 C 675.254 -0.885935 -1.84202 0
M  V30 7351 C 675.618 0.577849 -1.83098 0
M  V30 7352 O 676.819 0.931051 -2.5216 0
M  V30 7353 C 675.09 -1.44197 -3.2702 0
M  V30 7354 S 676.649 -1.34402 -4.1771 0
M  V30 7355 H 673.467 -0.319653 -0.635093 0
M  V30 7356 H 676.069 -1.43112 -1.33189 0
M  V30 7357 H 674.773 -2.50096 -3.25392 0
M  V30 7358 H 674.304 -0.894173 -3.83103 0
M  V30 7359 H 676.319 -0.313873 -4.95206 0
M  V30 7360 N 675.492 1.28418 -0.913599 0
M  V30 7361 C 676.44 2.29272 -0.392037 0
M  V30 7362 C 677.434 1.61344 0.516198 0
M  V30 7363 O 678.64 1.75557 0.39746 0
M  V30 7364 H 675.015 0.744178 -0.108178 0
M  V30 7365 H 676.986 2.70691 -1.25574 0
M  V30 7366 C 675.735 3.45905 0.352815 0
M  V30 7367 H 675.058 3.98378 -0.336848 0
M  V30 7368 H 676.498 4.18473 0.682398 0
M  V30 7369 C 674.957 2.98572 1.56065 0
M  V30 7370 O 675.487 3.01033 2.65974 0
M  V30 7371 N 673.693 2.54235 1.40759 0
M  V30 7372 H 673.24 2.52432 0.513403 0
M  V30 7373 H 673.198 2.22925 2.21702 0
M  V30 7374 N 676.97 0.677563 1.42291 0
M  V30 7375 C 677.92 -0.0218641 2.2799 0
M  V30 7376 C 678.904 -0.770816 1.41235 0
M  V30 7377 O 680.096 -0.649273 1.64662 0
M  V30 7378 C 677.225 -0.970449 3.29298 0
M  V30 7379 C 676.311 -0.218695 4.23536 0
M  V30 7380 N 676.702 0.777908 4.99782 0
M  V30 7381 C 675 -0.456748 4.43655 0
M  V30 7382 C 675.701 1.22632 5.68627 0
M  V30 7383 N 674.677 0.55573 5.40752 0
M  V30 7384 H 678.479 0.742516 2.84366 0
M  V30 7385 H 675.993 0.506862 1.54288 0
M  V30 7386 H 677.99 -1.48652 3.89497 0
M  V30 7387 H 676.65 -1.73463 2.74483 0
M  V30 7388 H 677.661 1.15754 5.04798 0
M  V30 7389 H 674.338 -1.20021 3.99877 0
M  V30 7390 H 675.728 2.05231 6.39789 0
M  V30 7391 N 678.448 -1.51871 0.421078 0
M  V30 7392 C 679.859 -1.86644 -0.0457991 0
M  V30 7393 C 680.21 -1.33919 -1.43388 0
M  V30 7394 O 679.335 -0.683316 -2.05328 0
M  V30 7395 C 679.93 -3.38681 -0.0898844 0
M  V30 7396 C 678.489 -3.73049 -0.501127 0
M  V30 7397 C 677.636 -2.75485 0.316723 0
M  V30 7398 H 680.587 -1.45327 0.637635 0
M  V30 7399 H 680.608 -3.69636 -0.902734 0
M  V30 7400 H 680.12 -3.77025 0.920513 0
M  V30 7401 H 678.221 -3.40288 -1.51773 0
M  V30 7402 H 678.334 -4.78512 -0.237217 0
M  V30 7403 H 676.698 -2.53725 -0.222663 0
M  V30 7404 H 677.481 -3.16671 1.32569 0
M  V30 7405 N 679.926 -0.151884 -1.56866 0
M  V30 7406 C 681.156 0.504081 -2.00356 0
M  V30 7407 C 681.564 1.58639 -1.03103 0
M  V30 7408 O 680.907 1.83688 -0.0207931 0
M  V30 7409 C 680.969 1.15975 -3.40279 0
M  V30 7410 C 680.633 0.221453 -4.56463 0
M  V30 7411 C 681.63 -0.552766 -5.16953 0
M  V30 7412 C 679.315 0.122936 -5.0215 0
M  V30 7413 C 681.309 -1.4129 -6.21543 0
M  V30 7414 C 678.996 -0.740801 -6.06593 0
M  V30 7415 C 679.994 -1.50732 -6.6616 0
M  V30 7416 O 679.682 -2.35666 -7.68581 0
M  V30 7417 H 679.414 0.135279 -0.662326 0
M  V30 7418 H 681.968 -0.244916 -2.03935 0
M  V30 7419 H 680.198 1.95649 -3.33554 0
M  V30 7420 H 681.887 1.71594 -3.67846 0
M  V30 7421 H 682.653 -0.486716 -4.82552 0
M  V30 7422 H 678.532 0.70931 -4.5551 0
M  V30 7423 H 682.076 -2.01166 -6.67966 0
M  V30 7424 H 677.973 -0.808125 -6.40421 0
M  V30 7425 H 678.741 -2.28967 -7.85822 0
M  V30 7426 N 681.404 1.57128 0.121893 0
M  V30 7427 C 682.334 2.03165 1.15092 0
M  V30 7428 C 683.315 0.915587 1.43356 0
M  V30 7429 O 684.5 1.1851 1.53847 0
M  V30 7430 C 681.63 2.43352 2.47784 0
M  V30 7431 C 680.584 3.58376 2.33989 0
M  V30 7432 C 679.91 3.84454 3.71617 0
M  V30 7433 C 681.21 4.90199 1.80283 0
M  V30 7434 H 682.904 2.89382 0.768023 0
M  V30 7435 H 680.45 1.39218 0.367998 0
M  V30 7436 H 682.403 2.74163 3.20019 0
M  V30 7437 H 681.127 1.54103 2.87958 0
M  V30 7438 H 679.786 3.2777 1.64202 0
M  V30 7439 H 679.434 2.92414 4.09271 0
M  V30 7440 H 679.134 4.61877 3.6324 0
M  V30 7441 H 680.658 4.17714 4.45362 0
M  V30 7442 H 682.072 5.19565 2.42333 0
M  V30 7443 H 680.469 5.71601 1.82735 0
M  V30 7444 H 681.539 4.78904 0.760184 0
M  V30 7445 N 682.882 -0.391992 1.52647 0
M  V30 7446 C 684.129 -1.13732 1.67545 0
M  V30 7447 C 684.457 -1.90045 0.413881 0
M  V30 7448 O 683.712 -1.86157 -0.603646 0
M  V30 7449 C 684.011 -2.14401 2.85949 0
M  V30 7450 C 683.677 -1.54767 4.23507 0
M  V30 7451 C 682.339 -1.38229 4.60919 0
M  V30 7452 C 684.691 -1.11382 5.0916 0
M  V30 7453 C 682.019 -0.7685 5.81645 0
M  V30 7454 C 684.371 -0.514143 6.30507 0
M  V30 7455 C 683.035 -0.33604 6.66654 0
M  V30 7456 H 682.305 -0.416174 0.613091 0
M  V30 7457 H 684.952 -0.422327 1.86785 0
M  V30 7458 H 683.257 -2.92108 2.61114 0
M  V30 7459 H 684.954 -2.71974 2.94671 0
M  V30 7460 H 681.544 -1.68626 3.94035 0
M  V30 7461 H 685.728 -1.22962 4.80826 0
M  V30 7462 H 680.984 -0.618681 6.08262 0
M  V30 7463 H 685.158 -0.169657 6.96193 0
M  V30 7464 H 682.785 0.14166 7.60068 0
M  V30 7465 N 684.36 -1.4356 -0.65026 0
M  V30 7466 C 685.637 -1.35811 -1.40765 0
M  V30 7467 C 686.017 -0.00736379 -2.11099 0
M  V30 7468 O 685.365 1.00932 -2.05 0
M  V30 7469 C 685.575 -2.54332 -2.3899 0
M  V30 7470 C 686.923 -2.97551 -3.02901 0
M  V30 7471 O 687.947 -2.544 -2.49317 0
M  V30 7472 O 686.806 -3.72311 -4.00059 0
M  V30 7473 H 683.9 -0.536861 -0.629054 0
M  V30 7474 H 686.446 -1.55615 -0.676919 0
M  V30 7475 H 685.218 -3.44274 -1.85986 0
M  V30 7476 H 684.841 -2.36643 -3.19509 0
M  V30 7477 N 685.838 0.888903 -1.30139 0
M  V30 7478 C 687.086 1.63713 -1.18501 0
M  V30 7479 C 687.407 1.9324 0.261399 0
M  V30 7480 O 686.677 1.56608 1.17689 0
M  V30 7481 H 685.257 0.606861 -0.435579 0
M  V30 7482 H 687.919 1.06525 -1.63213 0
M  V30 7483 H 687.015 2.58894 -1.743 0
M  V30 7484 N 687.317 1.12792 1.10072 0
M  V30 7485 C 688.28 0.802264 2.14701 0
M  V30 7486 C 689.28 -0.18515 1.59731 0
M  V30 7487 O 690.47 0.041109 1.74151 0
M  V30 7488 C 687.602 0.19285 3.40354 0
M  V30 7489 H 688.795 1.72932 2.45019 0
M  V30 7490 H 686.348 0.931662 1.25498 0
M  V30 7491 H 687.083 -0.743748 3.15656 0
M  V30 7492 H 686.868 0.903827 3.81541 0
M  V30 7493 H 688.358 -0.0183704 4.17596 0
M  V30 7494 N 688.795 -1.27931 0.920396 0
M  V30 7495 C 689.705 -2.30824 0.419212 0
M  V30 7496 C 690.721 -1.66767 -0.496461 0
M  V30 7497 O 691.897 -1.97763 -0.38104 0
M  V30 7498 C 688.962 -3.45158 -0.326601 0
M  V30 7499 C 688.023 -4.24754 0.623098 0
M  V30 7500 C 687.256 -5.33629 -0.0872172 0
M  V30 7501 O 687.479 -5.55204 -1.30784 0
M  V30 7502 O 686.413 -5.99091 0.580875 0
M  V30 7503 H 690.239 -2.75716 1.27337 0
M  V30 7504 H 687.824 -1.32747 0.685465 0
M  V30 7505 H 689.706 -4.14716 -0.747559 0
M  V30 7506 H 688.381 -3.02336 -1.15648 0
M  V30 7507 H 687.288 -3.57759 1.09359 0
M  V30 7508 H 688.621 -4.71272 1.41998 0
M  V30 7509 N 690.273 -0.685099 -1.4193 0
M  V30 7510 C 691.684 -0.287699 -1.8447 0
M  V30 7511 C 692.035 1.17215 -1.57338 0
M  V30 7512 O 691.16 1.89856 -1.03845 0
M  V30 7513 C 691.755 -0.515385 -3.34857 0
M  V30 7514 C 690.314 -0.172006 -3.76007 0
M  V30 7515 C 689.461 -0.802808 -2.65425 0
M  V30 7516 H 692.412 -0.88652 -1.3163 0
M  V30 7517 H 692.433 0.229251 -3.79809 0
M  V30 7518 H 691.945 -1.57796 -3.54573 0
M  V30 7519 H 690.046 0.886716 -3.61895 0
M  V30 7520 H 690.159 -0.619717 -4.75075 0
M  V30 7521 H 688.523 -0.233267 -2.5363 0
M  V30 7522 H 689.306 -1.86904 -2.87961 0
M  V30 7523 N 691.751 1.51645 -0.429126 0
M  V30 7524 C 692.999 2.01616 0.139802 0
M  V30 7525 C 693.32 1.31568 1.43927 0
M  V30 7526 O 692.59 0.447688 1.90716 0
M  V30 7527 H 691.17 0.744998 0.054654 0
M  V30 7528 H 693.832 1.8638 -0.569952 0
M  V30 7529 H 692.928 3.10439 0.321609 0
M  V30 7530 N 693.229 0.160201 1.56784 0
M  V30 7531 C 694.64 -0.358417 1.83227 0
M  V30 7532 C 694.991 -1.63831 1.07952 0
M  V30 7533 O 694.116 -2.13885 0.328995 0
M  V30 7534 C 694.711 -0.657058 3.32368 0
M  V30 7535 C 693.27 -1.12015 3.59346 0
M  V30 7536 C 692.417 -0.15015 2.76893 0
M  V30 7537 H 695.368 0.384669 1.53967 0
M  V30 7538 H 695.389 -1.51033 3.49241 0
M  V30 7539 H 694.901 0.274647 3.87127 0
M  V30 7540 H 693.002 -2.06734 3.09987 0
M  V30 7541 H 693.115 -1.037 4.67743 0
M  V30 7542 H 691.479 -0.645361 2.46388 0
M  V30 7543 H 692.262 0.775379 3.34429 0
M  V30 7544 N 694.707 -1.5719 -0.113559 0
M  V30 7545 C 696.118 -1.74259 -0.670116 0
M  V30 7546 C 696.469 -0.779694 -1.80042 0
M  V30 7547 O 695.594 0.0461353 -2.16351 0
M  V30 7548 C 696.189 -3.15981 -1.22236 0
M  V30 7549 C 694.748 -3.34537 -1.72516 0
M  V30 7550 C 693.895 -2.70116 -0.627098 0
M  V30 7551 H 696.846 -1.58301 0.112396 0
M  V30 7552 H 696.867 -3.17832 -2.09197 0
M  V30 7553 H 696.379 -3.86038 -0.39949 0
M  V30 7554 H 694.48 -2.6953 -2.57263 0
M  V30 7555 H 694.593 -4.42737 -1.83086 0
M  V30 7556 H 692.957 -2.31501 -1.06204 0
M  V30 7557 H 693.74 -3.42802 0.184889 0
M  V30 7558 N 696.185 0.383891 -1.52853 0
M  V30 7559 C 697.415 1.14783 -1.7178 0
M  V30 7560 C 697.823 1.84055 -0.438211 0
M  V30 7561 O 697.166 1.73713 0.597465 0
M  V30 7562 C 697.228 2.23543 -2.81547 0
M  V30 7563 C 696.892 1.74195 -4.22499 0
M  V30 7564 C 697.889 1.21591 -5.05481 0
M  V30 7565 C 695.574 1.80262 -4.6884 0
M  V30 7566 C 697.568 0.757104 -6.32888 0
M  V30 7567 C 695.255 1.33993 -5.96229 0
M  V30 7568 C 696.253 0.818049 -6.78083 0
M  V30 7569 O 695.941 0.362123 -8.03084 0
M  V30 7570 H 695.673 0.349908 -0.578395 0
M  V30 7571 H 698.227 0.454377 -2.00311 0
M  V30 7572 H 696.457 2.96328 -2.48449 0
M  V30 7573 H 698.146 2.8519 -2.88828 0
M  V30 7574 H 698.912 1.16257 -4.7086 0
M  V30 7575 H 694.791 2.19825 -4.05213 0
M  V30 7576 H 698.335 0.34908 -6.96726 0
M  V30 7577 H 694.232 1.39015 -6.30353 0
M  V30 7578 H 695 0.483134 -8.17073 0
M  V30 7579 N 697.663 1.43903 0.642637 0
M  V30 7580 C 698.891 1.4954 1.42988 0
M  V30 7581 C 699.306 0.116588 1.8844 0
M  V30 7582 O 698.663 -0.875285 1.60141 0
M  V30 7583 C 698.714 2.45031 2.65785 0
M  V30 7584 O 698.435 3.77551 2.22232 0
M  V30 7585 C 699.936 2.60017 3.59035 0
M  V30 7586 H 697.156 0.507544 0.438907 0
M  V30 7587 H 699.7 1.88752 0.786942 0
M  V30 7588 H 697.855 2.08985 3.26196 0
M  V30 7589 H 698.269 4.29001 3.01759 0
M  V30 7590 H 699.743 3.30887 4.41835 0
M  V30 7591 H 700.22 1.64861 4.07084 0
M  V30 7592 H 700.826 2.96918 3.045 0
M  V30 7593 N 699.141 -0.881989 1.30609 0
M  V30 7594 C 700.369 -1.66711 1.22536 0
M  V30 7595 C 700.784 -1.87614 -0.2113 0
M  V30 7596 O 700.141 -1.42576 -1.13923 0
M  V30 7597 C 700.192 -3.04182 1.95335 0
M  V30 7598 O 699.913 -2.8422 3.33393 0
M  V30 7599 C 701.414 -3.98617 1.93956 0
M  V30 7600 H 698.634 -0.520124 0.423925 0
M  V30 7601 H 701.178 -1.10174 1.72285 0
M  V30 7602 H 699.333 -3.57442 1.49378 0
M  V30 7603 H 699.747 -3.71452 3.70302 0
M  V30 7604 H 701.221 -4.92433 2.49426 0
M  V30 7605 H 701.698 -4.29473 0.919198 0
M  V30 7606 H 702.304 -3.51292 2.39738 0
M  V30 7607 N 700.619 -1.13374 -1.09472 0
M  V30 7608 C 701.896 -0.806329 -1.78207 0
M  V30 7609 C 702.276 0.702191 -1.99079 0
M  V30 7610 O 701.624 1.63931 -1.59182 0
M  V30 7611 C 701.834 -1.59271 -3.10538 0
M  V30 7612 C 703.182 -1.78509 -3.85253 0
M  V30 7613 O 704.206 -1.55866 -3.20288 0
M  V30 7614 O 703.065 -2.16287 -5.01879 0
M  V30 7615 H 700.159 -0.29435 -0.772843 0
M  V30 7616 H 702.705 -1.23833 -1.16033 0
M  V30 7617 H 701.477 -2.61792 -2.90828 0
M  V30 7618 H 701.1 -1.15562 -3.80436 0
M  V30 7619 N 702.098 1.27442 -0.927168 0
M  V30 7620 C 703.031 2.25177 -0.370232 0
M  V30 7621 C 704.009 1.53612 0.533103 0
M  V30 7622 O 705.193 1.8245 0.47373 0
M  V30 7623 C 702.32 3.35431 0.469411 0
M  V30 7624 C 701.366 4.24888 -0.370419 0
M  V30 7625 S 702.199 5.04852 -1.78562 0
M  V30 7626 C 703.355 6.18592 -0.953651 0
M  V30 7627 H 703.588 2.72069 -1.19858 0
M  V30 7628 H 701.121 1.36089 -0.729316 0
M  V30 7629 H 703.079 3.99404 0.947992 0
M  V30 7630 H 701.74 2.87179 1.27228 0
M  V30 7631 H 700.933 5.03264 0.272226 0
M  V30 7632 H 700.535 3.65709 -0.783153 0
M  V30 7633 H 702.827 6.77235 -0.189408 0
M  V30 7634 H 703.77 6.87132 -1.7104 0
M  V30 7635 H 704.178 5.62318 -0.495897 0
M  V30 7636 N 703.576 0.692616 1.41565 0
M  V30 7637 C 704.526 0.00231847 2.28 0
M  V30 7638 C 705.51 -0.755793 1.42044 0
M  V30 7639 O 706.702 -0.631772 1.65341 0
M  V30 7640 C 703.831 -0.935468 3.30309 0
M  V30 7641 C 702.917 -0.173761 4.23744 0
M  V30 7642 N 703.308 0.830872 4.98929 0
M  V30 7643 C 701.606 -0.409666 4.44115 0
M  V30 7644 C 702.307 1.28656 5.67294 0
M  V30 7645 N 701.283 0.613053 5.40132 0
M  V30 7646 H 705.085 0.772635 2.83562 0
M  V30 7647 H 702.599 0.523198 1.53741 0
M  V30 7648 H 704.596 -1.44513 3.91052 0
M  V30 7649 H 703.256 -1.70542 2.76307 0
M  V30 7650 H 704.267 1.21101 5.03542 0
M  V30 7651 H 700.944 -1.15773 4.01127 0
M  V30 7652 H 702.334 2.12006 6.37576 0
M  V30 7653 N 705.054 -1.51416 0.437162 0
M  V30 7654 C 705.984 -2.30631 -0.364922 0
M  V30 7655 C 706.965 -1.36037 -1.02118 0
M  V30 7656 O 708.15 -1.64956 -1.02485 0
M  V30 7657 C 705.28 -3.1482 -1.46648 0
M  V30 7658 C 704.234 -4.17691 -0.933717 0
M  V30 7659 C 703.56 -4.904 -2.13101 0
M  V30 7660 C 704.86 -5.2229 0.0317201 0
M  V30 7661 H 706.554 -2.97932 0.29614 0
M  V30 7662 H 704.1 -1.4328 0.143865 0
M  V30 7663 H 706.053 -3.69017 -2.03481 0
M  V30 7664 H 704.777 -2.4534 -2.15583 0
M  V30 7665 H 703.436 -3.64545 -0.387602 0
M  V30 7666 H 703.084 -4.17423 -2.80654 0
M  V30 7667 H 702.784 -5.59962 -1.78092 0
M  V30 7668 H 704.308 -5.4742 -2.70487 0
M  V30 7669 H 705.722 -5.7156 -0.446302 0
M  V30 7670 H 704.119 -5.99378 0.29437 0
M  V30 7671 H 705.189 -4.75131 0.968447 0
M  V30 7672 N 706.532 -0.168513 -1.56696 0
M  V30 7673 C 707.778 0.477865 -1.9709 0
M  V30 7674 C 708.111 1.63084 -1.05438 0
M  V30 7675 O 707.386 1.94238 -0.10095 0
M  V30 7676 C 707.669 0.963521 -3.4697 0
M  V30 7677 C 707.522 -0.189443 -4.49401 0
M  V30 7678 C 708.841 1.83813 -3.99876 0
M  V30 7679 H 705.96 0.172229 -0.716593 0
M  V30 7680 H 708.602 -0.254083 -1.88293 0
M  V30 7681 H 706.752 1.58724 -3.54597 0
M  V30 7682 H 708.424 -0.826451 -4.53836 0
M  V30 7683 H 706.667 -0.845366 -4.25483 0
M  V30 7684 H 707.338 0.192446 -5.51664 0
M  V30 7685 H 709.814 1.31235 -3.94863 0
M  V30 7686 H 708.69 2.14697 -5.0517 0
M  V30 7687 H 708.951 2.78289 -3.43523 0
M  V30 7688 N 708.01 1.57248 0.105221 0
M  V30 7689 C 709.238 1.89768 0.82437 0
M  V30 7690 C 709.653 0.761192 1.72775 0
M  V30 7691 O 709.01 -0.267342 1.80531 0
M  V30 7692 C 709.061 3.2184 1.64625 0
M  V30 7693 O 708.782 4.31115 0.779217 0
M  V30 7694 C 710.283 3.68155 2.46935 0
M  V30 7695 H 707.503 0.628031 0.236259 0
M  V30 7696 H 710.047 2.04321 0.085485 0
M  V30 7697 H 708.202 3.08915 2.33775 0
M  V30 7698 H 708.616 5.06897 1.34745 0
M  V30 7699 H 710.09 4.6329 3.00111 0
M  V30 7700 H 710.567 2.95492 3.24932 0
M  V30 7701 H 711.173 3.83914 1.83002 0
M  V30 7702 N 709.488 -0.375779 1.53054 0
M  V30 7703 C 710.436 -1.48015 1.79428 0
M  V30 7704 C 711.43 -1.55893 0.662854 0
M  V30 7705 O 712.636 -1.58901 0.845599 0
M  V30 7706 H 709.011 -0.492887 0.56795 0
M  V30 7707 H 710.982 -1.22971 2.71884 0
M  V30 7708 C 709.731 -2.84984 1.99197 0
M  V30 7709 H 709.054 -2.79677 2.85693 0
M  V30 7710 H 710.494 -3.61462 2.21633 0
M  V30 7711 C 708.953 -3.28025 0.768183 0
M  V30 7712 O 709.483 -4.01671 -0.0480482 0
M  V30 7713 N 707.689 -2.84454 0.594521 0
M  V30 7714 H 707.236 -2.24688 1.25988 0
M  V30 7715 H 707.194 -3.13609 -0.222916 0
M  V30 7716 N 710.966 -1.44241 -0.634997 0
M  V30 7717 C 712.191 -1.50516 -1.42687 0
M  V30 7718 C 712.616 -0.129864 -1.87651 0
M  V30 7719 O 711.974 0.880164 -1.58502 0
M  V30 7720 C 712.022 -2.4714 -2.62591 0
M  V30 7721 O 711.126 -1.97025 -3.62291 0
M  V30 7722 H 710.467 -0.50841 -0.427101 0
M  V30 7723 H 712.997 -1.89337 -0.775408 0
M  V30 7724 H 713.007 -2.65048 -3.10183 0
M  V30 7725 H 711.682 -3.47039 -2.29209 0
M  V30 7726 H 710.259 -1.88866 -3.21534 0
M  V30 7727 N 712.444 0.87505 -1.31075 0
M  V30 7728 C 713.692 1.62447 -1.20231 0
M  V30 7729 C 714.013 1.93506 0.240888 0
M  V30 7730 O 713.283 1.57847 1.16022 0
M  V30 7731 H 711.863 0.602207 -0.441991 0
M  V30 7732 H 714.525 1.04788 -1.64334 0
M  V30 7733 H 713.621 2.57031 -1.77036 0
M  V30 7734 N 713.922 1.13953 1.08869 0
M  V30 7735 C 714.869 0.82213 2.15661 0
M  V30 7736 C 715.839 -0.218274 1.6466 0
M  V30 7737 O 717.024 -0.0892475 1.90591 0
M  V30 7738 C 714.164 0.300572 3.43789 0
M  V30 7739 C 713.277 1.40071 4.08661 0
M  V30 7740 C 712.412 0.836897 5.24566 0
M  V30 7741 C 711.451 1.91504 5.81371 0
M  V30 7742 N 710.588 1.36875 6.88629 0
M  V30 7743 H 715.428 1.73683 2.42153 0
M  V30 7744 H 712.965 0.866879 1.18843 0
M  V30 7745 H 714.923 -0.0199943 4.17195 0
M  V30 7746 H 713.553 -0.577248 3.17597 0
M  V30 7747 H 712.605 1.83776 3.33062 0
M  V30 7748 H 713.917 2.21534 4.46905 0
M  V30 7749 H 713.071 0.467953 6.04893 0
M  V30 7750 H 711.81 -0.00874207 4.87699 0
M  V30 7751 H 710.815 2.29299 4.99702 0
M  V30 7752 H 712.04 2.76419 6.20298 0
M  V30 7753 H 709.986 0.545211 6.5373 0
M  V30 7754 H 709.903 2.1198 7.25672 0
M  V30 7755 H 711.171 1.02756 7.72698 0
M  V30 7756 N 715.4 -1.26948 0.933913 0
M  V30 7757 C 716.333 -2.24977 0.382169 0
M  V30 7758 C 717.311 -1.53893 -0.524949 0
M  V30 7759 O 718.495 -1.82699 -0.464048 0
M  V30 7760 C 715.622 -3.35676 -0.451615 0
M  V30 7761 C 714.668 -4.24686 0.392947 0
M  V30 7762 S 715.501 -5.03898 1.81237 0
M  V30 7763 C 716.657 -6.18078 0.986443 0
M  V30 7764 H 716.89 -2.71429 1.21299 0
M  V30 7765 H 714.423 -1.35701 0.736523 0
M  V30 7766 H 716.381 -3.99901 -0.926797 0
M  V30 7767 H 715.042 -2.8785 -1.25703 0
M  V30 7768 H 714.235 -5.03402 -0.245533 0
M  V30 7769 H 713.837 -3.65288 0.802537 0
M  V30 7770 H 716.129 -6.77125 0.225321 0
M  V30 7771 H 717.072 -6.86216 1.74682 0
M  V30 7772 H 717.48 -5.62047 0.525711 0
M  V30 7773 N 716.879 -0.700114 -1.41195 0
M  V30 7774 C 718.125 -0.233351 -2.01453 0
M  V30 7775 C 718.458 1.16548 -1.55339 0
M  V30 7776 O 717.733 1.78756 -0.766575 0
M  V30 7777 C 718.016 -0.2961 -3.58881 0
M  V30 7778 C 717.869 -1.7322 -4.15108 0
M  V30 7779 C 719.188 0.341525 -4.38773 0
M  V30 7780 H 716.307 -0.0862667 -0.731934 0
M  V30 7781 H 718.949 -0.889693 -1.67882 0
M  V30 7782 H 717.099 0.262736 -3.87611 0
M  V30 7783 H 718.771 -2.34523 -3.97236 0
M  V30 7784 H 717.014 -2.2649 -3.69979 0
M  V30 7785 H 717.685 -1.7276 -5.24269 0
M  V30 7786 H 720.161 -0.134461 -4.15883 0
M  V30 7787 H 719.037 0.267098 -5.4825 0
M  V30 7788 H 719.298 1.42289 -4.18577 0
M  V30 7789 N 718.357 1.51182 -0.445186 0
M  V30 7790 C 719.603 2.02452 0.11882 0
M  V30 7791 C 719.936 1.32824 1.41673 0
M  V30 7792 O 719.211 0.445637 1.89326 0
M  V30 7793 C 719.494 3.5859 0.329475 0
M  V30 7794 C 719.347 4.38823 -0.987638 0
M  V30 7795 C 720.666 4.26241 1.09575 0
M  V30 7796 H 717.785 0.735819 0.0417092 0
M  V30 7797 H 720.427 1.80747 -0.585718 0
M  V30 7798 H 718.577 3.77214 0.9296 0
M  V30 7799 H 720.249 4.3183 -1.62235 0
M  V30 7800 H 718.492 4.03594 -1.59041 0
M  V30 7801 H 719.163 5.46257 -0.794192 0
M  V30 7802 H 721.639 4.11934 0.587328 0
M  V30 7803 H 720.515 5.35354 1.21191 0
M  V30 7804 H 720.776 3.87635 2.12584 0
M  V30 7805 N 719.835 0.176821 1.56605 0
M  V30 7806 C 720.765 -0.746841 2.21234 0
M  V30 7807 C 721.746 -1.23502 1.16967 0
M  V30 7808 O 722.931 -1.28718 1.45414 0
M  V30 7809 C 720.061 -1.97407 2.8574 0
M  V30 7810 C 719.015 -1.62153 3.96094 0
M  V30 7811 C 718.341 -2.92387 4.47676 0
M  V30 7812 C 719.641 -0.845353 5.15413 0
M  V30 7813 H 721.335 -0.208116 2.98676 0
M  V30 7814 H 718.881 -0.0986594 1.43662 0
M  V30 7815 H 720.834 -2.62531 3.2963 0
M  V30 7816 H 719.558 -2.53703 2.05676 0
M  V30 7817 H 718.217 -0.993964 3.52868 0
M  V30 7818 H 717.865 -3.46734 3.64396 0
M  V30 7819 H 717.565 -2.69551 5.22127 0
M  V30 7820 H 719.089 -3.5853 4.94255 0
M  V30 7821 H 720.503 -1.39929 5.55961 0
M  V30 7822 H 718.9 -0.715814 5.95815 0
M  V30 7823 H 719.97 0.157239 4.84645 0
M  V30 7824 N 721.313 -1.57302 -0.09688 0
M  V30 7825 C 722.59 -1.7701 -0.832272 0
M  V30 7826 C 722.97 -0.758025 -1.97021 0
M  V30 7827 O 722.318 0.213824 -2.27497 0
M  V30 7828 C 722.528 -3.22725 -1.32851 0
M  V30 7829 C 723.876 -3.85856 -1.772 0
M  V30 7830 O 724.9 -3.26464 -1.42478 0
M  V30 7831 O 723.759 -4.90295 -2.41398 0
M  V30 7832 H 720.853 -0.725558 -0.396856 0
M  V30 7833 H 723.399 -1.69516 -0.0789005 0
M  V30 7834 H 722.171 -3.87921 -0.51312 0
M  V30 7835 H 721.794 -3.34845 -2.14394 0
M  V30 7836 N 722.791 0.367657 -1.53252 0
M  V30 7837 C 723.738 1.45028 -1.79543 0
M  V30 7838 C 724.708 1.53288 -0.63969 0
M  V30 7839 O 725.893 1.69209 -0.881653 0
M  V30 7840 C 723.033 2.82 -1.98923 0
M  V30 7841 C 722.146 2.82722 -3.26638 0
M  V30 7842 C 721.281 4.11257 -3.36216 0
M  V30 7843 C 720.32 4.06113 -4.57972 0
M  V30 7844 N 719.457 5.26293 -4.64715 0
M  V30 7845 H 724.297 1.21908 -2.71923 0
M  V30 7846 H 721.834 0.591011 -1.34705 0
M  V30 7847 H 723.792 3.61568 -2.08146 0
M  V30 7848 H 722.422 3.03523 -1.09881 0
M  V30 7849 H 721.474 1.95399 -3.26379 0
M  V30 7850 H 722.786 2.74794 -4.16281 0
M  V30 7851 H 721.94 4.99239 -3.44739 0
M  V30 7852 H 720.679 4.21935 -2.44586 0
M  V30 7853 H 719.684 3.16517 -4.49552 0
M  V30 7854 H 720.909 3.97039 -5.50942 0
M  V30 7855 H 718.855 5.37561 -3.75985 0
M  V30 7856 H 718.772 5.20526 -5.4826 0
M  V30 7857 H 720.04 6.16113 -4.77519 0
M  V30 7858 N 724.269 1.44576 0.627338 0
M  V30 7859 C 725.199 1.54562 1.75022 0
M  V30 7860 C 726.18 0.398378 1.65369 0
M  V30 7861 O 727.365 0.61899 1.84071 0
M  V30 7862 C 724.495 1.49309 3.13567 0
M  V30 7863 C 723.449 2.62549 3.38012 0
M  V30 7864 C 722.775 2.42348 4.76625 0
M  V30 7865 C 724.075 4.04678 3.30202 0
M  V30 7866 H 725.769 2.4855 1.66922 0
M  V30 7867 H 723.315 1.19624 0.801636 0
M  V30 7868 H 725.268 1.54895 3.919 0
M  V30 7869 H 723.992 0.518392 3.2246 0
M  V30 7870 H 722.651 2.56358 2.62061 0
M  V30 7871 H 722.299 1.43062 4.82226 0
M  V30 7872 H 721.999 3.18273 4.93939 0
M  V30 7873 H 723.523 2.49758 5.57183 0
M  V30 7874 H 724.937 4.12217 3.98435 0
M  V30 7875 H 723.334 4.80836 3.5905 0
M  V30 7876 H 724.404 4.2798 2.27949 0
M  V30 7877 N 725.747 -0.868086 1.31537 0
M  V30 7878 C 726.677 -1.99131 1.21939 0
M  V30 7879 C 727.658 -1.69768 0.106166 0
M  V30 7880 O 728.843 -1.92006 0.291081 0
M  V30 7881 C 725.973 -3.34676 0.927879 0
M  V30 7882 C 724.927 -3.7835 2.00088 0
M  V30 7883 C 724.253 -5.11375 1.56203 0
M  V30 7884 C 725.553 -3.95256 3.41424 0
M  V30 7885 H 727.247 -2.07419 2.15911 0
M  V30 7886 H 724.793 -0.996569 1.03945 0
M  V30 7887 H 726.746 -4.12793 0.847327 0
M  V30 7888 H 725.47 -3.26565 -0.0475042 0
M  V30 7889 H 724.129 -3.02474 2.07135 0
M  V30 7890 H 723.777 -4.99709 0.57445 0
M  V30 7891 H 723.477 -5.41568 2.27985 0
M  V30 7892 H 725.001 -5.92001 1.49558 0
M  V30 7893 H 726.415 -4.63764 3.3704 0
M  V30 7894 H 724.812 -4.36849 4.1144 0
M  V30 7895 H 725.882 -2.98579 3.82072 0
M  V30 7896 N 727.225 -1.14528 -1.08264 0
M  V30 7897 C 728.636 -0.925261 -1.6216 0
M  V30 7898 C 728.987 0.535587 -1.88748 0
M  V30 7899 O 728.112 1.4048 -1.64604 0
M  V30 7900 C 728.707 -1.67316 -2.94603 0
M  V30 7901 C 727.266 -1.49868 -3.45278 0
M  V30 7902 C 726.413 -1.69471 -2.19487 0
M  V30 7903 H 729.364 -1.29687 -0.914707 0
M  V30 7904 H 729.385 -1.13721 -3.63109 0
M  V30 7905 H 728.897 -2.73635 -2.75219 0
M  V30 7906 H 726.998 -0.459032 -3.69762 0
M  V30 7907 H 727.111 -2.2696 -4.21931 0
M  V30 7908 H 725.475 -1.12048 -2.2873 0
M  V30 7909 H 726.258 -2.77136 -2.0261 0
M  V30 7910 N 728.703 1.26451 -0.940633 0
M  V30 7911 C 729.65 2.264 -0.448497 0
M  V30 7912 C 730.62 1.5866 0.491546 0
M  V30 7913 O 731.805 1.86389 0.407874 0
M  V30 7914 C 728.945 3.43956 0.280715 0
M  V30 7915 C 728.058 4.26374 -0.694937 0
M  V30 7916 C 727.193 5.31171 0.0554186 0
M  V30 7917 C 726.232 6.05266 -0.912091 0
M  V30 7918 N 725.369 7.01833 -0.193524 0
M  V30 7919 H 730.209 2.67869 -1.30576 0
M  V30 7920 H 727.746 1.31707 -0.655112 0
M  V30 7921 H 729.704 4.10941 0.71994 0
M  V30 7922 H 728.334 3.03403 1.10212 0
M  V30 7923 H 727.386 3.59183 -1.25267 0
M  V30 7924 H 728.698 4.77748 -1.43382 0
M  V30 7925 H 727.852 6.04166 0.553951 0
M  V30 7926 H 726.591 4.80634 0.827183 0
M  V30 7927 H 725.596 5.31099 -1.42175 0
M  V30 7928 H 726.821 6.57893 -1.68385 0
M  V30 7929 H 724.767 6.53607 0.559758 0
M  V30 7930 H 724.684 7.50957 -0.871744 0
M  V30 7931 H 725.952 7.78983 0.283932 0
M  V30 7932 N 730.181 0.707592 1.40822 0
M  V30 7933 C 731.111 0.0644925 2.33411 0
M  V30 7934 C 732.092 -0.754205 1.52466 0
M  V30 7935 O 733.277 -0.704749 1.80961 0
M  V30 7936 C 730.407 -0.863865 3.36385 0
M  V30 7937 C 729.361 -0.15138 4.27732 0
M  V30 7938 C 728.687 -1.19491 5.21177 0
M  V30 7939 C 729.987 0.989607 5.12839 0
M  V30 7940 H 731.681 0.837829 2.87438 0
M  V30 7941 H 729.227 0.404346 1.38207 0
M  V30 7942 H 731.18 -1.32309 4.0009 0
M  V30 7943 H 729.904 -1.66901 2.80734 0
M  V30 7944 H 728.563 0.287937 3.65467 0
M  V30 7945 H 728.211 -1.9929 4.61836 0
M  V30 7946 H 727.911 -0.723123 5.83134 0
M  V30 7947 H 729.435 -1.6544 5.8776 0
M  V30 7948 H 730.849 0.610114 5.70044 0
M  V30 7949 H 729.246 1.38926 5.83798 0
M  V30 7950 H 730.316 1.82389 4.49291 0
M  V30 7951 N 731.66 -1.50943 0.453197 0
M  V30 7952 C 732.607 -2.28128 -0.350197 0
M  V30 7953 C 733.577 -1.32398 -1.00299 0
M  V30 7954 O 734.762 -1.61319 -1.01887 0
M  V30 7955 C 731.902 -3.13782 -1.43649 0
M  V30 7956 C 731.015 -4.24523 -0.800255 0
M  V30 7957 C 730.15 -4.97462 -1.86293 0
M  V30 7958 C 729.189 -6.00102 -1.20598 0
M  V30 7959 N 728.326 -6.66387 -2.21071 0
M  V30 7960 H 733.166 -2.96337 0.31434 0
M  V30 7961 H 730.703 -1.46151 0.166863 0
M  V30 7962 H 732.661 -3.6178 -2.07776 0
M  V30 7963 H 731.291 -2.47655 -2.07044 0
M  V30 7964 H 730.343 -3.80371 -0.0468651 0
M  V30 7965 H 731.655 -4.98009 -0.280777 0
M  V30 7966 H 730.809 -5.49088 -2.58044 0
M  V30 7967 H 729.548 -4.23642 -2.41617 0
M  V30 7968 H 728.553 -5.47753 -0.474 0
M  V30 7969 H 729.778 -6.75887 -0.659859 0
M  V30 7970 H 727.724 -5.9537 -2.75446 0
M  V30 7971 H 727.641 -7.3569 -1.74058 0
M  V30 7972 H 728.909 -7.22638 -2.92257 0
M  V30 7973 N 733.138 -0.185124 -1.56509 0
M  V30 7974 C 734.048 0.751908 -2.22224 0
M  V30 7975 C 735.064 1.24244 -1.21817 0
M  V30 7976 O 736.24 1.29169 -1.54523 0
M  V30 7977 C 733.305 1.95837 -2.86092 0
M  V30 7978 C 732.366 1.51337 -4.01741 0
M  V30 7979 C 731.599 2.66233 -4.62554 0
M  V30 7980 O 731.822 3.8346 -4.22273 0
M  V30 7981 O 730.756 2.39517 -5.52191 0
M  V30 7982 H 734.582 0.222304 -3.02885 0
M  V30 7983 H 732.167 0.0437141 -1.49336 0
M  V30 7984 H 734.049 2.66368 -3.26536 0
M  V30 7985 H 732.724 2.47677 -2.08417 0
M  V30 7986 H 731.631 0.777155 -3.65939 0
M  V30 7987 H 732.964 1.04175 -4.81049 0
M  V30 7988 N 734.616 1.57351 0.0885366 0
M  V30 7989 C 735.548 1.99221 1.13329 0
M  V30 7990 C 736.561 0.895705 1.35945 0
M  V30 7991 O 737.75 1.17376 1.34481 0
M  V30 7992 C 734.85 2.3016 2.48756 0
M  V30 7993 C 734.023 3.61444 2.46327 0
M  V30 7994 C 733.082 3.80244 3.63732 0
M  V30 7995 O 732.108 4.52024 3.45924 0
M  V30 7996 N 733.31 3.2132 4.8346 0
M  V30 7997 H 736.075 2.89456 0.776862 0
M  V30 7998 H 733.636 1.59505 0.277428 0
M  V30 7999 H 735.628 2.39925 3.25911 0
M  V30 8000 H 734.198 1.459 2.76464 0
M  V30 8001 H 733.418 3.62588 1.54673 0
M  V30 8002 H 734.706 4.47678 2.41789 0
M  V30 8003 H 734.104 2.63028 5.00832 0
M  V30 8004 H 732.661 3.3656 5.58185 0
M  V30 8005 N 736.094 -0.359525 1.53444 0
M  V30 8006 C 737.342 -1.09935 1.69584 0
M  V30 8007 C 737.663 -1.89656 0.453371 0
M  V30 8008 O 736.933 -1.8852 -0.53263 0
M  V30 8009 H 735.513 -0.408843 0.625185 0
M  V30 8010 H 738.175 -0.40467 1.90653 0
M  V30 8011 H 737.271 -1.78575 2.55964 0
M  V30 8012 N 737.572 -1.44907 -0.619662 0
M  V30 8013 C 738.797 -1.52021 -1.41083 0
M  V30 8014 C 739.222 -0.14976 -1.87503 0
M  V30 8015 O 738.58 0.863303 -1.59426 0
M  V30 8016 C 738.628 -2.49911 -2.59955 0
M  V30 8017 O 737.732 -2.00857 -3.60181 0
M  V30 8018 H 737.073 -0.512912 -0.421684 0
M  V30 8019 H 739.603 -1.90149 -0.755282 0
M  V30 8020 H 739.613 -2.68323 -3.07354 0
M  V30 8021 H 738.288 -3.4945 -2.25516 0
M  V30 8022 H 736.865 -1.92265 -3.19513 0
M  V30 8023 N 739.05 0.861098 -1.31996 0
M  V30 8024 C 740.466 1.14827 -1.10846 0
M  V30 8025 C 740.666 2.0117 0.11528 0
M  V30 8026 O 739.722 2.39423 0.802048 0
M  V30 8027 C 741.035 1.83183 -2.38462 0
M  V30 8028 C 742.583 1.95847 -2.44158 0
M  V30 8029 C 743.058 2.67617 -3.71679 0
M  V30 8030 N 744.549 2.75147 -3.72624 0
M  V30 8031 C 745.284 3.31314 -4.67994 0
M  V30 8032 N 744.78 3.88343 -5.73726 0
M  V30 8033 N 746.573 3.29356 -4.55501 0
M  V30 8034 H 738.724 0.285951 -2.10466 0
M  V30 8035 H 740.987 0.189303 -0.928907 0
M  V30 8036 H 740.693 1.27193 -3.27895 0
M  V30 8037 H 740.567 2.83393 -2.48935 0
M  V30 8038 H 742.954 2.50999 -1.55189 0
M  V30 8039 H 743.035 0.94653 -2.37644 0
M  V30 8040 H 742.679 2.13131 -4.61018 0
M  V30 8041 H 742.609 3.69237 -3.75462 0
M  V30 8042 H 745.1 2.34682 -2.96197 0
M  V30 8043 H 745.413 4.29338 -6.42564 0
M  V30 8044 H 743.758 3.86693 -5.77489 0
M  V30 8045 H 746.949 2.84047 -3.72069 0
M  V30 8046 H 747.122 3.7283 -5.30001 0
M  V30 8047 N 740.528 1.15101 1.07655 0
M  V30 8048 C 741.774 0.925343 1.80458 0
M  V30 8049 C 742.107 -0.546354 1.86356 0
M  V30 8050 O 741.382 -1.40496 1.34503 0
M  V30 8051 C 741.665 1.53646 3.25676 0
M  V30 8052 C 741.518 3.07854 3.27942 0
M  V30 8053 C 742.837 1.21968 4.22861 0
M  V30 8054 H 739.956 0.337592 0.655134 0
M  V30 8055 H 742.598 1.42217 1.25993 0
M  V30 8056 H 740.748 1.11395 3.72187 0
M  V30 8057 H 742.42 3.58989 2.89697 0
M  V30 8058 H 740.663 3.41904 2.66991 0
M  V30 8059 H 741.334 3.45725 4.30324 0
M  V30 8060 H 743.81 1.5851 3.84726 0
M  V30 8061 H 742.686 1.67349 5.22767 0
M  V30 8062 H 742.947 0.136207 4.4189 0
M  V30 8063 N 742.006 -1.2595 0.947325 0
M  V30 8064 C 742.936 -2.28521 0.479604 0
M  V30 8065 C 743.917 -1.63469 -0.470293 0
M  V30 8066 O 745.102 -1.90627 -0.370824 0
M  V30 8067 C 742.232 -3.46397 -0.250289 0
M  V30 8068 C 741.186 -4.23578 0.613643 0
M  V30 8069 C 740.512 -5.34131 -0.246568 0
M  V30 8070 C 741.812 -4.86979 1.88809 0
M  V30 8071 H 743.506 -2.67895 1.33688 0
M  V30 8072 H 741.052 -1.28783 0.644274 0
M  V30 8073 H 743.005 -4.17269 -0.588576 0
M  V30 8074 H 741.729 -3.05993 -1.14175 0
M  V30 8075 H 740.388 -3.54478 0.93491 0
M  V30 8076 H 740.036 -4.89968 -1.13756 0
M  V30 8077 H 739.736 -5.86683 0.328123 0
M  V30 8078 H 741.26 -6.07839 -0.579986 0
M  V30 8079 H 742.674 -5.50034 1.61666 0
M  V30 8080 H 741.071 -5.49675 2.40784 0
M  V30 8081 H 742.141 -4.09575 2.5957 0
M  V30 8082 N 743.484 -0.715051 -1.40445 0
M  V30 8083 C 744.733 -0.251322 -2.00128 0
M  V30 8084 C 745.046 1.16194 -1.57347 0
M  V30 8085 O 746.252 1.72416 -2.09726 0
M  V30 8086 C 744.708 -0.398407 -3.57688 0
M  V30 8087 C 744.316 -1.81828 -4.09442 0
M  V30 8088 C 746.06 0.00455625 -4.245 0
M  V30 8089 C 743.967 -1.91598 -5.59503 0
M  V30 8090 H 742.897 -0.0902081 -0.748584 0
M  V30 8091 H 745.548 -0.886062 -1.6069 0
M  V30 8092 H 743.93 0.304908 -3.94824 0
M  V30 8093 H 745.104 -2.55193 -3.83684 0
M  V30 8094 H 743.419 -2.17266 -3.55225 0
M  V30 8095 H 746.016 -0.0477303 -5.34679 0
M  V30 8096 H 746.359 1.04636 -4.02935 0
M  V30 8097 H 746.892 -0.649184 -3.92467 0
M  V30 8098 H 743.631 -2.93898 -5.85922 0
M  V30 8099 H 743.151 -1.22644 -5.87127 0
M  V30 8100 H 744.83 -1.68785 -6.24596 0
M  V30 8101 N 744.962 1.50701 -0.461195 0
M  V30 8102 C 746.209 2.02267 0.0971971 0
M  V30 8103 C 746.537 1.34387 1.40608 0
M  V30 8104 O 745.792 0.455254 1.90331 0
M  V30 8105 C 746.091 3.55788 0.33908 0
M  V30 8106 C 745.757 4.42092 -0.886885 0
M  V30 8107 C 744.419 4.65398 -1.22304 0
M  V30 8108 C 746.771 4.92571 -1.70361 0
M  V30 8109 C 744.099 5.36429 -2.37616 0
M  V30 8110 C 746.451 5.64868 -2.84793 0
M  V30 8111 C 745.115 5.86431 -3.18834 0
M  V30 8112 H 744.385 0.740146 0.0355669 0
M  V30 8113 H 747.032 1.81415 -0.61326 0
M  V30 8114 H 745.337 3.751 1.13168 0
M  V30 8115 H 747.034 3.93243 0.784937 0
M  V30 8116 H 743.624 4.24165 -0.614981 0
M  V30 8117 H 747.808 4.74428 -1.4571 0
M  V30 8118 H 743.064 5.51333 -2.64276 0
M  V30 8119 H 747.238 6.02966 -3.48432 0
M  V30 8120 H 744.865 6.41248 -4.08296 0
M  V30 8121 N 746.441 0.193421 1.56409 0
M  V30 8122 C 747.666 -0.454552 2.02358 0
M  V30 8123 C 748.091 -1.54516 1.07268 0
M  V30 8124 O 747.449 -1.81214 0.0558962 0
M  V30 8125 C 747.497 -0.989469 3.46759 0
M  V30 8126 O 746.601 -2.10244 3.54783 0
M  V30 8127 H 745.942 -0.106417 0.655417 0
M  V30 8128 H 748.472 0.303807 2.02332 0
M  V30 8129 H 748.482 -1.30649 3.86516 0
M  V30 8130 H 747.157 -0.191083 4.15461 0
M  V30 8131 H 745.734 -1.79419 3.26899 0
M  V30 8132 N 747.919 -1.57396 -0.0801906 0
M  V30 8133 C 748.851 -1.9982 -1.12271 0
M  V30 8134 C 749.864 -0.902902 -1.35468 0
M  V30 8135 O 751.053 -1.18088 -1.33856 0
M  V30 8136 C 748.153 -2.31476 -2.47532 0
M  V30 8137 C 747.326 -3.62745 -2.44407 0
M  V30 8138 C 746.385 -3.82168 -3.6171 0
M  V30 8139 O 745.411 -4.53852 -3.43522 0
M  V30 8140 N 746.613 -3.2388 -4.81749 0
M  V30 8141 H 749.378 -2.89864 -0.761501 0
M  V30 8142 H 746.939 -1.5965 -0.268965 0
M  V30 8143 H 748.931 -2.4165 -3.24634 0
M  V30 8144 H 747.501 -1.47364 -2.75686 0
M  V30 8145 H 746.721 -3.63403 -1.52747 0
M  V30 8146 H 748.009 -4.48954 -2.39412 0
M  V30 8147 H 747.407 -2.6568 -4.9943 0
M  V30 8148 H 745.964 -3.39515 -5.56392 0
M  V30 8149 N 749.397 0.351382 -1.53633 0
M  V30 8150 C 750.33 1.45407 -1.75875 0
M  V30 8151 C 751.308 1.50822 -0.607566 0
M  V30 8152 O 752.492 1.68658 -0.841818 0
M  V30 8153 C 749.619 2.8369 -1.85034 0
M  V30 8154 C 748.665 2.95935 -3.07123 0
M  V30 8155 S 749.498 2.63215 -4.66345 0
M  V30 8156 C 750.654 4.03622 -4.78373 0
M  V30 8157 H 750.887 1.26322 -2.69128 0
M  V30 8158 H 748.42 0.546581 -1.44402 0
M  V30 8159 H 750.378 3.6336 -1.90996 0
M  V30 8160 H 749.039 3.00076 -0.928074 0
M  V30 8161 H 748.232 3.97243 -3.10183 0
M  V30 8162 H 747.834 2.24205 -2.99346 0
M  V30 8163 H 750.126 4.98046 -4.593 0
M  V30 8164 H 751.069 4.05559 -5.80454 0
M  V30 8165 H 751.477 3.91282 -4.06889 0
M  V30 8166 N 750.875 1.45233 0.611969 0
M  V30 8167 C 752.103 1.52539 1.39784 0
M  V30 8168 C 752.518 0.156533 1.8815 0
M  V30 8169 O 751.875 -0.84112 1.61961 0
M  V30 8170 C 751.926 2.50614 2.60528 0
M  V30 8171 O 751.647 3.8218 2.14173 0
M  V30 8172 C 753.148 2.67574 3.53439 0
M  V30 8173 H 750.368 0.51674 0.428043 0
M  V30 8174 H 752.912 1.90379 0.746727 0
M  V30 8175 H 751.067 2.15858 3.2169 0
M  V30 8176 H 751.481 4.35305 2.92592 0
M  V30 8177 H 752.955 3.40184 4.34717 0
M  V30 8178 H 753.432 1.73458 4.03496 0
M  V30 8179 H 754.038 3.0331 2.98133 0
M  V30 8180 N 752.353 -0.854086 1.3245 0
M  V30 8181 C 753.769 -1.14238 1.11453 0
M  V30 8182 C 753.969 -2.01228 -0.10461 0
M  V30 8183 O 753.025 -2.39845 -0.789339 0
M  V30 8184 C 754.338 -1.81916 2.39431 0
M  V30 8185 C 755.886 -1.94549 2.45193 0
M  V30 8186 C 756.361 -2.65642 3.73093 0
M  V30 8187 N 757.852 -2.73167 3.74078 0
M  V30 8188 C 758.587 -3.28828 4.69744 0
M  V30 8189 N 758.083 -3.85295 5.75778 0
M  V30 8190 N 759.876 -3.26936 4.57241 0
M  V30 8191 H 752.027 -0.274786 2.10615 0
M  V30 8192 H 754.29 -0.184375 0.929898 0
M  V30 8193 H 753.996 -1.25452 3.28565 0
M  V30 8194 H 753.87 -2.82068 2.50434 0
M  V30 8195 H 756.257 -2.50172 1.56518 0
M  V30 8196 H 756.338 -0.933914 2.38142 0
M  V30 8197 H 755.982 -2.10683 4.62142 0
M  V30 8198 H 755.912 -3.6724 3.77415 0
M  V30 8199 H 758.403 -2.33108 2.97438 0
M  V30 8200 H 758.716 -4.25925 6.44832 0
M  V30 8201 H 757.061 -3.83625 5.79531 0
M  V30 8202 H 760.252 -2.8207 3.7357 0
M  V30 8203 H 760.425 -3.70014 5.31971 0
M  V30 8204 N 753.831 -1.1567 -1.07043 0
M  V30 8205 C 755.077 -0.9349 -1.79965 0
M  V30 8206 C 755.41 0.536464 -1.86643 0
M  V30 8207 O 754.685 1.39781 -1.35247 0
M  V30 8208 C 754.968 -1.55371 -3.24857 0
M  V30 8209 C 754.821 -3.09589 -3.26305 0
M  V30 8210 C 756.14 -1.24209 -4.22209 0
M  V30 8211 H 753.259 -0.341061 -0.653335 0
M  V30 8212 H 755.901 -1.42883 -1.25237 0
M  V30 8213 H 754.051 -1.13368 -3.71591 0
M  V30 8214 H 755.723 -3.60521 -2.87789 0
M  V30 8215 H 753.966 -3.43315 -2.65174 0
M  V30 8216 H 754.637 -3.48002 -4.28484 0
M  V30 8217 H 757.113 -1.60548 -3.8388 0
M  V30 8218 H 755.989 -1.70119 -5.21872 0
M  V30 8219 H 756.25 -0.15964 -4.41812 0
M  V30 8220 N 755.309 1.25446 -0.953992 0
M  V30 8221 C 756.239 2.28264 -0.491717 0
M  V30 8222 C 757.22 1.63717 0.461617 0
M  V30 8223 O 758.405 1.90821 0.36071 0
M  V30 8224 C 755.535 3.46525 0.231915 0
M  V30 8225 C 754.489 4.23247 -0.636098 0
M  V30 8226 C 753.815 5.34254 0.218238 0
M  V30 8227 C 755.115 4.85971 -1.91389 0
M  V30 8228 H 756.809 2.67183 -1.35106 0
M  V30 8229 H 754.355 1.2844 -0.651095 0
M  V30 8230 H 756.308 4.17576 0.566439 0
M  V30 8231 H 755.032 3.06594 1.12551 0
M  V30 8232 H 753.691 3.53978 -0.953696 0
M  V30 8233 H 753.339 4.90564 1.11156 0
M  V30 8234 H 753.039 5.86501 -0.359232 0
M  V30 8235 H 754.563 6.08138 0.547743 0
M  V30 8236 H 755.977 5.49168 -1.64581 0
M  V30 8237 H 754.374 5.48391 -2.43696 0
M  V30 8238 H 755.444 4.08192 -2.61738 0
M  V30 8239 N 756.787 0.722489 1.40064 0
M  V30 8240 C 758.064 0.191829 1.94657 0
M  V30 8241 C 758.444 -1.30389 1.66018 0
M  V30 8242 O 757.792 -2.06342 0.981588 0
M  V30 8243 C 758.002 0.511978 3.45224 0
M  V30 8244 C 759.35 0.454426 4.22161 0
M  V30 8245 O 760.374 0.448438 3.53366 0
M  V30 8246 O 759.233 0.437986 5.44742 0
M  V30 8247 H 756.327 0.0307821 0.826427 0
M  V30 8248 H 758.873 0.800493 1.49634 0
M  V30 8249 H 757.645 1.54622 3.59455 0
M  V30 8250 H 757.268 -0.126296 3.97399 0
M  V30 8251 N 758.265 -1.50454 0.469181 0
M  V30 8252 C 759.514 -2.01507 -0.0881425 0
M  V30 8253 C 759.827 -1.35613 -1.40956 0
M  V30 8254 O 761.033 -1.77812 -2.05171 0
M  V30 8255 C 759.489 -3.59301 -0.207596 0
M  V30 8256 C 759.097 -4.34152 1.10527 0
M  V30 8257 C 760.841 -4.18401 -0.716981 0
M  V30 8258 C 758.748 -5.83725 0.949717 0
M  V30 8259 H 757.678 -0.753106 -0.0367156 0
M  V30 8260 H 760.329 -1.73282 0.603788 0
M  V30 8261 H 758.711 -3.84106 -0.963265 0
M  V30 8262 H 759.885 -4.21073 1.87175 0
M  V30 8263 H 758.2 -3.86652 1.54562 0
M  V30 8264 H 760.797 -5.27895 -0.850363 0
M  V30 8265 H 761.14 -3.79657 -1.70782 0
M  V30 8266 H 761.673 -3.97796 -0.0187511 0
M  V30 8267 H 758.412 -6.26938 1.91387 0
M  V30 8268 H 757.932 -5.99383 0.223591 0
M  V30 8269 H 759.611 -6.44065 0.61557 0
M  V30 8270 N 759.743 -0.201713 -1.56304 0
M  V30 8271 C 760.673 0.71155 -2.22394 0
M  V30 8272 C 761.654 1.21625 -1.18917 0
M  V30 8273 O 762.839 1.26388 -1.47444 0
M  V30 8274 C 759.969 1.92837 -2.88845 0
M  V30 8275 C 758.923 1.55831 -3.98623 0
M  V30 8276 C 758.249 2.85228 -4.52271 0
M  V30 8277 C 759.549 0.763249 -5.16693 0
M  V30 8278 H 761.243 0.160573 -2.98969 0
M  V30 8279 H 758.789 0.0757916 -1.438 0
M  V30 8280 H 760.742 2.57253 -3.33764 0
M  V30 8281 H 759.466 2.50398 -2.09686 0
M  V30 8282 H 758.125 0.9377 -3.54405 0
M  V30 8283 H 757.773 3.40893 -3.69866 0
M  V30 8284 H 757.473 2.6121 -5.26349 0
M  V30 8285 H 758.997 3.50622 -4.99897 0
M  V30 8286 H 760.411 1.31066 -5.58117 0
M  V30 8287 H 758.808 0.620935 -5.96879 0
M  V30 8288 H 759.878 -0.234322 -4.84334 0
M  V30 8289 N 761.222 1.57436 0.0718424 0
M  V30 8290 C 762.132 2.07039 1.10326 0
M  V30 8291 C 763.148 0.999918 1.424 0
M  V30 8292 O 764.324 1.31462 1.52577 0
M  V30 8293 C 761.389 2.50439 2.39752 0
M  V30 8294 C 760.45 3.71784 2.14651 0
M  V30 8295 C 759.683 4.13104 3.37906 0
M  V30 8296 O 759.906 3.54298 4.47023 0
M  V30 8297 O 758.84 5.05894 3.26121 0
M  V30 8298 H 762.666 2.95239 0.711872 0
M  V30 8299 H 760.251 1.46638 0.28597 0
M  V30 8300 H 762.133 2.78876 3.15921 0
M  V30 8301 H 760.808 1.65368 2.78271 0
M  V30 8302 H 759.715 3.48431 1.36187 0
M  V30 8303 H 761.048 4.57707 1.81012 0
M  V30 8304 N 762.7 -0.34323 1.53817 0
M  V30 8305 C 763.977 -1.10047 1.61706 0
M  V30 8306 C 764.357 -2.06495 0.438514 0
M  V30 8307 O 763.705 -2.21297 -0.569188 0
M  V30 8308 C 763.915 -1.81985 2.97796 0
M  V30 8309 C 765.263 -2.35717 3.53161 0
M  V30 8310 O 766.287 -1.9208 2.99973 0
M  V30 8311 O 765.146 -3.15551 4.46195 0
M  V30 8312 H 762.24 -0.506096 0.654061 0
M  V30 8313 H 764.786 -0.344697 1.66162 0
M  V30 8314 H 763.558 -1.11722 3.75012 0
M  V30 8315 H 763.181 -2.64419 2.96931 0
M  V30 8316 N 764.178 -1.45556 -0.604258 0
M  V30 8317 C 765.408 -1.53056 -1.38771 0
M  V30 8318 C 765.816 -0.163092 -1.88496 0
M  V30 8319 O 765.159 0.846157 -1.63052 0
M  V30 8320 C 765.221 -2.45656 -2.62476 0
M  V30 8321 C 764.885 -3.92328 -2.34367 0
M  V30 8322 C 765.882 -4.82137 -1.94525 0
M  V30 8323 C 763.567 -4.37275 -2.47177 0
M  V30 8324 C 765.561 -6.14901 -1.67856 0
M  V30 8325 C 763.248 -5.70079 -2.20122 0
M  V30 8326 C 764.246 -6.58711 -1.80524 0
M  V30 8327 O 763.934 -7.89053 -1.53788 0
M  V30 8328 H 763.666 -0.520721 -0.431075 0
M  V30 8329 H 766.22 -1.91464 -0.743693 0
M  V30 8330 H 764.45 -2.02225 -3.29609 0
M  V30 8331 H 766.139 -2.43802 -3.24523 0
M  V30 8332 H 766.905 -4.48675 -1.84162 0
M  V30 8333 H 762.784 -3.68527 -2.76964 0
M  V30 8334 H 766.328 -6.8404 -1.36874 0
M  V30 8335 H 762.225 -6.03095 -2.30102 0
M  V30 8336 H 762.993 -8.01113 -1.67812 0
M  V30 8337 N 765.656 0.84705 -1.32902 0
M  V30 8338 C 766.896 1.61554 -1.25218 0
M  V30 8339 C 767.26 1.91141 0.18143 0
M  V30 8340 O 768.461 2.6607 0.382106 0
M  V30 8341 C 766.732 2.89553 -2.09509 0
M  V30 8342 S 768.291 3.80283 -2.18931 0
M  V30 8343 H 765.109 0.554031 -0.445613 0
M  V30 8344 H 767.711 1.00251 -1.67839 0
M  V30 8345 H 766.415 2.65776 -3.12716 0
M  V30 8346 H 765.946 3.55868 -1.67694 0
M  V30 8347 H 767.961 4.77641 -1.34438 0
M  V30 8348 N 767.134 1.16236 1.06428 0
M  V30 8349 C 768.067 0.81119 2.13295 0
M  V30 8350 C 769.045 -0.216555 1.61151 0
M  V30 8351 O 770.229 -0.100949 1.88229 0
M  V30 8352 C 767.356 0.207901 3.38061 0
M  V30 8353 C 766.402 1.20904 4.09004 0
M  V30 8354 S 767.235 2.75513 4.59187 0
M  V30 8355 C 768.391 2.1663 5.87216 0
M  V30 8356 H 768.624 1.71632 2.42755 0
M  V30 8357 H 766.157 0.985693 1.18842 0
M  V30 8358 H 768.115 -0.133715 4.10282 0
M  V30 8359 H 766.776 -0.67497 3.06762 0
M  V30 8360 H 765.969 0.735326 4.98607 0
M  V30 8361 H 765.571 1.49567 3.42791 0
M  V30 8362 H 767.863 1.53413 6.59902 0
M  V30 8363 H 768.806 3.04437 6.39315 0
M  V30 8364 H 769.214 1.60565 5.41183 0
M  V30 8365 N 768.612 -1.24939 0.960631 0
M  V30 8366 C 769.858 -1.93425 0.629155 0
M  V30 8367 C 770.213 -1.73784 -0.825635 0
M  V30 8368 O 769.506 -1.07595 -1.58536 0
M  V30 8369 C 769.7 -3.45066 0.930809 0
M  V30 8370 C 769.529 -3.79455 2.41337 0
M  V30 8371 C 768.299 -4.01195 3.07197 0
M  V30 8372 C 770.497 -3.86492 3.39306 0
M  V30 8373 N 768.479 -4.22626 4.45265 0
M  V30 8374 C 769.85 -4.12682 4.62702 0
M  V30 8375 C 771.905 -3.69198 3.34061 0
M  V30 8376 C 770.608 -4.23376 5.81502 0
M  V30 8377 C 772.634 -3.81135 4.52206 0
M  V30 8378 C 771.996 -4.07743 5.74391 0
M  V30 8379 H 768.095 -0.729791 0.280943 0
M  V30 8380 H 770.679 -1.50597 1.23404 0
M  V30 8381 H 768.85 -3.86776 0.354801 0
M  V30 8382 H 770.582 -4.00826 0.558627 0
M  V30 8383 H 767.337 -3.97319 2.5775 0
M  V30 8384 H 767.761 -4.37335 5.16785 0
M  V30 8385 H 772.403 -3.47639 2.40638 0
M  V30 8386 H 770.121 -4.4375 6.75361 0
M  V30 8387 H 773.707 -3.69133 4.49702 0
M  V30 8388 H 772.587 -4.16768 6.64284 0
M  V30 8389 N 770.09 -0.729906 -1.39679 0
M  V30 8390 C 771.506 -0.404951 -1.54377 0
M  V30 8391 C 771.706 1.08476 -1.6981 0
M  V30 8392 O 770.762 1.87087 -1.69572 0
M  V30 8393 C 772.075 -1.18352 -2.76429 0
M  V30 8394 C 773.623 -1.17124 -2.9026 0
M  V30 8395 C 774.098 -1.93227 -4.15244 0
M  V30 8396 N 775.589 -1.90368 -4.22273 0
M  V30 8397 C 776.324 -2.46065 -5.17918 0
M  V30 8398 N 775.82 -3.10378 -6.19385 0
M  V30 8399 N 777.613 -2.36127 -5.10099 0
M  V30 8400 H 769.764 -1.69567 -1.27909 0
M  V30 8401 H 772.027 -0.717527 -0.619564 0
M  V30 8402 H 771.733 -2.23743 -2.71352 0
M  V30 8403 H 771.607 -0.784589 -3.6895 0
M  V30 8404 H 773.994 -0.125478 -2.94833 0
M  V30 8405 H 774.075 -1.60951 -1.98817 0
M  V30 8406 H 773.719 -2.97802 -4.11432 0
M  V30 8407 H 773.649 -1.4681 -5.05722 0
M  V30 8408 H 776.14 -1.4351 -3.4959 0
M  V30 8409 H 776.453 -3.50358 -6.88817 0
M  V30 8410 H 774.798 -3.14467 -6.19787 0
M  V30 8411 H 777.989 -1.85529 -4.29763 0
M  V30 8412 H 778.162 -2.79833 -5.84463 0
M  V30 8413 N 771.568 1.50203 -0.477153 0
M  V30 8414 C 772.516 2.30278 0.327826 0
M  V30 8415 C 773.51 1.37831 0.984839 0
M  V30 8416 O 774.716 1.54994 0.915251 0
M  V30 8417 H 771.091 0.741612 0.124564 0
M  V30 8418 H 773.062 2.96124 -0.367853 0
M  V30 8419 C 771.811 3.18548 1.39365 0
M  V30 8420 H 771.134 3.89596 0.897475 0
M  V30 8421 H 772.574 3.77561 1.92934 0
M  V30 8422 C 771.033 2.36548 2.39889 0
M  V30 8423 O 771.563 2.05282 3.45286 0
M  V30 8424 N 769.769 1.99015 2.11758 0
M  V30 8425 H 769.316 2.24641 1.26071 0
M  V30 8426 H 769.274 1.44454 2.7925 0
M  V30 8427 N 773.046 0.209999 1.56195 0
M  V30 8428 C 774.276 -0.429373 2.02089 0
M  V30 8429 C 774.684 -1.54703 1.0892 0
M  V30 8430 O 774.027 -1.83485 0.0889535 0
M  V30 8431 C 774.089 -1.03266 3.44349 0
M  V30 8432 C 773.753 -0.0518873 4.56971 0
M  V30 8433 C 774.75 0.744249 5.14545 0
M  V30 8434 C 772.435 0.0635185 5.0226 0
M  V30 8435 C 774.429 1.64261 6.15871 0
M  V30 8436 C 772.116 0.965423 6.03426 0
M  V30 8437 C 773.114 1.75352 6.60106 0
M  V30 8438 O 772.802 2.64029 7.59305 0
M  V30 8439 H 772.534 -0.110604 0.66689 0
M  V30 8440 H 775.088 0.320436 2.02885 0
M  V30 8441 H 773.318 -1.83134 3.40586 0
M  V30 8442 H 775.007 -1.57823 3.73961 0
M  V30 8443 H 775.773 0.665476 4.80413 0
M  V30 8444 H 771.652 -0.539762 4.57829 0
M  V30 8445 H 775.196 2.25819 6.60039 0
M  V30 8446 H 771.093 1.04526 6.36981 0
M  V30 8447 H 771.861 2.57974 7.76783 0
M  V30 8448 N 774.524 -1.57472 -0.0634922 0
M  V30 8449 C 775.434 -2.07621 -1.09227 0
M  V30 8450 C 776.45 -1.00746 -1.41867 0
M  V30 8451 O 777.626 -1.32269 -1.51878 0
M  V30 8452 C 774.691 -2.51707 -2.38421 0
M  V30 8453 C 773.752 -3.72917 -2.12676 0
M  V30 8454 C 772.985 -4.14891 -3.3571 0
M  V30 8455 O 773.208 -3.56663 -4.45137 0
M  V30 8456 O 772.142 -5.07616 -3.23434 0
M  V30 8457 H 775.968 -2.95612 -0.696205 0
M  V30 8458 H 773.553 -1.46787 -0.27819 0
M  V30 8459 H 775.435 -2.80547 -3.14438 0
M  V30 8460 H 774.11 -1.66842 -2.77391 0
M  V30 8461 H 773.017 -3.49148 -1.34337 0
M  V30 8462 H 774.35 -4.5866 -1.78583 0
M  V30 8463 N 776.003 0.335068 -1.53997 0
M  V30 8464 C 777.233 1.0926 -1.75345 0
M  V30 8465 C 777.641 1.82568 -0.496545 0
M  V30 8466 O 776.984 1.75525 0.541897 0
M  V30 8467 C 777.046 2.14473 -2.88516 0
M  V30 8468 C 776.71 1.60665 -4.27827 0
M  V30 8469 C 777.707 1.05448 -5.09094 0
M  V30 8470 C 775.392 1.65255 -4.74337 0
M  V30 8471 C 777.386 0.555372 -6.34976 0
M  V30 8472 C 775.073 1.14956 -6.0019 0
M  V30 8473 C 776.071 0.601907 -6.80343 0
M  V30 8474 O 775.759 0.106445 -8.0383 0
M  V30 8475 H 775.491 0.331329 -0.589234 0
M  V30 8476 H 778.045 0.39042 -2.01655 0
M  V30 8477 H 776.275 2.88274 -2.5775 0
M  V30 8478 H 777.964 2.75857 -2.97755 0
M  V30 8479 H 778.73 1.01218 -4.74321 0
M  V30 8480 H 774.609 2.06822 -4.12002 0
M  V30 8481 H 778.153 0.127245 -6.97484 0
M  V30 8482 H 774.05 1.18891 -6.34457 0
M  V30 8483 H 774.818 0.222944 -8.18196 0
M  V30 8484 N 777.481 1.45874 0.596531 0
M  V30 8485 C 778.721 1.52015 1.36641 0
M  V30 8486 C 779.085 0.16226 1.91313 0
M  V30 8487 O 780.286 0.0983889 2.6862 0
M  V30 8488 C 778.557 2.57776 2.4756 0
M  V30 8489 S 780.116 2.83223 3.35157 0
M  V30 8490 H 776.934 0.537251 0.465706 0
M  V30 8491 H 779.536 1.83024 0.687205 0
M  V30 8492 H 778.24 3.55091 2.05764 0
M  V30 8493 H 777.771 2.28455 3.20269 0
M  V30 8494 H 779.786 2.17442 4.4602 0
M  V30 8495 N 778.959 -0.83999 1.33349 0
M  V30 8496 C 780.375 -1.13049 1.12659 0
M  V30 8497 C 780.575 -2.01328 -0.0832613 0
M  V30 8498 O 779.631 -2.40669 -0.763856 0
M  V30 8499 C 780.944 -1.79366 2.41347 0
M  V30 8500 C 782.492 -1.91937 2.47243 0
M  V30 8501 C 782.967 -2.6167 3.75889 0
M  V30 8502 N 784.458 -2.69184 3.76954 0
M  V30 8503 C 785.193 -3.23827 4.73206 0
M  V30 8504 N 784.689 -3.79166 5.79832 0
M  V30 8505 N 786.482 -3.22068 4.60683 0
M  V30 8506 H 778.633 -0.252432 2.10895 0
M  V30 8507 H 780.896 -0.174501 0.931801 0
M  V30 8508 H 780.602 -1.2196 3.29877 0
M  V30 8509 H 780.476 -2.79396 2.53412 0
M  V30 8510 H 782.863 -2.48498 1.59163 0
M  V30 8511 H 782.944 -0.908604 2.39119 0
M  V30 8512 H 782.588 -2.05769 4.64351 0
M  V30 8513 H 782.518 -3.63217 3.81289 0
M  V30 8514 H 785.009 -2.2994 2.99893 0
M  V30 8515 H 785.322 -4.19061 6.49313 0
M  V30 8516 H 783.667 -3.77457 5.83568 0
M  V30 8517 H 786.858 -2.78092 3.7654 0
M  V30 8518 H 787.031 -3.64351 5.35866 0
M  V30 8519 N 780.437 -1.16799 -1.0581 0
M  V30 8520 C 781.367 -0.902241 -2.15364 0
M  V30 8521 C 782.348 0.153351 -1.69407 0
M  V30 8522 O 783.533 0.00442032 -1.94199 0
M  V30 8523 C 780.663 -0.407911 -3.44896 0
M  V30 8524 C 779.617 -1.40197 -4.04387 0
M  V30 8525 C 778.943 -0.765848 -5.29187 0
M  V30 8526 C 780.243 -2.77316 -4.42598 0
M  V30 8527 H 781.937 -1.81841 -2.37853 0
M  V30 8528 H 779.483 -0.875731 -1.14311 0
M  V30 8529 H 781.436 -0.20945 -4.20879 0
M  V30 8530 H 780.16 0.54378 -3.22041 0
M  V30 8531 H 778.819 -1.58707 -3.30466 0
M  V30 8532 H 778.467 0.192482 -5.02632 0
M  V30 8533 H 778.167 -1.42939 -5.69949 0
M  V30 8534 H 779.691 -0.577519 -6.07863 0
M  V30 8535 H 781.105 -2.62561 -5.09642 0
M  V30 8536 H 779.502 -3.4019 -4.94359 0
M  V30 8537 H 780.572 -3.32199 -3.53231 0
M  V30 8538 N 781.915 1.24427 -0.967243 0
M  V30 8539 C 783.192 1.87831 -0.545776 0
M  V30 8540 C 783.572 1.87126 0.977099 0
M  V30 8541 O 782.92 1.34357 1.84826 0
M  V30 8542 C 783.13 3.29967 -1.13679 0
M  V30 8543 C 784.478 4.06654 -1.22139 0
M  V30 8544 O 785.502 3.39136 -1.08926 0
M  V30 8545 O 784.361 5.27455 -1.43017 0
M  V30 8546 H 781.455 0.806745 -0.181912 0
M  V30 8547 H 784.001 1.32403 -1.06148 0
M  V30 8548 H 782.773 3.24977 -2.17958 0
M  V30 8549 H 782.396 3.92969 -0.605093 0
M  V30 8550 N 783.393 0.737304 1.3929 0
M  V30 8551 C 784.641 0.285691 2.00071 0
M  V30 8552 C 784.962 -1.13169 1.58801 0
M  V30 8553 O 784.232 -1.77104 0.837308 0
M  V30 8554 H 782.812 0.102638 0.739915 0
M  V30 8555 H 785.474 0.947775 1.70303 0
M  V30 8556 H 784.57 0.335906 3.10287 0
M  V30 8557 N 784.871 -1.49948 0.485112 0
M  V30 8558 C 785.803 -2.26691 -0.338222 0
M  V30 8559 C 786.816 -1.32584 -0.944742 0
M  V30 8560 O 788.005 -1.57989 -0.830772 0
M  V30 8561 C 785.105 -3.04405 -1.48966 0
M  V30 8562 C 784.278 -4.25971 -0.993371 0
M  V30 8563 C 783.337 -4.85861 -2.02052 0
M  V30 8564 O 782.363 -5.46382 -1.59547 0
M  V30 8565 N 783.565 -4.74101 -3.34975 0
M  V30 8566 H 786.33 -2.97989 0.319748 0
M  V30 8567 H 783.891 -1.58772 0.316714 0
M  V30 8568 H 785.883 -3.41348 -2.17403 0
M  V30 8569 H 784.453 -2.35815 -2.05207 0
M  V30 8570 H 783.673 -3.93971 -0.134424 0
M  V30 8571 H 784.961 -5.0476 -0.639934 0
M  V30 8572 H 784.359 -4.26002 -3.72208 0
M  V30 8573 H 782.916 -5.15274 -3.9917 0
M  V30 8574 N 786.349 -0.21828 -1.56081 0
M  V30 8575 C 787.577 0.419258 -2.02608 0
M  V30 8576 C 787.992 1.53578 -1.09814 0
M  V30 8577 O 787.349 1.82185 -0.107149 0
M  V30 8578 C 787.4 0.953955 -3.48686 0
M  V30 8579 O 787.121 -0.11805 -4.37941 0
M  V30 8580 C 788.622 1.66506 -4.10841 0
M  V30 8581 H 785.842 0.10296 -0.663054 0
M  V30 8582 H 788.386 -0.333776 -2.01758 0
M  V30 8583 H 786.541 1.65727 -3.50162 0
M  V30 8584 H 786.955 0.283359 -5.23734 0
M  V30 8585 H 788.429 1.99123 -5.14834 0
M  V30 8586 H 788.906 2.57705 -3.55647 0
M  V30 8587 H 789.512 1.00703 -4.13206 0
M  V30 8588 N 787.827 1.57504 0.0551401 0
M  V30 8589 C 789.238 1.76626 0.604979 0
M  V30 8590 C 789.589 0.845978 1.77024 0
M  V30 8591 O 788.714 0.0341936 2.16373 0
M  V30 8592 C 789.309 3.203 1.10425 0
M  V30 8593 C 787.868 3.4071 1.59981 0
M  V30 8594 C 787.015 2.72258 0.526414 0
M  V30 8595 H 789.966 1.57775 -0.171072 0
M  V30 8596 H 789.987 3.25377 1.97256 0
M  V30 8597 H 789.499 3.87255 0.255939 0
M  V30 8598 H 787.6 2.78892 2.47083 0
M  V30 8599 H 787.713 4.49227 1.66528 0
M  V30 8600 H 786.077 2.35283 0.97539 0
M  V30 8601 H 786.86 3.41879 -0.311991 0
M  V30 8602 N 789.305 -0.326896 1.54172 0
M  V30 8603 C 790.255 -1.40319 1.79707 0
M  V30 8604 C 791.239 -1.47056 0.652938 0
M  V30 8605 O 792.431 -1.51645 0.91284 0
M  V30 8606 C 789.56 -2.77222 2.02491 0
M  V30 8607 C 788.646 -2.74811 3.23016 0
M  V30 8608 N 789.037 -2.42022 4.44138 0
M  V30 8609 C 787.335 -3.05943 3.24522 0
M  V30 8610 C 788.036 -2.48263 5.26061 0
M  V30 8611 N 787.012 -2.84567 4.63166 0
M  V30 8612 H 790.814 -1.13892 2.70935 0
M  V30 8613 H 788.328 -0.53536 1.53322 0
M  V30 8614 H 790.325 -3.54793 2.18923 0
M  V30 8615 H 788.985 -3.04582 1.12515 0
M  V30 8616 H 789.996 -2.14926 4.71197 0
M  V30 8617 H 786.673 -3.38367 2.44569 0
M  V30 8618 H 788.063 -2.2593 6.32776 0
M  V30 8619 N 790.784 -1.46188 -0.588786 0
M  V30 8620 C 792.061 -1.41659 -1.34878 0
M  V30 8621 C 792.441 -0.0968913 -2.10878 0
M  V30 8622 O 791.789 0.921468 -2.09096 0
M  V30 8623 C 791.999 -2.6424 -2.27988 0
M  V30 8624 C 793.347 -3.1013 -2.90008 0
M  V30 8625 O 794.371 -2.64745 -2.38303 0
M  V30 8626 O 793.23 -3.88944 -3.83908 0
M  V30 8627 H 790.324 -0.563058 -0.605718 0
M  V30 8628 H 792.87 -1.58346 -0.610309 0
M  V30 8629 H 791.642 -3.51853 -1.71217 0
M  V30 8630 H 791.265 -2.49982 -3.09184 0
M  V30 8631 N 792.262 0.832906 -1.33792 0
M  V30 8632 C 793.172 1.97514 -1.26592 0
M  V30 8633 C 794.188 1.73114 -0.175391 0
M  V30 8634 O 795.364 1.97387 -0.400062 0
M  V30 8635 C 792.429 3.31625 -1.01121 0
M  V30 8636 C 791.49 3.69101 -2.19233 0
M  V30 8637 C 790.723 4.96813 -1.94968 0
M  V30 8638 O 790.946 5.63208 -0.902955 0
M  V30 8639 O 789.88 5.31932 -2.8166 0
M  V30 8640 H 793.706 2.0653 -2.22664 0
M  V30 8641 H 791.291 0.966826 -1.13898 0
M  V30 8642 H 793.173 4.11968 -0.886571 0
M  V30 8643 H 791.848 3.23599 -0.080822 0
M  V30 8644 H 790.755 2.89243 -2.37253 0
M  V30 8645 H 792.088 3.818 -3.10628 0
M  V30 8646 N 793.74 1.17359 1.05189 0
M  V30 8647 C 795.156 0.920861 1.30355 0
M  V30 8648 C 795.356 -0.419993 1.97074 0
M  V30 8649 O 794.412 -1.15696 2.24434 0
M  V30 8650 C 795.725 2.07818 2.1733 0
M  V30 8651 C 797.273 2.1152 2.30712 0
M  V30 8652 C 797.748 3.26637 3.21048 0
M  V30 8653 N 799.239 3.26426 3.28634 0
M  V30 8654 C 799.974 4.12141 3.98657 0
M  V30 8655 N 799.47 5.07966 4.71107 0
M  V30 8656 N 801.263 4.00091 3.94821 0
M  V30 8657 H 793.414 2.03666 0.602821 0
M  V30 8658 H 795.677 0.889294 0.328421 0
M  V30 8659 H 795.383 3.04727 1.75597 0
M  V30 8660 H 795.257 2.02922 3.17966 0
M  V30 8661 H 797.644 1.15196 2.71687 0
M  V30 8662 H 797.725 2.20477 1.29706 0
M  V30 8663 H 797.369 4.23227 2.80788 0
M  V30 8664 H 797.299 3.14917 4.2206 0
M  V30 8665 H 799.79 2.57045 2.77013 0
M  V30 8666 H 800.103 5.69766 5.22099 0
M  V30 8667 H 798.448 5.11936 4.7005 0
M  V30 8668 H 801.639 3.24523 3.37346 0
M  V30 8669 H 801.812 4.6711 4.49123 0
M  V30 8670 N 795.218 -1.23913 0.973828 0
M  V30 8671 C 796.15 -2.24397 0.466763 0
M  V30 8672 C 797.163 -1.57078 -0.427828 0
M  V30 8673 O 798.352 -1.76973 -0.233019 0
M  V30 8674 C 795.452 -3.37141 -0.344798 0
M  V30 8675 C 794.625 -4.34037 0.541349 0
M  V30 8676 C 793.684 -5.2576 -0.215243 0
M  V30 8677 O 792.71 -5.67842 0.39291 0
M  V30 8678 N 793.912 -5.60702 -1.5031 0
M  V30 8679 H 796.677 -2.68536 1.33074 0
M  V30 8680 H 794.238 -1.38017 0.846346 0
M  V30 8681 H 796.23 -3.95476 -0.859133 0
M  V30 8682 H 794.8 -2.92239 -1.10974 0
M  V30 8683 H 794.02 -3.74302 1.23659 0
M  V30 8684 H 795.308 -4.95738 1.1455 0
M  V30 8685 H 794.706 -5.28451 -2.01882 0
M  V30 8686 H 793.263 -6.21538 -1.96301 0
M  V30 8687 N 796.696 -0.74468 -1.38897 0
M  V30 8688 C 797.973 -0.222773 -1.94327 0
M  V30 8689 C 798.353 1.27731 -1.68071 0
M  V30 8690 O 797.701 2.04754 -1.01429 0
M  V30 8691 C 797.911 -0.566836 -3.44366 0
M  V30 8692 C 799.259 -0.521531 -4.21385 0
M  V30 8693 O 800.283 -0.504599 -3.52608 0
M  V30 8694 O 799.142 -0.524595 -5.43976 0
M  V30 8695 H 796.236 -0.0439259 -0.825833 0
M  V30 8696 H 798.782 -0.824197 -1.48341 0
M  V30 8697 H 797.554 -1.60321 -3.56949 0
M  V30 8698 H 797.177 0.0630577 -3.9755 0
M  V30 8699 N 798.174 1.49689 -0.493057 0
M  V30 8700 C 799.399 2.07331 0.0535114 0
M  V30 8701 C 799.824 1.35196 1.30781 0
M  V30 8702 O 799.182 0.406246 1.7669 0
M  V30 8703 C 799.23 3.59364 0.29825 0
M  V30 8704 O 798.334 3.88819 1.37454 0
M  V30 8705 H 797.675 0.663612 -0.0227018 0
M  V30 8706 H 800.205 1.926 -0.690402 0
M  V30 8707 H 800.215 4.04515 0.532159 0
M  V30 8708 H 798.89 4.1128 -0.618207 0
M  V30 8709 H 797.467 3.55487 1.12621 0
M  V30 8710 N 799.652 0.226554 1.55963 0
M  V30 8711 C 800.901 -0.40417 1.97609 0
M  V30 8712 C 801.214 -1.60541 1.1174 0
M  V30 8713 O 802.42 -2.30598 1.43307 0
M  V30 8714 C 800.876 -0.770466 3.51556 0
M  V30 8715 C 800.484 0.408244 4.46136 0
M  V30 8716 C 802.228 -1.36651 4.01904 0
M  V30 8717 C 800.135 0.0192347 5.91397 0
M  V30 8718 H 799.065 -0.15478 0.737943 0
M  V30 8719 H 801.716 0.323558 1.80625 0
M  V30 8720 H 800.098 -1.55575 3.6416 0
M  V30 8721 H 801.272 1.18575 4.45283 0
M  V30 8722 H 799.587 0.917859 4.06158 0
M  V30 8723 H 802.184 -1.67055 5.07934 0
M  V30 8724 H 802.527 -2.28403 3.48049 0
M  V30 8725 H 803.06 -0.644556 3.92543 0
M  V30 8726 H 799.799 0.90336 6.49245 0
M  V30 8727 H 799.319 -0.722485 5.95433 0
M  V30 8728 H 800.998 -0.405711 6.45727 0
M  V30 8729 N 801.13 -1.57531 -0.0467866 0
M  V30 8730 C 802.078 -2.06455 -1.0714 0
M  V30 8731 C 803.072 -0.974744 -1.38546 0
M  V30 8732 O 804.278 -1.15974 -1.37659 0
M  V30 8733 H 800.653 -0.658607 -0.362962 0
M  V30 8734 H 802.624 -2.91613 -0.632813 0
M  V30 8735 C 801.373 -2.54481 -2.36927 0
M  V30 8736 H 800.696 -3.37946 -2.13617 0
M  V30 8737 H 802.136 -2.92442 -3.07007 0
M  V30 8738 C 800.595 -1.43836 -3.04652 0
M  V30 8739 O 801.125 -0.794531 -3.93764 0
M  V30 8740 N 799.331 -1.17727 -2.65686 0
M  V30 8741 H 798.878 -1.70265 -1.93307 0
M  V30 8742 H 798.836 -0.439051 -3.11319 0
M  V30 8743 N 802.608 0.318715 -1.54344 0
M  V30 8744 C 803.571 1.37545 -1.83342 0
M  V30 8745 C 804.571 1.445 -0.705444 0
M  V30 8746 O 805.761 1.44443 -0.973752 0
M  V30 8747 C 802.893 2.76225 -1.99781 0
M  V30 8748 H 804.086 1.13084 -2.77762 0
M  V30 8749 H 801.639 0.554457 -1.46135 0
M  V30 8750 H 802.374 3.05934 -1.07588 0
M  V30 8751 H 802.159 2.7257 -2.81865 0
M  V30 8752 H 803.649 3.52664 -2.23647 0
M  V30 8753 N 804.086 1.46499 0.581025 0
M  V30 8754 C 805.316 1.55244 1.36319 0
M  V30 8755 C 805.724 0.193059 1.88212 0
M  V30 8756 O 805.067 -0.820109 1.64377 0
M  V30 8757 C 805.129 2.498 2.58535 0
M  V30 8758 C 804.793 3.96007 2.28096 0
M  V30 8759 C 805.79 4.85171 1.8683 0
M  V30 8760 C 803.475 4.41152 2.40189 0
M  V30 8761 C 805.469 6.17493 1.58053 0
M  V30 8762 C 803.156 5.73508 2.11024 0
M  V30 8763 C 804.154 6.615 1.70021 0
M  V30 8764 O 803.842 7.914 1.41215 0
M  V30 8765 H 803.574 0.527513 0.422736 0
M  V30 8766 H 806.128 1.92623 0.713139 0
M  V30 8767 H 804.358 2.07443 3.2635 0
M  V30 8768 H 806.047 2.48934 3.20604 0
M  V30 8769 H 806.813 4.51548 1.77001 0
M  V30 8770 H 802.692 3.72886 2.71066 0
M  V30 8771 H 806.236 6.86131 1.25974 0
M  V30 8772 H 802.133 6.06679 2.20478 0
M  V30 8773 H 802.901 8.03681 1.55046 0
M  V30 8774 N 805.565 -0.825799 1.34232 0
M  V30 8775 C 806.513 -1.95792 1.25572 0
M  V30 8776 C 807.507 -1.68695 0.154404 0
M  V30 8777 O 808.713 -1.77147 0.319196 0
M  V30 8778 H 805.088 -0.642949 0.390027 0
M  V30 8779 H 807.059 -2.00219 2.21258 0
M  V30 8780 C 805.808 -3.32245 1.02511 0
M  V30 8781 H 805.131 -3.53642 1.86487 0
M  V30 8782 H 806.571 -4.1192 1.00487 0
M  V30 8783 C 805.03 -3.35803 -0.27167 0
M  V30 8784 O 805.56 -3.80962 -1.274 0
M  V30 8785 N 803.766 -2.89008 -0.303778 0
M  V30 8786 H 803.313 -2.52451 0.512464 0
M  V30 8787 H 803.271 -2.9177 -1.17121 0
M  V30 8788 N 807.043 -1.17915 -1.04565 0
M  V30 8789 C 807.953 -0.916449 -2.15959 0
M  V30 8790 C 808.969 0.117655 -1.73602 0
M  V30 8791 O 810.145 -0.063089 -2.01301 0
M  V30 8792 C 807.21 -0.440262 -3.43893 0
M  V30 8793 C 806.271 -1.54172 -4.00661 0
M  V30 8794 C 805.504 -1.08816 -5.22489 0
M  V30 8795 O 805.727 0.0551547 -5.70373 0
M  V30 8796 O 804.661 -1.88383 -5.7166 0
M  V30 8797 H 808.487 -1.8484 -2.40972 0
M  V30 8798 H 806.072 -0.960552 -1.14428 0
M  V30 8799 H 807.954 -0.182537 -4.21004 0
M  V30 8800 H 806.629 0.46346 -3.20365 0
M  V30 8801 H 805.536 -1.85341 -3.24961 0
M  V30 8802 H 806.869 -2.42139 -4.2852 0
M  V30 8803 N 808.521 1.23394 -0.980386 0
M  V30 8804 C 809.932 1.73631 -0.686239 0
M  V30 8805 C 810.283 1.79259 0.797541 0
M  V30 8806 O 809.408 1.43046 1.62379 0
M  V30 8807 C 810.003 3.15332 -1.239 0
M  V30 8808 C 808.562 3.63024 -0.994494 0
M  V30 8809 C 807.709 2.41279 -1.36673 0
M  V30 8810 H 810.66 1.08918 -1.15423 0
M  V30 8811 H 810.681 3.75556 -0.611414 0
M  V30 8812 H 810.193 3.11204 -2.31892 0
M  V30 8813 H 808.294 3.72535 0.0693492 0
M  V30 8814 H 808.407 4.49825 -1.64906 0
M  V30 8815 H 806.771 2.42295 -0.785195 0
M  V30 8816 H 807.554 2.39822 -2.45642 0
M  V30 8817 N 809.999 0.752036 1.385 0
M  V30 8818 C 810.947 0.112634 2.32327 0
M  V30 8819 C 811.941 -0.707037 1.53939 0
M  V30 8820 O 813.147 -0.606309 1.69481 0
M  V30 8821 H 809.522 0.0176275 0.751793 0
M  V30 8822 H 811.493 0.920074 2.83861 0
M  V30 8823 C 810.242 -0.767458 3.39124 0
M  V30 8824 H 809.565 -0.146122 3.99533 0
M  V30 8825 H 811.005 -1.18216 4.07187 0
M  V30 8826 C 809.464 -1.90938 2.77568 0
M  V30 8827 O 809.994 -3.00342 2.66754 0
M  V30 8828 N 808.2 -1.70396 2.35401 0
M  V30 8829 H 807.747 -0.81413 2.44397 0
M  V30 8830 H 807.705 -2.46972 1.94557 0
M  V30 8831 N 811.477 -1.49425 0.500989 0
M  V30 8832 C 812.702 -2.07356 -0.0425154 0
M  V30 8833 C 813.127 -1.35887 -1.30063 0
M  V30 8834 O 812.485 -0.41561 -1.76472 0
M  V30 8835 C 812.533 -3.59518 -0.279188 0
M  V30 8836 O 811.637 -3.89542 -1.3539 0
M  V30 8837 H 810.978 -0.663482 0.0262207 0
M  V30 8838 H 813.508 -1.92231 0.700607 0
M  V30 8839 H 813.518 -4.04791 -0.5107 0
M  V30 8840 H 812.193 -4.10946 0.640009 0
M  V30 8841 H 810.77 -3.56079 -1.10734 0
M  V30 8842 N 812.955 -0.234822 -1.55841 0
M  V30 8843 C 814.183 0.397745 -2.03041 0
M  V30 8844 C 814.598 1.52405 -1.11437 0
M  V30 8845 O 813.955 1.82061 -0.126466 0
M  V30 8846 C 814.006 0.916919 -3.49678 0
M  V30 8847 O 813.727 -0.164493 -4.37791 0
M  V30 8848 C 815.228 1.62139 -4.12584 0
M  V30 8849 H 812.448 0.0959214 -0.664108 0
M  V30 8850 H 814.992 -0.355156 -2.01392 0
M  V30 8851 H 813.147 1.62004 -3.519 0
M  V30 8852 H 813.561 0.227794 -5.24005 0
M  V30 8853 H 815.035 1.93651 -5.16917 0
M  V30 8854 H 815.512 2.53918 -3.58361 0
M  V30 8855 H 816.118 0.963145 -4.14251 0
M  V30 8856 N 814.433 1.57553 0.0384317 0
M  V30 8857 C 815.38 2.05942 1.04194 0
M  V30 8858 C 816.35 0.946637 1.36484 0
M  V30 8859 O 817.535 1.21658 1.46983 0
M  V30 8860 C 814.675 2.53588 2.34066 0
M  V30 8861 C 813.788 3.7862 2.08017 0
M  V30 8862 C 812.923 4.14915 3.31692 0
M  V30 8863 C 811.962 5.32891 3.01155 0
M  V30 8864 N 811.099 5.64662 4.17254 0
M  V30 8865 H 815.939 2.91429 0.622341 0
M  V30 8866 H 813.476 1.44098 0.295684 0
M  V30 8867 H 815.434 2.79276 3.09937 0
M  V30 8868 H 814.064 1.71031 2.73767 0
M  V30 8869 H 813.116 3.60073 1.22686 0
M  V30 8870 H 814.428 4.64613 1.81484 0
M  V30 8871 H 813.582 4.41681 4.15936 0
M  V30 8872 H 812.321 3.27555 3.6133 0
M  V30 8873 H 811.326 5.05887 2.15311 0
M  V30 8874 H 812.551 6.21896 2.72804 0
M  V30 8875 H 810.497 4.80261 4.46861 0
M  V30 8876 H 810.414 6.45145 3.94112 0
M  V30 8877 H 811.682 5.96 5.02399 0
M  V30 8878 N 815.911 -0.310526 1.54511 0
M  V30 8879 C 817.158 -1.04691 1.73338 0
M  V30 8880 C 817.486 -1.87584 0.514038 0
M  V30 8881 O 816.741 -1.89096 -0.504119 0
M  V30 8882 C 817.04 -1.98942 2.96912 0
M  V30 8883 C 816.706 -1.321 4.31115 0
M  V30 8884 C 815.368 -1.13603 4.67598 0
M  V30 8885 C 817.72 -0.842362 5.14348 0
M  V30 8886 C 815.048 -0.459102 5.84901 0
M  V30 8887 C 817.4 -0.179202 6.32346 0
M  V30 8888 C 816.064 0.0178111 6.67498 0
M  V30 8889 H 815.334 -0.38309 0.634289 0
M  V30 8890 H 817.981 -0.322723 1.88761 0
M  V30 8891 H 816.286 -2.77856 2.76231 0
M  V30 8892 H 817.983 -2.55972 3.08674 0
M  V30 8893 H 814.573 -1.47502 4.02419 0
M  V30 8894 H 818.757 -0.973013 4.86668 0
M  V30 8895 H 814.013 -0.295385 6.10686 0
M  V30 8896 H 818.187 0.199619 6.96114 0
M  V30 8897 H 815.814 0.544356 7.58249 0
M  V30 8898 N 817.389 -1.46805 -0.573248 0
M  V30 8899 C 818.635 -1.5283 -1.33307 0
M  V30 8900 C 818.968 -0.183287 -1.93333 0
M  V30 8901 O 818.243 0.806354 -1.76998 0
M  V30 8902 C 818.526 -2.63414 -2.45531 0
M  V30 8903 C 818.379 -4.07478 -1.90478 0
M  V30 8904 C 819.698 -2.70014 -3.47535 0
M  V30 8905 H 816.817 -0.556371 -0.483343 0
M  V30 8906 H 819.459 -1.78787 -0.643066 0
M  V30 8907 H 817.609 -2.41412 -3.04389 0
M  V30 8908 H 819.281 -4.40795 -1.36004 0
M  V30 8909 H 817.524 -4.16511 -1.21248 0
M  V30 8910 H 818.195 -4.80598 -2.71531 0
M  V30 8911 H 820.671 -2.89817 -2.98572 0
M  V30 8912 H 819.547 -3.49192 -4.23504 0
M  V30 8913 H 819.808 -1.76436 -4.05367 0
M  V30 8914 N 818.867 0.818669 -1.34668 0
M  V30 8915 C 820.114 1.57512 -1.27264 0
M  V30 8916 C 820.442 1.93871 0.156254 0
M  V30 8917 O 819.697 1.60582 1.11857 0
M  V30 8918 C 819.996 2.88245 -2.11304 0
M  V30 8919 C 819.662 2.71159 -3.60255 0
M  V30 8920 C 818.324 2.66207 -4.00858 0
M  V30 8921 C 820.676 2.54538 -4.54819 0
M  V30 8922 C 818.004 2.4256 -5.34211 0
M  V30 8923 C 820.356 2.32421 -5.88356 0
M  V30 8924 C 819.02 2.25884 -6.28118 0
M  V30 8925 H 818.29 0.576378 -0.465692 0
M  V30 8926 H 820.937 0.9469 -1.66451 0
M  V30 8927 H 819.242 3.55381 -1.64958 0
M  V30 8928 H 820.939 3.45869 -2.02919 0
M  V30 8929 H 817.529 2.75856 -3.28027 0
M  V30 8930 H 821.713 2.57384 -4.24343 0
M  V30 8931 H 816.969 2.35959 -5.64033 0
M  V30 8932 H 821.143 2.18548 -6.61218 0
M  V30 8933 H 818.77 2.07322 -7.31383 0
M  V30 8934 N 820.346 1.18468 1.03938 0
M  V30 8935 C 821.279 0.856251 2.11527 0
M  V30 8936 C 822.257 -0.182323 1.61575 0
M  V30 8937 O 823.441 -0.061 1.88401 0
M  V30 8938 C 820.568 0.279562 3.37544 0
M  V30 8939 C 819.614 1.29552 4.06348 0
M  V30 8940 S 820.447 2.85191 4.5324 0
M  V30 8941 C 821.603 2.29037 5.82489 0
M  V30 8942 H 821.836 1.76742 2.39059 0
M  V30 8943 H 819.369 1.01068 1.16725 0
M  V30 8944 H 821.327 -0.0466579 4.10473 0
M  V30 8945 H 819.988 -0.60975 3.08125 0
M  V30 8946 H 819.181 0.840922 4.96935 0
M  V30 8947 H 818.783 1.56804 3.39541 0
M  V30 8948 H 821.075 1.67376 6.565 0
M  V30 8949 H 822.018 3.17929 6.32714 0
M  V30 8950 H 822.426 1.72009 5.37655 0
M  V30 8951 N 821.824 -1.22873 0.986916 0
M  V30 8952 C 822.754 -2.2688 0.552064 0
M  V30 8953 C 823.735 -1.64883 -0.418048 0
M  V30 8954 O 824.92 -1.9171 -0.30999 0
M  V30 8955 C 822.05 -3.47018 -0.139959 0
M  V30 8956 C 821.004 -4.21411 0.748091 0
M  V30 8957 C 820.33 -5.34645 -0.0765132 0
M  V30 8958 C 821.63 -4.80726 2.04206 0
M  V30 8959 H 823.324 -2.63507 1.42143 0
M  V30 8960 H 820.87 -1.26668 0.68492 0
M  V30 8961 H 822.823 -4.18931 -0.455527 0
M  V30 8962 H 821.547 -3.0947 -1.04382 0
M  V30 8963 H 820.206 -3.51325 1.04721 0
M  V30 8964 H 819.854 -4.93339 -0.981109 0
M  V30 8965 H 819.554 -5.85342 0.514606 0
M  V30 8966 H 821.078 -6.09377 -0.386313 0
M  V30 8967 H 822.492 -5.44612 1.79083 0
M  V30 8968 H 820.889 -5.41737 2.5815 0
M  V30 8969 H 821.959 -4.01109 2.72469 0
M  V30 8970 N 823.302 -0.75937 -1.38099 0
M  V30 8971 C 824.527 -0.327859 -2.04792 0
M  V30 8972 C 824.952 1.03752 -1.56899 0
M  V30 8973 O 824.31 1.66235 -0.723581 0
M  V30 8974 C 824.358 -0.366264 -3.58735 0
M  V30 8975 O 823.462 0.637697 -4.0744 0
M  V30 8976 H 822.803 -0.144092 -0.648177 0
M  V30 8977 H 825.333 -1.03211 -1.7666 0
M  V30 8978 H 825.343 -0.219179 -4.07411 0
M  V30 8979 H 824.018 -1.36243 -3.92951 0
M  V30 8980 H 822.595 0.454749 -3.70117 0
M  V30 8981 N 824.78 1.49157 -0.508906 0
M  V30 8982 C 826.008 2.06879 0.0293734 0
M  V30 8983 C 826.423 1.36823 1.30095 0
M  V30 8984 O 825.78 0.449034 1.7689 0
M  V30 8985 C 825.831 3.60423 0.278791 0
M  V30 8986 O 825.552 4.27844 -0.942389 0
M  V30 8987 C 827.053 4.34881 0.859825 0
M  V30 8988 H 824.273 0.67057 -0.0240184 0
M  V30 8989 H 826.817 1.91834 -0.708526 0
M  V30 8990 H 824.972 3.75145 0.966689 0
M  V30 8991 H 825.386 5.19671 -0.710097 0
M  V30 8992 H 826.86 5.43161 0.983884 0
M  V30 8993 H 827.337 3.9789 1.85958 0
M  V30 8994 H 827.943 4.24785 0.209152 0
M  V30 8995 N 826.258 0.243083 1.55714 0
M  V30 8996 C 827.674 -0.111853 1.59208 0
M  V30 8997 C 827.874 -1.5723 1.2602 0
M  V30 8998 O 826.93 -2.31608 1.00569 0
M  V30 8999 C 828.243 0.233885 2.99789 0
M  V30 9000 C 829.791 0.177873 3.12494 0
M  V30 9001 C 830.266 0.49759 4.55289 0
M  V30 9002 N 831.757 0.447949 4.61029 0
M  V30 9003 C 832.492 0.668545 5.69489 0
M  V30 9004 N 831.988 0.952064 6.86227 0
M  V30 9005 N 833.781 0.599512 5.58894 0
M  V30 9006 H 825.932 1.19554 1.75558 0
M  V30 9007 H 828.195 0.480765 0.817049 0
M  V30 9008 H 827.901 1.24835 3.28799 0
M  V30 9009 H 827.775 -0.440846 3.74615 0
M  V30 9010 H 830.162 -0.827263 2.83267 0
M  V30 9011 H 830.243 0.886399 2.39951 0
M  V30 9012 H 829.887 1.50026 4.85237 0
M  V30 9013 H 829.817 -0.232371 5.26087 0
M  V30 9014 H 832.308 0.237388 3.77154 0
M  V30 9015 H 832.621 1.10791 7.64817 0
M  V30 9016 H 830.966 0.989496 6.8792 0
M  V30 9017 H 834.157 0.378088 4.66571 0
M  V30 9018 H 834.33 0.774828 6.43351 0
M  V30 9019 N 827.736 -1.57571 -0.0300757 0
M  V30 9020 C 828.699 -2.05468 -1.01565 0
M  V30 9021 C 829.699 -0.958628 -1.29101 0
M  V30 9022 O 830.889 -1.22228 -1.24121 0
M  V30 9023 C 828.021 -2.47077 -2.34874 0
M  V30 9024 H 829.214 -2.93797 -0.601936 0
M  V30 9025 H 826.767 -1.53828 -0.276878 0
M  V30 9026 H 827.502 -1.61901 -2.80996 0
M  V30 9027 H 827.287 -3.27097 -2.16218 0
M  V30 9028 H 828.777 -2.84564 -3.05635 0
M  V30 9029 N 829.214 0.302327 -1.54673 0
M  V30 9030 C 830.462 1.03565 -1.73547 0
M  V30 9031 C 830.783 1.87843 -0.523448 0
M  V30 9032 O 830.053 1.90367 0.462295 0
M  V30 9033 H 828.633 0.385358 -0.639928 0
M  V30 9034 H 831.295 0.333632 -1.92023 0
M  V30 9035 H 830.391 1.68952 -2.62415 0
M  V30 9036 N 830.692 1.47107 0.565454 0
M  V30 9037 C 831.94 1.53005 1.32038 0
M  V30 9038 C 832.261 0.190453 1.94068 0
M  V30 9039 O 831.531 -0.784783 1.79494 0
M  V30 9040 H 830.111 0.563578 0.490294 0
M  V30 9041 H 832.773 1.83351 0.660928 0
M  V30 9042 H 831.869 2.29215 2.11818 0
M  V30 9043 N 832.17 -0.811516 1.35101 0
M  V30 9044 C 833.1 -1.9378 1.30275 0
M  V30 9045 C 834.081 -1.69165 0.178075 0
M  V30 9046 O 835.266 -1.90599 0.372256 0
M  V30 9047 C 832.396 -3.30439 1.06899 0
M  V30 9048 C 831.35 -3.69523 2.15955 0
M  V30 9049 C 830.676 -5.0429 1.77751 0
M  V30 9050 C 831.976 -3.80419 3.57881 0
M  V30 9051 H 833.67 -1.98075 2.24514 0
M  V30 9052 H 831.216 -0.951586 1.08078 0
M  V30 9053 H 833.169 -4.08828 1.02164 0
M  V30 9054 H 831.893 -3.26473 0.0910462 0
M  V30 9055 H 830.552 -2.93416 2.19778 0
M  V30 9056 H 830.2 -4.96823 0.785876 0
M  V30 9057 H 829.9 -5.31411 2.5075 0
M  V30 9058 H 831.424 -5.85125 1.74533 0
M  V30 9059 H 832.838 -4.49051 3.56407 0
M  V30 9060 H 831.235 -4.19005 4.29598 0
M  V30 9061 H 832.305 -2.82105 3.94391 0
M  V30 9062 N 833.648 -1.19017 -1.03309 0
M  V30 9063 C 834.896 -0.988258 -1.76289 0
M  V30 9064 C 835.217 0.482557 -1.88935 0
M  V30 9065 O 834.487 1.34969 -1.41987 0
M  V30 9066 H 833.067 -0.36267 -0.653054 0
M  V30 9067 H 835.729 -1.49836 -1.2464 0
M  V30 9068 H 834.825 -1.43273 -2.77271 0
M  V30 9069 N 835.127 1.22348 -0.993418 0
M  V30 9070 C 836.376 1.90422 -0.665019 0
M  V30 9071 C 836.689 1.78199 0.806512 0
M  V30 9072 O 837.895 2.41193 1.24652 0
M  V30 9073 C 836.351 3.41403 -1.13893 0
M  V30 9074 C 835.959 3.62262 -2.63572 0
M  V30 9075 C 837.703 4.15175 -0.884884 0
M  V30 9076 C 835.61 5.06947 -3.04564 0
M  V30 9077 H 834.54 0.713073 -0.245037 0
M  V30 9078 H 837.191 1.3856 -1.20305 0
M  V30 9079 H 835.573 3.9245 -0.529027 0
M  V30 9080 H 836.747 3.21705 -3.29913 0
M  V30 9081 H 835.062 3.01824 -2.86865 0
M  V30 9082 H 837.659 5.21813 -1.16684 0
M  V30 9083 H 838.002 4.15915 0.178982 0
M  V30 9084 H 838.535 3.70157 -1.45701 0
M  V30 9085 H 835.274 5.11346 -4.10128 0
M  V30 9086 H 834.794 5.48404 -2.42927 0
M  V30 9087 H 836.473 5.75374 -2.95894 0
M  V30 9088 N 836.605 0.766683 1.37694 0
M  V30 9089 C 837.553 0.137269 2.32195 0
M  V30 9090 C 838.547 -0.69067 1.54681 0
M  V30 9091 O 839.753 -0.588299 1.70115 0
M  V30 9092 H 836.128 0.0256003 0.751564 0
M  V30 9093 H 838.099 0.950129 2.82869 0
M  V30 9094 C 836.848 -0.731446 3.39919 0
M  V30 9095 H 836.171 -0.103738 3.99665 0
M  V30 9096 H 837.611 -1.13891 4.08417 0
M  V30 9097 C 836.07 -1.87984 2.79578 0
M  V30 9098 O 836.6 -2.97496 2.69924 0
M  V30 9099 N 834.806 -1.6789 2.37195 0
M  V30 9100 H 834.353 -0.788162 2.45246 0
M  V30 9101 H 834.311 -2.44894 1.97165 0
M  V30 9102 N 838.083 -1.48885 0.516809 0
M  V30 9103 C 839.013 -2.32241 -0.242157 0
M  V30 9104 C 839.994 -1.41258 -0.947633 0
M  V30 9105 O 841.179 -1.70156 -0.935973 0
M  V30 9106 C 838.309 -3.22151 -1.29754 0
M  V30 9107 C 837.263 -4.22053 -0.710995 0
M  V30 9108 C 836.589 -5.01007 -1.86806 0
M  V30 9109 C 837.889 -5.21388 0.30853 0
M  V30 9110 H 839.583 -2.95943 0.453651 0
M  V30 9111 H 837.129 -1.42316 0.219612 0
M  V30 9112 H 839.082 -3.79284 -1.83634 0
M  V30 9113 H 837.806 -2.56423 -2.02274 0
M  V30 9114 H 836.465 -3.66087 -0.193819 0
M  V30 9115 H 836.113 -4.31713 -2.58133 0
M  V30 9116 H 835.813 -5.68615 -1.48159 0
M  V30 9117 H 837.337 -5.60989 -2.4109 0
M  V30 9118 H 838.751 -5.73122 -0.142703 0
M  V30 9119 H 837.148 -5.96975 0.611673 0
M  V30 9120 H 838.218 -4.69329 1.21894 0
M  V30 9121 N 839.561 -0.251338 -1.55583 0
M  V30 9122 C 840.524 0.63305 -2.20284 0
M  V30 9123 C 841.524 1.09941 -1.17344 0
M  V30 9124 O 842.714 1.00341 -1.42399 0
M  V30 9125 C 839.846 1.8706 -2.84993 0
M  V30 9126 H 841.039 0.0684846 -2.99822 0
M  V30 9127 H 838.592 -0.00181653 -1.563 0
M  V30 9128 H 839.327 2.47629 -2.09405 0
M  V30 9129 H 839.112 1.54436 -3.60405 0
M  V30 9130 H 840.602 2.50004 -3.34496 0
M  V30 9131 N 841.039 1.57585 0.0217189 0
M  V30 9132 C 842.267 1.93871 0.722619 0
M  V30 9133 C 842.682 0.851706 1.68498 0
M  V30 9134 O 842.039 -0.17127 1.81695 0
M  V30 9135 C 842.09 3.30114 1.47333 0
M  V30 9136 O 841.811 4.34639 0.549597 0
M  V30 9137 C 843.312 3.80727 2.27072 0
M  V30 9138 H 840.532 0.639671 0.202637 0
M  V30 9139 H 843.076 2.04487 -0.0229414 0
M  V30 9140 H 841.231 3.20872 2.17071 0
M  V30 9141 H 841.645 5.13326 1.07686 0
M  V30 9142 H 843.119 4.78547 2.75131 0
M  V30 9143 H 843.596 3.12301 3.08812 0
M  V30 9144 H 844.202 3.93075 1.62395 0
M  V30 9145 N 842.517 -0.29412 1.54831 0
M  V30 9146 C 843.48 -1.3461 1.85507 0
M  V30 9147 C 844.48 -1.43359 0.728343 0
M  V30 9148 O 845.67 -1.42875 0.996609 0
M  V30 9149 C 842.802 -2.73012 2.0415 0
M  V30 9150 H 843.995 -1.08651 2.79526 0
M  V30 9151 H 841.548 -0.531138 1.46999 0
M  V30 9152 H 842.283 -3.04183 1.12441 0
M  V30 9153 H 842.068 -2.68051 2.86166 0
M  V30 9154 H 843.558 -3.49061 2.29229 0
M  V30 9155 N 843.995 -1.47404 -0.557645 0
M  V30 9156 C 845.272 -1.44488 -1.31843 0
M  V30 9157 C 845.652 -0.1416 -2.10625 0
M  V30 9158 O 845 0.876908 -2.11004 0
M  V30 9159 C 845.21 -2.69016 -2.22331 0
M  V30 9160 C 846.558 -3.16212 -2.83364 0
M  V30 9161 O 847.582 -2.69741 -2.32634 0
M  V30 9162 O 846.441 -3.96999 -3.75571 0
M  V30 9163 H 843.535 -0.57578 -0.593639 0
M  V30 9164 H 846.081 -1.59605 -0.576584 0
M  V30 9165 H 844.853 -3.55406 -1.63715 0
M  V30 9166 H 844.476 -2.56484 -3.03812 0
M  V30 9167 N 845.473 0.80434 -1.35529 0
M  V30 9168 C 846.719 1.56385 -1.29118 0
M  V30 9169 C 847.052 1.9374 0.133536 0
M  V30 9170 O 846.327 1.6153 1.08344 0
M  V30 9171 C 846.61 2.85097 -2.19981 0
M  V30 9172 C 846.463 2.54204 -3.7108 0
M  V30 9173 C 847.782 3.86817 -2.09907 0
M  V30 9174 H 844.901 0.567382 -0.470368 0
M  V30 9175 H 847.543 0.925235 -1.6595 0
M  V30 9176 H 845.693 3.39594 -1.88701 0
M  V30 9177 H 847.365 2.05872 -4.12813 0
M  V30 9178 H 845.608 1.87364 -3.91251 0
M  V30 9179 H 846.279 3.46068 -4.30048 0
M  V30 9180 H 848.755 3.41725 -2.37409 0
M  V30 9181 H 847.631 4.7465 -2.75678 0
M  V30 9182 H 847.892 4.28663 -1.08171 0
M  V30 9183 N 846.951 1.19563 1.02676 0
M  V30 9184 C 848.197 1.00105 1.76371 0
M  V30 9185 C 848.53 -0.466823 1.88506 0
M  V30 9186 O 847.805 -1.34665 1.40341 0
M  V30 9187 C 848.088 1.67321 3.18866 0
M  V30 9188 C 847.941 3.21486 3.1459 0
M  V30 9189 C 849.26 1.39794 4.17308 0
M  V30 9190 H 846.379 0.365075 0.640226 0
M  V30 9191 H 849.021 1.47433 1.19848 0
M  V30 9192 H 847.171 1.27081 3.67128 0
M  V30 9193 H 848.843 3.70953 2.7421 0
M  V30 9194 H 847.086 3.5292 2.52249 0
M  V30 9195 H 847.757 3.63665 4.15273 0
M  V30 9196 H 850.233 1.74685 3.77657 0
M  V30 9197 H 849.109 1.89371 5.15199 0
M  V30 9198 H 849.37 0.323505 4.40915 0
M  V30 9199 N 848.429 -1.21819 0.999893 0
M  V30 9200 C 849.678 -1.90066 0.675108 0
M  V30 9201 C 849.991 -1.78624 -0.79705 0
M  V30 9202 O 851.197 -2.41851 -1.23371 0
M  V30 9203 C 849.653 -3.40795 1.15702 0
M  V30 9204 C 849.261 -3.60859 2.6549 0
M  V30 9205 C 851.005 -4.147 0.906889 0
M  V30 9206 C 848.912 -5.05324 3.07248 0
M  V30 9207 H 847.842 -0.711763 0.248815 0
M  V30 9208 H 850.493 -1.3792 1.21038 0
M  V30 9209 H 848.875 -3.92164 0.549832 0
M  V30 9210 H 850.049 -3.19951 3.31614 0
M  V30 9211 H 848.364 -3.00298 2.88461 0
M  V30 9212 H 850.961 -5.21187 1.1945 0
M  V30 9213 H 851.304 -4.16004 -0.156923 0
M  V30 9214 H 851.837 -3.69379 1.47662 0
M  V30 9215 H 848.576 -5.09164 4.12834 0
M  V30 9216 H 848.096 -5.47108 2.45832 0
M  V30 9217 H 849.775 -5.73797 2.98941 0
M  V30 9218 N 849.908 -0.773975 -1.37286 0
M  V30 9219 C 850.838 -0.175782 -2.32837 0
M  V30 9220 C 851.819 0.680603 -1.5589 0
M  V30 9221 O 853.004 0.617607 -1.84117 0
M  V30 9222 C 850.134 0.702388 -3.40123 0
M  V30 9223 C 849.088 -0.0528687 -4.27967 0
M  V30 9224 C 848.414 0.944891 -5.26285 0
M  V30 9225 C 849.714 -1.23316 -5.07534 0
M  V30 9226 H 851.408 -0.974016 -2.83114 0
M  V30 9227 H 848.954 -0.469826 -1.3612 0
M  V30 9228 H 850.907 1.13069 -4.05947 0
M  V30 9229 H 849.631 1.53316 -2.88378 0
M  V30 9230 H 848.29 -0.461978 -3.63678 0
M  V30 9231 H 847.938 1.77028 -4.70819 0
M  V30 9232 H 847.638 0.444079 -5.8592 0
M  V30 9233 H 849.162 1.37209 -5.94984 0
M  V30 9234 H 850.576 -0.881395 -5.66484 0
M  V30 9235 H 848.973 -1.66621 -5.76504 0
M  V30 9236 H 850.043 -2.03617 -4.40077 0
M  V30 9237 N 851.386 1.48609 -0.524698 0
M  V30 9238 C 852.616 2.06599 0.00741868 0
M  V30 9239 C 853.024 1.3823 1.29186 0
M  V30 9240 O 852.367 0.461962 1.77797 0
M  V30 9241 C 852.429 3.58184 0.307324 0
M  V30 9242 C 852.093 4.48391 -0.882864 0
M  V30 9243 C 853.09 4.88485 -1.77984 0
M  V30 9244 C 850.775 4.90367 -1.08837 0
M  V30 9245 C 852.769 5.69319 -2.86627 0
M  V30 9246 C 850.456 5.70972 -2.17794 0
M  V30 9247 C 851.454 6.10355 -3.06523 0
M  V30 9248 O 851.142 6.89343 -4.13596 0
M  V30 9249 H 850.874 0.675421 -0.0279846 0
M  V30 9250 H 853.428 1.92058 -0.7282 0
M  V30 9251 H 851.658 3.70818 1.09685 0
M  V30 9252 H 853.347 3.98318 0.780886 0
M  V30 9253 H 854.113 4.56682 -1.63299 0
M  V30 9254 H 849.992 4.592 -0.407035 0
M  V30 9255 H 853.536 5.99978 -3.55911 0
M  V30 9256 H 849.433 6.02188 -2.32465 0
M  V30 9257 H 850.201 7.07689 -4.1124 0
M  V30 9258 N 852.864 0.259585 1.55447 0
M  V30 9259 C 854.141 -0.412595 1.91199 0
M  V30 9260 C 854.521 -1.74909 1.18194 0
M  V30 9261 O 853.869 -2.26474 0.303603 0
M  V30 9262 C 854.079 -0.568195 3.44344 0
M  V30 9263 C 855.427 -0.858253 4.15836 0
M  V30 9264 O 856.451 -0.653588 3.50152 0
M  V30 9265 O 855.31 -1.24874 5.32042 0
M  V30 9266 H 852.404 -0.223403 0.796254 0
M  V30 9267 H 854.95 0.30459 1.66944 0
M  V30 9268 H 853.722 0.372989 3.89518 0
M  V30 9269 H 853.345 -1.33544 3.74502 0
M  V30 9270 N 854.342 -1.57594 -0.0133615 0
M  V30 9271 C 855.567 -1.94649 -0.715996 0
M  V30 9272 C 855.992 -0.860786 -1.67249 0
M  V30 9273 O 855.35 0.182228 -1.80382 0
M  V30 9274 C 855.398 -3.30789 -1.43566 0
M  V30 9275 O 854.502 -3.24148 -2.54955 0
M  V30 9276 H 853.843 -0.635801 -0.191449 0
M  V30 9277 H 856.373 -2.04569 0.0358478 0
M  V30 9278 H 856.383 -3.66045 -1.80208 0
M  V30 9279 H 855.058 -4.09367 -0.734263 0
M  V30 9280 H 853.635 -3.00548 -2.20739 0
M  V30 9281 N 855.82 0.285905 -1.54985 0
M  V30 9282 C 857.097 1.0397 -1.65679 0
M  V30 9283 C 857.477 2.04725 -0.514851 0
M  V30 9284 O 856.825 2.23257 0.486663 0
M  V30 9285 C 857.035 1.70807 -3.04345 0
M  V30 9286 C 858.383 2.22447 -3.61666 0
M  V30 9287 O 859.407 1.80815 -3.06895 0
M  V30 9288 O 858.266 2.98773 -4.57599 0
M  V30 9289 H 855.36 0.481473 -0.672394 0
M  V30 9290 H 857.906 0.282789 -1.67327 0
M  V30 9291 H 856.678 0.977271 -3.789 0
M  V30 9292 H 856.301 2.53217 -3.06541 0
M  V30 9293 N 857.298 1.47698 0.54982 0
M  V30 9294 C 858.544 1.55914 1.30624 0
M  V30 9295 C 858.899 0.221596 1.9112 0
M  V30 9296 O 858.192 -0.77351 1.75292 0
M  V30 9297 C 858.386 2.61903 2.4319 0
M  V30 9298 C 858.215 4.05833 1.93725 0
M  V30 9299 C 856.985 4.73199 1.77231 0
M  V30 9300 C 859.183 4.92624 1.47738 0
M  V30 9301 N 857.165 6.01618 1.22183 0
M  V30 9302 C 858.536 6.11129 1.04505 0
M  V30 9303 C 860.591 4.79006 1.35857 0
M  V30 9304 C 859.294 7.1752 0.505722 0
M  V30 9305 C 861.32 5.85501 0.833254 0
M  V30 9306 C 860.682 7.03201 0.410894 0
M  V30 9307 H 856.781 0.625194 0.469741 0
M  V30 9308 H 859.365 1.84485 0.622369 0
M  V30 9309 H 857.536 2.35188 3.09098 0
M  V30 9310 H 859.268 2.59919 3.102 0
M  V30 9311 H 856.023 4.29221 2.00166 0
M  V30 9312 H 856.447 6.70054 0.967263 0
M  V30 9313 H 861.089 3.88369 1.67122 0
M  V30 9314 H 858.807 8.07898 0.180721 0
M  V30 9315 H 862.393 5.77013 0.744781 0
M  V30 9316 H 861.273 7.84199 0.0107086 0
M  V30 9317 N 858.776 -0.797141 1.35954 0
M  V30 9318 C 859.724 -1.93084 1.29697 0
M  V30 9319 C 860.718 -1.68329 0.190152 0
M  V30 9320 O 861.924 -1.7643 0.3567 0
M  V30 9321 H 858.299 -0.634531 0.403577 0
M  V30 9322 H 860.27 -1.95481 2.25455 0
M  V30 9323 C 859.019 -3.29996 1.09536 0
M  V30 9324 H 858.342 -3.49607 1.93946 0
M  V30 9325 H 859.782 -4.09696 1.09202 0
M  V30 9326 C 858.241 -3.36304 -0.200381 0
M  V30 9327 O 858.771 -3.83579 -1.19291 0
M  V30 9328 N 856.977 -2.89587 -0.242406 0
M  V30 9329 H 856.524 -2.51307 0.565897 0
M  V30 9330 H 856.482 -2.94189 -1.10906 0
M  V30 9331 N 860.254 -1.20106 -1.0204 0
M  V30 9332 C 861.665 -1.00992 -1.57027 0
M  V30 9333 C 862.016 0.434782 -1.91322 0
M  V30 9334 O 861.141 1.31557 -1.71819 0
M  V30 9335 C 861.736 -1.82697 -2.85319 0
M  V30 9336 C 860.295 -1.67959 -3.36848 0
M  V30 9337 C 859.442 -1.80868 -2.10195 0
M  V30 9338 H 862.393 -1.34354 -0.844676 0
M  V30 9339 H 862.414 -1.32809 -3.5657 0
M  V30 9340 H 861.926 -2.87839 -2.60328 0
M  V30 9341 H 860.027 -0.654389 -3.66809 0
M  V30 9342 H 860.14 -2.49006 -4.09308 0
M  V30 9343 H 858.504 -1.24015 -2.22469 0
M  V30 9344 H 859.287 -2.87486 -1.87635 0
M  V30 9345 N 861.732 1.21287 -1.00634 0
M  V30 9346 C 862.664 2.2308 -0.526094 0
M  V30 9347 C 863.677 1.58157 0.386031 0
M  V30 9348 O 864.866 1.77528 0.186016 0
M  V30 9349 C 861.966 3.37937 0.255289 0
M  V30 9350 C 861.139 4.32449 -0.656236 0
M  V30 9351 C 860.198 5.26145 0.0757714 0
M  V30 9352 O 859.224 5.66601 -0.543325 0
M  V30 9353 N 860.426 5.6449 1.35391 0
M  V30 9354 H 863.191 2.64913 -1.40147 0
M  V30 9355 H 860.752 1.35724 -0.882641 0
M  V30 9356 H 862.744 3.97614 0.753977 0
M  V30 9357 H 861.314 2.95078 1.03187 0
M  V30 9358 H 860.534 3.70892 -1.3354 0
M  V30 9359 H 861.822 4.92526 -1.27653 0
M  V30 9360 H 861.22 5.33617 1.878 0
M  V30 9361 H 859.777 6.26524 1.79753 0
M  V30 9362 N 863.21 0.781244 1.36873 0
M  V30 9363 C 864.456 0.350407 1.9975 0
M  V30 9364 C 864.789 -1.07293 1.6187 0
M  V30 9365 O 864.064 -1.73983 0.869491 0
M  V30 9366 C 864.347 0.504834 3.56544 0
M  V30 9367 C 864.2 1.97127 4.04303 0
M  V30 9368 C 865.519 -0.0851272 4.40018 0
M  V30 9369 H 862.638 0.128794 0.725659 0
M  V30 9370 H 865.28 0.98606 1.6241 0
M  V30 9371 H 863.43 -0.0363006 3.88483 0
M  V30 9372 H 865.102 2.57284 3.82887 0
M  V30 9373 H 863.345 2.47676 3.56145 0
M  V30 9374 H 864.016 2.03033 5.13305 0
M  V30 9375 H 866.492 0.376704 4.14391 0
M  V30 9376 H 865.368 0.0530015 5.48874 0
M  V30 9377 H 865.629 -1.17642 4.2616 0
M  V30 9378 N 864.689 -1.48329 0.532571 0
M  V30 9379 C 865.966 -1.95492 -0.0650985 0
M  V30 9380 C 866.346 -1.47485 -1.51034 0
M  V30 9381 O 865.694 -0.702516 -2.17433 0
M  V30 9382 C 865.904 -3.48957 0.0548341 0
M  V30 9383 C 867.252 -4.24475 -0.103115 0
M  V30 9384 O 868.276 -3.56195 -0.0188343 0
M  V30 9385 O 867.135 -5.45781 -0.280164 0
M  V30 9386 H 864.229 -0.823327 -0.0778603 0
M  V30 9387 H 866.775 -1.58839 0.597353 0
M  V30 9388 H 865.547 -3.76628 1.06148 0
M  V30 9389 H 865.17 -3.92311 -0.64635 0
M  V30 9390 N 866.167 -0.267825 -1.55308 0
M  V30 9391 C 867.097 0.616585 -2.25212 0
M  V30 9392 C 868.078 1.16472 -1.23969 0
M  V30 9393 O 869.263 1.20021 -1.52672 0
M  V30 9394 C 866.393 1.80412 -2.96764 0
M  V30 9395 C 865.347 1.38784 -4.04874 0
M  V30 9396 C 864.673 2.65789 -4.63961 0
M  V30 9397 C 865.973 0.543415 -5.19465 0
M  V30 9398 H 867.667 0.0336257 -2.99381 0
M  V30 9399 H 865.213 0.0147328 -1.43992 0
M  V30 9400 H 867.166 2.42866 -3.44375 0
M  V30 9401 H 865.89 2.4128 -2.20118 0
M  V30 9402 H 864.549 0.786541 -3.58063 0
M  V30 9403 H 864.197 3.24899 -3.83992 0
M  V30 9404 H 863.897 2.38651 -5.36954 0
M  V30 9405 H 865.421 3.29104 -5.14318 0
M  V30 9406 H 866.835 1.07277 -5.63174 0
M  V30 9407 H 865.232 0.367219 -5.98975 0
M  V30 9408 H 866.302 -0.439534 -4.82904 0
M  V30 9409 N 867.645 1.57599 0.00500368 0
M  V30 9410 C 868.577 2.04949 1.02609 0
M  V30 9411 C 869.59 0.966507 1.31006 0
M  V30 9412 O 870.779 1.2434 1.2807 0
M  V30 9413 C 867.879 2.43023 2.36206 0
M  V30 9414 C 867.052 3.73993 2.26821 0
M  V30 9415 C 866.111 3.9899 3.43065 0
M  V30 9416 O 865.137 4.69725 3.21477 0
M  V30 9417 N 866.339 3.46496 4.65748 0
M  V30 9418 H 869.104 2.93167 0.622336 0
M  V30 9419 H 866.665 1.60752 0.192488 0
M  V30 9420 H 868.657 2.56863 3.12735 0
M  V30 9421 H 867.227 1.60349 2.68341 0
M  V30 9422 H 866.447 3.70277 1.35235 0
M  V30 9423 H 867.735 4.59865 2.17719 0
M  V30 9424 H 867.133 2.89206 4.86186 0
M  V30 9425 H 865.69 3.65675 5.3956 0
M  V30 9426 N 869.123 -0.277682 1.55134 0
M  V30 9427 C 870.086 -1.32635 1.86924 0
M  V30 9428 C 871.086 -1.42578 0.743507 0
M  V30 9429 O 872.276 -1.4181 1.01171 0
M  V30 9430 C 869.408 -2.70832 2.07034 0
M  V30 9431 H 870.601 -1.0568 2.80663 0
M  V30 9432 H 868.154 -0.515517 1.47554 0
M  V30 9433 H 868.889 -3.02974 1.15661 0
M  V30 9434 H 868.674 -2.65001 2.88993 0
M  V30 9435 H 870.164 -3.46611 2.32918 0
M  V30 9436 N 870.601 -1.47988 -0.541979 0
M  V30 9437 C 871.534 -1.56172 -1.66389 0
M  V30 9438 C 872.512 -0.412879 -1.57271 0
M  V30 9439 O 873.696 -0.622816 -1.77914 0
M  V30 9440 C 870.823 -1.47851 -3.04726 0
M  V30 9441 C 869.869 -2.67428 -3.32242 0
M  V30 9442 S 870.702 -4.29502 -3.19825 0
M  V30 9443 C 871.858 -4.2376 -4.60628 0
M  V30 9444 H 872.091 -2.51086 -1.59195 0
M  V30 9445 H 869.624 -1.36373 -0.724005 0
M  V30 9446 H 871.582 -1.43738 -3.84512 0
M  V30 9447 H 870.243 -0.542958 -3.09372 0
M  V30 9448 H 869.436 -2.57711 -4.33129 0
M  V30 9449 H 869.038 -2.68743 -2.60103 0
M  V30 9450 H 871.33 -3.92953 -5.51901 0
M  V30 9451 H 872.273 -5.24786 -4.75401 0
M  V30 9452 H 872.681 -3.54398 -4.39389 0
M  V30 9453 N 872.079 0.78992 -1.36375 0
M  V30 9454 C 873.356 1.53584 -1.21126 0
M  V30 9455 C 873.736 2.10124 0.202785 0
M  V30 9456 O 873.084 1.93936 1.20835 0
M  V30 9457 C 873.294 2.63117 -2.29282 0
M  V30 9458 C 874.642 3.31013 -2.65924 0
M  V30 9459 O 875.666 2.734 -2.28321 0
M  V30 9460 O 874.525 4.35129 -3.30643 0
M  V30 9461 H 871.619 0.679366 -0.471583 0
M  V30 9462 H 874.165 0.828446 -1.48104 0
M  V30 9463 H 872.937 2.19329 -3.24053 0
M  V30 9464 H 872.56 3.41476 -2.03666 0
M  V30 9465 N 873.557 1.20646 1.01402 0
M  V30 9466 C 874.973 0.961866 1.27359 0
M  V30 9467 C 875.173 -0.357083 1.98311 0
M  V30 9468 O 874.229 -1.08498 2.28001 0
M  V30 9469 C 875.542 2.14627 2.10609 0
M  V30 9470 C 877.09 2.18753 2.23866 0
M  V30 9471 C 877.565 3.36686 3.10494 0
M  V30 9472 N 879.056 3.36716 3.18083 0
M  V30 9473 C 879.791 4.24615 3.85343 0
M  V30 9474 N 879.287 5.22697 4.54708 0
M  V30 9475 N 881.08 4.12449 3.81893 0
M  V30 9476 H 873.231 2.05481 0.537721 0
M  V30 9477 H 875.494 0.899292 0.299963 0
M  V30 9478 H 875.2 3.10159 1.65814 0
M  V30 9479 H 875.074 2.12935 3.11349 0
M  V30 9480 H 877.461 1.23782 2.67885 0
M  V30 9481 H 877.542 2.24492 1.22626 0
M  V30 9482 H 877.186 4.31945 2.67181 0
M  V30 9483 H 877.116 3.28185 4.11828 0
M  V30 9484 H 879.607 2.65728 2.68695 0
M  V30 9485 H 879.92 5.86087 5.03708 0
M  V30 9486 H 878.265 5.26631 4.53525 0
M  V30 9487 H 881.456 3.35091 3.26851 0
M  V30 9488 H 881.629 4.81162 4.34035 0
M  V30 9489 N 875.035 -1.20752 1.01276 0
M  V30 9490 C 875.998 -2.2162 0.584583 0
M  V30 9491 C 876.998 -1.57094 -0.343215 0
M  V30 9492 O 878.188 -1.73696 -0.132433 0
M  V30 9493 C 875.32 -3.40583 -0.146872 0
M  V30 9494 H 876.513 -2.61015 1.47686 0
M  V30 9495 H 874.066 -1.34148 0.802123 0
M  V30 9496 H 874.801 -3.06686 -1.05424 0
M  V30 9497 H 874.586 -3.88642 0.51958 0
M  V30 9498 H 876.076 -4.15339 -0.433924 0
M  V30 9499 N 876.513 -0.788492 -1.36457 0
M  V30 9500 C 877.463 -0.159377 -2.27442 0
M  V30 9501 C 878.447 0.656146 -1.46913 0
M  V30 9502 O 879.639 0.516372 -1.693 0
M  V30 9503 C 876.768 0.705703 -3.35968 0
M  V30 9504 C 875.854 -0.11856 -4.23934 0
M  V30 9505 N 876.245 -1.1726 -4.9202 0
M  V30 9506 C 874.543 0.102752 -4.45882 0
M  V30 9507 C 875.244 -1.6743 -5.57083 0
M  V30 9508 N 874.22 -0.983682 -5.34626 0
M  V30 9509 H 878.022 -0.96614 -2.77566 0
M  V30 9510 H 875.536 -0.627864 -1.49772 0
M  V30 9511 H 877.533 1.17231 -4.00078 0
M  V30 9512 H 876.193 1.51102 -2.87399 0
M  V30 9513 H 877.204 -1.55502 -4.94004 0
M  V30 9514 H 873.881 0.878651 -4.08149 0
M  V30 9515 H 875.271 -2.55423 -6.21457 0
M  V30 9516 N 877.991 1.48044 -0.54043 0
M  V30 9517 C 879.407 1.58354 -0.199006 0
M  V30 9518 C 879.607 1.54118 1.29807 0
M  V30 9519 O 878.663 1.43573 2.07709 0
M  V30 9520 C 879.976 2.89563 -0.810797 0
M  V30 9521 C 881.524 3.03113 -0.780486 0
M  V30 9522 C 881.999 4.36997 -1.37104 0
M  V30 9523 N 883.49 4.43591 -1.33347 0
M  V30 9524 C 884.225 5.45714 -1.76021 0
M  V30 9525 N 883.721 6.54738 -2.26473 0
M  V30 9526 N 885.514 5.36659 -1.67194 0
M  V30 9527 H 877.665 1.49041 -1.51329 0
M  V30 9528 H 879.928 0.708309 -0.630081 0
M  V30 9529 H 879.634 2.9835 -1.86227 0
M  V30 9530 H 879.508 3.76053 -0.293977 0
M  V30 9531 H 881.895 2.93932 0.262246 0
M  V30 9532 H 881.976 2.18207 -1.33489 0
M  V30 9533 H 881.62 4.46932 -2.41276 0
M  V30 9534 H 881.55 5.20607 -0.792229 0
M  V30 9535 H 884.041 3.65391 -0.964259 0
M  V30 9536 H 884.354 7.28814 -2.57002 0
M  V30 9537 H 882.699 6.55673 -2.30473 0
M  V30 9538 H 885.89 4.50382 -1.27569 0
M  V30 9539 H 886.063 6.16113 -2.00771 0
M  V30 9540 N 879.47 0.276058 1.55163 0
M  V30 9541 C 880.719 -0.341098 1.98795 0
M  V30 9542 C 881.032 -1.56905 1.16791 0
M  V30 9543 O 882.238 -2.25922 1.50571 0
M  V30 9544 C 880.694 -0.658231 3.5383 0
M  V30 9545 C 880.302 0.549972 4.44611 0
M  V30 9546 C 882.046 -1.23796 4.06048 0
M  V30 9547 C 879.953 0.207373 5.91036 0
M  V30 9548 H 878.883 -0.131224 0.742493 0
M  V30 9549 H 881.534 0.380858 1.79504 0
M  V30 9550 H 879.916 -1.43911 3.68925 0
M  V30 9551 H 881.09 1.32681 4.41285 0
M  V30 9552 H 879.405 1.04661 4.03032 0
M  V30 9553 H 882.002 -1.50811 5.12991 0
M  V30 9554 H 882.345 -2.17214 3.55139 0
M  V30 9555 H 882.878 -0.519345 3.94395 0
M  V30 9556 H 879.617 1.10946 6.46043 0
M  V30 9557 H 879.137 -0.532687 5.9743 0
M  V30 9558 H 880.816 -0.200072 6.46691 0
M  V30 9559 N 880.948 -1.576 0.00335426 0
M  V30 9560 C 882.196 -1.90336 -0.679446 0
M  V30 9561 C 882.517 -0.877777 -1.74127 0
M  V30 9562 O 881.787 0.0843585 -1.95718 0
M  V30 9563 H 880.367 -0.702509 -0.253948 0
M  V30 9564 H 883.029 -1.94848 0.0450731 0
M  V30 9565 H 882.125 -2.90197 -1.14857 0
M  V30 9566 N 882.426 0.269451 -1.5528 0
M  V30 9567 C 883.358 1.35553 -1.84819 0
M  V30 9568 C 884.371 1.45369 -0.732914 0
M  V30 9569 O 885.56 1.47122 -1.0108 0
M  V30 9570 C 882.66 2.73645 -1.9993 0
M  V30 9571 C 881.833 2.86376 -3.30617 0
M  V30 9572 C 880.892 4.05165 -3.35749 0
M  V30 9573 O 879.918 3.95756 -4.09104 0
M  V30 9574 N 881.12 5.17297 -2.63408 0
M  V30 9575 H 883.885 1.10557 -2.78563 0
M  V30 9576 H 881.446 0.459566 -1.5524 0
M  V30 9577 H 883.438 3.51411 -2.00729 0
M  V30 9578 H 882.008 2.91448 -1.13035 0
M  V30 9579 H 881.228 1.95465 -3.42326 0
M  V30 9580 H 882.516 2.91815 -4.16799 0
M  V30 9581 H 881.914 5.2783 -2.03501 0
M  V30 9582 H 880.471 5.93281 -2.69927 0
M  V30 9583 N 883.904 1.48273 0.534124 0
M  V30 9584 C 885.132 1.59734 1.31501 0
M  V30 9585 C 885.547 0.256047 1.87056 0
M  V30 9586 O 884.904 -0.754086 1.66192 0
M  V30 9587 C 884.955 2.64072 2.46877 0
M  V30 9588 O 884.676 3.92995 1.93613 0
M  V30 9589 C 886.177 2.85933 3.38758 0
M  V30 9590 H 883.397 0.538703 0.40005 0
M  V30 9591 H 885.941 1.9407 0.644762 0
M  V30 9592 H 884.096 2.32606 3.09795 0
M  V30 9593 H 884.51 4.50203 2.69106 0
M  V30 9594 H 885.984 3.62749 4.16073 0
M  V30 9595 H 886.461 1.94603 3.93734 0
M  V30 9596 H 887.067 3.18687 2.81636 0
M  V30 9597 N 885.382 -0.782676 1.36792 0
M  V30 9598 C 886.329 -1.89558 1.31667 0
M  V30 9599 C 887.299 -1.65076 0.184147 0
M  V30 9600 O 888.484 -1.87143 0.371753 0
M  V30 9601 C 885.624 -3.26469 1.11858 0
M  V30 9602 C 884.737 -3.62978 2.34245 0
M  V30 9603 C 883.872 -4.89041 2.07394 0
M  V30 9604 C 882.911 -5.18249 3.25706 0
M  V30 9605 N 882.048 -6.35497 2.98476 0
M  V30 9606 H 886.888 -1.93274 2.26824 0
M  V30 9607 H 884.425 -0.945057 1.12726 0
M  V30 9608 H 886.383 -4.05431 0.983968 0
M  V30 9609 H 885.013 -3.22158 0.203531 0
M  V30 9610 H 884.065 -2.79087 2.58485 0
M  V30 9611 H 885.377 -3.80507 3.22514 0
M  V30 9612 H 884.531 -5.75883 1.90901 0
M  V30 9613 H 883.27 -4.73594 1.16446 0
M  V30 9614 H 882.275 -4.29887 3.4275 0
M  V30 9615 H 883.5 -5.35611 4.1749 0
M  V30 9616 H 881.446 -6.21429 2.10146 0
M  V30 9617 H 881.363 -6.5339 3.80286 0
M  V30 9618 H 882.631 -7.25304 2.85577 0
M  V30 9619 N 886.86 -1.21182 -1.00761 0
M  V30 9620 C 888.088 -1.05335 -1.78079 0
M  V30 9621 C 888.503 0.396988 -1.84579 0
M  V30 9622 O 887.86 1.27548 -1.30529 0
M  V30 9623 C 887.911 -1.64089 -3.22113 0
M  V30 9624 O 887.632 -3.03448 -3.15992 0
M  V30 9625 C 889.133 -1.53318 -4.15943 0
M  V30 9626 H 886.353 -0.37005 -0.559736 0
M  V30 9627 H 888.897 -1.60463 -1.26775 0
M  V30 9628 H 887.052 -1.13059 -3.70535 0
M  V30 9629 H 887.466 -3.31492 -4.06465 0
M  V30 9630 H 888.94 -1.99174 -5.14814 0
M  V30 9631 H 889.417 -0.487166 -4.3649 0
M  V30 9632 H 890.023 -2.03582 -3.73409 0
M  V30 9633 N 888.338 1.20213 -1.01915 0
M  V30 9634 C 889.584 1.89928 -0.711007 0
M  V30 9635 C 889.917 1.7881 0.75767 0
M  V30 9636 O 889.192 1.17399 1.55073 0
M  V30 9637 C 889.475 3.41225 -1.15053 0
M  V30 9638 C 889.328 3.61264 -2.67971 0
M  V30 9639 C 890.647 4.34108 -0.72377 0
M  V30 9640 H 887.766 0.689702 -0.259768 0
M  V30 9641 H 890.408 1.41557 -1.26734 0
M  V30 9642 H 888.558 3.82552 -0.677199 0
M  V30 9643 H 890.23 3.29173 -3.23176 0
M  V30 9644 H 888.473 3.04647 -3.08824 0
M  V30 9645 H 889.144 4.67331 -2.93779 0
M  V30 9646 H 891.62 4.00442 -1.13073 0
M  V30 9647 H 890.496 5.38581 -1.05931 0
M  V30 9648 H 890.757 4.40512 0.374424 0
M  V30 9649 N 889.816 0.795718 1.36037 0
M  V30 9650 C 891.232 0.478145 1.52269 0
M  V30 9651 C 891.432 -1.0025 1.74792 0
M  V30 9652 O 890.488 -1.78783 1.78305 0
M  V30 9653 C 891.801 1.31406 2.70468 0
M  V30 9654 C 893.349 1.3084 2.84341 0
M  V30 9655 C 893.824 2.12819 4.05551 0
M  V30 9656 N 895.315 2.10298 4.12709 0
M  V30 9657 C 896.05 2.70495 5.05589 0
M  V30 9658 N 895.546 3.39576 6.03871 0
M  V30 9659 N 897.339 2.60195 4.98252 0
M  V30 9660 H 889.49 1.75477 1.19673 0
M  V30 9661 H 891.753 0.74627 0.584624 0
M  V30 9662 H 891.459 2.36435 2.60368 0
M  V30 9663 H 891.333 0.959726 3.64786 0
M  V30 9664 H 893.72 0.266003 2.93899 0
M  V30 9665 H 893.801 1.70254 1.90912 0
M  V30 9666 H 893.445 3.17093 3.96755 0
M  V30 9667 H 893.375 1.70772 4.98141 0
M  V30 9668 H 895.866 1.60026 3.42345 0
M  V30 9669 H 896.179 3.82823 6.71317 0
M  V30 9670 H 894.524 3.43679 6.04077 0
M  V30 9671 H 897.715 2.05823 4.20422 0
M  V30 9672 H 897.888 3.074 5.70447 0
M  V30 9673 N 891.294 -1.47756 0.548274 0
M  V30 9674 C 892.54 -2.02789 0.0209265 0
M  V30 9675 C 892.873 -1.42268 -1.32187 0
M  V30 9676 O 892.148 -0.575001 -1.85806 0
M  V30 9677 C 892.431 -3.60007 -0.0816674 0
M  V30 9678 C 892.284 -4.30977 1.28759 0
M  V30 9679 C 893.603 -4.32777 -0.799515 0
M  V30 9680 H 890.722 -0.736944 0.00907884 0
M  V30 9681 H 893.364 -1.76282 0.708839 0
M  V30 9682 H 891.514 -3.82722 -0.667537 0
M  V30 9683 H 893.186 -4.19629 1.91597 0
M  V30 9684 H 891.429 -3.9168 1.86466 0
M  V30 9685 H 892.1 -5.39488 1.16861 0
M  V30 9686 H 894.576 -4.15001 -0.30216 0
M  V30 9687 H 893.452 -5.42431 -0.840239 0
M  V30 9688 H 893.713 -4.01358 -1.85375 0
M  V30 9689 N 892.772 -0.284283 -1.55015 0
M  V30 9690 C 894.019 0.329864 -1.99795 0
M  V30 9691 C 894.347 1.55171 -1.1727 0
M  V30 9692 O 893.602 1.94312 -0.232667 0
M  V30 9693 C 893.901 0.747219 -3.49502 0
M  V30 9694 C 893.567 -0.37101 -4.49371 0
M  V30 9695 C 892.229 -0.678034 -4.76399 0
M  V30 9696 C 894.581 -1.12406 -5.08935 0
M  V30 9697 C 891.909 -1.74152 -5.60257 0
M  V30 9698 C 894.261 -2.17734 -5.93948 0
M  V30 9699 C 892.925 -2.49061 -6.19294 0
M  V30 9700 H 892.195 0.120706 -0.731103 0
M  V30 9701 H 894.842 -0.399904 -1.87278 0
M  V30 9702 H 893.147 1.55681 -3.59542 0
M  V30 9703 H 894.844 1.2333 -3.81563 0
M  V30 9704 H 891.434 -0.1216 -4.28427 0
M  V30 9705 H 895.618 -0.900119 -4.88069 0
M  V30 9706 H 890.874 -1.98915 -5.78137 0
M  V30 9707 H 895.048 -2.76553 -6.39133 0
M  V30 9708 H 892.675 -3.31602 -6.84064 0
M  V30 9709 N 894.251 1.57596 -0.0117121 0
M  V30 9710 C 895.667 1.55837 0.344506 0
M  V30 9711 C 895.867 1.01557 1.74036 0
M  V30 9712 O 894.923 0.654563 2.43868 0
M  V30 9713 C 896.236 2.99973 0.209023 0
M  V30 9714 C 897.784 3.11717 0.283092 0
M  V30 9715 C 898.259 4.57659 0.176599 0
M  V30 9716 N 899.75 4.62608 0.234133 0
M  V30 9717 C 900.485 5.73132 0.175252 0
M  V30 9718 N 899.981 6.92768 0.0662888 0
M  V30 9719 N 901.774 5.61638 0.227972 0
M  V30 9720 H 893.925 1.91215 -0.924692 0
M  V30 9721 H 896.188 0.878807 -0.355531 0
M  V30 9722 H 895.894 3.4357 -0.751826 0
M  V30 9723 H 895.768 3.64075 0.98635 0
M  V30 9724 H 898.155 2.68043 1.23439 0
M  V30 9725 H 898.236 2.50369 -0.52431 0
M  V30 9726 H 897.88 5.02011 -0.771205 0
M  V30 9727 H 897.81 5.16967 1.00264 0
M  V30 9728 H 900.301 3.76549 0.319203 0
M  V30 9729 H 900.614 7.72795 0.0275765 0
M  V30 9730 H 898.959 6.94993 0.0317502 0
M  V30 9731 H 902.15 4.67063 0.311377 0
M  V30 9732 H 902.323 6.47754 0.178621 0
M  V30 9733 N 895.729 -0.261212 1.5542 0
M  V30 9734 C 896.976 -0.99123 1.76581 0
M  V30 9735 C 897.304 -1.85854 0.573457 0
M  V30 9736 O 896.559 -1.90604 -0.443705 0
M  V30 9737 C 896.858 -1.89395 3.03091 0
M  V30 9738 C 896.524 -1.18318 4.351 0
M  V30 9739 C 895.186 -0.986688 4.70975 0
M  V30 9740 C 897.538 -0.678299 5.16767 0
M  V30 9741 C 894.866 -0.272788 5.86065 0
M  V30 9742 C 897.218 0.0220646 6.32596 0
M  V30 9743 C 895.882 0.230161 6.67103 0
M  V30 9744 H 895.152 -0.362717 0.646156 0
M  V30 9745 H 897.799 -0.262506 1.89692 0
M  V30 9746 H 896.104 -2.68927 2.8493 0
M  V30 9747 H 897.801 -2.46022 3.16661 0
M  V30 9748 H 894.391 -1.34625 4.06908 0
M  V30 9749 H 898.575 -0.817691 4.89518 0
M  V30 9750 H 893.831 -0.10095 6.11317 0
M  V30 9751 H 898.005 0.420981 6.95126 0
M  V30 9752 H 895.632 0.785312 7.56133 0
M  V30 9753 N 897.207 -1.48554 -0.526253 0
M  V30 9754 C 898.456 -1.56014 -1.27837 0
M  V30 9755 C 898.769 -0.240643 -1.94114 0
M  V30 9756 O 899.975 -0.193525 -2.70809 0
M  V30 9757 C 898.431 -2.75161 -2.31979 0
M  V30 9758 C 898.039 -4.13768 -1.71755 0
M  V30 9759 C 899.783 -2.91936 -3.08178 0
M  V30 9760 C 897.69 -5.24171 -2.7386 0
M  V30 9761 H 896.62 -0.58082 -0.480795 0
M  V30 9762 H 899.271 -1.74895 -0.555335 0
M  V30 9763 H 897.653 -2.49722 -3.07335 0
M  V30 9764 H 898.827 -4.49241 -1.02563 0
M  V30 9765 H 897.142 -4.02141 -1.08036 0
M  V30 9766 H 899.739 -3.71586 -3.84484 0
M  V30 9767 H 900.082 -2.01533 -3.64267 0
M  V30 9768 H 900.615 -3.17294 -2.39937 0
M  V30 9769 H 897.354 -6.16552 -2.22586 0
M  V30 9770 H 896.874 -4.93181 -3.41368 0
M  V30 9771 H 898.553 -5.52442 -3.36774 0
M  V30 9772 N 898.685 0.775411 -1.37205 0
M  V30 9773 C 899.913 1.56446 -1.35397 0
M  V30 9774 C 900.328 1.887 0.0615437 0
M  V30 9775 O 899.685 1.51178 1.02233 0
M  V30 9776 C 899.736 2.87697 -2.18889 0
M  V30 9777 O 899.457 2.56828 -3.54924 0
M  V30 9778 C 900.958 3.81944 -2.25019 0
M  V30 9779 H 898.178 0.484792 -0.463916 0
M  V30 9780 H 900.722 0.961346 -1.80495 0
M  V30 9781 H 898.877 3.44442 -1.7731 0
M  V30 9782 H 899.291 3.40851 -3.98649 0
M  V30 9783 H 900.765 4.71055 -2.87769 0
M  V30 9784 H 901.242 4.20811 -1.25757 0
M  V30 9785 H 901.848 3.3113 -2.66895 0
M  V30 9786 N 900.163 1.21714 1.00117 0
M  V30 9787 C 901.44 0.945391 1.71236 0
M  V30 9788 C 901.82 -0.541772 2.0403 0
M  V30 9789 O 901.168 -1.50763 1.71705 0
M  V30 9790 C 901.378 1.83444 2.96899 0
M  V30 9791 C 902.726 2.08558 3.69849 0
M  V30 9792 O 903.75 1.80824 3.06889 0
M  V30 9793 O 902.609 2.55485 4.83104 0
M  V30 9794 H 899.703 0.354834 0.747009 0
M  V30 9795 H 902.249 1.32661 1.05825 0
M  V30 9796 H 901.021 2.84075 2.69105 0
M  V30 9797 H 900.644 1.45428 3.70049 0
M  V30 9798 N 901.641 -1.19671 1.02551 0
M  V30 9799 C 902.589 -2.24812 0.596867 0
M  V30 9800 C 903.583 -1.65336 -0.368839 0
M  V30 9801 O 904.789 -1.78422 -0.237786 0
M  V30 9802 H 901.164 -0.731417 0.174739 0
M  V30 9803 H 903.135 -2.58286 1.49435 0
M  V30 9804 C 901.884 -3.47677 -0.0399514 0
M  V30 9805 H 901.207 -3.93728 0.694153 0
M  V30 9806 H 902.647 -4.22917 -0.302861 0
M  V30 9807 C 901.106 -3.11411 -1.2855 0
M  V30 9808 O 901.636 -3.23757 -2.37791 0
M  V30 9809 N 899.842 -2.65875 -1.17297 0
M  V30 9810 H 899.389 -2.56029 -0.284045 0
M  V30 9811 H 899.347 -2.41981 -2.00731 0
M  V30 9812 N 903.119 -0.802921 -1.35613 0
M  V30 9813 C 904.347 -0.39393 -2.03115 0
M  V30 9814 C 904.762 0.993961 -1.60517 0
M  V30 9815 O 904.119 1.63984 -0.800973 0
M  V30 9816 C 904.17 -0.463486 -3.58516 0
M  V30 9817 O 903.891 -1.79666 -3.99565 0
M  V30 9818 C 905.392 -0.0468377 -4.43275 0
M  V30 9819 H 902.612 -0.160519 -0.651517 0
M  V30 9820 H 905.156 -1.08552 -1.73311 0
M  V30 9821 H 903.311 0.179821 -3.86982 0
M  V30 9822 H 903.725 -1.75688 -4.942 0
M  V30 9823 H 905.199 -0.146626 -5.51805 0
M  V30 9824 H 905.676 1.00741 -4.2749 0
M  V30 9825 H 906.282 -0.663158 -4.20098 0
M  V30 9826 N 904.597 1.47463 -0.556102 0
M  V30 9827 C 905.843 2.02775 -0.0316806 0
M  V30 9828 C 906.176 1.42967 1.3143 0
M  V30 9829 O 905.451 0.584847 1.85499 0
M  V30 9830 C 905.734 3.60046 0.0625742 0
M  V30 9831 C 905.587 4.30288 -1.31043 0
M  V30 9832 C 906.906 4.33195 0.776553 0
M  V30 9833 H 904.025 0.736886 -0.0129869 0
M  V30 9834 H 906.667 1.75904 -0.718177 0
M  V30 9835 H 904.817 3.83071 0.647231 0
M  V30 9836 H 906.489 4.18607 -1.9382 0
M  V30 9837 H 904.732 3.90685 -1.8854 0
M  V30 9838 H 905.403 5.38861 -1.1972 0
M  V30 9839 H 907.879 4.15156 0.280147 0
M  V30 9840 H 906.755 5.42869 0.81146 0
M  V30 9841 H 907.016 4.02336 1.83244 0
M  V30 9842 N 906.075 0.2925 1.54862 0
M  V30 9843 C 906.985 -0.597036 2.26876 0
M  V30 9844 C 908.001 -1.15558 1.30086 0
M  V30 9845 O 909.177 -1.18217 1.63054 0
M  V30 9846 C 906.242 -1.75664 2.98903 0
M  V30 9847 C 905.303 -1.23303 4.11212 0
M  V30 9848 C 904.536 -2.33736 4.79795 0
M  V30 9849 O 904.759 -3.53459 4.47686 0
M  V30 9850 O 903.693 -2.00908 5.67379 0
M  V30 9851 H 907.519 -0.0131242 3.03697 0
M  V30 9852 H 905.104 0.0592642 1.49282 0
M  V30 9853 H 906.986 -2.43241 3.4411 0
M  V30 9854 H 905.661 -2.32731 2.24984 0
M  V30 9855 H 904.568 -0.523222 3.70423 0
M  V30 9856 H 905.901 -0.707887 4.87083 0
M  V30 9857 N 907.553 -1.57587 0.0200696 0
M  V30 9858 C 908.463 -2.13119 -0.980676 0
M  V30 9859 C 909.479 -1.08124 -1.36328 0
M  V30 9860 O 910.655 -1.40134 -1.44653 0
M  V30 9861 C 907.72 -2.63991 -2.24743 0
M  V30 9862 C 906.781 -3.83667 -1.9261 0
M  V30 9863 C 906.014 -4.32103 -3.13246 0
M  V30 9864 O 906.237 -3.79758 -4.25606 0
M  V30 9865 O 905.171 -5.24047 -2.96072 0
M  V30 9866 H 908.997 -2.98887 -0.538528 0
M  V30 9867 H 906.582 -1.48055 -0.19999 0
M  V30 9868 H 908.464 -2.9682 -2.99125 0
M  V30 9869 H 907.139 -1.81311 -2.68157 0
M  V30 9870 H 906.046 -3.55778 -1.15641 0
M  V30 9871 H 907.379 -4.67482 -1.54019 0
M  V30 9872 N 909.032 0.252966 -1.55557 0
M  V30 9873 C 910.448 0.60118 -1.47844 0
M  V30 9874 C 910.648 1.88612 -0.709055 0
M  V30 9875 O 909.704 2.51395 -0.235964 0
M  V30 9876 C 911.017 0.709539 -2.92209 0
M  V30 9877 C 912.565 0.802269 -3.02544 0
M  V30 9878 C 913.04 0.94224 -4.48203 0
M  V30 9879 N 914.531 1.00726 -4.52116 0
M  V30 9880 C 915.266 1.13472 -5.6206 0
M  V30 9881 N 914.762 1.22811 -6.81828 0
M  V30 9882 N 916.555 1.1674 -5.49844 0
M  V30 9883 H 908.706 -0.590635 -2.04023 0
M  V30 9884 H 910.969 -0.202986 -0.926013 0
M  V30 9885 H 910.675 -0.164505 -3.51315 0
M  V30 9886 H 910.549 1.58343 -3.42356 0
M  V30 9887 H 912.936 1.66677 -2.43522 0
M  V30 9888 H 913.017 -0.0966469 -2.55617 0
M  V30 9889 H 912.661 0.0823209 -5.07833 0
M  V30 9890 H 912.591 1.85611 -4.92805 0
M  V30 9891 H 915.082 0.946684 -3.6585 0
M  V30 9892 H 915.395 1.32426 -7.61369 0
M  V30 9893 H 913.74 1.19779 -6.84601 0
M  V30 9894 H 916.931 1.09089 -4.55211 0
M  V30 9895 H 917.104 1.26329 -6.35567 0
M  V30 9896 N 910.51 1.48831 0.518367 0
M  V30 9897 C 911.759 1.5669 1.27008 0
M  V30 9898 C 912.072 0.250934 1.93984 0
M  V30 9899 O 913.278 0.207884 2.70703 0
M  V30 9900 C 911.734 2.76387 2.30517 0
M  V30 9901 C 911.342 4.14673 1.69559 0
M  V30 9902 C 913.086 2.93566 3.06625 0
M  V30 9903 C 910.993 5.25616 2.71076 0
M  V30 9904 H 909.923 0.583362 0.477708 0
M  V30 9905 H 912.574 1.75187 0.546052 0
M  V30 9906 H 910.956 2.51348 3.06006 0
M  V30 9907 H 912.13 4.49779 1.00179 0
M  V30 9908 H 910.445 4.02708 1.05902 0
M  V30 9909 H 913.042 3.7362 3.82508 0
M  V30 9910 H 913.385 2.03462 3.63193 0
M  V30 9911 H 913.918 3.18562 2.38251 0
M  V30 9912 H 910.657 6.17723 2.19313 0
M  V30 9913 H 910.177 4.94985 3.38748 0
M  V30 9914 H 911.856 5.5422 3.3384 0
M  V30 9915 N 911.988 -0.768124 1.37614 0
M  V30 9916 C 913.234 -1.52907 1.33219 0
M  V30 9917 C 913.567 -1.94026 -0.0821218 0
M  V30 9918 O 912.842 -1.64345 -1.04023 0
M  V30 9919 C 913.125 -2.79164 2.27463 0
M  V30 9920 C 912.978 -2.44276 3.7769 0
M  V30 9921 C 914.297 -3.81115 2.20089 0
M  V30 9922 H 911.416 -0.554712 0.485246 0
M  V30 9923 H 914.058 -0.880911 1.68345 0
M  V30 9924 H 912.208 -3.34472 1.97639 0
M  V30 9925 H 913.88 -1.94855 4.18126 0
M  V30 9926 H 912.123 -1.76925 3.96081 0
M  V30 9927 H 912.794 -3.34544 4.39072 0
M  V30 9928 H 915.27 -3.35311 2.46386 0
M  V30 9929 H 914.146 -4.67174 2.88166 0
M  V30 9930 H 914.407 -4.25644 1.19498 0
M  V30 9931 N 913.466 -1.22244 -0.994698 0
M  V30 9932 C 914.376 -1.00722 -2.11878 0
M  V30 9933 C 915.392 0.043919 -1.73945 0
M  V30 9934 O 916.568 -0.148411 -2.00852 0
M  V30 9935 C 913.633 -0.585723 -3.41717 0
M  V30 9936 C 912.694 -1.71027 -3.93762 0
M  V30 9937 C 911.927 -1.30879 -5.17403 0
M  V30 9938 O 912.15 -0.18681 -5.70094 0
M  V30 9939 O 911.084 -2.1246 -5.63156 0
M  V30 9940 H 914.91 -1.94894 -2.32916 0
M  V30 9941 H 912.495 -1.00822 -1.10251 0
M  V30 9942 H 914.377 -0.360935 -4.19851 0
M  V30 9943 H 913.052 0.327166 -3.22042 0
M  V30 9944 H 911.959 -1.98956 -3.16808 0
M  V30 9945 H 913.292 -2.60096 -4.17865 0
M  V30 9946 N 914.944 1.19125 -1.03184 0
M  V30 9947 C 916.36 1.40909 -0.749447 0
M  V30 9948 C 916.56 1.9022 0.664729 0
M  V30 9949 O 915.616 2.08085 1.43028 0
M  V30 9950 C 916.929 2.41761 -1.78807 0
M  V30 9951 C 918.477 2.55503 -1.80796 0
M  V30 9952 C 918.952 3.59612 -2.83626 0
M  V30 9953 N 920.443 3.6711 -2.82461 0
M  V30 9954 C 921.178 4.47366 -3.5868 0
M  V30 9955 N 920.674 5.31302 -4.44623 0
M  V30 9956 N 922.467 4.42044 -3.47208 0
M  V30 9957 H 914.618 0.854399 -1.94458 0
M  V30 9958 H 916.881 0.437753 -0.840878 0
M  V30 9959 H 916.587 2.12559 -2.80199 0
M  V30 9960 H 916.461 3.40981 -1.61283 0
M  V30 9961 H 918.848 2.84027 -0.800803 0
M  V30 9962 H 918.929 1.56427 -2.02396 0
M  V30 9963 H 918.573 3.3183 -3.84515 0
M  V30 9964 H 918.503 4.58345 -2.59283 0
M  V30 9965 H 920.994 3.07166 -2.2013 0
M  V30 9966 H 921.307 5.89667 -4.99512 0
M  V30 9967 H 919.652 5.30753 -4.48694 0
M  V30 9968 H 922.843 3.75513 -2.79477 0
M  V30 9969 H 923.016 5.0435 -4.06859 0
M  V30 9970 N 916.422 0.810101 1.35185 0
M  V30 9971 C 917.385 0.22852 2.28058 0
M  V30 9972 C 918.385 -0.586168 1.49735 0
M  V30 9973 O 919.575 -0.40414 1.69447 0
M  V30 9974 C 916.707 -0.681041 3.34028 0
M  V30 9975 H 917.9 1.04768 2.81005 0
M  V30 9976 H 915.453 0.58101 1.451 0
M  V30 9977 H 916.188 -1.52375 2.86273 0
M  V30 9978 H 915.973 -0.0985276 3.91976 0
M  V30 9979 H 917.463 -1.08217 4.03335 0
M  V30 9980 N 917.9 -1.47166 0.563914 0
M  V30 9981 C 918.81 -2.33885 -0.182977 0
M  V30 9982 C 919.826 -1.48605 -0.905132 0
M  V30 9983 O 921.002 -1.81518 -0.872527 0
M  V30 9984 C 918.067 -3.25433 -1.19558 0
M  V30 9985 C 917.128 -4.26607 -0.480129 0
M  V30 9986 C 916.361 -5.1378 -1.44449 0
M  V30 9987 O 916.584 -5.03531 -2.67979 0
M  V30 9988 O 915.518 -5.94109 -0.965321 0
M  V30 9989 H 919.344 -2.99065 0.528544 0
M  V30 9990 H 916.929 -1.45834 0.324468 0
M  V30 9991 H 918.811 -3.81964 -1.77993 0
M  V30 9992 H 917.486 -2.62873 -1.8889 0
M  V30 9993 H 916.393 -3.73817 0.145583 0
M  V30 9994 H 917.726 -4.919 0.171868 0
M  V30 9995 N 919.378 -0.300708 -1.54705 0
M  V30 9996 C 920.311 0.617513 -2.19686 0
M  V30 9997 C 921.289 1.1331 -1.16617 0
M  V30 9998 O 922.473 1.20135 -1.45258 0
M  V30 9999 C 919.6 1.84486 -2.84047 0
M  V30 10000 C 918.646 1.46253 -4.0064 0
M  V30 10001 S 919.479 0.518718 -5.32982 0
M  V30 10002 C 920.635 1.75387 -6.00825 0
M  V30 10003 H 920.868 0.0654548 -2.97228 0
M  V30 10004 H 918.401 -0.0848492 -1.54167 0
M  V30 10005 H 920.359 2.54921 -3.21754 0
M  V30 10006 H 919.02 2.36808 -2.06351 0
M  V30 10007 H 918.213 2.37648 -4.44454 0
M  V30 10008 H 917.815 0.838129 -3.64488 0
M  V30 10009 H 920.107 2.69448 -6.21614 0
M  V30 10010 H 921.05 1.35829 -6.9495 0
M  V30 10011 H 921.458 1.93045 -5.30466 0
M  V30 10012 N 920.856 1.57574 -0.0284266 0
M  V30 10013 C 921.803 2.10176 0.953658 0
M  V30 10014 C 922.773 1.00367 1.32347 0
M  V30 10015 O 923.958 1.27783 1.4169 0
M  V30 10016 C 921.098 2.63287 2.231 0
M  V30 10017 C 920.211 3.87102 1.91771 0
M  V30 10018 C 919.346 4.28609 3.13795 0
M  V30 10019 C 918.385 5.45184 2.78282 0
M  V30 10020 N 917.522 5.81851 3.92929 0
M  V30 10021 H 922.362 2.93806 0.498176 0
M  V30 10022 H 919.899 1.45222 0.234302 0
M  V30 10023 H 921.857 2.9217 2.97813 0
M  V30 10024 H 920.487 1.82489 2.66266 0
M  V30 10025 H 919.539 3.64952 1.07303 0
M  V30 10026 H 920.851 4.71892 1.61615 0
M  V30 10027 H 920.005 4.58925 3.96829 0
M  V30 10028 H 918.744 3.42585 3.47112 0
M  V30 10029 H 917.749 5.14563 1.93661 0
M  V30 10030 H 918.974 6.32907 2.46182 0
M  V30 10031 H 916.92 4.98782 4.2609 0
M  V30 10032 H 916.837 6.6128 3.66395 0
M  V30 10033 H 918.105 6.16772 4.76669 0
M  V30 10034 N 922.334 -0.244713 1.55689 0
M  V30 10035 C 923.264 -1.30667 1.93516 0
M  V30 10036 C 924.245 -1.50094 0.800371 0
M  V30 10037 O 925.43 -1.62665 1.06083 0
M  V30 10038 C 922.56 -2.66101 2.23176 0
M  V30 10039 C 921.514 -2.61366 3.38927 0
M  V30 10040 C 920.84 -4.00616 3.54134 0
M  V30 10041 C 922.14 -2.18161 4.74555 0
M  V30 10042 H 923.834 -0.992546 2.82469 0
M  V30 10043 H 921.38 -0.476018 1.35905 0
M  V30 10044 H 923.333 -3.4053 2.48228 0
M  V30 10045 H 922.057 -2.99154 1.31051 0
M  V30 10046 H 920.716 -1.89395 3.13887 0
M  V30 10047 H 920.364 -4.30938 2.59426 0
M  V30 10048 H 920.064 -3.98335 4.31975 0
M  V30 10049 H 921.588 -4.76741 3.8151 0
M  V30 10050 H 923.002 -2.82323 4.98965 0
M  V30 10051 H 921.399 -2.26988 5.55515 0
M  V30 10052 H 922.469 -1.13333 4.7147 0
M  V30 10053 N 923.813 -1.49104 -0.510467 0
M  V30 10054 C 925.229 -1.35657 -0.840797 0
M  V30 10055 C 925.429 -0.382425 -1.97838 0
M  V30 10056 O 924.485 0.189331 -2.51789 0
M  V30 10057 C 925.798 -2.76155 -1.18992 0
M  V30 10058 C 927.346 -2.84786 -1.29868 0
M  V30 10059 C 927.821 -4.2603 -1.68115 0
M  V30 10060 N 929.312 -4.28796 -1.75181 0
M  V30 10061 C 930.047 -5.35041 -2.062 0
M  V30 10062 N 929.543 -6.51543 -2.35508 0
M  V30 10063 N 931.336 -5.2245 -2.07371 0
M  V30 10064 H 923.487 -2.11042 0.23982 0
M  V30 10065 H 925.75 -0.946946 0.0446824 0
M  V30 10066 H 925.456 -3.49092 -0.427484 0
M  V30 10067 H 925.33 -3.10922 -2.13558 0
M  V30 10068 H 927.717 -2.12092 -2.05186 0
M  V30 10069 H 927.798 -2.53613 -0.333758 0
M  V30 10070 H 927.442 -4.99247 -0.933512 0
M  V30 10071 H 927.372 -4.5466 -2.65691 0
M  V30 10072 H 929.863 -3.44771 -1.5473 0
M  V30 10073 H 930.176 -7.28342 -2.58337 0
M  V30 10074 H 928.521 -6.54785 -2.32985 0
M  V30 10075 H 931.712 -4.30444 -1.83945 0
M  V30 10076 H 931.885 -6.05347 -2.31212 0
M  V30 10077 N 925.291 0.760815 -1.38019 0
M  V30 10078 C 926.221 1.88811 -1.37377 0
M  V30 10079 C 927.202 1.68388 -0.240737 0
M  V30 10080 O 928.387 1.89086 -0.442739 0
M  V30 10081 C 925.517 3.26244 -1.1909 0
M  V30 10082 C 924.471 3.61254 -2.29521 0
M  V30 10083 C 923.797 4.97346 -1.96345 0
M  V30 10084 C 925.097 3.66874 -3.71753 0
M  V30 10085 H 926.791 1.89606 -2.31711 0
M  V30 10086 H 924.337 0.910818 -1.11535 0
M  V30 10087 H 926.29 4.04755 -1.17267 0
M  V30 10088 H 925.014 3.2591 -0.212152 0
M  V30 10089 H 923.673 2.85057 -2.30517 0
M  V30 10090 H 923.321 4.93564 -0.969728 0
M  V30 10091 H 923.021 5.21739 -2.703 0
M  V30 10092 H 924.545 5.78244 -1.96129 0
M  V30 10093 H 925.959 4.35514 -3.72828 0
M  V30 10094 H 924.356 4.02772 -4.44853 0
M  V30 10095 H 925.426 2.67273 -4.0459 0
M  V30 10096 N 926.769 1.22769 0.988202 0
M  V30 10097 C 928.046 0.9635 1.70223 0
M  V30 10098 C 928.426 -0.520102 2.04593 0
M  V30 10099 O 927.774 -1.48934 1.73295 0
M  V30 10100 C 927.984 1.86583 2.94937 0
M  V30 10101 C 929.332 2.12469 3.67616 0
M  V30 10102 O 930.356 1.84069 3.04954 0
M  V30 10103 O 929.215 2.60595 4.80367 0
M  V30 10104 H 926.309 0.362737 0.743203 0
M  V30 10105 H 928.855 1.33776 1.04412 0
M  V30 10106 H 927.627 2.86913 2.66077 0
M  V30 10107 H 927.25 1.49344 3.68486 0
M  V30 10108 N 928.247 -1.18576 1.03814 0
M  V30 10109 C 929.472 -1.92978 0.759873 0
M  V30 10110 C 929.897 -1.75514 -0.676486 0
M  V30 10111 O 929.255 -1.06359 -1.46824 0
M  V30 10112 C 929.303 -3.42507 1.12788 0
M  V30 10113 O 928.407 -4.1163 0.251886 0
M  V30 10114 H 927.748 -0.602129 0.279886 0
M  V30 10115 H 930.278 -1.50383 1.3873 0
M  V30 10116 H 930.288 -3.93206 1.08872 0
M  V30 10117 H 928.963 -3.5454 2.17427 0
M  V30 10118 H 927.54 -3.7125 0.350441 0
M  V30 10119 N 929.725 -0.817259 -1.34754 0
M  V30 10120 C 930.974 -0.39908 -1.97713 0
M  V30 10121 C 931.287 1.04203 -1.65533 0
M  V30 10122 O 932.493 1.56384 -2.21937 0
M  V30 10123 C 930.949 -0.662634 -3.53747 0
M  V30 10124 C 930.557 -2.11699 -3.94826 0
M  V30 10125 C 932.301 -0.31034 -4.23364 0
M  V30 10126 C 930.208 -2.32573 -5.4375 0
M  V30 10127 H 929.138 -0.145488 -0.739831 0
M  V30 10128 H 931.789 -1.00282 -1.53674 0
M  V30 10129 H 930.171 0.0111972 -3.95998 0
M  V30 10130 H 931.345 -2.82951 -3.63697 0
M  V30 10131 H 929.66 -2.43017 -3.3813 0
M  V30 10132 H 932.257 -0.44421 -5.32852 0
M  V30 10133 H 932.6 0.744594 -4.09587 0
M  V30 10134 H 933.133 -0.938518 -3.8657 0
M  V30 10135 H 929.872 -3.36551 -5.62507 0
M  V30 10136 H 929.392 -1.65858 -5.76412 0
M  V30 10137 H 931.071 -2.14651 -6.10356 0
M  V30 10138 N 931.203 1.46865 -0.571711 0
M  V30 10139 C 932.449 2.0273 -0.0531858 0
M  V30 10140 C 932.782 1.44353 1.29907 0
M  V30 10141 O 932.057 0.604488 1.84868 0
M  V30 10142 C 932.34 3.60092 0.0243831 0
M  V30 10143 C 932.193 4.28874 -1.35599 0
M  V30 10144 C 933.512 4.33994 0.730563 0
M  V30 10145 H 930.631 0.736706 -0.0208018 0
M  V30 10146 H 933.273 1.75132 -0.736794 0
M  V30 10147 H 931.423 3.83736 0.606565 0
M  V30 10148 H 933.095 4.16527 -1.98249 0
M  V30 10149 H 931.338 3.88664 -1.92674 0
M  V30 10150 H 932.009 5.37561 -1.25429 0
M  V30 10151 H 934.485 4.1543 0.236098 0
M  V30 10152 H 933.361 5.43699 0.753836 0
M  V30 10153 H 933.622 4.04257 1.78967 0
M  V30 10154 N 932.681 0.308908 1.54543 0
M  V30 10155 C 933.93 -0.298854 1.99474 0
M  V30 10156 C 934.243 -1.54393 1.20093 0
M  V30 10157 O 935.449 -2.22677 1.55329 0
M  V30 10158 C 933.905 -0.58303 3.55146 0
M  V30 10159 C 933.513 0.644157 4.43345 0
M  V30 10160 C 935.257 -1.15155 4.08582 0
M  V30 10161 C 933.164 0.332694 5.90463 0
M  V30 10162 H 932.094 -0.115445 0.74511 0
M  V30 10163 H 934.745 0.418848 1.78656 0
M  V30 10164 H 933.127 -1.36053 3.71894 0
M  V30 10165 H 934.301 1.42012 4.38371 0
M  V30 10166 H 932.616 1.13186 4.00722 0
M  V30 10167 H 935.213 -1.39896 5.16075 0
M  V30 10168 H 935.556 -2.09632 3.59667 0
M  V30 10169 H 936.089 -0.435571 3.95408 0
M  V30 10170 H 932.828 1.24624 6.43544 0
M  V30 10171 H 932.348 -0.405844 5.98425 0
M  V30 10172 H 934.027 -0.0628545 6.46969 0
M  V30 10173 N 934.159 -1.57557 0.0367827 0
M  V30 10174 C 935.091 -2.07597 -0.971395 0
M  V30 10175 C 936.104 -1.0009 -1.28397 0
M  V30 10176 O 937.293 -1.27692 -1.24728 0
M  V30 10177 C 934.393 -2.492 -2.2968 0
M  V30 10178 C 933.566 -3.79875 -2.16826 0
M  V30 10179 C 932.625 -4.07946 -3.32366 0
M  V30 10180 O 931.651 -4.78083 -3.0891 0
M  V30 10181 N 932.853 -3.58722 -4.56397 0
M  V30 10182 H 935.618 -2.94714 -0.544389 0
M  V30 10183 H 933.179 -1.61205 -0.1498 0
M  V30 10184 H 935.171 -2.65065 -3.05815 0
M  V30 10185 H 933.741 -1.67407 -2.63995 0
M  V30 10186 H 932.961 -3.73732 -1.2537 0
M  V30 10187 H 934.249 -4.65476 -2.0545 0
M  V30 10188 H 933.647 -3.01994 -4.78347 0
M  V30 10189 H 932.204 -3.79852 -5.29675 0
M  V30 10190 N 935.637 0.236453 -1.55816 0
M  V30 10191 C 936.569 1.31602 -1.87653 0
M  V30 10192 C 937.582 1.43782 -0.763584 0
M  V30 10193 O 938.771 1.44945 -1.04178 0
M  V30 10194 C 935.871 2.69342 -2.05689 0
M  V30 10195 C 935.044 2.79298 -3.36617 0
M  V30 10196 C 934.103 3.97952 -3.44268 0
M  V30 10197 O 933.129 3.86989 -4.17406 0
M  V30 10198 N 934.331 5.11594 -2.74321 0
M  V30 10199 H 937.096 1.04623 -2.80845 0
M  V30 10200 H 934.657 0.426534 -1.5618 0
M  V30 10201 H 936.649 3.47074 -2.08138 0
M  V30 10202 H 935.219 2.88984 -1.19192 0
M  V30 10203 H 934.439 1.8816 -3.46395 0
M  V30 10204 H 935.727 2.82908 -4.22895 0
M  V30 10205 H 935.125 5.23394 -2.14651 0
M  V30 10206 H 933.682 5.87422 -2.8245 0
M  V30 10207 N 937.115 1.49373 0.502552 0
M  V30 10208 C 938.363 1.58467 1.25429 0
M  V30 10209 C 938.684 0.272593 1.93085 0
M  V30 10210 O 937.954 -0.707947 1.82661 0
M  V30 10211 H 936.534 0.583866 0.46595 0
M  V30 10212 H 939.196 1.8599 0.582568 0
M  V30 10213 H 938.292 2.37993 2.01906 0
M  V30 10214 N 938.594 -0.753485 1.38421 0
M  V30 10215 C 940.01 -1.05656 1.1962 0
M  V30 10216 C 940.21 -2.0145 0.0449443 0
M  V30 10217 O 939.266 -2.45039 -0.609253 0
M  V30 10218 C 940.579 -1.63655 2.52265 0
M  V30 10219 C 942.127 -1.75825 2.58949 0
M  V30 10220 C 942.602 -2.37236 3.91769 0
M  V30 10221 N 944.093 -2.44666 3.9331 0
M  V30 10222 C 944.828 -2.93077 4.92842 0
M  V30 10223 N 944.324 -3.41523 6.02772 0
M  V30 10224 N 946.117 -2.92118 4.80232 0
M  V30 10225 H 938.268 -0.117799 2.12073 0
M  V30 10226 H 940.531 -0.114889 0.941012 0
M  V30 10227 H 940.237 -1.00734 3.36965 0
M  V30 10228 H 940.111 -2.62715 2.70667 0
M  V30 10229 H 942.498 -2.37873 1.74644 0
M  V30 10230 H 942.579 -0.754693 2.44414 0
M  V30 10231 H 942.223 -1.75822 4.76497 0
M  V30 10232 H 942.153 -3.38233 4.03616 0
M  V30 10233 H 944.644 -2.10403 3.1391 0
M  V30 10234 H 944.957 -3.76919 6.74649 0
M  V30 10235 H 943.302 -3.3958 6.06391 0
M  V30 10236 H 946.493 -2.53582 3.93464 0
M  V30 10237 H 946.666 -3.29535 5.57952 0
M  V30 10238 N 940.072 -1.23292 -0.981677 0
M  V30 10239 C 941.002 -1.03738 -2.09191 0
M  V30 10240 C 941.983 0.0453041 -1.7004 0
M  V30 10241 O 943.168 -0.119092 -1.93834 0
M  V30 10242 C 940.298 -0.626426 -3.41604 0
M  V30 10243 C 939.252 -1.65631 -3.94652 0
M  V30 10244 C 938.578 -1.10084 -5.23245 0
M  V30 10245 C 939.878 -3.04903 -4.24066 0
M  V30 10246 H 941.572 -1.966 -2.25807 0
M  V30 10247 H 939.118 -0.946656 -1.0851 0
M  V30 10248 H 941.071 -0.476689 -4.18695 0
M  V30 10249 H 939.795 0.337873 -3.24848 0
M  V30 10250 H 938.454 -1.79402 -3.19704 0
M  V30 10251 H 938.102 -0.127562 -5.02838 0
M  V30 10252 H 937.802 -1.78896 -5.59705 0
M  V30 10253 H 939.326 -0.962928 -6.02959 0
M  V30 10254 H 940.74 -2.94441 -4.91912 0
M  V30 10255 H 939.137 -3.70941 -4.71724 0
M  V30 10256 H 940.207 -3.53991 -3.31389 0
M  V30 10257 N 941.55 1.18024 -1.04442 0
M  V30 10258 C 942.796 1.88377 -0.751133 0
M  V30 10259 C 943.129 1.80377 0.719571 0
M  V30 10260 O 942.404 1.20662 1.52548 0
M  V30 10261 C 942.687 3.38708 -1.22265 0
M  V30 10262 C 942.54 3.55499 -2.75574 0
M  V30 10263 C 943.859 4.32475 -0.815688 0
M  V30 10264 H 940.978 0.684037 -0.27434 0
M  V30 10265 H 943.62 1.38837 -1.29709 0
M  V30 10266 H 941.77 3.8103 -0.758192 0
M  V30 10267 H 943.442 3.22244 -3.30086 0
M  V30 10268 H 941.685 2.98028 -3.15217 0
M  V30 10269 H 942.356 4.60994 -3.03625 0
M  V30 10270 H 944.832 3.97953 -1.21542 0
M  V30 10271 H 943.708 5.36213 -1.17331 0
M  V30 10272 H 943.969 4.41207 0.280901 0
M  V30 10273 N 943.028 0.824394 1.34319 0
M  V30 10274 C 944.305 0.335692 1.92698 0
M  V30 10275 C 944.685 -1.17715 1.75232 0
M  V30 10276 O 944.033 -1.98493 1.13194 0
M  V30 10277 C 944.243 0.766647 3.40475 0
M  V30 10278 C 945.591 0.766323 4.17627 0
M  V30 10279 O 946.615 0.709321 3.49066 0
M  V30 10280 O 945.474 0.840856 5.39992 0
M  V30 10281 H 942.568 0.0919996 0.821867 0
M  V30 10282 H 945.114 0.909282 1.43283 0
M  V30 10283 H 943.886 1.80859 3.46995 0
M  V30 10284 H 943.509 0.168833 3.97241 0
M  V30 10285 N 944.506 -1.46559 0.579492 0
M  V30 10286 C 945.438 -2.28383 -0.19337 0
M  V30 10287 C 946.451 -1.38324 -0.858511 0
M  V30 10288 O 947.64 -1.62952 -0.728615 0
M  V30 10289 C 944.74 -3.13262 -1.29306 0
M  V30 10290 C 943.913 -4.31426 -0.720459 0
M  V30 10291 C 942.972 -4.97728 -1.70744 0
M  V30 10292 O 941.998 -5.55423 -1.24476 0
M  V30 10293 N 943.2 -4.94445 -3.04146 0
M  V30 10294 H 945.965 -2.95353 0.508611 0
M  V30 10295 H 943.526 -1.56436 0.417046 0
M  V30 10296 H 945.518 -3.54483 -1.95254 0
M  V30 10297 H 944.088 -2.48388 -1.89795 0
M  V30 10298 H 943.308 -3.94028 0.116398 0
M  V30 10299 H 944.596 -5.07808 -0.31763 0
M  V30 10300 H 943.994 -4.4881 -3.44363 0
M  V30 10301 H 942.551 -5.39616 -3.65592 0
M  V30 10302 N 945.984 -0.3171 -1.54377 0
M  V30 10303 C 946.932 0.567371 -2.25574 0
M  V30 10304 C 947.926 1.12387 -1.2675 0
M  V30 10305 O 949.132 1.07266 -1.44548 0
M  V30 10306 H 945.507 0.201605 -0.724472 0
M  V30 10307 H 947.478 -0.0554644 -2.98348 0
M  V30 10308 C 946.227 1.71984 -3.02187 0
M  V30 10309 H 945.55 1.30086 -3.78044 0
M  V30 10310 H 946.99 2.31443 -3.5526 0
M  V30 10311 C 945.449 2.6336 -2.10103 0
M  V30 10312 O 945.979 3.64899 -1.67962 0
M  V30 10313 N 944.185 2.3145 -1.75725 0
M  V30 10314 H 943.732 1.48921 -2.10191 0
M  V30 10315 H 943.69 2.92852 -1.14391 0
M  V30 10316 N 947.462 1.57535 -0.0451378 0
M  V30 10317 C 948.392 2.14208 0.929372 0
M  V30 10318 C 949.373 1.06221 1.32858 0
M  V30 10319 O 950.558 1.34132 1.40436 0
M  V30 10320 C 947.688 2.68217 2.20629 0
M  V30 10321 C 946.642 3.81134 1.94734 0
M  V30 10322 C 945.968 4.21636 3.28828 0
M  V30 10323 C 947.268 5.06531 1.27374 0
M  V30 10324 H 948.962 2.95886 0.457348 0
M  V30 10325 H 946.508 1.42332 0.218544 0
M  V30 10326 H 948.461 3.06502 2.89196 0
M  V30 10327 H 947.185 1.83722 2.70026 0
M  V30 10328 H 945.844 3.43312 1.28579 0
M  V30 10329 H 945.492 3.34099 3.76014 0
M  V30 10330 H 945.192 4.97736 3.12302 0
M  V30 10331 H 946.716 4.62516 3.98637 0
M  V30 10332 H 948.13 5.423 1.85967 0
M  V30 10333 H 946.527 5.87735 1.21194 0
M  V30 10334 H 947.597 4.84261 0.248913 0
M  V30 10335 N 948.94 -0.228186 1.55939 0
M  V30 10336 C 949.888 -1.30239 1.92719 0
M  V30 10337 C 950.882 -1.48865 0.808424 0
M  V30 10338 O 952.088 -1.50118 0.993204 0
M  V30 10339 H 948.463 -0.436509 0.612343 0
M  V30 10340 H 950.434 -0.964965 2.82367 0
M  V30 10341 C 949.183 -2.647 2.25453 0
M  V30 10342 H 948.506 -2.51173 3.1105 0
M  V30 10343 H 949.946 -3.38691 2.55077 0
M  V30 10344 C 948.405 -3.1921 1.07734 0
M  V30 10345 O 948.935 -4.00301 0.335019 0
M  V30 10346 N 947.141 -2.77492 0.862938 0
M  V30 10347 H 946.688 -2.11657 1.4683 0
M  V30 10348 H 946.646 -3.14306 0.0770119 0
M  V30 10349 N 950.418 -1.49637 -0.494624 0
M  V30 10350 C 951.365 -1.66776 -1.59545 0
M  V30 10351 C 952.335 -0.509159 -1.58104 0
M  V30 10352 O 953.52 -0.736949 -1.75993 0
M  V30 10353 C 950.66 -1.74624 -2.97658 0
M  V30 10354 C 949.773 -3.01831 -3.09067 0
M  V30 10355 C 948.908 -3.00619 -4.37952 0
M  V30 10356 C 947.947 -4.22378 -4.43016 0
M  V30 10357 N 947.084 -4.1904 -5.63339 0
M  V30 10358 H 951.924 -2.60767 -1.44238 0
M  V30 10359 H 949.461 -1.29286 -0.701673 0
M  V30 10360 H 951.419 -1.77156 -3.77719 0
M  V30 10361 H 950.049 -0.840936 -3.11654 0
M  V30 10362 H 949.101 -3.08881 -2.22029 0
M  V30 10363 H 950.413 -3.91823 -3.08669 0
M  V30 10364 H 949.567 -3.01749 -5.26339 0
M  V30 10365 H 948.306 -2.08416 -4.40924 0
M  V30 10366 H 947.311 -4.21485 -3.5303 0
M  V30 10367 H 948.536 -5.15781 -4.41755 0
M  V30 10368 H 946.482 -3.29677 -5.67141 0
M  V30 10369 H 946.399 -5.02774 -5.64583 0
M  V30 10370 H 947.667 -4.24281 -6.53916 0
M  V30 10371 N 951.896 0.746133 -1.38819 0
M  V30 10372 C 953.145 1.50085 -1.34749 0
M  V30 10373 C 953.458 1.95516 0.0574786 0
M  V30 10374 O 954.664 2.70601 0.22073 0
M  V30 10375 C 953.12 2.71141 -2.36665 0
M  V30 10376 C 952.728 2.32706 -3.82821 0
M  V30 10377 C 954.472 3.49005 -2.41652 0
M  V30 10378 C 952.379 3.50418 -4.76405 0
M  V30 10379 H 951.309 0.563563 -0.500912 0
M  V30 10380 H 953.96 0.814951 -1.6441 0
M  V30 10381 H 952.342 3.4175 -2.00058 0
M  V30 10382 H 953.516 1.69715 -4.28408 0
M  V30 10383 H 951.831 1.67959 -3.81023 0
M  V30 10384 H 954.428 4.36541 -3.08766 0
M  V30 10385 H 954.771 3.90687 -1.43769 0
M  V30 10386 H 955.304 2.85416 -2.77097 0
M  V30 10387 H 952.043 3.13795 -5.75511 0
M  V30 10388 H 951.563 4.12426 -4.35505 0
M  V30 10389 H 953.242 4.16901 -4.94775 0
M  V30 10390 N 953.375 1.23811 0.975125 0
M  V30 10391 C 954.623 1.07124 1.71373 0
M  V30 10392 C 954.944 -0.391864 1.91022 0
M  V30 10393 O 954.214 -1.28041 1.48265 0
M  V30 10394 H 952.794 0.393415 0.635007 0
M  V30 10395 H 955.456 1.55612 1.17349 0
M  V30 10396 H 954.552 1.56338 2.7012 0
M  V30 10397 N 954.853 -1.17469 1.05066 0
M  V30 10398 C 955.8 -2.21443 0.650512 0
M  V30 10399 C 956.77 -1.62441 -0.346702 0
M  V30 10400 O 957.955 -1.89305 -0.238404 0
M  V30 10401 C 955.095 -3.45087 0.0301014 0
M  V30 10402 C 954.208 -4.18385 1.07599 0
M  V30 10403 C 953.343 -5.29513 0.423038 0
M  V30 10404 C 952.382 -5.94596 1.45333 0
M  V30 10405 N 951.519 -6.97241 0.824623 0
M  V30 10406 H 956.359 -2.55025 1.54163 0
M  V30 10407 H 953.896 -1.25274 0.771032 0
M  V30 10408 H 955.854 -4.15754 -0.347032 0
M  V30 10409 H 954.484 -3.12093 -0.824481 0
M  V30 10410 H 953.536 -3.46446 1.57097 0
M  V30 10411 H 954.848 -4.62899 1.85813 0
M  V30 10412 H 954.002 -6.067 -0.00774975 0
M  V30 10413 H 952.741 -4.86129 -0.391092 0
M  V30 10414 H 951.746 -5.16142 1.89415 0
M  V30 10415 H 952.971 -6.40061 2.26934 0
M  V30 10416 H 950.917 -6.55993 0.0309804 0
M  V30 10417 H 950.834 -7.40059 1.54432 0
M  V30 10418 H 952.102 -7.78375 0.418567 0
M  V30 10419 N 956.331 -0.831506 -1.3388 0
M  V30 10420 C 957.608 -0.345907 -1.92517 0
M  V30 10421 C 957.988 1.16784 -1.75854 0
M  V30 10422 O 957.336 1.97889 -1.14245 0
M  V30 10423 C 957.546 -0.784692 -3.40064 0
M  V30 10424 C 958.894 -0.78846 -4.17215 0
M  V30 10425 O 959.918 -0.727823 -3.48685 0
M  V30 10426 O 958.777 -0.869481 -5.39539 0
M  V30 10427 H 955.871 -0.0963568 -0.821367 0
M  V30 10428 H 958.417 -0.916868 -1.42799 0
M  V30 10429 H 957.189 -1.82697 -3.46031 0
M  V30 10430 H 956.812 -0.189897 -3.97146 0
M  V30 10431 N 957.809 1.4625 -0.587256 0
M  V30 10432 C 958.719 2.34147 0.145744 0
M  V30 10433 C 959.735 1.50026 0.881376 0
M  V30 10434 O 960.911 1.82884 0.843539 0
M  V30 10435 C 957.976 3.27294 1.14366 0
M  V30 10436 C 957.037 4.27317 0.412199 0
M  V30 10437 C 956.27 5.16013 1.36257 0
M  V30 10438 O 956.493 5.0773 2.59934 0
M  V30 10439 O 955.427 5.95569 0.870681 0
M  V30 10440 H 959.253 2.98187 -0.576055 0
M  V30 10441 H 956.838 1.45299 -0.347628 0
M  V30 10442 H 958.72 3.84747 1.71894 0
M  V30 10443 H 957.395 2.65845 1.84684 0
M  V30 10444 H 956.302 3.73538 -0.205036 0
M  V30 10445 H 957.635 4.91564 -0.250104 0
M  V30 10446 N 959.287 0.325282 1.54207 0
M  V30 10447 C 960.22 -0.582485 2.20641 0
M  V30 10448 C 961.198 -1.11441 1.18405 0
M  V30 10449 O 962.382 -1.17809 1.4715 0
M  V30 10450 C 959.509 -1.79944 2.86946 0
M  V30 10451 C 958.555 -1.39861 4.02916 0
M  V30 10452 S 959.388 -0.433859 5.3374 0
M  V30 10453 C 960.544 -1.65806 6.03539 0
M  V30 10454 H 960.777 -0.0181601 2.97294 0
M  V30 10455 H 958.31 0.109365 1.54012 0
M  V30 10456 H 960.268 -2.4977 3.25769 0
M  V30 10457 H 958.929 -2.33495 2.10092 0
M  V30 10458 H 958.122 -2.30547 4.48179 0
M  V30 10459 H 957.724 -0.780036 3.65775 0
M  V30 10460 H 960.016 -2.59524 6.25822 0
M  V30 10461 H 960.959 -1.24756 6.97023 0
M  V30 10462 H 961.367 -1.84581 5.3347 0
M  V30 10463 N 960.765 -1.57509 0.0534917 0
M  V30 10464 C 961.695 -2.14698 -0.917999 0
M  V30 10465 C 962.676 -1.06924 -1.32292 0
M  V30 10466 O 963.861 -1.34875 -1.39723 0
M  V30 10467 C 960.991 -2.69383 -2.19203 0
M  V30 10468 C 959.945 -3.82161 -1.9271 0
M  V30 10469 C 959.271 -4.23373 -3.26587 0
M  V30 10470 C 960.571 -5.07199 -1.24686 0
M  V30 10471 H 962.265 -2.96125 -0.44165 0
M  V30 10472 H 959.811 -1.42446 -0.210993 0
M  V30 10473 H 961.764 -3.08031 -2.87567 0
M  V30 10474 H 960.488 -1.85151 -2.69048 0
M  V30 10475 H 959.147 -3.43989 -1.26757 0
M  V30 10476 H 958.795 -3.36089 -3.74237 0
M  V30 10477 H 958.495 -4.99385 -3.09658 0
M  V30 10478 H 960.019 -4.64623 -3.96178 0
M  V30 10479 H 961.433 -5.43279 -1.83088 0
M  V30 10480 H 959.83 -5.88369 -1.18076 0
M  V30 10481 H 960.9 -4.84386 -0.223227 0
M  V30 10482 N 962.243 0.219913 -1.56058 0
M  V30 10483 C 963.175 1.29604 -1.89038 0
M  V30 10484 C 964.188 1.42964 -0.778791 0
M  V30 10485 O 965.377 1.43832 -1.0571 0
M  V30 10486 C 962.477 2.67145 -2.08534 0
M  V30 10487 C 961.65 2.75712 -3.39561 0
M  V30 10488 C 960.709 3.94279 -3.48469 0
M  V30 10489 O 959.735 3.8254 -4.21487 0
M  V30 10490 N 960.937 5.08655 -2.79732 0
M  V30 10491 H 963.702 1.01638 -2.81939 0
M  V30 10492 H 961.263 0.409945 -1.56624 0
M  V30 10493 H 963.255 3.44847 -2.11808 0
M  V30 10494 H 961.825 2.87704 -1.2225 0
M  V30 10495 H 961.045 1.84475 -3.48371 0
M  V30 10496 H 962.333 2.78407 -4.25872 0
M  V30 10497 H 961.731 5.21088 -2.2019 0
M  V30 10498 H 960.288 5.84394 -2.88665 0
M  V30 10499 N 963.721 1.49897 0.486681 0
M  V30 10500 C 964.654 1.6224 1.60479 0
M  V30 10501 C 965.632 0.470964 1.5563 0
M  V30 10502 O 966.816 0.688418 1.75479 0
M  V30 10503 C 963.943 1.59059 2.99028 0
M  V30 10504 C 962.989 2.79575 3.22087 0
M  V30 10505 S 963.822 4.41077 3.03664 0
M  V30 10506 C 964.978 4.40564 4.44583 0
M  V30 10507 H 965.211 2.56822 1.49766 0
M  V30 10508 H 962.744 1.38966 0.672893 0
M  V30 10509 H 964.702 1.5791 3.78913 0
M  V30 10510 H 963.363 0.657405 3.07143 0
M  V30 10511 H 962.556 2.73609 4.23266 0
M  V30 10512 H 962.158 2.78211 2.49949 0
M  V30 10513 H 964.45 4.13166 5.36936 0
M  V30 10514 H 965.393 5.42068 4.55596 0
M  V30 10515 H 965.801 3.70461 4.25933 0
M  V30 10516 N 965.199 -0.738761 1.39212 0
M  V30 10517 C 966.448 -1.49368 1.35543 0
M  V30 10518 C 966.761 -1.95543 -0.0471091 0
M  V30 10519 O 967.967 -2.70714 -0.206376 0
M  V30 10520 C 966.423 -2.69882 2.381 0
M  V30 10521 C 966.031 -2.30672 3.8405 0
M  V30 10522 C 967.775 -3.47718 2.435 0
M  V30 10523 C 965.682 -3.47886 4.78256 0
M  V30 10524 H 964.612 -0.560898 0.503894 0
M  V30 10525 H 967.263 -0.806221 1.6484 0
M  V30 10526 H 965.645 -3.40684 2.01867 0
M  V30 10527 H 966.819 -1.67441 4.29302 0
M  V30 10528 H 965.134 -1.65936 3.81909 0
M  V30 10529 H 967.731 -4.34897 3.11077 0
M  V30 10530 H 968.074 -3.89919 1.45838 0
M  V30 10531 H 968.607 -2.83942 2.78606 0
M  V30 10532 H 965.346 -3.10739 5.77167 0
M  V30 10533 H 964.866 -4.10111 4.37686 0
M  V30 10534 H 966.545 -4.14271 4.96979 0
M  V30 10535 N 966.677 -1.24326 -0.968545 0
M  V30 10536 C 968.093 -1.00847 -1.23701 0
M  V30 10537 C 968.293 0.283235 -1.99499 0
M  V30 10538 O 967.349 0.999607 -2.31871 0
M  V30 10539 C 968.662 -2.22295 -2.02498 0
M  V30 10540 C 970.21 -2.26911 -2.15593 0
M  V30 10541 C 970.685 -3.47978 -2.97784 0
M  V30 10542 N 972.176 -3.48289 -3.05367 0
M  V30 10543 C 972.911 -4.38625 -3.69318 0
M  V30 10544 N 972.407 -5.39213 -4.34995 0
M  V30 10545 N 974.2 -4.26339 -3.66322 0
M  V30 10546 H 966.351 -2.07335 -0.461087 0
M  V30 10547 H 968.614 -0.909805 -0.26638 0
M  V30 10548 H 968.32 -3.161 -1.54188 0
M  V30 10549 H 968.194 -2.24344 -3.03232 0
M  V30 10550 H 970.581 -1.33639 -2.63106 0
M  V30 10551 H 970.662 -2.28888 -1.14209 0
M  V30 10552 H 970.306 -4.41564 -2.50965 0
M  V30 10553 H 970.236 -3.43244 -3.99364 0
M  V30 10554 H 972.727 -2.75517 -2.58648 0
M  V30 10555 H 973.04 -6.04378 -4.81608 0
M  V30 10556 H 971.385 -5.43101 -4.33667 0
M  V30 10557 H 974.576 -3.46991 -3.14189 0
M  V30 10558 H 974.749 -4.9694 -4.15878 0
M  V30 10559 N 968.156 1.1691 -1.05688 0
M  V30 10560 C 969.106 2.19056 -0.632339 0
M  V30 10561 C 970.09 1.574 0.333797 0
M  V30 10562 O 971.282 1.76361 0.150223 0
M  V30 10563 C 968.411 3.43297 -0.0138209 0
M  V30 10564 C 967.497 4.12042 -1.00408 0
M  V30 10565 N 967.888 4.56535 -2.17737 0
M  V30 10566 C 966.186 4.38139 -0.833663 0
M  V30 10567 C 966.887 5.09644 -2.80425 0
M  V30 10568 N 965.863 5.02153 -2.08191 0
M  V30 10569 H 969.665 2.51165 -1.52621 0
M  V30 10570 H 967.179 1.33294 -0.927707 0
M  V30 10571 H 969.176 4.1576 0.308117 0
M  V30 10572 H 967.836 3.12677 0.87538 0
M  V30 10573 H 968.847 4.50463 -2.55546 0
M  V30 10574 H 965.524 4.175 0.00406684 0
M  V30 10575 H 966.914 5.54153 -3.79952 0
M  V30 10576 N 969.634 0.838594 1.33437 0
M  V30 10577 C 970.882 0.433312 1.974 0
M  V30 10578 C 971.203 -1.01078 1.66758 0
M  V30 10579 O 970.473 -1.70406 0.966373 0
M  V30 10580 H 969.053 0.15724 0.730263 0
M  V30 10581 H 971.715 1.07149 1.62804 0
M  V30 10582 H 970.811 0.565144 3.06941 0
M  V30 10583 N 971.112 -1.45937 0.595003 0
M  V30 10584 C 972.075 -2.2888 -0.121102 0
M  V30 10585 C 973.075 -1.39075 -0.807149 0
M  V30 10586 O 974.265 -1.61326 -0.657228 0
M  V30 10587 C 971.397 -3.19778 -1.1813 0
M  V30 10588 H 972.59 -2.93673 0.607968 0
M  V30 10589 H 970.143 -1.5225 0.353495 0
M  V30 10590 H 970.878 -2.59759 -1.94154 0
M  V30 10591 H 970.663 -3.85914 -0.693724 0
M  V30 10592 H 972.153 -3.82176 -1.68319 0
M  V30 10593 N 972.59 -0.333456 -1.54032 0
M  V30 10594 C 973.818 0.267813 -2.05159 0
M  V30 10595 C 974.233 1.4501 -1.20903 0
M  V30 10596 O 973.59 1.80888 -0.241994 0
M  V30 10597 C 973.641 0.69268 -3.54802 0
M  V30 10598 O 973.362 -0.442579 -4.35859 0
M  V30 10599 C 974.863 1.35572 -4.2206 0
M  V30 10600 H 972.083 0.0534924 -0.668864 0
M  V30 10601 H 974.627 -0.482515 -1.98726 0
M  V30 10602 H 972.782 1.39297 -3.6149 0
M  V30 10603 H 973.196 -0.105915 -5.24393 0
M  V30 10604 H 974.67 1.60385 -5.28186 0
M  V30 10605 H 975.147 2.30614 -3.73783 0
M  V30 10606 H 975.753 0.697748 -4.19537 0
M  V30 10607 N 974.068 1.57479 -0.061844 0
M  V30 10608 C 975.018 2.0867 0.918749 0
M  V30 10609 C 976.002 0.994174 1.26511 0
M  V30 10610 O 977.194 1.25738 1.24575 0
M  V30 10611 C 974.323 2.64386 2.18986 0
M  V30 10612 C 973.409 3.80626 1.87042 0
M  V30 10613 N 973.8 4.89982 1.25504 0
M  V30 10614 C 972.098 3.89733 2.1685 0
M  V30 10615 C 972.799 5.70928 1.11429 0
M  V30 10616 N 971.775 5.18877 1.62072 0
M  V30 10617 H 975.577 2.90611 0.438469 0
M  V30 10618 H 973.091 1.61775 0.142321 0
M  V30 10619 H 975.088 2.9937 2.90144 0
M  V30 10620 H 973.748 1.83888 2.67611 0
M  V30 10621 H 974.759 5.09556 0.925914 0
M  V30 10622 H 971.436 3.20194 2.67921 0
M  V30 10623 H 972.826 6.68886 0.635665 0
M  V30 10624 N 975.546 -0.211634 1.56173 0
M  V30 10625 C 976.792 -0.935935 1.79911 0
M  V30 10626 C 977.125 -1.83589 0.633155 0
M  V30 10627 O 976.4 -1.91004 -0.367132 0
M  V30 10628 C 976.683 -1.76638 3.13801 0
M  V30 10629 C 976.536 -0.892259 4.40861 0
M  V30 10630 C 977.855 -2.74224 3.44223 0
M  V30 10631 H 974.974 -0.338822 0.654499 0
M  V30 10632 H 977.616 -0.20422 1.88899 0
M  V30 10633 H 975.766 -2.39021 3.0627 0
M  V30 10634 H 977.438 -0.284407 4.60422 0
M  V30 10635 H 975.681 -0.198145 4.33347 0
M  V30 10636 H 976.352 -1.50793 5.31004 0
M  V30 10637 H 978.828 -2.21975 3.51946 0
M  V30 10638 H 977.704 -3.29424 4.39057 0
M  V30 10639 H 977.965 -3.52455 2.66885 0
M  V30 10640 N 977.024 -1.50153 -0.478725 0
M  V30 10641 C 978.271 -1.6076 -1.23136 0
M  V30 10642 C 978.599 -0.30442 -1.92103 0
M  V30 10643 O 977.854 0.709213 -1.82397 0
M  V30 10644 C 978.153 -2.73208 -2.30417 0
M  V30 10645 C 977.819 -4.13953 -1.78755 0
M  V30 10646 C 976.481 -4.52251 -1.64386 0
M  V30 10647 C 978.833 -5.01949 -1.40344 0
M  V30 10648 C 976.161 -5.76292 -1.10018 0
M  V30 10649 C 978.513 -6.2653 -0.874206 0
M  V30 10650 C 977.177 -6.63637 -0.717085 0
M  V30 10651 H 976.447 -0.588264 -0.450585 0
M  V30 10652 H 979.094 -1.84061 -0.528551 0
M  V30 10653 H 977.399 -2.43965 -3.06575 0
M  V30 10654 H 979.096 -2.7862 -2.88395 0
M  V30 10655 H 975.686 -3.83736 -1.90904 0
M  V30 10656 H 979.87 -4.73 -1.50283 0
M  V30 10657 H 975.126 -6.03723 -0.965838 0
M  V30 10658 H 979.3 -6.94081 -0.567883 0
M  V30 10659 H 976.927 -7.59633 -0.293639 0
M  V30 10660 N 978.502 0.731368 -1.39602 0
M  V30 10661 C 979.465 1.8271 -1.38383 0
M  V30 10662 C 980.465 1.58338 -0.280309 0
M  V30 10663 O 981.655 1.65671 -0.538402 0
M  V30 10664 C 978.787 3.20556 -1.16002 0
M  V30 10665 H 979.98 1.85193 -2.35889 0
M  V30 10666 H 977.533 0.935396 -1.2522 0
M  V30 10667 H 978.268 3.23732 -0.191927 0
M  V30 10668 H 978.053 3.39643 -1.9592 0
M  V30 10669 H 979.543 4.00612 -1.17899 0
M  V30 10670 N 979.98 1.24838 0.961938 0
M  V30 10671 C 981.205 1.11967 1.7458 0
M  V30 10672 C 981.63 -0.323287 1.85301 0
M  V30 10673 O 980.988 -1.23412 1.32812 0
M  V30 10674 C 981.036 1.77066 3.14134 0
M  V30 10675 O 980.14 1.04534 3.98932 0
M  V30 10676 H 979.481 0.391338 0.536424 0
M  V30 10677 H 982.011 1.65259 1.20626 0
M  V30 10678 H 982.021 1.83056 3.64629 0
M  V30 10679 H 980.696 2.82052 3.05646 0
M  V30 10680 H 979.273 1.06372 3.57407 0
M  V30 10681 N 981.458 -1.16348 1.06306 0
M  V30 10682 C 982.405 -2.20741 0.673962 0
M  V30 10683 C 983.375 -1.628 -0.329454 0
M  V30 10684 O 984.56 -1.89547 -0.218313 0
M  V30 10685 C 981.7 -3.45036 0.0667008 0
M  V30 10686 C 980.813 -4.17221 1.12031 0
M  V30 10687 C 979.948 -5.29034 0.479176 0
M  V30 10688 C 978.987 -5.93021 1.51631 0
M  V30 10689 N 978.124 -6.96327 0.898528 0
M  V30 10690 H 982.964 -2.53376 1.56859 0
M  V30 10691 H 980.501 -1.24449 0.784276 0
M  V30 10692 H 982.459 -4.16099 -0.302916 0
M  V30 10693 H 981.089 -3.1295 -0.791333 0
M  V30 10694 H 980.141 -3.4476 1.60763 0
M  V30 10695 H 981.453 -4.60902 1.90712 0
M  V30 10696 H 980.607 -6.06674 0.0565993 0
M  V30 10697 H 979.346 -4.86517 -0.33951 0
M  V30 10698 H 978.351 -5.14104 1.94878 0
M  V30 10699 H 979.576 -6.37618 2.3371 0
M  V30 10700 H 977.522 -6.55923 0.100555 0
M  V30 10701 H 977.439 -7.38379 1.62272 0
M  V30 10702 H 978.707 -7.77888 0.5011 0
M  V30 10703 N 982.937 -0.845659 -1.3299 0
M  V30 10704 C 983.847 -0.2864 -2.32845 0
M  V30 10705 C 984.863 0.591105 -1.63652 0
M  V30 10706 O 986.039 0.493615 -1.95257 0
M  V30 10707 C 983.104 0.523636 -3.42723 0
M  V30 10708 C 982.165 -0.378945 -4.27624 0
M  V30 10709 C 981.398 0.392526 -5.32255 0
M  V30 10710 O 981.621 1.6235 -5.46808 0
M  V30 10711 O 980.555 -0.237 -6.01433 0
M  V30 10712 H 984.381 -1.11346 -2.82552 0
M  V30 10713 H 981.966 -0.608356 -1.36453 0
M  V30 10714 H 983.848 0.983718 -4.09757 0
M  V30 10715 H 982.523 1.32764 -2.95221 0
M  V30 10716 H 981.43 -0.887012 -3.63432 0
M  V30 10717 H 982.763 -1.1479 -4.78627 0
M  V30 10718 N 984.415 1.45619 -0.602734 0
M  V30 10719 C 985.64 2.07157 -0.100429 0
M  V30 10720 C 986.065 1.44524 1.20393 0
M  V30 10721 O 985.423 0.536191 1.7319 0
M  V30 10722 C 985.471 3.60587 0.0308604 0
M  V30 10723 O 984.575 3.97944 1.08234 0
M  V30 10724 H 983.916 0.6601 -0.0718643 0
M  V30 10725 H 986.446 1.86948 -0.831366 0
M  V30 10726 H 986.456 4.07348 0.230634 0
M  V30 10727 H 985.131 4.05561 -0.921581 0
M  V30 10728 H 983.708 3.62862 0.859414 0
M  V30 10729 N 985.893 0.34162 1.53853 0
M  V30 10730 C 986.803 -0.524555 2.2866 0
M  V30 10731 C 987.819 -1.1136 1.33697 0
M  V30 10732 O 988.995 -1.1297 1.66732 0
M  V30 10733 C 986.06 -1.66065 3.04341 0
M  V30 10734 C 985.121 -1.10158 4.14926 0
M  V30 10735 C 984.354 -2.18353 4.86988 0
M  V30 10736 O 984.577 -3.39038 4.58704 0
M  V30 10737 O 983.511 -1.82756 5.73484 0
M  V30 10738 H 987.337 0.0835014 3.03585 0
M  V30 10739 H 984.922 0.106727 1.49018 0
M  V30 10740 H 986.804 -2.3217 3.51674 0
M  V30 10741 H 985.479 -2.25456 2.32275 0
M  V30 10742 H 984.386 -0.405109 3.719 0
M  V30 10743 H 985.719 -0.552567 4.89088 0
M  V30 10744 N 987.371 -1.57444 0.0701946 0
M  V30 10745 C 988.62 -1.92605 -0.598849 0
M  V30 10746 C 988.933 -0.952058 -1.70866 0
M  V30 10747 O 990.139 -1.19643 -2.43716 0
M  V30 10748 C 988.595 -3.42142 -1.11655 0
M  V30 10749 C 988.203 -4.47984 -0.0378355 0
M  V30 10750 C 989.947 -3.86307 -1.75975 0
M  V30 10751 C 987.854 -5.88652 -0.569495 0
M  V30 10752 H 986.784 -0.718873 -0.22746 0
M  V30 10753 H 989.435 -1.82948 0.14217 0
M  V30 10754 H 987.817 -3.46866 -1.91049 0
M  V30 10755 H 988.991 -4.54874 0.736661 0
M  V30 10756 H 987.306 -4.13277 0.50904 0
M  V30 10757 H 989.903 -4.88784 -2.16782 0
M  V30 10758 H 990.246 -3.23587 -2.61911 0
M  V30 10759 H 990.779 -3.84179 -1.03206 0
M  V30 10760 H 987.518 -6.55013 0.252662 0
M  V30 10761 H 987.038 -5.85285 -1.31155 0
M  V30 10762 H 988.717 -6.38482 -1.04641 0
M  V30 10763 N 988.849 0.203349 -1.56283 0
M  V30 10764 C 990.077 0.941426 -1.84241 0
M  V30 10765 C 990.492 1.77197 -0.651658 0
M  V30 10766 O 989.849 1.78506 0.379713 0
M  V30 10767 C 989.9 1.84429 -3.10915 0
M  V30 10768 O 989.621 1.04729 -4.25398 0
M  V30 10769 C 991.122 2.69474 -3.51993 0
M  V30 10770 H 988.342 0.27507 -0.612027 0
M  V30 10771 H 990.886 0.213088 -2.03387 0
M  V30 10772 H 989.041 2.52635 -2.93691 0
M  V30 10773 H 989.455 1.66179 -4.97478 0
M  V30 10774 H 990.929 3.28495 -4.43616 0
M  V30 10775 H 991.406 3.42775 -2.74594 0
M  V30 10776 H 992.012 2.06652 -3.71719 0
M  V30 10777 N 990.327 1.50405 0.470755 0
M  V30 10778 C 991.604 1.51929 1.23195 0
M  V30 10779 C 991.984 0.264159 2.09441 0
M  V30 10780 O 991.332 -0.752395 2.15757 0
M  V30 10781 C 991.542 2.81521 2.06269 0
M  V30 10782 C 992.89 3.32195 2.64446 0
M  V30 10783 O 993.914 2.82845 2.16511 0
M  V30 10784 O 992.773 4.18221 3.51786 0
M  V30 10785 H 989.867 0.609411 0.559059 0
M  V30 10786 H 992.413 1.62695 0.482549 0
M  V30 10787 H 991.185 3.64346 1.42715 0
M  V30 10788 H 990.808 2.7376 2.88342 0
M  V30 10789 N 991.805 -0.723954 1.39988 0
M  V30 10790 C 992.715 -1.86829 1.41887 0
M  V30 10791 C 993.731 -1.71173 0.312401 0
M  V30 10792 O 994.907 -1.93583 0.555651 0
M  V30 10793 C 991.972 -3.22541 1.27154 0
M  V30 10794 C 991.033 -3.50512 2.47871 0
M  V30 10795 C 990.266 -4.79749 2.33831 0
M  V30 10796 O 990.489 -5.54251 1.34765 0
M  V30 10797 O 989.423 -5.07868 3.23039 0
M  V30 10798 H 993.249 -1.88183 2.38371 0
M  V30 10799 H 990.834 -0.873259 1.21221 0
M  V30 10800 H 992.716 -4.0362 1.21114 0
M  V30 10801 H 991.391 -3.21933 0.337715 0
M  V30 10802 H 990.298 -2.69475 2.59488 0
M  V30 10803 H 991.631 -3.55909 3.39985 0
M  V30 10804 N 993.283 -1.25346 -0.955304 0
M  V30 10805 C 994.56 -1.00829 -1.67609 0
M  V30 10806 C 994.94 0.465675 -2.059 0
M  V30 10807 O 994.288 1.44287 -1.77182 0
M  V30 10808 C 994.498 -1.94337 -2.89886 0
M  V30 10809 C 995.846 -2.22142 -3.61854 0
M  V30 10810 O 996.87 -1.9209 -2.99967 0
M  V30 10811 O 995.729 -2.73239 -4.73289 0
M  V30 10812 H 992.823 -0.382314 -0.733325 0
M  V30 10813 H 995.369 -1.36498 -1.00829 0
M  V30 10814 H 994.141 -2.93867 -2.58376 0
M  V30 10815 H 993.764 -1.59062 -3.64397 0
M  V30 10816 N 994.761 1.15782 -1.06922 0
M  V30 10817 C 996.01 1.85807 -0.784774 0
M  V30 10818 C 996.323 1.82967 0.691551 0
M  V30 10819 O 997.529 2.48632 1.0906 0
M  V30 10820 C 995.985 3.33469 -1.35375 0
M  V30 10821 C 995.593 3.44766 -2.86077 0
M  V30 10822 C 997.337 4.08707 -1.14713 0
M  V30 10823 C 995.244 4.86551 -3.36187 0
M  V30 10824 H 994.174 0.696046 -0.28989 0
M  V30 10825 H 996.825 1.30629 -1.28873 0
M  V30 10826 H 995.207 3.88292 -0.77754 0
M  V30 10827 H 996.381 3.00073 -3.49704 0
M  V30 10828 H 994.696 2.82969 -3.05479 0
M  V30 10829 H 997.293 5.13336 -1.49633 0
M  V30 10830 H 997.636 4.16211 -0.0858868 0
M  V30 10831 H 998.169 3.60142 -1.68946 0
M  V30 10832 H 994.908 4.84229 -4.41818 0
M  V30 10833 H 994.428 5.31844 -2.77312 0
M  V30 10834 H 996.107 5.55392 -3.31887 0
M  V30 10835 N 996.239 0.8527 1.3254 0
M  V30 10836 C 997.516 0.376491 1.91942 0
M  V30 10837 C 997.896 -1.13972 1.7769 0
M  V30 10838 O 997.244 -1.96047 1.17379 0
M  V30 10839 C 997.454 0.838694 3.38773 0
M  V30 10840 C 998.802 0.854736 4.15908 0
M  V30 10841 O 999.826 0.783203 3.47483 0
M  V30 10842 O 998.685 0.955207 5.38087 0
M  V30 10843 H 995.779 0.109412 0.81973 0
M  V30 10844 H 998.325 0.93947 1.41322 0
M  V30 10845 H 997.097 1.88179 3.43081 0
M  V30 10846 H 996.72 0.253055 3.96794 0
M  V30 10847 N 997.718 -1.45297 0.610449 0
M  V30 10848 C 998.966 -2.01819 0.106548 0
M  V30 10849 C 999.287 -1.48102 -1.26849 0
M  V30 10850 O 998.557 -0.676411 -1.83852 0
M  V30 10851 H 997.137 -0.746113 0.0363982 0
M  V30 10852 H 999.799 -1.78061 0.792491 0
M  V30 10853 H 998.895 -3.12045 0.0585 0
M  V30 10854 N 999.196 -0.349774 -1.5367 0
M  V30 10855 C 1000.44 0.245862 -2.00196 0
M  V30 10856 C 1000.76 1.51154 -1.24144 0
M  V30 10857 O 1001.96 2.18481 -1.61178 0
M  V30 10858 C 1000.42 0.488665 -3.56567 0
M  V30 10859 C 1000.03 -0.761475 -4.41481 0
M  V30 10860 C 1001.77 1.04282 -4.11492 0
M  V30 10861 C 999.679 -0.489128 -5.89374 0
M  V30 10862 H 998.609 0.0956493 -0.747909 0
M  V30 10863 H 1001.26 -0.466068 -1.77483 0
M  V30 10864 H 999.642 1.26145 -3.75371 0
M  V30 10865 H 1000.82 -1.53585 -4.34452 0
M  V30 10866 H 999.131 -1.23771 -3.9758 0
M  V30 10867 H 1001.73 1.26164 -5.19603 0
M  V30 10868 H 1002.07 2.00023 -3.65098 0
M  V30 10869 H 1002.6 0.330582 -3.96424 0
M  V30 10870 H 999.343 -1.41643 -6.40014 0
M  V30 10871 H 998.863 0.247039 -5.99291 0
M  V30 10872 H 1000.54 -0.1087 -6.46909 0
M  V30 10873 N 1000.67 1.57404 -0.0785433 0
M  V30 10874 C 1001.6 2.16131 0.883726 0
M  V30 10875 C 1002.58 1.09015 1.30575 0
M  V30 10876 O 1003.77 1.3708 1.37559 0
M  V30 10877 C 1000.9 2.72836 2.1489 0
M  V30 10878 C 999.854 3.85178 1.86605 0
M  V30 10879 C 999.18 4.28516 3.1981 0
M  V30 10880 C 1000.48 5.09118 1.16601 0
M  V30 10881 H 1002.17 2.9679 0.394484 0
M  V30 10882 H 999.72 1.42763 0.188304 0
M  V30 10883 H 1001.67 3.12567 2.8263 0
M  V30 10884 H 1000.4 1.89408 2.66068 0
M  V30 10885 H 999.056 3.45962 1.21268 0
M  V30 10886 H 998.704 3.42 3.68843 0
M  V30 10887 H 998.404 5.04249 3.01674 0
M  V30 10888 H 999.928 4.70868 3.88737 0
M  V30 10889 H 1001.34 5.46123 1.74422 0
M  V30 10890 H 999.739 5.90173 1.087 0
M  V30 10891 H 1000.81 4.8468 0.146138 0
M  V30 10892 N 1002.15 -0.195058 1.56388 0
M  V30 10893 C 1003.06 -1.26219 1.97752 0
M  V30 10894 C 1004.08 -1.49801 0.885192 0
M  V30 10895 O 1005.25 -1.62415 1.19094 0
M  V30 10896 C 1002.32 -2.5865 2.3087 0
M  V30 10897 C 1001.38 -2.4314 3.5381 0
M  V30 10898 C 1000.61 -3.69255 3.85339 0
M  V30 10899 O 1000.84 -4.73425 3.18159 0
M  V30 10900 O 999.77 -3.64782 4.78767 0
M  V30 10901 H 1003.6 -0.941161 2.88749 0
M  V30 10902 H 1001.18 -0.40006 1.43944 0
M  V30 10903 H 1003.06 -3.36814 2.53247 0
M  V30 10904 H 1001.74 -2.9038 1.43042 0
M  V30 10905 H 1000.64 -1.63086 3.3668 0
M  V30 10906 H 1001.98 -2.16341 4.42105 0
M  V30 10907 N 1003.63 -1.50653 -0.462772 0
M  V30 10908 C 1005.05 -1.38263 -0.797213 0
M  V30 10909 C 1005.25 -0.445172 -1.96521 0
M  V30 10910 O 1004.3 0.10913 -2.52264 0
M  V30 10911 C 1005.61 -2.798 -1.10146 0
M  V30 10912 C 1007.16 -2.88774 -1.20742 0
M  V30 10913 C 1007.64 -4.31163 -1.54476 0
M  V30 10914 N 1009.13 -4.34152 -1.61451 0
M  V30 10915 C 1009.86 -5.4133 -1.89074 0
M  V30 10916 N 1009.36 -6.58705 -2.1466 0
M  V30 10917 N 1011.15 -5.28783 -1.90645 0
M  V30 10918 H 1003.3 -2.10172 0.30684 0
M  V30 10919 H 1005.57 -0.945046 0.0747862 0
M  V30 10920 H 1005.27 -3.50276 -0.316207 0
M  V30 10921 H 1005.15 -3.17559 -2.03559 0
M  V30 10922 H 1007.53 -2.18512 -1.98334 0
M  V30 10923 H 1007.61 -2.54547 -0.252904 0
M  V30 10924 H 1007.26 -5.01965 -0.774207 0
M  V30 10925 H 1007.19 -4.62883 -2.51092 0
M  V30 10926 H 1009.68 -3.49519 -1.43684 0
M  V30 10927 H 1009.99 -7.36192 -2.35035 0
M  V30 10928 H 1008.34 -6.61866 -2.12035 0
M  V30 10929 H 1011.53 -4.36078 -1.70158 0
M  V30 10930 H 1011.7 -6.12396 -2.11836 0
M  V30 10931 N 1005.11 0.71652 -1.4037 0
M  V30 10932 C 1006.36 1.47347 -1.38324 0
M  V30 10933 C 1006.68 1.94995 0.0139949 0
M  V30 10934 O 1005.95 1.7028 0.968585 0
M  V30 10935 H 1004.53 0.546662 -0.509087 0
M  V30 10936 H 1007.19 0.849455 -1.75415 0
M  V30 10937 H 1006.29 2.34675 -2.05752 0
M  V30 10938 N 1006.59 1.25851 0.948643 0
M  V30 10939 C 1007.55 1.0683 2.0278 0
M  V30 10940 C 1008.55 0.0191016 1.60789 0
M  V30 10941 O 1009.74 0.261836 1.72221 0
M  V30 10942 C 1006.87 0.623318 3.35153 0
M  V30 10943 H 1008.06 2.02635 2.21086 0
M  V30 10944 H 1005.62 1.08343 1.12657 0
M  V30 10945 H 1006.35 -0.337053 3.22544 0
M  V30 10946 H 1006.14 1.38082 3.66982 0
M  V30 10947 H 1007.63 0.511854 4.14451 0
M  V30 10948 N 1008.06 -1.15214 1.07534 0
M  V30 10949 C 1009.01 -2.20013 0.697337 0
M  V30 10950 C 1009.98 -1.6314 -0.312168 0
M  V30 10951 O 1011.17 -1.89768 -0.198196 0
M  V30 10952 C 1008.31 -3.44945 0.103293 0
M  V30 10953 C 1007.42 -4.16009 1.1645 0
M  V30 10954 C 1006.55 -5.28496 0.535261 0
M  V30 10955 C 1005.59 -5.9138 1.57912 0
M  V30 10956 N 1004.73 -6.95335 0.972332 0
M  V30 10957 H 1009.57 -2.51698 1.59538 0
M  V30 10958 H 1007.11 -1.2361 0.797431 0
M  V30 10959 H 1009.07 -4.16397 -0.258766 0
M  V30 10960 H 1007.7 -3.13772 -0.758096 0
M  V30 10961 H 1006.75 -3.43035 1.64411 0
M  V30 10962 H 1008.06 -4.58853 1.9559 0
M  V30 10963 H 1007.21 -6.06579 0.120942 0
M  V30 10964 H 1005.95 -4.8685 -0.287889 0
M  V30 10965 H 1004.96 -5.12008 2.0032 0
M  V30 10966 H 1006.18 -6.35103 2.40459 0
M  V30 10967 H 1004.13 -6.55779 0.170119 0
M  V30 10968 H 1004.05 -7.36616 1.70095 0
M  V30 10969 H 1005.31 -7.77312 0.583577 0
M  V30 10970 N 1009.54 -0.859717 -1.32086 0
M  V30 10971 C 1010.49 -0.306042 -2.28762 0
M  V30 10972 C 1011.46 0.589801 -1.55276 0
M  V30 10973 O 1012.64 0.523633 -1.83474 0
M  V30 10974 C 1009.78 0.495256 -3.41528 0
M  V30 10975 C 1008.9 -0.426947 -4.29885 0
M  V30 10976 C 1008.03 0.387474 -5.29785 0
M  V30 10977 C 1007.07 -0.531807 -6.09785 0
M  V30 10978 N 1006.21 0.245741 -7.0167 0
M  V30 10979 H 1011.05 -1.1357 -2.7551 0
M  V30 10980 H 1008.59 -0.571468 -1.35546 0
M  V30 10981 H 1010.54 0.97551 -4.05635 0
M  V30 10982 H 1009.17 1.28969 -2.95917 0
M  V30 10983 H 1008.23 -1.02561 -3.66313 0
M  V30 10984 H 1009.54 -1.13226 -4.85779 0
M  V30 10985 H 1008.69 0.930677 -5.99519 0
M  V30 10986 H 1007.43 1.12612 -4.74521 0
M  V30 10987 H 1006.44 -1.08685 -5.3895 0
M  V30 10988 H 1007.66 -1.26915 -6.67135 0
M  V30 10989 H 1005.61 0.967391 -6.48828 0
M  V30 10990 H 1005.52 -0.400432 -7.54939 0
M  V30 10991 H 1006.79 0.770507 -7.75683 0
M  V30 10992 N 1011.02 1.44971 -0.618145 0
M  V30 10993 C 1012.25 2.06527 -0.124165 0
M  V30 10994 C 1012.66 1.46097 1.19588 0
M  V30 10995 O 1012.02 0.57901 1.73071 0
M  V30 10996 C 1012.07 3.61498 0.0106701 0
M  V30 10997 O 1011.79 4.19675 -1.25716 0
M  V30 10998 C 1013.29 4.40061 0.534872 0
M  V30 10999 H 1010.51 0.666941 -0.0736935 0
M  V30 11000 H 1013.06 1.8605 -0.848871 0
M  V30 11001 H 1011.21 3.81282 0.685752 0
M  V30 11002 H 1011.63 5.12972 -1.09362 0
M  V30 11003 H 1013.1 5.48963 0.57827 0
M  V30 11004 H 1013.58 4.10587 1.55931 0
M  V30 11005 H 1014.18 4.25167 -0.10652 0
M  V30 11006 N 1012.5 0.357919 1.53482 0
M  V30 11007 C 1013.46 -0.479797 2.24122 0
M  V30 11008 C 1014.46 -1.01596 1.24639 0
M  V30 11009 O 1015.65 -0.902928 1.48973 0
M  V30 11010 C 1012.78 -1.66983 2.97203 0
M  V30 11011 H 1013.98 0.138219 2.99581 0
M  V30 11012 H 1011.53 0.109484 1.55916 0
M  V30 11013 H 1012.26 -2.32615 2.25966 0
M  V30 11014 H 1012.05 -1.29242 3.70188 0
M  V30 11015 H 1013.54 -2.26367 3.50924 0
M  V30 11016 N 1013.98 -1.5736 0.0868897 0
M  V30 11017 C 1014.89 -2.17087 -0.889402 0
M  V30 11018 C 1015.9 -1.13809 -1.31619 0
M  V30 11019 O 1017.08 -1.46143 -1.38579 0
M  V30 11020 C 1014.14 -2.73286 -2.13344 0
M  V30 11021 C 1013.2 -3.91491 -1.76164 0
M  V30 11022 C 1012.44 -4.45 -2.94637 0
M  V30 11023 O 1012.66 -3.97467 -4.09116 0
M  V30 11024 O 1011.59 -5.36133 -2.73579 0
M  V30 11025 H 1015.42 -3.00902 -0.411275 0
M  V30 11026 H 1013.01 -1.4877 -0.137015 0
M  V30 11027 H 1014.89 -3.0924 -2.86266 0
M  V30 11028 H 1013.56 -1.92521 -2.60225 0
M  V30 11029 H 1012.47 -3.60363 -1.00447 0
M  V30 11030 H 1013.8 -4.73593 -1.34053 0
M  V30 11031 N 1015.45 0.186762 -1.56489 0
M  V30 11032 C 1016.39 1.25971 -1.9028 0
M  V30 11033 C 1017.37 1.43543 -0.763822 0
M  V30 11034 O 1018.55 1.58799 -1.01564 0
M  V30 11035 C 1015.68 2.62507 -2.14028 0
M  V30 11036 C 1014.72 2.61758 -3.36727 0
M  V30 11037 S 1015.56 2.12366 -4.9159 0
M  V30 11038 C 1016.71 3.5071 -5.18414 0
M  V30 11039 H 1016.94 0.971203 -2.80989 0
M  V30 11040 H 1014.48 0.390636 -1.49377 0
M  V30 11041 H 1016.44 3.41098 -2.28391 0
M  V30 11042 H 1015.1 2.88564 -1.24054 0
M  V30 11043 H 1014.29 3.62173 -3.50495 0
M  V30 11044 H 1013.89 1.91254 -3.214 0
M  V30 11045 H 1016.18 4.46622 -5.09445 0
M  V30 11046 H 1017.13 3.41829 -6.20128 0
M  V30 11047 H 1017.53 3.46008 -4.46026 0
M  V30 11048 N 1016.93 1.50896 0.454776 0
M  V30 11049 C 1017.88 1.71497 1.57136 0
M  V30 11050 C 1018.87 0.58098 1.59126 0
M  V30 11051 O 1020.08 0.761916 1.63079 0
M  V30 11052 H 1016.46 0.54158 0.521724 0
M  V30 11053 H 1018.43 2.65129 1.36928 0
M  V30 11054 C 1017.18 1.84125 2.94947 0
M  V30 11055 H 1016.5 2.7078 2.9414 0
M  V30 11056 H 1017.94 2.02558 3.72487 0
M  V30 11057 C 1016.4 0.596752 3.31573 0
M  V30 11058 O 1016.93 -0.256632 4.00879 0
M  V30 11059 N 1015.13 0.445958 2.87158 0
M  V30 11060 H 1014.68 1.14146 2.30929 0
M  V30 11061 H 1014.64 -0.385519 3.12027 0
M  V30 11062 N 1018.41 -0.709066 1.40748 0
M  V30 11063 C 1019.32 -1.85314 1.43861 0
M  V30 11064 C 1020.34 -1.70832 0.330539 0
M  V30 11065 O 1021.51 -1.92983 0.576152 0
M  V30 11066 C 1018.58 -3.21174 1.30568 0
M  V30 11067 C 1017.64 -3.47863 2.51574 0
M  V30 11068 C 1016.87 -4.77241 2.38906 0
M  V30 11069 O 1017.09 -5.52791 1.40636 0
M  V30 11070 O 1016.03 -5.04413 3.28407 0
M  V30 11071 H 1019.85 -1.85644 2.40354 0
M  V30 11072 H 1017.44 -0.860352 1.2214 0
M  V30 11073 H 1019.32 -4.02313 1.25388 0
M  V30 11074 H 1018 -3.21557 0.371841 0
M  V30 11075 H 1016.9 -2.66708 2.62331 0
M  V30 11076 H 1018.24 -3.52283 3.43741 0
M  V30 11077 N 1019.89 -1.26353 -0.941956 0
M  V30 11078 C 1020.84 -1.07842 -2.04056 0
M  V30 11079 C 1021.81 0.0163064 -1.66092 0
M  V30 11080 O 1022.99 -0.143313 -1.90261 0
M  V30 11081 C 1020.13 -0.716636 -3.37577 0
M  V30 11082 C 1019.24 -1.88754 -3.88582 0
M  V30 11083 C 1018.38 -1.46893 -5.10486 0
M  V30 11084 C 1017.42 -2.60819 -5.53751 0
M  V30 11085 N 1016.56 -2.19646 -6.66858 0
M  V30 11086 H 1021.4 -2.01856 -2.19221 0
M  V30 11087 H 1018.93 -1.00504 -1.07412 0
M  V30 11088 H 1020.89 -0.487768 -4.14339 0
M  V30 11089 H 1019.52 0.18653 -3.22261 0
M  V30 11090 H 1018.57 -2.22936 -3.08227 0
M  V30 11091 H 1019.88 -2.74264 -4.1663 0
M  V30 11092 H 1019.04 -1.20047 -5.94705 0
M  V30 11093 H 1017.78 -0.584721 -4.84182 0
M  V30 11094 H 1016.78 -2.88396 -4.6809 0
M  V30 11095 H 1018.01 -3.49838 -5.82057 0
M  V30 11096 H 1015.95 -1.33657 -6.4224 0
M  V30 11097 H 1015.87 -2.987 -6.94489 0
M  V30 11098 H 1017.14 -1.96009 -7.54454 0
M  V30 11099 N 1021.37 1.14642 -1.08144 0
M  V30 11100 C 1022.3 2.21775 -0.730609 0
M  V30 11101 C 1023.28 1.67683 0.285702 0
M  V30 11102 O 1024.46 1.93567 0.156667 0
M  V30 11103 C 1021.59 3.47033 -0.136242 0
M  V30 11104 C 1020.55 4.14134 -1.0806 0
M  V30 11105 C 1019.87 5.33563 -0.348585 0
M  V30 11106 C 1021.17 4.62978 -2.41761 0
M  V30 11107 H 1022.87 2.51378 -1.62633 0
M  V30 11108 H 1020.41 1.20825 -0.783411 0
M  V30 11109 H 1022.37 4.21226 0.121182 0
M  V30 11110 H 1021.09 3.16786 0.7946 0
M  V30 11111 H 1019.75 3.41892 -1.32308 0
M  V30 11112 H 1019.4 4.99575 0.585974 0
M  V30 11113 H 1019.1 5.79402 -0.978122 0
M  V30 11114 H 1020.62 6.10519 -0.0991508 0
M  V30 11115 H 1022.04 5.28659 -2.21795 0
M  V30 11116 H 1020.43 5.1951 -3.00383 0
M  V30 11117 H 1021.5 3.78189 -3.03482 0
M  V30 11118 N 1022.85 0.866709 1.31628 0
M  V30 11119 C 1024.07 0.48956 2.01539 0
M  V30 11120 C 1024.5 -0.909556 1.64647 0
M  V30 11121 O 1023.85 -1.59959 0.853391 0
M  V30 11122 C 1023.9 0.650176 3.5469 0
M  V30 11123 O 1023.01 -0.311908 4.11219 0
M  V30 11124 H 1022.35 0.195144 0.634677 0
M  V30 11125 H 1024.88 1.16923 1.679 0
M  V30 11126 H 1024.89 0.542236 4.04381 0
M  V30 11127 H 1023.56 1.67038 3.80882 0
M  V30 11128 H 1022.14 -0.159197 3.7256 0
M  V30 11129 N 1024.32 -1.44642 0.625825 0
M  V30 11130 C 1025.27 -2.30653 -0.082259 0
M  V30 11131 C 1026.24 -1.43174 -0.842052 0
M  V30 11132 O 1027.43 -1.72082 -0.824151 0
M  V30 11133 C 1024.57 -3.2837 -1.06146 0
M  V30 11134 C 1023.68 -4.30953 -0.300638 0
M  V30 11135 C 1022.81 -5.15766 -1.27118 0
M  V30 11136 C 1021.85 -6.10061 -0.499215 0
M  V30 11137 N 1020.99 -6.87591 -1.41995 0
M  V30 11138 H 1025.83 -2.90664 0.657161 0
M  V30 11139 H 1023.37 -1.43215 0.335859 0
M  V30 11140 H 1025.32 -3.83507 -1.6425 0
M  V30 11141 H 1023.95 -2.70072 -1.76807 0
M  V30 11142 H 1023.01 -3.78331 0.396234 0
M  V30 11143 H 1024.32 -4.97892 0.300851 0
M  V30 11144 H 1023.47 -5.75394 -1.92372 0
M  V30 11145 H 1022.21 -4.48888 -1.9066 0
M  V30 11146 H 1021.22 -5.49547 0.166848 0
M  V30 11147 H 1022.44 -6.78973 0.131409 0
M  V30 11148 H 1020.39 -6.23387 -2.04267 0
M  V30 11149 H 1020.3 -7.5095 -0.872354 0
M  V30 11150 H 1021.57 -7.51746 -2.0615 0
M  V30 11151 N 1025.8 -0.366053 -1.5329 0
M  V30 11152 C 1026.73 0.523781 -2.22108 0
M  V30 11153 C 1027.71 1.08262 -1.21318 0
M  V30 11154 O 1028.9 1.13866 -1.50222 0
M  V30 11155 C 1026.02 1.72273 -2.91616 0
M  V30 11156 C 1025.07 1.29129 -4.06482 0
M  V30 11157 S 1025.9 0.292195 -5.34702 0
M  V30 11158 C 1027.06 1.49746 -6.07723 0
M  V30 11159 H 1027.29 -0.0606687 -2.97238 0
M  V30 11160 H 1024.82 -0.15016 -1.53668 0
M  V30 11161 H 1026.78 2.41045 -3.32277 0
M  V30 11162 H 1025.44 2.27843 -2.16209 0
M  V30 11163 H 1024.64 2.18583 -4.54134 0
M  V30 11164 H 1024.24 0.682783 -3.67715 0
M  V30 11165 H 1026.53 2.4284 -6.32483 0
M  V30 11166 H 1027.47 1.06232 -7.00086 0
M  V30 11167 H 1027.88 1.70373 -5.38176 0
M  V30 11168 N 1027.28 1.57312 -0.0952337 0
M  V30 11169 C 1028.53 1.93974 0.567319 0
M  V30 11170 C 1028.85 0.977805 1.68713 0
M  V30 11171 O 1028.12 0.0298944 1.95877 0
M  V30 11172 H 1026.7 0.71612 0.212558 0
M  V30 11173 H 1029.36 1.94254 -0.158598 0
M  V30 11174 H 1028.46 2.964 0.977423 0
M  V30 11175 N 1028.76 -0.17846 1.56586 0
M  V30 11176 C 1029.67 -1.24115 1.9908 0
M  V30 11177 C 1030.68 -1.48854 0.901031 0
M  V30 11178 O 1031.86 -1.61142 1.2081 0
M  V30 11179 C 1028.92 -2.56187 2.33601 0
M  V30 11180 C 1027.99 -2.39373 3.56369 0
M  V30 11181 C 1027.22 -3.65147 3.89234 0
M  V30 11182 O 1027.44 -4.70024 3.23162 0
M  V30 11183 O 1026.38 -3.59683 4.82609 0
M  V30 11184 H 1030.2 -0.910482 2.89731 0
M  V30 11185 H 1027.79 -0.38477 1.4436 0
M  V30 11186 H 1029.67 -3.34109 2.56806 0
M  V30 11187 H 1028.34 -2.88847 1.46113 0
M  V30 11188 H 1027.25 -1.59506 3.38391 0
M  V30 11189 H 1028.58 -2.1164 4.44375 0
M  V30 11190 N 1030.24 -1.51135 -0.446768 0
M  V30 11191 C 1031.46 -1.67411 -1.22427 0
M  V30 11192 C 1031.89 -0.367009 -1.84485 0
M  V30 11193 O 1031.24 0.67185 -1.68392 0
M  V30 11194 C 1031.29 -2.78473 -2.29096 0
M  V30 11195 O 1030.4 -2.41419 -3.34351 0
M  V30 11196 H 1029.74 -0.558512 -0.359111 0
M  V30 11197 H 1032.27 -1.97648 -0.5288 0
M  V30 11198 H 1032.28 -3.02277 -2.7403 0
M  V30 11199 H 1030.95 -3.73326 -1.83304 0
M  V30 11200 H 1029.53 -2.28152 -2.9496 0
M  V30 11201 N 1031.71 0.701592 -1.41122 0
M  V30 11202 C 1032.94 1.49553 -1.43696 0
M  V30 11203 C 1033.36 1.88053 -0.0421865 0
M  V30 11204 O 1032.72 1.54223 0.953144 0
M  V30 11205 C 1032.77 2.73834 -2.34622 0
M  V30 11206 O 1031.87 3.71088 -1.7991 0
M  V30 11207 H 1031.21 0.450352 -0.487933 0
M  V30 11208 H 1033.74 0.862886 -1.85514 0
M  V30 11209 H 1033.75 3.22209 -2.5029 0
M  V30 11210 H 1032.43 2.45149 -3.35969 0
M  V30 11211 H 1031.01 3.29994 -1.73661 0
M  V30 11212 N 1033.19 1.2685 0.935242 0
M  V30 11213 C 1034.12 1.1143 2.05196 0
M  V30 11214 C 1035.1 0.0178362 1.70091 0
M  V30 11215 O 1036.29 0.190951 1.93259 0
M  V30 11216 C 1033.42 0.752779 3.39044 0
M  V30 11217 C 1032.37 1.80164 3.88233 0
M  V30 11218 C 1031.7 1.29428 5.18799 0
M  V30 11219 C 1033 3.20431 4.12457 0
M  V30 11220 H 1034.69 2.04845 2.18355 0
M  V30 11221 H 1032.24 0.986276 1.04922 0
M  V30 11222 H 1034.19 0.631757 4.16637 0
M  V30 11223 H 1032.91 -0.217075 3.25878 0
M  V30 11224 H 1031.57 1.91144 3.12825 0
M  V30 11225 H 1031.22 0.3141 5.02018 0
M  V30 11226 H 1030.92 1.99546 5.5268 0
M  V30 11227 H 1032.45 1.18605 5.9897 0
M  V30 11228 H 1033.86 3.12495 4.80645 0
M  V30 11229 H 1032.26 3.88193 4.57631 0
M  V30 11230 H 1033.33 3.66046 3.18023 0
M  V30 11231 N 1034.67 -1.14067 1.0875 0
M  V30 11232 C 1036.09 -1.37173 0.815823 0
M  V30 11233 C 1036.29 -1.93175 -0.573215 0
M  V30 11234 O 1035.34 -2.14672 -1.32937 0
M  V30 11235 C 1036.66 -2.32955 1.90138 0
M  V30 11236 C 1038.2 -2.46586 1.9278 0
M  V30 11237 C 1038.68 -3.4567 3.0046 0
M  V30 11238 N 1040.17 -3.53216 2.99655 0
M  V30 11239 C 1040.9 -4.29743 3.79616 0
M  V30 11240 N 1040.4 -5.09484 4.69466 0
M  V30 11241 N 1042.19 -4.24975 3.67903 0
M  V30 11242 H 1034.34 -0.760648 1.98313 0
M  V30 11243 H 1036.61 -0.397135 0.860807 0
M  V30 11244 H 1036.31 -1.98949 2.90021 0
M  V30 11245 H 1036.19 -3.32897 1.77368 0
M  V30 11246 H 1038.57 -2.79882 0.935404 0
M  V30 11247 H 1038.66 -1.46593 2.09629 0
M  V30 11248 H 1038.3 -3.13106 3.99909 0
M  V30 11249 H 1038.23 -4.45452 2.80856 0
M  V30 11250 H 1040.72 -2.96314 2.34535 0
M  V30 11251 H 1041.03 -5.65163 5.27077 0
M  V30 11252 H 1039.38 -5.08741 4.73506 0
M  V30 11253 H 1042.57 -3.61751 2.97075 0
M  V30 11254 H 1042.74 -4.84364 4.30459 0
M  V30 11255 N 1036.15 -0.873678 -1.31166 0
M  V30 11256 C 1037.1 -0.321349 -2.3037 0
M  V30 11257 C 1038.09 0.565568 -1.5968 0
M  V30 11258 O 1039.3 0.451257 -1.74252 0
M  V30 11259 H 1035.67 -0.0852425 -0.747153 0
M  V30 11260 H 1037.64 -1.17191 -2.74425 0
M  V30 11261 C 1036.39 0.459016 -3.44657 0
M  V30 11262 H 1035.71 -0.214185 -3.99226 0
M  V30 11263 H 1037.15 0.810758 -4.16176 0
M  V30 11264 C 1035.61 1.65173 -2.93632 0
M  V30 11265 O 1036.14 2.75105 -2.92711 0
M  V30 11266 N 1034.35 1.4851 -2.49786 0
M  V30 11267 H 1033.9 0.590785 -2.50734 0
M  V30 11268 H 1033.85 2.28452 -2.16002 0
M  V30 11269 N 1037.63 1.44308 -0.633487 0
M  V30 11270 C 1038.87 2.02023 -0.138917 0
M  V30 11271 C 1039.2 1.49841 1.24008 0
M  V30 11272 O 1038.46 0.673718 1.83738 0
M  V30 11273 C 1038.76 3.57316 -0.0773886 0
M  V30 11274 C 1038.42 4.28762 -1.39548 0
M  V30 11275 C 1037.08 4.47997 -1.75648 0
M  V30 11276 C 1039.44 4.69391 -2.26542 0
M  V30 11277 C 1036.76 5.05121 -2.98445 0
M  V30 11278 C 1039.12 5.27876 -3.48612 0
M  V30 11279 C 1037.78 5.45329 -3.84932 0
M  V30 11280 H 1037.05 0.739254 -0.0508333 0
M  V30 11281 H 1039.7 1.73043 -0.820271 0
M  V30 11282 H 1038 3.85724 0.687345 0
M  V30 11283 H 1039.7 3.99706 0.321837 0
M  V30 11284 H 1036.29 4.14122 -1.10456 0
M  V30 11285 H 1040.47 4.54241 -1.99946 0
M  V30 11286 H 1035.73 5.16821 -3.26658 0
M  V30 11287 H 1039.9 5.58307 -4.16253 0
M  V30 11288 H 1037.53 5.8936 -4.80166 0
M  V30 11289 N 1039.1 0.374177 1.53094 0
M  V30 11290 C 1040.33 -0.213325 2.05797 0
M  V30 11291 C 1040.75 -1.41753 1.24706 0
M  V30 11292 O 1040.1 -1.80183 0.289868 0
M  V30 11293 C 1040.16 -0.598367 3.56513 0
M  V30 11294 O 1039.88 0.557983 4.34532 0
M  V30 11295 C 1041.38 -1.24334 4.25507 0
M  V30 11296 H 1038.6 -0.0357398 0.670048 0
M  V30 11297 H 1041.14 0.535035 1.97377 0
M  V30 11298 H 1039.3 -1.29663 3.65056 0
M  V30 11299 H 1039.71 0.244911 5.23928 0
M  V30 11300 H 1041.18 -1.46325 5.32253 0
M  V30 11301 H 1041.66 -2.20622 3.79766 0
M  V30 11302 H 1042.27 -0.586269 4.2124 0
M  V30 11303 N 1040.58 -1.57259 0.103575 0
M  V30 11304 C 1041.52 -2.10165 -0.889141 0
M  V30 11305 C 1042.49 -1.01426 -1.27089 0
M  V30 11306 O 1043.68 -1.2898 -1.37465 0
M  V30 11307 C 1040.8 -2.58564 -2.18774 0
M  V30 11308 C 1039.85 -3.79043 -1.95522 0
M  V30 11309 S 1040.68 -5.22213 -1.18551 0
M  V30 11310 C 1041.84 -5.73968 -2.49623 0
M  V30 11311 H 1042.07 -2.9404 -0.439083 0
M  V30 11312 H 1039.61 -1.54008 -0.10989 0
M  V30 11313 H 1041.56 -2.87106 -2.93395 0
M  V30 11314 H 1040.22 -1.749 -2.609 0
M  V30 11315 H 1039.42 -4.11004 -2.91705 0
M  V30 11316 H 1039.02 -3.51038 -1.29028 0
M  V30 11317 H 1041.31 -5.82752 -3.45553 0
M  V30 11318 H 1042.25 -6.72324 -2.22229 0
M  V30 11319 H 1042.66 -5.01946 -2.58284 0
M  V30 11320 N 1042.06 0.170153 -1.56679 0
M  V30 11321 C 1043.34 0.913938 -1.72935 0
M  V30 11322 C 1043.72 2.00342 -0.665293 0
M  V30 11323 O 1043.07 2.26252 0.319715 0
M  V30 11324 C 1043.28 1.47761 -3.16177 0
M  V30 11325 C 1044.62 1.95007 -3.7717 0
M  V30 11326 O 1045.65 1.57552 -3.19462 0
M  V30 11327 O 1044.51 2.64007 -4.78501 0
M  V30 11328 H 1041.6 0.43027 -0.706256 0
M  V30 11329 H 1044.15 0.157891 -1.68964 0
M  V30 11330 H 1042.92 0.69352 -3.85105 0
M  V30 11331 H 1042.54 2.2978 -3.24479 0
M  V30 11332 N 1043.54 1.5137 0.438746 0
M  V30 11333 C 1044.77 1.67774 1.21077 0
M  V30 11334 C 1045.18 0.374489 1.85049 0
M  V30 11335 O 1044.54 -0.646867 1.70651 0
M  V30 11336 C 1044.59 2.79238 2.29584 0
M  V30 11337 O 1044.31 4.04513 1.68228 0
M  V30 11338 C 1045.81 3.06898 3.19888 0
M  V30 11339 H 1043.03 0.563054 0.364981 0
M  V30 11340 H 1045.58 1.97777 0.520035 0
M  V30 11341 H 1043.73 2.51837 2.94375 0
M  V30 11342 H 1044.14 4.66405 2.3993 0
M  V30 11343 H 1045.62 3.88476 3.92162 0
M  V30 11344 H 1046.1 2.19249 3.80561 0
M  V30 11345 H 1046.7 3.35952 2.60799 0
M  V30 11346 N 1045.02 -0.694098 1.41492 0
M  V30 11347 C 1045.93 -1.83778 1.45818 0
M  V30 11348 C 1046.94 -1.70471 0.348639 0
M  V30 11349 O 1048.12 -1.92361 0.596588 0
M  V30 11350 C 1045.18 -3.19771 1.33967 0
M  V30 11351 C 1044.24 -3.45175 2.5525 0
M  V30 11352 C 1043.48 -4.74681 2.43955 0
M  V30 11353 O 1043.7 -5.51268 1.46491 0
M  V30 11354 O 1042.63 -5.00901 3.33739 0
M  V30 11355 H 1046.46 -1.83084 2.42309 0
M  V30 11356 H 1044.05 -0.847349 1.23046 0
M  V30 11357 H 1045.93 -4.00961 1.29648 0
M  V30 11358 H 1044.6 -3.21145 0.405926 0
M  V30 11359 H 1043.51 -2.6391 2.65146 0
M  V30 11360 H 1044.84 -3.48617 3.47458 0
M  V30 11361 N 1046.49 -1.27344 -0.928501 0
M  V30 11362 C 1047.72 -1.16557 -1.7155 0
M  V30 11363 C 1048.14 0.274044 -1.86093 0
M  V30 11364 O 1047.5 1.19847 -1.36038 0
M  V30 11365 C 1047.55 -1.85332 -3.09329 0
M  V30 11366 O 1046.65 -1.15074 -3.9602 0
M  V30 11367 H 1046 -0.405423 -0.525859 0
M  V30 11368 H 1048.53 -1.68399 -1.16202 0
M  V30 11369 H 1048.54 -1.92659 -3.59648 0
M  V30 11370 H 1047.21 -2.90056 -2.98061 0
M  V30 11371 H 1045.79 -1.1581 -3.54461 0
M  V30 11372 N 1047.97 1.13488 -1.09353 0
M  V30 11373 C 1049.2 1.89133 -0.85108 0
M  V30 11374 C 1049.62 1.78542 0.591976 0
M  V30 11375 O 1048.98 1.13243 1.41583 0
M  V30 11376 C 1049.03 3.36736 -1.29001 0
M  V30 11377 O 1048.13 4.09959 -0.447993 0
M  V30 11378 H 1047.47 0.58809 -0.308296 0
M  V30 11379 H 1050 1.43593 -1.45747 0
M  V30 11380 H 1050.01 3.87564 -1.27508 0
M  V30 11381 H 1048.69 3.43762 -2.34095 0
M  V30 11382 H 1047.27 3.69155 -0.52717 0
M  V30 11383 N 1049.45 0.880621 1.30701 0
M  V30 11384 C 1050.7 0.497611 1.966 0
M  V30 11385 C 1051.03 -0.949901 1.69383 0
M  V30 11386 O 1050.31 -1.67054 0.996152 0
M  V30 11387 C 1050.59 0.767919 3.51817 0
M  V30 11388 C 1050.44 2.26574 3.88567 0
M  V30 11389 C 1051.76 0.241502 4.39437 0
M  V30 11390 H 1048.88 0.182267 0.714106 0
M  V30 11391 H 1051.52 1.10382 1.54648 0
M  V30 11392 H 1049.67 0.251967 3.87682 0
M  V30 11393 H 1051.34 2.84977 3.62748 0
M  V30 11394 H 1049.59 2.73411 3.36792 0
M  V30 11395 H 1050.26 2.40549 4.9683 0
M  V30 11396 H 1052.73 0.683051 4.10455 0
M  V30 11397 H 1051.61 0.459997 5.46969 0
M  V30 11398 H 1051.87 -0.857068 4.33713 0
M  V30 11399 N 1050.93 -1.4397 0.641131 0
M  V30 11400 C 1052.16 -2.06004 0.156779 0
M  V30 11401 C 1052.57 -1.48059 -1.17793 0
M  V30 11402 O 1051.91 -0.601788 -1.73563 0
M  V30 11403 C 1051.97 -3.59493 -0.0217203 0
M  V30 11404 C 1051.64 -4.39957 1.23639 0
M  V30 11405 C 1052.63 -4.72797 2.16239 0
M  V30 11406 C 1050.32 -4.80168 1.4746 0
M  V30 11407 C 1052.31 -5.44741 3.30962 0
M  V30 11408 C 1050 -5.51859 2.62478 0
M  V30 11409 C 1051 -5.84067 3.54055 0
M  V30 11410 O 1050.69 -6.54296 4.67067 0
M  V30 11411 H 1050.42 -0.671061 0.0815685 0
M  V30 11412 H 1052.97 -1.85664 0.878517 0
M  V30 11413 H 1051.2 -3.78362 -0.798707 0
M  V30 11414 H 1052.89 -4.03263 -0.461893 0
M  V30 11415 H 1053.66 -4.42261 1.99073 0
M  V30 11416 H 1049.54 -4.54513 0.770652 0
M  V30 11417 H 1053.08 -5.69798 4.02462 0
M  V30 11418 H 1048.98 -5.81811 2.79583 0
M  V30 11419 H 1049.74 -6.72772 4.66177 0
M  V30 11420 N 1052.41 -0.382291 -1.52893 0
M  V30 11421 C 1053.36 0.471187 -2.27778 0
M  V30 11422 C 1054.35 1.0691 -1.31402 0
M  V30 11423 O 1055.56 1.01038 -1.48967 0
M  V30 11424 H 1051.93 0.170696 -0.732371 0
M  V30 11425 H 1053.9 -0.181954 -2.97845 0
M  V30 11426 C 1052.65 1.59012 -3.09209 0
M  V30 11427 H 1051.97 1.13935 -3.83222 0
M  V30 11428 H 1053.41 2.16167 -3.64757 0
M  V30 11429 C 1051.87 2.54212 -2.21084 0
M  V30 11430 O 1052.4 3.57447 -1.83288 0
M  V30 11431 N 1050.61 2.23789 -1.85383 0
M  V30 11432 H 1050.16 1.39872 -2.16318 0
M  V30 11433 H 1050.11 2.87737 -1.26708 0
M  V30 11434 N 1053.89 1.57202 -0.111913 0
M  V30 11435 C 1055.13 1.9495 0.547795 0
M  V30 11436 C 1055.46 0.994763 1.67137 0
M  V30 11437 O 1054.72 0.0173528 1.95692 0
M  V30 11438 C 1055.01 3.39152 1.12741 0
M  V30 11439 C 1054.68 4.50724 0.125916 0
M  V30 11440 C 1053.34 4.80968 -0.149489 0
M  V30 11441 C 1055.69 5.18215 -0.556987 0
M  V30 11442 C 1053.02 5.76023 -1.1142 0
M  V30 11443 C 1055.37 6.14307 -1.51029 0
M  V30 11444 C 1054.04 6.42947 -1.79375 0
M  V30 11445 H 1053.31 0.713372 0.200453 0
M  V30 11446 H 1055.96 1.90542 -0.191316 0
M  V30 11447 H 1054.26 3.4022 1.94313 0
M  V30 11448 H 1055.96 3.65668 1.64584 0
M  V30 11449 H 1052.55 4.27162 0.350756 0
M  V30 11450 H 1056.73 4.95012 -0.357378 0
M  V30 11451 H 1051.99 5.9652 -1.34064 0
M  V30 11452 H 1056.16 6.65692 -2.04516 0
M  V30 11453 H 1053.79 7.1641 -2.54284 0
M  V30 11454 N 1055.36 -0.161842 1.56767 0
M  V30 11455 C 1056.27 -1.21996 2.00385 0
M  V30 11456 C 1057.29 -1.4789 0.916768 0
M  V30 11457 O 1058.47 -1.59852 1.22513 0
M  V30 11458 C 1055.53 -2.53695 2.36305 0
M  V30 11459 C 1054.59 -2.3558 3.58888 0
M  V30 11460 C 1053.82 -3.60998 3.93085 0
M  V30 11461 O 1054.05 -4.6657 3.28129 0
M  V30 11462 O 1052.98 -3.54544 4.86397 0
M  V30 11463 H 1056.81 -0.879701 2.9068 0
M  V30 11464 H 1054.39 -0.369437 1.4476 0
M  V30 11465 H 1056.27 -3.31366 2.60335 0
M  V30 11466 H 1054.95 -2.87281 1.49169 0
M  V30 11467 H 1053.86 -1.55908 3.40064 0
M  V30 11468 H 1055.19 -2.06915 4.46595 0
M  V30 11469 N 1056.84 -1.516 -0.430713 0
M  V30 11470 C 1058.09 -1.64271 -1.17726 0
M  V30 11471 C 1058.41 -0.364406 -1.91565 0
M  V30 11472 O 1057.68 0.619991 -1.8583 0
M  V30 11473 H 1056.26 -0.605432 -0.437562 0
M  V30 11474 H 1058.92 -1.88557 -0.493166 0
M  V30 11475 H 1058.02 -2.47355 -1.90321 0
M  V30 11476 N 1058.32 0.686584 -1.41858 0
M  V30 11477 C 1059.23 1.83002 -1.46791 0
M  V30 11478 C 1060.25 1.70284 -0.357675 0
M  V30 11479 O 1061.42 1.92042 -0.606781 0
M  V30 11480 C 1058.49 3.19056 -1.35661 0
M  V30 11481 C 1057.55 3.43817 -2.57077 0
M  V30 11482 C 1056.78 4.7338 -2.46469 0
M  V30 11483 O 1057 5.50483 -1.49413 0
M  V30 11484 O 1055.94 4.99124 -3.36391 0
M  V30 11485 H 1059.76 1.81797 -2.43277 0
M  V30 11486 H 1057.35 0.840812 -1.23494 0
M  V30 11487 H 1059.23 4.00267 -1.31773 0
M  V30 11488 H 1057.91 3.20925 -0.422951 0
M  V30 11489 H 1056.81 2.625 -2.66541 0
M  V30 11490 H 1058.15 3.4677 -3.49302 0
M  V30 11491 N 1059.8 1.27835 0.921735 0
M  V30 11492 C 1061.07 1.05238 1.64877 0
M  V30 11493 C 1061.45 -0.410921 2.07062 0
M  V30 11494 O 1060.8 -1.39538 1.80946 0
M  V30 11495 C 1061.01 2.01955 2.84632 0
M  V30 11496 C 1062.36 2.31657 3.55837 0
M  V30 11497 O 1063.38 1.99975 2.94768 0
M  V30 11498 O 1062.24 2.85692 4.65878 0
M  V30 11499 H 1059.34 0.401622 0.72293 0
M  V30 11500 H 1061.88 1.39123 0.971744 0
M  V30 11501 H 1060.66 3.00614 2.50494 0
M  V30 11502 H 1060.28 1.68667 3.60052 0
M  V30 11503 N 1061.28 -1.12907 1.09954 0
M  V30 11504 C 1062.51 -1.87866 0.859656 0
M  V30 11505 C 1062.91 -1.79664 -0.593096 0
M  V30 11506 O 1062.26 -1.16499 -1.42034 0
M  V30 11507 C 1062.32 -3.38055 1.22308 0
M  V30 11508 C 1061.98 -3.70035 2.68185 0
M  V30 11509 C 1062.98 -3.68817 3.66428 0
M  V30 11510 C 1060.66 -3.99523 3.04444 0
M  V30 11511 C 1062.66 -3.96639 4.98955 0
M  V30 11512 C 1060.35 -4.27006 4.37161 0
M  V30 11513 C 1061.34 -4.25549 5.34225 0
M  V30 11514 O 1061.03 -4.52354 6.64553 0
M  V30 11515 H 1060.76 -0.601425 0.308649 0
M  V30 11516 H 1063.32 -1.43817 1.46649 0
M  V30 11517 H 1061.55 -3.82634 0.559322 0
M  V30 11518 H 1063.24 -3.94348 0.961479 0
M  V30 11519 H 1064 -3.46104 3.3976 0
M  V30 11520 H 1059.88 -3.99801 2.29521 0
M  V30 11521 H 1063.43 -3.95418 5.74709 0
M  V30 11522 H 1059.32 -4.49192 4.6357 0
M  V30 11523 H 1060.09 -4.69997 6.70108 0
M  V30 11524 N 1062.75 -0.88754 -1.30232 0
M  V30 11525 C 1064.17 -0.581904 -1.48614 0
M  V30 11526 C 1064.37 0.879711 -1.81282 0
M  V30 11527 O 1063.43 1.66076 -1.90198 0
M  V30 11528 C 1064.74 -1.49726 -2.60773 0
M  V30 11529 C 1066.29 -1.50117 -2.74653 0
M  V30 11530 C 1066.76 -2.40251 -3.89927 0
M  V30 11531 N 1068.25 -2.38229 -3.97242 0
M  V30 11532 C 1068.99 -3.04682 -4.85754 0
M  V30 11533 N 1068.48 -3.80369 -5.79043 0
M  V30 11534 N 1070.28 -2.93901 -4.79144 0
M  V30 11535 H 1062.43 -1.83304 -1.073 0
M  V30 11536 H 1064.69 -0.78477 -0.531826 0
M  V30 11537 H 1064.4 -2.5381 -2.43462 0
M  V30 11538 H 1064.27 -1.20874 -3.57308 0
M  V30 11539 H 1066.66 -0.467832 -2.91368 0
M  V30 11540 H 1066.74 -1.83001 -1.7873 0
M  V30 11541 H 1066.38 -3.43671 -3.73969 0
M  V30 11542 H 1066.31 -2.04682 -4.85194 0
M  V30 11543 H 1068.8 -1.83229 -3.30508 0
M  V30 11544 H 1069.12 -4.28159 -6.4335 0
M  V30 11545 H 1067.46 -3.84477 -5.78967 0
M  V30 11546 H 1070.65 -2.34296 -4.05245 0
M  V30 11547 H 1070.83 -3.45967 -5.47915 0
M  V30 11548 N 1064.23 1.43628 -0.648757 0
M  V30 11549 C 1065.14 2.34554 0.0463037 0
M  V30 11550 C 1066.16 1.53629 0.816952 0
M  V30 11551 O 1067.33 1.86297 0.765212 0
M  V30 11552 C 1064.4 3.3185 1.00381 0
M  V30 11553 C 1063.46 4.2868 0.230589 0
M  V30 11554 C 1062.69 5.21328 1.14249 0
M  V30 11555 O 1062.92 5.18298 2.38166 0
M  V30 11556 O 1061.85 5.98726 0.617296 0
M  V30 11557 H 1065.68 2.95475 -0.702008 0
M  V30 11558 H 1063.26 1.43694 -0.408942 0
M  V30 11559 H 1065.14 3.91692 1.5542 0
M  V30 11560 H 1063.82 2.73439 1.73243 0
M  V30 11561 H 1062.73 3.72332 -0.363282 0
M  V30 11562 H 1064.06 4.90061 -0.458368 0
M  V30 11563 N 1065.71 0.390394 1.52688 0
M  V30 11564 C 1066.66 -0.444229 2.26485 0
M  V30 11565 C 1067.63 -1.05688 1.28138 0
M  V30 11566 O 1068.81 -1.0847 1.56968 0
M  V30 11567 C 1065.95 -1.56501 3.07574 0
M  V30 11568 C 1065.07 -0.975111 4.20851 0
M  V30 11569 C 1064.2 -2.06704 4.89333 0
M  V30 11570 C 1063.24 -1.45309 5.94602 0
M  V30 11571 N 1062.38 -2.48437 6.56676 0
M  V30 11572 H 1067.22 0.191535 2.97384 0
M  V30 11573 H 1064.75 0.106287 1.46716 0
M  V30 11574 H 1066.71 -2.22558 3.52879 0
M  V30 11575 H 1065.34 -2.17107 2.38881 0
M  V30 11576 H 1064.39 -0.204109 3.79852 0
M  V30 11577 H 1065.71 -0.486465 4.96422 0
M  V30 11578 H 1064.86 -2.80528 5.37949 0
M  V30 11579 H 1063.6 -2.58928 4.13289 0
M  V30 11580 H 1062.6 -0.700091 5.45324 0
M  V30 11581 H 1063.83 -0.938775 6.7258 0
M  V30 11582 H 1061.77 -2.99829 5.83471 0
M  V30 11583 H 1061.69 -2.04331 7.27863 0
M  V30 11584 H 1062.96 -3.21888 7.09935 0
M  V30 11585 N 1067.19 -1.57141 0.120249 0
M  V30 11586 C 1068.12 -2.12454 -0.859987 0
M  V30 11587 C 1069.13 -1.06755 -1.22911 0
M  V30 11588 O 1070.32 -1.34124 -1.17784 0
M  V30 11589 C 1067.42 -2.61024 -2.16147 0
M  V30 11590 C 1066.6 -3.90835 -1.96385 0
M  V30 11591 C 1065.65 -4.2499 -3.10274 0
M  V30 11592 O 1064.68 -4.93786 -2.83133 0
M  V30 11593 N 1065.88 -3.82411 -4.36741 0
M  V30 11594 H 1068.65 -2.97186 -0.387402 0
M  V30 11595 H 1066.21 -1.61773 -0.0641376 0
M  V30 11596 H 1068.2 -2.80903 -2.91334 0
M  V30 11597 H 1066.77 -1.81166 -2.5475 0
M  V30 11598 H 1065.99 -3.79853 -1.05383 0
M  V30 11599 H 1067.28 -4.75712 -1.80487 0
M  V30 11600 H 1066.68 -3.26926 -4.61666 0
M  V30 11601 H 1065.23 -4.07395 -5.08795 0
M  V30 11602 N 1068.67 0.153526 -1.5685 0
M  V30 11603 C 1069.61 1.18973 -1.97773 0
M  V30 11604 C 1070.58 1.43041 -0.844311 0
M  V30 11605 O 1071.77 1.55484 -1.10586 0
M  V30 11606 C 1068.91 2.51981 -2.35795 0
M  V30 11607 C 1068.02 2.35143 -3.62397 0
M  V30 11608 C 1067.16 3.61141 -3.89552 0
M  V30 11609 C 1066.2 3.39311 -5.09445 0
M  V30 11610 N 1065.33 4.57423 -5.32643 0
M  V30 11611 H 1070.17 0.833758 -2.86099 0
M  V30 11612 H 1067.71 0.400252 -1.4155 0
M  V30 11613 H 1069.67 3.29527 -2.55867 0
M  V30 11614 H 1068.3 2.85539 -1.50557 0
M  V30 11615 H 1067.35 1.48684 -3.50139 0
M  V30 11616 H 1068.66 2.14969 -4.501 0
M  V30 11617 H 1067.82 4.47117 -4.10087 0
M  V30 11618 H 1066.55 3.84312 -3.00259 0
M  V30 11619 H 1065.56 2.51723 -4.8879 0
M  V30 11620 H 1066.78 3.17545 -6.00285 0
M  V30 11621 H 1064.73 4.8078 -4.46303 0
M  V30 11622 H 1064.65 4.40228 -6.14602 0
M  V30 11623 H 1065.92 5.44632 -5.57671 0
M  V30 11624 N 1070.14 1.51827 0.422667 0
M  V30 11625 C 1071.39 1.6445 1.16786 0
M  V30 11626 C 1071.71 0.373792 1.91995 0
M  V30 11627 O 1072.91 0.379621 2.68833 0
M  V30 11628 C 1071.37 2.90488 2.12473 0
M  V30 11629 C 1070.98 4.24617 1.42844 0
M  V30 11630 C 1072.72 3.12472 2.87335 0
M  V30 11631 C 1070.63 5.41791 2.371 0
M  V30 11632 H 1069.56 0.612561 0.439641 0
M  V30 11633 H 1072.21 1.78305 0.433534 0
M  V30 11634 H 1070.59 2.703 2.89402 0
M  V30 11635 H 1071.76 4.55239 0.71372 0
M  V30 11636 H 1070.08 4.08628 0.800769 0
M  V30 11637 H 1072.68 3.9719 3.57973 0
M  V30 11638 H 1073.02 2.26148 3.49518 0
M  V30 11639 H 1073.55 3.33069 2.17509 0
M  V30 11640 H 1070.29 6.3042 1.79584 0
M  V30 11641 H 1069.81 5.15526 3.06583 0
M  V30 11642 H 1071.49 5.74329 2.97918 0
M  V30 11643 N 1071.62 -0.679052 1.4222 0
M  V30 11644 C 1072.59 -1.77448 1.45069 0
M  V30 11645 C 1073.59 -1.57189 0.338882 0
M  V30 11646 O 1074.78 -1.63559 0.599519 0
M  V30 11647 C 1071.91 -3.1603 1.27819 0
M  V30 11648 H 1073.1 -1.7631 2.426 0
M  V30 11649 H 1070.65 -0.888277 1.28605 0
M  V30 11650 H 1071.39 -3.22796 0.311946 0
M  V30 11651 H 1071.17 -3.32138 2.08391 0
M  V30 11652 H 1072.66 -3.9596 1.32686 0
M  V30 11653 N 1073.1 -1.28322 -0.914942 0
M  V30 11654 C 1074.35 -1.15407 -1.66396 0
M  V30 11655 C 1074.68 0.297587 -1.9221 0
M  V30 11656 O 1073.93 1.23299 -1.51973 0
M  V30 11657 C 1074.23 -1.89663 -3.02924 0
M  V30 11658 C 1073.9 -3.39464 -2.96774 0
M  V30 11659 C 1072.56 -3.80321 -2.94804 0
M  V30 11660 C 1074.91 -4.3499 -2.87111 0
M  V30 11661 C 1072.24 -5.15046 -2.8097 0
M  V30 11662 C 1074.59 -5.69788 -2.74818 0
M  V30 11663 C 1073.25 -6.09921 -2.71205 0
M  V30 11664 H 1072.52 -0.422303 -0.608885 0
M  V30 11665 H 1075.17 -1.59082 -1.06607 0
M  V30 11666 H 1073.48 -1.38533 -3.66491 0
M  V30 11667 H 1075.17 -1.77087 -3.59779 0
M  V30 11668 H 1071.76 -3.06979 -2.99101 0
M  V30 11669 H 1075.95 -4.04389 -2.87721 0
M  V30 11670 H 1071.2 -5.45271 -2.76568 0
M  V30 11671 H 1075.38 -6.43469 -2.66309 0
M  V30 11672 H 1073 -7.14267 -2.60243 0
M  V30 11673 N 1074.58 1.12322 -1.10551 0
M  V30 11674 C 1075.81 1.87679 -0.87087 0
M  V30 11675 C 1076.22 1.79711 0.578733 0
M  V30 11676 O 1075.58 1.17185 1.39907 0
M  V30 11677 C 1075.63 3.36846 -1.31213 0
M  V30 11678 O 1075.35 3.44626 -2.70489 0
M  V30 11679 C 1076.85 4.29138 -1.11156 0
M  V30 11680 H 1074.07 0.593788 -0.3125 0
M  V30 11681 H 1076.62 1.42116 -1.47048 0
M  V30 11682 H 1074.77 3.79948 -0.756169 0
M  V30 11683 H 1075.18 4.37441 -2.89389 0
M  V30 11684 H 1076.66 5.32082 -1.46944 0
M  V30 11685 H 1077.14 4.39171 -0.0502963 0
M  V30 11686 H 1077.74 3.91818 -1.65405 0
M  V30 11687 N 1076.06 0.894434 1.2976 0
M  V30 11688 C 1076.97 0.372622 2.31622 0
M  V30 11689 C 1077.98 -0.52996 1.65733 0
M  V30 11690 O 1079.16 -0.420807 1.96955 0
M  V30 11691 C 1076.22 -0.396076 3.4443 0
M  V30 11692 C 1075.28 0.537394 4.25923 0
M  V30 11693 C 1074.52 -0.194713 5.33345 0
M  V30 11694 O 1074.74 -1.41943 5.52457 0
M  V30 11695 O 1073.67 0.460055 6.00139 0
M  V30 11696 H 1077.5 1.21756 2.78225 0
M  V30 11697 H 1075.09 0.65858 1.34101 0
M  V30 11698 H 1076.97 -0.830962 4.13126 0
M  V30 11699 H 1075.64 -1.21716 2.99945 0
M  V30 11700 H 1074.55 1.02129 3.5989 0
M  V30 11701 H 1075.88 1.32475 4.74037 0
M  V30 11702 N 1077.53 -1.43282 0.656365 0
M  V30 11703 C 1078.78 -2.02603 0.179905 0
M  V30 11704 C 1079.14 -1.50875 -1.19393 0
M  V30 11705 O 1078.43 -0.6935 -1.78609 0
M  V30 11706 C 1078.62 -3.57148 0.134225 0
M  V30 11707 C 1078.45 -4.23872 1.50209 0
M  V30 11708 C 1077.22 -4.59812 2.09526 0
M  V30 11709 C 1079.42 -4.52674 2.44112 0
M  V30 11710 N 1077.4 -5.11624 3.39284 0
M  V30 11711 C 1078.77 -5.05839 3.58506 0
M  V30 11712 C 1080.83 -4.34645 2.42874 0
M  V30 11713 C 1079.53 -5.42872 4.71892 0
M  V30 11714 C 1081.56 -4.72742 3.55343 0
M  V30 11715 C 1080.92 -5.26043 4.68463 0
M  V30 11716 H 1077.02 -0.774177 0.110334 0
M  V30 11717 H 1079.6 -1.74413 0.865352 0
M  V30 11718 H 1077.77 -3.84896 -0.520575 0
M  V30 11719 H 1079.5 -4.03154 -0.3534 0
M  V30 11720 H 1076.26 -4.44958 1.62203 0
M  V30 11721 H 1076.68 -5.4198 4.05693 0
M  V30 11722 H 1081.33 -3.92708 1.56654 0
M  V30 11723 H 1079.04 -5.83752 5.58802 0
M  V30 11724 H 1082.63 -4.60485 3.55591 0
M  V30 11725 H 1081.51 -5.54975 5.54051 0
M  V30 11726 N 1079.01 -0.398486 -1.52479 0
M  V30 11727 C 1080.26 0.182046 -2.00877 0
M  V30 11728 C 1080.58 1.47128 -1.2889 0
M  V30 11729 O 1081.78 2.13242 -1.68048 0
M  V30 11730 C 1080.24 0.374978 -3.57941 0
M  V30 11731 C 1079.85 -0.901544 -4.38835 0
M  V30 11732 C 1081.59 0.911378 -4.14601 0
M  V30 11733 C 1079.5 -0.676385 -5.87519 0
M  V30 11734 H 1078.43 0.0718068 -0.750573 0
M  V30 11735 H 1081.08 -0.522297 -1.7591 0
M  V30 11736 H 1079.46 1.14139 -3.79194 0
M  V30 11737 H 1080.63 -1.67329 -4.29346 0
M  V30 11738 H 1078.95 -1.36357 -3.93441 0
M  V30 11739 H 1081.55 1.09569 -5.23353 0
M  V30 11740 H 1081.89 1.88306 -3.71277 0
M  V30 11741 H 1082.42 0.204296 -3.97275 0
M  V30 11742 H 1079.16 -1.61933 -6.35184 0
M  V30 11743 H 1078.68 0.0562542 -5.99774 0
M  V30 11744 H 1080.36 -0.314454 -6.46235 0
M  V30 11745 N 1080.49 1.57075 -0.12858 0
M  V30 11746 C 1081.4 2.19369 0.831533 0
M  V30 11747 C 1082.42 1.17258 1.28555 0
M  V30 11748 O 1083.59 1.49766 1.34656 0
M  V30 11749 C 1080.66 2.78846 2.06024 0
M  V30 11750 C 1079.72 3.96024 1.65722 0
M  V30 11751 C 1078.95 4.52655 2.82735 0
M  V30 11752 O 1079.18 4.08175 3.98434 0
M  V30 11753 O 1078.11 5.43198 2.59268 0
M  V30 11754 H 1081.94 3.01887 0.331352 0
M  V30 11755 H 1079.52 1.49081 0.0975226 0
M  V30 11756 H 1081.4 3.16721 2.77967 0
M  V30 11757 H 1080.08 1.99353 2.5503 0
M  V30 11758 H 1078.98 3.62899 0.908574 0
M  V30 11759 H 1080.32 4.76981 1.21449 0
M  V30 11760 N 1081.97 -0.145205 1.5693 0
M  V30 11761 C 1083.38 -0.705089 1.72874 0
M  V30 11762 C 1083.73 -1.81577 0.743261 0
M  V30 11763 O 1082.86 -2.16214 -0.0897153 0
M  V30 11764 C 1083.45 -1.28578 3.13454 0
M  V30 11765 C 1082.01 -1.79221 3.30994 0
M  V30 11766 C 1081.16 -0.681392 2.68798 0
M  V30 11767 H 1084.11 0.0804798 1.58496 0
M  V30 11768 H 1084.13 -2.15558 3.13552 0
M  V30 11769 H 1083.64 -0.477186 3.85155 0
M  V30 11770 H 1081.74 -2.62642 2.64292 0
M  V30 11771 H 1081.86 -1.91969 4.38959 0
M  V30 11772 H 1080.22 -1.10847 2.29314 0
M  V30 11773 H 1081 0.115786 3.43105 0
M  V30 11774 N 1083.45 -1.52049 -0.414609 0
M  V30 11775 C 1084.86 -1.58062 -0.993638 0
M  V30 11776 C 1085.21 -0.417795 -1.917 0
M  V30 11777 O 1084.33 0.462558 -2.11399 0
M  V30 11778 C 1084.93 -2.86471 -1.80886 0
M  V30 11779 C 1083.49 -2.94981 -2.33801 0
M  V30 11780 C 1082.64 -2.52949 -1.13631 0
M  V30 11781 H 1085.59 -1.57497 -0.19504 0
M  V30 11782 H 1085.61 -2.71515 -2.66571 0
M  V30 11783 H 1085.12 -3.71085 -1.13657 0
M  V30 11784 H 1083.22 -2.14849 -3.04419 0
M  V30 11785 H 1083.33 -3.99111 -2.65042 0
M  V30 11786 H 1081.7 -2.0667 -1.48861 0
M  V30 11787 H 1082.48 -3.39931 -0.479765 0
M  V30 11788 N 1084.93 0.6715 -1.42579 0
M  V30 11789 C 1085.87 1.78496 -1.46314 0
M  V30 11790 C 1086.84 1.63091 -0.314743 0
M  V30 11791 O 1088.03 1.83597 -0.519292 0
M  V30 11792 C 1085.17 3.16548 -1.37447 0
M  V30 11793 C 1084.28 3.43216 -2.62348 0
M  V30 11794 C 1083.42 4.71014 -2.456 0
M  V30 11795 C 1082.45 4.90728 -3.65859 0
M  V30 11796 N 1081.59 6.09769 -3.48032 0
M  V30 11797 H 1086.43 1.74638 -2.41466 0
M  V30 11798 H 1083.97 0.852491 -1.19879 0
M  V30 11799 H 1085.93 3.96329 -1.30303 0
M  V30 11800 H 1084.56 3.19522 -0.458891 0
M  V30 11801 H 1083.61 2.57664 -2.79846 0
M  V30 11802 H 1084.92 3.53675 -3.51732 0
M  V30 11803 H 1084.07 5.58892 -2.3606 0
M  V30 11804 H 1082.81 4.62843 -1.53712 0
M  V30 11805 H 1081.82 4.01291 -3.75827 0
M  V30 11806 H 1083.04 5.00741 -4.58732 0
M  V30 11807 H 1080.99 6.02765 -2.58864 0
M  V30 11808 H 1080.91 6.21104 -4.31005 0
M  V30 11809 H 1082.17 7.00317 -3.42311 0
M  V30 11810 N 1086.4 1.28806 0.908124 0
M  V30 11811 C 1087.82 1.06634 1.18749 0
M  V30 11812 C 1088.02 -0.187729 2.00624 0
M  V30 11813 O 1087.08 -0.88784 2.36376 0
M  V30 11814 C 1088.39 2.31703 1.91661 0
M  V30 11815 C 1089.94 2.36939 2.04521 0
M  V30 11816 C 1090.41 3.61789 2.80843 0
M  V30 11817 N 1091.9 3.62462 2.88402 0
M  V30 11818 C 1092.64 4.55746 3.47971 0
M  V30 11819 N 1092.13 5.59353 4.08774 0
M  V30 11820 N 1093.93 4.43331 3.45564 0
M  V30 11821 H 1086.08 2.09299 0.36164 0
M  V30 11822 H 1088.34 0.921479 0.222668 0
M  V30 11823 H 1088.05 3.23096 1.38931 0
M  V30 11824 H 1087.92 2.38556 2.92183 0
M  V30 11825 H 1090.31 1.4604 2.5643 0
M  V30 11826 H 1090.39 2.34077 1.03159 0
M  V30 11827 H 1090.03 4.53035 2.29612 0
M  V30 11828 H 1089.96 3.61907 3.82532 0
M  V30 11829 H 1092.45 2.87544 2.45208 0
M  V30 11830 H 1092.77 6.26668 4.52224 0
M  V30 11831 H 1091.11 5.63173 4.07261 0
M  V30 11832 H 1094.3 3.61587 2.97276 0
M  V30 11833 H 1094.48 5.16216 3.91695 0
M  V30 11834 N 1087.88 -1.11734 1.11145 0
M  V30 11835 C 1088.79 -2.21267 0.779607 0
M  V30 11836 C 1089.81 -1.72526 -0.225986 0
M  V30 11837 O 1090.98 -2.01302 -0.0629166 0
M  V30 11838 C 1088.05 -3.45973 0.22435 0
M  V30 11839 C 1087.11 -4.09518 1.28816 0
M  V30 11840 C 1086.34 -5.28271 0.7593 0
M  V30 11841 O 1086.57 -5.68912 -0.411725 0
M  V30 11842 O 1085.5 -5.82322 1.52266 0
M  V30 11843 H 1089.33 -2.5206 1.6941 0
M  V30 11844 H 1086.91 -1.20211 0.887115 0
M  V30 11845 H 1088.79 -4.21322 -0.0810921 0
M  V30 11846 H 1087.47 -3.1684 -0.662891 0
M  V30 11847 H 1086.37 -3.35915 1.64657 0
M  V30 11848 H 1087.71 -4.42824 2.14868 0
M  V30 11849 N 1089.36 -0.901303 -1.29284 0
M  V30 11850 C 1090.78 -0.597634 -1.47988 0
M  V30 11851 C 1090.98 0.860434 -1.82205 0
M  V30 11852 O 1090.03 1.64049 -1.91948 0
M  V30 11853 C 1091.34 -1.52484 -2.5917 0
M  V30 11854 C 1092.89 -1.53021 -2.73045 0
M  V30 11855 C 1093.37 -2.44373 -3.87357 0
M  V30 11856 N 1094.86 -2.42429 -3.94693 0
M  V30 11857 C 1095.59 -3.09817 -4.82495 0
M  V30 11858 N 1095.09 -3.86489 -5.74976 0
M  V30 11859 N 1096.88 -2.98966 -4.76 0
M  V30 11860 H 1089.03 -1.84432 -1.0535 0
M  V30 11861 H 1091.3 -0.790367 -0.523473 0
M  V30 11862 H 1091 -2.56378 -2.40756 0
M  V30 11863 H 1090.88 -1.24657 -3.56006 0
M  V30 11864 H 1093.26 -0.498709 -2.90855 0
M  V30 11865 H 1093.34 -1.84886 -1.76779 0
M  V30 11866 H 1092.99 -3.47618 -3.70302 0
M  V30 11867 H 1092.92 -2.09817 -4.82995 0
M  V30 11868 H 1095.41 -1.86724 -3.28546 0
M  V30 11869 H 1095.72 -4.34959 -6.38773 0
M  V30 11870 H 1094.07 -3.90596 -5.74857 0
M  V30 11871 H 1097.26 -2.38581 -4.02737 0
M  V30 11872 H 1097.43 -3.51758 -5.44215 0
M  V30 11873 N 1090.84 1.42931 -0.663954 0
M  V30 11874 C 1091.78 2.3079 0.0210764 0
M  V30 11875 C 1092.75 1.45356 0.803796 0
M  V30 11876 O 1093.94 1.74207 0.778237 0
M  V30 11877 C 1091.08 3.31069 0.974023 0
M  V30 11878 C 1090.19 4.31598 0.186273 0
M  V30 11879 C 1089.33 5.18955 1.13399 0
M  V30 11880 C 1088.37 6.1117 0.337292 0
M  V30 11881 N 1087.5 6.91114 1.23715 0
M  V30 11882 H 1092.34 2.88819 -0.733995 0
M  V30 11883 H 1089.88 1.42274 -0.373711 0
M  V30 11884 H 1091.84 3.87727 1.54024 0
M  V30 11885 H 1090.47 2.74665 1.69585 0
M  V30 11886 H 1089.52 3.77147 -0.496402 0
M  V30 11887 H 1090.83 4.96919 -0.432753 0
M  V30 11888 H 1089.99 5.80292 1.77049 0
M  V30 11889 H 1088.73 4.53785 1.78691 0
M  V30 11890 H 1087.73 5.48911 -0.312492 0
M  V30 11891 H 1088.96 6.78386 -0.31138 0
M  V30 11892 H 1086.9 6.28583 1.87668 0
M  V30 11893 H 1086.82 7.52999 0.672946 0
M  V30 11894 H 1088.09 7.56948 1.86146 0
M  V30 11895 N 1092.32 0.406567 1.52266 0
M  V30 11896 C 1093.28 -0.408251 2.25535 0
M  V30 11897 C 1094.28 -0.975795 1.27808 0
M  V30 11898 O 1095.47 -0.855077 1.5177 0
M  V30 11899 C 1092.6 -1.57443 3.02365 0
M  V30 11900 H 1093.79 0.233459 2.9899 0
M  V30 11901 H 1091.35 0.159032 1.55489 0
M  V30 11902 H 1092.08 -2.25308 2.33252 0
M  V30 11903 H 1091.87 -1.17399 3.74112 0
M  V30 11904 H 1093.36 -2.15088 3.57948 0
M  V30 11905 N 1093.79 -1.57004 0.136909 0
M  V30 11906 C 1094.74 -2.17524 -0.823784 0
M  V30 11907 C 1095.74 -1.1294 -1.26258 0
M  V30 11908 O 1096.94 -1.3121 -1.23223 0
M  V30 11909 H 1093.32 -0.696381 -0.283827 0
M  V30 11910 H 1095.29 -2.96997 -0.289052 0
M  V30 11911 C 1094.04 -2.80331 -2.05693 0
M  V30 11912 H 1093.36 -3.60515 -1.72825 0
M  V30 11913 H 1094.8 -3.26192 -2.70878 0
M  V30 11914 C 1093.26 -1.78322 -2.85837 0
M  V30 11915 O 1093.79 -1.2475 -3.81838 0
M  V30 11916 N 1092 -1.47854 -2.50175 0
M  V30 11917 H 1091.54 -1.9161 -1.72173 0
M  V30 11918 H 1091.5 -0.798464 -3.04092 0
M  V30 11919 N 1095.27 0.136881 -1.57004 0
M  V30 11920 C 1096.5 0.861186 -1.87796 0
M  V30 11921 C 1096.91 1.74788 -0.724272 0
M  V30 11922 O 1096.25 1.80984 0.31471 0
M  V30 11923 C 1096.32 1.76115 -3.13407 0
M  V30 11924 C 1095.98 1.05059 -4.4476 0
M  V30 11925 C 1096.98 0.399736 -5.18361 0
M  V30 11926 C 1094.66 1.03709 -4.91477 0
M  V30 11927 C 1096.66 -0.255127 -6.36889 0
M  V30 11928 C 1094.34 0.378414 -6.09927 0
M  V30 11929 C 1095.34 -0.266555 -6.8248 0
M  V30 11930 O 1095.03 -0.914757 -7.98679 0
M  V30 11931 H 1094.76 0.253855 -0.626525 0
M  V30 11932 H 1097.31 0.131291 -2.0498 0
M  V30 11933 H 1095.54 2.53224 -2.92257 0
M  V30 11934 H 1097.23 2.3583 -3.30362 0
M  V30 11935 H 1098 0.401909 -4.83332 0
M  V30 11936 H 1093.88 1.52852 -4.34922 0
M  V30 11937 H 1097.42 -0.759135 -6.93457 0
M  V30 11938 H 1093.32 0.373942 -6.44416 0
M  V30 11939 H 1094.09 -0.817437 -8.14408 0
M  V30 11940 N 1096.75 1.52266 0.40654 0
M  V30 11941 C 1097.71 1.75168 1.47814 0
M  V30 11942 C 1098.71 0.621575 1.48301 0
M  V30 11943 O 1099.9 0.889476 1.4978 0
M  V30 11944 C 1097.04 1.83642 2.87208 0
M  V30 11945 H 1098.23 2.70834 1.28798 0
M  V30 11946 H 1095.78 1.42722 0.637196 0
M  V30 11947 H 1096.52 0.898994 3.1159 0
M  V30 11948 H 1096.3 2.65801 2.88257 0
M  V30 11949 H 1097.79 2.03093 3.64888 0
M  V30 11950 N 1098.23 -0.663929 1.42933 0
M  V30 11951 C 1099.47 -1.42603 1.44195 0
M  V30 11952 C 1099.81 -1.94101 0.0620284 0
M  V30 11953 O 1099.08 -1.71609 -0.91546 0
M  V30 11954 C 1099.37 -2.61522 2.47544 0
M  V30 11955 C 1099.22 -2.15587 3.94769 0
M  V30 11956 C 1100.54 -3.6374 2.47753 0
M  V30 11957 H 1097.66 -0.517189 0.525056 0
M  V30 11958 H 1100.3 -0.75361 1.74415 0
M  V30 11959 H 1098.45 -3.1889 2.21904 0
M  V30 11960 H 1100.12 -1.63303 4.31428 0
M  V30 11961 H 1098.36 -1.47057 4.08114 0
M  V30 11962 H 1099.03 -3.01053 4.62678 0
M  V30 11963 H 1101.51 -3.16111 2.70579 0
M  V30 11964 H 1100.39 -4.44512 3.22025 0
M  V30 11965 H 1100.65 -4.15607 1.50742 0
M  V30 11966 N 1099.71 -1.29285 -0.901281 0
M  V30 11967 C 1100.98 -1.07847 -1.63182 0
M  V30 11968 C 1101.36 0.377927 -2.07689 0
M  V30 11969 O 1100.71 1.36642 -1.83143 0
M  V30 11970 C 1100.92 -2.06457 -2.81383 0
M  V30 11971 C 1102.27 -2.37289 -3.52107 0
M  V30 11972 O 1103.29 -2.0464 -2.91549 0
M  V30 11973 O 1102.15 -2.93067 -4.61274 0
M  V30 11974 H 1099.25 -0.413073 -0.71645 0
M  V30 11975 H 1101.79 -1.40651 -0.949488 0
M  V30 11976 H 1100.56 -3.04561 -2.4568 0
M  V30 11977 H 1100.19 -1.74374 -3.57323 0
M  V30 11978 N 1101.18 1.11143 -1.11736 0
M  V30 11979 C 1102.15 2.15456 -0.78174 0
M  V30 11980 C 1103.15 1.59547 0.200383 0
M  V30 11981 O 1104.34 1.74183 -0.0244893 0
M  V30 11982 C 1101.47 3.40523 -0.160364 0
M  V30 11983 H 1102.66 2.46658 -1.70586 0
M  V30 11984 H 1100.22 1.26381 -0.919644 0
M  V30 11985 H 1100.95 3.14932 0.773835 0
M  V30 11986 H 1100.74 3.82386 -0.867378 0
M  V30 11987 H 1102.23 4.17559 0.0582175 0
M  V30 11988 N 1102.66 0.908147 1.28804 0
M  V30 11989 C 1103.89 0.553287 1.99054 0
M  V30 11990 C 1104.3 -0.868455 1.68091 0
M  V30 11991 O 1103.64 -1.58599 0.926939 0
M  V30 11992 C 1103.71 0.675823 3.5309 0
M  V30 11993 C 1103.37 2.06608 4.0763 0
M  V30 11994 C 1104.37 3.03819 4.21889 0
M  V30 11995 C 1102.05 2.37775 4.42457 0
M  V30 11996 C 1104.05 4.30316 4.7022 0
M  V30 11997 C 1101.73 3.64512 4.90484 0
M  V30 11998 C 1102.73 4.60597 5.04321 0
M  V30 11999 O 1102.42 5.85082 5.51302 0
M  V30 12000 H 1102.15 0.210152 0.642504 0
M  V30 12001 H 1104.7 1.22188 1.65104 0
M  V30 12002 H 1102.93 -0.0498253 3.86668 0
M  V30 12003 H 1104.62 0.328884 4.04565 0
M  V30 12004 H 1105.39 2.81057 3.95262 0
M  V30 12005 H 1101.27 1.63742 4.3094 0
M  V30 12006 H 1104.81 5.05318 4.80936 0
M  V30 12007 H 1100.71 3.87101 5.1655 0
M  V30 12008 H 1101.48 5.87791 5.69599 0
M  V30 12009 N 1104.14 -1.42577 0.671525 0
M  V30 12010 C 1105.39 -2.01584 0.192431 0
M  V30 12011 C 1105.72 -1.53076 -1.19992 0
M  V30 12012 O 1104.97 -0.722196 -1.81887 0
M  V30 12013 C 1105.27 -3.56985 0.172097 0
M  V30 12014 C 1104.94 -4.24912 1.50867 0
M  V30 12015 C 1103.6 -4.43182 1.87464 0
M  V30 12016 C 1105.95 -4.6322 2.38908 0
M  V30 12017 C 1103.28 -4.97031 3.11732 0
M  V30 12018 C 1105.63 -5.18447 3.62485 0
M  V30 12019 C 1104.29 -5.34932 3.99255 0
M  V30 12020 H 1103.56 -0.737647 0.0704155 0
M  V30 12021 H 1106.21 -1.70807 0.865862 0
M  V30 12022 H 1104.52 -3.87411 -0.584835 0
M  V30 12023 H 1106.21 -4.00419 -0.215749 0
M  V30 12024 H 1102.8 -4.11048 1.21397 0
M  V30 12025 H 1106.99 -4.4878 2.1192 0
M  V30 12026 H 1102.24 -5.07979 3.40246 0
M  V30 12027 H 1106.42 -5.47075 4.30909 0
M  V30 12028 H 1104.04 -5.76422 4.95623 0
M  V30 12029 N 1105.62 -0.414636 -1.52048 0
M  V30 12030 C 1107.03 -0.0657806 -1.59464 0
M  V30 12031 C 1107.23 1.4225 -1.42713 0
M  V30 12032 O 1106.29 2.18996 -1.25687 0
M  V30 12033 C 1107.6 -0.565618 -2.95332 0
M  V30 12034 C 1109.15 -0.524072 -3.08581 0
M  V30 12035 C 1109.63 -1.00051 -4.46938 0
M  V30 12036 N 1111.12 -0.957555 -4.53194 0
M  V30 12037 C 1111.85 -1.29733 -5.58531 0
M  V30 12038 N 1111.35 -1.70883 -6.71395 0
M  V30 12039 N 1113.14 -1.21694 -5.48769 0
M  V30 12040 H 1105.29 -1.38325 -1.61183 0
M  V30 12041 H 1107.56 -0.568593 -0.758556 0
M  V30 12042 H 1107.26 -1.60604 -3.12888 0
M  V30 12043 H 1107.14 0.0217735 -3.77194 0
M  V30 12044 H 1109.52 0.507319 -2.90707 0
M  V30 12045 H 1109.6 -1.14759 -2.28613 0
M  V30 12046 H 1109.25 -2.03025 -4.65557 0
M  V30 12047 H 1109.18 -0.353754 -5.2541 0
M  V30 12048 H 1111.67 -0.65508 -3.72179 0
M  V30 12049 H 1111.98 -1.95105 -7.47766 0
M  V30 12050 H 1110.33 -1.74791 -6.72661 0
M  V30 12051 H 1113.52 -0.894286 -4.59478 0
M  V30 12052 H 1113.69 -1.48504 -6.30754 0
M  V30 12053 N 1107.1 1.56929 -0.145233 0
M  V30 12054 C 1108.01 2.20238 0.808219 0
M  V30 12055 C 1109.02 1.18615 1.27304 0
M  V30 12056 O 1110.2 1.51186 1.3306 0
M  V30 12057 C 1107.26 2.81016 2.03055 0
M  V30 12058 C 1106.32 3.97759 1.61512 0
M  V30 12059 C 1105.56 4.55628 2.77918 0
M  V30 12060 O 1105.78 4.12378 3.94082 0
M  V30 12061 O 1104.71 5.45917 2.53492 0
M  V30 12062 H 1108.54 3.02221 0.299314 0
M  V30 12063 H 1106.13 1.49176 0.0817051 0
M  V30 12064 H 1108.01 3.19652 2.74592 0
M  V30 12065 H 1106.68 2.02047 2.52901 0
M  V30 12066 H 1105.59 3.63842 0.870033 0
M  V30 12067 H 1106.92 4.78242 1.16383 0
M  V30 12068 N 1108.58 -0.128553 1.57075 0
M  V30 12069 C 1109.54 -1.14215 1.98715 0
M  V30 12070 C 1110.54 -1.34843 0.876019 0
M  V30 12071 O 1111.73 -1.31522 1.14227 0
M  V30 12072 C 1108.86 -2.49865 2.31905 0
M  V30 12073 H 1110.05 -0.784481 2.89458 0
M  V30 12074 H 1107.61 -0.372531 1.51796 0
M  V30 12075 H 1108.34 -2.9057 1.44012 0
M  V30 12076 H 1108.13 -2.3625 3.12935 0
M  V30 12077 H 1109.62 -3.22832 2.64895 0
M  V30 12078 N 1110.05 -1.5248 -0.398459 0
M  V30 12079 C 1110.98 -1.79549 -1.49279 0
M  V30 12080 C 1111.96 -0.647004 -1.57315 0
M  V30 12081 O 1113.15 -0.893661 -1.72416 0
M  V30 12082 C 1110.28 -1.95582 -2.86993 0
M  V30 12083 C 1109.23 -3.1123 -2.93803 0
M  V30 12084 C 1108.56 -3.12501 -4.33874 0
M  V30 12085 C 1109.86 -4.50485 -2.64312 0
M  V30 12086 H 1111.55 -2.71187 -1.26877 0
M  V30 12087 H 1109.1 -1.30492 -0.608924 0
M  V30 12088 H 1111.05 -2.13102 -3.63546 0
M  V30 12089 H 1109.78 -1.00625 -3.10712 0
M  V30 12090 H 1108.44 -2.93477 -2.19697 0
M  V30 12091 H 1108.08 -2.15245 -4.54619 0
M  V30 12092 H 1107.78 -3.90183 -4.39353 0
M  V30 12093 H 1109.31 -3.32164 -5.12347 0
M  V30 12094 H 1110.72 -4.68387 -3.30585 0
M  V30 12095 H 1109.12 -5.30163 -2.81153 0
M  V30 12096 H 1110.19 -4.57848 -1.59696 0
M  V30 12097 N 1111.53 0.65634 -1.43283 0
M  V30 12098 C 1112.95 0.971645 -1.26614 0
M  V30 12099 C 1113.15 2.00662 -0.183612 0
M  V30 12100 O 1112.2 2.48654 0.439003 0
M  V30 12101 C 1113.52 1.45888 -2.6294 0
M  V30 12102 C 1115.06 1.57569 -2.70446 0
M  V30 12103 C 1115.54 2.09684 -4.07181 0
M  V30 12104 N 1117.03 2.16991 -4.0923 0
M  V30 12105 C 1117.77 2.5843 -5.11861 0
M  V30 12106 N 1117.26 2.99188 -6.24867 0
M  V30 12107 N 1119.05 2.58342 -4.99215 0
M  V30 12108 H 1111.21 -0.028573 -2.12381 0
M  V30 12109 H 1113.47 0.0497918 -0.946691 0
M  V30 12110 H 1113.17 0.772823 -3.43104 0
M  V30 12111 H 1113.05 2.43445 -2.88122 0
M  V30 12112 H 1115.44 2.25277 -1.90616 0
M  V30 12113 H 1115.52 0.584529 -2.49032 0
M  V30 12114 H 1115.16 1.42579 -4.87477 0
M  V30 12115 H 1115.09 3.09625 -4.25958 0
M  V30 12116 H 1117.58 1.88278 -3.27658 0
M  V30 12117 H 1117.89 3.29549 -6.99012 0
M  V30 12118 H 1116.24 2.97 -6.28344 0
M  V30 12119 H 1119.43 2.25875 -4.09998 0
M  V30 12120 H 1119.6 2.90316 -5.79328 0
M  V30 12121 N 1113.01 1.29761 0.894412 0
M  V30 12122 C 1114.26 1.18214 1.64782 0
M  V30 12123 C 1114.59 -0.264635 1.92388 0
M  V30 12124 O 1113.86 -1.19051 1.53809 0
M  V30 12125 C 1114.15 2.00138 2.99361 0
M  V30 12126 C 1114 3.52984 2.78787 0
M  V30 12127 C 1115.32 1.83187 4.00163 0
M  V30 12128 H 1112.44 0.430802 0.597979 0
M  V30 12129 H 1115.08 1.59292 1.03566 0
M  V30 12130 H 1113.23 1.65233 3.51611 0
M  V30 12131 H 1114.9 3.97898 2.33398 0
M  V30 12132 H 1113.14 3.77642 2.13469 0
M  V30 12133 H 1113.82 4.05585 3.7444 0
M  V30 12134 H 1116.29 2.13684 3.57041 0
M  V30 12135 H 1115.17 2.42849 4.92255 0
M  V30 12136 H 1115.43 0.788469 4.35012 0
M  V30 12137 N 1114.49 -1.10549 1.12324 0
M  V30 12138 C 1115.71 -1.8681 0.900927 0
M  V30 12139 C 1116.14 -1.80049 -0.54443 0
M  V30 12140 O 1115.5 -1.16957 -1.38531 0
M  V30 12141 C 1115.54 -3.33197 1.37883 0
M  V30 12142 O 1114.65 -4.08628 0.556529 0
M  V30 12143 H 1113.99 -0.579709 0.32378 0
M  V30 12144 H 1116.52 -1.39678 1.49503 0
M  V30 12145 H 1116.53 -3.84047 1.37739 0
M  V30 12146 H 1115.2 -3.37435 2.43127 0
M  V30 12147 H 1113.78 -3.67627 0.62486 0
M  V30 12148 N 1115.97 -0.914965 -1.28321 0
M  V30 12149 C 1116.88 -0.409424 -2.31 0
M  V30 12150 C 1117.89 0.503526 -1.66555 0
M  V30 12151 O 1119.07 0.38942 -1.97599 0
M  V30 12152 C 1116.13 0.34123 -3.45017 0
M  V30 12153 C 1115.19 -0.605087 -4.25014 0
M  V30 12154 C 1114.43 0.109837 -5.33587 0
M  V30 12155 O 1114.65 1.33136 -5.54645 0
M  V30 12156 O 1113.58 -0.555474 -5.99331 0
M  V30 12157 H 1117.41 -1.26167 -2.76253 0
M  V30 12158 H 1114.99 -0.679831 -1.33036 0
M  V30 12159 H 1116.88 0.765132 -4.14396 0
M  V30 12160 H 1115.55 1.16929 -3.01843 0
M  V30 12161 H 1114.46 -1.07841 -3.58219 0
M  V30 12162 H 1115.79 -1.39999 -4.7187 0
M  V30 12163 N 1117.44 1.42219 -0.679077 0
M  V30 12164 C 1118.85 1.8459 -0.279877 0
M  V30 12165 C 1119.21 1.56839 1.17881 0
M  V30 12166 O 1118.33 1.03039 1.90294 0
M  V30 12167 C 1118.93 3.35072 -0.501185 0
M  V30 12168 C 1117.48 3.76076 -0.156065 0
M  V30 12169 C 1116.63 2.65763 -0.791549 0
M  V30 12170 H 1119.58 1.32005 -0.880932 0
M  V30 12171 H 1119.6 3.79708 0.245349 0
M  V30 12172 H 1119.12 3.55239 -1.56291 0
M  V30 12173 H 1117.22 3.61516 0.90205 0
M  V30 12174 H 1117.33 4.75334 -0.599572 0
M  V30 12175 H 1115.69 2.53726 -0.222514 0
M  V30 12176 H 1116.48 2.88751 -1.85682 0
M  V30 12177 N 1118.92 0.422693 1.51826 0
M  V30 12178 C 1119.87 -0.396088 2.27376 0
M  V30 12179 C 1120.84 -1.02946 1.30351 0
M  V30 12180 O 1122.02 -1.05116 1.59233 0
M  V30 12181 C 1119.16 -1.49942 3.10824 0
M  V30 12182 C 1118.28 -0.885623 4.22825 0
M  V30 12183 C 1117.41 -1.96278 4.93608 0
M  V30 12184 C 1116.45 -1.32664 5.97551 0
M  V30 12185 N 1115.59 -2.34452 6.61798 0
M  V30 12186 H 1120.43 0.254571 2.96911 0
M  V30 12187 H 1117.96 0.137383 1.46457 0
M  V30 12188 H 1119.92 -2.15023 3.57521 0
M  V30 12189 H 1118.55 -2.11991 2.43433 0
M  V30 12190 H 1117.6 -0.123491 3.80199 0
M  V30 12191 H 1118.92 -0.381057 4.97342 0
M  V30 12192 H 1118.07 -2.69055 5.43778 0
M  V30 12193 H 1116.81 -2.50103 4.18688 0
M  V30 12194 H 1115.81 -0.584262 5.46687 0
M  V30 12195 H 1117.04 -0.7959 6.7442 0
M  V30 12196 H 1114.99 -2.87385 5.897 0
M  V30 12197 H 1114.9 -1.88845 7.32034 0
M  V30 12198 H 1116.17 -3.06757 7.16603 0
M  V30 12199 N 1120.4 -1.5685 0.153553 0
M  V30 12200 C 1121.36 -2.15894 -0.769564 0
M  V30 12201 C 1122.36 -1.10239 -1.17064 0
M  V30 12202 O 1123.55 -1.35845 -1.09049 0
M  V30 12203 C 1120.68 -2.72738 -2.04516 0
M  V30 12204 H 1121.88 -2.98807 -0.255842 0
M  V30 12205 H 1119.43 -1.56005 -0.0959279 0
M  V30 12206 H 1120.17 -1.9351 -2.60239 0
M  V30 12207 H 1119.95 -3.50042 -1.76672 0
M  V30 12208 H 1121.44 -3.18208 -2.70432 0
M  V30 12209 N 1121.88 0.120221 -1.57141 0
M  V30 12210 C 1123.29 0.677497 -1.73974 0
M  V30 12211 C 1123.64 1.80371 -0.772055 0
M  V30 12212 O 1122.76 2.16329 0.0553062 0
M  V30 12213 C 1123.36 1.23575 -3.1546 0
M  V30 12214 C 1121.92 1.73933 -3.33803 0
M  V30 12215 C 1121.07 0.638542 -2.69848 0
M  V30 12216 H 1124.02 -0.105685 -1.58348 0
M  V30 12217 H 1124.04 2.10542 -3.16942 0
M  V30 12218 H 1123.55 0.415851 -3.85866 0
M  V30 12219 H 1121.65 2.58404 -2.68437 0
M  V30 12220 H 1121.76 1.84961 -4.41957 0
M  V30 12221 H 1120.13 1.07185 -2.31049 0
M  V30 12222 H 1120.91 -0.170356 -3.42877 0
M  V30 12223 N 1123.36 1.52689 0.390367 0
M  V30 12224 C 1124.3 1.7737 1.47677 0
M  V30 12225 C 1125.27 0.616864 1.54221 0
M  V30 12226 O 1126.46 0.856437 1.70499 0
M  V30 12227 C 1123.6 1.94715 2.84921 0
M  V30 12228 C 1122.71 3.22405 2.8754 0
M  V30 12229 C 1121.85 3.30074 4.16202 0
M  V30 12230 C 1120.89 4.51893 4.12867 0
M  V30 12231 N 1120.02 4.56851 5.33134 0
M  V30 12232 H 1124.86 2.70084 1.25932 0
M  V30 12233 H 1122.4 1.33813 0.610943 0
M  V30 12234 H 1124.36 2.02755 3.64618 0
M  V30 12235 H 1122.99 1.05363 3.0512 0
M  V30 12236 H 1122.04 3.23442 2.00223 0
M  V30 12237 H 1123.35 4.12156 2.80943 0
M  V30 12238 H 1122.51 3.3729 5.04302 0
M  V30 12239 H 1121.24 2.38295 4.25519 0
M  V30 12240 H 1120.25 4.44803 3.23156 0
M  V30 12241 H 1121.47 5.44987 4.05174 0
M  V30 12242 H 1119.42 3.67963 5.43083 0
M  V30 12243 H 1119.34 5.40472 5.28607 0
M  V30 12244 H 1120.61 4.6832 6.23134 0
M  V30 12245 N 1124.83 -0.648732 1.43629 0
M  V30 12246 C 1125.8 -1.74331 1.488 0
M  V30 12247 C 1126.8 -1.56434 0.372147 0
M  V30 12248 O 1127.99 -1.6225 0.634078 0
M  V30 12249 C 1125.12 -3.13248 1.34494 0
M  V30 12250 H 1126.31 -1.71125 2.46285 0
M  V30 12251 H 1123.87 -0.860798 1.30461 0
M  V30 12252 H 1124.6 -3.22062 0.380345 0
M  V30 12253 H 1124.39 -3.27643 2.15389 0
M  V30 12254 H 1125.88 -3.93056 1.41055 0
M  V30 12255 N 1126.31 -1.30234 -0.887518 0
M  V30 12256 C 1127.72 -1.17048 -1.45453 0
M  V30 12257 C 1128.07 0.229793 -1.9485 0
M  V30 12258 O 1127.2 1.12628 -1.84781 0
M  V30 12259 C 1127.79 -2.11876 -2.64375 0
M  V30 12260 C 1126.35 -2.02676 -3.17174 0
M  V30 12261 C 1125.5 -2.02104 -1.89866 0
M  V30 12262 H 1128.45 -1.42541 -0.697694 0
M  V30 12263 H 1128.47 -1.69811 -3.40506 0
M  V30 12264 H 1127.98 -3.13781 -2.28392 0
M  V30 12265 H 1126.09 -1.03904 -3.57819 0
M  V30 12266 H 1126.2 -2.90939 -3.80646 0
M  V30 12267 H 1124.56 -1.4687 -2.0809 0
M  V30 12268 H 1125.35 -3.05735 -1.56145 0
M  V30 12269 N 1127.79 1.09952 -1.12909 0
M  V30 12270 C 1129.21 1.34051 -0.866172 0
M  V30 12271 C 1129.41 1.95169 0.501125 0
M  V30 12272 O 1128.46 2.19458 1.24878 0
M  V30 12273 C 1129.78 2.25738 -1.98653 0
M  V30 12274 C 1131.32 2.39261 -2.01799 0
M  V30 12275 C 1131.8 3.3428 -3.13083 0
M  V30 12276 N 1133.29 3.41851 -3.12558 0
M  V30 12277 C 1134.02 4.15358 -3.95304 0
M  V30 12278 N 1133.52 4.91709 -4.88051 0
M  V30 12279 N 1135.31 4.11027 -3.83423 0
M  V30 12280 H 1127.46 0.686521 -2.00999 0
M  V30 12281 H 1129.73 0.364913 -0.874953 0
M  V30 12282 H 1129.43 1.88048 -2.97205 0
M  V30 12283 H 1129.31 3.26085 -1.89601 0
M  V30 12284 H 1131.69 2.76218 -1.03864 0
M  V30 12285 H 1131.78 1.38712 -2.14925 0
M  V30 12286 H 1131.42 2.98048 -4.11254 0
M  V30 12287 H 1131.35 4.34721 -2.97195 0
M  V30 12288 H 1133.84 2.87405 -2.45371 0
M  V30 12289 H 1134.15 5.45212 -5.47689 0
M  V30 12290 H 1132.5 4.90816 -4.92061 0
M  V30 12291 H 1135.69 3.50477 -3.10296 0
M  V30 12292 H 1135.86 4.68054 -4.4814 0
M  V30 12293 N 1129.27 0.921757 1.27833 0
M  V30 12294 C 1130.68 0.604496 1.76643 0
M  V30 12295 C 1131.03 -0.880294 1.75343 0
M  V30 12296 O 1130.16 -1.68875 1.35315 0
M  V30 12297 C 1130.75 1.09055 3.20768 0
M  V30 12298 C 1129.31 0.824066 3.67268 0
M  V30 12299 C 1128.46 1.25269 2.47392 0
M  V30 12300 H 1131.41 1.10217 1.14184 0
M  V30 12301 H 1131.43 0.435558 3.77999 0
M  V30 12302 H 1130.94 2.17122 3.21682 0
M  V30 12303 H 1129.04 -0.243055 3.71806 0
M  V30 12304 H 1129.15 1.43743 4.57028 0
M  V30 12305 H 1127.52 0.671313 2.45694 0
M  V30 12306 H 1128.3 2.34188 2.5102 0
M  V30 12307 N 1130.75 -1.41857 0.686609 0
M  V30 12308 C 1132.16 -1.84439 0.289662 0
M  V30 12309 C 1132.51 -1.57462 -1.17047 0
M  V30 12310 O 1131.63 -1.04046 -1.89745 0
M  V30 12311 C 1132.23 -3.34802 0.518948 0
M  V30 12312 C 1130.79 -3.75988 0.176007 0
M  V30 12313 C 1129.93 -2.65339 0.805632 0
M  V30 12314 H 1132.89 -1.31536 0.88792 0
M  V30 12315 H 1132.91 -3.79833 -0.225209 0
M  V30 12316 H 1132.42 -3.54405 1.58173 0
M  V30 12317 H 1130.52 -3.61989 -0.882865 0
M  V30 12318 H 1130.63 -4.75009 0.624772 0
M  V30 12319 H 1129 -2.53605 0.235966 0
M  V30 12320 H 1129.78 -2.87762 1.8721 0
M  V30 12321 N 1132.22 -0.430739 -1.51599 0
M  V30 12322 C 1133.17 0.384024 -2.27583 0
M  V30 12323 C 1134.14 1.02254 -1.30895 0
M  V30 12324 O 1135.33 1.0427 -1.59789 0
M  V30 12325 C 1132.47 1.48291 -3.11615 0
M  V30 12326 C 1131.58 0.863187 -4.23288 0
M  V30 12327 C 1130.71 1.93657 -4.94642 0
M  V30 12328 C 1129.75 1.29493 -5.98246 0
M  V30 12329 N 1128.89 2.30939 -6.63032 0
M  V30 12330 H 1133.73 -0.270314 -2.96771 0
M  V30 12331 H 1131.27 -0.145148 -1.46382 0
M  V30 12332 H 1133.23 2.13124 -3.58656 0
M  V30 12333 H 1131.86 2.10697 -2.44554 0
M  V30 12334 H 1130.91 0.103326 -3.8026 0
M  V30 12335 H 1132.22 0.354676 -4.97537 0
M  V30 12336 H 1131.37 2.66167 -5.45197 0
M  V30 12337 H 1130.11 2.4788 -4.20008 0
M  V30 12338 H 1129.12 0.555262 -5.46989 0
M  V30 12339 H 1130.34 0.760122 -6.74833 0
M  V30 12340 H 1128.29 2.84254 -5.91216 0
M  V30 12341 H 1128.21 1.84961 -7.33025 0
M  V30 12342 H 1129.47 3.02953 -7.1822 0
M  V30 12343 N 1133.7 1.56767 -0.161869 0
M  V30 12344 C 1134.63 2.1466 0.803356 0
M  V30 12345 C 1135.65 1.09977 1.20037 0
M  V30 12346 O 1136.84 1.37199 1.14187 0
M  V30 12347 C 1133.94 2.66663 2.09151 0
M  V30 12348 C 1133.11 3.95904 1.85953 0
M  V30 12349 C 1132.17 4.33067 2.98897 0
M  V30 12350 O 1131.19 5.01119 2.69942 0
M  V30 12351 N 1132.4 3.93856 4.26448 0
M  V30 12352 H 1135.16 2.98108 0.308472 0
M  V30 12353 H 1132.72 1.61886 0.0212238 0
M  V30 12354 H 1134.71 2.88528 2.83784 0
M  V30 12355 H 1133.28 1.87856 2.49857 0
M  V30 12356 H 1132.5 3.82513 0.952751 0
M  V30 12357 H 1133.79 4.8033 1.67811 0
M  V30 12358 H 1133.19 3.39051 4.52836 0
M  V30 12359 H 1131.75 4.20741 4.97815 0
M  V30 12360 N 1135.18 -0.111886 1.57202 0
M  V30 12361 C 1136.59 -0.668261 1.74331 0
M  V30 12362 C 1136.94 -1.79959 0.781609 0
M  V30 12363 O 1136.07 -2.16356 -0.043833 0
M  V30 12364 C 1136.66 -1.219 3.1611 0
M  V30 12365 C 1135.22 -1.7216 3.34721 0
M  V30 12366 C 1134.37 -0.624223 2.70183 0
M  V30 12367 H 1137.32 0.114081 1.58289 0
M  V30 12368 H 1137.34 -2.08858 3.18054 0
M  V30 12369 H 1136.85 -0.395381 3.86081 0
M  V30 12370 H 1134.95 -2.56976 2.69803 0
M  V30 12371 H 1135.07 -1.82615 4.42932 0
M  V30 12372 H 1133.43 -1.05958 2.31614 0
M  V30 12373 H 1134.21 0.188537 3.42782 0
M  V30 12374 N 1136.66 -1.52894 -0.382264 0
M  V30 12375 C 1137.61 -1.78799 -1.48774 0
M  V30 12376 C 1138.6 -0.65624 -1.56173 0
M  V30 12377 O 1139.81 -0.838856 -1.59258 0
M  V30 12378 H 1136.18 -0.565855 -0.49529 0
M  V30 12379 H 1138.15 -2.7136 -1.24122 0
M  V30 12380 C 1136.9 -1.97987 -2.85826 0
M  V30 12381 H 1136.22 -2.84505 -2.80886 0
M  V30 12382 H 1137.66 -2.20099 -3.62398 0
M  V30 12383 C 1136.12 -0.75427 -3.28348 0
M  V30 12384 O 1136.65 0.0650749 -4.01647 0
M  V30 12385 N 1134.86 -0.582457 -2.84703 0
M  V30 12386 H 1134.41 -1.25034 -2.2522 0
M  V30 12387 H 1134.36 0.236208 -3.13511 0
M  V30 12388 N 1138.14 0.641106 -1.43971 0
M  V30 12389 C 1139.38 1.40291 -1.46445 0
M  V30 12390 C 1139.72 1.93978 -0.0929004 0
M  V30 12391 O 1138.99 1.73043 0.888043 0
M  V30 12392 C 1139.27 2.57551 -2.51673 0
M  V30 12393 C 1139.13 2.09279 -3.98149 0
M  V30 12394 C 1140.45 3.59752 -2.53508 0
M  V30 12395 H 1137.57 0.508771 -0.533218 0
M  V30 12396 H 1140.21 0.725767 -1.75592 0
M  V30 12397 H 1138.36 3.15319 -2.2695 0
M  V30 12398 H 1140.03 1.56418 -4.33971 0
M  V30 12399 H 1138.27 1.40545 -4.10402 0
M  V30 12400 H 1138.94 2.93655 -4.67409 0
M  V30 12401 H 1141.42 3.11766 -2.75574 0
M  V30 12402 H 1140.3 4.39332 -3.29057 0
M  V30 12403 H 1140.56 4.13156 -1.57335 0
M  V30 12404 N 1139.62 1.30703 0.880598 0
M  V30 12405 C 1140.55 1.1327 1.99255 0
M  V30 12406 C 1141.56 0.0747186 1.62628 0
M  V30 12407 O 1142.75 0.321169 1.75587 0
M  V30 12408 C 1139.85 0.706179 3.31461 0
M  V30 12409 C 1139.02 1.84687 3.96497 0
M  V30 12410 C 1138.08 1.40817 5.07008 0
M  V30 12411 O 1137.11 2.1161 5.28403 0
M  V30 12412 N 1138.31 0.289619 5.79777 0
M  V30 12413 H 1141.07 2.09043 2.14759 0
M  V30 12414 H 1138.64 1.22896 1.05395 0
M  V30 12415 H 1140.63 0.395617 4.02762 0
M  V30 12416 H 1139.2 -0.159631 3.12192 0
M  V30 12417 H 1138.42 2.32531 3.18312 0
M  V30 12418 H 1139.71 2.61117 4.36687 0
M  V30 12419 H 1139.1 -0.300177 5.64903 0
M  V30 12420 H 1137.66 0.0385346 6.51789 0
M  V30 12421 N 1141.09 -1.09351 1.1349 0
M  V30 12422 C 1142.37 -1.78121 0.808225 0
M  V30 12423 C 1142.75 -1.99154 -0.700072 0
M  V30 12424 O 1142.1 -1.59356 -1.63762 0
M  V30 12425 C 1142.31 -3.10368 1.59601 0
M  V30 12426 C 1143.66 -3.85063 1.78919 0
M  V30 12427 O 1144.68 -3.20122 1.56206 0
M  V30 12428 O 1143.54 -5.01648 2.16821 0
M  V30 12429 H 1140.63 -0.77253 0.295173 0
M  V30 12430 H 1143.18 -1.15901 1.23956 0
M  V30 12431 H 1141.95 -2.90549 2.62101 0
M  V30 12432 H 1141.57 -3.80312 1.15967 0
M  V30 12433 N 1142.57 -0.928524 -1.27343 0
M  V30 12434 C 1143.82 -0.569392 -1.9433 0
M  V30 12435 C 1144.15 0.889481 -1.7297 0
M  V30 12436 O 1143.4 1.6499 -1.05247 0
M  V30 12437 C 1143.7 -0.84269 -3.47323 0
M  V30 12438 C 1143.37 -2.28344 -3.88806 0
M  V30 12439 C 1142.03 -2.67731 -3.99842 0
M  V30 12440 C 1144.38 -3.22031 -4.09811 0
M  V30 12441 C 1141.71 -3.99928 -4.29272 0
M  V30 12442 C 1144.06 -4.5381 -4.40725 0
M  V30 12443 C 1142.72 -4.93031 -4.49975 0
M  V30 12444 H 1141.99 -0.208355 -0.711104 0
M  V30 12445 H 1144.64 -1.17264 -1.51398 0
M  V30 12446 H 1142.95 -0.156775 -3.91486 0
M  V30 12447 H 1144.64 -0.543779 -3.97296 0
M  V30 12448 H 1141.23 -1.96787 -3.80753 0
M  V30 12449 H 1145.42 -2.92803 -4.00724 0
M  V30 12450 H 1140.67 -4.29996 -4.34642 0
M  V30 12451 H 1144.85 -5.26407 -4.55926 0
M  V30 12452 H 1142.47 -5.95497 -4.72533 0
M  V30 12453 N 1144.05 1.41491 -0.694123 0
M  V30 12454 C 1144.98 2.29197 0.0112742 0
M  V30 12455 C 1145.99 1.44708 0.745877 0
M  V30 12456 O 1147.18 1.68227 0.596821 0
M  V30 12457 C 1144.28 3.22547 1.04004 0
M  V30 12458 C 1143.46 4.35787 0.375347 0
M  V30 12459 C 1142.52 5.09722 1.30652 0
M  V30 12460 O 1141.54 5.63558 0.799459 0
M  V30 12461 N 1142.74 5.1705 2.63893 0
M  V30 12462 H 1145.51 2.90377 -0.741705 0
M  V30 12463 H 1143.07 1.52628 -0.540039 0
M  V30 12464 H 1145.06 3.68878 1.66468 0
M  V30 12465 H 1143.63 2.62685 1.69456 0
M  V30 12466 H 1142.85 3.91857 -0.429145 0
M  V30 12467 H 1144.14 5.08726 -0.0869041 0
M  V30 12468 H 1143.54 4.74756 3.07609 0
M  V30 12469 H 1142.09 5.66962 3.21555 0
M  V30 12470 N 1145.53 0.438773 1.51369 0
M  V30 12471 C 1146.77 -0.127213 2.021 0
M  V30 12472 C 1147.1 -1.42587 1.32284 0
M  V30 12473 O 1146.36 -1.90986 0.426949 0
M  V30 12474 C 1146.66 -0.39186 3.55245 0
M  V30 12475 C 1146.32 0.821158 4.4336 0
M  V30 12476 C 1144.98 1.15381 4.67162 0
M  V30 12477 C 1147.34 1.6303 4.95046 0
M  V30 12478 C 1144.66 2.29626 5.39897 0
M  V30 12479 C 1147.02 2.76376 5.69033 0
M  V30 12480 C 1145.68 3.10094 5.91099 0
M  V30 12481 H 1144.95 -0.0465505 0.739536 0
M  V30 12482 H 1147.6 0.586261 1.82305 0
M  V30 12483 H 1145.9 -1.18724 3.73379 0
M  V30 12484 H 1147.6 -0.843228 3.92034 0
M  V30 12485 H 1144.19 0.551946 4.25031 0
M  V30 12486 H 1148.37 1.38651 4.76539 0
M  V30 12487 H 1143.63 2.56062 5.55196 0
M  V30 12488 H 1147.8 3.39442 6.08072 0
M  V30 12489 H 1145.43 3.98731 6.47238 0
M  V30 12490 N 1147.01 -1.56678 0.170181 0
M  V30 12491 C 1148.25 -1.96849 -0.475064 0
M  V30 12492 C 1148.58 -1.05611 -1.6333 0
M  V30 12493 O 1147.84 -0.0899708 -1.95493 0
M  V30 12494 C 1148.13 -3.43103 -1.00076 0
M  V30 12495 C 1147.8 -4.50881 0.0414538 0
M  V30 12496 C 1146.46 -4.80082 0.327894 0
M  V30 12497 C 1148.81 -5.15791 0.748936 0
M  V30 12498 C 1146.14 -5.71491 1.32722 0
M  V30 12499 C 1148.49 -6.08278 1.73724 0
M  V30 12500 C 1147.16 -6.35847 2.03114 0
M  V30 12501 H 1146.43 -0.72032 -0.173838 0
M  V30 12502 H 1149.08 -1.89701 0.261903 0
M  V30 12503 H 1147.38 -3.47197 -1.81553 0
M  V30 12504 H 1149.08 -3.71525 -1.50899 0
M  V30 12505 H 1145.67 -4.2817 -0.191976 0
M  V30 12506 H 1149.85 -4.93344 0.540852 0
M  V30 12507 H 1145.11 -5.91134 1.56112 0
M  V30 12508 H 1149.28 -6.57643 2.29082 0
M  V30 12509 H 1146.91 -7.06479 2.80698 0
M  V30 12510 N 1148.48 0.103547 -1.57259 0
M  V30 12511 C 1149.89 0.659006 -1.74683 0
M  V30 12512 C 1150.25 1.79542 -0.791142 0
M  V30 12513 O 1149.37 2.16376 0.0323585 0
M  V30 12514 C 1149.97 1.20222 -3.16752 0
M  V30 12515 C 1148.52 1.70382 -3.35629 0
M  V30 12516 C 1147.67 0.609886 -2.7051 0
M  V30 12517 H 1150.62 -0.122474 -1.58227 0
M  V30 12518 H 1150.64 2.07169 -3.19157 0
M  V30 12519 H 1150.16 0.374901 -3.86285 0
M  V30 12520 H 1148.26 2.55542 -2.71162 0
M  V30 12521 H 1148.37 1.80263 -4.43894 0
M  V30 12522 H 1146.73 1.04728 -2.32173 0
M  V30 12523 H 1147.52 -0.206713 -3.42677 0
M  V30 12524 N 1149.96 1.53094 0.37415 0
M  V30 12525 C 1151.37 1.60641 0.951381 0
M  V30 12526 C 1151.72 0.468474 1.90525 0
M  V30 12527 O 1150.85 -0.406347 2.12551 0
M  V30 12528 C 1151.44 2.91166 1.73228 0
M  V30 12529 C 1150 3.01077 2.25898 0
M  V30 12530 C 1149.15 2.55873 1.06885 0
M  V30 12531 H 1152.1 1.57959 0.153214 0
M  V30 12532 H 1152.12 2.78487 2.59278 0
M  V30 12533 H 1151.63 3.73968 1.03778 0
M  V30 12534 H 1149.73 2.22844 2.98615 0
M  V30 12535 H 1149.85 4.05998 2.54367 0
M  V30 12536 H 1148.21 2.10544 1.43329 0
M  V30 12537 H 1148.99 3.41084 0.38947 0
M  V30 12538 N 1151.44 -0.633461 1.44309 0
M  V30 12539 C 1152.86 -0.951379 1.28144 0
M  V30 12540 C 1153.06 -2.00344 0.215512 0
M  V30 12541 O 1152.11 -2.49321 -0.399389 0
M  V30 12542 C 1153.42 -1.41686 2.65227 0
M  V30 12543 C 1154.97 -1.53247 2.72918 0
M  V30 12544 C 1155.45 -2.03179 4.10466 0
M  V30 12545 N 1156.94 -2.10453 4.1263 0
M  V30 12546 C 1157.67 -2.50254 5.15907 0
M  V30 12547 N 1157.17 -2.89209 6.29547 0
M  V30 12548 N 1158.96 -2.50368 5.03262 0
M  V30 12549 H 1151.11 0.0623574 2.12308 0
M  V30 12550 H 1153.38 -0.0347244 0.947364 0
M  V30 12551 H 1153.08 -0.71814 3.4429 0
M  V30 12552 H 1152.96 -2.3883 2.91959 0
M  V30 12553 H 1155.34 -2.22216 1.94176 0
M  V30 12554 H 1155.42 -0.544836 2.4993 0
M  V30 12555 H 1155.07 -1.34806 4.89683 0
M  V30 12556 H 1155 -3.02809 4.3083 0
M  V30 12557 H 1157.49 -1.83042 3.30612 0
M  V30 12558 H 1157.8 -3.18386 7.04166 0
M  V30 12559 H 1156.15 -2.86966 6.32989 0
M  V30 12560 H 1159.34 -2.19324 4.13539 0
M  V30 12561 H 1159.51 -2.81062 5.83873 0
M  V30 12562 N 1152.92 -1.31168 -0.873655 0
M  V30 12563 C 1153.85 -1.21094 -1.99646 0
M  V30 12564 C 1154.83 -0.0989684 -1.69812 0
M  V30 12565 O 1156.01 -0.282939 -1.92128 0
M  V30 12566 C 1153.14 -0.913684 -3.35066 0
M  V30 12567 C 1152.1 -1.98482 -3.79195 0
M  V30 12568 C 1151.42 -1.54033 -5.12033 0
M  V30 12569 C 1152.72 -3.39745 -3.96699 0
M  V30 12570 H 1154.42 -2.1503 -2.08333 0
M  V30 12571 H 1151.96 -1.03521 -1.00097 0
M  V30 12572 H 1153.92 -0.829821 -4.13149 0
M  V30 12573 H 1152.64 0.0613471 -3.26542 0
M  V30 12574 H 1151.3 -2.05851 -3.03349 0
M  V30 12575 H 1150.95 -0.553261 -4.99948 0
M  V30 12576 H 1150.65 -2.25688 -5.4253 0
M  V30 12577 H 1152.17 -1.47047 -5.92629 0
M  V30 12578 H 1153.59 -3.35071 -4.65188 0
M  V30 12579 H 1151.98 -4.09585 -4.38589 0
M  V30 12580 H 1153.05 -3.80802 -3.00196 0
M  V30 12581 N 1154.4 1.08748 -1.14068 0
M  V30 12582 C 1155.64 1.81065 -0.906738 0
M  V30 12583 C 1155.97 1.86057 0.566844 0
M  V30 12584 O 1155.23 1.32976 1.43582 0
M  V30 12585 C 1155.53 3.26734 -1.44843 0
M  V30 12586 C 1155.19 3.41866 -2.94005 0
M  V30 12587 C 1153.85 3.45703 -3.34729 0
M  V30 12588 C 1156.21 3.45831 -3.89937 0
M  V30 12589 C 1153.53 3.51092 -4.70055 0
M  V30 12590 C 1155.89 3.52755 -5.25116 0
M  V30 12591 C 1154.55 3.54863 -5.65357 0
M  V30 12592 H 1153.82 0.662564 -0.331799 0
M  V30 12593 H 1156.47 1.28065 -1.42378 0
M  V30 12594 H 1154.77 3.82419 -0.852239 0
M  V30 12595 H 1156.47 3.81236 -1.2434 0
M  V30 12596 H 1153.06 3.39568 -2.61518 0
M  V30 12597 H 1157.24 3.421 -3.59557 0
M  V30 12598 H 1152.5 3.51015 -5.00598 0
M  V30 12599 H 1156.67 3.54768 -5.9926 0
M  V30 12600 H 1154.3 3.58792 -6.70203 0
M  V30 12601 N 1155.87 0.935264 1.26849 0
M  V30 12602 C 1156.78 0.446122 2.30319 0
M  V30 12603 C 1157.8 -0.476965 1.67335 0
M  V30 12604 O 1158.98 -0.357934 1.98194 0
M  V30 12605 C 1156.04 -0.286297 3.45516 0
M  V30 12606 C 1155.1 0.672626 4.23998 0
M  V30 12607 C 1154.34 -0.0249345 5.33694 0
M  V30 12608 O 1154.56 -1.24296 5.56693 0
M  V30 12609 O 1153.49 0.650752 5.98372 0
M  V30 12610 H 1157.32 1.30546 2.74211 0
M  V30 12611 H 1154.9 0.70091 1.31938 0
M  V30 12612 H 1156.79 -0.699109 4.1556 0
M  V30 12613 H 1155.46 -1.12112 3.03665 0
M  V30 12614 H 1154.37 1.13527 3.56458 0
M  V30 12615 H 1155.7 1.47489 4.69583 0
M  V30 12616 N 1157.35 -1.41121 0.701616 0
M  V30 12617 C 1158.28 -2.33436 0.0545974 0
M  V30 12618 C 1159.26 -1.52144 -0.760662 0
M  V30 12619 O 1160.45 -1.80661 -0.712414 0
M  V30 12620 C 1157.58 -3.36015 -0.878117 0
M  V30 12621 C 1156.53 -4.27664 -0.169511 0
M  V30 12622 C 1155.86 -5.20666 -1.21699 0
M  V30 12623 C 1157.16 -5.13254 0.967859 0
M  V30 12624 H 1158.85 -2.87791 0.825637 0
M  V30 12625 H 1156.4 -1.38377 0.398484 0
M  V30 12626 H 1158.35 -3.99526 -1.34004 0
M  V30 12627 H 1157.08 -2.80024 -1.68089 0
M  V30 12628 H 1155.73 -3.65586 0.272441 0
M  V30 12629 H 1155.38 -4.60987 -2.01246 0
M  V30 12630 H 1155.08 -5.82822 -0.747836 0
M  V30 12631 H 1156.61 -5.87053 -1.6793 0
M  V30 12632 H 1158.02 -5.70298 0.585944 0
M  V30 12633 H 1156.42 -5.84381 1.3645 0
M  V30 12634 H 1157.49 -4.5006 1.80483 0
M  V30 12635 N 1158.83 -0.446794 -1.51134 0
M  V30 12636 C 1159.76 0.350229 -2.30858 0
M  V30 12637 C 1160.74 1.0125 -1.36684 0
M  V30 12638 O 1161.93 1.01433 -1.65605 0
M  V30 12639 C 1159.06 1.4464 -3.15748 0
M  V30 12640 C 1158.01 0.907102 -4.18277 0
M  V30 12641 C 1157.34 2.09974 -4.91747 0
M  V30 12642 C 1158.64 -0.0649758 -5.2226 0
M  V30 12643 H 1160.33 -0.315105 -2.97737 0
M  V30 12644 H 1157.88 -0.152985 -1.43185 0
M  V30 12645 H 1159.83 2.01127 -3.70305 0
M  V30 12646 H 1158.55 2.14016 -2.46708 0
M  V30 12647 H 1157.21 0.364382 -3.64785 0
M  V30 12648 H 1156.86 2.77991 -4.19202 0
M  V30 12649 H 1156.56 1.74523 -5.61084 0
M  V30 12650 H 1158.08 2.66996 -5.49131 0
M  V30 12651 H 1159.5 0.4099 -5.71833 0
M  V30 12652 H 1157.9 -0.332529 -5.99178 0
M  V30 12653 H 1158.97 -0.998681 -4.74504 0
M  V30 12654 N 1160.31 1.56586 -0.178487 0
M  V30 12655 C 1161.22 2.21903 0.761321 0
M  V30 12656 C 1162.23 1.21289 1.2476 0
M  V30 12657 O 1163.41 1.53974 1.29823 0
M  V30 12658 C 1160.48 2.85259 1.97048 0
M  V30 12659 C 1159.54 4.01095 1.53039 0
M  V30 12660 C 1158.77 4.61421 2.68191 0
M  V30 12661 O 1158.99 4.20644 3.85247 0
M  V30 12662 O 1157.93 5.51171 2.41855 0
M  V30 12663 H 1161.75 3.02788 0.235141 0
M  V30 12664 H 1159.34 1.49316 0.0500442 0
M  V30 12665 H 1161.22 3.25404 2.6775 0
M  V30 12666 H 1159.89 2.07366 2.48558 0
M  V30 12667 H 1158.8 3.65606 0.792661 0
M  V30 12668 H 1160.13 4.80603 1.06213 0
M  V30 12669 N 1161.79 -0.095206 1.57312 0
M  V30 12670 C 1162.73 -1.11551 2.02052 0
M  V30 12671 C 1163.7 -1.39808 0.896818 0
M  V30 12672 O 1164.89 -1.51273 1.1628 0
M  V30 12673 C 1162.03 -2.43056 2.44985 0
M  V30 12674 C 1161.14 -2.21531 3.70875 0
M  V30 12675 C 1160.28 -3.46434 4.02687 0
M  V30 12676 C 1159.32 -3.2017 5.21687 0
M  V30 12677 N 1158.45 -4.37339 5.49253 0
M  V30 12678 H 1163.29 -0.727 2.88996 0
M  V30 12679 H 1160.83 -0.347441 1.42938 0
M  V30 12680 H 1162.79 -3.19803 2.67921 0
M  V30 12681 H 1161.42 -2.79754 1.61051 0
M  V30 12682 H 1160.47 -1.35587 3.55416 0
M  V30 12683 H 1161.78 -1.98116 4.57768 0
M  V30 12684 H 1160.94 -4.31589 4.26399 0
M  V30 12685 H 1159.67 -3.72904 3.14315 0
M  V30 12686 H 1158.68 -2.33409 4.97796 0
M  V30 12687 H 1159.9 -2.95047 6.11657 0
M  V30 12688 H 1157.85 -4.63885 4.6384 0
M  V30 12689 H 1157.77 -4.17114 6.30517 0
M  V30 12690 H 1159.04 -5.23559 5.775 0
M  V30 12691 N 1163.26 -1.53291 -0.366026 0
M  V30 12692 C 1164.17 -1.82656 -1.47221 0
M  V30 12693 C 1165.19 -0.71491 -1.58635 0
M  V30 12694 O 1166.37 -1.00492 -1.74538 0
M  V30 12695 C 1163.43 -2.00995 -2.82492 0
M  V30 12696 C 1162.49 -3.24895 -2.8061 0
M  V30 12697 C 1161.73 -3.4235 -4.09429 0
M  V30 12698 O 1161.95 -2.6411 -5.05571 0
M  V30 12699 O 1160.88 -4.35702 -4.15268 0
M  V30 12700 H 1164.71 -2.76634 -1.2533 0
M  V30 12701 H 1162.29 -1.38665 -0.556084 0
M  V30 12702 H 1164.18 -2.14632 -3.62645 0
M  V30 12703 H 1162.85 -1.10207 -3.04362 0
M  V30 12704 H 1161.76 -3.16682 -1.99157 0
M  V30 12705 H 1163.09 -4.15604 -2.63694 0
M  V30 12706 N 1164.74 0.6258 -1.44643 0
M  V30 12707 C 1165.99 1.38125 -1.46984 0
M  V30 12708 C 1166.3 1.95299 -0.108429 0
M  V30 12709 O 1167.51 2.71498 -0.00940005 0
M  V30 12710 C 1165.97 2.50108 -2.58793 0
M  V30 12711 C 1165.57 1.99424 -4.01166 0
M  V30 12712 C 1167.32 3.27269 -2.70361 0
M  V30 12713 C 1165.23 3.08781 -5.04389 0
M  V30 12714 H 1164.16 0.519083 -0.546872 0
M  V30 12715 H 1166.81 0.67268 -1.70726 0
M  V30 12716 H 1165.19 3.23565 -2.28302 0
M  V30 12717 H 1166.36 1.32797 -4.4125 0
M  V30 12718 H 1164.68 1.35063 -3.93887 0
M  V30 12719 H 1167.27 4.08802 -3.44652 0
M  V30 12720 H 1167.62 3.77097 -1.76362 0
M  V30 12721 H 1168.15 2.60905 -3.00289 0
M  V30 12722 H 1164.89 2.63891 -6.00035 0
M  V30 12723 H 1164.41 3.74033 -4.68892 0
M  V30 12724 H 1166.09 3.73469 -5.28328 0
M  V30 12725 N 1166.22 1.31629 0.866686 0
M  V30 12726 C 1167.15 1.22151 1.99001 0
M  V30 12727 C 1168.13 0.107972 1.69757 0
M  V30 12728 O 1169.32 0.293125 1.91975 0
M  V30 12729 C 1166.45 0.93144 3.34577 0
M  V30 12730 C 1165.4 2.0049 3.78137 0
M  V30 12731 C 1164.73 1.56747 5.11209 0
M  V30 12732 C 1166.03 3.41844 3.94892 0
M  V30 12733 H 1167.72 2.16132 2.0719 0
M  V30 12734 H 1165.27 1.04051 0.995463 0
M  V30 12735 H 1167.22 0.851719 4.12703 0
M  V30 12736 H 1165.94 -0.0440289 3.2657 0
M  V30 12737 H 1164.6 2.07457 3.02253 0
M  V30 12738 H 1164.25 0.579767 4.99648 0
M  V30 12739 H 1163.95 2.28562 5.41326 0
M  V30 12740 H 1165.47 1.50188 5.91841 0
M  V30 12741 H 1166.89 3.37534 4.63405 0
M  V30 12742 H 1165.29 4.11905 4.36411 0
M  V30 12743 H 1166.36 3.82389 2.98172 0
M  V30 12744 N 1167.7 -1.08142 1.14644 0
M  V30 12745 C 1168.95 -1.80582 0.916327 0
M  V30 12746 C 1169.27 -1.86355 -0.556969 0
M  V30 12747 O 1168.53 -1.33736 -1.42875 0
M  V30 12748 C 1168.83 -3.25962 1.46573 0
M  V30 12749 C 1168.49 -3.40302 2.95814 0
M  V30 12750 C 1167.16 -3.43922 3.36557 0
M  V30 12751 C 1169.51 -3.43758 3.91765 0
M  V30 12752 C 1166.84 -3.48594 4.7191 0
M  V30 12753 C 1169.19 -3.49965 5.26979 0
M  V30 12754 C 1167.85 -3.5186 5.67231 0
M  V30 12755 H 1167.12 -0.660795 0.335308 0
M  V30 12756 H 1169.77 -1.27309 1.43055 0
M  V30 12757 H 1168.07 -3.81961 0.872507 0
M  V30 12758 H 1169.77 -3.80571 1.2636 0
M  V30 12759 H 1166.36 -3.38176 2.63315 0
M  V30 12760 H 1170.55 -3.40189 3.61366 0
M  V30 12761 H 1165.8 -3.48355 5.02453 0
M  V30 12762 H 1169.98 -3.51585 6.01133 0
M  V30 12763 H 1167.6 -3.55233 6.72097 0
M  V30 12764 N 1169.18 -0.941978 -1.26351 0
M  V30 12765 C 1170.41 -0.605868 -1.97517 0
M  V30 12766 C 1170.82 0.823583 -1.70334 0
M  V30 12767 O 1170.16 1.56085 -0.968662 0
M  V30 12768 C 1170.22 -0.769201 -3.51175 0
M  V30 12769 C 1169.88 -2.17343 -4.02009 0
M  V30 12770 C 1170.88 -3.14898 -4.13685 0
M  V30 12771 C 1168.57 -2.49422 -4.35998 0
M  V30 12772 C 1170.56 -4.42631 -4.58646 0
M  V30 12773 C 1168.25 -3.77388 -4.80647 0
M  V30 12774 C 1169.25 -4.73806 -4.91932 0
M  V30 12775 O 1168.93 -5.99493 -5.35596 0
M  V30 12776 H 1168.67 -0.227113 -0.636707 0
M  V30 12777 H 1171.22 -1.26523 -1.61806 0
M  V30 12778 H 1169.45 -0.0527104 -3.86664 0
M  V30 12779 H 1171.14 -0.436032 -4.03551 0
M  V30 12780 H 1171.9 -2.91438 -3.87671 0
M  V30 12781 H 1167.78 -1.7511 -4.26448 0
M  V30 12782 H 1171.33 -5.17892 -4.67369 0
M  V30 12783 H 1167.22 -4.0066 -5.06105 0
M  V30 12784 H 1167.99 -6.02687 -5.53815 0
M  V30 12785 N 1170.66 1.40747 -0.709091 0
M  V30 12786 C 1172.07 1.54961 -0.381989 0
M  V30 12787 C 1172.27 1.68181 1.10985 0
M  V30 12788 O 1171.33 1.66776 1.89584 0
M  V30 12789 C 1172.64 2.78156 -1.14236 0
M  V30 12790 C 1174.19 2.91967 -1.12803 0
M  V30 12791 C 1174.66 4.18066 -1.87042 0
M  V30 12792 N 1176.15 4.25052 -1.84078 0
M  V30 12793 C 1176.89 5.21514 -2.38349 0
M  V30 12794 N 1176.39 6.23924 -3.01149 0
M  V30 12795 N 1178.18 5.13548 -2.28528 0
M  V30 12796 H 1170.33 1.30412 -1.6765 0
M  V30 12797 H 1172.59 0.630147 -0.70825 0
M  V30 12798 H 1172.3 2.74643 -2.19691 0
M  V30 12799 H 1172.17 3.70074 -0.729731 0
M  V30 12800 H 1174.56 2.94987 -0.0816956 0
M  V30 12801 H 1174.64 2.01185 -1.57982 0
M  V30 12802 H 1174.28 4.15808 -2.91662 0
M  V30 12803 H 1174.21 5.07845 -1.39287 0
M  V30 12804 H 1176.71 3.51682 -1.38305 0
M  V30 12805 H 1177.02 6.93942 -3.40094 0
M  V30 12806 H 1175.36 6.24387 -3.05231 0
M  V30 12807 H 1178.55 4.3247 -1.79129 0
M  V30 12808 H 1178.73 5.88553 -2.71126 0
M  V30 12809 N 1172.13 0.454803 1.50895 0
M  V30 12810 C 1173.08 -0.347769 2.28165 0
M  V30 12811 C 1174.05 -1.00158 1.32505 0
M  V30 12812 O 1175.24 -1.01715 1.61427 0
M  V30 12813 C 1172.38 -1.43315 3.13934 0
M  V30 12814 C 1171.49 -0.795736 4.24608 0
M  V30 12815 C 1170.62 -1.85763 4.9766 0
M  V30 12816 C 1169.66 -1.19959 6.0023 0
M  V30 12817 N 1168.8 -2.20361 6.66622 0
M  V30 12818 H 1173.64 0.317493 2.96304 0
M  V30 12819 H 1171.18 0.168418 1.46133 0
M  V30 12820 H 1173.13 -2.07391 3.62001 0
M  V30 12821 H 1171.76 -2.0678 2.47875 0
M  V30 12822 H 1170.82 -0.0428173 3.80376 0
M  V30 12823 H 1172.13 -0.275477 4.98039 0
M  V30 12824 H 1171.28 -2.5746 5.49363 0
M  V30 12825 H 1170.02 -2.41166 4.23899 0
M  V30 12826 H 1169.03 -0.46817 5.47803 0
M  V30 12827 H 1170.25 -0.652666 6.75956 0
M  V30 12828 H 1168.2 -2.74812 5.95663 0
M  V30 12829 H 1168.11 -1.73275 7.35875 0
M  V30 12830 H 1169.38 -2.91488 7.22949 0
M  V30 12831 N 1173.61 -1.56489 0.186789 0
M  V30 12832 C 1174.84 -2.01722 -0.459993 0
M  V30 12833 C 1175.25 -1.06697 -1.5576 0
M  V30 12834 O 1174.61 -0.0704212 -1.82364 0
M  V30 12835 C 1174.66 -3.46693 -1.02401 0
M  V30 12836 O 1174.38 -4.3809 0.0297916 0
M  V30 12837 C 1175.88 -4.07403 -1.7475 0
M  V30 12838 H 1173.1 -0.660845 -0.116298 0
M  V30 12839 H 1175.65 -2.02389 0.293059 0
M  V30 12840 H 1173.8 -3.46752 -1.72749 0
M  V30 12841 H 1174.22 -5.23057 -0.388821 0
M  V30 12842 H 1175.69 -5.10718 -2.09455 0
M  V30 12843 H 1176.17 -3.50383 -2.64818 0
M  V30 12844 H 1176.77 -4.11093 -1.09007 0
M  V30 12845 N 1175.09 0.086862 -1.5736 0
M  V30 12846 C 1176.34 0.787581 -1.85688 0
M  V30 12847 C 1176.65 1.79494 -0.777263 0
M  V30 12848 O 1177.86 2.54415 -0.947914 0
M  V30 12849 C 1176.31 1.45155 -3.2933 0
M  V30 12850 C 1175.92 0.483539 -4.45383 0
M  V30 12851 C 1177.67 2.13552 -3.66873 0
M  V30 12852 C 1175.57 1.15257 -5.8006 0
M  V30 12853 H 1174.5 0.297882 -0.692663 0
M  V30 12854 H 1177.15 0.0406299 -1.83455 0
M  V30 12855 H 1175.54 2.24625 -3.26128 0
M  V30 12856 H 1176.71 -0.280254 -4.59947 0
M  V30 12857 H 1175.02 -0.0951664 -4.16291 0
M  V30 12858 H 1177.62 2.64355 -4.6478 0
M  V30 12859 H 1177.96 2.92818 -2.95911 0
M  V30 12860 H 1178.5 1.40932 -3.71999 0
M  V30 12861 H 1175.24 0.400546 -6.54275 0
M  V30 12862 H 1174.76 1.88759 -5.69324 0
M  V30 12863 H 1176.44 1.67671 -6.24896 0
M  V30 12864 N 1176.57 1.53483 0.357892 0
M  V30 12865 C 1177.82 1.69701 1.09754 0
M  V30 12866 C 1178.14 0.455389 1.89608 0
M  V30 12867 O 1177.41 -0.530623 1.88577 0
M  V30 12868 H 1175.99 0.62562 0.408178 0
M  V30 12869 H 1178.65 1.90696 0.402641 0
M  V30 12870 H 1177.74 2.56154 1.78302 0
M  V30 12871 N 1178.05 -0.61812 1.44973 0
M  V30 12872 C 1179.28 -1.40225 1.51725 0
M  V30 12873 C 1179.68 -1.88643 0.145098 0
M  V30 12874 O 1179.03 -1.62237 -0.861677 0
M  V30 12875 C 1179.09 -2.64808 2.4314 0
M  V30 12876 C 1178.75 -2.381 3.90073 0
M  V30 12877 C 1179.75 -1.99116 4.80259 0
M  V30 12878 C 1177.43 -2.51338 4.34896 0
M  V30 12879 C 1179.43 -1.73716 6.13271 0
M  V30 12880 C 1177.12 -2.25552 5.67952 0
M  V30 12881 C 1178.11 -1.86801 6.56958 0
M  V30 12882 O 1177.8 -1.6131 7.8755 0
M  V30 12883 H 1177.53 -0.436024 0.516584 0
M  V30 12884 H 1180.09 -0.761929 1.90745 0
M  V30 12885 H 1178.32 -3.31524 1.9907 0
M  V30 12886 H 1180.01 -3.26835 2.40694 0
M  V30 12887 H 1180.77 -1.88435 4.46897 0
M  V30 12888 H 1176.65 -2.80468 3.65867 0
M  V30 12889 H 1180.2 -1.43395 6.82703 0
M  V30 12890 H 1176.09 -2.35847 6.00872 0
M  V30 12891 H 1176.86 -1.75449 7.99475 0
M  V30 12892 N 1179.52 -1.32087 -0.859693 0
M  V30 12893 C 1180.47 -1.20601 -1.96784 0
M  V30 12894 C 1181.44 -0.089355 -1.65859 0
M  V30 12895 O 1182.63 -0.264022 -1.88964 0
M  V30 12896 C 1179.77 -0.929872 -3.32336 0
M  V30 12897 C 1178.88 -2.13084 -3.75791 0
M  V30 12898 C 1178.01 -1.79061 -5.00111 0
M  V30 12899 C 1177.05 -2.95507 -5.36043 0
M  V30 12900 N 1176.19 -2.61611 -6.5154 0
M  V30 12901 H 1181.03 -2.1539 -2.0594 0
M  V30 12902 H 1178.57 -1.07131 -1.00803 0
M  V30 12903 H 1180.52 -0.750285 -4.10398 0
M  V30 12904 H 1179.15 -0.0187929 -3.22795 0
M  V30 12905 H 1178.21 -2.42086 -2.93425 0
M  V30 12906 H 1179.52 -3.00205 -3.98344 0
M  V30 12907 H 1178.67 -1.57625 -5.85866 0
M  V30 12908 H 1177.41 -0.891459 -4.79483 0
M  V30 12909 H 1176.42 -3.17581 -4.48801 0
M  V30 12910 H 1177.64 -3.86147 -5.5863 0
M  V30 12911 H 1175.59 -1.74231 -6.32439 0
M  V30 12912 H 1175.5 -3.42262 -6.74087 0
M  V30 12913 H 1176.77 -2.43592 -7.40461 0
M  V30 12914 N 1181 1.07532 -1.15215 0
M  V30 12915 C 1182.25 1.8036 -0.927263 0
M  V30 12916 C 1182.58 1.86414 0.544371 0
M  V30 12917 O 1181.86 1.34653 1.40353 0
M  V30 12918 C 1182.14 3.25512 -1.53992 0
M  V30 12919 C 1181.99 3.27614 -3.08203 0
M  V30 12920 C 1183.31 4.22731 -1.22418 0
M  V30 12921 H 1180.43 0.654775 -0.338289 0
M  V30 12922 H 1183.07 1.25842 -1.42351 0
M  V30 12923 H 1181.22 3.72068 -1.11791 0
M  V30 12924 H 1182.89 2.89315 -3.59297 0
M  V30 12925 H 1181.14 2.66627 -3.42188 0
M  V30 12926 H 1181.81 4.29956 -3.46182 0
M  V30 12927 H 1184.28 3.84557 -1.58919 0
M  V30 12928 H 1183.16 5.22589 -1.67906 0
M  V30 12929 H 1183.42 4.41875 -0.14091 0
M  V30 12930 N 1182.48 0.948665 1.2585 0
M  V30 12931 C 1183.89 0.641829 1.75321 0
M  V30 12932 C 1184.24 -0.842903 1.77171 0
M  V30 12933 O 1183.37 -1.65967 1.38867 0
M  V30 12934 C 1183.96 1.15835 3.18383 0
M  V30 12935 C 1182.52 0.901784 3.65438 0
M  V30 12936 C 1181.67 1.30489 2.44679 0
M  V30 12937 H 1184.62 1.12614 1.1182 0
M  V30 12938 H 1184.64 0.515639 3.7699 0
M  V30 12939 H 1184.15 2.23897 3.17004 0
M  V30 12940 H 1182.25 -0.164135 3.72238 0
M  V30 12941 H 1182.37 1.53405 4.53876 0
M  V30 12942 H 1180.73 0.723278 2.44215 0
M  V30 12943 H 1181.51 2.3946 2.45996 0
M  V30 12944 N 1183.96 -1.40369 0.716545 0
M  V30 12945 C 1185.37 -1.54757 0.390202 0
M  V30 12946 C 1185.57 -1.68767 -1.10091 0
M  V30 12947 O 1184.63 -1.67779 -1.88697 0
M  V30 12948 C 1185.94 -2.77546 1.15709 0
M  V30 12949 C 1187.49 -2.91364 1.14349 0
M  V30 12950 C 1187.97 -4.17068 1.89256 0
M  V30 12951 N 1189.46 -4.2407 1.8633 0
M  V30 12952 C 1190.19 -5.20243 2.41112 0
M  V30 12953 N 1189.69 -6.22318 3.04454 0
M  V30 12954 N 1191.48 -5.12328 2.31249 0
M  V30 12955 H 1183.63 -1.29521 1.68339 0
M  V30 12956 H 1185.9 -0.626382 0.711582 0
M  V30 12957 H 1185.6 -2.73474 2.21144 0
M  V30 12958 H 1185.48 -3.69682 0.749347 0
M  V30 12959 H 1187.86 -2.94939 0.0973383 0
M  V30 12960 H 1187.94 -2.00344 1.59047 0
M  V30 12961 H 1187.59 -4.14255 2.93863 0
M  V30 12962 H 1187.52 -5.07099 1.41978 0
M  V30 12963 H 1190.01 -3.50944 1.40168 0
M  V30 12964 H 1190.32 -6.92129 3.43769 0
M  V30 12965 H 1188.67 -6.22759 3.08538 0
M  V30 12966 H 1191.86 -4.31514 1.8142 0
M  V30 12967 H 1192.03 -5.87107 2.74243 0
M  V30 12968 N 1185.44 -0.462799 -1.50652 0
M  V30 12969 C 1186.38 0.349784 -2.29955 0
M  V30 12970 C 1187.38 0.997947 -1.36885 0
M  V30 12971 O 1188.58 0.93 -1.54114 0
M  V30 12972 H 1184.96 0.131635 -0.740389 0
M  V30 12973 H 1186.93 -0.33958 -2.96461 0
M  V30 12974 C 1185.68 1.42398 -3.17204 0
M  V30 12975 H 1185 0.934611 -3.88722 0
M  V30 12976 H 1186.44 1.96528 -3.75703 0
M  V30 12977 C 1184.9 2.42135 -2.34248 0
M  V30 12978 O 1185.43 3.47229 -2.01978 0
M  V30 12979 N 1183.64 2.13647 -1.96985 0
M  V30 12980 H 1183.18 1.28209 -2.23428 0
M  V30 12981 H 1183.14 2.80615 -1.41783 0
M  V30 12982 N 1186.91 1.56388 -0.195085 0
M  V30 12983 C 1188.33 1.8398 0.317513 0
M  V30 12984 C 1188.68 1.11575 1.61386 0
M  V30 12985 O 1187.8 0.376557 2.13099 0
M  V30 12986 C 1188.4 3.33749 0.582859 0
M  V30 12987 C 1186.96 3.61752 1.03983 0
M  V30 12988 C 1186.1 2.77159 0.088434 0
M  V30 12989 H 1189.05 1.53072 -0.418871 0
M  V30 12990 H 1189.07 3.52519 1.43216 0
M  V30 12991 H 1188.59 3.86419 -0.360813 0
M  V30 12992 H 1186.69 3.14515 1.99778 0
M  V30 12993 H 1186.8 4.69937 0.932549 0
M  V30 12994 H 1185.16 2.47765 0.590317 0
M  V30 12995 H 1185.95 3.32619 -0.849682 0
M  V30 12996 N 1188.39 -0.0785156 1.57404 0
M  V30 12997 C 1189.3 -1.11203 2.0657 0
M  V30 12998 C 1190.32 -1.42822 0.993872 0
M  V30 12999 O 1191.49 -1.53133 1.30814 0
M  V30 13000 C 1188.56 -2.40812 2.4942 0
M  V30 13001 C 1187.62 -2.16225 3.70871 0
M  V30 13002 C 1186.85 -3.39654 4.11668 0
M  V30 13003 O 1187.08 -4.48521 3.524 0
M  V30 13004 O 1186.01 -3.28263 5.04507 0
M  V30 13005 H 1189.84 -0.724381 2.94935 0
M  V30 13006 H 1187.42 -0.292184 1.46515 0
M  V30 13007 H 1189.3 -3.17101 2.77534 0
M  V30 13008 H 1187.98 -2.7897 1.64187 0
M  V30 13009 H 1186.89 -1.37663 3.4785 0
M  V30 13010 H 1188.22 -1.82951 4.56935 0
M  V30 13011 N 1189.87 -1.5367 -0.349747 0
M  V30 13012 C 1190.8 -1.84208 -1.43492 0
M  V30 13013 C 1191.78 -0.696725 -1.55177 0
M  V30 13014 O 1192.97 -0.948061 -1.69486 0
M  V30 13015 C 1190.1 -2.04613 -2.80625 0
M  V30 13016 C 1189.05 -3.20419 -2.83753 0
M  V30 13017 C 1188.38 -3.26147 -4.23713 0
M  V30 13018 C 1189.68 -4.58666 -2.49846 0
M  V30 13019 H 1191.37 -2.75087 -1.18185 0
M  V30 13020 H 1188.92 -1.32363 -0.567101 0
M  V30 13021 H 1190.87 -2.2456 -3.56582 0
M  V30 13022 H 1189.59 -1.10459 -3.07354 0
M  V30 13023 H 1188.25 -3.00318 -2.10249 0
M  V30 13024 H 1187.9 -2.29599 -4.47541 0
M  V30 13025 H 1187.6 -4.03963 -4.26717 0
M  V30 13026 H 1189.12 -3.48296 -5.0152 0
M  V30 13027 H 1190.54 -4.78668 -3.15516 0
M  V30 13028 H 1188.94 -5.3884 -2.64144 0
M  V30 13029 H 1190.01 -4.62697 -1.4505 0
M  V30 13030 N 1191.35 0.610423 -1.45298 0
M  V30 13031 C 1192.76 1.19234 -1.43667 0
M  V30 13032 C 1193.11 1.95523 -0.162794 0
M  V30 13033 O 1192.24 2.03507 0.735789 0
M  V30 13034 C 1192.83 2.16892 -2.60276 0
M  V30 13035 C 1191.39 2.70465 -2.61774 0
M  V30 13036 C 1190.54 1.45821 -2.35863 0
M  V30 13037 H 1193.49 0.399895 -1.53579 0
M  V30 13038 H 1193.51 2.99875 -2.34212 0
M  V30 13039 H 1193.02 1.61339 -3.52975 0
M  V30 13040 H 1191.12 3.29965 -1.73072 0
M  V30 13041 H 1191.23 3.15092 -3.60907 0
M  V30 13042 H 1189.6 1.74678 -1.85364 0
M  V30 13043 H 1190.38 0.921403 -3.30704 0
M  V30 13044 N 1192.83 1.32541 0.852676 0
M  V30 13045 C 1193.77 1.21602 1.98282 0
M  V30 13046 C 1194.77 0.120384 1.68972 0
M  V30 13047 O 1195.97 0.283441 1.77754 0
M  V30 13048 H 1192.35 0.376994 0.650676 0
M  V30 13049 H 1194.32 2.17179 2.04636 0
M  V30 13050 C 1193.07 0.957965 3.34243 0
M  V30 13051 H 1192.39 1.79324 3.57327 0
M  V30 13052 H 1193.83 0.921673 4.13861 0
M  V30 13053 C 1192.29 -0.339271 3.35187 0
M  V30 13054 O 1192.82 -1.3505 3.78318 0
M  V30 13055 N 1191.03 -0.361944 2.88337 0
M  V30 13056 H 1190.57 0.461497 2.53432 0
M  V30 13057 H 1190.53 -1.22976 2.89352 0
M  V30 13058 N 1194.3 -1.0692 1.15784 0
M  V30 13059 C 1195.27 -2.12407 0.861167 0
M  V30 13060 C 1196.27 -1.6018 -0.141031 0
M  V30 13061 O 1197.46 -1.73972 0.0891192 0
M  V30 13062 C 1194.59 -3.39693 0.286636 0
M  V30 13063 H 1195.78 -2.40157 1.79623 0
M  V30 13064 H 1193.34 -1.22881 0.965916 0
M  V30 13065 H 1194.07 -3.17587 -0.656417 0
M  V30 13066 H 1193.86 -3.78903 1.0087 0
M  V30 13067 H 1195.35 -4.17488 0.0967971 0
M  V30 13068 N 1195.78 -0.955326 -1.25345 0
M  V30 13069 C 1196.75 -0.480564 -2.24105 0
M  V30 13070 C 1197.75 0.416123 -1.55322 0
M  V30 13071 O 1198.94 0.213315 -1.72889 0
M  V30 13072 C 1196.07 0.305589 -3.39528 0
M  V30 13073 H 1197.26 -1.35349 -2.6762 0
M  V30 13074 H 1194.81 -0.738673 -1.37744 0
M  V30 13075 H 1195.55 1.19615 -3.01434 0
M  V30 13076 H 1195.33 -0.337719 -3.90643 0
M  V30 13077 H 1196.82 0.627201 -4.12863 0
M  V30 13078 N 1197.26 1.39987 -0.723979 0
M  V30 13079 C 1198.19 2.2917 -0.0373445 0
M  V30 13080 C 1199.21 1.46258 0.715015 0
M  V30 13081 O 1200.4 1.69455 0.561003 0
M  V30 13082 C 1197.5 3.2468 0.971384 0
M  V30 13083 C 1196.67 4.36485 0.282826 0
M  V30 13084 C 1195.73 5.12379 1.19811 0
M  V30 13085 O 1194.75 5.65127 0.67974 0
M  V30 13086 N 1195.96 5.22531 2.52866 0
M  V30 13087 H 1198.72 2.88738 -0.803131 0
M  V30 13088 H 1196.28 1.51448 -0.572292 0
M  V30 13089 H 1198.27 3.72326 1.58606 0
M  V30 13090 H 1196.84 2.6622 1.63846 0
M  V30 13091 H 1196.06 3.90859 -0.512167 0
M  V30 13092 H 1197.35 5.08427 -0.194793 0
M  V30 13093 H 1196.75 4.81174 2.97469 0
M  V30 13094 H 1195.31 5.73655 3.09457 0
M  V30 13095 N 1198.74 0.470782 1.50404 0
M  V30 13096 C 1199.7 -0.312227 2.27063 0
M  V30 13097 C 1200.7 -0.920709 1.31832 0
M  V30 13098 O 1201.89 -0.789937 1.5526 0
M  V30 13099 C 1199.02 -1.44477 3.0877 0
M  V30 13100 H 1200.22 0.36006 2.97731 0
M  V30 13101 H 1197.77 0.224837 1.54674 0
M  V30 13102 H 1198.51 -2.15212 2.42599 0
M  V30 13103 H 1198.29 -1.01426 3.78755 0
M  V30 13104 H 1199.78 -1.99713 3.66749 0
M  V30 13105 N 1200.22 -1.56282 0.203376 0
M  V30 13106 C 1201.15 -2.16714 -0.74616 0
M  V30 13107 C 1202.16 -1.13121 -1.17079 0
M  V30 13108 O 1203.35 -1.40179 -1.10509 0
M  V30 13109 C 1200.45 -2.72115 -2.02007 0
M  V30 13110 C 1199.62 -4.00695 -1.75391 0
M  V30 13111 C 1198.68 -4.40839 -2.8731 0
M  V30 13112 O 1197.71 -5.081 -2.56561 0
M  V30 13113 N 1198.91 -4.05024 -4.15856 0
M  V30 13114 H 1201.68 -2.98821 -0.229326 0
M  V30 13115 H 1199.24 -1.61885 0.0217049 0
M  V30 13116 H 1201.23 -2.95951 -2.76035 0
M  V30 13117 H 1199.8 -1.94415 -2.44789 0
M  V30 13118 H 1199.02 -3.84905 -0.851 0
M  V30 13119 H 1200.31 -4.8461 -1.55017 0
M  V30 13120 H 1199.71 -3.50938 -4.43688 0
M  V30 13121 H 1198.26 -4.33792 -4.86485 0
M  V30 13122 N 1201.7 0.070167 -1.57444 0
M  V30 13123 C 1202.64 1.08322 -2.03801 0
M  V30 13124 C 1203.61 1.38364 -0.918946 0
M  V30 13125 O 1204.8 1.49404 -1.18672 0
M  V30 13126 C 1201.94 2.39128 -2.48821 0
M  V30 13127 C 1201.05 2.15603 -3.74352 0
M  V30 13128 C 1200.19 3.39984 -4.08148 0
M  V30 13129 C 1199.22 3.1183 -5.26715 0
M  V30 13130 N 1198.36 4.28546 -5.56141 0
M  V30 13131 H 1203.2 0.680931 -2.90116 0
M  V30 13132 H 1200.74 0.324657 -1.43473 0
M  V30 13133 H 1202.7 3.15501 -2.72975 0
M  V30 13134 H 1201.33 2.77157 -1.65481 0
M  V30 13135 H 1200.38 1.29915 -3.57528 0
M  V30 13136 H 1201.69 1.90808 -4.60862 0
M  V30 13137 H 1200.84 4.2475 -4.33211 0
M  V30 13138 H 1199.58 3.67856 -3.20208 0
M  V30 13139 H 1198.59 2.2546 -5.01446 0
M  V30 13140 H 1199.81 2.85278 -6.16273 0
M  V30 13141 H 1197.76 4.56447 -4.71161 0
M  V30 13142 H 1197.68 4.0703 -6.37073 0
M  V30 13143 H 1198.94 5.14305 -5.85757 0
M  V30 13144 N 1203.17 1.53854 0.341593 0
M  V30 13145 C 1204.08 1.84975 1.44297 0
M  V30 13146 C 1205.1 0.740057 1.57477 0
M  V30 13147 O 1206.28 1.03256 1.72917 0
M  V30 13148 C 1203.34 2.05464 2.79259 0
M  V30 13149 C 1202.4 3.29318 2.75405 0
M  V30 13150 C 1201.63 3.4882 4.03931 0
M  V30 13151 O 1201.86 2.7212 5.01305 0
M  V30 13152 O 1200.79 4.42253 4.08284 0
M  V30 13153 H 1204.62 2.78592 1.20913 0
M  V30 13154 H 1202.2 1.39532 0.533953 0
M  V30 13155 H 1204.08 2.20374 3.59184 0
M  V30 13156 H 1202.76 1.15035 3.0257 0
M  V30 13157 H 1201.67 3.1981 1.94094 0
M  V30 13158 H 1203 4.19746 2.57049 0
M  V30 13159 N 1204.65 -0.602709 1.4562 0
M  V30 13160 C 1205.56 -1.74132 1.5721 0
M  V30 13161 C 1206.58 -1.67909 0.456347 0
M  V30 13162 O 1207.75 -1.88178 0.717714 0
M  V30 13163 C 1204.82 -3.10604 1.54032 0
M  V30 13164 C 1203.88 -3.28244 2.76685 0
M  V30 13165 C 1203.11 -4.58205 2.73649 0
M  V30 13166 O 1203.34 -5.40836 1.81254 0
M  V30 13167 O 1202.27 -4.78663 3.64919 0
M  V30 13168 H 1206.1 -1.67304 2.53462 0
M  V30 13169 H 1203.68 -0.767381 1.28186 0
M  V30 13170 H 1205.56 -3.91904 1.54885 0
M  V30 13171 H 1204.24 -3.17913 0.60934 0
M  V30 13172 H 1203.14 -2.46514 2.81393 0
M  V30 13173 H 1204.48 -3.25814 3.68925 0
M  V30 13174 N 1206.13 -1.32992 -0.845635 0
M  V30 13175 C 1207.06 -1.18513 -1.96182 0
M  V30 13176 C 1208.07 -0.11781 -1.62373 0
M  V30 13177 O 1209.26 -0.36761 -1.74674 0
M  V30 13178 C 1206.36 -0.793812 -3.29472 0
M  V30 13179 C 1205.54 -1.95134 -3.91461 0
M  V30 13180 C 1204.6 -1.54209 -5.03096 0
M  V30 13181 O 1203.62 -2.25545 -5.22607 0
M  V30 13182 N 1204.82 -0.443235 -5.78805 0
M  V30 13183 H 1207.59 -2.14663 -2.09141 0
M  V30 13184 H 1205.15 -1.25648 -1.02099 0
M  V30 13185 H 1207.14 -0.502263 -4.01571 0
M  V30 13186 H 1205.71 0.0768031 -3.12506 0
M  V30 13187 H 1204.93 -2.40889 -3.12035 0
M  V30 13188 H 1206.22 -2.72604 -4.2961 0
M  V30 13189 H 1205.62 0.150298 -5.655 0
M  V30 13190 H 1204.17 -0.211331 -6.51457 0
M  V30 13191 N 1207.61 1.06304 -1.1635 0
M  V30 13192 C 1208.54 2.15745 -0.893103 0
M  V30 13193 C 1209.52 1.69341 0.160531 0
M  V30 13194 O 1210.7 1.94196 0.0126526 0
M  V30 13195 C 1207.83 3.45066 -0.393287 0
M  V30 13196 C 1206.79 4.04978 -1.38482 0
M  V30 13197 C 1206.11 5.29507 -0.743409 0
M  V30 13198 C 1207.41 4.4377 -2.75438 0
M  V30 13199 H 1209.11 2.38622 -1.80831 0
M  V30 13200 H 1206.65 1.14681 -0.870878 0
M  V30 13201 H 1208.61 4.20964 -0.191607 0
M  V30 13202 H 1207.33 3.21808 0.557426 0
M  V30 13203 H 1205.99 3.31136 -1.57304 0
M  V30 13204 H 1205.64 5.02545 0.213787 0
M  V30 13205 H 1205.34 5.7055 -1.40521 0
M  V30 13206 H 1206.86 6.08102 -0.551746 0
M  V30 13207 H 1208.28 5.1075 -2.60398 0
M  V30 13208 H 1206.67 4.95797 -3.38091 0
M  V30 13209 H 1207.74 3.54636 -3.30699 0
M  V30 13210 N 1209.09 0.96196 1.24836 0
M  V30 13211 C 1210.03 0.48686 2.25607 0
M  V30 13212 C 1211 -0.464546 1.59472 0
M  V30 13213 O 1212.19 -0.376179 1.87055 0
M  V30 13214 C 1209.33 -0.222294 3.44383 0
M  V30 13215 C 1208.44 0.767206 4.25133 0
M  V30 13216 C 1207.58 0.0347458 5.31189 0
M  V30 13217 C 1206.61 1.01469 6.03631 0
M  V30 13218 N 1205.75 0.312619 7.01404 0
M  V30 13219 H 1210.59 1.35104 2.65614 0
M  V30 13220 H 1208.13 0.677373 1.30576 0
M  V30 13221 H 1210.09 -0.650087 4.12104 0
M  V30 13222 H 1208.72 -1.05047 3.0523 0
M  V30 13223 H 1207.77 1.31346 3.57005 0
M  V30 13224 H 1209.08 1.5147 4.75245 0
M  V30 13225 H 1208.23 -0.451325 6.05019 0
M  V30 13226 H 1206.97 -0.745485 4.81969 0
M  V30 13227 H 1205.98 1.51169 5.28609 0
M  V30 13228 H 1207.2 1.79527 6.5494 0
M  V30 13229 H 1205.15 -0.44874 6.54463 0
M  V30 13230 H 1205.07 0.999079 7.49369 0
M  V30 13231 H 1206.33 -0.151673 7.79352 0
M  V30 13232 N 1210.56 -1.39601 0.731392 0
M  V30 13233 C 1211.81 -1.99821 0.274661 0
M  V30 13234 C 1212.13 -1.58693 -1.1435 0
M  V30 13235 O 1213.33 -2.11724 -1.69957 0
M  V30 13236 C 1211.79 -3.57199 0.440124 0
M  V30 13237 C 1211.4 -4.07292 1.86594 0
M  V30 13238 C 1213.14 -4.24476 0.0449851 0
M  V30 13239 C 1211.05 -5.57229 1.98115 0
M  V30 13240 H 1209.98 -0.747481 0.0989383 0
M  V30 13241 H 1212.63 -1.59645 0.904755 0
M  V30 13242 H 1211.01 -3.95153 -0.25881 0
M  V30 13243 H 1212.18 -3.80679 2.59654 0
M  V30 13244 H 1210.5 -3.52665 2.21397 0
M  V30 13245 H 1213.1 -5.34587 0.110126 0
M  V30 13246 H 1213.44 -4.04129 -0.999269 0
M  V30 13247 H 1213.97 -3.91683 0.694942 0
M  V30 13248 H 1210.71 -5.82452 3.00716 0
M  V30 13249 H 1210.23 -5.85656 1.29487 0
M  V30 13250 H 1211.91 -6.22584 1.76063 0
M  V30 13251 N 1212.04 -0.478751 -1.50152 0
M  V30 13252 C 1213.32 0.135533 -1.9513 0
M  V30 13253 C 1213.7 1.56253 -1.41944 0
M  V30 13254 O 1213.05 2.19824 -0.623673 0
M  V30 13255 C 1213.26 0.0710037 -3.48928 0
M  V30 13256 C 1214.61 0.256075 -4.23827 0
M  V30 13257 O 1215.63 0.147234 -3.55896 0
M  V30 13258 O 1214.49 0.476741 -5.44417 0
M  V30 13259 H 1211.58 0.107491 -0.819985 0
M  V30 13260 H 1214.13 -0.539701 -1.60889 0
M  V30 13261 H 1212.9 -0.925012 -3.80209 0
M  V30 13262 H 1212.52 0.787362 -3.89726 0
M  V30 13263 N 1213.52 1.56172 -0.211661 0
M  V30 13264 C 1214.43 2.23468 0.714081 0
M  V30 13265 C 1215.45 1.23908 1.22159 0
M  V30 13266 O 1216.62 1.56693 1.26528 0
M  V30 13267 C 1213.69 2.89375 1.90953 0
M  V30 13268 C 1212.75 4.04251 1.44497 0
M  V30 13269 C 1211.98 4.67006 2.58343 0
M  V30 13270 O 1212.2 4.28721 3.76237 0
M  V30 13271 O 1211.14 5.56177 2.3011 0
M  V30 13272 H 1214.96 3.03219 0.170862 0
M  V30 13273 H 1212.55 1.49389 0.0183607 0
M  V30 13274 H 1214.43 3.3101 2.60787 0
M  V30 13275 H 1213.11 2.12591 2.44104 0
M  V30 13276 H 1212.01 3.67205 0.714932 0
M  V30 13277 H 1213.35 4.82748 0.959947 0
M  V30 13278 N 1215 -0.0618163 1.57479 0
M  V30 13279 C 1215.96 -1.05684 2.0338 0
M  V30 13280 C 1216.96 -1.31006 0.932423 0
M  V30 13281 O 1218.15 -1.26559 1.19702 0
M  V30 13282 C 1215.28 -2.39805 2.42294 0
M  V30 13283 H 1216.48 -0.661006 2.92525 0
M  V30 13284 H 1214.03 -0.307814 1.53239 0
M  V30 13285 H 1214.76 -2.84201 1.56207 0
M  V30 13286 H 1214.55 -2.22764 3.22674 0
M  V30 13287 H 1216.04 -3.11307 2.78349 0
M  V30 13288 N 1216.48 -1.54033 -0.333429 0
M  V30 13289 C 1217.39 -1.85737 -1.43314 0
M  V30 13290 C 1218.4 -0.748398 -1.57083 0
M  V30 13291 O 1219.58 -1.04171 -1.72367 0
M  V30 13292 C 1216.64 -2.06942 -2.78165 0
M  V30 13293 C 1215.7 -3.30774 -2.73655 0
M  V30 13294 C 1214.94 -3.50957 -4.02075 0
M  V30 13295 O 1215.16 -2.74774 -4.99855 0
M  V30 13296 O 1214.09 -4.44412 -4.05933 0
M  V30 13297 H 1217.92 -2.7923 -1.19434 0
M  V30 13298 H 1215.51 -1.39814 -0.526546 0
M  V30 13299 H 1217.39 -2.22276 -3.58011 0
M  V30 13300 H 1216.06 -1.16638 -3.01956 0
M  V30 13301 H 1214.97 -3.20835 -1.92395 0
M  V30 13302 H 1216.3 -4.21103 -2.54819 0
M  V30 13303 N 1217.95 0.594978 -1.45938 0
M  V30 13304 C 1219.18 1.38482 -1.54394 0
M  V30 13305 C 1219.6 1.87222 -0.181563 0
M  V30 13306 O 1218.96 1.60869 0.836119 0
M  V30 13307 C 1219.01 2.55676 -2.54287 0
M  V30 13308 O 1218.11 3.5672 -2.06941 0
M  V30 13309 H 1217.46 0.412918 -0.519995 0
M  V30 13310 H 1219.99 0.722899 -1.91404 0
M  V30 13311 H 1220 3.02756 -2.73501 0
M  V30 13312 H 1218.67 2.19552 -3.53228 0
M  V30 13313 H 1217.25 3.16204 -1.97661 0
M  V30 13314 N 1219.43 1.33438 0.838571 0
M  V30 13315 C 1220.36 1.26344 1.96365 0
M  V30 13316 C 1221.34 0.143956 1.6949 0
M  V30 13317 O 1222.53 0.333779 1.9131 0
M  V30 13318 C 1219.66 1.0022 3.32526 0
M  V30 13319 C 1218.61 2.08466 3.73799 0
M  V30 13320 C 1217.94 1.67555 5.07769 0
M  V30 13321 C 1219.24 3.50144 3.87552 0
M  V30 13322 H 1220.93 2.20478 2.02558 0
M  V30 13323 H 1218.48 1.06139 0.973168 0
M  V30 13324 H 1220.43 0.939068 4.10803 0
M  V30 13325 H 1219.16 0.0252514 3.2659 0
M  V30 13326 H 1217.81 2.13822 2.97785 0
M  V30 13327 H 1217.46 0.685619 4.98305 0
M  V30 13328 H 1217.16 2.39993 5.36356 0
M  V30 13329 H 1218.69 1.62708 5.88522 0
M  V30 13330 H 1220.1 3.47287 4.56141 0
M  V30 13331 H 1218.5 4.21069 4.27575 0
M  V30 13332 H 1219.57 3.88628 2.89994 0
M  V30 13333 N 1220.91 -1.05686 1.16912 0
M  V30 13334 C 1221.86 -2.15417 0.877404 0
M  V30 13335 C 1222.85 -1.6868 -0.155986 0
M  V30 13336 O 1224.06 -1.79998 -0.00938156 0
M  V30 13337 H 1220.43 -0.70332 0.266168 0
M  V30 13338 H 1222.4 -2.37228 1.81012 0
M  V30 13339 C 1221.15 -3.45372 0.401696 0
M  V30 13340 H 1220.48 -3.81732 1.18832 0
M  V30 13341 H 1221.92 -4.2334 0.236418 0
M  V30 13342 C 1220.38 -3.25209 -0.87981 0
M  V30 13343 O 1220.91 -3.51322 -1.94771 0
M  V30 13344 N 1219.11 -2.78614 -0.825997 0
M  V30 13345 H 1218.66 -2.57564 0.0432439 0
M  V30 13346 H 1218.62 -2.65503 -1.68391 0
M  V30 13347 N 1222.39 -0.968567 -1.24324 0
M  V30 13348 C 1223.67 -0.547774 -1.87773 0
M  V30 13349 C 1224.05 0.975107 -1.87229 0
M  V30 13350 O 1223.39 1.84683 -1.34553 0
M  V30 13351 C 1223.6 -1.1403 -3.29846 0
M  V30 13352 C 1224.95 -1.22572 -4.06523 0
M  V30 13353 O 1225.98 -1.09287 -3.3902 0
M  V30 13354 O 1224.83 -1.43579 -5.27302 0
M  V30 13355 H 1221.93 -0.182771 -0.806551 0
M  V30 13356 H 1224.47 -1.06289 -1.3229 0
M  V30 13357 H 1223.25 -2.18303 -3.24745 0
M  V30 13358 H 1222.87 -0.609275 -3.92904 0
M  V30 13359 N 1223.87 1.39211 -0.738786 0
M  V30 13360 C 1224.78 2.34374 -0.102958 0
M  V30 13361 C 1225.79 1.58514 0.717596 0
M  V30 13362 O 1226.97 1.90786 0.645186 0
M  V30 13363 C 1224.03 3.37562 0.790733 0
M  V30 13364 C 1223.09 4.29279 -0.0425028 0
M  V30 13365 C 1222.33 5.27539 0.808628 0
M  V30 13366 O 1222.55 5.32396 2.04722 0
M  V30 13367 O 1221.48 6.0144 0.235279 0
M  V30 13368 H 1225.31 2.90412 -0.888498 0
M  V30 13369 H 1222.9 1.40803 -0.499498 0
M  V30 13370 H 1224.78 4.00783 1.30196 0
M  V30 13371 H 1223.45 2.83903 1.55502 0
M  V30 13372 H 1222.36 3.69268 -0.599335 0
M  V30 13373 H 1223.69 4.86154 -0.7691 0
M  V30 13374 N 1225.34 0.486708 1.49896 0
M  V30 13375 C 1226.25 -0.304222 2.32619 0
M  V30 13376 C 1227.27 -0.981103 1.43702 0
M  V30 13377 O 1228.45 -0.965639 1.76741 0
M  V30 13378 C 1225.51 -1.36301 3.18783 0
M  V30 13379 C 1224.57 -0.701082 4.23537 0
M  V30 13380 C 1223.81 -1.70943 5.05583 0
M  V30 13381 O 1224.03 -2.93773 4.88931 0
M  V30 13382 O 1222.96 -1.27263 5.88292 0
M  V30 13383 H 1226.79 0.37248 3.01407 0
M  V30 13384 H 1224.37 0.248277 1.47323 0
M  V30 13385 H 1226.26 -1.97594 3.72202 0
M  V30 13386 H 1224.93 -2.0229 2.52706 0
M  V30 13387 H 1223.84 -0.0487926 3.74068 0
M  V30 13388 H 1225.17 -0.0838817 4.92129 0
M  V30 13389 N 1226.82 -1.56058 0.219941 0
M  V30 13390 C 1227.75 -2.2321 -0.685547 0
M  V30 13391 C 1228.73 -1.20328 -1.20229 0
M  V30 13392 O 1229.92 -1.48909 -1.24659 0
M  V30 13393 C 1227.05 -2.91076 -1.89452 0
M  V30 13394 C 1226 -4.00415 -1.51169 0
M  V30 13395 C 1225.33 -4.55569 -2.79931 0
M  V30 13396 C 1226.63 -5.17549 -0.702896 0
M  V30 13397 H 1228.32 -2.99136 -0.125671 0
M  V30 13398 H 1225.87 -1.43879 -0.0590043 0
M  V30 13399 H 1227.82 -3.36744 -2.53341 0
M  V30 13400 H 1226.55 -2.12594 -2.47934 0
M  V30 13401 H 1225.21 -3.55475 -0.896275 0
M  V30 13402 H 1224.85 -3.73819 -3.36553 0
M  V30 13403 H 1224.55 -5.29361 -2.55049 0
M  V30 13404 H 1226.08 -5.03955 -3.44764 0
M  V30 13405 H 1227.49 -5.59608 -1.24544 0
M  V30 13406 H 1225.89 -5.97563 -0.551234 0
M  V30 13407 H 1226.96 -4.84027 0.29083 0
M  V30 13408 N 1228.3 0.053464 -1.57509 0
M  V30 13409 C 1229.21 1.07902 -2.08313 0
M  V30 13410 C 1230.23 1.41223 -1.01647 0
M  V30 13411 O 1231.4 1.51032 -1.33233 0
M  V30 13412 C 1228.47 2.36813 -2.5322 0
M  V30 13413 C 1227.53 2.10297 -3.74264 0
M  V30 13414 C 1226.76 3.33062 -4.1702 0
M  V30 13415 O 1226.99 4.42857 -3.59491 0
M  V30 13416 O 1225.92 3.20195 -5.09665 0
M  V30 13417 H 1229.75 0.677368 -2.9605 0
M  V30 13418 H 1227.33 0.268838 -1.46961 0
M  V30 13419 H 1229.21 3.12645 -2.82544 0
M  V30 13420 H 1227.89 2.76323 -1.68605 0
M  V30 13421 H 1226.79 1.32111 -3.49996 0
M  V30 13422 H 1228.13 1.75658 -4.59788 0
M  V30 13423 N 1229.78 1.54207 0.325255 0
M  V30 13424 C 1230.69 1.86495 1.42326 0
M  V30 13425 C 1231.71 0.756718 1.56684 0
M  V30 13426 O 1232.88 1.05084 1.71812 0
M  V30 13427 C 1229.95 2.08414 2.77064 0
M  V30 13428 C 1229.01 3.32221 2.71897 0
M  V30 13429 C 1228.24 3.53085 4.00209 0
M  V30 13430 O 1228.46 2.77421 4.98391 0
M  V30 13431 O 1227.4 4.46559 4.0357 0
M  V30 13432 H 1231.22 2.79859 1.17951 0
M  V30 13433 H 1228.81 1.40091 0.519124 0
M  V30 13434 H 1230.69 2.24171 3.56827 0
M  V30 13435 H 1229.37 1.18238 3.01333 0
M  V30 13436 H 1228.27 3.21851 1.90691 0
M  V30 13437 H 1229.61 4.22449 2.52582 0
M  V30 13438 N 1231.26 -0.58723 1.46251 0
M  V30 13439 C 1232.2 -1.69662 1.56472 0
M  V30 13440 C 1233.17 -1.60978 0.409294 0
M  V30 13441 O 1234.36 -1.80257 0.625451 0
M  V30 13442 C 1231.5 -3.07996 1.55669 0
M  V30 13443 C 1230.61 -3.27337 2.81913 0
M  V30 13444 C 1229.75 -4.55894 2.72644 0
M  V30 13445 C 1228.79 -4.68562 3.93847 0
M  V30 13446 N 1227.92 -5.8844 3.82991 0
M  V30 13447 H 1232.76 -1.60262 2.51237 0
M  V30 13448 H 1230.3 -0.781148 1.24645 0
M  V30 13449 H 1232.26 -3.88058 1.53189 0
M  V30 13450 H 1230.89 -3.16303 0.6444 0
M  V30 13451 H 1229.94 -2.4091 2.94392 0
M  V30 13452 H 1231.25 -3.32567 3.71754 0
M  V30 13453 H 1230.41 -5.44178 2.68244 0
M  V30 13454 H 1229.15 -4.53094 1.80435 0
M  V30 13455 H 1228.15 -3.78696 3.98584 0
M  V30 13456 H 1229.38 -4.73144 4.87146 0
M  V30 13457 H 1227.32 -5.86647 2.93566 0
M  V30 13458 H 1227.24 -5.94919 4.66484 0
M  V30 13459 H 1228.51 -6.79168 3.82559 0
M  V30 13460 N 1232.74 -1.33881 -0.831482 0
M  V30 13461 C 1233.65 -1.26802 -1.97379 0
M  V30 13462 C 1234.66 -0.177233 -1.73095 0
M  V30 13463 O 1235.84 -0.402163 -1.97344 0
M  V30 13464 C 1232.9 -1.01474 -3.31517 0
M  V30 13465 C 1231.96 -2.19626 -3.68867 0
M  V30 13466 C 1231.2 -1.95497 -4.96605 0
M  V30 13467 O 1231.42 -0.908948 -5.63111 0
M  V30 13468 O 1230.35 -2.82226 -5.31632 0
M  V30 13469 H 1234.18 -2.22883 -2.06293 0
M  V30 13470 H 1231.76 -1.14001 -0.965613 0
M  V30 13471 H 1233.65 -0.890954 -4.11874 0
M  V30 13472 H 1232.32 -0.0842656 -3.2359 0
M  V30 13473 H 1231.23 -2.37561 -2.88991 0
M  V30 13474 H 1232.56 -3.11034 -3.81469 0
M  V30 13475 N 1234.21 1.05064 -1.1747 0
M  V30 13476 C 1235.16 2.12841 -0.89259 0
M  V30 13477 C 1236.13 1.65288 0.16402 0
M  V30 13478 O 1237.32 1.90782 0.026537 0
M  V30 13479 C 1234.46 3.42614 -0.41344 0
M  V30 13480 C 1233.57 4.03835 -1.53432 0
M  V30 13481 C 1232.7 5.21531 -1.00891 0
M  V30 13482 C 1231.74 5.74761 -2.10515 0
M  V30 13483 N 1230.88 6.83756 -1.59442 0
M  V30 13484 H 1235.72 2.36312 -1.81551 0
M  V30 13485 H 1233.26 1.15929 -0.905483 0
M  V30 13486 H 1235.21 4.17035 -0.117181 0
M  V30 13487 H 1233.84 3.19323 0.472517 0
M  V30 13488 H 1232.9 3.2684 -1.94627 0
M  V30 13489 H 1234.21 4.3938 -2.36108 0
M  V30 13490 H 1233.36 6.03027 -0.666575 0
M  V30 13491 H 1232.1 4.87464 -0.151608 0
M  V30 13492 H 1231.11 4.91893 -2.45604 0
M  V30 13493 H 1232.33 6.10875 -2.96663 0
M  V30 13494 H 1230.28 6.51584 -0.759849 0
M  V30 13495 H 1230.19 7.18311 -2.35724 0
M  V30 13496 H 1231.46 7.68901 -1.28105 0
M  V30 13497 N 1235.69 0.975146 1.23809 0
M  V30 13498 C 1236.62 0.530389 2.27396 0
M  V30 13499 C 1237.6 -0.433763 1.64476 0
M  V30 13500 O 1238.79 -0.32827 1.91405 0
M  V30 13501 C 1235.92 -0.173066 3.46869 0
M  V30 13502 C 1234.87 0.707844 4.22106 0
M  V30 13503 C 1234.2 -0.127527 5.34548 0
M  V30 13504 C 1235.5 1.99609 4.82652 0
M  V30 13505 H 1237.19 1.39622 2.64851 0
M  V30 13506 H 1234.74 0.672802 1.27316 0
M  V30 13507 H 1236.69 -0.495481 4.18477 0
M  V30 13508 H 1235.41 -1.0733 3.0846 0
M  V30 13509 H 1234.07 1.01364 3.52308 0
M  V30 13510 H 1233.72 -1.02814 4.9238 0
M  V30 13511 H 1233.42 0.458728 5.85807 0
M  V30 13512 H 1234.95 -0.444443 6.0898 0
M  V30 13513 H 1236.36 1.73878 5.46296 0
M  V30 13514 H 1234.76 2.52969 5.44175 0
M  V30 13515 H 1235.83 2.68629 4.03691 0
M  V30 13516 N 1237.17 -1.38817 0.746158 0
M  V30 13517 C 1238.1 -2.33144 0.128836 0
M  V30 13518 C 1239.08 -1.54487 -0.711873 0
M  V30 13519 O 1240.27 -1.82836 -0.654577 0
M  V30 13520 C 1237.4 -3.38639 -0.770772 0
M  V30 13521 C 1236.35 -4.27987 -0.0333669 0
M  V30 13522 C 1235.68 -5.24274 -1.05073 0
M  V30 13523 C 1236.98 -5.09915 1.13066 0
M  V30 13524 H 1238.67 -2.85019 0.916778 0
M  V30 13525 H 1236.22 -1.37039 0.442306 0
M  V30 13526 H 1238.17 -4.03587 -1.21225 0
M  V30 13527 H 1236.89 -2.8523 -1.59095 0
M  V30 13528 H 1235.55 -3.64534 0.388612 0
M  V30 13529 H 1235.2 -4.67156 -1.86478 0
M  V30 13530 H 1234.9 -5.84906 -0.562037 0
M  V30 13531 H 1236.42 -5.92099 -1.49169 0
M  V30 13532 H 1237.84 -5.68145 0.767084 0
M  V30 13533 H 1236.23 -5.79744 1.54972 0
M  V30 13534 H 1237.3 -4.4409 1.94709 0
M  V30 13535 N 1238.65 -0.49465 -1.49636 0
M  V30 13536 C 1239.88 0.0491129 -2.06842 0
M  V30 13537 C 1240.29 1.31395 -1.35576 0
M  V30 13538 O 1239.65 1.7731 -0.432135 0
M  V30 13539 C 1239.7 0.313171 -3.60141 0
M  V30 13540 O 1239.42 -0.90152 -4.28724 0
M  V30 13541 C 1240.92 0.901284 -4.34041 0
M  V30 13542 H 1238.14 -0.0176186 -0.670769 0
M  V30 13543 H 1240.68 -0.690188 -1.92501 0
M  V30 13544 H 1238.84 1.00244 -3.74206 0
M  V30 13545 H 1239.25 -0.660477 -5.20325 0
M  V30 13546 H 1240.73 1.03567 -5.42197 0
M  V30 13547 H 1241.2 1.89746 -3.96097 0
M  V30 13548 H 1241.81 0.249677 -4.24566 0
M  V30 13549 N 1240.13 1.55939 -0.228214 0
M  V30 13550 C 1241.06 2.17874 0.711589 0
M  V30 13551 C 1242.07 1.14969 1.15265 0
M  V30 13552 O 1243.26 1.41919 1.08265 0
M  V30 13553 C 1240.36 2.75294 1.97652 0
M  V30 13554 C 1239.53 4.03435 1.68994 0
M  V30 13555 C 1238.59 4.45354 2.8026 0
M  V30 13556 O 1237.62 5.12117 2.48445 0
M  V30 13557 N 1238.82 4.11588 4.0936 0
M  V30 13558 H 1241.58 2.99148 0.181757 0
M  V30 13559 H 1239.15 1.6183 -0.0474567 0
M  V30 13560 H 1241.14 3.00305 2.71292 0
M  V30 13561 H 1239.71 1.98285 2.41665 0
M  V30 13562 H 1238.93 3.8621 0.789657 0
M  V30 13563 H 1240.22 4.87015 1.47287 0
M  V30 13564 H 1239.61 3.57953 4.38048 0
M  V30 13565 H 1238.17 4.41477 4.79522 0
M  V30 13566 N 1241.6 -0.0451101 1.57535 0
M  V30 13567 C 1242.85 -0.737654 1.88157 0
M  V30 13568 C 1243.17 -1.76743 0.823817 0
M  V30 13569 O 1242.44 -1.95366 -0.144503 0
M  V30 13570 H 1241.02 -0.275431 0.694368 0
M  V30 13571 H 1243.69 -0.0148651 1.94894 0
M  V30 13572 H 1242.78 -1.23726 2.86528 0
M  V30 13573 N 1243.08 -1.54377 -0.317073 0
M  V30 13574 C 1244.33 -1.72893 -1.05424 0
M  V30 13575 C 1244.66 -0.506082 -1.87801 0
M  V30 13576 O 1243.91 0.51213 -1.8888 0
M  V30 13577 C 1244.21 -2.96066 -2.00199 0
M  V30 13578 C 1243.88 -4.30551 -1.33927 0
M  V30 13579 C 1242.54 -4.67112 -1.15584 0
M  V30 13580 C 1244.89 -5.13986 -0.864158 0
M  V30 13581 C 1242.22 -5.84701 -0.483892 0
M  V30 13582 C 1244.57 -6.32264 -0.206006 0
M  V30 13583 C 1243.24 -6.67499 -0.0104849 0
M  V30 13584 H 1242.51 -0.63266 -0.385776 0
M  V30 13585 H 1245.15 -1.88623 -0.330722 0
M  V30 13586 H 1243.46 -2.7505 -2.79024 0
M  V30 13587 H 1245.15 -3.07586 -2.57278 0
M  V30 13588 H 1241.74 -4.0179 -1.49207 0
M  V30 13589 H 1245.93 -4.86252 -0.993635 0
M  V30 13590 H 1241.18 -6.10555 -0.32127 0
M  V30 13591 H 1245.36 -6.96192 0.170108 0
M  V30 13592 H 1242.99 -7.58472 0.512209 0
M  V30 13593 N 1244.56 0.579466 -1.4656 0
M  V30 13594 C 1245.79 1.36351 -1.55615 0
M  V30 13595 C 1246.2 1.87755 -0.198405 0
M  V30 13596 O 1245.56 1.63795 0.804834 0
M  V30 13597 C 1245.61 2.54881 -2.56355 0
M  V30 13598 O 1245.33 2.05607 -3.86856 0
M  V30 13599 C 1246.83 3.47391 -2.75381 0
M  V30 13600 H 1244.05 0.416426 -0.526147 0
M  V30 13601 H 1246.6 0.704134 -1.91995 0
M  V30 13602 H 1244.75 3.16802 -2.2297 0
M  V30 13603 H 1245.17 2.82823 -4.41714 0
M  V30 13604 H 1246.64 4.27031 -3.49783 0
M  V30 13605 H 1247.12 3.99532 -1.82403 0
M  V30 13606 H 1247.72 2.91303 -3.09875 0
M  V30 13607 N 1246.04 1.3432 0.824371 0
M  V30 13608 C 1246.99 1.2578 1.95658 0
M  V30 13609 C 1247.98 0.156199 1.68678 0
M  V30 13610 O 1249.19 0.321081 1.77113 0
M  V30 13611 H 1245.56 0.390711 0.642533 0
M  V30 13612 H 1247.53 2.21471 1.99983 0
M  V30 13613 C 1246.28 1.02865 3.32136 0
M  V30 13614 H 1245.6 1.86863 3.53443 0
M  V30 13615 H 1247.04 1.00925 4.11813 0
M  V30 13616 C 1245.5 -0.268097 3.35832 0
M  V30 13617 O 1246.03 -1.26995 3.81097 0
M  V30 13618 N 1244.24 -0.300702 2.8904 0
M  V30 13619 H 1243.79 0.51515 2.52396 0
M  V30 13620 H 1243.74 -1.16811 2.91895 0
M  V30 13621 N 1247.52 -1.0444 1.18026 0
M  V30 13622 C 1248.76 -1.77972 0.984767 0
M  V30 13623 C 1249.12 -1.86294 -0.480861 0
M  V30 13624 O 1248.41 -1.35724 -1.35239 0
M  V30 13625 C 1248.6 -3.21134 1.56869 0
M  V30 13626 C 1248.43 -3.26765 3.08958 0
M  V30 13627 C 1247.2 -3.35612 3.77747 0
M  V30 13628 C 1249.4 -3.15083 4.06482 0
M  V30 13629 N 1247.38 -3.30454 5.17372 0
M  V30 13630 C 1248.75 -3.17382 5.32606 0
M  V30 13631 C 1250.81 -2.99099 3.98051 0
M  V30 13632 C 1249.51 -3.05338 6.51277 0
M  V30 13633 C 1251.54 -2.88399 5.16314 0
M  V30 13634 C 1250.9 -2.91338 6.41328 0
M  V30 13635 H 1247 -0.66322 0.414323 0
M  V30 13636 H 1249.58 -1.24444 1.49739 0
M  V30 13637 H 1247.75 -3.73016 1.0823 0
M  V30 13638 H 1249.49 -3.82943 1.30908 0
M  V30 13639 H 1246.24 -3.41189 3.28462 0
M  V30 13640 H 1246.67 -3.31324 5.90384 0
M  V30 13641 H 1251.31 -2.95659 3.02234 0
M  V30 13642 H 1249.03 -3.07531 7.47296 0
M  V30 13643 H 1252.61 -2.77091 5.11578 0
M  V30 13644 H 1251.49 -2.83141 7.31301 0
M  V30 13645 N 1248.99 -0.981699 -1.2329 0
M  V30 13646 C 1249.94 -0.515432 -2.26817 0
M  V30 13647 C 1250.94 0.428204 -1.63899 0
M  V30 13648 O 1252.14 0.301954 -1.77449 0
M  V30 13649 H 1248.52 -0.148257 -0.737241 0
M  V30 13650 H 1250.49 -1.40027 -2.63505 0
M  V30 13651 C 1249.24 0.165266 -3.47307 0
M  V30 13652 H 1248.56 -0.55176 -3.95974 0
M  V30 13653 H 1250 0.45513 -4.2155 0
M  V30 13654 C 1248.46 1.39693 -3.06574 0
M  V30 13655 O 1248.99 2.49308 -3.14974 0
M  V30 13656 N 1247.2 1.26806 -2.61474 0
M  V30 13657 H 1246.74 0.376161 -2.54839 0
M  V30 13658 H 1246.7 2.09324 -2.34587 0
M  V30 13659 N 1250.47 1.3842 -0.753509 0
M  V30 13660 C 1251.42 2.30457 -0.12574 0
M  V30 13661 C 1252.39 1.50173 0.709728 0
M  V30 13662 O 1253.57 1.78804 0.665872 0
M  V30 13663 C 1250.71 3.36593 0.761503 0
M  V30 13664 C 1249.83 4.31909 -0.0885848 0
M  V30 13665 C 1248.96 5.25116 0.801655 0
M  V30 13666 C 1248 6.12078 -0.0520719 0
M  V30 13667 N 1247.14 6.97583 0.795124 0
M  V30 13668 H 1251.98 2.83567 -0.916187 0
M  V30 13669 H 1249.52 1.39609 -0.463436 0
M  V30 13670 H 1251.47 3.96738 1.29054 0
M  V30 13671 H 1250.1 2.84894 1.51774 0
M  V30 13672 H 1249.16 3.73227 -0.735249 0
M  V30 13673 H 1250.47 4.93161 -0.747899 0
M  V30 13674 H 1249.62 5.90377 1.39786 0
M  V30 13675 H 1248.36 4.6423 1.4947 0
M  V30 13676 H 1247.37 5.45813 -0.660946 0
M  V30 13677 H 1248.59 6.75032 -0.742178 0
M  V30 13678 H 1246.54 6.39246 1.47312 0
M  V30 13679 H 1246.45 7.55754 0.192705 0
M  V30 13680 H 1247.72 7.67254 1.3763 0
M  V30 13681 N 1251.95 0.502579 1.49372 0
M  V30 13682 C 1253.37 0.158641 1.5881 0
M  V30 13683 C 1253.57 -1.33688 1.50764 0
M  V30 13684 O 1252.62 -2.11295 1.38241 0
M  V30 13685 C 1253.94 0.736843 2.91532 0
M  V30 13686 C 1255.48 0.703093 3.05001 0
M  V30 13687 C 1255.96 1.25938 4.40345 0
M  V30 13688 N 1257.45 1.22015 4.46841 0
M  V30 13689 C 1258.18 1.62076 5.50017 0
M  V30 13690 N 1257.68 2.09736 6.6029 0
M  V30 13691 N 1259.47 1.53482 5.4074 0
M  V30 13692 H 1251.62 1.47487 1.52844 0
M  V30 13693 H 1253.89 0.611851 0.724115 0
M  V30 13694 H 1253.59 1.78573 3.02992 0
M  V30 13695 H 1253.47 0.198178 3.76679 0
M  V30 13696 H 1255.85 -0.336965 2.9317 0
M  V30 13697 H 1255.94 1.27892 2.21534 0
M  V30 13698 H 1255.58 2.29823 4.52928 0
M  V30 13699 H 1255.51 0.659481 5.22454 0
M  V30 13700 H 1258 0.870957 3.67726 0
M  V30 13701 H 1258.31 2.3837 7.35119 0
M  V30 13702 H 1256.66 2.13712 6.61326 0
M  V30 13703 H 1259.85 1.16065 4.53483 0
M  V30 13704 H 1260.02 1.85026 6.21023 0
M  V30 13705 N 1253.43 -1.55816 0.23648 0
M  V30 13706 C 1254.71 -1.90565 -0.440933 0
M  V30 13707 C 1255.09 -1.15585 -1.76645 0
M  V30 13708 O 1254.43 -0.269949 -2.269 0
M  V30 13709 C 1254.64 -3.43462 -0.61925 0
M  V30 13710 C 1255.99 -4.14516 -0.91989 0
M  V30 13711 O 1257.02 -3.49144 -0.705496 0
M  V30 13712 O 1255.87 -5.3013 -1.32759 0
M  V30 13713 H 1252.97 -0.79285 -0.235199 0
M  V30 13714 H 1255.51 -1.67378 0.279774 0
M  V30 13715 H 1254.29 -3.90029 0.315124 0
M  V30 13716 H 1253.91 -3.72478 -1.39089 0
M  V30 13717 N 1254.91 0.036755 -1.57557 0
M  V30 13718 C 1256.15 0.729106 -1.88919 0
M  V30 13719 C 1256.48 1.75769 -0.832801 0
M  V30 13720 O 1255.74 1.94985 0.167173 0
M  V30 13721 C 1256.04 1.44206 -3.27016 0
M  V30 13722 C 1255.7 0.550184 -4.47531 0
M  V30 13723 C 1254.36 0.304511 -4.80236 0
M  V30 13724 C 1256.72 -0.0660664 -5.21158 0
M  V30 13725 C 1254.04 -0.566316 -5.8396 0
M  V30 13726 C 1256.4 -0.92455 -6.25807 0
M  V30 13727 C 1255.06 -1.17976 -6.56992 0
M  V30 13728 H 1254.33 0.266799 -0.691303 0
M  V30 13729 H 1256.98 -0.0108698 -1.91497 0
M  V30 13730 H 1255.28 2.25516 -3.2039 0
M  V30 13731 H 1256.98 1.98317 -3.48527 0
M  V30 13732 H 1253.57 0.751814 -4.21955 0
M  V30 13733 H 1257.75 0.110784 -4.96176 0
M  V30 13734 H 1253.01 -0.772428 -6.06501 0
M  V30 13735 H 1257.18 -1.40861 -6.82005 0
M  V30 13736 H 1254.81 -1.85627 -7.37188 0
M  V30 13737 N 1256.39 1.54543 0.308881 0
M  V30 13738 C 1257.33 1.85693 1.40074 0
M  V30 13739 C 1258.33 0.730004 1.52864 0
M  V30 13740 O 1259.53 0.913884 1.55075 0
M  V30 13741 H 1255.91 0.588842 0.467728 0
M  V30 13742 H 1257.88 2.76973 1.11034 0
M  V30 13743 C 1256.63 2.11399 2.76054 0
M  V30 13744 H 1255.95 2.97583 2.66992 0
M  V30 13745 H 1257.39 2.37139 3.51484 0
M  V30 13746 C 1255.85 0.91007 3.24375 0
M  V30 13747 O 1256.38 0.12663 4.015 0
M  V30 13748 N 1254.59 0.717629 2.816 0
M  V30 13749 H 1254.13 1.35637 2.18998 0
M  V30 13750 H 1254.09 -0.0863585 3.14281 0
M  V30 13751 N 1257.86 -0.571685 1.46866 0
M  V30 13752 C 1258.8 -1.69475 1.54307 0
M  V30 13753 C 1259.81 -1.57006 0.430449 0
M  V30 13754 O 1261 -1.64229 0.69936 0
M  V30 13755 C 1258.1 -3.07824 1.41766 0
M  V30 13756 C 1257.27 -3.46189 2.67342 0
M  V30 13757 C 1256.33 -4.63642 2.48843 0
M  V30 13758 O 1255.36 -4.68949 3.22608 0
M  V30 13759 N 1256.56 -5.59223 1.55724 0
M  V30 13760 H 1259.32 -1.63543 2.51145 0
M  V30 13761 H 1256.88 -0.757957 1.43062 0
M  V30 13762 H 1258.88 -3.84208 1.27146 0
M  V30 13763 H 1257.45 -3.08063 0.530667 0
M  V30 13764 H 1256.67 -2.59399 2.96826 0
M  V30 13765 H 1257.95 -3.68591 3.50739 0
M  V30 13766 H 1257.35 -5.5768 0.949175 0
M  V30 13767 H 1255.91 -6.34993 1.47063 0
M  V30 13768 N 1259.34 -1.34755 -0.817236 0
M  V30 13769 C 1260.59 -1.27432 -1.57377 0
M  V30 13770 C 1260.92 0.15419 -1.93888 0
M  V30 13771 O 1260.17 1.11686 -1.60701 0
M  V30 13772 C 1260.47 -2.11611 -2.8802 0
M  V30 13773 C 1260.14 -3.60543 -2.70776 0
M  V30 13774 C 1258.8 -4.01141 -2.6578 0
M  V30 13775 C 1261.15 -4.55089 -2.54053 0
M  V30 13776 C 1258.48 -5.34469 -2.41991 0
M  V30 13777 C 1260.83 -5.88603 -2.31795 0
M  V30 13778 C 1259.49 -6.28358 -2.25215 0
M  V30 13779 H 1258.76 -0.466305 -0.575882 0
M  V30 13780 H 1261.41 -1.66552 -0.945128 0
M  V30 13781 H 1259.72 -1.65336 -3.55206 0
M  V30 13782 H 1261.41 -2.03287 -3.45652 0
M  V30 13783 H 1258 -3.2832 -2.75506 0
M  V30 13784 H 1262.19 -4.24617 -2.56932 0
M  V30 13785 H 1257.44 -5.64284 -2.35359 0
M  V30 13786 H 1261.62 -6.61451 -2.17844 0
M  V30 13787 H 1259.24 -7.31604 -2.06543 0
M  V30 13788 N 1260.82 1.03812 -1.18578 0
M  V30 13789 C 1262.07 1.76455 -0.977071 0
M  V30 13790 C 1262.38 1.8926 0.493964 0
M  V30 13791 O 1263.59 2.58781 0.821256 0
M  V30 13792 C 1262.04 3.17264 -1.69917 0
M  V30 13793 C 1261.65 3.12543 -3.20969 0
M  V30 13794 C 1263.4 3.94266 -1.57337 0
M  V30 13795 C 1261.3 4.48226 -3.85807 0
M  V30 13796 H 1260.23 0.661445 -0.361949 0
M  V30 13797 H 1262.88 1.16252 -1.41978 0
M  V30 13798 H 1261.27 3.77878 -1.18424 0
M  V30 13799 H 1262.44 2.61364 -3.79507 0
M  V30 13800 H 1260.75 2.49039 -3.33719 0
M  V30 13801 H 1263.35 4.9461 -2.03137 0
M  V30 13802 H 1263.69 4.12963 -0.526033 0
M  V30 13803 H 1264.23 3.40232 -2.06124 0
M  V30 13804 H 1260.97 4.34734 -4.90599 0
M  V30 13805 H 1260.49 4.99497 -3.32058 0
M  V30 13806 H 1262.17 5.17135 -3.88819 0
M  V30 13807 N 1262.3 0.988223 1.22768 0
M  V30 13808 C 1263.24 0.534605 2.24523 0
M  V30 13809 C 1264.21 -0.430615 1.60421 0
M  V30 13810 O 1265.4 -0.336417 1.87811 0
M  V30 13811 C 1262.54 -0.149195 3.44777 0
M  V30 13812 C 1261.65 0.85721 4.2341 0
M  V30 13813 C 1260.79 0.147411 5.30995 0
M  V30 13814 C 1259.83 1.1425 6.01343 0
M  V30 13815 N 1258.96 0.461327 7.00583 0
M  V30 13816 H 1263.8 1.40708 2.62689 0
M  V30 13817 H 1261.34 0.704918 1.2911 0
M  V30 13818 H 1263.3 -0.562527 4.1339 0
M  V30 13819 H 1261.93 -0.985485 3.07389 0
M  V30 13820 H 1260.98 1.38889 3.54138 0
M  V30 13821 H 1262.29 1.61517 4.71926 0
M  V30 13822 H 1261.45 -0.32289 6.0584 0
M  V30 13823 H 1260.19 -0.643085 4.83442 0
M  V30 13824 H 1259.19 1.62348 5.25284 0
M  V30 13825 H 1260.42 1.93379 6.50985 0
M  V30 13826 H 1258.36 -0.309818 6.55268 0
M  V30 13827 H 1258.28 1.15781 7.47082 0
M  V30 13828 H 1259.55 0.0136734 7.79499 0
M  V30 13829 N 1263.78 -1.38018 0.760839 0
M  V30 13830 C 1264.74 -2.28734 0.146154 0
M  V30 13831 C 1265.74 -1.47525 -0.639768 0
M  V30 13832 O 1266.93 -1.6788 -0.464964 0
M  V30 13833 C 1264.06 -3.31356 -0.801019 0
M  V30 13834 H 1265.25 -2.84599 0.945692 0
M  V30 13835 H 1262.81 -1.471 0.528323 0
M  V30 13836 H 1263.54 -2.80594 -1.62597 0
M  V30 13837 H 1263.33 -3.91366 -0.239775 0
M  V30 13838 H 1264.82 -3.99171 -1.22687 0
M  V30 13839 N 1265.25 -0.510493 -1.49103 0
M  V30 13840 C 1266.2 0.276449 -2.30951 0
M  V30 13841 C 1267.2 0.953893 -1.3999 0
M  V30 13842 O 1268.4 0.880499 -1.56994 0
M  V30 13843 H 1264.78 0.108013 -0.744202 0
M  V30 13844 H 1266.75 -0.433725 -2.95231 0
M  V30 13845 C 1265.5 1.32234 -3.21573 0
M  V30 13846 H 1264.82 0.810468 -3.91499 0
M  V30 13847 H 1266.26 1.84476 -3.81765 0
M  V30 13848 C 1264.72 2.3456 -2.41833 0
M  V30 13849 O 1265.25 3.40627 -2.12922 0
M  V30 13850 N 1263.45 2.07272 -2.03682 0
M  V30 13851 H 1263 1.21036 -2.27394 0
M  V30 13852 H 1262.96 2.75963 -1.50638 0
M  V30 13853 N 1266.73 1.55688 -0.24474 0
M  V30 13854 C 1267.64 2.24933 0.666519 0
M  V30 13855 C 1268.66 1.26471 1.19503 0
M  V30 13856 O 1269.83 1.59342 1.23176 0
M  V30 13857 C 1266.9 2.9336 1.84772 0
M  V30 13858 C 1265.96 4.07225 1.35889 0
M  V30 13859 C 1265.19 4.72381 2.48379 0
M  V30 13860 O 1265.42 4.36605 3.67059 0
M  V30 13861 O 1264.35 5.60933 2.18261 0
M  V30 13862 H 1268.18 3.03513 0.106507 0
M  V30 13863 H 1265.76 1.49394 -0.0133309 0
M  V30 13864 H 1267.64 3.36468 2.53708 0
M  V30 13865 H 1266.32 2.17721 2.39539 0
M  V30 13866 H 1265.22 3.68639 0.636881 0
M  V30 13867 H 1266.56 4.84676 0.857333 0
M  V30 13868 N 1268.21 -0.0283989 1.57574 0
M  V30 13869 C 1269.16 -1.02881 2.06601 0
M  V30 13870 C 1270.13 -1.35879 0.955308 0
M  V30 13871 O 1271.31 -1.46205 1.22592 0
M  V30 13872 C 1268.45 -2.32447 2.55073 0
M  V30 13873 C 1267.56 -2.05602 3.79937 0
M  V30 13874 C 1266.7 -3.29043 4.17018 0
M  V30 13875 C 1265.74 -2.97755 5.34797 0
M  V30 13876 N 1264.88 -4.1365 5.67308 0
M  V30 13877 H 1269.72 -0.603772 2.91819 0
M  V30 13878 H 1267.25 -0.286503 1.44283 0
M  V30 13879 H 1269.21 -3.08152 2.81244 0
M  V30 13880 H 1267.84 -2.72672 1.72771 0
M  V30 13881 H 1266.89 -1.2039 3.60847 0
M  V30 13882 H 1268.2 -1.78522 4.65759 0
M  V30 13883 H 1267.36 -4.13115 4.4432 0
M  V30 13884 H 1266.1 -3.59237 3.29849 0
M  V30 13885 H 1265.1 -2.12085 5.07247 0
M  V30 13886 H 1266.33 -2.68839 6.23621 0
M  V30 13887 H 1264.27 -4.43794 4.83097 0
M  V30 13888 H 1264.19 -3.89996 6.47641 0
M  V30 13889 H 1265.46 -4.98594 5.99186 0
M  V30 13890 N 1269.69 -1.54705 -0.300681 0
M  V30 13891 C 1270.93 -1.75189 -1.03345 0
M  V30 13892 C 1271.29 -0.531398 -1.84916 0
M  V30 13893 O 1270.58 0.476194 -1.85588 0
M  V30 13894 C 1270.78 -2.98173 -1.97047 0
M  V30 13895 C 1270.6 -4.32067 -1.24694 0
M  V30 13896 C 1269.37 -4.95825 -0.973967 0
M  V30 13897 C 1271.57 -5.1016 -0.651224 0
M  V30 13898 N 1269.55 -6.13503 -0.220737 0
M  V30 13899 C 1270.93 -6.19992 -0.0307781 0
M  V30 13900 C 1272.98 -4.94782 -0.556306 0
M  V30 13901 C 1271.68 -7.16122 0.675403 0
M  V30 13902 C 1273.71 -5.91243 0.136221 0
M  V30 13903 C 1273.07 -7.00444 0.745517 0
M  V30 13904 H 1269.17 -0.693643 -0.361087 0
M  V30 13905 H 1271.75 -1.92183 -0.312046 0
M  V30 13906 H 1269.93 -2.82604 -2.66439 0
M  V30 13907 H 1271.66 -3.07182 -2.63479 0
M  V30 13908 H 1268.41 -4.56193 -1.2722 0
M  V30 13909 H 1268.84 -6.7685 0.142402 0
M  V30 13910 H 1273.48 -4.10483 -1.01307 0
M  V30 13911 H 1271.2 -7.99962 1.14394 0
M  V30 13912 H 1274.78 -5.81422 0.209611 0
M  V30 13913 H 1273.66 -7.73801 1.27287 0
M  V30 13914 N 1271.17 0.563888 -1.47167 0
M  V30 13915 C 1272.41 1.31875 -1.53145 0
M  V30 13916 C 1272.74 1.94047 -0.192518 0
M  V30 13917 O 1272.01 1.79577 0.782872 0
M  V30 13918 H 1270.59 0.489694 -0.5641 0
M  V30 13919 H 1273.25 0.658976 -1.83422 0
M  V30 13920 H 1272.34 2.11574 -2.2944 0
M  V30 13921 N 1272.64 1.35187 0.810078 0
M  V30 13922 C 1274.06 1.15149 1.10512 0
M  V30 13923 C 1274.26 -0.038394 2.01463 0
M  V30 13924 O 1273.32 -0.710056 2.42311 0
M  V30 13925 C 1274.63 2.45282 1.73946 0
M  V30 13926 C 1276.18 2.51457 1.86382 0
M  V30 13927 C 1276.65 3.81625 2.53232 0
M  V30 13928 N 1278.14 3.82856 2.6072 0
M  V30 13929 C 1278.88 4.80302 3.13206 0
M  V30 13930 N 1278.37 5.88134 3.66156 0
M  V30 13931 N 1280.17 4.67743 3.11726 0
M  V30 13932 H 1272.32 2.11405 0.205391 0
M  V30 13933 H 1274.58 0.935457 0.153702 0
M  V30 13934 H 1274.29 3.32512 1.14582 0
M  V30 13935 H 1274.16 2.59573 2.73682 0
M  V30 13936 H 1276.55 1.64659 2.44891 0
M  V30 13937 H 1276.63 2.41084 0.855113 0
M  V30 13938 H 1276.27 4.68819 1.95375 0
M  V30 13939 H 1276.2 3.89285 3.54633 0
M  V30 13940 H 1278.69 3.04941 2.23203 0
M  V30 13941 H 1279.01 6.58487 4.04494 0
M  V30 13942 H 1277.35 5.91831 3.64364 0
M  V30 13943 H 1280.54 3.82642 2.69635 0
M  V30 13944 H 1280.72 5.43849 3.52324 0
M  V30 13945 N 1274.12 -1.03182 1.19127 0
M  V30 13946 C 1275.4 -1.73586 0.901507 0
M  V30 13947 C 1275.78 -2.02585 -0.593521 0
M  V30 13948 O 1275.13 -1.67813 -1.55084 0
M  V30 13949 C 1275.34 -3.01472 1.75829 0
M  V30 13950 C 1276.69 -3.75037 1.99078 0
M  V30 13951 O 1277.71 -3.11392 1.72956 0
M  V30 13952 O 1276.57 -4.8945 2.43108 0
M  V30 13953 H 1273.66 -0.755797 0.335708 0
M  V30 13954 H 1276.21 -1.09167 1.29925 0
M  V30 13955 H 1274.98 -2.76247 2.77134 0
M  V30 13956 H 1274.6 -3.73631 1.35963 0
M  V30 13957 N 1275.6 -0.99472 -1.22242 0
M  V30 13958 C 1276.88 -0.587481 -1.86569 0
M  V30 13959 C 1277.26 0.935174 -1.89256 0
M  V30 13960 O 1276.61 1.81787 -1.3844 0
M  V30 13961 C 1276.82 -1.21001 -3.27353 0
M  V30 13962 C 1278.16 -1.31167 -4.03832 0
M  V30 13963 O 1279.19 -1.16454 -3.36626 0
M  V30 13964 O 1278.05 -1.54731 -5.24138 0
M  V30 13965 H 1275.14 -0.199838 -0.802492 0
M  V30 13966 H 1277.69 -1.09071 -1.30006 0
M  V30 13967 H 1276.46 -2.25143 -3.20041 0
M  V30 13968 H 1276.08 -0.692479 -3.91523 0
M  V30 13969 N 1277.08 1.37613 -0.768148 0
M  V30 13970 C 1278.33 1.99023 -0.327543 0
M  V30 13971 C 1278.64 1.61669 1.10103 0
M  V30 13972 O 1279.85 2.16155 1.64284 0
M  V30 13973 C 1278.3 3.55906 -0.534674 0
M  V30 13974 C 1277.91 4.02201 -1.97327 0
M  V30 13975 C 1279.65 4.24208 -0.157512 0
M  V30 13976 C 1277.56 5.51781 -2.12819 0
M  V30 13977 H 1276.49 0.744595 -0.118722 0
M  V30 13978 H 1279.14 1.5719 -0.946764 0
M  V30 13979 H 1277.52 3.95701 0.153951 0
M  V30 13980 H 1278.7 3.73661 -2.69655 0
M  V30 13981 H 1277.01 3.46671 -2.30669 0
M  V30 13982 H 1279.61 5.34107 -0.251824 0
M  V30 13983 H 1279.95 4.06636 0.89177 0
M  V30 13984 H 1280.49 3.89703 -0.798546 0
M  V30 13985 H 1277.23 5.74274 -3.16053 0
M  V30 13986 H 1276.75 5.82017 -1.4497 0
M  V30 13987 H 1278.42 6.17697 -1.92508 0
M  V30 13988 N 1278.56 0.518393 1.4883 0
M  V30 13989 C 1279.47 -0.254811 2.33212 0
M  V30 13990 C 1280.48 -0.950401 1.45751 0
M  V30 13991 O 1281.66 -0.927932 1.78749 0
M  V30 13992 C 1278.72 -1.29509 3.21603 0
M  V30 13993 C 1277.78 -0.611086 4.24928 0
M  V30 13994 C 1277.02 -1.6018 5.09095 0
M  V30 13995 O 1277.24 -2.83336 4.95052 0
M  V30 13996 O 1276.17 -1.14756 5.90859 0
M  V30 13997 H 1280 0.436329 3.00549 0
M  V30 13998 H 1277.59 0.27947 1.46763 0
M  V30 13999 H 1279.47 -1.89654 3.7631 0
M  V30 14000 H 1278.14 -1.96884 2.5694 0
M  V30 14001 H 1277.05 0.0305638 3.74088 0
M  V30 14002 H 1278.38 0.0205249 4.92196 0
M  V30 14003 N 1280.03 -1.55556 0.252993 0
M  V30 14004 C 1280.98 -2.23035 -0.660161 0
M  V30 14005 C 1281.98 -1.21994 -1.17532 0
M  V30 14006 O 1283.18 -1.39989 -1.13151 0
M  V30 14007 H 1279.56 -0.715516 -0.23139 0
M  V30 14008 H 1281.53 -2.98323 -0.0679506 0
M  V30 14009 C 1280.28 -2.94817 -1.84332 0
M  V30 14010 H 1279.6 -3.72342 -1.45607 0
M  V30 14011 H 1281.04 -3.45386 -2.45936 0
M  V30 14012 C 1279.5 -1.99033 -2.71822 0
M  V30 14013 O 1280.03 -1.5273 -3.71533 0
M  V30 14014 N 1278.24 -1.66004 -2.38518 0
M  V30 14015 H 1277.78 -2.03853 -1.57485 0
M  V30 14016 H 1277.74 -1.02183 -2.97331 0
M  V30 14017 N 1281.51 0.0200419 -1.57587 0
M  V30 14018 C 1282.76 0.708115 -1.88861 0
M  V30 14019 C 1283.07 1.76036 -0.852693 0
M  V30 14020 O 1284.28 2.50165 -1.05497 0
M  V30 14021 C 1282.74 1.31057 -3.3519 0
M  V30 14022 C 1282.34 0.294202 -4.47033 0
M  V30 14023 C 1284.09 1.97799 -3.756 0
M  V30 14024 C 1282 0.905508 -5.84427 0
M  V30 14025 H 1280.93 0.268236 -0.704674 0
M  V30 14026 H 1283.58 -0.0372162 -1.83462 0
M  V30 14027 H 1281.96 2.1059 -3.35362 0
M  V30 14028 H 1283.13 -0.475081 -4.58344 0
M  V30 14029 H 1281.45 -0.271644 -4.15513 0
M  V30 14030 H 1284.04 2.44404 -4.75574 0
M  V30 14031 H 1284.39 2.80004 -3.08064 0
M  V30 14032 H 1284.92 1.25028 -3.77641 0
M  V30 14033 H 1281.66 0.122685 -6.55385 0
M  V30 14034 H 1281.18 1.64442 -5.76818 0
M  V30 14035 H 1282.86 1.41016 -6.31446 0
M  V30 14036 N 1282.99 1.54862 0.292472 0
M  V30 14037 C 1283.95 1.8565 1.34413 0
M  V30 14038 C 1284.95 0.729868 1.43281 0
M  V30 14039 O 1286.14 0.998128 1.42769 0
M  V30 14040 C 1283.28 2.0444 2.72795 0
M  V30 14041 H 1284.47 2.79642 1.08354 0
M  V30 14042 H 1282.02 1.47055 0.529574 0
M  V30 14043 H 1282.76 1.12765 3.04063 0
M  V30 14044 H 1282.54 2.86451 2.67747 0
M  V30 14045 H 1284.03 2.296 3.48817 0
M  V30 14046 N 1284.47 -0.556076 1.47464 0
M  V30 14047 C 1285.88 -0.882115 1.33007 0
M  V30 14048 C 1286.08 -1.9892 0.321407 0
M  V30 14049 O 1285.14 -2.51088 -0.266668 0
M  V30 14050 C 1286.45 -1.27428 2.72365 0
M  V30 14051 C 1288 -1.38564 2.80658 0
M  V30 14052 C 1288.48 -1.81136 4.20659 0
M  V30 14053 N 1289.97 -1.88284 4.23206 0
M  V30 14054 C 1290.7 -2.22555 5.28447 0
M  V30 14055 N 1290.2 -2.55432 6.43993 0
M  V30 14056 N 1291.99 -2.23339 5.15826 0
M  V30 14057 H 1284.14 0.17481 2.11679 0
M  V30 14058 H 1286.41 0.0155421 0.947873 0
M  V30 14059 H 1286.11 -0.53463 3.47613 0
M  V30 14060 H 1285.99 -2.23019 3.04208 0
M  V30 14061 H 1288.37 -2.1161 2.05682 0
M  V30 14062 H 1288.45 -0.411588 2.52467 0
M  V30 14063 H 1288.1 -1.08659 4.96141 0
M  V30 14064 H 1288.03 -2.79546 4.46275 0
M  V30 14065 H 1290.52 -1.65259 3.3985 0
M  V30 14066 H 1290.83 -2.80612 7.20053 0
M  V30 14067 H 1289.18 -2.5301 6.47311 0
M  V30 14068 H 1292.37 -1.97094 4.24584 0
M  V30 14069 H 1292.54 -2.49717 5.97951 0
M  V30 14070 N 1285.95 -1.35615 -0.802897 0
M  V30 14071 C 1286.86 -1.3096 -1.94645 0
M  V30 14072 C 1287.87 -0.213909 -1.7268 0
M  V30 14073 O 1289.05 -0.443932 -1.96446 0
M  V30 14074 C 1286.11 -1.08483 -3.2929 0
M  V30 14075 C 1285.18 -2.27401 -3.64126 0
M  V30 14076 C 1284.41 -2.05987 -4.92347 0
M  V30 14077 O 1284.63 -1.02819 -5.61057 0
M  V30 14078 O 1283.57 -2.93439 -5.25526 0
M  V30 14079 H 1287.39 -2.27209 -2.01519 0
M  V30 14080 H 1284.98 -1.16024 -0.941214 0
M  V30 14081 H 1286.86 -0.978118 -4.09891 0
M  V30 14082 H 1285.53 -0.152885 -3.23339 0
M  V30 14083 H 1284.44 -2.43638 -2.83886 0
M  V30 14084 H 1285.77 -3.19055 -3.74786 0
M  V30 14085 N 1287.43 1.02549 -1.19673 0
M  V30 14086 C 1288.67 1.76265 -1.00293 0
M  V30 14087 C 1289 1.88555 0.464816 0
M  V30 14088 O 1288.28 1.40484 1.34515 0
M  V30 14089 C 1288.56 3.18688 -1.6766 0
M  V30 14090 C 1288.42 3.14247 -3.21821 0
M  V30 14091 C 1289.73 4.17159 -1.40238 0
M  V30 14092 H 1286.85 0.639837 -0.365756 0
M  V30 14093 H 1289.5 1.19691 -1.4756 0
M  V30 14094 H 1287.65 3.66992 -1.27472 0
M  V30 14095 H 1289.32 2.73815 -3.71245 0
M  V30 14096 H 1287.56 2.51874 -3.53188 0
M  V30 14097 H 1288.23 4.14886 -3.64107 0
M  V30 14098 H 1290.71 3.77471 -1.75086 0
M  V30 14099 H 1289.58 5.14997 -1.89919 0
M  V30 14100 H 1289.84 4.4088 -0.328197 0
M  V30 14101 N 1288.9 1.00119 1.21713 0
M  V30 14102 C 1289.81 0.567582 2.27631 0
M  V30 14103 C 1290.83 -0.387593 1.69628 0
M  V30 14104 O 1292.01 -0.252372 1.99813 0
M  V30 14105 C 1289.07 -0.102745 3.46548 0
M  V30 14106 C 1288.13 0.896433 4.19836 0
M  V30 14107 C 1287.36 0.258 5.33076 0
M  V30 14108 O 1287.59 -0.946118 5.62499 0
M  V30 14109 O 1286.52 0.967021 5.94081 0
M  V30 14110 H 1290.35 1.44898 2.66905 0
M  V30 14111 H 1287.93 0.769862 1.28037 0
M  V30 14112 H 1289.81 -0.477846 4.18682 0
M  V30 14113 H 1288.49 -0.958576 3.09181 0
M  V30 14114 H 1287.4 1.32262 3.49939 0
M  V30 14115 H 1288.73 1.72173 4.61104 0
M  V30 14116 N 1290.38 -1.37203 0.775435 0
M  V30 14117 C 1291.63 -1.99207 0.340756 0
M  V30 14118 C 1291.95 -1.61861 -1.08747 0
M  V30 14119 O 1291.22 -0.88583 -1.74728 0
M  V30 14120 H 1289.8 -0.736803 0.123004 0
M  V30 14121 H 1292.46 -1.67625 0.994379 0
M  V30 14122 H 1291.56 -3.09243 0.421346 0
M  V30 14123 N 1291.86 -0.526279 -1.48553 0
M  V30 14124 C 1292.81 0.238513 -2.29564 0
M  V30 14125 C 1293.78 0.937222 -1.37133 0
M  V30 14126 O 1294.96 0.93897 -1.66096 0
M  V30 14127 C 1292.1 1.28173 -3.20415 0
M  V30 14128 C 1291.21 0.592244 -4.27921 0
M  V30 14129 C 1290.35 1.61808 -5.05956 0
M  V30 14130 C 1289.39 0.911846 -6.0527 0
M  V30 14131 N 1288.53 1.88305 -6.76377 0
M  V30 14132 H 1293.37 -0.458502 -2.94452 0
M  V30 14133 H 1290.9 -0.237948 -1.45163 0
M  V30 14134 H 1292.86 1.89883 -3.71484 0
M  V30 14135 H 1291.49 1.94718 -2.57458 0
M  V30 14136 H 1290.54 -0.138714 -3.80147 0
M  V30 14137 H 1291.85 0.0375427 -4.98786 0
M  V30 14138 H 1291.01 2.30956 -5.61021 0
M  V30 14139 H 1289.75 2.20667 -4.34922 0
M  V30 14140 H 1288.75 0.206273 -5.49413 0
M  V30 14141 H 1289.98 0.329415 -6.78301 0
M  V30 14142 H 1287.92 2.46079 -6.08096 0
M  V30 14143 H 1287.84 1.37969 -7.43304 0
M  V30 14144 H 1289.11 2.56663 -7.36033 0
M  V30 14145 N 1293.34 1.5542 -0.261239 0
M  V30 14146 C 1294.57 2.03687 0.363225 0
M  V30 14147 C 1294.98 1.14007 1.50492 0
M  V30 14148 O 1294.34 0.157349 1.8182 0
M  V30 14149 C 1294.39 3.51184 0.857435 0
M  V30 14150 O 1294.11 4.37449 -0.238776 0
M  V30 14151 C 1295.61 4.15277 1.55113 0
M  V30 14152 H 1292.83 0.665641 0.0846356 0
M  V30 14153 H 1295.37 2.00761 -0.389288 0
M  V30 14154 H 1293.53 3.54599 1.56008 0
M  V30 14155 H 1293.94 5.24316 0.138821 0
M  V30 14156 H 1295.42 5.20129 1.8485 0
M  V30 14157 H 1295.89 3.62619 2.47799 0
M  V30 14158 H 1296.5 4.15826 0.892695 0
M  V30 14159 N 1294.82 -0.0116844 1.57596 0
M  V30 14160 C 1296.23 -0.55604 1.78228 0
M  V30 14161 C 1296.58 -1.74624 0.894474 0
M  V30 14162 O 1295.7 -2.16196 0.0938498 0
M  V30 14163 C 1296.3 -1.0155 3.23223 0
M  V30 14164 C 1294.86 -1.50525 3.44992 0
M  V30 14165 C 1294 -0.451133 2.73606 0
M  V30 14166 H 1296.95 0.214516 1.57243 0
M  V30 14167 H 1296.98 -1.88208 3.30693 0
M  V30 14168 H 1296.49 -0.149048 3.87814 0
M  V30 14169 H 1294.59 -2.39298 2.856 0
M  V30 14170 H 1294.7 -1.54076 4.53649 0
M  V30 14171 H 1293.07 -0.910135 2.37884 0
M  V30 14172 H 1293.85 0.406152 3.40889 0
M  V30 14173 N 1296.29 -1.55015 -0.284256 0
M  V30 14174 C 1297.2 -1.90203 -1.37332 0
M  V30 14175 C 1298.22 -0.797994 -1.54622 0
M  V30 14176 O 1299.4 -1.09602 -1.68965 0
M  V30 14177 C 1296.46 -2.15687 -2.71441 0
M  V30 14178 C 1295.52 -3.39313 -2.62993 0
M  V30 14179 C 1294.75 -3.63571 -3.90707 0
M  V30 14180 O 1294.98 -2.90538 -4.9086 0
M  V30 14181 O 1293.91 -4.57102 -3.91589 0
M  V30 14182 H 1297.74 -2.82888 -1.1049 0
M  V30 14183 H 1295.32 -1.41418 -0.481798 0
M  V30 14184 H 1297.2 -2.33553 -3.50758 0
M  V30 14185 H 1295.88 -1.26185 -2.98092 0
M  V30 14186 H 1294.79 -3.26793 -1.82091 0
M  V30 14187 H 1296.12 -4.28997 -2.41293 0
M  V30 14188 N 1297.77 0.548248 -1.47757 0
M  V30 14189 C 1298.68 1.68178 -1.63565 0
M  V30 14190 C 1299.7 1.661 -0.518351 0
M  V30 14191 O 1300.87 1.85384 -0.787061 0
M  V30 14192 C 1297.94 3.04673 -1.65454 0
M  V30 14193 C 1297 3.17749 -2.88677 0
M  V30 14194 C 1296.23 4.47733 -2.90466 0
M  V30 14195 O 1296.46 5.33736 -2.01201 0
M  V30 14196 O 1295.39 4.64789 -3.82433 0
M  V30 14197 H 1299.22 1.57781 -2.59497 0
M  V30 14198 H 1296.8 0.719277 -1.30946 0
M  V30 14199 H 1298.68 3.85885 -1.69324 0
M  V30 14200 H 1297.36 3.15433 -0.726912 0
M  V30 14201 H 1296.26 2.359 -2.90348 0
M  V30 14202 H 1297.6 3.11897 -3.80763 0
M  V30 14203 N 1299.25 1.36039 0.795694 0
M  V30 14204 C 1300.5 1.30112 1.5556 0
M  V30 14205 C 1300.83 -0.121197 1.93821 0
M  V30 14206 O 1300.1 -1.07313 1.62216 0
M  V30 14207 C 1300.39 2.21792 2.8369 0
M  V30 14208 C 1300.24 3.72691 2.51836 0
M  V30 14209 C 1301.56 2.12365 3.85472 0
M  V30 14210 H 1298.68 0.473971 0.564376 0
M  V30 14211 H 1301.32 1.66536 0.91465 0
M  V30 14212 H 1299.47 1.9086 3.38386 0
M  V30 14213 H 1301.14 4.14115 2.0324 0
M  V30 14214 H 1299.38 3.92436 1.84869 0
M  V30 14215 H 1300.06 4.32242 3.43323 0
M  V30 14216 H 1302.53 2.3958 3.40207 0
M  V30 14217 H 1301.41 2.78695 4.72885 0
M  V30 14218 H 1301.67 1.10898 4.27965 0
M  V30 14219 N 1300.73 -1.01913 1.20215 0
M  V30 14220 C 1301.98 -1.74878 1.00502 0
M  V30 14221 C 1302.29 -1.90022 -0.463792 0
M  V30 14222 O 1303.5 -2.60055 -0.779982 0
M  V30 14223 C 1301.95 -3.1452 1.74943 0
M  V30 14224 C 1301.56 -3.07397 3.259 0
M  V30 14225 C 1303.3 -3.91713 1.63589 0
M  V30 14226 C 1301.21 -4.42032 3.92889 0
M  V30 14227 H 1300.14 -0.655603 0.372426 0
M  V30 14228 H 1302.79 -1.13978 1.4381 0
M  V30 14229 H 1301.17 -3.75946 1.24421 0
M  V30 14230 H 1302.35 -2.55294 3.83617 0
M  V30 14231 H 1300.66 -2.43698 3.37639 0
M  V30 14232 H 1303.26 -4.91316 2.1098 0
M  V30 14233 H 1303.6 -4.12074 0.591665 0
M  V30 14234 H 1304.14 -3.3691 2.11511 0
M  V30 14235 H 1300.88 -4.26874 4.97453 0
M  V30 14236 H 1300.4 -4.94151 3.39962 0
M  V30 14237 H 1302.07 -5.10884 3.96997 0
M  V30 14238 N 1302.21 -1.00763 -1.2118 0
M  V30 14239 C 1303.12 -0.579646 -2.27326 0
M  V30 14240 C 1304.13 0.378592 -1.69831 0
M  V30 14241 O 1305.31 0.241772 -1.99944 0
M  V30 14242 C 1302.37 0.0843648 -3.46597 0
M  V30 14243 C 1301.43 -0.918685 -4.19355 0
M  V30 14244 C 1300.67 -0.286267 -5.32932 0
M  V30 14245 O 1300.89 0.916274 -5.62993 0
M  V30 14246 O 1299.82 -0.998513 -5.9356 0
M  V30 14247 H 1303.65 -1.46311 -2.66133 0
M  V30 14248 H 1301.24 -0.776641 -1.27627 0
M  V30 14249 H 1303.12 0.455636 -4.18929 0
M  V30 14250 H 1301.79 0.942166 -3.09685 0
M  V30 14251 H 1300.7 -1.34116 -3.49233 0
M  V30 14252 H 1302.03 -1.74616 -4.60185 0
M  V30 14253 N 1303.68 1.3679 -0.7827 0
M  V30 14254 C 1304.91 2.03382 -0.363207 0
M  V30 14255 C 1305.32 1.59157 1.02302 0
M  V30 14256 O 1304.67 0.773325 1.66629 0
M  V30 14257 C 1304.73 3.57889 -0.34001 0
M  V30 14258 C 1304.39 4.25289 -1.67268 0
M  V30 14259 C 1305.39 4.48647 -2.62701 0
M  V30 14260 C 1303.07 4.62899 -1.95013 0
M  V30 14261 C 1305.07 5.08686 -3.8408 0
M  V30 14262 C 1302.75 5.22657 -3.16659 0
M  V30 14263 C 1303.75 5.45489 -4.11012 0
M  V30 14264 O 1303.44 6.03995 -5.30515 0
M  V30 14265 H 1303.17 0.659452 -0.148658 0
M  V30 14266 H 1305.73 1.75885 -1.06082 0
M  V30 14267 H 1303.96 3.84477 0.414055 0
M  V30 14268 H 1305.65 4.05864 0.0539009 0
M  V30 14269 H 1306.41 4.19993 -2.42551 0
M  V30 14270 H 1302.29 4.44455 -1.22395 0
M  V30 14271 H 1305.83 5.26423 -4.57738 0
M  V30 14272 H 1301.73 5.50736 -3.3669 0
M  V30 14273 H 1302.5 6.22466 -5.31487 0
M  V30 14274 N 1305.16 0.53415 1.48272 0
M  V30 14275 C 1306.39 0.00368464 2.074 0
M  V30 14276 C 1306.81 -1.27003 1.38751 0
M  V30 14277 O 1306.17 -1.75502 0.454817 0
M  V30 14278 C 1306.22 -0.199034 3.6005 0
M  V30 14279 O 1305.32 -1.26679 3.92462 0
M  V30 14280 H 1304.66 0.0409936 0.662733 0
M  V30 14281 H 1307.19 0.743253 1.90622 0
M  V30 14282 H 1307.2 -0.420404 4.05828 0
M  V30 14283 H 1305.88 0.731391 4.09418 0
M  V30 14284 H 1304.46 -1.02775 3.58457 0
M  V30 14285 N 1306.64 -1.55279 0.269478 0
M  V30 14286 C 1307.6 -2.21008 -0.607299 0
M  V30 14287 C 1308.6 -1.18619 -1.08564 0
M  V30 14288 O 1309.79 -1.4356 -0.986721 0
M  V30 14289 C 1306.93 -2.87157 -1.83721 0
M  V30 14290 H 1308.12 -2.99881 -0.0334894 0
M  V30 14291 H 1305.67 -1.56287 0.0200573 0
M  V30 14292 H 1306.41 -2.12281 -2.45168 0
M  V30 14293 H 1306.19 -3.62183 -1.5022 0
M  V30 14294 H 1307.68 -3.37391 -2.46083 0
M  V30 14295 N 1308.12 0.00332656 -1.576 0
M  V30 14296 C 1309.36 0.68989 -1.90705 0
M  V30 14297 C 1309.7 1.73608 -0.870291 0
M  V30 14298 O 1308.97 1.94181 0.111416 0
M  V30 14299 C 1309.26 1.33605 -3.34397 0
M  V30 14300 C 1309.11 0.301638 -4.48787 0
M  V30 14301 C 1310.43 2.26313 -3.77453 0
M  V30 14302 H 1307.55 0.249328 -0.693545 0
M  V30 14303 H 1310.19 -0.0472847 -1.89941 0
M  V30 14304 H 1308.34 1.96437 -3.35179 0
M  V30 14305 H 1310.01 -0.326738 -4.60141 0
M  V30 14306 H 1308.25 -0.376451 -4.32163 0
M  V30 14307 H 1308.92 0.792741 -5.46278 0
M  V30 14308 H 1311.4 1.73502 -3.78201 0
M  V30 14309 H 1310.28 2.68492 -4.78752 0
M  V30 14310 H 1310.54 3.14082 -3.11135 0
M  V30 14311 N 1309.6 1.55164 0.276031 0
M  V30 14312 C 1310.84 1.75627 1.00803 0
M  V30 14313 C 1311.17 0.555696 1.86393 0
M  V30 14314 O 1310.43 -0.461872 1.90172 0
M  V30 14315 C 1310.73 3.0127 1.92279 0
M  V30 14316 C 1310.39 4.33951 1.22464 0
M  V30 14317 C 1309.05 4.70013 1.03158 0
M  V30 14318 C 1311.41 5.16097 0.72758 0
M  V30 14319 C 1308.73 5.85779 0.328699 0
M  V30 14320 C 1311.09 6.32588 0.0383001 0
M  V30 14321 C 1309.75 6.67292 -0.166494 0
M  V30 14322 H 1309.02 0.642665 0.368866 0
M  V30 14323 H 1311.67 1.89433 0.280595 0
M  V30 14324 H 1309.97 2.82351 2.71634 0
M  V30 14325 H 1311.67 3.14299 2.49032 0
M  V30 14326 H 1308.26 4.05605 1.38501 0
M  V30 14327 H 1312.44 4.88715 0.864365 0
M  V30 14328 H 1307.7 6.11192 0.159279 0
M  V30 14329 H 1311.87 6.95496 -0.354631 0
M  V30 14330 H 1309.5 7.56848 -0.713124 0
M  V30 14331 N 1311.07 -0.540404 1.48045 0
M  V30 14332 C 1312.32 -1.29628 1.56742 0
M  V30 14333 C 1312.68 -1.90975 0.233761 0
M  V30 14334 O 1311.97 -1.75781 -0.762333 0
M  V30 14335 C 1312.16 -2.41517 2.63447 0
M  V30 14336 C 1311.99 -1.91137 4.07059 0
M  V30 14337 C 1310.76 -1.74214 4.74318 0
M  V30 14338 C 1312.96 -1.44598 4.93554 0
M  V30 14339 N 1310.94 -1.1835 6.02384 0
M  V30 14340 C 1312.31 -1.00612 6.11782 0
M  V30 14341 C 1314.37 -1.32805 4.79862 0
M  V30 14342 C 1313.07 -0.460024 7.17827 0
M  V30 14343 C 1315.1 -0.795956 5.86019 0
M  V30 14344 C 1314.46 -0.36611 7.03448 0
M  V30 14345 H 1310.56 -0.46575 0.628173 0
M  V30 14346 H 1313.14 -0.610609 1.84877 0
M  V30 14347 H 1311.31 -3.07594 2.37151 0
M  V30 14348 H 1313.04 -3.08539 2.61889 0
M  V30 14349 H 1309.8 -1.97429 4.30487 0
M  V30 14350 H 1310.22 -0.924579 6.70657 0
M  V30 14351 H 1314.87 -1.64645 3.89425 0
M  V30 14352 H 1312.58 -0.129275 8.07997 0
M  V30 14353 H 1316.17 -0.708026 5.77476 0
M  V30 14354 H 1315.05 0.0392247 7.8419 0
M  V30 14355 N 1312.55 -1.36459 -0.788468 0
M  V30 14356 C 1313.46 -1.33017 -1.93245 0
M  V30 14357 C 1314.48 -0.232212 -1.72444 0
M  V30 14358 O 1315.65 -0.464743 -1.95965 0
M  V30 14359 C 1312.72 -1.1197 -3.28121 0
M  V30 14360 C 1311.78 -2.3125 -3.61693 0
M  V30 14361 C 1311.01 -2.11197 -4.90134 0
M  V30 14362 O 1311.24 -1.08764 -5.59934 0
M  V30 14363 O 1310.17 -2.98996 -5.22384 0
M  V30 14364 H 1314 -2.29333 -1.99098 0
M  V30 14365 H 1311.58 -1.17016 -0.928856 0
M  V30 14366 H 1313.46 -1.02154 -4.08831 0
M  V30 14367 H 1312.14 -0.187171 -3.23158 0
M  V30 14368 H 1311.05 -2.46635 -2.81286 0
M  V30 14369 H 1312.38 -3.23012 -3.71381 0
M  V30 14370 N 1314.03 1.01274 -1.20754 0
M  V30 14371 C 1315.45 1.27256 -0.963221 0
M  V30 14372 C 1315.65 1.98349 0.354972 0
M  V30 14373 O 1314.7 2.28116 1.08255 0
M  V30 14374 C 1316.02 2.1038 -2.14851 0
M  V30 14375 C 1317.56 2.23633 -2.18991 0
M  V30 14376 C 1318.04 3.10136 -3.37016 0
M  V30 14377 N 1319.53 3.17724 -3.37054 0
M  V30 14378 C 1320.26 3.84891 -4.25025 0
M  V30 14379 N 1319.76 4.54152 -5.23181 0
M  V30 14380 N 1321.55 3.81454 -4.12855 0
M  V30 14381 H 1313.7 0.535534 -2.05538 0
M  V30 14382 H 1315.97 0.299006 -0.899611 0
M  V30 14383 H 1315.67 1.65484 -3.10335 0
M  V30 14384 H 1315.55 3.11122 -2.13267 0
M  V30 14385 H 1317.93 2.67753 -1.24067 0
M  V30 14386 H 1318.02 1.22387 -2.24622 0
M  V30 14387 H 1317.66 2.66721 -4.32229 0
M  V30 14388 H 1317.59 4.11478 -3.28623 0
M  V30 14389 H 1320.08 2.68412 -2.66014 0
M  V30 14390 H 1320.39 5.03084 -5.86623 0
M  V30 14391 H 1318.74 4.52964 -5.27113 0
M  V30 14392 H 1321.93 3.26494 -3.35439 0
M  V30 14393 H 1322.1 4.33523 -4.81624 0
M  V30 14394 N 1315.51 1.01404 1.20644 0
M  V30 14395 C 1316.75 0.710412 1.91657 0
M  V30 14396 C 1317.11 -0.745972 1.76916 0
M  V30 14397 O 1318.31 -1.162 2.42386 0
M  V30 14398 C 1316.59 1.13093 3.39035 0
M  V30 14399 S 1318.14 0.948885 4.28418 0
M  V30 14400 H 1314.96 0.259074 0.662119 0
M  V30 14401 H 1317.56 1.30077 1.45946 0
M  V30 14402 H 1316.27 2.18682 3.47284 0
M  V30 14403 H 1315.8 0.533248 3.89769 0
M  V30 14404 H 1317.81 -0.149 4.95976 0
M  V30 14405 N 1316.99 -1.36373 0.789944 0
M  V30 14406 C 1317.94 -2.31928 0.17666 0
M  V30 14407 C 1318.93 -1.55831 -0.664316 0
M  V30 14408 O 1320.14 -1.71089 -0.559341 0
M  V30 14409 H 1316.51 -0.751021 0.038353 0
M  V30 14410 H 1318.48 -2.81216 0.998004 0
M  V30 14411 C 1317.23 -3.41112 -0.673646 0
M  V30 14412 H 1316.55 -3.99784 -0.0358875 0
M  V30 14413 H 1317.99 -4.10292 -1.06942 0
M  V30 14414 C 1316.45 -2.82728 -1.83211 0
M  V30 14415 O 1316.98 -2.74935 -2.92871 0
M  V30 14416 N 1315.19 -2.4001 -1.6384 0
M  V30 14417 H 1314.74 -2.46549 -0.746423 0
M  V30 14418 H 1314.69 -2.01294 -2.41512 0
M  V30 14419 N 1318.47 -0.542005 -1.47987 0
M  V30 14420 C 1319.38 0.217677 -2.33588 0
M  V30 14421 C 1320.39 0.927093 -1.47245 0
M  V30 14422 O 1321.57 0.899378 -1.80203 0
M  V30 14423 C 1318.63 1.24376 -3.23622 0
M  V30 14424 C 1317.69 0.543407 -4.25847 0
M  V30 14425 C 1316.93 1.5206 -5.11579 0
M  V30 14426 O 1317.15 2.75425 -4.99497 0
M  V30 14427 O 1316.08 1.05341 -5.9261 0
M  V30 14428 H 1319.91 -0.484089 -2.99817 0
M  V30 14429 H 1317.49 -0.302783 -1.463 0
M  V30 14430 H 1319.38 1.83644 -3.7928 0
M  V30 14431 H 1318.05 1.92772 -2.6004 0
M  V30 14432 H 1316.96 -0.090074 -3.73992 0
M  V30 14433 H 1318.29 -0.0988264 -4.92101 0
M  V30 14434 N 1319.94 1.55134 -0.277709 0
M  V30 14435 C 1320.87 2.256 0.602232 0
M  V30 14436 C 1321.85 1.24708 1.15681 0
M  V30 14437 O 1323.04 1.53433 1.19046 0
M  V30 14438 C 1320.17 2.97907 1.78519 0
M  V30 14439 C 1319.12 4.0575 1.36203 0
M  V30 14440 C 1318.45 4.65644 2.62829 0
M  V30 14441 C 1319.75 5.19801 0.510327 0
M  V30 14442 H 1321.44 2.99396 0.0145622 0
M  V30 14443 H 1318.99 1.43999 0.00556389 0
M  V30 14444 H 1320.94 3.45915 2.40668 0
M  V30 14445 H 1319.67 2.21649 2.39873 0
M  V30 14446 H 1318.33 3.58557 0.763726 0
M  V30 14447 H 1317.97 3.86053 3.22447 0
M  V30 14448 H 1317.67 5.38463 2.35227 0
M  V30 14449 H 1319.2 5.16403 3.25823 0
M  V30 14450 H 1320.61 5.63845 1.03689 0
M  V30 14451 H 1319.01 5.99197 0.329073 0
M  V30 14452 H 1320.08 4.82614 -0.470273 0
M  V30 14453 N 1321.42 0.00503138 1.57599 0
M  V30 14454 C 1322.35 -1.01302 2.05598 0
M  V30 14455 C 1323.37 -1.30388 0.974829 0
M  V30 14456 O 1324.56 -1.27275 1.25153 0
M  V30 14457 C 1321.66 -2.34654 2.44522 0
M  V30 14458 C 1320.83 -2.24436 3.7543 0
M  V30 14459 C 1319.89 -3.40517 4.01166 0
M  V30 14460 O 1318.91 -3.18479 4.71762 0
M  V30 14461 N 1320.12 -4.63532 3.49454 0
M  V30 14462 H 1322.88 -0.603656 2.93558 0
M  V30 14463 H 1320.44 -0.182248 1.60871 0
M  V30 14464 H 1322.43 -3.11093 2.5885 0
M  V30 14465 H 1321 -2.67315 1.62055 0
M  V30 14466 H 1320.22 -1.32875 3.71131 0
M  V30 14467 H 1321.51 -2.14786 4.61242 0
M  V30 14468 H 1320.91 -4.84334 2.92296 0
M  V30 14469 H 1319.47 -5.37221 3.69103 0
M  V30 14470 N 1322.9 -1.55308 -0.267798 0
M  V30 14471 C 1324.18 -1.66881 -1.02029 0
M  V30 14472 C 1324.56 -0.538708 -2.04111 0
M  V30 14473 O 1323.9 0.460575 -2.2381 0
M  V30 14474 C 1324.11 -3.06318 -1.67243 0
M  V30 14475 C 1325.46 -3.64237 -2.18212 0
M  V30 14476 O 1326.49 -3.08984 -1.77221 0
M  V30 14477 O 1325.35 -4.61055 -2.93413 0
M  V30 14478 H 1322.44 -0.677967 -0.473593 0
M  V30 14479 H 1324.99 -1.67646 -0.263242 0
M  V30 14480 H 1323.76 -3.80015 -0.932985 0
M  V30 14481 H 1323.38 -3.09475 -2.49622 0
M  V30 14482 N 1324.38 0.532545 -1.4833 0
M  V30 14483 C 1325.63 1.28498 -1.55471 0
M  V30 14484 C 1325.94 1.94214 -0.232412 0
M  V30 14485 O 1327.15 2.70889 -0.182044 0
M  V30 14486 C 1325.6 2.33144 -2.74175 0
M  V30 14487 C 1325.21 1.73508 -4.13036 0
M  V30 14488 C 1326.95 3.09413 -2.90627 0
M  V30 14489 C 1324.86 2.76079 -5.23005 0
M  V30 14490 H 1323.79 0.483253 -0.578777 0
M  V30 14491 H 1326.44 0.562744 -1.74658 0
M  V30 14492 H 1324.82 3.08391 -2.48417 0
M  V30 14493 H 1326 1.04466 -4.48802 0
M  V30 14494 H 1324.31 1.0974 -4.01679 0
M  V30 14495 H 1326.91 3.86056 -3.69953 0
M  V30 14496 H 1327.25 3.65118 -1.99987 0
M  V30 14497 H 1327.79 2.4128 -3.16274 0
M  V30 14498 H 1324.52 2.25197 -6.15602 0
M  V30 14499 H 1324.04 3.43456 -4.9173 0
M  V30 14500 H 1325.72 3.39113 -5.51009 0
M  V30 14501 N 1325.86 1.36875 0.78122 0
M  V30 14502 C 1326.77 1.3404 1.92537 0
M  V30 14503 C 1327.78 0.241354 1.72318 0
M  V30 14504 O 1328.96 0.475128 1.95715 0
M  V30 14505 C 1326.02 1.13708 3.27523 0
M  V30 14506 C 1325.08 2.33165 3.60462 0
M  V30 14507 C 1324.32 2.13793 4.89007 0
M  V30 14508 O 1324.54 1.11732 5.5935 0
M  V30 14509 O 1323.47 3.01762 5.20791 0
M  V30 14510 H 1327.3 2.30386 1.97879 0
M  V30 14511 H 1324.88 1.17506 0.922637 0
M  V30 14512 H 1326.77 1.0432 4.08283 0
M  V30 14513 H 1325.44 0.204306 3.23055 0
M  V30 14514 H 1324.35 2.48123 2.79974 0
M  V30 14515 H 1325.68 3.24977 3.69663 0
M  V30 14516 N 1327.33 -1.00632 1.21289 0
M  V30 14517 C 1328.28 -2.09382 0.97097 0
M  V30 14518 C 1329.25 -1.65783 -0.102561 0
M  V30 14519 O 1330.44 -1.90749 0.0442886 0
M  V30 14520 C 1327.58 -3.40844 0.540314 0
M  V30 14521 C 1326.69 -3.97862 1.68314 0
M  V30 14522 C 1325.82 -5.17427 1.20178 0
M  V30 14523 C 1324.86 -5.66552 2.31702 0
M  V30 14524 N 1324 -6.77368 1.84709 0
M  V30 14525 H 1328.84 -2.29411 1.90196 0
M  V30 14526 H 1326.38 -1.12488 0.947885 0
M  V30 14527 H 1328.33 -4.16313 0.271881 0
M  V30 14528 H 1326.96 -3.20857 -0.353677 0
M  V30 14529 H 1326.02 -3.19391 2.06624 0
M  V30 14530 H 1327.33 -4.30314 2.52252 0
M  V30 14531 H 1326.48 -6.00138 0.889926 0
M  V30 14532 H 1325.22 -4.86566 0.332422 0
M  V30 14533 H 1324.23 -4.82438 2.63691 0
M  V30 14534 H 1325.45 -5.99443 3.19131 0
M  V30 14535 H 1323.4 -6.48315 1.00116 0
M  V30 14536 H 1323.31 -7.09067 2.62221 0
M  V30 14537 H 1324.58 -7.63617 1.56554 0
M  V30 14538 N 1328.81 -1.02043 -1.20104 0
M  V30 14539 C 1330.06 -0.707271 -1.88893 0
M  V30 14540 C 1330.37 0.766617 -1.79951 0
M  V30 14541 O 1331.58 1.19248 -2.4391 0
M  V30 14542 C 1330.04 -1.2147 -3.38782 0
M  V30 14543 C 1329.64 -2.71576 -3.56301 0
M  V30 14544 C 1331.39 -0.977146 -4.13101 0
M  V30 14545 C 1329.29 -3.15781 -5.00037 0
M  V30 14546 H 1328.22 -0.26086 -0.707438 0
M  V30 14547 H 1330.88 -1.23361 -1.35846 0
M  V30 14548 H 1329.26 -0.616315 -3.91175 0
M  V30 14549 H 1330.43 -3.36997 -3.14276 0
M  V30 14550 H 1328.75 -2.93517 -2.95359 0
M  V30 14551 H 1331.34 -1.28278 -5.19085 0
M  V30 14552 H 1331.69 0.0862909 -4.16211 0
M  V30 14553 H 1332.22 -1.5391 -3.6682 0
M  V30 14554 H 1328.96 -4.21417 -5.02084 0
M  V30 14555 H 1328.48 -2.55083 -5.42856 0
M  V30 14556 H 1330.16 -3.08637 -5.6864 0
M  V30 14557 N 1330.29 1.35952 -0.797165 0
M  V30 14558 C 1331.22 2.27728 -0.146693 0
M  V30 14559 C 1332.2 1.47616 0.68178 0
M  V30 14560 O 1333.39 1.76898 0.651094 0
M  V30 14561 C 1330.51 3.29179 0.797442 0
M  V30 14562 C 1329.56 4.26471 0.0497851 0
M  V30 14563 S 1330.39 5.19982 -1.2798 0
M  V30 14564 C 1331.55 6.24977 -0.339864 0
M  V30 14565 H 1331.78 2.82549 -0.924834 0
M  V30 14566 H 1329.31 1.4261 -0.591759 0
M  V30 14567 H 1331.27 3.88127 1.33669 0
M  V30 14568 H 1329.93 2.73255 1.54889 0
M  V30 14569 H 1329.13 4.98138 0.766487 0
M  V30 14570 H 1328.73 3.71643 -0.419219 0
M  V30 14571 H 1331.02 6.75809 0.478412 0
M  V30 14572 H 1331.96 7.00636 -1.02544 0
M  V30 14573 H 1332.37 5.64468 0.0602491 0
M  V30 14574 N 1331.77 0.549846 1.47697 0
M  V30 14575 C 1332.73 -0.191427 2.28399 0
M  V30 14576 C 1333.73 -0.849533 1.36527 0
M  V30 14577 O 1334.92 -0.706526 1.59229 0
M  V30 14578 C 1332.05 -1.27907 3.15995 0
M  V30 14579 H 1333.25 0.517375 2.95404 0
M  V30 14580 H 1330.8 0.30651 1.53265 0
M  V30 14581 H 1331.53 -2.0205 2.53665 0
M  V30 14582 H 1331.32 -0.812066 3.83599 0
M  V30 14583 H 1332.81 -1.79992 3.76819 0
M  V30 14584 N 1333.25 -1.54984 0.285932 0
M  V30 14585 C 1334.18 -2.20365 -0.630236 0
M  V30 14586 C 1335.19 -1.19168 -1.10918 0
M  V30 14587 O 1336.38 -1.45839 -1.02923 0
M  V30 14588 C 1333.48 -2.8244 -1.87299 0
M  V30 14589 C 1332.65 -4.09429 -1.53905 0
M  V30 14590 C 1331.71 -4.55449 -2.63538 0
M  V30 14591 O 1330.74 -5.20985 -2.29267 0
M  V30 14592 N 1331.94 -4.26498 -3.93802 0
M  V30 14593 H 1334.71 -2.99617 -0.0706044 0
M  V30 14594 H 1332.27 -1.61543 0.107486 0
M  V30 14595 H 1334.26 -3.10167 -2.59959 0
M  V30 14596 H 1332.83 -2.07117 -2.34139 0
M  V30 14597 H 1332.05 -3.88875 -0.645774 0
M  V30 14598 H 1333.34 -4.92146 -1.29111 0
M  V30 14599 H 1332.73 -3.73964 -4.24461 0
M  V30 14600 H 1331.29 -4.5897 -4.62807 0
M  V30 14601 N 1334.72 -0.0133892 -1.57594 0
M  V30 14602 C 1335.97 0.667896 -1.90321 0
M  V30 14603 C 1336.29 1.74187 -0.88984 0
M  V30 14604 O 1337.49 2.47871 -1.10779 0
M  V30 14605 C 1335.95 1.23917 -3.37894 0
M  V30 14606 C 1335.56 0.199313 -4.47556 0
M  V30 14607 C 1337.3 1.89788 -3.79712 0
M  V30 14608 C 1335.21 0.781339 -5.86216 0
M  V30 14609 H 1334.14 0.253229 -0.710205 0
M  V30 14610 H 1336.79 -0.0761229 -1.83342 0
M  V30 14611 H 1335.17 2.03429 -3.39754 0
M  V30 14612 H 1336.34 -0.572196 -4.57234 0
M  V30 14613 H 1334.66 -0.359719 -4.14843 0
M  V30 14614 H 1337.26 2.34262 -4.80651 0
M  V30 14615 H 1337.6 2.73406 -3.13934 0
M  V30 14616 H 1338.13 1.16989 -3.80208 0
M  V30 14617 H 1334.87 -0.0163598 -6.55498 0
M  V30 14618 H 1334.39 1.5217 -5.80176 0
M  V30 14619 H 1336.07 1.2759 -6.34295 0
M  V30 14620 N 1336.2 1.55448 0.259558 0
M  V30 14621 C 1337.11 1.92364 1.34289 0
M  V30 14622 C 1338.13 0.822492 1.53333 0
M  V30 14623 O 1339.3 1.12277 1.672 0
M  V30 14624 C 1336.37 2.19978 2.67975 0
M  V30 14625 C 1335.43 3.43454 2.57562 0
M  V30 14626 C 1334.66 3.69741 3.84873 0
M  V30 14627 O 1334.89 2.9831 4.86176 0
M  V30 14628 O 1333.82 4.63274 3.84267 0
M  V30 14629 H 1337.65 2.8461 1.05975 0
M  V30 14630 H 1335.23 1.42167 0.459239 0
M  V30 14631 H 1337.11 2.39104 3.46998 0
M  V30 14632 H 1335.79 1.30912 2.96047 0
M  V30 14633 H 1334.7 3.29649 1.76869 0
M  V30 14634 H 1336.03 4.32782 2.34437 0
M  V30 14635 N 1337.68 -0.524672 1.4861 0
M  V30 14636 C 1339.1 -0.853703 1.34848 0
M  V30 14637 C 1339.3 -1.98194 0.363529 0
M  V30 14638 O 1338.35 -2.51597 -0.213348 0
M  V30 14639 C 1339.67 -1.21622 2.75006 0
M  V30 14640 C 1341.21 -1.3258 2.83534 0
M  V30 14641 C 1341.69 -1.72172 4.24406 0
M  V30 14642 N 1343.18 -1.79265 4.27105 0
M  V30 14643 C 1343.91 -2.11296 5.33049 0
M  V30 14644 N 1343.41 -2.41714 6.49266 0
M  V30 14645 N 1345.2 -2.12347 5.20447 0
M  V30 14646 H 1337.35 0.219671 2.11261 0
M  V30 14647 H 1339.62 0.0356444 0.94733 0
M  V30 14648 H 1339.32 -0.460776 3.48669 0
M  V30 14649 H 1339.2 -2.16516 3.0887 0
M  V30 14650 H 1341.58 -2.072 2.10124 0
M  V30 14651 H 1341.67 -0.357943 2.53283 0
M  V30 14652 H 1341.31 -0.981108 4.98334 0
M  V30 14653 H 1341.24 -2.70017 4.52104 0
M  V30 14654 H 1343.73 -1.58013 3.43279 0
M  V30 14655 H 1344.04 -2.65276 7.25843 0
M  V30 14656 H 1342.39 -2.39222 6.52532 0
M  V30 14657 H 1345.58 -1.88044 4.28669 0
M  V30 14658 H 1345.75 -2.36978 6.03113 0
M  V30 14659 N 1339.16 -1.37287 -0.77395 0
M  V30 14660 C 1340.41 -1.32112 -1.5294 0
M  V30 14661 C 1340.73 0.0946137 -1.9477 0
M  V30 14662 O 1340 1.03817 -1.66129 0
M  V30 14663 H 1338.58 -0.486047 -0.567245 0
M  V30 14664 H 1341.24 -1.71752 -0.921263 0
M  V30 14665 H 1340.34 -1.95873 -2.42982 0
M  V30 14666 N 1340.64 0.999871 -1.21821 0
M  V30 14667 C 1341.55 2.12303 -0.99823 0
M  V30 14668 C 1342.56 1.73924 0.0512923 0
M  V30 14669 O 1343.74 2.00914 -0.139895 0
M  V30 14670 C 1340.8 3.41962 -0.571232 0
M  V30 14671 C 1339.86 3.94483 -1.69356 0
M  V30 14672 C 1339.1 5.17954 -1.28685 0
M  V30 14673 O 1339.32 5.70168 -0.162641 0
M  V30 14674 O 1338.25 5.64051 -2.10071 0
M  V30 14675 H 1342.08 2.3374 -1.93905 0
M  V30 14676 H 1339.67 1.10677 -1.00354 0
M  V30 14677 H 1341.55 4.20001 -0.343134 0
M  V30 14678 H 1340.22 3.21901 0.340814 0
M  V30 14679 H 1339.13 3.17648 -1.97612 0
M  V30 14680 H 1340.46 4.18964 -2.58322 0
M  V30 14681 N 1342.11 1.02678 1.19562 0
M  V30 14682 C 1343.08 0.610407 2.20922 0
M  V30 14683 C 1344.08 -0.324858 1.57484 0
M  V30 14684 O 1345.27 -0.112153 1.73839 0
M  V30 14685 C 1342.4 -0.107115 3.40732 0
M  V30 14686 H 1343.59 1.50722 2.59274 0
M  V30 14687 H 1341.15 0.817725 1.33203 0
M  V30 14688 H 1341.88 -1.01837 3.07896 0
M  V30 14689 H 1341.67 0.564901 3.88009 0
M  V30 14690 H 1343.16 -0.385423 4.15818 0
M  V30 14691 N 1343.59 -1.35528 0.804364 0
M  V30 14692 C 1345.01 -1.51962 0.487831 0
M  V30 14693 C 1345.21 -1.75426 -0.991353 0
M  V30 14694 O 1344.26 -1.7944 -1.77644 0
M  V30 14695 C 1345.58 -2.69626 1.33126 0
M  V30 14696 C 1347.13 -2.83502 1.32648 0
M  V30 14697 C 1347.6 -4.04188 2.15397 0
M  V30 14698 N 1349.09 -4.11362 2.12922 0
M  V30 14699 C 1349.83 -5.03856 2.73709 0
M  V30 14700 N 1349.32 -6.01696 3.43415 0
M  V30 14701 N 1351.12 -4.96585 2.63363 0
M  V30 14702 H 1343.27 -1.18553 1.76235 0
M  V30 14703 H 1345.53 -0.57986 0.749977 0
M  V30 14704 H 1345.24 -2.58857 2.38088 0
M  V30 14705 H 1345.11 -3.64168 0.982934 0
M  V30 14706 H 1347.5 -2.93723 0.284712 0
M  V30 14707 H 1347.58 -1.89824 1.71466 0
M  V30 14708 H 1347.22 -3.94728 3.19613 0
M  V30 14709 H 1347.15 -4.97044 1.7394 0
M  V30 14710 H 1349.64 -3.41319 1.62203 0
M  V30 14711 H 1349.96 -6.68866 3.8709 0
M  V30 14712 H 1348.3 -6.01877 3.47519 0
M  V30 14713 H 1351.49 -4.19103 2.08496 0
M  V30 14714 H 1351.66 -5.68478 3.11026 0
M  V30 14715 N 1345.07 -0.557671 -1.47404 0
M  V30 14716 C 1346.32 -0.0316382 -2.01675 0
M  V30 14717 C 1346.63 1.32656 -1.43742 0
M  V30 14718 O 1347.84 1.94253 -1.89678 0
M  V30 14719 C 1346.3 -0.00606931 -3.59899 0
M  V30 14720 C 1345.9 -1.36106 -4.26825 0
M  V30 14721 C 1347.65 0.467332 -4.2192 0
M  V30 14722 C 1345.55 -1.29457 -5.77057 0
M  V30 14723 H 1344.48 -0.00805738 -0.753957 0
M  V30 14724 H 1347.14 -0.705592 -1.69392 0
M  V30 14725 H 1345.52 0.733541 -3.89147 0
M  V30 14726 H 1346.69 -2.11842 -4.09218 0
M  V30 14727 H 1345.01 -1.77243 -3.76794 0
M  V30 14728 H 1347.6 0.535478 -5.32012 0
M  V30 14729 H 1347.95 1.47942 -3.89126 0
M  V30 14730 H 1348.48 -0.217434 -3.97205 0
M  V30 14731 H 1345.22 -2.28267 -6.14471 0
M  V30 14732 H 1344.74 -0.579022 -5.96999 0
M  V30 14733 H 1346.42 -0.996834 -6.39275 0
M  V30 14734 N 1346.55 1.54831 -0.294147 0
M  V30 14735 C 1347.48 2.20696 0.61854 0
M  V30 14736 C 1348.49 1.19754 1.10285 0
M  V30 14737 O 1349.68 1.46383 1.02148 0
M  V30 14738 C 1346.78 2.83429 1.85798 0
M  V30 14739 C 1345.96 4.10239 1.51731 0
M  V30 14740 C 1345.02 4.56841 2.61119 0
M  V30 14741 O 1344.04 5.22194 2.26501 0
M  V30 14742 N 1345.24 4.2858 3.91534 0
M  V30 14743 H 1348.01 2.9965 0.054714 0
M  V30 14744 H 1345.57 1.61484 -0.116052 0
M  V30 14745 H 1347.56 3.11541 2.5831 0
M  V30 14746 H 1346.13 2.08356 2.33038 0
M  V30 14747 H 1345.35 3.89212 0.625142 0
M  V30 14748 H 1346.64 4.92824 1.26499 0
M  V30 14749 H 1346.04 3.7621 4.22472 0
M  V30 14750 H 1344.59 4.61418 4.60366 0
M  V30 14751 N 1348.03 0.0217466 1.57585 0
M  V30 14752 C 1349.44 -0.334576 1.56054 0
M  V30 14753 C 1349.64 -1.73386 1.02663 0
M  V30 14754 O 1348.7 -2.43447 0.670078 0
M  V30 14755 C 1350.01 -0.189919 3.001 0
M  V30 14756 C 1351.56 -0.263238 3.11891 0
M  V30 14757 C 1352.04 -0.147455 4.57763 0
M  V30 14758 N 1353.53 -0.204672 4.62748 0
M  V30 14759 C 1354.26 -0.138755 5.73232 0
M  V30 14760 N 1353.76 -0.0221762 6.92796 0
M  V30 14761 N 1355.55 -0.192206 5.61771 0
M  V30 14762 H 1347.7 0.936849 1.90622 0
M  V30 14763 H 1349.96 0.361119 0.876526 0
M  V30 14764 H 1349.67 0.773687 3.43084 0
M  V30 14765 H 1349.54 -0.963148 3.64696 0
M  V30 14766 H 1351.93 -1.2173 2.68823 0
M  V30 14767 H 1352.01 0.540241 2.5003 0
M  V30 14768 H 1351.66 0.803155 5.0151 0
M  V30 14769 H 1351.59 -0.969703 5.17595 0
M  V30 14770 H 1354.08 -0.29522 3.76745 0
M  V30 14771 H 1354.39 0.021631 7.72797 0
M  V30 14772 H 1352.74 0.0125033 6.94999 0
M  V30 14773 H 1355.93 -0.28163 4.67252 0
M  V30 14774 H 1356.1 -0.137372 6.47854 0
M  V30 14775 N 1349.51 -1.55583 -0.251311 0
M  V30 14776 C 1350.92 -1.47908 -0.599606 0
M  V30 14777 C 1351.12 -0.711061 -1.88537 0
M  V30 14778 O 1350.18 -0.238639 -2.5137 0
M  V30 14779 C 1351.49 -2.92284 -0.706429 0
M  V30 14780 C 1353.04 -3.02629 -0.799049 0
M  V30 14781 C 1353.51 -4.48303 -0.93747 0
M  V30 14782 N 1355 -4.52222 -1.00245 0
M  V30 14783 C 1355.74 -5.62181 -1.12874 0
M  V30 14784 N 1355.24 -6.81958 -1.22085 0
M  V30 14785 N 1357.03 -5.49968 -1.16155 0
M  V30 14786 H 1349.18 -2.0396 0.592806 0
M  V30 14787 H 1351.44 -0.925797 0.203971 0
M  V30 14788 H 1351.15 -3.51297 0.168243 0
M  V30 14789 H 1351.02 -3.42524 -1.57979 0
M  V30 14790 H 1353.41 -2.43699 -1.66418 0
M  V30 14791 H 1353.49 -2.55607 0.099367 0
M  V30 14792 H 1353.13 -5.07842 -0.0769166 0
M  V30 14793 H 1353.06 -4.93002 -1.85086 0
M  V30 14794 H 1355.56 -3.65951 -0.94279 0
M  V30 14795 H 1355.87 -7.6151 -1.31616 0
M  V30 14796 H 1354.21 -6.84728 -1.1905 0
M  V30 14797 H 1357.4 -4.55327 -1.08604 0
M  V30 14798 H 1357.58 -6.35701 -1.25653 0
M  V30 14799 N 1350.98 0.516783 -1.48886 0
M  V30 14800 C 1352.23 1.26841 -1.56825 0
M  V30 14801 C 1352.55 1.93957 -0.252998 0
M  V30 14802 O 1353.75 2.70681 -0.210765 0
M  V30 14803 C 1352.21 2.30223 -2.76633 0
M  V30 14804 C 1351.82 1.69117 -4.14853 0
M  V30 14805 C 1353.56 3.06313 -2.93893 0
M  V30 14806 C 1351.47 2.70516 -5.25904 0
M  V30 14807 H 1350.4 0.477087 -0.58387 0
M  V30 14808 H 1353.05 0.544187 -1.75245 0
M  V30 14809 H 1351.43 3.05739 -2.51674 0
M  V30 14810 H 1352.6 0.997003 -4.49885 0
M  V30 14811 H 1350.92 1.05473 -4.0282 0
M  V30 14812 H 1353.52 3.8211 -3.74027 0
M  V30 14813 H 1353.86 3.62976 -2.03848 0
M  V30 14814 H 1354.39 2.37911 -3.18815 0
M  V30 14815 H 1351.13 2.18655 -6.17956 0
M  V30 14816 H 1350.65 3.38221 -4.95345 0
M  V30 14817 H 1352.33 3.3325 -5.54575 0
M  V30 14818 N 1352.46 1.37696 0.766659 0
M  V30 14819 C 1353.69 1.36564 1.56093 0
M  V30 14820 C 1354.11 -0.0455828 1.88045 0
M  V30 14821 O 1353.47 -1.02405 1.49609 0
M  V30 14822 C 1353.52 2.21592 2.84481 0
M  V30 14823 O 1352.62 1.62404 3.79076 0
M  V30 14824 H 1351.96 0.466394 0.472623 0
M  V30 14825 H 1354.49 1.81287 0.948486 0
M  V30 14826 H 1354.5 2.34987 3.33534 0
M  V30 14827 H 1353.18 3.24167 2.60554 0
M  V30 14828 H 1351.75 1.58078 3.37736 0
M  V30 14829 N 1353.94 -0.993397 1.22349 0
M  V30 14830 C 1355.19 -1.72707 1.04189 0
M  V30 14831 C 1355.5 -1.90963 -0.423381 0
M  V30 14832 O 1356.71 -2.61651 -0.724645 0
M  V30 14833 C 1355.16 -3.10739 1.81575 0
M  V30 14834 C 1354.77 -3.00415 3.32347 0
M  V30 14835 C 1356.52 -3.88155 1.71861 0
M  V30 14836 C 1354.42 -4.33598 4.02177 0
M  V30 14837 H 1353.35 -0.647556 0.386248 0
M  V30 14838 H 1356 -1.10902 1.46195 0
M  V30 14839 H 1354.39 -3.73222 1.32367 0
M  V30 14840 H 1355.56 -2.47099 3.88946 0
M  V30 14841 H 1353.87 -2.36482 3.42732 0
M  V30 14842 H 1356.47 -4.8673 2.21354 0
M  V30 14843 H 1356.81 -4.10726 0.678939 0
M  V30 14844 H 1357.35 -3.32347 2.18609 0
M  V30 14845 H 1354.09 -4.16226 5.06395 0
M  V30 14846 H 1353.61 -4.86829 3.50367 0
M  V30 14847 H 1355.29 -5.02348 4.07744 0
M  V30 14848 N 1355.42 -1.03311 -1.19015 0
M  V30 14849 C 1356.36 -0.617567 -2.22384 0
M  V30 14850 C 1357.33 0.370779 -1.61909 0
M  V30 14851 O 1358.52 0.266481 -1.8893 0
M  V30 14852 C 1355.66 0.0211303 -3.45094 0
M  V30 14853 C 1354.77 -1.01377 -4.19937 0
M  V30 14854 C 1353.91 -0.344385 -5.30082 0
M  V30 14855 C 1352.95 -1.3649 -5.96688 0
M  V30 14856 N 1352.08 -0.721026 -6.98388 0
M  V30 14857 H 1356.92 -1.5036 -2.57286 0
M  V30 14858 H 1354.46 -0.75235 -1.26405 0
M  V30 14859 H 1356.42 0.408713 -4.15193 0
M  V30 14860 H 1355.05 0.870721 -3.10835 0
M  V30 14861 H 1354.1 -1.51937 -3.4874 0
M  V30 14862 H 1355.41 -1.78921 -4.65606 0
M  V30 14863 H 1354.57 0.097814 -6.06621 0
M  V30 14864 H 1353.31 0.463216 -4.85495 0
M  V30 14865 H 1352.31 -1.81732 -5.18897 0
M  V30 14866 H 1353.54 -2.17407 -6.43359 0
M  V30 14867 H 1351.48 0.0664057 -6.55966 0
M  V30 14868 H 1351.4 -1.43428 -7.4227 0
M  V30 14869 H 1352.67 -0.30297 -7.78911 0
M  V30 14870 N 1356.9 1.35099 -0.81154 0
M  V30 14871 C 1357.84 2.29717 -0.223372 0
M  V30 14872 C 1358.81 1.53049 0.645396 0
M  V30 14873 O 1360 1.81467 0.589436 0
M  V30 14874 C 1357.14 3.3952 0.618057 0
M  V30 14875 C 1356.25 4.31145 -0.271693 0
M  V30 14876 C 1355.39 5.28044 0.578214 0
M  V30 14877 C 1354.42 6.11306 -0.311628 0
M  V30 14878 N 1353.56 7.00328 0.498539 0
M  V30 14879 H 1358.4 2.79426 -1.03563 0
M  V30 14880 H 1355.94 1.37518 -0.522231 0
M  V30 14881 H 1357.9 4.01854 1.12111 0
M  V30 14882 H 1356.53 2.91075 1.39554 0
M  V30 14883 H 1355.58 3.69773 -0.892885 0
M  V30 14884 H 1356.89 4.89545 -0.956392 0
M  V30 14885 H 1356.04 5.95774 1.1462 0
M  V30 14886 H 1354.78 4.70152 1.29646 0
M  V30 14887 H 1353.79 5.42518 -0.891849 0
M  V30 14888 H 1355.01 6.71277 -1.02781 0
M  V30 14889 H 1352.96 6.44919 1.20067 0
M  V30 14890 H 1352.88 7.55892 -0.12801 0
M  V30 14891 H 1354.14 7.72401 1.04965 0
M  V30 14892 N 1358.37 0.56548 1.47106 0
M  V30 14893 C 1359.34 -0.167191 2.28589 0
M  V30 14894 C 1360.34 -0.835005 1.3742 0
M  V30 14895 O 1361.53 -0.689598 1.59969 0
M  V30 14896 C 1358.66 -1.24548 3.17333 0
M  V30 14897 H 1359.85 0.548677 2.94838 0
M  V30 14898 H 1357.4 0.322749 1.52931 0
M  V30 14899 H 1358.14 -1.99348 2.55794 0
M  V30 14900 H 1357.92 -0.771335 3.84438 0
M  V30 14901 H 1359.41 -1.75985 3.78707 0
M  V30 14902 N 1359.85 -1.54672 0.302354 0
M  V30 14903 C 1360.78 -2.2653 -0.566265 0
M  V30 14904 C 1361.76 -1.26532 -1.13682 0
M  V30 14905 O 1362.95 -1.55307 -1.1659 0
M  V30 14906 C 1360.08 -3.00709 -1.73757 0
M  V30 14907 C 1359.03 -4.07865 -1.29731 0
M  V30 14908 C 1358.36 -4.69767 -2.55388 0
M  V30 14909 C 1359.66 -5.20547 -0.427567 0
M  V30 14910 H 1361.35 -2.99382 0.033071 0
M  V30 14911 H 1358.9 -1.4399 0.0173458 0
M  V30 14912 H 1360.85 -3.497 -2.35134 0
M  V30 14913 H 1359.58 -2.25437 -2.36317 0
M  V30 14914 H 1358.23 -3.59726 -0.706586 0
M  V30 14915 H 1357.88 -3.91134 -3.16265 0
M  V30 14916 H 1357.58 -5.42137 -2.26631 0
M  V30 14917 H 1359.11 -5.21521 -3.17566 0
M  V30 14918 H 1360.52 -5.65424 -0.947053 0
M  V30 14919 H 1358.92 -5.99645 -0.233704 0
M  V30 14920 H 1359.99 -4.81805 0.546993 0
M  V30 14921 N 1361.33 -0.0301034 -1.57571 0
M  V30 14922 C 1362.61 0.68703 -1.83137 0
M  V30 14923 C 1362.99 1.90277 -0.914216 0
M  V30 14924 O 1362.34 2.2848 0.0299358 0
M  V30 14925 C 1362.55 1.06431 -3.32375 0
M  V30 14926 C 1363.89 1.45554 -3.98873 0
M  V30 14927 O 1364.92 1.15727 -3.36877 0
M  V30 14928 O 1363.78 2.01133 -5.08142 0
M  V30 14929 H 1360.87 0.337141 -0.755159 0
M  V30 14930 H 1363.42 -0.0578604 -1.69601 0
M  V30 14931 H 1362.19 0.199077 -3.90793 0
M  V30 14932 H 1361.81 1.86734 -3.51022 0
M  V30 14933 N 1362.81 1.55714 0.243056 0
M  V30 14934 C 1364.04 1.81786 0.98801 0
M  V30 14935 C 1364.45 0.606352 1.78798 0
M  V30 14936 O 1363.81 -0.425018 1.77482 0
M  V30 14937 C 1363.86 3.06121 1.92281 0
M  V30 14938 O 1363.58 4.22595 1.15521 0
M  V30 14939 C 1365.08 3.45021 2.78344 0
M  V30 14940 H 1362.3 0.604829 0.290557 0
M  V30 14941 H 1364.85 2.02779 0.26478 0
M  V30 14942 H 1363 2.87167 2.60027 0
M  V30 14943 H 1363.41 4.93088 1.78786 0
M  V30 14944 H 1364.89 4.35112 3.39678 0
M  V30 14945 H 1365.37 2.65782 3.49652 0
M  V30 14946 H 1365.97 3.66339 2.16045 0
M  V30 14947 N 1364.29 -0.50888 1.49158 0
M  V30 14948 C 1365.23 -1.61129 1.65246 0
M  V30 14949 C 1366.2 -1.58582 0.49405 0
M  V30 14950 O 1367.39 -1.76689 0.720122 0
M  V30 14951 C 1364.53 -2.99311 1.71776 0
M  V30 14952 C 1363.64 -3.11933 2.98868 0
M  V30 14953 C 1362.78 -4.408 2.96426 0
M  V30 14954 C 1361.82 -4.47027 4.18131 0
M  V30 14955 N 1360.95 -5.67311 4.13645 0
M  V30 14956 H 1365.79 -1.4672 2.59379 0
M  V30 14957 H 1363.33 -0.713978 1.28611 0
M  V30 14958 H 1365.29 -3.79392 1.73543 0
M  V30 14959 H 1363.92 -3.12442 0.811159 0
M  V30 14960 H 1362.97 -2.24966 3.06748 0
M  V30 14961 H 1364.28 -3.12393 3.8886 0
M  V30 14962 H 1363.44 -5.29194 2.96712 0
M  V30 14963 H 1362.17 -4.42893 2.04199 0
M  V30 14964 H 1361.18 -3.57036 4.18097 0
M  V30 14965 H 1362.4 -4.46656 5.11542 0
M  V30 14966 H 1360.35 -5.70261 3.2425 0
M  V30 14967 H 1360.27 -5.69355 4.97364 0
M  V30 14968 H 1361.54 -6.57934 4.18022 0
M  V30 14969 N 1365.76 -1.381 -0.759346 0
M  V30 14970 C 1367.01 -1.33311 -1.51364 0
M  V30 14971 C 1367.33 0.0761325 -1.95452 0
M  V30 14972 O 1368.53 0.246541 -2.70378 0
M  V30 14973 C 1366.99 -2.34067 -2.73387 0
M  V30 14974 C 1366.6 -3.80583 -2.36348 0
M  V30 14975 C 1368.34 -2.38311 -3.51295 0
M  V30 14976 C 1366.25 -4.73039 -3.54948 0
M  V30 14977 H 1365.18 -0.495512 -0.568317 0
M  V30 14978 H 1367.83 -1.63625 -0.830602 0
M  V30 14979 H 1366.21 -1.96788 -3.43643 0
M  V30 14980 H 1367.38 -4.26769 -1.73796 0
M  V30 14981 H 1365.7 -3.79403 -1.71587 0
M  V30 14982 H 1368.3 -3.04586 -4.39467 0
M  V30 14983 H 1368.64 -1.40034 -3.92041 0
M  V30 14984 H 1369.17 -2.74361 -2.88047 0
M  V30 14985 H 1365.91 -5.7249 -3.19273 0
M  V30 14986 H 1365.43 -4.3155 -4.16563 0
M  V30 14987 H 1367.11 -4.90775 -4.21603 0
M  V30 14988 N 1367.24 0.986894 -1.22875 0
M  V30 14989 C 1368.49 1.72388 -1.05484 0
M  V30 14990 C 1368.81 1.90639 0.410074 0
M  V30 14991 O 1368.08 1.47036 1.2945 0
M  V30 14992 H 1366.66 0.638732 -0.387337 0
M  V30 14993 H 1369.32 1.18829 -1.54485 0
M  V30 14994 H 1368.42 2.71599 -1.53754 0
M  V30 14995 N 1368.72 1.0394 1.18466 0
M  V30 14996 C 1370.14 0.758404 1.40429 0
M  V30 14997 C 1370.34 -0.652603 1.90639 0
M  V30 14998 O 1369.39 -1.417 2.08991 0
M  V30 14999 C 1370.71 1.80343 2.40618 0
M  V30 15000 C 1372.25 1.82419 2.54347 0
M  V30 15001 C 1372.73 2.8591 3.57798 0
M  V30 15002 N 1374.22 2.84793 3.65304 0
M  V30 15003 C 1374.95 3.61521 4.45073 0
M  V30 15004 N 1374.45 4.47997 5.28461 0
M  V30 15005 N 1376.24 3.50016 4.39824 0
M  V30 15006 H 1368.39 1.94998 0.842 0
M  V30 15007 H 1370.66 0.843649 0.43239 0
M  V30 15008 H 1370.36 2.81547 2.10771 0
M  V30 15009 H 1370.24 1.63451 3.39947 0
M  V30 15010 H 1372.62 0.818872 2.83511 0
M  V30 15011 H 1372.71 2.03388 1.55136 0
M  V30 15012 H 1372.35 3.8662 3.29375 0
M  V30 15013 H 1372.28 2.62196 4.56684 0
M  V30 15014 H 1374.77 2.22082 3.05758 0
M  V30 15015 H 1375.08 5.03257 5.86475 0
M  V30 15016 H 1373.43 4.52065 5.27885 0
M  V30 15017 H 1376.62 2.81862 3.73726 0
M  V30 15018 H 1376.79 4.10063 5.0175 0
M  V30 15019 N 1370.2 -1.34667 0.818693 0
M  V30 15020 C 1371.43 -2.02348 0.417002 0
M  V30 15021 C 1371.84 -1.61813 -0.980464 0
M  V30 15022 O 1371.18 -0.817232 -1.64521 0
M  V30 15023 C 1371.24 -3.56861 0.434779 0
M  V30 15024 C 1370.91 -4.20704 1.78485 0
M  V30 15025 C 1371.9 -4.41524 2.74504 0
M  V30 15026 C 1369.59 -4.57566 2.07217 0
M  V30 15027 C 1371.58 -4.98324 3.97431 0
M  V30 15028 C 1369.27 -5.14078 3.30405 0
M  V30 15029 C 1370.27 -5.344 4.2533 0
M  V30 15030 O 1369.95 -5.89717 5.46342 0
M  V30 15031 H 1369.69 -0.655279 0.16609 0
M  V30 15032 H 1372.24 -1.73011 1.10708 0
M  V30 15033 H 1370.47 -3.8544 -0.311973 0
M  V30 15034 H 1372.16 -4.05864 0.0537258 0
M  V30 15035 H 1372.93 -4.13414 2.53601 0
M  V30 15036 H 1368.8 -4.41054 1.34135 0
M  V30 15037 H 1372.35 -5.14102 4.71534 0
M  V30 15038 H 1368.25 -5.41616 3.51174 0
M  V30 15039 H 1369.01 -6.08155 5.47804 0
M  V30 15040 N 1371.68 -0.573274 -1.46804 0
M  V30 15041 C 1372.62 0.165358 -2.30207 0
M  V30 15042 C 1373.59 0.89312 -1.40045 0
M  V30 15043 O 1374.78 0.885653 -1.68999 0
M  V30 15044 C 1371.92 1.17915 -3.2433 0
M  V30 15045 C 1371.03 0.455805 -4.29589 0
M  V30 15046 C 1370.17 1.45629 -5.10848 0
M  V30 15047 C 1369.21 0.718822 -6.07865 0
M  V30 15048 N 1368.34 1.66691 -6.82025 0
M  V30 15049 H 1373.18 -0.551947 -2.92844 0
M  V30 15050 H 1370.72 -0.28401 -1.44332 0
M  V30 15051 H 1372.68 1.77969 -3.77337 0
M  V30 15052 H 1371.31 1.86429 -2.63523 0
M  V30 15053 H 1370.36 -0.259584 -3.79513 0
M  V30 15054 H 1371.67 -0.121161 -4.98653 0
M  V30 15055 H 1370.83 2.1299 -5.68084 0
M  V30 15056 H 1369.56 2.06718 -4.41723 0
M  V30 15057 H 1368.57 0.0313773 -5.49791 0
M  V30 15058 H 1369.79 0.113452 -6.79005 0
M  V30 15059 H 1367.74 2.26608 -6.15617 0
M  V30 15060 H 1367.66 1.14251 -7.47317 0
M  V30 15061 H 1368.93 2.33117 -7.43826 0
M  V30 15062 N 1373.15 1.5451 -0.310553 0
M  V30 15063 C 1374.12 2.2254 0.548489 0
M  V30 15064 C 1375.12 1.21456 1.05381 0
M  V30 15065 O 1376.31 1.46126 0.948311 0
M  V30 15066 C 1373.44 2.91927 1.76043 0
M  V30 15067 H 1374.63 2.99865 -0.0460306 0
M  V30 15068 H 1372.19 1.56179 -0.061487 0
M  V30 15069 H 1372.92 2.18706 2.39454 0
M  V30 15070 H 1372.71 3.66038 1.40564 0
M  V30 15071 H 1374.2 3.43797 2.37051 0
M  V30 15072 N 1374.63 0.0384594 1.57553 0
M  V30 15073 C 1376.04 -0.499057 1.79906 0
M  V30 15074 C 1376.4 -1.7169 0.949577 0
M  V30 15075 O 1375.52 -2.15788 0.162584 0
M  V30 15076 C 1376.12 -0.912155 3.2629 0
M  V30 15077 C 1374.67 -1.39473 3.49606 0
M  V30 15078 C 1373.82 -0.363859 2.74902 0
M  V30 15079 H 1376.77 0.264433 1.56481 0
M  V30 15080 H 1376.79 -1.77592 3.36513 0
M  V30 15081 H 1376.31 -0.0255928 3.88092 0
M  V30 15082 H 1374.41 -2.3009 2.93068 0
M  V30 15083 H 1374.52 -1.39566 4.58321 0
M  V30 15084 H 1372.88 -0.833993 2.40659 0
M  V30 15085 H 1373.67 0.514398 3.39424 0
M  V30 15086 N 1376.11 -1.55841 -0.234795 0
M  V30 15087 C 1377.36 -1.78238 -0.961116 0
M  V30 15088 C 1377.69 -0.604919 -1.84854 0
M  V30 15089 O 1376.94 0.411289 -1.91329 0
M  V30 15090 C 1377.24 -3.06262 -1.84223 0
M  V30 15091 C 1376.91 -4.37045 -1.10916 0
M  V30 15092 C 1375.57 -4.72582 -0.906606 0
M  V30 15093 C 1377.92 -5.17844 -0.59049 0
M  V30 15094 C 1375.25 -5.86444 -0.173275 0
M  V30 15095 C 1377.6 -6.32468 0.129433 0
M  V30 15096 C 1376.26 -6.66616 0.343357 0
M  V30 15097 H 1375.53 -0.652219 -0.351697 0
M  V30 15098 H 1378.18 -1.9011 -0.230272 0
M  V30 15099 H 1376.49 -2.89454 -2.64052 0
M  V30 15100 H 1378.18 -3.20791 -2.40612 0
M  V30 15101 H 1374.77 -4.09134 -1.27699 0
M  V30 15102 H 1378.96 -4.90835 -0.734487 0
M  V30 15103 H 1374.21 -6.114 0.00282409 0
M  V30 15104 H 1378.39 -6.94312 0.538905 0
M  V30 15105 H 1376.01 -7.54691 0.913538 0
M  V30 15106 N 1377.59 0.500963 -1.49426 0
M  V30 15107 C 1378.54 1.59939 -1.62492 0
M  V30 15108 C 1379.52 1.53555 -0.480584 0
M  V30 15109 O 1380.72 1.61085 -0.733538 0
M  V30 15110 C 1377.84 2.98549 -1.6948 0
M  V30 15111 C 1376.93 3.09929 -2.89491 0
M  V30 15112 N 1377.32 2.91198 -4.13567 0
M  V30 15113 C 1375.62 3.41029 -2.87428 0
M  V30 15114 C 1376.32 3.06761 -4.94239 0
M  V30 15115 N 1375.3 3.35639 -4.27606 0
M  V30 15116 H 1379.1 1.44111 -2.56143 0
M  V30 15117 H 1376.61 0.707088 -1.46199 0
M  V30 15118 H 1378.61 3.7749 -1.76938 0
M  V30 15119 H 1377.27 3.15446 -0.769658 0
M  V30 15120 H 1378.28 2.67373 -4.43545 0
M  V30 15121 H 1374.96 3.64103 -2.04293 0
M  V30 15122 H 1376.35 2.96772 -6.02807 0
M  V30 15123 N 1379.07 1.38501 0.752011 0
M  V30 15124 C 1380 1.31746 1.87551 0
M  V30 15125 C 1381.01 0.229386 1.61176 0
M  V30 15126 O 1382.2 0.487066 1.71726 0
M  V30 15127 C 1379.3 1.01889 3.23221 0
M  V30 15128 C 1378.47 2.21637 3.77088 0
M  V30 15129 C 1377.53 1.885 4.91278 0
M  V30 15130 O 1376.56 2.61011 5.05828 0
M  V30 15131 N 1377.76 0.840909 5.74377 0
M  V30 15132 H 1380.53 2.28561 1.93856 0
M  V30 15133 H 1378.09 1.32383 0.932013 0
M  V30 15134 H 1380.08 0.777704 3.97157 0
M  V30 15135 H 1378.65 0.138658 3.12292 0
M  V30 15136 H 1377.87 2.61812 2.947 0
M  V30 15137 H 1379.16 3.01551 4.0981 0
M  V30 15138 H 1378.56 0.23962 5.65192 0
M  V30 15139 H 1377.11 0.659604 6.48454 0
M  V30 15140 N 1380.55 -0.980364 1.23396 0
M  V30 15141 C 1381.48 -2.0908 1.0396 0
M  V30 15142 C 1382.46 -1.70044 -0.0434946 0
M  V30 15143 O 1383.64 -1.93822 0.121155 0
M  V30 15144 C 1380.77 -3.41537 0.630061 0
M  V30 15145 C 1379.73 -3.94476 1.66051 0
M  V30 15146 C 1379.05 -5.23128 1.10641 0
M  V30 15147 C 1380.35 -4.23741 3.05354 0
M  V30 15148 H 1382.05 -2.25598 1.9684 0
M  V30 15149 H 1379.59 -1.08409 0.94781 0
M  V30 15150 H 1381.54 -4.18644 0.481145 0
M  V30 15151 H 1380.27 -3.24883 -0.334416 0
M  V30 15152 H 1378.93 -3.19513 1.79742 0
M  V30 15153 H 1378.58 -5.02824 0.132913 0
M  V30 15154 H 1378.28 -5.59515 1.79492 0
M  V30 15155 H 1379.8 -6.02857 0.969344 0
M  V30 15156 H 1381.21 -4.91598 2.94964 0
M  V30 15157 H 1379.61 -4.71329 3.71442 0
M  V30 15158 H 1380.68 -3.31012 3.54343 0
M  V30 15159 N 1382.02 -1.04567 -1.17913 0
M  V30 15160 C 1383.44 -0.76584 -1.40025 0
M  V30 15161 C 1383.64 0.642484 -1.90983 0
M  V30 15162 O 1382.7 1.40589 -2.0974 0
M  V30 15163 C 1384.01 -1.81616 -2.39658 0
M  V30 15164 C 1385.56 -1.83765 -2.53376 0
M  V30 15165 C 1386.03 -2.87803 -3.56277 0
M  V30 15166 N 1387.52 -2.86726 -3.63789 0
M  V30 15167 C 1388.26 -3.63876 -4.4315 0
M  V30 15168 N 1387.75 -4.50793 -5.26077 0
M  V30 15169 N 1389.55 -3.52344 -4.37962 0
M  V30 15170 H 1381.7 -1.95442 -0.831647 0
M  V30 15171 H 1383.96 -0.84593 -0.42791 0
M  V30 15172 H 1383.67 -2.8266 -2.09275 0
M  V30 15173 H 1383.54 -1.65251 -3.39075 0
M  V30 15174 H 1385.93 -0.833896 -2.83073 0
M  V30 15175 H 1386.01 -2.04208 -1.54055 0
M  V30 15176 H 1385.65 -3.88361 -3.2732 0
M  V30 15177 H 1385.58 -2.64614 -4.55288 0
M  V30 15178 H 1388.07 -2.237 -3.04576 0
M  V30 15179 H 1388.39 -5.0636 -5.83798 0
M  V30 15180 H 1386.73 -4.54858 -5.2548 0
M  V30 15181 H 1389.92 -2.8384 -3.72226 0
M  V30 15182 H 1390.1 -4.12718 -4.99568 0
M  V30 15183 N 1383.5 1.34231 -0.825823 0
M  V30 15184 C 1384.75 1.97454 -0.411661 0
M  V30 15185 C 1385.06 1.66193 1.03147 0
M  V30 15186 O 1386.27 2.22929 1.54968 0
M  V30 15187 C 1384.73 3.53318 -0.685145 0
M  V30 15188 C 1384.33 3.9347 -2.14208 0
M  V30 15189 C 1386.08 4.23158 -0.337291 0
M  V30 15190 C 1383.98 5.42258 -2.3603 0
M  V30 15191 H 1382.91 0.738889 -0.150196 0
M  V30 15192 H 1385.57 1.53033 -1.01258 0
M  V30 15193 H 1383.95 3.95998 -0.0140178 0
M  V30 15194 H 1385.12 3.61888 -2.85261 0
M  V30 15195 H 1383.44 3.36575 -2.45165 0
M  V30 15196 H 1386.03 5.32558 -0.47813 0
M  V30 15197 H 1386.38 4.10053 0.718499 0
M  V30 15198 H 1386.91 3.85965 -0.963113 0
M  V30 15199 H 1383.65 5.60352 -3.40126 0
M  V30 15200 H 1383.17 5.75345 -1.69524 0
M  V30 15201 H 1384.85 6.08976 -2.18533 0
M  V30 15202 N 1384.98 0.581051 1.46498 0
M  V30 15203 C 1386.2 0.0696654 2.07283 0
M  V30 15204 C 1386.63 -1.22525 1.42721 0
M  V30 15205 O 1385.99 -1.73967 0.510421 0
M  V30 15206 C 1386.04 -0.0843864 3.60501 0
M  V30 15207 O 1385.14 -1.14129 3.96293 0
M  V30 15208 H 1384.48 0.0620572 0.661094 0
M  V30 15209 H 1387.01 0.803522 1.88161 0
M  V30 15210 H 1387.02 -0.29108 4.0696 0
M  V30 15211 H 1385.7 0.861274 4.06884 0
M  V30 15212 H 1384.27 -0.913186 3.61546 0
M  V30 15213 N 1386.46 -1.54343 0.318742 0
M  V30 15214 C 1387.69 -2.04597 -0.286961 0
M  V30 15215 C 1388.1 -1.19474 -1.46706 0
M  V30 15216 O 1387.44 -0.217082 -1.82413 0
M  V30 15217 C 1387.5 -3.50729 -0.789262 0
M  V30 15218 C 1387.16 -4.56214 0.267888 0
M  V30 15219 C 1388.16 -5.08079 1.10235 0
M  V30 15220 C 1385.85 -5.00585 0.414691 0
M  V30 15221 C 1387.84 -6.02872 2.06938 0
M  V30 15222 C 1385.53 -5.95195 1.38515 0
M  V30 15223 C 1386.53 -6.46224 2.21097 0
M  V30 15224 O 1386.21 -7.38976 3.16495 0
M  V30 15225 H 1385.95 -0.672994 -0.0636843 0
M  V30 15226 H 1388.5 -2.00147 0.461569 0
M  V30 15227 H 1386.73 -3.52562 -1.58862 0
M  V30 15228 H 1388.42 -3.84084 -1.31278 0
M  V30 15229 H 1389.18 -4.74581 0.999893 0
M  V30 15230 H 1385.06 -4.60483 -0.21819 0
M  V30 15231 H 1388.61 -6.42627 2.71435 0
M  V30 15232 H 1384.5 -6.28109 1.48826 0
M  V30 15233 H 1385.27 -7.56835 3.11678 0
M  V30 15234 N 1387.94 -0.0468143 -1.5753 0
M  V30 15235 C 1389.18 0.626699 -1.92138 0
M  V30 15236 C 1389.5 1.7164 -0.925463 0
M  V30 15237 O 1388.77 1.95876 0.0303531 0
M  V30 15238 H 1387.35 0.234479 -0.709245 0
M  V30 15239 H 1390.02 -0.0987892 -1.94649 0
M  V30 15240 H 1389.11 1.06811 -2.93254 0
M  V30 15241 N 1389.41 1.55964 0.226527 0
M  V30 15242 C 1390.64 1.82823 0.968673 0
M  V30 15243 C 1391.06 0.625281 1.78145 0
M  V30 15244 O 1390.41 -0.40617 1.77923 0
M  V30 15245 C 1390.47 3.08143 1.89024 0
M  V30 15246 O 1390.19 4.23797 1.11032 0
M  V30 15247 C 1391.69 3.47954 2.74669 0
M  V30 15248 H 1388.91 0.607876 0.284126 0
M  V30 15249 H 1391.45 2.03048 0.243258 0
M  V30 15250 H 1389.61 2.89908 2.56967 0
M  V30 15251 H 1390.02 4.94957 1.73546 0
M  V30 15252 H 1391.49 4.38691 3.35044 0
M  V30 15253 H 1391.97 2.69476 3.46813 0
M  V30 15254 H 1392.58 3.6861 2.12147 0
M  V30 15255 N 1390.89 -0.493031 1.4969 0
M  V30 15256 C 1391.84 -1.61449 1.67442 0
M  V30 15257 C 1392.83 -1.60553 0.540296 0
M  V30 15258 O 1394.04 -1.64965 0.720167 0
M  V30 15259 H 1390.42 -0.535337 0.528127 0
M  V30 15260 H 1392.39 -1.43631 2.61558 0
M  V30 15261 C 1391.14 -2.99537 1.76559 0
M  V30 15262 H 1390.46 -3.00936 2.63206 0
M  V30 15263 H 1391.9 -3.77521 1.93013 0
M  V30 15264 C 1390.36 -3.32984 0.512176 0
M  V30 15265 O 1390.89 -4.00096 -0.35857 0
M  V30 15266 N 1389.09 -2.882 0.372734 0
M  V30 15267 H 1388.64 -2.3376 1.08232 0
M  V30 15268 H 1388.6 -3.10945 -0.464804 0
M  V30 15269 N 1392.37 -1.38898 -0.744656 0
M  V30 15270 C 1393.32 -1.36845 -1.85855 0
M  V30 15271 C 1394.29 -0.2296 -1.64505 0
M  V30 15272 O 1395.47 -0.423221 -1.86047 0
M  V30 15273 C 1392.61 -1.20818 -3.2326 0
M  V30 15274 C 1391.73 -2.44166 -3.5638 0
M  V30 15275 C 1390.86 -2.20801 -4.83136 0
M  V30 15276 C 1389.9 -3.39874 -5.0907 0
M  V30 15277 N 1389.04 -3.15888 -6.27024 0
M  V30 15278 H 1393.88 -2.32068 -1.86945 0
M  V30 15279 H 1391.41 -1.15289 -0.913611 0
M  V30 15280 H 1393.37 -1.0954 -4.02563 0
M  V30 15281 H 1392 -0.292295 -3.21474 0
M  V30 15282 H 1391.05 -2.66083 -2.71852 0
M  V30 15283 H 1392.37 -3.32885 -3.71469 0
M  V30 15284 H 1391.52 -2.0671 -5.704 0
M  V30 15285 H 1390.26 -1.29462 -4.70203 0
M  V30 15286 H 1389.26 -3.54474 -4.20271 0
M  V30 15287 H 1390.49 -4.32102 -5.23894 0
M  V30 15288 H 1388.43 -2.27204 -6.15398 0
M  V30 15289 H 1388.35 -3.9816 -6.42655 0
M  V30 15290 H 1389.62 -3.0547 -7.17153 0
M  V30 15291 N 1393.85 0.973806 -1.23914 0
M  V30 15292 C 1395.1 1.71259 -1.07307 0
M  V30 15293 C 1395.42 1.91064 0.389831 0
M  V30 15294 O 1394.69 1.48401 1.27883 0
M  V30 15295 H 1393.27 0.634588 -0.39409 0
M  V30 15296 H 1395.93 1.17184 -1.55737 0
M  V30 15297 H 1395.03 2.69953 -1.56626 0
M  V30 15298 N 1395.33 1.05191 1.17357 0
M  V30 15299 C 1396.27 0.652868 2.21374 0
M  V30 15300 C 1397.24 -0.344974 1.62478 0
M  V30 15301 O 1398.43 -0.23639 1.8933 0
M  V30 15302 C 1395.57 0.0337737 3.45083 0
M  V30 15303 C 1394.68 1.08045 4.18271 0
M  V30 15304 C 1393.82 0.428673 5.29468 0
M  V30 15305 C 1392.86 1.45966 5.94441 0
M  V30 15306 N 1391.99 0.832042 6.97152 0
M  V30 15307 H 1396.83 1.54434 2.54861 0
M  V30 15308 H 1394.37 0.772365 1.25192 0
M  V30 15309 H 1396.33 -0.342607 4.15791 0
M  V30 15310 H 1394.96 -0.821159 3.12181 0
M  V30 15311 H 1394.01 1.57466 3.46278 0
M  V30 15312 H 1395.32 1.86305 4.62701 0
M  V30 15313 H 1394.48 -0.00129344 6.067 0
M  V30 15314 H 1393.21 -0.385919 4.86171 0
M  V30 15315 H 1392.22 1.89964 5.1594 0
M  V30 15316 H 1393.44 2.27615 6.39819 0
M  V30 15317 H 1391.39 0.0379612 6.55989 0
M  V30 15318 H 1391.31 1.55219 7.39894 0
M  V30 15319 H 1392.58 0.42685 7.7833 0
M  V30 15320 N 1396.8 -1.33791 0.83293 0
M  V30 15321 C 1397.75 -2.31249 0.250357 0
M  V30 15322 C 1398.75 -1.57865 -0.614403 0
M  V30 15323 O 1399.95 -1.72782 -0.504627 0
M  V30 15324 H 1396.33 -0.749421 0.0622268 0
M  V30 15325 H 1398.3 -2.77899 1.08697 0
M  V30 15326 C 1397.05 -3.43082 -0.564783 0
M  V30 15327 H 1396.37 -3.99696 0.0913189 0
M  V30 15328 H 1397.81 -4.13486 -0.938351 0
M  V30 15329 C 1396.27 -2.88414 -1.74124 0
M  V30 15330 O 1396.8 -2.84113 -2.83976 0
M  V30 15331 N 1395.01 -2.45101 -1.56121 0
M  V30 15332 H 1394.55 -2.48799 -0.667607 0
M  V30 15333 H 1394.51 -2.08875 -2.34986 0
M  V30 15334 N 1398.28 -0.588812 -1.46187 0
M  V30 15335 C 1399.51 -0.0824104 -2.06436 0
M  V30 15336 C 1399.92 1.23054 -1.43716 0
M  V30 15337 O 1399.26 1.7562 -0.538825 0
M  V30 15338 C 1399.33 0.151307 -3.59181 0
M  V30 15339 C 1398.99 -1.07697 -4.44129 0
M  V30 15340 C 1399.99 -1.99053 -4.80285 0
M  V30 15341 C 1397.67 -1.30053 -4.85172 0
M  V30 15342 C 1399.67 -3.11108 -5.56319 0
M  V30 15343 C 1397.35 -2.42412 -5.60963 0
M  V30 15344 C 1398.35 -3.32769 -5.96451 0
M  V30 15345 O 1398.04 -4.43175 -6.70709 0
M  V30 15346 H 1397.77 -0.0573231 -0.673565 0
M  V30 15347 H 1400.32 -0.811012 -1.88711 0
M  V30 15348 H 1398.55 0.934591 -3.75236 0
M  V30 15349 H 1400.24 0.606973 -4.01336 0
M  V30 15350 H 1401.01 -1.83 -4.4915 0
M  V30 15351 H 1396.89 -0.606295 -4.56996 0
M  V30 15352 H 1400.43 -3.81659 -5.83937 0
M  V30 15353 H 1396.33 -2.58426 -5.91512 0
M  V30 15354 H 1397.1 -4.4162 -6.8914 0
M  V30 15355 N 1399.76 1.54172 -0.326923 0
M  V30 15356 C 1400.99 2.05044 0.276508 0
M  V30 15357 C 1401.4 1.20288 1.45521 0
M  V30 15358 O 1400.76 0.234324 1.80989 0
M  V30 15359 C 1400.81 3.54505 0.707714 0
M  V30 15360 O 1400.53 4.36042 -0.424098 0
M  V30 15361 C 1402.03 4.21482 1.3736 0
M  V30 15362 H 1399.25 0.668632 0.0563273 0
M  V30 15363 H 1401.8 1.98929 -0.474087 0
M  V30 15364 H 1399.95 3.60896 1.40828 0
M  V30 15365 H 1400.37 5.24433 -0.0836846 0
M  V30 15366 H 1401.84 5.27501 1.62623 0
M  V30 15367 H 1402.32 3.72802 2.32196 0
M  V30 15368 H 1402.92 4.19238 0.715526 0
M  V30 15369 N 1401.24 0.0551678 1.57503 0
M  V30 15370 C 1402.15 -0.932959 2.15251 0
M  V30 15371 C 1403.16 -1.33885 1.11134 0
M  V30 15372 O 1404.34 -1.41495 1.43321 0
M  V30 15373 C 1401.41 -2.18807 2.68932 0
M  V30 15374 C 1400.47 -1.84016 3.87862 0
M  V30 15375 C 1399.7 -3.03543 4.38973 0
M  V30 15376 O 1399.92 -4.17041 3.89144 0
M  V30 15377 O 1398.86 -2.84325 5.30512 0
M  V30 15378 H 1402.68 -0.471816 3.00013 0
M  V30 15379 H 1400.27 -0.16696 1.48464 0
M  V30 15380 H 1402.15 -2.92439 3.0341 0
M  V30 15381 H 1400.82 -2.64051 1.87239 0
M  V30 15382 H 1399.73 -1.07687 3.58266 0
M  V30 15383 H 1401.06 -1.43567 4.70796 0
M  V30 15384 N 1402.72 -1.56081 -0.218252 0
M  V30 15385 C 1403.63 -1.95856 -1.29141 0
M  V30 15386 C 1404.64 -0.862857 -1.51099 0
M  V30 15387 O 1405.82 -1.1667 -1.64165 0
M  V30 15388 C 1402.88 -2.27005 -2.62049 0
M  V30 15389 C 1401.94 -3.50162 -2.48365 0
M  V30 15390 C 1401.18 -3.79815 -3.74935 0
M  V30 15391 O 1401.4 -3.11095 -4.78096 0
M  V30 15392 O 1400.33 -4.73299 -3.71849 0
M  V30 15393 H 1404.16 -2.8732 -0.983922 0
M  V30 15394 H 1401.75 -1.43334 -0.421385 0
M  V30 15395 H 1403.63 -2.4822 -3.40536 0
M  V30 15396 H 1402.3 -1.38715 -2.92472 0
M  V30 15397 H 1401.21 -3.34222 -1.68066 0
M  V30 15398 H 1402.54 -4.38845 -2.22881 0
M  V30 15399 N 1404.2 0.485086 -1.49949 0
M  V30 15400 C 1405.11 1.61089 -1.70551 0
M  V30 15401 C 1406.12 1.63752 -0.588333 0
M  V30 15402 O 1407.3 1.81879 -0.86498 0
M  V30 15403 C 1404.36 2.97382 -1.78227 0
M  V30 15404 C 1403.42 3.05219 -3.01894 0
M  V30 15405 C 1402.66 4.35011 -3.09195 0
M  V30 15406 O 1402.88 5.24722 -2.23658 0
M  V30 15407 O 1401.81 4.48151 -4.01802 0
M  V30 15408 H 1405.64 1.46633 -2.65956 0
M  V30 15409 H 1403.22 0.663091 -1.33879 0
M  V30 15410 H 1405.11 3.78356 -1.85538 0
M  V30 15411 H 1403.78 3.12066 -0.860043 0
M  V30 15412 H 1402.69 2.23373 -3.00092 0
M  V30 15413 H 1404.02 2.95467 -3.93649 0
M  V30 15414 N 1405.67 1.39291 0.737279 0
M  V30 15415 C 1406.95 1.26901 1.48847 0
M  V30 15416 C 1407.33 -0.122417 2.10745 0
M  V30 15417 O 1406.68 -1.13343 1.98408 0
M  V30 15418 C 1406.89 2.3916 2.54172 0
M  V30 15419 C 1408.24 2.78368 3.20619 0
M  V30 15420 O 1409.26 2.38593 2.64484 0
M  V30 15421 O 1408.12 3.47014 4.22189 0
M  V30 15422 H 1405.21 0.497176 0.660867 0
M  V30 15423 H 1407.76 1.51159 0.771299 0
M  V30 15424 H 1406.53 3.3219 2.06797 0
M  V30 15425 H 1406.15 2.16555 3.33451 0
M  V30 15426 N 1407.15 -0.967221 1.24429 0
M  V30 15427 C 1408.57 -1.23594 1.00979 0
M  V30 15428 C 1408.77 -1.99529 -0.281112 0
M  V30 15429 O 1407.82 -2.31977 -0.997139 0
M  V30 15430 C 1409.14 -2.02261 2.22511 0
M  V30 15431 C 1410.68 -2.15352 2.2714 0
M  V30 15432 C 1411.16 -2.97414 3.48294 0
M  V30 15433 N 1412.65 -3.04996 3.48614 0
M  V30 15434 C 1413.39 -3.68851 4.39017 0
M  V30 15435 N 1412.88 -4.34421 5.39676 0
M  V30 15436 N 1414.67 -3.65868 4.26728 0
M  V30 15437 H 1406.83 -0.458881 2.07384 0
M  V30 15438 H 1409.09 -0.265411 0.910088 0
M  V30 15439 H 1408.79 -1.53852 3.16263 0
M  V30 15440 H 1408.67 -3.02993 2.24667 0
M  V30 15441 H 1411.06 -2.62964 1.33919 0
M  V30 15442 H 1411.14 -1.13966 2.2901 0
M  V30 15443 H 1410.78 -2.50495 4.41831 0
M  V30 15444 H 1410.71 -3.98998 3.43668 0
M  V30 15445 H 1413.2 -2.58354 2.75793 0
M  V30 15446 H 1413.51 -4.80965 6.04891 0
M  V30 15447 H 1411.86 -4.33089 5.43562 0
M  V30 15448 H 1415.05 -3.13819 3.47325 0
M  V30 15449 H 1415.22 -4.15349 4.97382 0
M  V30 15450 N 1408.63 -1.05812 -1.16797 0
M  V30 15451 C 1409.88 -0.771923 -1.8721 0
M  V30 15452 C 1410.2 0.701365 -1.81414 0
M  V30 15453 O 1409.46 1.5292 -1.22122 0
M  V30 15454 C 1409.76 -1.20565 -3.3645 0
M  V30 15455 C 1409.42 -2.68222 -3.62447 0
M  V30 15456 C 1408.09 -3.08556 -3.69251 0
M  V30 15457 C 1410.44 -3.63607 -3.73416 0
M  V30 15458 C 1407.77 -4.43126 -3.84521 0
M  V30 15459 C 1410.12 -4.97918 -3.90205 0
M  V30 15460 C 1408.78 -5.37897 -3.9525 0
M  V30 15461 H 1408.05 -0.282467 -0.68505 0
M  V30 15462 H 1410.7 -1.32633 -1.38133 0
M  V30 15463 H 1409 -0.570347 -3.87626 0
M  V30 15464 H 1410.7 -0.961326 -3.89306 0
M  V30 15465 H 1407.29 -2.3599 -3.5778 0
M  V30 15466 H 1411.48 -3.33581 -3.67474 0
M  V30 15467 H 1406.73 -4.73593 -3.86677 0
M  V30 15468 H 1410.91 -5.71716 -3.97635 0
M  V30 15469 H 1408.53 -6.42176 -4.06834 0
M  V30 15470 N 1410.11 1.33347 -0.840014 0
M  V30 15471 C 1411.04 2.31703 -0.289138 0
M  V30 15472 C 1412.02 1.59024 0.603759 0
M  V30 15473 O 1413.2 1.86911 0.527071 0
M  V30 15474 C 1410.33 3.43144 0.53566 0
M  V30 15475 C 1409.29 4.272 -0.261544 0
M  V30 15476 C 1408.61 5.30267 0.687075 0
M  V30 15477 C 1409.91 5.00915 -1.47924 0
M  V30 15478 H 1411.61 2.78026 -1.11094 0
M  V30 15479 H 1409.15 1.33666 -0.535658 0
M  V30 15480 H 1411.11 4.10979 0.931351 0
M  V30 15481 H 1409.83 2.95512 1.39069 0
M  V30 15482 H 1408.49 3.60991 -0.638809 0
M  V30 15483 H 1408.14 4.78893 1.53853 0
M  V30 15484 H 1407.84 5.87388 0.157773 0
M  V30 15485 H 1409.36 6.00968 1.08026 0
M  V30 15486 H 1410.78 5.61511 -1.15664 0
M  V30 15487 H 1409.17 5.67692 -1.94541 0
M  V30 15488 H 1410.24 4.29622 -2.24839 0
M  V30 15489 N 1411.59 0.596556 1.45873 0
M  V30 15490 C 1412.83 0.0850976 2.0152 0
M  V30 15491 C 1413.15 -1.28799 1.47208 0
M  V30 15492 O 1414.35 -1.89156 1.94762 0
M  V30 15493 C 1412.81 0.101488 3.59757 0
M  V30 15494 C 1412.42 1.47374 4.23066 0
M  V30 15495 C 1414.16 -0.355303 4.2301 0
M  V30 15496 C 1412.07 1.44711 5.73422 0
M  V30 15497 H 1411 0.0280444 0.753478 0
M  V30 15498 H 1413.65 0.750255 1.67462 0
M  V30 15499 H 1412.03 -0.630108 3.90955 0
M  V30 15500 H 1413.21 2.22617 4.03458 0
M  V30 15501 H 1411.52 1.87171 3.71962 0
M  V30 15502 H 1414.12 -0.394236 5.33245 0
M  V30 15503 H 1414.46 -1.37573 3.92911 0
M  V30 15504 H 1414.99 0.32267 3.96489 0
M  V30 15505 H 1411.73 2.44479 6.08203 0
M  V30 15506 H 1411.25 0.737102 5.95254 0
M  V30 15507 H 1412.93 1.16598 6.36407 0
M  V30 15508 N 1413.06 -1.53996 0.335095 0
M  V30 15509 C 1414.3 -2.02682 -0.264447 0
M  V30 15510 C 1414.67 -1.21779 -1.48438 0
M  V30 15511 O 1415.87 -1.60322 -2.15755 0
M  V30 15512 C 1414.14 -3.52678 -0.579072 0
M  V30 15513 S 1415.7 -4.23282 -1.15663 0
M  V30 15514 H 1412.52 -0.706566 -0.0792826 0
M  V30 15515 H 1415.12 -1.89744 0.470895 0
M  V30 15516 H 1413.82 -4.09176 0.316756 0
M  V30 15517 H 1413.35 -3.69719 -1.34431 0
M  V30 15518 H 1415.37 -4.31903 -2.44284 0
M  V30 15519 N 1414.54 -0.0635198 -1.57472 0
M  V30 15520 C 1415.47 0.942339 -2.07835 0
M  V30 15521 C 1416.45 1.29629 -0.981587 0
M  V30 15522 O 1417.64 1.40702 -1.25439 0
M  V30 15523 C 1414.76 2.25284 -2.52913 0
M  V30 15524 C 1413.81 2.05105 -3.73944 0
M  V30 15525 S 1414.64 1.31802 -5.19026 0
M  V30 15526 C 1415.8 2.64149 -5.67429 0
M  V30 15527 H 1416.03 0.513772 -2.92827 0
M  V30 15528 H 1413.56 0.149049 -1.53679 0
M  V30 15529 H 1415.52 3.00607 -2.79546 0
M  V30 15530 H 1414.18 2.65266 -1.68204 0
M  V30 15531 H 1413.38 3.02071 -4.03447 0
M  V30 15532 H 1412.98 1.3792 -3.47641 0
M  V30 15533 H 1415.27 3.60272 -5.73769 0
M  V30 15534 H 1416.21 2.39267 -6.66451 0
M  V30 15535 H 1416.62 2.70975 -4.9521 0
M  V30 15536 N 1416.02 1.56195 0.209972 0
M  V30 15537 C 1416.95 1.96378 1.26324 0
M  V30 15538 C 1417.93 0.833606 1.48273 0
M  V30 15539 O 1419.12 1.0968 1.60262 0
M  V30 15540 C 1416.25 2.29048 2.61064 0
M  V30 15541 C 1415.2 3.44665 2.53752 0
M  V30 15542 C 1414.53 3.6297 3.92628 0
M  V30 15543 C 1415.83 4.79297 2.07536 0
M  V30 15544 H 1417.52 2.8461 0.929379 0
M  V30 15545 H 1415.07 1.36931 0.445627 0
M  V30 15546 H 1417.02 2.55752 3.34916 0
M  V30 15547 H 1415.74 1.37682 2.96161 0
M  V30 15548 H 1414.4 3.18028 1.82356 0
M  V30 15549 H 1414.05 2.68961 4.25052 0
M  V30 15550 H 1413.75 4.40741 3.88614 0
M  V30 15551 H 1415.27 3.92035 4.68125 0
M  V30 15552 H 1416.69 5.05131 2.71138 0
M  V30 15553 H 1415.08 5.60433 2.14557 0
M  V30 15554 H 1416.15 4.73877 1.02802 0
M  V30 15555 N 1417.5 -0.477127 1.50204 0
M  V30 15556 C 1418.45 -1.57334 1.65015 0
M  V30 15557 C 1419.43 -1.52771 0.504953 0
M  V30 15558 O 1420.62 -1.59897 0.759072 0
M  V30 15559 C 1417.75 -2.95815 1.74208 0
M  V30 15560 C 1416.84 -3.05284 2.94385 0
M  V30 15561 N 1417.23 -2.84582 4.18147 0
M  V30 15562 C 1415.53 -3.36413 2.92817 0
M  V30 15563 C 1416.23 -2.98859 4.99057 0
M  V30 15564 N 1415.2 -3.28794 4.32892 0
M  V30 15565 H 1419.01 -1.40018 2.58403 0
M  V30 15566 H 1416.52 -0.68374 1.47305 0
M  V30 15567 H 1418.52 -3.74627 1.82921 0
M  V30 15568 H 1417.18 -3.14182 0.819746 0
M  V30 15569 H 1418.19 -2.60282 4.47743 0
M  V30 15570 H 1414.87 -3.60806 2.1006 0
M  V30 15571 H 1416.26 -2.87144 6.07452 0
M  V30 15572 N 1418.98 -1.3968 -0.729882 0
M  V30 15573 C 1419.92 -1.38808 -1.84393 0
M  V30 15574 C 1420.89 -0.247035 -1.64253 0
M  V30 15575 O 1422.08 -0.44293 -1.85588 0
M  V30 15576 C 1419.22 -1.2424 -3.2196 0
M  V30 15577 C 1418.33 -2.47932 -3.53771 0
M  V30 15578 C 1417.47 -2.25913 -4.80767 0
M  V30 15579 C 1416.51 -3.45254 -5.05436 0
M  V30 15580 N 1415.64 -3.2252 -6.23638 0
M  V30 15581 H 1420.48 -2.34038 -1.84473 0
M  V30 15582 H 1418.02 -1.16252 -0.901332 0
M  V30 15583 H 1419.98 -1.13804 -4.01378 0
M  V30 15584 H 1418.61 -0.326375 -3.21146 0
M  V30 15585 H 1417.66 -2.68952 -2.69015 0
M  V30 15586 H 1418.97 -3.36806 -3.67917 0
M  V30 15587 H 1418.13 -2.12748 -5.68175 0
M  V30 15588 H 1416.86 -1.34441 -4.68804 0
M  V30 15589 H 1415.87 -3.58912 -4.16488 0
M  V30 15590 H 1417.09 -4.37634 -5.19282 0
M  V30 15591 H 1415.04 -2.33718 -6.12953 0
M  V30 15592 H 1414.96 -4.04954 -6.38395 0
M  V30 15593 H 1416.23 -3.1306 -7.13872 0
M  V30 15594 N 1420.45 0.960609 -1.2494 0
M  V30 15595 C 1421.38 2.074 -1.07274 0
M  V30 15596 C 1422.37 1.70092 0.0164365 0
M  V30 15597 O 1423.55 1.93604 -0.151975 0
M  V30 15598 C 1420.68 3.40491 -0.684317 0
M  V30 15599 C 1419.63 3.91784 -1.72306 0
M  V30 15600 C 1418.96 5.21301 -1.18949 0
M  V30 15601 C 1420.26 4.18829 -3.12056 0
M  V30 15602 H 1421.95 2.22438 -2.00404 0
M  V30 15603 H 1419.5 1.06888 -0.964937 0
M  V30 15604 H 1421.45 4.17826 -0.547686 0
M  V30 15605 H 1420.18 3.25374 0.282687 0
M  V30 15606 H 1418.84 3.16613 -1.84802 0
M  V30 15607 H 1418.48 5.02549 -0.212892 0
M  V30 15608 H 1418.18 5.56588 -1.8837 0
M  V30 15609 H 1419.71 6.01238 -1.06513 0
M  V30 15610 H 1421.12 4.86844 -3.02748 0
M  V30 15611 H 1419.52 4.6536 -3.78894 0
M  V30 15612 H 1420.59 3.25333 -3.59564 0
M  V30 15613 N 1421.93 1.0643 1.16234 0
M  V30 15614 C 1423.18 0.780296 1.86429 0
M  V30 15615 C 1423.5 -0.695335 1.82181 0
M  V30 15616 O 1422.77 -1.50312 1.2563 0
M  V30 15617 H 1421.35 0.285654 0.690225 0
M  V30 15618 H 1424.01 1.34609 1.40949 0
M  V30 15619 H 1423.11 1.10644 2.91829 0
M  V30 15620 N 1423.41 -1.329 0.847073 0
M  V30 15621 C 1424.66 -1.9751 0.446755 0
M  V30 15622 C 1424.99 -1.67069 -0.995905 0
M  V30 15623 O 1424.24 -0.947232 -1.71248 0
M  V30 15624 C 1424.54 -3.51913 0.623845 0
M  V30 15625 C 1424.21 -4.02324 2.03583 0
M  V30 15626 C 1422.87 -4.15802 2.42203 0
M  V30 15627 C 1425.22 -4.29147 2.95774 0
M  V30 15628 C 1422.55 -4.53441 3.72301 0
M  V30 15629 C 1424.9 -4.68242 4.25362 0
M  V30 15630 C 1423.56 -4.79925 4.63927 0
M  V30 15631 H 1422.83 -0.722742 0.163479 0
M  V30 15632 H 1425.48 -1.58435 1.07567 0
M  V30 15633 H 1423.79 -3.917 -0.0883447 0
M  V30 15634 H 1425.48 -3.99919 0.294268 0
M  V30 15635 H 1422.07 -3.92314 1.72591 0
M  V30 15636 H 1426.26 -4.1825 2.67171 0
M  V30 15637 H 1421.51 -4.60681 4.01974 0
M  V30 15638 H 1425.69 -4.87952 4.96866 0
M  V30 15639 H 1423.31 -5.08847 5.64782 0
M  V30 15640 N 1424.89 -0.604284 -1.45555 0
M  V30 15641 C 1426.17 -0.0303285 -1.95576 0
M  V30 15642 C 1426.55 1.43661 -1.54676 0
M  V30 15643 O 1425.89 2.13747 -0.807731 0
M  V30 15644 C 1426.1 -0.22497 -3.48274 0
M  V30 15645 C 1427.45 -0.104042 -4.24473 0
M  V30 15646 O 1428.48 -0.154919 -3.55863 0
M  V30 15647 O 1427.33 0.0136297 -5.46498 0
M  V30 15648 H 1424.43 0.0376106 -0.826144 0
M  V30 15649 H 1426.97 -0.674114 -1.55736 0
M  V30 15650 H 1425.75 -1.24391 -3.71002 0
M  V30 15651 H 1425.37 0.454234 -3.94997 0
M  V30 15652 N 1426.37 1.53816 -0.343257 0
M  V30 15653 C 1427.31 2.25011 0.513664 0
M  V30 15654 C 1428.28 1.24827 1.09578 0
M  V30 15655 O 1429.47 1.53558 1.13245 0
M  V30 15656 C 1426.61 3.02616 1.65885 0
M  V30 15657 C 1425.72 4.17653 1.10406 0
M  V30 15658 C 1424.86 4.82746 2.21653 0
M  V30 15659 C 1423.9 5.89853 1.63524 0
M  V30 15660 N 1423.03 6.48726 2.68512 0
M  V30 15661 H 1427.87 2.97832 -0.099997 0
M  V30 15662 H 1425.41 1.46973 -0.0611206 0
M  V30 15663 H 1427.37 3.45868 2.33304 0
M  V30 15664 H 1426 2.32092 2.2435 0
M  V30 15665 H 1425.05 3.79045 0.320819 0
M  V30 15666 H 1426.36 4.94691 0.638887 0
M  V30 15667 H 1425.52 5.29068 2.96938 0
M  V30 15668 H 1424.25 4.05131 2.71515 0
M  V30 15669 H 1423.26 5.42914 0.86745 0
M  V30 15670 H 1424.48 6.69375 1.14515 0
M  V30 15671 H 1422.43 5.73975 3.17629 0
M  V30 15672 H 1422.35 7.21236 2.26616 0
M  V30 15673 H 1423.62 6.99701 3.43567 0
M  V30 15674 N 1427.84 0.0718701 1.57436 0
M  V30 15675 C 1428.75 -0.910077 2.16229 0
M  V30 15676 C 1429.77 -1.32699 1.12548 0
M  V30 15677 O 1430.95 -1.39967 1.44814 0
M  V30 15678 C 1428.01 -2.15942 2.71238 0
M  V30 15679 C 1427.07 -1.79891 3.89792 0
M  V30 15680 C 1426.31 -2.9887 4.42168 0
M  V30 15681 O 1426.53 -4.1289 3.93545 0
M  V30 15682 O 1425.46 -2.78682 5.33498 0
M  V30 15683 H 1429.29 -0.439969 3.00496 0
M  V30 15684 H 1426.87 -0.151204 1.48633 0
M  V30 15685 H 1428.76 -2.89204 3.06494 0
M  V30 15686 H 1427.43 -2.62051 1.90029 0
M  V30 15687 H 1426.34 -1.03881 3.59388 0
M  V30 15688 H 1427.67 -1.38566 4.72293 0
M  V30 15689 N 1429.32 -1.56304 -0.201686 0
M  V30 15690 C 1430.27 -1.94901 -1.26949 0
M  V30 15691 C 1431.26 -0.833574 -1.47472 0
M  V30 15692 O 1432.47 -1.01854 -1.48411 0
M  V30 15693 H 1428.85 -0.619663 -0.426053 0
M  V30 15694 H 1430.82 -2.83964 -0.9169 0
M  V30 15695 C 1429.57 -2.29913 -2.60835 0
M  V30 15696 H 1428.89 -3.15268 -2.45858 0
M  V30 15697 H 1430.33 -2.60789 -3.34313 0
M  V30 15698 C 1428.79 -1.13136 -3.17335 0
M  V30 15699 O 1429.32 -0.402915 -3.99674 0
M  V30 15700 N 1427.52 -0.909912 -2.75987 0
M  V30 15701 H 1427.07 -1.50402 -2.09134 0
M  V30 15702 H 1427.03 -0.130348 -3.1413 0
M  V30 15703 N 1430.8 0.469154 -1.50455 0
M  V30 15704 C 1432.05 1.2229 -1.6178 0
M  V30 15705 C 1432.38 1.91577 -0.318073 0
M  V30 15706 O 1431.65 1.82205 0.68057 0
M  V30 15707 C 1431.94 2.26504 -2.79943 0
M  V30 15708 C 1431.79 1.61509 -4.19804 0
M  V30 15709 C 1433.11 3.27796 -2.93662 0
M  V30 15710 H 1430.23 0.443241 -0.588817 0
M  V30 15711 H 1432.87 0.516431 -1.82847 0
M  V30 15712 H 1431.02 2.86757 -2.62112 0
M  V30 15713 H 1432.69 1.04838 -4.49229 0
M  V30 15714 H 1430.94 0.918162 -4.23972 0
M  V30 15715 H 1431.61 2.37248 -4.98415 0
M  V30 15716 H 1434.08 2.77568 -3.09992 0
M  V30 15717 H 1432.96 3.98041 -3.77961 0
M  V30 15718 H 1433.22 3.92033 -2.04359 0
M  V30 15719 N 1432.28 1.40065 0.722464 0
M  V30 15720 C 1433.51 1.41066 1.50944 0
M  V30 15721 C 1433.92 0.00678083 1.89199 0
M  V30 15722 O 1433.26 -0.977992 1.55502 0
M  V30 15723 C 1433.32 2.23127 2.81877 0
M  V30 15724 C 1432.99 3.7162 2.65984 0
M  V30 15725 C 1433.98 4.64415 2.33698 0
M  V30 15726 C 1431.67 4.15355 2.82463 0
M  V30 15727 C 1433.66 5.98928 2.18091 0
M  V30 15728 C 1431.35 5.49941 2.66474 0
M  V30 15729 C 1432.35 6.41542 2.34335 0
M  V30 15730 O 1432.03 7.73647 2.18461 0
M  V30 15731 H 1431.77 0.483321 0.472628 0
M  V30 15732 H 1434.32 1.84664 0.899356 0
M  V30 15733 H 1432.55 1.74298 3.45192 0
M  V30 15734 H 1434.24 2.16153 3.43559 0
M  V30 15735 H 1435.01 4.31924 2.20606 0
M  V30 15736 H 1430.88 3.44381 3.06468 0
M  V30 15737 H 1434.43 6.70391 1.92928 0
M  V30 15738 H 1430.33 5.82019 2.79149 0
M  V30 15739 H 1431.09 7.84507 2.33434 0
M  V30 15740 N 1433.76 -0.95397 1.25448 0
M  V30 15741 C 1435.03 -1.67502 1.01008 0
M  V30 15742 C 1435.41 -2.05949 -0.463483 0
M  V30 15743 O 1434.76 -1.77336 -1.44098 0
M  V30 15744 C 1434.97 -2.89679 1.94645 0
M  V30 15745 C 1436.32 -3.61617 2.22526 0
M  V30 15746 O 1437.34 -2.99762 1.92409 0
M  V30 15747 O 1436.2 -4.72998 2.73743 0
M  V30 15748 H 1433.3 -0.732917 0.383094 0
M  V30 15749 H 1435.84 -1.00684 1.36605 0
M  V30 15750 H 1434.62 -2.58063 2.94141 0
M  V30 15751 H 1434.24 -3.64228 1.59449 0
M  V30 15752 N 1435.24 -1.07045 -1.15668 0
M  V30 15753 C 1436.15 -0.699332 -2.23934 0
M  V30 15754 C 1437.16 0.288036 -1.71599 0
M  V30 15755 O 1438.34 0.135447 -2.00944 0
M  V30 15756 C 1435.4 -0.0994775 -3.46557 0
M  V30 15757 C 1434.46 -1.13968 -4.13896 0
M  V30 15758 C 1433.7 -0.56836 -5.30665 0
M  V30 15759 O 1433.92 0.616556 -5.67058 0
M  V30 15760 O 1432.85 -1.31174 -5.87432 0
M  V30 15761 H 1436.68 -1.60212 -2.58003 0
M  V30 15762 H 1434.26 -0.843202 -1.23331 0
M  V30 15763 H 1436.15 0.23293 -4.20756 0
M  V30 15764 H 1434.82 0.776684 -3.14244 0
M  V30 15765 H 1433.73 -1.5244 -3.41633 0
M  V30 15766 H 1435.06 -1.98764 -4.50282 0
M  V30 15767 N 1436.71 1.32449 -0.85411 0
M  V30 15768 C 1437.64 2.31383 -0.313697 0
M  V30 15769 C 1438.62 1.59656 0.586858 0
M  V30 15770 O 1439.81 1.87459 0.507216 0
M  V30 15771 C 1436.94 3.43693 0.499235 0
M  V30 15772 C 1435.89 4.26899 -0.306839 0
M  V30 15773 C 1435.22 5.30966 0.630795 0
M  V30 15774 C 1436.52 4.99318 -1.53229 0
M  V30 15775 H 1438.21 2.76832 -1.14037 0
M  V30 15776 H 1435.76 1.33091 -0.549805 0
M  V30 15777 H 1437.71 4.11944 0.887709 0
M  V30 15778 H 1436.44 2.96971 1.35926 0
M  V30 15779 H 1435.1 3.60294 -0.677061 0
M  V30 15780 H 1434.74 4.80498 1.48765 0
M  V30 15781 H 1434.44 5.87522 0.0954635 0
M  V30 15782 H 1435.97 6.0208 1.01646 0
M  V30 15783 H 1437.38 5.60253 -1.21614 0
M  V30 15784 H 1435.78 5.65596 -2.00552 0
M  V30 15785 H 1436.85 4.27213 -2.29383 0
M  V30 15786 N 1438.19 0.611994 1.45232 0
M  V30 15787 C 1439.61 0.276005 1.57195 0
M  V30 15788 C 1439.81 -1.22136 1.60266 0
M  V30 15789 O 1438.86 -2.00459 1.53533 0
M  V30 15790 C 1440.18 0.951064 2.85263 0
M  V30 15791 C 1441.72 0.927398 2.98945 0
M  V30 15792 C 1442.2 1.58255 4.2979 0
M  V30 15793 N 1443.69 1.54825 4.36559 0
M  V30 15794 C 1444.43 2.02428 5.3648 0
M  V30 15795 N 1443.92 2.58137 6.42913 0
M  V30 15796 N 1445.71 1.9317 5.27865 0
M  V30 15797 H 1437.87 1.58418 1.41483 0
M  V30 15798 H 1440.13 0.663879 0.676734 0
M  V30 15799 H 1439.83 2.00557 2.88912 0
M  V30 15800 H 1439.71 0.477044 3.74171 0
M  V30 15801 H 1442.1 -0.118571 2.94862 0
M  V30 15802 H 1442.18 1.43973 2.11437 0
M  V30 15803 H 1441.82 2.62787 4.34632 0
M  V30 15804 H 1441.75 1.04521 5.16123 0
M  V30 15805 H 1444.24 1.14133 3.60253 0
M  V30 15806 H 1444.55 2.92243 7.15412 0
M  V30 15807 H 1442.9 2.62179 6.43652 0
M  V30 15808 H 1446.09 1.49384 4.43624 0
M  V30 15809 H 1446.26 2.30582 6.05587 0
M  V30 15810 N 1439.67 -1.53632 0.351409 0
M  V30 15811 C 1440.6 -2.2284 -0.536204 0
M  V30 15812 C 1441.61 -1.23765 -1.05764 0
M  V30 15813 O 1442.8 -1.50073 -0.966449 0
M  V30 15814 C 1439.9 -2.9013 -1.75151 0
M  V30 15815 C 1439.08 -4.15588 -1.36401 0
M  V30 15816 C 1438.14 -4.66217 -2.43984 0
M  V30 15817 O 1437.16 -5.3024 -2.06964 0
M  V30 15818 N 1438.36 -4.42817 -3.75358 0
M  V30 15819 H 1441.13 -2.99647 0.0565368 0
M  V30 15820 H 1438.69 -1.60942 0.175905 0
M  V30 15821 H 1440.68 -3.20913 -2.4657 0
M  V30 15822 H 1439.25 -2.16862 -2.25144 0
M  V30 15823 H 1438.47 -3.91264 -0.480258 0
M  V30 15824 H 1439.76 -4.97179 -1.08121 0
M  V30 15825 H 1439.16 -3.9163 -4.08218 0
M  V30 15826 H 1437.71 -4.78186 -4.42924 0
M  V30 15827 N 1441.15 -0.0802183 -1.57396 0
M  V30 15828 C 1442.39 0.590512 -1.95684 0
M  V30 15829 C 1442.75 1.66265 -0.960199 0
M  V30 15830 O 1443.95 2.38954 -1.23104 0
M  V30 15831 C 1442.22 1.14486 -3.38567 0
M  V30 15832 S 1443.78 1.82954 -3.9884 0
M  V30 15833 H 1440.6 0.193123 -0.684269 0
M  V30 15834 H 1443.2 -0.156081 -1.94876 0
M  V30 15835 H 1441.91 0.352828 -4.08881 0
M  V30 15836 H 1441.44 1.92762 -3.42938 0
M  V30 15837 H 1443.45 3.11265 -3.86431 0
M  V30 15838 N 1442.63 1.56409 0.193394 0
M  V30 15839 C 1443.87 1.79919 0.911712 0
M  V30 15840 C 1444.19 0.653729 1.84352 0
M  V30 15841 O 1445.39 0.773172 2.60258 0
M  V30 15842 C 1443.85 3.18726 1.67158 0
M  V30 15843 C 1443.46 4.41078 0.784512 0
M  V30 15844 C 1445.2 3.51544 2.37944 0
M  V30 15845 C 1443.11 5.70907 1.54335 0
M  V30 15846 H 1442.04 0.670864 0.344177 0
M  V30 15847 H 1444.69 1.82757 0.164967 0
M  V30 15848 H 1443.07 3.10142 2.46227 0
M  V30 15849 H 1444.25 4.60789 0.032356 0
M  V30 15850 H 1442.56 4.15978 0.187407 0
M  V30 15851 H 1445.16 4.45779 2.95271 0
M  V30 15852 H 1445.5 2.75369 3.12214 0
M  V30 15853 H 1446.03 3.61583 1.65839 0
M  V30 15854 H 1442.77 6.50052 0.843393 0
M  V30 15855 H 1442.29 5.5521 2.26939 0
M  V30 15856 H 1443.97 6.12085 2.09669 0
M  V30 15857 N 1444.1 -0.461169 1.50702 0
M  V30 15858 C 1445.52 -0.795741 1.38348 0
M  V30 15859 C 1445.72 -1.96473 0.447263 0
M  V30 15860 O 1444.78 -2.52276 -0.106445 0
M  V30 15861 C 1446.09 -1.09849 2.79917 0
M  V30 15862 C 1447.64 -1.20435 2.88902 0
M  V30 15863 C 1448.11 -1.54017 4.31327 0
M  V30 15864 N 1449.6 -1.60989 4.34323 0
M  V30 15865 C 1450.34 -1.88498 5.41531 0
M  V30 15866 N 1449.83 -2.13959 6.58933 0
M  V30 15867 N 1451.63 -1.90082 5.28985 0
M  V30 15868 H 1443.78 0.309076 2.10139 0
M  V30 15869 H 1446.04 0.0757918 0.944965 0
M  V30 15870 H 1445.75 -0.312479 3.50309 0
M  V30 15871 H 1445.62 -2.03221 3.17775 0
M  V30 15872 H 1448.01 -1.98102 2.18723 0
M  V30 15873 H 1448.09 -0.250195 2.54573 0
M  V30 15874 H 1447.73 -0.768865 5.02047 0
M  V30 15875 H 1447.66 -2.50599 4.6315 0
M  V30 15876 H 1450.15 -1.43312 3.49672 0
M  V30 15877 H 1450.47 -2.34251 7.36442 0
M  V30 15878 H 1448.81 -2.11331 6.62091 0
M  V30 15879 H 1452 -1.69693 4.36259 0
M  V30 15880 H 1452.18 -2.11184 6.12622 0
M  V30 15881 N 1445.58 -1.40446 -0.715026 0
M  V30 15882 C 1446.53 -1.40931 -1.85044 0
M  V30 15883 C 1447.52 -0.289745 -1.66904 0
M  V30 15884 O 1448.73 -0.460809 -1.74002 0
M  V30 15885 H 1445.1 -0.440534 -0.609454 0
M  V30 15886 H 1447.08 -2.36662 -1.81752 0
M  V30 15887 C 1445.82 -1.28933 -3.22911 0
M  V30 15888 H 1445.15 -2.14359 -3.37476 0
M  V30 15889 H 1446.59 -1.33331 -4.02491 0
M  V30 15890 C 1445.05 0.000379936 -3.369 0
M  V30 15891 O 1445.58 0.963093 -3.89984 0
M  V30 15892 N 1443.78 0.0700649 -2.90516 0
M  V30 15893 H 1443.33 -0.714088 -2.47505 0
M  V30 15894 H 1443.29 0.932457 -3.00254 0
M  V30 15895 N 1447.06 0.947303 -1.25952 0
M  V30 15896 C 1448.28 1.73261 -1.13997 0
M  V30 15897 C 1448.71 1.85666 0.301639 0
M  V30 15898 O 1448.07 1.34244 1.21854 0
M  V30 15899 C 1448.12 3.12046 -1.8072 0
M  V30 15900 O 1447.22 3.97684 -1.09182 0
M  V30 15901 H 1446.56 0.53182 -0.397572 0
M  V30 15902 H 1449.09 1.18689 -1.66656 0
M  V30 15903 H 1449.1 3.62468 -1.87299 0
M  V30 15904 H 1447.78 3.02334 -2.856 0
M  V30 15905 H 1446.35 3.56141 -1.10536 0
M  V30 15906 N 1448.54 1.07657 1.15099 0
M  V30 15907 C 1449.95 0.823828 1.67541 0
M  V30 15908 C 1450.3 -0.650601 1.85099 0
M  V30 15909 O 1449.43 -1.50333 1.55657 0
M  V30 15910 C 1450.02 1.4889 3.04331 0
M  V30 15911 C 1448.58 1.28359 3.53837 0
M  V30 15912 C 1447.73 1.55659 2.2949 0
M  V30 15913 H 1450.68 1.23819 0.992699 0
M  V30 15914 H 1450.7 0.911848 3.69412 0
M  V30 15915 H 1450.21 2.56199 2.9152 0
M  V30 15916 H 1448.31 0.230864 3.71884 0
M  V30 15917 H 1448.42 2.00593 4.35085 0
M  V30 15918 H 1446.79 0.977755 2.35185 0
M  V30 15919 H 1447.57 2.64157 2.19263 0
M  V30 15920 N 1450.02 -1.31994 0.861122 0
M  V30 15921 C 1450.95 -2.27632 0.267681 0
M  V30 15922 C 1451.96 -1.52709 -0.564265 0
M  V30 15923 O 1453.15 -1.74239 -0.3877 0
M  V30 15924 C 1450.25 -3.32805 -0.639856 0
M  V30 15925 C 1449.42 -4.37116 0.157676 0
M  V30 15926 C 1448.48 -5.21832 -0.676624 0
M  V30 15927 O 1447.51 -5.69098 -0.107822 0
M  V30 15928 N 1448.71 -5.45317 -1.99022 0
M  V30 15929 H 1451.48 -2.79195 1.0895 0
M  V30 15930 H 1449.04 -1.44923 0.721733 0
M  V30 15931 H 1451.03 -3.86391 -1.20348 0
M  V30 15932 H 1449.6 -2.81351 -1.36236 0
M  V30 15933 H 1448.82 -3.83724 0.902741 0
M  V30 15934 H 1450.11 -5.03889 0.70524 0
M  V30 15935 H 1449.5 -5.08656 -2.47558 0
M  V30 15936 H 1448.06 -6.01874 -2.50182 0
M  V30 15937 N 1451.49 -0.619688 -1.44906 0
M  V30 15938 C 1452.74 -0.119633 -2.02146 0
M  V30 15939 C 1453.07 1.25432 -1.48651 0
M  V30 15940 O 1452.32 1.84372 -0.656155 0
M  V30 15941 C 1452.62 -0.0432891 -3.57374 0
M  V30 15942 C 1452.29 -1.35451 -4.30074 0
M  V30 15943 C 1450.95 -1.71365 -4.49653 0
M  V30 15944 C 1453.3 -2.22053 -4.71532 0
M  V30 15945 C 1450.63 -2.93611 -5.07946 0
M  V30 15946 C 1452.98 -3.43559 -5.31178 0
M  V30 15947 C 1451.65 -3.7971 -5.48977 0
M  V30 15948 H 1450.92 -0.0437769 -0.739706 0
M  V30 15949 H 1453.56 -0.803722 -1.73818 0
M  V30 15950 H 1451.87 0.72412 -3.8505 0
M  V30 15951 H 1453.57 0.359964 -3.99381 0
M  V30 15952 H 1450.16 -1.06499 -4.15158 0
M  V30 15953 H 1454.34 -1.95603 -4.56129 0
M  V30 15954 H 1449.6 -3.21712 -5.19915 0
M  V30 15955 H 1453.77 -4.10906 -5.62254 0
M  V30 15956 H 1451.4 -4.7452 -5.93915 0
M  V30 15957 N 1452.97 1.53444 -0.359552 0
M  V30 15958 C 1454.39 1.59598 -0.00824946 0
M  V30 15959 C 1454.59 1.37492 1.47303 0
M  V30 15960 O 1453.64 1.1771 2.23385 0
M  V30 15961 C 1454.96 2.9718 -0.45878 0
M  V30 15962 C 1456.51 3.1027 -0.412485 0
M  V30 15963 C 1456.98 4.50255 -0.838733 0
M  V30 15964 N 1458.47 4.56352 -0.793552 0
M  V30 15965 C 1459.21 5.62845 -1.09513 0
M  V30 15966 N 1458.7 6.77119 -1.46567 0
M  V30 15967 N 1460.5 5.52799 -1.01832 0
M  V30 15968 H 1452.65 1.66065 -1.32424 0
M  V30 15969 H 1454.91 0.778561 -0.540876 0
M  V30 15970 H 1454.62 3.18475 -1.4922 0
M  V30 15971 H 1454.49 3.7687 0.157741 0
M  V30 15972 H 1456.88 2.88689 0.611791 0
M  V30 15973 H 1456.96 2.32602 -1.06442 0
M  V30 15974 H 1456.6 4.72573 -1.8611 0
M  V30 15975 H 1456.53 5.26344 -0.164109 0
M  V30 15976 H 1459.02 3.74299 -0.52048 0
M  V30 15977 H 1459.34 7.54313 -1.68021 0
M  V30 15978 H 1457.68 6.78525 -1.50427 0
M  V30 15979 H 1460.87 4.62403 -0.728059 0
M  V30 15980 H 1461.04 6.35698 -1.25668 0
M  V30 15981 N 1454.45 0.0885642 1.57351 0
M  V30 15982 C 1455.7 -0.576675 1.94115 0
M  V30 15983 C 1456.03 -1.68595 0.969842 0
M  V30 15984 O 1455.28 -1.95697 -0.0116998 0
M  V30 15985 C 1455.58 -1.17764 3.37441 0
M  V30 15986 C 1455.25 -0.192813 4.50488 0
M  V30 15987 C 1453.91 0.0780722 4.81137 0
M  V30 15988 C 1456.26 0.479997 5.18985 0
M  V30 15989 C 1453.59 1.02857 5.77613 0
M  V30 15990 C 1455.94 1.41892 6.16481 0
M  V30 15991 C 1454.6 1.69811 6.45539 0
M  V30 15992 H 1453.87 -0.21102 0.710318 0
M  V30 15993 H 1456.52 0.163009 1.90805 0
M  V30 15994 H 1454.83 -1.99343 3.37298 0
M  V30 15995 H 1456.52 -1.69994 3.63185 0
M  V30 15996 H 1453.11 -0.41413 4.26595 0
M  V30 15997 H 1457.3 0.283854 4.95488 0
M  V30 15998 H 1452.55 1.25194 5.98445 0
M  V30 15999 H 1456.73 1.94612 6.68655 0
M  V30 16000 H 1454.35 2.43621 7.20106 0
M  V30 16001 N 1455.93 -1.56509 -0.185096 0
M  V30 16002 C 1457.21 -1.72055 -0.930398 0
M  V30 16003 C 1457.59 -0.646145 -2.00968 0
M  V30 16004 O 1456.93 0.34129 -2.25937 0
M  V30 16005 C 1457.14 -3.14752 -1.50771 0
M  V30 16006 C 1458.49 -3.75292 -1.98597 0
M  V30 16007 O 1459.52 -3.17944 -1.60593 0
M  V30 16008 O 1458.37 -4.7596 -2.68561 0
M  V30 16009 H 1455.47 -0.702118 -0.436989 0
M  V30 16010 H 1458.01 -1.68806 -0.174007 0
M  V30 16011 H 1456.79 -3.84426 -0.730236 0
M  V30 16012 H 1456.41 -3.22272 -2.32866 0
M  V30 16013 N 1457.41 0.45317 -1.50944 0
M  V30 16014 C 1458.65 1.20269 -1.64033 0
M  V30 16015 C 1459.01 1.89287 -0.344707 0
M  V30 16016 O 1458.3 1.79927 0.65855 0
M  V30 16017 C 1458.49 2.25747 -2.7708 0
M  V30 16018 C 1458.32 1.67079 -4.1751 0
M  V30 16019 C 1457.09 1.46264 -4.83668 0
M  V30 16020 C 1459.29 1.15577 -5.01145 0
M  V30 16021 N 1457.27 0.830278 -6.08259 0
M  V30 16022 C 1458.64 0.647721 -6.16607 0
M  V30 16023 C 1460.7 1.04601 -4.86788 0
M  V30 16024 C 1459.4 0.0407277 -7.19288 0
M  V30 16025 C 1461.43 0.452936 -5.89663 0
M  V30 16026 C 1460.79 -0.0446434 -7.04386 0
M  V30 16027 H 1456.89 0.428334 -0.654259 0
M  V30 16028 H 1459.47 0.501782 -1.88123 0
M  V30 16029 H 1457.64 2.93244 -2.54681 0
M  V30 16030 H 1459.38 2.92745 -2.79432 0
M  V30 16031 H 1456.13 1.71995 -4.41265 0
M  V30 16032 H 1456.56 0.531994 -6.74907 0
M  V30 16033 H 1461.2 1.41661 -3.98362 0
M  V30 16034 H 1458.92 -0.34203 -8.07376 0
M  V30 16035 H 1462.5 0.370136 -5.80621 0
M  V30 16036 H 1461.38 -0.496363 -7.82628 0
M  V30 16037 N 1458.88 1.40823 0.707568 0
M  V30 16038 C 1460.13 1.39535 1.46753 0
M  V30 16039 C 1460.46 0.000370511 1.945 0
M  V30 16040 O 1459.71 -0.985628 1.69068 0
M  V30 16041 C 1460.01 2.33829 2.70294 0
M  V30 16042 C 1459.68 3.8092 2.41269 0
M  V30 16043 C 1458.34 4.20993 2.33063 0
M  V30 16044 C 1460.69 4.73839 2.17086 0
M  V30 16045 C 1458.02 5.52009 1.98754 0
M  V30 16046 C 1460.37 6.05161 1.84289 0
M  V30 16047 C 1459.04 6.44268 1.74571 0
M  V30 16048 H 1458.31 0.510593 0.537006 0
M  V30 16049 H 1460.95 1.73536 0.809789 0
M  V30 16050 H 1459.26 1.9304 3.40944 0
M  V30 16051 H 1460.96 2.30111 3.28405 0
M  V30 16052 H 1457.55 3.49175 2.48545 0
M  V30 16053 H 1461.73 4.43691 2.22377 0
M  V30 16054 H 1456.99 5.81202 1.89774 0
M  V30 16055 H 1461.16 6.7667 1.64593 0
M  V30 16056 H 1458.79 7.45703 1.47753 0
M  V30 16057 N 1460.36 -0.94061 1.26453 0
M  V30 16058 C 1461.29 -2.05667 1.10559 0
M  V30 16059 C 1462.27 -1.70097 0.0106258 0
M  V30 16060 O 1463.46 -1.93338 0.182756 0
M  V30 16061 C 1460.59 -3.3936 0.7384 0
M  V30 16062 C 1459.54 -3.88993 1.78517 0
M  V30 16063 C 1458.87 -5.19343 1.27228 0
M  V30 16064 C 1460.17 -4.13812 3.1868 0
M  V30 16065 H 1461.86 -2.19221 2.03918 0
M  V30 16066 H 1459.41 -1.05339 0.98182 0
M  V30 16067 H 1461.36 -4.16902 0.61409 0
M  V30 16068 H 1460.09 -3.25783 -0.230887 0
M  V30 16069 H 1458.74 -3.13633 1.89816 0
M  V30 16070 H 1458.39 -5.02147 0.292816 0
M  V30 16071 H 1458.09 -5.53521 1.97201 0
M  V30 16072 H 1459.62 -5.99468 1.16065 0
M  V30 16073 H 1461.03 -4.81966 3.10455 0
M  V30 16074 H 1459.43 -4.59273 3.86249 0
M  V30 16075 H 1460.5 -3.19571 3.64695 0
M  V30 16076 N 1461.84 -1.08266 -1.14527 0
M  V30 16077 C 1462.79 -0.711332 -2.19565 0
M  V30 16078 C 1463.76 0.301774 -1.63336 0
M  V30 16079 O 1464.94 0.186109 -1.8989 0
M  V30 16080 C 1462.08 -0.125255 -3.44873 0
M  V30 16081 C 1461.2 -1.19096 -4.15259 0
M  V30 16082 C 1460.33 -0.568901 -5.28145 0
M  V30 16083 C 1459.37 -1.61675 -5.90362 0
M  V30 16084 N 1458.51 -1.01659 -6.94701 0
M  V30 16085 H 1463.35 -1.61137 -2.50677 0
M  V30 16086 H 1460.88 -0.805286 -1.231 0
M  V30 16087 H 1462.84 0.232247 -4.16553 0
M  V30 16088 H 1461.47 0.738101 -3.14248 0
M  V30 16089 H 1460.52 -1.66591 -3.41982 0
M  V30 16090 H 1461.84 -1.98508 -4.57598 0
M  V30 16091 H 1460.99 -0.159563 -6.0649 0
M  V30 16092 H 1459.73 0.256884 -4.87023 0
M  V30 16093 H 1458.73 -2.03576 -5.10722 0
M  V30 16094 H 1459.96 -2.44498 -6.33559 0
M  V30 16095 H 1457.9 -0.211872 -6.55658 0
M  V30 16096 H 1457.82 -1.74781 -7.35518 0
M  V30 16097 H 1459.09 -0.63306 -7.76925 0
M  V30 16098 N 1463.32 1.31536 -0.86811 0
M  V30 16099 C 1464.54 2.01487 -0.491705 0
M  V30 16100 C 1464.97 1.64744 0.907803 0
M  V30 16101 O 1464.33 0.855093 1.59868 0
M  V30 16102 C 1464.38 3.54621 -0.65395 0
M  V30 16103 O 1463.48 4.11252 0.307532 0
M  V30 16104 H 1462.82 0.634469 -0.195819 0
M  V30 16105 H 1465.35 1.67775 -1.17101 0
M  V30 16106 H 1465.36 4.04323 -0.546539 0
M  V30 16107 H 1464.04 3.80704 -1.67443 0
M  V30 16108 H 1462.61 3.72577 0.155233 0
M  V30 16109 N 1464.8 0.627364 1.44575 0
M  V30 16110 C 1466.21 0.292662 1.56894 0
M  V30 16111 C 1466.41 -1.20429 1.61552 0
M  V30 16112 O 1465.47 -1.98819 1.55651 0
M  V30 16113 C 1466.78 0.981267 2.84239 0
M  V30 16114 C 1468.33 0.959053 2.97945 0
M  V30 16115 C 1468.81 1.62805 4.28087 0
M  V30 16116 N 1470.3 1.59446 4.34892 0
M  V30 16117 C 1471.03 2.08107 5.34302 0
M  V30 16118 N 1470.53 2.64942 6.40139 0
M  V30 16119 N 1472.32 1.98758 5.25787 0
M  V30 16120 H 1464.47 1.5991 1.39795 0
M  V30 16121 H 1466.73 0.671019 0.669655 0
M  V30 16122 H 1466.44 2.0361 2.86768 0
M  V30 16123 H 1466.31 0.516703 3.73644 0
M  V30 16124 H 1468.7 -0.0872902 2.94971 0
M  V30 16125 H 1468.78 1.46207 2.09898 0
M  V30 16126 H 1468.43 2.67382 4.31821 0
M  V30 16127 H 1468.36 1.09989 5.14985 0
M  V30 16128 H 1470.85 1.17947 3.59022 0
M  V30 16129 H 1471.16 2.99814 7.12272 0
M  V30 16130 H 1469.51 2.68991 6.40835 0
M  V30 16131 H 1472.7 1.54081 4.42014 0
M  V30 16132 H 1472.87 2.36992 6.03107 0
M  V30 16133 N 1466.28 -1.53251 0.367684 0
M  V30 16134 C 1467.5 -2.05705 -0.222047 0
M  V30 16135 C 1467.92 -1.24104 -1.4228 0
M  V30 16136 O 1467.28 -0.282228 -1.80305 0
M  V30 16137 C 1467.33 -3.56257 -0.613475 0
M  V30 16138 O 1467.05 -4.34765 0.539558 0
M  V30 16139 C 1468.55 -4.24976 -1.26137 0
M  V30 16140 H 1465.77 -0.66989 -0.0385799 0
M  V30 16141 H 1468.31 -1.97602 0.526663 0
M  V30 16142 H 1466.47 -3.64503 -1.3121 0
M  V30 16143 H 1466.88 -5.24027 0.222699 0
M  V30 16144 H 1468.36 -5.31628 -1.4858 0
M  V30 16145 H 1468.83 -3.78828 -2.2223 0
M  V30 16146 H 1469.44 -4.20987 -0.604121 0
M  V30 16147 N 1467.75 -0.0969077 -1.57302 0
M  V30 16148 C 1468.72 0.846895 -2.1298 0
M  V30 16149 C 1469.72 1.20962 -1.05947 0
M  V30 16150 O 1470.91 1.13876 -1.31826 0
M  V30 16151 C 1468.04 2.14215 -2.65188 0
M  V30 16152 H 1469.23 0.363398 -2.9769 0
M  V30 16153 H 1466.78 0.152107 -1.55558 0
M  V30 16154 H 1467.52 2.67046 -1.84002 0
M  V30 16155 H 1467.3 1.89176 -3.43445 0
M  V30 16156 H 1468.79 2.81728 -3.08252 0
M  V30 16157 N 1469.23 1.56605 0.176793 0
M  V30 16158 C 1470.16 1.91079 1.24756 0
M  V30 16159 C 1471.14 0.772947 1.43053 0
M  V30 16160 O 1472.33 1.02573 1.58149 0
M  V30 16161 C 1469.45 2.15695 2.61139 0
M  V30 16162 C 1468.5 3.38387 2.59609 0
M  V30 16163 S 1469.33 4.92933 2.09231 0
M  V30 16164 C 1470.49 5.20637 3.47402 0
M  V30 16165 H 1470.72 2.81602 0.953291 0
M  V30 16166 H 1468.25 1.49622 0.381117 0
M  V30 16167 H 1470.21 2.30558 3.39637 0
M  V30 16168 H 1468.87 1.25889 2.87769 0
M  V30 16169 H 1468.07 3.52794 3.59934 0
M  V30 16170 H 1467.67 3.22611 1.89203 0
M  V30 16171 H 1469.96 5.12279 4.4337 0
M  V30 16172 H 1470.9 6.22292 3.37874 0
M  V30 16173 H 1471.31 4.4822 3.4316 0
M  V30 16174 N 1470.71 -0.445159 1.51182 0
M  V30 16175 C 1471.62 -1.5651 1.74762 0
M  V30 16176 C 1472.64 -1.62134 0.631542 0
M  V30 16177 O 1473.81 -1.79522 0.912898 0
M  V30 16178 C 1470.88 -2.92552 1.86049 0
M  V30 16179 C 1469.94 -2.97108 3.0988 0
M  V30 16180 C 1469.17 -4.2666 3.2062 0
M  V30 16181 O 1469.39 -5.18608 2.37491 0
M  V30 16182 O 1468.33 -4.3734 4.13542 0
M  V30 16183 H 1472.15 -1.3953 2.6975 0
M  V30 16184 H 1469.74 -0.627363 1.3559 0
M  V30 16185 H 1471.62 -3.73304 1.95504 0
M  V30 16186 H 1470.3 -3.09676 0.94248 0
M  V30 16187 H 1469.2 -2.15338 3.05909 0
M  V30 16188 H 1470.54 -2.84927 4.01345 0
M  V30 16189 N 1472.19 -1.41197 -0.700089 0
M  V30 16190 C 1473.12 -1.45456 -1.8266 0
M  V30 16191 C 1474.1 -0.313719 -1.67182 0
M  V30 16192 O 1475.28 -0.524528 -1.86982 0
M  V30 16193 C 1472.41 -1.33161 -3.20758 0
M  V30 16194 C 1471.37 -2.4501 -3.50933 0
M  V30 16195 C 1470.69 -2.17782 -4.88339 0
M  V30 16196 C 1471.99 -3.87352 -3.50365 0
M  V30 16197 H 1473.69 -2.39735 -1.79353 0
M  V30 16198 H 1471.23 -1.1539 -0.861465 0
M  V30 16199 H 1473.19 -1.34754 -3.99274 0
M  V30 16200 H 1471.91 -0.353646 -3.2468 0
M  V30 16201 H 1470.57 -2.42692 -2.74766 0
M  V30 16202 H 1470.22 -1.1834 -4.88881 0
M  V30 16203 H 1469.92 -2.92728 -5.09494 0
M  V30 16204 H 1471.44 -2.21083 -5.6917 0
M  V30 16205 H 1472.86 -3.9141 -4.18893 0
M  V30 16206 H 1471.25 -4.61944 -3.83051 0
M  V30 16207 H 1472.32 -4.15827 -2.4943 0
M  V30 16208 N 1473.67 0.933891 -1.2695 0
M  V30 16209 C 1474.6 2.03768 -1.04934 0
M  V30 16210 C 1475.61 1.62798 -0.00740752 0
M  V30 16211 O 1476.8 1.76765 -0.248289 0
M  V30 16212 C 1473.9 3.34097 -0.568515 0
M  V30 16213 C 1473.07 4.03794 -1.68133 0
M  V30 16214 C 1472.13 5.12397 -1.19731 0
M  V30 16215 O 1471.16 5.36701 -1.89579 0
M  V30 16216 N 1472.36 5.80479 -0.0496327 0
M  V30 16217 H 1475.12 2.23219 -1.99984 0
M  V30 16218 H 1472.69 1.10386 -1.18433 0
M  V30 16219 H 1474.68 4.04053 -0.228736 0
M  V30 16220 H 1473.25 3.11265 0.288587 0
M  V30 16221 H 1472.47 3.27655 -2.1917 0
M  V30 16222 H 1473.76 4.4711 -2.42837 0
M  V30 16223 H 1473.15 5.63179 0.533509 0
M  V30 16224 H 1471.71 6.5139 0.231014 0
M  V30 16225 N 1475.14 1.08871 1.13951 0
M  V30 16226 C 1476.56 0.817282 1.37086 0
M  V30 16227 C 1476.76 -0.571159 1.93236 0
M  V30 16228 O 1475.82 -1.32708 2.14813 0
M  V30 16229 C 1477.13 1.90386 2.32752 0
M  V30 16230 C 1478.68 1.93043 2.46381 0
M  V30 16231 C 1479.15 3.00828 3.4535 0
M  V30 16232 N 1480.64 3.0003 3.52897 0
M  V30 16233 C 1481.38 3.80073 4.29339 0
M  V30 16234 N 1480.87 4.70008 5.08984 0
M  V30 16235 N 1482.67 3.68355 4.24583 0
M  V30 16236 H 1474.82 1.98393 0.758537 0
M  V30 16237 H 1477.08 0.861229 0.396219 0
M  V30 16238 H 1476.79 2.90233 1.9864 0
M  V30 16239 H 1476.66 1.77722 3.32708 0
M  V30 16240 H 1479.05 0.938382 2.79783 0
M  V30 16241 H 1479.13 2.09785 1.4637 0
M  V30 16242 H 1478.77 4.00242 3.1268 0
M  V30 16243 H 1478.7 2.8133 4.45153 0
M  V30 16244 H 1481.19 2.3485 2.96064 0
M  V30 16245 H 1481.51 5.27678 5.64602 0
M  V30 16246 H 1479.85 4.74047 5.08236 0
M  V30 16247 H 1483.04 2.9746 3.61435 0
M  V30 16248 H 1483.22 4.30974 4.83906 0
M  V30 16249 N 1476.62 -1.31073 0.875073 0
M  V30 16250 C 1478.04 -1.49162 0.567697 0
M  V30 16251 C 1478.24 -1.80435 -0.896969 0
M  V30 16252 O 1477.29 -1.88604 -1.67883 0
M  V30 16253 C 1478.61 -2.6219 1.47231 0
M  V30 16254 C 1480.15 -2.76072 1.47489 0
M  V30 16255 C 1480.63 -3.92202 2.36519 0
M  V30 16256 N 1482.12 -3.99497 2.34428 0
M  V30 16257 C 1482.86 -4.88639 3.00033 0
M  V30 16258 N 1482.35 -5.82647 3.74826 0
M  V30 16259 N 1484.14 -4.81926 2.89315 0
M  V30 16260 H 1476.3 -1.09045 1.82272 0
M  V30 16261 H 1478.56 -0.539291 0.77966 0
M  V30 16262 H 1478.26 -2.45872 2.51475 0
M  V30 16263 H 1478.14 -3.58446 1.17459 0
M  V30 16264 H 1480.53 -2.91801 0.440008 0
M  V30 16265 H 1480.61 -1.80468 1.81287 0
M  V30 16266 H 1480.25 -3.77231 3.40087 0
M  V30 16267 H 1480.18 -4.87125 2.00043 0
M  V30 16268 H 1482.67 -3.32241 1.80067 0
M  V30 16269 H 1482.98 -6.47406 4.22001 0
M  V30 16270 H 1481.33 -5.82609 3.78934 0
M  V30 16271 H 1484.52 -4.07462 2.30418 0
M  V30 16272 H 1484.69 -5.51192 3.40722 0
M  V30 16273 N 1478.1 -0.635022 -1.4424 0
M  V30 16274 C 1479.34 -0.144429 -2.03889 0
M  V30 16275 C 1479.7 1.21217 -1.48897 0
M  V30 16276 O 1480.91 1.79511 -2.00073 0
M  V30 16277 C 1479.18 -0.134776 -3.57146 0
M  V30 16278 S 1480.74 0.290628 -4.37836 0
M  V30 16279 H 1477.55 -0.0629965 -0.708204 0
M  V30 16280 H 1480.16 -0.839284 -1.76568 0
M  V30 16281 H 1478.86 -1.12516 -3.94675 0
M  V30 16282 H 1478.39 0.581202 -3.89083 0
M  V30 16283 H 1480.41 1.53392 -4.71896 0
M  V30 16284 N 1479.58 1.53054 -0.375806 0
M  V30 16285 C 1480.53 2.27576 0.480838 0
M  V30 16286 C 1481.52 1.30948 1.07466 0
M  V30 16287 O 1482.73 1.48538 1.01669 0
M  V30 16288 H 1479.1 0.731641 0.173799 0
M  V30 16289 H 1481.07 2.97919 -0.169327 0
M  V30 16290 C 1479.82 3.08533 1.60321 0
M  V30 16291 H 1479.14 3.82735 1.15558 0
M  V30 16292 H 1480.58 3.63837 2.17712 0
M  V30 16293 C 1479.04 2.20004 2.55147 0
M  V30 16294 O 1479.57 1.81771 3.58221 0
M  V30 16295 N 1477.78 1.84433 2.24573 0
M  V30 16296 H 1477.33 2.15723 1.40788 0
M  V30 16297 H 1477.28 1.25488 2.88271 0
M  V30 16298 N 1481.06 0.105248 1.57248 0
M  V30 16299 C 1482.28 -0.564157 1.9906 0
M  V30 16300 C 1482.7 -1.61092 0.984624 0
M  V30 16301 O 1482.06 -1.82484 -0.0244031 0
M  V30 16302 C 1482.11 -1.20272 3.40906 0
M  V30 16303 O 1481.83 -0.197815 4.37653 0
M  V30 16304 C 1483.33 -1.95677 3.97776 0
M  V30 16305 H 1480.55 -0.150468 0.653912 0
M  V30 16306 H 1483.09 0.187532 2.03638 0
M  V30 16307 H 1481.25 -1.90528 3.3731 0
M  V30 16308 H 1481.66 -0.659998 5.20331 0
M  V30 16309 H 1483.14 -2.35702 4.99148 0
M  V30 16310 H 1483.61 -2.82661 3.36154 0
M  V30 16311 H 1484.22 -1.30215 4.04876 0
M  V30 16312 N 1482.53 -1.56697 -0.168486 0
M  V30 16313 C 1483.46 -1.99659 -1.21073 0
M  V30 16314 C 1484.45 -0.872625 -1.46011 0
M  V30 16315 O 1485.63 -1.13891 -1.57297 0
M  V30 16316 C 1482.76 -2.35889 -2.54899 0
M  V30 16317 C 1481.71 -3.51272 -2.44524 0
M  V30 16318 C 1481.04 -3.73253 -3.82866 0
M  V30 16319 C 1482.34 -4.84631 -1.94756 0
M  V30 16320 H 1484.03 -2.86974 -0.853593 0
M  V30 16321 H 1481.58 -1.38065 -0.409165 0
M  V30 16322 H 1483.53 -2.64542 -3.28017 0
M  V30 16323 H 1482.26 -1.45486 -2.92406 0
M  V30 16324 H 1480.92 -3.22751 -1.7386 0
M  V30 16325 H 1480.56 -2.80136 -4.17772 0
M  V30 16326 H 1480.26 -4.5089 -3.76792 0
M  V30 16327 H 1481.79 -4.04309 -4.57566 0
M  V30 16328 H 1483.2 -5.12142 -2.5765 0
M  V30 16329 H 1481.6 -5.65925 -1.99623 0
M  V30 16330 H 1482.67 -4.76436 -0.902021 0
M  V30 16331 N 1484.01 0.437135 -1.51416 0
M  V30 16332 C 1485.26 1.1835 -1.63328 0
M  V30 16333 C 1485.57 1.92343 -0.355455 0
M  V30 16334 O 1486.78 2.69183 -0.353951 0
M  V30 16335 C 1485.24 2.15235 -2.88447 0
M  V30 16336 C 1484.84 1.46889 -4.23235 0
M  V30 16337 C 1486.59 2.90303 -3.09716 0
M  V30 16338 C 1484.5 2.42259 -5.39504 0
M  V30 16339 H 1483.43 0.445467 -0.608338 0
M  V30 16340 H 1486.08 0.450528 -1.77883 0
M  V30 16341 H 1484.46 2.91968 -2.67527 0
M  V30 16342 H 1485.63 0.757128 -4.54537 0
M  V30 16343 H 1483.95 0.839725 -4.07845 0
M  V30 16344 H 1486.54 3.61747 -3.93756 0
M  V30 16345 H 1486.89 3.5166 -2.22802 0
M  V30 16346 H 1487.42 2.20677 -3.30978 0
M  V30 16347 H 1484.16 1.85591 -6.28678 0
M  V30 16348 H 1483.68 3.11488 -5.12577 0
M  V30 16349 H 1485.36 3.03384 -5.7146 0
M  V30 16350 N 1485.49 1.41566 0.692592 0
M  V30 16351 C 1486.72 1.44445 1.48132 0
M  V30 16352 C 1487.13 0.0505867 1.88732 0
M  V30 16353 O 1486.49 -0.930779 1.5698 0
M  V30 16354 C 1486.54 2.35582 2.74196 0
M  V30 16355 O 1486.26 3.69545 2.35305 0
M  V30 16356 C 1487.76 2.47296 3.67912 0
M  V30 16357 H 1484.98 0.491877 0.456396 0
M  V30 16358 H 1487.53 1.85884 0.852499 0
M  V30 16359 H 1485.68 1.97445 3.33308 0
M  V30 16360 H 1486.1 4.1818 3.16584 0
M  V30 16361 H 1487.57 3.15225 4.53141 0
M  V30 16362 H 1488.05 1.50517 4.12603 0
M  V30 16363 H 1488.65 2.86082 3.14702 0
M  V30 16364 N 1486.97 -0.927146 1.27443 0
M  V30 16365 C 1487.9 -2.04483 1.12735 0
M  V30 16366 C 1488.88 -1.70076 0.0286662 0
M  V30 16367 O 1490.06 -1.93133 0.203252 0
M  V30 16368 C 1487.19 -3.38557 0.774352 0
M  V30 16369 C 1486.15 -3.87078 1.82632 0
M  V30 16370 C 1485.47 -5.17964 1.32729 0
M  V30 16371 C 1486.77 -4.10409 3.23051 0
M  V30 16372 H 1488.47 -2.17046 2.06231 0
M  V30 16373 H 1486.01 -1.04292 0.992937 0
M  V30 16374 H 1487.97 -4.16227 0.658273 0
M  V30 16375 H 1486.69 -3.26009 -0.196321 0
M  V30 16376 H 1485.35 -3.11602 1.93132 0
M  V30 16377 H 1485 -5.01808 0.346059 0
M  V30 16378 H 1484.7 -5.51398 2.03061 0
M  V30 16379 H 1486.22 -5.98203 1.22416 0
M  V30 16380 H 1487.64 -4.78646 3.15549 0
M  V30 16381 H 1486.03 -4.5515 3.91099 0
M  V30 16382 H 1487.1 -3.15685 3.68064 0
M  V30 16383 N 1488.45 -1.09474 -1.13372 0
M  V30 16384 C 1489.7 -0.825968 -1.84013 0
M  V30 16385 C 1490.01 0.650623 -1.84462 0
M  V30 16386 O 1491.21 1.03495 -2.51 0
M  V30 16387 C 1489.67 -1.42769 -3.30371 0
M  V30 16388 C 1489.28 -2.93686 -3.38308 0
M  V30 16389 C 1491.02 -1.23788 -4.0605 0
M  V30 16390 C 1488.93 -3.46942 -4.78942 0
M  V30 16391 H 1487.86 -0.305322 -0.689416 0
M  V30 16392 H 1490.51 -1.31751 -1.27726 0
M  V30 16393 H 1488.89 -0.86384 -3.86463 0
M  V30 16394 H 1490.07 -3.56302 -2.92208 0
M  V30 16395 H 1488.38 -3.11706 -2.76094 0
M  V30 16396 H 1490.98 -1.61031 -5.09876 0
M  V30 16397 H 1491.32 -0.178578 -4.15917 0
M  V30 16398 H 1491.85 -1.76927 -3.56289 0
M  V30 16399 H 1488.59 -4.52495 -4.74267 0
M  V30 16400 H 1488.11 -2.8909 -5.25535 0
M  V30 16401 H 1489.79 -3.44176 -5.47861 0
M  V30 16402 N 1489.92 1.30607 -0.882012 0
M  V30 16403 C 1490.83 2.31967 -0.350503 0
M  V30 16404 C 1491.85 1.6522 0.54575 0
M  V30 16405 O 1493.03 1.96544 0.439581 0
M  V30 16406 C 1490.09 3.44037 0.428924 0
M  V30 16407 C 1489.15 4.26417 -0.496727 0
M  V30 16408 C 1488.39 5.33135 0.245597 0
M  V30 16409 O 1488.61 5.51077 1.47209 0
M  V30 16410 O 1487.54 6.00551 -0.402767 0
M  V30 16411 H 1491.37 2.79374 -1.19095 0
M  V30 16412 H 1488.95 1.34723 -0.645754 0
M  V30 16413 H 1490.84 4.12314 0.870346 0
M  V30 16414 H 1489.51 2.9877 1.24573 0
M  V30 16415 H 1488.42 3.60848 -0.986899 0
M  V30 16416 H 1489.75 4.7528 -1.27945 0
M  V30 16417 N 1491.4 0.642663 1.43901 0
M  V30 16418 C 1492.82 0.309286 1.56575 0
M  V30 16419 C 1493.02 -1.18709 1.6282 0
M  V30 16420 O 1492.07 -1.97157 1.57751 0
M  V30 16421 C 1493.39 1.01136 2.83182 0
M  V30 16422 C 1494.94 0.9906 2.96911 0
M  V30 16423 C 1495.41 1.67336 4.26336 0
M  V30 16424 N 1496.9 1.6405 4.33177 0
M  V30 16425 C 1497.64 2.13762 5.32065 0
M  V30 16426 N 1497.13 2.71716 6.37293 0
M  V30 16427 N 1498.93 2.04323 5.23649 0
M  V30 16428 H 1491.08 1.61384 1.38091 0
M  V30 16429 H 1493.34 0.678084 0.6625 0
M  V30 16430 H 1493.05 2.0664 2.84592 0
M  V30 16431 H 1492.92 0.556304 3.73075 0
M  V30 16432 H 1495.31 -0.0559997 2.95047 0
M  V30 16433 H 1495.39 1.48425 2.08335 0
M  V30 16434 H 1495.03 2.71947 4.2896 0
M  V30 16435 H 1494.96 1.15445 5.1379 0
M  V30 16436 H 1497.45 1.21749 3.57751 0
M  V30 16437 H 1497.77 3.07352 7.09052 0
M  V30 16438 H 1496.11 2.75772 6.37946 0
M  V30 16439 H 1499.3 1.5876 4.40355 0
M  V30 16440 H 1499.47 2.43376 6.0056 0
M  V30 16441 N 1492.88 -1.52852 0.383918 0
M  V30 16442 C 1493.79 -2.3002 -0.461298 0
M  V30 16443 C 1494.81 -1.36717 -1.07631 0
M  V30 16444 O 1495.98 -1.69784 -1.08329 0
M  V30 16445 C 1493.05 -3.08804 -1.57609 0
M  V30 16446 C 1492.11 -4.17806 -0.986737 0
M  V30 16447 C 1491.34 -4.92825 -2.04841 0
M  V30 16448 O 1491.57 -4.67879 -3.26259 0
M  V30 16449 O 1490.5 -5.78306 -1.66871 0
M  V30 16450 H 1494.33 -3.03239 0.167189 0
M  V30 16451 H 1491.91 -1.48667 0.147781 0
M  V30 16452 H 1493.79 -3.57943 -2.22384 0
M  V30 16453 H 1492.47 -2.38404 -2.18964 0
M  V30 16454 H 1491.37 -3.72876 -0.302396 0
M  V30 16455 H 1492.71 -4.90426 -0.417481 0
M  V30 16456 N 1494.36 -0.113586 -1.5719 0
M  V30 16457 C 1495.31 0.855985 -2.16277 0
M  V30 16458 C 1496.3 1.2792 -1.11053 0
M  V30 16459 O 1497.51 1.25158 -1.29366 0
M  V30 16460 H 1493.88 0.294134 -0.692091 0
M  V30 16461 H 1495.85 0.333109 -2.96535 0
M  V30 16462 C 1494.6 2.09832 -2.77247 0
M  V30 16463 H 1493.93 1.78158 -3.5791 0
M  V30 16464 H 1495.37 2.7569 -3.22135 0
M  V30 16465 C 1493.82 2.88453 -1.74059 0
M  V30 16466 O 1494.35 3.83648 -1.19068 0
M  V30 16467 N 1492.56 2.52342 -1.44124 0
M  V30 16468 H 1492.11 1.74998 -1.89033 0
M  V30 16469 H 1492.07 3.05244 -0.753234 0
M  V30 16470 N 1495.84 1.56784 0.160173 0
M  V30 16471 C 1496.77 1.92391 1.22723 0
M  V30 16472 C 1497.75 0.788076 1.42226 0
M  V30 16473 O 1498.93 1.04245 1.57052 0
M  V30 16474 C 1496.06 2.18452 2.58836 0
M  V30 16475 C 1495.11 3.41121 2.56005 0
M  V30 16476 S 1495.94 4.95124 2.03991 0
M  V30 16477 C 1497.09 5.24292 3.4186 0
M  V30 16478 H 1497.33 2.82597 0.92337 0
M  V30 16479 H 1494.86 1.50018 0.365226 0
M  V30 16480 H 1496.82 2.34147 3.37172 0
M  V30 16481 H 1495.48 1.28934 2.86417 0
M  V30 16482 H 1494.67 3.56592 3.56172 0
M  V30 16483 H 1494.27 3.246 1.85771 0
M  V30 16484 H 1496.57 5.16953 4.37911 0
M  V30 16485 H 1497.51 6.2584 3.31255 0
M  V30 16486 H 1497.92 4.51834 3.38387 0
M  V30 16487 N 1497.32 -0.429099 1.51646 0
M  V30 16488 C 1498.23 -1.54648 1.76412 0
M  V30 16489 C 1499.24 -1.61455 0.648703 0
M  V30 16490 O 1500.42 -1.78544 0.931888 0
M  V30 16491 C 1497.48 -2.90562 1.89142 0
M  V30 16492 C 1496.54 -2.93804 3.13014 0
M  V30 16493 C 1495.78 -4.23235 3.25127 0
M  V30 16494 O 1496 -5.1606 2.42979 0
M  V30 16495 O 1494.93 -4.32929 4.18158 0
M  V30 16496 H 1498.76 -1.36661 2.71215 0
M  V30 16497 H 1496.34 -0.612946 1.36247 0
M  V30 16498 H 1498.23 -3.7121 1.99453 0
M  V30 16499 H 1496.9 -3.08659 0.975272 0
M  V30 16500 H 1495.81 -2.12082 3.08175 0
M  V30 16501 H 1497.14 -2.80654 4.04344 0
M  V30 16502 N 1498.79 -1.41931 -0.685074 0
M  V30 16503 C 1499.72 -1.47385 -1.81107 0
M  V30 16504 C 1500.7 -0.331433 -1.6684 0
M  V30 16505 O 1501.89 -0.544331 -1.86415 0
M  V30 16506 C 1499.02 -1.36555 -3.19327 0
M  V30 16507 C 1497.97 -2.48718 -3.48315 0
M  V30 16508 C 1497.3 -2.2295 -4.86002 0
M  V30 16509 C 1498.6 -3.91047 -3.46237 0
M  V30 16510 H 1500.29 -2.41624 -1.768 0
M  V30 16511 H 1497.84 -1.16297 -0.849178 0
M  V30 16512 H 1499.79 -1.38981 -3.97822 0
M  V30 16513 H 1498.52 -0.388063 -3.24286 0
M  V30 16514 H 1497.18 -2.45592 -2.72176 0
M  V30 16515 H 1496.82 -1.23518 -4.87598 0
M  V30 16516 H 1496.52 -2.98116 -5.0636 0
M  V30 16517 H 1498.05 -2.27108 -5.66793 0
M  V30 16518 H 1499.46 -3.95831 -4.14718 0
M  V30 16519 H 1497.86 -4.65981 -3.7813 0
M  V30 16520 H 1498.93 -4.1845 -2.45006 0
M  V30 16521 N 1500.27 0.920374 -1.27933 0
M  V30 16522 C 1501.18 2.05525 -1.13123 0
M  V30 16523 C 1502.2 1.73899 -0.059421 0
M  V30 16524 O 1503.37 1.99617 -0.267386 0
M  V30 16525 C 1500.44 3.37637 -0.787551 0
M  V30 16526 C 1499.5 3.82914 -1.94101 0
M  V30 16527 C 1498.73 5.08721 -1.61364 0
M  V30 16528 O 1498.96 5.6798 -0.524918 0
M  V30 16529 O 1497.89 5.4955 -2.45517 0
M  V30 16530 H 1501.72 2.20935 -2.08378 0
M  V30 16531 H 1499.3 1.04071 -1.07189 0
M  V30 16532 H 1501.18 4.16968 -0.609544 0
M  V30 16533 H 1499.86 3.23417 0.135407 0
M  V30 16534 H 1498.76 3.04438 -2.17413 0
M  V30 16535 H 1500.1 4.01687 -2.84444 0
M  V30 16536 N 1501.75 1.10074 1.1279 0
M  V30 16537 C 1502.66 0.758458 2.22001 0
M  V30 16538 C 1503.68 -0.242438 1.72303 0
M  V30 16539 O 1504.85 -0.0821223 2.01233 0
M  V30 16540 C 1501.92 0.191326 3.46172 0
M  V30 16541 C 1500.98 1.24902 4.10729 0
M  V30 16542 C 1500.21 0.708857 5.28972 0
M  V30 16543 O 1500.43 -0.465993 5.68493 0
M  V30 16544 O 1499.37 1.46703 5.83748 0
M  V30 16545 H 1503.19 1.66997 2.53665 0
M  V30 16546 H 1500.78 0.875604 1.21052 0
M  V30 16547 H 1502.66 -0.121292 4.21225 0
M  V30 16548 H 1501.34 -0.693094 3.16193 0
M  V30 16549 H 1500.24 1.61444 3.37471 0
M  V30 16550 H 1501.58 2.10632 4.44854 0
M  V30 16551 N 1503.23 -1.30138 0.888926 0
M  V30 16552 C 1504.17 -2.28023 0.356923 0
M  V30 16553 C 1505.14 -1.56551 -0.555066 0
M  V30 16554 O 1506.33 -1.84595 -0.482633 0
M  V30 16555 C 1503.47 -3.42546 -0.419056 0
M  V30 16556 C 1502.58 -4.28827 0.5226 0
M  V30 16557 C 1501.72 -5.30517 -0.269366 0
M  V30 16558 C 1500.76 -6.08449 0.667507 0
M  V30 16559 N 1499.89 -7.02043 -0.08938 0
M  V30 16560 H 1504.73 -2.72912 1.19678 0
M  V30 16561 H 1502.27 -1.34239 0.60152 0
M  V30 16562 H 1504.23 -4.07707 -0.884911 0
M  V30 16563 H 1502.86 -2.98716 -1.22346 0
M  V30 16564 H 1501.91 -3.63938 1.10695 0
M  V30 16565 H 1503.22 -4.83136 1.24018 0
M  V30 16566 H 1502.38 -6.01444 -0.796901 0
M  V30 16567 H 1501.12 -4.76911 -1.02014 0
M  V30 16568 H 1500.12 -5.36396 1.20664 0
M  V30 16569 H 1501.35 -6.64143 1.41744 0
M  V30 16570 H 1499.29 -6.50822 -0.822622 0
M  V30 16571 H 1499.21 -7.53859 0.568499 0
M  V30 16572 H 1500.48 -7.77206 -0.597529 0
M  V30 16573 N 1504.71 -0.650285 -1.43559 0
M  V30 16574 C 1505.62 0.0438076 -2.34559 0
M  V30 16575 C 1506.63 0.815316 -1.53716 0
M  V30 16576 O 1507.81 0.76323 -1.86378 0
M  V30 16577 C 1504.87 1.00028 -3.31957 0
M  V30 16578 C 1503.93 0.226027 -4.28705 0
M  V30 16579 C 1503.17 1.13694 -5.21449 0
M  V30 16580 O 1503.39 2.37614 -5.18551 0
M  V30 16581 O 1502.32 0.610924 -5.98792 0
M  V30 16582 H 1506.15 -0.705152 -2.954 0
M  V30 16583 H 1503.73 -0.410471 -1.43651 0
M  V30 16584 H 1505.62 1.55004 -3.91857 0
M  V30 16585 H 1504.29 1.72952 -2.73623 0
M  V30 16586 H 1503.2 -0.367244 -3.72293 0
M  V30 16587 H 1504.53 -0.463582 -4.90012 0
M  V30 16588 N 1506.18 1.52647 -0.392018 0
M  V30 16589 C 1507.13 2.26532 0.441819 0
M  V30 16590 C 1508.1 1.2825 1.05552 0
M  V30 16591 O 1509.29 1.57083 1.08303 0
M  V30 16592 C 1506.43 3.0774 1.56174 0
M  V30 16593 C 1505.54 4.20955 0.970632 0
M  V30 16594 C 1504.67 4.89553 2.06183 0
M  V30 16595 C 1503.71 5.94756 1.44676 0
M  V30 16596 N 1502.85 6.5694 2.47738 0
M  V30 16597 H 1507.69 2.97363 -0.194699 0
M  V30 16598 H 1505.23 1.46704 -0.107848 0
M  V30 16599 H 1507.18 3.53116 2.22183 0
M  V30 16600 H 1505.81 2.39112 2.16853 0
M  V30 16601 H 1504.87 3.79874 0.200067 0
M  V30 16602 H 1506.18 4.96474 0.481181 0
M  V30 16603 H 1505.33 5.38247 2.79956 0
M  V30 16604 H 1504.07 4.13564 2.58488 0
M  V30 16605 H 1503.08 5.45399 0.694288 0
M  V30 16606 H 1504.3 6.72679 0.931617 0
M  V30 16607 H 1502.25 5.8379 2.99208 0
M  V30 16608 H 1502.16 7.2808 2.03556 0
M  V30 16609 H 1503.43 7.10277 3.21133 0
M  V30 16610 N 1507.66 0.121921 1.57128 0
M  V30 16611 C 1508.63 -0.812905 2.143 0
M  V30 16612 C 1509.63 -1.19261 1.07858 0
M  V30 16613 O 1510.82 -1.11764 1.33621 0
M  V30 16614 C 1507.95 -2.09969 2.68562 0
M  V30 16615 H 1509.14 -0.315992 2.98231 0
M  V30 16616 H 1506.69 -0.12734 1.5578 0
M  V30 16617 H 1507.43 -2.64085 1.88228 0
M  V30 16618 H 1507.21 -1.83688 3.46412 0
M  V30 16619 H 1508.7 -2.76788 3.12695 0
M  V30 16620 N 1509.14 -1.56867 -0.151857 0
M  V30 16621 C 1510.05 -2.01157 -1.20718 0
M  V30 16622 C 1511.07 -0.926166 -1.47303 0
M  V30 16623 O 1512.24 -1.23528 -1.59069 0
M  V30 16624 C 1509.31 -2.37915 -2.52185 0
M  V30 16625 C 1508.37 -3.60381 -2.3329 0
M  V30 16626 C 1507.6 -3.95376 -3.58488 0
M  V30 16627 O 1507.82 -3.31093 -4.64471 0
M  V30 16628 O 1506.76 -4.88645 -3.5144 0
M  V30 16629 H 1510.58 -2.91234 -0.861175 0
M  V30 16630 H 1508.17 -1.44993 -0.360213 0
M  V30 16631 H 1510.05 -2.6244 -3.29702 0
M  V30 16632 H 1508.73 -1.50995 -2.86325 0
M  V30 16633 H 1507.63 -3.4105 -1.5374 0
M  V30 16634 H 1508.97 -4.47903 -2.04067 0
M  V30 16635 N 1510.62 0.421051 -1.51871 0
M  V30 16636 C 1511.57 1.5122 -1.74359 0
M  V30 16637 C 1512.54 1.55432 -0.585667 0
M  V30 16638 O 1513.72 1.7219 -0.821912 0
M  V30 16639 C 1510.86 2.88787 -1.88935 0
M  V30 16640 C 1509.97 2.93977 -3.16546 0
M  V30 16641 C 1509.11 4.22768 -3.21622 0
M  V30 16642 C 1508.15 4.21888 -4.43483 0
M  V30 16643 N 1507.28 5.4223 -4.46017 0
M  V30 16644 H 1512.12 1.31348 -2.67492 0
M  V30 16645 H 1509.66 0.637779 -1.32555 0
M  V30 16646 H 1511.62 3.68629 -1.95368 0
M  V30 16647 H 1510.25 3.07181 -0.991942 0
M  V30 16648 H 1509.3 2.06699 -3.19343 0
M  V30 16649 H 1510.61 2.8919 -4.06412 0
M  V30 16650 H 1509.77 5.10995 -3.27061 0
M  V30 16651 H 1508.51 4.30234 -2.29674 0
M  V30 16652 H 1507.51 3.32052 -4.38202 0
M  V30 16653 H 1508.74 4.16072 -5.36713 0
M  V30 16654 H 1506.68 5.50386 -3.56947 0
M  V30 16655 H 1506.6 5.39389 -5.29713 0
M  V30 16656 H 1507.87 6.32443 -4.55671 0
M  V30 16657 N 1512.1 1.42293 0.677538 0
M  V30 16658 C 1513.04 1.45556 1.79114 0
M  V30 16659 C 1514.01 0.307826 1.63223 0
M  V30 16660 O 1515.2 0.511504 1.83816 0
M  V30 16661 C 1512.34 1.36104 3.17127 0
M  V30 16662 C 1511.45 2.60891 3.44325 0
M  V30 16663 C 1510.59 2.43601 4.72051 0
M  V30 16664 C 1509.63 3.63775 4.92274 0
M  V30 16665 N 1508.76 3.45444 6.11239 0
M  V30 16666 H 1513.6 2.40723 1.7566 0
M  V30 16667 H 1511.14 1.19517 0.857565 0
M  V30 16668 H 1513.1 1.28622 3.96878 0
M  V30 16669 H 1511.73 0.445342 3.19713 0
M  V30 16670 H 1510.78 2.78751 2.58848 0
M  V30 16671 H 1512.09 3.50229 3.55163 0
M  V30 16672 H 1511.25 2.33689 5.59888 0
M  V30 16673 H 1509.98 1.51748 4.63491 0
M  V30 16674 H 1508.99 3.74122 4.0288 0
M  V30 16675 H 1510.21 4.56605 5.02681 0
M  V30 16676 H 1508.16 2.56306 6.03857 0
M  V30 16677 H 1508.08 4.28368 6.22926 0
M  V30 16678 H 1509.35 3.39339 7.01762 0
M  V30 16679 N 1513.57 -0.913576 1.28419 0
M  V30 16680 C 1514.52 -2.01603 1.12361 0
M  V30 16681 C 1515.49 -1.66087 0.0206953 0
M  V30 16682 O 1516.68 -1.89895 0.185659 0
M  V30 16683 C 1513.82 -3.35897 0.791655 0
M  V30 16684 C 1512.93 -3.84281 1.97363 0
M  V30 16685 C 1512.06 -5.07087 1.58228 0
M  V30 16686 C 1511.1 -5.47804 2.73089 0
M  V30 16687 N 1510.24 -6.618 2.34446 0
M  V30 16688 H 1515.08 -2.1467 2.0669 0
M  V30 16689 H 1512.62 -1.05147 1.02871 0
M  V30 16690 H 1514.58 -4.13149 0.579943 0
M  V30 16691 H 1513.21 -3.22596 -0.114699 0
M  V30 16692 H 1512.26 -3.03184 2.29746 0
M  V30 16693 H 1513.57 -4.10417 2.83477 0
M  V30 16694 H 1512.72 -5.91883 1.33264 0
M  V30 16695 H 1511.46 -4.82759 0.692429 0
M  V30 16696 H 1510.47 -4.61549 2.98751 0
M  V30 16697 H 1511.69 -5.74119 3.62717 0
M  V30 16698 H 1509.64 -6.39103 1.4793 0
M  V30 16699 H 1509.56 -6.87663 3.14096 0
M  V30 16700 H 1510.82 -7.49901 2.12766 0
M  V30 16701 N 1515.05 -1.1067 -1.12204 0
M  V30 16702 C 1516.47 -0.838988 -1.35769 0
M  V30 16703 C 1516.67 0.540345 -1.9412 0
M  V30 16704 O 1515.72 1.29274 -2.16897 0
M  V30 16705 C 1517.04 -1.94065 -2.29694 0
M  V30 16706 C 1518.59 -1.96938 -2.43279 0
M  V30 16707 C 1519.06 -3.06284 -3.4052 0
M  V30 16708 N 1520.55 -3.05607 -3.48079 0
M  V30 16709 C 1521.29 -3.86855 -4.23238 0
M  V30 16710 N 1520.78 -4.78046 -5.01442 0
M  V30 16711 N 1522.58 -3.75064 -4.18669 0
M  V30 16712 H 1514.73 -1.99575 -0.726878 0
M  V30 16713 H 1516.99 -0.867423 -0.382467 0
M  V30 16714 H 1516.7 -2.93356 -1.93997 0
M  V30 16715 H 1516.57 -1.82992 -3.29839 0
M  V30 16716 H 1518.96 -0.982774 -2.78254 0
M  V30 16717 H 1519.04 -2.12087 -1.43014 0
M  V30 16718 H 1518.68 -4.05165 -3.06273 0
M  V30 16719 H 1518.61 -2.88376 -4.40621 0
M  V30 16720 H 1521.1 -2.39531 -2.9229 0
M  V30 16721 H 1521.42 -5.36594 -5.56136 0
M  V30 16722 H 1519.76 -4.82073 -5.0063 0
M  V30 16723 H 1522.95 -3.03172 -3.56657 0
M  V30 16724 H 1523.12 -4.38618 -4.76988 0
M  V30 16725 N 1516.53 1.29665 -0.895815 0
M  V30 16726 C 1517.78 1.9533 -0.518725 0
M  V30 16727 C 1518.1 1.70995 0.937322 0
M  V30 16728 O 1517.37 1.03955 1.66043 0
M  V30 16729 H 1515.95 0.722736 -0.188841 0
M  V30 16730 H 1518.61 1.57991 -1.14126 0
M  V30 16731 H 1517.71 3.04193 -0.698057 0
M  V30 16732 N 1518.01 0.657889 1.43212 0
M  V30 16733 C 1519.42 0.252443 1.84985 0
M  V30 16734 C 1519.77 -1.20196 1.55072 0
M  V30 16735 O 1518.9 -1.91803 1.00202 0
M  V30 16736 C 1519.49 0.451388 3.3578 0
M  V30 16737 C 1518.05 0.100219 3.76267 0
M  V30 16738 C 1517.2 0.752009 2.66908 0
M  V30 16739 H 1520.15 0.861239 1.33298 0
M  V30 16740 H 1520.17 -0.30169 3.79302 0
M  V30 16741 H 1519.68 1.51001 3.5752 0
M  V30 16742 H 1517.78 -0.955618 3.60137 0
M  V30 16743 H 1517.89 0.528942 4.76171 0
M  V30 16744 H 1516.26 0.184823 2.54029 0
M  V30 16745 H 1517.04 1.81375 2.91476 0
M  V30 16746 N 1519.49 -1.52437 0.400108 0
M  V30 16747 C 1520.43 -2.26763 -0.429799 0
M  V30 16748 C 1521.4 -1.28808 -1.0487 0
M  V30 16749 O 1522.59 -1.57655 -1.07468 0
M  V30 16750 C 1519.73 -3.08564 -1.54539 0
M  V30 16751 C 1518.84 -4.21463 -0.948294 0
M  V30 16752 C 1517.98 -4.9064 -2.03584 0
M  V30 16753 C 1517.02 -5.95515 -1.4152 0
M  V30 16754 N 1516.15 -6.58245 -2.4425 0
M  V30 16755 H 1520.99 -2.97256 0.210467 0
M  V30 16756 H 1518.53 -1.46645 0.115627 0
M  V30 16757 H 1520.49 -3.54289 -2.20307 0
M  V30 16758 H 1519.12 -2.40259 -2.15582 0
M  V30 16759 H 1518.17 -3.79974 -0.179918 0
M  V30 16760 H 1519.48 -4.96722 -0.454845 0
M  V30 16761 H 1518.64 -5.39724 -2.77097 0
M  V30 16762 H 1517.37 -4.14929 -2.56291 0
M  V30 16763 H 1516.38 -5.45759 -0.665354 0
M  V30 16764 H 1517.6 -6.73164 -0.89593 0
M  V30 16765 H 1515.55 -5.85369 -2.96107 0
M  V30 16766 H 1515.47 -7.2915 -1.99692 0
M  V30 16767 H 1516.74 -7.1197 -3.17362 0
M  V30 16768 N 1520.96 -0.130252 -1.57061 0
M  V30 16769 C 1522.38 0.393318 -1.8251 0
M  V30 16770 C 1522.73 1.65862 -1.04806 0
M  V30 16771 O 1521.85 2.14473 -0.288118 0
M  V30 16772 C 1522.45 0.720366 -3.31053 0
M  V30 16773 C 1521.01 1.18852 -3.57143 0
M  V30 16774 C 1520.15 0.202964 -2.76556 0
M  V30 16775 H 1523.1 -0.355217 -1.54674 0
M  V30 16776 H 1523.12 1.57671 -3.46295 0
M  V30 16777 H 1522.64 -0.200719 -3.87581 0
M  V30 16778 H 1520.74 2.12612 -3.05985 0
M  V30 16779 H 1520.85 1.12607 -4.65678 0
M  V30 16780 H 1519.21 0.692264 -2.45112 0
M  V30 16781 H 1520 -0.711417 -3.35848 0
M  V30 16782 N 1522.44 1.56945 0.143535 0
M  V30 16783 C 1523.67 1.88067 0.874385 0
M  V30 16784 C 1524.09 0.719645 1.73789 0
M  V30 16785 O 1523.45 -0.330654 1.78259 0
M  V30 16786 C 1523.5 3.17795 1.70408 0
M  V30 16787 O 1522.6 3.01973 2.80867 0
M  V30 16788 H 1521.94 0.617808 0.24333 0
M  V30 16789 H 1524.47 2.04165 0.133309 0
M  V30 16790 H 1524.48 3.49903 2.09838 0
M  V30 16791 H 1523.16 4.019 1.07001 0
M  V30 16792 H 1521.74 2.8128 2.44818 0
M  V30 16793 N 1523.92 -0.412991 1.52093 0
M  V30 16794 C 1525.15 -1.18212 1.69805 0
M  V30 16795 C 1525.56 -1.84386 0.405844 0
M  V30 16796 O 1524.92 -1.71725 -0.617809 0
M  V30 16797 C 1524.97 -2.24811 2.83094 0
M  V30 16798 O 1524.69 -1.61338 4.0731 0
M  V30 16799 C 1526.19 -3.14633 3.12283 0
M  V30 16800 H 1523.41 -0.355371 0.569168 0
M  V30 16801 H 1525.96 -0.486392 1.98632 0
M  V30 16802 H 1524.11 -2.90058 2.56797 0
M  V30 16803 H 1524.53 -2.31979 4.7041 0
M  V30 16804 H 1526 -3.85511 3.95076 0
M  V30 16805 H 1526.48 -3.76785 2.25677 0
M  V30 16806 H 1527.08 -2.55059 3.40331 0
M  V30 16807 N 1525.4 -1.4265 -0.669982 0
M  V30 16808 C 1526.33 -1.42457 -1.79551 0
M  V30 16809 C 1527.34 -0.322966 -1.59564 0
M  V30 16810 O 1528.53 -0.586359 -1.68594 0
M  V30 16811 C 1525.63 -1.20561 -3.16731 0
M  V30 16812 C 1524.81 -2.43246 -3.63525 0
M  V30 16813 C 1523.87 -2.16823 -4.79452 0
M  V30 16814 O 1522.89 -2.90058 -4.8975 0
M  V30 16815 N 1524.09 -1.17436 -5.68497 0
M  V30 16816 H 1526.86 -2.39474 -1.80201 0
M  V30 16817 H 1524.42 -1.37591 -0.853244 0
M  V30 16818 H 1526.41 -1.00794 -3.91947 0
M  V30 16819 H 1524.98 -0.320497 -3.10953 0
M  V30 16820 H 1524.2 -2.78549 -2.78934 0
M  V30 16821 H 1525.49 -3.24931 -3.91532 0
M  V30 16822 H 1524.89 -0.568736 -5.62834 0
M  V30 16823 H 1523.44 -1.03655 -6.43505 0
M  V30 16824 N 1526.88 0.906753 -1.28902 0
M  V30 16825 C 1527.82 2.01004 -1.13429 0
M  V30 16826 C 1528.79 1.66074 -0.0295031 0
M  V30 16827 O 1529.98 1.89793 -0.195727 0
M  V30 16828 C 1527.12 3.35473 -0.809457 0
M  V30 16829 C 1526.23 3.83229 -1.99398 0
M  V30 16830 C 1525.37 5.06241 -1.60915 0
M  V30 16831 C 1524.41 5.46348 -2.7599 0
M  V30 16832 N 1523.54 6.60548 -2.37952 0
M  V30 16833 H 1528.38 2.13571 -2.07825 0
M  V30 16834 H 1525.92 1.046 -1.03428 0
M  V30 16835 H 1527.88 4.12836 -0.601845 0
M  V30 16836 H 1526.51 3.22652 0.0975896 0
M  V30 16837 H 1525.56 3.01962 -2.31351 0
M  V30 16838 H 1526.87 4.08908 -2.85649 0
M  V30 16839 H 1526.03 5.91168 -1.36401 0
M  V30 16840 H 1524.77 4.82385 -0.718021 0
M  V30 16841 H 1523.77 4.59959 -3.01195 0
M  V30 16842 H 1525 5.72188 -3.65757 0
M  V30 16843 H 1522.94 6.38309 -1.51318 0
M  V30 16844 H 1522.86 6.85987 -3.17738 0
M  V30 16845 H 1524.13 7.48762 -2.1674 0
M  V30 16846 N 1528.36 1.11264 1.11616 0
M  V30 16847 C 1529.77 0.846176 1.35322 0
M  V30 16848 C 1529.97 -0.530043 1.94404 0
M  V30 16849 O 1529.03 -1.28122 2.1758 0
M  V30 16850 C 1530.34 1.9528 2.28662 0
M  V30 16851 C 1531.89 1.98225 2.42231 0
M  V30 16852 C 1532.36 3.08086 3.38891 0
M  V30 16853 N 1533.85 3.07448 3.46453 0
M  V30 16854 C 1534.59 3.89094 4.21181 0
M  V30 16855 N 1534.09 4.80698 4.989 0
M  V30 16856 N 1535.88 3.77279 4.16674 0
M  V30 16857 H 1528.03 1.99958 0.716284 0
M  V30 16858 H 1530.29 0.869439 0.377862 0
M  V30 16859 H 1530 2.94381 1.92439 0
M  V30 16860 H 1529.87 1.84739 3.28864 0
M  V30 16861 H 1532.26 0.997517 2.77729 0
M  V30 16862 H 1532.34 2.12842 1.41887 0
M  V30 16863 H 1531.98 4.06784 3.0412 0
M  V30 16864 H 1531.91 2.90709 4.39085 0
M  V30 16865 H 1534.41 2.41077 2.91016 0
M  V30 16866 H 1534.72 5.39535 5.53282 0
M  V30 16867 H 1533.06 4.84721 4.98067 0
M  V30 16868 H 1536.25 3.05059 3.55044 0
M  V30 16869 H 1536.43 4.41142 4.74655 0
M  V30 16870 N 1529.83 -1.29188 0.902679 0
M  V30 16871 C 1530.78 -2.27632 0.381088 0
M  V30 16872 C 1531.75 -1.57131 -0.538431 0
M  V30 16873 O 1532.94 -1.85096 -0.463027 0
M  V30 16874 C 1530.08 -3.42971 -0.382701 0
M  V30 16875 C 1529.19 -4.28249 0.568054 0
M  V30 16876 C 1528.32 -5.30772 -0.213082 0
M  V30 16877 C 1527.36 -6.07707 0.732004 0
M  V30 16878 N 1526.5 -7.02098 -0.0149139 0
M  V30 16879 H 1531.34 -2.71628 1.22566 0
M  V30 16880 H 1528.88 -1.33594 0.615724 0
M  V30 16881 H 1530.83 -4.08623 -0.841619 0
M  V30 16882 H 1529.46 -2.99997 -1.19171 0
M  V30 16883 H 1528.52 -3.62743 1.14549 0
M  V30 16884 H 1529.83 -4.81794 1.29136 0
M  V30 16885 H 1528.98 -6.02255 -0.733065 0
M  V30 16886 H 1527.72 -4.77966 -0.969504 0
M  V30 16887 H 1526.73 -5.35086 1.26346 0
M  V30 16888 H 1527.95 -6.62602 1.4878 0
M  V30 16889 H 1525.9 -6.51658 -0.753548 0
M  V30 16890 H 1525.81 -7.53214 0.648423 0
M  V30 16891 H 1527.08 -7.77796 -0.515062 0
M  V30 16892 N 1531.31 -0.665475 -1.42861 0
M  V30 16893 C 1532.24 0.0686045 -2.28097 0
M  V30 16894 C 1533.22 0.81788 -1.40533 0
M  V30 16895 O 1534.41 0.81493 -1.69974 0
M  V30 16896 C 1531.53 1.10416 -3.20197 0
M  V30 16897 C 1530.58 0.451532 -4.24103 0
M  V30 16898 S 1531.41 -0.783994 -5.2973 0
M  V30 16899 C 1532.57 0.250718 -6.25398 0
M  V30 16900 H 1532.8 -0.654401 -2.90008 0
M  V30 16901 H 1530.33 -0.454708 -1.47553 0
M  V30 16902 H 1532.29 1.69657 -3.738 0
M  V30 16903 H 1530.95 1.79955 -2.57439 0
M  V30 16904 H 1530.15 1.23259 -4.88695 0
M  V30 16905 H 1529.75 -0.0670626 -3.7394 0
M  V30 16906 H 1532.04 1.11326 -6.68291 0
M  V30 16907 H 1532.98 -0.360495 -7.07182 0
M  V30 16908 H 1533.39 0.592017 -5.61387 0
M  V30 16909 N 1532.79 1.52222 -0.408187 0
M  V30 16910 C 1534.07 1.94285 0.22641 0
M  V30 16911 C 1534.45 1.34501 1.62705 0
M  V30 16912 O 1533.79 0.52045 2.22494 0
M  V30 16913 C 1534 3.48217 0.233695 0
M  V30 16914 C 1535.35 4.22171 0.453504 0
M  V30 16915 O 1536.38 3.54821 0.313093 0
M  V30 16916 O 1535.24 5.416 0.730183 0
M  V30 16917 H 1532.33 0.814078 0.145625 0
M  V30 16918 H 1534.88 1.63232 -0.464062 0
M  V30 16919 H 1533.65 3.84111 -0.746644 0
M  V30 16920 H 1533.27 3.85629 0.968305 0
M  V30 16921 N 1534.27 0.138579 1.5699 0
M  V30 16922 C 1535.52 -0.513611 1.95465 0
M  V30 16923 C 1535.84 -1.65952 1.02396 0
M  V30 16924 O 1535.11 -1.9572 0.0839001 0
M  V30 16925 H 1533.69 -0.192729 0.72171 0
M  V30 16926 H 1536.35 0.212107 1.93742 0
M  V30 16927 H 1535.44 -0.895313 2.98983 0
M  V30 16928 N 1535.75 -1.57019 -0.13521 0
M  V30 16929 C 1536.71 -1.98229 -1.15056 0
M  V30 16930 C 1537.71 -0.870295 -1.35213 0
M  V30 16931 O 1538.9 -1.13668 -1.32005 0
M  V30 16932 C 1536.03 -2.30844 -2.50846 0
M  V30 16933 H 1537.22 -2.89123 -0.796744 0
M  V30 16934 H 1534.78 -1.51636 -0.378962 0
M  V30 16935 H 1535.51 -1.42779 -2.91178 0
M  V30 16936 H 1535.3 -3.11931 -2.37574 0
M  V30 16937 H 1536.79 -2.63524 -3.23952 0
M  V30 16938 N 1537.22 0.404919 -1.52309 0
M  V30 16939 C 1538.64 0.983553 -1.58692 0
M  V30 16940 C 1538.99 1.9143 -0.429993 0
M  V30 16941 O 1538.11 2.11689 0.449088 0
M  V30 16942 C 1538.71 1.79059 -2.87617 0
M  V30 16943 C 1537.27 2.31918 -2.96464 0
M  V30 16944 C 1536.41 1.12018 -2.53667 0
M  V30 16945 H 1539.36 0.185007 -1.57618 0
M  V30 16946 H 1539.38 2.64836 -2.73207 0
M  V30 16947 H 1538.9 1.11291 -3.71801 0
M  V30 16948 H 1537 3.03044 -2.16783 0
M  V30 16949 H 1537.11 2.62495 -4.00791 0
M  V30 16950 H 1535.47 1.47542 -2.07614 0
M  V30 16951 H 1536.26 0.458111 -3.4023 0
M  V30 16952 N 1538.7 1.43003 0.662408 0
M  V30 16953 C 1539.98 1.34613 1.41911 0
M  V30 16954 C 1540.36 -0.0105336 2.11097 0
M  V30 16955 O 1539.71 -1.02667 2.04137 0
M  V30 16956 C 1539.92 2.52297 2.41137 0
M  V30 16957 C 1541.27 2.94972 3.05412 0
M  V30 16958 O 1542.29 2.52277 2.51465 0
M  V30 16959 O 1541.15 3.68906 4.03201 0
M  V30 16960 H 1538.24 0.531508 0.633583 0
M  V30 16961 H 1540.79 1.55035 0.690088 0
M  V30 16962 H 1539.56 3.42685 1.88898 0
M  V30 16963 H 1539.18 2.33926 3.21503 0
M  V30 16964 N 1540.18 -0.899904 1.29381 0
M  V30 16965 C 1541.43 -1.64712 1.17109 0
M  V30 16966 C 1541.75 -1.93011 -0.277772 0
M  V30 16967 O 1541.02 -1.55604 -1.19013 0
M  V30 16968 H 1539.6 -0.610532 0.430418 0
M  V30 16969 H 1542.26 -1.07905 1.62304 0
M  V30 16970 H 1541.36 -2.60362 1.72098 0
M  V30 16971 N 1541.66 -1.11854 -1.11024 0
M  V30 16972 C 1543.07 -0.853341 -1.34871 0
M  V30 16973 C 1543.27 0.519725 -1.94682 0
M  V30 16974 O 1542.33 1.26966 -2.18256 0
M  V30 16975 C 1543.64 -1.9649 -2.27623 0
M  V30 16976 C 1545.19 -1.99507 -2.41176 0
M  V30 16977 C 1545.67 -3.09879 -3.37253 0
M  V30 16978 N 1547.16 -3.09281 -3.44818 0
M  V30 16979 C 1547.89 -3.91322 -4.19111 0
M  V30 16980 N 1547.39 -4.83337 -4.96344 0
M  V30 16981 N 1549.18 -3.79483 -4.14667 0
M  V30 16982 H 1541.33 -2.00335 -0.70567 0
M  V30 16983 H 1543.6 -0.871431 -0.373245 0
M  V30 16984 H 1543.3 -2.95397 -1.90875 0
M  V30 16985 H 1543.18 -1.86481 -3.27879 0
M  V30 16986 H 1545.56 -1.01223 -2.77196 0
M  V30 16987 H 1545.64 -2.13592 -1.40756 0
M  V30 16988 H 1545.29 -4.08391 -3.01959 0
M  V30 16989 H 1545.22 -2.93033 -4.37537 0
M  V30 16990 H 1547.71 -2.42617 -2.89733 0
M  V30 16991 H 1548.02 -5.42462 -5.50413 0
M  V30 16992 H 1546.37 -4.87356 -4.95489 0
M  V30 16993 H 1549.56 -3.06938 -3.53421 0
M  V30 16994 H 1549.73 -4.43653 -4.72309 0
M  V30 16995 N 1543.14 1.28707 -0.909517 0
M  V30 16996 C 1544.38 1.94768 -0.539413 0
M  V30 16997 C 1544.71 1.7198 0.919133 0
M  V30 16998 O 1543.98 1.0571 1.64931 0
M  V30 16999 H 1542.56 0.720693 -0.196496 0
M  V30 17000 H 1545.22 1.56772 -1.15795 0
M  V30 17001 H 1544.31 3.03436 -0.730281 0
M  V30 17002 N 1544.61 0.673042 1.42506 0
M  V30 17003 C 1546.03 0.342429 1.55883 0
M  V30 17004 C 1546.23 -1.15229 1.65302 0
M  V30 17005 O 1545.29 -1.93767 1.61897 0
M  V30 17006 C 1546.6 1.0712 2.80973 0
M  V30 17007 C 1548.15 1.05336 2.94743 0
M  V30 17008 C 1548.62 1.76342 4.22691 0
M  V30 17009 N 1550.11 1.73201 4.29599 0
M  V30 17010 C 1550.85 2.25 5.27411 0
M  V30 17011 N 1550.34 2.85173 6.31386 0
M  V30 17012 N 1552.14 2.15385 5.19197 0
M  V30 17013 H 1544.29 1.64277 1.34636 0
M  V30 17014 H 1546.55 0.691984 0.647968 0
M  V30 17015 H 1546.26 2.1263 2.80145 0
M  V30 17016 H 1546.13 0.635313 3.71811 0
M  V30 17017 H 1548.52 0.00659669 2.95099 0
M  V30 17018 H 1548.6 1.52811 2.0514 0
M  V30 17019 H 1548.24 2.80985 4.23096 0
M  V30 17020 H 1548.17 1.26317 5.11225 0
M  V30 17021 H 1550.66 1.2931 3.55088 0
M  V30 17022 H 1550.98 3.22323 7.02373 0
M  V30 17023 H 1549.32 2.89242 6.31953 0
M  V30 17024 H 1552.51 1.68065 4.36889 0
M  V30 17025 H 1552.69 2.5606 5.95262 0
M  V30 17026 N 1546.09 -1.52004 0.416254 0
M  V30 17027 C 1547.04 -2.27206 -0.405723 0
M  V30 17028 C 1548.01 -1.29913 -1.03498 0
M  V30 17029 O 1549.19 -1.58786 -1.0579 0
M  V30 17030 C 1546.33 -3.10186 -1.51258 0
M  V30 17031 C 1545.45 -4.22445 -0.903539 0
M  V30 17032 C 1544.58 -4.92771 -1.98368 0
M  V30 17033 C 1543.62 -5.96983 -1.35196 0
M  V30 17034 N 1542.76 -6.60798 -2.37255 0
M  V30 17035 H 1547.6 -2.97016 0.241983 0
M  V30 17036 H 1545.14 -1.46514 0.131174 0
M  V30 17037 H 1547.09 -3.56606 -2.16537 0
M  V30 17038 H 1545.72 -2.42532 -2.13021 0
M  V30 17039 H 1544.78 -3.80144 -0.139607 0
M  V30 17040 H 1546.09 -4.97176 -0.402136 0
M  V30 17041 H 1545.24 -5.42633 -2.71357 0
M  V30 17042 H 1543.98 -4.17624 -2.51876 0
M  V30 17043 H 1542.99 -5.46434 -0.607431 0
M  V30 17044 H 1544.21 -6.74076 -0.824482 0
M  V30 17045 H 1542.16 -5.88476 -2.89882 0
M  V30 17046 H 1542.07 -7.31227 -1.91947 0
M  V30 17047 H 1543.34 -7.15296 -3.09792 0
M  V30 17048 N 1547.57 -0.146903 -1.56914 0
M  V30 17049 C 1548.52 0.792821 -2.16756 0
M  V30 17050 C 1549.49 1.2442 -1.1004 0
M  V30 17051 O 1550.67 1.31674 -1.38081 0
M  V30 17052 C 1547.81 2.02659 -2.79327 0
M  V30 17053 C 1546.93 1.62102 -4.00433 0
M  V30 17054 C 1546.06 2.80658 -4.51004 0
M  V30 17055 C 1545.1 2.36474 -5.64576 0
M  V30 17056 N 1544.24 3.48038 -6.09766 0
M  V30 17057 H 1549.08 0.275708 -2.96722 0
M  V30 17058 H 1546.61 0.124374 -1.46573 0
M  V30 17059 H 1548.57 2.74986 -3.13749 0
M  V30 17060 H 1547.2 2.51781 -2.02005 0
M  V30 17061 H 1546.25 0.795407 -3.71991 0
M  V30 17062 H 1547.57 1.25652 -4.82714 0
M  V30 17063 H 1546.72 3.61175 -4.87481 0
M  V30 17064 H 1545.46 3.20353 -3.6773 0
M  V30 17065 H 1544.46 1.54397 -5.27676 0
M  V30 17066 H 1545.69 1.97865 -6.49635 0
M  V30 17067 H 1543.63 3.87354 -5.29427 0
M  V30 17068 H 1543.55 3.15602 -6.86972 0
M  V30 17069 H 1544.82 4.28912 -6.50887 0
M  V30 17070 N 1549.05 1.57088 0.126881 0
M  V30 17071 C 1550 1.99764 1.15599 0
M  V30 17072 C 1550.97 0.868468 1.41587 0
M  V30 17073 O 1552.15 1.13209 1.53585 0
M  V30 17074 C 1549.29 2.40038 2.47943 0
M  V30 17075 C 1548.4 3.66336 2.28958 0
M  V30 17076 C 1547.54 3.95626 3.54477 0
M  V30 17077 C 1546.58 5.15131 3.30616 0
M  V30 17078 N 1545.71 5.4033 4.48317 0
M  V30 17079 H 1550.55 2.87473 0.785078 0
M  V30 17080 H 1548.09 1.42209 0.376169 0
M  V30 17081 H 1550.05 2.61423 3.25136 0
M  V30 17082 H 1548.68 1.55382 2.82942 0
M  V30 17083 H 1547.73 3.52612 1.4272 0
M  V30 17084 H 1549.04 4.53684 2.07298 0
M  V30 17085 H 1548.2 4.17617 4.40092 0
M  V30 17086 H 1546.94 3.06738 3.79161 0
M  V30 17087 H 1545.94 4.92992 2.43391 0
M  V30 17088 H 1547.17 6.05588 3.0731 0
M  V30 17089 H 1545.11 4.54399 4.73136 0
M  V30 17090 H 1545.03 6.21985 4.29733 0
M  V30 17091 H 1546.3 5.66835 5.35088 0
M  V30 17092 N 1550.53 -0.396836 1.52522 0
M  V30 17093 C 1551.46 -1.49088 1.79708 0
M  V30 17094 C 1552.44 -1.57246 0.648678 0
M  V30 17095 O 1553.62 -1.72321 0.895495 0
M  V30 17096 C 1550.75 -2.86785 1.95887 0
M  V30 17097 C 1549.71 -2.93472 3.11542 0
M  V30 17098 C 1549.03 -4.33542 3.12963 0
M  V30 17099 C 1550.33 -2.63832 4.50766 0
M  V30 17100 H 1552.03 -1.26588 2.71322 0
M  V30 17101 H 1549.57 -0.607535 1.30557 0
M  V30 17102 H 1551.53 -3.63319 2.13489 0
M  V30 17103 H 1550.25 -3.10605 1.00955 0
M  V30 17104 H 1548.91 -2.19384 2.93711 0
M  V30 17105 H 1548.56 -4.5439 2.15729 0
M  V30 17106 H 1548.26 -4.38938 3.9065 0
M  V30 17107 H 1549.78 -5.11993 3.32709 0
M  V30 17108 H 1551.19 -3.30086 4.68739 0
M  V30 17109 H 1549.59 -2.80589 5.30462 0
M  V30 17110 H 1550.66 -1.59209 4.58018 0
M  V30 17111 N 1552.01 -1.43353 -0.654814 0
M  V30 17112 C 1552.95 -1.48387 -1.76776 0
M  V30 17113 C 1553.92 -0.333755 -1.62712 0
M  V30 17114 O 1555.11 -0.540683 -1.82979 0
M  V30 17115 C 1552.25 -1.41132 -3.14922 0
M  V30 17116 C 1551.36 -2.66336 -3.40131 0
M  V30 17117 C 1550.5 -2.5108 -4.68116 0
M  V30 17118 C 1549.53 -3.71561 -4.86425 0
M  V30 17119 N 1548.67 -3.55125 -6.05666 0
M  V30 17120 H 1553.51 -2.43487 -1.71808 0
M  V30 17121 H 1551.05 -1.20866 -0.838442 0
M  V30 17122 H 1553.01 -1.3492 -3.94782 0
M  V30 17123 H 1551.64 -0.496149 -3.18964 0
M  V30 17124 H 1550.69 -2.82834 -2.5438 0
M  V30 17125 H 1552 -3.55835 -3.49546 0
M  V30 17126 H 1551.15 -2.42567 -5.56099 0
M  V30 17127 H 1549.89 -1.59103 -4.61018 0
M  V30 17128 H 1548.9 -3.80484 -3.96877 0
M  V30 17129 H 1550.12 -4.64545 -4.95353 0
M  V30 17130 H 1548.07 -2.65881 -5.99703 0
M  V30 17131 H 1547.99 -4.38224 -6.16032 0
M  V30 17132 H 1549.25 -3.5046 -6.96274 0
M  V30 17133 N 1553.48 0.89303 -1.29857 0
M  V30 17134 C 1554.41 2.01422 -1.18117 0
M  V30 17135 C 1555.39 1.6994 -0.0737487 0
M  V30 17136 O 1556.58 1.92527 -0.254387 0
M  V30 17137 C 1553.71 3.36385 -0.863842 0
M  V30 17138 C 1552.66 3.821 -1.92831 0
M  V30 17139 C 1551.99 5.14263 -1.46415 0
M  V30 17140 C 1553.29 4.01699 -3.33819 0
M  V30 17141 H 1554.98 2.11502 -2.11913 0
M  V30 17142 H 1552.53 1.01622 -1.02024 0
M  V30 17143 H 1554.48 4.14335 -0.768397 0
M  V30 17144 H 1553.21 3.26415 0.109816 0
M  V30 17145 H 1551.87 3.06372 -2.01325 0
M  V30 17146 H 1551.51 5.00714 -0.478983 0
M  V30 17147 H 1551.21 5.45821 -2.17609 0
M  V30 17148 H 1552.74 5.94747 -1.38234 0
M  V30 17149 H 1554.15 4.70111 -3.28129 0
M  V30 17150 H 1552.55 4.44621 -4.03029 0
M  V30 17151 H 1553.62 3.05816 -3.76304 0
M  V30 17152 O 1555 1.24491 1.02879 0
M  V30 17153 H 1555.69 1.02261 1.64507 0
M  V30 END ATOM
M  V30 BEGIN BOND
M  V30 END BOND
M  V30 END CTAB
M  END
$$$$
