drugbank_target|P42338 Phosphatidylinositol 4,5-bisphosphate 3-kinase catalytic subunit beta isoform (DB00201; DB05241)
 OpenBabel12092120143D

  0  0  0     0  0            999 V3000
M  V30 BEGIN CTAB
M  V30 COUNTS 17353 17546 0 0 0
M  V30 BEGIN ATOM
M  V30 1 H -0.908 1.98254 -0.117106 0
M  V30 2 N 0 1.576 0 0
M  V30 3 C 0.933 2.03868 1.02534 0
M  V30 4 C 1.911 0.928543 1.3348 0
M  V30 5 O 3.095 1.19667 1.45644 0
M  V30 6 C 0.222 2.43627 2.35294 0
M  V30 7 C -0.732 3.65373 2.2001 0
M  V30 8 S 0.101 5.13292 1.52614 0
M  V30 9 C 1.257 5.56322 2.86805 0
M  V30 10 H 1.49 2.90518 0.631377 0
M  V30 11 H -0.977 1.52953 0.210867 0
M  V30 12 H 0.981 2.67203 3.11629 0
M  V30 13 H -0.358 1.57376 2.7183 0
M  V30 14 H -1.165 3.90944 3.18086 0
M  V30 15 H -1.563 3.418 1.51819 0
M  V30 16 H 0.729 5.58782 3.83104 0
M  V30 17 H 1.672 6.56266 2.65933 0
M  V30 18 H 2.08 4.83886 2.90714 0
M  V30 19 N 1.4781 -0.272755 1.55222 0
M  V30 20 C 2.7181 -1.01197 1.77591 0
M  V30 21 C 3.0821 -1.8349 0.565294 0
M  V30 22 O 4.2831 -2.60387 0.667242 0
M  V30 23 C 2.5541 -1.87096 3.04516 0
M  V30 24 S 4.1131 -2.67279 3.48004 0
M  V30 25 H 0.9311 -0.340836 0.62398 0
M  V30 26 H 3.5331 -0.282374 1.9345 0
M  V30 27 H 2.2371 -1.25565 3.90719 0
M  V30 28 H 1.7681 -2.64376 2.91323 0
M  V30 29 H 3.7831 -3.89593 3.07297 0
M  V30 30 N 2.9562 -1.48159 -0.537278 0
M  V30 31 C 4.2032 -1.55804 -1.29349 0
M  V30 32 C 4.5312 -0.228802 -1.9315 0
M  V30 33 O 3.7862 0.780242 -1.79473 0
M  V30 34 C 4.0852 -2.63956 -2.40961 0
M  V30 35 C 3.7512 -4.0662 -1.94861 0
M  V30 36 C 2.4132 -4.45452 -1.82006 0
M  V30 37 C 4.7652 -4.96055 -1.59933 0
M  V30 38 C 2.0932 -5.71531 -1.32547 0
M  V30 39 C 4.4452 -6.22617 -1.11939 0
M  V30 40 C 3.1092 -6.60312 -0.976951 0
M  V30 41 H 2.3792 -0.570129 -0.473322 0
M  V30 42 H 5.0262 -1.81845 -0.600372 0
M  V30 43 H 3.3312 -2.31747 -3.15912 0
M  V30 44 H 5.0282 -2.67089 -2.99107 0
M  V30 45 H 1.6182 -3.75949 -2.05815 0
M  V30 46 H 5.8022 -4.66738 -1.68728 0
M  V30 47 H 1.0582 -5.99468 -1.202 0
M  V30 48 H 5.2322 -6.91318 -0.839811 0
M  V30 49 H 2.8592 -7.57895 -0.591501 0
M  V30 50 N 4.4343 0.785586 -1.36625 0
M  V30 51 C 5.6593 1.57963 -1.34397 0
M  V30 52 C 6.0843 1.87964 0.071526 0
M  V30 53 O 5.4423 1.48182 1.0446 0
M  V30 54 C 5.4903 2.87511 -2.17646 0
M  V30 55 O 4.5943 3.81281 -1.57158 0
M  V30 56 H 3.9353 0.479014 -0.459828 0
M  V30 57 H 6.4653 0.973411 -1.79961 0
M  V30 58 H 6.4753 3.36745 -2.30362 0
M  V30 59 H 5.1503 2.65002 -3.20541 0
M  V30 60 H 3.7273 3.39885 -1.53403 0
M  V30 61 N 5.9124 1.20967 1.01018 0
M  V30 62 C 7.1594 1.02374 1.74716 0
M  V30 63 C 7.4874 -0.443375 1.89379 0
M  V30 64 O 6.7424 -1.34535 1.42123 0
M  V30 65 C 7.0414 1.65997 3.16512 0
M  V30 66 C 6.7074 3.15831 3.2181 0
M  V30 67 C 5.3694 3.56719 3.22963 0
M  V30 68 C 7.7214 4.11816 3.19464 0
M  V30 69 C 5.0494 4.92107 3.19449 0
M  V30 70 C 7.4014 5.47158 3.17491 0
M  V30 71 C 6.0654 5.87451 3.16951 0
M  V30 72 H 5.3354 0.374614 0.639332 0
M  V30 73 H 7.9824 1.50485 1.18434 0
M  V30 74 H 6.2874 1.10166 3.75993 0
M  V30 75 H 7.9844 1.49119 3.72242 0
M  V30 76 H 4.5744 2.83263 3.21652 0
M  V30 77 H 8.7584 3.81257 3.17737 0
M  V30 78 H 4.0144 5.22579 3.17366 0
M  V30 79 H 8.1884 6.21274 3.14629 0
M  V30 80 H 5.8154 6.92329 3.13983 0
M  V30 81 N 7.3905 -1.2043 1.01659 0
M  V30 82 C 8.6395 -1.89118 0.701237 0
M  V30 83 C 8.9525 -1.79705 -0.772358 0
M  V30 84 O 10.1585 -2.43528 -1.20026 0
M  V30 85 C 8.6145 -3.39168 1.20388 0
M  V30 86 C 8.2225 -3.57166 2.70438 0
M  V30 87 C 9.9665 -4.1341 0.963953 0
M  V30 88 C 7.8735 -5.01042 3.14183 0
M  V30 89 H 6.8035 -0.708267 0.2586 0
M  V30 90 H 9.4545 -1.36239 1.22927 0
M  V30 91 H 7.8365 -3.91369 0.603824 0
M  V30 92 H 9.0105 -3.15351 3.35992 0
M  V30 93 H 7.3255 -2.96294 2.92572 0
M  V30 94 H 9.9225 -5.19491 1.26621 0
M  V30 95 H 10.2655 -4.16181 -0.099578 0
M  V30 96 H 10.7985 -3.67309 1.52738 0
M  V30 97 H 7.5375 -5.03426 4.19812 0
M  V30 98 H 7.0575 -5.43668 2.53348 0
M  V30 99 H 8.7365 -5.69623 3.0682 0
M  V30 100 N 8.8686 -0.792821 -1.36206 0
M  V30 101 C 9.8016 -0.139422 -2.27774 0
M  V30 102 C 10.7796 0.68649 -1.47398 0
M  V30 103 O 11.9636 0.656738 -1.7669 0
M  V30 104 C 9.0906 0.807947 -3.28922 0
M  V30 105 C 8.1366 0.0633999 -4.26453 0
M  V30 106 S 8.9696 -1.26319 -5.20388 0
M  V30 107 C 10.1256 -0.31991 -6.25082 0
M  V30 108 H 10.3586 -0.915809 -2.82843 0
M  V30 109 H 7.8916 -0.587203 -1.42798 0
M  V30 110 H 9.8496 1.34908 -3.87699 0
M  V30 111 H 8.5106 1.55761 -2.72759 0
M  V30 112 H 7.7036 0.782386 -4.9789 0
M  V30 113 H 7.3056 -0.407352 -3.71775 0
M  V30 114 H 9.5976 0.499985 -6.75653 0
M  V30 115 H 10.5406 -1.00307 -7.00959 0
M  V30 116 H 10.9486 0.0782694 -5.64446 0
M  V30 117 N 10.3467 1.47872 -0.545128 0
M  V30 118 C 11.7577 1.86384 -0.108581 0
M  V30 119 C 12.1087 1.45309 1.31832 0
M  V30 120 O 11.2337 0.850641 1.9898 0
M  V30 121 C 11.8287 3.38265 -0.190274 0
M  V30 122 C 10.3877 3.75914 0.191164 0
M  V30 123 C 9.5347 2.71926 -0.543273 0
M  V30 124 H 12.4857 1.39561 -0.755537 0
M  V30 125 H 12.5067 3.75831 0.594217 0
M  V30 126 H 12.0187 3.6813 -1.2289 0
M  V30 127 H 10.1197 3.51665 1.23136 0
M  V30 128 H 10.2327 4.78836 -0.158987 0
M  V30 129 H 8.5967 2.54697 0.0122495 0
M  V30 130 H 9.3797 3.04634 -1.58282 0
M  V30 131 N 11.8248 0.280983 1.55075 0
M  V30 132 C 13.2358 -0.215629 1.85451 0
M  V30 133 C 13.5868 -1.54991 1.203 0
M  V30 134 O 12.7118 -2.10699 0.493435 0
M  V30 135 C 13.3068 -0.398026 3.36454 0
M  V30 136 C 11.8658 -0.838866 3.66933 0
M  V30 137 C 11.0128 0.064458 2.77225 0
M  V30 138 H 13.9638 0.502601 1.50531 0
M  V30 139 H 13.9848 -1.23569 3.59876 0
M  V30 140 H 13.4968 0.573241 3.83843 0
M  V30 141 H 11.5978 -1.8214 3.25048 0
M  V30 142 H 11.7108 -0.672123 4.74362 0
M  V30 143 H 10.0748 -0.452863 2.50642 0
M  V30 144 H 10.8578 1.03172 3.2743 0
M  V30 145 N 13.3029 -1.57598 0.00835791 0
M  V30 146 C 14.2659 -2.07884 -0.965242 0
M  V30 147 C 15.2659 -0.989825 -1.26725 0
M  V30 148 O 16.4559 -1.25218 -1.21104 0
M  V30 149 C 13.5879 -2.52731 -2.28779 0
M  V30 150 H 14.7809 -2.95178 -0.530112 0
M  V30 151 H 12.3339 -1.54458 -0.239283 0
M  V30 152 H 13.0689 -1.68705 -2.76964 0
M  V30 153 H 12.8539 -3.32272 -2.08177 0
M  V30 154 H 14.3439 -2.91933 -2.98605 0
M  V30 155 N 14.781 0.264519 -1.55364 0
M  V30 156 C 15.714 1.35297 -1.83766 0
M  V30 157 C 16.692 1.47171 -0.691336 0
M  V30 158 O 17.876 1.63663 -0.935238 0
M  V30 159 C 15.003 2.72847 -2.00679 0
M  V30 160 C 14.049 2.78214 -3.23263 0
M  V30 161 S 14.882 2.36601 -4.80396 0
M  V30 162 C 16.038 3.7611 -5.00292 0
M  V30 163 H 16.271 1.11003 -2.758 0
M  V30 164 H 13.804 0.464596 -1.47244 0
M  V30 165 H 15.762 3.52057 -2.11108 0
M  V30 166 H 14.423 2.94388 -1.09518 0
M  V30 167 H 13.616 3.7919 -3.3201 0
M  V30 168 H 13.218 2.07034 -3.11469 0
M  V30 169 H 15.51 4.71457 -4.86554 0
M  V30 170 H 16.453 3.7231 -6.02321 0
M  V30 171 H 16.861 3.67806 -4.28228 0
M  V30 172 N 16.2591 1.48442 0.529413 0
M  V30 173 C 17.2221 1.62524 1.61612 0
M  V30 174 C 18.2221 0.498509 1.52877 0
M  V30 175 O 19.4121 0.76431 1.56537 0
M  V30 176 C 16.5441 1.59597 3.01233 0
M  V30 177 H 17.7371 2.59423 1.50465 0
M  V30 178 H 15.2901 1.37047 0.751514 0
M  V30 179 H 16.0251 0.641781 3.17886 0
M  V30 180 H 15.8101 2.41397 3.08982 0
M  V30 181 H 17.3001 1.72646 3.80241 0
M  V30 182 N 17.7372 -0.778329 1.37039 0
M  V30 183 C 19.0142 -1.52551 1.22424 0
M  V30 184 C 19.3942 -2.10288 -0.184964 0
M  V30 185 O 18.7422 -1.94953 -1.19187 0
M  V30 186 C 18.9522 -2.61164 2.31504 0
M  V30 187 C 20.3002 -3.28746 2.68721 0
M  V30 188 O 21.3242 -2.71455 2.30631 0
M  V30 189 O 20.1832 -4.3231 3.3432 0
M  V30 190 H 17.2772 -0.675343 0.477326 0
M  V30 191 H 19.8232 -0.815859 1.48801 0
M  V30 192 H 18.5952 -2.16574 3.25901 0
M  V30 193 H 18.2182 -3.39737 2.06554 0
M  V30 194 N 19.2153 -1.21501 -1.00376 0
M  V30 195 C 20.4643 -1.02718 -1.73586 0
M  V30 196 C 20.7773 0.439589 -1.90596 0
M  V30 197 O 21.9833 0.746848 -2.61026 0
M  V30 198 C 20.4393 -1.78929 -3.1227 0
M  V30 199 C 20.0473 -3.29783 -3.03228 0
M  V30 200 C 21.7913 -1.68557 -3.89601 0
M  V30 201 C 19.6983 -3.98479 -4.36999 0
M  V30 202 H 18.6283 -0.380733 -0.650814 0
M  V30 203 H 21.2793 -1.45248 -1.1214 0
M  V30 204 H 19.6613 -1.29192 -3.74333 0
M  V30 205 H 20.8353 -3.86832 -2.50395 0
M  V30 206 H 19.1503 -3.40711 -2.39385 0
M  V30 207 H 21.7473 -2.17211 -4.88593 0
M  V30 208 H 22.0903 -0.644021 -4.11288 0
M  V30 209 H 22.6233 -2.15778 -3.34193 0
M  V30 210 H 19.3623 -5.02841 -4.20513 0
M  V30 211 H 18.8823 -3.46219 -4.89788 0
M  V30 212 H 20.5613 -4.03462 -5.05794 0
M  V30 213 N 20.6934 1.19889 -1.02296 0
M  V30 214 C 21.6234 2.25141 -0.619174 0
M  V30 215 C 22.6044 1.66051 0.368915 0
M  V30 216 O 23.7894 1.92546 0.252941 0
M  V30 217 C 20.9194 3.4728 0.0368783 0
M  V30 218 C 19.8734 4.19005 -0.872865 0
M  V30 219 C 19.1994 5.34637 -0.0822402 0
M  V30 220 C 20.4994 4.74452 -2.18387 0
M  V30 221 H 22.1934 2.59171 -1.49903 0
M  V30 222 H 19.7394 1.24579 -0.722222 0
M  V30 223 H 21.6924 4.20098 0.330958 0
M  V30 224 H 20.4164 3.12433 0.95149 0
M  V30 225 H 19.0754 3.48061 -1.15105 0
M  V30 226 H 18.7234 4.96034 0.83422 0
M  V30 227 H 18.4234 5.83557 -0.688149 0
M  V30 228 H 19.9474 6.10255 0.205238 0
M  V30 229 H 21.3614 5.39055 -1.95172 0
M  V30 230 H 19.7584 5.33834 -2.74119 0
M  V30 231 H 20.8284 3.92844 -2.84257 0
M  V30 232 N 22.1715 0.800033 1.35784 0
M  V30 233 C 23.4485 0.30088 1.93272 0
M  V30 234 C 23.8285 -1.20857 1.73081 0
M  V30 235 O 23.1765 -2.00502 1.09596 0
M  V30 236 C 23.3865 0.70511 3.41803 0
M  V30 237 C 24.7345 0.690871 4.18942 0
M  V30 238 O 25.7585 0.646244 3.50289 0
M  V30 239 O 24.6175 0.74332 5.41421 0
M  V30 240 H 21.7115 0.0771605 0.823393 0
M  V30 241 H 24.2575 0.88329 1.449 0
M  V30 242 H 23.0295 1.74571 3.50201 0
M  V30 243 H 22.6525 0.0971541 3.97481 0
M  V30 244 N 23.6496 -1.47581 0.552962 0
M  V30 245 C 24.8986 -2.01684 0.0251995 0
M  V30 246 C 25.2116 -1.43317 -1.33115 0
M  V30 247 O 26.4176 -1.89057 -1.94858 0
M  V30 248 C 24.8736 -3.599 -0.00542052 0
M  V30 249 C 24.4816 -4.27257 1.34742 0
M  V30 250 C 26.2256 -4.21768 -0.4808 0
M  V30 251 C 24.1326 -5.77467 1.27614 0
M  V30 252 H 23.0626 -0.753979 0.00565033 0
M  V30 253 H 25.7136 -1.69616 0.70018 0
M  V30 254 H 24.0956 -3.88911 -0.745961 0
M  V30 255 H 25.2696 -4.09893 2.10534 0
M  V30 256 H 23.5846 -3.77358 1.76039 0
M  V30 257 H 26.1816 -5.31838 -0.55246 0
M  V30 258 H 26.5246 -3.88651 -1.49184 0
M  V30 259 H 27.0576 -3.97273 0.204752 0
M  V30 260 H 23.7966 -6.15196 2.26304 0
M  V30 261 H 23.3166 -5.9718 0.55996 0
M  V30 262 H 24.9956 -6.3959 0.976421 0
M  V30 263 N 25.1277 -0.289203 -1.54924 0
M  V30 264 C 26.3737 0.316922 -2.00916 0
M  V30 265 C 26.7287 1.52424 -1.17408 0
M  V30 266 O 26.0217 1.90097 -0.239536 0
M  V30 267 C 26.2157 0.736119 -3.49737 0
M  V30 268 C 26.0447 -0.429036 -4.47649 0
M  V30 269 C 24.8147 -0.917311 -4.96904 0
M  V30 270 C 27.0127 -1.27016 -4.98369 0
M  V30 271 N 24.9947 -2.05046 -5.78644 0
M  V30 272 C 26.3657 -2.25097 -5.77695 0
M  V30 273 C 28.4207 -1.30188 -4.80578 0
M  V30 274 C 27.1237 -3.26114 -6.41126 0
M  V30 275 C 29.1497 -2.30057 -5.44819 0
M  V30 276 C 28.5117 -3.2687 -6.23968 0
M  V30 277 H 24.6107 0.0807535 -0.777819 0
M  V30 278 H 27.1947 -0.416434 -1.90194 0
M  V30 279 H 25.3657 1.43867 -3.60773 0
M  V30 280 H 27.0977 1.32078 -3.82541 0
M  V30 281 H 23.8527 -0.494248 -4.71014 0
M  V30 282 H 24.2767 -2.62108 -6.24202 0
M  V30 283 H 28.9187 -0.567163 -4.18979 0
M  V30 284 H 26.6367 -4.00512 -7.01866 0
M  V30 285 H 30.2227 -2.33271 -5.32988 0
M  V30 286 H 29.1027 -4.02883 -6.72796 0
M  V30 287 N 26.6058 1.57591 -0.0167156 0
M  V30 288 C 27.5688 2.08393 0.954204 0
M  V30 289 C 28.5688 0.996531 1.26198 0
M  V30 290 O 29.7588 1.25858 1.20438 0
M  V30 291 C 26.8908 2.5394 2.27436 0
M  V30 292 H 28.0838 2.95455 0.514451 0
M  V30 293 H 25.6368 1.54582 0.231089 0
M  V30 294 H 26.3718 1.70171 2.76066 0
M  V30 295 H 26.1568 3.33371 2.06412 0
M  V30 296 H 27.6468 2.93512 2.97053 0
M  V30 297 N 28.0839 -0.256276 1.55502 0
M  V30 298 C 29.3299 -0.987079 1.77157 0
M  V30 299 C 29.6629 -1.85327 0.580315 0
M  V30 300 O 28.9379 -1.89874 -0.421686 0
M  V30 301 C 29.2209 -1.85553 3.08613 0
M  V30 302 C 29.0739 -1.01816 4.38125 0
M  V30 303 C 30.3929 -2.8397 3.36228 0
M  V30 304 H 27.5119 -0.357428 0.644526 0
M  V30 305 H 30.1539 -0.258239 1.88237 0
M  V30 306 H 28.3039 -2.47695 2.99298 0
M  V30 307 H 29.9759 -0.416159 4.59419 0
M  V30 308 H 28.2189 -0.322178 4.32602 0
M  V30 309 H 28.8899 -1.65939 5.26468 0
M  V30 310 H 31.3659 -2.31964 3.45445 0
M  V30 311 H 30.2419 -3.41864 4.29442 0
M  V30 312 H 30.5029 -3.59955 2.56681 0
M  V30 313 N 29.562 -1.4872 -0.521534 0
M  V30 314 C 30.839 -1.4766 -1.2828 0
M  V30 315 C 31.219 -0.19292 -2.10217 0
M  V30 316 O 30.567 0.825193 -2.13079 0
M  V30 317 C 30.777 -2.74358 -2.15705 0
M  V30 318 C 32.125 -3.23028 -2.75569 0
M  V30 319 O 33.149 -2.75333 -2.25987 0
M  V30 320 O 32.008 -4.0604 -3.65778 0
M  V30 321 H 29.102 -0.590085 -0.579421 0
M  V30 322 H 31.648 -1.60963 -0.537492 0
M  V30 323 H 30.42 -3.59292 -1.54999 0
M  V30 324 H 30.043 -2.63816 -2.97467 0
M  V30 325 N 31.0401 0.771051 -1.3745 0
M  V30 326 C 32.2651 1.56529 -1.36065 0
M  V30 327 C 32.6901 1.88029 0.0515859 0
M  V30 328 O 32.0481 1.49282 1.02882 0
M  V30 329 C 32.0961 2.85187 -2.20683 0
M  V30 330 O 31.2001 3.79593 -1.61193 0
M  V30 331 H 30.5411 0.47411 -0.464883 0
M  V30 332 H 33.0711 0.954269 -1.80983 0
M  V30 333 H 33.0811 3.34283 -2.33921 0
M  V30 334 H 31.7561 2.61588 -3.23334 0
M  V30 335 H 30.3331 3.38239 -1.56999 0
M  V30 336 N 32.5182 1.22032 0.997298 0
M  V30 337 C 33.4502 0.944263 2.08845 0
M  V30 338 C 34.4632 -0.0754663 1.62625 0
M  V30 339 O 35.6522 0.157994 1.77799 0
M  V30 340 C 32.7522 0.397723 3.36558 0
M  V30 341 C 31.9252 1.47362 4.11829 0
M  V30 342 C 30.9842 0.934951 5.17827 0
M  V30 343 O 30.0102 1.62016 5.45655 0
M  V30 344 N 31.2122 -0.245895 5.79979 0
M  V30 345 H 33.9772 1.88363 2.33109 0
M  V30 346 H 31.5382 1.12661 1.16272 0
M  V30 347 H 33.5302 0.0227771 4.04694 0
M  V30 348 H 32.1002 -0.446646 3.09393 0
M  V30 349 H 31.3202 2.02208 3.38386 0
M  V30 350 H 32.6082 2.19764 4.58891 0
M  V30 351 H 32.0062 -0.819475 5.59733 0
M  V30 352 H 30.5632 -0.562272 6.4937 0
M  V30 353 N 33.9963 -1.19345 1.0293 0
M  V30 354 C 35.2453 -1.88363 0.721256 0
M  V30 355 C 35.5583 -1.80514 -0.753254 0
M  V30 356 O 36.7643 -2.44788 -1.17436 0
M  V30 357 C 35.2203 -3.37872 1.23978 0
M  V30 358 C 34.8283 -3.54278 2.74211 0
M  V30 359 C 36.5723 -4.12365 1.00775 0
M  V30 360 C 34.4793 -4.97682 3.19479 0
M  V30 361 H 33.4093 -0.705484 0.266098 0
M  V30 362 H 36.0603 -1.34928 1.24365 0
M  V30 363 H 34.4423 -3.90707 0.6453 0
M  V30 364 H 35.6163 -3.11769 3.39318 0
M  V30 365 H 33.9313 -2.93174 2.95699 0
M  V30 366 H 36.5283 -5.18119 1.32123 0
M  V30 367 H 36.8713 -4.16263 -0.0554308 0
M  V30 368 H 37.4043 -3.65668 1.56625 0
M  V30 369 H 34.1433 -4.98945 4.25128 0
M  V30 370 H 33.6633 -5.4095 2.591 0
M  V30 371 H 35.3423 -5.66337 3.12845 0
M  V30 372 N 35.4744 -0.807222 -1.35358 0
M  V30 373 C 36.4374 -0.223665 -2.28106 0
M  V30 374 C 37.4374 0.589354 -1.4961 0
M  V30 375 O 38.6274 0.407745 -1.69361 0
M  V30 376 C 35.7594 0.688149 -3.33882 0
M  V30 377 H 36.9524 -1.04169 -2.81227 0
M  V30 378 H 34.5054 -0.577921 -1.45223 0
M  V30 379 H 35.2404 1.52984 -2.85948 0
M  V30 380 H 35.0254 0.10687 -3.91954 0
M  V30 381 H 36.5154 1.09075 -4.03104 0
M  V30 382 N 36.9525 1.47285 -0.560781 0
M  V30 383 C 38.1775 2.07359 -0.0410566 0
M  V30 384 C 38.6025 1.41017 1.24483 0
M  V30 385 O 37.9605 0.486368 1.74654 0
M  V30 386 C 38.0085 3.6035 0.134123 0
M  V30 387 O 37.1125 3.94681 1.19587 0
M  V30 388 H 36.4535 0.661887 -0.0529291 0
M  V30 389 H 38.9835 1.89252 -0.777482 0
M  V30 390 H 38.9935 4.0652 0.347207 0
M  V30 391 H 37.6685 4.08034 -0.805047 0
M  V30 392 H 36.2455 3.60251 0.962987 0
M  V30 393 N 38.4306 0.297415 1.54768 0
M  V30 394 C 39.7076 -0.365847 1.92148 0
M  V30 395 C 40.0876 -1.71975 1.22424 0
M  V30 396 O 39.4356 -2.25666 0.358739 0
M  V30 397 C 39.6456 -0.484056 3.45627 0
M  V30 398 C 40.9936 -0.756594 4.17805 0
M  V30 399 O 42.0176 -0.568007 3.51642 0
M  V30 400 O 40.8766 -1.11863 5.34929 0
M  V30 401 H 37.9706 -0.203919 0.801465 0
M  V30 402 H 40.5166 0.34521 1.66152 0
M  V30 403 H 39.2886 0.467865 3.88493 0
M  V30 404 H 38.9116 -1.24372 3.77647 0
M  V30 405 N 39.9087 -1.5758 0.0250728 0
M  V30 406 C 41.1567 -1.91255 -0.653151 0
M  V30 407 C 41.4777 -0.901691 -1.729 0
M  V30 408 O 40.7477 0.0573785 -1.95816 0
M  V30 409 H 39.3277 -0.705942 -0.244243 0
M  V30 410 H 41.9897 -1.94767 0.0719209 0
M  V30 411 H 41.0857 -2.91752 -1.10847 0
M  V30 412 N 41.3868 0.248026 -1.55636 0
M  V30 413 C 42.6118 0.998028 -1.81808 0
M  V30 414 C 43.0368 1.78207 -0.601979 0
M  V30 415 O 42.3948 1.75653 0.448961 0
M  V30 416 C 42.4428 1.9125 -3.05705 0
M  V30 417 O 41.5468 3.00406 -2.82542 0
M  V30 418 H 40.8878 0.284045 -0.600179 0
M  V30 419 H 43.4178 0.269357 -2.02819 0
M  V30 420 H 43.4278 2.32737 -3.35108 0
M  V30 421 H 42.1028 1.33602 -3.93857 0
M  V30 422 H 40.6798 2.63056 -2.64303 0
M  V30 423 N 42.8649 1.48995 0.513639 0
M  V30 424 C 44.1139 1.57093 1.2651 0
M  V30 425 C 44.4269 0.257091 1.93903 0
M  V30 426 O 45.6329 0.216478 2.70636 0
M  V30 427 C 44.0889 2.77118 2.29638 0
M  V30 428 C 43.6969 4.15209 1.68241 0
M  V30 429 C 45.4409 2.94538 3.05692 0
M  V30 430 C 43.3479 5.26474 2.69406 0
M  V30 431 H 42.2779 0.584876 0.475854 0
M  V30 432 H 44.9289 1.7536 0.540487 0
M  V30 433 H 43.3109 2.52319 3.05207 0
M  V30 434 H 44.4849 4.50094 0.987505 0
M  V30 435 H 42.7999 4.03042 1.04623 0
M  V30 436 H 45.3969 3.74832 3.8132 0
M  V30 437 H 45.7399 2.04614 3.62545 0
M  V30 438 H 46.2729 3.19316 2.37238 0
M  V30 439 H 43.0119 6.18417 2.17351 0
M  V30 440 H 42.5319 4.96058 3.37175 0
M  V30 441 H 44.2109 5.55277 3.32078 0
M  V30 442 N 44.343 -0.763751 1.37857 0
M  V30 443 C 45.754 -1.3405 1.29952 0
M  V30 444 C 46.105 -1.96138 -0.0492898 0
M  V30 445 O 45.23 -1.94372 -0.951239 0
M  V30 446 C 45.825 -2.43729 2.35333 0
M  V30 447 C 44.384 -2.97151 2.31037 0
M  V30 448 C 43.531 -1.70438 2.18738 0
M  V30 449 H 46.482 -0.563396 1.48363 0
M  V30 450 H 46.503 -3.23412 2.00462 0
M  V30 451 H 46.015 -1.9851 3.33489 0
M  V30 452 H 44.116 -3.46724 1.3643 0
M  V30 453 H 44.229 -3.52221 3.24772 0
M  V30 454 H 42.593 -1.93673 1.65418 0
M  V30 455 H 43.376 -1.27312 3.18821 0
M  V30 456 N 45.8211 -1.22559 -0.990812 0
M  V30 457 C 47.0671 -1.05297 -1.73322 0
M  V30 458 C 47.4001 0.410655 -1.89808 0
M  V30 459 O 46.6751 1.30439 -1.44277 0
M  V30 460 C 46.9581 -1.76713 -3.13759 0
M  V30 461 C 46.8111 -3.30684 -3.04907 0
M  V30 462 C 48.1301 -1.52121 -4.12974 0
M  V30 463 H 45.2491 -0.38392 -0.629106 0
M  V30 464 H 47.8911 -1.50926 -1.15418 0
M  V30 465 H 46.0411 -1.37924 -3.63193 0
M  V30 466 H 47.7131 -3.7893 -2.63077 0
M  V30 467 H 45.9561 -3.60253 -2.41661 0
M  V30 468 H 46.6271 -3.75833 -4.04294 0
M  V30 469 H 49.1031 -1.85819 -3.72304 0
M  V30 470 H 47.9791 -2.04582 -5.0935 0
M  V30 471 H 48.2401 -0.454257 -4.3976 0
M  V30 472 N 47.2992 1.18797 -1.03562 0
M  V30 473 C 48.5762 1.84469 -0.650434 0
M  V30 474 C 48.9562 1.92319 0.870433 0
M  V30 475 O 48.3042 1.44528 1.76986 0
M  V30 476 C 48.5142 3.2306 -1.32036 0
M  V30 477 C 49.8622 3.9915 -1.44792 0
M  V30 478 O 50.8862 3.32481 -1.27806 0
M  V30 479 O 49.7452 5.18587 -1.72423 0
M  V30 480 H 46.8392 0.795251 -0.226946 0
M  V30 481 H 49.3852 1.26231 -1.13419 0
M  V30 482 H 48.1572 3.1222 -2.3587 0
M  V30 483 H 47.7802 3.88949 -0.8249 0
M  V30 484 N 48.7773 0.814389 1.34928 0
M  V30 485 C 50.0243 0.398423 1.98542 0
M  V30 486 C 50.3523 -1.03638 1.64589 0
M  V30 487 O 49.6073 -1.73509 0.90516 0
M  V30 488 C 49.9063 0.537781 3.53331 0
M  V30 489 C 49.5723 1.93704 4.07172 0
M  V30 490 C 48.2343 2.31984 4.21589 0
M  V30 491 C 50.5863 2.85213 4.36237 0
M  V30 492 C 47.9143 3.61125 4.62391 0
M  V30 493 C 50.2663 4.13809 4.78482 0
M  V30 494 C 48.9303 4.52077 4.91104 0
M  V30 495 H 48.2003 0.145793 0.726516 0
M  V30 496 H 50.8473 1.03669 1.61012 0
M  V30 497 H 49.1523 -0.183906 3.91368 0
M  V30 498 H 50.8493 0.196588 4.00518 0
M  V30 499 H 47.4393 1.62966 3.96409 0
M  V30 500 H 51.6233 2.56885 4.24645 0
M  V30 501 H 46.8793 3.90612 4.70353 0
M  V30 502 H 51.0533 4.84811 4.99932 0
M  V30 503 H 48.6803 5.52196 5.22478 0
M  V30 504 N 50.2554 -1.46986 0.568584 0
M  V30 505 C 51.1854 -2.32946 -0.160753 0
M  V30 506 C 52.1664 -1.44487 -0.897631 0
M  V30 507 O 53.3514 -1.73327 -0.875867 0
M  V30 508 C 50.4814 -3.26494 -1.18403 0
M  V30 509 C 49.4354 -4.24282 -0.562895 0
M  V30 510 C 48.7614 -5.07236 -1.69163 0
M  V30 511 C 50.0614 -5.19989 0.490761 0
M  V30 512 H 51.7554 -2.94175 0.556916 0
M  V30 513 H 49.3014 -1.4146 0.26927 0
M  V30 514 H 51.2544 -3.85477 -1.70251 0
M  V30 515 H 49.9784 -2.63343 -1.93179 0
M  V30 516 H 48.6374 -3.66541 -0.0656164 0
M  V30 517 H 48.2854 -4.4048 -2.42871 0
M  V30 518 H 47.9854 -5.7345 -1.28174 0
M  V30 519 H 49.5094 -5.6908 -2.21314 0
M  V30 520 H 50.9234 -5.73271 0.0579047 0
M  V30 521 H 49.3204 -5.94469 0.820165 0
M  V30 522 H 50.3904 -4.64777 1.3824 0
M  V30 523 N 51.7335 -0.305618 -1.54608 0
M  V30 524 C 52.6635 0.561482 -2.26649 0
M  V30 525 C 53.6445 1.13415 -1.26772 0
M  V30 526 O 54.8295 1.16262 -1.55553 0
M  V30 527 C 51.9595 1.73122 -3.01075 0
M  V30 528 C 50.9135 1.2887 -4.08138 0
M  V30 529 C 50.2395 2.54396 -4.70305 0
M  V30 530 C 51.5395 0.416578 -5.20636 0
M  V30 531 H 53.2335 -0.0393902 -2.99374 0
M  V30 532 H 50.7795 -0.020385 -1.43986 0
M  V30 533 H 52.7325 2.34396 -3.50195 0
M  V30 534 H 51.4565 2.3584 -2.25936 0
M  V30 535 H 50.1155 0.698991 -3.59875 0
M  V30 536 H 49.7635 3.15439 -3.918 0
M  V30 537 H 49.4635 2.25486 -5.42614 0
M  V30 538 H 50.9875 3.16464 -5.2219 0
M  V30 539 H 52.4015 0.935116 -5.65622 0
M  V30 540 H 50.7985 0.221046 -5.99693 0
M  V30 541 H 51.8685 -0.557162 -4.81688 0
M  V30 542 N 53.2116 1.57565 -0.0334293 0
M  V30 543 C 54.6226 1.79746 0.504798 0
M  V30 544 C 54.9736 0.944091 1.71992 0
M  V30 545 O 54.0986 0.155694 2.15839 0
M  V30 546 C 54.6936 3.25997 0.922567 0
M  V30 547 C 53.2526 3.49159 1.40588 0
M  V30 548 C 52.3996 2.74785 0.372633 0
M  V30 549 H 55.3506 1.56565 -0.259436 0
M  V30 550 H 55.3716 3.35945 1.78666 0
M  V30 551 H 54.8836 3.88081 0.0379825 0
M  V30 552 H 52.9846 2.92332 2.31025 0
M  V30 553 H 53.0976 4.57873 1.41028 0
M  V30 554 H 51.4616 2.40391 0.841672 0
M  V30 555 H 52.2446 3.39587 -0.503559 0
M  V30 556 N 54.6897 -0.239769 1.55765 0
M  V30 557 C 55.9177 -0.98417 1.81994 0
M  V30 558 C 56.3327 -1.7867 0.610124 0
M  V30 559 O 55.6897 -1.77571 -0.421271 0
M  V30 560 C 55.7407 -1.91635 3.06526 0
M  V30 561 O 55.4617 -1.14629 4.22838 0
M  V30 562 C 56.9627 -2.77616 3.45607 0
M  V30 563 H 54.1827 -0.28928 0.605441 0
M  V30 564 H 56.7267 -0.260499 2.02834 0
M  V30 565 H 54.8817 -2.5942 2.87715 0
M  V30 566 H 55.2957 -1.77745 4.93464 0
M  V30 567 H 56.7697 -3.38759 4.35828 0
M  V30 568 H 57.2467 -3.4909 2.6652 0
M  V30 569 H 57.8527 -2.15271 3.66795 0
M  V30 570 N 56.1678 -1.49265 -0.50573 0
M  V30 571 C 57.4158 -1.582 -1.25766 0
M  V30 572 C 57.7368 -0.268482 -1.93143 0
M  V30 573 O 57.0068 0.711833 -1.8251 0
M  V30 574 H 55.5868 -0.582873 -0.467191 0
M  V30 575 H 58.2488 -1.85865 -0.586525 0
M  V30 576 H 57.3448 -2.37563 -2.02412 0
M  V30 577 N 57.6459 0.756429 -1.3826 0
M  V30 578 C 58.8949 1.51082 -1.3363 0
M  V30 579 C 59.2079 1.95467 0.0720068 0
M  V30 580 O 60.4139 2.7043 0.240834 0
M  V30 581 C 58.8699 2.72893 -2.34644 0
M  V30 582 C 58.4779 2.35544 -3.81081 0
M  V30 583 C 60.2219 3.50791 -2.39052 0
M  V30 584 C 58.1289 3.53948 -4.73787 0
M  V30 585 H 57.0589 0.56727 -0.49671 0
M  V30 586 H 59.7099 0.827147 -1.638 0
M  V30 587 H 58.0919 3.43227 -1.97513 0
M  V30 588 H 59.2659 1.72894 -4.27135 0
M  V30 589 H 57.5809 1.70786 -3.79764 0
M  V30 590 H 60.1779 4.38823 -3.05513 0
M  V30 591 H 60.5209 3.91745 -1.40861 0
M  V30 592 H 61.0539 2.87467 -2.74968 0
M  V30 593 H 57.7929 3.18064 -5.73163 0
M  V30 594 H 57.3129 4.15651 -4.32428 0
M  V30 595 H 58.9919 4.20566 -4.91663 0
M  V30 596 N 59.124 1.23083 0.984299 0
M  V30 597 C 60.354 1.08556 1.75781 0
M  V30 598 C 60.762 -0.366171 1.85623 0
M  V30 599 O 60.105 -1.26524 1.33182 0
M  V30 600 C 60.167 1.63208 3.20318 0
M  V30 601 C 59.831 3.11922 3.33997 0
M  V30 602 C 60.828 4.09259 3.2063 0
M  V30 603 C 58.513 3.51552 3.58771 0
M  V30 604 C 60.507 5.4421 3.31835 0
M  V30 605 C 58.194 4.86649 3.69616 0
M  V30 606 C 59.192 5.82787 3.56157 0
M  V30 607 O 58.88 7.15431 3.66626 0
M  V30 608 H 58.612 0.380713 0.5586 0
M  V30 609 H 61.166 1.63321 1.2456 0
M  V30 610 H 59.396 1.0286 3.72769 0
M  V30 611 H 61.085 1.44216 3.79416 0
M  V30 612 H 61.851 3.79984 3.01392 0
M  V30 613 H 57.73 2.77239 3.6832 0
M  V30 614 H 61.274 6.1923 3.21247 0
M  V30 615 H 57.171 5.15601 3.88363 0
M  V30 616 H 57.939 7.23127 3.83445 0
M  V30 617 N 60.6021 -1.18246 1.0419 0
M  V30 618 C 61.8511 -1.87588 0.741194 0
M  V30 619 C 62.1641 -1.81303 -0.734066 0
M  V30 620 O 63.3701 -2.46019 -1.14834 0
M  V30 621 C 61.8261 -3.36538 1.27555 0
M  V30 622 C 61.4341 -3.51349 2.77953 0
M  V30 623 C 63.1781 -4.11273 1.05143 0
M  V30 624 C 61.0851 -4.94265 3.2474 0
M  V30 625 H 60.0151 -0.702622 0.273565 0
M  V30 626 H 62.6661 -1.33601 1.25789 0
M  V30 627 H 61.0481 -3.9 0.686703 0
M  V30 628 H 62.2221 -3.08153 3.42605 0
M  V30 629 H 60.5371 -2.90022 2.98791 0
M  V30 630 H 63.1341 -5.16689 1.37611 0
M  V30 631 H 63.4771 -4.16298 -0.0112774 0
M  V30 632 H 64.0101 -3.63987 1.60495 0
M  V30 633 H 60.7491 -4.94408 4.30396 0
M  V30 634 H 60.2691 -5.38172 2.64823 0
M  V30 635 H 61.9481 -5.62987 3.18834 0
M  V30 636 N 62.0802 -0.821533 -1.34494 0
M  V30 637 C 63.0122 -0.199946 -2.28326 0
M  V30 638 C 64.0252 0.609377 -1.50965 0
M  V30 639 O 65.2142 0.439285 -1.7301 0
M  V30 640 C 62.3142 0.738431 -3.30757 0
M  V30 641 C 61.4872 -0.0277632 -4.37391 0
M  V30 642 C 60.5462 0.831332 -5.19591 0
M  V30 643 O 59.5722 0.276822 -5.68526 0
M  V30 644 N 60.7742 2.15132 -5.39165 0
M  V30 645 H 63.5392 -1.00609 -2.82308 0
M  V30 646 H 61.1002 -0.678366 -1.47003 0
M  V30 647 H 63.0922 1.31773 -3.82646 0
M  V30 648 H 61.6622 1.44533 -2.7718 0
M  V30 649 H 60.8822 -0.788359 -3.86236 0
M  V30 650 H 62.1702 -0.555251 -5.05761 0
M  V30 651 H 61.5682 2.62559 -5.01078 0
M  V30 652 H 60.1252 2.6795 -5.94177 0
M  V30 653 N 63.5583 1.46682 -0.576371 0
M  V30 654 C 64.4883 2.33028 0.148397 0
M  V30 655 C 65.4693 1.44961 0.889956 0
M  V30 656 O 66.6543 1.73789 0.866662 0
M  V30 657 C 63.7843 3.27117 1.1667 0
M  V30 658 C 62.7383 4.24575 0.540386 0
M  V30 659 C 62.0643 5.08126 1.6647 0
M  V30 660 C 63.3643 5.19722 -0.518331 0
M  V30 661 H 65.0583 2.93875 -0.572509 0
M  V30 662 H 62.6043 1.41315 -0.276768 0
M  V30 663 H 64.5573 3.86374 1.68204 0
M  V30 664 H 63.2813 2.64364 1.9178 0
M  V30 665 H 61.9403 3.66571 0.0461769 0
M  V30 666 H 61.5883 4.41762 2.40531 0
M  V30 667 H 61.2883 5.74122 1.25131 0
M  V30 668 H 62.8123 5.70246 2.18293 0
M  V30 669 H 64.2263 5.73232 -0.0883058 0
M  V30 670 H 62.6233 5.94026 -0.851679 0
M  V30 671 H 63.6933 4.64037 -1.40703 0
M  V30 672 N 65.0364 0.313813 1.54444 0
M  V30 673 C 65.9464 -0.565714 2.27677 0
M  V30 674 C 66.9624 -1.13754 1.31666 0
M  V30 675 O 68.1384 -1.15959 1.64668 0
M  V30 676 C 65.2034 -1.71528 3.01296 0
M  V30 677 C 64.2644 -1.17624 4.12872 0
M  V30 678 C 63.4974 -2.27102 4.8297 0
M  V30 679 O 63.7204 -3.47256 4.52514 0
M  V30 680 O 62.6544 -1.9307 5.70094 0
M  V30 681 H 66.4804 0.0287296 3.03686 0
M  V30 682 H 64.0654 0.0798312 1.49187 0
M  V30 683 H 65.9474 -2.38476 3.4743 0
M  V30 684 H 64.6224 -2.29608 2.2817 0
M  V30 685 H 63.5294 -0.472124 3.71109 0
M  V30 686 H 64.8624 -0.640695 4.88012 0
M  V30 687 N 66.5145 -1.57545 0.0417849 0
M  V30 688 C 67.7605 -1.92601 -0.635021 0
M  V30 689 C 68.0935 -0.919627 -1.71045 0
M  V30 690 O 67.3685 0.0557892 -1.9442 0
M  V30 691 C 67.6515 -3.38085 -1.23979 0
M  V30 692 C 67.5045 -4.49467 -0.173057 0
M  V30 693 C 68.8235 -3.83776 -2.15416 0
M  V30 694 H 65.9425 -0.700397 -0.229374 0
M  V30 695 H 68.5845 -1.89728 0.101633 0
M  V30 696 H 66.7345 -3.40664 -1.86762 0
M  V30 697 H 68.4065 -4.59018 0.458312 0
M  V30 698 H 66.6495 -4.30909 0.499996 0
M  V30 699 H 67.3205 -5.48323 -0.636054 0
M  V30 700 H 69.7965 -3.83013 -1.62605 0
M  V30 701 H 68.6725 -4.8624 -2.54679 0
M  V30 702 H 68.9335 -3.19998 -3.05047 0
M  V30 703 N 67.9926 0.231505 -1.5589 0
M  V30 704 C 69.4036 0.799327 -1.68724 0
M  V30 705 C 69.7546 1.85398 -0.642022 0
M  V30 706 O 68.8796 2.1539 0.208784 0
M  V30 707 C 69.4746 1.45664 -3.05888 0
M  V30 708 C 68.0336 1.97197 -3.20609 0
M  V30 709 C 67.1806 0.828552 -2.64632 0
M  V30 710 H 70.1316 0.00702616 -1.58698 0
M  V30 711 H 70.1526 2.32517 -3.01191 0
M  V30 712 H 69.6646 0.688808 -3.81939 0
M  V30 713 H 67.7656 2.76813 -2.4941 0
M  V30 714 H 67.8786 2.15878 -4.27707 0
M  V30 715 H 66.2426 1.23321 -2.22854 0
M  V30 716 H 67.0256 0.0735544 -3.43221 0
M  V30 717 N 69.4707 1.49531 0.497807 0
M  V30 718 C 70.8867 1.36365 0.829266 0
M  V30 719 C 71.0867 0.399184 1.97506 0
M  V30 720 O 70.1427 -0.167977 2.51941 0
M  V30 721 C 71.4557 2.77153 1.16647 0
M  V30 722 C 73.0037 2.85877 1.27449 0
M  V30 723 C 73.4787 4.2744 1.64497 0
M  V30 724 N 74.9697 4.30265 1.7154 0
M  V30 725 C 75.7047 5.3677 2.01656 0
M  V30 726 N 75.2007 6.53516 2.29976 0
M  V30 727 N 76.9937 5.24189 2.02934 0
M  V30 728 H 69.1447 2.10831 -0.257703 0
M  V30 729 H 71.4077 0.946534 -0.0527091 0
M  V30 730 H 71.1137 3.49442 0.397872 0
M  V30 731 H 70.9877 3.12722 2.10915 0
M  V30 732 H 73.3747 2.13824 2.0338 0
M  V30 733 H 73.4557 2.53887 0.312244 0
M  V30 734 H 73.0997 5.00021 0.891151 0
M  V30 735 H 73.0297 4.56896 2.61827 0
M  V30 736 H 75.5207 3.4607 1.51802 0
M  V30 737 H 75.8337 7.30506 2.52153 0
M  V30 738 H 74.1787 6.56737 2.27425 0
M  V30 739 H 77.3697 4.31988 1.80289 0
M  V30 740 H 77.5427 6.07286 2.26071 0
M  V30 741 N 70.9488 -0.749086 1.3866 0
M  V30 742 C 71.8588 -1.89358 1.38494 0
M  V30 743 C 72.8748 -1.71708 0.281476 0
M  V30 744 O 74.0508 -1.94554 0.520643 0
M  V30 745 C 71.1158 -3.24782 1.21316 0
M  V30 746 C 70.1768 -3.54926 2.41508 0
M  V30 747 C 69.4098 -4.83888 2.2514 0
M  V30 748 O 69.6328 -5.56592 1.24746 0
M  V30 749 O 68.5668 -5.13612 3.13826 0
M  V30 750 H 72.3928 -1.92452 2.34938 0
M  V30 751 H 69.9778 -0.894981 1.19626 0
M  V30 752 H 71.8598 -4.05739 1.13814 0
M  V30 753 H 70.5348 -3.2249 0.279592 0
M  V30 754 H 69.4418 -2.74112 2.54585 0
M  V30 755 H 70.7748 -3.61983 3.3351 0
M  V30 756 N 72.4269 -1.23603 -0.977757 0
M  V30 757 C 73.3899 -1.02069 -2.05218 0
M  V30 758 C 74.3899 0.0184305 -1.60789 0
M  V30 759 O 75.5799 -0.221569 -1.72785 0
M  V30 760 C 72.7119 -0.544926 -3.36517 0
M  V30 761 H 73.9049 -1.9742 -2.25755 0
M  V30 762 H 71.4579 -1.05684 -1.15155 0
M  V30 763 H 72.1929 0.412241 -3.21669 0
M  V30 764 H 71.9779 -1.2948 -3.70105 0
M  V30 765 H 73.4679 -0.414985 -4.15533 0
M  V30 766 N 73.905 1.17692 -1.04816 0
M  V30 767 C 75.133 1.91786 -0.776254 0
M  V30 768 C 75.548 1.76604 0.667577 0
M  V30 769 O 74.905 1.10067 1.45573 0
M  V30 770 C 74.956 3.42967 -1.14263 0
M  V30 771 O 74.677 3.57678 -2.52978 0
M  V30 772 C 76.178 4.34144 -0.896311 0
M  V30 773 H 73.398 0.608624 -0.282519 0
M  V30 774 H 75.942 1.49268 -1.39783 0
M  V30 775 H 74.097 3.83245 -0.565874 0
M  V30 776 H 74.511 4.51319 -2.67229 0
M  V30 777 H 75.985 5.38744 -1.20244 0
M  V30 778 H 76.462 4.38876 0.168636 0
M  V30 779 H 77.068 3.99574 -1.45672 0
M  V30 780 N 75.3831 0.828654 1.34056 0
M  V30 781 C 76.6321 0.415828 1.97367 0
M  V30 782 C 76.9451 -1.02796 1.6641 0
M  V30 783 O 78.1511 -1.54497 2.23255 0
M  V30 784 C 76.6071 0.692601 3.53173 0
M  V30 785 C 76.2151 2.15038 3.93017 0
M  V30 786 C 77.9591 0.346222 4.23086 0
M  V30 787 C 75.8661 2.37174 5.41758 0
M  V30 788 H 74.7961 0.151755 0.738571 0
M  V30 789 H 77.4471 1.01581 1.52819 0
M  V30 790 H 75.8291 0.0223764 3.95994 0
M  V30 791 H 77.0031 2.86024 3.61285 0
M  V30 792 H 75.3181 2.45875 3.36057 0
M  V30 793 H 77.9151 0.48937 5.32456 0
M  V30 794 H 78.2581 -0.709842 4.10204 0
M  V30 795 H 78.7911 0.971258 3.85761 0
M  V30 796 H 75.5301 3.41308 5.59633 0
M  V30 797 H 75.0501 1.70738 5.74986 0
M  V30 798 H 76.7291 2.19818 6.08514 0
M  V30 799 N 76.8612 -1.46375 0.584142 0
M  V30 800 C 78.0862 -2.07268 0.0740405 0
M  V30 801 C 78.5112 -1.42979 -1.22223 0
M  V30 802 O 77.8692 -0.514092 -1.73859 0
M  V30 803 C 77.9172 -3.60518 -0.0767769 0
M  V30 804 O 77.0212 -3.96533 -1.13292 0
M  V30 805 H 76.3622 -0.660961 0.0634524 0
M  V30 806 H 78.8922 -1.87991 0.807492 0
M  V30 807 H 78.9022 -4.07021 -0.282489 0
M  V30 808 H 77.5772 -4.06702 0.86986 0
M  V30 809 H 76.1542 -3.61738 -0.905553 0
M  V30 810 N 78.3393 -0.321999 -1.54275 0
M  V30 811 C 79.5693 0.282642 -2.04658 0
M  V30 812 C 79.9773 1.46453 -1.19784 0
M  V30 813 O 79.3203 1.82367 -0.220932 0
M  V30 814 C 79.3823 0.781857 -3.50895 0
M  V30 815 C 79.0463 -0.277517 -4.56157 0
M  V30 816 C 80.0433 -1.11307 -5.07845 0
M  V30 817 C 77.7283 -0.425256 -5.00497 0
M  V30 818 C 79.7223 -2.08211 -6.02434 0
M  V30 819 C 77.4093 -1.39771 -5.94901 0
M  V30 820 C 78.4073 -2.2246 -6.45756 0
M  V30 821 O 78.0953 -3.18054 -7.38307 0
M  V30 822 H 77.8273 0.0622636 -0.673126 0
M  V30 823 H 80.3813 -0.465792 -2.00049 0
M  V30 824 H 78.6113 1.58118 -3.52896 0
M  V30 825 H 80.3003 1.30467 -3.84361 0
M  V30 826 H 81.0663 -1.00991 -4.74369 0
M  V30 827 H 76.9453 0.20847 -4.60528 0
M  V30 828 H 80.4893 -2.72791 -6.42052 0
M  V30 829 H 76.3863 -1.50152 -6.27794 0
M  V30 830 H 77.1543 -3.13275 -7.56175 0
M  V30 831 N 79.8174 1.5752 -0.0501392 0
M  V30 832 C 81.0664 1.91827 0.623328 0
M  V30 833 C 81.3794 0.930222 1.72065 0
M  V30 834 O 82.5854 1.1653 2.4522 0
M  V30 835 C 81.0414 3.40692 1.16003 0
M  V30 836 C 80.6494 4.479 0.0948811 0
M  V30 837 C 82.3934 3.84034 1.80881 0
M  V30 838 C 80.3004 5.87879 0.644411 0
M  V30 839 H 79.2304 0.715918 0.236596 0
M  V30 840 H 81.8814 1.83115 -0.118861 0
M  V30 841 H 80.2634 3.44405 1.9545 0
M  V30 842 H 81.4374 4.55775 -0.678675 0
M  V30 843 H 79.7524 4.13892 -0.45637 0
M  V30 844 H 82.3494 4.85984 2.22988 0
M  V30 845 H 82.6924 3.20225 2.6601 0
M  V30 846 H 83.2254 3.82833 1.0809 0
M  V30 847 H 79.9644 6.55282 -0.169229 0
M  V30 848 H 79.4844 5.83567 1.38598 0
M  V30 849 H 81.1634 6.37098 1.12763 0
M  V30 850 N 81.2955 -0.223234 1.56011 0
M  V30 851 C 82.2425 -1.27664 1.92277 0
M  V30 852 C 83.2125 -1.46659 0.779763 0
M  V30 853 O 84.3975 -1.60256 1.03551 0
M  V30 854 C 81.5375 -2.62234 2.24338 0
M  V30 855 C 80.6505 -2.51051 3.51564 0
M  V30 856 C 79.7855 -3.78133 3.7308 0
M  V30 857 C 78.8245 -3.61665 4.93827 0
M  V30 858 N 77.9615 -4.80693 5.11741 0
M  V30 859 H 82.8015 -0.960358 2.82101 0
M  V30 860 H 80.3385 -0.462901 1.39627 0
M  V30 861 H 82.2965 -3.40596 2.40936 0
M  V30 862 H 80.9265 -2.91961 1.3769 0
M  V30 863 H 79.9785 -1.64132 3.43169 0
M  V30 864 H 81.2905 -2.34803 4.40079 0
M  V30 865 H 80.4445 -4.64938 3.89766 0
M  V30 866 H 79.1835 -3.97304 2.82844 0
M  V30 867 H 78.1885 -2.73244 4.77093 0
M  V30 868 H 79.4135 -3.43966 5.85546 0
M  V30 869 H 77.3595 -5.00181 4.24446 0
M  V30 870 H 77.2765 -4.67165 5.94384 0
M  V30 871 H 78.5445 -5.6893 5.3286 0
M  V30 872 N 82.7736 -1.49793 -0.48987 0
M  V30 873 C 83.7056 -1.63413 -1.60713 0
M  V30 874 C 84.7186 -0.516329 -1.54395 0
M  V30 875 O 85.9076 -0.788812 -1.60125 0
M  V30 876 C 83.0076 -1.58516 -2.99543 0
M  V30 877 C 82.1806 -2.86016 -3.30928 0
M  V30 878 C 81.2396 -2.74018 -4.49222 0
M  V30 879 O 80.2656 -3.47964 -4.50455 0
M  V30 880 N 81.4676 -1.86309 -5.4979 0
M  V30 881 H 84.2326 -2.59777 -1.49452 0
M  V30 882 H 81.7936 -1.47022 -0.677955 0
M  V30 883 H 83.7856 -1.48128 -3.76617 0
M  V30 884 H 82.3556 -0.69965 -3.0467 0
M  V30 885 H 81.5756 -3.10672 -2.42645 0
M  V30 886 H 82.8636 -3.70521 -3.487 0
M  V30 887 H 82.2616 -1.2551 -5.51601 0
M  V30 888 H 80.8186 -1.81837 -6.25922 0
M  V30 889 N 84.2517 0.741722 -1.39055 0
M  V30 890 C 85.1847 1.86416 -1.31622 0
M  V30 891 C 86.1627 1.61473 -0.191076 0
M  V30 892 O 87.3467 1.84825 -0.370399 0
M  V30 893 C 84.4737 3.22266 -1.04221 0
M  V30 894 C 83.5197 3.66079 -2.18834 0
M  V30 895 S 84.3527 3.7623 -3.81066 0
M  V30 896 C 85.5087 5.14881 -3.55877 0
M  V30 897 H 85.7417 1.92437 -2.26617 0
M  V30 898 H 83.2747 0.905907 -1.25031 0
M  V30 899 H 85.2327 4.00714 -0.890964 0
M  V30 900 H 83.8937 3.1391 -0.109237 0
M  V30 901 H 83.0867 4.64648 -1.95238 0
M  V30 902 H 82.6887 2.94817 -2.30128 0
M  V30 903 H 84.9807 6.01006 -3.12726 0
M  V30 904 H 85.9237 5.43503 -4.53884 0
M  V30 905 H 86.3317 4.84239 -2.90126 0
M  V30 906 N 85.7298 1.2412 0.971189 0
M  V30 907 C 86.6598 1.05508 2.08304 0
M  V30 908 C 87.6408 -0.0308864 1.70072 0
M  V30 909 O 88.8258 0.135521 1.93727 0
M  V30 910 C 85.9558 0.655365 3.4106 0
M  V30 911 C 84.9098 1.68971 3.93234 0
M  V30 912 C 84.2358 1.14516 5.22293 0
M  V30 913 C 85.5358 3.08487 4.21465 0
M  V30 914 H 87.2298 1.98507 2.24132 0
M  V30 915 H 84.7758 0.955821 1.07704 0
M  V30 916 H 86.7288 0.51217 4.18276 0
M  V30 917 H 85.4528 -0.31032 3.25122 0
M  V30 918 H 84.1118 1.82106 3.18171 0
M  V30 919 H 83.7598 0.170189 5.02712 0
M  V30 920 H 83.4598 1.83635 5.58168 0
M  V30 921 H 84.9838 1.01401 6.02121 0
M  V30 922 H 86.3978 2.98601 4.89398 0
M  V30 923 H 84.7948 3.74926 4.68562 0
M  V30 924 H 85.8648 3.56787 3.28376 0
M  V30 925 N 87.2079 -1.17134 1.05439 0
M  V30 926 C 88.4539 -1.87979 0.776872 0
M  V30 927 C 88.8089 -1.7965 -0.688751 0
M  V30 928 O 88.1019 -1.19535 -1.4974 0
M  V30 929 C 88.2959 -3.36833 1.19491 0
M  V30 930 C 88.1249 -3.59653 2.69963 0
M  V30 931 C 86.8949 -3.76234 3.37307 0
M  V30 932 C 89.0929 -3.59091 3.68182 0
M  V30 933 N 87.0749 -3.86922 4.76618 0
M  V30 934 C 88.4459 -3.75659 4.93235 0
M  V30 935 C 90.5009 -3.42255 3.61616 0
M  V30 936 C 89.2039 -3.77133 6.12506 0
M  V30 937 C 91.2299 -3.45018 4.8033 0
M  V30 938 C 90.5919 -3.62096 6.04207 0
M  V30 939 H 86.6909 -0.705876 0.336546 0
M  V30 940 H 89.2749 -1.40602 1.34682 0
M  V30 941 H 87.4459 -3.82873 0.652884 0
M  V30 942 H 89.1779 -3.95305 0.866966 0
M  V30 943 H 85.9329 -3.76193 2.87708 0
M  V30 944 H 86.3569 -3.96055 5.49062 0
M  V30 945 H 90.9989 -3.27986 2.66805 0
M  V30 946 H 88.7169 -3.90186 7.07659 0
M  V30 947 H 92.3029 -3.33246 4.76905 0
M  V30 948 H 91.1829 -3.64142 6.94529 0
M  V30 949 N 88.686 -0.835752 -1.33615 0
M  V30 950 C 89.633 -0.26473 -2.29277 0
M  V30 951 C 90.603 0.617712 -1.54187 0
M  V30 952 O 91.788 0.556641 -1.825 0
M  V30 953 C 88.928 0.556777 -3.40579 0
M  V30 954 C 88.041 -0.349339 -4.30585 0
M  V30 955 C 87.176 0.482969 -5.29 0
M  V30 956 C 86.215 -0.421732 -6.10645 0
M  V30 957 N 85.352 0.372262 -7.01112 0
M  V30 958 H 90.192 -1.08582 -2.77514 0
M  V30 959 H 87.729 -0.546927 -1.36554 0
M  V30 960 H 89.687 1.04852 -4.03809 0
M  V30 961 H 88.317 1.34286 -2.93542 0
M  V30 962 H 87.369 -0.959372 -3.68104 0
M  V30 963 H 88.681 -1.04445 -4.87742 0
M  V30 964 H 87.835 1.03866 -5.97743 0
M  V30 965 H 86.574 1.21153 -4.72412 0
M  V30 966 H 85.579 -0.989464 -5.40823 0
M  V30 967 H 86.804 -1.14861 -6.69316 0
M  V30 968 H 84.75 1.08426 -6.46977 0
M  V30 969 H 84.667 -0.264198 -7.55538 0
M  V30 970 H 85.935 0.910293 -7.74167 0
M  V30 971 N 90.1641 1.46063 -0.591896 0
M  V30 972 C 91.0961 2.28539 0.174001 0
M  V30 973 C 92.1091 1.39047 0.846753 0
M  V30 974 O 93.2981 1.63564 0.714774 0
M  V30 975 C 90.3981 3.14347 1.26645 0
M  V30 976 C 89.5711 4.32021 0.683856 0
M  V30 977 C 88.6301 4.99157 1.66518 0
M  V30 978 O 87.6561 5.56458 1.19763 0
M  V30 979 N 88.8581 4.97005 2.99943 0
M  V30 980 H 91.6231 2.94911 -0.533633 0
M  V30 981 H 89.1841 1.56077 -0.430294 0
M  V30 982 H 91.1761 3.56125 1.92242 0
M  V30 983 H 89.7461 2.49988 1.87682 0
M  V30 984 H 88.9661 3.93915 -0.1498 0
M  V30 985 H 90.2541 5.08059 0.274567 0
M  V30 986 H 89.6521 4.51714 3.40545 0
M  V30 987 H 88.2091 5.42696 3.61004 0
M  V30 988 N 91.6422 0.330177 1.54103 0
M  V30 989 C 92.8882 -0.270806 2.00984 0
M  V30 990 C 93.2212 -1.51265 1.21789 0
M  V30 991 O 92.4962 -1.92142 0.301927 0
M  V30 992 C 92.7792 -0.598339 3.55094 0
M  V30 993 C 92.6322 0.654674 4.4501 0
M  V30 994 C 93.9512 -1.41334 4.16789 0
M  V30 995 H 91.0702 -0.0969531 0.730595 0
M  V30 996 H 93.7122 0.448066 1.84641 0
M  V30 997 H 91.8622 -1.21078 3.69151 0
M  V30 998 H 93.5342 1.29285 4.42813 0
M  V30 999 H 91.7772 1.28224 4.14416 0
M  V30 1000 H 92.4482 0.380944 5.50684 0
M  V30 1001 H 94.9242 -0.895597 4.06347 0
M  V30 1002 H 93.8002 -1.61127 5.24718 0
M  V30 1003 H 94.0612 -2.41146 3.70541 0
M  V30 1004 N 93.1203 -1.57491 0.0584922 0
M  V30 1005 C 94.0703 -2.08474 -0.923188 0
M  V30 1006 C 95.0543 -0.991479 -1.26722 0
M  V30 1007 O 96.2463 -1.25473 -1.24842 0
M  V30 1008 C 93.3753 -2.6392 -2.19548 0
M  V30 1009 C 92.4613 -3.80227 -1.87852 0
M  V30 1010 N 92.8523 -4.89714 -1.26546 0
M  V30 1011 C 91.1503 -3.89271 -2.17679 0
M  V30 1012 C 91.8513 -5.70689 -1.12644 0
M  V30 1013 N 90.8273 -5.18531 -1.63176 0
M  V30 1014 H 94.6293 -2.90517 -0.444653 0
M  V30 1015 H 92.1433 -1.61745 -0.145764 0
M  V30 1016 H 94.1403 -2.98752 -2.9078 0
M  V30 1017 H 92.8003 -1.83318 -2.68001 0
M  V30 1018 H 93.8113 -5.09358 -0.936757 0
M  V30 1019 H 90.4883 -3.19623 -2.68602 0
M  V30 1020 H 91.8783 -6.6875 -0.6499 0
M  V30 1021 N 94.5984 0.214957 -1.56127 0
M  V30 1022 C 95.5464 1.28601 -1.93816 0
M  V30 1023 C 96.5404 1.48175 -0.821016 0
M  V30 1024 O 97.7464 1.49271 -1.0059 0
M  V30 1025 H 94.1214 0.431302 -0.616022 0
M  V30 1026 H 96.0924 0.940991 -2.83175 0
M  V30 1027 C 94.8414 2.62779 -2.27689 0
M  V30 1028 H 94.1644 2.48527 -3.13168 0
M  V30 1029 H 95.6044 3.36517 -2.57939 0
M  V30 1030 C 94.0634 3.18285 -1.10436 0
M  V30 1031 O 94.5934 4.00002 -0.368945 0
M  V30 1032 N 92.7994 2.7675 -0.886433 0
M  V30 1033 H 92.3464 2.10404 -1.48619 0
M  V30 1034 H 92.3044 3.14229 -0.103656 0
M  V30 1035 N 96.0765 1.50051 0.48192 0
M  V30 1036 C 97.3065 1.63999 1.2565 0
M  V30 1037 C 97.7145 0.318288 1.86504 0
M  V30 1038 O 97.0575 -0.708534 1.69486 0
M  V30 1039 C 97.1195 2.66504 2.4128 0
M  V30 1040 C 96.7835 4.10352 2.01148 0
M  V30 1041 C 97.7805 4.96562 1.54021 0
M  V30 1042 C 95.4655 4.56203 2.10199 0
M  V30 1043 C 97.4595 6.26668 1.16473 0
M  V30 1044 C 95.1465 5.86318 1.72264 0
M  V30 1045 C 96.1445 6.71375 1.25477 0
M  V30 1046 O 95.8325 7.99062 0.880626 0
M  V30 1047 H 95.5645 0.55456 0.386574 0
M  V30 1048 H 98.1185 1.96954 0.582944 0
M  V30 1049 H 96.3485 2.28769 3.11772 0
M  V30 1050 H 98.0375 2.69783 3.03268 0
M  V30 1051 H 98.8035 4.62358 1.46458 0
M  V30 1052 H 94.6825 3.90152 2.45566 0
M  V30 1053 H 98.2265 6.93011 0.798841 0
M  V30 1054 H 94.1235 6.20046 1.79482 0
M  V30 1055 H 94.8915 8.12239 1.01043 0
M  V30 1056 N 97.5546 -0.734337 1.39446 0
M  V30 1057 C 98.9656 -1.31264 1.32766 0
M  V30 1058 C 99.3166 -1.96198 -0.00767497 0
M  V30 1059 O 98.4416 -1.96346 -0.909796 0
M  V30 1060 C 99.0366 -2.38682 2.4045 0
M  V30 1061 C 97.5956 -2.92184 2.37288 0
M  V30 1062 C 96.7426 -1.6576 2.22304 0
M  V30 1063 H 99.6936 -0.531799 1.49525 0
M  V30 1064 H 99.7146 -3.19087 2.07276 0
M  V30 1065 H 99.2266 -1.91392 3.37625 0
M  V30 1066 H 97.3276 -3.43752 1.43754 0
M  V30 1067 H 97.4406 -3.45253 3.3217 0
M  V30 1068 H 95.8046 -1.9012 1.69489 0
M  V30 1069 H 96.5876 -1.20521 3.21449 0
M  V30 1070 N 99.0327 -1.24633 -0.964593 0
M  V30 1071 C 99.9657 -0.984662 -2.05863 0
M  V30 1072 C 100.944 0.0826554 -1.6239 0
M  V30 1073 O 102.128 -0.0549296 -1.8842 0
M  V30 1074 C 99.2547 -0.486529 -3.35187 0
M  V30 1075 C 98.3007 -1.54286 -3.97615 0
M  V30 1076 S 99.1337 -3.12513 -4.34851 0
M  V30 1077 C 100.29 -2.6441 -5.67308 0
M  V30 1078 H 100.523 -1.91104 -2.27743 0
M  V30 1079 H 98.0557 -1.08052 -1.10291 0
M  V30 1080 H 100.014 -0.205757 -4.09984 0
M  V30 1081 H 98.6747 0.419186 -3.1129 0
M  V30 1082 H 97.8677 -1.14481 -4.90826 0
M  V30 1083 H 97.4697 -1.7738 -3.2926 0
M  V30 1084 H 99.7617 -2.07416 -6.44969 0
M  V30 1085 H 100.705 -3.56222 -6.11973 0
M  V30 1086 H 101.113 -2.04734 -5.26065 0
M  V30 1087 N 100.511 1.16574 -1.06058 0
M  V30 1088 C 101.758 1.87047 -0.775873 0
M  V30 1089 C 102.086 1.81562 0.697534 0
M  V30 1090 O 101.341 1.22445 1.52662 0
M  V30 1091 C 101.64 3.36195 -1.21275 0
M  V30 1092 C 101.306 3.6188 -2.68986 0
M  V30 1093 C 99.9678 3.68599 -3.09335 0
M  V30 1094 C 102.32 3.72648 -3.64394 0
M  V30 1095 C 99.6478 3.83584 -4.43937 0
M  V30 1096 C 102 3.89154 -4.98741 0
M  V30 1097 C 100.664 3.94114 -5.3873 0
M  V30 1098 H 99.9338 0.684452 -0.283912 0
M  V30 1099 H 102.581 1.37853 -1.32925 0
M  V30 1100 H 100.886 3.87505 -0.578528 0
M  V30 1101 H 102.583 3.89103 -0.969542 0
M  V30 1102 H 99.1728 3.57281 -2.36744 0
M  V30 1103 H 103.357 3.66769 -3.34356 0
M  V30 1104 H 98.6128 3.85677 -4.74409 0
M  V30 1105 H 102.787 3.96427 -5.72554 0
M  V30 1106 H 100.414 4.05478 -6.43033 0
M  V30 1107 N 101.989 0.842826 1.3317 0
M  V30 1108 C 102.937 0.267495 2.31057 0
M  V30 1109 C 103.931 -0.602682 1.58316 0
M  V30 1110 O 105.137 -0.491803 1.73151 0
M  V30 1111 H 101.512 0.0677813 0.748939 0
M  V30 1112 H 103.483 1.10754 2.77085 0
M  V30 1113 C 102.232 -0.539331 3.43492 0
M  V30 1114 H 101.555 0.12095 3.99617 0
M  V30 1115 H 102.995 -0.90767 4.14171 0
M  V30 1116 C 101.454 -1.71981 2.89697 0
M  V30 1117 O 101.984 -2.81862 2.86211 0
M  V30 1118 N 100.19 -1.54299 2.46252 0
M  V30 1119 H 99.7369 -0.649143 2.49287 0
M  V30 1120 H 99.6949 -2.33431 2.10612 0
M  V30 1121 N 103.467 -1.45747 0.599634 0
M  V30 1122 C 104.397 -2.33235 -0.111306 0
M  V30 1123 C 105.378 -1.46359 -0.866781 0
M  V30 1124 O 106.563 -1.75146 -0.838904 0
M  V30 1125 C 103.693 -3.28932 -1.11451 0
M  V30 1126 C 102.647 -4.25381 -0.472772 0
M  V30 1127 C 101.973 -5.1071 -1.58365 0
M  V30 1128 C 103.273 -5.18831 0.600948 0
M  V30 1129 H 104.967 -2.92927 0.61919 0
M  V30 1130 H 102.513 -1.40857 0.299215 0
M  V30 1131 H 104.466 -3.89002 -1.62036 0
M  V30 1132 H 103.19 -2.67381 -1.8755 0
M  V30 1133 H 101.849 -3.66598 0.0121472 0
M  V30 1134 H 101.497 -4.45533 -2.33473 0
M  V30 1135 H 101.197 -5.7604 -1.15982 0
M  V30 1136 H 102.721 -5.73647 -2.09194 0
M  V30 1137 H 104.135 -5.73019 0.179491 0
M  V30 1138 H 102.532 -5.92595 0.946076 0
M  V30 1139 H 103.602 -4.6174 1.48068 0
M  V30 1140 N 104.945 -0.338344 -1.53925 0
M  V30 1141 C 105.875 0.51328 -2.27789 0
M  V30 1142 C 106.856 1.107 -1.29149 0
M  V30 1143 O 108.041 1.12937 -1.57984 0
M  V30 1144 C 105.171 1.66697 -3.04679 0
M  V30 1145 C 104.125 1.20183 -4.1078 0
M  V30 1146 C 103.451 2.44363 -4.75595 0
M  V30 1147 C 104.751 0.30605 -5.21403 0
M  V30 1148 H 106.445 -0.102883 -2.99223 0
M  V30 1149 H 103.991 -0.0509219 -1.4391 0
M  V30 1150 H 105.944 2.26915 -3.55088 0
M  V30 1151 H 104.668 2.30995 -2.30887 0
M  V30 1152 H 103.327 0.622499 -3.61276 0
M  V30 1153 H 102.975 3.07057 -3.98403 0
M  V30 1154 H 102.675 2.13925 -5.47275 0
M  V30 1155 H 104.199 3.05317 -5.28786 0
M  V30 1156 H 105.613 0.814929 -5.67478 0
M  V30 1157 H 104.01 0.0937929 -6.00027 0
M  V30 1158 H 105.08 -0.65921 -4.80398 0
M  V30 1159 N 106.423 1.57458 -0.0668435 0
M  V30 1160 C 107.356 2.08033 0.93795 0
M  V30 1161 C 108.334 0.984321 1.29421 0
M  V30 1162 O 109.518 1.25736 1.40437 0
M  V30 1163 C 106.645 2.53388 2.24749 0
M  V30 1164 C 105.691 3.74376 2.04315 0
M  V30 1165 S 106.524 5.19303 1.30706 0
M  V30 1166 C 107.68 5.67986 2.62951 0
M  V30 1167 H 107.913 2.92935 0.50759 0
M  V30 1168 H 105.446 1.5371 0.145804 0
M  V30 1169 H 107.404 2.8018 3.00016 0
M  V30 1170 H 106.065 1.68763 2.64911 0
M  V30 1171 H 105.258 4.04083 3.01218 0
M  V30 1172 H 104.86 3.47931 1.37186 0
M  V30 1173 H 107.152 5.74528 3.5906 0
M  V30 1174 H 108.095 6.66955 2.3786 0
M  V30 1175 H 108.503 4.95781 2.69929 0
M  V30 1176 N 107.901 -0.206675 1.56239 0
M  V30 1177 C 109.178 -0.954051 1.70755 0
M  V30 1178 C 109.558 -2.01841 0.618353 0
M  V30 1179 O 108.906 -2.25444 -0.372434 0
M  V30 1180 C 109.116 -1.551 3.12642 0
M  V30 1181 C 110.464 -2.03757 3.72516 0
M  V30 1182 O 111.488 -1.64965 3.15698 0
M  V30 1183 O 110.347 -2.75103 4.72208 0
M  V30 1184 H 107.441 -0.446636 0.696021 0
M  V30 1185 H 109.987 -0.197283 1.68549 0
M  V30 1186 H 108.759 -0.783212 3.83382 0
M  V30 1187 H 108.382 -2.37291 3.19028 0
M  V30 1188 N 109.379 -1.50304 -0.473955 0
M  V30 1189 C 110.628 -1.60392 -1.22301 0
M  V30 1190 C 110.941 -0.308411 -1.93153 0
M  V30 1191 O 112.147 -0.288156 -2.69966 0
M  V30 1192 C 110.603 -2.83109 -2.2221 0
M  V30 1193 C 110.211 -4.19524 -1.57173 0
M  V30 1194 C 111.955 -3.0254 -2.97775 0
M  V30 1195 C 109.862 -5.33431 -2.55353 0
M  V30 1196 H 108.792 -0.597286 -0.460179 0
M  V30 1197 H 111.443 -1.76731 -0.493803 0
M  V30 1198 H 109.825 -2.60322 -2.9841 0
M  V30 1199 H 110.999 -4.52554 -0.867824 0
M  V30 1200 H 109.314 -4.05674 -0.939002 0
M  V30 1201 H 111.911 -3.84811 -3.71248 0
M  V30 1202 H 112.254 -2.14154 -3.56992 0
M  V30 1203 H 112.787 -3.25494 -2.28688 0
M  V30 1204 H 109.526 -6.23962 -2.00878 0
M  V30 1205 H 109.046 -5.04823 -3.23904 0
M  V30 1206 H 110.725 -5.63887 -3.17239 0
M  V30 1207 N 110.857 0.726932 -1.39834 0
M  V30 1208 C 112.134 1.47902 -1.28001 0
M  V30 1209 C 112.514 2.1083 0.106789 0
M  V30 1210 O 111.862 1.99242 1.11869 0
M  V30 1211 C 112.072 2.52392 -2.41038 0
M  V30 1212 C 113.42 3.18546 -2.80737 0
M  V30 1213 O 114.444 2.62708 -2.40547 0
M  V30 1214 O 113.303 4.19604 -3.50135 0
M  V30 1215 H 110.397 0.657163 -0.502062 0
M  V30 1216 H 112.943 0.760071 -1.51727 0
M  V30 1217 H 111.715 2.04329 -3.33715 0
M  V30 1218 H 111.338 3.31837 -2.19021 0
M  V30 1219 N 112.336 1.25143 0.95797 0
M  V30 1220 C 113.561 1.12521 1.74223 0
M  V30 1221 C 113.986 -0.317402 1.85403 0
M  V30 1222 O 113.344 -1.2299 1.33204 0
M  V30 1223 C 113.392 1.78062 3.1357 0
M  V30 1224 O 112.496 1.058 3.98598 0
M  V30 1225 H 111.837 0.39304 0.535178 0
M  V30 1226 H 114.367 1.65641 1.201 0
M  V30 1227 H 114.377 1.84213 3.64046 0
M  V30 1228 H 113.052 2.83021 3.04749 0
M  V30 1229 H 111.629 1.07506 3.57067 0
M  V30 1230 N 113.814 -1.1601 1.06675 0
M  V30 1231 C 115.044 -1.90251 0.805497 0
M  V30 1232 C 115.452 -1.77891 -0.64431 0
M  V30 1233 O 114.795 -1.12383 -1.45313 0
M  V30 1234 C 114.857 -3.41419 1.12576 0
M  V30 1235 C 114.521 -3.77564 2.57477 0
M  V30 1236 C 115.518 -3.79161 3.55715 0
M  V30 1237 C 113.203 -4.08079 2.92877 0
M  V30 1238 C 115.197 -4.10767 4.8739 0
M  V30 1239 C 112.884 -4.39351 4.24751 0
M  V30 1240 C 113.882 -4.40675 5.21818 0
M  V30 1241 O 113.57 -4.71202 6.51325 0
M  V30 1242 H 113.302 -0.610018 0.291297 0
M  V30 1243 H 115.856 -1.47958 1.4247 0
M  V30 1244 H 114.086 -3.84079 0.449503 0
M  V30 1245 H 115.775 -3.9694 0.84814 0
M  V30 1246 H 116.541 -3.55693 3.29708 0
M  V30 1247 H 112.42 -4.06211 2.17976 0
M  V30 1248 H 115.964 -4.11715 5.63148 0
M  V30 1249 H 111.861 -4.62285 4.50514 0
M  V30 1250 H 112.629 -4.88996 6.56373 0
M  V30 1251 N 115.292 -0.849877 -1.32721 0
M  V30 1252 C 116.225 -0.235903 -2.26977 0
M  V30 1253 C 117.203 0.623355 -1.50177 0
M  V30 1254 O 118.387 0.581207 -1.79316 0
M  V30 1255 C 115.514 0.667712 -3.32053 0
M  V30 1256 C 114.56 -0.11753 -4.26338 0
M  V30 1257 S 115.393 -1.48277 -5.14562 0
M  V30 1258 C 116.549 -0.584741 -6.23163 0
M  V30 1259 H 116.782 -1.03495 -2.78704 0
M  V30 1260 H 114.315 -0.64724 -1.40179 0
M  V30 1261 H 116.273 1.18343 -3.93072 0
M  V30 1262 H 114.934 1.44052 -2.7912 0
M  V30 1263 H 114.127 0.57051 -5.00761 0
M  V30 1264 H 113.729 -0.564668 -3.69713 0
M  V30 1265 H 116.021 0.212968 -6.77165 0
M  V30 1266 H 116.964 -1.29947 -6.96074 0
M  V30 1267 H 117.372 -0.161202 -5.6427 0
M  V30 1268 N 116.77 1.45427 -0.607355 0
M  V30 1269 C 118.017 2.02241 -0.102455 0
M  V30 1270 C 118.345 1.4758 1.26691 0
M  V30 1271 O 117.6 0.640468 1.84923 0
M  V30 1272 C 117.899 3.57398 -0.0129263 0
M  V30 1273 C 117.565 4.3121 -1.31792 0
M  V30 1274 C 116.227 4.51092 -1.67539 0
M  V30 1275 C 118.579 4.73401 -2.18039 0
M  V30 1276 C 115.907 5.10422 -2.89285 0
M  V30 1277 C 118.259 5.34078 -3.39034 0
M  V30 1278 C 116.923 5.52184 -3.75033 0
M  V30 1279 H 116.193 0.740051 -0.037491 0
M  V30 1280 H 118.84 1.74494 -0.788926 0
M  V30 1281 H 117.145 3.84421 0.756806 0
M  V30 1282 H 118.842 3.99061 0.393881 0
M  V30 1283 H 115.432 4.16047 -1.02968 0
M  V30 1284 H 119.616 4.57774 -1.91721 0
M  V30 1285 H 114.872 5.22629 -3.17283 0
M  V30 1286 H 119.046 5.65724 -4.06115 0
M  V30 1287 H 116.673 5.97925 -4.69457 0
M  V30 1288 N 118.248 0.346503 1.53744 0
M  V30 1289 C 119.211 -0.496439 2.23759 0
M  V30 1290 C 120.211 -1.0252 1.2388 0
M  V30 1291 O 121.401 -0.913974 1.48297 0
M  V30 1292 C 118.533 -1.69187 2.95954 0
M  V30 1293 H 119.726 0.115952 2.99676 0
M  V30 1294 H 117.279 0.0978939 1.55993 0
M  V30 1295 H 118.014 -2.34288 2.24231 0
M  V30 1296 H 117.799 -1.31989 3.69217 0
M  V30 1297 H 119.289 -2.28969 3.49232 0
M  V30 1298 N 119.726 -1.57421 0.075193 0
M  V30 1299 C 120.966 -1.95495 -0.596757 0
M  V30 1300 C 121.33 -0.954886 -1.66571 0
M  V30 1301 O 122.531 -1.22341 -2.39345 0
M  V30 1302 C 120.802 -3.382 -1.15566 0
M  V30 1303 S 122.361 -3.98254 -1.84226 0
M  V30 1304 H 119.179 -0.683649 -0.195307 0
M  V30 1305 H 121.781 -1.94925 0.149859 0
M  V30 1306 H 120.485 -4.08766 -0.36588 0
M  V30 1307 H 120.016 -3.42321 -1.93856 0
M  V30 1308 H 122.031 -3.85435 -3.12497 0
M  V30 1309 N 121.204 0.198386 -1.56346 0
M  V30 1310 C 122.45 0.920648 -1.80698 0
M  V30 1311 C 122.783 1.83045 -0.648697 0
M  V30 1312 O 122.058 1.91308 0.350925 0
M  V30 1313 C 122.341 1.73971 -3.15287 0
M  V30 1314 C 122.194 0.85485 -4.41602 0
M  V30 1315 C 123.513 2.71296 -3.46535 0
M  V30 1316 H 120.632 0.333261 -0.657348 0
M  V30 1317 H 123.274 0.188198 -1.89066 0
M  V30 1318 H 121.424 2.36416 -3.08285 0
M  V30 1319 H 123.096 0.245362 -4.60647 0
M  V30 1320 H 121.339 0.161398 -4.335 0
M  V30 1321 H 122.01 1.46286 -5.32264 0
M  V30 1322 H 124.486 2.18983 -3.53816 0
M  V30 1323 H 123.362 3.2569 -4.41834 0
M  V30 1324 H 123.623 3.5018 -2.69864 0
M  V30 1325 N 122.682 1.50554 0.465978 0
M  V30 1326 C 123.63 1.70324 1.58406 0
M  V30 1327 C 124.624 0.569139 1.59553 0
M  V30 1328 O 125.83 0.749776 1.63641 0
M  V30 1329 H 122.205 0.537688 0.525734 0
M  V30 1330 H 124.176 2.64104 1.38894 0
M  V30 1331 C 122.925 1.81928 2.96307 0
M  V30 1332 H 122.248 2.68586 2.96144 0
M  V30 1333 H 123.688 1.99784 3.73982 0
M  V30 1334 C 122.147 0.572095 3.32007 0
M  V30 1335 O 122.677 -0.286416 4.00678 0
M  V30 1336 N 120.883 0.424606 2.87481 0
M  V30 1337 H 120.43 1.12427 2.31771 0
M  V30 1338 H 120.388 -0.408697 3.11732 0
M  V30 1339 N 124.16 -0.719506 1.40217 0
M  V30 1340 C 125.092 -1.84428 1.36084 0
M  V30 1341 C 126.105 -1.60597 0.266913 0
M  V30 1342 O 127.294 -1.70544 0.526983 0
M  V30 1343 C 124.394 -3.20757 1.094 0
M  V30 1344 C 123.567 -3.71817 2.30372 0
M  V30 1345 C 122.626 -4.86748 1.99907 0
M  V30 1346 O 121.652 -4.99603 2.72737 0
M  V30 1347 N 122.854 -5.7226 0.974635 0
M  V30 1348 H 125.619 -1.88473 2.33019 0
M  V30 1349 H 123.18 -0.900885 1.3452 0
M  V30 1350 H 125.172 -3.95235 0.870116 0
M  V30 1351 H 123.742 -3.11884 0.211452 0
M  V30 1352 H 122.962 -2.88514 2.68614 0
M  V30 1353 H 124.25 -4.02666 3.11026 0
M  V30 1354 H 123.648 -5.6448 0.371368 0
M  V30 1355 H 122.205 -6.46739 0.810656 0
M  V30 1356 N 125.638 -1.25649 -0.95132 0
M  V30 1357 C 126.866 -1.13343 -1.73092 0
M  V30 1358 C 127.281 0.312434 -1.86197 0
M  V30 1359 O 126.638 1.21465 -1.36207 0
M  V30 1360 C 126.689 -1.78602 -3.14299 0
M  V30 1361 O 126.41 -3.17537 -3.01831 0
M  V30 1362 C 127.911 -1.72119 -4.08522 0
M  V30 1363 H 125.131 -0.395181 -0.542285 0
M  V30 1364 H 127.675 -1.66076 -1.19328 0
M  V30 1365 H 125.83 -1.29832 -3.64996 0
M  V30 1366 H 126.244 -3.49676 -3.90931 0
M  V30 1367 H 127.718 -2.22435 -5.052 0
M  V30 1368 H 128.195 -0.685635 -4.33815 0
M  V30 1369 H 128.801 -2.20393 -3.63741 0
M  V30 1370 N 127.117 1.15442 -1.07289 0
M  V30 1371 C 128.08 2.18358 -0.696591 0
M  V30 1372 C 129.08 1.58637 0.262837 0
M  V30 1373 O 130.27 1.74145 0.0438809 0
M  V30 1374 C 127.402 3.4089 -0.0266151 0
M  V30 1375 H 128.595 2.53162 -1.60776 0
M  V30 1376 H 126.148 1.29893 -0.869342 0
M  V30 1377 H 126.883 3.11653 0.896822 0
M  V30 1378 H 126.668 3.85495 -0.716657 0
M  V30 1379 H 128.158 4.17009 0.222028 0
M  V30 1380 N 128.595 0.856903 1.32268 0
M  V30 1381 C 129.841 0.462069 1.97466 0
M  V30 1382 C 130.174 -0.980298 1.67642 0
M  V30 1383 O 129.449 -1.68824 0.965858 0
M  V30 1384 C 129.732 0.704336 3.53145 0
M  V30 1385 C 129.585 2.19529 3.9259 0
M  V30 1386 C 130.904 0.1622 4.39801 0
M  V30 1387 H 128.023 0.169357 0.717278 0
M  V30 1388 H 130.665 1.07574 1.56614 0
M  V30 1389 H 128.815 0.181999 3.88073 0
M  V30 1390 H 130.487 2.78387 3.67829 0
M  V30 1391 H 128.73 2.67292 3.41668 0
M  V30 1392 H 129.401 2.31549 5.01088 0
M  V30 1393 H 131.877 0.608905 4.11621 0
M  V30 1394 H 130.753 0.361265 5.4771 0
M  V30 1395 H 131.014 -0.935158 4.32096 0
M  V30 1396 N 130.073 -1.45103 0.615059 0
M  V30 1397 C 131.303 -2.06254 0.119596 0
M  V30 1398 C 131.711 -1.4591 -1.20445 0
M  V30 1399 O 131.054 -0.570384 -1.7462 0
M  V30 1400 C 131.116 -3.59396 -0.0865591 0
M  V30 1401 C 130.78 -4.42116 1.15683 0
M  V30 1402 C 131.777 -4.7662 2.07676 0
M  V30 1403 C 129.462 -4.82749 1.38775 0
M  V30 1404 C 131.456 -5.50622 3.21082 0
M  V30 1405 C 129.143 -5.56504 2.52481 0
M  V30 1406 C 130.141 -5.90358 3.43463 0
M  V30 1407 O 129.829 -6.62615 4.55189 0
M  V30 1408 H 129.561 -0.672423 0.0694512 0
M  V30 1409 H 132.115 -1.87219 0.844885 0
M  V30 1410 H 130.345 -3.76859 -0.866823 0
M  V30 1411 H 132.034 -4.02365 -0.534555 0
M  V30 1412 H 132.8 -4.4578 1.91063 0
M  V30 1413 H 128.679 -4.55829 0.688545 0
M  V30 1414 H 132.223 -5.76965 3.92119 0
M  V30 1415 H 128.12 -5.86759 2.69043 0
M  V30 1416 H 128.888 -6.81071 4.53966 0
M  V30 1417 N 131.551 -0.354651 -1.53558 0
M  V30 1418 C 132.461 0.50515 -2.29097 0
M  V30 1419 C 133.477 1.10223 -1.34636 0
M  V30 1420 O 134.653 1.11553 -1.67684 0
M  V30 1421 C 131.718 1.63479 -3.05738 0
M  V30 1422 C 130.779 1.06636 -4.15845 0
M  V30 1423 C 130.012 2.14217 -4.88822 0
M  V30 1424 O 130.235 3.35137 -4.61562 0
M  V30 1425 O 129.169 1.77887 -5.75013 0
M  V30 1426 H 132.995 -0.109237 -3.03503 0
M  V30 1427 H 130.58 -0.119357 -1.48922 0
M  V30 1428 H 132.462 2.2918 -3.5363 0
M  V30 1429 H 131.137 2.23478 -2.34178 0
M  V30 1430 H 130.044 0.373565 -3.7223 0
M  V30 1431 H 131.377 0.511081 -4.89539 0
M  V30 1432 N 133.029 1.57378 -0.0835403 0
M  V30 1433 C 133.939 2.16897 0.894021 0
M  V30 1434 C 134.955 1.13528 1.31861 0
M  V30 1435 O 136.131 1.45848 1.3889 0
M  V30 1436 C 133.196 2.72831 2.13925 0
M  V30 1437 C 132.257 3.91115 1.76997 0
M  V30 1438 C 131.49 4.44371 2.95584 0
M  V30 1439 O 131.713 3.96596 4.09961 0
M  V30 1440 O 130.647 5.35549 2.74719 0
M  V30 1441 H 134.473 3.00814 0.417679 0
M  V30 1442 H 132.058 1.48741 0.140181 0
M  V30 1443 H 133.94 3.0863 2.86924 0
M  V30 1444 H 132.615 1.91967 2.60635 0
M  V30 1445 H 131.522 3.60148 1.01214 0
M  V30 1446 H 132.855 4.73307 1.3506 0
M  V30 1447 N 134.507 -0.190092 1.56449 0
M  V30 1448 C 135.437 -1.23816 1.97969 0
M  V30 1449 C 136.418 -1.47201 0.852395 0
M  V30 1450 O 137.603 -1.58854 1.1171 0
M  V30 1451 C 134.733 -2.5813 2.3235 0
M  V30 1452 C 133.687 -2.49348 3.47864 0
M  V30 1453 C 133.013 -3.8798 3.67934 0
M  V30 1454 C 134.313 -2.01424 4.81898 0
M  V30 1455 H 136.007 -0.89311 2.85769 0
M  V30 1456 H 133.553 -0.428177 1.37487 0
M  V30 1457 H 135.506 -3.31637 2.59991 0
M  V30 1458 H 134.23 -2.94386 1.41438 0
M  V30 1459 H 132.889 -1.78297 3.20321 0
M  V30 1460 H 132.537 -4.21597 2.74344 0
M  V30 1461 H 132.237 -3.82978 4.45648 0
M  V30 1462 H 133.761 -4.63101 3.97957 0
M  V30 1463 H 135.175 -2.64693 5.08538 0
M  V30 1464 H 133.572 -2.07413 5.63116 0
M  V30 1465 H 134.642 -0.967677 4.75146 0
M  V30 1466 N 135.985 -1.50799 -0.457987 0
M  V30 1467 C 136.895 -1.73426 -1.57989 0
M  V30 1468 C 137.911 -0.617745 -1.62665 0
M  V30 1469 O 139.087 -0.897614 -1.80291 0
M  V30 1470 C 136.152 -1.83557 -2.94122 0
M  V30 1471 C 135.213 -3.07345 -2.99729 0
M  V30 1472 C 134.446 -3.16983 -4.29368 0
M  V30 1473 O 134.669 -2.33077 -5.20607 0
M  V30 1474 O 133.603 -4.09812 -4.40837 0
M  V30 1475 H 137.429 -2.68555 -1.41817 0
M  V30 1476 H 135.014 -1.35052 -0.638859 0
M  V30 1477 H 136.896 -1.92326 -3.74952 0
M  V30 1478 H 135.571 -0.916137 -3.10465 0
M  V30 1479 H 134.478 -3.04068 -2.1793 0
M  V30 1480 H 135.811 -3.9891 -2.88326 0
M  V30 1481 N 137.463 0.71206 -1.40597 0
M  V30 1482 C 138.74 1.46536 -1.29563 0
M  V30 1483 C 139.12 2.10931 0.0844217 0
M  V30 1484 O 138.468 2.00418 1.0975 0
M  V30 1485 C 138.678 2.49821 -2.43701 0
M  V30 1486 C 140.026 3.15551 -2.841 0
M  V30 1487 O 141.05 2.60142 -2.4332 0
M  V30 1488 O 139.909 4.15867 -3.54566 0
M  V30 1489 H 137.003 0.651801 -0.509004 0
M  V30 1490 H 139.549 0.743935 -1.52524 0
M  V30 1491 H 138.321 2.00778 -3.35863 0
M  V30 1492 H 137.944 3.29495 -2.22528 0
M  V30 1493 N 138.941 1.26152 0.944643 0
M  V30 1494 C 139.851 1.09176 2.07648 0
M  V30 1495 C 140.867 0.0261935 1.7398 0
M  V30 1496 O 142.043 0.229208 2.00091 0
M  V30 1497 C 139.108 0.722915 3.39079 0
M  V30 1498 C 138.169 1.86752 3.86552 0
M  V30 1499 C 137.402 1.51617 5.11711 0
M  V30 1500 O 137.625 0.416331 5.68879 0
M  V30 1501 O 136.559 2.34975 5.54139 0
M  V30 1502 H 140.385 2.0412 2.24875 0
M  V30 1503 H 137.97 1.05182 1.061 0
M  V30 1504 H 139.852 0.529787 4.18056 0
M  V30 1505 H 138.527 -0.197159 3.23099 0
M  V30 1506 H 137.434 2.11558 3.08535 0
M  V30 1507 H 138.767 2.76719 4.07047 0
M  V30 1508 N 140.419 -1.14872 1.07899 0
M  V30 1509 C 141.647 -1.89661 0.82683 0
M  V30 1510 C 142.062 -1.78312 -0.620519 0
M  V30 1511 O 141.419 -1.13888 -1.42604 0
M  V30 1512 C 141.47 -3.39817 1.23316 0
M  V30 1513 O 141.191 -3.50845 2.62372 0
M  V30 1514 C 142.692 -4.31615 1.0111 0
M  V30 1515 H 139.912 -0.60092 0.298557 0
M  V30 1516 H 142.456 -1.4551 1.43691 0
M  V30 1517 H 140.611 -3.8161 0.667286 0
M  V30 1518 H 141.025 -4.44076 2.79101 0
M  V30 1519 H 142.499 -5.35367 1.34486 0
M  V30 1520 H 142.976 -4.39169 -0.0522168 0
M  V30 1521 H 143.582 -3.95572 1.56215 0
M  V30 1522 N 141.898 -0.863906 -1.31812 0
M  V30 1523 C 143.314 -0.555004 -1.49639 0
M  V30 1524 C 143.514 0.912266 -1.79666 0
M  V30 1525 O 142.57 1.69479 -1.87171 0
M  V30 1526 C 143.883 -1.44998 -2.63431 0
M  V30 1527 C 145.431 -1.45138 -2.77316 0
M  V30 1528 C 145.906 -2.33179 -3.94197 0
M  V30 1529 N 147.397 -2.31025 -4.01474 0
M  V30 1530 C 148.132 -2.95871 -4.9117 0
M  V30 1531 N 147.628 -3.69863 -5.8581 0
M  V30 1532 N 149.421 -2.85211 -4.84367 0
M  V30 1533 H 141.572 -1.81339 -1.10589 0
M  V30 1534 H 143.835 -0.77505 -0.545895 0
M  V30 1535 H 143.541 -2.49377 -2.48 0
M  V30 1536 H 143.415 -1.14409 -3.59431 0
M  V30 1537 H 145.802 -0.415201 -2.92164 0
M  V30 1538 H 145.883 -1.79747 -1.82001 0
M  V30 1539 H 145.527 -3.3687 -3.80107 0
M  V30 1540 H 145.457 -1.95897 -4.88807 0
M  V30 1541 H 147.948 -1.77238 -3.33759 0
M  V30 1542 H 148.261 -4.16486 -6.50968 0
M  V30 1543 H 146.606 -3.73971 -5.85808 0
M  V30 1544 H 149.797 -2.26948 -4.09405 0
M  V30 1545 H 149.97 -3.36027 -5.54066 0
M  V30 1546 N 143.376 1.44774 -0.622745 0
M  V30 1547 C 144.792 1.56986 -0.287652 0
M  V30 1548 C 144.992 1.61167 1.20944 0
M  V30 1549 O 144.048 1.55015 1.99315 0
M  V30 1550 C 145.361 2.84551 -0.972188 0
M  V30 1551 C 146.909 2.9825 -0.949536 0
M  V30 1552 C 147.384 4.28605 -1.61437 0
M  V30 1553 N 148.875 4.35399 -1.58057 0
M  V30 1554 C 149.61 5.34964 -2.064 0
M  V30 1555 N 149.106 6.40981 -2.62897 0
M  V30 1556 N 150.899 5.26419 -1.97078 0
M  V30 1557 H 143.05 1.40304 -1.59463 0
M  V30 1558 H 145.313 0.671794 -0.668878 0
M  V30 1559 H 145.019 2.87417 -2.02693 0
M  V30 1560 H 144.893 3.73807 -0.504771 0
M  V30 1561 H 147.28 2.94941 0.0967067 0
M  V30 1562 H 147.361 2.10364 -1.45536 0
M  V30 1563 H 147.005 4.32672 -2.66002 0
M  V30 1564 H 146.935 5.15334 -1.08344 0
M  V30 1565 H 149.426 3.59397 -1.16801 0
M  V30 1566 H 149.739 7.13225 -2.97539 0
M  V30 1567 H 148.084 6.4169 -2.66943 0
M  V30 1568 H 151.275 4.42504 -1.52669 0
M  V30 1569 H 151.448 6.03861 -2.35066 0
M  V30 1570 N 144.854 0.36279 1.53368 0
M  V30 1571 C 145.784 -0.476976 2.28576 0
M  V30 1572 C 146.765 -1.08631 1.30894 0
M  V30 1573 O 147.95 -1.10409 1.59761 0
M  V30 1574 C 145.08 -1.61828 3.07293 0
M  V30 1575 C 144.034 -1.13633 4.1264 0
M  V30 1576 C 143.36 -2.36766 4.79423 0
M  V30 1577 C 144.66 -0.223061 5.21823 0
M  V30 1578 H 146.354 0.150474 2.99022 0
M  V30 1579 H 143.9 0.0738103 1.43811 0
M  V30 1580 H 145.853 -2.21237 3.58653 0
M  V30 1581 H 144.577 -2.27292 2.34533 0
M  V30 1582 H 143.236 -0.564945 3.62221 0
M  V30 1583 H 142.884 -3.0068 4.03238 0
M  V30 1584 H 142.584 -2.05192 5.50609 0
M  V30 1585 H 144.108 -2.96865 5.33576 0
M  V30 1586 H 145.522 -0.724545 5.68703 0
M  V30 1587 H 143.919 0.001678 6.001 0
M  V30 1588 H 144.989 0.735553 4.79289 0
M  V30 1589 N 146.332 -1.57332 0.0918853 0
M  V30 1590 C 147.572 -1.96117 -0.575988 0
M  V30 1591 C 147.936 -0.972499 -1.65549 0
M  V30 1592 O 149.137 -1.24872 -2.38034 0
M  V30 1593 C 147.408 -3.39407 -1.11973 0
M  V30 1594 S 148.967 -4.00185 -1.79992 0
M  V30 1595 H 145.785 -0.685682 -0.188045 0
M  V30 1596 H 148.387 -1.94755 0.170525 0
M  V30 1597 H 147.091 -4.09131 -0.322504 0
M  V30 1598 H 146.622 -3.44358 -1.90214 0
M  V30 1599 H 148.637 -3.88728 -3.08391 0
M  V30 1600 N 147.81 0.181792 -1.56548 0
M  V30 1601 C 149.087 0.926765 -1.72251 0
M  V30 1602 C 149.467 2.00831 -0.650386 0
M  V30 1603 O 148.815 2.26008 0.336521 0
M  V30 1604 C 149.025 1.50106 -3.1507 0
M  V30 1605 C 150.373 1.97805 -3.75711 0
M  V30 1606 O 151.397 1.59922 -3.18282 0
M  V30 1607 O 150.256 2.67555 -4.76525 0
M  V30 1608 H 147.35 0.435506 -0.703039 0
M  V30 1609 H 149.896 0.170443 -1.68842 0
M  V30 1610 H 148.668 0.72212 -3.84579 0
M  V30 1611 H 148.291 2.32186 -3.22763 0
M  V30 1612 N 149.288 1.51039 0.449983 0
M  V30 1613 C 150.534 1.63322 1.20223 0
M  V30 1614 C 150.867 0.34241 1.91158 0
M  V30 1615 O 150.142 -0.657344 1.83055 0
M  V30 1616 C 150.425 2.82801 2.22925 0
M  V30 1617 C 150.278 4.21823 1.56157 0
M  V30 1618 C 151.597 2.97807 3.24035 0
M  V30 1619 H 148.716 0.594407 0.435718 0
M  V30 1620 H 151.358 1.83489 0.493136 0
M  V30 1621 H 149.508 2.65738 2.834 0
M  V30 1622 H 151.18 4.50526 0.991162 0
M  V30 1623 H 149.423 4.25105 0.864172 0
M  V30 1624 H 150.094 5.01391 2.30891 0
M  V30 1625 H 152.57 3.13497 2.73603 0
M  V30 1626 H 151.446 3.82992 3.93202 0
M  V30 1627 H 151.707 2.09328 3.89402 0
M  V30 1628 N 150.766 -0.704594 1.40972 0
M  V30 1629 C 152.182 -1.01406 1.23244 0
M  V30 1630 C 152.382 -2.01169 0.115399 0
M  V30 1631 O 151.438 -2.47021 -0.523147 0
M  V30 1632 C 152.751 -1.54728 2.57836 0
M  V30 1633 C 154.299 -1.66658 2.64942 0
M  V30 1634 C 154.774 -2.23383 3.9983 0
M  V30 1635 N 156.265 -2.30756 4.01629 0
M  V30 1636 C 157 -2.75655 5.02794 0
M  V30 1637 N 156.496 -3.20225 6.14352 0
M  V30 1638 N 158.289 -2.75138 4.90159 0
M  V30 1639 H 150.44 -0.0435285 2.12355 0
M  V30 1640 H 152.703 -0.0818951 0.944456 0
M  V30 1641 H 152.409 -0.888832 3.40283 0
M  V30 1642 H 152.283 -2.53084 2.79693 0
M  V30 1643 H 154.67 -2.31617 1.8286 0
M  V30 1644 H 154.751 -0.668717 2.46904 0
M  V30 1645 H 154.395 -1.59043 4.82357 0
M  V30 1646 H 154.325 -3.23904 4.15203 0
M  V30 1647 H 156.816 -1.99291 3.21079 0
M  V30 1648 H 157.129 -3.53084 6.87424 0
M  V30 1649 H 155.474 -3.18156 6.17901 0
M  V30 1650 H 158.665 -2.39661 4.02095 0
M  V30 1651 H 158.838 -3.09812 5.6914 0
M  V30 1652 N 152.244 -1.26651 -0.937939 0
M  V30 1653 C 153.655 -1.1125 -1.49934 0
M  V30 1654 C 154.006 0.306077 -1.93798 0
M  V30 1655 O 153.131 1.19792 -1.80219 0
M  V30 1656 C 153.726 -2.01339 -2.72485 0
M  V30 1657 C 152.285 -1.90074 -3.24883 0
M  V30 1658 C 151.432 -1.94498 -1.97651 0
M  V30 1659 H 154.383 -1.39693 -0.753091 0
M  V30 1660 H 154.404 -1.56319 -3.46907 0
M  V30 1661 H 153.916 -3.04577 -2.40529 0
M  V30 1662 H 152.017 -0.897827 -3.61621 0
M  V30 1663 H 152.13 -2.75778 -3.9177 0
M  V30 1664 H 150.494 -1.38591 -2.13693 0
M  V30 1665 H 151.277 -2.99372 -1.68022 0
M  V30 1666 N 153.722 1.14298 -1.08507 0
M  V30 1667 C 154.969 1.85359 -0.815373 0
M  V30 1668 C 155.297 1.83001 0.658865 0
M  V30 1669 O 154.552 1.25655 1.50031 0
M  V30 1670 C 154.851 3.33547 -1.28379 0
M  V30 1671 C 154.517 3.56093 -2.76602 0
M  V30 1672 C 153.179 3.61955 -3.17084 0
M  V30 1673 C 155.531 3.64834 -3.72217 0
M  V30 1674 C 152.859 3.74082 -4.51973 0
M  V30 1675 C 155.211 3.78487 -5.06883 0
M  V30 1676 C 153.875 3.82598 -5.46969 0
M  V30 1677 H 153.145 0.678276 -0.298366 0
M  V30 1678 H 155.792 1.35002 -1.35819 0
M  V30 1679 H 154.097 3.86191 -0.660593 0
M  V30 1680 H 155.794 3.86959 -1.05186 0
M  V30 1681 H 152.384 3.52179 -2.4427 0
M  V30 1682 H 156.568 3.59595 -3.42061 0
M  V30 1683 H 151.824 3.75527 -4.82483 0
M  V30 1684 H 155.998 3.84193 -5.80834 0
M  V30 1685 H 153.625 3.91747 -6.51489 0
M  V30 1686 N 155.201 0.870884 1.31352 0
M  V30 1687 C 156.131 0.343096 2.30966 0
M  V30 1688 C 157.112 -0.566507 1.60389 0
M  V30 1689 O 158.297 -0.483336 1.88089 0
M  V30 1690 C 155.427 -0.455487 3.443 0
M  V30 1691 C 154.381 0.361103 4.26474 0
M  V30 1692 C 153.707 -0.563221 5.31725 0
M  V30 1693 C 155.007 1.59566 4.97329 0
M  V30 1694 H 156.701 1.17548 2.75359 0
M  V30 1695 H 154.247 0.566686 1.32381 0
M  V30 1696 H 156.2 -0.83525 4.13039 0
M  V30 1697 H 154.924 -1.32139 2.98675 0
M  V30 1698 H 153.583 0.722825 3.59403 0
M  V30 1699 H 153.231 -1.42643 4.82351 0
M  V30 1700 H 152.931 -0.0207409 5.87596 0
M  V30 1701 H 154.455 -0.939808 6.03324 0
M  V30 1702 H 155.869 1.28728 5.58661 0
M  V30 1703 H 154.266 2.07728 5.63 0
M  V30 1704 H 155.336 2.34798 4.24262 0
M  V30 1705 N 156.679 -1.44442 0.630414 0
M  V30 1706 C 158.09 -1.85434 0.217063 0
M  V30 1707 C 158.441 -1.52748 -1.23136 0
M  V30 1708 O 157.566 -0.965205 -1.93682 0
M  V30 1709 C 158.161 -3.36581 0.387168 0
M  V30 1710 C 156.72 -3.76389 0.0283297 0
M  V30 1711 C 155.867 -2.68296 0.700889 0
M  V30 1712 H 158.818 -1.34919 0.83562 0
M  V30 1713 H 158.839 -3.78657 -0.374086 0
M  V30 1714 H 158.351 -3.60339 1.44144 0
M  V30 1715 H 156.452 -3.58246 -1.02423 0
M  V30 1716 H 156.565 -4.77095 0.437892 0
M  V30 1717 H 154.929 -2.54335 0.136267 0
M  V30 1718 H 155.712 -2.94887 1.75774 0
M  V30 1719 N 158.157 -0.370918 -1.53173 0
M  V30 1720 C 159.403 0.217423 -2.01631 0
M  V30 1721 C 159.736 1.47983 -1.25756 0
M  V30 1722 O 159.011 1.91274 -0.352764 0
M  V30 1723 C 159.294 0.503982 -3.56556 0
M  V30 1724 C 159.147 -0.77243 -4.43118 0
M  V30 1725 C 160.466 1.30234 -4.20389 0
M  V30 1726 H 157.585 0.0775486 -0.732909 0
M  V30 1727 H 160.227 -0.496863 -1.83388 0
M  V30 1728 H 158.377 1.11248 -3.72231 0
M  V30 1729 H 160.049 -1.4098 -4.39229 0
M  V30 1730 H 158.292 -1.39167 -4.10871 0
M  V30 1731 H 158.963 -0.526815 -5.4948 0
M  V30 1732 H 161.439 0.787546 -4.08579 0
M  V30 1733 H 160.315 1.47158 -5.28806 0
M  V30 1734 H 160.576 2.31237 -3.76805 0
M  V30 1735 N 159.635 1.57281 -0.100228 0
M  V30 1736 C 160.565 2.17328 0.853857 0
M  V30 1737 C 161.546 1.10804 1.2906 0
M  V30 1738 O 162.731 1.38963 1.35657 0
M  V30 1739 C 159.861 2.75772 2.11109 0
M  V30 1740 C 158.815 3.87713 1.81279 0
M  V30 1741 C 158.141 4.32882 3.13874 0
M  V30 1742 C 159.441 5.10677 1.09574 0
M  V30 1743 H 161.135 2.97305 0.353545 0
M  V30 1744 H 158.681 1.43009 0.168612 0
M  V30 1745 H 160.634 3.16433 2.78296 0
M  V30 1746 H 159.358 1.93057 2.63432 0
M  V30 1747 H 158.017 3.476 1.16489 0
M  V30 1748 H 157.665 3.47051 3.64095 0
M  V30 1749 H 157.365 5.08358 2.94696 0
M  V30 1750 H 158.889 4.7618 3.82211 0
M  V30 1751 H 160.303 5.48474 1.66879 0
M  V30 1752 H 158.7 5.91615 1.00557 0
M  V30 1753 H 159.77 4.84835 0.0793299 0
M  V30 1754 N 161.113 -0.173488 1.56642 0
M  V30 1755 C 162.06 -1.21482 1.96242 0
M  V30 1756 C 163.03 -1.44104 0.826027 0
M  V30 1757 O 164.215 -1.5688 1.08597 0
M  V30 1758 C 161.355 -2.54964 2.32567 0
M  V30 1759 C 160.468 -2.39739 3.59373 0
M  V30 1760 C 159.603 -3.66072 3.84921 0
M  V30 1761 C 158.642 -3.45771 5.05083 0
M  V30 1762 N 157.779 -4.64169 5.26775 0
M  V30 1763 H 162.619 -0.870123 2.85014 0
M  V30 1764 H 160.156 -0.418245 1.41029 0
M  V30 1765 H 162.114 -3.32758 2.5165 0
M  V30 1766 H 160.744 -2.87433 1.46908 0
M  V30 1767 H 159.796 -1.53131 3.48217 0
M  V30 1768 H 161.108 -2.20683 4.47326 0
M  V30 1769 H 160.262 -4.52303 4.0436 0
M  V30 1770 H 159.001 -3.88105 2.9534 0
M  V30 1771 H 158.006 -2.57927 4.85545 0
M  V30 1772 H 159.231 -3.25163 5.96193 0
M  V30 1773 H 157.177 -4.86425 4.40144 0
M  V30 1774 H 157.094 -4.48019 6.08946 0
M  V30 1775 H 158.362 -5.51689 5.5069 0
M  V30 1776 N 162.591 -1.51276 -0.441967 0
M  V30 1777 C 163.521 -1.752 -1.54361 0
M  V30 1778 C 164.502 -0.601682 -1.59103 0
M  V30 1779 O 165.687 -0.843913 -1.74905 0
M  V30 1780 C 162.817 -1.87282 -2.92477 0
M  V30 1781 C 161.771 -3.02687 -3.02596 0
M  V30 1782 C 161.097 -2.99947 -4.42647 0
M  V30 1783 C 162.397 -4.4273 -2.77106 0
M  V30 1784 H 164.091 -2.67442 -1.34592 0
M  V30 1785 H 161.637 -1.28694 -0.646048 0
M  V30 1786 H 163.59 -2.02602 -3.695 0
M  V30 1787 H 162.314 -0.916844 -3.13467 0
M  V30 1788 H 160.973 -2.87065 -2.28012 0
M  V30 1789 H 160.621 -2.02136 -4.60597 0
M  V30 1790 H 160.321 -3.77439 -4.50348 0
M  V30 1791 H 161.845 -3.17354 -5.2165 0
M  V30 1792 H 163.259 -4.58727 -3.43864 0
M  V30 1793 H 161.656 -5.21893 -2.96222 0
M  V30 1794 H 162.726 -4.53087 -1.72744 0
M  V30 1795 N 164.069 0.697108 -1.41344 0
M  V30 1796 C 165.315 1.4593 -1.40827 0
M  V30 1797 C 165.648 1.94193 -0.0167098 0
M  V30 1798 O 164.923 1.69425 0.955263 0
M  V30 1799 C 165.206 2.67229 -2.41373 0
M  V30 1800 C 165.059 2.24741 -3.8963 0
M  V30 1801 C 166.378 3.69423 -2.39196 0
M  V30 1802 H 163.497 0.529303 -0.512842 0
M  V30 1803 H 166.139 0.794112 -1.72609 0
M  V30 1804 H 164.289 3.23982 -2.14401 0
M  V30 1805 H 165.961 1.73327 -4.27499 0
M  V30 1806 H 164.204 1.56542 -4.0457 0
M  V30 1807 H 164.875 3.1177 -4.55525 0
M  V30 1808 H 167.351 3.2234 -2.63128 0
M  V30 1809 H 166.227 4.51907 -3.11563 0
M  V30 1810 H 166.488 4.19012 -1.41001 0
M  V30 1811 N 165.547 1.27147 0.931209 0
M  V30 1812 C 166.775 1.16082 1.71267 0
M  V30 1813 C 167.19 -0.282772 1.8667 0
M  V30 1814 O 166.547 -1.19283 1.38122 0
M  V30 1815 C 166.598 1.8358 3.11417 0
M  V30 1816 O 166.319 3.22299 2.96741 0
M  V30 1817 C 167.82 1.78597 4.05732 0
M  V30 1818 H 165.04 0.403758 0.535929 0
M  V30 1819 H 167.584 1.67953 1.16671 0
M  V30 1820 H 165.739 1.35623 3.62885 0
M  V30 1821 H 166.153 3.55851 3.85319 0
M  V30 1822 H 167.627 2.30444 5.01597 0
M  V30 1823 H 168.104 0.754564 4.3267 0
M  V30 1824 H 168.71 2.26152 3.60188 0
M  V30 1825 N 167.025 -1.13721 1.09112 0
M  V30 1826 C 168.441 -1.36914 0.820174 0
M  V30 1827 C 168.641 -1.93356 -0.567079 0
M  V30 1828 O 167.697 -2.15093 -1.32255 0
M  V30 1829 C 169.01 -2.3235 1.90877 0
M  V30 1830 C 170.558 -2.45973 1.93562 0
M  V30 1831 C 171.033 -3.44714 3.01556 0
M  V30 1832 N 172.524 -3.52263 3.00775 0
M  V30 1833 C 173.259 -4.28536 3.80978 0
M  V30 1834 N 172.755 -5.07991 4.71081 0
M  V30 1835 N 174.548 -4.23804 3.69251 0
M  V30 1836 H 166.699 -0.754348 1.98553 0
M  V30 1837 H 168.962 -0.3944 0.862063 0
M  V30 1838 H 168.668 -1.98027 2.90651 0
M  V30 1839 H 168.542 -3.32332 1.78424 0
M  V30 1840 H 170.929 -2.79584 0.944286 0
M  V30 1841 H 171.01 -1.45926 2.10093 0
M  V30 1842 H 170.654 -3.11835 4.00901 0
M  V30 1843 H 170.584 -4.44558 2.82269 0
M  V30 1844 H 173.075 -2.95567 2.35475 0
M  V30 1845 H 173.388 -5.63487 5.28869 0
M  V30 1846 H 171.733 -5.07235 4.75119 0
M  V30 1847 H 174.924 -3.60806 2.98222 0
M  V30 1848 H 175.097 -4.82995 4.31995 0
M  V30 1849 N 168.503 -0.877838 -1.30888 0
M  V30 1850 C 169.728 -0.506629 -2.01117 0
M  V30 1851 C 170.153 0.895564 -1.65412 0
M  V30 1852 O 169.511 1.5923 -0.866922 0
M  V30 1853 C 169.559 -0.680223 -3.54126 0
M  V30 1854 O 168.663 0.277033 -4.11468 0
M  V30 1855 H 168.004 -0.200518 -0.633 0
M  V30 1856 H 170.534 -1.18342 -1.66902 0
M  V30 1857 H 170.544 -0.5765 -4.03907 0
M  V30 1858 H 169.219 -1.70261 -3.79452 0
M  V30 1859 H 167.796 0.127606 -3.72682 0
M  V30 1860 N 169.982 1.44106 -0.638065 0
M  V30 1861 C 171.222 2.03858 -0.148733 0
M  V30 1862 C 171.586 1.49153 1.20903 0
M  V30 1863 O 172.787 2.00452 1.79088 0
M  V30 1864 C 171.058 3.57117 -0.142314 0
M  V30 1865 S 172.617 4.37897 0.281385 0
M  V30 1866 H 169.435 0.708069 -0.0644912 0
M  V30 1867 H 172.037 1.7639 -0.843009 0
M  V30 1868 H 170.741 3.94436 -1.13349 0
M  V30 1869 H 170.272 3.89205 0.572988 0
M  V30 1870 H 172.287 4.72218 1.52395 0
M  V30 1871 N 171.46 0.379036 1.52974 0
M  V30 1872 C 172.737 -0.263479 1.93817 0
M  V30 1873 C 173.117 -1.65244 1.31368 0
M  V30 1874 O 172.465 -2.23448 0.477856 0
M  V30 1875 C 172.675 -0.300166 3.47707 0
M  V30 1876 C 174.023 -0.534061 4.21228 0
M  V30 1877 O 175.047 -0.38081 3.54159 0
M  V30 1878 O 173.906 -0.833501 5.40106 0
M  V30 1879 H 171 -0.161149 0.811147 0
M  V30 1880 H 173.546 0.432798 1.64088 0
M  V30 1881 H 172.318 0.673138 3.85467 0
M  V30 1882 H 171.941 -1.04179 3.83709 0
M  V30 1883 N 172.938 -1.57226 0.108567 0
M  V30 1884 C 174.349 -1.8195 -0.418464 0
M  V30 1885 C 174.7 -1.02508 -1.67292 0
M  V30 1886 O 173.825 -0.258496 -2.14851 0
M  V30 1887 C 174.42 -3.30028 -0.765979 0
M  V30 1888 C 172.979 -3.55469 -1.23769 0
M  V30 1889 C 172.126 -2.7625 -0.241106 0
M  V30 1890 H 175.077 -1.55149 0.33384 0
M  V30 1891 H 175.098 -3.44086 -1.62434 0
M  V30 1892 H 174.61 -3.87821 0.147219 0
M  V30 1893 H 172.711 -3.03022 -2.16814 0
M  V30 1894 H 172.824 -4.6408 -1.19022 0
M  V30 1895 H 171.188 -2.44133 -0.72602 0
M  V30 1896 H 171.971 -3.36797 0.665007 0
M  V30 1897 N 174.416 0.165178 -1.56732 0
M  V30 1898 C 175.664 0.879068 -1.8198 0
M  V30 1899 C 175.985 1.82514 -0.686561 0
M  V30 1900 O 175.255 1.93694 0.293146 0
M  V30 1901 H 173.835 0.327608 -0.671329 0
M  V30 1902 H 176.497 0.163526 -1.94213 0
M  V30 1903 H 175.593 1.45228 -2.76252 0
M  V30 1904 N 175.894 1.51508 0.433938 0
M  V30 1905 C 176.804 1.75917 1.5521 0
M  V30 1906 C 177.82 0.643545 1.61662 0
M  V30 1907 O 178.996 0.926183 1.7884 0
M  V30 1908 C 176.061 1.88213 2.91164 0
M  V30 1909 C 175.122 3.12074 2.94802 0
M  V30 1910 C 174.355 3.23774 4.24271 0
M  V30 1911 O 174.578 2.4133 5.16833 0
M  V30 1912 O 173.512 4.16774 4.34262 0
M  V30 1913 H 177.338 2.70777 1.37527 0
M  V30 1914 H 174.923 1.36051 0.617293 0
M  V30 1915 H 176.805 1.98267 3.71845 0
M  V30 1916 H 175.48 0.965413 3.08968 0
M  V30 1917 H 174.387 3.07497 2.13065 0
M  V30 1918 H 175.72 4.03446 2.81943 0
M  V30 1919 N 177.372 -0.689602 1.41712 0
M  V30 1920 C 178.319 -1.80345 1.44029 0
M  V30 1921 C 179.289 -1.63478 0.293948 0
M  V30 1922 O 180.474 -1.84244 0.495869 0
M  V30 1923 C 177.614 -3.18272 1.33405 0
M  V30 1924 C 176.727 -3.46529 2.57956 0
M  V30 1925 C 175.862 -4.74103 2.39582 0
M  V30 1926 C 174.901 -4.95347 3.5958 0
M  V30 1927 N 174.038 -6.14151 3.40239 0
M  V30 1928 H 178.878 -1.77698 2.39222 0
M  V30 1929 H 176.415 -0.867688 1.18784 0
M  V30 1930 H 178.373 -3.97956 1.25246 0
M  V30 1931 H 177.003 -3.2008 0.418164 0
M  V30 1932 H 176.055 -2.61207 2.76542 0
M  V30 1933 H 177.367 -3.58126 3.47199 0
M  V30 1934 H 176.521 -5.61853 2.28924 0
M  V30 1935 H 175.26 -4.64763 1.47805 0
M  V30 1936 H 174.265 -4.06044 3.70686 0
M  V30 1937 H 175.49 -5.06542 4.52318 0
M  V30 1938 H 173.436 -6.06013 2.51167 0
M  V30 1939 H 173.353 -6.26543 4.23061 0
M  V30 1940 H 174.621 -7.04619 3.33365 0
M  V30 1941 N 178.85 -1.27639 -0.924453 0
M  V30 1942 C 179.78 -1.13166 -2.04244 0
M  V30 1943 C 180.761 -0.032256 -1.70069 0
M  V30 1944 O 181.946 -0.207328 -1.9309 0
M  V30 1945 C 179.076 -0.781496 -3.38393 0
M  V30 1946 C 178.03 -1.83449 -3.86692 0
M  V30 1947 C 177.356 -1.33822 -5.17683 0
M  V30 1948 C 178.656 -3.23917 -4.09726 0
M  V30 1949 H 180.35 -2.06689 -2.1661 0
M  V30 1950 H 177.896 -0.995136 -1.04082 0
M  V30 1951 H 179.849 -0.667057 -4.16087 0
M  V30 1952 H 178.573 0.189439 -3.2605 0
M  V30 1953 H 177.232 -1.93789 -3.11193 0
M  V30 1954 H 176.88 -0.35665 -5.01734 0
M  V30 1955 H 176.58 -2.04224 -5.50968 0
M  V30 1956 H 178.104 -1.23679 -5.97943 0
M  V30 1957 H 179.518 -3.16559 -4.77978 0
M  V30 1958 H 177.915 -3.92059 -4.54324 0
M  V30 1959 H 178.985 -3.68729 -3.14908 0
M  V30 1960 N 180.328 1.1314 -1.09713 0
M  V30 1961 C 181.605 1.80762 -0.747302 0
M  V30 1962 C 181.985 1.96663 0.767265 0
M  V30 1963 O 181.333 1.53706 1.69076 0
M  V30 1964 C 181.543 3.15606 -1.48975 0
M  V30 1965 C 182.891 3.90914 -1.65746 0
M  V30 1966 O 183.915 3.25239 -1.45251 0
M  V30 1967 O 182.774 5.08718 -1.9967 0
M  V30 1968 H 179.868 0.782103 -0.268782 0
M  V30 1969 H 182.414 1.20041 -1.19951 0
M  V30 1970 H 181.186 2.99278 -2.52088 0
M  V30 1971 H 180.809 3.84029 -1.02991 0
M  V30 1972 N 181.806 0.884767 1.30421 0
M  V30 1973 C 183.031 0.517288 2.00845 0
M  V30 1974 C 183.456 -0.886779 1.65885 0
M  V30 1975 O 182.814 -1.58768 0.875354 0
M  V30 1976 C 182.862 0.698994 3.5376 0
M  V30 1977 O 181.966 -0.255208 4.1161 0
M  V30 1978 H 181.307 0.203872 0.631927 0
M  V30 1979 H 183.837 1.19225 1.66272 0
M  V30 1980 H 183.847 0.597912 4.03595 0
M  V30 1981 H 182.522 1.72271 3.78544 0
M  V30 1982 H 181.099 -0.10784 3.72744 0
M  V30 1983 N 183.284 -1.43765 0.645699 0
M  V30 1984 C 184.231 -2.30745 -0.0504648 0
M  V30 1985 C 185.201 -1.4432 -0.822241 0
M  V30 1986 O 186.386 -1.73202 -0.800358 0
M  V30 1987 C 183.526 -3.29802 -1.0161 0
M  V30 1988 C 182.639 -4.31326 -0.241219 0
M  V30 1989 C 181.774 -5.17469 -1.19998 0
M  V30 1990 C 180.813 -6.10691 -0.415094 0
M  V30 1991 N 179.95 -6.89483 -1.32506 0
M  V30 1992 H 184.79 -2.8973 0.697155 0
M  V30 1993 H 182.327 -1.42738 0.355563 0
M  V30 1994 H 184.285 -3.85734 -1.58949 0
M  V30 1995 H 182.915 -2.72483 -1.73069 0
M  V30 1996 H 181.967 -3.77749 0.448334 0
M  V30 1997 H 183.279 -4.9743 0.369437 0
M  V30 1998 H 182.433 -5.7799 -1.84424 0
M  V30 1999 H 181.172 -4.51473 -1.84455 0
M  V30 2000 H 180.177 -5.49265 0.242565 0
M  V30 2001 H 181.402 -6.78727 0.224966 0
M  V30 2002 H 179.348 -6.26142 -1.95657 0
M  V30 2003 H 179.265 -7.52081 -0.768783 0
M  V30 2004 H 180.533 -7.54516 -1.9577 0
M  V30 2005 N 184.763 -0.387143 -1.52771 0
M  V30 2006 C 186.012 0.19697 -2.00736 0
M  V30 2007 C 186.325 1.48082 -1.27793 0
M  V30 2008 O 187.531 2.14485 -1.66458 0
M  V30 2009 C 185.987 0.401568 -3.57653 0
M  V30 2010 C 185.595 -0.868907 -4.39493 0
M  V30 2011 C 187.339 0.942164 -4.13912 0
M  V30 2012 C 185.246 -0.632705 -5.88006 0
M  V30 2013 H 184.176 0.0773827 -0.750019 0
M  V30 2014 H 186.827 -0.50921 -1.76293 0
M  V30 2015 H 185.209 1.16954 -3.78335 0
M  V30 2016 H 186.383 -1.64133 -4.30577 0
M  V30 2017 H 184.698 -1.33429 -3.94443 0
M  V30 2018 H 187.295 1.13455 -5.22525 0
M  V30 2019 H 187.638 1.9106 -3.69867 0
M  V30 2020 H 188.171 0.233814 -3.97112 0
M  V30 2021 H 184.91 -1.57208 -6.36369 0
M  V30 2022 H 184.43 0.100825 -5.99715 0
M  V30 2023 H 186.109 -0.26642 -6.46451 0
M  V30 2024 N 186.241 1.57166 -0.116904 0
M  V30 2025 C 187.489 1.94737 0.540533 0
M  V30 2026 C 187.81 1.00096 1.67349 0
M  V30 2027 O 187.08 0.0568854 1.95817 0
M  V30 2028 H 185.66 0.718981 0.202669 0
M  V30 2029 H 188.322 1.94017 -0.185353 0
M  V30 2030 H 187.418 2.97719 0.936483 0
M  V30 2031 N 187.719 -0.156864 1.56817 0
M  V30 2032 C 188.965 -0.872416 1.83076 0
M  V30 2033 C 189.298 -1.81261 0.697001 0
M  V30 2034 O 188.573 -1.92171 -0.30008 0
M  V30 2035 C 188.856 -1.65551 3.19789 0
M  V30 2036 C 188.709 -0.737467 4.43713 0
M  V30 2037 C 190.028 -2.62012 3.53606 0
M  V30 2038 H 187.147 -0.315715 0.665953 0
M  V30 2039 H 189.789 -0.138004 1.89498 0
M  V30 2040 H 187.939 -2.28159 3.14445 0
M  V30 2041 H 189.611 -0.123143 4.61136 0
M  V30 2042 H 187.854 -0.0464067 4.33775 0
M  V30 2043 H 188.525 -1.32122 5.35955 0
M  V30 2044 H 191.001 -2.09525 3.59497 0
M  V30 2045 H 189.877 -3.13861 4.50314 0
M  V30 2046 H 190.138 -3.42902 2.79053 0
M  V30 2047 N 189.197 -1.51736 -0.425897 0
M  V30 2048 C 190.127 -1.76827 -1.52494 0
M  V30 2049 C 191.108 -0.618524 -1.58456 0
M  V30 2050 O 192.293 -0.862416 -1.74 0
M  V30 2051 C 189.423 -1.90374 -2.90474 0
M  V30 2052 C 188.377 -3.0588 -2.99369 0
M  V30 2053 C 187.703 -3.04625 -4.3944 0
M  V30 2054 C 189.003 -4.45644 -2.72394 0
M  V30 2055 H 190.697 -2.68855 -1.31748 0
M  V30 2056 H 188.243 -1.29372 -0.632362 0
M  V30 2057 H 190.196 -2.0651 -3.6733 0
M  V30 2058 H 188.92 -0.95004 -3.12477 0
M  V30 2059 H 187.579 -2.89467 -2.24954 0
M  V30 2060 H 187.227 -2.0701 -4.58428 0
M  V30 2061 H 186.927 -3.82195 -4.46319 0
M  V30 2062 H 188.451 -3.22869 -5.18255 0
M  V30 2063 H 189.865 -4.62348 -3.38979 0
M  V30 2064 H 188.262 -5.25006 -2.9067 0
M  V30 2065 H 189.332 -4.54893 -1.67929 0
M  V30 2066 N 190.675 0.682077 -1.42076 0
M  V30 2067 C 191.924 1.43786 -1.41451 0
M  V30 2068 C 192.237 1.95574 -0.0317074 0
M  V30 2069 O 193.443 2.71326 0.0971462 0
M  V30 2070 C 191.899 2.60071 -2.48779 0
M  V30 2071 C 191.507 2.15013 -3.93031 0
M  V30 2072 C 193.251 3.37626 -2.57311 0
M  V30 2073 C 191.158 3.28336 -4.91883 0
M  V30 2074 H 190.088 0.540143 -0.526082 0
M  V30 2075 H 192.739 0.739157 -1.67955 0
M  V30 2076 H 191.121 3.32275 -2.15429 0
M  V30 2077 H 192.295 1.5001 -4.35699 0
M  V30 2078 H 190.61 1.50416 -3.88284 0
M  V30 2079 H 193.207 4.22012 -3.28345 0
M  V30 2080 H 193.55 3.83727 -1.61429 0
M  V30 2081 H 194.083 2.72488 -2.89819 0
M  V30 2082 H 190.822 2.87234 -5.89217 0
M  V30 2083 H 190.342 3.92145 -4.53853 0
M  V30 2084 H 192.021 3.93913 -5.13265 0
M  V30 2085 N 192.153 1.28127 0.917671 0
M  V30 2086 C 193.401 1.14825 1.66312 0
M  V30 2087 C 193.722 -0.304379 1.9261 0
M  V30 2088 O 192.992 -1.21149 1.53947 0
M  V30 2089 H 191.572 0.421953 0.616413 0
M  V30 2090 H 194.234 1.608 1.10134 0
M  V30 2091 H 193.33 1.68489 2.62712 0
M  V30 2092 N 193.631 -1.12557 1.10312 0
M  V30 2093 C 194.578 -2.18247 0.750781 0
M  V30 2094 C 195.548 -1.63853 -0.272293 0
M  V30 2095 O 196.733 -1.90195 -0.151862 0
M  V30 2096 C 193.873 -3.44591 0.187379 0
M  V30 2097 C 192.986 -4.13046 1.2656 0
M  V30 2098 C 192.121 -5.27034 0.663978 0
M  V30 2099 C 191.16 -5.87353 1.72287 0
M  V30 2100 N 190.297 -6.92757 1.1416 0
M  V30 2101 H 195.137 -2.47732 1.65628 0
M  V30 2102 H 192.674 -1.21629 0.827337 0
M  V30 2103 H 194.632 -4.16904 -0.157148 0
M  V30 2104 H 193.262 -3.15527 -0.681355 0
M  V30 2105 H 192.314 -3.38924 1.72727 0
M  V30 2106 H 193.626 -4.53947 2.06721 0
M  V30 2107 H 192.78 -6.06104 0.268824 0
M  V30 2108 H 191.519 -4.87407 -0.169082 0
M  V30 2109 H 190.524 -5.06971 2.12746 0
M  V30 2110 H 191.749 -6.29051 2.55875 0
M  V30 2111 H 189.695 -6.5517 0.329984 0
M  V30 2112 H 189.612 -7.3225 1.88007 0
M  V30 2113 H 190.88 -7.75658 0.772956 0
M  V30 2114 N 195.109 -0.891671 -1.2995 0
M  V30 2115 C 196.357 -0.512486 -1.95494 0
M  V30 2116 C 196.678 0.942776 -1.70695 0
M  V30 2117 O 195.948 1.66374 -1.03424 0
M  V30 2118 H 194.528 -0.186533 -0.723336 0
M  V30 2119 H 197.19 -1.13621 -1.58355 0
M  V30 2120 H 196.286 -0.688342 -3.04415 0
M  V30 2121 N 196.587 1.43421 -0.653314 0
M  V30 2122 C 197.517 2.33487 0.0246656 0
M  V30 2123 C 198.498 1.49475 0.811863 0
M  V30 2124 O 199.683 1.78139 0.773322 0
M  V30 2125 C 196.813 3.32841 0.99166 0
M  V30 2126 C 195.767 4.26842 0.314568 0
M  V30 2127 C 195.093 5.16236 1.39302 0
M  V30 2128 C 196.393 5.16243 -0.793095 0
M  V30 2129 H 198.087 2.90427 -0.727481 0
M  V30 2130 H 195.633 1.39649 -0.351287 0
M  V30 2131 H 197.586 3.94747 1.47487 0
M  V30 2132 H 196.31 2.74158 1.77497 0
M  V30 2133 H 194.969 3.663 -0.148199 0
M  V30 2134 H 194.617 4.53891 2.16776 0
M  V30 2135 H 194.317 5.79948 0.945223 0
M  V30 2136 H 195.841 5.81015 1.87759 0
M  V30 2137 H 197.255 5.71958 -0.392039 0
M  V30 2138 H 195.652 5.88676 -1.16536 0
M  V30 2139 H 196.722 4.55927 -1.65103 0
M  V30 2140 N 198.065 0.39524 1.52563 0
M  V30 2141 C 199.015 -0.4541 2.23432 0
M  V30 2142 C 199.999 -1.02482 1.24042 0
M  V30 2143 O 201.191 -0.949938 1.49349 0
M  V30 2144 C 198.32 -1.57769 3.049 0
M  V30 2145 C 197.406 -1.01842 4.1169 0
M  V30 2146 N 197.797 -0.184613 5.05463 0
M  V30 2147 C 196.095 -1.29033 4.26927 0
M  V30 2148 C 196.796 0.125013 5.81566 0
M  V30 2149 N 195.772 -0.480498 5.41472 0
M  V30 2150 H 199.574 0.189413 2.93289 0
M  V30 2151 H 197.088 0.204877 1.61102 0
M  V30 2152 H 199.085 -2.19862 3.54212 0
M  V30 2153 H 197.745 -2.22397 2.36579 0
M  V30 2154 H 198.756 0.178602 5.17592 0
M  V30 2155 H 195.433 -1.93721 3.69836 0
M  V30 2156 H 196.823 0.800962 6.67109 0
M  V30 2157 N 199.544 -1.57102 0.125237 0
M  V30 2158 C 200.454 -2.19191 -0.8362 0
M  V30 2159 C 201.47 -1.16985 -1.28805 0
M  V30 2160 O 202.646 -1.49479 -1.34974 0
M  V30 2161 C 199.711 -2.78407 -2.06617 0
M  V30 2162 C 198.772 -3.9567 -1.66565 0
M  V30 2163 C 198.005 -4.52052 -2.83698 0
M  V30 2164 O 198.228 -4.07326 -3.99302 0
M  V30 2165 O 197.162 -5.42645 -2.60423 0
M  V30 2166 H 200.988 -3.01816 -0.337776 0
M  V30 2167 H 198.573 -1.4906 -0.100695 0
M  V30 2168 H 200.455 -3.16129 -2.7864 0
M  V30 2169 H 199.13 -1.9881 -2.55453 0
M  V30 2170 H 198.037 -3.62705 -0.916296 0
M  V30 2171 H 199.37 -4.76722 -1.22464 0
M  V30 2172 N 201.022 0.148545 -1.56898 0
M  V30 2173 C 202.269 0.861418 -1.83264 0
M  V30 2174 C 202.597 1.81239 -0.705883 0
M  V30 2175 O 201.852 1.93305 0.305212 0
M  V30 2176 C 202.151 1.67064 -3.1595 0
M  V30 2177 C 201.817 0.866591 -4.42494 0
M  V30 2178 C 200.479 0.644762 -4.76861 0
M  V30 2179 C 202.831 0.30418 -5.20312 0
M  V30 2180 C 200.159 -0.15021 -5.86508 0
M  V30 2181 C 202.511 -0.477824 -6.30793 0
M  V30 2182 C 201.175 -0.710244 -6.63711 0
M  V30 2183 H 200.445 0.315215 -0.670612 0
M  V30 2184 H 203.092 0.125142 -1.91091 0
M  V30 2185 H 201.397 2.47698 -3.03567 0
M  V30 2186 H 203.094 2.22566 -3.33565 0
M  V30 2187 H 199.684 1.04955 -4.15551 0
M  V30 2188 H 203.868 0.462844 -4.94137 0
M  V30 2189 H 199.124 -0.339796 -6.10455 0
M  V30 2190 H 203.298 -0.92076 -6.90286 0
M  V30 2191 H 200.925 -1.3281 -7.48509 0
M  V30 2192 N 202.5 1.5196 0.417844 0
M  V30 2193 C 203.777 1.56146 1.17803 0
M  V30 2194 C 204.157 0.337275 2.08388 0
M  V30 2195 O 203.505 -0.676447 2.18258 0
M  V30 2196 C 203.715 2.88566 1.96293 0
M  V30 2197 C 205.063 3.41244 2.52662 0
M  V30 2198 O 206.087 2.90247 2.06483 0
M  V30 2199 O 204.946 4.30273 3.36938 0
M  V30 2200 H 202.04 0.628598 0.537395 0
M  V30 2201 H 204.586 1.64283 0.425331 0
M  V30 2202 H 203.358 3.69116 1.2988 0
M  V30 2203 H 202.981 2.83681 2.78587 0
M  V30 2204 N 203.978 -0.674533 1.42435 0
M  V30 2205 C 205.203 -1.46784 1.46524 0
M  V30 2206 C 205.628 -1.87938 0.078066 0
M  V30 2207 O 204.986 -1.56014 -0.92354 0
M  V30 2208 C 205.034 -2.69307 2.39805 0
M  V30 2209 O 204.138 -3.67587 1.86959 0
M  V30 2210 H 203.479 -0.440959 0.496439 0
M  V30 2211 H 206.009 -0.827326 1.87127 0
M  V30 2212 H 206.019 -3.17374 2.56393 0
M  V30 2213 H 204.694 -2.38692 3.40586 0
M  V30 2214 H 203.271 -3.2662 1.79927 0
M  V30 2215 N 205.456 -1.28612 -0.910864 0
M  V30 2216 C 206.386 -1.15326 -2.03032 0
M  V30 2217 C 207.367 -0.0502924 -1.70026 0
M  V30 2218 O 208.552 -0.227797 -1.92859 0
M  V30 2219 C 205.682 -0.817343 -3.37545 0
M  V30 2220 C 204.636 -1.8754 -3.84724 0
M  V30 2221 C 203.962 -1.39305 -5.16235 0
M  V30 2222 C 205.262 -3.28244 -4.06267 0
M  V30 2223 H 206.956 -2.08975 -2.14406 0
M  V30 2224 H 204.502 -1.00612 -1.03021 0
M  V30 2225 H 206.455 -0.711151 -4.15356 0
M  V30 2226 H 205.179 0.154846 -3.26233 0
M  V30 2227 H 203.838 -1.97079 -3.09121 0
M  V30 2228 H 203.486 -0.409846 -5.01328 0
M  V30 2229 H 203.186 -2.10057 -5.48771 0
M  V30 2230 H 204.71 -1.30014 -5.96598 0
M  V30 2231 H 206.124 -3.21611 -4.74594 0
M  V30 2232 H 204.521 -3.96855 -4.5014 0
M  V30 2233 H 205.591 -3.72048 -3.10979 0
M  V30 2234 N 206.934 1.1197 -1.10907 0
M  V30 2235 C 207.881 2.17846 -0.762345 0
M  V30 2236 C 208.851 1.63995 0.263599 0
M  V30 2237 O 210.036 1.90273 0.141773 0
M  V30 2238 C 207.176 3.44487 -0.205651 0
M  V30 2239 C 206.289 4.12369 -1.28748 0
M  V30 2240 C 205.424 5.26674 -0.691919 0
M  V30 2241 C 204.463 5.86431 -1.75399 0
M  V30 2242 N 203.6 6.92142 -1.17833 0
M  V30 2243 H 208.44 2.46851 -1.6694 0
M  V30 2244 H 205.977 1.21188 -0.833776 0
M  V30 2245 H 207.935 4.16981 0.135037 0
M  V30 2246 H 206.565 3.15884 0.664613 0
M  V30 2247 H 205.617 3.38003 -1.74522 0
M  V30 2248 H 206.929 4.52844 -2.09125 0
M  V30 2249 H 206.083 6.05953 -0.300963 0
M  V30 2250 H 204.822 4.8749 0.143232 0
M  V30 2251 H 203.827 5.05835 -2.15432 0
M  V30 2252 H 205.052 6.27685 -2.59208 0
M  V30 2253 H 202.998 6.54985 -0.364725 0
M  V30 2254 H 202.915 7.31242 -1.91887 0
M  V30 2255 H 204.183 7.75237 -0.81408 0
M  V30 2256 N 208.412 0.89855 1.29475 0
M  V30 2257 C 209.689 0.443416 1.90508 0
M  V30 2258 C 210.069 -1.07685 1.81569 0
M  V30 2259 O 209.417 -1.9182 1.24166 0
M  V30 2260 C 209.627 0.956708 3.35631 0
M  V30 2261 C 210.975 0.999728 4.12663 0
M  V30 2262 O 211.999 0.904299 3.4453 0
M  V30 2263 O 210.858 1.14289 5.34416 0
M  V30 2264 H 207.952 0.138025 0.815401 0
M  V30 2265 H 210.498 0.98834 1.37949 0
M  V30 2266 H 209.27 2.00067 3.36287 0
M  V30 2267 H 208.893 0.391728 3.95666 0
M  V30 2268 N 209.89 -1.43072 0.660911 0
M  V30 2269 C 211.301 -1.84932 0.256348 0
M  V30 2270 C 211.652 -1.55325 -1.19868 0
M  V30 2271 O 210.777 -1.00607 -1.91591 0
M  V30 2272 C 211.372 -3.35684 0.458475 0
M  V30 2273 C 209.931 -3.76245 0.108161 0
M  V30 2274 C 209.078 -2.66749 0.757641 0
M  V30 2275 H 212.029 -1.33116 0.864051 0
M  V30 2276 H 212.05 -3.79365 -0.293683 0
M  V30 2277 H 211.562 -3.572 1.51755 0
M  V30 2278 H 209.663 -3.60338 -0.948014 0
M  V30 2279 H 209.776 -4.76058 0.538992 0
M  V30 2280 H 208.14 -2.53989 0.190185 0
M  V30 2281 H 208.923 -2.91092 1.81989 0
M  V30 2282 N 211.368 -0.403325 -1.52352 0
M  V30 2283 C 212.278 0.432009 -2.30588 0
M  V30 2284 C 213.294 1.05884 -1.38075 0
M  V30 2285 O 214.47 1.06161 -1.71148 0
M  V30 2286 C 211.535 1.53669 -3.10784 0
M  V30 2287 C 210.596 0.933525 -4.19027 0
M  V30 2288 C 209.829 1.98557 -4.9539 0
M  V30 2289 O 210.052 3.20283 -4.71991 0
M  V30 2290 O 208.986 1.59504 -5.80381 0
M  V30 2291 H 212.812 -0.205739 -3.03002 0
M  V30 2292 H 210.397 -0.166675 -1.48467 0
M  V30 2293 H 212.279 2.17814 -3.60742 0
M  V30 2294 H 210.954 2.15915 -2.41169 0
M  V30 2295 H 209.861 0.254954 -3.7323 0
M  V30 2296 H 211.194 0.35508 -4.90918 0
M  V30 2297 N 212.846 1.57033 -0.133567 0
M  V30 2298 C 214.092 1.95976 0.521649 0
M  V30 2299 C 214.425 1.01779 1.65393 0
M  V30 2300 O 213.7 0.0576581 1.94415 0
M  V30 2301 C 213.983 3.44738 1.04057 0
M  V30 2302 C 213.836 4.49711 -0.0892897 0
M  V30 2303 C 215.155 3.95682 1.92675 0
M  V30 2304 H 212.274 0.712579 0.188149 0
M  V30 2305 H 214.916 1.88813 -0.212076 0
M  V30 2306 H 213.066 3.50973 1.66583 0
M  V30 2307 H 214.738 4.55565 -0.725152 0
M  V30 2308 H 212.981 4.27261 -0.750378 0
M  V30 2309 H 213.652 5.51099 0.315284 0
M  V30 2310 H 216.128 3.91841 1.39998 0
M  V30 2311 H 215.004 5.00262 2.25897 0
M  V30 2312 H 215.265 3.37239 2.85872 0
M  V30 2313 N 214.325 -0.140222 1.56975 0
M  V30 2314 C 215.273 -1.19207 1.99731 0
M  V30 2315 C 216.267 -1.44089 0.890777 0
M  V30 2316 O 217.473 -1.44301 1.07597 0
M  V30 2317 H 213.848 -0.40142 0.635898 0
M  V30 2318 H 215.819 -0.804813 2.87342 0
M  V30 2319 C 214.568 -2.51617 2.39967 0
M  V30 2320 H 213.891 -2.33303 3.24669 0
M  V30 2321 H 215.331 -3.23827 2.73701 0
M  V30 2322 C 213.79 -3.12654 1.25496 0
M  V30 2323 O 214.32 -3.97786 0.559371 0
M  V30 2324 N 212.526 -2.72206 1.01746 0
M  V30 2325 H 212.073 -2.03074 1.58489 0
M  V30 2326 H 212.031 -3.13377 0.253461 0
M  V30 2327 N 215.803 -1.52179 -0.40978 0
M  V30 2328 C 216.713 -1.78364 -1.52392 0
M  V30 2329 C 217.729 -0.669183 -1.60617 0
M  V30 2330 O 218.905 -0.954518 -1.77344 0
M  V30 2331 C 215.97 -1.92822 -2.88133 0
M  V30 2332 C 215.031 -3.16725 -2.898 0
M  V30 2333 C 214.264 -3.30483 -4.19067 0
M  V30 2334 O 214.487 -2.49522 -5.12928 0
M  V30 2335 O 213.421 -4.2363 -4.27576 0
M  V30 2336 H 217.247 -2.72931 -1.33201 0
M  V30 2337 H 214.832 -1.37016 -0.59557 0
M  V30 2338 H 216.714 -2.04157 -3.68643 0
M  V30 2339 H 215.389 -1.01444 -3.07393 0
M  V30 2340 H 214.296 -3.10848 -2.08146 0
M  V30 2341 H 215.629 -4.07881 -2.75489 0
M  V30 2342 N 217.281 0.66697 -1.42791 0
M  V30 2343 C 218.528 1.42699 -1.43678 0
M  V30 2344 C 218.856 1.94419 -0.0560425 0
M  V30 2345 O 218.111 1.7182 0.936831 0
M  V30 2346 C 218.41 2.6349 -2.4147 0
M  V30 2347 C 218.076 2.30267 -3.8767 0
M  V30 2348 C 216.738 2.20918 -4.27491 0
M  V30 2349 C 219.09 2.03435 -4.79858 0
M  V30 2350 C 216.418 1.82873 -5.57471 0
M  V30 2351 C 218.77 1.66892 -6.10188 0
M  V30 2352 C 217.434 1.56058 -6.49001 0
M  V30 2353 H 216.704 0.522171 -0.525755 0
M  V30 2354 H 219.351 0.759785 -1.75783 0
M  V30 2355 H 217.656 3.35279 -2.0272 0
M  V30 2356 H 219.353 3.21684 -2.39417 0
M  V30 2357 H 215.943 2.38449 -3.56146 0
M  V30 2358 H 220.127 2.09586 -4.49875 0
M  V30 2359 H 215.383 1.7306 -5.86396 0
M  V30 2360 H 219.557 1.45157 -6.81104 0
M  V30 2361 H 217.184 1.26348 -7.49627 0
M  V30 2362 N 218.759 1.29093 0.90403 0
M  V30 2363 C 220.175 1.07011 1.1841 0
M  V30 2364 C 220.375 -0.181358 2.00682 0
M  V30 2365 O 219.431 -0.880331 2.36657 0
M  V30 2366 C 220.744 2.32311 1.90924 0
M  V30 2367 C 222.292 2.37587 2.03768 0
M  V30 2368 C 222.767 3.62679 2.79693 0
M  V30 2369 N 224.258 3.63376 2.87249 0
M  V30 2370 C 224.993 4.56848 3.46522 0
M  V30 2371 N 224.489 5.60648 4.06996 0
M  V30 2372 N 226.282 4.44426 3.44154 0
M  V30 2373 H 218.433 2.09412 0.354993 0
M  V30 2374 H 220.696 0.922181 0.219742 0
M  V30 2375 H 220.402 3.23536 1.37905 0
M  V30 2376 H 220.276 2.39483 2.91424 0
M  V30 2377 H 222.663 1.46853 2.55965 0
M  V30 2378 H 222.744 2.34403 1.02415 0
M  V30 2379 H 222.388 4.53762 2.28173 0
M  V30 2380 H 222.318 3.63119 3.81381 0
M  V30 2381 H 224.809 2.88321 2.44293 0
M  V30 2382 H 225.122 6.28101 4.50232 0
M  V30 2383 H 223.467 5.64463 4.05471 0
M  V30 2384 H 226.658 3.62529 2.96126 0
M  V30 2385 H 226.831 5.17457 3.90054 0
M  V30 2386 N 220.237 -1.11381 1.11499 0
M  V30 2387 C 221.653 -1.35143 0.849031 0
M  V30 2388 C 221.853 -1.94515 -0.525938 0
M  V30 2389 O 220.909 -2.1785 -1.27662 0
M  V30 2390 C 222.222 -2.28249 1.95762 0
M  V30 2391 C 223.77 -2.41812 1.98736 0
M  V30 2392 C 224.245 -3.3824 3.088 0
M  V30 2393 N 225.736 -3.45803 3.08179 0
M  V30 2394 C 226.471 -4.20358 3.89982 0
M  V30 2395 N 225.967 -4.97884 4.8175 0
M  V30 2396 N 227.76 -4.15877 3.78157 0
M  V30 2397 H 219.911 -0.712062 2.00109 0
M  V30 2398 H 222.174 -0.376025 0.870235 0
M  V30 2399 H 221.88 -1.91817 2.94787 0
M  V30 2400 H 221.754 -3.28473 1.85433 0
M  V30 2401 H 224.141 -2.77518 1.00338 0
M  V30 2402 H 224.222 -1.41437 2.13141 0
M  V30 2403 H 223.866 -3.03261 4.07425 0
M  V30 2404 H 223.796 -4.38471 2.91635 0
M  V30 2405 H 226.287 -2.90506 2.41691 0
M  V30 2406 H 226.6 -5.52142 5.40702 0
M  V30 2407 H 224.945 -4.97043 4.85771 0
M  V30 2408 H 228.136 -3.544 3.05808 0
M  V30 2409 H 228.309 -4.73723 4.42143 0
M  V30 2410 N 221.715 -0.905404 -1.28997 0
M  V30 2411 C 222.662 -0.385892 -2.27551 0
M  V30 2412 C 223.632 0.535113 -1.57244 0
M  V30 2413 O 224.817 0.459119 -1.85194 0
M  V30 2414 C 221.957 0.375461 -3.43051 0
M  V30 2415 C 221.07 -0.577092 -4.28128 0
M  V30 2416 C 220.205 0.201879 -5.30816 0
M  V30 2417 C 219.244 -0.744829 -6.07551 0
M  V30 2418 N 218.381 9.42587e-05 -7.021 0
M  V30 2419 H 223.221 -1.23139 -2.71368 0
M  V30 2420 H 220.758 -0.618542 -1.33463 0
M  V30 2421 H 222.716 0.832992 -4.088 0
M  V30 2422 H 221.346 1.18537 -3.00248 0
M  V30 2423 H 220.398 -1.15315 -3.62501 0
M  V30 2424 H 221.71 -1.30152 -4.8152 0
M  V30 2425 H 220.864 0.720351 -6.02408 0
M  V30 2426 H 219.603 0.959413 -4.7817 0
M  V30 2427 H 218.608 -1.27475 -5.34818 0
M  V30 2428 H 219.833 -1.50178 -6.62286 0
M  V30 2429 H 217.779 0.739791 -6.51815 0
M  V30 2430 H 217.696 -0.664321 -7.53076 0
M  V30 2431 H 218.964 0.498644 -7.77903 0
M  V30 2432 N 223.193 1.4272 -0.668489 0
M  V30 2433 C 224.126 2.28111 0.0637898 0
M  V30 2434 C 225.104 1.40705 0.814912 0
M  V30 2435 O 226.288 1.70146 0.81134 0
M  V30 2436 C 223.415 3.20429 1.0974 0
M  V30 2437 C 222.461 4.24197 0.442579 0
M  V30 2438 S 223.294 5.29563 -0.795173 0
M  V30 2439 C 224.45 6.25449 0.237516 0
M  V30 2440 H 224.683 2.8987 -0.660521 0
M  V30 2441 H 222.216 1.47456 -0.457821 0
M  V30 2442 H 224.174 3.74158 1.68868 0
M  V30 2443 H 222.835 2.57818 1.79411 0
M  V30 2444 H 222.028 4.88954 1.22227 0
M  V30 2445 H 221.63 3.73925 -0.0749554 0
M  V30 2446 H 223.922 6.68524 1.09915 0
M  V30 2447 H 224.865 7.07104 -0.375421 0
M  V30 2448 H 225.273 5.61511 0.580167 0
M  V30 2449 N 224.671 0.411399 1.52136 0
M  V30 2450 C 226.087 0.0623865 1.59478 0
M  V30 2451 C 226.287 -1.42554 1.4241 0
M  V30 2452 O 225.343 -2.19263 1.2522 0
M  V30 2453 C 226.656 0.559331 2.95452 0
M  V30 2454 C 228.204 0.517503 3.08692 0
M  V30 2455 C 228.679 0.990994 4.4715 0
M  V30 2456 N 230.17 0.947908 4.53397 0
M  V30 2457 C 230.905 1.28544 5.58806 0
M  V30 2458 N 230.401 1.69454 6.71757 0
M  V30 2459 N 232.194 1.20526 5.49026 0
M  V30 2460 H 224.345 1.37982 1.61477 0
M  V30 2461 H 226.608 0.566977 0.759764 0
M  V30 2462 H 226.314 1.59938 3.1323 0
M  V30 2463 H 226.188 -0.0298014 3.77188 0
M  V30 2464 H 228.575 -0.513505 2.90598 0
M  V30 2465 H 228.656 1.14272 2.28857 0
M  V30 2466 H 228.3 2.02034 4.65988 0
M  V30 2467 H 228.23 0.34257 5.25485 0
M  V30 2468 H 230.721 0.647157 3.72317 0
M  V30 2469 H 231.034 1.93513 7.48179 0
M  V30 2470 H 229.379 1.73359 6.73032 0
M  V30 2471 H 232.57 0.884505 4.59667 0
M  V30 2472 H 232.743 1.47161 6.31069 0
M  V30 2473 N 226.149 -1.5696 0.141893 0
M  V30 2474 C 227.096 -2.16501 -0.799737 0
M  V30 2475 C 228.066 -1.09643 -1.24771 0
M  V30 2476 O 229.251 -1.3766 -1.32115 0
M  V30 2477 C 226.391 -2.78679 -2.03549 0
M  V30 2478 C 225.504 -3.99914 -1.6338 0
M  V30 2479 C 224.639 -4.50106 -2.82096 0
M  V30 2480 C 223.678 -5.63819 -2.38275 0
M  V30 2481 N 222.815 -6.08651 -3.49983 0
M  V30 2482 H 227.655 -2.96632 -0.285179 0
M  V30 2483 H 225.192 -1.46533 -0.129053 0
M  V30 2484 H 227.15 -3.1287 -2.75986 0
M  V30 2485 H 225.78 -2.012 -2.52425 0
M  V30 2486 H 224.832 -3.71735 -0.807279 0
M  V30 2487 H 226.144 -4.82311 -1.27192 0
M  V30 2488 H 225.298 -4.86325 -3.62729 0
M  V30 2489 H 224.037 -3.66706 -3.21525 0
M  V30 2490 H 223.042 -5.2718 -1.56081 0
M  V30 2491 H 224.267 -6.49 -1.99938 0
M  V30 2492 H 222.213 -5.28188 -3.89042 0
M  V30 2493 H 222.13 -6.85961 -3.17794 0
M  V30 2494 H 223.398 -6.49515 -4.30988 0
M  V30 2495 N 227.627 0.131896 -1.57047 0
M  V30 2496 C 228.874 0.841932 -1.84168 0
M  V30 2497 C 229.202 1.8048 -0.725066 0
M  V30 2498 O 228.457 1.93618 0.284692 0
M  V30 2499 C 228.756 1.63703 -3.17704 0
M  V30 2500 C 228.422 0.81961 -4.43388 0
M  V30 2501 C 227.084 0.594148 -4.77518 0
M  V30 2502 C 229.436 0.248977 -5.20605 0
M  V30 2503 C 226.764 -0.212409 -5.86315 0
M  V30 2504 C 229.116 -0.544701 -6.30251 0
M  V30 2505 C 227.78 -0.780599 -6.6292 0
M  V30 2506 H 227.05 0.308085 -0.673917 0
M  V30 2507 H 229.697 0.104867 -1.91213 0
M  V30 2508 H 228.002 2.44464 -3.06177 0
M  V30 2509 H 229.699 2.19015 -3.35907 0
M  V30 2510 H 226.289 1.00542 -4.16641 0
M  V30 2511 H 230.473 0.410408 -4.946 0
M  V30 2512 H 225.729 -0.404524 -6.1006 0
M  V30 2513 H 229.903 -0.993922 -6.89271 0
M  V30 2514 H 227.53 -1.40742 -7.47058 0
M  V30 2515 N 229.106 1.52395 0.401703 0
M  V30 2516 C 230.331 1.70972 1.17403 0
M  V30 2517 C 230.756 0.421615 1.83314 0
M  V30 2518 O 230.114 -0.621564 1.70312 0
M  V30 2519 C 230.162 2.85151 2.20728 0
M  V30 2520 O 229.266 2.51238 3.27037 0
M  V30 2521 H 228.607 0.568927 0.342372 0
M  V30 2522 H 231.137 1.99131 0.469891 0
M  V30 2523 H 231.147 3.10279 2.64936 0
M  V30 2524 H 229.822 3.78603 1.7214 0
M  V30 2525 H 228.399 2.36808 2.88057 0
M  V30 2526 N 230.584 -0.659388 1.43143 0
M  V30 2527 C 231.494 -1.80167 1.50256 0
M  V30 2528 C 232.51 -1.69571 0.390106 0
M  V30 2529 O 233.686 -1.90849 0.643319 0
M  V30 2530 C 230.751 -3.16409 1.41725 0
M  V30 2531 C 229.812 -3.38848 2.63591 0
M  V30 2532 C 229.045 -4.68591 2.55458 0
M  V30 2533 O 229.268 -5.47532 1.59891 0
M  V30 2534 O 228.202 -4.92614 3.45854 0
M  V30 2535 H 232.028 -1.77121 2.46702 0
M  V30 2536 H 229.613 -0.817092 1.25076 0
M  V30 2537 H 231.495 -3.9768 1.39387 0
M  V30 2538 H 230.17 -3.20059 0.484118 0
M  V30 2539 H 229.077 -2.57366 2.71502 0
M  V30 2540 H 230.41 -3.4004 3.55856 0
M  V30 2541 N 232.062 -1.29571 -0.897171 0
M  V30 2542 C 232.972 -1.16808 -2.03453 0
M  V30 2543 C 233.988 -0.0907471 -1.73763 0
M  V30 2544 O 235.164 -0.303312 -1.99103 0
M  V30 2545 C 232.229 -0.848264 -3.36163 0
M  V30 2546 C 231.29 -2.0097 -3.79354 0
M  V30 2547 C 230.523 -1.70505 -5.05731 0
M  V30 2548 O 230.746 -0.62718 -5.66941 0
M  V30 2549 O 229.68 -2.5538 -5.45036 0
M  V30 2550 H 233.506 -2.12325 -2.17144 0
M  V30 2551 H 231.091 -1.09047 -1.02123 0
M  V30 2552 H 232.973 -0.684581 -4.15802 0
M  V30 2553 H 231.648 0.0771071 -3.23608 0
M  V30 2554 H 230.555 -2.22863 -3.00471 0
M  V30 2555 H 231.888 -2.91636 -3.96496 0
M  V30 2556 N 233.54 1.10788 -1.12088 0
M  V30 2557 C 234.487 2.17025 -0.785407 0
M  V30 2558 C 235.457 1.64265 0.246191 0
M  V30 2559 O 236.642 1.90412 0.121584 0
M  V30 2560 C 233.782 3.44249 -0.242177 0
M  V30 2561 C 232.895 4.1098 -1.33115 0
M  V30 2562 C 232.03 5.25911 -0.747741 0
M  V30 2563 C 231.069 5.84538 -1.81609 0
M  V30 2564 N 230.206 6.90853 -1.25167 0
M  V30 2565 H 235.046 2.45066 -1.69548 0
M  V30 2566 H 232.583 1.20297 -0.846582 0
M  V30 2567 H 234.541 4.17101 0.0908026 0
M  V30 2568 H 233.171 3.16571 0.631072 0
M  V30 2569 H 232.223 3.36133 -1.78097 0
M  V30 2570 H 233.535 4.50601 -2.13917 0
M  V30 2571 H 232.689 6.056 -0.365216 0
M  V30 2572 H 231.428 4.87614 0.0915188 0
M  V30 2573 H 230.433 5.03522 -2.20785 0
M  V30 2574 H 231.658 6.249 -2.6585 0
M  V30 2575 H 229.604 6.54562 -0.434174 0
M  V30 2576 H 229.521 7.29166 -1.99633 0
M  V30 2577 H 230.789 7.7433 -0.896259 0
M  V30 2578 N 235.018 0.912232 1.28515 0
M  V30 2579 C 236.267 0.540504 1.94323 0
M  V30 2580 C 236.58 -0.920044 1.72611 0
M  V30 2581 O 237.786 -1.39986 2.32629 0
M  V30 2582 C 236.242 0.915803 3.48053 0
M  V30 2583 C 235.85 2.39598 3.78546 0
M  V30 2584 C 237.594 0.614588 4.20027 0
M  V30 2585 C 235.501 2.71148 5.25578 0
M  V30 2586 H 234.431 0.198418 0.727424 0
M  V30 2587 H 237.082 1.11094 1.46049 0
M  V30 2588 H 235.464 0.274168 3.9505 0
M  V30 2589 H 236.638 3.08422 3.42364 0
M  V30 2590 H 234.953 2.66749 3.1974 0
M  V30 2591 H 237.55 0.827002 5.28266 0
M  V30 2592 H 237.893 -0.447531 4.13887 0
M  V30 2593 H 238.426 1.21462 3.78803 0
M  V30 2594 H 235.165 3.76207 5.36794 0
M  V30 2595 H 234.685 2.0696 5.62963 0
M  V30 2596 H 236.364 2.58072 5.93302 0
M  V30 2597 N 236.496 -1.42363 0.676048 0
M  V30 2598 C 237.426 -2.33497 0.0124832 0
M  V30 2599 C 238.407 -1.50748 -0.787981 0
M  V30 2600 O 239.592 -1.79346 -0.744884 0
M  V30 2601 C 236.722 -3.34377 -0.938582 0
M  V30 2602 C 235.676 -4.27289 -0.246622 0
M  V30 2603 C 235.002 -5.18386 -1.31071 0
M  V30 2604 C 236.302 -5.14916 0.875125 0
M  V30 2605 H 237.996 -2.89233 0.773593 0
M  V30 2606 H 235.542 -1.39073 0.37346 0
M  V30 2607 H 237.495 -3.97044 -1.41188 0
M  V30 2608 H 236.219 -2.76947 -1.73113 0
M  V30 2609 H 234.878 -3.66018 0.206456 0
M  V30 2610 H 234.526 -4.57282 -2.09528 0
M  V30 2611 H 234.226 -5.81378 -0.852839 0
M  V30 2612 H 235.75 -5.83929 -1.78492 0
M  V30 2613 H 237.164 -5.71262 0.482983 0
M  V30 2614 H 235.561 -5.86747 1.25887 0
M  V30 2615 H 236.631 -4.53242 1.72335 0
M  V30 2616 N 237.974 -0.419461 -1.51915 0
M  V30 2617 C 239.199 0.154572 -2.06823 0
M  V30 2618 C 239.624 1.3722 -1.28656 0
M  V30 2619 O 238.982 1.78461 -0.319583 0
M  V30 2620 C 239.03 0.473172 -3.57482 0
M  V30 2621 O 238.134 1.56255 -3.81652 0
M  V30 2622 H 237.475 0.0096924 -0.663929 0
M  V30 2623 H 240.005 -0.595642 -1.95738 0
M  V30 2624 H 240.015 0.728825 -4.01438 0
M  V30 2625 H 238.69 -0.416873 -4.13805 0
M  V30 2626 H 237.267 1.29825 -3.49571 0
M  V30 2627 N 239.452 1.56882 -0.150215 0
M  V30 2628 C 240.382 2.19935 0.784284 0
M  V30 2629 C 241.363 1.14854 1.25469 0
M  V30 2630 O 242.548 1.43209 1.31168 0
M  V30 2631 C 239.678 2.82349 2.02229 0
M  V30 2632 C 238.632 3.93285 1.68853 0
M  V30 2633 C 237.958 4.42649 2.99944 0
M  V30 2634 C 239.258 5.13904 0.932714 0
M  V30 2635 H 240.952 2.9828 0.258781 0
M  V30 2636 H 238.498 1.43473 0.123029 0
M  V30 2637 H 240.451 3.25126 2.68088 0
M  V30 2638 H 239.175 2.0134 2.57157 0
M  V30 2639 H 237.834 3.5113 1.05371 0
M  V30 2640 H 237.482 3.58458 3.52869 0
M  V30 2641 H 237.182 5.17476 2.78374 0
M  V30 2642 H 238.706 4.88099 3.66868 0
M  V30 2643 H 240.12 5.53506 1.49345 0
M  V30 2644 H 238.517 5.94515 0.81684 0
M  V30 2645 H 239.587 4.84842 -0.0749568 0
M  V30 2646 N 240.93 -0.123565 1.57115 0
M  V30 2647 C 242.176 -0.833386 1.84885 0
M  V30 2648 C 242.509 -1.79742 0.735292 0
M  V30 2649 O 241.784 -1.92764 -0.25925 0
M  V30 2650 C 242.067 -1.5873 3.23228 0
M  V30 2651 C 241.92 -0.643183 4.45178 0
M  V30 2652 C 243.239 -2.54453 3.59085 0
M  V30 2653 H 240.358 -0.301518 0.6725 0
M  V30 2654 H 243 -0.097778 1.89748 0
M  V30 2655 H 241.15 -2.21438 3.19214 0
M  V30 2656 H 242.822 -0.0253015 4.61293 0
M  V30 2657 H 241.065 0.0456139 4.33776 0
M  V30 2658 H 241.736 -1.20724 5.38637 0
M  V30 2659 H 244.212 -2.01853 3.63861 0
M  V30 2660 H 243.088 -3.04238 4.5687 0
M  V30 2661 H 243.349 -3.36906 2.86264 0
M  V30 2662 N 242.408 -1.52605 -0.393616 0
M  V30 2663 C 243.656 -1.67093 -1.13685 0
M  V30 2664 C 243.977 -0.411011 -1.90619 0
M  V30 2665 O 243.247 0.574491 -1.87287 0
M  V30 2666 H 241.827 -0.615923 -0.422668 0
M  V30 2667 H 244.489 -1.89704 -0.447039 0
M  V30 2668 H 243.585 -2.51922 -1.84232 0
M  V30 2669 N 243.887 0.651787 -1.4349 0
M  V30 2670 C 244.817 1.77621 -1.51569 0
M  V30 2671 C 245.798 1.66022 -0.370253 0
M  V30 2672 O 246.983 1.85095 -0.587658 0
M  V30 2673 C 244.113 3.16056 -1.43966 0
M  V30 2674 C 243.067 3.4242 -2.56774 0
M  V30 2675 C 242.393 4.8067 -2.34223 0
M  V30 2676 C 243.693 3.37023 -3.99015 0
M  V30 2677 H 245.387 1.71117 -2.45681 0
M  V30 2678 H 242.933 0.821825 -1.18246 0
M  V30 2679 H 244.886 3.94472 -1.48221 0
M  V30 2680 H 243.61 3.23293 -0.463586 0
M  V30 2681 H 242.269 2.66375 -2.51873 0
M  V30 2682 H 241.917 4.84585 -1.34856 0
M  V30 2683 H 241.617 4.9927 -3.09844 0
M  V30 2684 H 243.141 5.61342 -2.40265 0
M  V30 2685 H 244.555 4.05374 -4.05395 0
M  V30 2686 H 242.952 3.67159 -4.74673 0
M  V30 2687 H 244.022 2.3518 -4.2405 0
M  V30 2688 N 245.365 1.30045 0.890287 0
M  V30 2689 C 246.59 1.21598 1.68014 0
M  V30 2690 C 247.015 -0.218678 1.86825 0
M  V30 2691 O 246.373 -1.15756 1.39536 0
M  V30 2692 C 246.421 1.94434 3.03691 0
M  V30 2693 O 245.525 1.2678 3.92429 0
M  V30 2694 H 244.866 0.420856 0.513592 0
M  V30 2695 H 247.396 1.71775 1.11151 0
M  V30 2696 H 247.406 2.03251 3.5377 0
M  V30 2697 H 246.081 2.98777 2.89318 0
M  V30 2698 H 244.658 1.26282 3.50866 0
M  V30 2699 N 246.843 -1.10192 1.12674 0
M  V30 2700 C 248.089 -1.82658 0.894847 0
M  V30 2701 C 248.444 -1.83666 -0.573107 0
M  V30 2702 O 247.737 -1.28816 -1.41835 0
M  V30 2703 C 247.931 -3.28552 1.4067 0
M  V30 2704 C 247.76 -3.41756 2.92289 0
M  V30 2705 C 246.53 -3.54021 3.60551 0
M  V30 2706 C 248.728 -3.34949 3.90274 0
M  V30 2707 N 246.71 -3.55827 5.0026 0
M  V30 2708 C 248.081 -3.43531 5.16127 0
M  V30 2709 C 250.136 -3.18565 3.8265 0
M  V30 2710 C 248.839 -3.37416 6.3525 0
M  V30 2711 C 250.865 -3.13772 5.01299 0
M  V30 2712 C 250.227 -3.22938 6.26012 0
M  V30 2713 H 246.326 -0.683044 0.380756 0
M  V30 2714 H 248.91 -1.31752 1.43351 0
M  V30 2715 H 247.081 -3.77946 0.895055 0
M  V30 2716 H 248.813 -3.88991 1.11661 0
M  V30 2717 H 245.568 -3.57135 3.1105 0
M  V30 2718 H 245.992 -3.60335 5.73138 0
M  V30 2719 H 250.634 -3.10354 2.87124 0
M  V30 2720 H 248.352 -3.44391 7.3104 0
M  V30 2721 H 251.938 -3.02242 4.97133 0
M  V30 2722 H 250.818 -3.19235 7.16281 0
M  V30 2723 N 248.321 -0.919034 -1.28029 0
M  V30 2724 C 249.254 -0.355887 -2.25408 0
M  V30 2725 C 250.232 0.542874 -1.5327 0
M  V30 2726 O 251.416 0.485338 -1.82145 0
M  V30 2727 C 248.543 0.490759 -3.35126 0
M  V30 2728 C 247.589 -0.343358 -4.25116 0
M  V30 2729 S 248.422 -1.75344 -5.05979 0
M  V30 2730 C 249.578 -0.914244 -6.19187 0
M  V30 2731 H 249.811 -1.18123 -2.72826 0
M  V30 2732 H 247.344 -0.720636 -1.36551 0
M  V30 2733 H 249.302 0.973404 -3.98792 0
M  V30 2734 H 247.963 1.29054 -2.86363 0
M  V30 2735 H 247.156 0.304266 -5.03081 0
M  V30 2736 H 246.758 -0.759851 -3.662 0
M  V30 2737 H 249.05 -0.146282 -6.77342 0
M  V30 2738 H 249.993 -1.66661 -6.88208 0
M  V30 2739 H 250.401 -0.460082 -5.62622 0
M  V30 2740 N 249.799 1.42003 -0.683588 0
M  V30 2741 C 251.076 1.95112 -0.138075 0
M  V30 2742 C 251.456 1.62359 1.34918 0
M  V30 2743 O 250.804 0.924311 2.08971 0
M  V30 2744 C 251.014 3.46505 -0.416581 0
M  V30 2745 C 252.362 4.23254 -0.337834 0
M  V30 2746 O 253.386 3.54468 -0.35082 0
M  V30 2747 O 252.245 5.45743 -0.287596 0
M  V30 2748 H 249.339 0.826961 -0.00797996 0
M  V30 2749 H 251.885 1.51784 -0.758924 0
M  V30 2750 H 250.657 3.63582 -1.4465 0
M  V30 2751 H 250.28 3.969 0.235839 0
M  V30 2752 N 251.277 0.427512 1.51691 0
M  V30 2753 C 252.523 -0.134744 2.02953 0
M  V30 2754 C 252.878 -1.41235 1.30654 0
M  V30 2755 O 252.171 -1.87168 0.409713 0
M  V30 2756 C 252.365 -0.418249 3.54944 0
M  V30 2757 C 252.194 0.830327 4.41968 0
M  V30 2758 C 250.964 1.36097 4.86627 0
M  V30 2759 C 253.162 1.7137 4.84909 0
M  V30 2760 N 251.144 2.56311 5.57833 0
M  V30 2761 C 252.515 2.76195 5.55082 0
M  V30 2762 C 254.57 1.72928 4.66905 0
M  V30 2763 C 253.273 3.82512 6.09161 0
M  V30 2764 C 255.299 2.78175 5.21894 0
M  V30 2765 C 254.661 3.8172 5.92004 0
M  V30 2766 H 250.76 -0.0103958 0.781931 0
M  V30 2767 H 253.344 0.585981 1.85673 0
M  V30 2768 H 251.515 -1.10801 3.7226 0
M  V30 2769 H 253.247 -0.970999 3.92879 0
M  V30 2770 H 250.002 0.916311 4.64651 0
M  V30 2771 H 250.426 3.17242 5.98069 0
M  V30 2772 H 255.068 0.942081 4.12171 0
M  V30 2773 H 252.786 4.62077 6.62956 0
M  V30 2774 H 256.372 2.8031 5.09821 0
M  V30 2775 H 255.252 4.61821 6.33791 0
M  V30 2776 N 252.755 -1.56801 0.158532 0
M  V30 2777 C 253.685 -2.20347 -0.772609 0
M  V30 2778 C 254.666 -1.15518 -1.24859 0
M  V30 2779 O 255.851 -1.43902 -1.30406 0
M  V30 2780 C 252.981 -2.83417 -2.00729 0
M  V30 2781 C 251.935 -3.94174 -1.66765 0
M  V30 2782 C 251.261 -4.44233 -2.97592 0
M  V30 2783 C 252.561 -5.14392 -0.905447 0
M  V30 2784 H 254.255 -2.98413 -0.242959 0
M  V30 2785 H 251.801 -1.43537 -0.115419 0
M  V30 2786 H 253.754 -3.26543 -2.6636 0
M  V30 2787 H 252.478 -2.02701 -2.56086 0
M  V30 2788 H 251.137 -3.51684 -1.03508 0
M  V30 2789 H 250.785 -3.60325 -3.50963 0
M  V30 2790 H 250.485 -5.18945 -2.75626 0
M  V30 2791 H 252.009 -4.90037 -3.64274 0
M  V30 2792 H 253.423 -5.5429 -1.46408 0
M  V30 2793 H 251.82 -5.9494 -0.7853 0
M  V30 2794 H 252.89 -4.84795 0.100668 0
M  V30 2795 N 254.233 0.115231 -1.57178 0
M  V30 2796 C 255.18 1.14115 -2.00615 0
M  V30 2797 C 256.15 1.40939 -0.878941 0
M  V30 2798 O 257.335 1.52741 -1.14345 0
M  V30 2799 C 254.475 2.46156 -2.4187 0
M  V30 2800 C 253.588 2.26236 -3.68024 0
M  V30 2801 C 252.723 3.51534 -3.98243 0
M  V30 2802 C 251.762 3.26787 -5.17568 0
M  V30 2803 N 250.899 4.44298 -5.43639 0
M  V30 2804 H 255.739 0.763743 -2.88047 0
M  V30 2805 H 253.276 0.365615 -1.42484 0
M  V30 2806 H 255.234 3.23189 -2.63827 0
M  V30 2807 H 253.864 2.81783 -1.57475 0
M  V30 2808 H 252.916 1.40102 -3.5366 0
M  V30 2809 H 254.228 2.03929 -4.55208 0
M  V30 2810 H 253.382 4.36984 -4.20868 0
M  V30 2811 H 252.121 3.76876 -3.09541 0
M  V30 2812 H 251.126 2.39729 -4.94783 0
M  V30 2813 H 252.351 3.02812 -6.0785 0
M  V30 2814 H 250.297 4.69754 -4.57895 0
M  V30 2815 H 250.214 4.25109 -6.25154 0
M  V30 2816 H 251.482 5.3087 -5.70786 0
M  V30 2817 N 255.711 1.52812 0.385517 0
M  V30 2818 C 256.643 1.74096 1.49074 0
M  V30 2819 C 257.656 0.621462 1.50472 0
M  V30 2820 O 258.845 0.897245 1.54311 0
M  V30 2821 C 255.945 1.78774 2.87911 0
M  V30 2822 C 255.118 3.08134 3.10439 0
M  V30 2823 C 254.177 3.04313 4.29278 0
M  V30 2824 O 253.203 3.78168 4.25415 0
M  V30 2825 N 254.405 2.23741 5.35649 0
M  V30 2826 H 257.17 2.69455 1.31202 0
M  V30 2827 H 254.731 1.51343 0.575065 0
M  V30 2828 H 256.723 1.73721 3.65518 0
M  V30 2829 H 255.293 0.907869 2.99126 0
M  V30 2830 H 254.513 3.26649 2.20667 0
M  V30 2831 H 255.801 3.93662 3.22347 0
M  V30 2832 H 255.199 1.63211 5.41645 0
M  V30 2833 H 253.756 2.24524 6.11909 0
M  V30 2834 N 257.189 -0.644168 1.43834 0
M  V30 2835 C 258.417 -1.43147 1.49387 0
M  V30 2836 C 258.832 -1.88452 0.114583 0
M  V30 2837 O 258.189 -1.60047 -0.876989 0
M  V30 2838 C 258.24 -2.66046 2.44748 0
M  V30 2839 O 257.961 -2.22633 3.77314 0
M  V30 2840 C 259.462 -3.59311 2.59635 0
M  V30 2841 H 256.682 -0.439447 0.507077 0
M  V30 2842 H 259.226 -0.78895 1.88669 0
M  V30 2843 H 257.381 -3.26418 2.08638 0
M  V30 2844 H 257.795 -3.02216 4.28679 0
M  V30 2845 H 259.269 -4.42187 3.30416 0
M  V30 2846 H 259.746 -4.07259 1.64427 0
M  V30 2847 H 260.352 -3.04816 2.96593 0
M  V30 2848 N 258.668 -1.30515 -0.883378 0
M  V30 2849 C 259.898 -1.22182 -1.66599 0
M  V30 2850 C 260.306 0.217507 -1.87946 0
M  V30 2851 O 259.649 1.1554 -1.42815 0
M  V30 2852 C 259.711 -1.88146 -3.06335 0
M  V30 2853 C 259.375 -3.37476 -3.08154 0
M  V30 2854 C 260.372 -4.33443 -2.87094 0
M  V30 2855 C 258.057 -3.7895 -3.29701 0
M  V30 2856 C 260.051 -5.68858 -2.8754 0
M  V30 2857 C 257.738 -5.14482 -3.29776 0
M  V30 2858 C 258.736 -6.09246 -3.0872 0
M  V30 2859 O 258.424 -7.42302 -3.08615 0
M  V30 2860 H 258.156 -0.423898 -0.52658 0
M  V30 2861 H 260.71 -1.72703 -1.11188 0
M  V30 2862 H 258.94 -1.32157 -3.63416 0
M  V30 2863 H 260.629 -1.7391 -3.66756 0
M  V30 2864 H 261.395 -4.02733 -2.70243 0
M  V30 2865 H 257.274 -3.05631 -3.45124 0
M  V30 2866 H 260.818 -6.428 -2.71024 0
M  V30 2867 H 256.715 -5.44832 -3.46163 0
M  V30 2868 H 257.483 -7.5131 -3.24769 0
M  V30 2869 N 260.146 1.09593 -1.13257 0
M  V30 2870 C 261.557 1.63229 -0.906274 0
M  V30 2871 C 261.908 1.8811 0.557578 0
M  V30 2872 O 261.033 1.62953 1.42391 0
M  V30 2873 C 261.628 2.96535 -1.63867 0
M  V30 2874 C 260.187 3.47003 -1.45828 0
M  V30 2875 C 259.334 2.2145 -1.66898 0
M  V30 2876 H 262.285 0.92978 -1.28611 0
M  V30 2877 H 262.306 3.64411 -1.09476 0
M  V30 2878 H 261.818 2.78394 -2.70404 0
M  V30 2879 H 259.919 3.70272 -0.415848 0
M  V30 2880 H 260.032 4.24551 -2.2202 0
M  V30 2881 H 258.396 2.30022 -1.09371 0
M  V30 2882 H 259.179 2.0583 -2.74752 0
M  V30 2883 N 261.624 0.925811 1.2754 0
M  V30 2884 C 263.035 0.610102 1.7645 0
M  V30 2885 C 263.386 -0.874723 1.75622 0
M  V30 2886 O 262.511 -1.68444 1.35851 0
M  V30 2887 C 263.106 1.10073 3.20421 0
M  V30 2888 C 261.665 0.835723 3.67005 0
M  V30 2889 C 260.812 1.26054 2.46993 0
M  V30 2890 H 263.763 1.10579 1.13833 0
M  V30 2891 H 263.784 0.447557 3.77859 0
M  V30 2892 H 263.296 2.18143 3.20991 0
M  V30 2893 H 261.397 -0.231249 3.71882 0
M  V30 2894 H 261.51 1.45193 4.56569 0
M  V30 2895 H 259.874 0.679111 2.45479 0
M  V30 2896 H 260.657 2.34984 2.50275 0
M  V30 2897 N 263.102 -1.41638 0.69111 0
M  V30 2898 C 264.012 -2.34588 0.0233487 0
M  V30 2899 C 265.028 -1.55987 -0.770984 0
M  V30 2900 O 266.204 -1.88486 -0.709569 0
M  V30 2901 C 263.269 -3.34684 -0.904851 0
M  V30 2902 C 262.33 -4.29176 -0.103225 0
M  V30 2903 C 261.563 -5.2449 -0.987216 0
M  V30 2904 O 261.786 -5.2514 -2.22674 0
M  V30 2905 O 260.72 -6.00295 -0.439281 0
M  V30 2906 H 264.546 -2.93261 0.789416 0
M  V30 2907 H 262.131 -1.42417 0.45142 0
M  V30 2908 H 264.013 -3.96133 -1.43724 0
M  V30 2909 H 262.688 -2.78461 -1.65049 0
M  V30 2910 H 261.595 -3.71089 0.473655 0
M  V30 2911 H 262.928 -4.88484 0.60365 0
M  V30 2912 N 264.58 -0.43555 -1.51462 0
M  V30 2913 C 265.53 0.394701 -2.24558 0
M  V30 2914 C 266.514 0.99157 -1.26715 0
M  V30 2915 O 267.706 0.910007 -1.51815 0
M  V30 2916 C 264.835 1.4963 -3.08975 0
M  V30 2917 C 263.921 0.908912 -4.14246 0
M  V30 2918 N 264.312 0.0505335 -5.05775 0
M  V30 2919 C 262.61 1.17668 -4.30198 0
M  V30 2920 C 263.311 -0.279161 -5.8103 0
M  V30 2921 N 262.287 0.336767 -5.42556 0
M  V30 2922 H 266.089 -0.267106 -2.92684 0
M  V30 2923 H 263.603 -0.247518 -1.60503 0
M  V30 2924 H 265.6 2.10394 -3.59917 0
M  V30 2925 H 264.26 2.16046 -2.42393 0
M  V30 2926 H 265.271 -0.31577 -5.16936 0
M  V30 2927 H 261.948 1.83847 -3.74842 0
M  V30 2928 H 263.338 -0.977553 -6.64751 0
M  V30 2929 N 266.058 1.56714 -0.166846 0
M  V30 2930 C 266.968 2.21331 0.777791 0
M  V30 2931 C 267.984 1.20358 1.25658 0
M  V30 2932 O 269.16 1.53005 1.30964 0
M  V30 2933 C 266.225 2.83787 1.99163 0
M  V30 2934 C 265.286 3.99947 1.56016 0
M  V30 2935 C 264.519 4.59415 2.71613 0
M  V30 2936 O 264.742 4.17769 3.88362 0
M  V30 2937 O 263.676 5.49359 2.45945 0
M  V30 2938 H 267.502 3.02605 0.257636 0
M  V30 2939 H 265.087 1.49275 0.0611393 0
M  V30 2940 H 266.969 3.23405 2.70161 0
M  V30 2941 H 265.644 2.05513 2.50092 0
M  V30 2942 H 264.551 3.65007 0.819809 0
M  V30 2943 H 265.884 4.79801 1.09782 0
M  V30 2944 N 267.536 -0.106894 1.57237 0
M  V30 2945 C 268.947 -0.662723 1.74542 0
M  V30 2946 C 269.298 -1.7971 0.787319 0
M  V30 2947 O 268.423 -2.16368 -0.0369636 0
M  V30 2948 C 269.018 -1.20896 3.16496 0
M  V30 2949 C 267.577 -1.71096 3.35266 0
M  V30 2950 C 266.724 -0.615642 2.7038 0
M  V30 2951 H 269.675 0.119106 1.58252 0
M  V30 2952 H 269.696 -2.07847 3.18716 0
M  V30 2953 H 269.208 -0.383122 3.86204 0
M  V30 2954 H 267.309 -2.56119 2.70618 0
M  V30 2955 H 267.422 -1.81208 4.43509 0
M  V30 2956 H 265.786 -1.05222 2.31949 0
M  V30 2957 H 266.569 0.199419 3.4272 0
M  V30 2958 N 269.014 -1.53014 -0.377408 0
M  V30 2959 C 270.239 -1.72818 -1.14668 0
M  V30 2960 C 270.664 -0.450725 -1.8262 0
M  V30 2961 O 270.022 0.59439 -1.7128 0
M  V30 2962 C 270.07 -2.88627 -2.16164 0
M  V30 2963 O 269.174 -2.56409 -3.22998 0
M  V30 2964 H 268.515 -0.574301 -0.333278 0
M  V30 2965 H 271.045 -1.99853 -0.438152 0
M  V30 2966 H 271.055 -3.14455 -2.59966 0
M  V30 2967 H 269.73 -3.81294 -1.66095 0
M  V30 2968 H 268.307 -2.4136 -2.84253 0
M  V30 2969 N 270.492 0.636531 -1.44174 0
M  V30 2970 C 271.741 1.39213 -1.45954 0
M  V30 2971 C 272.054 1.95374 -0.0939119 0
M  V30 2972 O 273.26 2.71498 0.0107767 0
M  V30 2973 C 271.716 2.52025 -2.56927 0
M  V30 2974 C 271.324 2.024 -3.99673 0
M  V30 2975 C 273.068 3.29269 -2.67922 0
M  V30 2976 C 270.975 3.12521 -5.0208 0
M  V30 2977 H 269.905 0.523132 -0.542999 0
M  V30 2978 H 272.556 0.685349 -1.70221 0
M  V30 2979 H 270.938 3.25253 -2.25891 0
M  V30 2980 H 272.112 1.36073 -4.40251 0
M  V30 2981 H 270.427 1.37987 -3.92872 0
M  V30 2982 H 273.024 4.11352 -3.41605 0
M  V30 2983 H 273.367 3.78397 -1.73555 0
M  V30 2984 H 273.9 2.63129 -2.98342 0
M  V30 2985 H 270.639 2.68343 -5.98057 0
M  V30 2986 H 270.159 3.77507 -4.66099 0
M  V30 2987 H 271.838 3.77385 -5.25538 0
M  V30 2988 N 271.97 1.30982 0.876444 0
M  V30 2989 C 273.381 1.18277 1.44456 0
M  V30 2990 C 273.732 -0.213265 1.95037 0
M  V30 2991 O 272.857 -1.11057 1.85729 0
M  V30 2992 C 273.452 2.1411 2.62569 0
M  V30 2993 C 272.011 2.05358 3.15444 0
M  V30 2994 C 271.158 2.03706 1.88146 0
M  V30 2995 H 274.109 1.43127 0.685584 0
M  V30 2996 H 274.13 1.72692 3.39054 0
M  V30 2997 H 273.642 3.15706 2.25724 0
M  V30 2998 H 271.743 1.06934 3.56926 0
M  V30 2999 H 271.856 2.94156 3.78166 0
M  V30 3000 H 270.22 1.48629 2.06837 0
M  V30 3001 H 271.003 3.07047 1.53547 0
M  V30 3002 N 273.449 -1.08991 1.13837 0
M  V30 3003 C 274.359 -2.19301 0.833333 0
M  V30 3004 C 275.375 -1.73026 -0.183847 0
M  V30 3005 O 276.551 -2.01395 -0.0138092 0
M  V30 3006 C 273.616 -3.45323 0.308651 0
M  V30 3007 C 272.677 -4.06255 1.38764 0
M  V30 3008 C 271.91 -5.26262 0.887896 0
M  V30 3009 O 272.133 -5.69747 -0.27287 0
M  V30 3010 O 271.067 -5.78435 1.66421 0
M  V30 3011 H 274.893 -2.47854 1.75506 0
M  V30 3012 H 272.478 -1.18012 0.916166 0
M  V30 3013 H 274.36 -4.21394 0.0216739 0
M  V30 3014 H 273.035 -3.18362 -0.585431 0
M  V30 3015 H 271.942 -3.318 1.72799 0
M  V30 3016 H 273.275 -4.37452 2.25602 0
M  V30 3017 N 274.927 -0.932562 -1.27047 0
M  V30 3018 C 275.875 -0.42603 -2.28665 0
M  V30 3019 C 276.869 0.49219 -1.62092 0
M  V30 3020 O 278.075 0.371355 -1.76128 0
M  V30 3021 H 274.45 -0.119213 -0.742491 0
M  V30 3022 H 276.421 -1.29579 -2.68797 0
M  V30 3023 C 275.17 0.301426 -3.46391 0
M  V30 3024 H 274.493 -0.39595 -3.97834 0
M  V30 3025 H 275.933 0.6202 -4.1944 0
M  V30 3026 C 274.392 1.51616 -3.00856 0
M  V30 3027 O 274.922 2.61476 -3.04948 0
M  V30 3028 N 273.128 1.36969 -2.56296 0
M  V30 3029 H 272.675 0.475873 -2.53166 0
M  V30 3030 H 272.633 2.18368 -2.26192 0
M  V30 3031 N 276.405 1.4127 -0.698611 0
M  V30 3032 C 277.335 2.33447 -0.049629 0
M  V30 3033 C 278.316 1.51982 0.763898 0
M  V30 3034 O 279.501 1.80509 0.716257 0
M  V30 3035 C 276.631 3.35828 0.885267 0
M  V30 3036 C 275.585 4.27627 0.178613 0
M  V30 3037 C 274.911 5.20406 1.22807 0
M  V30 3038 C 276.211 5.13459 -0.956933 0
M  V30 3039 H 277.905 2.87966 -0.81951 0
M  V30 3040 H 275.451 1.38461 -0.395538 0
M  V30 3041 H 277.404 3.9924 1.34854 0
M  V30 3042 H 276.128 2.79666 1.68685 0
M  V30 3043 H 274.787 3.65643 -0.26466 0
M  V30 3044 H 274.435 4.60558 2.02226 0
M  V30 3045 H 274.135 5.82661 0.760239 0
M  V30 3046 H 275.659 5.86695 1.69179 0
M  V30 3047 H 277.073 5.70421 -0.573805 0
M  V30 3048 H 275.47 5.8467 -1.35205 0
M  V30 3049 H 276.54 4.50443 -1.79524 0
M  V30 3050 N 277.883 0.443576 1.51229 0
M  V30 3051 C 278.793 -0.370721 2.31652 0
M  V30 3052 C 279.809 -1.02186 1.40833 0
M  V30 3053 O 280.985 -1.01586 1.73903 0
M  V30 3054 C 278.05 -1.45376 3.14749 0
M  V30 3055 C 277.111 -0.822099 4.21355 0
M  V30 3056 C 276.344 -1.85353 5.0048 0
M  V30 3057 O 276.567 -3.07656 4.80316 0
M  V30 3058 O 275.501 -1.4406 5.84406 0
M  V30 3059 H 279.327 0.286002 3.0235 0
M  V30 3060 H 276.912 0.20598 1.47973 0
M  V30 3061 H 278.794 -2.08173 3.66391 0
M  V30 3062 H 277.469 -2.09445 2.46809 0
M  V30 3063 H 276.376 -0.155909 3.73775 0
M  V30 3064 H 277.709 -0.224797 4.91686 0
M  V30 3065 N 279.361 -1.56624 0.175154 0
M  V30 3066 C 280.638 -1.88688 -0.515373 0
M  V30 3067 C 281.018 -1.08564 -1.81044 0
M  V30 3068 O 280.366 -0.180703 -2.27784 0
M  V30 3069 C 280.576 -3.40768 -0.753552 0
M  V30 3070 C 281.924 -4.10587 -1.08184 0
M  V30 3071 O 282.948 -3.46106 -0.841961 0
M  V30 3072 O 281.807 -5.24512 -1.53459 0
M  V30 3073 H 278.901 -0.78301 -0.26613 0
M  V30 3074 H 281.447 -1.68347 0.213877 0
M  V30 3075 H 280.219 -3.90965 0.161829 0
M  V30 3076 H 279.842 -3.66733 -1.53598 0
M  V30 3077 N 280.839 0.0985539 -1.57292 0
M  V30 3078 C 281.786 1.11981 -2.01814 0
M  V30 3079 C 282.756 1.39999 -0.89384 0
M  V30 3080 O 283.941 1.5152 -1.15958 0
M  V30 3081 C 281.081 2.43577 -2.44467 0
M  V30 3082 C 280.194 2.2232 -3.70402 0
M  V30 3083 C 279.329 3.4729 -4.01949 0
M  V30 3084 C 278.368 3.2128 -5.21005 0
M  V30 3085 N 277.505 4.38507 -5.48321 0
M  V30 3086 H 282.345 0.733149 -2.88841 0
M  V30 3087 H 279.882 0.350482 -1.42864 0
M  V30 3088 H 281.84 3.20373 -2.6724 0
M  V30 3089 H 280.47 2.80097 -1.60455 0
M  V30 3090 H 279.522 1.36343 -3.55126 0
M  V30 3091 H 280.834 1.99089 -4.57345 0
M  V30 3092 H 279.988 4.32495 -4.25479 0
M  V30 3093 H 278.727 3.73572 -3.13521 0
M  V30 3094 H 277.732 2.34468 -4.97298 0
M  V30 3095 H 278.957 2.96348 -6.11028 0
M  V30 3096 H 276.903 4.64871 -4.62851 0
M  V30 3097 H 276.82 4.18455 -6.29628 0
M  V30 3098 H 278.088 5.24787 -5.76385 0
M  V30 3099 N 282.317 1.53212 0.369288 0
M  V30 3100 C 283.247 1.82365 1.45826 0
M  V30 3101 C 284.228 0.676907 1.56051 0
M  V30 3102 O 285.413 0.926401 1.70679 0
M  V30 3103 C 282.543 2.01023 2.83208 0
M  V30 3104 C 281.497 3.1678 2.8781 0
M  V30 3105 C 280.823 3.20724 4.27832 0
M  V30 3106 C 282.123 4.55447 2.55667 0
M  V30 3107 H 283.817 2.73559 1.21678 0
M  V30 3108 H 281.363 1.3163 0.583911 0
M  V30 3109 H 283.316 2.20001 3.59413 0
M  V30 3110 H 282.04 1.06536 3.08736 0
M  V30 3111 H 280.699 2.97616 2.14056 0
M  V30 3112 H 280.347 2.23882 4.50429 0
M  V30 3113 H 280.047 3.98496 4.31827 0
M  V30 3114 H 281.571 3.41881 5.05915 0
M  V30 3115 H 282.985 4.74611 3.21586 0
M  V30 3116 H 281.382 5.35432 2.70984 0
M  V30 3117 H 282.452 4.60812 1.5093 0
M  V30 3118 N 283.795 -0.628877 1.44509 0
M  V30 3119 C 285.025 -1.41349 1.50678 0
M  V30 3120 C 285.433 -1.88745 0.131075 0
M  V30 3121 O 284.776 -1.61592 -0.87371 0
M  V30 3122 C 284.838 -2.66608 2.41165 0
M  V30 3123 C 284.502 -2.40993 3.88293 0
M  V30 3124 C 285.499 -2.0268 4.78766 0
M  V30 3125 C 283.184 -2.54563 4.33016 0
M  V30 3126 C 285.178 -1.78269 6.11963 0
M  V30 3127 C 282.865 -2.29766 5.6626 0
M  V30 3128 C 283.863 -1.91678 6.55552 0
M  V30 3129 O 283.551 -1.67158 7.86329 0
M  V30 3130 H 283.283 -0.439851 0.51333 0
M  V30 3131 H 285.837 -0.776084 1.90174 0
M  V30 3132 H 284.067 -3.32994 1.96601 0
M  V30 3133 H 285.756 -3.28615 2.38259 0
M  V30 3134 H 286.522 -1.91751 4.45485 0
M  V30 3135 H 282.401 -2.83179 3.63773 0
M  V30 3136 H 285.945 -1.48465 6.81619 0
M  V30 3137 H 281.842 -2.40306 5.99102 0
M  V30 3138 H 282.61 -1.81386 7.98149 0
M  V30 3139 N 285.273 -1.31445 -0.869486 0
M  V30 3140 C 286.521 -1.20918 -1.61936 0
M  V30 3141 C 286.842 0.232683 -1.93607 0
M  V30 3142 O 286.112 1.15352 -1.58338 0
M  V30 3143 H 284.692 -0.44454 -0.600328 0
M  V30 3144 H 287.354 -1.64776 -1.0409 0
M  V30 3145 H 286.45 -1.78124 -2.56278 0
M  V30 3146 N 286.751 1.08385 -1.14413 0
M  V30 3147 C 287.999 1.80419 -0.910679 0
M  V30 3148 C 288.32 1.86658 0.564243 0
M  V30 3149 O 287.59 1.35985 1.41014 0
M  V30 3150 H 286.17 0.668204 -0.333934 0
M  V30 3151 H 288.832 1.31037 -1.44275 0
M  V30 3152 H 287.928 2.83238 -1.31082 0
M  V30 3153 N 288.23 0.939286 1.26551 0
M  V30 3154 C 289.177 0.446088 2.26448 0
M  V30 3155 C 290.147 -0.493234 1.58608 0
M  V30 3156 O 291.332 -0.409857 1.86346 0
M  V30 3157 C 288.472 -0.284375 3.43926 0
M  V30 3158 C 287.585 0.690399 4.26448 0
M  V30 3159 C 286.72 -0.0610712 5.31165 0
M  V30 3160 C 285.759 0.905649 6.05363 0
M  V30 3161 N 284.896 0.186055 7.01853 0
M  V30 3162 H 289.736 1.30291 2.68008 0
M  V30 3163 H 287.273 0.65371 1.31776 0
M  V30 3164 H 289.231 -0.724313 4.10864 0
M  V30 3165 H 287.861 -1.10535 3.03285 0
M  V30 3166 H 286.913 1.24885 3.59316 0
M  V30 3167 H 288.225 1.42873 4.779 0
M  V30 3168 H 287.379 -0.56038 6.04106 0
M  V30 3169 H 286.118 -0.832297 4.80546 0
M  V30 3170 H 285.123 1.4161 5.3125 0
M  V30 3171 H 286.348 1.67685 6.58072 0
M  V30 3172 H 284.294 -0.566714 6.53548 0
M  V30 3173 H 284.211 0.863752 7.51049 0
M  V30 3174 H 285.479 -0.292221 7.78952 0
M  V30 3175 N 289.708 -1.40897 0.706093 0
M  V30 3176 C 290.638 -2.33418 0.0620085 0
M  V30 3177 C 291.619 -1.52385 -0.755827 0
M  V30 3178 O 292.804 -1.80886 -0.706674 0
M  V30 3179 C 289.934 -3.36293 -0.867445 0
M  V30 3180 C 288.888 -4.27716 -0.155932 0
M  V30 3181 C 288.214 -5.2105 -1.20046 0
M  V30 3182 C 289.514 -5.12944 0.984149 0
M  V30 3183 H 291.208 -2.87527 0.83477 0
M  V30 3184 H 288.754 -1.38249 0.402875 0
M  V30 3185 H 290.707 -3.99949 -1.32735 0
M  V30 3186 H 289.431 -2.80556 -1.67199 0
M  V30 3187 H 288.09 -3.65498 0.284047 0
M  V30 3188 H 287.738 -4.61624 -1.99781 0
M  V30 3189 H 287.438 -5.83056 -0.729328 0
M  V30 3190 H 288.962 -5.87584 -1.66066 0
M  V30 3191 H 290.376 -5.70109 0.604048 0
M  V30 3192 H 288.773 -5.83945 1.38304 0
M  V30 3193 H 289.843 -4.49485 1.81911 0
M  V30 3194 N 291.186 -0.45159 -1.50991 0
M  V30 3195 C 292.435 0.111653 -2.01391 0
M  V30 3196 C 292.748 1.42529 -1.33959 0
M  V30 3197 O 293.954 2.07232 -1.75405 0
M  V30 3198 C 292.41 0.249514 -3.59034 0
M  V30 3199 C 292.018 -1.05453 -4.35412 0
M  V30 3200 C 293.762 0.765762 -4.17536 0
M  V30 3201 C 291.669 -0.881529 -5.84793 0
M  V30 3202 H 290.599 0.0455022 -0.752626 0
M  V30 3203 H 293.25 -0.583524 -1.73975 0
M  V30 3204 H 291.632 1.00803 -3.82955 0
M  V30 3205 H 292.806 -1.82248 -4.23229 0
M  V30 3206 H 291.121 -1.50039 -3.88429 0
M  V30 3207 H 293.718 0.911913 -5.26866 0
M  V30 3208 H 294.061 1.75201 -3.77638 0
M  V30 3209 H 294.594 0.0651744 -3.97747 0
M  V30 3210 H 291.333 -1.84057 -6.29129 0
M  V30 3211 H 290.853 -0.153625 -5.99603 0
M  V30 3212 H 292.532 -0.540363 -6.4474 0
M  V30 3213 N 292.664 1.56529 -0.183458 0
M  V30 3214 C 293.91 1.97537 0.459036 0
M  V30 3215 C 294.243 1.06989 1.62071 0
M  V30 3216 O 293.518 0.11948 1.94133 0
M  V30 3217 C 293.801 3.47874 0.930368 0
M  V30 3218 C 293.654 4.492 -0.232317 0
M  V30 3219 C 294.973 4.01612 1.79989 0
M  V30 3220 H 292.092 0.718204 0.165383 0
M  V30 3221 H 294.734 1.88042 -0.272038 0
M  V30 3222 H 292.884 3.56095 1.55333 0
M  V30 3223 H 294.556 4.53027 -0.86972 0
M  V30 3224 H 292.799 4.24657 -0.885928 0
M  V30 3225 H 293.47 5.51823 0.139796 0
M  V30 3226 H 295.946 3.96097 1.27461 0
M  V30 3227 H 294.822 5.07195 2.09867 0
M  V30 3228 H 295.083 3.46163 2.74998 0
M  V30 3229 N 294.142 -0.090211 1.57342 0
M  V30 3230 C 295.105 -1.09335 2.01441 0
M  V30 3231 C 296.105 -1.32666 0.908641 0
M  V30 3232 O 297.295 -1.28697 1.174 0
M  V30 3233 C 294.427 -2.44136 2.3793 0
M  V30 3234 H 295.62 -0.713662 2.91285 0
M  V30 3235 H 293.173 -0.335404 1.52659 0
M  V30 3236 H 293.908 -2.86972 1.51055 0
M  V30 3237 H 293.693 -2.28548 3.18603 0
M  V30 3238 H 295.183 -3.16277 2.72688 0
M  V30 3239 N 295.62 -1.53406 -0.361157 0
M  V30 3240 C 296.866 -1.70054 -1.10496 0
M  V30 3241 C 297.199 -0.453278 -1.88836 0
M  V30 3242 O 296.474 0.5495 -1.86576 0
M  V30 3243 C 296.757 -2.95317 -2.06058 0
M  V30 3244 C 296.61 -4.3021 -1.31298 0
M  V30 3245 C 297.929 -3.16193 -3.06121 0
M  V30 3246 H 295.048 -0.618799 -0.400321 0
M  V30 3247 H 297.69 -1.86052 -0.385318 0
M  V30 3248 H 295.84 -2.81809 -2.67425 0
M  V30 3249 H 297.512 -4.55538 -0.726807 0
M  V30 3250 H 295.755 -4.29421 -0.614853 0
M  V30 3251 H 296.426 -5.14 -2.01265 0
M  V30 3252 H 298.902 -3.28916 -2.5486 0
M  V30 3253 H 297.778 -4.05266 -3.70204 0
M  V30 3254 H 298.039 -2.31676 -3.76535 0
M  V30 3255 N 297.098 0.621204 -1.44841 0
M  V30 3256 C 298.048 1.72663 -1.48901 0
M  V30 3257 C 299.032 1.56964 -0.353702 0
M  V30 3258 O 300.224 1.66532 -0.599669 0
M  V30 3259 C 297.353 3.11381 -1.44557 0
M  V30 3260 C 296.439 3.32514 -2.6324 0
M  V30 3261 N 296.83 3.23969 -3.8843 0
M  V30 3262 C 295.128 3.63343 -2.58647 0
M  V30 3263 C 295.829 3.46062 -4.67564 0
M  V30 3264 N 294.805 3.69407 -3.98797 0
M  V30 3265 H 298.607 1.64529 -2.43531 0
M  V30 3266 H 296.121 0.82401 -1.39942 0
M  V30 3267 H 298.118 3.90667 -1.4555 0
M  V30 3268 H 296.778 3.20674 -0.509731 0
M  V30 3269 H 297.789 3.02669 -4.20252 0
M  V30 3270 H 294.466 3.79556 -1.73906 0
M  V30 3271 H 295.856 3.44963 -5.76585 0
M  V30 3272 N 298.576 1.31904 0.862503 0
M  V30 3273 C 299.823 1.22017 1.61611 0
M  V30 3274 C 300.151 -0.21991 1.93253 0
M  V30 3275 O 299.406 -1.17076 1.56817 0
M  V30 3276 C 299.705 2.01713 2.95037 0
M  V30 3277 C 299.371 3.51145 2.82857 0
M  V30 3278 C 298.033 3.91889 2.79243 0
M  V30 3279 C 300.385 4.46204 2.69353 0
M  V30 3280 C 297.713 5.25947 2.59993 0
M  V30 3281 C 300.065 5.80397 2.5164 0
M  V30 3282 C 298.729 6.20352 2.46413 0
M  V30 3283 H 297.999 0.44649 0.591378 0
M  V30 3284 H 300.646 1.63248 1.00111 0
M  V30 3285 H 298.951 1.53185 3.60613 0
M  V30 3286 H 300.648 1.91437 3.52353 0
M  V30 3287 H 297.238 3.1878 2.86491 0
M  V30 3288 H 301.422 4.15652 2.71196 0
M  V30 3289 H 296.678 5.5597 2.54376 0
M  V30 3290 H 300.852 6.53676 2.40169 0
M  V30 3291 H 298.479 7.24172 2.31256 0
M  V30 3292 N 300.054 -1.07777 1.14986 0
M  V30 3293 C 300.964 -2.18404 0.856546 0
M  V30 3294 C 301.98 -1.73211 -0.165485 0
M  V30 3295 O 303.156 -2.01399 0.00755219 0
M  V30 3296 C 300.221 -3.44977 0.34526 0
M  V30 3297 C 299.282 -4.0476 1.43065 0
M  V30 3298 C 298.515 -5.25291 0.943663 0
M  V30 3299 O 298.738 -5.70004 -0.212426 0
M  V30 3300 O 297.672 -5.76638 1.72547 0
M  V30 3301 H 301.498 -2.45978 1.78125 0
M  V30 3302 H 299.083 -1.17033 0.928631 0
M  V30 3303 H 300.965 -4.21348 0.0663671 0
M  V30 3304 H 299.64 -3.18965 -0.551631 0
M  V30 3305 H 298.547 -3.29949 1.76309 0
M  V30 3306 H 299.88 -4.35035 2.30229 0
M  V30 3307 N 301.532 -0.945985 -1.26051 0
M  V30 3308 C 302.48 -0.450259 -2.282 0
M  V30 3309 C 303.474 0.47497 -1.62605 0
M  V30 3310 O 304.68 0.352653 -1.76512 0
M  V30 3311 H 301.055 -0.127081 -0.741184 0
M  V30 3312 H 303.026 -1.32422 -2.67408 0
M  V30 3313 C 301.775 0.26467 -3.46691 0
M  V30 3314 H 301.098 -0.438123 -3.97392 0
M  V30 3315 H 302.538 0.575678 -4.20074 0
M  V30 3316 C 300.997 1.48416 -3.02447 0
M  V30 3317 O 301.527 2.58227 -3.07704 0
M  V30 3318 N 299.733 1.34243 -2.57735 0
M  V30 3319 H 299.28 0.448994 -2.53657 0
M  V30 3320 H 299.238 2.15957 -2.28495 0
M  V30 3321 N 303.011 1.40521 -0.713556 0
M  V30 3322 C 304.251 2.02783 -0.256584 0
M  V30 3323 C 304.615 1.55352 1.12827 0
M  V30 3324 O 305.816 2.09663 1.68211 0
M  V30 3325 C 304.087 3.5586 -0.331414 0
M  V30 3326 S 305.646 4.38773 0.0488703 0
M  V30 3327 H 302.464 0.703655 -0.101934 0
M  V30 3328 H 305.066 1.71674 -0.935325 0
M  V30 3329 H 303.77 3.87874 -1.34098 0
M  V30 3330 H 303.301 3.91695 0.365873 0
M  V30 3331 H 305.316 4.79633 1.2715 0
M  V30 3332 N 304.489 0.459591 1.5075 0
M  V30 3333 C 305.421 -0.37665 2.26084 0
M  V30 3334 C 306.434 -0.967109 1.30961 0
M  V30 3335 O 307.623 -0.857468 1.56556 0
M  V30 3336 C 304.723 -1.54112 3.01832 0
M  V30 3337 C 303.896 -1.06553 4.24223 0
M  V30 3338 C 302.955 -2.1027 4.82362 0
M  V30 3339 O 301.981 -1.68798 5.43595 0
M  V30 3340 N 303.183 -3.42974 4.68347 0
M  V30 3341 H 305.948 0.269124 2.98489 0
M  V30 3342 H 303.509 0.28972 1.59287 0
M  V30 3343 H 305.501 -2.23165 3.37608 0
M  V30 3344 H 304.071 -2.0918 2.32298 0
M  V30 3345 H 303.291 -0.201274 3.93686 0
M  V30 3346 H 304.579 -0.725516 5.03601 0
M  V30 3347 H 303.977 -3.79385 4.19623 0
M  V30 3348 H 302.534 -4.07858 5.08424 0
M  V30 3349 N 305.967 -1.56429 0.191757 0
M  V30 3350 C 307.244 -1.89224 -0.495332 0
M  V30 3351 C 307.624 -1.10478 -1.79883 0
M  V30 3352 O 306.972 -0.204852 -2.2758 0
M  V30 3353 C 307.182 -3.41548 -0.717367 0
M  V30 3354 C 308.53 -4.11711 -1.03823 0
M  V30 3355 O 309.554 -3.4698 -0.805204 0
M  V30 3356 O 308.413 -5.2611 -1.47887 0
M  V30 3357 H 305.507 -0.785788 -0.25781 0
M  V30 3358 H 308.053 -1.68111 0.231721 0
M  V30 3359 H 306.825 -3.90772 0.203287 0
M  V30 3360 H 306.448 -3.68342 -1.497 0
M  V30 3361 N 307.445 0.0818655 -1.57387 0
M  V30 3362 C 308.691 0.784074 -1.8703 0
M  V30 3363 C 309.024 1.77729 -0.782689 0
M  V30 3364 O 308.299 1.93384 0.208051 0
M  V30 3365 C 308.582 1.50105 -3.27323 0
M  V30 3366 C 308.435 0.524925 -4.46727 0
M  V30 3367 C 309.754 2.44843 -3.65705 0
M  V30 3368 H 306.873 0.283582 -0.680257 0
M  V30 3369 H 309.515 0.0474352 -1.89941 0
M  V30 3370 H 307.665 2.12897 -3.24972 0
M  V30 3371 H 309.337 -0.0970111 -4.61198 0
M  V30 3372 H 307.58 -0.160606 -4.33503 0
M  V30 3373 H 308.251 1.064 -5.41648 0
M  V30 3374 H 310.727 1.92135 -3.69085 0
M  V30 3375 H 309.603 2.92018 -4.64776 0
M  V30 3376 H 309.864 3.29197 -2.95096 0
M  V30 3377 N 308.923 1.53595 0.353017 0
M  V30 3378 C 310.17 1.70385 1.09431 0
M  V30 3379 C 310.498 0.462113 1.88931 0
M  V30 3380 O 309.753 -0.556074 1.87633 0
M  V30 3381 C 310.052 2.91313 2.07054 0
M  V30 3382 C 309.718 4.27308 1.43939 0
M  V30 3383 C 308.38 4.64287 1.26454 0
M  V30 3384 C 310.732 5.11829 0.983883 0
M  V30 3385 C 308.06 5.83412 0.620226 0
M  V30 3386 C 310.412 6.31611 0.353516 0
M  V30 3387 C 309.076 6.67293 0.166272 0
M  V30 3388 H 308.346 0.623484 0.400436 0
M  V30 3389 H 310.993 1.87799 0.374655 0
M  V30 3390 H 309.298 2.68463 2.85368 0
M  V30 3391 H 310.995 3.01497 2.64387 0
M  V30 3392 H 307.585 3.98198 1.58543 0
M  V30 3393 H 311.769 4.838 1.10685 0
M  V30 3394 H 307.025 6.09639 0.463681 0
M  V30 3395 H 311.199 6.964 -0.00757555 0
M  V30 3396 H 308.826 7.59461 -0.335047 0
M  V30 3397 N 310.401 -0.613514 1.45168 0
M  V30 3398 C 311.626 -1.40437 1.52618 0
M  V30 3399 C 312.051 -1.87438 0.157707 0
M  V30 3400 O 311.409 -1.59791 -0.856537 0
M  V30 3401 C 311.457 -2.58894 2.51011 0
M  V30 3402 O 310.561 -3.59326 2.02382 0
M  V30 3403 H 309.902 -0.419506 0.514695 0
M  V30 3404 H 312.432 -0.747215 1.90467 0
M  V30 3405 H 312.442 -3.06214 2.69624 0
M  V30 3406 H 311.117 -2.24032 3.50403 0
M  V30 3407 H 309.694 -3.18695 1.93618 0
M  V30 3408 N 311.879 -1.3236 -0.855495 0
M  V30 3409 C 313.126 -1.22872 -1.60962 0
M  V30 3410 C 313.454 0.209658 -1.93367 0
M  V30 3411 O 312.709 1.16243 -1.57436 0
M  V30 3412 C 313.008 -2.03275 -2.93963 0
M  V30 3413 C 312.674 -3.5264 -2.80991 0
M  V30 3414 C 311.336 -3.93364 -2.7716 0
M  V30 3415 C 313.688 -4.47626 -2.66983 0
M  V30 3416 C 311.016 -5.27319 -2.572 0
M  V30 3417 C 313.368 -5.81723 -2.48558 0
M  V30 3418 C 312.032 -6.2165 -2.4312 0
M  V30 3419 H 311.302 -0.44962 -0.589001 0
M  V30 3420 H 313.949 -1.63777 -0.992442 0
M  V30 3421 H 312.254 -1.55095 -3.59795 0
M  V30 3422 H 313.951 -1.93303 -3.51333 0
M  V30 3423 H 310.541 -3.20295 -2.84797 0
M  V30 3424 H 314.725 -4.17084 -2.68988 0
M  V30 3425 H 309.981 -5.57311 -2.51424 0
M  V30 3426 H 314.155 -6.5494 -2.36699 0
M  V30 3427 H 311.782 -7.25388 -2.27412 0
M  V30 3428 N 313.357 1.07166 -1.15556 0
M  V30 3429 C 314.289 2.14341 -0.811815 0
M  V30 3430 C 315.302 1.61835 0.177015 0
M  V30 3431 O 316.491 1.78439 -0.0464996 0
M  V30 3432 C 313.591 3.38387 -0.186481 0
M  V30 3433 C 312.764 4.20238 -1.21321 0
M  V30 3434 C 311.823 5.2266 -0.609302 0
M  V30 3435 O 310.849 5.54719 -1.27576 0
M  V30 3436 N 312.051 5.77306 0.608099 0
M  V30 3437 H 314.816 2.44431 -1.73417 0
M  V30 3438 H 312.377 1.23089 -1.0517 0
M  V30 3439 H 314.369 4.04044 0.230339 0
M  V30 3440 H 312.939 3.05994 0.639249 0
M  V30 3441 H 312.159 3.50369 -1.80652 0
M  V30 3442 H 313.447 4.71736 -1.90638 0
M  V30 3443 H 312.845 5.53513 1.1679 0
M  V30 3444 H 311.402 6.44583 0.96725 0
M  V30 3445 N 314.835 0.952656 1.25548 0
M  V30 3446 C 316.081 0.607272 1.93494 0
M  V30 3447 C 316.414 -0.853245 1.74452 0
M  V30 3448 O 315.689 -1.61194 1.08843 0
M  V30 3449 C 315.972 0.96435 3.46947 0
M  V30 3450 C 315.825 2.48045 3.75225 0
M  V30 3451 C 317.144 0.487987 4.37386 0
M  V30 3452 H 314.263 0.222096 0.702739 0
M  V30 3453 H 316.905 1.18895 1.48203 0
M  V30 3454 H 315.055 0.469361 3.85654 0
M  V30 3455 H 316.727 3.04905 3.46166 0
M  V30 3456 H 314.97 2.919 3.209 0
M  V30 3457 H 315.641 2.6808 4.82532 0
M  V30 3458 H 318.117 0.912558 4.0597 0
M  V30 3459 H 316.993 0.766547 5.43521 0
M  V30 3460 H 317.254 -0.612063 4.37843 0
M  V30 3461 N 316.313 -1.40141 0.720998 0
M  V30 3462 C 317.538 -2.05618 0.271258 0
M  V30 3463 C 317.963 -1.53978 -1.08039 0
M  V30 3464 O 317.321 -0.677463 -1.68167 0
M  V30 3465 C 317.369 -3.59609 0.267197 0
M  V30 3466 O 316.473 -4.05526 -0.749814 0
M  V30 3467 H 315.814 -0.651904 0.126162 0
M  V30 3468 H 318.344 -1.79439 0.982997 0
M  V30 3469 H 318.354 -4.0786 0.106744 0
M  V30 3470 H 317.029 -3.96559 1.25354 0
M  V30 3471 H 315.606 -3.68722 -0.556644 0
M  V30 3472 N 317.792 -0.46758 -1.50504 0
M  V30 3473 C 319.203 -0.0116166 -1.86696 0
M  V30 3474 C 319.554 1.39202 -1.38265 0
M  V30 3475 O 318.679 2.0313 -0.746132 0
M  V30 3476 C 319.274 -0.0143044 -3.38797 0
M  V30 3477 C 317.833 0.386175 -3.74414 0
M  V30 3478 C 316.98 -0.401287 -2.74381 0
M  V30 3479 H 319.931 -0.682022 -1.43297 0
M  V30 3480 H 319.952 0.788641 -3.72237 0
M  V30 3481 H 319.464 -1.03602 -3.74016 0
M  V30 3482 H 317.565 1.41237 -3.44794 0
M  V30 3483 H 317.678 0.0899596 -4.79016 0
M  V30 3484 H 316.042 0.144536 -2.5429 0
M  V30 3485 H 316.825 -1.42244 -3.12444 0
M  V30 3486 N 319.27 1.56325 -0.20005 0
M  V30 3487 C 320.218 2.20666 0.735482 0
M  V30 3488 C 321.212 1.17934 1.21605 0
M  V30 3489 O 322.418 1.36068 1.17837 0
M  V30 3490 H 318.793 0.70725 0.255542 0
M  V30 3491 H 320.764 2.9792 0.169166 0
M  V30 3492 C 319.513 2.88391 1.94232 0
M  V30 3493 H 318.836 3.67185 1.58161 0
M  V30 3494 H 320.276 3.3684 2.57517 0
M  V30 3495 C 318.735 1.89692 2.78421 0
M  V30 3496 O 319.265 1.40032 3.76502 0
M  V30 3497 N 317.471 1.57813 2.44015 0
M  V30 3498 H 317.018 1.9839 1.64314 0
M  V30 3499 H 316.976 0.920325 3.00628 0
M  V30 3500 N 320.748 -0.0735177 1.57428 0
M  V30 3501 C 321.681 -1.11932 1.98863 0
M  V30 3502 C 322.659 -1.37666 0.865266 0
M  V30 3503 O 323.843 -1.51068 1.12742 0
M  V30 3504 C 320.97 -2.46403 2.32386 0
M  V30 3505 C 320.016 -2.36815 3.54713 0
M  V30 3506 S 320.849 -1.76392 5.05614 0
M  V30 3507 C 322.005 -3.12444 5.42337 0
M  V30 3508 H 322.238 -0.766212 2.87257 0
M  V30 3509 H 319.771 -0.281987 1.51803 0
M  V30 3510 H 321.729 -3.23755 2.52375 0
M  V30 3511 H 320.39 -2.78876 1.44524 0
M  V30 3512 H 319.583 -3.35977 3.7568 0
M  V30 3513 H 319.185 -1.67598 3.34345 0
M  V30 3514 H 321.477 -4.08753 5.40303 0
M  V30 3515 H 322.42 -2.96258 6.43146 0
M  V30 3516 H 322.828 -3.1297 4.69798 0
M  V30 3517 N 322.226 -1.5378 -0.344866 0
M  V30 3518 C 323.174 -1.82373 -1.4437 0
M  V30 3519 C 324.168 -0.694128 -1.54526 0
M  V30 3520 O 325.374 -0.877442 -1.57165 0
M  V30 3521 H 321.749 -0.577765 -0.481344 0
M  V30 3522 H 323.72 -2.74306 -1.17468 0
M  V30 3523 C 322.469 -2.04898 -2.80913 0
M  V30 3524 H 321.792 -2.9127 -2.73865 0
M  V30 3525 H 323.232 -2.28871 -3.56923 0
M  V30 3526 C 321.691 -0.834116 -3.26411 0
M  V30 3527 O 322.221 -0.0328885 -4.01687 0
M  V30 3528 N 320.427 -0.65171 -2.83198 0
M  V30 3529 H 319.974 -1.30489 -2.22104 0
M  V30 3530 H 319.932 0.159686 -3.13994 0
M  V30 3531 N 323.704 0.605807 -1.45491 0
M  V30 3532 C 325.115 1.18777 -1.44045 0
M  V30 3533 C 325.466 1.95471 -0.169001 0
M  V30 3534 O 324.591 2.0374 0.729324 0
M  V30 3535 C 325.186 2.16064 -2.60963 0
M  V30 3536 C 323.745 2.69633 -2.62631 0
M  V30 3537 C 322.892 1.45072 -2.36325 0
M  V30 3538 H 325.843 0.395017 -1.53705 0
M  V30 3539 H 325.864 2.9913 -2.35163 0
M  V30 3540 H 325.376 1.60217 -3.53486 0
M  V30 3541 H 323.477 3.29414 -1.74119 0
M  V30 3542 H 323.59 3.13944 -3.61906 0
M  V30 3543 H 321.954 1.74089 -1.85917 0
M  V30 3544 H 322.737 0.910899 -3.30995 0
M  V30 3545 N 325.182 1.32811 0.848464 0
M  V30 3546 C 326.431 1.23075 1.59798 0
M  V30 3547 C 326.744 -0.204419 1.94529 0
M  V30 3548 O 327.95 -0.423701 2.68173 0
M  V30 3549 C 326.406 2.15594 2.88179 0
M  V30 3550 C 326.014 3.64228 2.60849 0
M  V30 3551 C 327.758 2.14709 3.66197 0
M  V30 3552 C 325.665 4.48689 3.85269 0
M  V30 3553 H 324.595 0.457091 0.599653 0
M  V30 3554 H 327.246 1.57813 0.936342 0
M  V30 3555 H 325.628 1.73778 3.55833 0
M  V30 3556 H 326.802 4.14424 2.01467 0
M  V30 3557 H 325.117 3.67306 1.96151 0
M  V30 3558 H 327.714 2.75046 4.58534 0
M  V30 3559 H 328.057 1.13966 4.00397 0
M  V30 3560 H 328.59 2.54837 3.05455 0
M  V30 3561 H 325.329 5.5027 3.56207 0
M  V30 3562 H 324.849 4.03241 4.44024 0
M  V30 3563 H 326.528 4.62006 4.52946 0
M  V30 3564 N 326.66 -1.06551 1.16123 0
M  V30 3565 C 327.607 -2.13961 0.865414 0
M  V30 3566 C 328.577 -1.65066 -0.185055 0
M  V30 3567 O 329.762 -1.90732 -0.05083 0
M  V30 3568 C 326.902 -3.43113 0.369776 0
M  V30 3569 C 326.015 -4.05756 1.48276 0
M  V30 3570 C 325.15 -5.22773 0.942414 0
M  V30 3571 C 324.189 -5.77395 2.03179 0
M  V30 3572 N 323.326 -6.85731 1.50721 0
M  V30 3573 H 328.166 -2.38605 1.78527 0
M  V30 3574 H 325.703 -1.17072 0.890646 0
M  V30 3575 H 327.661 -4.17151 0.0640643 0
M  V30 3576 H 326.291 -3.18695 -0.513143 0
M  V30 3577 H 325.343 -3.29292 1.9045 0
M  V30 3578 H 326.655 -4.42351 2.30493 0
M  V30 3579 H 325.809 -6.03827 0.589729 0
M  V30 3580 H 324.548 -4.87618 0.0895191 0
M  V30 3581 H 323.553 -4.94981 2.3932 0
M  V30 3582 H 324.778 -6.14603 2.8886 0
M  V30 3583 H 322.724 -6.52499 0.676811 0
M  V30 3584 H 322.641 -7.21254 2.26557 0
M  V30 3585 H 323.909 -7.7047 1.18303 0
M  V30 3586 N 328.138 -0.959301 -1.25041 0
M  V30 3587 C 329.384 -0.617525 -1.9317 0
M  V30 3588 C 329.717 0.843981 -1.74902 0
M  V30 3589 O 328.992 1.60615 -1.09696 0
M  V30 3590 C 329.275 -0.982736 -3.46431 0
M  V30 3591 C 329.128 -2.50032 -3.73904 0
M  V30 3592 C 330.447 -0.511176 -4.37121 0
M  V30 3593 H 327.566 -0.22582 -0.701552 0
M  V30 3594 H 330.208 -1.19679 -1.4757 0
M  V30 3595 H 328.358 -0.489806 -3.854 0
M  V30 3596 H 330.03 -3.06737 -3.44544 0
M  V30 3597 H 328.273 -2.93598 -3.19348 0
M  V30 3598 H 328.944 -2.70635 -4.81103 0
M  V30 3599 H 331.42 -0.934075 -4.0548 0
M  V30 3600 H 330.296 -0.795361 -5.43107 0
M  V30 3601 H 330.557 0.588834 -4.38161 0
M  V30 3602 N 329.616 1.39756 -0.72842 0
M  V30 3603 C 330.564 2.32485 -0.0731849 0
M  V30 3604 C 331.558 1.52717 0.733063 0
M  V30 3605 O 332.764 1.68428 0.634988 0
M  V30 3606 H 329.139 0.751984 -0.00486469 0
M  V30 3607 H 331.11 2.85382 -0.871761 0
M  V30 3608 C 329.859 3.37773 0.824908 0
M  V30 3609 H 329.182 3.99227 0.213915 0
M  V30 3610 H 330.622 4.05121 1.25111 0
M  V30 3611 C 329.081 2.74287 1.95622 0
M  V30 3612 O 329.611 2.61618 3.04826 0
M  V30 3613 N 327.817 2.32475 1.74367 0
M  V30 3614 H 327.364 2.4298 0.855494 0
M  V30 3615 H 327.322 1.90337 2.50238 0
M  V30 3616 N 331.094 0.475555 1.50254 0
M  V30 3617 C 332.004 -0.321501 2.32387 0
M  V30 3618 C 333.02 -0.991755 1.42969 0
M  V30 3619 O 334.196 -0.978747 1.76018 0
M  V30 3620 C 331.261 -1.38667 3.17762 0
M  V30 3621 C 330.322 -0.732538 4.23004 0
M  V30 3622 C 329.555 -1.74695 5.04299 0
M  V30 3623 O 329.778 -2.97399 4.86734 0
M  V30 3624 O 328.712 -1.31631 5.8733 0
M  V30 3625 H 332.538 0.350071 3.01676 0
M  V30 3626 H 330.123 0.237321 1.47503 0
M  V30 3627 H 332.005 -2.00354 3.70724 0
M  V30 3628 H 330.68 -2.04163 2.51196 0
M  V30 3629 H 329.587 -0.0765902 3.74022 0
M  V30 3630 H 330.92 -0.120452 4.92053 0
M  V30 3631 N 332.573 -1.56217 0.208337 0
M  V30 3632 C 333.503 -2.22694 -0.702116 0
M  V30 3633 C 334.484 -1.19432 -1.2112 0
M  V30 3634 O 335.669 -1.47978 -1.25762 0
M  V30 3635 C 332.799 -2.8966 -1.9161 0
M  V30 3636 C 331.753 -3.9928 -1.5414 0
M  V30 3637 C 331.079 -4.53476 -2.83308 0
M  V30 3638 C 332.379 -5.17012 -0.741339 0
M  V30 3639 H 334.073 -2.99034 -0.147898 0
M  V30 3640 H 331.619 -1.43831 -0.0696951 0
M  V30 3641 H 333.572 -3.34852 -2.55836 0
M  V30 3642 H 332.296 -2.10746 -2.49507 0
M  V30 3643 H 330.955 -3.54799 -0.922668 0
M  V30 3644 H 330.603 -3.71308 -3.39322 0
M  V30 3645 H 330.303 -5.27451 -2.58976 0
M  V30 3646 H 331.827 -5.01378 -3.485 0
M  V30 3647 H 333.241 -5.58667 -1.28699 0
M  V30 3648 H 331.638 -5.97137 -0.595627 0
M  V30 3649 H 332.708 -4.8423 0.254851 0
M  V30 3650 N 334.051 0.0651679 -1.57465 0
M  V30 3651 C 335.014 1.06117 -2.03155 0
M  V30 3652 C 336.014 1.31204 -0.929632 0
M  V30 3653 O 337.204 1.26813 -1.19432 0
M  V30 3654 C 334.336 2.4032 -2.41783 0
M  V30 3655 H 335.529 0.667231 -2.92383 0
M  V30 3656 H 333.082 0.311075 -1.53173 0
M  V30 3657 H 333.817 2.84532 -1.55601 0
M  V30 3658 H 333.602 2.23451 -3.22199 0
M  V30 3659 H 335.092 3.11898 -2.77685 0
M  V30 3660 N 335.529 1.53961 0.336706 0
M  V30 3661 C 336.778 1.70751 1.07363 0
M  V30 3662 C 337.091 0.481061 1.89592 0
M  V30 3663 O 338.297 0.530046 2.66276 0
M  V30 3664 C 336.753 3.01965 1.95818 0
M  V30 3665 C 336.361 4.31971 1.18764 0
M  V30 3666 C 338.105 3.28121 2.69327 0
M  V30 3667 C 336.012 5.54255 2.06289 0
M  V30 3668 H 334.942 0.636292 0.404535 0
M  V30 3669 H 337.593 1.80459 0.332681 0
M  V30 3670 H 335.975 2.86132 2.7376 0
M  V30 3671 H 337.149 4.5853 0.456849 0
M  V30 3672 H 335.464 4.12481 0.569946 0
M  V30 3673 H 338.061 4.16673 3.35094 0
M  V30 3674 H 338.404 2.45426 3.36261 0
M  V30 3675 H 338.937 3.44762 1.98454 0
M  V30 3676 H 335.676 6.39513 1.43885 0
M  V30 3677 H 335.196 5.31935 2.77138 0
M  V30 3678 H 336.875 5.90159 2.65182 0
M  V30 3679 N 337.007 -0.598083 1.45811 0
M  V30 3680 C 337.939 -1.72231 1.51225 0
M  V30 3681 C 338.952 -1.57757 0.402059 0
M  V30 3682 O 340.141 -1.65464 0.669624 0
M  V30 3683 C 337.241 -3.10331 1.3619 0
M  V30 3684 C 336.414 -3.50955 2.61054 0
M  V30 3685 C 335.473 -4.68055 2.40439 0
M  V30 3686 O 334.499 -4.74691 3.14097 0
M  V30 3687 N 335.701 -5.61941 1.45612 0
M  V30 3688 H 338.466 -1.68046 2.48154 0
M  V30 3689 H 336.027 -0.783637 1.41671 0
M  V30 3690 H 338.019 -3.86439 1.20195 0
M  V30 3691 H 336.589 -3.0897 0.475015 0
M  V30 3692 H 335.809 -2.64711 2.92099 0
M  V30 3693 H 337.097 -3.74858 3.44034 0
M  V30 3694 H 336.495 -5.59301 0.848431 0
M  V30 3695 H 335.052 -6.37542 1.35585 0
M  V30 3696 N 338.485 -1.33259 -0.841409 0
M  V30 3697 C 339.432 -1.23302 -1.95103 0
M  V30 3698 C 340.402 -0.112204 -1.65721 0
M  V30 3699 O 341.587 -0.290038 -1.88583 0
M  V30 3700 C 338.727 -0.975583 -3.31023 0
M  V30 3701 C 337.84 -2.18243 -3.72819 0
M  V30 3702 C 336.975 -1.85936 -4.97595 0
M  V30 3703 C 336.014 -3.02866 -5.3192 0
M  V30 3704 N 335.151 -2.70565 -6.47873 0
M  V30 3705 H 339.991 -2.18207 -2.02952 0
M  V30 3706 H 337.528 -1.0851 -0.993173 0
M  V30 3707 H 339.486 -0.80677 -4.09325 0
M  V30 3708 H 338.116 -0.0632755 -3.22738 0
M  V30 3709 H 337.168 -2.46107 -2.90061 0
M  V30 3710 H 338.48 -3.05666 -3.94169 0
M  V30 3711 H 337.634 -1.65684 -5.83638 0
M  V30 3712 H 336.373 -0.957452 -4.78209 0
M  V30 3713 H 335.378 -3.23736 -4.44382 0
M  V30 3714 H 336.603 -3.93809 -5.53255 0
M  V30 3715 H 334.549 -1.8293 -6.29978 0
M  V30 3716 H 334.466 -3.51519 -6.69306 0
M  V30 3717 H 335.734 -2.53774 -7.37034 0
M  V30 3718 N 339.963 1.05934 -1.16686 0
M  V30 3719 C 341.379 1.30938 -0.912542 0
M  V30 3720 C 341.579 1.96803 0.432533 0
M  V30 3721 O 340.635 2.23693 1.17123 0
M  V30 3722 C 341.948 2.18649 -2.06429 0
M  V30 3723 C 343.496 2.32055 -2.10047 0
M  V30 3724 C 343.971 3.23122 -3.24586 0
M  V30 3725 N 345.462 3.30706 -3.24327 0
M  V30 3726 C 346.197 4.01273 -4.09594 0
M  V30 3727 N 345.693 4.74332 -5.04956 0
M  V30 3728 N 347.486 3.97361 -3.97569 0
M  V30 3729 H 339.637 0.615777 -2.03278 0
M  V30 3730 H 341.9 0.334077 -0.887185 0
M  V30 3731 H 341.606 1.77534 -3.03603 0
M  V30 3732 H 341.48 3.19252 -2.00894 0
M  V30 3733 H 343.867 2.72415 -1.13464 0
M  V30 3734 H 343.948 1.31107 -2.19647 0
M  V30 3735 H 343.592 2.83477 -4.2143 0
M  V30 3736 H 343.522 4.24057 -3.12223 0
M  V30 3737 H 346.013 2.78644 -2.55276 0
M  V30 3738 H 346.326 5.25716 -5.6643 0
M  V30 3739 H 344.671 4.733 -5.08933 0
M  V30 3740 H 347.862 3.39405 -3.22369 0
M  V30 3741 H 348.035 4.52089 -4.64241 0
M  V30 3742 N 341.441 0.965919 1.2453 0
M  V30 3743 C 342.371 0.513476 2.27784 0
M  V30 3744 C 343.352 -0.445974 1.6415 0
M  V30 3745 O 344.537 -0.342485 1.91156 0
M  V30 3746 C 341.667 -0.198839 3.4673 0
M  V30 3747 C 340.621 0.676456 4.2262 0
M  V30 3748 C 339.947 -0.167248 5.34438 0
M  V30 3749 C 341.247 1.96017 4.84123 0
M  V30 3750 H 342.941 1.3765 2.65881 0
M  V30 3751 H 340.487 0.663321 1.27813 0
M  V30 3752 H 342.44 -0.526567 4.18097 0
M  V30 3753 H 341.164 -1.0962 3.07654 0
M  V30 3754 H 339.823 0.98743 3.53052 0
M  V30 3755 H 339.471 -1.0647 4.91603 0
M  V30 3756 H 339.171 0.415181 5.86131 0
M  V30 3757 H 340.695 -0.489688 6.08633 0
M  V30 3758 H 342.109 1.69814 5.47573 0
M  V30 3759 H 340.506 2.48918 5.4604 0
M  V30 3760 H 341.576 2.65622 4.05676 0
M  V30 3761 N 342.919 -1.39368 0.735821 0
M  V30 3762 C 344.147 -2.04795 0.294393 0
M  V30 3763 C 344.562 -1.55478 -1.07107 0
M  V30 3764 O 343.919 -0.720038 -1.67695 0
M  V30 3765 C 343.97 -3.6035 0.288071 0
M  V30 3766 O 343.691 -4.07852 1.59963 0
M  V30 3767 C 345.192 -4.42976 -0.169422 0
M  V30 3768 H 342.412 -0.658571 0.128551 0
M  V30 3769 H 344.956 -1.78399 0.999701 0
M  V30 3770 H 343.111 -3.85645 -0.368355 0
M  V30 3771 H 343.525 -5.02181 1.51375 0
M  V30 3772 H 344.999 -5.51864 -0.122687 0
M  V30 3773 H 345.476 -4.22068 -1.21472 0
M  V30 3774 H 346.082 -4.22832 0.457469 0
M  V30 3775 N 344.397 -0.483516 -1.5 0
M  V30 3776 C 345.646 0.0689102 -2.01582 0
M  V30 3777 C 345.959 1.39655 -1.36952 0
M  V30 3778 O 347.165 2.03465 -1.79762 0
M  V30 3779 C 345.621 0.173302 -3.59483 0
M  V30 3780 C 345.229 -1.14665 -4.33077 0
M  V30 3781 C 346.973 0.677024 -4.19066 0
M  V30 3782 C 344.88 -1.00537 -5.82792 0
M  V30 3783 H 343.81 0.0295277 -0.753422 0
M  V30 3784 H 346.461 -0.620295 -1.72698 0
M  V30 3785 H 344.843 0.926569 -3.85007 0
M  V30 3786 H 346.017 -1.91184 -4.19268 0
M  V30 3787 H 344.332 -1.58244 -3.85159 0
M  V30 3788 H 346.929 0.799952 -5.28682 0
M  V30 3789 H 347.272 1.67151 -3.81269 0
M  V30 3790 H 347.805 -0.0192083 -3.97795 0
M  V30 3791 H 344.544 -1.9736 -6.25083 0
M  V30 3792 H 344.064 -0.280776 -5.99142 0
M  V30 3793 H 345.743 -0.677 -6.43448 0
M  V30 3794 N 345.875 1.56104 -0.216619 0
M  V30 3795 C 346.825 2.16703 0.708798 0
M  V30 3796 C 347.809 1.11392 1.16106 0
M  V30 3797 O 349.001 1.37395 1.11587 0
M  V30 3798 C 346.13 2.84666 1.91886 0
M  V30 3799 C 345.216 3.97195 1.48651 0
M  V30 3800 N 345.607 4.99959 0.766434 0
M  V30 3801 C 343.905 4.09193 1.77418 0
M  V30 3802 C 344.606 5.79126 0.546659 0
M  V30 3803 N 343.582 5.32315 1.10188 0
M  V30 3804 H 347.384 2.93516 0.150162 0
M  V30 3805 H 344.898 1.6239 -0.0176768 0
M  V30 3806 H 346.895 3.26486 2.59253 0
M  V30 3807 H 345.555 2.09347 2.48202 0
M  V30 3808 H 346.566 5.16197 0.419634 0
M  V30 3809 H 343.243 3.45021 2.35088 0
M  V30 3810 H 344.633 6.71895 -0.026103 0
M  V30 3811 N 347.353 -0.0568162 1.57498 0
M  V30 3812 C 348.601 -0.751617 1.87604 0
M  V30 3813 C 348.922 -1.77351 0.81066 0
M  V30 3814 O 348.192 -1.95254 -0.159018 0
M  V30 3815 H 346.772 -0.280583 0.692302 0
M  V30 3816 H 349.434 -0.0293483 1.94878 0
M  V30 3817 H 348.53 -1.25852 2.856 0
M  V30 3818 N 348.832 -1.54138 -0.328536 0
M  V30 3819 C 349.779 -1.83176 -1.40411 0
M  V30 3820 C 350.749 -0.678494 -1.5161 0
M  V30 3821 O 351.934 -0.92443 -1.6691 0
M  V30 3822 C 349.074 -2.06035 -2.76846 0
M  V30 3823 C 348.187 -3.33727 -2.74318 0
M  V30 3824 C 347.322 -3.46574 -4.02567 0
M  V30 3825 C 346.361 -4.68159 -3.94327 0
M  V30 3826 N 345.498 -4.77959 -5.14296 0
M  V30 3827 H 350.338 -2.74938 -1.14948 0
M  V30 3828 H 347.875 -1.36166 -0.556538 0
M  V30 3829 H 349.833 -2.1728 -3.56153 0
M  V30 3830 H 348.463 -1.1757 -3.00628 0
M  V30 3831 H 347.515 -3.31246 -1.8703 0
M  V30 3832 H 348.827 -4.23139 -2.64111 0
M  V30 3833 H 347.981 -3.57333 -4.90304 0
M  V30 3834 H 346.72 -2.55245 -4.15574 0
M  V30 3835 H 345.725 -4.57461 -3.04974 0
M  V30 3836 H 346.95 -5.60868 -3.82889 0
M  V30 3837 H 344.896 -3.89544 -5.27818 0
M  V30 3838 H 344.813 -5.6133 -5.06404 0
M  V30 3839 H 346.081 -4.93044 -6.03761 0
M  V30 3840 N 350.31 0.590341 -1.46126 0
M  V30 3841 C 351.22 1.72793 -1.58681 0
M  V30 3842 C 352.236 1.67516 -0.470566 0
M  V30 3843 O 353.412 1.87562 -0.733642 0
M  V30 3844 C 350.477 3.09287 -1.5666 0
M  V30 3845 C 349.538 3.25886 -2.79458 0
M  V30 3846 C 348.771 4.55869 -2.77524 0
M  V30 3847 O 348.994 5.3928 -1.85832 0
M  V30 3848 O 347.928 4.75552 -3.68964 0
M  V30 3849 H 351.754 1.65149 -2.54872 0
M  V30 3850 H 349.339 0.756486 -1.28832 0
M  V30 3851 H 351.221 3.90577 -1.58202 0
M  V30 3852 H 349.896 3.17385 -0.636271 0
M  V30 3853 H 348.803 2.44119 -2.83472 0
M  V30 3854 H 350.136 3.22675 -3.71674 0
M  V30 3855 N 351.788 1.33704 0.83433 0
M  V30 3856 C 353.065 1.16011 1.57483 0
M  V30 3857 C 353.445 -0.27176 2.09343 0
M  V30 3858 O 352.793 -1.27146 1.89858 0
M  V30 3859 C 353.003 2.20507 2.70514 0
M  V30 3860 C 354.351 2.54898 3.39577 0
M  V30 3861 O 355.375 2.19209 2.80759 0
M  V30 3862 O 354.234 3.16158 4.45765 0
M  V30 3863 H 351.328 0.448992 0.694503 0
M  V30 3864 H 353.874 1.453 0.876691 0
M  V30 3865 H 352.646 3.16667 2.29865 0
M  V30 3866 H 352.269 1.92329 3.47987 0
M  V30 3867 N 353.266 -1.05314 1.17247 0
M  V30 3868 C 354.176 -2.16538 0.90268 0
M  V30 3869 C 355.192 -1.73523 -0.128707 0
M  V30 3870 O 356.368 -2.01337 0.0502701 0
M  V30 3871 C 353.433 -3.44167 0.418356 0
M  V30 3872 C 352.494 -4.01635 1.51618 0
M  V30 3873 C 351.727 -5.23171 1.05487 0
M  V30 3874 O 351.95 -5.70327 -0.0914715 0
M  V30 3875 O 350.884 -5.72848 1.8474 0
M  V30 3876 H 354.71 -2.42145 1.83302 0
M  V30 3877 H 352.295 -1.15037 0.953246 0
M  V30 3878 H 354.177 -4.21112 0.155726 0
M  V30 3879 H 352.852 -3.20063 -0.48385 0
M  V30 3880 H 351.759 -3.26135 1.83268 0
M  V30 3881 H 353.092 -4.30053 2.39405 0
M  V30 3882 N 354.744 -0.972509 -1.24016 0
M  V30 3883 C 355.99 -0.637978 -1.92504 0
M  V30 3884 C 356.323 0.825383 -1.75787 0
M  V30 3885 O 355.598 1.59442 -1.11393 0
M  V30 3886 C 355.881 -1.01942 -3.45369 0
M  V30 3887 C 355.734 -2.53983 -3.71231 0
M  V30 3888 C 357.053 -0.55751 -4.36555 0
M  V30 3889 H 354.172 -0.233248 -0.699117 0
M  V30 3890 H 356.814 -1.21238 -1.46292 0
M  V30 3891 H 354.964 -0.530656 -3.84859 0
M  V30 3892 H 356.636 -3.10374 -3.41271 0
M  V30 3893 H 354.879 -2.96968 -3.16216 0
M  V30 3894 H 355.55 -2.75723 -4.78206 0
M  V30 3895 H 358.026 -0.977029 -4.04467 0
M  V30 3896 H 356.902 -0.85292 -5.42233 0
M  V30 3897 H 357.163 0.542328 -4.38761 0
M  V30 3898 N 356.222 1.38976 -0.743202 0
M  V30 3899 C 357.447 2.05161 -0.303936 0
M  V30 3900 C 357.872 1.55677 1.05576 0
M  V30 3901 O 357.23 0.704131 1.67068 0
M  V30 3902 C 357.278 3.59138 -0.324373 0
M  V30 3903 O 356.382 4.06668 0.685204 0
M  V30 3904 H 355.723 0.649815 -0.136518 0
M  V30 3905 H 358.253 1.77852 -1.01142 0
M  V30 3906 H 358.263 4.07639 -0.171618 0
M  V30 3907 H 356.938 3.94515 -1.31647 0
M  V30 3908 H 355.515 3.69561 0.497913 0
M  V30 3909 N 357.7 0.491464 1.49741 0
M  V30 3910 C 359.111 0.0413169 1.86654 0
M  V30 3911 C 359.462 -1.36985 1.40462 0
M  V30 3912 O 358.587 -2.01917 0.778354 0
M  V30 3913 C 359.182 0.0682023 3.38731 0
M  V30 3914 C 357.741 -0.32656 3.74981 0
M  V30 3915 C 356.888 0.444888 2.73708 0
M  V30 3916 H 359.839 0.704733 1.42194 0
M  V30 3917 H 359.86 -0.729322 3.73445 0
M  V30 3918 H 359.372 1.09539 3.72321 0
M  V30 3919 H 357.473 -1.35734 3.46997 0
M  V30 3920 H 357.586 -0.013741 4.79098 0
M  V30 3921 H 355.95 -0.104062 2.54487 0
M  V30 3922 H 356.733 1.47197 3.10142 0
M  V30 3923 N 359.178 -1.55987 0.224894 0
M  V30 3924 C 360.408 -2.02489 -0.41007 0
M  V30 3925 C 360.816 -1.10391 -1.53657 0
M  V30 3926 O 360.159 -0.106458 -1.83391 0
M  V30 3927 C 360.221 -3.45319 -0.999757 0
M  V30 3928 C 359.885 -4.56999 -0.00827976 0
M  V30 3929 C 360.882 -5.13812 0.793314 0
M  V30 3930 C 358.567 -5.02176 0.111442 0
M  V30 3931 C 360.561 -6.14276 1.7013 0
M  V30 3932 C 358.248 -6.02477 1.02296 0
M  V30 3933 C 359.246 -6.58403 1.81643 0
M  V30 3934 O 358.934 -7.56751 2.71262 0
M  V30 3935 H 358.666 -0.667915 -0.104235 0
M  V30 3936 H 361.22 -2.0257 0.339782 0
M  V30 3937 H 359.45 -3.42318 -1.79876 0
M  V30 3938 H 361.139 -3.7545 -1.54248 0
M  V30 3939 H 361.905 -4.79756 0.711288 0
M  V30 3940 H 357.784 -4.58323 -0.49605 0
M  V30 3941 H 361.328 -6.57854 2.32107 0
M  V30 3942 H 357.225 -6.35954 1.10599 0
M  V30 3943 H 357.993 -7.74286 2.65375 0
M  V30 3944 N 360.656 0.0484629 -1.57525 0
M  V30 3945 C 361.933 0.777447 -1.79486 0
M  V30 3946 C 362.313 1.94597 -0.818251 0
M  V30 3947 O 361.661 2.28047 0.143767 0
M  V30 3948 C 361.871 1.22864 -3.26658 0
M  V30 3949 C 363.219 1.65251 -3.91123 0
M  V30 3950 O 364.243 1.32372 -3.3069 0
M  V30 3951 O 363.102 2.26207 -4.97486 0
M  V30 3952 H 360.196 0.374357 -0.737419 0
M  V30 3953 H 362.742 0.0267359 -1.69679 0
M  V30 3954 H 361.514 0.393589 -3.89316 0
M  V30 3955 H 361.137 2.03996 -3.41279 0
M  V30 3956 N 362.134 1.5431 0.320358 0
M  V30 3957 C 363.364 1.7638 1.07582 0
M  V30 3958 C 363.772 0.513944 1.82086 0
M  V30 3959 O 363.115 -0.525123 1.76035 0
M  V30 3960 C 363.177 2.9055 2.1171 0
M  V30 3961 C 362.841 4.2934 1.56575 0
M  V30 3962 C 363.838 5.10077 1.00586 0
M  V30 3963 C 361.523 4.75893 1.60722 0
M  V30 3964 C 363.517 6.35477 0.494756 0
M  V30 3965 C 361.204 6.0126 1.09224 0
M  V30 3966 C 362.202 6.80886 0.53696 0
M  V30 3967 O 361.89 8.03894 0.0297371 0
M  V30 3968 H 361.622 0.592369 0.325692 0
M  V30 3969 H 364.176 2.02019 0.37116 0
M  V30 3970 H 362.406 2.60489 2.85801 0
M  V30 3971 H 364.095 3.00373 2.73003 0
M  V30 3972 H 364.861 4.75265 0.966869 0
M  V30 3973 H 360.74 4.13957 2.02882 0
M  V30 3974 H 364.284 6.97574 0.0606842 0
M  V30 3975 H 360.181 6.35562 1.12831 0
M  V30 3976 H 360.949 8.18372 0.14486 0
M  V30 3977 N 363.613 -0.582584 1.46437 0
M  V30 3978 C 364.859 -1.34278 1.51978 0
M  V30 3979 C 365.192 -1.93446 0.170973 0
M  V30 3980 O 364.467 -1.76481 -0.817608 0
M  V30 3981 C 364.75 -2.47203 2.61845 0
M  V30 3982 C 364.603 -1.93069 4.06257 0
M  V30 3983 C 365.922 -3.49247 2.67795 0
M  V30 3984 H 363.041 -0.486876 0.553282 0
M  V30 3985 H 365.683 -0.654437 1.78374 0
M  V30 3986 H 363.833 -3.0592 2.39469 0
M  V30 3987 H 365.505 -1.38808 4.3992 0
M  V30 3988 H 363.748 -1.23898 4.1573 0
M  V30 3989 H 364.419 -2.74586 4.7886 0
M  V30 3990 H 366.895 -3.00411 2.8791 0
M  V30 3991 H 365.771 -4.25719 3.46489 0
M  V30 3992 H 366.032 -4.06482 1.73852 0
M  V30 3993 N 365.091 -1.34144 -0.827227 0
M  V30 3994 C 366.021 -1.28005 -1.95287 0
M  V30 3995 C 367.002 -0.158321 -1.69362 0
M  V30 3996 O 368.187 -0.349987 -1.9102 0
M  V30 3997 C 365.317 -1.03036 -3.31664 0
M  V30 3998 C 364.271 -2.11628 -3.72019 0
M  V30 3999 C 363.597 -1.71854 -5.0633 0
M  V30 4000 C 364.897 -3.53417 -3.8457 0
M  V30 4001 H 366.591 -2.22187 -2.00682 0
M  V30 4002 H 364.137 -1.0696 -0.964135 0
M  V30 4003 H 366.09 -0.973863 -4.09993 0
M  V30 4004 H 364.814 -0.0529391 -3.26557 0
M  V30 4005 H 363.473 -2.16339 -2.95961 0
M  V30 4006 H 363.121 -0.727841 -4.97706 0
M  V30 4007 H 362.821 -2.44531 -5.34302 0
M  V30 4008 H 364.345 -1.67692 -5.87122 0
M  V30 4009 H 365.759 -3.51142 -4.5318 0
M  V30 4010 H 364.156 -4.24679 -4.2399 0
M  V30 4011 H 365.226 -3.91072 -2.86689 0
M  V30 4012 N 366.569 1.04691 -1.17803 0
M  V30 4013 C 367.501 2.12571 -0.857097 0
M  V30 4014 C 368.514 1.62174 0.142647 0
M  V30 4015 O 369.703 1.78301 -0.0843387 0
M  V30 4016 C 366.803 3.37915 -0.258216 0
M  V30 4017 C 365.976 4.1757 -1.30207 0
M  V30 4018 C 365.035 5.2125 -0.720029 0
M  V30 4019 O 364.061 5.51888 -1.39314 0
M  V30 4020 N 365.263 5.78466 0.485507 0
M  V30 4021 H 368.028 2.40698 -1.78562 0
M  V30 4022 H 365.589 1.20831 -1.07757 0
M  V30 4023 H 367.581 4.04442 0.144584 0
M  V30 4024 H 366.151 3.07281 0.574199 0
M  V30 4025 H 365.371 3.46458 -1.88043 0
M  V30 4026 H 366.659 4.67586 -2.00601 0
M  V30 4027 H 366.057 5.55866 1.05022 0
M  V30 4028 H 364.614 6.4649 0.830307 0
M  V30 4029 N 368.047 0.979072 1.23499 0
M  V30 4030 C 369.293 0.648178 1.92163 0
M  V30 4031 C 369.626 -0.816049 1.76222 0
M  V30 4032 O 368.901 -1.58849 1.12237 0
M  V30 4033 C 369.184 1.03773 3.44824 0
M  V30 4034 C 369.037 2.55948 3.69879 0
M  V30 4035 C 370.356 0.580653 4.36253 0
M  V30 4036 H 367.475 0.236952 0.69787 0
M  V30 4037 H 370.117 1.22012 1.45647 0
M  V30 4038 H 368.267 0.551058 3.84572 0
M  V30 4039 H 369.939 3.12179 3.3962 0
M  V30 4040 H 368.182 2.98641 3.14636 0
M  V30 4041 H 368.853 2.78255 4.76737 0
M  V30 4042 H 371.329 0.998465 4.03943 0
M  V30 4043 H 370.205 0.881663 5.41773 0
M  V30 4044 H 370.466 -0.519052 4.39042 0
M  V30 4045 N 369.525 -1.3858 0.750561 0
M  V30 4046 C 370.75 -2.04997 0.314812 0
M  V30 4047 C 371.175 -1.56235 -1.04749 0
M  V30 4048 O 370.533 -0.712981 -1.66692 0
M  V30 4049 C 370.581 -3.58961 0.343415 0
M  V30 4050 O 369.685 -4.07025 -0.663628 0
M  V30 4051 H 369.026 -0.649081 0.139962 0
M  V30 4052 H 371.556 -1.77313 1.02084 0
M  V30 4053 H 371.566 -4.07542 0.193233 0
M  V30 4054 H 370.241 -3.93811 1.33738 0
M  V30 4055 H 368.818 -3.6982 -0.478307 0
M  V30 4056 N 371.003 -0.499398 -1.49478 0
M  V30 4057 C 372.251 0.0455996 -2.02049 0
M  V30 4058 C 372.572 1.37633 -1.38138 0
M  V30 4059 O 371.842 1.8842 -0.536166 0
M  V30 4060 H 370.422 0.0198416 -0.746736 0
M  V30 4061 H 373.084 -0.656274 -1.83519 0
M  V30 4062 H 372.18 0.176445 -3.11601 0
M  V30 4063 N 372.481 1.55866 -0.233164 0
M  V30 4064 C 373.897 1.59133 0.121988 0
M  V30 4065 C 374.097 1.25016 1.58029 0
M  V30 4066 O 373.153 0.990922 2.32243 0
M  V30 4067 C 374.466 2.99932 -0.214792 0
M  V30 4068 C 376.014 3.12601 -0.157971 0
M  V30 4069 C 376.489 4.55597 -0.46859 0
M  V30 4070 N 377.98 4.61305 -0.418585 0
M  V30 4071 C 378.715 5.69903 -0.63227 0
M  V30 4072 N 378.211 6.86819 -0.90835 0
M  V30 4073 N 380.004 5.59264 -0.563913 0
M  V30 4074 H 372.155 1.76315 -1.18434 0
M  V30 4075 H 374.418 0.820093 -0.475553 0
M  V30 4076 H 374.124 3.29588 -1.22739 0
M  V30 4077 H 373.998 3.74327 0.464691 0
M  V30 4078 H 376.385 2.82735 0.845283 0
M  V30 4079 H 376.466 2.40511 -0.871102 0
M  V30 4080 H 376.11 4.86182 -1.46934 0
M  V30 4081 H 376.04 5.25928 0.265865 0
M  V30 4082 H 378.531 3.77297 -0.213368 0
M  V30 4083 H 378.844 7.65507 -1.05919 0
M  V30 4084 H 377.189 6.88536 -0.945673 0
M  V30 4085 H 380.38 4.66802 -0.348372 0
M  V30 4086 H 380.553 6.43831 -0.733847 0
M  V30 4087 N 373.959 -0.0401083 1.57549 0
M  V30 4088 C 375.205 -0.734211 1.89043 0
M  V30 4089 C 375.538 -1.75591 0.829535 0
M  V30 4090 O 374.813 -1.93868 -0.156706 0
M  V30 4091 C 375.096 -1.41374 3.31188 0
M  V30 4092 C 374.949 -0.406299 4.47961 0
M  V30 4093 C 376.268 -2.35061 3.72068 0
M  V30 4094 H 373.387 -0.265447 0.687537 0
M  V30 4095 H 376.029 0.00294087 1.9 0
M  V30 4096 H 374.179 -2.04206 3.30503 0
M  V30 4097 H 375.851 0.219255 4.60779 0
M  V30 4098 H 374.094 0.275485 4.32924 0
M  V30 4099 H 374.765 -0.920022 5.44279 0
M  V30 4100 H 377.241 -1.82282 3.74049 0
M  V30 4101 H 376.117 -2.79593 4.72355 0
M  V30 4102 H 376.378 -3.21258 3.0372 0
M  V30 4103 N 375.437 -1.54477 -0.31217 0
M  V30 4104 C 376.347 -1.87695 -1.4074 0
M  V30 4105 C 377.363 -0.769975 -1.56036 0
M  V30 4106 O 378.539 -1.06537 -1.70915 0
M  V30 4107 C 375.604 -2.10755 -2.75287 0
M  V30 4108 C 374.665 -3.34514 -2.69071 0
M  V30 4109 C 373.898 -3.56465 -3.97201 0
M  V30 4110 O 374.121 -2.81637 -4.96021 0
M  V30 4111 O 373.055 -4.49964 -3.9977 0
M  V30 4112 H 376.881 -2.80849 -1.15574 0
M  V30 4113 H 374.466 -1.40526 -0.507228 0
M  V30 4114 H 376.348 -2.27188 -3.54913 0
M  V30 4115 H 375.023 -1.20788 -3.0032 0
M  V30 4116 H 373.93 -3.23456 -1.87955 0
M  V30 4117 H 375.263 -4.24575 -2.48992 0
M  V30 4118 N 376.915 0.57481 -1.46744 0
M  V30 4119 C 378.145 1.35659 -1.55821 0
M  V30 4120 C 378.553 1.88129 -0.201036 0
M  V30 4121 O 377.896 1.64723 0.813134 0
M  V30 4122 C 377.958 2.57473 -2.50894 0
M  V30 4123 C 377.622 2.26415 -3.9697 0
M  V30 4124 C 378.619 1.84771 -4.85958 0
M  V30 4125 C 376.304 2.38316 -4.42166 0
M  V30 4126 C 378.298 1.55434 -6.18158 0
M  V30 4127 C 375.985 2.08591 -5.74398 0
M  V30 4128 C 376.983 1.67216 -6.62214 0
M  V30 4129 O 376.671 1.37859 -7.91991 0
M  V30 4130 H 376.403 0.420496 -0.529301 0
M  V30 4131 H 378.957 0.704967 -1.92923 0
M  V30 4132 H 377.187 3.25468 -2.08824 0
M  V30 4133 H 378.876 3.19546 -2.50291 0
M  V30 4134 H 379.642 1.75085 -4.52295 0
M  V30 4135 H 375.521 2.69483 -3.74032 0
M  V30 4136 H 379.065 1.23065 -6.86659 0
M  V30 4137 H 374.962 2.17905 -6.07608 0
M  V30 4138 H 375.73 1.51638 -8.04331 0
M  V30 4139 N 378.394 1.34581 0.820102 0
M  V30 4140 C 379.64 1.27285 1.57881 0
M  V30 4141 C 379.973 -0.156137 1.93571 0
M  V30 4142 O 379.248 -1.10222 1.60254 0
M  V30 4143 C 379.531 2.16639 2.87645 0
M  V30 4144 C 379.384 3.68088 2.58517 0
M  V30 4145 C 380.703 2.05378 3.8924 0
M  V30 4146 H 377.822 0.463714 0.572833 0
M  V30 4147 H 380.464 1.64859 0.944539 0
M  V30 4148 H 378.614 1.84725 3.41773 0
M  V30 4149 H 380.286 4.10382 2.10676 0
M  V30 4150 H 378.529 3.89038 1.91917 0
M  V30 4151 H 379.2 4.2598 3.51063 0
M  V30 4152 H 381.676 2.33404 3.44473 0
M  V30 4153 H 380.552 2.7012 4.77835 0
M  V30 4154 H 380.813 1.0316 4.29896 0
M  V30 4155 N 379.872 -1.04064 1.18357 0
M  V30 4156 C 381.119 -1.77265 0.978947 0
M  V30 4157 C 381.447 -1.88189 -0.491428 0
M  V30 4158 O 380.702 -1.38653 -1.38108 0
M  V30 4159 C 381.001 -3.20634 1.57888 0
M  V30 4160 C 380.667 -3.29743 3.07539 0
M  V30 4161 C 379.329 -3.31937 3.48384 0
M  V30 4162 C 381.681 -3.29841 4.03552 0
M  V30 4163 C 379.009 -3.3187 4.83818 0
M  V30 4164 C 381.361 -3.31313 5.38901 0
M  V30 4165 C 380.025 -3.31799 5.79194 0
M  V30 4166 H 379.295 -0.648659 0.358222 0
M  V30 4167 H 381.942 -1.22225 1.47422 0
M  V30 4168 H 380.247 -3.78675 1.00561 0
M  V30 4169 H 381.944 -3.75917 1.39598 0
M  V30 4170 H 378.534 -3.28757 2.74986 0
M  V30 4171 H 382.718 -3.27337 3.73047 0
M  V30 4172 H 377.974 -3.30562 5.14333 0
M  V30 4173 H 382.148 -3.30338 6.13066 0
M  V30 4174 H 379.775 -3.315 6.84114 0
M  V30 4175 N 381.35 -0.985608 -1.22978 0
M  V30 4176 C 382.598 -0.656087 -1.91154 0
M  V30 4177 C 382.919 0.813561 -1.77218 0
M  V30 4178 O 382.189 1.58244 -1.1548 0
M  V30 4179 H 380.769 -0.239674 -0.707506 0
M  V30 4180 H 383.431 -1.25054 -1.49491 0
M  V30 4181 H 382.527 -0.912253 -2.9847 0
M  V30 4182 N 382.828 1.3818 -0.7579 0
M  V30 4183 C 384.105 1.94106 -0.241306 0
M  V30 4184 C 384.485 1.69282 1.26122 0
M  V30 4185 O 383.833 1.03378 2.03777 0
M  V30 4186 C 384.043 3.43809 -0.59967 0
M  V30 4187 C 385.391 4.20868 -0.561717 0
M  V30 4188 O 386.415 3.5211 -0.538222 0
M  V30 4189 O 385.274 5.43451 -0.576478 0
M  V30 4190 H 382.368 0.825376 -0.0518042 0
M  V30 4191 H 384.914 1.47548 -0.838315 0
M  V30 4192 H 383.686 3.55403 -1.6372 0
M  V30 4193 H 383.309 3.97592 0.0251197 0
M  V30 4194 N 384.306 0.507319 1.49211 0
M  V30 4195 C 385.256 -0.287112 2.26185 0
M  V30 4196 C 386.24 -0.929983 1.31302 0
M  V30 4197 O 387.432 -0.836538 1.55984 0
M  V30 4198 C 384.561 -1.34718 3.15763 0
M  V30 4199 C 383.647 -0.710235 4.18111 0
M  V30 4200 N 384.038 0.190836 5.0544 0
M  V30 4201 C 382.336 -0.97009 4.35322 0
M  V30 4202 C 383.037 0.55606 5.79036 0
M  V30 4203 N 382.013 -0.0775232 5.43545 0
M  V30 4204 H 385.815 0.406445 2.91076 0
M  V30 4205 H 383.329 0.323814 1.59139 0
M  V30 4206 H 385.326 -1.92982 3.69545 0
M  V30 4207 H 383.986 -2.04235 2.52424 0
M  V30 4208 H 384.997 0.562047 5.14841 0
M  V30 4209 H 381.674 -1.65753 3.83187 0
M  V30 4210 H 383.064 1.2936 6.5933 0
M  V30 4211 N 385.784 -1.5574 0.241426 0
M  V30 4212 C 387.195 -1.84842 -0.262755 0
M  V30 4213 C 387.546 -1.16317 -1.58003 0
M  V30 4214 O 386.671 -0.439653 -2.11887 0
M  V30 4215 C 387.266 -3.35332 -0.483523 0
M  V30 4216 C 385.825 -3.6468 -0.931977 0
M  V30 4217 C 384.972 -2.77299 -0.0061151 0
M  V30 4218 H 387.923 -1.51761 0.464129 0
M  V30 4219 H 387.944 -3.56615 -1.32688 0
M  V30 4220 H 387.456 -3.85178 0.47537 0
M  V30 4221 H 385.557 -3.20307 -1.90353 0
M  V30 4222 H 385.67 -4.72498 -0.792628 0
M  V30 4223 H 384.034 -2.49408 -0.516503 0
M  V30 4224 H 384.817 -3.2995 0.948052 0
M  V30 4225 N 387.262 0.0317525 -1.57568 0
M  V30 4226 C 388.192 1.03274 -2.0942 0
M  V30 4227 C 389.173 1.3788 -0.996143 0
M  V30 4228 O 390.358 1.46811 -1.27122 0
M  V30 4229 C 387.488 2.33448 -2.57137 0
M  V30 4230 C 386.442 2.13091 -3.71182 0
M  V30 4231 C 385.768 3.49001 -4.05095 0
M  V30 4232 C 387.068 1.51928 -4.99715 0
M  V30 4233 H 388.762 0.60112 -2.93303 0
M  V30 4234 H 386.308 0.287705 -1.41097 0
M  V30 4235 H 388.261 3.03802 -2.92032 0
M  V30 4236 H 386.985 2.78665 -1.70333 0
M  V30 4237 H 385.644 1.45171 -3.36632 0
M  V30 4238 H 385.292 3.91862 -3.15362 0
M  V30 4239 H 384.992 3.36207 -4.81911 0
M  V30 4240 H 386.516 4.20721 -4.42522 0
M  V30 4241 H 387.93 2.12196 -5.32584 0
M  V30 4242 H 386.327 1.49716 -5.81124 0
M  V30 4243 H 387.397 0.484811 -4.8247 0
M  V30 4244 N 388.74 1.54641 0.303973 0
M  V30 4245 C 389.989 1.7299 1.03717 0
M  V30 4246 C 390.302 0.521168 1.88529 0
M  V30 4247 O 391.508 0.586408 2.65092 0
M  V30 4248 C 389.964 3.06051 1.89369 0
M  V30 4249 C 389.572 4.34393 1.09574 0
M  V30 4250 C 391.316 3.3376 2.62306 0
M  V30 4251 C 389.223 5.58506 1.94486 0
M  V30 4252 H 388.153 0.64473 0.390947 0
M  V30 4253 H 390.804 1.81124 0.294328 0
M  V30 4254 H 389.186 2.91874 2.67629 0
M  V30 4255 H 390.36 4.59396 0.359485 0
M  V30 4256 H 388.675 4.13597 0.482324 0
M  V30 4257 H 391.272 4.23687 3.26181 0
M  V30 4258 H 391.615 2.52503 3.3098 0
M  V30 4259 H 392.148 3.48894 1.91097 0
M  V30 4260 H 388.887 6.42422 1.30287 0
M  V30 4261 H 388.407 5.37694 2.65792 0
M  V30 4262 H 390.086 5.95651 2.52605 0
M  V30 4263 N 390.218 -0.567019 1.47046 0
M  V30 4264 C 391.15 -1.68985 1.54844 0
M  V30 4265 C 392.163 -1.56869 0.435431 0
M  V30 4266 O 393.352 -1.64006 0.70457 0
M  V30 4267 C 390.452 -3.07373 1.42742 0
M  V30 4268 C 389.625 -3.45339 2.6844 0
M  V30 4269 C 388.684 -4.62849 2.50314 0
M  V30 4270 O 387.71 -4.67922 3.24095 0
M  V30 4271 N 388.912 -5.58726 1.57499 0
M  V30 4272 H 391.677 -1.62745 2.51663 0
M  V30 4273 H 389.238 -0.753411 1.43302 0
M  V30 4274 H 391.23 -3.83803 1.28365 0
M  V30 4275 H 389.8 -3.07893 0.540445 0
M  V30 4276 H 389.02 -2.58455 2.97648 0
M  V30 4277 H 390.308 -3.67476 3.51907 0
M  V30 4278 H 389.706 -5.57376 0.966876 0
M  V30 4279 H 388.263 -6.34523 1.49078 0
M  V30 4280 N 391.696 -1.35014 -0.812953 0
M  V30 4281 C 392.943 -1.27931 -1.56971 0
M  V30 4282 C 393.271 0.148034 -1.93936 0
M  V30 4283 O 392.526 1.11175 -1.61054 0
M  V30 4284 C 392.825 -2.12524 -2.87347 0
M  V30 4285 C 392.491 -3.61401 -2.6963 0
M  V30 4286 C 391.153 -4.01983 -2.64506 0
M  V30 4287 C 393.505 -4.55894 -2.52607 0
M  V30 4288 C 390.833 -5.35235 -2.40293 0
M  V30 4289 C 393.185 -5.89336 -2.29925 0
M  V30 4290 C 391.849 -6.2907 -2.23219 0
M  V30 4291 H 391.119 -0.468131 -0.574399 0
M  V30 4292 H 393.766 -1.66851 -0.939836 0
M  V30 4293 H 392.071 -1.66463 -3.54679 0
M  V30 4294 H 393.768 -2.04383 -3.45005 0
M  V30 4295 H 390.358 -3.29193 -2.74463 0
M  V30 4296 H 394.542 -4.25431 -2.55583 0
M  V30 4297 H 389.798 -5.65028 -2.33566 0
M  V30 4298 H 393.972 -6.62139 -2.15743 0
M  V30 4299 H 391.599 -7.32256 -2.04219 0
M  V30 4300 N 393.175 1.03435 -1.18907 0
M  V30 4301 C 394.107 2.1165 -0.879595 0
M  V30 4302 C 395.12 1.62316 0.125439 0
M  V30 4303 O 396.309 1.78201 -0.103245 0
M  V30 4304 C 393.409 3.37622 -0.294042 0
M  V30 4305 C 392.582 4.16166 -1.34629 0
M  V30 4306 C 391.641 5.20457 -0.775274 0
M  V30 4307 O 390.667 5.50379 -1.4516 0
M  V30 4308 N 391.869 5.78949 0.424126 0
M  V30 4309 H 394.634 2.38791 -1.81105 0
M  V30 4310 H 392.195 1.19681 -1.09032 0
M  V30 4311 H 394.187 4.04572 0.101679 0
M  V30 4312 H 392.757 3.07873 0.541575 0
M  V30 4313 H 391.977 3.44444 -1.91707 0
M  V30 4314 H 393.265 4.65432 -2.05549 0
M  V30 4315 H 392.663 5.56948 0.991209 0
M  V30 4316 H 391.22 6.47334 0.761691 0
M  V30 4317 N 394.653 0.992116 1.22453 0
M  V30 4318 C 395.883 0.684949 1.94915 0
M  V30 4319 C 396.291 -0.754292 1.73514 0
M  V30 4320 O 395.634 -1.52056 1.03076 0
M  V30 4321 C 395.696 0.910054 3.47791 0
M  V30 4322 C 395.36 2.33363 3.92926 0
M  V30 4323 C 396.357 3.31308 4.00663 0
M  V30 4324 C 394.042 2.66785 4.25595 0
M  V30 4325 C 396.036 4.6075 4.40441 0
M  V30 4326 C 393.723 3.96446 4.65053 0
M  V30 4327 C 394.721 4.9324 4.72444 0
M  V30 4328 O 394.409 6.20584 5.1101 0
M  V30 4329 H 394.141 0.25258 0.62704 0
M  V30 4330 H 396.695 1.32939 1.56577 0
M  V30 4331 H 394.925 0.208443 3.86138 0
M  V30 4332 H 396.614 0.598257 4.01467 0
M  V30 4333 H 397.38 3.0682 3.75615 0
M  V30 4334 H 393.259 1.92148 4.19047 0
M  V30 4335 H 396.803 5.363 4.46126 0
M  V30 4336 H 392.7 4.20724 4.89552 0
M  V30 4337 H 393.468 6.24509 5.29085 0
M  V30 4338 N 396.131 -1.37776 0.765217 0
M  V30 4339 C 397.38 -1.99092 0.323307 0
M  V30 4340 C 397.693 -1.61434 -1.10446 0
M  V30 4341 O 398.899 -2.15805 -1.64743 0
M  V30 4342 C 397.355 -3.56019 0.527098 0
M  V30 4343 C 396.963 -4.0262 1.96471 0
M  V30 4344 C 398.707 -4.2424 0.148483 0
M  V30 4345 C 396.614 -5.52233 2.11644 0
M  V30 4346 H 395.544 -0.744846 0.117137 0
M  V30 4347 H 398.195 -1.57391 0.943417 0
M  V30 4348 H 396.577 -3.95667 -0.162372 0
M  V30 4349 H 397.751 -3.74234 2.68859 0
M  V30 4350 H 396.066 -3.47161 2.29931 0
M  V30 4351 H 398.663 -5.34159 0.240456 0
M  V30 4352 H 399.006 -4.06446 -0.900422 0
M  V30 4353 H 399.539 -3.89872 0.79025 0
M  V30 4354 H 396.278 -5.74945 3.1483 0
M  V30 4355 H 395.798 -5.82324 1.4373 0
M  V30 4356 H 397.477 -6.18106 1.91193 0
M  V30 4357 N 397.609 -0.515225 -1.4894 0
M  V30 4358 C 399.025 -0.172099 -1.58669 0
M  V30 4359 C 399.225 1.32405 -1.51892 0
M  V30 4360 O 398.281 2.10116 -1.40027 0
M  V30 4361 C 399.594 -0.761533 -2.90897 0
M  V30 4362 C 401.142 -0.728926 -3.04394 0
M  V30 4363 C 401.617 -1.29667 -4.39261 0
M  V30 4364 N 403.108 -1.25799 -4.4579 0
M  V30 4365 C 403.843 -1.66733 -5.48623 0
M  V30 4366 N 403.339 -2.15327 -6.58488 0
M  V30 4367 N 405.132 -1.58061 -5.39419 0
M  V30 4368 H 397.283 -1.48778 -1.51588 0
M  V30 4369 H 399.546 -0.617968 -0.718901 0
M  V30 4370 H 399.252 -1.81136 -3.01468 0
M  V30 4371 H 399.126 -0.230106 -3.76497 0
M  V30 4372 H 401.513 0.312098 -2.93445 0
M  V30 4373 H 401.594 -1.29766 -2.20442 0
M  V30 4374 H 401.238 -2.33655 -4.50963 0
M  V30 4375 H 401.168 -0.703752 -5.21876 0
M  V30 4376 H 403.659 -0.902102 -3.66975 0
M  V30 4377 H 403.972 -2.44594 -7.33071 0
M  V30 4378 H 402.317 -2.19311 -6.59491 0
M  V30 4379 H 405.508 -1.19906 -4.52482 0
M  V30 4380 H 405.681 -1.90284 -6.19432 0
M  V30 4381 N 399.087 1.5561 -0.249682 0
M  V30 4382 C 400.035 2.22894 0.664906 0
M  V30 4383 C 401.029 1.21743 1.17792 0
M  V30 4384 O 402.235 1.39748 1.13449 0
M  V30 4385 H 398.61 0.715022 0.232912 0
M  V30 4386 H 400.581 2.98307 0.0742998 0
M  V30 4387 C 399.33 2.94424 1.84959 0
M  V30 4388 H 398.653 3.72031 1.46399 0
M  V30 4389 H 400.093 3.44862 2.4667 0
M  V30 4390 C 398.552 1.98454 2.72245 0
M  V30 4391 O 399.082 1.51939 3.71857 0
M  V30 4392 N 397.288 1.65496 2.38871 0
M  V30 4393 H 396.835 2.03517 1.57919 0
M  V30 4394 H 396.793 1.0155 2.97548 0
M  V30 4395 N 400.565 -0.0233959 1.57583 0
M  V30 4396 C 401.805 -0.71784 1.9138 0
M  V30 4397 C 402.169 -1.72216 0.848853 0
M  V30 4398 O 403.37 -2.46527 1.07134 0
M  V30 4399 C 401.641 -1.36489 3.30311 0
M  V30 4400 S 403.2 -2.0877 3.85954 0
M  V30 4401 H 400.018 -0.237676 0.670098 0
M  V30 4402 H 402.62 0.0276709 1.9548 0
M  V30 4403 H 401.324 -0.620782 4.05678 0
M  V30 4404 H 400.855 -2.14883 3.29528 0
M  V30 4405 H 402.87 -3.35988 3.65139 0
M  V30 4406 N 402.043 -1.548 -0.295768 0
M  V30 4407 C 403.289 -1.74588 -1.03184 0
M  V30 4408 C 403.622 -0.532962 -1.86744 0
M  V30 4409 O 402.897 0.469872 -1.88739 0
M  V30 4410 C 403.18 -3.03791 -1.93347 0
M  V30 4411 C 403.033 -4.35392 -1.12933 0
M  V30 4412 C 404.352 -3.28892 -2.92435 0
M  V30 4413 H 401.471 -0.635221 -0.373715 0
M  V30 4414 H 404.113 -1.87519 -0.30606 0
M  V30 4415 H 402.263 -2.92898 -2.55232 0
M  V30 4416 H 403.935 -4.58211 -0.532943 0
M  V30 4417 H 402.178 -4.31642 -0.432168 0
M  V30 4418 H 402.849 -5.22074 -1.79284 0
M  V30 4419 H 405.325 -3.39429 -2.4068 0
M  V30 4420 H 404.201 -4.20603 -3.52682 0
M  V30 4421 H 404.462 -2.47437 -3.6637 0
M  V30 4422 N 403.521 0.559213 -1.47345 0
M  V30 4423 C 404.454 1.68201 -1.5422 0
M  V30 4424 C 405.432 1.57742 -0.394497 0
M  V30 4425 O 406.616 1.78628 -0.60201 0
M  V30 4426 C 403.743 3.0643 -1.44285 0
M  V30 4427 C 402.789 3.3534 -2.63532 0
M  V30 4428 S 403.622 3.24816 -4.25741 0
M  V30 4429 C 404.778 4.65542 -4.18355 0
M  V30 4430 H 405.011 1.62114 -2.49211 0
M  V30 4431 H 402.544 0.739871 -1.35519 0
M  V30 4432 H 404.502 3.86164 -1.3924 0
M  V30 4433 H 403.163 3.09984 -0.506816 0
M  V30 4434 H 402.356 4.36107 -2.52639 0
M  V30 4435 H 401.958 2.63221 -2.65689 0
M  V30 4436 H 404.25 5.56449 -3.86485 0
M  V30 4437 H 405.193 4.81493 -5.19202 0
M  V30 4438 H 405.601 4.43495 -3.49246 0
M  V30 4439 N 404.999 1.35443 0.805782 0
M  V30 4440 C 405.947 1.28465 1.93906 0
M  V30 4441 C 406.941 0.17943 1.68447 0
M  V30 4442 O 408.147 0.345459 1.76654 0
M  V30 4443 H 404.522 0.399528 0.637088 0
M  V30 4444 H 406.493 2.24206 1.96912 0
M  V30 4445 C 405.242 1.07432 3.30687 0
M  V30 4446 H 404.565 1.91716 3.50835 0
M  V30 4447 H 406.005 1.06591 4.10383 0
M  V30 4448 C 404.464 -0.22179 3.36169 0
M  V30 4449 O 404.994 -1.21731 3.82811 0
M  V30 4450 N 403.2 -0.260841 2.89427 0
M  V30 4451 H 402.747 0.549884 2.51663 0
M  V30 4452 H 402.705 -1.12777 2.93477 0
M  V30 4453 N 406.477 -1.02803 1.19454 0
M  V30 4454 C 407.893 -1.28473 0.946937 0
M  V30 4455 C 408.093 -1.97881 -0.380202 0
M  V30 4456 O 407.149 -2.26719 -1.11151 0
M  V30 4457 C 408.462 -2.13099 2.12154 0
M  V30 4458 C 410.01 -2.26404 2.16126 0
M  V30 4459 C 410.485 -3.14402 3.33039 0
M  V30 4460 N 411.976 -3.21991 3.32981 0
M  V30 4461 C 412.711 -3.90272 4.20089 0
M  V30 4462 N 412.207 -4.60777 5.17355 0
M  V30 4463 N 414 -3.8668 4.07964 0
M  V30 4464 H 406.151 -0.561665 2.04839 0
M  V30 4465 H 408.414 -0.310438 0.89573 0
M  V30 4466 H 408.12 -1.69422 3.08203 0
M  V30 4467 H 407.994 -3.13813 2.09287 0
M  V30 4468 H 410.381 -2.69311 1.20647 0
M  V30 4469 H 410.462 -1.25237 2.23045 0
M  V30 4470 H 410.106 -2.72204 4.28798 0
M  V30 4471 H 410.036 -4.1563 3.23356 0
M  V30 4472 H 412.527 -2.71778 2.62574 0
M  V30 4473 H 412.84 -5.10513 5.80169 0
M  V30 4474 H 411.185 -4.5964 5.21302 0
M  V30 4475 H 414.376 -3.30739 3.31254 0
M  V30 4476 H 414.549 -4.39621 4.76064 0
M  V30 4477 N 407.956 -0.998596 -1.21925 0
M  V30 4478 C 408.919 -0.558679 -2.22287 0
M  V30 4479 C 409.919 0.361525 -1.56683 0
M  V30 4480 O 411.109 0.152695 -1.73529 0
M  V30 4481 C 408.241 0.18661 -3.40389 0
M  V30 4482 H 409.434 -1.4463 -2.62721 0
M  V30 4483 H 406.987 -0.786413 -1.35075 0
M  V30 4484 H 407.722 1.08996 -3.05435 0
M  V30 4485 H 407.507 -0.474188 -3.89222 0
M  V30 4486 H 408.997 0.482367 -4.14805 0
M  V30 4487 N 409.434 1.37368 -0.772513 0
M  V30 4488 C 410.364 2.32856 -0.173304 0
M  V30 4489 C 411.345 1.55818 0.682262 0
M  V30 4490 O 412.53 1.84052 0.619566 0
M  V30 4491 C 409.66 3.40048 0.706007 0
M  V30 4492 C 408.614 4.27973 -0.0483144 0
M  V30 4493 C 407.94 5.26184 0.950491 0
M  V30 4494 C 409.24 5.07665 -1.22776 0
M  V30 4495 H 410.934 2.83217 -0.971002 0
M  V30 4496 H 408.48 1.3617 -0.468377 0
M  V30 4497 H 410.433 4.05827 1.13501 0
M  V30 4498 H 409.157 2.88214 1.53623 0
M  V30 4499 H 407.816 3.63726 -0.458107 0
M  V30 4500 H 407.464 4.7063 1.77529 0
M  V30 4501 H 407.164 5.85872 0.450314 0
M  V30 4502 H 408.688 5.94838 1.37842 0
M  V30 4503 H 410.102 5.66578 -0.875366 0
M  V30 4504 H 408.499 5.76681 -1.66007 0
M  V30 4505 H 409.569 4.40294 -2.03149 0
M  V30 4506 N 410.912 0.523116 1.48665 0
M  V30 4507 C 412.323 0.0808997 1.86525 0
M  V30 4508 C 412.674 -1.33975 1.43336 0
M  V30 4509 O 411.799 -2.00221 0.821009 0
M  V30 4510 C 412.394 0.140037 3.3851 0
M  V30 4511 C 410.953 -0.246948 3.75589 0
M  V30 4512 C 410.1 0.502845 2.72703 0
M  V30 4513 H 413.051 0.734736 1.40667 0
M  V30 4514 H 413.072 -0.649945 3.74908 0
M  V30 4515 H 412.584 1.17412 3.69914 0
M  V30 4516 H 410.685 -1.28343 3.49798 0
M  V30 4517 H 410.798 0.0878859 4.79019 0
M  V30 4518 H 409.162 -0.0500581 2.54651 0
M  V30 4519 H 409.945 1.53743 3.0695 0
M  V30 4520 N 412.39 -1.55475 0.257931 0
M  V30 4521 C 413.34 -2.18506 -0.651094 0
M  V30 4522 C 414.324 -1.14431 -1.13112 0
M  V30 4523 O 415.516 -1.40305 -1.07905 0
M  V30 4524 C 412.645 -2.89653 -1.84272 0
M  V30 4525 C 411.731 -4.00996 -1.38068 0
M  V30 4526 N 412.122 -5.01816 -0.633609 0
M  V30 4527 C 410.42 -4.13753 -1.66506 0
M  V30 4528 C 411.121 -5.80371 -0.392922 0
M  V30 4529 N 410.097 -5.3505 -0.960359 0
M  V30 4530 H 413.899 -2.93811 -0.0722883 0
M  V30 4531 H 411.413 -1.62286 0.0607256 0
M  V30 4532 H 413.41 -3.33245 -2.50506 0
M  V30 4533 H 412.07 -2.15854 -2.42564 0
M  V30 4534 H 413.081 -5.17128 -0.282626 0
M  V30 4535 H 409.758 -3.51133 -2.25858 0
M  V30 4536 H 411.148 -6.7159 0.204235 0
M  V30 4537 N 413.868 0.0150385 -1.57593 0
M  V30 4538 C 415.115 0.703001 -1.89906 0
M  V30 4539 C 415.443 1.74604 -0.856944 0
M  V30 4540 O 414.698 1.95197 0.140287 0
M  V30 4541 C 414.997 1.39686 -3.28972 0
M  V30 4542 C 414.663 0.488457 -4.48246 0
M  V30 4543 C 413.325 0.2383 -4.8061 0
M  V30 4544 C 415.677 -0.137881 -5.21018 0
M  V30 4545 C 413.005 -0.646738 -5.83125 0
M  V30 4546 C 415.357 -1.0107 -6.24474 0
M  V30 4547 C 414.021 -1.27019 -6.55303 0
M  V30 4548 H 413.291 0.257246 -0.694914 0
M  V30 4549 H 415.938 -0.037259 -1.91464 0
M  V30 4550 H 414.243 2.21079 -3.23468 0
M  V30 4551 H 415.94 1.93495 -3.51227 0
M  V30 4552 H 412.53 0.693593 -4.22951 0
M  V30 4553 H 416.714 0.0423953 -4.96282 0
M  V30 4554 H 411.97 -0.855937 -6.05379 0
M  V30 4555 H 416.144 -1.50247 -6.79999 0
M  V30 4556 H 413.771 -1.95769 -7.3456 0
M  V30 4557 N 415.346 1.54954 0.287554 0
M  V30 4558 C 416.595 1.74081 1.01877 0
M  V30 4559 C 416.908 0.541135 1.87966 0
M  V30 4560 O 418.114 0.614491 2.64455 0
M  V30 4561 C 416.57 3.08042 1.86113 0
M  V30 4562 C 416.178 4.35531 1.04961 0
M  V30 4563 C 417.922 3.36523 2.58752 0
M  V30 4564 C 415.829 5.60538 1.88551 0
M  V30 4565 H 414.759 0.64884 0.384087 0
M  V30 4566 H 417.41 1.81426 0.275101 0
M  V30 4567 H 415.792 2.94696 2.64519 0
M  V30 4568 H 416.966 4.59751 0.31074 0
M  V30 4569 H 415.281 4.14085 0.43843 0
M  V30 4570 H 417.878 4.27122 3.21668 0
M  V30 4571 H 418.221 2.56 3.28283 0
M  V30 4572 H 418.754 3.50901 1.87386 0
M  V30 4573 H 415.493 6.43767 1.23466 0
M  V30 4574 H 415.013 5.40483 2.60074 0
M  V30 4575 H 416.692 5.98297 2.46273 0
M  V30 4576 N 416.824 -0.551391 1.4764 0
M  V30 4577 C 417.754 -1.66757 1.63445 0
M  V30 4578 C 418.735 -1.63077 0.483742 0
M  V30 4579 O 419.92 -1.80607 0.71377 0
M  V30 4580 C 417.05 -3.05387 1.65396 0
M  V30 4581 C 416.004 -3.23918 2.79752 0
M  V30 4582 C 415.33 -4.63393 2.66779 0
M  V30 4583 C 416.63 -3.08735 4.21284 0
M  V30 4584 H 418.324 -1.53786 2.56886 0
M  V30 4585 H 415.87 -0.738415 1.23626 0
M  V30 4586 H 417.823 -3.83325 1.75043 0
M  V30 4587 H 416.547 -3.19332 0.685195 0
M  V30 4588 H 415.206 -2.48391 2.69625 0
M  V30 4589 H 414.854 -4.74144 1.67918 0
M  V30 4590 H 414.554 -4.7674 3.43501 0
M  V30 4591 H 416.078 -5.43458 2.78364 0
M  V30 4592 H 417.492 -3.76484 4.32357 0
M  V30 4593 H 415.889 -3.33588 4.98838 0
M  V30 4594 H 416.959 -2.0541 4.39243 0
M  V30 4595 N 418.302 -1.35869 -0.798587 0
M  V30 4596 C 419.548 -1.2978 -1.55836 0
M  V30 4597 C 419.881 0.125322 -1.93795 0
M  V30 4598 O 419.156 1.07658 -1.61987 0
M  V30 4599 C 419.439 -2.21188 -2.84162 0
M  V30 4600 C 419.292 -3.72155 -2.52628 0
M  V30 4601 C 420.611 -2.11545 -3.85923 0
M  V30 4602 H 417.73 -0.472769 -0.565383 0
M  V30 4603 H 420.372 -1.66341 -0.918192 0
M  V30 4604 H 418.522 -1.90139 -3.38791 0
M  V30 4605 H 420.194 -4.13682 -2.04121 0
M  V30 4606 H 418.437 -3.92042 -1.85704 0
M  V30 4607 H 419.108 -4.31511 -3.44242 0
M  V30 4608 H 421.584 -2.38855 -3.40716 0
M  V30 4609 H 420.46 -2.77688 -4.73477 0
M  V30 4610 H 420.721 -1.09987 -4.282 0
M  V30 4611 N 419.78 1.02168 -1.19998 0
M  V30 4612 C 420.69 2.14069 -0.959774 0
M  V30 4613 C 421.706 1.73804 0.082655 0
M  V30 4614 O 422.882 2.01133 -0.103633 0
M  V30 4615 C 419.947 3.42936 -0.509459 0
M  V30 4616 C 419.008 3.97474 -1.62213 0
M  V30 4617 C 418.241 5.2019 -1.19321 0
M  V30 4618 O 418.464 5.70369 -0.0597726 0
M  V30 4619 O 417.398 5.67749 -1.99863 0
M  V30 4620 H 421.224 2.37199 -1.89658 0
M  V30 4621 H 418.809 1.12469 -0.983411 0
M  V30 4622 H 420.691 4.20551 -0.267322 0
M  V30 4623 H 419.366 3.21234 0.398821 0
M  V30 4624 H 418.273 3.21161 -1.9185 0
M  V30 4625 H 419.606 4.23555 -2.50723 0
M  V30 4626 N 421.258 1.00505 1.21394 0
M  V30 4627 C 422.498 0.696149 1.9218 0
M  V30 4628 C 422.862 -0.759099 1.76357 0
M  V30 4629 O 424.063 -1.17998 2.41516 0
M  V30 4630 C 422.334 1.10571 3.39866 0
M  V30 4631 S 423.893 0.91702 4.29111 0
M  V30 4632 H 420.711 0.254147 0.664026 0
M  V30 4633 H 423.313 1.28988 1.46909 0
M  V30 4634 H 422.017 2.16096 3.489 0
M  V30 4635 H 421.548 0.504268 3.90155 0
M  V30 4636 H 423.563 -0.185855 4.95852 0
M  V30 4637 N 422.737 -1.36956 0.779787 0
M  V30 4638 C 423.977 -2.01328 0.353043 0
M  V30 4639 C 424.341 -1.60558 -1.05286 0
M  V30 4640 O 425.542 -2.1745 -1.58016 0
M  V30 4641 C 423.813 -3.53874 0.500822 0
M  V30 4642 S 425.372 -4.38506 0.16053 0
M  V30 4643 H 422.19 -0.69799 0.13539 0
M  V30 4644 H 424.792 -1.67016 1.01617 0
M  V30 4645 H 423.496 -3.81034 1.52451 0
M  V30 4646 H 423.027 -3.92994 -0.178574 0
M  V30 4647 H 425.042 -4.85153 -1.04121 0
M  V30 4648 N 424.215 -0.530993 -1.48385 0
M  V30 4649 C 425.162 0.231223 -2.29639 0
M  V30 4650 C 426.132 0.932864 -1.37429 0
M  V30 4651 O 427.317 0.933692 -1.66394 0
M  V30 4652 C 424.457 1.27155 -3.2082 0
M  V30 4653 C 423.57 0.578655 -4.28107 0
M  V30 4654 C 422.705 1.602 -5.06467 0
M  V30 4655 C 421.744 0.892625 -6.05556 0
M  V30 4656 N 420.881 1.86157 -6.76971 0
M  V30 4657 H 425.721 -0.467848 -2.94305 0
M  V30 4658 H 423.258 -0.242556 -1.45086 0
M  V30 4659 H 425.216 1.88703 -3.72085 0
M  V30 4660 H 423.846 1.939 -2.58075 0
M  V30 4661 H 422.898 -0.150782 -3.80101 0
M  V30 4662 H 424.21 0.0217065 -4.98795 0
M  V30 4663 H 423.364 2.29173 -5.61751 0
M  V30 4664 H 422.103 2.19285 -4.35621 0
M  V30 4665 H 421.108 0.188829 -5.49476 0
M  V30 4666 H 422.333 0.307878 -6.78402 0
M  V30 4667 H 420.279 2.44147 -6.08875 0
M  V30 4668 H 420.196 1.35608 -7.43738 0
M  V30 4669 H 421.464 2.54325 -7.36844 0
M  V30 4670 N 425.693 1.55336 -0.266172 0
M  V30 4671 C 426.942 1.98574 0.353749 0
M  V30 4672 C 427.255 1.15789 1.57646 0
M  V30 4673 O 428.461 1.49129 2.26876 0
M  V30 4674 C 426.917 3.53403 0.680747 0
M  V30 4675 C 426.525 4.44953 -0.52165 0
M  V30 4676 C 428.269 4.05251 1.26379 0
M  V30 4677 C 426.176 5.91156 -0.169736 0
M  V30 4678 H 425.106 0.741643 0.135949 0
M  V30 4679 H 427.757 1.79743 -0.369421 0
M  V30 4680 H 426.139 3.68001 1.46257 0
M  V30 4681 H 427.313 4.42121 -1.29869 0
M  V30 4682 H 425.628 4.03691 -1.02093 0
M  V30 4683 H 428.225 5.12021 1.54074 0
M  V30 4684 H 428.568 3.53749 2.19471 0
M  V30 4685 H 429.101 3.94057 0.544447 0
M  V30 4686 H 425.84 6.46736 -1.0683 0
M  V30 4687 H 425.36 5.97079 0.570717 0
M  V30 4688 H 427.039 6.4655 0.241245 0
M  V30 4689 N 427.171 -0.0066808 1.57599 0
M  V30 4690 C 428.118 -1.00024 2.08 0
M  V30 4691 C 429.088 -1.34549 0.973943 0
M  V30 4692 O 430.273 -1.44502 1.24595 0
M  V30 4693 C 427.413 -2.2891 2.58252 0
M  V30 4694 C 426.526 -2.00346 3.82734 0
M  V30 4695 C 425.661 -3.23265 4.21513 0
M  V30 4696 C 424.7 -2.90357 5.3885 0
M  V30 4697 N 423.837 -4.05793 5.72954 0
M  V30 4698 H 428.677 -0.563499 2.92624 0
M  V30 4699 H 426.214 -0.266592 1.44664 0
M  V30 4700 H 428.172 -3.04247 2.85464 0
M  V30 4701 H 426.802 -2.70265 1.76512 0
M  V30 4702 H 425.854 -1.15406 3.62471 0
M  V30 4703 H 427.166 -1.72086 4.68175 0
M  V30 4704 H 426.32 -4.06953 4.49971 0
M  V30 4705 H 425.059 -3.54657 3.34768 0
M  V30 4706 H 424.064 -2.05075 5.10122 0
M  V30 4707 H 425.289 -2.60219 6.27266 0
M  V30 4708 H 423.235 -4.37094 4.89167 0
M  V30 4709 H 423.152 -3.81034 6.52954 0
M  V30 4710 H 424.42 -4.90289 6.06001 0
M  V30 4711 N 428.649 -1.55105 -0.279332 0
M  V30 4712 C 429.596 -1.8755 -1.34513 0
M  V30 4713 C 430.566 -0.726384 -1.49375 0
M  V30 4714 O 431.751 -0.977063 -1.63884 0
M  V30 4715 C 428.891 -2.14738 -2.70151 0
M  V30 4716 C 428.004 -3.42285 -2.63562 0
M  V30 4717 C 427.139 -3.59206 -3.91337 0
M  V30 4718 C 426.178 -4.80467 -3.79233 0
M  V30 4719 N 425.315 -4.94079 -4.98829 0
M  V30 4720 H 430.155 -2.78456 -1.06143 0
M  V30 4721 H 427.692 -1.37867 -0.512936 0
M  V30 4722 H 429.65 -2.28501 -3.49061 0
M  V30 4723 H 428.28 -1.27075 -2.96735 0
M  V30 4724 H 427.332 -3.37029 -1.76397 0
M  V30 4725 H 428.644 -4.31328 -2.50515 0
M  V30 4726 H 427.798 -3.72751 -4.78687 0
M  V30 4727 H 426.537 -2.68337 -4.07243 0
M  V30 4728 H 425.542 -4.66932 -2.90266 0
M  V30 4729 H 426.767 -5.72765 -3.64852 0
M  V30 4730 H 424.713 -4.06139 -5.15158 0
M  V30 4731 H 424.63 -5.77156 -4.8829 0
M  V30 4732 H 425.898 -5.12003 -5.8777 0
M  V30 4733 N 430.127 0.543554 -1.4793 0
M  V30 4734 C 431.06 1.66556 -1.55995 0
M  V30 4735 C 432.038 1.57315 -0.411205 0
M  V30 4736 O 433.222 1.7798 -0.620922 0
M  V30 4737 C 430.349 3.04883 -1.47527 0
M  V30 4738 C 429.395 3.32526 -2.67074 0
M  V30 4739 S 430.228 3.20282 -4.29162 0
M  V30 4740 C 431.384 4.61079 -4.23269 0
M  V30 4741 H 431.617 1.59462 -2.50917 0
M  V30 4742 H 429.15 0.725456 -1.36296 0
M  V30 4743 H 431.108 3.84665 -1.43328 0
M  V30 4744 H 429.769 3.09429 -0.539665 0
M  V30 4745 H 428.962 4.33403 -2.5725 0
M  V30 4746 H 428.564 2.60389 -2.68466 0
M  V30 4747 H 430.856 5.52318 -3.92365 0
M  V30 4748 H 431.799 4.75959 -5.24279 0
M  V30 4749 H 432.207 4.39766 -3.5393 0
M  V30 4750 N 431.605 1.3629 0.791371 0
M  V30 4751 C 432.835 1.33368 1.57786 0
M  V30 4752 C 433.243 -0.0875188 1.88997 0
M  V30 4753 O 432.586 -1.05427 1.50435 0
M  V30 4754 C 432.648 2.08802 2.92646 0
M  V30 4755 C 432.312 3.57903 2.84174 0
M  V30 4756 C 433.309 4.52191 2.56553 0
M  V30 4757 C 430.994 4.00762 3.02812 0
M  V30 4758 C 432.988 5.87315 2.47669 0
M  V30 4759 C 430.675 5.35977 2.93551 0
M  V30 4760 C 431.673 6.29066 2.66017 0
M  V30 4761 O 431.361 7.61798 2.56746 0
M  V30 4762 H 431.093 0.459166 0.496128 0
M  V30 4763 H 433.647 1.79952 0.990269 0
M  V30 4764 H 431.877 1.56878 3.53449 0
M  V30 4765 H 433.566 1.98762 3.53904 0
M  V30 4766 H 434.332 4.20393 2.41858 0
M  V30 4767 H 430.211 3.2868 3.2325 0
M  V30 4768 H 433.755 6.59943 2.26099 0
M  V30 4769 H 429.652 5.67384 3.07808 0
M  V30 4770 H 430.42 7.71898 2.72242 0
M  V30 4771 N 433.083 -1.0153 1.20538 0
M  V30 4772 C 433.993 -2.13557 0.971113 0
M  V30 4773 C 435.009 -1.73845 -0.0734366 0
M  V30 4774 O 436.185 -2.01075 0.114299 0
M  V30 4775 C 433.25 -3.42661 0.527639 0
M  V30 4776 C 432.311 -3.96608 1.64319 0
M  V30 4777 C 431.544 -5.1955 1.22078 0
M  V30 4778 O 431.767 -5.70329 0.0900198 0
M  V30 4779 O 430.701 -5.66681 2.02871 0
M  V30 4780 H 434.527 -2.3619 1.90913 0
M  V30 4781 H 432.112 -1.11946 0.989362 0
M  V30 4782 H 433.994 -4.20404 0.289621 0
M  V30 4783 H 432.669 -3.21441 -0.381779 0
M  V30 4784 H 431.576 -3.20139 1.93551 0
M  V30 4785 H 432.909 -4.22219 2.52966 0
M  V30 4786 N 434.561 -1.01147 -1.20859 0
M  V30 4787 C 435.493 -0.535546 -2.22855 0
M  V30 4788 C 436.506 0.379323 -1.58319 0
M  V30 4789 O 437.695 0.178489 -1.77605 0
M  V30 4790 C 434.795 0.240962 -3.38042 0
M  V30 4791 C 433.968 -0.674562 -4.32167 0
M  V30 4792 C 433.027 0.053467 -5.26173 0
M  V30 4793 O 432.053 -0.567339 -5.66366 0
M  V30 4794 N 433.255 1.32997 -5.65059 0
M  V30 4795 H 436.02 -1.41268 -2.64317 0
M  V30 4796 H 433.581 -0.888386 -1.35349 0
M  V30 4797 H 435.573 0.737115 -3.97931 0
M  V30 4798 H 434.143 1.01935 -2.95513 0
M  V30 4799 H 433.363 -1.35111 -3.70322 0
M  V30 4800 H 434.651 -1.2974 -4.91981 0
M  V30 4801 H 434.049 1.85536 -5.34409 0
M  V30 4802 H 432.606 1.77095 -6.2728 0
M  V30 4803 N 436.039 1.36541 -0.78704 0
M  V30 4804 C 436.949 2.3387 -0.184896 0
M  V30 4805 C 437.965 1.60927 0.661697 0
M  V30 4806 O 439.141 1.92927 0.57804 0
M  V30 4807 C 436.206 3.40122 0.672145 0
M  V30 4808 C 435.267 4.28867 -0.19267 0
M  V30 4809 C 434.5 5.30045 0.623561 0
M  V30 4810 O 434.723 5.39232 1.8597 0
M  V30 4811 O 433.657 6.01895 0.0247068 0
M  V30 4812 H 437.483 2.87126 -0.989562 0
M  V30 4813 H 435.068 1.38969 -0.548455 0
M  V30 4814 H 436.95 4.05093 1.16094 0
M  V30 4815 H 435.625 2.89169 1.45474 0
M  V30 4816 H 434.532 3.66945 -0.728166 0
M  V30 4817 H 435.865 4.83165 -0.938722 0
M  V30 4818 N 437.518 0.538854 1.48102 0
M  V30 4819 C 438.451 -0.266495 2.26639 0
M  V30 4820 C 439.429 -0.93687 1.32897 0
M  V30 4821 O 440.613 -0.959507 1.62252 0
M  V30 4822 C 437.74 -1.37814 3.09394 0
M  V30 4823 C 436.786 -0.818247 4.18577 0
M  V30 4824 S 437.619 0.320848 5.34538 0
M  V30 4825 C 438.775 -0.793059 6.20855 0
M  V30 4826 H 439.008 0.399994 2.94597 0
M  V30 4827 H 436.541 0.324808 1.50945 0
M  V30 4828 H 438.499 -2.01488 3.57649 0
M  V30 4829 H 437.16 -2.01639 2.40833 0
M  V30 4830 H 436.353 -1.65247 4.7614 0
M  V30 4831 H 435.955 -0.258036 3.73109 0
M  V30 4832 H 438.247 -1.68961 6.56093 0
M  V30 4833 H 439.19 -0.255204 7.0764 0
M  V30 4834 H 439.598 -1.07746 5.54122 0
M  V30 4835 N 438.996 -1.55193 0.274407 0
M  V30 4836 C 440.245 -1.98758 -0.343213 0
M  V30 4837 C 440.558 -1.16624 -1.5703 0
M  V30 4838 O 441.764 -1.5033 -2.26082 0
M  V30 4839 C 440.22 -3.53759 -0.661996 0
M  V30 4840 C 439.828 -4.4467 0.54524 0
M  V30 4841 C 441.572 -4.05916 -1.24228 0
M  V30 4842 C 439.479 -5.91058 0.201084 0
M  V30 4843 H 438.409 -0.742353 -0.132014 0
M  V30 4844 H 441.06 -1.79545 0.378948 0
M  V30 4845 H 439.442 -3.68772 -1.44304 0
M  V30 4846 H 440.616 -4.41426 1.32212 0
M  V30 4847 H 438.931 -4.03143 1.04232 0
M  V30 4848 H 441.528 -5.12831 -1.51357 0
M  V30 4849 H 441.871 -3.54908 -2.17592 0
M  V30 4850 H 442.404 -3.9434 -0.523542 0
M  V30 4851 H 439.143 -6.46161 1.10258 0
M  V30 4852 H 438.663 -5.97373 -0.539045 0
M  V30 4853 H 440.342 -6.46669 -0.206954 0
M  V30 4854 N 440.474 -0.00167713 -1.576 0
M  V30 4855 C 441.437 0.974046 -2.07473 0
M  V30 4856 C 442.437 1.27143 -0.984444 0
M  V30 4857 O 443.627 1.21633 -1.24703 0
M  V30 4858 C 440.759 2.29849 -2.51759 0
M  V30 4859 H 441.952 0.54262 -2.9495 0
M  V30 4860 H 439.505 0.245829 -1.54355 0
M  V30 4861 H 440.24 2.77677 -1.67529 0
M  V30 4862 H 440.025 2.09584 -3.31386 0
M  V30 4863 H 441.515 2.9984 -2.90664 0
M  V30 4864 N 441.952 1.55251 0.271103 0
M  V30 4865 C 443.201 1.75151 1.00025 0
M  V30 4866 C 443.514 0.561041 1.87381 0
M  V30 4867 O 444.72 0.642506 2.63788 0
M  V30 4868 C 443.176 3.09999 1.82835 0
M  V30 4869 C 442.784 4.3662 1.00336 0
M  V30 4870 C 444.528 3.39249 2.55168 0
M  V30 4871 C 442.435 5.62506 1.82595 0
M  V30 4872 H 441.365 0.652877 0.377183 0
M  V30 4873 H 444.016 1.81708 0.255843 0
M  V30 4874 H 442.398 2.97485 2.61378 0
M  V30 4875 H 443.572 4.60055 0.261959 0
M  V30 4876 H 441.887 4.14527 0.394486 0
M  V30 4877 H 444.484 4.3051 3.1712 0
M  V30 4878 H 444.827 2.59467 3.2555 0
M  V30 4879 H 445.36 3.52869 1.83653 0
M  V30 4880 H 442.099 6.45041 1.16631 0
M  V30 4881 H 441.619 5.43211 2.54327 0
M  V30 4882 H 443.298 6.00875 2.39913 0
M  V30 4883 N 443.43 -0.535701 1.48216 0
M  V30 4884 C 444.34 -1.66785 1.64985 0
M  V30 4885 C 445.356 -1.65654 0.532414 0
M  V30 4886 O 446.532 -1.8471 0.80275 0
M  V30 4887 C 443.597 -3.0326 1.68031 0
M  V30 4888 C 442.658 -3.1529 2.9136 0
M  V30 4889 C 441.891 -4.45255 2.94252 0
M  V30 4890 O 442.114 -5.32011 2.05719 0
M  V30 4891 O 441.048 -4.6153 3.86359 0
M  V30 4892 H 444.874 -1.55576 2.60825 0
M  V30 4893 H 442.459 -0.70815 1.31551 0
M  V30 4894 H 444.341 -3.84436 1.72589 0
M  V30 4895 H 443.016 -3.14805 0.753628 0
M  V30 4896 H 441.923 -2.3343 2.92337 0
M  V30 4897 H 443.256 -3.08658 3.83394 0
M  V30 4898 N 444.908 -1.36708 -0.784132 0
M  V30 4899 C 445.871 -1.31307 -1.87859 0
M  V30 4900 C 446.871 -0.219654 -1.59293 0
M  V30 4901 O 448.061 -0.47476 -1.67606 0
M  V30 4902 C 445.193 -1.03679 -3.24751 0
M  V30 4903 H 446.386 -2.28647 -1.94064 0
M  V30 4904 H 443.939 -1.21558 -0.98252 0
M  V30 4905 H 444.674 -0.0681936 -3.24228 0
M  V30 4906 H 444.459 -1.82811 -3.46876 0
M  V30 4907 H 445.949 -1.02518 -4.04821 0
M  V30 4908 N 446.386 1.0089 -1.21074 0
M  V30 4909 C 447.349 2.0775 -0.968129 0
M  V30 4910 C 448.349 1.6069 0.0593445 0
M  V30 4911 O 449.539 1.73293 -0.177525 0
M  V30 4912 C 446.671 3.37794 -0.459108 0
M  V30 4913 H 447.864 2.30707 -1.9161 0
M  V30 4914 H 445.417 1.17807 -1.02719 0
M  V30 4915 H 446.152 3.20516 0.49397 0
M  V30 4916 H 445.937 3.7328 -1.20019 0
M  V30 4917 H 447.427 4.16454 -0.309099 0
M  V30 4918 N 447.864 1.01787 1.20321 0
M  V30 4919 C 449.113 0.703249 1.89043 0
M  V30 4920 C 449.426 -0.770445 1.79787 0
M  V30 4921 O 450.632 -1.19767 2.43656 0
M  V30 4922 C 449.088 1.20749 3.3904 0
M  V30 4923 C 448.696 2.70817 3.56878 0
M  V30 4924 C 450.44 0.968352 4.13308 0
M  V30 4925 C 448.347 3.14716 5.00708 0
M  V30 4926 H 447.277 0.259354 0.707991 0
M  V30 4927 H 449.928 1.23072 1.36108 0
M  V30 4928 H 448.31 0.607989 3.91305 0
M  V30 4929 H 449.484 3.36327 3.14993 0
M  V30 4930 H 447.799 2.92888 2.95983 0
M  V30 4931 H 450.396 1.27173 5.19356 0
M  V30 4932 H 450.739 -0.095149 4.16191 0
M  V30 4933 H 451.272 1.53129 3.67146 0
M  V30 4934 H 448.011 4.20347 5.02979 0
M  V30 4935 H 447.531 2.53927 5.43398 0
M  V30 4936 H 449.21 3.07426 5.69296 0
M  V30 4937 N 449.342 -1.36122 0.79427 0
M  V30 4938 C 450.29 -2.31871 0.184023 0
M  V30 4939 C 451.284 -1.56041 -0.659365 0
M  V30 4940 O 452.49 -1.71266 -0.553906 0
M  V30 4941 H 448.865 -0.750896 0.0407373 0
M  V30 4942 H 450.836 -2.80898 1.00693 0
M  V30 4943 C 449.585 -3.41324 -0.662813 0
M  V30 4944 H 448.908 -3.99793 -0.0231944 0
M  V30 4945 H 450.348 -4.10629 -1.05639 0
M  V30 4946 C 448.807 -2.83308 -1.82313 0
M  V30 4947 O 449.337 -2.75863 -2.91997 0
M  V30 4948 N 447.543 -2.40529 -1.63077 0
M  V30 4949 H 447.09 -2.46785 -0.738591 0
M  V30 4950 H 447.048 -2.02059 -2.40872 0
M  V30 4951 N 450.82 -0.546701 -1.47814 0
M  V30 4952 C 452.236 -0.205717 -1.58269 0
M  V30 4953 C 452.436 1.29153 -1.54667 0
M  V30 4954 O 451.492 2.07098 -1.44453 0
M  V30 4955 C 452.805 -0.823065 -2.89216 0
M  V30 4956 C 454.353 -0.793328 -3.02779 0
M  V30 4957 C 454.828 -1.38955 -4.36412 0
M  V30 4958 N 456.319 -1.35227 -4.43021 0
M  V30 4959 C 457.054 -1.78333 -5.44963 0
M  V30 4960 N 456.55 -2.29246 -6.53772 0
M  V30 4961 N 458.343 -1.69467 -5.35945 0
M  V30 4962 H 450.494 -1.5196 -1.48398 0
M  V30 4963 H 452.757 -0.633078 -0.705632 0
M  V30 4964 H 452.463 -1.8749 -2.97558 0
M  V30 4965 H 452.337 -0.309915 -3.75925 0
M  V30 4966 H 454.724 0.249784 -2.94041 0
M  V30 4967 H 454.805 -1.34412 -2.17639 0
M  V30 4968 H 454.449 -2.43168 -4.45906 0
M  V30 4969 H 454.379 -0.814291 -5.20266 0
M  V30 4970 H 456.87 -0.979739 -3.64979 0
M  V30 4971 H 457.183 -2.60089 -7.27718 0
M  V30 4972 H 455.528 -2.3325 -6.5469 0
M  V30 4973 H 458.719 -1.29477 -4.49837 0
M  V30 4974 H 458.892 -2.03381 -6.15256 0
M  V30 4975 N 452.299 1.55045 -0.282633 0
M  V30 4976 C 453.247 2.24254 0.617478 0
M  V30 4977 C 454.241 1.24215 1.15183 0
M  V30 4978 O 455.447 1.42123 1.10459 0
M  V30 4979 H 451.822 0.719801 0.217693 0
M  V30 4980 H 453.793 2.98398 0.0110076 0
M  V30 4981 C 452.542 2.98281 1.78672 0
M  V30 4982 H 451.865 3.75053 1.38475 0
M  V30 4983 H 453.305 3.50017 2.393 0
M  V30 4984 C 451.764 2.04184 2.67975 0
M  V30 4985 O 452.294 1.59792 3.6855 0
M  V30 4986 N 450.5 1.70526 2.35307 0
M  V30 4987 H 450.047 2.06821 1.53567 0
M  V30 4988 H 450.005 1.07839 2.95327 0
M  V30 4989 N 453.777 0.010035 1.57597 0
M  V30 4990 C 455.002 -0.687021 1.95691 0
M  V30 4991 C 455.427 -1.65952 0.885519 0
M  V30 4992 O 454.785 -1.80633 -0.15543 0
M  V30 4993 C 454.833 -1.3864 3.32884 0
M  V30 4994 O 453.937 -2.50115 3.27897 0
M  V30 4995 H 453.278 -0.181989 0.638573 0
M  V30 4996 H 455.808 0.0662122 2.04493 0
M  V30 4997 H 455.818 -1.74754 3.6868 0
M  V30 4998 H 454.493 -0.673411 4.10412 0
M  V30 4999 H 453.07 -2.16253 3.03791 0
M  V30 5000 N 455.255 -1.55392 -0.262866 0
M  V30 5001 C 456.48 -1.80847 -1.01533 0
M  V30 5002 C 456.905 -0.584946 -1.78774 0
M  V30 5003 O 456.263 0.465701 -1.75217 0
M  V30 5004 C 456.311 -3.03866 -1.94159 0
M  V30 5005 O 455.415 -2.79662 -3.03089 0
M  V30 5006 H 454.756 -0.597441 -0.289759 0
M  V30 5007 H 457.286 -2.02553 -0.288698 0
M  V30 5008 H 457.296 -3.32872 -2.35924 0
M  V30 5009 H 455.971 -3.92564 -1.37354 0
M  V30 5010 H 454.548 -2.61781 -2.65566 0
M  V30 5011 N 456.733 0.527833 -1.48498 0
M  V30 5012 C 457.681 1.65313 -1.63628 0
M  V30 5013 C 458.675 1.6177 -0.502676 0
M  V30 5014 O 459.881 1.66601 -0.681469 0
M  V30 5015 H 456.256 0.547518 -0.515488 0
M  V30 5016 H 458.227 1.49696 -2.58135 0
M  V30 5017 C 456.976 3.03576 -1.6952 0
M  V30 5018 H 456.299 3.06997 -2.56111 0
M  V30 5019 H 457.739 3.81923 -1.84149 0
M  V30 5020 C 456.198 3.34089 -0.43432 0
M  V30 5021 O 456.728 3.99151 0.451852 0
M  V30 5022 N 454.934 2.88991 -0.305368 0
M  V30 5023 H 454.481 2.36222 -1.02747 0
M  V30 5024 H 454.439 3.09776 0.537249 0
M  V30 5025 N 458.211 1.37122 0.776871 0
M  V30 5026 C 459.141 1.35164 1.90402 0
M  V30 5027 C 460.122 0.221069 1.68657 0
M  V30 5028 O 461.307 0.420642 1.8959 0
M  V30 5029 C 458.437 1.15274 3.27611 0
M  V30 5030 C 457.391 2.25289 3.63908 0
M  V30 5031 C 456.717 1.90527 4.99603 0
M  V30 5032 C 458.017 3.67446 3.71188 0
M  V30 5033 H 459.711 2.29482 1.92297 0
M  V30 5034 H 457.257 1.10465 0.923773 0
M  V30 5035 H 459.21 1.12536 4.06096 0
M  V30 5036 H 457.934 0.174102 3.26136 0
M  V30 5037 H 456.593 2.27174 2.87728 0
M  V30 5038 H 456.241 0.91206 4.94662 0
M  V30 5039 H 455.941 2.64193 5.24858 0
M  V30 5040 H 457.465 1.89367 5.80493 0
M  V30 5041 H 458.879 3.67719 4.39836 0
M  V30 5042 H 457.276 4.40123 4.07936 0
M  V30 5043 H 458.346 4.01443 2.71977 0
M  V30 5044 N 459.689 -1.00246 1.21608 0
M  V30 5045 C 461.1 -1.55511 1.03312 0
M  V30 5046 C 461.451 -1.91946 -0.406332 0
M  V30 5047 O 460.576 -1.73753 -1.28992 0
M  V30 5048 C 461.171 -2.82576 1.86913 0
M  V30 5049 C 459.73 -3.34318 1.72941 0
M  V30 5050 C 458.877 -2.07487 1.83968 0
M  V30 5051 H 461.828 -0.824638 1.35593 0
M  V30 5052 H 461.849 -3.54559 1.38087 0
M  V30 5053 H 461.361 -2.56026 2.91672 0
M  V30 5054 H 459.462 -3.65797 0.70877 0
M  V30 5055 H 459.575 -4.05566 2.55055 0
M  V30 5056 H 457.939 -2.20603 1.27304 0
M  V30 5057 H 458.722 -1.83346 2.9024 0
M  V30 5058 N 461.167 -1.02423 -1.1978 0
M  V30 5059 C 462.097 -0.62157 -2.25075 0
M  V30 5060 C 463.078 0.367148 -1.6609 0
M  V30 5061 O 464.263 0.250892 -1.92573 0
M  V30 5062 C 461.393 0.0331826 -3.47284 0
M  V30 5063 C 460.347 -0.877323 -4.18912 0
M  V30 5064 C 459.673 -0.0879296 -5.34628 0
M  V30 5065 C 460.973 -2.18892 -4.74219 0
M  V30 5066 H 462.667 -1.50179 -2.59011 0
M  V30 5067 H 460.213 -0.723547 -1.24502 0
M  V30 5068 H 462.166 0.326488 -4.20133 0
M  V30 5069 H 460.89 0.948164 -3.12534 0
M  V30 5070 H 459.549 -1.15475 -3.47938 0
M  V30 5071 H 459.197 0.828941 -4.96123 0
M  V30 5072 H 458.897 -0.694359 -5.83483 0
M  V30 5073 H 460.421 0.198743 -6.10276 0
M  V30 5074 H 461.835 -1.95746 -5.38847 0
M  V30 5075 H 460.232 -2.74686 -5.33542 0
M  V30 5076 H 461.302 -2.84674 -3.92541 0
M  V30 5077 N 462.645 1.35699 -0.801477 0
M  V30 5078 C 464.056 1.81415 -0.441073 0
M  V30 5079 C 464.407 1.66595 1.03636 0
M  V30 5080 O 463.532 1.19369 1.80499 0
M  V30 5081 C 464.127 3.29369 -0.793819 0
M  V30 5082 C 462.686 3.73248 -0.486083 0
M  V30 5083 C 461.833 2.57775 -1.02213 0
M  V30 5084 H 464.784 1.23749 -0.993572 0
M  V30 5085 H 464.805 3.80395 -0.0894158 0
M  V30 5086 H 464.317 3.40123 -1.86917 0
M  V30 5087 H 462.418 3.68046 0.580735 0
M  V30 5088 H 462.531 4.68222 -1.01513 0
M  V30 5089 H 460.895 2.50788 -0.444712 0
M  V30 5090 H 461.678 2.71309 -2.10348 0
M  V30 5091 N 464.123 0.554532 1.47522 0
M  V30 5092 C 465.053 -0.182974 2.32782 0
M  V30 5093 C 466.034 -0.911377 1.43624 0
M  V30 5094 O 467.219 -0.892366 1.72483 0
M  V30 5095 C 464.349 -1.21513 3.25349 0
M  V30 5096 C 463.303 -0.603355 4.23726 0
M  V30 5097 C 462.629 -1.73995 5.05598 0
M  V30 5098 C 463.929 0.441121 5.20434 0
M  V30 5099 H 465.623 0.52882 2.94693 0
M  V30 5100 H 463.169 0.255759 1.41711 0
M  V30 5101 H 465.122 -1.73922 3.83835 0
M  V30 5102 H 463.846 -1.95683 2.61487 0
M  V30 5103 H 462.505 -0.10059 3.66462 0
M  V30 5104 H 462.153 -2.47063 4.38143 0
M  V30 5105 H 461.853 -1.3364 5.72201 0
M  V30 5106 H 463.377 -2.26735 5.66942 0
M  V30 5107 H 464.791 0.00319931 5.733 0
M  V30 5108 H 463.188 0.763402 5.95224 0
M  V30 5109 H 464.258 1.33799 4.66075 0
M  V30 5110 N 465.601 -1.54893 0.290851 0
M  V30 5111 C 467.012 -1.85584 -0.203816 0
M  V30 5112 C 467.363 -1.21285 -1.54222 0
M  V30 5113 O 466.488 -0.506841 -2.10381 0
M  V30 5114 C 467.083 -3.367 -0.376595 0
M  V30 5115 C 465.642 -3.6746 -0.815485 0
M  V30 5116 C 464.789 -2.77178 0.0821087 0
M  V30 5117 H 467.74 -1.50208 0.512175 0
M  V30 5118 H 467.761 -3.60656 -1.21275 0
M  V30 5119 H 467.273 -3.8347 0.59767 0
M  V30 5120 H 465.374 -3.26201 -1.80066 0
M  V30 5121 H 465.487 -4.7478 -0.641905 0
M  V30 5122 H 463.851 -2.50925 -0.436895 0
M  V30 5123 H 464.634 -3.26767 1.05254 0
M  V30 5124 N 467.08 -0.0183926 -1.57589 0
M  V30 5125 C 468.491 0.521927 -1.79256 0
M  V30 5126 C 468.842 1.72885 -0.927636 0
M  V30 5127 O 467.967 2.15978 -0.135091 0
M  V30 5128 C 468.562 0.953632 -3.25102 0
M  V30 5129 C 467.121 1.43913 -3.47801 0
M  V30 5130 C 466.268 0.398837 -2.74417 0
M  V30 5131 H 469.219 -0.244485 -1.56805 0
M  V30 5132 H 469.24 1.81863 -3.34224 0
M  V30 5133 H 468.752 0.0750123 -3.88028 0
M  V30 5134 H 466.853 2.33804 -2.90115 0
M  V30 5135 H 466.966 1.45391 -4.56507 0
M  V30 5136 H 465.33 0.864572 -2.39577 0
M  V30 5137 H 466.113 -0.471132 -3.40052 0
M  V30 5138 N 468.558 1.5553 0.254621 0
M  V30 5139 C 469.505 1.89666 1.31512 0
M  V30 5140 C 470.475 0.750057 1.482 0
M  V30 5141 O 471.66 1.00301 1.62309 0
M  V30 5142 C 468.8 2.19009 2.667 0
M  V30 5143 C 467.913 3.46435 2.58083 0
M  V30 5144 C 467.048 3.65386 3.85573 0
M  V30 5145 C 466.087 4.8644 3.71541 0
M  V30 5146 N 465.224 5.01952 4.90906 0
M  V30 5147 H 470.064 2.80109 1.017 0
M  V30 5148 H 467.601 1.38666 0.490938 0
M  V30 5149 H 469.559 2.34025 3.45381 0
M  V30 5150 H 468.189 1.31779 2.94676 0
M  V30 5151 H 467.241 3.39792 1.71013 0
M  V30 5152 H 468.553 4.35258 2.43622 0
M  V30 5153 H 467.707 3.80319 4.72697 0
M  V30 5154 H 466.446 2.74781 4.02922 0
M  V30 5155 H 465.451 4.71491 2.82801 0
M  V30 5156 H 466.676 5.78497 3.55694 0
M  V30 5157 H 464.622 4.14283 5.08631 0
M  V30 5158 H 464.539 5.84851 4.79046 0
M  V30 5159 H 465.807 5.21289 5.7955 0
M  V30 5160 N 470.036 -0.519951 1.48776 0
M  V30 5161 C 470.983 -1.62352 1.64044 0
M  V30 5162 C 471.953 -1.58945 0.482251 0
M  V30 5163 O 473.138 -1.77219 0.706971 0
M  V30 5164 C 470.278 -3.00579 1.69547 0
M  V30 5165 C 469.391 -3.14145 2.96541 0
M  V30 5166 C 468.526 -4.42991 2.93142 0
M  V30 5167 C 467.565 -4.50122 4.14797 0
M  V30 5168 N 466.702 -5.7037 4.09418 0
M  V30 5169 H 471.542 -1.48643 2.58281 0
M  V30 5170 H 469.079 -0.723516 1.28077 0
M  V30 5171 H 471.037 -3.80671 1.70719 0
M  V30 5172 H 469.667 -3.13036 0.787918 0
M  V30 5173 H 468.719 -2.27239 3.05068 0
M  V30 5174 H 470.031 -3.15275 3.86527 0
M  V30 5175 H 469.185 -5.31385 2.92772 0
M  V30 5176 H 467.924 -4.44398 2.00902 0
M  V30 5177 H 466.929 -3.60133 4.15433 0
M  V30 5178 H 468.154 -4.50445 5.08208 0
M  V30 5179 H 466.1 -5.72655 3.20004 0
M  V30 5180 H 466.017 -5.73036 4.93119 0
M  V30 5181 H 467.285 -6.61023 4.13121 0
M  V30 5182 N 471.514 -1.37532 -0.769588 0
M  V30 5183 C 472.742 -1.36059 -1.55871 0
M  V30 5184 C 473.157 0.053544 -1.88724 0
M  V30 5185 O 472.514 1.01591 -1.5161 0
M  V30 5186 C 472.565 -2.20107 -2.86767 0
M  V30 5187 O 472.286 -3.56009 -2.55321 0
M  V30 5188 C 473.787 -2.26636 -3.80987 0
M  V30 5189 H 471.007 -0.465967 -0.482821 0
M  V30 5190 H 473.551 -1.80901 -0.953686 0
M  V30 5191 H 471.706 -1.78768 -3.43687 0
M  V30 5192 H 472.12 -4.0009 -3.39158 0
M  V30 5193 H 473.594 -2.89763 -4.69831 0
M  V30 5194 H 474.071 -1.2754 -4.20274 0
M  V30 5195 H 474.677 -2.68296 -3.29996 0
M  V30 5196 N 472.992 0.995999 -1.22138 0
M  V30 5197 C 474.408 1.25917 -0.980667 0
M  V30 5198 C 474.608 1.98819 0.327604 0
M  V30 5199 O 473.664 2.29587 1.05101 0
M  V30 5200 C 474.977 2.07399 -2.17729 0
M  V30 5201 C 476.525 2.20594 -2.22052 0
M  V30 5202 C 477 3.05462 -3.41258 0
M  V30 5203 N 478.491 3.13049 -3.41401 0
M  V30 5204 C 479.226 3.78997 -4.30289 0
M  V30 5205 N 478.722 4.46899 -5.2939 0
M  V30 5206 N 480.515 3.75728 -4.18073 0
M  V30 5207 H 472.666 0.507158 -2.06256 0
M  V30 5208 H 474.929 0.28658 -0.903646 0
M  V30 5209 H 474.635 1.61191 -3.12586 0
M  V30 5210 H 474.509 3.08154 -2.17534 0
M  V30 5211 H 476.896 2.66017 -1.27745 0
M  V30 5212 H 476.977 1.1928 -2.26287 0
M  V30 5213 H 476.621 2.60739 -4.35864 0
M  V30 5214 H 476.551 4.06911 -3.34262 0
M  V30 5215 H 479.042 2.64721 -2.69688 0
M  V30 5216 H 479.355 4.94952 -5.935 0
M  V30 5217 H 477.7 4.45657 -5.33306 0
M  V30 5218 H 480.891 3.2184 -3.39907 0
M  V30 5219 H 481.064 4.26845 -4.87553 0
M  V30 5220 N 474.47 1.03057 1.19235 0
M  V30 5221 C 475.719 0.72326 1.88287 0
M  V30 5222 C 476.032 -0.751333 1.80594 0
M  V30 5223 O 477.238 -1.17176 2.44912 0
M  V30 5224 C 475.694 1.24338 3.3774 0
M  V30 5225 C 475.302 2.74587 3.53986 0
M  V30 5226 C 477.046 1.01213 4.12257 0
M  V30 5227 C 474.953 3.20009 4.97341 0
M  V30 5228 H 473.883 0.266848 0.705201 0
M  V30 5229 H 476.534 1.24509 1.34795 0
M  V30 5230 H 474.916 0.649457 3.90638 0
M  V30 5231 H 476.09 3.39649 3.11408 0
M  V30 5232 H 474.405 2.9601 2.9286 0
M  V30 5233 H 477.002 1.32675 5.17978 0
M  V30 5234 H 477.345 -0.051001 4.16269 0
M  V30 5235 H 477.878 1.57014 3.65501 0
M  V30 5236 H 474.617 4.25659 4.98493 0
M  V30 5237 H 474.137 2.59676 5.40674 0
M  V30 5238 H 475.816 3.13447 5.66003 0
M  V30 5239 N 475.948 -1.35272 0.808662 0
M  V30 5240 C 477.197 -1.97963 0.386483 0
M  V30 5241 C 477.51 -1.64866 -1.05255 0
M  V30 5242 O 478.716 -2.20937 -1.57794 0
M  V30 5243 C 477.172 -3.54162 0.640096 0
M  V30 5244 C 476.78 -3.96166 2.0918 0
M  V30 5245 C 478.524 -4.23553 0.283376 0
M  V30 5246 C 476.431 -5.4522 2.29106 0
M  V30 5247 H 475.361 -0.740742 0.140774 0
M  V30 5248 H 478.012 -1.5431 0.993012 0
M  V30 5249 H 476.394 -3.95983 -0.0364117 0
M  V30 5250 H 477.568 -3.65491 2.80629 0
M  V30 5251 H 475.883 -3.3967 2.40859 0
M  V30 5252 H 478.48 -5.33124 0.410273 0
M  V30 5253 H 478.823 -4.09105 -0.770659 0
M  V30 5254 H 479.356 -3.8716 0.913884 0
M  V30 5255 H 476.095 -5.64638 3.32962 0
M  V30 5256 H 475.615 -5.77457 1.62184 0
M  V30 5257 H 477.294 -6.1171 2.1076 0
M  V30 5258 N 477.426 -0.562348 -1.47226 0
M  V30 5259 C 478.651 -0.0432632 -2.07355 0
M  V30 5260 C 479.076 1.24332 -1.41149 0
M  V30 5261 O 478.434 1.74603 -0.488226 0
M  V30 5262 C 478.482 0.130288 -3.60365 0
M  V30 5263 O 477.586 1.19166 -3.94808 0
M  V30 5264 H 476.927 -0.0536334 -0.66183 0
M  V30 5265 H 479.457 -0.779495 -1.89169 0
M  V30 5266 H 479.467 0.342881 -4.06557 0
M  V30 5267 H 478.142 -0.809389 -4.07948 0
M  V30 5268 H 476.719 0.959153 -3.60354 0
M  V30 5269 N 478.904 1.54736 -0.299062 0
M  V30 5270 C 479.854 2.20155 0.592932 0
M  V30 5271 C 480.838 1.1739 1.10038 0
M  V30 5272 O 482.03 1.43116 1.04147 0
M  V30 5273 C 479.159 2.94437 1.76527 0
M  V30 5274 C 478.245 4.04516 1.27388 0
M  V30 5275 N 478.636 5.03319 0.500339 0
M  V30 5276 C 476.934 4.18022 1.55478 0
M  V30 5277 C 477.635 5.81209 0.238909 0
M  V30 5278 N 476.611 5.37408 0.818163 0
M  V30 5279 H 480.413 2.93899 -0.00563596 0
M  V30 5280 H 477.927 1.62068 -0.103732 0
M  V30 5281 H 479.924 3.3977 2.41582 0
M  V30 5282 H 478.584 2.22209 2.36756 0
M  V30 5283 H 479.595 5.17696 0.145419 0
M  V30 5284 H 476.272 3.56998 2.16469 0
M  V30 5285 H 477.662 6.70812 -0.382223 0
M  V30 5286 N 480.382 0.0267497 1.57577 0
M  V30 5287 C 481.628 -0.653371 1.91987 0
M  V30 5288 C 481.961 -1.71915 0.903263 0
M  V30 5289 O 481.236 -1.94358 -0.0743387 0
M  V30 5290 C 481.519 -1.272 3.36886 0
M  V30 5291 C 481.372 -0.215938 4.49281 0
M  V30 5292 C 482.691 -2.19069 3.81703 0
M  V30 5293 H 479.81 -0.236047 0.698177 0
M  V30 5294 H 482.452 0.0835236 1.89816 0
M  V30 5295 H 480.602 -1.90005 3.38866 0
M  V30 5296 H 482.274 0.41449 4.59434 0
M  V30 5297 H 480.517 0.458855 4.31366 0
M  V30 5298 H 481.188 -0.688347 5.47691 0
M  V30 5299 H 483.664 -1.66253 3.81444 0
M  V30 5300 H 482.54 -2.59307 4.83788 0
M  V30 5301 H 482.801 -3.08087 3.17072 0
M  V30 5302 N 481.861 -1.55662 -0.24637 0
M  V30 5303 C 483.107 -1.78698 -0.971525 0
M  V30 5304 C 483.462 -0.59577 -1.82944 0
M  V30 5305 O 482.755 0.41097 -1.87141 0
M  V30 5306 C 482.949 -3.04885 -1.86494 0
M  V30 5307 C 482.778 -4.36165 -1.09501 0
M  V30 5308 C 481.548 -4.98929 -0.799895 0
M  V30 5309 C 483.746 -5.12126 -0.472334 0
M  V30 5310 N 481.728 -6.139 -0.00595299 0
M  V30 5311 C 483.099 -6.1972 0.18616 0
M  V30 5312 C 485.154 -4.96426 -0.382854 0
M  V30 5313 C 483.857 -7.13321 0.925542 0
M  V30 5314 C 485.883 -5.90405 0.342999 0
M  V30 5315 C 485.245 -6.97407 0.990128 0
M  V30 5316 H 481.344 -0.705852 -0.336597 0
M  V30 5317 H 483.928 -1.93157 -0.244615 0
M  V30 5318 H 482.099 -2.91753 -2.56388 0
M  V30 5319 H 483.831 -3.16212 -2.5257 0
M  V30 5320 H 480.586 -4.60365 -1.11181 0
M  V30 5321 H 481.01 -6.75938 0.379127 0
M  V30 5322 H 485.652 -4.13777 -0.868834 0
M  V30 5323 H 483.37 -7.9547 1.42312 0
M  V30 5324 H 486.956 -5.80333 0.412907 0
M  V30 5325 H 485.836 -7.68874 1.54282 0
M  V30 5326 N 483.339 0.512053 -1.4905 0
M  V30 5327 C 484.249 1.64139 -1.67617 0
M  V30 5328 C 485.265 1.64786 -0.558701 0
M  V30 5329 O 486.441 1.8341 -0.832034 0
M  V30 5330 C 483.506 3.00548 -1.72835 0
M  V30 5331 C 482.567 3.10615 -2.96339 0
M  V30 5332 C 481.8 4.40517 -3.01298 0
M  V30 5333 O 482.023 5.28671 -2.14157 0
M  V30 5334 O 480.957 4.55325 -3.93653 0
M  V30 5335 H 484.783 1.51407 -2.63267 0
M  V30 5336 H 482.368 0.687131 -1.32661 0
M  V30 5337 H 484.25 3.81641 -1.78683 0
M  V30 5338 H 482.925 3.13566 -0.803616 0
M  V30 5339 H 481.832 2.2875 -2.96014 0
M  V30 5340 H 483.165 3.0252 -3.88256 0
M  V30 5341 N 484.817 1.37938 0.762283 0
M  V30 5342 C 485.765 1.34569 1.89721 0
M  V30 5343 C 486.759 0.232929 1.67791 0
M  V30 5344 O 487.965 0.401485 1.75465 0
M  V30 5345 H 484.34 0.419594 0.624055 0
M  V30 5346 H 486.311 2.30357 1.8968 0
M  V30 5347 C 485.06 1.17898 3.27101 0
M  V30 5348 H 484.383 2.02781 3.44558 0
M  V30 5349 H 485.823 1.19593 4.06784 0
M  V30 5350 C 484.282 -0.114728 3.36705 0
M  V30 5351 O 484.812 -1.0949 3.8649 0
M  V30 5352 N 483.018 -0.16863 2.9011 0
M  V30 5353 H 482.565 0.62967 2.49786 0
M  V30 5354 H 482.523 -1.03383 2.96916 0
M  V30 5355 N 486.295 -0.989507 1.22664 0
M  V30 5356 C 487.243 -2.10148 0.997035 0
M  V30 5357 C 488.237 -1.6929 -0.0609783 0
M  V30 5358 O 489.443 -1.79766 0.0917523 0
M  V30 5359 H 485.818 -0.687256 0.305259 0
M  V30 5360 H 487.789 -2.26685 1.94053 0
M  V30 5361 C 486.538 -3.4257 0.595085 0
M  V30 5362 H 485.861 -3.74453 1.40089 0
M  V30 5363 H 487.301 -4.21344 0.473869 0
M  V30 5364 C 485.76 -3.29638 -0.695725 0
M  V30 5365 O 486.29 -3.61709 -1.74727 0
M  V30 5366 N 484.496 -2.82814 -0.668173 0
M  V30 5367 H 484.043 -2.56914 0.18787 0
M  V30 5368 H 484.001 -2.74544 -1.5321 0
M  V30 5369 N 487.773 -1.03688 -1.18687 0
M  V30 5370 C 488.721 -0.618292 -2.24232 0
M  V30 5371 C 489.715 0.353045 -1.6568 0
M  V30 5372 O 490.921 0.220749 -1.78641 0
M  V30 5373 H 487.296 -0.181711 -0.729716 0
M  V30 5374 H 489.267 -1.51893 -2.56848 0
M  V30 5375 C 488.016 0.00677342 -3.47699 0
M  V30 5376 H 487.339 -0.731692 -3.93047 0
M  V30 5377 H 488.779 0.262492 -4.23187 0
M  V30 5378 C 487.238 1.25572 -3.12623 0
M  V30 5379 O 487.768 2.34691 -3.26011 0
M  V30 5380 N 485.974 1.14755 -2.66982 0
M  V30 5381 H 485.521 0.259601 -2.56289 0
M  V30 5382 H 485.479 1.98412 -2.43885 0
M  V30 5383 N 489.251 1.34841 -0.815825 0
M  V30 5384 C 490.662 1.80937 -0.46029 0
M  V30 5385 C 491.013 1.67685 1.01863 0
M  V30 5386 O 490.138 1.21277 1.79223 0
M  V30 5387 C 490.733 3.28509 -0.828708 0
M  V30 5388 C 489.292 3.72712 -0.525644 0
M  V30 5389 C 488.439 2.56676 -1.04941 0
M  V30 5390 H 491.39 1.22688 -1.00664 0
M  V30 5391 H 491.411 3.80279 -0.129757 0
M  V30 5392 H 490.923 3.38122 -1.90513 0
M  V30 5393 H 489.024 3.68642 0.541666 0
M  V30 5394 H 489.137 4.67119 -1.06474 0
M  V30 5395 H 487.501 2.50302 -0.471286 0
M  V30 5396 H 488.284 2.69063 -2.13214 0
M  V30 5397 N 490.729 0.570148 1.46925 0
M  V30 5398 C 491.976 0.0509529 2.02436 0
M  V30 5399 C 492.304 -1.30405 1.44308 0
M  V30 5400 O 491.559 -1.86493 0.593198 0
M  V30 5401 C 491.858 -0.0780336 3.57315 0
M  V30 5402 C 491.524 1.20775 4.34424 0
M  V30 5403 C 490.186 1.56004 4.5521 0
M  V30 5404 C 492.538 2.0592 4.78797 0
M  V30 5405 C 489.866 2.76201 5.17619 0
M  V30 5406 C 492.218 3.25332 5.42533 0
M  V30 5407 C 490.882 3.60859 5.61549 0
M  V30 5408 H 490.152 0.018645 0.740765 0
M  V30 5409 H 492.799 0.744262 1.76445 0
M  V30 5410 H 491.104 -0.854394 3.82371 0
M  V30 5411 H 492.801 -0.495312 3.97929 0
M  V30 5412 H 489.391 0.923469 4.18533 0
M  V30 5413 H 493.575 1.80008 4.62505 0
M  V30 5414 H 488.831 3.0388 5.30535 0
M  V30 5415 H 493.005 3.91586 5.75876 0
M  V30 5416 H 490.632 4.54088 6.09678 0
M  V30 5417 N 492.207 -1.54576 0.307264 0
M  V30 5418 C 493.139 -2.21212 -0.599807 0
M  V30 5419 C 494.152 -1.20685 -1.09266 0
M  V30 5420 O 495.341 -1.47244 -1.00903 0
M  V30 5421 C 492.441 -2.84994 -1.83389 0
M  V30 5422 C 491.614 -4.11511 -1.48248 0
M  V30 5423 C 490.673 -4.59038 -2.57237 0
M  V30 5424 O 489.699 -5.24095 -2.22065 0
M  V30 5425 N 490.901 -4.31884 -3.87887 0
M  V30 5426 H 493.666 -2.99686 -0.0293075 0
M  V30 5427 H 491.227 -1.61379 0.129738 0
M  V30 5428 H 493.219 -3.1372 -2.5566 0
M  V30 5429 H 491.789 -2.10324 -2.31263 0
M  V30 5430 H 491.009 -3.89728 -0.592122 0
M  V30 5431 H 492.297 -4.93879 -1.22316 0
M  V30 5432 H 491.695 -3.79778 -4.19268 0
M  V30 5433 H 490.252 -4.65304 -4.56438 0
M  V30 5434 N 493.685 -0.035106 -1.57561 0
M  V30 5435 C 494.934 0.641604 -1.91223 0
M  V30 5436 C 495.247 1.72944 -0.913761 0
M  V30 5437 O 496.453 2.46321 -1.14185 0
M  V30 5438 C 494.909 1.19249 -3.3957 0
M  V30 5439 C 494.517 0.137616 -4.47789 0
M  V30 5440 C 496.261 1.84537 -3.82291 0
M  V30 5441 C 494.168 0.700478 -5.87237 0
M  V30 5442 H 493.098 0.243417 -0.713627 0
M  V30 5443 H 495.749 -0.101382 -1.8322 0
M  V30 5444 H 494.131 1.98728 -3.42525 0
M  V30 5445 H 495.305 -0.635153 -4.56402 0
M  V30 5446 H 493.62 -0.416855 -4.14308 0
M  V30 5447 H 496.217 2.27616 -4.83834 0
M  V30 5448 H 496.56 2.69054 -3.17672 0
M  V30 5449 H 497.093 1.11739 -3.81784 0
M  V30 5450 H 493.832 -0.106693 -6.55413 0
M  V30 5451 H 493.352 1.4416 -5.82218 0
M  V30 5452 H 495.031 1.18837 -6.35993 0
M  V30 5453 N 495.163 1.55791 0.238111 0
M  V30 5454 C 496.409 1.78297 0.966337 0
M  V30 5455 C 496.742 0.601903 1.84637 0
M  V30 5456 O 496.017 -0.399499 1.90353 0
M  V30 5457 C 496.3 3.10758 1.81939 0
M  V30 5458 C 496.153 4.39283 0.966958 0
M  V30 5459 C 497.472 3.39519 2.80027 0
M  V30 5460 H 494.591 0.648654 0.349882 0
M  V30 5461 H 497.233 1.88525 0.236253 0
M  V30 5462 H 495.383 3.02168 2.44185 0
M  V30 5463 H 497.055 4.59873 0.362514 0
M  V30 5464 H 495.298 4.32948 0.271669 0
M  V30 5465 H 495.969 5.28368 1.59784 0
M  V30 5466 H 498.445 3.48128 2.27917 0
M  V30 5467 H 497.321 4.33402 3.36829 0
M  V30 5468 H 497.582 2.60864 3.56934 0
M  V30 5469 N 496.642 -0.504142 1.49319 0
M  V30 5470 C 497.572 -1.61473 1.68667 0
M  V30 5471 C 498.553 -1.61455 0.535378 0
M  V30 5472 O 499.738 -1.78245 0.770868 0
M  V30 5473 C 496.868 -2.99971 1.75028 0
M  V30 5474 C 495.822 -3.14854 2.89916 0
M  V30 5475 C 495.148 -4.54671 2.81387 0
M  V30 5476 C 496.448 -2.95176 4.30893 0
M  V30 5477 H 498.142 -1.45535 2.61648 0
M  V30 5478 H 495.688 -0.698711 1.25913 0
M  V30 5479 H 497.641 -3.77562 1.8715 0
M  V30 5480 H 496.365 -3.1699 0.786441 0
M  V30 5481 H 495.024 -2.39687 2.77391 0
M  V30 5482 H 494.672 -4.68562 1.82917 0
M  V30 5483 H 494.372 -4.6557 3.58494 0
M  V30 5484 H 495.896 -5.34327 2.95512 0
M  V30 5485 H 497.31 -3.62538 4.44116 0
M  V30 5486 H 495.707 -3.17549 5.09198 0
M  V30 5487 H 496.777 -1.91332 4.45556 0
M  V30 5488 N 498.12 -1.38341 -0.754957 0
M  V30 5489 C 499.366 -1.34672 -1.51628 0
M  V30 5490 C 499.699 0.0636036 -1.94096 0
M  V30 5491 O 498.974 1.0245 -1.6533 0
M  V30 5492 C 499.257 -2.30116 -2.76981 0
M  V30 5493 C 499.11 -3.80003 -2.4066 0
M  V30 5494 C 500.429 -2.23715 -3.78998 0
M  V30 5495 H 497.548 -0.490517 -0.550056 0
M  V30 5496 H 500.19 -1.69178 -0.864807 0
M  V30 5497 H 498.34 -2.00821 -3.3257 0
M  V30 5498 H 500.012 -4.19966 -1.90856 0
M  V30 5499 H 498.255 -3.97751 -1.73137 0
M  V30 5500 H 498.926 -4.42244 -3.30339 0
M  V30 5501 H 501.402 -2.49574 -3.32945 0
M  V30 5502 H 500.278 -2.9261 -4.64403 0
M  V30 5503 H 500.539 -1.23554 -4.24484 0
M  V30 5504 N 499.598 0.982988 -1.23187 0
M  V30 5505 C 500.545 2.07491 -1.01075 0
M  V30 5506 C 501.515 1.65949 0.070905 0
M  V30 5507 O 502.7 1.90629 -0.0806822 0
M  V30 5508 C 499.84 3.39751 -0.605261 0
M  V30 5509 C 498.953 3.94578 -1.75876 0
M  V30 5510 C 498.088 5.15039 -1.3003 0
M  V30 5511 C 497.127 5.62027 -2.42472 0
M  V30 5512 N 496.264 6.73719 -1.97602 0
M  V30 5513 H 501.104 2.25739 -1.9454 0
M  V30 5514 H 498.641 1.10659 -0.969179 0
M  V30 5515 H 500.599 4.15719 -0.351279 0
M  V30 5516 H 499.229 3.21473 0.292382 0
M  V30 5517 H 498.281 3.1539 -2.12681 0
M  V30 5518 H 499.593 4.25422 -2.60418 0
M  V30 5519 H 498.747 5.9833 -1.00429 0
M  V30 5520 H 497.486 4.85843 -0.425216 0
M  V30 5521 H 496.491 4.77318 -2.7285 0
M  V30 5522 H 497.716 5.93244 -3.30512 0
M  V30 5523 H 495.662 6.46287 -1.1247 0
M  V30 5524 H 495.579 7.03934 -2.75705 0
M  V30 5525 H 496.847 7.6049 -1.71098 0
M  V30 5526 N 501.076 1.04316 1.18135 0
M  V30 5527 C 502.324 0.746542 1.87806 0
M  V30 5528 C 502.645 -0.728082 1.80898 0
M  V30 5529 O 501.915 -1.52554 1.22899 0
M  V30 5530 H 500.495 0.273157 0.695265 0
M  V30 5531 H 503.157 1.32044 1.43354 0
M  V30 5532 H 502.253 1.05362 2.93778 0
M  V30 5533 N 502.554 -1.34406 0.822964 0
M  V30 5534 C 503.502 -2.31428 0.233165 0
M  V30 5535 C 504.496 -1.57404 -0.626118 0
M  V30 5536 O 505.702 -1.72402 -0.517453 0
M  V30 5537 H 502.077 -0.749863 0.0566557 0
M  V30 5538 H 504.048 -2.78699 1.06628 0
M  V30 5539 C 502.797 -3.42653 -0.590264 0
M  V30 5540 H 502.12 -3.99753 0.0616129 0
M  V30 5541 H 503.56 -4.12778 -0.969054 0
M  V30 5542 C 502.019 -2.87112 -1.76262 0
M  V30 5543 O 502.549 -2.81995 -2.8608 0
M  V30 5544 N 500.755 -2.43934 -1.57938 0
M  V30 5545 H 500.302 -2.48296 -0.686078 0
M  V30 5546 H 500.26 -2.07123 -2.36532 0
M  V30 5547 N 504.032 -0.577932 -1.46621 0
M  V30 5548 C 504.979 0.158048 -2.30258 0
M  V30 5549 C 505.949 0.888669 -1.40328 0
M  V30 5550 O 507.134 0.880283 -1.6928 0
M  V30 5551 C 504.274 1.16884 -3.24703 0
M  V30 5552 C 503.387 0.442163 -4.29731 0
M  V30 5553 C 502.522 1.44007 -5.11308 0
M  V30 5554 C 501.561 0.69952 -6.0809 0
M  V30 5555 N 500.698 1.64525 -6.82551 0
M  V30 5556 H 505.538 -0.561242 -2.92667 0
M  V30 5557 H 503.075 -0.288591 -1.44241 0
M  V30 5558 H 505.033 1.7677 -3.779 0
M  V30 5559 H 503.663 1.85591 -2.64113 0
M  V30 5560 H 502.715 -0.271632 -3.79429 0
M  V30 5561 H 504.027 -0.136992 -4.98612 0
M  V30 5562 H 503.181 2.11186 -5.68758 0
M  V30 5563 H 501.92 2.05315 -4.42377 0
M  V30 5564 H 500.925 0.0139217 -5.49798 0
M  V30 5565 H 502.15 0.091894 -6.79038 0
M  V30 5566 H 500.096 2.24653 -6.16334 0
M  V30 5567 H 500.013 1.11878 -7.47676 0
M  V30 5568 H 501.281 2.30754 -7.44562 0
M  V30 5569 N 505.51 1.54411 -0.315457 0
M  V30 5570 C 506.44 2.27002 0.547039 0
M  V30 5571 C 507.421 1.27492 1.12605 0
M  V30 5572 O 508.606 1.5629 1.15269 0
M  V30 5573 C 505.736 3.02171 1.71201 0
M  V30 5574 C 504.69 4.0895 1.26268 0
M  V30 5575 C 504.016 4.71915 2.51396 0
M  V30 5576 C 505.316 5.20891 0.383419 0
M  V30 5577 H 507.01 2.99343 -0.0584517 0
M  V30 5578 H 504.556 1.4397 -0.0295527 0
M  V30 5579 H 506.509 3.51681 2.32161 0
M  V30 5580 H 505.233 2.27433 2.34397 0
M  V30 5581 H 503.892 3.60312 0.676062 0
M  V30 5582 H 503.54 3.93801 3.12937 0
M  V30 5583 H 503.24 5.44039 2.22026 0
M  V30 5584 H 504.764 5.24195 3.13133 0
M  V30 5585 H 506.178 5.66206 0.899082 0
M  V30 5586 H 504.575 5.99821 0.182857 0
M  V30 5587 H 505.645 4.81324 -0.587821 0
M  V30 5588 N 506.988 0.0434614 1.5754 0
M  V30 5589 C 507.936 -0.951465 2.1225 0
M  V30 5590 C 508.93 -1.3274 1.05245 0
M  V30 5591 O 510.136 -1.30795 1.23663 0
M  V30 5592 H 506.511 -0.324667 0.678303 0
M  V30 5593 H 508.482 -0.464855 2.94757 0
M  V30 5594 C 507.231 -2.21972 2.67626 0
M  V30 5595 H 506.554 -1.93923 3.4962 0
M  V30 5596 H 507.994 -2.89765 3.09536 0
M  V30 5597 C 506.453 -2.95919 1.61038 0
M  V30 5598 O 506.983 -3.8857 1.01862 0
M  V30 5599 N 505.189 -2.58511 1.32741 0
M  V30 5600 H 504.736 -1.83244 1.81051 0
M  V30 5601 H 504.694 -3.08296 0.616531 0
M  V30 5602 N 508.466 -1.55915 -0.229846 0
M  V30 5603 C 509.694 -1.82617 -0.972562 0
M  V30 5604 C 510.109 -0.621488 -1.78278 0
M  V30 5605 O 509.466 0.409956 -1.77836 0
M  V30 5606 C 509.517 -3.0774 -1.89679 0
M  V30 5607 O 509.238 -4.23559 -1.11934 0
M  V30 5608 C 510.739 -3.47368 -2.75409 0
M  V30 5609 H 507.959 -0.60727 -0.285419 0
M  V30 5610 H 510.503 -2.02996 -0.247579 0
M  V30 5611 H 508.658 -2.89361 -2.57583 0
M  V30 5612 H 509.072 -4.94586 -1.74599 0
M  V30 5613 H 510.546 -4.37977 -3.35977 0
M  V30 5614 H 511.023 -2.68737 -3.47386 0
M  V30 5615 H 511.629 -3.68158 -2.12931 0
M  V30 5616 N 509.944 0.496216 -1.49584 0
M  V30 5617 C 510.854 1.62352 -1.69349 0
M  V30 5618 C 511.87 1.64184 -0.576147 0
M  V30 5619 O 513.046 1.82517 -0.85144 0
M  V30 5620 C 510.111 2.98698 -1.76013 0
M  V30 5621 C 509.172 3.07454 -2.99617 0
M  V30 5622 C 508.405 4.37296 -3.05953 0
M  V30 5623 O 508.628 5.2637 -2.19752 0
M  V30 5624 O 507.562 4.51124 -3.9846 0
M  V30 5625 H 511.388 1.48606 -2.64859 0
M  V30 5626 H 508.973 0.673022 -1.33382 0
M  V30 5627 H 510.855 3.79725 -1.82721 0
M  V30 5628 H 509.53 3.12696 -0.836828 0
M  V30 5629 H 508.437 2.25597 -2.98424 0
M  V30 5630 H 509.77 2.98385 -3.91443 0
M  V30 5631 N 511.423 1.38739 0.74761 0
M  V30 5632 C 512.333 1.38696 1.89211 0
M  V30 5633 C 513.349 0.283303 1.71678 0
M  V30 5634 O 514.525 0.522713 1.94498 0
M  V30 5635 C 511.59 1.21662 3.24653 0
M  V30 5636 C 510.651 2.41886 3.54669 0
M  V30 5637 C 509.884 2.25655 4.83648 0
M  V30 5638 O 510.107 1.25339 5.56459 0
M  V30 5639 O 509.041 3.14372 5.13277 0
M  V30 5640 H 512.867 2.35143 1.92202 0
M  V30 5641 H 510.452 1.19721 0.893708 0
M  V30 5642 H 512.334 1.14246 4.05618 0
M  V30 5643 H 511.009 0.283024 3.2246 0
M  V30 5644 H 509.916 2.54877 2.73841 0
M  V30 5645 H 511.249 3.33895 3.61628 0
M  V30 5646 N 512.901 -0.976442 1.23707 0
M  V30 5647 C 514.129 -1.75341 1.09833 0
M  V30 5648 C 514.544 -1.8553 -0.349885 0
M  V30 5649 O 513.901 -1.33732 -1.24185 0
M  V30 5650 C 513.952 -3.17833 1.72233 0
M  V30 5651 O 513.673 -3.08167 3.11391 0
M  V30 5652 C 515.174 -4.11906 1.63853 0
M  V30 5653 H 512.394 -0.550137 0.384175 0
M  V30 5654 H 514.938 -1.2265 1.63638 0
M  V30 5655 H 513.093 -3.67538 1.22452 0
M  V30 5656 H 513.507 -3.97897 3.41729 0
M  V30 5657 H 514.981 -5.09579 2.12211 0
M  V30 5658 H 515.458 -4.35109 0.598092 0
M  V30 5659 H 516.064 -3.68107 2.13019 0
M  V30 5660 N 514.379 -1.04941 -1.1758 0
M  V30 5661 C 515.625 -0.759112 -1.88057 0
M  V30 5662 C 515.958 0.711918 -1.8068 0
M  V30 5663 O 515.233 1.52035 -1.21308 0
M  V30 5664 C 515.516 -1.237 -3.38187 0
M  V30 5665 C 515.369 -2.77078 -3.54327 0
M  V30 5666 C 516.688 -0.834014 -4.32125 0
M  V30 5667 H 513.807 -0.277237 -0.682868 0
M  V30 5668 H 516.449 -1.30296 -1.38286 0
M  V30 5669 H 514.599 -0.774337 -3.80705 0
M  V30 5670 H 516.271 -3.31449 -3.20842 0
M  V30 5671 H 514.514 -3.16477 -2.96689 0
M  V30 5672 H 515.185 -3.05577 -4.59703 0
M  V30 5673 H 517.661 -1.23228 -3.97434 0
M  V30 5674 H 516.537 -1.19603 -5.35711 0
M  V30 5675 H 516.798 0.262195 -4.41322 0
M  V30 5676 N 515.857 1.33968 -0.830081 0
M  V30 5677 C 516.804 2.29387 -0.255008 0
M  V30 5678 C 517.774 1.53923 0.624243 0
M  V30 5679 O 518.959 1.82262 0.564372 0
M  V30 5680 C 516.099 3.4034 0.571209 0
M  V30 5681 C 515.212 4.30729 -0.331083 0
M  V30 5682 C 514.347 5.2879 0.505389 0
M  V30 5683 C 513.386 6.10819 -0.395843 0
M  V30 5684 N 512.523 7.00948 0.401979 0
M  V30 5685 H 517.363 2.77972 -1.07404 0
M  V30 5686 H 514.9 1.36785 -0.541133 0
M  V30 5687 H 516.858 4.03361 1.06562 0
M  V30 5688 H 515.488 2.9297 1.35529 0
M  V30 5689 H 514.54 3.68507 -0.943759 0
M  V30 5690 H 515.852 4.88181 -1.02377 0
M  V30 5691 H 515.006 5.97297 1.06399 0
M  V30 5692 H 513.745 4.71894 1.23155 0
M  V30 5693 H 512.75 5.41238 -0.966529 0
M  V30 5694 H 513.975 6.69797 -1.12023 0
M  V30 5695 H 511.921 6.46512 1.11168 0
M  V30 5696 H 511.838 7.55643 -0.232167 0
M  V30 5697 H 513.106 7.73774 0.943102 0
M  V30 5698 N 517.335 0.585699 1.46312 0
M  V30 5699 C 518.581 0.0725284 2.0267 0
M  V30 5700 C 518.914 -1.28523 1.45586 0
M  V30 5701 O 518.189 -1.84283 0.622101 0
M  V30 5702 C 518.472 0.0099788 3.60099 0
M  V30 5703 C 518.325 1.39685 4.27561 0
M  V30 5704 C 519.644 -0.689117 4.34671 0
M  V30 5705 H 516.763 0.0278307 0.736474 0
M  V30 5706 H 519.405 0.753472 1.74421 0
M  V30 5707 H 517.555 -0.56992 3.84297 0
M  V30 5708 H 519.227 2.02215 4.14617 0
M  V30 5709 H 517.47 1.96374 3.86807 0
M  V30 5710 H 518.141 1.30553 5.36339 0
M  V30 5711 H 520.617 -0.196446 4.15636 0
M  V30 5712 H 519.493 -0.701921 5.44393 0
M  V30 5713 H 519.754 -1.75101 4.05946 0
M  V30 5714 N 518.813 -1.54241 0.323641 0
M  V30 5715 C 519.763 -2.21071 -0.557833 0
M  V30 5716 C 520.747 -1.19126 -1.08157 0
M  V30 5717 O 521.939 -1.44755 -1.01857 0
M  V30 5718 C 519.068 -2.97208 -1.71821 0
M  V30 5719 C 518.154 -4.06491 -1.20936 0
M  V30 5720 N 518.545 -5.04052 -0.420202 0
M  V30 5721 C 516.843 -4.20443 -1.48808 0
M  V30 5722 C 517.544 -5.81516 -0.146413 0
M  V30 5723 N 516.52 -5.38641 -0.732562 0
M  V30 5724 H 520.322 -2.93853 0.0523921 0
M  V30 5725 H 517.836 -1.61883 0.129502 0
M  V30 5726 H 519.833 -3.4357 -2.36146 0
M  V30 5727 H 518.493 -2.25947 -2.33191 0
M  V30 5728 H 519.504 -5.17862 -0.0630401 0
M  V30 5729 H 516.181 -3.60396 -2.10762 0
M  V30 5730 H 517.571 -6.70119 0.488895 0
M  V30 5731 N 520.291 -0.0518155 -1.57515 0
M  V30 5732 C 521.537 0.622745 -1.93002 0
M  V30 5733 C 521.87 1.70456 -0.930499 0
M  V30 5734 O 521.145 1.94452 0.0434086 0
M  V30 5735 C 521.428 1.21824 -3.38867 0
M  V30 5736 C 521.281 0.144434 -4.49568 0
M  V30 5737 C 522.6 2.12968 -3.8514 0
M  V30 5738 H 519.719 0.22491 -0.701844 0
M  V30 5739 H 522.361 -0.113711 -1.89659 0
M  V30 5740 H 520.511 1.8459 -3.41846 0
M  V30 5741 H 522.183 -0.48753 -4.58717 0
M  V30 5742 H 520.426 -0.527424 -4.30582 0
M  V30 5743 H 521.097 0.601127 -5.48717 0
M  V30 5744 H 523.573 1.60163 -3.8404 0
M  V30 5745 H 522.449 2.51578 -4.87852 0
M  V30 5746 H 522.71 3.03004 -3.21934 0
M  V30 5747 N 521.769 1.56035 0.221574 0
M  V30 5748 C 523.185 1.49026 0.571271 0
M  V30 5749 C 523.385 0.746912 1.87146 0
M  V30 5750 O 522.441 0.286566 2.50869 0
M  V30 5751 C 523.754 2.93579 0.650522 0
M  V30 5752 C 525.302 3.04099 0.741151 0
M  V30 5753 C 525.777 4.5001 0.851747 0
M  V30 5754 N 527.268 4.54053 0.915968 0
M  V30 5755 C 528.003 5.64232 1.02125 0
M  V30 5756 N 527.499 6.84164 1.09049 0
M  V30 5757 N 529.292 5.52084 1.05639 0
M  V30 5758 H 521.443 2.02791 -0.63162 0
M  V30 5759 H 523.706 0.921736 -0.221602 0
M  V30 5760 H 523.412 3.50912 -0.235253 0
M  V30 5761 H 523.286 3.45476 1.51413 0
M  V30 5762 H 525.673 2.4683 1.61737 0
M  V30 5763 H 525.754 2.55371 -0.148128 0
M  V30 5764 H 525.398 5.07896 -0.0200117 0
M  V30 5765 H 525.328 4.96444 1.75644 0
M  V30 5766 H 527.819 3.67683 0.872782 0
M  V30 5767 H 528.132 7.63883 1.1706 0
M  V30 5768 H 526.477 6.86875 1.05962 0
M  V30 5769 H 529.668 4.57317 0.998953 0
M  V30 5770 H 529.841 6.37983 1.13498 0
M  V30 5771 N 523.247 -0.488276 1.49845 0
M  V30 5772 C 524.21 -1.57069 1.66919 0
M  V30 5773 C 525.21 -1.51445 0.540479 0
M  V30 5774 O 526.4 -1.5437 0.807188 0
M  V30 5775 C 523.532 -2.96718 1.67844 0
M  V30 5776 H 524.725 -1.43254 2.63474 0
M  V30 5777 H 522.278 -0.713435 1.39068 0
M  V30 5778 H 523.013 -3.15996 0.7292 0
M  V30 5779 H 522.798 -3.02208 2.49826 0
M  V30 5780 H 524.288 -3.75335 1.83066 0
M  V30 5781 N 524.725 -1.39134 -0.740242 0
M  V30 5782 C 525.973 -1.35803 -1.49673 0
M  V30 5783 C 526.294 0.0470897 -1.94943 0
M  V30 5784 O 525.564 0.997347 -1.68611 0
M  V30 5785 H 524.144 -0.499736 -0.555224 0
M  V30 5786 H 526.806 -1.73947 -0.879107 0
M  V30 5787 H 525.902 -2.0174 -2.38133 0
M  V30 5788 N 526.204 0.969867 -1.24223 0
M  V30 5789 C 527.134 2.08191 -1.05729 0
M  V30 5790 C 528.115 1.70075 0.0290765 0
M  V30 5791 O 529.3 1.93712 -0.137583 0
M  V30 5792 C 526.43 3.40991 -0.658995 0
M  V30 5793 C 525.384 3.93054 -1.69389 0
M  V30 5794 C 524.71 5.22171 -1.15072 0
M  V30 5795 C 526.01 4.21137 -3.08935 0
M  V30 5796 H 527.704 2.23921 -1.98746 0
M  V30 5797 H 525.25 1.07602 -0.956967 0
M  V30 5798 H 527.203 4.18221 -0.51662 0
M  V30 5799 H 525.927 3.25155 0.30686 0
M  V30 5800 H 524.586 3.17977 -1.82444 0
M  V30 5801 H 524.234 5.02694 -0.175539 0
M  V30 5802 H 523.934 5.57973 -1.84229 0
M  V30 5803 H 525.458 6.02013 -1.02042 0
M  V30 5804 H 526.872 4.8908 -2.99121 0
M  V30 5805 H 525.269 4.68163 -3.75425 0
M  V30 5806 H 526.339 3.27996 -3.57137 0
M  V30 5807 N 527.682 1.05563 1.17022 0
M  V30 5808 C 528.929 0.767937 1.87374 0
M  V30 5809 C 529.257 -0.705224 1.81265 0
M  V30 5810 O 528.512 -1.5318 1.21796 0
M  V30 5811 C 528.811 1.19849 3.36706 0
M  V30 5812 C 528.477 2.6745 3.63017 0
M  V30 5813 C 527.139 3.0777 3.69907 0
M  V30 5814 C 529.491 3.62811 3.74189 0
M  V30 5815 C 526.819 4.42307 3.85463 0
M  V30 5816 C 529.171 4.97087 3.91264 0
M  V30 5817 C 527.835 5.37055 3.96394 0
M  V30 5818 H 527.105 0.281008 0.68565 0
M  V30 5819 H 529.752 1.32339 1.38415 0
M  V30 5820 H 528.057 0.562096 3.87747 0
M  V30 5821 H 529.754 0.953038 3.8951 0
M  V30 5822 H 526.344 2.35228 3.58282 0
M  V30 5823 H 530.528 3.32798 3.68183 0
M  V30 5824 H 525.784 4.72769 3.87684 0
M  V30 5825 H 529.958 5.70869 3.9885 0
M  V30 5826 H 527.585 6.41308 4.082 0
M  V30 5827 N 529.16 -1.33526 0.837174 0
M  V30 5828 C 530.11 -2.2672 0.241269 0
M  V30 5829 C 531.094 -1.49183 -0.602756 0
M  V30 5830 O 532.286 -1.71052 -0.455002 0
M  V30 5831 C 529.415 -3.38294 -0.584125 0
M  V30 5832 C 528.501 -4.23231 0.271315 0
M  V30 5833 N 528.892 -4.87473 1.34922 0
M  V30 5834 C 527.19 -4.45962 0.0580589 0
M  V30 5835 C 527.891 -5.50685 1.87405 0
M  V30 5836 N 526.867 -5.30732 1.17578 0
M  V30 5837 H 530.669 -2.73903 1.06558 0
M  V30 5838 H 528.183 -1.47411 0.68145 0
M  V30 5839 H 530.18 -4.04044 -1.02731 0
M  V30 5840 H 528.84 -2.9266 -1.40643 0
M  V30 5841 H 529.851 -4.88077 1.7321 0
M  V30 5842 H 526.528 -4.11052 -0.730938 0
M  V30 5843 H 527.918 -6.11845 2.77661 0
M  V30 5844 N 530.638 -0.59345 -1.46 0
M  V30 5845 C 531.886 -0.082988 -2.0193 0
M  V30 5846 C 532.207 1.28569 -1.46612 0
M  V30 5847 O 531.477 1.84629 -0.654909 0
M  V30 5848 H 530.057 -0.0276882 -0.746487 0
M  V30 5849 H 532.719 -0.771657 -1.78973 0
M  V30 5850 H 531.815 -0.022079 -3.12092 0
M  V30 5851 N 532.116 1.54067 -0.331816 0
M  V30 5852 C 533.344 2.05131 0.269996 0
M  V30 5853 C 533.759 1.20749 1.45138 0
M  V30 5854 O 533.116 0.240069 1.80914 0
M  V30 5855 C 533.167 3.54728 0.696456 0
M  V30 5856 O 532.888 4.35906 -0.43794 0
M  V30 5857 C 534.389 4.21916 1.36021 0
M  V30 5858 H 531.609 0.668807 0.0542042 0
M  V30 5859 H 534.153 1.98777 -0.4804 0
M  V30 5860 H 532.308 3.61342 1.39681 0
M  V30 5861 H 532.722 5.24404 -0.100334 0
M  V30 5862 H 534.196 5.28015 1.60947 0
M  V30 5863 H 534.673 3.73538 2.31011 0
M  V30 5864 H 535.279 4.19463 0.702212 0
M  V30 5865 N 533.594 0.0601682 1.57485 0
M  V30 5866 C 534.504 -0.926121 2.15546 0
M  V30 5867 C 535.52 -1.33532 1.11558 0
M  V30 5868 O 536.696 -1.4104 1.4377 0
M  V30 5869 C 533.761 -2.17952 2.69625 0
M  V30 5870 C 532.822 -1.82783 3.88444 0
M  V30 5871 C 532.055 -3.02148 4.39935 0
M  V30 5872 O 532.278 -4.15803 3.90466 0
M  V30 5873 O 531.212 -2.82639 5.31412 0
M  V30 5874 H 535.038 -0.462289 3.00161 0
M  V30 5875 H 532.623 -0.162246 1.48516 0
M  V30 5876 H 534.505 -2.91474 3.04337 0
M  V30 5877 H 533.18 -2.63456 1.88077 0
M  V30 5878 H 532.087 -1.06549 3.58606 0
M  V30 5879 H 533.42 -1.42072 4.7125 0
M  V30 5880 N 535.072 -1.5615 -0.213296 0
M  V30 5881 C 536.002 -1.96109 -1.26742 0
M  V30 5882 C 536.983 -0.830448 -1.48451 0
M  V30 5883 O 538.168 -1.09339 -1.60495 0
M  V30 5884 C 535.298 -2.28492 -2.61551 0
M  V30 5885 C 534.252 -3.44124 -2.54485 0
M  V30 5886 C 533.578 -3.62134 -3.93399 0
M  V30 5887 C 534.878 -4.78855 -2.08556 0
M  V30 5888 H 536.572 -2.84412 -0.935434 0
M  V30 5889 H 534.118 -1.36836 -0.44854 0
M  V30 5890 H 536.071 -2.55039 -3.3546 0
M  V30 5891 H 534.795 -1.37052 -2.96453 0
M  V30 5892 H 533.454 -3.17639 -1.83033 0
M  V30 5893 H 533.102 -2.68055 -4.25623 0
M  V30 5894 H 532.802 -4.39913 -3.89551 0
M  V30 5895 H 534.326 -3.91038 -4.68958 0
M  V30 5896 H 535.74 -5.04552 -2.72213 0
M  V30 5897 H 534.137 -5.59975 -2.1575 0
M  V30 5898 H 535.207 -4.73657 -1.03811 0
M  V30 5899 N 536.55 0.480323 -1.50102 0
M  V30 5900 C 537.48 1.58769 -1.71215 0
M  V30 5901 C 538.461 1.60583 -0.560997 0
M  V30 5902 O 539.646 1.76996 -0.799127 0
M  V30 5903 C 536.776 2.97148 -1.79778 0
M  V30 5904 C 535.73 3.10201 -2.94888 0
M  V30 5905 C 535.056 4.50137 -2.88584 0
M  V30 5906 C 536.356 2.88283 -4.35534 0
M  V30 5907 H 538.05 1.41354 -2.6393 0
M  V30 5908 H 535.596 0.678591 -1.27008 0
M  V30 5909 H 537.549 3.74536 -1.93133 0
M  V30 5910 H 536.273 3.15699 -0.836772 0
M  V30 5911 H 534.932 2.35244 -2.81169 0
M  V30 5912 H 534.58 4.65593 -1.90349 0
M  V30 5913 H 534.28 4.59808 -3.65856 0
M  V30 5914 H 535.804 5.29558 -3.03976 0
M  V30 5915 H 537.218 3.55427 -4.49827 0
M  V30 5916 H 535.615 3.09408 -5.14186 0
M  V30 5917 H 536.685 1.84219 -4.48544 0
M  V30 5918 N 538.028 1.39524 0.732853 0
M  V30 5919 C 539.268 1.383 1.50508 0
M  V30 5920 C 539.632 -0.0208271 1.91989 0
M  V30 5921 O 540.833 -0.158091 2.68335 0
M  V30 5922 C 539.104 2.33007 2.71003 0
M  V30 5923 S 540.663 2.49989 3.60626 0
M  V30 5924 H 537.481 0.490417 0.514794 0
M  V30 5925 H 540.083 1.75641 0.858524 0
M  V30 5926 H 538.787 3.33862 2.38672 0
M  V30 5927 H 538.318 1.96889 3.40585 0
M  V30 5928 H 540.333 1.7394 4.64714 0
M  V30 5929 N 539.506 -0.963266 1.24736 0
M  V30 5930 C 540.453 -2.05857 1.04363 0
M  V30 5931 C 541.423 -1.6604 -0.0444951 0
M  V30 5932 O 542.608 -1.90477 0.110999 0
M  V30 5933 C 539.748 -3.38745 0.659235 0
M  V30 5934 C 538.861 -3.9173 1.82131 0
M  V30 5935 C 537.996 -5.12906 1.38208 0
M  V30 5936 C 537.035 -5.58098 2.51382 0
M  V30 5937 N 536.172 -6.7049 2.08295 0
M  V30 5938 H 541.012 -2.22616 1.98107 0
M  V30 5939 H 538.549 -1.09103 0.986661 0
M  V30 5940 H 540.507 -4.15107 0.417371 0
M  V30 5941 H 539.137 -3.21898 -0.241201 0
M  V30 5942 H 538.189 -3.11966 2.17672 0
M  V30 5943 H 539.501 -4.21225 2.67153 0
M  V30 5944 H 538.655 -5.96657 1.09935 0
M  V30 5945 H 537.394 -4.85105 0.502456 0
M  V30 5946 H 536.399 -4.72917 2.80409 0
M  V30 5947 H 537.624 -5.87911 3.39909 0
M  V30 5948 H 535.57 -6.44416 1.22737 0
M  V30 5949 H 535.487 -6.99458 2.86869 0
M  V30 5950 H 536.755 -7.57672 1.83175 0
M  V30 5951 N 540.985 -1.06182 -1.16461 0
M  V30 5952 C 542.213 -0.798583 -1.90867 0
M  V30 5953 C 542.628 0.646921 -1.77371 0
M  V30 5954 O 541.985 1.44279 -1.11758 0
M  V30 5955 C 542.036 -1.18258 -3.4161 0
M  V30 5956 O 541.757 -2.57135 -3.54701 0
M  V30 5957 C 543.258 -0.946917 -4.33069 0
M  V30 5958 H 540.478 -0.289603 -0.605286 0
M  V30 5959 H 543.022 -1.41515 -1.47627 0
M  V30 5960 H 541.177 -0.610562 -3.82558 0
M  V30 5961 H 541.591 -2.72477 -4.4817 0
M  V30 5962 H 543.065 -1.26523 -5.37304 0
M  V30 5963 H 543.542 0.117406 -4.39043 0
M  V30 5964 H 544.148 -1.50326 -3.97847 0
M  V30 5965 N 542.463 1.3308 -0.844243 0
M  V30 5966 C 543.712 1.96868 -0.438833 0
M  V30 5967 C 544.025 1.67599 1.00846 0
M  V30 5968 O 545.231 2.25043 1.51881 0
M  V30 5969 C 543.687 3.5234 -0.73377 0
M  V30 5970 C 543.295 3.90481 -2.1961 0
M  V30 5971 C 545.039 4.22653 -0.395574 0
M  V30 5972 C 542.946 5.38954 -2.43481 0
M  V30 5973 H 541.876 0.736749 -0.160364 0
M  V30 5974 H 544.527 1.51623 -1.03358 0
M  V30 5975 H 542.909 3.95941 -0.068589 0
M  V30 5976 H 544.083 3.57922 -2.90221 0
M  V30 5977 H 542.398 3.33165 -2.4978 0
M  V30 5978 H 544.995 5.31848 -0.551477 0
M  V30 5979 H 545.338 4.11004 0.661921 0
M  V30 5980 H 545.871 3.84601 -1.01621 0
M  V30 5981 H 542.61 5.55612 -3.47816 0
M  V30 5982 H 542.13 5.72954 -1.77437 0
M  V30 5983 H 543.809 6.05907 -2.26905 0
M  V30 5984 N 543.941 0.601185 1.45683 0
M  V30 5985 C 545.187 0.0940202 2.02582 0
M  V30 5986 C 545.52 -1.26972 1.46941 0
M  V30 5987 O 544.795 -1.83613 0.641612 0
M  V30 5988 C 545.078 0.0481715 3.60068 0
M  V30 5989 C 544.931 1.44212 4.26055 0
M  V30 5990 C 546.25 -0.642975 4.35378 0
M  V30 5991 H 543.369 0.0356404 0.736138 0
M  V30 5992 H 546.011 0.771929 1.73612 0
M  V30 5993 H 544.161 -0.529128 3.8488 0
M  V30 5994 H 545.833 2.06601 4.12449 0
M  V30 5995 H 544.076 2.00465 3.84703 0
M  V30 5996 H 544.747 1.36234 5.34925 0
M  V30 5997 H 547.223 -0.152351 4.15821 0
M  V30 5998 H 546.099 -0.644141 5.45107 0
M  V30 5999 H 546.36 -1.70785 4.0778 0
M  V30 6000 N 545.419 -1.53889 0.339982 0
M  V30 6001 C 546.644 -2.05741 -0.261798 0
M  V30 6002 C 547.069 -1.21354 -1.43718 0
M  V30 6003 O 546.427 -0.22645 -1.7988 0
M  V30 6004 C 546.475 -3.54542 -0.658228 0
M  V30 6005 O 545.579 -3.7302 -1.75869 0
M  V30 6006 H 544.92 -0.662529 -0.0441672 0
M  V30 6007 H 547.45 -1.98568 0.493161 0
M  V30 6008 H 547.46 -3.9711 -0.936368 0
M  V30 6009 H 546.135 -4.15412 0.201358 0
M  V30 6010 H 544.712 -3.42355 -1.47809 0
M  V30 6011 N 546.897 -0.0685191 -1.57451 0
M  V30 6012 C 548.122 0.613919 -1.98106 0
M  V30 6013 C 548.547 1.62551 -0.946501 0
M  V30 6014 O 547.905 1.81085 0.0882824 0
M  V30 6015 C 547.953 1.26189 -3.378 0
M  V30 6016 O 547.057 2.37773 -3.36954 0
M  V30 6017 H 546.398 0.158163 -0.644888 0
M  V30 6018 H 548.928 -0.142063 -2.04106 0
M  V30 6019 H 548.938 1.60951 -3.74912 0
M  V30 6020 H 547.613 0.520625 -4.12629 0
M  V30 6021 H 546.19 2.04829 -3.11608 0
M  V30 6022 N 548.375 1.56261 0.205012 0
M  V30 6023 C 549.285 1.96944 1.27476 0
M  V30 6024 C 550.301 0.875636 1.50362 0
M  V30 6025 O 551.477 1.18058 1.6317 0
M  V30 6026 C 548.542 2.29219 2.60115 0
M  V30 6027 C 547.603 3.52255 2.45387 0
M  V30 6028 C 546.836 3.8298 3.71701 0
M  V30 6029 O 547.059 3.15138 4.75441 0
M  V30 6030 O 545.993 4.76435 3.67823 0
M  V30 6031 H 549.819 2.88144 0.959527 0
M  V30 6032 H 547.404 1.43686 0.409217 0
M  V30 6033 H 549.286 2.51098 3.3842 0
M  V30 6034 H 547.961 1.4119 2.91285 0
M  V30 6035 H 546.868 3.35635 1.65227 0
M  V30 6036 H 548.201 4.40719 2.19152 0
M  V30 6037 N 549.853 -0.472356 1.50355 0
M  V30 6038 C 551.099 -1.22634 1.6152 0
M  V30 6039 C 551.432 -1.91645 0.313995 0
M  V30 6040 O 550.707 -1.82059 -0.684446 0
M  V30 6041 C 550.99 -2.27099 2.7946 0
M  V30 6042 C 550.843 -1.62402 4.19459 0
M  V30 6043 C 552.162 -3.28421 2.92964 0
M  V30 6044 H 549.281 -0.444494 0.587873 0
M  V30 6045 H 551.923 -0.520321 1.82737 0
M  V30 6046 H 550.073 -2.87314 2.61501 0
M  V30 6047 H 551.745 -1.05793 4.49005 0
M  V30 6048 H 549.988 -0.927184 4.23776 0
M  V30 6049 H 550.659 -2.38309 4.97909 0
M  V30 6050 H 553.135 -2.78227 3.09401 0
M  V30 6051 H 552.011 -3.98845 3.77113 0
M  V30 6052 H 552.272 -3.92467 2.03525 0
M  V30 6053 N 551.331 -1.39911 -0.725443 0
M  V30 6054 C 552.556 -1.41137 -1.5197 0
M  V30 6055 C 552.981 -0.010262 -1.88097 0
M  V30 6056 O 552.339 0.979184 -1.52583 0
M  V30 6057 C 552.387 -2.2994 -2.77777 0
M  V30 6058 O 551.491 -1.73586 -3.74088 0
M  V30 6059 H 550.832 -0.480219 -0.458569 0
M  V30 6060 H 553.362 -1.84023 -0.894249 0
M  V30 6061 H 553.372 -2.44785 -3.26411 0
M  V30 6062 H 552.047 -3.31759 -2.50816 0
M  V30 6063 H 550.624 -1.68035 -3.32894 0
M  V30 6064 N 552.809 0.956637 -1.25245 0
M  V30 6065 C 554.057 1.69764 -1.09657 0
M  V30 6066 C 554.378 1.91583 0.363464 0
M  V30 6067 O 553.648 1.50149 1.25825 0
M  V30 6068 H 552.228 0.629097 -0.402798 0
M  V30 6069 H 554.89 1.15026 -1.57337 0
M  V30 6070 H 553.986 2.67769 -1.60331 0
M  V30 6071 N 554.287 1.06798 1.15896 0
M  V30 6072 C 555.234 0.683314 2.20453 0
M  V30 6073 C 556.204 -0.32255 1.62938 0
M  V30 6074 O 557.389 -0.210276 1.89638 0
M  V30 6075 C 554.529 0.0813266 3.45004 0
M  V30 6076 C 553.642 1.13799 4.16742 0
M  V30 6077 C 552.777 0.501598 5.28826 0
M  V30 6078 C 551.816 1.54144 5.92373 0
M  V30 6079 N 550.953 0.928038 6.9594 0
M  V30 6080 H 555.793 1.57932 2.52708 0
M  V30 6081 H 553.33 0.789544 1.24115 0
M  V30 6082 H 555.288 -0.285274 4.16224 0
M  V30 6083 H 553.918 -0.77806 3.13283 0
M  V30 6084 H 552.97 1.62223 3.44075 0
M  V30 6085 H 554.282 1.92664 4.60089 0
M  V30 6086 H 553.436 0.0823162 6.06644 0
M  V30 6087 H 552.175 -0.318883 4.86656 0
M  V30 6088 H 551.18 1.97056 5.13273 0
M  V30 6089 H 552.405 2.3641 6.36621 0
M  V30 6090 H 550.351 0.12836 6.55874 0
M  V30 6091 H 550.268 1.65401 7.37685 0
M  V30 6092 H 551.536 0.534071 7.77668 0
M  V30 6093 N 555.766 -1.3263 0.851289 0
M  V30 6094 C 556.714 -2.30882 0.282202 0
M  V30 6095 C 557.708 -1.58697 -0.592589 0
M  V30 6096 O 558.914 -1.73461 -0.480768 0
M  V30 6097 H 555.289 -0.748492 0.0725487 0
M  V30 6098 H 557.26 -2.76374 1.12516 0
M  V30 6099 C 556.009 -3.43828 -0.517449 0
M  V30 6100 H 555.332 -3.99532 0.146392 0
M  V30 6101 H 556.772 -4.1474 -0.88128 0
M  V30 6102 C 555.231 -2.90786 -1.70133 0
M  V30 6103 O 555.761 -2.88 -2.80034 0
M  V30 6104 N 553.967 -2.4723 -1.52728 0
M  V30 6105 H 553.514 -2.49695 -0.633257 0
M  V30 6106 H 553.472 -2.12094 -2.32085 0
M  V30 6107 N 557.244 -0.608902 -1.45362 0
M  V30 6108 C 558.521 -0.0365378 -1.95566 0
M  V30 6109 C 558.901 1.43169 -1.55131 0
M  V30 6110 O 558.249 2.1349 -0.814513 0
M  V30 6111 C 558.459 -0.236026 -3.48201 0
M  V30 6112 C 559.807 -0.117518 -4.24437 0
M  V30 6113 O 560.831 -0.166217 -3.55812 0
M  V30 6114 O 559.69 -0.00372127 -5.465 0
M  V30 6115 H 556.784 0.0349874 -0.82626 0
M  V30 6116 H 559.33 -0.679055 -1.55521 0
M  V30 6117 H 558.102 -1.25569 -3.70605 0
M  V30 6118 H 557.725 0.441691 -3.95139 0
M  V30 6119 N 558.722 1.53707 -0.348139 0
M  V30 6120 C 559.672 2.2193 0.522592 0
M  V30 6121 C 560.656 1.20831 1.06248 0
M  V30 6122 O 561.848 1.46357 0.995415 0
M  V30 6123 C 558.977 2.99904 1.6707 0
M  V30 6124 C 558.063 4.08364 1.14454 0
M  V30 6125 N 558.454 5.04656 0.339958 0
M  V30 6126 C 556.752 4.22757 1.421 0
M  V30 6127 C 557.453 5.81675 0.0538806 0
M  V30 6128 N 556.429 5.39739 0.646776 0
M  V30 6129 H 560.231 2.93733 -0.099135 0
M  V30 6130 H 557.745 1.61656 -0.15524 0
M  V30 6131 H 559.742 3.47284 2.30651 0
M  V30 6132 H 558.402 2.29629 2.29566 0
M  V30 6133 H 559.413 5.17896 -0.0193552 0
M  V30 6134 H 556.09 3.63704 2.05002 0
M  V30 6135 H 557.48 6.69256 -0.595443 0
M  V30 6136 N 560.2 0.0768682 1.57412 0
M  V30 6137 C 561.449 -0.590679 1.92857 0
M  V30 6138 C 561.762 -1.70461 0.959293 0
M  V30 6139 O 562.968 -2.43207 1.20675 0
M  V30 6140 C 561.424 -1.10204 3.42612 0
M  V30 6141 C 561.032 -0.0188447 4.47996 0
M  V30 6142 C 562.776 -1.74336 3.87049 0
M  V30 6143 C 560.683 -0.544536 5.88888 0
M  V30 6144 H 559.613 -0.224411 0.71983 0
M  V30 6145 H 562.264 0.149924 1.82887 0
M  V30 6146 H 560.646 -1.89577 3.47673 0
M  V30 6147 H 561.82 0.755936 4.54557 0
M  V30 6148 H 560.135 0.526555 4.13057 0
M  V30 6149 H 562.732 -2.14708 4.89699 0
M  V30 6150 H 563.075 -2.60537 3.24694 0
M  V30 6151 H 563.608 -1.01577 3.84613 0
M  V30 6152 H 560.347 0.280426 6.549 0
M  V30 6153 H 559.867 -1.28673 5.85836 0
M  V30 6154 H 561.546 -1.01933 6.3892 0
M  V30 6155 N 561.678 -1.56367 -0.196722 0
M  V30 6156 C 562.924 -1.81698 -0.914182 0
M  V30 6157 C 563.279 -0.65367 -1.80956 0
M  V30 6158 O 562.572 0.351224 -1.88353 0
M  V30 6159 C 562.766 -3.10663 -1.767 0
M  V30 6160 C 562.595 -4.39428 -0.955689 0
M  V30 6161 C 561.365 -5.01221 -0.64076 0
M  V30 6162 C 563.563 -5.1337 -0.309165 0
M  V30 6163 N 561.545 -6.13608 0.189358 0
M  V30 6164 C 562.916 -6.18815 0.383225 0
M  V30 6165 C 564.971 -4.97393 -0.224726 0
M  V30 6166 C 563.674 -7.10015 1.15201 0
M  V30 6167 C 565.7 -5.89014 0.530658 0
M  V30 6168 C 565.062 -6.93903 1.2115 0
M  V30 6169 H 561.161 -0.716203 -0.31397 0
M  V30 6170 H 563.745 -1.93838 -0.18304 0
M  V30 6171 H 561.916 -2.99762 -2.46976 0
M  V30 6172 H 563.648 -3.24088 -2.42382 0
M  V30 6173 H 560.403 -4.63669 -0.96479 0
M  V30 6174 H 560.827 -6.74389 0.593979 0
M  V30 6175 H 565.469 -4.16331 -0.736754 0
M  V30 6176 H 563.187 -7.9054 1.67547 0
M  V30 6177 H 566.773 -5.78726 0.597326 0
M  V30 6178 H 565.653 -7.63576 1.78665 0
M  V30 6179 N 563.156 0.464375 -1.50603 0
M  V30 6180 C 564.104 1.58224 -1.70493 0
M  V30 6181 C 565.098 1.59492 -0.570836 0
M  V30 6182 O 566.304 1.63561 -0.751517 0
M  V30 6183 H 562.679 0.525161 -0.538247 0
M  V30 6184 H 564.65 1.38613 -2.64252 0
M  V30 6185 C 563.399 2.96113 -1.82243 0
M  V30 6186 H 562.722 2.95858 -2.68901 0
M  V30 6187 H 564.162 3.73769 -2.00182 0
M  V30 6188 C 562.621 3.31946 -0.575628 0
M  V30 6189 O 563.151 4.00708 0.282152 0
M  V30 6190 N 561.357 2.87436 -0.427665 0
M  V30 6191 H 560.904 2.31652 -1.12674 0
M  V30 6192 H 560.862 3.11776 0.405379 0
M  V30 6193 N 564.634 1.40294 0.718013 0
M  V30 6194 C 565.544 1.42678 1.86226 0
M  V30 6195 C 566.56 0.319655 1.71039 0
M  V30 6196 O 567.736 0.563852 1.93346 0
M  V30 6197 C 564.801 1.2852 3.21999 0
M  V30 6198 C 563.862 2.49354 3.49458 0
M  V30 6199 C 563.095 2.35863 4.78753 0
M  V30 6200 O 563.318 1.37114 5.53675 0
M  V30 6201 O 562.252 3.25189 5.06494 0
M  V30 6202 H 566.078 2.39167 1.87171 0
M  V30 6203 H 563.663 1.2159 0.868112 0
M  V30 6204 H 565.545 1.22824 4.03103 0
M  V30 6205 H 564.22 0.351359 3.21787 0
M  V30 6206 H 563.127 2.60628 2.68373 0
M  V30 6207 H 564.46 3.41491 3.54464 0
M  V30 6208 N 566.112 -0.949982 1.2575 0
M  V30 6209 C 567.523 -1.50989 1.09815 0
M  V30 6210 C 567.874 -1.93497 -0.324556 0
M  V30 6211 O 566.999 -1.79068 -1.21506 0
M  V30 6212 C 567.594 -2.74394 1.98729 0
M  V30 6213 C 566.153 -3.26682 1.86965 0
M  V30 6214 C 565.3 -1.99498 1.92603 0
M  V30 6215 H 568.251 -0.766387 1.38968 0
M  V30 6216 H 568.272 -3.48383 1.53001 0
M  V30 6217 H 567.784 -2.43425 3.02268 0
M  V30 6218 H 565.885 -3.62461 0.863279 0
M  V30 6219 H 565.998 -3.94383 2.72027 0
M  V30 6220 H 564.362 -2.15005 1.36546 0
M  V30 6221 H 565.145 -1.70871 2.97755 0
M  V30 6222 N 567.59 -1.07411 -1.15328 0
M  V30 6223 C 568.52 -0.716472 -2.22236 0
M  V30 6224 C 569.501 0.296373 -1.67498 0
M  V30 6225 O 570.686 0.168989 -1.93463 0
M  V30 6226 C 567.816 -0.114142 -3.47112 0
M  V30 6227 C 566.77 -1.05421 -4.14814 0
M  V30 6228 C 566.096 -0.314604 -5.33774 0
M  V30 6229 C 567.396 -2.38808 -4.64508 0
M  V30 6230 H 569.09 -1.61029 -2.52408 0
M  V30 6231 H 566.636 -0.775702 -1.21321 0
M  V30 6232 H 568.589 0.148001 -4.2114 0
M  V30 6233 H 567.313 0.814755 -3.16274 0
M  V30 6234 H 565.972 -1.30128 -3.42728 0
M  V30 6235 H 565.62 0.617772 -4.99192 0
M  V30 6236 H 565.32 -0.941209 -5.80013 0
M  V30 6237 H 566.844 -0.0602747 -6.1057 0
M  V30 6238 H 568.258 -2.18424 -5.3006 0
M  V30 6239 H 566.655 -2.97069 -5.21412 0
M  V30 6240 H 567.725 -3.01067 -3.80114 0
M  V30 6241 N 569.068 1.32177 -0.85831 0
M  V30 6242 C 569.978 2.32561 -0.308606 0
M  V30 6243 C 570.994 1.64209 0.575462 0
M  V30 6244 O 572.17 1.95719 0.474961 0
M  V30 6245 C 569.235 3.43207 0.490909 0
M  V30 6246 C 568.296 4.27243 -0.419733 0
M  V30 6247 C 567.529 5.32605 0.341719 0
M  V30 6248 O 567.752 5.48332 1.57125 0
M  V30 6249 O 566.686 6.0118 -0.294379 0
M  V30 6250 H 570.512 2.81477 -1.14037 0
M  V30 6251 H 568.097 1.35866 -0.621349 0
M  V30 6252 H 569.979 4.10677 0.944574 0
M  V30 6253 H 568.654 2.96474 1.29941 0
M  V30 6254 H 567.561 3.62569 -0.921652 0
M  V30 6255 H 568.894 4.7751 -1.19352 0
M  V30 6256 N 570.547 0.616602 1.45037 0
M  V30 6257 C 571.794 0.115331 2.02171 0
M  V30 6258 C 572.122 -1.25748 1.48383 0
M  V30 6259 O 571.377 -1.84511 0.652229 0
M  V30 6260 C 571.676 0.0356829 3.57382 0
M  V30 6261 C 571.342 1.34535 4.30362 0
M  V30 6262 C 570.004 1.70408 4.50016 0
M  V30 6263 C 572.356 2.21049 4.72003 0
M  V30 6264 C 569.684 2.92529 5.0857 0
M  V30 6265 C 572.036 3.42427 5.31908 0
M  V30 6266 C 570.7 3.78541 5.49784 0
M  V30 6267 H 569.97 0.0422024 0.739797 0
M  V30 6268 H 572.617 0.80002 1.73988 0
M  V30 6269 H 570.922 -0.732314 3.84895 0
M  V30 6270 H 572.619 -0.368463 3.99304 0
M  V30 6271 H 569.209 1.05615 4.15383 0
M  V30 6272 H 573.393 1.94632 4.56544 0
M  V30 6273 H 568.649 3.20605 5.20598 0
M  V30 6274 H 572.823 4.09709 5.63127 0
M  V30 6275 H 570.45 4.73255 5.94923 0
M  V30 6276 N 572.025 -1.5352 0.356285 0
M  V30 6277 C 573.302 -1.93405 -0.292223 0
M  V30 6278 C 573.682 -1.28901 -1.67176 0
M  V30 6279 O 573.03 -0.444632 -2.24132 0
M  V30 6280 C 573.24 -3.47223 -0.35175 0
M  V30 6281 C 574.588 -4.20389 -0.596534 0
M  V30 6282 O 575.612 -3.53554 -0.433344 0
M  V30 6283 O 574.471 -5.3881 -0.913589 0
M  V30 6284 H 571.565 -0.808666 -0.173172 0
M  V30 6285 H 574.111 -1.64713 0.408391 0
M  V30 6286 H 572.883 -3.86423 0.615841 0
M  V30 6287 H 572.506 -3.8212 -1.09864 0
M  V30 6288 N 573.503 -0.0852151 -1.57369 0
M  V30 6289 C 574.752 0.580443 -1.93168 0
M  V30 6290 C 575.065 1.6995 -0.968319 0
M  V30 6291 O 576.271 2.42564 -1.21963 0
M  V30 6292 C 574.727 1.08386 -3.43192 0
M  V30 6293 C 574.335 -0.00491388 -4.48 0
M  V30 6294 C 576.079 1.72281 -3.87968 0
M  V30 6295 C 573.986 0.513299 -5.89168 0
M  V30 6296 H 572.916 0.22059 -0.72101 0
M  V30 6297 H 575.567 -0.159621 -1.82804 0
M  V30 6298 H 573.949 1.8773 -3.48674 0
M  V30 6299 H 575.123 -0.780032 -4.5415 0
M  V30 6300 H 573.438 -0.548453 -4.12772 0
M  V30 6301 H 576.035 2.12108 -4.9083 0
M  V30 6302 H 576.378 2.58811 -3.26071 0
M  V30 6303 H 576.911 0.995359 -3.85146 0
M  V30 6304 H 573.65 -0.315153 -6.54742 0
M  V30 6305 H 573.17 1.25564 -5.8651 0
M  V30 6306 H 574.849 0.985433 -6.39451 0
M  V30 6307 N 574.981 1.5647 0.188427 0
M  V30 6308 C 575.929 1.95971 1.25293 0
M  V30 6309 C 576.923 0.846047 1.4676 0
M  V30 6310 O 578.129 1.03109 1.47542 0
M  V30 6311 H 574.504 0.623253 0.420784 0
M  V30 6312 H 576.475 2.84731 0.892792 0
M  V30 6313 C 575.224 2.32116 2.58877 0
M  V30 6314 H 574.547 3.17341 2.43176 0
M  V30 6315 H 575.987 2.63613 3.3209 0
M  V30 6316 C 574.446 1.15823 3.16365 0
M  V30 6317 O 574.976 0.436785 3.99318 0
M  V30 6318 N 573.182 0.933278 2.75206 0
M  V30 6319 H 572.729 1.52169 2.07852 0
M  V30 6320 H 572.687 0.156976 3.14008 0
M  V30 6321 N 576.459 -0.456382 1.50847 0
M  V30 6322 C 577.708 -1.2042 1.61808 0
M  V30 6323 C 578.021 -1.9278 0.330932 0
M  V30 6324 O 579.227 -2.69612 0.319643 0
M  V30 6325 C 577.683 -2.18891 2.85683 0
M  V30 6326 C 577.291 -1.52267 4.2133 0
M  V30 6327 C 579.035 -2.94224 3.05994 0
M  V30 6328 C 576.942 -2.4911 5.36375 0
M  V30 6329 H 575.872 -0.453177 0.602616 0
M  V30 6330 H 578.523 -0.473144 1.77295 0
M  V30 6331 H 576.905 -2.95351 2.63787 0
M  V30 6332 H 578.079 -0.814949 4.53536 0
M  V30 6333 H 576.394 -0.891594 4.06743 0
M  V30 6334 H 578.991 -3.66732 3.89117 0
M  V30 6335 H 579.334 -3.54469 2.18306 0
M  V30 6336 H 579.867 -2.24874 3.28141 0
M  V30 6337 H 576.606 -1.93582 6.26264 0
M  V30 6338 H 576.126 -3.17991 5.08569 0
M  V30 6339 H 577.805 -3.10637 5.67551 0
M  V30 6340 N 577.937 -1.40673 -0.710563 0
M  V30 6341 C 579.177 -1.40677 -1.48288 0
M  V30 6342 C 579.541 -0.0097193 -1.91998 0
M  V30 6343 O 580.742 0.115381 -2.68552 0
M  V30 6344 C 579.013 -2.37289 -2.67262 0
M  V30 6345 S 580.572 -2.55694 -3.56603 0
M  V30 6346 H 577.39 -0.498545 -0.506926 0
M  V30 6347 H 579.992 -1.76984 -0.830472 0
M  V30 6348 H 578.696 -3.37617 -2.3333 0
M  V30 6349 H 578.227 -2.02282 -3.3741 0
M  V30 6350 H 580.242 -1.81311 -4.61888 0
M  V30 6351 N 579.415 0.9433 -1.26252 0
M  V30 6352 C 580.692 1.66639 -1.02424 0
M  V30 6353 C 581.072 2.06335 0.446006 0
M  V30 6354 O 580.42 1.78551 1.42589 0
M  V30 6355 C 580.63 2.88019 -1.97094 0
M  V30 6356 C 581.978 3.59718 -2.25584 0
M  V30 6357 O 583.002 2.9812 -1.94943 0
M  V30 6358 O 581.861 4.7066 -2.77743 0
M  V30 6359 H 578.955 0.729643 -0.389294 0
M  V30 6360 H 581.501 0.995218 -1.37454 0
M  V30 6361 H 580.273 2.5556 -2.96319 0
M  V30 6362 H 579.896 3.62863 -1.62532 0
M  V30 6363 N 580.893 1.08022 1.14757 0
M  V30 6364 C 581.823 0.728248 2.21853 0
M  V30 6365 C 582.804 -0.287486 1.67653 0
M  V30 6366 O 583.989 -0.158727 1.9355 0
M  V30 6367 C 581.119 0.132549 3.47047 0
M  V30 6368 C 580.073 1.07619 4.14249 0
M  V30 6369 C 579.399 0.342907 5.33599 0
M  V30 6370 C 580.699 2.41268 4.63235 0
M  V30 6371 H 582.393 1.62365 2.51551 0
M  V30 6372 H 579.939 0.782125 1.20908 0
M  V30 6373 H 581.892 -0.125665 4.21213 0
M  V30 6374 H 580.616 -0.797971 3.16702 0
M  V30 6375 H 579.275 1.31944 3.42033 0
M  V30 6376 H 578.923 -0.59129 4.99513 0
M  V30 6377 H 578.623 0.971955 5.79506 0
M  V30 6378 H 580.147 0.0926538 6.1053 0
M  V30 6379 H 581.561 2.21232 5.28894 0
M  V30 6380 H 579.958 2.9983 5.19829 0
M  V30 6381 H 581.028 3.03079 3.78512 0
M  V30 6382 N 582.371 -1.3172 0.865308 0
M  V30 6383 C 583.782 -1.79104 0.527126 0
M  V30 6384 C 584.133 -1.7135 -0.955695 0
M  V30 6385 O 583.258 -1.27845 -1.74598 0
M  V30 6386 C 583.853 -3.25207 0.950061 0
M  V30 6387 C 582.412 -3.70504 0.663611 0
M  V30 6388 C 581.559 -2.52605 1.14395 0
M  V30 6389 H 584.51 -1.18868 1.05148 0
M  V30 6390 H 584.531 -3.79535 0.270805 0
M  V30 6391 H 584.043 -3.30818 2.02931 0
M  V30 6392 H 582.144 -3.70398 -0.404474 0
M  V30 6393 H 582.257 -4.62845 1.23737 0
M  V30 6394 H 580.621 -2.4838 0.563859 0
M  V30 6395 H 581.404 -2.60964 2.23053 0
M  V30 6396 N 583.85 -0.624285 -1.44708 0
M  V30 6397 C 585.266 -0.289322 -1.56956 0
M  V30 6398 C 585.466 1.20773 -1.61295 0
M  V30 6399 O 584.522 1.9915 -1.55227 0
M  V30 6400 C 585.835 -0.975215 -2.84447 0
M  V30 6401 C 587.383 -0.952709 -2.98148 0
M  V30 6402 C 587.858 -1.61893 -4.28433 0
M  V30 6403 N 589.349 -1.5852 -4.35231 0
M  V30 6404 C 590.084 -2.06969 -5.34744 0
M  V30 6405 N 589.58 -2.63579 -6.40701 0
M  V30 6406 N 591.373 -1.97638 -5.26209 0
M  V30 6407 H 583.524 -1.59612 -1.40135 0
M  V30 6408 H 585.787 -0.669592 -0.671081 0
M  V30 6409 H 585.493 -2.02999 -2.87201 0
M  V30 6410 H 585.367 -0.508749 -3.73753 0
M  V30 6411 H 587.754 0.093568 -2.94952 0
M  V30 6412 H 587.835 -1.4576 -2.10209 0
M  V30 6413 H 587.479 -2.66463 -4.32389 0
M  V30 6414 H 587.409 -1.08893 -5.15218 0
M  V30 6415 H 589.899 -1.17183 -3.59272 0
M  V30 6416 H 590.213 -2.98298 -7.12908 0
M  V30 6417 H 588.558 -2.67626 -6.41406 0
M  V30 6418 H 591.749 -1.5314 -4.42341 0
M  V30 6419 H 591.922 -2.35708 -6.03611 0
M  V30 6420 N 585.328 1.53329 -0.364422 0
M  V30 6421 C 586.261 2.22052 0.526145 0
M  V30 6422 C 587.239 1.21203 1.08391 0
M  V30 6423 O 588.423 1.50101 1.14026 0
M  V30 6424 C 585.55 2.91432 1.72583 0
M  V30 6425 C 584.596 4.06345 1.29562 0
M  V30 6426 S 585.429 5.34671 0.297885 0
M  V30 6427 C 586.585 6.07563 1.50392 0
M  V30 6428 H 586.818 2.97244 -0.0575055 0
M  V30 6429 H 584.351 1.53684 -0.148525 0
M  V30 6430 H 586.309 3.3202 2.41398 0
M  V30 6431 H 584.97 2.15966 2.28073 0
M  V30 6432 H 584.163 4.53901 2.19067 0
M  V30 6433 H 583.765 3.67642 0.686696 0
M  V30 6434 H 586.057 6.32224 2.43513 0
M  V30 6435 H 587 6.99973 1.06977 0
M  V30 6436 H 587.408 5.37994 1.70945 0
M  V30 6437 N 586.806 0.0935595 1.57322 0
M  V30 6438 C 587.769 -0.851426 2.12799 0
M  V30 6439 C 588.769 -1.21187 1.0569 0
M  V30 6440 O 589.959 -1.14156 1.31583 0
M  V30 6441 C 587.091 -2.14779 2.64731 0
M  V30 6442 H 588.284 -0.369733 2.97612 0
M  V30 6443 H 585.837 -0.155417 1.55525 0
M  V30 6444 H 586.572 -2.67437 1.83434 0
M  V30 6445 H 586.357 -1.89907 3.43042 0
M  V30 6446 H 587.847 -2.82383 3.07651 0
M  V30 6447 N 588.284 -1.56567 -0.180126 0
M  V30 6448 C 589.7 -1.50488 -0.531559 0
M  V30 6449 C 589.9 -0.796267 -1.851 0
M  V30 6450 O 588.956 -0.352978 -2.50021 0
M  V30 6451 C 590.269 -2.95201 -0.572456 0
M  V30 6452 C 591.817 -3.05957 -0.660264 0
M  V30 6453 C 592.292 -4.5211 -0.732135 0
M  V30 6454 N 593.783 -4.56322 -0.795262 0
M  V30 6455 C 594.518 -5.66742 -0.871296 0
M  V30 6456 N 594.014 -6.86815 -0.908708 0
M  V30 6457 N 595.807 -5.54691 -0.909639 0
M  V30 6458 H 587.958 -2.01045 0.685165 0
M  V30 6459 H 590.221 -0.915536 0.245962 0
M  V30 6460 H 589.927 -3.50165 0.328208 0
M  V30 6461 H 589.801 -3.49369 -1.422 0
M  V30 6462 H 592.188 -2.51032 -1.55136 0
M  V30 6463 H 592.269 -2.54888 0.215783 0
M  V30 6464 H 591.913 -5.07664 0.154664 0
M  V30 6465 H 591.843 -5.00926 -1.6242 0
M  V30 6466 H 594.334 -3.69868 -0.77499 0
M  V30 6467 H 594.647 -7.66718 -0.967654 0
M  V30 6468 H 592.992 -6.89443 -0.877132 0
M  V30 6469 H 596.183 -4.59804 -0.877353 0
M  V30 6470 H 596.356 -6.40768 -0.965434 0
M  V30 6471 N 589.762 0.448376 -1.51087 0
M  V30 6472 C 590.692 1.55102 -1.74544 0
M  V30 6473 C 591.673 1.59357 -0.594932 0
M  V30 6474 O 592.858 1.75261 -0.836491 0
M  V30 6475 C 589.988 2.93268 -1.86041 0
M  V30 6476 C 588.942 3.03877 -3.01402 0
M  V30 6477 C 588.268 4.43914 -2.98068 0
M  V30 6478 C 589.568 2.7898 -4.41551 0
M  V30 6479 H 591.262 1.35724 -2.66869 0
M  V30 6480 H 588.808 0.651498 -1.28419 0
M  V30 6481 H 590.761 3.70356 -2.01034 0
M  V30 6482 H 589.485 3.13853 -0.903548 0
M  V30 6483 H 588.144 2.29227 -2.86096 0
M  V30 6484 H 587.792 4.6145 -2.00182 0
M  V30 6485 H 587.492 4.51944 -3.75527 0
M  V30 6486 H 589.016 5.22991 -3.1514 0
M  V30 6487 H 590.43 3.45805 -4.57265 0
M  V30 6488 H 588.827 2.98431 -5.20633 0
M  V30 6489 H 589.897 1.74663 -4.5235 0
M  V30 6490 N 591.24 1.41047 0.703093 0
M  V30 6491 C 592.48 1.41461 1.4754 0
M  V30 6492 C 592.844 0.0199013 1.9199 0
M  V30 6493 O 594.045 -0.101138 2.6861 0
M  V30 6494 C 592.316 2.38703 2.66 0
M  V30 6495 S 593.875 2.57582 3.55242 0
M  V30 6496 H 590.693 0.501226 0.504275 0
M  V30 6497 H 593.295 1.77422 0.821074 0
M  V30 6498 H 591.999 3.3885 2.31536 0
M  V30 6499 H 591.53 2.04069 3.36333 0
M  V30 6500 H 593.545 1.83758 4.6092 0
M  V30 6501 N 592.718 -0.936591 1.26751 0
M  V30 6502 C 593.965 -1.68331 1.12566 0
M  V30 6503 C 594.293 -1.91677 -0.330168 0
M  V30 6504 O 593.548 -1.49859 -1.2586 0
M  V30 6505 C 593.847 -3.06099 1.84494 0
M  V30 6506 C 593.513 -3.02493 3.34378 0
M  V30 6507 C 592.175 -3.01217 3.75262 0
M  V30 6508 C 594.527 -2.94453 4.30055 0
M  V30 6509 C 591.855 -2.89672 5.10203 0
M  V30 6510 C 594.207 -2.84449 5.65041 0
M  V30 6511 C 592.871 -2.81518 6.0523 0
M  V30 6512 H 592.141 -0.615965 0.411907 0
M  V30 6513 H 594.788 -1.09292 1.5725 0
M  V30 6514 H 593.093 -3.6879 1.32292 0
M  V30 6515 H 594.79 -3.62733 1.70955 0
M  V30 6516 H 591.38 -3.04269 3.01858 0
M  V30 6517 H 595.564 -2.94544 3.99447 0
M  V30 6518 H 590.82 -2.85783 5.40498 0
M  V30 6519 H 594.994 -2.77192 6.38856 0
M  V30 6520 H 592.621 -2.72329 7.09747 0
M  V30 6521 N 594.196 -1.08629 -1.14182 0
M  V30 6522 C 595.159 -0.722027 -2.1753 0
M  V30 6523 C 596.159 0.244305 -1.58933 0
M  V30 6524 O 597.349 0.0235545 -1.74184 0
M  V30 6525 C 594.481 -0.0663966 -3.40835 0
M  V30 6526 H 595.674 -1.63719 -2.51269 0
M  V30 6527 H 593.227 -0.884442 -1.28869 0
M  V30 6528 H 593.962 0.860389 -3.12678 0
M  V30 6529 H 593.747 -0.761598 -3.84632 0
M  V30 6530 H 595.237 0.173346 -4.1724 0
M  V30 6531 N 595.674 1.31259 -0.872281 0
M  V30 6532 C 596.92 1.96913 -0.485083 0
M  V30 6533 C 597.253 1.68774 0.960667 0
M  V30 6534 O 596.528 0.985495 1.67685 0
M  V30 6535 C 596.811 3.52299 -0.745502 0
M  V30 6536 C 596.664 3.90002 -2.24095 0
M  V30 6537 C 597.983 4.39582 -0.213516 0
M  V30 6538 H 595.102 0.715252 -0.177716 0
M  V30 6539 H 597.744 1.55347 -1.09395 0
M  V30 6540 H 595.894 3.87835 -0.227276 0
M  V30 6541 H 597.566 3.64555 -2.82661 0
M  V30 6542 H 595.809 3.38526 -2.71261 0
M  V30 6543 H 596.48 4.98352 -2.37381 0
M  V30 6544 H 598.956 4.10882 -0.656902 0
M  V30 6545 H 597.832 5.47251 -0.42516 0
M  V30 6546 H 598.093 4.33158 0.884666 0
M  V30 6547 N 597.152 0.631951 1.44375 0
M  V30 6548 C 598.382 0.143658 2.061 0
M  V30 6549 C 598.79 -1.18733 1.47306 0
M  V30 6550 O 598.133 -1.73943 0.590724 0
M  V30 6551 C 598.195 -0.0446102 3.59472 0
M  V30 6552 C 597.859 1.20835 4.40736 0
M  V30 6553 C 598.856 2.13224 4.74164 0
M  V30 6554 C 596.541 1.44399 4.81097 0
M  V30 6555 C 598.535 3.27487 5.46838 0
M  V30 6556 C 596.222 2.58959 5.53519 0
M  V30 6557 C 597.22 3.50329 5.86309 0
M  V30 6558 O 596.908 4.62891 6.57257 0
M  V30 6559 H 596.64 0.0772939 0.671567 0
M  V30 6560 H 599.194 0.866677 1.8622 0
M  V30 6561 H 597.424 -0.822783 3.77845 0
M  V30 6562 H 599.113 -0.487561 4.02961 0
M  V30 6563 H 599.879 1.96253 4.4352 0
M  V30 6564 H 595.758 0.741696 4.54994 0
M  V30 6565 H 599.302 3.98826 5.72349 0
M  V30 6566 H 595.199 2.75873 5.83579 0
M  V30 6567 H 595.967 4.61883 6.75726 0
M  V30 6568 N 598.631 -1.53133 0.372548 0
M  V30 6569 C 599.594 -2.24569 -0.458389 0
M  V30 6570 C 600.594 -1.25603 -1.00402 0
M  V30 6571 O 601.784 -1.49827 -0.888672 0
M  V30 6572 C 598.916 -2.98783 -1.6414 0
M  V30 6573 H 600.109 -2.99436 0.166799 0
M  V30 6574 H 597.662 -1.55805 0.124357 0
M  V30 6575 H 598.397 -2.28176 -2.30448 0
M  V30 6576 H 598.182 -3.71404 -1.25704 0
M  V30 6577 H 599.672 -3.53068 -2.23008 0
M  V30 6578 N 600.109 -0.101901 -1.5727 0
M  V30 6579 C 601.355 0.561027 -1.94885 0
M  V30 6580 C 601.688 1.6741 -0.984258 0
M  V30 6581 O 600.963 1.94491 -0.0184767 0
M  V30 6582 C 601.246 1.10982 -3.42571 0
M  V30 6583 C 601.099 0.00133418 -4.498 0
M  V30 6584 C 602.418 2.00608 -3.9172 0
M  V30 6585 H 599.537 0.202467 -0.708644 0
M  V30 6586 H 602.179 -0.173992 -1.89202 0
M  V30 6587 H 600.329 1.73621 -3.47546 0
M  V30 6588 H 602.001 -0.63322 -4.56933 0
M  V30 6589 H 600.244 -0.664143 -4.28686 0
M  V30 6590 H 600.915 0.426253 -5.50352 0
M  V30 6591 H 603.391 1.47864 -3.88941 0
M  V30 6592 H 602.267 2.3593 -4.95609 0
M  V30 6593 H 602.528 2.92608 -3.3141 0
M  V30 6594 N 601.587 1.56661 0.17182 0
M  V30 6595 C 602.517 1.99401 1.21498 0
M  V30 6596 C 603.498 0.869516 1.46197 0
M  V30 6597 O 604.683 1.13556 1.57539 0
M  V30 6598 C 601.813 2.35346 2.55401 0
M  V30 6599 C 600.767 3.5075 2.45272 0
M  V30 6600 C 600.093 3.72437 3.8366 0
M  V30 6601 C 601.393 4.84216 1.95787 0
M  V30 6602 H 603.087 2.86792 0.859699 0
M  V30 6603 H 600.633 1.37977 0.412103 0
M  V30 6604 H 602.586 2.63843 3.2858 0
M  V30 6605 H 601.31 1.44864 2.92715 0
M  V30 6606 H 599.969 3.2238 1.74547 0
M  V30 6607 H 599.617 2.79246 4.18367 0
M  V30 6608 H 599.317 4.50087 3.77751 0
M  V30 6609 H 600.841 4.03334 4.58426 0
M  V30 6610 H 602.255 5.11592 2.5874 0
M  V30 6611 H 600.652 5.65498 2.00827 0
M  V30 6612 H 601.722 4.76243 0.912159 0
M  V30 6613 N 603.065 -0.440357 1.51323 0
M  V30 6614 C 604.342 -1.20109 1.5438 0
M  V30 6615 C 604.722 -2.08866 0.306303 0
M  V30 6616 O 604.07 -2.1723 -0.708773 0
M  V30 6617 C 604.28 -2.00555 2.8562 0
M  V30 6618 C 605.628 -2.577 3.37455 0
M  V30 6619 O 606.652 -2.10769 2.8715 0
M  V30 6620 O 605.511 -3.43289 4.25224 0
M  V30 6621 H 602.605 -0.546668 0.620551 0
M  V30 6622 H 605.151 -0.449672 1.63634 0
M  V30 6623 H 603.923 -1.35346 3.67147 0
M  V30 6624 H 603.546 -2.82768 2.79514 0
M  V30 6625 N 604.543 -1.41418 -0.695603 0
M  V30 6626 C 605.49 -1.43264 -1.80954 0
M  V30 6627 C 606.46 -0.287016 -1.63601 0
M  V30 6628 O 607.645 -0.488054 -1.84452 0
M  V30 6629 C 604.785 -1.32054 -3.18835 0
M  V30 6630 C 603.898 -2.56485 -3.4762 0
M  V30 6631 C 603.033 -2.3757 -4.75115 0
M  V30 6632 C 602.072 -3.57477 -4.96867 0
M  V30 6633 N 601.209 -3.37632 -6.15588 0
M  V30 6634 H 606.049 -2.38467 -1.78711 0
M  V30 6635 H 603.586 -1.18415 -0.872715 0
M  V30 6636 H 605.544 -1.23558 -3.98484 0
M  V30 6637 H 604.174 -0.404592 -3.20254 0
M  V30 6638 H 603.226 -2.75432 -2.62376 0
M  V30 6639 H 604.538 -3.45678 -3.59594 0
M  V30 6640 H 603.692 -2.2654 -5.62818 0
M  V30 6641 H 602.431 -1.45834 -4.65386 0
M  V30 6642 H 601.436 -3.68961 -4.07612 0
M  V30 6643 H 602.661 -4.50167 -5.08455 0
M  V30 6644 H 600.607 -2.48596 -6.07072 0
M  V30 6645 H 600.524 -4.20401 -6.2833 0
M  V30 6646 H 601.792 -3.30375 -7.06026 0
M  V30 6647 N 606.021 0.929856 -1.27246 0
M  V30 6648 C 607.267 1.6798 -1.13625 0
M  V30 6649 C 607.6 1.91586 0.317589 0
M  V30 6650 O 606.875 1.50467 1.23247 0
M  V30 6651 C 607.158 3.04766 -1.91806 0
M  V30 6652 C 607.011 2.88415 -3.45162 0
M  V30 6653 C 608.33 4.05063 -1.72082 0
M  V30 6654 H 605.449 0.609632 -0.414147 0
M  V30 6655 H 608.091 1.0792 -1.56376 0
M  V30 6656 H 606.241 3.56034 -1.55474 0
M  V30 6657 H 607.913 2.44282 -3.91311 0
M  V30 6658 H 606.156 2.23802 -3.71611 0
M  V30 6659 H 606.827 3.85482 -3.95105 0
M  V30 6660 H 609.303 3.62798 -2.03757 0
M  V30 6661 H 608.179 4.98765 -2.29182 0
M  V30 6662 H 608.44 4.37021 -0.668206 0
M  V30 6663 N 607.499 1.09233 1.13605 0
M  V30 6664 C 608.446 0.729921 2.18954 0
M  V30 6665 C 609.416 -0.287916 1.63586 0
M  V30 6666 O 610.601 -0.170003 1.90041 0
M  V30 6667 C 607.741 0.154489 3.44754 0
M  V30 6668 C 606.854 1.22613 4.14234 0
M  V30 6669 C 605.989 0.613657 5.27644 0
M  V30 6670 C 605.028 1.66674 5.8897 0
M  V30 6671 N 604.165 1.07545 6.93814 0
M  V30 6672 H 609.005 1.63257 2.49302 0
M  V30 6673 H 606.542 0.815693 1.22413 0
M  V30 6674 H 608.5 -0.196923 4.16735 0
M  V30 6675 H 607.13 -0.711433 3.14863 0
M  V30 6676 H 606.182 1.69485 3.40557 0
M  V30 6677 H 607.494 2.0238 4.55899 0
M  V30 6678 H 606.648 0.210976 6.06333 0
M  V30 6679 H 605.387 -0.215584 4.87223 0
M  V30 6680 H 604.392 2.07899 5.08978 0
M  V30 6681 H 605.617 2.49861 6.31464 0
M  V30 6682 H 603.563 0.267451 6.55455 0
M  V30 6683 H 603.48 1.81011 7.3401 0
M  V30 6684 H 604.748 0.698906 7.7636 0
M  V30 6685 N 608.977 -1.30795 0.87923 0
M  V30 6686 C 610.205 -2.00527 0.509548 0
M  V30 6687 C 610.62 -1.65944 -0.90045 0
M  V30 6688 O 609.977 -0.893525 -1.5913 0
M  V30 6689 C 610.028 -3.55276 0.667943 0
M  V30 6690 O 609.749 -3.88625 2.02242 0
M  V30 6691 C 611.25 -4.4228 0.300494 0
M  V30 6692 H 608.47 -0.641261 0.197549 0
M  V30 6693 H 611.014 -1.66813 1.18295 0
M  V30 6694 H 609.169 -3.87377 0.0419843 0
M  V30 6695 H 609.583 -4.83334 2.03688 0
M  V30 6696 H 611.057 -5.50061 0.462242 0
M  V30 6697 H 611.534 -4.32556 -0.76106 0
M  V30 6698 H 612.14 -4.15613 0.902536 0
M  V30 6699 N 610.455 -0.639598 -1.44038 0
M  V30 6700 C 611.402 0.0602458 -2.30721 0
M  V30 6701 C 612.372 0.828352 -1.43971 0
M  V30 6702 O 613.557 0.807693 -1.72861 0
M  V30 6703 C 610.697 1.03008 -3.29368 0
M  V30 6704 C 609.81 0.259502 -4.3122 0
M  V30 6705 C 608.945 1.22191 -5.16955 0
M  V30 6706 C 607.984 0.440978 -6.10509 0
M  V30 6707 N 607.121 1.35428 -6.88915 0
M  V30 6708 H 611.961 -0.684867 -2.90023 0
M  V30 6709 H 609.498 -0.349509 -1.42888 0
M  V30 6710 H 611.456 1.60583 -3.85057 0
M  V30 6711 H 610.086 1.74222 -2.71747 0
M  V30 6712 H 609.138 -0.432317 -3.77935 0
M  V30 6713 H 610.45 -0.348347 -4.97582 0
M  V30 6714 H 609.604 1.86873 -5.77203 0
M  V30 6715 H 608.343 1.86367 -4.50687 0
M  V30 6716 H 607.348 -0.219279 -5.49363 0
M  V30 6717 H 608.573 -0.196192 -6.78817 0
M  V30 6718 H 606.519 1.9831 -6.25307 0
M  V30 6719 H 606.436 0.800657 -7.51748 0
M  V30 6720 H 607.704 1.98967 -7.53679 0
M  V30 6721 N 611.933 1.52934 -0.380664 0
M  V30 6722 C 612.88 2.26197 0.458641 0
M  V30 6723 C 613.85 1.27462 1.06502 0
M  V30 6724 O 615.035 1.56274 1.09467 0
M  V30 6725 C 612.175 3.06571 1.58456 0
M  V30 6726 C 611.288 4.20222 1.00189 0
M  V30 6727 C 610.423 4.88007 2.09815 0
M  V30 6728 C 609.462 5.93665 1.49092 0
M  V30 6729 N 608.599 6.55081 2.52613 0
M  V30 6730 H 613.439 2.975 -0.172595 0
M  V30 6731 H 610.976 1.4678 -0.0969426 0
M  V30 6732 H 612.934 3.51455 2.24801 0
M  V30 6733 H 611.564 2.37494 2.18624 0
M  V30 6734 H 610.616 3.79714 0.228292 0
M  V30 6735 H 611.928 4.96102 0.518064 0
M  V30 6736 H 611.082 5.36151 2.83948 0
M  V30 6737 H 609.821 4.11632 2.61555 0
M  V30 6738 H 608.826 5.44868 0.7348 0
M  V30 6739 H 610.051 6.71969 0.981582 0
M  V30 6740 H 607.997 5.8155 3.03538 0
M  V30 6741 H 607.914 7.26548 2.08961 0
M  V30 6742 H 609.182 7.07871 3.26402 0
M  V30 6743 N 613.412 0.11024 1.57214 0
M  V30 6744 C 614.637 -0.561179 1.99664 0
M  V30 6745 C 615.062 -1.59985 0.989266 0
M  V30 6746 O 614.42 -1.81255 -0.0402399 0
M  V30 6747 C 614.468 -1.17189 3.41027 0
M  V30 6748 O 613.572 -2.28755 3.4314 0
M  V30 6749 H 612.913 -0.14101 0.648855 0
M  V30 6750 H 615.443 0.196128 2.03658 0
M  V30 6751 H 615.453 -1.50954 3.79047 0
M  V30 6752 H 614.128 -0.411041 4.13864 0
M  V30 6753 H 612.705 -1.96495 3.16929 0
M  V30 6754 N 614.89 -1.56749 -0.16351 0
M  V30 6755 C 616.118 -1.86577 -0.894233 0
M  V30 6756 C 616.533 -0.696543 -1.75481 0
M  V30 6757 O 615.89 0.334161 -1.79415 0
M  V30 6758 C 615.941 -3.15508 -1.76456 0
M  V30 6759 O 615.662 -4.27926 -0.938685 0
M  V30 6760 C 617.163 -3.58737 -2.60428 0
M  V30 6761 H 614.383 -0.618829 -0.259405 0
M  V30 6762 H 616.927 -2.03863 -0.161259 0
M  V30 6763 H 615.082 -3.00025 -2.45079 0
M  V30 6764 H 615.496 -5.01546 -1.53465 0
M  V30 6765 H 616.97 -4.51832 -3.17099 0
M  V30 6766 H 617.447 -2.83229 -3.35675 0
M  V30 6767 H 618.053 -3.76858 -1.97125 0
M  V30 6768 N 616.368 0.432326 -1.51554 0
M  V30 6769 C 617.315 1.52512 -1.7323 0
M  V30 6770 C 618.285 1.55863 -0.5741 0
M  V30 6771 O 619.47 1.72796 -0.809093 0
M  V30 6772 C 616.61 2.90183 -1.86783 0
M  V30 6773 C 615.723 2.96322 -3.14352 0
M  V30 6774 C 614.858 4.25147 -3.18471 0
M  V30 6775 C 613.897 4.25172 -4.40335 0
M  V30 6776 N 613.034 5.45529 -4.41975 0
M  V30 6777 H 617.874 1.33332 -2.66508 0
M  V30 6778 H 615.411 0.647613 -1.32077 0
M  V30 6779 H 617.369 3.70071 -1.92623 0
M  V30 6780 H 615.999 3.0791 -0.969087 0
M  V30 6781 H 615.051 2.09066 -3.17798 0
M  V30 6782 H 616.363 2.92203 -4.04251 0
M  V30 6783 H 615.517 5.13411 -3.23255 0
M  V30 6784 H 614.256 4.31929 -2.2647 0
M  V30 6785 H 613.261 3.353 -4.35723 0
M  V30 6786 H 614.486 4.20049 -5.33606 0
M  V30 6787 H 612.432 5.53024 -3.52847 0
M  V30 6788 H 612.349 5.43311 -5.25689 0
M  V30 6789 H 613.617 6.35812 -4.50958 0
M  V30 6790 N 617.846 1.41785 0.688094 0
M  V30 6791 C 619.074 1.44915 1.47673 0
M  V30 6792 C 619.489 0.0565786 1.88715 0
M  V30 6793 O 618.846 -0.92579 1.57275 0
M  V30 6794 C 618.897 2.36452 2.73446 0
M  V30 6795 O 618.618 3.7029 2.34131 0
M  V30 6796 C 620.119 2.48463 3.67125 0
M  V30 6797 H 617.339 0.493324 0.454832 0
M  V30 6798 H 619.883 1.86153 0.846594 0
M  V30 6799 H 618.038 1.98502 3.3268 0
M  V30 6800 H 618.452 4.19183 3.15255 0
M  V30 6801 H 619.926 3.16662 4.52138 0
M  V30 6802 H 620.403 1.51826 4.12123 0
M  V30 6803 H 621.009 2.8708 3.13792 0
M  V30 6804 N 619.324 -0.923095 1.27737 0
M  V30 6805 C 620.573 -1.66581 1.13727 0
M  V30 6806 C 620.886 -1.9304 -0.315433 0
M  V30 6807 O 622.092 -2.65309 -0.57651 0
M  V30 6808 C 620.548 -3.00047 1.98745 0
M  V30 6809 C 620.156 -2.8127 3.48699 0
M  V30 6810 C 621.9 -3.77887 1.93395 0
M  V30 6811 C 619.807 -4.1032 4.25901 0
M  V30 6812 H 618.737 -0.624834 0.422017 0
M  V30 6813 H 621.388 -1.02514 1.52194 0
M  V30 6814 H 619.77 -3.65197 1.53125 0
M  V30 6815 H 620.944 -2.24859 4.02213 0
M  V30 6816 H 619.259 -2.16854 3.55476 0
M  V30 6817 H 621.856 -4.73526 2.48348 0
M  V30 6818 H 622.199 -4.06264 0.908605 0
M  V30 6819 H 622.732 -3.19541 2.36935 0
M  V30 6820 H 619.471 -3.8712 5.28978 0
M  V30 6821 H 618.991 -4.66377 3.77163 0
M  V30 6822 H 620.67 -4.78648 4.35321 0
M  V30 6823 N 620.802 -1.09834 -1.13024 0
M  V30 6824 C 621.75 -0.736283 -2.20639 0
M  V30 6825 C 622.744 0.264725 -1.67319 0
M  V30 6826 O 623.95 0.125745 -1.7956 0
M  V30 6827 H 620.325 -0.220136 -0.719058 0
M  V30 6828 H 622.296 -1.65295 -2.48436 0
M  V30 6829 C 621.045 -0.177544 -3.47246 0
M  V30 6830 H 620.368 -0.939009 -3.88616 0
M  V30 6831 H 621.808 0.0378007 -4.23983 0
M  V30 6832 C 620.267 1.08824 -3.1884 0
M  V30 6833 O 620.797 2.1708 -3.37993 0
M  V30 6834 N 619.003 1.00442 -2.7269 0
M  V30 6835 H 618.55 0.123383 -2.57304 0
M  V30 6836 H 618.508 1.85206 -2.5406 0
M  V30 6837 N 622.28 1.30327 -0.886154 0
M  V30 6838 C 623.691 1.78243 -0.555554 0
M  V30 6839 C 624.042 1.72849 0.928314 0
M  V30 6840 O 623.167 1.30607 1.72542 0
M  V30 6841 C 623.762 3.23654 -1.00168 0
M  V30 6842 C 622.321 3.69401 -0.722471 0
M  V30 6843 C 621.468 2.50753 -1.18399 0
M  V30 6844 H 624.419 1.1718 -1.07026 0
M  V30 6845 H 624.44 3.79056 -0.331152 0
M  V30 6846 H 623.952 3.27548 -2.08169 0
M  V30 6847 H 622.053 3.70995 0.345496 0
M  V30 6848 H 622.166 4.60818 -1.31085 0
M  V30 6849 H 620.53 2.47452 -0.603303 0
M  V30 6850 H 621.313 2.57383 -2.27176 0
M  V30 6851 N 623.758 0.647228 1.43697 0
M  V30 6852 C 624.983 0.164083 2.0675 0
M  V30 6853 C 625.408 -1.15892 1.48158 0
M  V30 6854 O 624.766 -1.71459 0.589194 0
M  V30 6855 C 624.814 0.0800368 3.60511 0
M  V30 6856 O 623.918 -0.959453 4.01084 0
M  V30 6857 H 623.259 0.0921288 0.657578 0
M  V30 6858 H 625.789 0.88846 1.84303 0
M  V30 6859 H 625.799 -0.105263 4.07864 0
M  V30 6860 H 624.474 1.04586 4.02535 0
M  V30 6861 H 623.051 -0.747425 3.65333 0
M  V30 6862 N 625.236 -1.5273 0.388769 0
M  V30 6863 C 626.183 -2.26437 -0.446639 0
M  V30 6864 C 627.153 -1.28025 -1.05824 0
M  V30 6865 O 628.338 -1.56852 -1.08637 0
M  V30 6866 C 625.478 -3.07407 -1.56828 0
M  V30 6867 C 624.591 -4.20747 -0.979589 0
M  V30 6868 C 623.726 -4.89113 -2.07224 0
M  V30 6869 C 622.765 -5.94447 -1.45942 0
M  V30 6870 N 621.902 -6.56411 -2.49135 0
M  V30 6871 H 626.742 -2.97404 0.18837 0
M  V30 6872 H 624.279 -1.46727 0.104725 0
M  V30 6873 H 626.237 -3.52642 -2.22934 0
M  V30 6874 H 624.867 -2.3865 -2.17361 0
M  V30 6875 H 623.919 -3.7983 -0.208151 0
M  V30 6876 H 625.231 -4.9637 -0.491747 0
M  V30 6877 H 624.385 -5.3765 -2.81101 0
M  V30 6878 H 623.124 -4.13013 -2.59368 0
M  V30 6879 H 622.129 -5.4525 -0.705894 0
M  V30 6880 H 623.354 -6.7248 -0.945932 0
M  V30 6881 H 621.3 -5.83152 -3.00449 0
M  V30 6882 H 621.217 -7.27645 -2.05105 0
M  V30 6883 H 622.485 -7.09592 -3.22644 0
M  V30 6884 N 626.714 -0.118576 -1.57153 0
M  V30 6885 C 627.944 0.546466 -1.99242 0
M  V30 6886 C 628.352 1.60791 -0.997148 0
M  V30 6887 O 627.695 1.83691 0.0181745 0
M  V30 6888 C 627.757 1.23167 -3.37743 0
M  V30 6889 C 627.421 0.318226 -4.55891 0
M  V30 6890 C 628.418 -0.442988 -5.18009 0
M  V30 6891 C 626.103 0.229421 -5.01776 0
M  V30 6892 C 628.097 -1.28074 -6.244 0
M  V30 6893 C 625.784 -0.611966 -6.08028 0
M  V30 6894 C 626.782 -1.36568 -6.69207 0
M  V30 6895 O 626.47 -2.1931 -7.73407 0
M  V30 6896 H 626.202 0.149297 -0.659307 0
M  V30 6897 H 628.756 -0.201603 -2.04408 0
M  V30 6898 H 626.986 2.0268 -3.29329 0
M  V30 6899 H 628.675 1.79358 -3.64123 0
M  V30 6900 H 629.441 -0.38425 -4.83475 0
M  V30 6901 H 625.32 0.805771 -4.53903 0
M  V30 6902 H 628.864 -1.86952 -6.72082 0
M  V30 6903 H 624.761 -0.6721 -6.41991 0
M  V30 6904 H 625.529 -2.12247 -7.90502 0
M  V30 6905 N 628.193 1.56834 0.155195 0
M  V30 6906 C 629.125 1.94235 1.21677 0
M  V30 6907 C 630.138 0.83724 1.39621 0
M  V30 6908 O 631.327 1.11567 1.39338 0
M  V30 6909 C 628.427 2.19402 2.58294 0
M  V30 6910 C 627.6 3.50671 2.61436 0
M  V30 6911 C 626.659 3.64475 3.79532 0
M  V30 6912 O 625.685 4.36945 3.64784 0
M  V30 6913 N 626.887 3.00526 4.96653 0
M  V30 6914 H 629.652 2.85901 0.898932 0
M  V30 6915 H 627.213 1.58185 0.34483 0
M  V30 6916 H 629.205 2.25886 3.35794 0
M  V30 6917 H 627.775 1.34042 2.82403 0
M  V30 6918 H 626.995 3.55702 1.69912 0
M  V30 6919 H 628.283 4.3702 2.60559 0
M  V30 6920 H 627.681 2.41549 5.11538 0
M  V30 6921 H 626.238 3.12583 5.71958 0
M  V30 6922 N 629.671 -0.424282 1.51781 0
M  V30 6923 C 630.899 -1.1947 1.68921 0
M  V30 6924 C 631.314 -1.84683 0.39213 0
M  V30 6925 O 630.671 -1.71261 -0.630554 0
M  V30 6926 C 630.722 -2.26909 2.81416 0
M  V30 6927 O 630.443 -1.64361 4.061 0
M  V30 6928 C 631.944 -3.16945 3.09937 0
M  V30 6929 H 629.164 -0.359591 0.566511 0
M  V30 6930 H 631.708 -0.501139 1.98265 0
M  V30 6931 H 629.863 -2.91959 2.54635 0
M  V30 6932 H 630.277 -2.35468 4.68674 0
M  V30 6933 H 631.751 -3.88437 3.922 0
M  V30 6934 H 632.228 -3.78451 2.22871 0
M  V30 6935 H 632.834 -2.57581 3.38426 0
M  V30 6936 N 631.149 -1.42148 -0.680565 0
M  V30 6937 C 632.398 -1.41604 -1.43636 0
M  V30 6938 C 632.711 -0.0337887 -1.95571 0
M  V30 6939 O 633.917 0.0942588 -2.71336 0
M  V30 6940 C 632.373 -2.49056 -2.59806 0
M  V30 6941 C 631.981 -3.9326 -2.14594 0
M  V30 6942 C 633.725 -2.5767 -3.37352 0
M  V30 6943 C 631.632 -4.92232 -3.27813 0
M  V30 6944 H 630.562 -0.526656 -0.539583 0
M  V30 6945 H 633.213 -1.68033 -0.737369 0
M  V30 6946 H 631.595 -2.15782 -3.32045 0
M  V30 6947 H 632.769 -4.35858 -1.49546 0
M  V30 6948 H 631.084 -3.88443 -1.50002 0
M  V30 6949 H 633.681 -3.28794 -4.21662 0
M  V30 6950 H 634.024 -1.61837 -3.83555 0
M  V30 6951 H 634.557 -2.90109 -2.72179 0
M  V30 6952 H 631.296 -5.89522 -2.86607 0
M  V30 6953 H 630.816 -4.5427 -3.91661 0
M  V30 6954 H 632.495 -5.13684 -3.93367 0
M  V30 6955 N 632.627 0.916307 -1.28225 0
M  V30 6956 C 634.043 1.19425 -1.05876 0
M  V30 6957 C 634.243 2.005 0.2005 0
M  V30 6958 O 633.299 2.35806 0.902873 0
M  V30 6959 C 634.612 1.93133 -2.30478 0
M  V30 6960 C 636.16 2.06026 -2.35632 0
M  V30 6961 C 636.635 2.83141 -3.59994 0
M  V30 6962 N 638.126 2.90704 -3.60618 0
M  V30 6963 C 638.861 3.50865 -4.53521 0
M  V30 6964 N 638.357 4.12327 -5.56739 0
M  V30 6965 N 640.15 3.48379 -4.41122 0
M  V30 6966 H 632.301 0.37496 -2.09064 0
M  V30 6967 H 634.564 0.228531 -0.920042 0
M  V30 6968 H 634.27 1.40985 -3.22205 0
M  V30 6969 H 634.144 2.93696 -2.36691 0
M  V30 6970 H 636.531 2.57355 -1.44404 0
M  V30 6971 H 636.612 1.04647 -2.33415 0
M  V30 6972 H 636.256 2.32492 -4.51564 0
M  V30 6973 H 636.186 3.84829 -3.59464 0
M  V30 6974 H 638.677 2.47034 -2.85977 0
M  V30 6975 H 638.99 4.56205 -6.23776 0
M  V30 6976 H 637.335 4.10839 -5.60568 0
M  V30 6977 H 640.526 2.99572 -3.59686 0
M  V30 6978 H 640.699 3.94974 -5.13712 0
M  V30 6979 N 634.105 1.10431 1.1244 0
M  V30 6980 C 635.052 0.753103 2.18167 0
M  V30 6981 C 636.022 -0.270549 1.63882 0
M  V30 6982 O 637.207 -0.149837 1.90211 0
M  V30 6983 C 634.347 0.191046 3.44571 0
M  V30 6984 C 633.46 1.26999 4.12911 0
M  V30 6985 C 632.595 0.669586 5.26963 0
M  V30 6986 C 631.634 1.72912 5.87169 0
M  V30 6987 N 630.771 1.14898 6.92635 0
M  V30 6988 H 635.611 1.65892 2.47556 0
M  V30 6989 H 633.148 0.828631 1.21541 0
M  V30 6990 H 635.106 -0.152712 4.1692 0
M  V30 6991 H 633.736 -0.677997 3.15599 0
M  V30 6992 H 632.788 1.73087 3.3874 0
M  V30 6993 H 634.1 2.07204 4.53727 0
M  V30 6994 H 633.254 0.275274 6.06075 0
M  V30 6995 H 631.993 -0.163895 4.87425 0
M  V30 6996 H 630.998 2.13286 5.06744 0
M  V30 6997 H 632.223 2.56544 6.28778 0
M  V30 6998 H 630.169 0.336956 6.55134 0
M  V30 6999 H 630.086 1.88786 7.32049 0
M  V30 7000 H 631.354 0.78121 7.75576 0
M  V30 7001 N 635.583 -1.29855 0.893053 0
M  V30 7002 C 636.546 -2.26183 0.370687 0
M  V30 7003 C 637.546 -1.53108 -0.491385 0
M  V30 7004 O 638.736 -1.71643 -0.297386 0
M  V30 7005 C 635.868 -3.37633 -0.470827 0
M  V30 7006 H 637.061 -2.73903 1.22135 0
M  V30 7007 H 634.614 -1.41183 0.67061 0
M  V30 7008 H 635.349 -2.95241 -1.34175 0
M  V30 7009 H 635.134 -3.91825 0.146784 0
M  V30 7010 H 636.624 -4.09313 -0.827825 0
M  V30 7011 N 637.061 -0.65484 -1.43351 0
M  V30 7012 C 638.309 -0.168559 -2.01396 0
M  V30 7013 C 638.63 1.22235 -1.51933 0
M  V30 7014 O 637.9 1.81685 -0.732627 0
M  V30 7015 H 636.48 -0.0593244 -0.744641 0
M  V30 7016 H 639.142 -0.846871 -1.75539 0
M  V30 7017 H 638.238 -0.154428 -3.11718 0
M  V30 7018 N 638.539 1.52521 -0.396863 0
M  V30 7019 C 639.486 2.26671 0.434624 0
M  V30 7020 C 640.456 1.28584 1.05144 0
M  V30 7021 O 641.641 1.57426 1.07804 0
M  V30 7022 C 638.781 3.08234 1.55196 0
M  V30 7023 C 637.894 4.21261 0.957262 0
M  V30 7024 C 637.029 4.90205 2.04627 0
M  V30 7025 C 636.068 5.95213 1.42787 0
M  V30 7026 N 635.205 6.57723 2.45651 0
M  V30 7027 H 640.045 2.973 -0.204139 0
M  V30 7028 H 637.582 1.46669 -0.112505 0
M  V30 7029 H 639.54 3.53819 2.2106 0
M  V30 7030 H 638.17 2.398 2.16092 0
M  V30 7031 H 637.222 3.79935 0.188005 0
M  V30 7032 H 638.534 4.96624 0.465416 0
M  V30 7033 H 637.688 5.39133 2.78246 0
M  V30 7034 H 636.427 4.14383 2.57174 0
M  V30 7035 H 635.432 5.45616 0.676968 0
M  V30 7036 H 636.657 6.72972 0.910255 0
M  V30 7037 H 634.603 5.84737 2.97353 0
M  V30 7038 H 634.52 7.28723 2.01243 0
M  V30 7039 H 635.788 7.11293 3.18876 0
M  V30 7040 N 640.017 0.126909 1.57088 0
M  V30 7041 C 641.263 -0.529952 1.95753 0
M  V30 7042 C 641.596 -1.65823 1.01077 0
M  V30 7043 O 640.871 -1.94437 0.0494162 0
M  V30 7044 C 641.154 -1.05517 3.44294 0
M  V30 7045 C 641.007 0.0702253 4.49745 0
M  V30 7046 C 642.326 -1.9435 3.94862 0
M  V30 7047 H 639.445 -0.191168 0.711775 0
M  V30 7048 H 642.087 0.204071 1.88901 0
M  V30 7049 H 640.237 -1.68069 3.50264 0
M  V30 7050 H 641.909 0.705834 4.55868 0
M  V30 7051 H 640.152 0.732259 4.27575 0
M  V30 7052 H 640.823 -0.338642 5.5096 0
M  V30 7053 H 643.299 -1.41658 3.91244 0
M  V30 7054 H 642.175 -2.28015 4.993 0
M  V30 7055 H 642.436 -2.87299 3.36024 0
M  V30 7056 N 641.495 -1.56914 -0.146875 0
M  V30 7057 C 642.445 -1.94693 -1.18653 0
M  V30 7058 C 643.429 -0.81821 -1.38543 0
M  V30 7059 O 644.621 -1.08167 -1.40103 0
M  V30 7060 C 641.75 -2.33117 -2.52014 0
M  V30 7061 C 640.836 -3.5256 -2.35717 0
M  V30 7062 N 641.227 -4.69091 -1.89175 0
M  V30 7063 C 639.525 -3.57647 -2.66467 0
M  V30 7064 C 640.226 -5.51187 -1.85924 0
M  V30 7065 N 639.202 -4.92899 -2.29242 0
M  V30 7066 H 643.004 -2.82264 -0.81879 0
M  V30 7067 H 640.518 -1.58474 -0.354929 0
M  V30 7068 H 642.515 -2.58387 -3.27172 0
M  V30 7069 H 641.175 -1.46898 -2.89571 0
M  V30 7070 H 642.186 -4.92844 -1.59139 0
M  V30 7071 H 638.863 -2.81967 -3.07898 0
M  V30 7072 H 640.253 -6.54613 -1.51431 0
M  V30 7073 N 642.974 0.416227 -1.52004 0
M  V30 7074 C 644.204 1.18401 -1.69307 0
M  V30 7075 C 644.612 1.84943 -0.399072 0
M  V30 7076 O 643.955 1.72406 0.634177 0
M  V30 7077 C 644.017 2.29465 -2.76742 0
M  V30 7078 C 643.681 1.83117 -4.18709 0
M  V30 7079 C 644.678 1.32286 -5.02789 0
M  V30 7080 C 642.363 1.90167 -4.64911 0
M  V30 7081 C 644.357 0.891178 -6.31139 0
M  V30 7082 C 642.044 1.4661 -5.93253 0
M  V30 7083 C 643.042 0.961696 -6.76196 0
M  V30 7084 O 642.73 0.532388 -8.02135 0
M  V30 7085 H 642.462 0.362098 -0.570843 0
M  V30 7086 H 645.016 0.496764 -1.99302 0
M  V30 7087 H 643.246 3.01531 -2.42107 0
M  V30 7088 H 644.935 2.91252 -2.82713 0
M  V30 7089 H 645.701 1.26218 -4.68288 0
M  V30 7090 H 641.58 2.28371 -4.00459 0
M  V30 7091 H 645.124 0.496788 -6.95829 0
M  V30 7092 H 641.021 1.52355 -6.27263 0
M  V30 7093 H 641.789 0.656339 -8.15864 0
M  V30 7094 N 644.452 1.42507 0.673017 0
M  V30 7095 C 645.863 1.38347 1.25367 0
M  V30 7096 C 646.214 0.0776327 1.96046 0
M  V30 7097 O 645.339 -0.823571 2.00116 0
M  V30 7098 C 645.934 2.506 2.28002 0
M  V30 7099 C 644.493 2.49767 2.81591 0
M  V30 7100 C 643.64 2.293 1.55938 0
M  V30 7101 H 646.591 1.51695 0.466288 0
M  V30 7102 H 646.612 2.20953 3.09774 0
M  V30 7103 H 646.124 3.45627 1.76532 0
M  V30 7104 H 644.225 1.58563 3.37177 0
M  V30 7105 H 644.338 3.46867 3.30485 0
M  V30 7106 H 642.702 1.77594 1.82572 0
M  V30 7107 H 643.485 3.26385 1.06431 0
M  V30 7108 N 645.93 -0.909495 1.28709 0
M  V30 7109 C 647.176 -1.66151 1.16283 0
M  V30 7110 C 647.509 -1.92067 -0.287069 0
M  V30 7111 O 646.784 -1.52409 -1.20837 0
M  V30 7112 C 647.067 -3.01676 1.9663 0
M  V30 7113 C 646.92 -2.82888 3.49707 0
M  V30 7114 C 648.239 -4.02274 1.78504 0
M  V30 7115 H 645.358 -0.602966 0.423793 0
M  V30 7116 H 648 -1.05418 1.58073 0
M  V30 7117 H 646.15 -3.53515 1.61119 0
M  V30 7118 H 647.822 -2.38026 3.95147 0
M  V30 7119 H 646.065 -2.17862 3.75125 0
M  V30 7120 H 646.736 -3.79147 4.01187 0
M  V30 7121 H 649.212 -3.59511 2.09503 0
M  V30 7122 H 648.088 -4.95056 2.37088 0
M  V30 7123 H 648.349 -4.35903 0.737647 0
M  V30 7124 N 647.408 -1.11026 -1.11852 0
M  V30 7125 C 648.371 -0.768006 -2.1595 0
M  V30 7126 C 649.371 0.210538 -1.59416 0
M  V30 7127 O 650.561 -0.0133978 -1.74195 0
M  V30 7128 C 647.693 -0.138678 -3.40618 0
M  V30 7129 H 648.886 -1.69012 -2.4774 0
M  V30 7130 H 646.439 -0.911578 -1.26964 0
M  V30 7131 H 647.174 0.793872 -3.14433 0
M  V30 7132 H 646.959 -0.843012 -3.8293 0
M  V30 7133 H 648.449 0.0848039 -4.17514 0
M  V30 7134 N 648.886 1.2938 -0.899927 0
M  V30 7135 C 650.132 1.96206 -0.536153 0
M  V30 7136 C 650.487 1.69647 0.90761 0
M  V30 7137 O 649.78 0.999089 1.63489 0
M  V30 7138 C 649.974 3.49114 -0.765113 0
M  V30 7139 C 649.803 3.90538 -2.22958 0
M  V30 7140 C 648.573 4.15395 -2.87706 0
M  V30 7141 C 650.771 4.0224 -3.20479 0
M  V30 7142 N 648.753 4.43389 -4.24593 0
M  V30 7143 C 650.124 4.34288 -4.42486 0
M  V30 7144 C 652.179 3.84716 -3.16066 0
M  V30 7145 C 650.882 4.50638 -5.6064 0
M  V30 7146 C 652.908 4.02276 -4.33507 0
M  V30 7147 C 652.27 4.34684 -5.54283 0
M  V30 7148 H 648.369 0.742364 -0.245804 0
M  V30 7149 H 650.953 1.56314 -1.16078 0
M  V30 7150 H 649.124 3.88028 -0.169861 0
M  V30 7151 H 650.856 4.03035 -0.366751 0
M  V30 7152 H 647.611 4.09164 -2.385 0
M  V30 7153 H 648.035 4.61494 -4.95331 0
M  V30 7154 H 652.677 3.58724 -2.23778 0
M  V30 7155 H 650.395 4.75467 -6.5342 0
M  V30 7156 H 653.981 3.90169 -4.31578 0
M  V30 7157 H 652.861 4.47988 -6.43643 0
M  V30 7158 N 650.364 0.662433 1.43002 0
M  V30 7159 C 651.61 0.179857 2.02001 0
M  V30 7160 C 651.943 -1.20625 1.52195 0
M  V30 7161 O 651.218 -1.80726 0.718911 0
M  V30 7162 C 651.501 0.200845 3.59539 0
M  V30 7163 C 651.354 1.62153 4.19555 0
M  V30 7164 C 652.673 -0.457738 4.37713 0
M  V30 7165 H 649.792 0.0668305 0.733964 0
M  V30 7166 H 652.434 0.84487 1.70182 0
M  V30 7167 H 650.584 -0.365411 3.86778 0
M  V30 7168 H 652.256 2.23908 4.03315 0
M  V30 7169 H 650.499 2.16601 3.75854 0
M  V30 7170 H 651.17 1.58799 5.28665 0
M  V30 7171 H 653.646 0.0241495 4.16093 0
M  V30 7172 H 652.522 -0.412363 5.47349 0
M  V30 7173 H 652.783 -1.53336 4.14657 0
M  V30 7174 N 651.842 -1.52309 0.404946 0
M  V30 7175 C 652.79 -2.28452 -0.437321 0
M  V30 7176 C 653.784 -1.32975 -1.04948 0
M  V30 7177 O 654.99 -1.50451 -0.988159 0
M  V30 7178 H 651.365 -0.734824 -0.159805 0
M  V30 7179 H 653.336 -2.97542 0.22615 0
M  V30 7180 C 652.085 -3.11536 -1.54404 0
M  V30 7181 H 651.408 -3.84871 -1.08233 0
M  V30 7182 H 652.848 -3.67926 -2.10729 0
M  V30 7183 C 651.307 -2.24833 -2.50902 0
M  V30 7184 O 651.837 -1.88574 -3.54687 0
M  V30 7185 N 650.043 -1.88685 -2.21012 0
M  V30 7186 H 649.59 -2.18371 -1.36646 0
M  V30 7187 H 649.548 -1.30966 -2.85824 0
M  V30 7188 N 653.32 -0.135238 -1.57019 0
M  V30 7189 C 654.548 0.526066 -2.001 0
M  V30 7190 C 654.963 1.59184 -1.01519 0
M  V30 7191 O 654.32 1.82497 -0.0104258 0
M  V30 7192 C 654.371 1.13744 -3.43139 0
M  V30 7193 O 654.092 0.114259 -4.37951 0
M  V30 7194 C 655.593 1.8805 -4.01438 0
M  V30 7195 H 652.813 0.137962 -0.656664 0
M  V30 7196 H 655.357 -0.226359 -2.03243 0
M  V30 7197 H 653.512 1.84056 -3.40885 0
M  V30 7198 H 653.926 0.56058 -5.21496 0
M  V30 7199 H 655.4 2.26133 -5.03555 0
M  V30 7200 H 655.877 2.76194 -3.41487 0
M  V30 7201 H 656.483 1.22464 -4.07287 0
M  V30 7202 N 654.798 1.5699 0.138552 0
M  V30 7203 C 655.731 1.94064 1.2006 0
M  V30 7204 C 656.709 0.807601 1.41126 0
M  V30 7205 O 657.893 1.06399 1.556 0
M  V30 7206 C 655.02 2.21999 2.55801 0
M  V30 7207 C 654.066 3.44617 2.5128 0
M  V30 7208 S 654.899 4.97888 1.97149 0
M  V30 7209 C 656.055 5.28954 3.34602 0
M  V30 7210 H 656.288 2.83843 0.884337 0
M  V30 7211 H 653.821 1.50507 0.344517 0
M  V30 7212 H 655.779 2.38772 3.33914 0
M  V30 7213 H 654.44 1.32869 2.84613 0
M  V30 7214 H 653.633 3.61466 3.51224 0
M  V30 7215 H 653.235 3.27129 1.8128 0
M  V30 7216 H 655.527 5.22938 4.30745 0
M  V30 7217 H 656.47 6.30346 3.22598 0
M  V30 7218 H 656.878 4.56455 3.32128 0
M  V30 7219 N 656.276 -0.40816 1.52223 0
M  V30 7220 C 657.522 -1.15673 1.66576 0
M  V30 7221 C 657.855 -1.90141 0.394996 0
M  V30 7222 O 657.13 -1.84798 -0.606613 0
M  V30 7223 C 657.413 -2.15042 2.88841 0
M  V30 7224 C 657.266 -1.44465 4.25969 0
M  V30 7225 C 658.585 -3.15699 3.0663 0
M  V30 7226 H 655.704 -0.41916 0.606196 0
M  V30 7227 H 658.346 -0.442348 1.84779 0
M  V30 7228 H 656.496 -2.75964 2.73452 0
M  V30 7229 H 658.168 -0.866544 4.53088 0
M  V30 7230 H 656.411 -0.746612 4.27327 0
M  V30 7231 H 657.082 -2.16976 5.07568 0
M  V30 7232 H 659.558 -2.64854 3.20923 0
M  V30 7233 H 658.434 -3.82491 3.9369 0
M  V30 7234 H 658.695 -3.83481 2.19987 0
M  V30 7235 N 657.755 -1.42862 -0.66545 0
M  V30 7236 C 659.002 -1.4383 -1.42546 0
M  V30 7237 C 659.33 -0.0581114 -1.94413 0
M  V30 7238 O 658.585 0.935002 -1.71919 0
M  V30 7239 C 658.884 -2.4175 -2.63233 0
M  V30 7240 C 658.55 -3.87915 -2.29854 0
M  V30 7241 C 657.212 -4.27726 -2.20463 0
M  V30 7242 C 659.564 -4.80074 -2.02924 0
M  V30 7243 C 656.892 -5.57666 -1.82279 0
M  V30 7244 C 659.244 -6.10366 -1.66242 0
M  V30 7245 C 657.908 -6.49167 -1.55367 0
M  V30 7246 H 657.178 -0.52631 -0.521612 0
M  V30 7247 H 659.825 -1.75863 -0.757914 0
M  V30 7248 H 658.13 -2.03077 -3.35063 0
M  V30 7249 H 659.827 -2.39759 -3.21429 0
M  V30 7250 H 656.417 -3.564 -2.3807 0
M  V30 7251 H 660.601 -4.50097 -2.09108 0
M  V30 7252 H 655.857 -5.8658 -1.72436 0
M  V30 7253 H 660.031 -6.81258 -1.44432 0
M  V30 7254 H 657.658 -7.49761 -1.2555 0
M  V30 7255 N 659.233 0.902656 -1.29189 0
M  V30 7256 C 660.51 1.63296 -1.07674 0
M  V30 7257 C 660.89 2.07649 0.380137 0
M  V30 7258 O 660.238 1.82997 1.36837 0
M  V30 7259 C 660.448 2.81603 -2.06158 0
M  V30 7260 C 661.796 3.52359 -2.36914 0
M  V30 7261 O 662.82 2.91767 -2.04329 0
M  V30 7262 O 661.679 4.61586 -2.92576 0
M  V30 7263 H 658.773 0.716889 -0.41231 0
M  V30 7264 H 661.319 0.950984 -1.4055 0
M  V30 7265 H 660.091 2.46004 -3.04299 0
M  V30 7266 H 659.714 3.57508 -1.73993 0
M  V30 7267 N 660.711 1.11618 1.11262 0
M  V30 7268 C 661.958 0.86618 1.8304 0
M  V30 7269 C 662.286 -0.608149 1.84748 0
M  V30 7270 O 661.541 -1.46508 1.29745 0
M  V30 7271 C 661.84 1.37529 3.2988 0
M  V30 7272 C 661.506 2.86317 3.4833 0
M  V30 7273 C 660.168 3.26945 3.53073 0
M  V30 7274 C 662.52 3.82136 3.54431 0
M  V30 7275 C 659.848 4.62117 3.61475 0
M  V30 7276 C 662.2 5.17128 3.64365 0
M  V30 7277 C 660.864 5.57312 3.67369 0
M  V30 7278 H 660.134 0.316958 0.66979 0
M  V30 7279 H 662.781 1.3949 1.31205 0
M  V30 7280 H 661.086 0.766842 3.84222 0
M  V30 7281 H 662.783 1.15817 3.83911 0
M  V30 7282 H 659.373 2.53889 3.45309 0
M  V30 7283 H 663.557 3.51847 3.50025 0
M  V30 7284 H 658.813 4.92655 3.62079 0
M  V30 7285 H 662.987 5.91208 3.68029 0
M  V30 7286 H 660.614 6.62045 3.73632 0
M  V30 7287 N 662.189 -1.289 0.906776 0
M  V30 7288 C 663.136 -2.2751 0.388313 0
M  V30 7289 C 664.106 -1.57301 -0.533439 0
M  V30 7290 O 665.291 -1.85243 -0.457148 0
M  V30 7291 C 662.431 -3.43091 -0.37181 0
M  V30 7292 C 661.544 -4.28066 0.581647 0
M  V30 7293 C 660.679 -5.30837 -0.19623 0
M  V30 7294 C 659.718 -6.07472 0.751294 0
M  V30 7295 N 658.855 -7.021 0.00737727 0
M  V30 7296 H 663.695 -2.71237 1.23428 0
M  V30 7297 H 661.232 -1.33397 0.619962 0
M  V30 7298 H 663.19 -4.08888 -0.828641 0
M  V30 7299 H 661.82 -3.00374 -1.18218 0
M  V30 7300 H 660.872 -3.62378 1.157 0
M  V30 7301 H 662.184 -4.81382 1.30665 0
M  V30 7302 H 661.338 -6.02485 -0.71394 0
M  V30 7303 H 660.077 -4.78272 -0.954324 0
M  V30 7304 H 659.082 -5.34682 1.28044 0
M  V30 7305 H 660.307 -6.62126 1.50883 0
M  V30 7306 H 658.253 -6.51894 -0.732854 0
M  V30 7307 H 658.17 -7.53004 0.672334 0
M  V30 7308 H 659.438 -7.77956 -0.490365 0
M  V30 7309 N 663.667 -0.670007 -1.42649 0
M  V30 7310 C 664.915 -0.18991 -2.01206 0
M  V30 7311 C 665.236 1.20617 -1.53221 0
M  V30 7312 O 664.506 1.80898 -0.751856 0
M  V30 7313 H 663.086 -0.0672189 -0.743969 0
M  V30 7314 H 665.748 -0.865442 -1.74631 0
M  V30 7315 H 664.844 -0.187481 -3.11536 0
M  V30 7316 N 665.145 1.52092 -0.413018 0
M  V30 7317 C 666.077 2.24819 0.445994 0
M  V30 7318 C 667.09 1.27925 1.00692 0
M  V30 7319 O 668.279 1.53845 0.905204 0
M  V30 7320 C 665.379 2.96951 1.6332 0
M  V30 7321 C 664.552 4.20746 1.19548 0
M  V30 7322 C 663.611 4.75668 2.25003 0
M  V30 7323 O 662.637 5.38148 1.85434 0
M  V30 7324 N 663.839 4.57579 3.57214 0
M  V30 7325 H 666.604 2.99176 -0.177209 0
M  V30 7326 H 664.165 1.60102 -0.240601 0
M  V30 7327 H 666.157 3.30586 2.33441 0
M  V30 7328 H 664.727 2.25756 2.16225 0
M  V30 7329 H 663.947 3.92881 0.32224 0
M  V30 7330 H 665.235 5.01132 0.880033 0
M  V30 7331 H 664.633 4.07758 3.92109 0
M  V30 7332 H 663.19 4.95642 4.23299 0
M  V30 7333 N 666.623 0.143563 1.56945 0
M  V30 7334 C 667.553 -0.7936 2.196 0
M  V30 7335 C 668.534 -1.25955 1.14321 0
M  V30 7336 O 669.719 -1.31773 1.42651 0
M  V30 7337 C 666.849 -2.03424 2.81489 0
M  V30 7338 C 665.803 -1.70519 3.92565 0
M  V30 7339 C 665.129 -3.01817 4.41373 0
M  V30 7340 C 666.429 -0.95449 5.13504 0
M  V30 7341 H 668.123 -0.271423 2.98167 0
M  V30 7342 H 665.669 -0.12911 1.4342 0
M  V30 7343 H 667.622 -2.69463 3.23987 0
M  V30 7344 H 666.346 -2.58008 2.00248 0
M  V30 7345 H 665.005 -1.06859 3.5068 0
M  V30 7346 H 664.653 -3.54386 3.56959 0
M  V30 7347 H 664.353 -2.80565 5.16292 0
M  V30 7348 H 665.877 -3.68934 4.86539 0
M  V30 7349 H 667.291 -1.5169 5.52868 0
M  V30 7350 H 665.688 -0.842035 5.94163 0
M  V30 7351 H 666.758 0.0544033 4.84869 0
M  V30 7352 N 668.101 -1.57061 -0.130224 0
M  V30 7353 C 669.517 -1.52103 -0.483413 0
M  V30 7354 C 669.717 -0.854752 -1.82473 0
M  V30 7355 O 668.773 -0.432342 -2.48771 0
M  V30 7356 C 670.086 -2.96872 -0.47825 0
M  V30 7357 C 671.634 -3.07902 -0.562592 0
M  V30 7358 C 672.109 -4.54211 -0.587929 0
M  V30 7359 N 673.6 -4.58621 -0.649684 0
M  V30 7360 C 674.335 -5.69227 -0.690551 0
M  V30 7361 N 673.831 -6.89358 -0.689743 0
M  V30 7362 N 675.624 -5.57304 -0.732708 0
M  V30 7363 H 667.775 -1.98764 0.748779 0
M  V30 7364 H 670.038 -0.907248 0.274965 0
M  V30 7365 H 669.744 -3.48944 0.439444 0
M  V30 7366 H 669.618 -3.53716 -1.31013 0
M  V30 7367 H 672.005 -2.5584 -1.47071 0
M  V30 7368 H 672.086 -2.54073 0.296764 0
M  V30 7369 H 671.73 -5.06915 0.316096 0
M  V30 7370 H 671.66 -5.0584 -1.46401 0
M  V30 7371 H 674.151 -3.72146 -0.656927 0
M  V30 7372 H 674.464 -7.69408 -0.723239 0
M  V30 7373 H 672.809 -6.91884 -0.657347 0
M  V30 7374 H 676 -4.62363 -0.730625 0
M  V30 7375 H 676.173 -6.43515 -0.76109 0
M  V30 7376 N 669.579 0.400081 -1.52437 0
M  V30 7377 C 670.807 1.16768 -1.70801 0
M  V30 7378 C 671.222 1.84036 -0.421462 0
M  V30 7379 O 670.579 1.72242 0.603228 0
M  V30 7380 C 670.63 2.22403 -2.8499 0
M  V30 7381 O 670.351 1.57879 -4.08663 0
M  V30 7382 C 671.852 3.11974 -3.1494 0
M  V30 7383 H 669.072 0.350533 -0.57216 0
M  V30 7384 H 671.616 0.469534 -1.99037 0
M  V30 7385 H 669.771 2.87871 -2.59247 0
M  V30 7386 H 670.185 2.27982 -4.7236 0
M  V30 7387 H 671.659 3.82148 -3.9833 0
M  V30 7388 H 672.136 3.74858 -2.28863 0
M  V30 7389 H 672.742 2.52165 -3.42481 0
M  V30 7390 N 671.057 1.43213 0.657864 0
M  V30 7391 C 672.305 1.44298 1.41501 0
M  V30 7392 C 672.626 0.0666478 1.94886 0
M  V30 7393 O 671.896 -0.897345 1.74139 0
M  V30 7394 H 670.476 0.531257 0.525143 0
M  V30 7395 H 673.138 1.78777 0.776195 0
M  V30 7396 H 672.234 2.1528 2.25966 0
M  V30 7397 N 672.536 -0.895792 1.29666 0
M  V30 7398 C 673.813 -1.62723 1.08538 0
M  V30 7399 C 674.193 -2.07848 -0.369119 0
M  V30 7400 O 673.541 -1.8372 -1.35864 0
M  V30 7401 C 673.751 -2.80505 2.07648 0
M  V30 7402 C 675.099 -3.51098 2.3878 0
M  V30 7403 O 676.123 -2.90679 2.05874 0
M  V30 7404 O 674.982 -4.60028 2.9502 0
M  V30 7405 H 672.076 -0.714692 0.416106 0
M  V30 7406 H 674.622 -0.943517 1.41053 0
M  V30 7407 H 673.394 -2.44386 3.05599 0
M  V30 7408 H 673.017 -3.5658 1.75887 0
M  V30 7409 N 674.014 -1.12206 -1.10668 0
M  V30 7410 C 675.263 -0.870595 -1.81944 0
M  V30 7411 C 675.576 0.605447 -1.85994 0
M  V30 7412 O 676.782 0.973433 -2.53449 0
M  V30 7413 C 675.238 -1.50783 -3.26791 0
M  V30 7414 C 674.846 -3.01849 -3.31046 0
M  V30 7415 C 676.59 -1.33653 -4.02911 0
M  V30 7416 C 674.497 -3.58518 -4.70339 0
M  V30 7417 H 673.427 -0.322043 -0.681765 0
M  V30 7418 H 676.078 -1.34827 -1.24475 0
M  V30 7419 H 674.46 -0.957825 -3.84242 0
M  V30 7420 H 675.634 -3.63321 -2.83433 0
M  V30 7421 H 673.949 -3.18346 -2.68411 0
M  V30 7422 H 676.546 -1.73416 -5.05797 0
M  V30 7423 H 676.889 -0.279949 -4.15358 0
M  V30 7424 H 677.422 -1.85562 -3.51868 0
M  V30 7425 H 674.161 -4.63925 -4.63091 0
M  V30 7426 H 673.681 -3.01819 -5.18329 0
M  V30 7427 H 675.36 -3.57434 -5.39305 0
M  V30 7428 N 675.492 1.28418 -0.913599 0
M  V30 7429 C 676.741 1.94265 -0.542572 0
M  V30 7430 C 677.054 1.72709 0.918207 0
M  V30 7431 O 678.26 2.32778 1.39738 0
M  V30 7432 C 676.716 3.47956 -0.919507 0
M  V30 7433 C 676.324 3.78291 -2.4 0
M  V30 7434 C 678.068 4.19962 -0.619057 0
M  V30 7435 C 675.975 5.2529 -2.71707 0
M  V30 7436 H 674.905 0.727213 -0.199192 0
M  V30 7437 H 677.556 1.45931 -1.11249 0
M  V30 7438 H 675.938 3.9502 -0.278372 0
M  V30 7439 H 677.112 3.42035 -3.08786 0
M  V30 7440 H 675.427 3.19456 -2.67089 0
M  V30 7441 H 678.024 5.28178 -0.832623 0
M  V30 7442 H 678.367 4.13935 0.443126 0
M  V30 7443 H 678.9 3.78674 -1.21865 0
M  V30 7444 H 675.639 5.36394 -3.76778 0
M  V30 7445 H 675.159 5.62743 -2.07559 0
M  V30 7446 H 676.838 5.93027 -2.58703 0
M  V30 7447 N 676.97 0.677563 1.42291 0
M  V30 7448 C 677.9 0.014968 2.33495 0
M  V30 7449 C 678.881 -0.786376 1.50831 0
M  V30 7450 O 680.066 -0.742975 1.79426 0
M  V30 7451 C 677.196 -0.935023 3.34477 0
M  V30 7452 C 676.15 -0.242074 4.27315 0
M  V30 7453 C 675.476 -1.30519 5.18526 0
M  V30 7454 C 676.776 0.880604 5.14823 0
M  V30 7455 H 678.47 0.776671 2.89151 0
M  V30 7456 H 676.016 0.37494 1.39033 0
M  V30 7457 H 677.969 -1.40766 3.97194 0
M  V30 7458 H 676.693 -1.72818 2.77131 0
M  V30 7459 H 675.352 0.210351 3.65996 0
M  V30 7460 H 675 -2.09041 4.57505 0
M  V30 7461 H 674.7 -0.846652 5.81468 0
M  V30 7462 H 676.224 -1.7787 5.84119 0
M  V30 7463 H 677.638 0.489062 5.7121 0
M  V30 7464 H 676.035 1.26511 5.86613 0
M  V30 7465 H 677.105 1.72818 4.53059 0
M  V30 7466 N 678.448 -1.51871 0.421078 0
M  V30 7467 C 679.398 -2.24171 -0.416111 0
M  V30 7468 C 680.382 -1.25763 -1.00362 0
M  V30 7469 O 681.574 -1.5094 -0.924452 0
M  V30 7470 C 678.703 -3.07533 -1.52571 0
M  V30 7471 C 677.789 -4.1336 -0.948399 0
M  V30 7472 N 678.18 -5.05704 -0.0987933 0
M  V30 7473 C 676.478 -4.29055 -1.21768 0
M  V30 7474 C 677.179 -5.8127 0.223705 0
M  V30 7475 N 676.155 -5.4221 -0.388524 0
M  V30 7476 H 679.957 -2.92925 0.239166 0
M  V30 7477 H 677.471 -1.60732 0.232191 0
M  V30 7478 H 679.468 -3.57893 -2.13819 0
M  V30 7479 H 678.128 -2.4032 -2.18349 0
M  V30 7480 H 679.139 -5.17214 0.266428 0
M  V30 7481 H 675.816 -3.73071 -1.87416 0
M  V30 7482 H 677.206 -6.65653 0.914076 0
M  V30 7483 N 679.926 -0.151884 -1.56866 0
M  V30 7484 C 681.151 0.508044 -2.01081 0
M  V30 7485 C 681.576 1.57306 -1.03134 0
M  V30 7486 O 680.934 1.81298 -0.0078309 0
M  V30 7487 C 680.982 1.08106 -3.44014 0
M  V30 7488 O 680.086 2.19577 -3.49084 0
M  V30 7489 H 679.427 0.123757 -0.652365 0
M  V30 7490 H 681.957 -0.250055 -2.03066 0
M  V30 7491 H 681.967 1.40851 -3.82916 0
M  V30 7492 H 680.642 0.301168 -4.14808 0
M  V30 7493 H 679.219 1.88023 -3.22027 0
M  V30 7494 N 681.404 1.57128 0.121893 0
M  V30 7495 C 682.65 1.85853 0.826451 0
M  V30 7496 C 683.005 0.739262 1.77631 0
M  V30 7497 O 682.298 -0.260959 1.89815 0
M  V30 7498 C 682.492 3.1874 1.61677 0
M  V30 7499 C 682.321 4.43487 0.744944 0
M  V30 7500 C 681.091 5.03707 0.400891 0
M  V30 7501 C 683.289 5.1426 0.0638779 0
M  V30 7502 N 681.271 6.12006 -0.481902 0
M  V30 7503 C 682.642 6.16281 -0.678033 0
M  V30 7504 C 684.697 4.97898 -0.0128424 0
M  V30 7505 C 683.4 7.0371 -1.48946 0
M  V30 7506 C 685.426 5.85812 -0.81108 0
M  V30 7507 C 684.788 6.87333 -1.54119 0
M  V30 7508 H 680.887 0.730367 0.279442 0
M  V30 7509 H 683.471 1.9449 0.0903486 0
M  V30 7510 H 681.642 3.11204 2.32393 0
M  V30 7511 H 683.374 3.35283 2.26644 0
M  V30 7512 H 680.129 4.67744 0.742469 0
M  V30 7513 H 680.553 6.70787 -0.915063 0
M  V30 7514 H 685.195 4.19372 0.537278 0
M  V30 7515 H 682.913 7.81646 -2.05074 0
M  V30 7516 H 686.499 5.75217 -0.872764 0
M  V30 7517 H 685.379 7.54182 -2.14893 0
M  V30 7518 N 682.882 -0.391992 1.52647 0
M  V30 7519 C 684.107 -1.16312 1.71716 0
M  V30 7520 C 684.532 -1.83042 0.433279 0
M  V30 7521 O 683.89 -1.70705 -0.610707 0
M  V30 7522 C 683.938 -2.18908 2.86551 0
M  V30 7523 O 683.042 -3.2543 2.53316 0
M  V30 7524 H 682.383 -0.338743 0.571095 0
M  V30 7525 H 684.913 -0.457202 1.99426 0
M  V30 7526 H 684.923 -2.62954 3.1196 0
M  V30 7527 H 683.598 -1.69726 3.79692 0
M  V30 7528 H 682.175 -2.86543 2.38637 0
M  V30 7529 N 684.36 -1.4356 -0.65026 0
M  V30 7530 C 685.585 -1.48995 -1.44275 0
M  V30 7531 C 686.01 -0.109954 -1.87778 0
M  V30 7532 O 685.368 0.896926 -1.57559 0
M  V30 7533 C 685.416 -2.44341 -2.65198 0
M  V30 7534 O 684.52 -1.93172 -3.6436 0
M  V30 7535 H 683.861 -0.503852 -0.432469 0
M  V30 7536 H 686.391 -1.88504 -0.795446 0
M  V30 7537 H 686.401 -2.61743 -3.12977 0
M  V30 7538 H 685.076 -3.44588 -2.32877 0
M  V30 7539 H 683.653 -1.85445 -3.23519 0
M  V30 7540 N 685.838 0.888903 -1.30139 0
M  V30 7541 C 687.085 1.64037 -1.18736 0
M  V30 7542 C 687.413 1.92771 0.258801 0
M  V30 7543 O 686.668 1.54427 1.20212 0
M  V30 7544 C 686.967 2.99041 -1.95728 0
M  V30 7545 C 686.633 2.89874 -3.45375 0
M  V30 7546 C 685.295 2.87082 -3.86183 0
M  V30 7547 C 687.647 2.78289 -4.40687 0
M  V30 7548 C 684.975 2.70536 -5.20603 0
M  V30 7549 C 687.327 2.63282 -5.75209 0
M  V30 7550 C 685.991 2.58861 -6.15262 0
M  V30 7551 H 685.261 0.600253 -0.434485 0
M  V30 7552 H 687.908 1.0338 -1.61198 0
M  V30 7553 H 686.213 3.63626 -1.45888 0
M  V30 7554 H 687.91 3.56139 -1.843 0
M  V30 7555 H 684.5 2.92856 -3.12943 0
M  V30 7556 H 688.684 2.79516 -4.10103 0
M  V30 7557 H 683.94 2.65526 -5.50732 0
M  V30 7558 H 688.114 2.5329 -6.48704 0
M  V30 7559 H 685.741 2.45799 -7.19366 0
M  V30 7560 N 687.317 1.12792 1.10072 0
M  V30 7561 C 688.728 0.899346 1.63611 0
M  V30 7562 C 689.079 -0.565547 1.87872 0
M  V30 7563 O 688.204 -1.43081 1.62348 0
M  V30 7564 C 688.799 1.62608 2.97227 0
M  V30 7565 C 687.358 1.44356 3.47618 0
M  V30 7566 C 686.505 1.65958 2.22156 0
M  V30 7567 H 689.456 1.28216 0.935223 0
M  V30 7568 H 689.477 1.0793 3.64872 0
M  V30 7569 H 688.989 2.69221 2.79538 0
M  V30 7570 H 687.09 0.400148 3.70445 0
M  V30 7571 H 687.203 2.20218 4.25489 0
M  V30 7572 H 685.567 1.08395 2.30484 0
M  V30 7573 H 686.35 2.73877 2.06993 0
M  V30 7574 N 688.795 -1.27931 0.920396 0
M  V30 7575 C 690.072 -1.89728 0.475687 0
M  V30 7576 C 690.452 -1.8337 -1.04588 0
M  V30 7577 O 689.8 -1.27404 -1.89685 0
M  V30 7578 C 690.01 -3.33959 1.01354 0
M  V30 7579 C 691.358 -4.10907 1.06963 0
M  V30 7580 O 692.382 -3.42945 0.962646 0
M  V30 7581 O 691.241 -5.32399 1.23343 0
M  V30 7582 H 688.335 -0.81294 0.151845 0
M  V30 7583 H 690.881 -1.36252 1.01161 0
M  V30 7584 H 689.653 -3.32843 2.05746 0
M  V30 7585 H 689.276 -3.94944 0.458829 0
M  V30 7586 N 690.273 -0.685099 -1.4193 0
M  V30 7587 C 691.183 -0.013404 -2.34596 0
M  V30 7588 C 692.199 0.777589 -1.55658 0
M  V30 7589 O 693.375 0.717553 -1.88184 0
M  V30 7590 C 690.44 0.919031 -3.34297 0
M  V30 7591 C 689.501 0.121417 -4.29128 0
M  V30 7592 C 688.734 1.00944 -5.24067 0
M  V30 7593 O 688.957 2.24898 -5.24192 0
M  V30 7594 O 687.891 0.464724 -6.00103 0
M  V30 7595 H 691.717 -0.776978 -2.93593 0
M  V30 7596 H 689.302 -0.445379 -1.42607 0
M  V30 7597 H 691.184 1.45402 -3.9552 0
M  V30 7598 H 689.859 1.66228 -2.77759 0
M  V30 7599 H 688.766 -0.45792 -3.71287 0
M  V30 7600 H 690.099 -0.582937 -4.88736 0
M  V30 7601 N 691.751 1.51645 -0.429126 0
M  V30 7602 C 692.681 2.30434 0.377148 0
M  V30 7603 C 693.662 1.35493 1.02838 0
M  V30 7604 O 694.847 1.6441 1.03359 0
M  V30 7605 C 691.977 3.14038 1.48315 0
M  V30 7606 C 690.931 4.1719 0.955855 0
M  V30 7607 C 690.257 4.89263 2.15698 0
M  V30 7608 C 691.557 5.223 -0.00402136 0
M  V30 7609 H 693.251 2.98085 -0.280336 0
M  V30 7610 H 690.797 1.43354 -0.136265 0
M  V30 7611 H 692.75 3.67933 2.05435 0
M  V30 7612 H 691.474 2.44193 2.16881 0
M  V30 7613 H 690.133 3.64335 0.406929 0
M  V30 7614 H 689.781 4.15929 2.82864 0
M  V30 7615 H 689.481 5.59009 1.81059 0
M  V30 7616 H 691.005 5.45978 2.73387 0
M  V30 7617 H 692.419 5.71315 0.476607 0
M  V30 7618 H 690.816 5.99525 -0.26258 0
M  V30 7619 H 691.886 4.75638 -0.943236 0
M  V30 7620 N 693.229 0.160201 1.56784 0
M  V30 7621 C 694.139 -0.787167 2.21 0
M  V30 7622 C 695.155 -1.26167 1.19825 0
M  V30 7623 O 696.331 -1.31611 1.52448 0
M  V30 7624 C 693.396 -2.00364 2.8294 0
M  V30 7625 C 692.457 -1.5771 3.99282 0
M  V30 7626 C 691.69 -2.73558 4.58259 0
M  V30 7627 O 691.913 -3.90129 4.16119 0
M  V30 7628 O 690.847 -2.48271 5.48311 0
M  V30 7629 H 694.673 -0.270462 3.02493 0
M  V30 7630 H 692.258 -0.0674666 1.49248 0
M  V30 7631 H 694.14 -2.71529 3.22257 0
M  V30 7632 H 692.815 -2.50961 2.04451 0
M  V30 7633 H 691.722 -0.835274 3.64656 0
M  V30 7634 H 693.055 -1.11815 4.79331 0
M  V30 7635 N 694.707 -1.5719 -0.113559 0
M  V30 7636 C 695.617 -2.04041 -1.15777 0
M  V30 7637 C 696.633 -0.961812 -1.45001 0
M  V30 7638 O 697.809 -1.2737 -1.56009 0
M  V30 7639 C 694.874 -2.43994 -2.46308 0
M  V30 7640 C 693.935 -3.65962 -2.24433 0
M  V30 7641 C 693.168 -4.04 -3.4874 0
M  V30 7642 O 693.391 -3.42321 -4.56259 0
M  V30 7643 O 692.325 -4.97069 -3.3942 0
M  V30 7644 H 696.151 -2.93248 -0.789899 0
M  V30 7645 H 693.736 -1.45828 -0.324748 0
M  V30 7646 H 695.618 -2.70401 -3.23204 0
M  V30 7647 H 694.293 -1.57932 -2.82558 0
M  V30 7648 H 693.2 -3.44697 -1.45377 0
M  V30 7649 H 694.533 -4.52746 -1.93084 0
M  V30 7650 N 696.185 0.383891 -1.52853 0
M  V30 7651 C 697.118 1.49105 -1.72751 0
M  V30 7652 C 698.096 1.52077 -0.575438 0
M  V30 7653 O 699.28 1.70406 -0.805854 0
M  V30 7654 C 696.407 2.87551 -1.78975 0
M  V30 7655 C 695.453 3.02383 -3.00777 0
M  V30 7656 S 696.286 2.73048 -4.60657 0
M  V30 7657 C 697.442 4.13678 -4.69704 0
M  V30 7658 H 697.675 1.32002 -2.66388 0
M  V30 7659 H 695.208 0.577088 -1.4321 0
M  V30 7660 H 697.166 3.6733 -1.83246 0
M  V30 7661 H 695.827 3.01977 -0.864215 0
M  V30 7662 H 695.02 4.03733 -3.01688 0
M  V30 7663 H 694.622 2.30504 -2.94523 0
M  V30 7664 H 696.914 5.07676 -4.48633 0
M  V30 7665 H 697.857 4.1778 -5.71721 0
M  V30 7666 H 698.265 3.99825 -3.98497 0
M  V30 7667 N 697.663 1.43903 0.642637 0
M  V30 7668 C 698.593 1.52697 1.76652 0
M  V30 7669 C 699.574 0.380816 1.65782 0
M  V30 7670 O 700.759 0.599432 1.84717 0
M  V30 7671 C 697.889 1.45975 3.15133 0
M  V30 7672 C 696.843 2.58949 3.40778 0
M  V30 7673 C 696.169 2.37279 4.79169 0
M  V30 7674 C 697.469 4.01153 3.34475 0
M  V30 7675 H 699.163 2.46766 1.69549 0
M  V30 7676 H 696.709 1.18767 0.814279 0
M  V30 7677 H 698.662 1.5073 3.93521 0
M  V30 7678 H 697.386 0.484162 3.22991 0
M  V30 7679 H 696.045 2.53564 2.64765 0
M  V30 7680 H 695.693 1.37939 4.83717 0
M  V30 7681 H 695.393 3.13016 4.97287 0
M  V30 7682 H 696.917 2.43834 5.59801 0
M  V30 7683 H 698.331 4.07968 4.02784 0
M  V30 7684 H 696.728 4.77001 3.64129 0
M  V30 7685 H 697.798 4.25539 2.32475 0
M  V30 7686 N 699.141 -0.881989 1.30609 0
M  V30 7687 C 700.089 -2.00942 1.17155 0
M  V30 7688 C 701.083 -1.69198 0.0827154 0
M  V30 7689 O 702.289 -1.78342 0.243775 0
M  V30 7690 H 698.664 -0.658913 0.362406 0
M  V30 7691 H 700.635 -2.09423 2.12567 0
M  V30 7692 C 699.384 -3.36294 0.883273 0
M  V30 7693 H 698.707 -3.61233 1.7132 0
M  V30 7694 H 700.147 -4.15812 0.829255 0
M  V30 7695 C 698.606 -3.34348 -0.413851 0
M  V30 7696 O 699.136 -3.75216 -1.43444 0
M  V30 7697 N 697.342 -2.87459 -0.426082 0
M  V30 7698 H 696.889 -2.54397 0.40493 0
M  V30 7699 H 696.847 -2.8654 -1.29391 0
M  V30 7700 N 700.619 -1.13374 -1.09472 0
M  V30 7701 C 702.03 -0.90801 -1.63132 0
M  V30 7702 C 702.381 0.555576 -1.8817 0
M  V30 7703 O 701.506 1.42218 -1.63104 0
M  V30 7704 C 702.101 -1.64182 -2.96361 0
M  V30 7705 C 700.66 -1.46197 -3.46848 0
M  V30 7706 C 699.807 -1.67134 -2.21273 0
M  V30 7707 H 702.758 -1.2871 -0.928411 0
M  V30 7708 H 702.779 -1.09863 -3.64294 0
M  V30 7709 H 702.291 -2.707 -2.78106 0
M  V30 7710 H 700.392 -0.419788 -3.70228 0
M  V30 7711 H 700.505 -2.22472 -4.24315 0
M  V30 7712 H 698.869 -1.09616 -2.29905 0
M  V30 7713 H 699.652 -2.74971 -2.05538 0
M  V30 7714 N 702.098 1.27442 -0.927168 0
M  V30 7715 C 703.031 2.25177 -0.370232 0
M  V30 7716 C 704.009 1.53612 0.533103 0
M  V30 7717 O 705.193 1.8245 0.47373 0
M  V30 7718 C 702.32 3.35431 0.469411 0
M  V30 7719 C 701.366 4.24888 -0.370419 0
M  V30 7720 S 702.199 5.04852 -1.78562 0
M  V30 7721 C 703.355 6.18592 -0.953651 0
M  V30 7722 H 703.588 2.72069 -1.19858 0
M  V30 7723 H 701.121 1.36089 -0.729316 0
M  V30 7724 H 703.079 3.99404 0.947992 0
M  V30 7725 H 701.74 2.87179 1.27228 0
M  V30 7726 H 700.933 5.03264 0.272226 0
M  V30 7727 H 700.535 3.65709 -0.783153 0
M  V30 7728 H 702.827 6.77235 -0.189408 0
M  V30 7729 H 703.77 6.87132 -1.7104 0
M  V30 7730 H 704.178 5.62318 -0.495897 0
M  V30 7731 N 703.576 0.692616 1.41565 0
M  V30 7732 C 704.824 0.221896 2.00878 0
M  V30 7733 C 705.145 -1.18164 1.5512 0
M  V30 7734 O 704.415 -1.79679 0.78054 0
M  V30 7735 H 702.995 0.0790463 0.742806 0
M  V30 7736 H 705.657 0.893115 1.73232 0
M  V30 7737 H 704.753 0.23702 3.11199 0
M  V30 7738 N 705.054 -1.51416 0.437162 0
M  V30 7739 C 706.282 -2.06503 -0.128045 0
M  V30 7740 C 706.697 -1.30461 -1.36475 0
M  V30 7741 O 706.054 -0.364127 -1.78831 0
M  V30 7742 C 706.105 -3.58683 -0.450437 0
M  V30 7743 O 705.826 -4.31853 0.737186 0
M  V30 7744 C 707.327 -4.30284 -1.06633 0
M  V30 7745 H 704.547 -0.670952 -0.00800269 0
M  V30 7746 H 707.091 -1.94996 0.616193 0
M  V30 7747 H 705.246 -3.70106 -1.14457 0
M  V30 7748 H 705.66 -5.22467 0.461347 0
M  V30 7749 H 707.134 -5.37848 -1.24191 0
M  V30 7750 H 707.611 -3.88564 -2.0473 0
M  V30 7751 H 708.217 -4.23304 -0.411585 0
M  V30 7752 N 706.532 -0.168513 -1.56696 0
M  V30 7753 C 707.778 0.477865 -1.9709 0
M  V30 7754 C 708.111 1.63084 -1.05438 0
M  V30 7755 O 707.386 1.94238 -0.10095 0
M  V30 7756 C 707.669 0.963521 -3.4697 0
M  V30 7757 C 707.522 -0.189443 -4.49401 0
M  V30 7758 C 708.841 1.83813 -3.99876 0
M  V30 7759 H 705.96 0.172229 -0.716593 0
M  V30 7760 H 708.602 -0.254083 -1.88293 0
M  V30 7761 H 706.752 1.58724 -3.54597 0
M  V30 7762 H 708.424 -0.826451 -4.53836 0
M  V30 7763 H 706.667 -0.845366 -4.25483 0
M  V30 7764 H 707.338 0.192446 -5.51664 0
M  V30 7765 H 709.814 1.31235 -3.94863 0
M  V30 7766 H 708.69 2.14697 -5.0517 0
M  V30 7767 H 708.951 2.78289 -3.43523 0
M  V30 7768 N 708.01 1.57248 0.105221 0
M  V30 7769 C 708.942 1.98008 1.15436 0
M  V30 7770 C 709.955 0.881236 1.36887 0
M  V30 7771 O 711.144 1.15943 1.35718 0
M  V30 7772 C 708.244 2.27509 2.51183 0
M  V30 7773 C 707.417 3.58811 2.50147 0
M  V30 7774 C 706.476 3.76365 3.67745 0
M  V30 7775 O 705.502 4.48329 3.50699 0
M  V30 7776 N 706.704 3.16174 4.86841 0
M  V30 7777 H 709.469 2.88616 0.807519 0
M  V30 7778 H 707.03 1.59202 0.29433 0
M  V30 7779 H 709.022 2.36455 3.28438 0
M  V30 7780 H 707.592 1.42959 2.77995 0
M  V30 7781 H 706.812 3.60927 1.5851 0
M  V30 7782 H 708.1 4.45088 2.46524 0
M  V30 7783 H 707.498 2.57701 5.03594 0
M  V30 7784 H 706.055 3.30621 5.61723 0
M  V30 7785 N 709.488 -0.375779 1.53054 0
M  V30 7786 C 710.716 -1.14036 1.72637 0
M  V30 7787 C 711.131 -1.83342 0.450687 0
M  V30 7788 O 710.488 -1.7318 -0.575749 0
M  V30 7789 C 710.539 -2.17841 2.88492 0
M  V30 7790 O 710.26 -1.51358 4.11123 0
M  V30 7791 C 711.761 -3.06924 3.19863 0
M  V30 7792 H 708.981 -0.341386 0.577665 0
M  V30 7793 H 711.525 -0.437809 1.99759 0
M  V30 7794 H 709.68 -2.8371 2.63794 0
M  V30 7795 H 710.094 -2.20439 4.75928 0
M  V30 7796 H 711.568 -3.75763 4.04359 0
M  V30 7797 H 712.045 -3.71169 2.34798 0
M  V30 7798 H 712.651 -2.46684 3.46449 0
M  V30 7799 N 710.966 -1.44241 -0.634997 0
M  V30 7800 C 711.914 -1.51103 -1.76835 0
M  V30 7801 C 712.908 -0.383051 -1.65012 0
M  V30 7802 O 714.114 -0.557832 -1.71138 0
M  V30 7803 H 710.489 -0.474076 -0.583743 0
M  V30 7804 H 712.46 -2.46499 -1.68169 0
M  V30 7805 C 711.209 -1.4687 -3.15158 0
M  V30 7806 H 710.532 -2.32979 -3.24901 0
M  V30 7807 H 711.972 -1.55731 -3.94365 0
M  V30 7808 C 710.431 -0.188884 -3.3637 0
M  V30 7809 O 710.961 0.742487 -3.94778 0
M  V30 7810 N 709.167 -0.0932516 -2.9045 0
M  V30 7811 H 708.714 -0.852004 -2.43102 0
M  V30 7812 H 708.672 0.762308 -3.05018 0
M  V30 7813 N 712.444 0.87505 -1.31075 0
M  V30 7814 C 713.855 1.4433 -1.18431 0
M  V30 7815 C 714.206 1.9506 0.211189 0
M  V30 7816 O 713.331 1.85847 1.10859 0
M  V30 7817 C 713.926 2.62341 -2.14389 0
M  V30 7818 C 712.485 3.15225 -2.05694 0
M  V30 7819 C 711.632 1.87929 -2.03907 0
M  V30 7820 H 714.583 0.684061 -1.432 0
M  V30 7821 H 714.604 3.3887 -1.73053 0
M  V30 7822 H 714.116 2.25388 -3.15946 0
M  V30 7823 H 712.217 3.56812 -1.07314 0
M  V30 7824 H 712.33 3.77853 -2.94558 0
M  V30 7825 H 710.694 2.06679 -1.48849 0
M  V30 7826 H 711.477 1.53221 -3.07211 0
M  V30 7827 N 713.922 1.13953 1.08869 0
M  V30 7828 C 715.152 0.926825 1.84644 0
M  V30 7829 C 715.56 -0.527941 1.81685 0
M  V30 7830 O 714.903 -1.37742 1.21543 0
M  V30 7831 C 714.965 1.34416 3.33426 0
M  V30 7832 C 714.629 2.81351 3.60126 0
M  V30 7833 C 715.626 3.79486 3.55368 0
M  V30 7834 C 713.311 3.1865 3.88288 0
M  V30 7835 C 715.305 5.1293 3.78393 0
M  V30 7836 C 712.992 4.5227 4.10968 0
M  V30 7837 C 713.99 5.4922 4.06013 0
M  V30 7838 O 713.678 6.80429 4.28102 0
M  V30 7839 H 713.41 0.33013 0.589907 0
M  V30 7840 H 715.964 1.51738 1.38436 0
M  V30 7841 H 714.194 0.696901 3.80368 0
M  V30 7842 H 715.883 1.10302 3.90626 0
M  V30 7843 H 716.649 3.52017 3.3363 0
M  V30 7844 H 712.528 2.43785 3.91267 0
M  V30 7845 H 716.072 5.88591 3.74442 0
M  V30 7846 H 711.969 4.79462 4.32188 0
M  V30 7847 H 712.737 6.86617 4.45533 0
M  V30 7848 N 715.4 -1.26948 0.933913 0
M  V30 7849 C 716.628 -1.98186 0.59414 0
M  V30 7850 C 717.043 -1.69614 -0.829257 0
M  V30 7851 O 716.4 -0.960213 -1.55197 0
M  V30 7852 C 716.451 -3.52123 0.818026 0
M  V30 7853 O 716.172 -3.79698 2.18543 0
M  V30 7854 C 717.673 -4.40608 0.48781 0
M  V30 7855 H 714.893 -0.632305 0.224569 0
M  V30 7856 H 717.437 -1.61646 1.25263 0
M  V30 7857 H 715.592 -3.86851 0.206246 0
M  V30 7858 H 716.006 -4.7426 2.24005 0
M  V30 7859 H 717.48 -5.47606 0.695126 0
M  V30 7860 H 717.957 -4.35394 -0.576913 0
M  V30 7861 H 718.563 -4.11411 1.078 0
M  V30 7862 N 716.879 -0.700114 -1.41195 0
M  V30 7863 C 717.789 -0.0382854 -2.34569 0
M  V30 7864 C 718.805 0.761036 -1.56474 0
M  V30 7865 O 719.981 0.697553 -1.88934 0
M  V30 7866 C 717.046 0.883522 -3.35253 0
M  V30 7867 C 716.107 0.0758957 -4.29233 0
M  V30 7868 C 715.34 0.9538 -5.25108 0
M  V30 7869 O 715.563 2.19326 -5.26547 0
M  V30 7870 O 714.497 0.401049 -6.00562 0
M  V30 7871 H 718.323 -0.808073 -2.92752 0
M  V30 7872 H 715.908 -0.460479 -1.42127 0
M  V30 7873 H 717.79 1.41199 -3.9704 0
M  V30 7874 H 716.465 1.63272 -2.79506 0
M  V30 7875 H 715.372 -0.497274 -3.7078 0
M  V30 7876 H 716.705 -0.634741 -4.8809 0
M  V30 7877 N 718.357 1.51182 -0.445186 0
M  V30 7878 C 719.305 2.29531 0.376597 0
M  V30 7879 C 720.299 1.35711 1.01385 0
M  V30 7880 O 721.505 1.53018 0.947922 0
M  V30 7881 H 717.88 0.738803 0.140267 0
M  V30 7882 H 719.851 2.96838 -0.304958 0
M  V30 7883 C 718.6 3.1552 1.4609 0
M  V30 7884 H 717.923 3.87605 0.979912 0
M  V30 7885 H 719.363 3.73384 2.009 0
M  V30 7886 C 717.822 2.31406 2.44852 0
M  V30 7887 O 718.352 1.97912 3.49562 0
M  V30 7888 N 716.558 1.94478 2.15932 0
M  V30 7889 H 716.105 2.21917 1.30808 0
M  V30 7890 H 716.063 1.38498 2.82251 0
M  V30 7891 N 719.835 0.176821 1.56605 0
M  V30 7892 C 720.798 -0.737429 2.17013 0
M  V30 7893 C 721.798 -1.15414 1.11965 0
M  V30 7894 O 722.988 -1.0702 1.37449 0
M  V30 7895 C 720.12 -2.00445 2.75744 0
M  V30 7896 H 721.313 -0.211455 2.99154 0
M  V30 7897 H 718.866 -0.0727582 1.56131 0
M  V30 7898 H 719.601 -2.57338 1.97352 0
M  V30 7899 H 719.386 -1.71456 3.52626 0
M  V30 7900 H 720.876 -2.65679 3.22187 0
M  V30 7901 N 721.313 -1.57302 -0.09688 0
M  V30 7902 C 722.541 -1.90202 -0.814295 0
M  V30 7903 C 722.956 -0.770344 -1.72369 0
M  V30 7904 O 722.313 0.257764 -1.8067 0
M  V30 7905 C 722.364 -3.22708 -1.62916 0
M  V30 7906 O 722.085 -4.31522 -0.756343 0
M  V30 7907 C 723.586 -3.69459 -2.44979 0
M  V30 7908 H 720.806 -0.629275 -0.232925 0
M  V30 7909 H 723.35 -2.04364 -0.0746482 0
M  V30 7910 H 721.505 -3.1015 -2.32133 0
M  V30 7911 H 721.919 -5.07604 -1.32054 0
M  V30 7912 H 723.393 -4.64875 -2.9765 0
M  V30 7913 H 723.87 -2.97211 -3.23361 0
M  V30 7914 H 724.476 -3.84879 -1.80964 0
M  V30 7915 N 722.791 0.367657 -1.53252 0
M  V30 7916 C 723.754 1.43308 -1.78873 0
M  V30 7917 C 724.754 1.46671 -0.659115 0
M  V30 7918 O 725.944 1.47468 -0.927306 0
M  V30 7919 C 723.076 2.82442 -1.90892 0
M  V30 7920 H 724.269 1.21864 -2.74024 0
M  V30 7921 H 721.822 0.600668 -1.44297 0
M  V30 7922 H 722.557 3.09202 -0.978 0
M  V30 7923 H 722.342 2.81399 -2.73051 0
M  V30 7924 H 723.832 3.59601 -2.12314 0
M  V30 7925 N 724.269 1.44576 0.627338 0
M  V30 7926 C 725.199 1.54562 1.75022 0
M  V30 7927 C 726.18 0.398378 1.65369 0
M  V30 7928 O 727.365 0.61899 1.84071 0
M  V30 7929 C 724.495 1.49309 3.13567 0
M  V30 7930 C 723.449 2.62549 3.38012 0
M  V30 7931 C 722.775 2.42348 4.76625 0
M  V30 7932 C 724.075 4.04678 3.30202 0
M  V30 7933 H 725.769 2.4855 1.66922 0
M  V30 7934 H 723.315 1.19624 0.801636 0
M  V30 7935 H 725.268 1.54895 3.919 0
M  V30 7936 H 723.992 0.518392 3.2246 0
M  V30 7937 H 722.651 2.56358 2.62061 0
M  V30 7938 H 722.299 1.43062 4.82226 0
M  V30 7939 H 721.999 3.18273 4.93939 0
M  V30 7940 H 723.523 2.49758 5.57183 0
M  V30 7941 H 724.937 4.12217 3.98435 0
M  V30 7942 H 723.334 4.80836 3.5905 0
M  V30 7943 H 724.404 4.2798 2.27949 0
M  V30 7944 N 725.747 -0.868086 1.31537 0
M  V30 7945 C 726.697 -1.96321 1.1594 0
M  V30 7946 C 727.681 -1.60748 0.0698962 0
M  V30 7947 O 728.873 -1.74524 0.295011 0
M  V30 7948 C 726.002 -3.32073 0.870789 0
M  V30 7949 C 725.088 -3.73907 2.00136 0
M  V30 7950 N 725.479 -3.87685 3.24859 0
M  V30 7951 C 723.777 -4.03433 1.90152 0
M  V30 7952 C 724.478 -4.23454 3.98825 0
M  V30 7953 N 723.454 -4.34242 3.27009 0
M  V30 7954 H 727.256 -2.05088 2.10514 0
M  V30 7955 H 724.77 -1.059 1.23122 0
M  V30 7956 H 726.767 -4.10279 0.740034 0
M  V30 7957 H 725.427 -3.24631 -0.0667068 0
M  V30 7958 H 726.438 -3.72363 3.59953 0
M  V30 7959 H 723.115 -4.0437 1.03879 0
M  V30 7960 H 724.505 -4.41696 5.06314 0
M  V30 7961 N 727.225 -1.14528 -1.08264 0
M  V30 7962 C 728.471 -0.91576 -1.80947 0
M  V30 7963 C 728.804 0.55623 -1.86064 0
M  V30 7964 O 728.079 1.41207 -1.33756 0
M  V30 7965 C 728.362 -1.51917 -3.26486 0
M  V30 7966 C 728.215 -3.06111 -3.2957 0
M  V30 7967 C 729.534 -1.19724 -4.23502 0
M  V30 7968 H 726.653 -0.334113 -0.656915 0
M  V30 7969 H 729.295 -1.41547 -1.26746 0
M  V30 7970 H 727.445 -1.0942 -3.72773 0
M  V30 7971 H 729.117 -3.57448 -2.91597 0
M  V30 7972 H 727.36 -3.40483 -2.688 0
M  V30 7973 H 728.031 -3.43438 -4.32151 0
M  V30 7974 H 730.507 -1.56467 -3.85561 0
M  V30 7975 H 729.383 -1.64575 -5.23647 0
M  V30 7976 H 729.644 -0.112771 -4.41956 0
M  V30 7977 N 728.703 1.26451 -0.940633 0
M  V30 7978 C 729.65 2.264 -0.448497 0
M  V30 7979 C 730.62 1.5866 0.491546 0
M  V30 7980 O 731.805 1.86389 0.407874 0
M  V30 7981 C 728.945 3.43956 0.280715 0
M  V30 7982 C 728.058 4.26374 -0.694937 0
M  V30 7983 C 727.193 5.31171 0.0554186 0
M  V30 7984 C 726.232 6.05266 -0.912091 0
M  V30 7985 N 725.369 7.01833 -0.193524 0
M  V30 7986 H 730.209 2.67869 -1.30576 0
M  V30 7987 H 727.746 1.31707 -0.655112 0
M  V30 7988 H 729.704 4.10941 0.71994 0
M  V30 7989 H 728.334 3.03403 1.10212 0
M  V30 7990 H 727.386 3.59183 -1.25267 0
M  V30 7991 H 728.698 4.77748 -1.43382 0
M  V30 7992 H 727.852 6.04166 0.553951 0
M  V30 7993 H 726.591 4.80634 0.827183 0
M  V30 7994 H 725.596 5.31099 -1.42175 0
M  V30 7995 H 726.821 6.57893 -1.68385 0
M  V30 7996 H 724.767 6.53607 0.559758 0
M  V30 7997 H 724.684 7.50957 -0.871744 0
M  V30 7998 H 725.952 7.78983 0.283932 0
M  V30 7999 N 730.181 0.707592 1.40822 0
M  V30 8000 C 731.428 0.243671 2.01029 0
M  V30 8001 C 731.756 -1.16057 1.5608 0
M  V30 8002 O 731.011 -1.7999 0.768251 0
M  V30 8003 C 731.31 0.262892 3.56432 0
M  V30 8004 C 730.976 1.61632 4.20935 0
M  V30 8005 C 729.638 1.98682 4.38268 0
M  V30 8006 C 731.99 2.50619 4.5699 0
M  V30 8007 C 729.318 3.2428 4.88937 0
M  V30 8008 C 731.67 3.75562 5.09054 0
M  V30 8009 C 730.334 4.12739 5.24598 0
M  V30 8010 H 729.604 0.0891654 0.735616 0
M  V30 8011 H 732.251 0.909051 1.68548 0
M  V30 8012 H 730.556 -0.486052 3.88773 0
M  V30 8013 H 732.253 -0.113775 4.00839 0
M  V30 8014 H 728.843 1.31818 4.07826 0
M  V30 8015 H 733.027 2.23272 4.43242 0
M  V30 8016 H 728.283 3.53064 4.99155 0
M  V30 8017 H 732.457 4.44692 5.35931 0
M  V30 8018 H 730.084 5.10132 5.63622 0
M  V30 8019 N 731.66 -1.50943 0.453197 0
M  V30 8020 C 733.071 -1.86699 -0.00619892 0
M  V30 8021 C 733.422 -1.3693 -1.40515 0
M  V30 8022 O 732.547 -0.726715 -2.03833 0
M  V30 8023 C 733.142 -3.38795 -0.018025 0
M  V30 8024 C 731.701 -3.74028 -0.421885 0
M  V30 8025 C 730.848 -2.74752 0.375087 0
M  V30 8026 H 733.799 -1.43942 0.668317 0
M  V30 8027 H 733.82 -3.71468 -0.824125 0
M  V30 8028 H 733.332 -3.74988 1.00028 0
M  V30 8029 H 731.433 -3.43431 -1.44521 0
M  V30 8030 H 731.546 -4.78908 -0.135664 0
M  V30 8031 H 729.91 -2.5414 -0.168794 0
M  V30 8032 H 730.693 -3.13787 1.39256 0
M  V30 8033 N 733.138 -0.185124 -1.56509 0
M  V30 8034 C 734.048 0.751908 -2.22224 0
M  V30 8035 C 735.064 1.24244 -1.21817 0
M  V30 8036 O 736.24 1.29169 -1.54523 0
M  V30 8037 C 733.305 1.95837 -2.86092 0
M  V30 8038 C 732.366 1.51337 -4.01741 0
M  V30 8039 C 731.599 2.66233 -4.62554 0
M  V30 8040 O 731.822 3.8346 -4.22273 0
M  V30 8041 O 730.756 2.39517 -5.52191 0
M  V30 8042 H 734.582 0.222304 -3.02885 0
M  V30 8043 H 732.167 0.0437141 -1.49336 0
M  V30 8044 H 734.049 2.66368 -3.26536 0
M  V30 8045 H 732.724 2.47677 -2.08417 0
M  V30 8046 H 731.631 0.777155 -3.65939 0
M  V30 8047 H 732.964 1.04175 -4.81049 0
M  V30 8048 N 734.616 1.57351 0.0885366 0
M  V30 8049 C 735.564 2.03542 1.12576 0
M  V30 8050 C 736.558 0.937668 1.41082 0
M  V30 8051 O 737.764 1.12283 1.40686 0
M  V30 8052 H 734.139 0.648752 0.380296 0
M  V30 8053 H 736.11 2.89833 0.709906 0
M  V30 8054 C 734.859 2.4811 2.43591 0
M  V30 8055 H 734.182 3.32164 2.22502 0
M  V30 8056 H 735.622 2.842 3.14653 0
M  V30 8057 C 734.081 1.35708 3.08359 0
M  V30 8058 O 734.611 0.689852 3.95732 0
M  V30 8059 N 732.817 1.10641 2.68713 0
M  V30 8060 H 732.364 1.6508 1.97753 0
M  V30 8061 H 732.322 0.356355 3.12374 0
M  V30 8062 N 736.094 -0.359525 1.53444 0
M  V30 8063 C 737.041 -1.44073 1.8031 0
M  V30 8064 C 738.011 -1.52946 0.647811 0
M  V30 8065 O 739.196 -1.68739 0.890614 0
M  V30 8066 C 736.336 -2.80941 2.00416 0
M  V30 8067 C 735.449 -2.80986 3.28132 0
M  V30 8068 C 734.584 -4.09468 3.38393 0
M  V30 8069 C 733.623 -4.03679 4.60119 0
M  V30 8070 N 732.76 -5.23821 4.675 0
M  V30 8071 H 737.6 -1.20464 2.72566 0
M  V30 8072 H 735.137 -0.583859 1.35017 0
M  V30 8073 H 737.095 -3.60459 2.1006 0
M  V30 8074 H 735.725 -3.02936 1.11489 0
M  V30 8075 H 734.777 -1.93666 3.27411 0
M  V30 8076 H 736.089 -2.72583 4.17732 0
M  V30 8077 H 735.243 -4.97404 3.47382 0
M  V30 8078 H 733.982 -4.20632 2.4682 0
M  V30 8079 H 732.987 -3.14129 4.51224 0
M  V30 8080 H 734.212 -3.94112 5.5304 0
M  V30 8081 H 732.158 -5.35559 3.7883 0
M  V30 8082 H 732.075 -5.17611 5.51013 0
M  V30 8083 H 733.343 -6.13572 4.8078 0
M  V30 8084 N 737.572 -1.44907 -0.619662 0
M  V30 8085 C 738.519 -1.52654 -1.73105 0
M  V30 8086 C 739.489 -0.373334 -1.6185 0
M  V30 8087 O 740.674 -0.585143 -1.81606 0
M  V30 8088 C 737.814 -1.48769 -3.11387 0
M  V30 8089 C 736.927 -2.74551 -3.33535 0
M  V30 8090 C 736.062 -2.62421 -4.61854 0
M  V30 8091 C 735.101 -3.83312 -4.77219 0
M  V30 8092 N 734.238 -3.69789 -5.96826 0
M  V30 8093 H 739.078 -2.47605 -1.65819 0
M  V30 8094 H 736.615 -1.22875 -0.808719 0
M  V30 8095 H 738.573 -1.44507 -3.91374 0
M  V30 8096 H 737.203 -0.573783 -3.1766 0
M  V30 8097 H 736.255 -2.88953 -2.47408 0
M  V30 8098 H 737.567 -3.64253 -3.40765 0
M  V30 8099 H 736.721 -2.56056 -5.50019 0
M  V30 8100 H 735.46 -1.70298 -4.57001 0
M  V30 8101 H 734.465 -3.90049 -3.87481 0
M  V30 8102 H 735.69 -4.76486 -4.83878 0
M  V30 8103 H 733.636 -2.80426 -5.93041 0
M  V30 8104 H 733.553 -4.53116 -6.05163 0
M  V30 8105 H 734.821 -3.67335 -6.87521 0
M  V30 8106 N 739.05 0.861098 -1.31996 0
M  V30 8107 C 739.982 1.97551 -1.16216 0
M  V30 8108 C 740.995 1.625 -0.0988527 0
M  V30 8109 O 742.184 1.75091 -0.3472 0
M  V30 8110 C 739.284 3.30376 -0.755307 0
M  V30 8111 C 738.457 3.93711 -1.90552 0
M  V30 8112 C 737.516 5.04862 -1.48328 0
M  V30 8113 O 736.542 5.25204 -2.19431 0
M  V30 8114 N 737.744 5.79283 -0.375656 0
M  V30 8115 H 740.509 2.11632 -2.12208 0
M  V30 8116 H 738.07 1.03559 -1.24448 0
M  V30 8117 H 740.062 4.0213 -0.455364 0
M  V30 8118 H 738.632 3.12395 0.113269 0
M  V30 8119 H 737.852 3.14825 -2.37231 0
M  V30 8120 H 739.14 4.32762 -2.67571 0
M  V30 8121 H 738.538 5.65286 0.216284 0
M  V30 8122 H 737.095 6.5166 -0.135289 0
M  V30 8123 N 740.528 1.15101 1.07655 0
M  V30 8124 C 741.939 0.933848 1.61667 0
M  V30 8125 C 742.29 -0.525569 1.8903 0
M  V30 8126 O 741.415 -1.39605 1.65346 0
M  V30 8127 C 742.01 1.68876 2.93711 0
M  V30 8128 C 740.569 1.51697 3.44478 0
M  V30 8129 C 739.716 1.70633 2.18586 0
M  V30 8130 H 742.667 1.30171 0.907816 0
M  V30 8131 H 742.688 1.15645 3.625 0
M  V30 8132 H 742.2 2.7509 2.73764 0
M  V30 8133 H 740.301 0.478635 3.69513 0
M  V30 8134 H 740.414 2.29194 4.20722 0
M  V30 8135 H 738.778 1.13259 2.28132 0
M  V30 8136 H 739.561 2.78206 2.01137 0
M  V30 8137 N 742.006 -1.2595 0.947325 0
M  V30 8138 C 743.236 -1.97258 0.614235 0
M  V30 8139 C 743.644 -1.70682 -0.816355 0
M  V30 8140 O 742.987 -0.97527 -1.55673 0
M  V30 8141 C 743.049 -3.50845 0.784081 0
M  V30 8142 C 742.713 -4.01084 2.19045 0
M  V30 8143 C 743.71 -4.12347 3.16648 0
M  V30 8144 C 741.395 -4.34936 2.51268 0
M  V30 8145 C 743.389 -4.56766 4.44572 0
M  V30 8146 C 741.076 -4.79043 3.79422 0
M  V30 8147 C 742.074 -4.89919 4.75887 0
M  V30 8148 O 741.762 -5.3305 6.01758 0
M  V30 8149 H 741.494 -0.635738 0.22981 0
M  V30 8150 H 744.048 -1.61268 1.27207 0
M  V30 8151 H 742.278 -3.86638 0.069101 0
M  V30 8152 H 743.967 -4.03363 0.453135 0
M  V30 8153 H 744.733 -3.86432 2.93079 0
M  V30 8154 H 740.612 -4.25702 1.76916 0
M  V30 8155 H 744.156 -4.6517 5.19868 0
M  V30 8156 H 740.053 -5.04402 4.02802 0
M  V30 8157 H 740.821 -5.51255 6.05029 0
M  V30 8158 N 743.484 -0.715051 -1.40445 0
M  V30 8159 C 744.714 -0.263576 -2.04912 0
M  V30 8160 C 745.122 1.09943 -1.53978 0
M  V30 8161 O 744.465 1.70203 -0.691133 0
M  V30 8162 C 744.527 -0.165048 -3.59121 0
M  V30 8163 C 744.191 -1.46325 -4.32941 0
M  V30 8164 C 745.188 -2.40506 -4.60926 0
M  V30 8165 C 742.873 -1.72203 -4.7186 0
M  V30 8166 C 744.867 -3.58812 -5.26814 0
M  V30 8167 C 742.554 -2.9079 -5.3748 0
M  V30 8168 C 743.552 -3.83917 -5.64887 0
M  V30 8169 O 743.24 -5.00424 -6.29151 0
M  V30 8170 H 742.972 -0.116317 -0.665918 0
M  V30 8171 H 745.526 -0.973774 -1.8085 0
M  V30 8172 H 743.756 0.601088 -3.82 0
M  V30 8173 H 745.445 0.251794 -4.05118 0
M  V30 8174 H 746.211 -2.21778 -4.31323 0
M  V30 8175 H 742.09 -1.00571 -4.49896 0
M  V30 8176 H 745.634 -4.31517 -5.48123 0
M  V30 8177 H 741.531 -3.09428 -5.66502 0
M  V30 8178 H 742.299 -5.00494 -6.47648 0
M  V30 8179 N 744.962 1.50701 -0.461195 0
M  V30 8180 C 746.192 2.06381 0.0950376 0
M  V30 8181 C 746.6 1.32627 1.34933 0
M  V30 8182 O 745.943 0.386137 1.79596 0
M  V30 8183 C 746.005 3.56558 0.458965 0
M  V30 8184 C 745.669 4.51732 -0.691891 0
M  V30 8185 C 746.666 4.95594 -1.57105 0
M  V30 8186 C 744.351 4.94542 -0.879407 0
M  V30 8187 C 746.345 5.80963 -2.62223 0
M  V30 8188 C 744.032 5.79695 -1.93382 0
M  V30 8189 C 745.03 6.22806 -2.80359 0
M  V30 8190 O 744.718 7.06265 -3.83986 0
M  V30 8191 H 744.45 0.676 0.000687488 0
M  V30 8192 H 747.004 1.94974 -0.646087 0
M  V30 8193 H 745.234 3.65832 1.25314 0
M  V30 8194 H 746.923 3.94647 0.949124 0
M  V30 8195 H 747.689 4.63197 -1.43783 0
M  V30 8196 H 743.568 4.60513 -0.211907 0
M  V30 8197 H 747.112 6.14533 -3.30143 0
M  V30 8198 H 743.009 6.11506 -2.06715 0
M  V30 8199 H 743.777 7.24494 -3.80855 0
M  V30 8200 N 746.441 0.193421 1.56409 0
M  V30 8201 C 747.852 -0.319471 1.83946 0
M  V30 8202 C 748.203 -1.61505 1.11403 0
M  V30 8203 O 747.328 -2.13139 0.374289 0
M  V30 8204 C 747.923 -0.586411 3.33686 0
M  V30 8205 C 746.482 -1.04368 3.61641 0
M  V30 8206 C 745.629 -0.0913834 2.77149 0
M  V30 8207 H 748.58 0.417242 1.53117 0
M  V30 8208 H 748.601 -1.43591 3.52366 0
M  V30 8209 H 748.113 0.356701 3.86457 0
M  V30 8210 H 746.214 -2.00113 3.14302 0
M  V30 8211 H 746.327 -0.937549 4.69837 0
M  V30 8212 H 744.691 -0.592954 2.47702 0
M  V30 8213 H 745.474 0.846142 3.32709 0
M  V30 8214 N 747.919 -1.57396 -0.0801906 0
M  V30 8215 C 749.33 -1.75642 -0.633002 0
M  V30 8216 C 749.681 -0.817708 -1.78348 0
M  V30 8217 O 748.806 0.000233743 -2.164 0
M  V30 8218 C 749.401 -3.18502 -1.15507 0
M  V30 8219 C 747.96 -3.38121 -1.65381 0
M  V30 8220 C 747.107 -2.71386 -0.569661 0
M  V30 8221 H 750.058 -1.58027 0.145949 0
M  V30 8222 H 750.079 -3.22198 -2.02408 0
M  V30 8223 H 749.591 -3.86799 -0.317515 0
M  V30 8224 H 747.692 -2.74926 -2.51488 0
M  V30 8225 H 747.805 -4.46521 -1.73654 0
M  V30 8226 H 746.169 -2.33702 -1.0127 0
M  V30 8227 H 746.952 -3.42332 0.257561 0
M  V30 8228 N 749.397 0.351382 -1.53633 0
M  V30 8229 C 750.644 1.0925 -1.70502 0
M  V30 8230 C 750.972 1.88881 -0.464123 0
M  V30 8231 O 750.227 1.87693 0.554077 0
M  V30 8232 C 750.526 2.06744 -2.91533 0
M  V30 8233 C 750.192 1.43484 -4.27461 0
M  V30 8234 C 748.854 1.2596 -4.64422 0
M  V30 8235 C 751.206 0.978436 -5.11934 0
M  V30 8236 C 748.534 0.614017 -5.83478 0
M  V30 8237 C 750.886 0.346795 -6.31649 0
M  V30 8238 C 749.55 0.15917 -6.6731 0
M  V30 8239 H 748.82 0.399773 -0.623909 0
M  V30 8240 H 751.467 0.372656 -1.87839 0
M  V30 8241 H 749.772 2.85082 -2.68767 0
M  V30 8242 H 751.469 2.64066 -3.01778 0
M  V30 8243 H 748.059 1.5812 -3.98367 0
M  V30 8244 H 752.243 1.1017 -4.83918 0
M  V30 8245 H 747.499 0.457194 -6.09688 0
M  V30 8246 H 751.673 -0.0149864 -6.96398 0
M  V30 8247 H 749.3 -0.343129 -7.59425 0
M  V30 8248 N 750.875 1.45233 0.611969 0
M  V30 8249 C 752.152 1.39495 1.37115 0
M  V30 8250 C 752.532 0.0633303 2.11005 0
M  V30 8251 O 751.88 -0.954617 2.07604 0
M  V30 8252 C 752.09 2.60579 2.32163 0
M  V30 8253 C 753.438 3.05477 2.94905 0
M  V30 8254 O 754.462 2.60921 2.42485 0
M  V30 8255 O 753.321 3.82787 3.90047 0
M  V30 8256 H 750.415 0.55335 0.614599 0
M  V30 8257 H 752.961 1.57355 0.635423 0
M  V30 8258 H 751.733 3.49085 1.76793 0
M  V30 8259 H 751.356 2.45031 3.13122 0
M  V30 8260 N 752.353 -0.854086 1.3245 0
M  V30 8261 C 753.3 -1.96271 1.21434 0
M  V30 8262 C 754.27 -1.6582 0.0963851 0
M  V30 8263 O 755.455 -1.88851 0.27203 0
M  V30 8264 C 752.595 -3.31939 0.943952 0
M  V30 8265 C 751.708 -3.74885 2.14675 0
M  V30 8266 C 750.843 -4.99347 1.81179 0
M  V30 8267 C 749.882 -5.34785 2.97777 0
M  V30 8268 N 749.019 -6.50425 2.6437 0
M  V30 8269 H 753.859 -2.05025 2.16261 0
M  V30 8270 H 751.396 -1.00348 1.07558 0
M  V30 8271 H 753.354 -4.10076 0.767675 0
M  V30 8272 H 751.984 -3.22784 0.0324763 0
M  V30 8273 H 751.036 -2.92396 2.43328 0
M  V30 8274 H 752.348 -3.97068 3.01891 0
M  V30 8275 H 751.502 -5.85193 1.60107 0
M  V30 8276 H 750.241 -4.79101 0.911777 0
M  V30 8277 H 749.246 -4.47451 3.1948 0
M  V30 8278 H 750.471 -5.56988 3.88511 0
M  V30 8279 H 748.417 -6.31695 1.7691 0
M  V30 8280 H 748.334 -6.7263 3.45116 0
M  V30 8281 H 749.602 -7.39422 2.46729 0
M  V30 8282 N 753.831 -1.1567 -1.07043 0
M  V30 8283 C 755.08 -0.928039 -1.79082 0
M  V30 8284 C 755.393 0.545968 -1.87826 0
M  V30 8285 O 756.599 0.892308 -2.56418 0
M  V30 8286 C 755.055 -1.61103 -3.21829 0
M  V30 8287 C 754.663 -3.12228 -3.21275 0
M  V30 8288 C 756.407 -1.46404 -3.98455 0
M  V30 8289 C 754.314 -3.733 -4.58695 0
M  V30 8290 H 753.244 -0.34357 -0.671175 0
M  V30 8291 H 755.895 -1.38718 -1.20123 0
M  V30 8292 H 754.277 -1.07958 -3.81 0
M  V30 8293 H 755.451 -3.72155 -2.71731 0
M  V30 8294 H 753.766 -3.26725 -2.58147 0
M  V30 8295 H 756.363 -1.8942 -5.00024 0
M  V30 8296 H 756.706 -0.41195 -4.14257 0
M  V30 8297 H 757.239 -1.96663 -3.45787 0
M  V30 8298 H 753.978 -4.78423 -4.48098 0
M  V30 8299 H 753.498 -3.18157 -5.08465 0
M  V30 8300 H 755.177 -3.7441 -5.27661 0
M  V30 8301 N 755.309 1.25446 -0.953992 0
M  V30 8302 C 756.558 1.92441 -0.604101 0
M  V30 8303 C 756.871 1.75543 0.862796 0
M  V30 8304 O 758.077 2.37106 1.32262 0
M  V30 8305 C 756.533 3.44854 -1.02974 0
M  V30 8306 C 756.141 3.70464 -2.51914 0
M  V30 8307 C 757.885 4.1778 -0.752352 0
M  V30 8308 C 755.792 5.1638 -2.88281 0
M  V30 8309 H 754.722 0.720508 -0.222227 0
M  V30 8310 H 757.373 1.42318 -1.15836 0
M  V30 8311 H 755.755 3.93935 -0.403904 0
M  V30 8312 H 756.929 3.32038 -3.19511 0
M  V30 8313 H 755.244 3.10797 -2.77117 0
M  V30 8314 H 757.841 5.25261 -1.00024 0
M  V30 8315 H 758.184 4.15135 0.311212 0
M  V30 8316 H 758.717 3.74605 -1.33851 0
M  V30 8317 H 755.456 5.24135 -3.93653 0
M  V30 8318 H 754.976 5.55855 -2.25357 0
M  V30 8319 H 756.655 5.84497 -2.77439 0
M  V30 8320 N 756.787 0.722489 1.40064 0
M  V30 8321 C 757.697 0.0755984 2.34478 0
M  V30 8322 C 758.713 -0.736046 1.57665 0
M  V30 8323 O 759.889 -0.667407 1.9002 0
M  V30 8324 C 756.954 -0.830075 3.36616 0
M  V30 8325 C 756.015 -0.00759884 4.29299 0
M  V30 8326 C 755.248 -0.870139 5.26559 0
M  V30 8327 O 755.471 -2.10921 5.2997 0
M  V30 8328 O 754.405 -0.305454 6.01124 0
M  V30 8329 H 758.231 0.854545 2.9143 0
M  V30 8330 H 755.816 0.483032 1.41376 0
M  V30 8331 H 757.698 -1.34864 3.99236 0
M  V30 8332 H 756.373 -1.58805 2.82069 0
M  V30 8333 H 755.28 0.556199 3.69942 0
M  V30 8334 H 756.613 0.712312 4.87018 0
M  V30 8335 N 758.265 -1.50454 0.469181 0
M  V30 8336 C 759.212 -2.28486 -0.325982 0
M  V30 8337 C 760.182 -1.33455 -0.988893 0
M  V30 8338 O 761.367 -1.6239 -1.0017 0
M  V30 8339 C 758.507 -3.15288 -1.40313 0
M  V30 8340 C 757.62 -4.25348 -0.755183 0
M  V30 8341 C 756.755 -4.9941 -1.81006 0
M  V30 8342 C 755.794 -6.01348 -1.14226 0
M  V30 8343 N 754.931 -6.68695 -2.1399 0
M  V30 8344 H 759.771 -2.95987 0.345753 0
M  V30 8345 H 757.308 -1.45965 0.182355 0
M  V30 8346 H 759.266 -3.63964 -2.03927 0
M  V30 8347 H 757.896 -2.49837 -2.04405 0
M  V30 8348 H 756.948 -3.80399 -0.00651901 0
M  V30 8349 H 758.26 -4.98279 -0.227941 0
M  V30 8350 H 757.414 -5.51794 -2.52206 0
M  V30 8351 H 756.153 -4.26181 -2.3711 0
M  V30 8352 H 755.158 -5.48225 -0.415876 0
M  V30 8353 H 756.383 -6.76548 -0.588135 0
M  V30 8354 H 754.329 -5.98258 -2.69115 0
M  V30 8355 H 754.246 -7.37495 -1.66246 0
M  V30 8356 H 755.514 -7.25697 -2.84576 0
M  V30 8357 N 759.743 -0.201713 -1.56304 0
M  V30 8358 C 760.706 0.702811 -2.18159 0
M  V30 8359 C 761.706 1.13619 -1.13787 0
M  V30 8360 O 762.896 1.0482 -1.39134 0
M  V30 8361 C 760.028 1.96032 -2.78898 0
M  V30 8362 H 761.221 0.163836 -2.99452 0
M  V30 8363 H 758.774 0.04791 -1.56227 0
M  V30 8364 H 759.509 2.54165 -2.01421 0
M  V30 8365 H 759.294 1.65824 -3.55309 0
M  V30 8366 H 760.784 2.60519 -3.26373 0
M  V30 8367 N 761.222 1.57436 0.0718424 0
M  V30 8368 C 762.185 2.02703 1.06977 0
M  V30 8369 C 763.185 0.924062 1.31597 0
M  V30 8370 O 764.375 1.18894 1.27318 0
M  V30 8371 C 761.507 2.40763 2.41342 0
M  V30 8372 H 762.7 2.92098 0.679619 0
M  V30 8373 H 760.253 1.5304 0.317565 0
M  V30 8374 H 760.988 1.54394 2.8519 0
M  V30 8375 H 760.773 3.21249 2.24814 0
M  V30 8376 H 762.263 2.76361 3.13073 0
M  V30 8377 N 762.7 -0.34323 1.53817 0
M  V30 8378 C 763.61 -1.44493 1.84821 0
M  V30 8379 C 764.626 -1.57556 0.738381 0
M  V30 8380 O 765.802 -1.73026 1.03072 0
M  V30 8381 C 762.867 -2.79478 2.05166 0
M  V30 8382 C 761.928 -2.75756 3.29025 0
M  V30 8383 C 761.161 -4.04302 3.4839 0
M  V30 8384 O 761.384 -5.01595 2.71586 0
M  V30 8385 O 760.318 -4.08754 4.41819 0
M  V30 8386 H 764.144 -1.21209 2.78464 0
M  V30 8387 H 761.729 -0.535437 1.39476 0
M  V30 8388 H 763.611 -3.59419 2.19991 0
M  V30 8389 H 762.286 -3.02692 1.14713 0
M  V30 8390 H 761.193 -1.94434 3.19603 0
M  V30 8391 H 762.526 -2.57495 4.19472 0
M  V30 8392 N 764.178 -1.45556 -0.604258 0
M  V30 8393 C 765.427 -1.49019 -1.35928 0
M  V30 8394 C 765.74 -0.137409 -1.95117 0
M  V30 8395 O 766.946 -0.0497032 -2.71455 0
M  V30 8396 C 765.402 -2.62477 -2.46239 0
M  V30 8397 C 765.01 -4.04082 -1.93447 0
M  V30 8398 C 766.754 -2.7519 -3.23219 0
M  V30 8399 C 764.661 -5.08917 -3.0126 0
M  V30 8400 H 763.591 -0.554518 -0.510907 0
M  V30 8401 H 766.242 -1.71705 -0.647262 0
M  V30 8402 H 764.624 -2.3308 -3.2014 0
M  V30 8403 H 765.798 -4.43173 -1.26232 0
M  V30 8404 H 764.113 -3.95849 -1.29201 0
M  V30 8405 H 766.71 -3.50683 -4.0364 0
M  V30 8406 H 767.053 -1.81941 -3.74437 0
M  V30 8407 H 767.586 -3.04129 -2.56418 0
M  V30 8408 H 764.325 -6.03886 -2.54955 0
M  V30 8409 H 763.845 -4.74393 -3.67031 0
M  V30 8410 H 765.524 -5.33814 -3.65584 0
M  V30 8411 N 765.656 0.84705 -1.32902 0
M  V30 8412 C 766.619 1.9378 -1.224 0
M  V30 8413 C 767.619 1.60144 -0.145108 0
M  V30 8414 O 768.809 1.69638 -0.396058 0
M  V30 8415 C 765.941 3.29234 -0.884174 0
M  V30 8416 H 767.134 2.04518 -2.19345 0
M  V30 8417 H 764.687 1.03816 -1.16842 0
M  V30 8418 H 765.422 3.24193 0.0831277 0
M  V30 8419 H 765.207 3.55026 -1.6643 0
M  V30 8420 H 766.697 4.09162 -0.835226 0
M  V30 8421 N 767.134 1.16236 1.06428 0
M  V30 8422 C 768.359 0.967688 1.83441 0
M  V30 8423 C 768.784 -0.479167 1.81894 0
M  V30 8424 O 768.142 -1.34224 1.21875 0
M  V30 8425 C 768.19 1.49806 3.2801 0
M  V30 8426 O 767.294 0.703481 4.06356 0
M  V30 8427 H 766.635 0.344468 0.56766 0
M  V30 8428 H 769.165 1.54442 1.34197 0
M  V30 8429 H 769.175 1.51495 3.78831 0
M  V30 8430 H 767.85 2.55133 3.2845 0
M  V30 8431 H 766.427 0.756986 3.65136 0
M  V30 8432 N 768.612 -1.24939 0.960631 0
M  V30 8433 C 769.837 -1.9742 0.635608 0
M  V30 8434 C 770.262 -1.70857 -0.786737 0
M  V30 8435 O 769.62 -0.968063 -1.53291 0
M  V30 8436 C 769.668 -3.48987 0.907771 0
M  V30 8437 O 768.772 -4.12399 -0.0104053 0
M  V30 8438 H 768.113 -0.61871 0.241027 0
M  V30 8439 H 770.643 -1.58901 1.28886 0
M  V30 8440 H 770.653 -3.99334 0.836453 0
M  V30 8441 H 769.328 -3.6765 1.94439 0
M  V30 8442 H 767.905 -3.72727 0.113631 0
M  V30 8443 N 770.09 -0.729906 -1.39679 0
M  V30 8444 C 771.367 -0.202149 -1.94553 0
M  V30 8445 C 771.747 1.29507 -1.66707 0
M  V30 8446 O 771.095 2.05819 -0.992517 0
M  V30 8447 C 771.305 -0.530279 -3.44948 0
M  V30 8448 C 772.653 -0.476808 -4.21914 0
M  V30 8449 O 773.677 -0.467171 -3.53123 0
M  V30 8450 O 772.536 -0.466869 -5.44502 0
M  V30 8451 H 769.63 -0.0351644 -0.826252 0
M  V30 8452 H 772.176 -0.808417 -1.49207 0
M  V30 8453 H 770.948 -1.56526 -3.5863 0
M  V30 8454 H 770.571 0.10522 -3.97461 0
M  V30 8455 N 771.568 1.50203 -0.477153 0
M  V30 8456 C 772.793 2.07263 0.0754986 0
M  V30 8457 C 773.218 1.33801 1.32208 0
M  V30 8458 O 772.576 0.387482 1.77111 0
M  V30 8459 C 772.624 3.59028 0.336348 0
M  V30 8460 O 771.728 3.87339 1.4157 0
M  V30 8461 H 771.069 0.663815 -0.015662 0
M  V30 8462 H 773.599 1.93321 -0.669936 0
M  V30 8463 H 773.609 4.03927 0.575034 0
M  V30 8464 H 772.284 4.11912 -0.574551 0
M  V30 8465 H 770.861 3.54272 1.16385 0
M  V30 8466 N 773.046 0.209999 1.56195 0
M  V30 8467 C 774.009 -0.691232 2.18528 0
M  V30 8468 C 775.009 -1.13013 1.14388 0
M  V30 8469 O 776.199 -1.04081 1.39688 0
M  V30 8470 C 773.331 -1.94551 2.79934 0
M  V30 8471 H 774.524 -0.147953 2.99535 0
M  V30 8472 H 772.077 -0.0396243 1.5625 0
M  V30 8473 H 772.812 -2.53094 2.02766 0
M  V30 8474 H 772.597 -1.63938 3.56184 0
M  V30 8475 H 774.087 -2.58785 3.2775 0
M  V30 8476 N 774.524 -1.57472 -0.0634922 0
M  V30 8477 C 775.472 -2.05307 -1.09323 0
M  V30 8478 C 776.466 -0.959995 -1.39572 0
M  V30 8479 O 777.672 -1.14507 -1.38882 0
M  V30 8480 H 774.047 -0.65472 -0.369927 0
M  V30 8481 H 776.018 -2.90925 -0.663707 0
M  V30 8482 C 774.767 -2.51954 -2.39613 0
M  V30 8483 H 774.09 -3.35662 -2.1719 0
M  V30 8484 H 775.53 -2.89169 -3.10092 0
M  V30 8485 C 773.989 -1.40596 -3.06161 0
M  V30 8486 O 774.519 -0.752722 -3.94585 0
M  V30 8487 N 772.725 -1.14902 -2.66919 0
M  V30 8488 H 772.272 -1.68205 -1.95102 0
M  V30 8489 H 772.23 -0.406006 -3.11767 0
M  V30 8490 N 776.003 0.335068 -1.53997 0
M  V30 8491 C 777.249 1.07594 -1.71905 0
M  V30 8492 C 777.582 1.88039 -0.485264 0
M  V30 8493 O 776.857 1.87482 0.517752 0
M  V30 8494 C 777.14 2.01016 -2.98772 0
M  V30 8495 C 776.993 1.23977 -4.32377 0
M  V30 8496 C 778.312 3.0071 -3.21343 0
M  V30 8497 H 775.431 0.38976 -0.625505 0
M  V30 8498 H 778.073 0.353684 -1.86679 0
M  V30 8499 H 776.223 2.62603 -2.86307 0
M  V30 8500 H 777.895 0.649383 -4.56706 0
M  V30 8501 H 776.138 0.541878 -4.30402 0
M  V30 8502 H 776.809 1.92512 -5.17342 0
M  V30 8503 H 779.285 2.4924 -3.33194 0
M  V30 8504 H 778.161 3.63272 -4.11491 0
M  V30 8505 H 778.422 3.72549 -2.38033 0
M  V30 8506 N 777.481 1.45874 0.596531 0
M  V30 8507 C 778.706 1.54247 1.38646 0
M  V30 8508 C 779.131 0.179571 1.87241 0
M  V30 8509 O 778.489 -0.837831 1.6078 0
M  V30 8510 C 778.537 2.54015 2.55946 0
M  V30 8511 O 777.641 2.06561 3.5694 0
M  V30 8512 H 776.982 0.519555 0.413471 0
M  V30 8513 H 779.512 1.91327 0.724936 0
M  V30 8514 H 779.522 2.73179 3.03047 0
M  V30 8515 H 778.197 3.52994 2.19928 0
M  V30 8516 H 776.774 1.97324 3.16414 0
M  V30 8517 N 778.959 -0.83999 1.33349 0
M  V30 8518 C 780.184 -1.63249 1.27924 0
M  V30 8519 C 780.609 -1.87523 -0.147193 0
M  V30 8520 O 779.967 -1.43853 -1.10345 0
M  V30 8521 C 780.015 -2.96046 2.05886 0
M  V30 8522 O 779.119 -3.87303 1.4167 0
M  V30 8523 H 778.46 -0.49715 0.440157 0
M  V30 8524 H 780.99 -1.04512 1.75893 0
M  V30 8525 H 781 -3.45752 2.16609 0
M  V30 8526 H 779.675 -2.77701 3.09605 0
M  V30 8527 H 778.252 -3.45789 1.39585 0
M  V30 8528 N 780.437 -1.16799 -1.0581 0
M  V30 8529 C 781.853 -0.913935 -1.30841 0
M  V30 8530 C 782.053 0.430439 -1.96849 0
M  V30 8531 O 781.109 1.16885 -2.23817 0
M  V30 8532 C 782.422 -2.06662 -2.18429 0
M  V30 8533 C 783.97 -2.10294 -2.31831 0
M  V30 8534 C 784.445 -3.2493 -3.22776 0
M  V30 8535 N 785.936 -3.24678 -3.30361 0
M  V30 8536 C 786.671 -4.10021 -4.00837 0
M  V30 8537 N 786.167 -5.05461 -4.73795 0
M  V30 8538 N 787.96 -3.97991 -3.96937 0
M  V30 8539 H 780.111 -2.03343 -0.613613 0
M  V30 8540 H 782.374 -0.88754 -0.333133 0
M  V30 8541 H 782.08 -3.03791 -1.77211 0
M  V30 8542 H 781.954 -2.01233 -3.19038 0
M  V30 8543 H 784.341 -1.13754 -2.72294 0
M  V30 8544 H 784.422 -2.19786 -1.30873 0
M  V30 8545 H 784.066 -4.21731 -2.83028 0
M  V30 8546 H 783.996 -3.12674 -4.23725 0
M  V30 8547 H 786.487 -2.55573 -2.78372 0
M  V30 8548 H 786.8 -5.66989 -5.25113 0
M  V30 8549 H 785.145 -5.09436 -4.72758 0
M  V30 8550 H 788.336 -3.2273 -3.39062 0
M  V30 8551 H 788.509 -4.64722 -4.51594 0
M  V30 8552 N 781.915 1.24427 -0.967243 0
M  V30 8553 C 783.163 1.92107 -0.627638 0
M  V30 8554 C 783.484 1.75991 0.83978 0
M  V30 8555 O 782.754 1.13118 1.59941 0
M  V30 8556 H 781.334 0.710986 -0.229145 0
M  V30 8557 H 783.996 1.51331 -1.22821 0
M  V30 8558 H 783.092 2.99791 -0.867844 0
M  V30 8559 N 783.393 0.737304 1.3929 0
M  V30 8560 C 784.641 0.285691 2.00071 0
M  V30 8561 C 784.962 -1.13169 1.58801 0
M  V30 8562 O 784.232 -1.77104 0.837308 0
M  V30 8563 H 782.812 0.102638 0.739915 0
M  V30 8564 H 785.474 0.947775 1.70303 0
M  V30 8565 H 784.57 0.335906 3.10287 0
M  V30 8566 N 784.871 -1.49948 0.485112 0
M  V30 8567 C 785.818 -2.28819 -0.301729 0
M  V30 8568 C 786.788 -1.34496 -0.974683 0
M  V30 8569 O 787.973 -1.63444 -0.984418 0
M  V30 8570 C 785.113 -3.16758 -1.36961 0
M  V30 8571 C 784.226 -4.26125 -0.710027 0
M  V30 8572 C 783.361 -5.01302 -1.75699 0
M  V30 8573 C 782.4 -6.02525 -1.07841 0
M  V30 8574 N 781.537 -6.70927 -2.06886 0
M  V30 8575 H 786.377 -2.95604 0.377127 0
M  V30 8576 H 783.914 -1.45764 0.197826 0
M  V30 8577 H 785.872 -3.66106 -2.00056 0
M  V30 8578 H 784.502 -2.51991 -2.01744 0
M  V30 8579 H 783.554 -3.80385 0.0338278 0
M  V30 8580 H 784.866 -4.98493 -0.175079 0
M  V30 8581 H 784.02 -5.54438 -2.46339 0
M  V30 8582 H 782.759 -4.28672 -2.32577 0
M  V30 8583 H 781.764 -5.48635 -0.357706 0
M  V30 8584 H 782.989 -6.77134 -0.516345 0
M  V30 8585 H 780.935 -6.01079 -2.62755 0
M  V30 8586 H 780.852 -7.39216 -1.58414 0
M  V30 8587 H 782.12 -7.28675 -2.76863 0
M  V30 8588 N 786.349 -0.21828 -1.56081 0
M  V30 8589 C 787.296 0.693189 -2.20144 0
M  V30 8590 C 788.266 1.19274 -1.15598 0
M  V30 8591 O 789.451 1.25243 -1.4394 0
M  V30 8592 C 786.591 1.89715 -2.88275 0
M  V30 8593 C 785.704 1.4368 -4.07407 0
M  V30 8594 C 784.839 2.59807 -4.63329 0
M  V30 8595 C 783.878 2.10492 -5.74769 0
M  V30 8596 N 783.015 3.1988 -6.24997 0
M  V30 8597 H 787.855 0.14016 -2.9767 0
M  V30 8598 H 785.392 0.0574292 -1.46988 0
M  V30 8599 H 787.35 2.60398 -3.25958 0
M  V30 8600 H 785.98 2.42311 -2.13273 0
M  V30 8601 H 785.032 0.625007 -3.7523 0
M  V30 8602 H 786.344 1.03517 -4.8794 0
M  V30 8603 H 785.498 3.38577 -5.03438 0
M  V30 8604 H 784.237 3.03256 -3.81951 0
M  V30 8605 H 783.242 1.30182 -5.34165 0
M  V30 8606 H 784.467 1.68045 -6.5798 0
M  V30 8607 H 782.413 3.62817 -5.46534 0
M  V30 8608 H 782.33 2.83958 -7.00645 0
M  V30 8609 H 783.598 3.98796 -6.69763 0
M  V30 8610 N 787.827 1.57504 0.0551401 0
M  V30 8611 C 789.074 1.88055 0.751104 0
M  V30 8612 C 789.402 0.812231 1.76729 0
M  V30 8613 O 788.657 -0.189918 1.94776 0
M  V30 8614 C 788.956 3.25311 1.48013 0
M  V30 8615 C 788.622 4.46858 0.602375 0
M  V30 8616 C 787.284 4.79847 0.360536 0
M  V30 8617 C 789.636 5.212 -0.00524047 0
M  V30 8618 C 786.964 5.84582 -0.498127 0
M  V30 8619 C 789.316 6.26844 -0.851453 0
M  V30 8620 C 787.98 6.58324 -1.103 0
M  V30 8621 H 787.25 0.688142 0.274848 0
M  V30 8622 H 789.897 1.91497 0.0114795 0
M  V30 8623 H 788.202 3.17737 2.29239 0
M  V30 8624 H 789.899 3.46189 2.02371 0
M  V30 8625 H 786.489 4.21049 0.801007 0
M  V30 8626 H 790.673 4.96013 0.168682 0
M  V30 8627 H 785.929 6.07361 -0.701594 0
M  V30 8628 H 790.103 6.83603 -1.32893 0
M  V30 8629 H 787.73 7.39304 -1.77011 0
M  V30 8630 N 789.305 -0.326896 1.54172 0
M  V30 8631 C 790.235 -1.40741 1.86317 0
M  V30 8632 C 791.216 -1.54125 0.719684 0
M  V30 8633 O 792.401 -1.6806 0.973117 0
M  V30 8634 C 789.531 -2.77557 2.08757 0
M  V30 8635 C 788.485 -2.78965 3.24596 0
M  V30 8636 C 787.811 -4.18824 3.32401 0
M  V30 8637 C 789.111 -2.4301 4.62324 0
M  V30 8638 H 790.805 -1.14088 2.76811 0
M  V30 8639 H 788.351 -0.547389 1.3319 0
M  V30 8640 H 790.304 -3.53209 2.29829 0
M  V30 8641 H 789.028 -3.0568 1.15009 0
M  V30 8642 H 787.687 -2.05767 3.03406 0
M  V30 8643 H 787.335 -4.44083 2.36218 0
M  V30 8644 H 787.035 -4.20673 4.10253 0
M  V30 8645 H 788.559 -4.96294 3.55703 0
M  V30 8646 H 789.973 -3.08375 4.83299 0
M  V30 8647 H 788.37 -2.56116 5.42701 0
M  V30 8648 H 789.44 -1.38165 4.64799 0
M  V30 8649 N 790.784 -1.46188 -0.588786 0
M  V30 8650 C 792.195 -1.45421 -1.17088 0
M  V30 8651 C 792.546 -0.191801 -1.9526 0
M  V30 8652 O 791.671 0.705497 -2.04577 0
M  V30 8653 C 792.266 -2.63467 -2.13004 0
M  V30 8654 C 790.825 -2.6576 -2.6655 0
M  V30 8655 C 789.972 -2.38002 -1.42304 0
M  V30 8656 H 792.923 -1.54156 -0.377052 0
M  V30 8657 H 792.944 -2.38638 -2.96365 0
M  V30 8658 H 792.456 -3.55331 -1.56081 0
M  V30 8659 H 790.557 -1.77952 -3.27359 0
M  V30 8660 H 790.67 -3.65545 -3.09699 0
M  V30 8661 H 789.034 -1.87936 -1.71907 0
M  V30 8662 H 789.817 -3.32035 -0.872209 0
M  V30 8663 N 792.262 0.832906 -1.33792 0
M  V30 8664 C 793.508 1.59089 -1.25772 0
M  V30 8665 C 793.841 1.93414 0.174601 0
M  V30 8666 O 793.116 1.59195 1.11746 0
M  V30 8667 C 793.399 2.89699 -2.13885 0
M  V30 8668 C 793.252 2.62017 -3.65605 0
M  V30 8669 C 794.571 3.91182 -2.01654 0
M  V30 8670 H 791.69 0.577232 -0.458227 0
M  V30 8671 H 794.332 0.960227 -1.6395 0
M  V30 8672 H 792.482 3.4352 -1.81456 0
M  V30 8673 H 794.154 2.14582 -4.08353 0
M  V30 8674 H 792.397 1.95621 -3.87189 0
M  V30 8675 H 793.068 3.55112 -4.2261 0
M  V30 8676 H 795.544 3.46684 -2.30107 0
M  V30 8677 H 794.42 4.80391 -2.65548 0
M  V30 8678 H 794.681 4.30861 -0.990536 0
M  V30 8679 N 793.74 1.17359 1.05189 0
M  V30 8680 C 794.67 0.91365 2.14883 0
M  V30 8681 C 795.651 -0.144365 1.69486 0
M  V30 8682 O 796.836 0.00587861 1.94199 0
M  V30 8683 C 793.966 0.426196 3.44675 0
M  V30 8684 C 792.92 1.4234 4.03638 0
M  V30 8685 C 792.246 0.793902 5.28773 0
M  V30 8686 C 793.546 2.7966 4.41121 0
M  V30 8687 H 795.24 1.831 2.36885 0
M  V30 8688 H 792.786 0.881781 1.13845 0
M  V30 8689 H 794.739 0.231767 4.20762 0
M  V30 8690 H 793.463 -0.526693 3.22325 0
M  V30 8691 H 792.122 1.60457 3.2962 0
M  V30 8692 H 791.77 -0.165824 5.02727 0
M  V30 8693 H 791.47 1.45959 5.69183 0
M  V30 8694 H 792.994 0.609747 6.07548 0
M  V30 8695 H 794.408 2.6526 5.08242 0
M  V30 8696 H 792.805 3.42807 4.92548 0
M  V30 8697 H 793.875 3.34068 3.51464 0
M  V30 8698 N 795.218 -1.23913 0.973828 0
M  V30 8699 C 796.165 -2.25132 0.508366 0
M  V30 8700 C 797.135 -1.59908 -0.449307 0
M  V30 8701 O 798.32 -1.87405 -0.358313 0
M  V30 8702 C 795.46 -3.4458 -0.189422 0
M  V30 8703 C 794.573 -4.24381 0.807738 0
M  V30 8704 C 793.708 -5.31131 0.0854315 0
M  V30 8705 C 792.747 -6.02635 1.07225 0
M  V30 8706 N 791.884 -7.01073 0.379535 0
M  V30 8707 H 796.724 -2.64313 1.37632 0
M  V30 8708 H 794.261 -1.29924 0.689802 0
M  V30 8709 H 796.219 -4.12706 -0.610733 0
M  V30 8710 H 794.849 -3.06218 -1.02129 0
M  V30 8711 H 793.901 -3.55735 1.34747 0
M  V30 8712 H 795.213 -4.73778 1.55998 0
M  V30 8713 H 794.367 -6.05422 -0.393572 0
M  V30 8714 H 793.106 -4.82658 -0.699461 0
M  V30 8715 H 792.111 -5.27143 1.56207 0
M  V30 8716 H 793.336 -6.53197 1.85769 0
M  V30 8717 H 791.282 -6.54862 -0.386269 0
M  V30 8718 H 791.199 -7.48382 1.07054 0
M  V30 8719 H 792.467 -7.79462 -0.0772984 0
M  V30 8720 N 796.696 -0.74468 -1.38897 0
M  V30 8721 C 797.606 -0.112892 -2.34328 0
M  V30 8722 C 798.622 0.71087 -1.58816 0
M  V30 8723 O 799.798 0.637092 -1.91058 0
M  V30 8724 C 796.863 0.776417 -3.37894 0
M  V30 8725 C 795.924 -0.0606999 -4.29257 0
M  V30 8726 C 795.157 0.786258 -5.27877 0
M  V30 8727 O 795.38 2.02463 -5.33259 0
M  V30 8728 O 794.314 0.209781 -6.01534 0
M  V30 8729 H 798.14 -0.900801 -2.90033 0
M  V30 8730 H 795.725 -0.505462 -1.4059 0
M  V30 8731 H 797.607 1.28496 -4.01331 0
M  V30 8732 H 796.282 1.54297 -2.84559 0
M  V30 8733 H 795.189 -0.614984 -3.69011 0
M  V30 8734 H 796.522 -0.789702 -4.85824 0
M  V30 8735 N 798.174 1.49689 -0.493057 0
M  V30 8736 C 799.423 2.01622 0.0560733 0
M  V30 8737 C 799.736 1.37838 1.3878 0
M  V30 8738 O 800.942 1.81054 2.02316 0
M  V30 8739 C 799.398 3.59586 0.150409 0
M  V30 8740 C 799.006 4.32338 -1.1742 0
M  V30 8741 C 800.75 4.19489 0.650327 0
M  V30 8742 C 798.657 5.8214 -1.04246 0
M  V30 8743 H 797.587 0.753594 0.0247297 0
M  V30 8744 H 800.238 1.723 -0.631279 0
M  V30 8745 H 798.62 3.8559 0.902035 0
M  V30 8746 H 799.794 4.18042 -1.9385 0
M  V30 8747 H 798.109 3.84144 -1.60694 0
M  V30 8748 H 800.706 5.29181 0.766272 0
M  V30 8749 H 801.049 3.82326 1.6472 0
M  V30 8750 H 801.582 3.97775 -0.0445371 0
M  V30 8751 H 798.321 6.23814 -2.01336 0
M  V30 8752 H 797.841 5.98952 -0.31892 0
M  V30 8753 H 799.52 6.43004 -0.717957 0
M  V30 8754 N 799.652 0.226554 1.55963 0
M  V30 8755 C 800.582 -0.676079 2.23498 0
M  V30 8756 C 801.563 -1.19718 1.20837 0
M  V30 8757 O 802.748 -1.24027 1.49436 0
M  V30 8758 C 799.878 -1.88217 2.91876 0
M  V30 8759 C 798.832 -1.4947 4.01052 0
M  V30 8760 C 798.158 -2.77997 4.56751 0
M  V30 8761 C 799.458 -0.680951 5.17842 0
M  V30 8762 H 801.152 -0.112989 2.99187 0
M  V30 8763 H 798.698 -0.0529046 1.43903 0
M  V30 8764 H 800.651 -2.51911 3.37815 0
M  V30 8765 H 799.375 -2.47031 2.13643 0
M  V30 8766 H 798.034 -0.881199 3.55852 0
M  V30 8767 H 797.682 -3.34966 3.75243 0
M  V30 8768 H 797.382 -2.52803 5.30438 0
M  V30 8769 H 798.906 -3.42625 5.05411 0
M  V30 8770 H 800.32 -1.22171 5.60131 0
M  V30 8771 H 798.717 -0.525898 5.97791 0
M  V30 8772 H 799.787 0.311346 4.83899 0
M  V30 8773 N 801.13 -1.57531 -0.0467866 0
M  V30 8774 C 802.407 -1.79568 -0.775536 0
M  V30 8775 C 802.787 -0.820322 -1.94509 0
M  V30 8776 O 802.135 0.14134 -2.28062 0
M  V30 8777 C 802.345 -3.26789 -1.22516 0
M  V30 8778 C 803.693 -3.91299 -1.64835 0
M  V30 8779 O 804.717 -3.30831 -1.3202 0
M  V30 8780 O 803.576 -4.97727 -2.25677 0
M  V30 8781 H 800.67 -0.737817 -0.373572 0
M  V30 8782 H 803.216 -1.69682 -0.0249302 0
M  V30 8783 H 801.988 -3.89357 -0.389446 0
M  V30 8784 H 801.611 -3.41496 -2.03633 0
M  V30 8785 N 802.608 0.318715 -1.54344 0
M  V30 8786 C 804.024 0.663345 -1.45162 0
M  V30 8787 C 804.224 1.9145 -0.62842 0
M  V30 8788 O 803.28 2.5217 -0.129126 0
M  V30 8789 C 804.593 0.832836 -2.88937 0
M  V30 8790 C 806.141 0.929866 -2.98869 0
M  V30 8791 C 806.616 1.13149 -4.43803 0
M  V30 8792 N 808.107 1.19811 -4.47437 0
M  V30 8793 C 808.842 1.37209 -5.56742 0
M  V30 8794 N 808.338 1.51619 -6.76006 0
M  V30 8795 N 810.131 1.39956 -5.44398 0
M  V30 8796 H 802.282 -0.50357 -2.06344 0
M  V30 8797 H 804.545 -0.163528 -0.933789 0
M  V30 8798 H 804.251 -0.0153519 -3.51697 0
M  V30 8799 H 804.125 1.72721 -3.35332 0
M  V30 8800 H 806.512 1.76855 -2.36233 0
M  V30 8801 H 806.593 0.0118561 -2.55797 0
M  V30 8802 H 806.237 0.297636 -5.07027 0
M  V30 8803 H 806.167 2.06345 -4.84489 0
M  V30 8804 H 808.658 1.101 -3.61506 0
M  V30 8805 H 808.971 1.64599 -7.55067 0
M  V30 8806 H 807.316 1.48708 -6.78904 0
M  V30 8807 H 810.507 1.28298 -4.50175 0
M  V30 8808 H 810.68 1.53172 -6.29637 0
M  V30 8809 N 804.086 1.46499 0.581025 0
M  V30 8810 C 805.363 1.42372 1.34125 0
M  V30 8811 C 805.743 0.108073 2.10823 0
M  V30 8812 O 805.091 -0.910366 2.09582 0
M  V30 8813 C 805.301 2.65445 2.26583 0
M  V30 8814 C 806.649 3.11664 2.88359 0
M  V30 8815 O 807.673 2.66006 2.36896 0
M  V30 8816 O 806.532 3.90974 3.81839 0
M  V30 8817 H 803.626 0.566262 0.602724 0
M  V30 8818 H 806.172 1.58667 0.601903 0
M  V30 8819 H 804.944 3.52756 1.69348 0
M  V30 8820 H 804.567 2.51618 3.07854 0
M  V30 8821 N 805.565 -0.825799 1.34232 0
M  V30 8822 C 806.976 -1.39835 1.23706 0
M  V30 8823 C 807.327 -1.95709 -0.138649 0
M  V30 8824 O 806.452 -1.89833 -1.03886 0
M  V30 8825 C 807.047 -2.54203 2.23978 0
M  V30 8826 C 805.606 -3.07374 2.17251 0
M  V30 8827 C 804.753 -1.80232 2.10741 0
M  V30 8828 H 807.704 -0.630442 1.4564 0
M  V30 8829 H 807.725 -3.32214 1.8551 0
M  V30 8830 H 807.237 -2.13506 3.24094 0
M  V30 8831 H 805.338 -3.52583 1.20483 0
M  V30 8832 H 805.451 -3.6666 3.08379 0
M  V30 8833 H 803.815 -2.01012 1.56417 0
M  V30 8834 H 804.598 -1.41713 3.12686 0
M  V30 8835 N 807.043 -1.17915 -1.04565 0
M  V30 8836 C 807.973 -0.925033 -2.14395 0
M  V30 8837 C 808.954 0.135375 -1.6956 0
M  V30 8838 O 810.139 -0.0161774 -1.94193 0
M  V30 8839 C 807.269 -0.444469 -3.44444 0
M  V30 8840 C 806.223 -1.44478 -4.02877 0
M  V30 8841 C 805.549 -0.821933 -5.28345 0
M  V30 8842 C 806.849 -2.81995 -4.39632 0
M  V30 8843 H 808.543 -1.84354 -2.35911 0
M  V30 8844 H 806.089 -0.887806 -1.13375 0
M  V30 8845 H 808.042 -0.254078 -4.20633 0
M  V30 8846 H 806.766 0.509592 -3.226 0
M  V30 8847 H 805.425 -1.62203 -3.28764 0
M  V30 8848 H 805.073 0.139161 -5.02807 0
M  V30 8849 H 804.773 -1.48976 -5.68401 0
M  V30 8850 H 806.297 -0.641959 -6.07216 0
M  V30 8851 H 807.711 -2.67952 -5.06828 0
M  V30 8852 H 806.108 -3.45414 -4.90723 0
M  V30 8853 H 807.178 -3.35927 -3.49687 0
M  V30 8854 N 808.521 1.23394 -0.980386 0
M  V30 8855 C 809.746 1.96384 -0.666935 0
M  V30 8856 C 810.171 1.72087 0.759456 0
M  V30 8857 O 809.529 0.992328 1.51732 0
M  V30 8858 C 809.577 3.47499 -0.963177 0
M  V30 8859 O 808.681 4.12363 -0.0552051 0
M  V30 8860 H 808.022 0.614797 -0.250839 0
M  V30 8861 H 810.552 1.56831 -1.31398 0
M  V30 8862 H 810.562 3.97953 -0.899877 0
M  V30 8863 H 809.237 3.6451 -2.00264 0
M  V30 8864 H 807.814 3.72499 -0.172914 0
M  V30 8865 N 809.999 0.752036 1.385 0
M  V30 8866 C 810.931 0.0835089 2.29048 0
M  V30 8867 C 811.944 -0.685402 1.47669 0
M  V30 8868 O 813.133 -0.526748 1.70551 0
M  V30 8869 C 810.233 -0.905772 3.26572 0
M  V30 8870 C 809.406 -0.194828 4.36966 0
M  V30 8871 C 808.465 -1.09464 5.14688 0
M  V30 8872 O 807.491 -0.565743 5.66381 0
M  V30 8873 N 808.693 -2.42287 5.2752 0
M  V30 8874 H 811.458 0.861142 2.87062 0
M  V30 8875 H 809.019 0.602689 1.50264 0
M  V30 8876 H 811.011 -1.51072 3.75446 0
M  V30 8877 H 809.581 -1.58449 2.69467 0
M  V30 8878 H 808.801 0.590812 3.89747 0
M  V30 8879 H 810.089 0.297189 5.07931 0
M  V30 8880 H 809.487 -2.87715 4.8707 0
M  V30 8881 H 808.044 -2.97836 5.79773 0
M  V30 8882 N 811.477 -1.49425 0.500989 0
M  V30 8883 C 812.407 -2.31971 -0.266775 0
M  V30 8884 C 813.388 -1.40245 -0.962563 0
M  V30 8885 O 814.573 -1.69154 -0.953968 0
M  V30 8886 C 811.703 -3.20757 -1.33163 0
M  V30 8887 C 810.657 -4.21275 -0.75572 0
M  V30 8888 C 809.983 -4.98997 -1.92109 0
M  V30 8889 C 811.283 -5.21686 0.253213 0
M  V30 8890 H 812.977 -2.96408 0.422237 0
M  V30 8891 H 810.523 -1.4254 0.204505 0
M  V30 8892 H 812.476 -3.77315 -1.87646 0
M  V30 8893 H 811.2 -2.54263 -2.04983 0
M  V30 8894 H 809.859 -3.65861 -0.232637 0
M  V30 8895 H 809.507 -4.28951 -2.62698 0
M  V30 8896 H 809.207 -5.67011 -1.54182 0
M  V30 8897 H 810.731 -5.584 -2.47026 0
M  V30 8898 H 812.145 -5.72939 -0.203483 0
M  V30 8899 H 810.542 -5.9759 0.548322 0
M  V30 8900 H 811.612 -4.70596 1.16909 0
M  V30 8901 N 812.955 -0.234822 -1.55841 0
M  V30 8902 C 814.195 0.394944 -2.00548 0
M  V30 8903 C 814.559 1.56002 -1.11926 0
M  V30 8904 O 815.76 2.2567 -1.46037 0
M  V30 8905 C 814.031 0.805896 -3.48195 0
M  V30 8906 S 815.59 1.4279 -4.14918 0
M  V30 8907 H 812.408 0.124802 -0.699961 0
M  V30 8908 H 815.01 -0.347224 -1.92392 0
M  V30 8909 H 813.714 -0.0515271 -4.10368 0
M  V30 8910 H 813.245 1.58055 -3.60253 0
M  V30 8911 H 815.26 2.71699 -4.15204 0
M  V30 8912 N 814.433 1.57553 0.0384317 0
M  V30 8913 C 815.343 2.09333 1.0591 0
M  V30 8914 C 816.359 1.0299 1.40247 0
M  V30 8915 O 817.535 1.34669 1.49754 0
M  V30 8916 C 814.6 2.55468 2.34386 0
M  V30 8917 C 813.661 3.76254 2.06716 0
M  V30 8918 C 812.894 4.20179 3.29067 0
M  V30 8919 O 813.117 3.637 4.39407 0
M  V30 8920 O 812.051 5.12697 3.15317 0
M  V30 8921 H 815.877 2.96683 0.649087 0
M  V30 8922 H 813.462 1.47211 0.254802 0
M  V30 8923 H 815.344 2.85514 3.09935 0
M  V30 8924 H 814.019 1.71234 2.74701 0
M  V30 8925 H 812.926 3.51241 1.28766 0
M  V30 8926 H 814.259 4.61443 1.71263 0
M  V30 8927 N 815.911 -0.310526 1.54511 0
M  V30 8928 C 816.859 -1.40272 1.85544 0
M  V30 8929 C 817.853 -1.52941 0.728377 0
M  V30 8930 O 819.059 -1.55172 0.912234 0
M  V30 8931 H 815.434 -0.468355 0.588343 0
M  V30 8932 H 817.405 -1.11329 2.76855 0
M  V30 8933 C 816.154 -2.76279 2.11105 0
M  V30 8934 H 815.477 -2.67308 2.97298 0
M  V30 8935 H 816.917 -3.51736 2.36765 0
M  V30 8936 C 815.376 -3.24472 0.906618 0
M  V30 8937 O 815.906 -4.01514 0.122358 0
M  V30 8938 N 814.112 -2.81676 0.714632 0
M  V30 8939 H 813.659 -2.19143 1.35404 0
M  V30 8940 H 813.617 -3.14272 -0.089703 0
M  V30 8941 N 817.389 -1.46805 -0.573248 0
M  V30 8942 C 818.299 -1.60687 -1.70929 0
M  V30 8943 C 819.315 -0.490084 -1.66956 0
M  V30 8944 O 820.491 -0.755482 -1.86693 0
M  V30 8945 C 817.556 -1.60259 -3.07438 0
M  V30 8946 C 816.617 -2.83242 -3.22603 0
M  V30 8947 C 815.85 -2.82825 -4.52599 0
M  V30 8948 O 816.073 -1.92113 -5.37074 0
M  V30 8949 O 815.007 -3.74489 -4.71213 0
M  V30 8950 H 818.833 -2.56782 -1.62163 0
M  V30 8951 H 816.418 -1.29706 -0.741399 0
M  V30 8952 H 818.3 -1.6275 -3.88704 0
M  V30 8953 H 816.975 -0.673268 -3.16621 0
M  V30 8954 H 815.882 -2.86302 -2.40794 0
M  V30 8955 H 817.215 -3.75415 -3.18315 0
M  V30 8956 N 818.867 0.818669 -1.34668 0
M  V30 8957 C 819.8 1.93516 -1.20941 0
M  V30 8958 C 820.778 1.62292 -0.100061 0
M  V30 8959 O 821.962 1.86614 -0.265983 0
M  V30 8960 C 819.089 3.27612 -0.859524 0
M  V30 8961 C 818.135 3.77794 -1.97923 0
M  V30 8962 S 818.968 3.97043 -3.59329 0
M  V30 8963 C 820.124 5.3406 -3.2639 0
M  V30 8964 H 820.357 2.04864 -2.15449 0
M  V30 8965 H 817.89 0.974716 -1.19744 0
M  V30 8966 H 819.848 4.05087 -0.664444 0
M  V30 8967 H 818.509 3.14028 0.0672835 0
M  V30 8968 H 817.702 4.74883 -1.68827 0
M  V30 8969 H 817.304 3.0728 -2.13202 0
M  V30 8970 H 819.596 6.17626 -2.78469 0
M  V30 8971 H 820.539 5.68143 -4.22634 0
M  V30 8972 H 820.947 4.99773 -2.62464 0
M  V30 8973 N 820.346 1.18468 1.03938 0
M  V30 8974 C 821.623 0.890435 1.74157 0
M  V30 8975 C 822.003 -0.606409 2.02203 0
M  V30 8976 O 821.351 -1.5615 1.66822 0
M  V30 8977 C 821.561 1.73906 3.02585 0
M  V30 8978 C 822.909 1.96686 3.76297 0
M  V30 8979 O 823.933 1.70969 3.12487 0
M  V30 8980 O 822.792 2.39986 4.90988 0
M  V30 8981 H 819.886 0.330889 0.757919 0
M  V30 8982 H 822.432 1.29228 1.09992 0
M  V30 8983 H 821.204 2.75369 2.78006 0
M  V30 8984 H 820.827 1.33581 3.74489 0
M  V30 8985 N 821.824 -1.22873 0.986916 0
M  V30 8986 C 822.754 -2.2688 0.552064 0
M  V30 8987 C 823.735 -1.64883 -0.418048 0
M  V30 8988 O 824.92 -1.9171 -0.30999 0
M  V30 8989 C 822.05 -3.47018 -0.139959 0
M  V30 8990 C 821.004 -4.21411 0.748091 0
M  V30 8991 C 820.33 -5.34645 -0.0765132 0
M  V30 8992 C 821.63 -4.80726 2.04206 0
M  V30 8993 H 823.324 -2.63507 1.42143 0
M  V30 8994 H 820.87 -1.26668 0.68492 0
M  V30 8995 H 822.823 -4.18931 -0.455527 0
M  V30 8996 H 821.547 -3.0947 -1.04382 0
M  V30 8997 H 820.206 -3.51325 1.04721 0
M  V30 8998 H 819.854 -4.93339 -0.981109 0
M  V30 8999 H 819.554 -5.85342 0.514606 0
M  V30 9000 H 821.078 -6.09377 -0.386313 0
M  V30 9001 H 822.492 -5.44612 1.79083 0
M  V30 9002 H 820.889 -5.41737 2.5815 0
M  V30 9003 H 821.959 -4.01109 2.72469 0
M  V30 9004 N 823.302 -0.75937 -1.38099 0
M  V30 9005 C 824.551 -0.314864 -1.99227 0
M  V30 9006 C 824.864 1.1113 -1.60964 0
M  V30 9007 O 826.07 1.65657 -2.15105 0
M  V30 9008 C 824.526 -0.512001 -3.56239 0
M  V30 9009 C 824.134 -1.94762 -4.0345 0
M  V30 9010 C 825.878 -0.130497 -4.24299 0
M  V30 9011 C 823.785 -2.09301 -5.53125 0
M  V30 9012 H 822.715 -0.113978 -0.745335 0
M  V30 9013 H 825.366 -0.936736 -1.57789 0
M  V30 9014 H 823.748 0.179144 -3.95595 0
M  V30 9015 H 824.922 -2.67271 -3.75371 0
M  V30 9016 H 823.237 -2.28457 -3.48133 0
M  V30 9017 H 825.834 -0.21781 -5.34256 0
M  V30 9018 H 826.177 0.917644 -4.0606 0
M  V30 9019 H 826.71 -0.773716 -3.90203 0
M  V30 9020 H 823.449 -3.1239 -5.76275 0
M  V30 9021 H 822.969 -1.41261 -5.82928 0
M  V30 9022 H 824.648 -1.88571 -6.1891 0
M  V30 9023 N 824.78 1.49157 -0.508906 0
M  V30 9024 C 826.026 2.03385 0.0248089 0
M  V30 9025 C 826.381 1.381 1.33964 0
M  V30 9026 O 825.674 0.510317 1.84679 0
M  V30 9027 C 825.868 3.56687 0.225717 0
M  V30 9028 C 825.697 4.36832 -1.06809 0
M  V30 9029 C 824.467 4.78556 -1.6221 0
M  V30 9030 C 826.665 4.74934 -1.97338 0
M  V30 9031 N 824.647 5.43158 -2.86098 0
M  V30 9032 C 826.018 5.39336 -3.05805 0
M  V30 9033 C 828.073 4.56872 -1.97921 0
M  V30 9034 C 826.776 5.87587 -4.1489 0
M  V30 9035 C 828.802 5.06089 -3.05987 0
M  V30 9036 C 828.164 5.70499 -4.13172 0
M  V30 9037 H 824.263 0.781349 -0.0318988 0
M  V30 9038 H 826.847 1.82233 -0.685518 0
M  V30 9039 H 825.018 3.77707 0.905108 0
M  V30 9040 H 826.75 3.97554 0.757147 0
M  V30 9041 H 823.505 4.59017 -1.16621 0
M  V30 9042 H 823.929 5.8004 -3.49116 0
M  V30 9043 H 828.571 4.06474 -1.16357 0
M  V30 9044 H 826.289 6.37002 -4.97247 0
M  V30 9045 H 829.875 4.93919 -3.07466 0
M  V30 9046 H 828.755 6.07893 -4.95415 0
M  V30 9047 N 826.258 0.243083 1.55714 0
M  V30 9048 C 827.486 -0.386971 2.03249 0
M  V30 9049 C 827.901 -1.51812 1.12243 0
M  V30 9050 O 827.258 -1.81992 0.136119 0
M  V30 9051 C 827.309 -0.898361 3.5016 0
M  V30 9052 O 827.03 0.187708 4.37698 0
M  V30 9053 C 828.531 -1.59949 4.13438 0
M  V30 9054 H 825.751 -0.0923981 0.664608 0
M  V30 9055 H 828.295 0.365832 2.01201 0
M  V30 9056 H 826.45 -1.60136 3.52754 0
M  V30 9057 H 826.864 -0.200001 5.24119 0
M  V30 9058 H 828.338 -1.90907 5.17937 0
M  V30 9059 H 828.815 -2.52014 3.59702 0
M  V30 9060 H 829.421 -0.941163 4.14756 0
M  V30 9061 N 827.736 -1.57571 -0.0300757 0
M  V30 9062 C 828.666 -2.0953 -1.03051 0
M  V30 9063 C 829.647 -0.99761 -1.37774 0
M  V30 9064 O 830.832 -1.27279 -1.46676 0
M  V30 9065 C 827.962 -2.57385 -2.33174 0
M  V30 9066 C 826.916 -3.71409 -2.12696 0
M  V30 9067 C 826.242 -4.05467 -3.4857 0
M  V30 9068 C 827.542 -4.99877 -1.51396 0
M  V30 9069 H 829.236 -2.93367 -0.597999 0
M  V30 9070 H 826.782 -1.41127 -0.286203 0
M  V30 9071 H 828.735 -2.92355 -3.03491 0
M  V30 9072 H 827.459 -1.70629 -2.78484 0
M  V30 9073 H 826.118 -3.36786 -1.44813 0
M  V30 9074 H 825.766 -3.15779 -3.91526 0
M  V30 9075 H 825.466 -4.82269 -3.35694 0
M  V30 9076 H 826.99 -4.4297 -4.2025 0
M  V30 9077 H 828.404 -5.3281 -2.11629 0
M  V30 9078 H 826.801 -5.81283 -1.49098 0
M  V30 9079 H 827.871 -4.82522 -0.479676 0
M  V30 9080 N 829.214 0.302327 -1.54673 0
M  V30 9081 C 830.63 0.647911 -1.45857 0
M  V30 9082 C 830.83 1.90773 -0.64869 0
M  V30 9083 O 829.886 2.52018 -0.155865 0
M  V30 9084 C 831.199 0.802144 -2.89804 0
M  V30 9085 C 832.747 0.898114 -2.99838 0
M  V30 9086 C 833.222 1.08436 -4.44978 0
M  V30 9087 N 834.713 1.15059 -4.48682 0
M  V30 9088 C 835.448 1.31296 -5.58166 0
M  V30 9089 N 834.944 1.4444 -6.77576 0
M  V30 9090 N 836.737 1.34174 -5.45851 0
M  V30 9091 H 828.888 -0.525428 -2.05798 0
M  V30 9092 H 831.151 -0.173423 -0.932002 0
M  V30 9093 H 830.857 -0.0526531 -3.51661 0
M  V30 9094 H 830.731 1.69155 -3.37145 0
M  V30 9095 H 833.118 1.7434 -2.38096 0
M  V30 9096 H 833.199 -0.0152752 -2.55795 0
M  V30 9097 H 832.843 0.243843 -5.07314 0
M  V30 9098 H 832.773 2.01195 -4.8665 0
M  V30 9099 H 835.264 1.0626 -3.62653 0
M  V30 9100 H 835.577 1.56582 -7.56771 0
M  V30 9101 H 833.922 1.41499 -6.80443 0
M  V30 9102 H 837.113 1.23516 -4.5151 0
M  V30 9103 H 837.286 1.46485 -6.31226 0
M  V30 9104 N 830.692 1.47107 0.565454 0
M  V30 9105 C 831.624 1.55024 1.6882 0
M  V30 9106 C 832.637 0.4371 1.56822 0
M  V30 9107 O 833.826 0.706315 1.63931 0
M  V30 9108 C 830.926 1.43069 3.0722 0
M  V30 9109 C 830.099 2.68807 3.45053 0
M  V30 9110 C 829.158 2.50806 4.62583 0
M  V30 9111 O 828.184 3.24593 4.67577 0
M  V30 9112 N 829.386 1.58093 5.58558 0
M  V30 9113 H 832.151 2.51836 1.62477 0
M  V30 9114 H 829.712 1.43382 0.751885 0
M  V30 9115 H 831.704 1.28773 3.83666 0
M  V30 9116 H 830.274 0.543721 3.07835 0
M  V30 9117 H 829.494 2.97923 2.58138 0
M  V30 9118 H 830.782 3.52298 3.67101 0
M  V30 9119 H 830.18 0.972807 5.57273 0
M  V30 9120 H 828.737 1.49753 6.34364 0
M  V30 9121 N 832.17 -0.811516 1.35101 0
M  V30 9122 C 833.447 -1.55491 1.18667 0
M  V30 9123 C 833.827 -2.09775 -0.236189 0
M  V30 9124 O 833.175 -1.91989 -1.23905 0
M  V30 9125 C 833.385 -2.66732 2.25067 0
M  V30 9126 C 834.733 -3.35201 2.60625 0
M  V30 9127 O 835.757 -2.76998 2.23943 0
M  V30 9128 O 834.616 -4.40334 3.23679 0
M  V30 9129 H 831.71 -0.686783 0.460716 0
M  V30 9130 H 834.256 -0.851903 1.46768 0
M  V30 9131 H 833.028 -2.24457 3.20523 0
M  V30 9132 H 832.651 -3.44673 1.98208 0
M  V30 9133 N 833.648 -1.19017 -1.03309 0
M  V30 9134 C 834.888 -1.00129 -1.78195 0
M  V30 9135 C 835.252 0.460236 -1.86402 0
M  V30 9136 O 836.453 0.768802 -2.57571 0
M  V30 9137 C 834.724 -1.64703 -3.17187 0
M  V30 9138 S 836.283 -1.60695 -4.08317 0
M  V30 9139 H 833.101 -0.359395 -0.613479 0
M  V30 9140 H 835.703 -1.51293 -1.23818 0
M  V30 9141 H 834.407 -2.70283 -3.08829 0
M  V30 9142 H 833.938 -1.136 -3.76641 0
M  V30 9143 H 835.953 -0.628171 -4.92208 0
M  V30 9144 N 835.127 1.22348 -0.993418 0
M  V30 9145 C 836.543 1.43222 -0.704238 0
M  V30 9146 C 836.743 1.88009 0.724909 0
M  V30 9147 O 835.799 2.03429 1.49575 0
M  V30 9148 C 837.112 2.47328 -1.71025 0
M  V30 9149 C 838.66 2.61126 -1.72576 0
M  V30 9150 C 839.135 3.68453 -2.72041 0
M  V30 9151 N 840.626 3.75911 -2.70639 0
M  V30 9152 C 841.361 4.58551 -3.44266 0
M  V30 9153 N 840.857 5.45179 -4.27495 0
M  V30 9154 N 842.65 4.52866 -3.32969 0
M  V30 9155 H 834.801 0.915832 -1.91641 0
M  V30 9156 H 837.064 0.464283 -0.826526 0
M  V30 9157 H 836.77 2.21366 -2.73295 0
M  V30 9158 H 836.644 3.45939 -1.50353 0
M  V30 9159 H 839.031 2.86431 -0.710037 0
M  V30 9160 H 839.112 1.62787 -1.97317 0
M  V30 9161 H 838.756 3.43895 -3.73763 0
M  V30 9162 H 838.686 4.66362 -2.4457 0
M  V30 9163 H 841.177 3.14014 -2.10247 0
M  V30 9164 H 841.49 6.0526 -4.80499 0
M  V30 9165 H 839.835 5.44759 -4.31582 0
M  V30 9166 H 843.026 3.84215 -2.67389 0
M  V30 9167 H 843.199 5.17039 -3.90608 0
M  V30 9168 N 836.605 0.766683 1.37694 0
M  V30 9169 C 837.515 0.150158 2.34119 0
M  V30 9170 C 838.531 -0.685513 1.59927 0
M  V30 9171 O 839.707 -0.606616 1.92047 0
M  V30 9172 C 836.772 -0.722562 3.39087 0
M  V30 9173 C 835.833 0.128983 4.29106 0
M  V30 9174 C 835.066 -0.702178 5.29061 0
M  V30 9175 O 835.289 -1.93954 5.36412 0
M  V30 9176 O 834.223 -0.114056 6.01792 0
M  V30 9177 H 838.049 0.946829 2.88563 0
M  V30 9178 H 835.634 0.527765 1.39768 0
M  V30 9179 H 837.516 -1.22095 4.03325 0
M  V30 9180 H 836.191 -1.49751 2.86978 0
M  V30 9181 H 835.098 0.673612 3.67985 0
M  V30 9182 H 836.431 0.866892 4.84506 0
M  V30 9183 N 838.083 -1.48885 0.516809 0
M  V30 9184 C 839.332 -2.01686 -0.0239899 0
M  V30 9185 C 839.645 -1.40029 -1.3657 0
M  V30 9186 O 840.851 -1.84249 -1.9941 0
M  V30 9187 C 839.307 -3.59779 -0.0931825 0
M  V30 9188 C 838.915 -4.30416 1.24283 0
M  V30 9189 C 840.659 -4.20471 -0.583507 0
M  V30 9190 C 838.566 -5.80408 1.13494 0
M  V30 9191 H 837.496 -0.753892 -0.0127376 0
M  V30 9192 H 840.147 -1.71273 0.65861 0
M  V30 9193 H 838.529 -3.86976 -0.840577 0
M  V30 9194 H 839.703 -4.14905 2.00476 0
M  V30 9195 H 838.018 -3.81539 1.66785 0
M  V30 9196 H 840.615 -5.30333 -0.681987 0
M  V30 9197 H 840.958 -3.84898 -1.58617 0
M  V30 9198 H 841.491 -3.97654 0.107814 0
M  V30 9199 H 838.23 -6.20532 2.11235 0
M  V30 9200 H 837.75 -5.98368 0.414167 0
M  V30 9201 H 839.429 -6.41781 0.820162 0
M  V30 9202 N 839.561 -0.251338 -1.55583 0
M  V30 9203 C 840.808 0.372169 -1.99051 0
M  V30 9204 C 841.136 1.57623 -1.13953 0
M  V30 9205 O 840.391 1.94762 -0.191398 0
M  V30 9206 C 840.69 0.821186 -3.47838 0
M  V30 9207 C 840.356 -0.275608 -4.50057 0
M  V30 9208 C 839.018 -0.57683 -4.7773 0
M  V30 9209 C 841.37 -1.01585 -5.11204 0
M  V30 9210 C 838.698 -1.62229 -5.63825 0
M  V30 9211 C 841.05 -2.05087 -5.98433 0
M  V30 9212 C 839.714 -2.35869 -6.24437 0
M  V30 9213 H 838.984 0.136186 -0.728378 0
M  V30 9214 H 841.631 -0.360089 -1.88084 0
M  V30 9215 H 839.936 1.63272 -3.56159 0
M  V30 9216 H 841.633 1.31396 -3.78861 0
M  V30 9217 H 838.223 -0.030697 -4.28589 0
M  V30 9218 H 842.407 -0.79639 -4.89869 0
M  V30 9219 H 837.663 -1.86607 -5.82226 0
M  V30 9220 H 841.837 -2.62934 -6.44855 0
M  V30 9221 H 839.464 -3.17017 -6.90944 0
M  V30 9222 N 841.039 1.57585 0.0217189 0
M  V30 9223 C 842.45 1.7787 0.567377 0
M  V30 9224 C 842.801 0.883337 1.7519 0
M  V30 9225 O 841.926 0.0800819 2.16252 0
M  V30 9226 C 842.521 3.2257 1.03606 0
M  V30 9227 C 841.08 3.44026 1.52718 0
M  V30 9228 C 840.227 2.73313 0.468545 0
M  V30 9229 H 843.178 1.57377 -0.2045 0
M  V30 9230 H 843.199 3.29488 1.9031 0
M  V30 9231 H 842.711 3.87711 0.173739 0
M  V30 9232 H 840.812 2.8407 2.41111 0
M  V30 9233 H 840.925 4.52659 1.56962 0
M  V30 9234 H 839.289 2.37299 0.925263 0
M  V30 9235 H 840.072 3.41141 -0.384438 0
M  V30 9236 N 842.517 -0.29412 1.54831 0
M  V30 9237 C 843.449 -1.38476 1.82639 0
M  V30 9238 C 844.462 -1.46517 0.709694 0
M  V30 9239 O 845.651 -1.48712 0.987269 0
M  V30 9240 C 842.751 -2.76791 1.95551 0
M  V30 9241 C 841.924 -2.91599 3.26019 0
M  V30 9242 C 840.983 -4.10456 3.29261 0
M  V30 9243 O 840.009 -4.02214 4.02756 0
M  V30 9244 N 841.211 -5.21422 2.55145 0
M  V30 9245 H 843.976 -1.14974 2.76769 0
M  V30 9246 H 841.537 -0.484206 1.5449 0
M  V30 9247 H 843.529 -3.5456 1.95113 0
M  V30 9248 H 842.099 -2.93209 1.08384 0
M  V30 9249 H 841.319 -2.00886 3.39173 0
M  V30 9250 H 842.607 -2.98409 4.12104 0
M  V30 9251 H 842.005 -5.31 1.95078 0
M  V30 9252 H 840.562 -5.97501 2.60454 0
M  V30 9253 N 843.995 -1.47404 -0.557645 0
M  V30 9254 C 845.22 -1.57868 -1.34508 0
M  V30 9255 C 845.645 -0.229151 -1.86699 0
M  V30 9256 O 845.003 0.794908 -1.62944 0
M  V30 9257 C 845.051 -2.60712 -2.49122 0
M  V30 9258 O 844.155 -2.15952 -3.51338 0
M  V30 9259 H 843.496 -0.530335 -0.399551 0
M  V30 9260 H 846.026 -1.93181 -0.673954 0
M  V30 9261 H 846.036 -2.81118 -2.95697 0
M  V30 9262 H 844.711 -3.58701 -2.10491 0
M  V30 9263 H 843.288 -2.05644 -3.11071 0
M  V30 9264 N 845.473 0.80434 -1.35529 0
M  V30 9265 C 846.403 1.93086 -1.31301 0
M  V30 9266 C 847.384 1.69068 -0.187044 0
M  V30 9267 O 848.569 1.90399 -0.382359 0
M  V30 9268 C 845.699 3.29867 -1.0865 0
M  V30 9269 C 844.653 3.68373 -2.17911 0
M  V30 9270 C 843.979 5.0334 -1.80423 0
M  V30 9271 C 845.279 3.78516 -3.59893 0
M  V30 9272 H 846.973 1.96882 -2.25561 0
M  V30 9273 H 844.519 0.945841 -1.08581 0
M  V30 9274 H 846.472 4.08281 -1.04331 0
M  V30 9275 H 845.196 3.2642 -0.108359 0
M  V30 9276 H 843.855 2.92247 -2.21331 0
M  V30 9277 H 843.503 4.96399 -0.812213 0
M  V30 9278 H 843.203 5.30074 -2.53565 0
M  V30 9279 H 844.727 5.84191 -1.77633 0
M  V30 9280 H 846.141 4.47155 -3.58783 0
M  V30 9281 H 844.538 4.16721 -4.31814 0
M  V30 9282 H 845.608 2.8001 -3.95882 0
M  V30 9283 N 846.951 1.19563 1.02676 0
M  V30 9284 C 848.362 1.00158 1.57561 0
M  V30 9285 C 848.713 -0.444922 1.91089 0
M  V30 9286 O 847.838 -1.32466 1.71119 0
M  V30 9287 C 848.433 1.81181 2.86284 0
M  V30 9288 C 846.992 1.66171 3.37734 0
M  V30 9289 C 846.139 1.7975 2.11152 0
M  V30 9290 H 849.09 1.33904 0.85179 0
M  V30 9291 H 849.111 1.30916 3.57269 0
M  V30 9292 H 848.623 2.86454 2.6185 0
M  V30 9293 H 846.724 0.634927 3.6715 0
M  V30 9294 H 846.837 2.46832 4.10622 0
M  V30 9295 H 845.201 1.22833 2.23123 0
M  V30 9296 H 845.984 2.86487 1.89157 0
M  V30 9297 N 848.429 -1.21819 0.999893 0
M  V30 9298 C 849.376 -2.24003 0.556005 0
M  V30 9299 C 850.346 -1.60825 -0.415287 0
M  V30 9300 O 851.531 -1.88123 -0.318481 0
M  V30 9301 C 848.671 -3.44904 -0.116289 0
M  V30 9302 C 847.784 -4.22573 0.897574 0
M  V30 9303 C 846.919 -5.30831 0.198073 0
M  V30 9304 C 845.958 -6.00225 1.19983 0
M  V30 9305 N 845.095 -7.00111 0.528157 0
M  V30 9306 H 849.935 -2.61334 1.43208 0
M  V30 9307 H 847.472 -1.28431 0.717205 0
M  V30 9308 H 849.43 -4.13908 -0.523055 0
M  V30 9309 H 848.06 -3.08315 -0.956108 0
M  V30 9310 H 847.112 -3.52797 1.42262 0
M  V30 9311 H 848.424 -4.70363 1.66013 0
M  V30 9312 H 847.578 -6.06121 -0.265065 0
M  V30 9313 H 846.317 -4.84033 -0.596924 0
M  V30 9314 H 845.322 -5.23711 1.67353 0
M  V30 9315 H 846.547 -6.4911 1.99582 0
M  V30 9316 H 844.493 -6.55534 -0.247276 0
M  V30 9317 H 844.41 -7.45943 1.22904 0
M  V30 9318 H 845.678 -7.7945 0.0880543 0
M  V30 9319 N 849.908 -0.773975 -1.37286 0
M  V30 9320 C 850.838 -0.175782 -2.32837 0
M  V30 9321 C 851.819 0.680603 -1.5589 0
M  V30 9322 O 853.004 0.617607 -1.84117 0
M  V30 9323 C 850.134 0.702388 -3.40123 0
M  V30 9324 C 849.088 -0.0528687 -4.27967 0
M  V30 9325 C 848.414 0.944891 -5.26285 0
M  V30 9326 C 849.714 -1.23316 -5.07534 0
M  V30 9327 H 851.408 -0.974016 -2.83114 0
M  V30 9328 H 848.954 -0.469826 -1.3612 0
M  V30 9329 H 850.907 1.13069 -4.05947 0
M  V30 9330 H 849.631 1.53316 -2.88378 0
M  V30 9331 H 848.29 -0.461978 -3.63678 0
M  V30 9332 H 847.938 1.77028 -4.70819 0
M  V30 9333 H 847.638 0.444079 -5.8592 0
M  V30 9334 H 849.162 1.37209 -5.94984 0
M  V30 9335 H 850.576 -0.881395 -5.66484 0
M  V30 9336 H 848.973 -1.66621 -5.76504 0
M  V30 9337 H 850.043 -2.03617 -4.40077 0
M  V30 9338 N 851.386 1.48609 -0.524698 0
M  V30 9339 C 852.316 2.32366 0.229837 0
M  V30 9340 C 853.297 1.41759 0.940129 0
M  V30 9341 O 854.482 1.7065 0.926936 0
M  V30 9342 C 851.612 3.22835 1.28043 0
M  V30 9343 C 850.566 4.22424 0.688603 0
M  V30 9344 C 849.892 5.0199 1.84146 0
M  V30 9345 C 851.192 5.21217 -0.336176 0
M  V30 9346 H 852.886 2.95698 -0.469339 0
M  V30 9347 H 850.432 1.42197 -0.227156 0
M  V30 9348 H 852.385 3.80253 1.8162 0
M  V30 9349 H 851.109 2.57492 2.00912 0
M  V30 9350 H 849.768 3.66185 0.174402 0
M  V30 9351 H 849.416 4.33076 2.5584 0
M  V30 9352 H 849.116 5.69392 1.45142 0
M  V30 9353 H 850.64 5.62259 2.38111 0
M  V30 9354 H 852.054 5.7319 0.112307 0
M  V30 9355 H 850.451 5.96642 -0.643324 0
M  V30 9356 H 851.521 4.68676 -1.24381 0
M  V30 9357 N 852.864 0.259585 1.55447 0
M  V30 9358 C 853.794 -0.62852 2.24882 0
M  V30 9359 C 854.775 -1.17128 1.23349 0
M  V30 9360 O 855.96 -1.20829 1.52033 0
M  V30 9361 C 853.09 -1.81983 2.95803 0
M  V30 9362 C 852.044 -1.40929 4.04132 0
M  V30 9363 C 851.37 -2.68246 4.62545 0
M  V30 9364 C 852.67 -0.570956 5.1917 0
M  V30 9365 H 854.364 -0.0495021 2.99359 0
M  V30 9366 H 851.91 -0.0223688 1.43983 0
M  V30 9367 H 853.863 -2.44689 3.43082 0
M  V30 9368 H 852.587 -2.42444 2.18835 0
M  V30 9369 H 851.246 -0.805519 3.57641 0
M  V30 9370 H 850.894 -3.26931 3.82263 0
M  V30 9371 H 850.594 -2.41495 5.35681 0
M  V30 9372 H 852.118 -3.31827 5.12565 0
M  V30 9373 H 853.532 -1.10262 5.62597 0
M  V30 9374 H 851.929 -0.398979 5.98772 0
M  V30 9375 H 852.999 0.413918 4.8313 0
M  V30 9376 N 854.342 -1.57594 -0.0133615 0
M  V30 9377 C 855.567 -1.94649 -0.715996 0
M  V30 9378 C 855.992 -0.860786 -1.67249 0
M  V30 9379 O 855.35 0.182228 -1.80382 0
M  V30 9380 C 855.398 -3.30789 -1.43566 0
M  V30 9381 O 854.502 -3.24148 -2.54955 0
M  V30 9382 H 853.843 -0.635801 -0.191449 0
M  V30 9383 H 856.373 -2.04569 0.0358478 0
M  V30 9384 H 856.383 -3.66045 -1.80208 0
M  V30 9385 H 855.058 -4.09367 -0.734263 0
M  V30 9386 H 853.635 -3.00548 -2.20739 0
M  V30 9387 N 855.82 0.285905 -1.54985 0
M  V30 9388 C 857.069 1.01691 -1.74189 0
M  V30 9389 C 857.382 1.87908 -0.543135 0
M  V30 9390 O 858.588 2.64389 -0.617305 0
M  V30 9391 C 857.044 1.85785 -3.0824 0
M  V30 9392 C 856.652 1.04497 -4.35642 0
M  V30 9393 C 858.396 2.58393 -3.36798 0
M  V30 9394 C 856.303 1.87955 -5.60738 0
M  V30 9395 H 855.233 0.383396 -0.649248 0
M  V30 9396 H 857.884 0.27317 -1.81455 0
M  V30 9397 H 856.266 2.64205 -2.94978 0
M  V30 9398 H 857.44 0.305847 -4.59784 0
M  V30 9399 H 855.755 0.434023 -4.14132 0
M  V30 9400 H 858.352 3.21214 -4.27464 0
M  V30 9401 H 858.695 3.28011 -2.56349 0
M  V30 9402 H 859.228 1.87012 -3.511 0
M  V30 9403 H 855.967 1.22781 -6.43898 0
M  V30 9404 H 855.487 2.59499 -5.40759 0
M  V30 9405 H 857.166 2.45636 -5.98558 0
M  V30 9406 N 857.298 1.47698 0.54982 0
M  V30 9407 C 858.245 1.60739 1.65625 0
M  V30 9408 C 859.215 0.450129 1.59884 0
M  V30 9409 O 860.4 0.671123 1.78607 0
M  V30 9410 C 857.54 1.63457 3.03934 0
M  V30 9411 C 856.653 2.90152 3.20056 0
M  V30 9412 C 855.788 2.84157 4.48807 0
M  V30 9413 C 854.827 4.05644 4.58387 0
M  V30 9414 N 853.964 3.97843 5.78503 0
M  V30 9415 H 858.804 2.55234 1.53817 0
M  V30 9416 H 856.341 1.26593 0.749173 0
M  V30 9417 H 858.299 1.63015 3.84034 0
M  V30 9418 H 856.929 0.724689 3.1456 0
M  V30 9419 H 855.981 3.00428 2.33339 0
M  V30 9420 H 857.293 3.80097 3.22998 0
M  V30 9421 H 856.447 2.82006 5.37175 0
M  V30 9422 H 855.186 1.91908 4.48356 0
M  V30 9423 H 854.191 4.08092 3.6843 0
M  V30 9424 H 855.416 4.9903 4.60593 0
M  V30 9425 H 853.362 3.08401 5.78986 0
M  V30 9426 H 853.279 4.81473 5.82855 0
M  V30 9427 H 854.547 3.99719 6.69212 0
M  V30 9428 N 858.776 -0.797141 1.35954 0
M  V30 9429 C 860.022 -1.55636 1.30954 0
M  V30 9430 C 860.377 -1.92071 -0.112515 0
M  V30 9431 O 859.67 -1.5926 -1.06521 0
M  V30 9432 C 859.864 -2.84847 2.15863 0
M  V30 9433 C 859.693 -2.61039 3.66182 0
M  V30 9434 C 858.463 -2.56452 4.35385 0
M  V30 9435 C 860.661 -2.30766 4.59621 0
M  V30 9436 N 858.643 -2.2446 5.71394 0
M  V30 9437 C 860.014 -2.08695 5.8382 0
M  V30 9438 C 862.069 -2.16708 4.48266 0
M  V30 9439 C 860.772 -1.73989 6.9794 0
M  V30 9440 C 862.798 -1.83399 5.62244 0
M  V30 9441 C 862.16 -1.62171 6.85478 0
M  V30 9442 H 858.259 -0.570853 0.534463 0
M  V30 9443 H 860.843 -0.932261 1.7093 0
M  V30 9444 H 859.014 -3.45137 1.78144 0
M  V30 9445 H 860.746 -3.50503 2.02311 0
M  V30 9446 H 857.501 -2.7143 3.88101 0
M  V30 9447 H 857.925 -2.11232 6.43203 0
M  V30 9448 H 862.567 -2.31814 3.53585 0
M  V30 9449 H 860.285 -1.57621 7.92579 0
M  V30 9450 H 863.871 -1.73217 5.55416 0
M  V30 9451 H 862.751 -1.36774 7.7218 0
M  V30 9452 N 860.254 -1.20106 -1.0204 0
M  V30 9453 C 861.202 -0.943231 -2.12617 0
M  V30 9454 C 862.196 0.104042 -1.6908 0
M  V30 9455 O 863.402 -0.0459732 -1.79941 0
M  V30 9456 H 859.777 -0.28767 -0.694802 0
M  V30 9457 H 861.748 -1.88221 -2.3155 0
M  V30 9458 C 860.497 -0.50771 -3.43973 0
M  V30 9459 H 859.82 -1.30514 -3.77897 0
M  V30 9460 H 861.26 -0.366486 -4.22413 0
M  V30 9461 C 859.719 0.77939 -3.27761 0
M  V30 9462 O 860.249 1.83876 -3.57145 0
M  V30 9463 N 858.455 0.739931 -2.81022 0
M  V30 9464 H 858.002 -0.122426 -2.57309 0
M  V30 9465 H 857.96 1.60147 -2.70556 0
M  V30 9466 N 861.732 1.21287 -1.00634 0
M  V30 9467 C 862.679 2.23705 -0.567876 0
M  V30 9468 C 863.649 1.61043 0.406753 0
M  V30 9469 O 864.834 1.88289 0.308499 0
M  V30 9470 C 861.974 3.44961 0.097996 0
M  V30 9471 C 861.087 4.22091 -0.919972 0
M  V30 9472 C 860.222 5.30718 -0.226222 0
M  V30 9473 C 859.261 5.99581 -1.23165 0
M  V30 9474 N 858.398 6.99821 -0.565278 0
M  V30 9475 H 863.238 2.60571 -1.44592 0
M  V30 9476 H 860.775 1.28049 -0.724006 0
M  V30 9477 H 862.733 4.1418 0.501097 0
M  V30 9478 H 861.363 3.08818 0.939744 0
M  V30 9479 H 860.415 3.52038 -1.44131 0
M  V30 9480 H 861.727 4.69476 -1.68505 0
M  V30 9481 H 860.881 6.06253 0.232917 0
M  V30 9482 H 859.62 4.84343 0.571247 0
M  V30 9483 H 858.625 5.22816 -1.70128 0
M  V30 9484 H 859.85 6.48042 -2.03022 0
M  V30 9485 H 857.796 6.55656 0.212508 0
M  V30 9486 H 857.713 7.4528 -1.26858 0
M  V30 9487 H 858.981 7.79393 -0.129389 0
M  V30 9488 N 863.21 0.781244 1.36873 0
M  V30 9489 C 864.14 0.188128 2.32741 0
M  V30 9490 C 865.121 -0.672326 1.56249 0
M  V30 9491 O 866.306 -0.607835 1.84442 0
M  V30 9492 C 863.436 -0.684341 3.40491 0
M  V30 9493 C 862.39 0.0755641 4.27933 0
M  V30 9494 C 861.716 -0.916968 5.26779 0
M  V30 9495 C 863.016 1.26006 5.06873 0
M  V30 9496 H 864.71 0.989016 2.82593 0
M  V30 9497 H 862.256 0.477038 1.35869 0
M  V30 9498 H 864.209 -1.10915 4.06541 0
M  V30 9499 H 862.933 -1.51785 2.89187 0
M  V30 9500 H 861.592 0.481258 3.63427 0
M  V30 9501 H 861.24 -1.74528 4.71751 0
M  V30 9502 H 860.94 -0.413 5.86147 0
M  V30 9503 H 862.464 -1.34052 5.95703 0
M  V30 9504 H 863.878 0.911425 5.66009 0
M  V30 9505 H 862.275 1.69676 5.75613 0
M  V30 9506 H 863.345 2.05948 4.38991 0
M  V30 9507 N 864.689 -1.48329 0.532571 0
M  V30 9508 C 865.599 -2.33445 -0.232546 0
M  V30 9509 C 866.615 -1.46651 -0.93645 0
M  V30 9510 O 867.791 -1.79627 -0.910834 0
M  V30 9511 C 864.856 -3.22824 -1.26434 0
M  V30 9512 C 863.917 -4.25492 -0.570511 0
M  V30 9513 C 863.15 -5.10601 -1.55315 0
M  V30 9514 O 863.373 -4.97733 -2.78599 0
M  V30 9515 O 862.307 -5.91927 -1.09112 0
M  V30 9516 H 866.133 -3.00119 0.464988 0
M  V30 9517 H 863.718 -1.46489 0.293462 0
M  V30 9518 H 865.6 -3.78103 -1.86055 0
M  V30 9519 H 864.275 -2.58807 -1.94424 0
M  V30 9520 H 863.182 -3.74041 0.0662587 0
M  V30 9521 H 864.515 -4.92154 0.0674904 0
M  V30 9522 N 866.167 -0.267825 -1.55308 0
M  V30 9523 C 867.444 0.402449 -1.91415 0
M  V30 9524 C 867.824 1.7428 -1.1912 0
M  V30 9525 O 867.172 2.2631 -0.315609 0
M  V30 9526 C 867.382 0.549926 -3.4464 0
M  V30 9527 C 868.73 0.836188 -4.16285 0
M  V30 9528 O 869.754 0.635009 -3.50494 0
M  V30 9529 O 868.613 1.22051 -5.32697 0
M  V30 9530 H 865.707 0.219177 -0.797427 0
M  V30 9531 H 868.253 -0.313439 -1.6678 0
M  V30 9532 H 867.025 -0.393641 -3.89315 0
M  V30 9533 H 866.648 1.31556 -3.75205 0
M  V30 9534 N 867.645 1.57599 0.00500368 0
M  V30 9535 C 868.891 1.90631 0.691919 0
M  V30 9536 C 869.224 0.868443 1.737 0
M  V30 9537 O 868.499 -0.113482 1.94169 0
M  V30 9538 C 868.782 3.34255 1.33961 0
M  V30 9539 C 868.635 4.48755 0.306413 0
M  V30 9540 C 869.954 3.77211 2.26715 0
M  V30 9541 H 867.073 0.693279 0.250066 0
M  V30 9542 H 869.715 1.89946 -0.0452634 0
M  V30 9543 H 867.865 3.3497 1.96793 0
M  V30 9544 H 869.537 4.60176 -0.321841 0
M  V30 9545 H 867.78 4.32203 -0.371852 0
M  V30 9546 H 868.451 5.46193 0.798554 0
M  V30 9547 H 870.927 3.78017 1.73904 0
M  V30 9548 H 869.803 4.78466 2.69002 0
M  V30 9549 H 870.064 3.10801 3.14413 0
M  V30 9550 N 869.123 -0.277682 1.55134 0
M  V30 9551 C 870.086 -1.32635 1.86924 0
M  V30 9552 C 871.086 -1.42578 0.743507 0
M  V30 9553 O 872.276 -1.4181 1.01171 0
M  V30 9554 C 869.408 -2.70832 2.07034 0
M  V30 9555 H 870.601 -1.0568 2.80663 0
M  V30 9556 H 868.154 -0.515517 1.47554 0
M  V30 9557 H 868.889 -3.02974 1.15661 0
M  V30 9558 H 868.674 -2.65001 2.88993 0
M  V30 9559 H 870.164 -3.46611 2.32918 0
M  V30 9560 N 870.601 -1.47988 -0.541979 0
M  V30 9561 C 871.533 -1.5769 -1.66332 0
M  V30 9562 C 872.546 -0.461994 -1.56107 0
M  V30 9563 O 873.735 -0.732306 -1.62787 0
M  V30 9564 C 870.835 -1.47939 -3.04905 0
M  V30 9565 C 870.008 -2.74263 -3.40733 0
M  V30 9566 C 869.067 -2.58133 -4.58534 0
M  V30 9567 O 868.093 -3.31991 -4.62354 0
M  V30 9568 N 869.295 -1.6696 -5.55972 0
M  V30 9569 H 872.06 -2.54389 -1.5845 0
M  V30 9570 H 869.621 -1.4456 -0.728979 0
M  V30 9571 H 871.613 -1.34861 -3.81569 0
M  V30 9572 H 870.183 -0.592626 -3.06931 0
M  V30 9573 H 869.403 -3.01992 -2.53366 0
M  V30 9574 H 870.691 -3.58094 -3.6145 0
M  V30 9575 H 870.089 -1.06134 -5.55655 0
M  V30 9576 H 868.646 -1.59826 -6.31901 0
M  V30 9577 N 872.079 0.78992 -1.36375 0
M  V30 9578 C 873.009 1.91683 -1.33341 0
M  V30 9579 C 873.99 1.68861 -0.204965 0
M  V30 9580 O 875.175 1.89982 -0.402531 0
M  V30 9581 C 872.305 3.28696 -1.12143 0
M  V30 9582 C 871.259 3.66041 -2.21806 0
M  V30 9583 C 870.585 5.01399 -1.85751 0
M  V30 9584 C 871.885 3.74677 -3.63888 0
M  V30 9585 H 873.579 1.94478 -2.27637 0
M  V30 9586 H 871.125 0.934271 -1.09578 0
M  V30 9587 H 873.078 4.07151 -1.08656 0
M  V30 9588 H 871.802 3.26287 -0.142974 0
M  V30 9589 H 870.461 2.89883 -2.24418 0
M  V30 9590 H 870.109 4.9551 -0.864817 0
M  V30 9591 H 869.809 5.27355 -2.59173 0
M  V30 9592 H 871.333 5.82274 -1.83819 0
M  V30 9593 H 872.747 4.43324 -3.63506 0
M  V30 9594 H 871.144 4.12118 -4.3621 0
M  V30 9595 H 872.214 2.75795 -3.9883 0
M  V30 9596 N 873.557 1.20646 1.01402 0
M  V30 9597 C 874.489 0.915392 2.10127 0
M  V30 9598 C 875.502 -0.0978705 1.62506 0
M  V30 9599 O 876.691 0.133477 1.78 0
M  V30 9600 C 873.791 0.351304 3.37074 0
M  V30 9601 C 872.964 1.41673 4.13821 0
M  V30 9602 C 872.023 0.8635 5.19067 0
M  V30 9603 O 871.049 1.54481 5.47836 0
M  V30 9604 N 872.251 -0.325799 5.79585 0
M  V30 9605 H 875.016 1.85132 2.35682 0
M  V30 9606 H 872.577 1.11048 1.17813 0
M  V30 9607 H 874.569 -0.032996 4.04687 0
M  V30 9608 H 873.139 -0.489242 3.08748 0
M  V30 9609 H 872.359 1.97526 3.41141 0
M  V30 9610 H 873.647 2.1342 4.61876 0
M  V30 9611 H 873.045 -0.896534 5.58551 0
M  V30 9612 H 871.602 -0.651708 6.48534 0
M  V30 9613 N 875.035 -1.20752 1.01276 0
M  V30 9614 C 875.998 -2.2162 0.584583 0
M  V30 9615 C 876.998 -1.57094 -0.343215 0
M  V30 9616 O 878.188 -1.73696 -0.132433 0
M  V30 9617 C 875.32 -3.40583 -0.146872 0
M  V30 9618 H 876.513 -2.61015 1.47686 0
M  V30 9619 H 874.066 -1.34148 0.802123 0
M  V30 9620 H 874.801 -3.06686 -1.05424 0
M  V30 9621 H 874.586 -3.88642 0.51958 0
M  V30 9622 H 876.076 -4.15339 -0.433924 0
M  V30 9623 N 876.513 -0.788492 -1.36457 0
M  V30 9624 C 877.443 -0.200468 -2.32638 0
M  V30 9625 C 878.424 0.664031 -1.56603 0
M  V30 9626 O 879.609 0.598045 -1.84762 0
M  V30 9627 C 876.739 0.666274 -3.40849 0
M  V30 9628 C 875.693 -0.0982574 -4.27887 0
M  V30 9629 C 875.019 0.889018 -5.27258 0
M  V30 9630 C 876.319 -1.28692 -5.06197 0
M  V30 9631 H 878.013 -1.00399 -2.82065 0
M  V30 9632 H 875.559 -0.484237 -1.35614 0
M  V30 9633 H 877.512 1.08757 -4.07124 0
M  V30 9634 H 876.236 1.50249 -2.89987 0
M  V30 9635 H 874.895 -0.500525 -3.63167 0
M  V30 9636 H 874.543 1.72024 -4.7267 0
M  V30 9637 H 874.243 0.381909 -5.86358 0
M  V30 9638 H 875.767 1.30891 -5.96406 0
M  V30 9639 H 877.181 -0.941429 -5.65517 0
M  V30 9640 H 875.578 -1.72726 -5.74705 0
M  V30 9641 H 876.648 -2.08273 -4.37893 0
M  V30 9642 N 877.991 1.48044 -0.54043 0
M  V30 9643 C 878.921 2.32597 0.205178 0
M  V30 9644 C 879.902 1.42748 0.925041 0
M  V30 9645 O 881.087 1.71624 0.908784 0
M  V30 9646 C 878.217 3.24175 1.24612 0
M  V30 9647 C 877.171 4.23131 0.64376 0
M  V30 9648 C 876.497 5.03915 1.78812 0
M  V30 9649 C 877.797 5.20831 -0.39144 0
M  V30 9650 H 879.491 2.95184 -0.500676 0
M  V30 9651 H 877.037 1.41948 -0.242225 0
M  V30 9652 H 878.99 3.82158 1.77576 0
M  V30 9653 H 877.714 2.59608 1.98169 0
M  V30 9654 H 876.373 3.66349 0.135554 0
M  V30 9655 H 876.021 4.35765 2.51232 0
M  V30 9656 H 875.721 5.709 1.39094 0
M  V30 9657 H 877.245 5.64753 2.32134 0
M  V30 9658 H 878.659 5.73277 0.0515064 0
M  V30 9659 H 877.056 5.95926 -0.706569 0
M  V30 9660 H 878.126 4.6733 -1.29345 0
M  V30 9661 N 879.47 0.276058 1.55163 0
M  V30 9662 C 880.402 -0.644254 2.19959 0
M  V30 9663 C 881.415 -1.11675 1.18459 0
M  V30 9664 O 882.604 -1.0385 1.45181 0
M  V30 9665 C 879.704 -1.89093 2.81242 0
M  V30 9666 C 878.877 -1.56509 4.08441 0
M  V30 9667 C 877.936 -2.66433 4.53762 0
M  V30 9668 O 876.962 -2.32579 5.19515 0
M  V30 9669 N 878.164 -3.96509 4.23982 0
M  V30 9670 H 880.929 -0.0896808 2.99566 0
M  V30 9671 H 878.49 0.0971981 1.61608 0
M  V30 9672 H 880.482 -2.61929 3.08505 0
M  V30 9673 H 879.052 -2.35453 2.05622 0
M  V30 9674 H 878.272 -0.670522 3.88455 0
M  V30 9675 H 879.56 -1.32242 4.91314 0
M  V30 9676 H 878.958 -4.26834 3.71254 0
M  V30 9677 H 877.515 -4.6572 4.56014 0
M  V30 9678 N 880.948 -1.576 0.00335426 0
M  V30 9679 C 882.197 -1.89892 -0.680001 0
M  V30 9680 C 882.51 -0.878731 -1.7475 0
M  V30 9681 O 883.716 -1.09199 -2.48572 0
M  V30 9682 C 882.172 -3.37098 -1.26066 0
M  V30 9683 C 881.78 -4.4742 -0.227807 0
M  V30 9684 C 883.524 -3.78495 -1.92202 0
M  V30 9685 C 881.431 -5.85706 -0.81865 0
M  V30 9686 H 880.361 -0.708578 -0.257746 0
M  V30 9687 H 883.012 -1.83387 0.0644472 0
M  V30 9688 H 881.394 -3.38451 -2.05589 0
M  V30 9689 H 882.568 -4.57589 0.54307 0
M  V30 9690 H 880.883 -4.15064 0.333297 0
M  V30 9691 H 883.48 -4.7915 -2.37318 0
M  V30 9692 H 883.823 -3.12187 -2.75399 0
M  V30 9693 H 884.356 -3.79456 -1.19408 0
M  V30 9694 H 881.095 -6.55495 -0.0253787 0
M  V30 9695 H 880.615 -5.79196 -1.55861 0
M  V30 9696 H 882.294 -6.33469 -1.31627 0
M  V30 9697 N 882.426 0.269451 -1.5528 0
M  V30 9698 C 883.672 0.997946 -1.77236 0
M  V30 9699 C 884.027 1.83808 -0.568546 0
M  V30 9700 O 883.32 1.8651 0.438706 0
M  V30 9701 C 883.514 1.91 -3.02082 0
M  V30 9702 C 883.343 1.15963 -4.34491 0
M  V30 9703 C 882.113 0.873873 -4.97686 0
M  V30 9704 C 884.311 0.548307 -5.11369 0
M  V30 9705 N 882.293 0.0970863 -6.13823 0
M  V30 9706 C 883.664 -0.0941413 -6.19929 0
M  V30 9707 C 885.719 0.456507 -4.95803 0
M  V30 9708 C 884.422 -0.819547 -7.14616 0
M  V30 9709 C 886.448 -0.255315 -5.90849 0
M  V30 9710 C 885.81 -0.886488 -6.988 0
M  V30 9711 H 881.909 0.347038 -0.700777 0
M  V30 9712 H 884.493 0.273262 -1.92773 0
M  V30 9713 H 882.664 2.60691 -2.87915 0
M  V30 9714 H 884.396 2.57237 -3.12428 0
M  V30 9715 H 881.151 1.18003 -4.58663 0
M  V30 9716 H 881.575 -0.278741 -6.76426 0
M  V30 9717 H 886.217 0.930164 -4.12441 0
M  V30 9718 H 883.935 -1.30488 -7.97495 0
M  V30 9719 H 887.521 -0.32671 -5.80882 0
M  V30 9720 H 886.401 -1.42851 -7.71079 0
M  V30 9721 N 883.904 1.48273 0.534124 0
M  V30 9722 C 885.315 1.49667 1.1161 0
M  V30 9723 C 885.666 0.264139 1.94414 0
M  V30 9724 O 884.791 -0.629084 2.07054 0
M  V30 9725 C 885.386 2.71191 2.03079 0
M  V30 9726 C 883.945 2.7547 2.56502 0
M  V30 9727 C 883.092 2.43119 1.33373 0
M  V30 9728 H 886.043 1.55449 0.319578 0
M  V30 9729 H 886.064 2.49473 2.87304 0
M  V30 9730 H 885.576 3.60879 1.42785 0
M  V30 9731 H 883.677 1.89979 3.20529 0
M  V30 9732 H 883.79 3.76787 2.95919 0
M  V30 9733 H 882.154 1.94187 1.64813 0
M  V30 9734 H 882.937 3.35044 0.748375 0
M  V30 9735 N 885.382 -0.782676 1.36792 0
M  V30 9736 C 886.329 -1.89558 1.31667 0
M  V30 9737 C 887.299 -1.65076 0.184147 0
M  V30 9738 O 888.484 -1.87143 0.371753 0
M  V30 9739 C 885.624 -3.26469 1.11858 0
M  V30 9740 C 884.737 -3.62978 2.34245 0
M  V30 9741 C 883.872 -4.89041 2.07394 0
M  V30 9742 C 882.911 -5.18249 3.25706 0
M  V30 9743 N 882.048 -6.35497 2.98476 0
M  V30 9744 H 886.888 -1.93274 2.26824 0
M  V30 9745 H 884.425 -0.945057 1.12726 0
M  V30 9746 H 886.383 -4.05431 0.983968 0
M  V30 9747 H 885.013 -3.22158 0.203531 0
M  V30 9748 H 884.065 -2.79087 2.58485 0
M  V30 9749 H 885.377 -3.80507 3.22514 0
M  V30 9750 H 884.531 -5.75883 1.90901 0
M  V30 9751 H 883.27 -4.73594 1.16446 0
M  V30 9752 H 882.275 -4.29887 3.4275 0
M  V30 9753 H 883.5 -5.35611 4.1749 0
M  V30 9754 H 881.446 -6.21429 2.10146 0
M  V30 9755 H 881.363 -6.5339 3.80286 0
M  V30 9756 H 882.631 -7.25304 2.85577 0
M  V30 9757 N 886.86 -1.21182 -1.00761 0
M  V30 9758 C 887.79 -0.992773 -2.11344 0
M  V30 9759 C 888.771 0.0813618 -1.69905 0
M  V30 9760 O 889.956 -0.0779503 -1.94043 0
M  V30 9761 C 887.086 -0.553826 -3.42856 0
M  V30 9762 C 886.04 -1.57223 -3.98077 0
M  V30 9763 C 885.366 -0.989605 -5.25463 0
M  V30 9764 C 886.666 -2.95839 -4.30438 0
M  V30 9765 H 888.36 -1.91766 -2.29927 0
M  V30 9766 H 885.906 -0.923426 -1.10494 0
M  V30 9767 H 887.859 -0.387771 -4.19612 0
M  V30 9768 H 886.583 0.406702 -3.24058 0
M  V30 9769 H 885.242 -1.7258 -3.23437 0
M  V30 9770 H 884.89 -0.0208743 -5.02996 0
M  V30 9771 H 884.59 -1.66984 -5.63374 0
M  V30 9772 H 886.114 -0.834815 -6.04866 0
M  V30 9773 H 887.528 -2.8394 -4.98047 0
M  V30 9774 H 885.925 -3.60851 -4.79486 0
M  V30 9775 H 886.995 -3.46882 -3.38823 0
M  V30 9776 N 888.338 1.20213 -1.01915 0
M  V30 9777 C 889.749 1.7136 -0.741131 0
M  V30 9778 C 890.1 1.81705 0.740107 0
M  V30 9779 O 889.225 1.48139 1.57746 0
M  V30 9780 C 889.82 3.11231 -1.33869 0
M  V30 9781 C 888.379 3.59677 -1.10948 0
M  V30 9782 C 887.526 2.36809 -1.4428 0
M  V30 9783 H 890.477 1.05191 -1.1883 0
M  V30 9784 H 890.498 3.7342 -0.730585 0
M  V30 9785 H 890.01 3.03669 -2.41675 0
M  V30 9786 H 888.111 3.72568 -0.0492052 0
M  V30 9787 H 888.224 4.44351 -1.79134 0
M  V30 9788 H 886.588 2.39674 -0.861881 0
M  V30 9789 H 887.371 2.31886 -2.53148 0
M  V30 9790 N 889.816 0.795718 1.36037 0
M  V30 9791 C 891.227 0.433379 1.816 0
M  V30 9792 C 891.578 -1.04341 1.66155 0
M  V30 9793 O 890.703 -1.81004 1.18603 0
M  V30 9794 C 891.298 0.77985 3.29703 0
M  V30 9795 C 889.857 0.470256 3.73451 0
M  V30 9796 C 889.004 1.01119 2.58206 0
M  V30 9797 H 891.955 0.988317 1.24169 0
M  V30 9798 H 891.976 0.0732898 3.80429 0
M  V30 9799 H 891.488 1.85473 3.40913 0
M  V30 9800 H 889.589 -0.596332 3.67797 0
M  V30 9801 H 889.702 0.995276 4.68648 0
M  V30 9802 H 888.066 0.434077 2.50974 0
M  V30 9803 H 888.849 2.09196 2.72198 0
M  V30 9804 N 891.294 -1.47756 0.548274 0
M  V30 9805 C 892.71 -1.58247 0.207401 0
M  V30 9806 C 892.91 -1.54804 -1.28988 0
M  V30 9807 O 891.966 -1.44673 -2.06944 0
M  V30 9808 C 893.279 -2.89129 0.826142 0
M  V30 9809 C 894.827 -3.02695 0.79655 0
M  V30 9810 C 895.302 -4.36264 1.3942 0
M  V30 9811 N 896.793 -4.42877 1.35698 0
M  V30 9812 C 897.528 -5.44773 1.78913 0
M  V30 9813 N 897.024 -6.53528 2.29942 0
M  V30 9814 N 898.817 -5.35765 1.70038 0
M  V30 9815 H 890.968 -1.48236 1.52117 0
M  V30 9816 H 893.231 -0.704957 0.633829 0
M  V30 9817 H 892.937 -2.97358 1.87806 0
M  V30 9818 H 892.811 -3.75891 0.313916 0
M  V30 9819 H 895.198 -2.94067 -0.246655 0
M  V30 9820 H 895.279 -2.17496 1.34644 0
M  V30 9821 H 894.923 -4.45646 2.43642 0
M  V30 9822 H 894.853 -5.20179 0.819827 0
M  V30 9823 H 897.344 -3.64874 0.983623 0
M  V30 9824 H 897.657 -7.27441 2.60863 0
M  V30 9825 H 896.002 -6.54442 2.33947 0
M  V30 9826 H 899.193 -4.49699 1.29955 0
M  V30 9827 H 899.366 -6.1504 2.04035 0
M  V30 9828 N 892.772 -0.284283 -1.55015 0
M  V30 9829 C 893.682 0.60906 -2.26556 0
M  V30 9830 C 894.698 1.16246 -1.29472 0
M  V30 9831 O 895.874 1.1908 -1.62425 0
M  V30 9832 C 892.939 1.77246 -2.97968 0
M  V30 9833 C 892 1.25482 -4.10552 0
M  V30 9834 C 891.233 2.36277 -4.78549 0
M  V30 9835 O 891.456 3.55829 -4.45805 0
M  V30 9836 O 890.39 2.03914 -5.66306 0
M  V30 9837 H 894.216 0.0292298 -3.03686 0
M  V30 9838 H 891.801 -0.0513466 -1.49312 0
M  V30 9839 H 893.683 2.45062 -3.42815 0
M  V30 9840 H 892.358 2.33921 -2.23747 0
M  V30 9841 H 891.265 0.542859 -3.7014 0
M  V30 9842 H 892.598 0.733708 -4.86701 0
M  V30 9843 N 894.251 1.57596 -0.0117121 0
M  V30 9844 C 895.214 2.08089 0.960816 0
M  V30 9845 C 896.214 0.992519 1.26514 0
M  V30 9846 O 897.404 1.25475 1.20837 0
M  V30 9847 C 894.536 2.53217 2.28241 0
M  V30 9848 H 895.729 2.9529 0.523829 0
M  V30 9849 H 893.282 1.54508 0.235995 0
M  V30 9850 H 894.017 1.69294 2.76604 0
M  V30 9851 H 893.802 3.32714 2.0747 0
M  V30 9852 H 895.292 2.92568 2.97983 0
M  V30 9853 N 895.729 -0.261212 1.5542 0
M  V30 9854 C 896.659 -1.32712 1.92119 0
M  V30 9855 C 897.64 -1.50934 0.784406 0
M  V30 9856 O 898.825 -1.63781 1.04352 0
M  V30 9857 C 895.955 -2.68453 2.20341 0
M  V30 9858 C 894.909 -2.64947 3.36136 0
M  V30 9859 C 894.235 -4.04349 3.49865 0
M  V30 9860 C 895.535 -2.23182 4.72215 0
M  V30 9861 H 897.229 -1.02245 2.81401 0
M  V30 9862 H 894.775 -0.490406 1.35392 0
M  V30 9863 H 896.728 -3.43144 2.44603 0
M  V30 9864 H 895.452 -3.00527 1.27871 0
M  V30 9865 H 894.111 -1.92714 3.11861 0
M  V30 9866 H 893.759 -4.33665 2.5484 0
M  V30 9867 H 893.459 -4.02895 4.27726 0
M  V30 9868 H 894.983 -4.80761 3.76432 0
M  V30 9869 H 896.397 -2.87599 4.95943 0
M  V30 9870 H 894.794 -2.32867 5.53076 0
M  V30 9871 H 895.864 -1.18327 4.70241 0
M  V30 9872 N 897.207 -1.48554 -0.526253 0
M  V30 9873 C 898.117 -1.66044 -1.65731 0
M  V30 9874 C 899.133 -0.542951 -1.65312 0
M  V30 9875 O 900.309 -0.814495 -1.84195 0
M  V30 9876 C 897.374 -1.69959 -3.02184 0
M  V30 9877 C 896.435 -2.93362 -3.13428 0
M  V30 9878 C 895.668 -2.97081 -4.43372 0
M  V30 9879 O 895.891 -2.09103 -5.3069 0
M  V30 9880 O 894.825 -3.8929 -4.59061 0
M  V30 9881 H 898.651 -2.61811 -1.53912 0
M  V30 9882 H 896.236 -1.31999 -0.699759 0
M  V30 9883 H 898.118 -1.75033 -3.83329 0
M  V30 9884 H 896.793 -0.773658 -3.14319 0
M  V30 9885 H 895.7 -2.93818 -2.31564 0
M  V30 9886 H 897.033 -3.85352 -3.06211 0
M  V30 9887 N 898.685 0.775411 -1.37205 0
M  V30 9888 C 899.615 1.90258 -1.35367 0
M  V30 9889 C 900.596 1.68634 -0.222864 0
M  V30 9890 O 901.781 1.89545 -0.422659 0
M  V30 9891 C 898.911 3.27488 -1.15623 0
M  V30 9892 C 897.865 3.63668 -2.25676 0
M  V30 9893 C 897.191 4.994 -1.91059 0
M  V30 9894 C 898.491 3.70797 -3.67841 0
M  V30 9895 H 900.185 1.92053 -2.29687 0
M  V30 9896 H 897.731 0.922597 -1.10563 0
M  V30 9897 H 899.684 4.05976 -1.12968 0
M  V30 9898 H 898.408 3.26117 -0.177573 0
M  V30 9899 H 897.067 2.87486 -2.2748 0
M  V30 9900 H 896.715 4.94565 -0.917324 0
M  V30 9901 H 896.415 5.24576 -2.64751 0
M  V30 9902 H 897.939 5.80291 -1.89985 0
M  V30 9903 H 899.353 4.39444 -3.68187 0
M  V30 9904 H 897.75 4.07468 -4.40556 0
M  V30 9905 H 898.82 2.71549 -4.01732 0
M  V30 9906 N 900.163 1.21714 1.00117 0
M  V30 9907 C 901.093 1.00397 2.10815 0
M  V30 9908 C 902.074 -0.0723502 1.69946 0
M  V30 9909 O 903.259 0.0882398 1.93999 0
M  V30 9910 C 900.389 0.572001 3.42557 0
M  V30 9911 C 899.343 1.59331 3.97237 0
M  V30 9912 C 898.669 1.01746 5.2493 0
M  V30 9913 C 899.969 2.98117 4.28863 0
M  V30 9914 H 901.663 1.92983 2.28906 0
M  V30 9915 H 899.209 0.929273 1.10002 0
M  V30 9916 H 901.162 0.410018 4.19401 0
M  V30 9917 H 899.886 -0.38951 3.24269 0
M  V30 9918 H 898.545 1.74293 3.22518 0
M  V30 9919 H 898.193 0.0475491 5.02978 0
M  V30 9920 H 897.893 1.69969 5.62481 0
M  V30 9921 H 899.417 0.866881 6.04415 0
M  V30 9922 H 900.831 2.86578 4.96534 0
M  V30 9923 H 899.228 3.63389 4.77565 0
M  V30 9924 H 900.298 3.48674 3.36979 0
M  V30 9925 N 901.641 -1.19671 1.02551 0
M  V30 9926 C 902.918 -1.85014 0.634771 0
M  V30 9927 C 903.298 -1.91574 -0.886706 0
M  V30 9928 O 902.646 -1.43022 -1.78205 0
M  V30 9929 C 902.856 -3.24167 1.29292 0
M  V30 9930 C 904.204 -4.00363 1.41402 0
M  V30 9931 O 905.228 -3.33553 1.24983 0
M  V30 9932 O 904.087 -5.2003 1.6802 0
M  V30 9933 H 901.181 -0.797147 0.220196 0
M  V30 9934 H 903.727 -1.27188 1.12345 0
M  V30 9935 H 902.499 -3.14208 2.33215 0
M  V30 9936 H 902.122 -3.89634 0.791895 0
M  V30 9937 N 903.119 -0.802921 -1.35613 0
M  V30 9938 C 904.366 -0.381576 -1.98872 0
M  V30 9939 C 904.694 1.0503 -1.63704 0
M  V30 9940 O 903.949 1.7427 -0.890418 0
M  V30 9941 C 904.248 -0.507806 -3.53774 0
M  V30 9942 C 903.914 -1.90245 -4.088 0
M  V30 9943 C 902.576 -2.28401 -4.2354 0
M  V30 9944 C 904.928 -2.81504 -4.3864 0
M  V30 9945 C 902.256 -3.57192 -4.65436 0
M  V30 9946 C 904.608 -4.09737 -4.81973 0
M  V30 9947 C 903.272 -4.47897 -4.94919 0
M  V30 9948 H 902.542 -0.139629 -0.727726 0
M  V30 9949 H 905.189 -1.023 -1.61886 0
M  V30 9950 H 903.494 0.21708 -3.91198 0
M  V30 9951 H 905.191 -0.162625 -4.0067 0
M  V30 9952 H 901.781 -1.596 -3.97776 0
M  V30 9953 H 905.965 -2.53276 -4.26808 0
M  V30 9954 H 901.221 -3.86611 -4.73648 0
M  V30 9955 H 905.395 -4.80555 -5.04024 0
M  V30 9956 H 903.022 -5.47747 -5.27141 0
M  V30 9957 N 904.597 1.47463 -0.556102 0
M  V30 9958 C 905.545 2.31692 0.205299 0
M  V30 9959 C 906.539 1.42857 0.910394 0
M  V30 9960 O 907.745 1.59628 0.831806 0
M  V30 9961 H 904.12 0.747172 0.0850775 0
M  V30 9962 H 906.091 2.93758 -0.524305 0
M  V30 9963 C 904.84 3.25487 1.22283 0
M  V30 9964 H 904.163 3.93806 0.689697 0
M  V30 9965 H 905.603 3.87257 1.7265 0
M  V30 9966 C 904.062 2.48931 2.27013 0
M  V30 9967 O 904.592 2.23296 3.33919 0
M  V30 9968 N 902.798 2.0996 2.00911 0
M  V30 9969 H 902.345 2.31008 1.13986 0
M  V30 9970 H 902.303 1.59053 2.712 0
M  V30 9971 N 906.075 0.2925 1.54862 0
M  V30 9972 C 907.305 -0.321646 2.04081 0
M  V30 9973 C 907.713 -1.48712 1.16967 0
M  V30 9974 O 907.056 -1.82755 0.18609 0
M  V30 9975 C 907.118 -0.848678 3.49339 0
M  V30 9976 C 906.782 0.190416 4.56603 0
M  V30 9977 C 907.779 1.01595 5.09877 0
M  V30 9978 C 905.464 0.329666 5.01217 0
M  V30 9979 C 907.458 1.96676 6.06298 0
M  V30 9980 C 905.145 1.28393 5.9746 0
M  V30 9981 C 906.143 2.10097 6.49883 0
M  V30 9982 O 905.831 3.03907 7.44242 0
M  V30 9983 H 905.563 -0.075098 0.671816 0
M  V30 9984 H 908.117 0.427531 2.00901 0
M  V30 9985 H 906.347 -1.64823 3.49815 0
M  V30 9986 H 908.036 -1.37779 3.81801 0
M  V30 9987 H 908.802 0.919197 4.7621 0
M  V30 9988 H 904.681 -0.296317 4.60047 0
M  V30 9989 H 908.225 2.60488 6.47141 0
M  V30 9990 H 904.122 1.38144 6.30545 0
M  V30 9991 H 904.89 2.98787 7.62016 0
M  V30 9992 N 907.553 -1.57587 0.0200696 0
M  V30 9993 C 908.964 -1.79312 -0.520019 0
M  V30 9994 C 909.315 -0.929475 -1.72787 0
M  V30 9995 O 908.44 -0.137389 -2.15963 0
M  V30 9996 C 909.035 -3.25203 -0.950172 0
M  V30 9997 C 907.594 -3.47954 -1.43543 0
M  V30 9998 C 906.741 -2.74459 -0.395917 0
M  V30 9999 H 909.692 -1.56779 0.246153 0
M  V30 10000 H 909.713 -3.34418 -1.81508 0
M  V30 10001 H 909.225 -3.88035 -0.070883 0
M  V30 10002 H 907.326 -2.90363 -2.33495 0
M  V30 10003 H 907.439 -4.56661 -1.44905 0
M  V30 10004 H 905.803 -2.39669 -0.862022 0
M  V30 10005 H 906.586 -3.40001 0.47475 0
M  V30 10006 N 909.032 0.252966 -1.55557 0
M  V30 10007 C 910.309 1.00432 -1.67847 0
M  V30 10008 C 910.689 2.03587 -0.55816 0
M  V30 10009 O 910.037 2.24239 0.439197 0
M  V30 10010 C 910.247 1.64313 -3.079 0
M  V30 10011 C 911.595 2.14726 -3.66303 0
M  V30 10012 O 912.619 1.74264 -3.10661 0
M  V30 10013 O 911.478 2.89 -4.63833 0
M  V30 10014 H 908.572 0.467102 -0.682455 0
M  V30 10015 H 911.118 0.247233 -1.67889 0
M  V30 10016 H 909.89 0.896681 -3.80888 0
M  V30 10017 H 909.513 2.46657 -3.11843 0
M  V30 10018 N 910.51 1.48831 0.518367 0
M  V30 10019 C 911.442 1.60317 1.63802 0
M  V30 10020 C 912.455 0.486771 1.55352 0
M  V30 10021 O 913.644 0.758111 1.61601 0
M  V30 10022 C 910.744 1.52771 3.02513 0
M  V30 10023 C 909.917 2.79649 3.36326 0
M  V30 10024 C 908.976 2.65396 4.54369 0
M  V30 10025 O 908.002 3.39304 4.57013 0
M  V30 10026 N 909.204 1.75784 5.53245 0
M  V30 10027 H 911.969 2.56878 1.54383 0
M  V30 10028 H 909.53 1.45701 0.705889 0
M  V30 10029 H 911.522 1.40914 3.79375 0
M  V30 10030 H 910.092 0.641381 3.05949 0
M  V30 10031 H 909.312 3.05985 2.48529 0
M  V30 10032 H 910.6 3.63799 3.55707 0
M  V30 10033 H 909.998 1.14961 5.53896 0
M  V30 10034 H 908.555 1.69859 6.29278 0
M  V30 10035 N 911.988 -0.768124 1.37614 0
M  V30 10036 C 913.218 -1.555 1.36027 0
M  V30 10037 C 913.626 -1.89119 -0.0554273 0
M  V30 10038 O 912.969 -1.52203 -1.02859 0
M  V30 10039 C 913.031 -2.8906 2.13739 0
M  V30 10040 C 912.695 -2.78058 3.62674 0
M  V30 10041 C 913.692 -2.48841 4.5648 0
M  V30 10042 C 911.377 -2.95966 4.05844 0
M  V30 10043 C 913.371 -2.37665 5.91434 0
M  V30 10044 C 911.058 -2.84411 5.40882 0
M  V30 10045 C 912.056 -2.55301 6.33491 0
M  V30 10046 O 911.744 -2.43779 7.66046 0
M  V30 10047 H 911.476 -0.488263 0.467521 0
M  V30 10048 H 914.03 -0.959583 1.81607 0
M  V30 10049 H 912.26 -3.50735 1.62854 0
M  V30 10050 H 913.949 -3.5048 2.04741 0
M  V30 10051 H 914.715 -2.34687 4.24437 0
M  V30 10052 H 910.594 -3.17625 3.34119 0
M  V30 10053 H 914.138 -2.14865 6.63686 0
M  V30 10054 H 910.035 -2.98134 5.72527 0
M  V30 10055 H 910.803 -2.59101 7.76408 0
M  V30 10056 N 913.466 -1.22244 -0.994698 0
M  V30 10057 C 914.712 -1.04746 -1.73655 0
M  V30 10058 C 915.045 0.41668 -1.89677 0
M  V30 10059 O 914.32 1.30897 -1.43862 0
M  V30 10060 C 914.603 -1.75716 -3.14318 0
M  V30 10061 C 914.456 -3.29714 -3.05955 0
M  V30 10062 C 915.775 -1.50809 -4.13455 0
M  V30 10063 H 912.894 -0.381921 -0.630322 0
M  V30 10064 H 915.536 -1.50559 -1.15897 0
M  V30 10065 H 913.686 -1.3677 -3.63629 0
M  V30 10066 H 915.358 -3.78093 -2.64279 0
M  V30 10067 H 913.601 -3.59484 -2.42804 0
M  V30 10068 H 914.272 -3.74547 -4.05485 0
M  V30 10069 H 916.748 -1.84636 -3.72892 0
M  V30 10070 H 915.624 -2.02964 -5.09997 0
M  V30 10071 H 915.885 -0.440292 -4.39902 0
M  V30 10072 N 914.944 1.19125 -1.03184 0
M  V30 10073 C 916.36 1.40909 -0.749447 0
M  V30 10074 C 916.56 1.9022 0.664729 0
M  V30 10075 O 915.616 2.08085 1.43028 0
M  V30 10076 C 916.929 2.41761 -1.78807 0
M  V30 10077 C 918.477 2.55503 -1.80796 0
M  V30 10078 C 918.952 3.59612 -2.83626 0
M  V30 10079 N 920.443 3.6711 -2.82461 0
M  V30 10080 C 921.178 4.47366 -3.5868 0
M  V30 10081 N 920.674 5.31302 -4.44623 0
M  V30 10082 N 922.467 4.42044 -3.47208 0
M  V30 10083 H 914.618 0.854399 -1.94458 0
M  V30 10084 H 916.881 0.437753 -0.840878 0
M  V30 10085 H 916.587 2.12559 -2.80199 0
M  V30 10086 H 916.461 3.40981 -1.61283 0
M  V30 10087 H 918.848 2.84027 -0.800803 0
M  V30 10088 H 918.929 1.56427 -2.02396 0
M  V30 10089 H 918.573 3.3183 -3.84515 0
M  V30 10090 H 918.503 4.58345 -2.59283 0
M  V30 10091 H 920.994 3.07166 -2.2013 0
M  V30 10092 H 921.307 5.89667 -4.99512 0
M  V30 10093 H 919.652 5.30753 -4.48694 0
M  V30 10094 H 922.843 3.75513 -2.79477 0
M  V30 10095 H 923.016 5.0435 -4.06859 0
M  V30 10096 N 916.422 0.810101 1.35185 0
M  V30 10097 C 917.332 0.224565 2.33523 0
M  V30 10098 C 918.348 -0.634287 1.62027 0
M  V30 10099 O 919.524 -0.545211 1.9388 0
M  V30 10100 C 916.589 -0.614319 3.41214 0
M  V30 10101 C 915.65 0.265435 4.28479 0
M  V30 10102 C 914.883 -0.533506 5.31027 0
M  V30 10103 O 915.106 -1.7679 5.42311 0
M  V30 10104 O 914.04 0.0774573 6.0185 0
M  V30 10105 H 917.866 1.03815 2.85405 0
M  V30 10106 H 915.451 0.571964 1.38018 0
M  V30 10107 H 917.333 -1.09201 4.07005 0
M  V30 10108 H 916.008 -1.40545 2.91597 0
M  V30 10109 H 914.915 0.790343 3.65656 0
M  V30 10110 H 916.248 1.0206 4.81503 0
M  V30 10111 N 917.9 -1.47166 0.563914 0
M  V30 10112 C 919.13 -2.06546 0.0473599 0
M  V30 10113 C 919.538 -1.41607 -1.25476 0
M  V30 10114 O 918.881 -0.50894 -1.76509 0
M  V30 10115 C 918.943 -3.58873 -0.212249 0
M  V30 10116 C 918.607 -4.45893 1.00144 0
M  V30 10117 C 919.604 -4.83594 1.90873 0
M  V30 10118 C 917.289 -4.87309 1.218 0
M  V30 10119 C 919.283 -5.61519 3.01621 0
M  V30 10120 C 916.97 -5.64997 2.32856 0
M  V30 10121 C 917.968 -6.02013 3.22597 0
M  V30 10122 O 917.656 -6.78135 4.31727 0
M  V30 10123 H 917.388 -0.674441 0.0458823 0
M  V30 10124 H 919.942 -1.9006 0.778865 0
M  V30 10125 H 918.172 -3.73596 -0.998145 0
M  V30 10126 H 919.861 -4.00248 -0.675005 0
M  V30 10127 H 920.627 -4.52192 1.7535 0
M  V30 10128 H 916.506 -4.57959 0.528641 0
M  V30 10129 H 920.05 -5.90331 3.71693 0
M  V30 10130 H 915.947 -5.95813 2.48349 0
M  V30 10131 H 916.715 -6.96537 4.29859 0
M  V30 10132 N 919.378 -0.300708 -1.54705 0
M  V30 10133 C 920.341 0.562648 -2.22187 0
M  V30 10134 C 921.341 1.06152 -1.20782 0
M  V30 10135 O 922.531 0.957596 -1.45519 0
M  V30 10136 C 919.663 1.77899 -2.908 0
M  V30 10137 H 920.856 -0.0269361 -2.99888 0
M  V30 10138 H 918.409 -0.0515412 -1.56215 0
M  V30 10139 H 919.144 2.40841 -2.17177 0
M  V30 10140 H 918.929 1.42892 -3.65136 0
M  V30 10141 H 920.419 2.39236 -3.42281 0
M  V30 10142 N 920.856 1.57574 -0.0284266 0
M  V30 10143 C 922.102 1.92056 0.651327 0
M  V30 10144 C 922.435 0.905092 1.71819 0
M  V30 10145 O 921.71 -0.0722703 1.94366 0
M  V30 10146 C 921.993 3.37021 1.26841 0
M  V30 10147 C 921.846 4.49304 0.211157 0
M  V30 10148 C 923.165 3.81936 2.18662 0
M  V30 10149 H 920.284 0.698428 0.235304 0
M  V30 10150 H 922.926 1.89807 -0.0855435 0
M  V30 10151 H 921.076 3.39068 1.89644 0
M  V30 10152 H 922.748 4.5939 -0.419379 0
M  V30 10153 H 920.991 4.31317 -0.463445 0
M  V30 10154 H 921.662 5.47764 0.682518 0
M  V30 10155 H 924.138 3.8162 1.65847 0
M  V30 10156 H 923.014 4.84064 2.58792 0
M  V30 10157 H 923.275 3.174 3.07749 0
M  V30 10158 N 922.334 -0.244713 1.55689 0
M  V30 10159 C 923.582 -0.970525 1.77272 0
M  V30 10160 C 923.903 -1.85771 0.592804 0
M  V30 10161 O 923.173 -1.91952 -0.391323 0
M  V30 10162 H 921.753 -0.361342 0.653789 0
M  V30 10163 H 924.415 -0.262134 1.93129 0
M  V30 10164 H 923.511 -1.59096 2.68505 0
M  V30 10165 N 923.813 -1.49104 -0.510467 0
M  V30 10166 C 925.053 -1.59723 -1.27545 0
M  V30 10167 C 925.417 -0.273525 -1.90042 0
M  V30 10168 O 926.618 -0.254835 -2.67589 0
M  V30 10169 C 924.889 -2.71771 -2.3211 0
M  V30 10170 S 926.448 -3.02282 -3.18074 0
M  V30 10171 H 923.266 -0.563489 -0.433591 0
M  V30 10172 H 925.868 -1.86719 -0.579328 0
M  V30 10173 H 924.572 -3.66483 -1.84711 0
M  V30 10174 H 924.103 -2.46739 -3.06404 0
M  V30 10175 H 926.118 -2.43076 -4.32583 0
M  V30 10176 N 925.291 0.760815 -1.38019 0
M  V30 10177 C 926.221 1.88811 -1.37377 0
M  V30 10178 C 927.202 1.68388 -0.240737 0
M  V30 10179 O 928.387 1.89086 -0.442739 0
M  V30 10180 C 925.517 3.26244 -1.1909 0
M  V30 10181 C 924.471 3.61254 -2.29521 0
M  V30 10182 C 923.797 4.97346 -1.96345 0
M  V30 10183 C 925.097 3.66874 -3.71753 0
M  V30 10184 H 926.791 1.89606 -2.31711 0
M  V30 10185 H 924.337 0.910818 -1.11535 0
M  V30 10186 H 926.29 4.04755 -1.17267 0
M  V30 10187 H 925.014 3.2591 -0.212152 0
M  V30 10188 H 923.673 2.85057 -2.30517 0
M  V30 10189 H 923.321 4.93564 -0.969728 0
M  V30 10190 H 923.021 5.21739 -2.703 0
M  V30 10191 H 924.545 5.78244 -1.96129 0
M  V30 10192 H 925.959 4.35514 -3.72828 0
M  V30 10193 H 924.356 4.02772 -4.44853 0
M  V30 10194 H 925.426 2.67273 -4.0459 0
M  V30 10195 N 926.769 1.22769 0.988202 0
M  V30 10196 C 928.185 0.988665 1.2529 0
M  V30 10197 C 928.385 -0.314938 1.99024 0
M  V30 10198 O 927.441 -1.03637 2.30251 0
M  V30 10199 C 928.754 2.19046 2.06009 0
M  V30 10200 C 930.302 2.23452 2.19176 0
M  V30 10201 C 930.777 3.43196 3.03283 0
M  V30 10202 N 932.268 3.43387 3.10869 0
M  V30 10203 C 933.003 4.32693 3.7625 0
M  V30 10204 N 932.499 5.32224 4.43519 0
M  V30 10205 N 934.292 4.20457 3.73058 0
M  V30 10206 H 926.443 2.06575 0.494014 0
M  V30 10207 H 928.706 0.905452 0.28082 0
M  V30 10208 H 928.412 3.13607 1.59197 0
M  V30 10209 H 928.286 2.19492 3.06763 0
M  V30 10210 H 930.673 1.29436 2.65199 0
M  V30 10211 H 930.754 2.27042 1.17836 0
M  V30 10212 H 930.398 4.37515 2.57959 0
M  V30 10213 H 930.328 3.36847 4.04774 0
M  V30 10214 H 932.819 2.71368 2.62998 0
M  V30 10215 H 933.132 5.9664 4.91163 0
M  V30 10216 H 931.477 5.36133 4.42252 0
M  V30 10217 H 934.668 3.41949 3.19669 0
M  V30 10218 H 934.841 4.90261 4.23731 0
M  V30 10219 N 928.247 -1.18576 1.03814 0
M  V30 10220 C 929.179 -2.21607 0.585055 0
M  V30 10221 C 930.192 -1.59125 -0.343963 0
M  V30 10222 O 931.381 -1.77959 -0.138882 0
M  V30 10223 C 928.481 -3.38495 -0.165602 0
M  V30 10224 C 927.654 -4.30557 0.770662 0
M  V30 10225 C 926.713 -5.26161 0.0637534 0
M  V30 10226 O 925.739 -5.64961 0.693359 0
M  V30 10227 N 926.941 -5.67882 -1.20377 0
M  V30 10228 H 929.706 -2.61104 1.47121 0
M  V30 10229 H 927.267 -1.33336 0.918316 0
M  V30 10230 H 929.259 -3.99474 -0.648292 0
M  V30 10231 H 927.829 -2.97711 -0.953268 0
M  V30 10232 H 927.049 -3.67221 1.43326 0
M  V30 10233 H 928.337 -4.88969 1.40667 0
M  V30 10234 H 927.735 -5.38409 -1.73586 0
M  V30 10235 H 926.292 -6.31069 -1.63079 0
M  V30 10236 N 929.725 -0.817259 -1.34754 0
M  V30 10237 C 930.658 -0.180483 -2.27485 0
M  V30 10238 C 931.636 0.659792 -1.48612 0
M  V30 10239 O 932.82 0.624761 -1.77845 0
M  V30 10240 C 929.947 0.748487 -3.30326 0
M  V30 10241 C 928.993 -0.0135304 -4.26498 0
M  V30 10242 S 929.826 -1.35685 -5.18025 0
M  V30 10243 C 930.982 -0.432605 -6.24403 0
M  V30 10244 H 931.215 -0.966677 -2.81145 0
M  V30 10245 H 928.748 -0.612864 -1.41716 0
M  V30 10246 H 930.706 1.27893 -3.90069 0
M  V30 10247 H 929.367 1.50816 -2.75524 0
M  V30 10248 H 928.56 0.692454 -4.9922 0
M  V30 10249 H 928.162 -0.474344 -3.7098 0
M  V30 10250 H 930.454 0.378035 -6.76444 0
M  V30 10251 H 931.397 -1.12934 -6.99036 0
M  V30 10252 H 931.805 -0.0235533 -5.64495 0
M  V30 10253 N 931.203 1.46865 -0.571711 0
M  V30 10254 C 932.428 2.07323 -0.0564655 0
M  V30 10255 C 932.853 1.41938 1.23431 0
M  V30 10256 O 932.211 0.499334 1.74288 0
M  V30 10257 C 932.259 3.6044 0.107339 0
M  V30 10258 O 931.363 3.95558 1.1665 0
M  V30 10259 H 930.704 0.661475 -0.0578465 0
M  V30 10260 H 933.234 1.88669 -0.791524 0
M  V30 10261 H 933.244 4.06767 0.316987 0
M  V30 10262 H 931.919 4.07425 -0.835348 0
M  V30 10263 H 930.496 3.60957 0.936189 0
M  V30 10264 N 932.681 0.308908 1.54543 0
M  V30 10265 C 933.958 -0.351558 1.92415 0
M  V30 10266 C 934.338 -1.71061 1.23699 0
M  V30 10267 O 933.686 -2.25394 0.3755 0
M  V30 10268 C 933.896 -0.458357 3.45977 0
M  V30 10269 C 935.244 -0.725524 4.18355 0
M  V30 10270 O 936.268 -0.541859 3.52054 0
M  V30 10271 O 935.127 -1.07884 5.35745 0
M  V30 10272 H 932.221 -0.197957 0.802958 0
M  V30 10273 H 934.767 0.357548 1.65891 0
M  V30 10274 H 933.539 0.496723 3.88134 0
M  V30 10275 H 933.162 -1.21562 3.78561 0
M  V30 10276 N 934.159 -1.57557 0.0367827 0
M  V30 10277 C 935.069 -2.14148 -0.958017 0
M  V30 10278 C 936.085 -1.09564 -1.35173 0
M  V30 10279 O 937.261 -1.4166 -1.43158 0
M  V30 10280 C 934.326 -2.6636 -2.21931 0
M  V30 10281 C 933.387 -3.85688 -1.8853 0
M  V30 10282 C 932.62 -4.35401 -3.08645 0
M  V30 10283 O 932.843 -3.8425 -4.21554 0
M  V30 10284 O 931.777 -5.27158 -2.90497 0
M  V30 10285 H 935.603 -2.99442 -0.506797 0
M  V30 10286 H 933.188 -1.48259 -0.184275 0
M  V30 10287 H 935.07 -2.99976 -2.9596 0
M  V30 10288 H 933.745 -1.84145 -2.66219 0
M  V30 10289 H 932.652 -3.56985 -1.11861 0
M  V30 10290 H 933.985 -4.69089 -1.49052 0
M  V30 10291 N 935.637 0.236453 -1.55816 0
M  V30 10292 C 936.547 1.31418 -1.94336 0
M  V30 10293 C 937.563 1.52095 -0.845164 0
M  V30 10294 O 938.739 1.65515 -1.14746 0
M  V30 10295 C 935.804 2.6468 -2.23932 0
M  V30 10296 C 934.865 2.52435 -3.47239 0
M  V30 10297 C 934.098 3.79342 -3.75414 0
M  V30 10298 O 934.321 4.81694 -3.05495 0
M  V30 10299 O 933.255 3.77347 -4.68927 0
M  V30 10300 H 937.081 1.01739 -2.86152 0
M  V30 10301 H 934.666 0.438084 -1.42833 0
M  V30 10302 H 936.548 3.4341 -2.44228 0
M  V30 10303 H 935.223 2.94071 -1.35292 0
M  V30 10304 H 934.13 1.71955 -3.32238 0
M  V30 10305 H 935.463 2.27987 -4.36214 0
M  V30 10306 N 937.115 1.49373 0.502552 0
M  V30 10307 C 938.045 1.68839 1.61294 0
M  V30 10308 C 939.026 0.537096 1.61398 0
M  V30 10309 O 940.211 0.772764 1.78163 0
M  V30 10310 C 937.341 1.75347 2.99784 0
M  V30 10311 C 936.295 2.90251 3.14545 0
M  V30 10312 C 935.621 2.8187 4.54371 0
M  V30 10313 C 936.921 4.31207 2.94717 0
M  V30 10314 H 938.615 2.61803 1.45257 0
M  V30 10315 H 936.161 1.25987 0.697371 0
M  V30 10316 H 938.114 1.87552 3.77362 0
M  V30 10317 H 936.838 0.789814 3.16906 0
M  V30 10318 H 935.497 2.77646 2.39392 0
M  V30 10319 H 935.145 1.83416 4.68367 0
M  V30 10320 H 934.845 3.5899 4.65188 0
M  V30 10321 H 936.369 2.96081 5.34012 0
M  V30 10322 H 937.783 4.44501 3.62065 0
M  V30 10323 H 936.18 5.09536 3.17007 0
M  V30 10324 H 937.25 4.45759 1.90857 0
M  V30 10325 N 938.594 -0.753485 1.38421 0
M  V30 10326 C 939.819 -1.54783 1.38047 0
M  V30 10327 C 940.244 -1.8808 -0.0276371 0
M  V30 10328 O 939.602 -1.5058 -1.00973 0
M  V30 10329 C 939.65 -2.82353 2.24297 0
M  V30 10330 O 938.754 -3.77509 1.66014 0
M  V30 10331 H 938.095 -0.468151 0.470883 0
M  V30 10332 H 940.625 -0.931144 1.82184 0
M  V30 10333 H 940.635 -3.31277 2.38159 0
M  V30 10334 H 939.31 -2.57449 3.26639 0
M  V30 10335 H 937.887 -3.36212 1.61294 0
M  V30 10336 N 940.072 -1.23292 -0.981677 0
M  V30 10337 C 941.004 -0.970782 -2.07626 0
M  V30 10338 C 942.017 0.0547506 -1.62708 0
M  V30 10339 O 943.206 -0.180623 -1.77584 0
M  V30 10340 C 940.306 -0.44055 -3.36024 0
M  V30 10341 C 939.479 -1.52595 -4.09919 0
M  V30 10342 C 938.538 -1.00082 -5.16595 0
M  V30 10343 O 937.564 -1.68951 -5.43548 0
M  V30 10344 N 938.766 0.172017 -5.80245 0
M  V30 10345 H 941.531 -1.91316 -2.30691 0
M  V30 10346 H 939.092 -1.14133 -1.14828 0
M  V30 10347 H 941.084 -0.0743111 -4.04632 0
M  V30 10348 H 939.654 0.407211 -3.09936 0
M  V30 10349 H 938.874 -2.06501 -3.35784 0
M  V30 10350 H 940.162 -2.2559 -4.56055 0
M  V30 10351 H 939.56 0.748129 -5.60731 0
M  V30 10352 H 938.117 0.479532 -6.50034 0
M  V30 10353 N 941.55 1.18024 -1.04442 0
M  V30 10354 C 942.78 1.91753 -0.769044 0
M  V30 10355 C 943.188 1.76629 0.678141 0
M  V30 10356 O 942.531 1.09589 1.47431 0
M  V30 10357 C 942.593 3.43505 -1.0604 0
M  V30 10358 C 942.257 3.82409 -2.50225 0
M  V30 10359 C 943.254 3.8588 -3.48414 0
M  V30 10360 C 940.939 4.13594 -2.85036 0
M  V30 10361 C 942.933 4.19993 -4.79463 0
M  V30 10362 C 940.62 4.47377 -4.1629 0
M  V30 10363 C 941.618 4.50553 -5.13314 0
M  V30 10364 O 941.306 4.83546 -6.42214 0
M  V30 10365 H 941.038 0.615466 -0.279603 0
M  V30 10366 H 943.592 1.5065 -1.3962 0
M  V30 10367 H 941.822 3.84866 -0.376125 0
M  V30 10368 H 943.511 3.98486 -0.772235 0
M  V30 10369 H 944.277 3.6192 -3.2286 0
M  V30 10370 H 940.156 4.10297 -2.10185 0
M  V30 10371 H 943.7 4.22387 -5.55189 0
M  V30 10372 H 939.597 4.70798 -4.4161 0
M  V30 10373 H 940.365 5.01433 -6.46921 0
M  V30 10374 N 943.028 0.824394 1.34319 0
M  V30 10375 C 943.958 0.262077 2.32025 0
M  V30 10376 C 944.939 -0.622277 1.58309 0
M  V30 10377 O 946.124 -0.548848 1.86283 0
M  V30 10378 C 943.254 -0.57567 3.42496 0
M  V30 10379 C 942.208 0.21167 4.27476 0
M  V30 10380 C 941.534 -0.748913 5.29429 0
M  V30 10381 C 942.834 1.42068 5.02607 0
M  V30 10382 H 944.528 1.07842 2.79304 0
M  V30 10383 H 942.074 0.520022 1.34282 0
M  V30 10384 H 944.027 -0.979251 4.09864 0
M  V30 10385 H 942.751 -1.42508 2.93869 0
M  V30 10386 H 941.41 0.596636 3.61712 0
M  V30 10387 H 941.058 -1.59432 4.77064 0
M  V30 10388 H 940.758 -0.226313 5.87164 0
M  V30 10389 H 942.282 -1.15032 5.99667 0
M  V30 10390 H 943.696 1.09103 5.62823 0
M  V30 10391 H 942.093 1.87903 5.69923 0
M  V30 10392 H 943.163 2.1981 4.32217 0
M  V30 10393 N 944.506 -1.46559 0.579492 0
M  V30 10394 C 945.436 -2.33059 -0.143437 0
M  V30 10395 C 946.417 -1.4515 -0.886868 0
M  V30 10396 O 947.602 -1.73973 -0.862961 0
M  V30 10397 C 944.732 -3.27364 -1.15973 0
M  V30 10398 C 943.686 -4.24689 -0.531348 0
M  V30 10399 C 943.012 -5.08479 -1.65388 0
M  V30 10400 C 944.312 -5.1961 0.529391 0
M  V30 10401 H 946.006 -2.93753 0.578762 0
M  V30 10402 H 943.552 -1.41256 0.279775 0
M  V30 10403 H 945.505 -3.86732 -1.67382 0
M  V30 10404 H 944.229 -2.64771 -1.91217 0
M  V30 10405 H 942.888 -3.6658 -0.0383749 0
M  V30 10406 H 942.536 -4.42273 -2.3959 0
M  V30 10407 H 942.236 -5.74387 -1.23909 0
M  V30 10408 H 943.76 -5.70709 -2.17079 0
M  V30 10409 H 945.174 -5.73212 0.100506 0
M  V30 10410 H 943.571 -5.93843 0.86432 0
M  V30 10411 H 944.641 -4.63737 1.4169 0
M  V30 10412 N 945.984 -0.3171 -1.54377 0
M  V30 10413 C 946.916 0.58571 -2.2159 0
M  V30 10414 C 947.929 1.08495 -1.21378 0
M  V30 10415 O 949.118 0.999638 -1.47883 0
M  V30 10416 C 946.218 1.8157 -2.86156 0
M  V30 10417 C 945.391 1.45625 -4.12447 0
M  V30 10418 C 944.45 2.54308 -4.60667 0
M  V30 10419 O 943.476 2.18724 -5.25498 0
M  V30 10420 N 944.678 3.85129 -4.34345 0
M  V30 10421 H 947.443 0.0102247 -2.99698 0
M  V30 10422 H 945.004 -0.140011 -1.61293 0
M  V30 10423 H 946.996 2.53657 -3.15341 0
M  V30 10424 H 945.566 2.29919 -2.11793 0
M  V30 10425 H 944.786 0.567294 -3.90097 0
M  V30 10426 H 946.074 1.19169 -4.94648 0
M  V30 10427 H 945.472 4.16841 -3.8244 0
M  V30 10428 H 944.029 4.53466 -4.68201 0
M  V30 10429 N 947.462 1.57535 -0.0451378 0
M  V30 10430 C 948.392 2.14208 0.929372 0
M  V30 10431 C 949.373 1.06221 1.32858 0
M  V30 10432 O 950.558 1.34132 1.40436 0
M  V30 10433 C 947.688 2.68217 2.20629 0
M  V30 10434 C 946.642 3.81134 1.94734 0
M  V30 10435 C 945.968 4.21636 3.28828 0
M  V30 10436 C 947.268 5.06531 1.27374 0
M  V30 10437 H 948.962 2.95886 0.457348 0
M  V30 10438 H 946.508 1.42332 0.218544 0
M  V30 10439 H 948.461 3.06502 2.89196 0
M  V30 10440 H 947.185 1.83722 2.70026 0
M  V30 10441 H 945.844 3.43312 1.28579 0
M  V30 10442 H 945.492 3.34099 3.76014 0
M  V30 10443 H 945.192 4.97736 3.12302 0
M  V30 10444 H 946.716 4.62516 3.98637 0
M  V30 10445 H 948.13 5.423 1.85967 0
M  V30 10446 H 946.527 5.87735 1.21194 0
M  V30 10447 H 947.597 4.84261 0.248913 0
M  V30 10448 N 948.94 -0.228186 1.55939 0
M  V30 10449 C 950.186 -0.954964 1.78909 0
M  V30 10450 C 950.519 -1.8425 0.613648 0
M  V30 10451 O 949.794 -1.90604 -0.38737 0
M  V30 10452 C 950.077 -1.79957 3.1191 0
M  V30 10453 C 949.93 -0.938968 4.3989 0
M  V30 10454 C 951.249 -2.77859 3.41295 0
M  V30 10455 H 948.368 -0.345745 0.650868 0
M  V30 10456 H 951.01 -0.224244 1.88672 0
M  V30 10457 H 949.16 -2.42256 3.03717 0
M  V30 10458 H 950.832 -0.333225 4.60095 0
M  V30 10459 H 949.075 -0.244096 4.33113 0
M  V30 10460 H 949.746 -1.56416 5.29375 0
M  V30 10461 H 952.222 -2.25695 3.49572 0
M  V30 10462 H 951.098 -3.34062 4.35538 0
M  V30 10463 H 951.359 -3.55266 2.63132 0
M  V30 10464 N 950.418 -1.49637 -0.494624 0
M  V30 10465 C 951.35 -1.62902 -1.61231 0
M  V30 10466 C 952.363 -0.511425 -1.54558 0
M  V30 10467 O 953.552 -0.783724 -1.60375 0
M  V30 10468 C 950.652 -1.57564 -3.00045 0
M  V30 10469 C 949.825 -2.84964 -3.31835 0
M  V30 10470 C 948.884 -2.72591 -4.5009 0
M  V30 10471 O 947.91 -3.46532 -4.51558 0
M  V30 10472 N 949.112 -1.84563 -5.50379 0
M  V30 10473 H 951.877 -2.59301 -1.50276 0
M  V30 10474 H 949.438 -1.46806 -0.68262 0
M  V30 10475 H 951.43 -1.46932 -3.77085 0
M  V30 10476 H 950 -0.689974 -3.0489 0
M  V30 10477 H 949.22 -3.099 -2.4363 0
M  V30 10478 H 950.508 -3.69412 -3.49875 0
M  V30 10479 H 949.906 -1.23758 -5.51997 0
M  V30 10480 H 948.463 -1.79849 -6.26496 0
M  V30 10481 N 951.896 0.746133 -1.38819 0
M  V30 10482 C 953.142 1.50768 -1.35635 0
M  V30 10483 C 953.475 1.94132 0.0512435 0
M  V30 10484 O 952.75 1.65979 1.01396 0
M  V30 10485 C 953.033 2.7551 -2.31875 0
M  V30 10486 C 952.886 2.38236 -3.81528 0
M  V30 10487 C 954.205 3.77566 -2.26124 0
M  V30 10488 H 951.324 0.546922 -0.494009 0
M  V30 10489 H 953.966 0.854017 -1.69725 0
M  V30 10490 H 952.116 3.31285 -2.02935 0
M  V30 10491 H 953.788 1.88178 -4.21173 0
M  V30 10492 H 952.031 1.70601 -3.98846 0
M  V30 10493 H 952.702 3.27517 -4.44339 0
M  V30 10494 H 955.178 3.31349 -2.51689 0
M  V30 10495 H 954.054 4.62531 -2.95561 0
M  V30 10496 H 954.315 4.23689 -1.26254 0
M  V30 10497 N 953.375 1.23811 0.975125 0
M  V30 10498 C 954.305 1.04846 2.08638 0
M  V30 10499 C 955.286 -0.0362859 1.70061 0
M  V30 10500 O 956.471 0.12937 1.93769 0
M  V30 10501 C 953.601 0.644534 3.41267 0
M  V30 10502 C 952.555 1.67722 3.93768 0
M  V30 10503 C 951.881 1.12857 5.22654 0
M  V30 10504 C 953.181 3.07147 4.22443 0
M  V30 10505 H 954.875 1.97795 2.24761 0
M  V30 10506 H 952.421 0.952397 1.08006 0
M  V30 10507 H 954.374 0.498887 4.18436 0
M  V30 10508 H 953.098 -0.320641 3.25022 0
M  V30 10509 H 951.757 1.81095 3.18748 0
M  V30 10510 H 951.405 0.154227 5.02764 0
M  V30 10511 H 951.105 1.81862 5.58749 0
M  V30 10512 H 952.629 0.994891 6.0244 0
M  V30 10513 H 954.043 2.97045 4.90344 0
M  V30 10514 H 952.44 3.73437 4.6975 0
M  V30 10515 H 953.51 3.55743 3.29507 0
M  V30 10516 N 954.853 -1.17469 1.05066 0
M  V30 10517 C 955.8 -2.21443 0.650512 0
M  V30 10518 C 956.77 -1.62441 -0.346702 0
M  V30 10519 O 957.955 -1.89305 -0.238404 0
M  V30 10520 C 955.095 -3.45087 0.0301014 0
M  V30 10521 C 954.208 -4.18385 1.07599 0
M  V30 10522 C 953.343 -5.29513 0.423038 0
M  V30 10523 C 952.382 -5.94596 1.45333 0
M  V30 10524 N 951.519 -6.97241 0.824623 0
M  V30 10525 H 956.359 -2.55025 1.54163 0
M  V30 10526 H 953.896 -1.25274 0.771032 0
M  V30 10527 H 955.854 -4.15754 -0.347032 0
M  V30 10528 H 954.484 -3.12093 -0.824481 0
M  V30 10529 H 953.536 -3.46446 1.57097 0
M  V30 10530 H 954.848 -4.62899 1.85813 0
M  V30 10531 H 954.002 -6.067 -0.00774975 0
M  V30 10532 H 952.741 -4.86129 -0.391092 0
M  V30 10533 H 951.746 -5.16142 1.89415 0
M  V30 10534 H 952.971 -6.40061 2.26934 0
M  V30 10535 H 950.917 -6.55993 0.0309804 0
M  V30 10536 H 950.834 -7.40059 1.54432 0
M  V30 10537 H 952.102 -7.78375 0.418567 0
M  V30 10538 N 956.331 -0.831506 -1.3388 0
M  V30 10539 C 957.561 -0.436292 -2.01941 0
M  V30 10540 C 957.969 0.964979 -1.62741 0
M  V30 10541 O 957.312 1.63733 -0.832894 0
M  V30 10542 C 957.374 -0.468811 -3.5643 0
M  V30 10543 C 957.038 -1.82491 -4.18982 0
M  V30 10544 C 958.035 -2.78705 -4.38885 0
M  V30 10545 C 955.72 -2.11574 -4.55568 0
M  V30 10546 C 957.714 -4.02168 -4.94509 0
M  V30 10547 C 955.401 -3.35296 -5.10901 0
M  V30 10548 C 956.399 -4.3041 -5.30317 0
M  V30 10549 O 956.087 -5.51944 -5.84477 0
M  V30 10550 H 955.819 -0.172335 -0.653664 0
M  V30 10551 H 958.373 -1.12354 -1.71947 0
M  V30 10552 H 956.603 0.275179 -3.8572 0
M  V30 10553 H 958.292 -0.0924518 -4.05795 0
M  V30 10554 H 959.058 -2.57534 -4.10976 0
M  V30 10555 H 954.937 -1.38338 -4.39754 0
M  V30 10556 H 958.481 -4.76418 -5.09579 0
M  V30 10557 H 954.378 -3.56326 -5.3824 0
M  V30 10558 H 955.146 -5.53582 -6.029 0
M  V30 10559 N 957.809 1.4625 -0.587256 0
M  V30 10560 C 958.719 2.34147 0.145744 0
M  V30 10561 C 959.735 1.50026 0.881376 0
M  V30 10562 O 960.911 1.82884 0.843539 0
M  V30 10563 C 957.976 3.27294 1.14366 0
M  V30 10564 C 957.037 4.27317 0.412199 0
M  V30 10565 C 956.27 5.16013 1.36257 0
M  V30 10566 O 956.493 5.0773 2.59934 0
M  V30 10567 O 955.427 5.95569 0.870681 0
M  V30 10568 H 959.253 2.98187 -0.576055 0
M  V30 10569 H 956.838 1.45299 -0.347628 0
M  V30 10570 H 958.72 3.84747 1.71894 0
M  V30 10571 H 957.395 2.65845 1.84684 0
M  V30 10572 H 956.302 3.73538 -0.205036 0
M  V30 10573 H 957.635 4.91564 -0.250104 0
M  V30 10574 N 959.287 0.325282 1.54207 0
M  V30 10575 C 960.698 -0.162426 1.85992 0
M  V30 10576 C 961.049 -1.51482 1.2469 0
M  V30 10577 O 960.174 -2.092 0.553578 0
M  V30 10578 C 960.769 -0.3015 3.37456 0
M  V30 10579 C 959.328 -0.73343 3.69185 0
M  V30 10580 C 958.475 0.143831 2.76927 0
M  V30 10581 H 961.426 0.545508 1.4903 0
M  V30 10582 H 961.447 -1.13212 3.63268 0
M  V30 10583 H 960.959 0.682942 3.82044 0
M  V30 10584 H 959.06 -1.72755 3.30131 0
M  V30 10585 H 959.173 -0.535987 4.76092 0
M  V30 10586 H 957.537 -0.380892 2.51836 0
M  V30 10587 H 958.32 1.12507 3.24341 0
M  V30 10588 N 960.765 -1.57509 0.0534917 0
M  V30 10589 C 962.012 -1.92782 -0.619772 0
M  V30 10590 C 962.34 -0.932046 -1.70714 0
M  V30 10591 O 961.595 0.0552891 -1.95622 0
M  V30 10592 C 961.894 -3.34734 -1.25251 0
M  V30 10593 C 961.56 -4.49946 -0.293113 0
M  V30 10594 C 960.222 -4.81191 -0.0291223 0
M  V30 10595 C 962.574 -5.19925 0.364271 0
M  V30 10596 C 959.902 -5.79761 0.899649 0
M  V30 10597 C 962.254 -6.19489 1.28125 0
M  V30 10598 C 960.918 -6.49161 1.55389 0
M  V30 10599 H 960.188 -0.705441 -0.226791 0
M  V30 10600 H 962.835 -1.91121 0.120466 0
M  V30 10601 H 961.14 -3.32774 -2.06807 0
M  V30 10602 H 962.837 -3.59308 -1.78042 0
M  V30 10603 H 959.427 -4.25566 -0.509053 0
M  V30 10604 H 963.611 -4.95997 0.173411 0
M  V30 10605 H 958.867 -6.01085 1.11833 0
M  V30 10606 H 963.041 -6.72824 1.79669 0
M  V30 10607 H 960.668 -7.25354 2.2752 0
M  V30 10608 N 962.243 0.219913 -1.56058 0
M  V30 10609 C 963.173 1.27572 -1.9557 0
M  V30 10610 C 964.154 1.48801 -0.824148 0
M  V30 10611 O 965.339 1.60957 -1.08658 0
M  V30 10612 C 962.469 2.62517 -2.27381 0
M  V30 10613 C 961.423 2.55941 -3.43042 0
M  V30 10614 C 960.749 3.94931 -3.60463 0
M  V30 10615 C 962.049 2.10584 -4.77966 0
M  V30 10616 H 963.743 0.947482 -2.84013 0
M  V30 10617 H 961.289 0.454337 -1.36645 0
M  V30 10618 H 963.242 3.36538 -2.53615 0
M  V30 10619 H 961.966 2.97031 -1.35794 0
M  V30 10620 H 960.625 1.84377 -3.1686 0
M  V30 10621 H 960.273 4.26756 -2.66249 0
M  V30 10622 H 959.973 3.91413 -4.38258 0
M  V30 10623 H 961.497 4.70611 -3.89046 0
M  V30 10624 H 962.911 2.74349 -5.03394 0
M  V30 10625 H 961.308 2.18122 -5.59055 0
M  V30 10626 H 962.378 1.05818 -4.73213 0
M  V30 10627 N 963.721 1.49897 0.486681 0
M  V30 10628 C 964.998 1.50614 1.24799 0
M  V30 10629 C 965.378 0.24193 2.09709 0
M  V30 10630 O 964.726 -0.775237 2.14947 0
M  V30 10631 C 964.936 2.79318 2.09243 0
M  V30 10632 C 966.284 3.29371 2.67955 0
M  V30 10633 O 967.308 2.80533 2.19499 0
M  V30 10634 O 966.167 4.14466 3.56202 0
M  V30 10635 H 963.261 0.603447 0.565491 0
M  V30 10636 H 965.807 1.62174 0.499778 0
M  V30 10637 H 964.579 3.62812 1.46572 0
M  V30 10638 H 964.202 2.70687 2.91229 0
M  V30 10639 N 965.199 -0.738761 1.39212 0
M  V30 10640 C 966.439 -1.51093 1.3766 0
M  V30 10641 C 966.803 -1.91978 -0.0289655 0
M  V30 10642 O 968.004 -2.68265 -0.169465 0
M  V30 10643 C 966.275 -2.71988 2.31856 0
M  V30 10644 S 967.834 -3.61683 2.48458 0
M  V30 10645 H 964.652 -0.516868 0.48823 0
M  V30 10646 H 967.254 -0.865961 1.75275 0
M  V30 10647 H 965.958 -2.40085 3.32847 0
M  V30 10648 H 965.489 -3.41417 1.95443 0
M  V30 10649 H 967.504 -4.65447 1.71969 0
M  V30 10650 N 966.677 -1.24326 -0.968545 0
M  V30 10651 C 967.64 -1.03591 -2.04454 0
M  V30 10652 C 968.64 0.0064809 -1.60799 0
M  V30 10653 O 969.83 -0.234404 -1.72616 0
M  V30 10654 C 966.962 -0.56992 -3.36102 0
M  V30 10655 H 968.155 -1.99092 -2.24282 0
M  V30 10656 H 965.708 -1.06537 -1.14366 0
M  V30 10657 H 966.443 0.388325 -3.21967 0
M  V30 10658 H 966.228 -1.32227 -3.69132 0
M  V30 10659 H 967.718 -0.445854 -4.15213 0
M  V30 10660 N 968.156 1.1691 -1.05688 0
M  V30 10661 C 969.086 2.23275 -0.683402 0
M  V30 10662 C 970.067 1.6704 0.321206 0
M  V30 10663 O 971.252 1.93191 0.197691 0
M  V30 10664 C 968.382 3.47244 -0.0626006 0
M  V30 10665 C 967.336 4.16333 -0.992513 0
M  V30 10666 C 966.662 5.34182 -0.23533 0
M  V30 10667 C 967.962 4.68002 -2.31886 0
M  V30 10668 H 969.656 2.54771 -1.57264 0
M  V30 10669 H 967.202 1.2246 -0.757606 0
M  V30 10670 H 969.155 4.20874 0.210503 0
M  V30 10671 H 967.879 3.1503 0.861616 0
M  V30 10672 H 966.538 3.44622 -1.25026 0
M  V30 10673 H 966.186 4.9822 0.69181 0
M  V30 10674 H 965.886 5.81346 -0.855002 0
M  V30 10675 H 967.41 6.10592 0.0303717 0
M  V30 10676 H 968.824 5.33244 -2.10531 0
M  V30 10677 H 967.221 5.25764 -2.89296 0
M  V30 10678 H 968.291 3.84541 -2.95391 0
M  V30 10679 N 969.634 0.838594 1.33437 0
M  V30 10680 C 970.859 0.446701 2.02532 0
M  V30 10681 C 971.284 -0.944275 1.62681 0
M  V30 10682 O 970.642 -1.61733 0.81927 0
M  V30 10683 C 970.69 0.574794 3.55989 0
M  V30 10684 O 969.794 -0.399063 4.10465 0
M  V30 10685 H 969.135 0.181637 0.638674 0
M  V30 10686 H 971.665 1.13335 1.70342 0
M  V30 10687 H 971.675 0.456339 4.0544 0
M  V30 10688 H 970.35 1.58921 3.8434 0
M  V30 10689 H 968.927 -0.238187 3.72139 0
M  V30 10690 N 971.112 -1.45937 0.595003 0
M  V30 10691 C 972.528 -1.57507 0.257641 0
M  V30 10692 C 972.728 -1.58829 -1.23998 0
M  V30 10693 O 971.784 -1.51183 -2.02237 0
M  V30 10694 C 973.097 -2.86354 0.917708 0
M  V30 10695 C 974.645 -3.00007 0.892446 0
M  V30 10696 C 975.12 -4.31607 1.53229 0
M  V30 10697 N 976.611 -4.38336 1.49719 0
M  V30 10698 C 977.346 -5.38805 1.96154 0
M  V30 10699 N 976.842 -6.45882 2.50617 0
M  V30 10700 N 978.635 -5.30084 1.86997 0
M  V30 10701 H 970.786 -1.43322 1.56756 0
M  V30 10702 H 973.049 -0.684436 0.655936 0
M  V30 10703 H 972.755 -2.91233 1.97171 0
M  V30 10704 H 972.629 -3.74703 0.433344 0
M  V30 10705 H 975.016 -2.94703 -0.152975 0
M  V30 10706 H 975.097 -2.13103 1.41495 0
M  V30 10707 H 974.741 -4.3767 2.57697 0
M  V30 10708 H 974.671 -5.17308 0.984903 0
M  V30 10709 H 977.162 -3.6156 1.09921 0
M  V30 10710 H 977.475 -7.18774 2.83874 0
M  V30 10711 H 975.82 -6.46668 2.54649 0
M  V30 10712 H 979.011 -4.45337 1.44196 0
M  V30 10713 H 979.184 -6.08237 2.23499 0
M  V30 10714 N 972.59 -0.333456 -1.54032 0
M  V30 10715 C 973.837 0.266133 -2.00744 0
M  V30 10716 C 974.165 1.51361 -1.22148 0
M  V30 10717 O 973.42 1.93473 -0.294368 0
M  V30 10718 C 973.719 0.63565 -3.51702 0
M  V30 10719 C 973.385 -0.513786 -4.47963 0
M  V30 10720 C 972.047 -0.829253 -4.74001 0
M  V30 10721 C 974.399 -1.2854 -5.05101 0
M  V30 10722 C 971.727 -1.91888 -5.54433 0
M  V30 10723 C 974.079 -2.3652 -5.86721 0
M  V30 10724 C 972.743 -2.68637 -6.11057 0
M  V30 10725 H 972.013 0.097385 -0.734573 0
M  V30 10726 H 974.66 -0.459282 -1.85911 0
M  V30 10727 H 972.965 1.44163 -3.64313 0
M  V30 10728 H 974.662 1.11129 -3.85294 0
M  V30 10729 H 971.252 -0.25784 -4.27824 0
M  V30 10730 H 975.436 -1.05494 -4.84958 0
M  V30 10731 H 970.692 -2.17208 -5.71516 0
M  V30 10732 H 974.866 -2.96747 -6.30011 0
M  V30 10733 H 972.493 -3.53197 -6.73169 0
M  V30 10734 N 974.068 1.57479 -0.061844 0
M  V30 10735 C 974.998 2.15181 0.9066 0
M  V30 10736 C 975.979 1.07624 1.31724 0
M  V30 10737 O 977.164 1.35614 1.39006 0
M  V30 10738 C 974.294 2.70542 2.17771 0
M  V30 10739 C 973.248 3.83178 1.9068 0
M  V30 10740 C 972.574 4.25099 3.24337 0
M  V30 10741 C 973.874 5.07853 1.21994 0
M  V30 10742 H 975.568 2.96355 0.42594 0
M  V30 10743 H 973.114 1.42556 0.203435 0
M  V30 10744 H 975.067 3.09552 2.85929 0
M  V30 10745 H 973.791 1.86575 2.68062 0
M  V30 10746 H 972.45 3.44656 1.24931 0
M  V30 10747 H 972.098 3.38069 3.72449 0
M  V30 10748 H 971.798 5.01021 3.07005 0
M  V30 10749 H 973.322 4.66718 3.93709 0
M  V30 10750 H 974.736 5.44242 1.80204 0
M  V30 10751 H 973.133 5.88987 1.14954 0
M  V30 10752 H 974.203 4.84497 0.197536 0
M  V30 10753 N 975.546 -0.211634 1.56173 0
M  V30 10754 C 976.476 -1.26533 1.96244 0
M  V30 10755 C 977.457 -1.48362 0.832028 0
M  V30 10756 O 978.642 -1.60378 1.0951 0
M  V30 10757 C 975.772 -2.61307 2.2877 0
M  V30 10758 C 974.726 -2.54119 3.44395 0
M  V30 10759 C 974.052 -3.93014 3.62552 0
M  V30 10760 C 975.352 -2.08046 4.79076 0
M  V30 10761 H 977.046 -0.932407 2.84511 0
M  V30 10762 H 974.592 -0.447084 1.36884 0
M  V30 10763 H 976.545 -3.35188 2.55396 0
M  V30 10764 H 975.269 -2.96307 1.37367 0
M  V30 10765 H 973.928 -1.82694 3.17834 0
M  V30 10766 H 973.576 -4.25338 2.68508 0
M  V30 10767 H 973.276 -3.89083 4.40327 0
M  V30 10768 H 974.8 -4.68542 3.91537 0
M  V30 10769 H 976.214 -2.71676 5.04842 0
M  V30 10770 H 974.611 -2.15154 5.60204 0
M  V30 10771 H 975.681 -1.03306 4.73768 0
M  V30 10772 N 977.024 -1.50153 -0.478725 0
M  V30 10773 C 977.934 -1.71232 -1.60364 0
M  V30 10774 C 978.95 -0.595269 -1.63501 0
M  V30 10775 O 980.126 -0.872683 -1.81511 0
M  V30 10776 C 977.191 -1.79487 -2.96623 0
M  V30 10777 C 976.252 -3.03185 -3.03937 0
M  V30 10778 C 975.485 -3.11036 -4.33696 0
M  V30 10779 O 975.708 -2.2588 -5.23769 0
M  V30 10780 O 974.642 -4.03698 -4.46443 0
M  V30 10781 H 978.468 -2.66575 -1.45505 0
M  V30 10782 H 976.053 -1.34158 -0.65741 0
M  V30 10783 H 977.935 -1.8714 -3.77567 0
M  V30 10784 H 976.61 -0.873264 -3.11698 0
M  V30 10785 H 975.517 -3.01036 -2.22099 0
M  V30 10786 H 976.85 -3.94898 -2.93796 0
M  V30 10787 N 978.502 0.731368 -1.39602 0
M  V30 10788 C 979.918 1.03739 -1.21286 0
M  V30 10789 C 980.118 2.01353 -0.0769875 0
M  V30 10790 O 979.174 2.45978 0.570193 0
M  V30 10791 C 980.487 1.59621 -2.54837 0
M  V30 10792 C 982.035 1.71683 -2.61713 0
M  V30 10793 C 982.51 2.30973 -3.95494 0
M  V30 10794 N 984.001 2.38378 -3.97153 0
M  V30 10795 C 984.736 2.852 -4.97442 0
M  V30 10796 N 984.232 3.31891 -6.08129 0
M  V30 10797 N 986.025 2.84441 -4.84819 0
M  V30 10798 H 978.176 0.0840456 -2.12234 0
M  V30 10799 H 980.439 0.0999038 -0.942721 0
M  V30 10800 H 980.145 0.953608 -3.38525 0
M  V30 10801 H 980.019 2.58375 -2.74813 0
M  V30 10802 H 982.406 2.35064 -1.78406 0
M  V30 10803 H 982.487 0.715714 -2.45583 0
M  V30 10804 H 982.131 1.68219 -4.79234 0
M  V30 10805 H 982.061 3.31769 -4.08946 0
M  V30 10806 H 984.552 2.05382 -3.17217 0
M  V30 10807 H 984.865 3.66138 -6.8056 0
M  V30 10808 H 983.21 3.2989 -6.11717 0
M  V30 10809 H 986.401 2.4729 -3.97448 0
M  V30 10810 H 986.574 3.20616 -5.63124 0
M  V30 10811 N 979.98 1.24838 0.961938 0
M  V30 10812 C 980.943 1.04674 2.03902 0
M  V30 10813 C 981.943 0.00204674 1.608 0
M  V30 10814 O 983.133 0.243555 1.72489 0
M  V30 10815 C 980.265 0.587736 3.35795 0
M  V30 10816 H 981.458 2.00278 2.23223 0
M  V30 10817 H 979.011 1.07142 1.138 0
M  V30 10818 H 979.746 -0.371244 3.22168 0
M  V30 10819 H 979.531 1.34182 3.68426 0
M  V30 10820 H 981.021 0.467867 4.14971 0
M  V30 10821 N 981.458 -1.16348 1.06306 0
M  V30 10822 C 982.388 -2.2291 0.695234 0
M  V30 10823 C 983.369 -1.67208 -0.312343 0
M  V30 10824 O 984.554 -1.93293 -0.187442 0
M  V30 10825 C 981.684 -3.47205 0.0810149 0
M  V30 10826 C 980.638 -4.15801 1.01458 0
M  V30 10827 C 979.964 -5.3405 0.263656 0
M  V30 10828 C 981.264 -4.66766 2.34365 0
M  V30 10829 H 982.958 -2.53934 1.58613 0
M  V30 10830 H 980.504 -1.22056 0.76409 0
M  V30 10831 H 982.457 -4.2098 -0.18818 0
M  V30 10832 H 981.181 -3.15482 -0.844897 0
M  V30 10833 H 979.84 -3.43954 1.26852 0
M  V30 10834 H 979.488 -4.9858 -0.665378 0
M  V30 10835 H 979.188 -5.80885 0.88582 0
M  V30 10836 H 980.712 -6.106 0.00200994 0
M  V30 10837 H 982.126 -5.3212 2.13356 0
M  V30 10838 H 980.523 -5.24223 2.9208 0
M  V30 10839 H 981.593 -3.82969 2.97426 0
M  V30 10840 N 982.937 -0.845659 -1.3299 0
M  V30 10841 C 984.185 -0.443774 -1.97168 0
M  V30 10842 C 984.506 1.00192 -1.67292 0
M  V30 10843 O 983.776 1.69891 -0.975397 0
M  V30 10844 H 982.356 -0.161111 -0.729419 0
M  V30 10845 H 985.018 -1.08011 -1.62233 0
M  V30 10846 H 984.114 -0.581414 -3.06637 0
M  V30 10847 N 984.415 1.45619 -0.602734 0
M  V30 10848 C 985.363 2.32228 0.131484 0
M  V30 10849 C 986.357 1.45681 0.864484 0
M  V30 10850 O 987.563 1.62193 0.7806 0
M  V30 10851 H 983.938 0.7495 0.0612638 0
M  V30 10852 H 985.909 2.91941 -0.617496 0
M  V30 10853 C 984.658 3.29213 1.11866 0
M  V30 10854 H 983.981 3.95801 0.564061 0
M  V30 10855 H 985.421 3.92554 1.60242 0
M  V30 10856 C 983.88 2.56028 2.18978 0
M  V30 10857 O 984.41 2.33806 3.26646 0
M  V30 10858 N 982.616 2.16245 1.94129 0
M  V30 10859 H 982.163 2.34518 1.06579 0
M  V30 10860 H 982.121 1.67601 2.66003 0
M  V30 10861 N 985.893 0.34162 1.53853 0
M  V30 10862 C 987.309 -0.0103769 1.59597 0
M  V30 10863 C 987.509 -1.48897 1.35764 0
M  V30 10864 O 986.565 -2.24743 1.15095 0
M  V30 10865 C 987.878 0.424067 2.97695 0
M  V30 10866 C 989.426 0.376247 3.1073 0
M  V30 10867 C 989.901 0.786129 4.51203 0
M  V30 10868 N 991.392 0.74024 4.57247 0
M  V30 10869 C 992.127 1.02937 5.64085 0
M  V30 10870 N 991.623 1.38655 6.78783 0
M  V30 10871 N 993.416 0.953734 5.5395 0
M  V30 10872 H 985.567 1.30477 1.67599 0
M  V30 10873 H 987.83 0.531753 0.78482 0
M  V30 10874 H 987.536 1.45493 3.20195 0
M  V30 10875 H 987.41 -0.201713 3.7666 0
M  V30 10876 H 989.797 -0.645441 2.87955 0
M  V30 10877 H 989.878 1.0372 2.33828 0
M  V30 10878 H 989.522 1.80582 4.74713 0
M  V30 10879 H 989.452 0.102671 5.265 0
M  V30 10880 H 991.943 0.476763 3.7488 0
M  V30 10881 H 992.256 1.59206 7.56223 0
M  V30 10882 H 990.601 1.42498 6.80235 0
M  V30 10883 H 993.792 0.674044 4.63222 0
M  V30 10884 H 993.965 1.18241 6.37121 0
M  V30 10885 N 987.371 -1.57444 0.0701946 0
M  V30 10886 C 988.787 -1.57009 -0.286431 0
M  V30 10887 C 988.987 -1.07946 -1.70147 0
M  V30 10888 O 988.043 -0.744622 -2.41271 0
M  V30 10889 C 989.356 -3.00542 -0.0975466 0
M  V30 10890 C 990.904 -3.12553 -0.167205 0
M  V30 10891 C 991.379 -4.58 -0.00662047 0
M  V30 10892 N 992.87 -4.63158 -0.0622778 0
M  V30 10893 C 993.605 -5.73388 0.0375831 0
M  V30 10894 N 993.101 -6.92537 0.190873 0
M  V30 10895 N 994.894 -5.62097 -0.0193672 0
M  V30 10896 H 987.045 -1.87651 0.995023 0
M  V30 10897 H 989.308 -0.865006 0.387902 0
M  V30 10898 H 989.014 -3.40543 0.878822 0
M  V30 10899 H 988.888 -3.67485 -0.850547 0
M  V30 10900 H 991.275 -2.72439 -1.13406 0
M  V30 10901 H 991.356 -2.48251 0.616871 0
M  V30 10902 H 991 -4.98803 0.956992 0
M  V30 10903 H 990.93 -5.20332 -0.810081 0
M  V30 10904 H 993.421 -3.77475 -0.179229 0
M  V30 10905 H 993.734 -7.72365 0.25926 0
M  V30 10906 H 992.079 -6.94632 0.226214 0
M  V30 10907 H 995.27 -4.67897 -0.137815 0
M  V30 10908 H 995.443 -6.4797 0.0619121 0
M  V30 10909 N 988.849 0.203349 -1.56283 0
M  V30 10910 C 990.098 0.92315 -1.79334 0
M  V30 10911 C 990.411 1.84765 -0.641977 0
M  V30 10912 O 991.617 2.60745 -0.756584 0
M  V30 10913 C 990.073 1.69184 -3.17655 0
M  V30 10914 C 989.681 0.812581 -4.40569 0
M  V30 10915 C 991.425 2.40177 -3.50022 0
M  V30 10916 C 989.332 1.57967 -5.69913 0
M  V30 10917 H 988.262 0.348442 -0.668659 0
M  V30 10918 H 990.913 0.1766 -1.82648 0
M  V30 10919 H 989.295 2.48197 -3.08568 0
M  V30 10920 H 990.469 0.0616956 -4.60759 0
M  V30 10921 H 988.784 0.21389 -4.1585 0
M  V30 10922 H 991.381 2.98103 -4.4389 0
M  V30 10923 H 991.724 3.13961 -2.73376 0
M  V30 10924 H 992.257 1.68138 -3.6052 0
M  V30 10925 H 988.996 0.884767 -6.49501 0
M  V30 10926 H 988.516 2.3047 -5.53754 0
M  V30 10927 H 990.195 2.13562 -6.10737 0
M  V30 10928 N 990.327 1.50405 0.470755 0
M  V30 10929 C 991.575 1.61092 1.2204 0
M  V30 10930 C 991.896 0.313487 1.92464 0
M  V30 10931 O 991.166 -0.669043 1.84121 0
M  V30 10932 H 989.746 0.593618 0.45346 0
M  V30 10933 H 992.408 1.87184 0.542985 0
M  V30 10934 H 991.504 2.42222 1.96812 0
M  V30 10935 N 991.805 -0.723954 1.39988 0
M  V30 10936 C 992.737 -1.84859 1.35498 0
M  V30 10937 C 993.75 -1.60681 0.261812 0
M  V30 10938 O 994.939 -1.7071 0.521566 0
M  V30 10939 C 992.039 -3.21103 1.08381 0
M  V30 10940 C 991.212 -3.72546 2.2919 0
M  V30 10941 C 990.271 -4.8738 1.9836 0
M  V30 10942 O 989.297 -5.00467 2.71149 0
M  V30 10943 N 990.499 -5.72566 0.956461 0
M  V30 10944 H 993.264 -1.89212 2.3242 0
M  V30 10945 H 990.825 -0.905152 1.34233 0
M  V30 10946 H 992.817 -3.9551 0.857564 0
M  V30 10947 H 991.387 -3.1195 0.201549 0
M  V30 10948 H 990.607 -2.89365 2.67697 0
M  V30 10949 H 991.895 -4.03652 3.09746 0
M  V30 10950 H 991.293 -5.64595 0.353444 0
M  V30 10951 H 989.85 -6.46993 0.790118 0
M  V30 10952 N 993.283 -1.25346 -0.955304 0
M  V30 10953 C 994.53 -1.10055 -1.69983 0
M  V30 10954 C 994.858 0.358586 -1.91166 0
M  V30 10955 O 994.113 1.28071 -1.47974 0
M  V30 10956 C 994.412 -1.7993 -3.08804 0
M  V30 10957 C 994.078 -3.29851 -3.07424 0
M  V30 10958 C 992.74 -3.7075 -3.06754 0
M  V30 10959 C 995.092 -4.25636 -3.00805 0
M  V30 10960 C 992.42 -5.05847 -2.97214 0
M  V30 10961 C 994.772 -5.60756 -2.92806 0
M  V30 10962 C 993.436 -6.00984 -2.90472 0
M  V30 10963 H 992.706 -0.402718 -0.622012 0
M  V30 10964 H 995.353 -1.5561 -1.11614 0
M  V30 10965 H 993.658 -1.26803 -3.70713 0
M  V30 10966 H 995.355 -1.65551 -3.65231 0
M  V30 10967 H 991.945 -2.97308 -3.08716 0
M  V30 10968 H 996.129 -3.9503 -3.00441 0
M  V30 10969 H 991.385 -5.36196 -2.93775 0
M  V30 10970 H 995.559 -6.34671 -2.86645 0
M  V30 10971 H 993.186 -7.05626 -2.82835 0
M  V30 10972 N 994.761 1.15782 -1.06922 0
M  V30 10973 C 995.691 2.22538 -0.707045 0
M  V30 10974 C 996.672 1.67371 0.303471 0
M  V30 10975 O 997.857 1.9339 0.177189 0
M  V30 10976 C 994.987 3.47158 -0.0994269 0
M  V30 10977 C 993.941 4.15257 -1.03661 0
M  V30 10978 C 993.267 5.33902 -0.291974 0
M  V30 10979 C 994.567 4.65516 -2.36837 0
M  V30 10980 H 996.261 2.53089 -1.59958 0
M  V30 10981 H 993.807 1.21649 -0.770552 0
M  V30 10982 H 995.76 4.21073 0.165852 0
M  V30 10983 H 994.484 3.15926 0.828155 0
M  V30 10984 H 993.143 3.43276 -1.28674 0
M  V30 10985 H 992.791 4.98926 0.638928 0
M  V30 10986 H 992.491 5.80407 -0.916613 0
M  V30 10987 H 994.015 6.1059 -0.0343915 0
M  V30 10988 H 995.429 5.30981 -2.16175 0
M  V30 10989 H 993.826 5.22666 -2.94856 0
M  V30 10990 H 994.896 3.81387 -2.99453 0
M  V30 10991 N 996.239 0.8527 1.3254 0
M  V30 10992 C 997.486 0.455123 1.97319 0
M  V30 10993 C 997.814 -0.988814 1.67489 0
M  V30 10994 O 997.069 -1.70845 0.954483 0
M  V30 10995 C 997.368 0.638757 3.51646 0
M  V30 10996 C 997.034 2.05287 4.01458 0
M  V30 10997 C 995.696 2.43963 4.14771 0
M  V30 10998 C 998.048 2.9759 4.27889 0
M  V30 10999 C 995.376 3.7422 4.51859 0
M  V30 11000 C 997.728 4.27343 4.66434 0
M  V30 11001 C 996.392 4.65957 4.77954 0
M  V30 11002 H 995.662 0.166541 0.722042 0
M  V30 11003 H 998.309 1.08238 1.57977 0
M  V30 11004 H 996.614 -0.0717394 3.91734 0
M  V30 11005 H 998.311 0.311219 3.9979 0
M  V30 11006 H 994.901 1.74253 3.91579 0
M  V30 11007 H 999.085 2.68942 4.17114 0
M  V30 11008 H 994.341 4.03923 4.58973 0
M  V30 11009 H 998.515 4.9893 4.85841 0
M  V30 11010 H 996.142 5.66934 5.06449 0
M  V30 11011 N 997.718 -1.45297 0.610449 0
M  V30 11012 C 998.964 -2.03073 0.115358 0
M  V30 11013 C 999.319 -1.47 -1.24132 0
M  V30 11014 O 998.612 -0.636326 -1.80725 0
M  V30 11015 C 998.806 -3.57394 0.0205329 0
M  V30 11016 C 998.635 -4.28436 1.36647 0
M  V30 11017 C 997.405 -4.66245 1.94791 0
M  V30 11018 C 999.603 -4.60211 2.29587 0
M  V30 11019 N 997.585 -5.22159 3.22835 0
M  V30 11020 C 998.956 -5.16989 3.42232 0
M  V30 11021 C 1001.01 -4.42152 2.28923 0
M  V30 11022 C 999.714 -5.5761 4.54382 0
M  V30 11023 C 1001.74 -4.83808 3.40123 0
M  V30 11024 C 1001.1 -5.40681 4.5149 0
M  V30 11025 H 997.201 -0.777296 0.0856485 0
M  V30 11026 H 999.785 -1.77077 0.809426 0
M  V30 11027 H 997.956 -3.83045 -0.642763 0
M  V30 11028 H 999.688 -4.01826 -0.481481 0
M  V30 11029 H 996.443 -4.49893 1.47965 0
M  V30 11030 H 996.867 -5.54613 3.88245 0
M  V30 11031 H 1001.51 -3.97493 1.44081 0
M  V30 11032 H 999.227 -6.01234 5.39947 0
M  V30 11033 H 1002.81 -4.71565 3.40761 0
M  V30 11034 H 1001.69 -5.72321 5.36114 0
M  V30 11035 N 999.196 -0.349774 -1.5367 0
M  V30 11036 C 1000.15 0.52023 -2.21986 0
M  V30 11037 C 1001.13 1.06119 -1.20944 0
M  V30 11038 O 1002.32 0.993857 -1.46463 0
M  V30 11039 C 999.451 1.66751 -3.00082 0
M  V30 11040 C 998.537 1.14019 -4.08486 0
M  V30 11041 N 998.928 0.334588 -5.04692 0
M  V30 11042 C 997.226 1.4165 -4.22908 0
M  V30 11043 C 997.927 0.0476906 -5.8168 0
M  V30 11044 N 996.903 0.641032 -5.39807 0
M  V30 11045 H 1000.7 -0.102261 -2.93722 0
M  V30 11046 H 998.219 -0.15696 -1.6164 0
M  V30 11047 H 1000.22 2.30281 -3.47529 0
M  V30 11048 H 998.876 2.29322 -2.29873 0
M  V30 11049 H 999.887 -0.0248665 -5.17894 0
M  V30 11050 H 996.564 2.04615 -3.63922 0
M  V30 11051 H 997.954 -0.602565 -6.69193 0
M  V30 11052 N 1000.67 1.57404 -0.0785433 0
M  V30 11053 C 1001.6 2.16131 0.883726 0
M  V30 11054 C 1002.58 1.09015 1.30575 0
M  V30 11055 O 1003.77 1.3708 1.37559 0
M  V30 11056 C 1000.9 2.72836 2.1489 0
M  V30 11057 C 999.854 3.85178 1.86605 0
M  V30 11058 C 999.18 4.28516 3.1981 0
M  V30 11059 C 1000.48 5.09118 1.16601 0
M  V30 11060 H 1002.17 2.9679 0.394484 0
M  V30 11061 H 999.72 1.42763 0.188304 0
M  V30 11062 H 1001.67 3.12567 2.8263 0
M  V30 11063 H 1000.4 1.89408 2.66068 0
M  V30 11064 H 999.056 3.45962 1.21268 0
M  V30 11065 H 998.704 3.42 3.68843 0
M  V30 11066 H 998.404 5.04249 3.01674 0
M  V30 11067 H 999.928 4.70868 3.88737 0
M  V30 11068 H 1001.34 5.46123 1.74422 0
M  V30 11069 H 999.739 5.90173 1.087 0
M  V30 11070 H 1000.81 4.8468 0.146138 0
M  V30 11071 N 1002.15 -0.195058 1.56388 0
M  V30 11072 C 1003.57 -0.545894 1.49974 0
M  V30 11073 C 1003.77 -1.85851 0.778568 0
M  V30 11074 O 1002.82 -2.50346 0.329105 0
M  V30 11075 C 1004.14 -0.600599 2.94641 0
M  V30 11076 C 1005.68 -0.689429 3.05313 0
M  V30 11077 C 1006.16 -0.775243 4.51391 0
M  V30 11078 N 1007.65 -0.838769 4.55542 0
M  V30 11079 C 1008.39 -0.925337 5.65884 0
M  V30 11080 N 1007.88 -0.974204 6.85916 0
M  V30 11081 N 1009.67 -0.962528 5.53798 0
M  V30 11082 H 1001.83 0.66595 2.0169 0
M  V30 11083 H 1004.09 0.237215 0.917842 0
M  V30 11084 H 1003.79 0.29478 3.50462 0
M  V30 11085 H 1003.67 -1.45528 3.47996 0
M  V30 11086 H 1006.06 -1.57524 2.4954 0
M  V30 11087 H 1006.14 0.191451 2.55083 0
M  V30 11088 H 1005.78 0.106215 5.07789 0
M  V30 11089 H 1005.71 -1.67193 4.99354 0
M  V30 11090 H 1008.2 -0.810249 3.69112 0
M  V30 11091 H 1008.51 -1.04077 7.6576 0
M  V30 11092 H 1006.86 -0.942881 6.88574 0
M  V30 11093 H 1010.05 -0.921188 4.58946 0
M  V30 11094 H 1010.22 -1.02653 6.39817 0
M  V30 11095 N 1003.63 -1.50653 -0.462772 0
M  V30 11096 C 1004.85 -1.66103 -1.24196 0
M  V30 11097 C 1005.28 -0.347421 -1.84864 0
M  V30 11098 O 1004.64 0.689673 -1.6767 0
M  V30 11099 C 1004.69 -2.76027 -2.32037 0
M  V30 11100 O 1003.79 -2.37859 -3.36893 0
M  V30 11101 H 1003.13 -0.554672 -0.365014 0
M  V30 11102 H 1005.66 -1.97076 -0.549734 0
M  V30 11103 H 1005.67 -2.99354 -2.77221 0
M  V30 11104 H 1004.35 -3.71361 -1.87253 0
M  V30 11105 H 1002.92 -2.2501 -2.97363 0
M  V30 11106 N 1005.11 0.71652 -1.4037 0
M  V30 11107 C 1006.02 1.86074 -1.42876 0
M  V30 11108 C 1007.03 1.71005 -0.321475 0
M  V30 11109 O 1008.21 1.93286 -0.565909 0
M  V30 11110 C 1005.28 3.21862 -1.28863 0
M  V30 11111 C 1004.34 3.49193 -2.49726 0
M  V30 11112 C 1003.57 4.78502 -2.36372 0
M  V30 11113 O 1003.79 5.53529 -1.37703 0
M  V30 11114 O 1002.73 5.06147 -3.25728 0
M  V30 11115 H 1006.55 1.86916 -2.39366 0
M  V30 11116 H 1004.14 0.866818 -1.21683 0
M  V30 11117 H 1006.02 4.02972 -1.23253 0
M  V30 11118 H 1004.69 3.2175 -0.354783 0
M  V30 11119 H 1003.6 2.68095 -2.60913 0
M  V30 11120 H 1004.93 3.54101 -3.41868 0
M  V30 11121 N 1006.59 1.25851 0.948643 0
M  V30 11122 C 1007.83 1.11119 1.69648 0
M  V30 11123 C 1008.17 -0.345995 1.91093 0
M  V30 11124 O 1007.44 -1.25467 1.48621 0
M  V30 11125 C 1007.72 1.87261 3.0758 0
M  V30 11126 C 1007.58 3.40842 2.93507 0
M  V30 11127 C 1008.9 1.6605 4.07573 0
M  V30 11128 H 1006.01 0.405052 0.615713 0
M  V30 11129 H 1008.66 1.54756 1.10229 0
M  V30 11130 H 1006.81 1.50172 3.58303 0
M  V30 11131 H 1008.48 3.87641 2.50064 0
M  V30 11132 H 1006.72 3.68248 2.29294 0
M  V30 11133 H 1007.39 3.89339 3.91305 0
M  V30 11134 H 1009.87 1.98348 3.65783 0
M  V30 11135 H 1008.74 2.21753 5.02113 0
M  V30 11136 H 1009.01 0.603256 4.37965 0
M  V30 11137 N 1008.06 -1.15214 1.07534 0
M  V30 11138 C 1009.01 -2.18022 0.667108 0
M  V30 11139 C 1010 -1.57911 -0.308714 0
M  V30 11140 O 1011.19 -1.76578 -0.122147 0
M  V30 11141 C 1008.32 -3.43232 0.0684348 0
M  V30 11142 C 1007.41 -4.10393 1.06951 0
M  V30 11143 N 1007.8 -4.53013 2.24973 0
M  V30 11144 C 1006.09 -4.36758 0.903262 0
M  V30 11145 C 1006.8 -5.05118 2.88498 0
M  V30 11146 N 1005.77 -4.98777 2.16153 0
M  V30 11147 H 1009.57 -2.48706 1.56597 0
M  V30 11148 H 1007.09 -1.31801 0.948796 0
M  V30 11149 H 1009.08 -4.16197 -0.241934 0
M  V30 11150 H 1007.74 -3.14031 -0.825525 0
M  V30 11151 H 1008.76 -4.4634 2.6268 0
M  V30 11152 H 1005.43 -4.17453 0.0623543 0
M  V30 11153 H 1006.82 -5.48039 3.8872 0
M  V30 11154 N 1009.54 -0.859717 -1.32086 0
M  V30 11155 C 1010.79 -0.461779 -1.96343 0
M  V30 11156 C 1011.1 0.988837 -1.68764 0
M  V30 11157 O 1012.31 1.49244 -2.268 0
M  V30 11158 C 1010.77 -0.77484 -3.5146 0
M  V30 11159 C 1010.37 -2.24153 -3.87891 0
M  V30 11160 C 1012.12 -0.444873 -4.22162 0
M  V30 11161 C 1010.03 -2.49754 -5.36075 0
M  V30 11162 H 1008.96 -0.168951 -0.734828 0
M  V30 11163 H 1011.61 -1.0512 -1.50406 0
M  V30 11164 H 1009.99 -0.114792 -3.95834 0
M  V30 11165 H 1011.16 -2.94378 -3.54511 0
M  V30 11166 H 1009.48 -2.53651 -3.30227 0
M  V30 11167 H 1012.07 -0.613508 -5.31169 0
M  V30 11168 H 1012.42 0.61391 -4.11749 0
M  V30 11169 H 1012.95 -1.06103 -3.83389 0
M  V30 11170 H 1009.69 -3.54276 -5.51515 0
M  V30 11171 H 1009.21 -1.84112 -5.70844 0
M  V30 11172 H 1010.89 -2.3396 -6.03218 0
M  V30 11173 N 1011.02 1.44971 -0.618145 0
M  V30 11174 C 1012.43 1.85611 -0.201334 0
M  V30 11175 C 1012.78 1.51698 1.24427 0
M  V30 11176 O 1011.91 0.94875 1.94493 0
M  V30 11177 C 1012.5 3.36897 -0.358619 0
M  V30 11178 C 1011.06 3.764 0.00358196 0
M  V30 11179 C 1010.21 2.68881 -0.678118 0
M  V30 11180 H 1013.16 1.35622 -0.824152 0
M  V30 11181 H 1013.18 3.78326 0.406176 0
M  V30 11182 H 1012.69 3.61548 -1.41084 0
M  V30 11183 H 1010.79 3.57365 1.05457 0
M  V30 11184 H 1010.91 4.77449 -0.397427 0
M  V30 11185 H 1009.27 2.54442 -0.114699 0
M  V30 11186 H 1010.05 2.96367 -1.73268 0
M  V30 11187 N 1012.5 0.357919 1.53482 0
M  V30 11188 C 1013.46 -0.479797 2.24122 0
M  V30 11189 C 1014.46 -1.01596 1.24639 0
M  V30 11190 O 1015.65 -0.902928 1.48973 0
M  V30 11191 C 1012.78 -1.66983 2.97203 0
M  V30 11192 H 1013.98 0.138219 2.99581 0
M  V30 11193 H 1011.53 0.109484 1.55916 0
M  V30 11194 H 1012.26 -2.32615 2.25966 0
M  V30 11195 H 1012.05 -1.29242 3.70188 0
M  V30 11196 H 1013.54 -2.26367 3.50924 0
M  V30 11197 N 1013.98 -1.5736 0.0868897 0
M  V30 11198 C 1015.22 -1.94341 -0.579598 0
M  V30 11199 C 1015.56 -0.968238 -1.68341 0
M  V30 11200 O 1014.83 8.29649e-05 -1.945 0
M  V30 11201 C 1015.11 -3.41497 -1.14245 0
M  V30 11202 C 1014.97 -4.49778 -0.044255 0
M  V30 11203 C 1016.29 -3.89788 -2.04336 0
M  V30 11204 H 1013.4 -0.70668 -0.20922 0
M  V30 11205 H 1016.05 -1.89359 0.15593 0
M  V30 11206 H 1014.2 -3.45873 -1.76929 0
M  V30 11207 H 1015.87 -4.57517 0.58959 0
M  V30 11208 H 1014.11 -4.293 0.623207 0
M  V30 11209 H 1014.78 -5.4992 -0.478749 0
M  V30 11210 H 1017.26 -3.87513 -1.51569 0
M  V30 11211 H 1016.13 -4.93335 -2.40648 0
M  V30 11212 H 1016.4 -3.28603 -2.95757 0
M  V30 11213 N 1015.45 0.186762 -1.56489 0
M  V30 11214 C 1016.68 0.925916 -1.85584 0
M  V30 11215 C 1017.1 1.75708 -0.671446 0
M  V30 11216 O 1016.46 1.7728 0.379687 0
M  V30 11217 C 1016.51 1.79107 -3.12975 0
M  V30 11218 O 1015.61 2.89088 -2.94112 0
M  V30 11219 H 1014.96 0.260275 -0.610863 0
M  V30 11220 H 1017.49 0.189561 -2.0372 0
M  V30 11221 H 1017.5 2.19408 -3.43983 0
M  V30 11222 H 1016.17 1.18044 -3.98796 0
M  V30 11223 H 1014.75 2.52482 -2.74422 0
M  V30 11224 N 1016.93 1.50896 0.454776 0
M  V30 11225 C 1018.18 1.6294 1.20741 0
M  V30 11226 C 1018.51 0.336339 1.91265 0
M  V30 11227 O 1017.79 -0.663153 1.82846 0
M  V30 11228 C 1018.07 2.82092 2.23822 0
M  V30 11229 C 1017.92 4.21326 1.57495 0
M  V30 11230 C 1019.24 2.96777 3.24979 0
M  V30 11231 H 1016.36 0.59302 0.437603 0
M  V30 11232 H 1019 1.83331 0.498959 0
M  V30 11233 H 1017.15 2.64837 2.84243 0
M  V30 11234 H 1018.82 4.50209 1.00546 0
M  V30 11235 H 1017.07 4.24829 0.877664 0
M  V30 11236 H 1017.74 5.00656 2.32482 0
M  V30 11237 H 1020.21 3.12627 2.74597 0
M  V30 11238 H 1019.09 3.81742 3.94416 0
M  V30 11239 H 1019.35 2.08091 3.90065 0
M  V30 11240 N 1018.41 -0.709066 1.40748 0
M  V30 11241 C 1019.34 -1.83412 1.37451 0
M  V30 11242 C 1020.36 -1.60394 0.27884 0
M  V30 11243 O 1021.54 -1.70147 0.539642 0
M  V30 11244 C 1018.64 -3.19935 1.1178 0
M  V30 11245 C 1017.82 -3.70095 2.33128 0
M  V30 11246 C 1016.88 -4.85249 2.03518 0
M  V30 11247 O 1015.9 -4.97563 2.76442 0
M  V30 11248 N 1017.1 -5.7152 1.01714 0
M  V30 11249 H 1019.87 -1.86736 2.34414 0
M  V30 11250 H 1017.43 -0.890863 1.35186 0
M  V30 11251 H 1019.42 -3.94578 0.899464 0
M  V30 11252 H 1017.99 -3.11718 0.234624 0
M  V30 11253 H 1017.21 -2.8651 2.70751 0
M  V30 11254 H 1018.5 -4.00344 3.1401 0
M  V30 11255 H 1017.9 -5.64188 0.413307 0
M  V30 11256 H 1016.46 -6.46119 0.858696 0
M  V30 11257 N 1019.89 -1.26353 -0.941956 0
M  V30 11258 C 1021.14 -1.11851 -1.68806 0
M  V30 11259 C 1021.46 0.33829 -1.91535 0
M  V30 11260 O 1020.72 1.26495 -1.49324 0
M  V30 11261 C 1021.02 -1.83195 -3.06879 0
M  V30 11262 C 1020.68 -3.33093 -3.03908 0
M  V30 11263 C 1019.35 -3.73982 -3.02805 0
M  V30 11264 C 1021.7 -4.28803 -2.96273 0
M  V30 11265 C 1019.03 -5.08971 -2.91832 0
M  V30 11266 C 1021.38 -5.6383 -2.86842 0
M  V30 11267 C 1020.04 -6.04032 -2.84081 0
M  V30 11268 H 1019.31 -0.409293 -0.617706 0
M  V30 11269 H 1021.96 -1.56785 -1.09957 0
M  V30 11270 H 1020.26 -1.30728 -3.69347 0
M  V30 11271 H 1021.96 -1.69416 -3.63455 0
M  V30 11272 H 1018.55 -3.00566 -3.05546 0
M  V30 11273 H 1022.74 -3.98195 -2.96234 0
M  V30 11274 H 1017.99 -5.39282 -2.88072 0
M  V30 11275 H 1022.17 -6.37676 -2.79898 0
M  V30 11276 H 1019.79 -7.08586 -2.75335 0
M  V30 11277 N 1021.37 1.14642 -1.08144 0
M  V30 11278 C 1022.62 1.8525 -0.807885 0
M  V30 11279 C 1022.94 1.83194 0.668213 0
M  V30 11280 O 1022.21 1.27848 1.48431 0
M  V30 11281 H 1020.79 0.685909 -0.295868 0
M  V30 11282 H 1023.45 1.38935 -1.36686 0
M  V30 11283 H 1022.54 2.90155 -1.14964 0
M  V30 11284 N 1022.85 0.866709 1.31628 0
M  V30 11285 C 1024.09 0.476731 1.97117 0
M  V30 11286 C 1024.42 -0.967813 1.68366 0
M  V30 11287 O 1023.7 -1.68101 0.978377 0
M  V30 11288 C 1023.98 0.730561 3.52611 0
M  V30 11289 C 1023.84 2.2244 3.90948 0
M  V30 11290 C 1025.15 0.19488 4.39668 0
M  V30 11291 H 1022.27 0.174682 0.715999 0
M  V30 11292 H 1024.92 1.08735 1.5581 0
M  V30 11293 H 1023.07 0.210834 3.87927 0
M  V30 11294 H 1024.74 2.81113 3.6575 0
M  V30 11295 H 1022.98 2.69824 3.39673 0
M  V30 11296 H 1023.65 2.35266 4.99353 0
M  V30 11297 H 1026.13 0.639478 4.11157 0
M  V30 11298 H 1025 0.401958 5.47426 0
M  V30 11299 H 1025.26 -0.90302 4.32779 0
M  V30 11300 N 1024.32 -1.44642 0.625825 0
M  V30 11301 C 1025.57 -2.01308 0.125682 0
M  V30 11302 C 1025.89 -1.49773 -1.25807 0
M  V30 11303 O 1027.09 -1.98533 -1.85194 0
M  V30 11304 C 1025.55 -3.59479 0.17395 0
M  V30 11305 C 1025.16 -4.20011 1.55868 0
M  V30 11306 C 1026.9 -4.2364 -0.270005 0
M  V30 11307 C 1024.81 -5.7039 1.56235 0
M  V30 11308 H 1023.74 -0.75276 0.0432194 0
M  V30 11309 H 1026.39 -1.65916 0.783842 0
M  V30 11310 H 1024.77 -3.92145 -0.551212 0
M  V30 11311 H 1025.94 -3.98891 2.307 0
M  V30 11312 H 1024.26 -3.68116 1.94627 0
M  V30 11313 H 1026.86 -5.33931 -0.28672 0
M  V30 11314 H 1027.2 -3.95603 -1.29629 0
M  V30 11315 H 1027.73 -3.95759 0.402487 0
M  V30 11316 H 1024.47 -6.03154 2.56683 0
M  V30 11317 H 1023.99 -5.93648 0.856881 0
M  V30 11318 H 1025.67 -6.33929 1.29396 0
M  V30 11319 N 1025.8 -0.366053 -1.5329 0
M  V30 11320 C 1026.73 0.47211 -2.28677 0
M  V30 11321 C 1027.71 1.08353 -1.31125 0
M  V30 11322 O 1028.9 1.10069 -1.59995 0
M  V30 11323 C 1026.03 1.61174 -3.07637 0
M  V30 11324 C 1024.98 1.12755 -4.12881 0
M  V30 11325 C 1024.31 2.35745 -4.79925 0
M  V30 11326 C 1025.61 0.211954 -5.2187 0
M  V30 11327 H 1027.3 -0.156838 -2.98989 0
M  V30 11328 H 1024.85 -0.0768709 -1.43795 0
M  V30 11329 H 1026.8 2.20473 -3.59123 0
M  V30 11330 H 1025.52 2.26793 -2.35016 0
M  V30 11331 H 1024.18 0.557234 -3.6234 0
M  V30 11332 H 1023.83 2.99821 -4.03877 0
M  V30 11333 H 1023.53 2.04019 -5.51044 0
M  V30 11334 H 1025.06 2.95729 -5.34207 0
M  V30 11335 H 1026.47 0.71244 -5.68856 0
M  V30 11336 H 1024.87 -0.0144501 -6.00098 0
M  V30 11337 H 1025.94 -0.745753 -4.79131 0
M  V30 11338 N 1027.28 1.57312 -0.0952337 0
M  V30 11339 C 1028.19 2.17556 0.877877 0
M  V30 11340 C 1029.21 1.14505 1.31014 0
M  V30 11341 O 1030.38 1.46876 1.37802 0
M  V30 11342 C 1027.45 2.74413 2.11892 0
M  V30 11343 C 1026.51 3.92419 1.74085 0
M  V30 11344 C 1025.74 4.46556 2.92273 0
M  V30 11345 O 1025.96 3.99631 4.07002 0
M  V30 11346 O 1024.9 5.37576 2.70732 0
M  V30 11347 H 1028.72 3.01116 0.395312 0
M  V30 11348 H 1026.31 1.48841 0.129123 0
M  V30 11349 H 1028.19 3.10754 2.84622 0
M  V30 11350 H 1026.87 1.93899 2.59201 0
M  V30 11351 H 1025.77 3.6089 0.985346 0
M  V30 11352 H 1027.11 4.74298 1.31539 0
M  V30 11353 N 1028.76 -0.17846 1.56586 0
M  V30 11354 C 1029.72 -1.20479 1.94981 0
M  V30 11355 C 1030.72 -1.37561 0.832677 0
M  V30 11356 O 1031.91 -1.35089 1.09984 0
M  V30 11357 C 1029.04 -2.57117 2.23839 0
M  V30 11358 H 1030.24 -0.876173 2.86816 0
M  V30 11359 H 1027.79 -0.420635 1.50534 0
M  V30 11360 H 1028.52 -2.95005 1.34695 0
M  V30 11361 H 1028.31 -2.46086 3.05261 0
M  V30 11362 H 1029.8 -3.31096 2.5449 0
M  V30 11363 N 1030.24 -1.51135 -0.446768 0
M  V30 11364 C 1031.47 -1.66887 -1.21788 0
M  V30 11365 C 1031.87 -0.361729 -1.8571 0
M  V30 11366 O 1031.22 0.668784 -1.71093 0
M  V30 11367 C 1031.28 -2.72062 -2.34994 0
M  V30 11368 C 1030.94 -4.14935 -1.91516 0
M  V30 11369 C 1031.94 -5.00021 -1.42389 0
M  V30 11370 C 1029.62 -4.60985 -1.99495 0
M  V30 11371 C 1031.62 -6.29216 -1.01816 0
M  V30 11372 C 1029.31 -5.90179 -1.58532 0
M  V30 11373 C 1030.3 -6.74121 -1.09774 0
M  V30 11374 O 1029.99 -8.009 -0.69389 0
M  V30 11375 H 1029.72 -0.563431 -0.373525 0
M  V30 11376 H 1032.28 -1.98261 -0.536818 0
M  V30 11377 H 1030.51 -2.35983 -3.06348 0
M  V30 11378 H 1032.2 -2.76788 -2.96889 0
M  V30 11379 H 1032.96 -4.6565 -1.35627 0
M  V30 11380 H 1028.84 -3.95777 -2.36393 0
M  V30 11381 H 1032.39 -6.94687 -0.636879 0
M  V30 11382 H 1028.28 -6.24066 -1.64962 0
M  V30 11383 H 1029.05 -8.14376 -0.820582 0
M  V30 11384 N 1031.71 0.701592 -1.41122 0
M  V30 11385 C 1032.95 1.4739 -1.41618 0
M  V30 11386 C 1033.32 1.91987 -0.0219443 0
M  V30 11387 O 1034.52 2.6862 0.0982793 0
M  V30 11388 C 1032.79 2.65745 -2.38986 0
M  V30 11389 S 1034.35 3.54968 -2.5796 0
M  V30 11390 H 1031.17 0.503742 -0.501762 0
M  V30 11391 H 1033.77 0.819186 -1.77509 0
M  V30 11392 H 1032.47 2.31176 -3.39096 0
M  V30 11393 H 1032 3.36115 -2.04426 0
M  V30 11394 H 1034.02 4.60724 -1.84249 0
M  V30 11395 N 1033.19 1.2685 0.935242 0
M  V30 11396 C 1034.61 1.04091 1.20984 0
M  V30 11397 C 1034.81 -0.230242 2.0018 0
M  V30 11398 O 1033.86 -0.93778 2.3444 0
M  V30 11399 C 1035.18 2.27586 1.96533 0
M  V30 11400 C 1036.72 2.32547 2.09501 0
M  V30 11401 C 1037.2 3.55751 2.88454 0
M  V30 11402 N 1038.69 3.56263 2.96025 0
M  V30 11403 C 1039.43 4.48262 3.57559 0
M  V30 11404 N 1038.92 5.50557 4.20546 0
M  V30 11405 N 1040.71 4.35901 3.5489 0
M  V30 11406 H 1032.87 2.08484 0.405954 0
M  V30 11407 H 1035.13 0.916548 0.242164 0
M  V30 11408 H 1034.83 3.20076 1.45753 0
M  V30 11409 H 1034.71 2.32305 2.97177 0
M  V30 11410 H 1037.1 1.40568 2.5947 0
M  V30 11411 H 1037.18 2.31836 1.08101 0
M  V30 11412 H 1036.82 4.48063 2.3917 0
M  V30 11413 H 1036.75 3.53711 3.90123 0
M  V30 11414 H 1039.24 2.82278 2.51252 0
M  V30 11415 H 1039.55 6.16935 4.65415 0
M  V30 11416 H 1037.9 5.54407 4.19115 0
M  V30 11417 H 1041.09 3.552 3.04879 0
M  V30 11418 H 1041.26 5.07792 4.02557 0
M  V30 11419 N 1034.67 -1.14067 1.0875 0
M  V30 11420 C 1035.92 -1.84819 0.817698 0
M  V30 11421 C 1036.24 -1.83545 -0.658488 0
M  V30 11422 O 1035.51 -1.28633 -1.47751 0
M  V30 11423 H 1034.09 -0.68433 0.299502 0
M  V30 11424 H 1036.75 -1.38208 1.37421 0
M  V30 11425 H 1035.85 -2.89541 1.16501 0
M  V30 11426 N 1036.15 -0.873678 -1.31166 0
M  V30 11427 C 1037.37 -0.500242 -2.01277 0
M  V30 11428 C 1037.8 0.900811 -1.65127 0
M  V30 11429 O 1037.16 1.59504 -0.861862 0
M  V30 11430 C 1037.2 -0.668976 -3.5434 0
M  V30 11431 O 1036.31 0.290096 -4.11378 0
M  V30 11432 H 1035.65 -0.198507 -0.633633 0
M  V30 11433 H 1038.18 -1.17811 -1.67277 0
M  V30 11434 H 1038.19 -0.563673 -4.04088 0
M  V30 11435 H 1036.86 -1.69055 -3.79991 0
M  V30 11436 H 1035.44 0.139437 -3.72639 0
M  V30 11437 N 1037.63 1.44308 -0.633487 0
M  V30 11438 C 1038.87 2.02322 -0.139123 0
M  V30 11439 C 1039.21 1.49733 1.23667 0
M  V30 11440 O 1038.48 0.682353 1.82138 0
M  V30 11441 C 1038.76 3.59871 -0.128366 0
M  V30 11442 C 1038.62 4.22737 -1.53667 0
M  V30 11443 C 1039.94 4.36702 0.545834 0
M  V30 11444 H 1037.05 0.735161 -0.0520293 0
M  V30 11445 H 1039.7 1.7185 -0.810411 0
M  V30 11446 H 1037.85 3.85963 0.443263 0
M  V30 11447 H 1039.52 4.07744 -2.15737 0
M  V30 11448 H 1037.76 3.80142 -2.08985 0
M  V30 11449 H 1038.43 5.31757 -1.48116 0
M  V30 11450 H 1040.91 4.16057 0.0596879 0
M  V30 11451 H 1039.78 5.46407 0.522557 0
M  V30 11452 H 1040.05 4.11483 1.6166 0
M  V30 11453 N 1039.1 0.374177 1.53094 0
M  V30 11454 C 1040.35 -0.212396 2.00981 0
M  V30 11455 C 1040.67 -1.48576 1.26293 0
M  V30 11456 O 1039.94 -1.92206 0.378642 0
M  V30 11457 H 1038.52 -0.0814763 0.742543 0
M  V30 11458 H 1041.19 0.502389 1.88314 0
M  V30 11459 H 1040.28 -0.433316 3.09077 0
M  V30 11460 N 1040.58 -1.57259 0.103575 0
M  V30 11461 C 1041.53 -2.11032 -0.863101 0
M  V30 11462 C 1042.52 -1.02737 -1.2383 0
M  V30 11463 O 1043.71 -1.28997 -1.21197 0
M  V30 11464 C 1040.84 -2.70099 -2.11899 0
M  V30 11465 C 1039.92 -3.85451 -1.76885 0
M  V30 11466 N 1040.31 -4.93137 -1.12469 0
M  V30 11467 C 1038.61 -3.95346 -2.06441 0
M  V30 11468 C 1039.31 -5.73681 -0.962527 0
M  V30 11469 N 1038.29 -5.22992 -1.48258 0
M  V30 11470 H 1042.09 -2.91671 -0.361264 0
M  V30 11471 H 1039.61 -1.62096 -0.0993794 0
M  V30 11472 H 1041.6 -3.06957 -2.82104 0
M  V30 11473 H 1040.26 -1.90918 -2.62641 0
M  V30 11474 H 1041.27 -5.11832 -0.790489 0
M  V30 11475 H 1037.95 -3.27185 -2.59338 0
M  V30 11476 H 1039.34 -6.70337 -0.458098 0
M  V30 11477 N 1042.06 0.170153 -1.56679 0
M  V30 11478 C 1042.99 1.23945 -1.91606 0
M  V30 11479 C 1043.97 1.42725 -0.779004 0
M  V30 11480 O 1045.16 1.57712 -1.03243 0
M  V30 11481 C 1042.28 2.60222 -2.168 0
M  V30 11482 C 1041.33 2.58172 -3.39484 0
M  V30 11483 S 1042.16 2.0714 -4.93815 0
M  V30 11484 C 1043.32 3.45192 -5.22105 0
M  V30 11485 H 1043.55 0.941345 -2.82004 0
M  V30 11486 H 1041.08 0.374771 -1.49783 0
M  V30 11487 H 1043.04 3.38656 -2.31996 0
M  V30 11488 H 1041.7 2.87232 -1.27107 0
M  V30 11489 H 1040.9 3.58435 -3.54317 0
M  V30 11490 H 1040.5 1.87834 -3.2341 0
M  V30 11491 H 1042.79 4.41194 -5.14154 0
M  V30 11492 H 1043.73 3.35233 -6.23718 0
M  V30 11493 H 1044.14 3.41257 -4.49671 0
M  V30 11494 N 1043.54 1.5137 0.438746 0
M  V30 11495 C 1044.49 1.72582 1.53245 0
M  V30 11496 C 1045.46 0.567488 1.56105 0
M  V30 11497 O 1046.64 0.80176 1.73137 0
M  V30 11498 C 1043.78 1.85551 2.90972 0
M  V30 11499 C 1042.89 3.13094 2.97652 0
M  V30 11500 C 1042.03 3.16666 4.26493 0
M  V30 11501 C 1041.07 4.38529 4.27035 0
M  V30 11502 N 1040.2 4.39659 5.47398 0
M  V30 11503 H 1045.04 2.65941 1.3446 0
M  V30 11504 H 1042.58 1.31801 0.653206 0
M  V30 11505 H 1044.54 1.91053 3.70884 0
M  V30 11506 H 1043.17 0.956025 3.08318 0
M  V30 11507 H 1042.22 3.16909 2.10412 0
M  V30 11508 H 1043.53 4.03009 2.93914 0
M  V30 11509 H 1042.69 3.21075 5.14777 0
M  V30 11510 H 1041.43 2.24637 4.32885 0
M  V30 11511 H 1040.43 4.34297 3.37144 0
M  V30 11512 H 1041.66 5.31821 4.22307 0
M  V30 11513 H 1039.6 3.50499 5.54514 0
M  V30 11514 H 1039.52 5.23382 5.45534 0
M  V30 11515 H 1040.79 4.48259 6.37718 0
M  V30 11516 N 1045.02 -0.694098 1.41492 0
M  V30 11517 C 1046.26 -1.4563 1.41137 0
M  V30 11518 C 1046.6 -1.94189 0.0208428 0
M  V30 11519 O 1045.87 -1.69628 -0.951655 0
M  V30 11520 C 1046.15 -2.66714 2.41941 0
M  V30 11521 C 1046.01 -2.23912 3.90107 0
M  V30 11522 C 1047.33 -3.68913 2.39981 0
M  V30 11523 H 1044.44 -0.52821 0.513968 0
M  V30 11524 H 1047.09 -0.790437 1.72778 0
M  V30 11525 H 1045.24 -3.23525 2.1509 0
M  V30 11526 H 1046.91 -1.72417 4.27867 0
M  V30 11527 H 1045.15 -1.5568 4.04903 0
M  V30 11528 H 1045.82 -3.108 4.56188 0
M  V30 11529 H 1048.3 -3.21779 2.63813 0
M  V30 11530 H 1047.17 -4.51242 3.12524 0
M  V30 11531 H 1047.44 -4.18711 1.41892 0
M  V30 11532 N 1046.49 -1.27344 -0.928501 0
M  V30 11533 C 1047.42 -1.12517 -2.04602 0
M  V30 11534 C 1048.41 -0.0268563 -1.70079 0
M  V30 11535 O 1049.59 -0.201197 -1.93155 0
M  V30 11536 C 1046.72 -0.770749 -3.3864 0
M  V30 11537 C 1045.67 -1.8222 -3.87272 0
M  V30 11538 C 1045 -1.32178 -5.18105 0
M  V30 11539 C 1046.3 -3.22614 -4.10752 0
M  V30 11540 H 1047.99 -2.06 -2.17265 0
M  V30 11541 H 1045.54 -0.991827 -1.04397 0
M  V30 11542 H 1047.49 -0.653843 -4.16297 0
M  V30 11543 H 1046.22 0.19979 -3.25988 0
M  V30 11544 H 1044.88 -1.928 -3.11807 0
M  V30 11545 H 1044.52 -0.340719 -5.01845 0
M  V30 11546 H 1044.22 -2.02474 -5.51614 0
M  V30 11547 H 1045.75 -1.2178 -5.98333 0
M  V30 11548 H 1047.16 -3.1504 -4.78981 0
M  V30 11549 H 1045.56 -3.90614 -4.55566 0
M  V30 11550 H 1046.63 -3.67727 -3.16077 0
M  V30 11551 N 1047.97 1.13488 -1.09353 0
M  V30 11552 C 1049.2 1.89133 -0.85108 0
M  V30 11553 C 1049.62 1.78542 0.591976 0
M  V30 11554 O 1048.98 1.13243 1.41583 0
M  V30 11555 C 1049.03 3.36736 -1.29001 0
M  V30 11556 O 1048.13 4.09959 -0.447993 0
M  V30 11557 H 1047.47 0.58809 -0.308296 0
M  V30 11558 H 1050 1.43593 -1.45747 0
M  V30 11559 H 1050.01 3.87564 -1.27508 0
M  V30 11560 H 1048.69 3.43762 -2.34095 0
M  V30 11561 H 1047.27 3.69155 -0.52717 0
M  V30 11562 N 1049.45 0.880621 1.30701 0
M  V30 11563 C 1050.4 0.342397 2.28246 0
M  V30 11564 C 1051.37 -0.565023 1.56194 0
M  V30 11565 O 1052.55 -0.494377 1.84284 0
M  V30 11566 C 1049.69 -0.440859 3.42272 0
M  V30 11567 C 1048.81 0.495284 4.29151 0
M  V30 11568 C 1047.94 -0.303141 5.30334 0
M  V30 11569 C 1046.98 0.628751 6.08862 0
M  V30 11570 N 1046.12 -0.13408 7.01972 0
M  V30 11571 H 1050.96 1.17938 2.73669 0
M  V30 11572 H 1048.49 0.59296 1.34619 0
M  V30 11573 H 1050.45 -0.910854 4.07135 0
M  V30 11574 H 1049.08 -1.24245 2.97931 0
M  V30 11575 H 1048.13 1.08376 3.64635 0
M  V30 11576 H 1049.45 1.2094 4.83916 0
M  V30 11577 H 1048.6 -0.835181 6.00924 0
M  V30 11578 H 1047.34 -1.05049 4.76252 0
M  V30 11579 H 1046.34 1.17246 5.37153 0
M  V30 11580 H 1047.57 1.37512 6.65032 0
M  V30 11581 H 1045.52 -0.864046 6.50285 0
M  V30 11582 H 1045.43 0.520486 7.54206 0
M  V30 11583 H 1046.7 -0.647005 7.7681 0
M  V30 11584 N 1050.93 -1.4397 0.641131 0
M  V30 11585 C 1051.86 -2.28997 -0.0963315 0
M  V30 11586 C 1052.87 -1.4184 -0.799071 0
M  V30 11587 O 1054.06 -1.65896 -0.658846 0
M  V30 11588 C 1051.16 -3.18465 -1.15903 0
M  V30 11589 C 1050.34 -4.34093 -0.536828 0
M  V30 11590 C 1049.4 -5.04522 -1.4948 0
M  V30 11591 O 1048.42 -5.60202 -1.00807 0
M  V30 11592 N 1049.62 -5.06899 -2.82901 0
M  V30 11593 H 1052.39 -2.9293 0.633422 0
M  V30 11594 H 1049.95 -1.54527 0.48302 0
M  V30 11595 H 1051.94 -3.62445 -1.80044 0
M  V30 11596 H 1050.51 -2.56214 -1.79089 0
M  V30 11597 H 1049.73 -3.9318 0.283414 0
M  V30 11598 H 1051.02 -5.08698 -0.101966 0
M  V30 11599 H 1050.42 -4.63012 -3.25017 0
M  V30 11600 H 1048.97 -5.54637 -3.42376 0
M  V30 11601 N 1052.41 -0.382291 -1.52893 0
M  V30 11602 C 1053.65 0.202433 -2.01787 0
M  V30 11603 C 1053.99 1.47044 -1.26853 0
M  V30 11604 O 1053.26 1.91007 -0.366969 0
M  V30 11605 C 1053.54 0.477471 -3.5692 0
M  V30 11606 C 1053.4 -0.805339 -4.42532 0
M  V30 11607 C 1054.72 1.27106 -4.21346 0
M  V30 11608 H 1051.84 0.0720998 -0.733465 0
M  V30 11609 H 1054.48 -0.510478 -1.83014 0
M  V30 11610 H 1052.63 1.08478 -3.73048 0
M  V30 11611 H 1054.3 -1.4424 -4.3817 0
M  V30 11612 H 1052.54 -1.42216 -4.09826 0
M  V30 11613 H 1053.21 -0.567635 -5.49074 0
M  V30 11614 H 1055.69 0.757161 -4.09153 0
M  V30 11615 H 1054.57 1.43225 -5.29885 0
M  V30 11616 H 1054.83 2.28431 -3.78513 0
M  V30 11617 N 1053.89 1.57202 -0.111913 0
M  V30 11618 C 1054.8 2.18475 0.854753 0
M  V30 11619 C 1055.81 1.15888 1.29792 0
M  V30 11620 O 1056.99 1.48329 1.36237 0
M  V30 11621 C 1054.05 2.76645 2.0897 0
M  V30 11622 C 1053.11 3.94244 1.69913 0
M  V30 11623 C 1052.35 4.49631 2.8752 0
M  V30 11624 O 1052.57 4.03926 4.02741 0
M  V30 11625 O 1051.5 5.40417 2.65015 0
M  V30 11626 H 1055.33 3.01519 0.363352 0
M  V30 11627 H 1052.91 1.4897 0.113329 0
M  V30 11628 H 1054.8 3.13755 2.81311 0
M  V30 11629 H 1053.47 1.96637 2.5713 0
M  V30 11630 H 1052.38 3.61915 0.947013 0
M  V30 11631 H 1053.71 4.75666 1.26501 0
M  V30 11632 N 1055.36 -0.161842 1.56767 0
M  V30 11633 C 1056.33 -1.18404 1.96247 0
M  V30 11634 C 1057.33 -1.3667 0.84722 0
M  V30 11635 O 1058.52 -1.33915 1.11411 0
M  V30 11636 C 1055.65 -2.54728 2.26553 0
M  V30 11637 H 1056.84 -0.845703 2.87729 0
M  V30 11638 H 1054.39 -0.404645 1.50971 0
M  V30 11639 H 1055.13 -2.93559 1.37816 0
M  V30 11640 H 1054.91 -2.42834 3.07854 0
M  V30 11641 H 1056.4 -3.28378 2.57987 0
M  V30 11642 N 1056.84 -1.516 -0.430713 0
M  V30 11643 C 1057.77 -1.76342 -1.53054 0
M  V30 11644 C 1058.75 -0.61349 -1.58652 0
M  V30 11645 O 1059.94 -0.856888 -1.74273 0
M  V30 11646 C 1057.07 -1.8945 -2.91077 0
M  V30 11647 C 1056.02 -3.04928 -3.00339 0
M  V30 11648 C 1055.35 -3.03228 -4.40405 0
M  V30 11649 C 1056.65 -4.44777 -2.73808 0
M  V30 11650 H 1058.34 -2.68435 -1.326 0
M  V30 11651 H 1055.89 -1.29171 -0.636466 0
M  V30 11652 H 1057.84 -2.05343 -3.67984 0
M  V30 11653 H 1056.56 -0.940114 -3.12777 0
M  V30 11654 H 1055.22 -2.88751 -2.25872 0
M  V30 11655 H 1054.87 -2.05553 -4.59083 0
M  V30 11656 H 1054.57 -3.80776 -4.47531 0
M  V30 11657 H 1056.1 -3.21222 -5.19277 0
M  V30 11658 H 1057.51 -4.6127 -3.40445 0
M  V30 11659 H 1055.91 -5.2408 -2.92335 0
M  V30 11660 H 1056.98 -4.54358 -1.69372 0
M  V30 11661 N 1058.32 0.686584 -1.41858 0
M  V30 11662 C 1059.27 1.82167 -1.4463 0
M  V30 11663 C 1060.26 1.66286 -0.323313 0
M  V30 11664 O 1061.47 1.73038 -0.495773 0
M  V30 11665 H 1057.84 0.600454 -0.452724 0
M  V30 11666 H 1059.81 1.76947 -2.40276 0
M  V30 11667 C 1058.56 3.20248 -1.35412 0
M  V30 11668 H 1057.89 3.33089 -2.21115 0
M  V30 11669 H 1059.33 3.99723 -1.41413 0
M  V30 11670 C 1057.78 3.36832 -0.0674972 0
M  V30 11671 O 1058.31 3.91845 0.884325 0
M  V30 11672 N 1056.52 2.90598 0.011519 0
M  V30 11673 H 1056.07 2.46016 -0.76381 0
M  V30 11674 H 1056.03 3.02072 0.871774 0
M  V30 11675 N 1059.8 1.27835 0.921735 0
M  V30 11676 C 1060.74 1.11075 2.02314 0
M  V30 11677 C 1061.71 0.0101195 1.66097 0
M  V30 11678 O 1062.9 0.173564 1.90009 0
M  V30 11679 C 1060.04 0.770251 3.36394 0
M  V30 11680 C 1059.15 1.94912 3.8553 0
M  V30 11681 C 1058.29 1.54996 5.08084 0
M  V30 11682 C 1057.33 2.69595 5.49531 0
M  V30 11683 N 1056.46 2.30227 6.6328 0
M  V30 11684 H 1061.3 2.05319 2.15982 0
M  V30 11685 H 1058.84 1.022 1.058 0
M  V30 11686 H 1060.8 0.553624 4.1351 0
M  V30 11687 H 1059.43 -0.135238 3.22517 0
M  V30 11688 H 1058.48 2.27811 3.04641 0
M  V30 11689 H 1059.79 2.80858 4.12214 0
M  V30 11690 H 1058.95 1.29493 5.9272 0
M  V30 11691 H 1057.69 0.661676 4.83191 0
M  V30 11692 H 1056.69 2.95806 4.63442 0
M  V30 11693 H 1057.92 3.59054 5.76417 0
M  V30 11694 H 1055.86 1.43858 6.40032 0
M  V30 11695 H 1055.78 3.09711 6.89649 0
M  V30 11696 H 1057.05 2.07987 7.5124 0
M  V30 11697 N 1061.28 -1.12907 1.09954 0
M  V30 11698 C 1062.21 -2.20585 0.765799 0
M  V30 11699 C 1063.19 -1.68117 -0.258989 0
M  V30 11700 O 1064.37 -1.93792 -0.125853 0
M  V30 11701 C 1061.5 -3.46772 0.191435 0
M  V30 11702 C 1060.46 -4.12363 1.14635 0
M  V30 11703 C 1059.78 -5.3294 0.433426 0
M  V30 11704 C 1061.08 -4.59073 2.49096 0
M  V30 11705 H 1062.78 -2.48759 1.66612 0
M  V30 11706 H 1060.32 -1.19563 0.802534 0
M  V30 11707 H 1062.27 -4.21365 -0.0541535 0
M  V30 11708 H 1061 -3.18011 -0.744101 0
M  V30 11709 H 1059.66 -3.39744 1.37731 0
M  V30 11710 H 1059.31 -5.00444 -0.506422 0
M  V30 11711 H 1059.01 -5.77772 1.07018 0
M  V30 11712 H 1060.53 -6.10284 0.196267 0
M  V30 11713 H 1061.94 -5.25063 2.30177 0
M  V30 11714 H 1060.34 -5.14665 3.0861 0
M  V30 11715 H 1061.41 -3.73313 3.0946 0
M  V30 11716 N 1062.75 -0.88754 -1.30232 0
M  V30 11717 C 1063.7 -0.354497 -2.28061 0
M  V30 11718 C 1064.67 0.556732 -1.56492 0
M  V30 11719 O 1065.86 0.484597 -1.84543 0
M  V30 11720 C 1063 0.422701 -3.42501 0
M  V30 11721 C 1062.11 -0.518036 -4.28883 0
M  V30 11722 C 1061.24 0.275011 -5.30488 0
M  V30 11723 C 1060.28 -0.661032 -6.0852 0
M  V30 11724 N 1059.42 0.0968509 -7.02033 0
M  V30 11725 H 1064.26 -1.19388 -2.73039 0
M  V30 11726 H 1061.8 -0.600091 -1.34303 0
M  V30 11727 H 1063.75 0.889249 -4.07613 0
M  V30 11728 H 1062.38 1.22664 -2.98586 0
M  V30 11729 H 1061.44 -1.10308 -3.64055 0
M  V30 11730 H 1062.75 -1.23504 -4.83268 0
M  V30 11731 H 1061.9 0.803301 -6.01358 0
M  V30 11732 H 1060.64 1.02522 -4.76802 0
M  V30 11733 H 1059.65 -1.20093 -5.36524 0
M  V30 11734 H 1060.87 -1.41037 -6.64293 0
M  V30 11735 H 1058.82 0.829548 -6.50734 0
M  V30 11736 H 1058.73 -0.560476 -7.5392 0
M  V30 11737 H 1060 0.6058 -7.77142 0
M  V30 11738 N 1064.23 1.43628 -0.648757 0
M  V30 11739 C 1065.46 2.06217 -0.167945 0
M  V30 11740 C 1065.88 1.486 1.16462 0
M  V30 11741 O 1065.23 0.61559 1.71804 0
M  V30 11742 C 1065.28 3.6144 -0.0660114 0
M  V30 11743 O 1065 4.16914 -1.34589 0
M  V30 11744 C 1066.51 4.41097 0.441408 0
M  V30 11745 H 1063.73 0.665228 -0.0878237 0
M  V30 11746 H 1066.27 1.84207 -0.888144 0
M  V30 11747 H 1064.42 3.82651 0.604722 0
M  V30 11748 H 1064.84 5.10537 -1.20218 0
M  V30 11749 H 1066.31 5.50066 0.461697 0
M  V30 11750 H 1066.79 4.13803 1.47187 0
M  V30 11751 H 1067.4 4.24845 -0.19668 0
M  V30 11752 N 1065.71 0.390394 1.52688 0
M  V30 11753 C 1066.64 -0.43567 2.294 0
M  V30 11754 C 1067.62 -1.06253 1.32832 0
M  V30 11755 O 1068.81 -1.07509 1.61726 0
M  V30 11756 C 1065.94 -1.56259 3.10162 0
M  V30 11757 C 1064.89 -1.06172 4.14622 0
M  V30 11758 C 1064.22 -2.2808 4.83615 0
M  V30 11759 C 1065.52 -0.128902 5.22141 0
M  V30 11760 H 1067.21 0.204384 2.98702 0
M  V30 11761 H 1064.76 0.0997377 1.43654 0
M  V30 11762 H 1066.71 -2.14732 3.62585 0
M  V30 11763 H 1065.43 -2.23025 2.38595 0
M  V30 11764 H 1064.09 -0.499518 3.63181 0
M  V30 11765 H 1063.74 -2.93358 4.08595 0
M  V30 11766 H 1063.44 -1.95227 5.5422 0
M  V30 11767 H 1064.96 -2.87193 5.38844 0
M  V30 11768 H 1066.38 -0.621849 5.69917 0
M  V30 11769 H 1064.78 0.109919 5.99999 0
M  V30 11770 H 1065.85 0.821884 4.77884 0
M  V30 11771 N 1067.19 -1.57141 0.120249 0
M  V30 11772 C 1068.14 -2.16638 -0.846809 0
M  V30 11773 C 1069.13 -1.11594 -1.27449 0
M  V30 11774 O 1070.34 -1.29895 -1.24608 0
M  V30 11775 H 1066.71 -0.693331 -0.291197 0
M  V30 11776 H 1068.68 -2.96673 -0.320536 0
M  V30 11777 C 1067.43 -2.78134 -2.08655 0
M  V30 11778 H 1066.75 -3.58662 -1.76639 0
M  V30 11779 H 1068.19 -3.23301 -2.74322 0
M  V30 11780 C 1066.65 -1.7528 -2.87713 0
M  V30 11781 O 1067.18 -1.20693 -3.8314 0
M  V30 11782 N 1065.39 -1.45192 -2.51729 0
M  V30 11783 H 1064.94 -1.89773 -1.74195 0
M  V30 11784 H 1064.89 -0.766166 -3.04922 0
M  V30 11785 N 1068.67 0.153526 -1.5685 0
M  V30 11786 C 1069.89 0.886343 -1.87507 0
M  V30 11787 C 1070.32 1.74244 -0.708565 0
M  V30 11788 O 1069.67 1.78045 0.341997 0
M  V30 11789 C 1069.72 1.72428 -3.16703 0
M  V30 11790 O 1068.83 2.82784 -3.00178 0
M  V30 11791 H 1068.17 0.247259 -0.616246 0
M  V30 11792 H 1070.7 0.146306 -2.04076 0
M  V30 11793 H 1070.71 2.12062 -3.4856 0
M  V30 11794 H 1069.38 1.09558 -4.01211 0
M  V30 11795 H 1067.96 2.46604 -2.79716 0
M  V30 11796 N 1070.14 1.51827 0.422667 0
M  V30 11797 C 1071.07 1.77152 1.52117 0
M  V30 11798 C 1072.06 0.621895 1.58324 0
M  V30 11799 O 1073.24 0.866118 1.73816 0
M  V30 11800 C 1070.37 1.90991 2.90068 0
M  V30 11801 C 1069.32 3.06516 2.98717 0
M  V30 11802 C 1068.65 3.05559 4.38791 0
M  V30 11803 C 1069.95 4.46223 2.71445 0
M  V30 11804 H 1071.64 2.69135 1.31175 0
M  V30 11805 H 1069.19 1.29507 0.629607 0
M  V30 11806 H 1071.14 2.07291 3.6689 0
M  V30 11807 H 1069.87 0.956688 3.12274 0
M  V30 11808 H 1068.53 2.89945 2.24338 0
M  V30 11809 H 1068.17 2.07985 4.57986 0
M  V30 11810 H 1067.87 3.83144 4.45505 0
M  V30 11811 H 1069.4 3.23971 5.17566 0
M  V30 11812 H 1070.81 4.63069 3.37994 0
M  V30 11813 H 1069.21 5.25623 2.89552 0
M  V30 11814 H 1070.28 4.5525 1.6696 0
M  V30 11815 N 1071.62 -0.679052 1.4222 0
M  V30 11816 C 1072.87 -1.43485 1.41757 0
M  V30 11817 C 1073.18 -1.95567 0.0358698 0
M  V30 11818 O 1074.39 -2.71346 -0.0913713 0
M  V30 11819 C 1072.85 -2.59541 2.49332 0
M  V30 11820 C 1072.45 -2.14176 3.93488 0
M  V30 11821 C 1074.2 -3.37078 2.58029 0
M  V30 11822 C 1072.11 -3.27289 4.92581 0
M  V30 11823 H 1071.04 -0.539022 0.52723 0
M  V30 11824 H 1073.69 -0.735581 1.68111 0
M  V30 11825 H 1072.07 -3.31815 2.16135 0
M  V30 11826 H 1073.24 -1.49082 4.36017 0
M  V30 11827 H 1071.56 -1.49589 3.88603 0
M  V30 11828 H 1074.15 -4.21312 3.29242 0
M  V30 11829 H 1074.5 -3.83383 1.62245 0
M  V30 11830 H 1075.03 -2.7187 2.90399 0
M  V30 11831 H 1071.77 -2.8598 5.89827 0
M  V30 11832 H 1071.29 -3.91178 4.54687 0
M  V30 11833 H 1072.97 -3.9282 5.14103 0
M  V30 11834 N 1073.1 -1.28322 -0.914942 0
M  V30 11835 C 1074.05 -1.12146 -2.01722 0
M  V30 11836 C 1075.02 -0.0189279 -1.66089 0
M  V30 11837 O 1076.2 -0.183638 -1.89914 0
M  V30 11838 C 1073.34 -0.78808 -3.35981 0
M  V30 11839 C 1072.46 -1.96954 -3.84491 0
M  V30 11840 C 1071.59 -1.57688 -5.07255 0
M  V30 11841 C 1070.63 -2.72506 -5.48094 0
M  V30 11842 N 1069.77 -2.33741 -6.62049 0
M  V30 11843 H 1074.61 -2.06461 -2.1489 0
M  V30 11844 H 1072.14 -1.0276 -1.05256 0
M  V30 11845 H 1074.1 -0.575546 -4.13211 0
M  V30 11846 H 1072.73 0.118132 -3.22584 0
M  V30 11847 H 1071.78 -2.29423 -3.03429 0
M  V30 11848 H 1073.1 -2.8304 -4.10719 0
M  V30 11849 H 1072.25 -1.32634 -5.92025 0
M  V30 11850 H 1070.99 -0.687291 -4.82833 0
M  V30 11851 H 1069.99 -2.9826 -4.61867 0
M  V30 11852 H 1071.22 -3.62106 -5.74505 0
M  V30 11853 H 1069.16 -1.4725 -6.3926 0
M  V30 11854 H 1069.08 -3.13364 -6.87997 0
M  V30 11855 H 1070.35 -2.11968 -7.50127 0
M  V30 11856 N 1074.58 1.12322 -1.10551 0
M  V30 11857 C 1075.51 2.20176 -0.777486 0
M  V30 11858 C 1076.49 1.68252 0.250069 0
M  V30 11859 O 1077.67 1.93856 0.115574 0
M  V30 11860 C 1074.8 3.46666 -0.209822 0
M  V30 11861 C 1073.76 4.11749 -1.1682 0
M  V30 11862 C 1073.08 5.32703 -0.461684 0
M  V30 11863 C 1074.38 4.57746 -2.51527 0
M  V30 11864 H 1076.08 2.47872 -1.67928 0
M  V30 11865 H 1073.62 1.19136 -0.808863 0
M  V30 11866 H 1075.58 4.21388 0.0318068 0
M  V30 11867 H 1074.3 3.18401 0.727226 0
M  V30 11868 H 1072.96 3.39009 -1.3953 0
M  V30 11869 H 1072.61 5.00706 0.479875 0
M  V30 11870 H 1072.31 5.77197 -1.1008 0
M  V30 11871 H 1073.83 6.10172 -0.228629 0
M  V30 11872 H 1075.25 5.23835 -2.32958 0
M  V30 11873 H 1073.64 5.13021 -3.11335 0
M  V30 11874 H 1074.71 3.71667 -3.11435 0
M  V30 11875 N 1076.06 0.894434 1.2976 0
M  V30 11876 C 1077 0.357958 2.29829 0
M  V30 11877 C 1078 -0.540093 1.6056 0
M  V30 11878 O 1079.2 -0.423478 1.74948 0
M  V30 11879 H 1075.58 0.0971183 0.745702 0
M  V30 11880 H 1077.55 1.21542 2.72526 0
M  V30 11881 C 1076.3 -0.404126 3.45343 0
M  V30 11882 H 1075.62 0.277671 3.98835 0
M  V30 11883 H 1077.06 -0.744446 4.17413 0
M  V30 11884 C 1075.52 -1.6048 2.96222 0
M  V30 11885 O 1076.05 -2.70414 2.97051 0
M  V30 11886 N 1074.26 -1.44517 2.52117 0
M  V30 11887 H 1073.8 -0.55082 2.51642 0
M  V30 11888 H 1073.76 -2.24987 2.1961 0
M  V30 11889 N 1077.53 -1.43282 0.656365 0
M  V30 11890 C 1078.5 -2.29188 -0.0239173 0
M  V30 11891 C 1079.5 -1.42373 -0.747436 0
M  V30 11892 O 1080.69 -1.63969 -0.588213 0
M  V30 11893 C 1077.82 -3.24501 -1.0446 0
M  V30 11894 H 1079.01 -2.9083 0.731978 0
M  V30 11895 H 1076.57 -1.50614 0.417752 0
M  V30 11896 H 1077.3 -2.6776 -1.82962 0
M  V30 11897 H 1077.09 -3.88509 -0.52942 0
M  V30 11898 H 1078.58 -3.88971 -1.51958 0
M  V30 11899 N 1079.01 -0.398486 -1.52479 0
M  V30 11900 C 1080.26 0.181019 -2.0199 0
M  V30 11901 C 1080.59 1.45691 -1.28405 0
M  V30 11902 O 1079.87 1.90607 -0.387207 0
M  V30 11903 C 1080.15 0.439587 -3.57407 0
M  V30 11904 C 1080 -0.85223 -4.41653 0
M  V30 11905 C 1081.32 1.2263 -4.2267 0
M  V30 11906 H 1078.44 0.0643164 -0.734188 0
M  V30 11907 H 1081.08 -0.52986 -1.82462 0
M  V30 11908 H 1079.23 1.04516 -3.74177 0
M  V30 11909 H 1080.91 -1.48879 -4.36615 0
M  V30 11910 H 1079.15 -1.46555 -4.08294 0
M  V30 11911 H 1079.82 -0.625839 -5.48441 0
M  V30 11912 H 1082.3 0.713722 -4.09933 0
M  V30 11913 H 1081.17 1.37596 -5.31374 0
M  V30 11914 H 1081.43 2.24403 -3.80914 0
M  V30 11915 N 1080.49 1.57075 -0.12858 0
M  V30 11916 C 1081.44 2.15816 0.818064 0
M  V30 11917 C 1082.41 1.08581 1.25696 0
M  V30 11918 O 1083.59 1.36535 1.33277 0
M  V30 11919 C 1080.73 2.76943 2.05905 0
M  V30 11920 C 1079.85 3.98514 1.66764 0
M  V30 11921 C 1078.98 4.47698 2.85902 0
M  V30 11922 C 1078.02 5.61778 2.43047 0
M  V30 11923 N 1077.16 6.05662 3.5513 0
M  V30 11924 H 1082 2.9638 0.310318 0
M  V30 11925 H 1079.53 1.46418 0.141472 0
M  V30 11926 H 1081.49 3.10519 2.78629 0
M  V30 11927 H 1080.12 1.99053 2.54122 0
M  V30 11928 H 1079.17 3.71038 0.838766 0
M  V30 11929 H 1080.49 4.81215 1.31277 0
M  V30 11930 H 1079.64 4.83233 3.66839 0
M  V30 11931 H 1078.38 3.63967 3.24622 0
M  V30 11932 H 1077.38 5.25838 1.60544 0
M  V30 11933 H 1078.61 6.47282 2.05433 0
M  V30 11934 H 1076.56 5.2487 3.93506 0
M  V30 11935 H 1076.47 6.83242 3.23598 0
M  V30 11936 H 1077.74 6.45838 4.36479 0
M  V30 11937 N 1081.97 -0.145205 1.5693 0
M  V30 11938 C 1082.9 -1.18096 2.01434 0
M  V30 11939 C 1083.88 -1.447 0.894204 0
M  V30 11940 O 1085.07 -1.55589 1.16214 0
M  V30 11941 C 1082.2 -2.51369 2.39647 0
M  V30 11942 C 1081.15 -2.39283 3.54863 0
M  V30 11943 C 1080.48 -3.77283 3.78895 0
M  V30 11944 C 1081.78 -1.8754 4.87469 0
M  V30 11945 H 1083.47 -0.810897 2.8821 0
M  V30 11946 H 1081.02 -0.388624 1.38657 0
M  V30 11947 H 1082.97 -3.24054 2.69382 0
M  V30 11948 H 1081.69 -2.90214 1.49811 0
M  V30 11949 H 1080.35 -1.6905 3.25296 0
M  V30 11950 H 1080 -4.13567 2.86307 0
M  V30 11951 H 1079.7 -3.70057 4.56433 0
M  V30 11952 H 1081.22 -4.51514 4.11057 0
M  V30 11953 H 1082.64 -2.50019 5.1591 0
M  V30 11954 H 1081.03 -1.912 5.68826 0
M  V30 11955 H 1082.1 -0.831194 4.77723 0
M  V30 11956 N 1083.45 -1.52049 -0.414609 0
M  V30 11957 C 1084.4 -1.75603 -1.52533 0
M  V30 11958 C 1085.39 -0.622965 -1.57529 0
M  V30 11959 O 1086.6 -0.804886 -1.61002 0
M  V30 11960 H 1082.97 -0.555222 -0.507181 0
M  V30 11961 H 1084.94 -2.68666 -1.2985 0
M  V30 11962 C 1083.69 -1.9188 -2.89961 0
M  V30 11963 H 1083.01 -2.78483 -2.86857 0
M  V30 11964 H 1084.45 -2.12363 -3.66985 0
M  V30 11965 C 1082.91 -0.684453 -3.29874 0
M  V30 11966 O 1083.44 0.150256 -4.01419 0
M  V30 11967 N 1081.65 -0.521936 -2.85874 0
M  V30 11968 H 1081.2 -1.20229 -2.27822 0
M  V30 11969 H 1081.15 0.302655 -3.1294 0
M  V30 11970 N 1084.93 0.6715 -1.42579 0
M  V30 11971 C 1086.34 0.985019 -1.25577 0
M  V30 11972 C 1086.54 2.00845 -0.162319 0
M  V30 11973 O 1085.6 2.48175 0.465352 0
M  V30 11974 C 1086.91 1.48668 -2.61377 0
M  V30 11975 C 1088.46 1.60429 -2.68759 0
M  V30 11976 C 1088.93 2.13991 -4.04935 0
M  V30 11977 N 1090.42 2.21319 -4.06906 0
M  V30 11978 C 1091.16 2.63845 -5.09091 0
M  V30 11979 N 1090.66 3.05799 -6.21658 0
M  V30 11980 N 1092.45 2.63623 -4.96447 0
M  V30 11981 H 1084.6 -0.00604561 -2.12399 0
M  V30 11982 H 1086.86 0.0598299 -0.94611 0
M  V30 11983 H 1086.57 0.80917 -3.42265 0
M  V30 11984 H 1086.44 2.46487 -2.85524 0
M  V30 11985 H 1088.83 2.27286 -1.88216 0
M  V30 11986 H 1088.91 0.610909 -2.48398 0
M  V30 11987 H 1088.55 1.47741 -4.85937 0
M  V30 11988 H 1088.48 3.14126 -4.2265 0
M  V30 11989 H 1090.98 1.91743 -3.25643 0
M  V30 11990 H 1091.29 3.36944 -6.95477 0
M  V30 11991 H 1089.63 3.03648 -6.25158 0
M  V30 11992 H 1092.82 2.30211 -4.07579 0
M  V30 11993 H 1093 2.96444 -5.76216 0
M  V30 11994 N 1086.4 1.28806 0.908124 0
M  V30 11995 C 1087.37 1.13228 1.99279 0
M  V30 11996 C 1088.37 0.0702456 1.60646 0
M  V30 11997 O 1089.56 0.316494 1.71301 0
M  V30 11998 C 1086.69 0.729629 3.33 0
M  V30 11999 H 1087.88 2.09566 2.14528 0
M  V30 12000 H 1085.43 1.11872 1.09153 0
M  V30 12001 H 1086.17 -0.234268 3.23453 0
M  V30 12002 H 1085.95 1.49688 3.62403 0
M  V30 12003 H 1087.44 0.643449 4.12613 0
M  V30 12004 N 1087.88 -1.11734 1.11145 0
M  V30 12005 C 1088.83 -2.17683 0.766979 0
M  V30 12006 C 1089.8 -1.64051 -0.260108 0
M  V30 12007 O 1090.98 -1.90302 -0.137723 0
M  V30 12008 C 1088.12 -3.44442 0.212982 0
M  V30 12009 C 1087.24 -4.12094 1.29626 0
M  V30 12010 C 1086.37 -5.26526 0.703127 0
M  V30 12011 C 1085.41 -5.86057 1.76647 0
M  V30 12012 N 1084.55 -6.91889 1.19306 0
M  V30 12013 H 1089.39 -2.46495 1.67465 0
M  V30 12014 H 1086.92 -1.21011 0.836353 0
M  V30 12015 H 1088.88 -4.17009 -0.126162 0
M  V30 12016 H 1087.51 -3.16025 -0.657888 0
M  V30 12017 H 1086.56 -3.37631 1.75241 0
M  V30 12018 H 1087.88 -4.52398 2.10089 0
M  V30 12019 H 1087.03 -6.05888 0.313859 0
M  V30 12020 H 1085.77 -4.87519 -0.132856 0
M  V30 12021 H 1084.77 -5.05375 2.16508 0
M  V30 12022 H 1086 -6.27132 2.60543 0
M  V30 12023 H 1083.95 -6.54906 0.378664 0
M  V30 12024 H 1083.86 -7.30832 1.93443 0
M  V30 12025 H 1085.13 -7.75062 0.830578 0
M  V30 12026 N 1089.36 -0.901303 -1.29284 0
M  V30 12027 C 1090.61 -0.527 -1.95108 0
M  V30 12028 C 1090.93 0.930065 -1.71391 0
M  V30 12029 O 1090.2 1.65601 -1.04658 0
M  V30 12030 H 1088.78 -0.191903 -0.721929 0
M  V30 12031 H 1091.44 -1.14795 -1.57506 0
M  V30 12032 H 1090.54 -0.710945 -3.03895 0
M  V30 12033 N 1090.84 1.42931 -0.663954 0
M  V30 12034 C 1091.78 2.3079 0.0210764 0
M  V30 12035 C 1092.75 1.45356 0.803796 0
M  V30 12036 O 1093.94 1.74207 0.778237 0
M  V30 12037 C 1091.08 3.31069 0.974023 0
M  V30 12038 C 1090.19 4.31598 0.186273 0
M  V30 12039 C 1089.33 5.18955 1.13399 0
M  V30 12040 C 1088.37 6.1117 0.337292 0
M  V30 12041 N 1087.5 6.91114 1.23715 0
M  V30 12042 H 1092.34 2.88819 -0.733995 0
M  V30 12043 H 1089.88 1.42274 -0.373711 0
M  V30 12044 H 1091.84 3.87727 1.54024 0
M  V30 12045 H 1090.47 2.74665 1.69585 0
M  V30 12046 H 1089.52 3.77147 -0.496402 0
M  V30 12047 H 1090.83 4.96919 -0.432753 0
M  V30 12048 H 1089.99 5.80292 1.77049 0
M  V30 12049 H 1088.73 4.53785 1.78691 0
M  V30 12050 H 1087.73 5.48911 -0.312492 0
M  V30 12051 H 1088.96 6.78386 -0.31138 0
M  V30 12052 H 1086.9 6.28583 1.87668 0
M  V30 12053 H 1086.82 7.52999 0.672946 0
M  V30 12054 H 1088.09 7.56948 1.86146 0
M  V30 12055 N 1092.32 0.406567 1.52266 0
M  V30 12056 C 1093.23 -0.4271 2.30679 0
M  V30 12057 C 1094.24 -1.0559 1.383 0
M  V30 12058 O 1095.42 -1.05797 1.71374 0
M  V30 12059 C 1092.48 -1.53008 3.1111 0
M  V30 12060 C 1091.54 -0.924604 4.19225 0
M  V30 12061 C 1090.78 -1.97502 4.95811 0
M  V30 12062 O 1091 -3.19277 4.72671 0
M  V30 12063 O 1089.93 -1.58268 5.80719 0
M  V30 12064 H 1093.76 0.212187 3.02958 0
M  V30 12065 H 1091.34 0.169835 1.48432 0
M  V30 12066 H 1093.23 -2.17046 3.61205 0
M  V30 12067 H 1091.9 -2.15401 2.41628 0
M  V30 12068 H 1090.81 -0.247009 3.73284 0
M  V30 12069 H 1092.14 -0.34463 4.90992 0
M  V30 12070 N 1093.79 -1.57004 0.136909 0
M  V30 12071 C 1094.76 -2.15066 -0.792419 0
M  V30 12072 C 1095.76 -1.08991 -1.18226 0
M  V30 12073 O 1096.95 -1.34681 -1.10484 0
M  V30 12074 C 1094.08 -2.70554 -2.07397 0
M  V30 12075 H 1095.27 -2.98519 -0.28752 0
M  V30 12076 H 1092.83 -1.55895 -0.112469 0
M  V30 12077 H 1093.56 -1.90739 -2.62277 0
M  V30 12078 H 1093.35 -3.48149 -1.80374 0
M  V30 12079 H 1094.84 -3.15322 -2.73792 0
M  V30 12080 N 1095.27 0.136881 -1.57004 0
M  V30 12081 C 1096.21 1.19853 -1.94192 0
M  V30 12082 C 1097.18 1.4104 -0.809103 0
M  V30 12083 O 1098.37 1.55487 -1.06565 0
M  V30 12084 C 1095.49 2.55565 -2.22271 0
M  V30 12085 C 1094.54 2.50913 -3.44884 0
M  V30 12086 S 1095.37 1.96619 -4.98098 0
M  V30 12087 C 1096.53 3.34039 -5.2931 0
M  V30 12088 H 1096.76 0.881316 -2.83937 0
M  V30 12089 H 1094.3 0.342915 -1.50544 0
M  V30 12090 H 1096.25 3.33659 -2.39127 0
M  V30 12091 H 1094.91 2.84472 -1.33172 0
M  V30 12092 H 1094.11 3.50839 -3.6184 0
M  V30 12093 H 1093.71 1.80932 -3.27322 0
M  V30 12094 H 1096 4.30189 -5.23397 0
M  V30 12095 H 1096.94 3.21927 -6.30689 0
M  V30 12096 H 1097.35 3.31642 -4.56808 0
M  V30 12097 N 1096.75 1.52266 0.40654 0
M  V30 12098 C 1097.7 1.72175 1.49465 0
M  V30 12099 C 1098.68 0.575668 1.50249 0
M  V30 12100 O 1099.88 0.832835 1.56182 0
M  V30 12101 C 1097.01 1.87818 2.87366 0
M  V30 12102 C 1096.09 3.08305 2.91219 0
M  V30 12103 N 1096.48 4.30967 2.64766 0
M  V30 12104 C 1094.78 3.08192 3.22388 0
M  V30 12105 C 1095.48 5.12455 2.75254 0
M  V30 12106 N 1094.46 4.47758 3.08242 0
M  V30 12107 H 1098.26 2.64653 1.27812 0
M  V30 12108 H 1095.77 1.50334 0.61428 0
M  V30 12109 H 1097.77 2.00198 3.65686 0
M  V30 12110 H 1096.43 0.965414 3.10016 0
M  V30 12111 H 1097.44 4.59397 2.39113 0
M  V30 12112 H 1094.12 2.26662 3.50615 0
M  V30 12113 H 1095.51 6.20186 2.58495 0
M  V30 12114 N 1098.23 -0.663929 1.42933 0
M  V30 12115 C 1099.46 -1.45192 1.474 0
M  V30 12116 C 1099.87 -1.88592 0.0886014 0
M  V30 12117 O 1099.23 -1.58824 -0.898962 0
M  V30 12118 C 1099.28 -2.69394 2.41059 0
M  V30 12119 O 1099 -2.27812 3.7421 0
M  V30 12120 C 1100.5 -3.62855 2.54659 0
M  V30 12121 H 1097.72 -0.446394 0.500973 0
M  V30 12122 H 1100.27 -0.814875 1.87563 0
M  V30 12123 H 1098.42 -3.29262 2.0412 0
M  V30 12124 H 1098.83 -3.08095 4.24474 0
M  V30 12125 H 1100.31 -4.46698 3.24291 0
M  V30 12126 H 1100.79 -4.09487 1.58799 0
M  V30 12127 H 1101.39 -3.08874 2.92364 0
M  V30 12128 N 1099.71 -1.29285 -0.901281 0
M  V30 12129 C 1100.95 -1.18431 -1.66594 0
M  V30 12130 C 1101.31 0.260312 -1.90227 0
M  V30 12131 O 1102.51 0.4918 -2.64263 0
M  V30 12132 C 1100.78 -1.97357 -2.97968 0
M  V30 12133 S 1102.34 -2.03019 -3.8901 0
M  V30 12134 H 1099.16 -0.422323 -0.571983 0
M  V30 12135 H 1101.76 -1.63551 -1.07105 0
M  V30 12136 H 1100.47 -3.01459 -2.78479 0
M  V30 12137 H 1100 -1.52836 -3.62498 0
M  V30 12138 H 1102.01 -1.14572 -4.82791 0
M  V30 12139 N 1101.18 1.11143 -1.11736 0
M  V30 12140 C 1102.11 2.19339 -0.800795 0
M  V30 12141 C 1103.1 1.68508 0.23221 0
M  V30 12142 O 1104.28 1.93967 0.0950063 0
M  V30 12143 C 1101.41 3.46424 -0.246579 0
M  V30 12144 C 1100.36 4.10487 -1.21181 0
M  V30 12145 C 1099.69 5.32183 -0.518158 0
M  V30 12146 C 1100.99 4.55052 -2.56368 0
M  V30 12147 H 1102.68 2.46077 -1.70548 0
M  V30 12148 H 1100.23 1.18271 -0.821454 0
M  V30 12149 H 1102.18 4.21398 -0.0128889 0
M  V30 12150 H 1100.91 3.19154 0.693415 0
M  V30 12151 H 1099.57 3.3751 -1.43118 0
M  V30 12152 H 1099.21 5.01187 0.426742 0
M  V30 12153 H 1098.91 5.75997 -1.16196 0
M  V30 12154 H 1100.44 6.09895 -0.293333 0
M  V30 12155 H 1101.85 5.21335 -2.38501 0
M  V30 12156 H 1100.25 5.0969 -3.16758 0
M  V30 12157 H 1101.32 3.68343 -3.1536 0
M  V30 12158 N 1102.66 0.908147 1.28804 0
M  V30 12159 C 1103.61 0.390734 2.27468 0
M  V30 12160 C 1104.58 -0.531765 1.57358 0
M  V30 12161 O 1105.76 -0.455177 1.85291 0
M  V30 12162 C 1102.9 -0.368159 3.43131 0
M  V30 12163 C 1102.02 0.586202 4.28004 0
M  V30 12164 C 1101.15 -0.190581 5.30858 0
M  V30 12165 C 1100.19 0.757758 6.07391 0
M  V30 12166 N 1099.33 0.0148488 7.02098 0
M  V30 12167 H 1104.17 1.23717 2.71105 0
M  V30 12168 H 1101.71 0.621382 1.33331 0
M  V30 12169 H 1103.66 -0.824289 4.08976 0
M  V30 12170 H 1102.29 -1.17898 3.00499 0
M  V30 12171 H 1101.35 1.16086 3.62254 0
M  V30 12172 H 1102.66 1.31177 4.81242 0
M  V30 12173 H 1101.81 -0.707528 6.0256 0
M  V30 12174 H 1100.55 -0.949234 4.78373 0
M  V30 12175 H 1099.56 1.28613 5.34545 0
M  V30 12176 H 1100.78 1.51588 6.61965 0
M  V30 12177 H 1098.73 -0.725916 6.51971 0
M  V30 12178 H 1098.64 0.680347 7.52932 0
M  V30 12179 H 1099.91 -0.482086 7.78008 0
M  V30 12180 N 1104.14 -1.42577 0.671525 0
M  V30 12181 C 1105.07 -2.2915 -0.0477361 0
M  V30 12182 C 1106.09 -1.43503 -0.768805 0
M  V30 12183 O 1107.27 -1.67256 -0.623509 0
M  V30 12184 C 1104.37 -3.20851 -1.09122 0
M  V30 12185 C 1103.55 -4.35134 -0.44463 0
M  V30 12186 C 1102.61 -5.07579 -1.38745 0
M  V30 12187 O 1101.63 -5.62215 -0.889015 0
M  V30 12188 N 1102.83 -5.12786 -2.72086 0
M  V30 12189 H 1105.6 -2.9152 0.695415 0
M  V30 12190 H 1103.16 -1.53467 0.515689 0
M  V30 12191 H 1105.15 -3.66183 -1.72315 0
M  V30 12192 H 1103.72 -2.59956 -1.73614 0
M  V30 12193 H 1102.94 -3.9249 0.36675 0
M  V30 12194 H 1104.23 -5.088 0.00595927 0
M  V30 12195 H 1103.63 -4.69802 -3.15123 0
M  V30 12196 H 1102.19 -5.61774 -3.30535 0
M  V30 12197 N 1105.62 -0.414636 -1.52048 0
M  V30 12198 C 1106.84 0.161137 -2.06773 0
M  V30 12199 C 1107.27 1.37628 -1.2822 0
M  V30 12200 O 1106.63 1.78562 -0.313915 0
M  V30 12201 C 1106.67 0.48452 -3.5733 0
M  V30 12202 O 1105.78 1.57466 -3.81154 0
M  V30 12203 H 1105.12 0.0118003 -0.663895 0
M  V30 12204 H 1107.65 -0.589424 -1.95926 0
M  V30 12205 H 1107.66 0.741567 -4.01204 0
M  V30 12206 H 1106.33 -0.403733 -4.13936 0
M  V30 12207 H 1104.91 1.30935 -3.49157 0
M  V30 12208 N 1107.1 1.56929 -0.145233 0
M  V30 12209 C 1108.06 2.15483 0.781002 0
M  V30 12210 C 1109.06 1.09617 1.17647 0
M  V30 12211 O 1110.25 1.35265 1.09768 0
M  V30 12212 C 1107.38 2.7165 2.05959 0
M  V30 12213 H 1108.57 2.98667 0.271685 0
M  V30 12214 H 1106.13 1.55952 0.1042 0
M  V30 12215 H 1106.86 1.92127 2.61262 0
M  V30 12216 H 1106.65 3.491 1.78526 0
M  V30 12217 H 1108.14 3.16769 2.72116 0
M  V30 12218 N 1108.58 -0.128553 1.57075 0
M  V30 12219 C 1109.81 -0.851214 1.8825 0
M  V30 12220 C 1110.21 -1.74402 0.733531 0
M  V30 12221 O 1109.56 -1.81149 -0.305108 0
M  V30 12222 C 1109.62 -1.74451 3.14336 0
M  V30 12223 C 1109.28 -1.02699 4.45311 0
M  V30 12224 C 1110.28 -0.37224 5.18566 0
M  V30 12225 C 1107.96 -1.01101 4.9202 0
M  V30 12226 C 1109.96 0.2889 6.36745 0
M  V30 12227 C 1107.65 -0.346063 6.10119 0
M  V30 12228 C 1108.64 0.302744 6.82329 0
M  V30 12229 O 1108.33 0.9571 7.98182 0
M  V30 12230 H 1108.06 -0.250529 0.627863 0
M  V30 12231 H 1110.62 -0.120418 2.05047 0
M  V30 12232 H 1108.85 -2.51671 2.93596 0
M  V30 12233 H 1110.54 -2.34075 3.31608 0
M  V30 12234 H 1111.3 -0.376271 4.83538 0
M  V30 12235 H 1107.18 -1.50543 4.35727 0
M  V30 12236 H 1110.73 0.795901 6.93045 0
M  V30 12237 H 1106.62 -0.339762 6.44605 0
M  V30 12238 H 1107.39 0.860616 8.13963 0
M  V30 12239 N 1110.05 -1.5248 -0.398459 0
M  V30 12240 C 1111.47 -1.4152 -0.737854 0
M  V30 12241 C 1111.67 -0.528122 -1.94456 0
M  V30 12242 O 1110.73 0.00203799 -2.525 0
M  V30 12243 C 1112.04 -2.8422 -0.9818 0
M  V30 12244 C 1113.59 -2.93635 -1.08386 0
M  V30 12245 C 1114.06 -4.37327 -1.3605 0
M  V30 12246 N 1115.55 -4.40609 -1.42892 0
M  V30 12247 C 1116.29 -5.48863 -1.65944 0
M  V30 12248 N 1115.78 -6.67217 -1.86529 0
M  V30 12249 N 1117.58 -5.36393 -1.68046 0
M  V30 12250 H 1109.73 -2.08681 0.395705 0
M  V30 12251 H 1111.99 -0.941023 0.114801 0
M  V30 12252 H 1111.7 -3.51302 -0.167358 0
M  V30 12253 H 1111.57 -3.25907 -1.89907 0
M  V30 12254 H 1113.96 -2.26728 -1.88888 0
M  V30 12255 H 1114.04 -2.5539 -0.144714 0
M  V30 12256 H 1113.68 -5.04797 -0.56061 0
M  V30 12257 H 1113.61 -4.73116 -2.31233 0
M  V30 12258 H 1116.1 -3.55298 -1.2873 0
M  V30 12259 H 1116.42 -7.45498 -2.03599 0
M  V30 12260 H 1114.76 -6.70263 -1.83773 0
M  V30 12261 H 1117.95 -4.42903 -1.51509 0
M  V30 12262 H 1118.13 -6.2083 -1.85672 0
M  V30 12263 N 1111.53 0.65634 -1.43283 0
M  V30 12264 C 1112.44 1.79847 -1.50639 0
M  V30 12265 C 1113.46 1.69487 -0.393714 0
M  V30 12266 O 1114.63 1.90712 -0.647379 0
M  V30 12267 C 1111.7 3.16107 -1.42398 0
M  V30 12268 C 1110.76 3.38287 -2.64312 0
M  V30 12269 C 1109.99 4.68046 -2.56454 0
M  V30 12270 O 1110.22 5.4719 -1.61056 0
M  V30 12271 O 1109.15 4.91877 -3.46902 0
M  V30 12272 H 1112.98 1.76596 -2.47078 0
M  V30 12273 H 1110.56 0.814428 -1.25249 0
M  V30 12274 H 1112.44 3.97382 -1.40233 0
M  V30 12275 H 1111.12 3.19956 -0.490929 0
M  V30 12276 H 1110.02 2.56788 -2.72049 0
M  V30 12277 H 1111.36 3.39282 -3.56579 0
M  V30 12278 N 1113.01 1.29761 0.894412 0
M  V30 12279 C 1113.97 1.15335 1.98067 0
M  V30 12280 C 1114.97 0.0872804 1.60563 0
M  V30 12281 O 1116.16 0.334645 1.70955 0
M  V30 12282 C 1113.29 0.764907 3.32208 0
M  V30 12283 H 1114.49 2.11829 2.12293 0
M  V30 12284 H 1112.04 1.13023 1.0796 0
M  V30 12285 H 1112.78 -0.199948 3.23683 0
M  V30 12286 H 1112.56 1.53523 3.60795 0
M  V30 12287 H 1114.05 0.687176 4.11907 0
M  V30 12288 N 1114.49 -1.10549 1.12324 0
M  V30 12289 C 1115.42 -2.18911 0.812416 0
M  V30 12290 C 1116.4 -1.68628 -0.22327 0
M  V30 12291 O 1117.58 -1.94015 -0.0847184 0
M  V30 12292 C 1114.71 -3.46288 0.264947 0
M  V30 12293 C 1113.67 -4.09838 1.23356 0
M  V30 12294 C 1112.99 -5.31901 0.546374 0
M  V30 12295 C 1114.29 -4.53686 2.58778 0
M  V30 12296 H 1115.99 -2.45169 1.71851 0
M  V30 12297 H 1113.53 -1.17834 0.827715 0
M  V30 12298 H 1115.49 -4.21385 0.0352364 0
M  V30 12299 H 1114.21 -3.19517 -0.676479 0
M  V30 12300 H 1112.87 -3.36746 1.44906 0
M  V30 12301 H 1112.52 -5.01406 -0.400157 0
M  V30 12302 H 1112.22 -5.75372 1.19249 0
M  V30 12303 H 1113.74 -6.09731 0.325673 0
M  V30 12304 H 1115.16 -5.20063 2.41263 0
M  V30 12305 H 1113.55 -5.08003 3.19457 0
M  V30 12306 H 1114.62 -3.66665 3.17309 0
M  V30 12307 N 1115.97 -0.914965 -1.28321 0
M  V30 12308 C 1117.19 -0.564023 -1.99583 0
M  V30 12309 C 1117.62 0.847821 -1.6791 0
M  V30 12310 O 1116.97 1.56682 -0.912171 0
M  V30 12311 C 1117.02 -0.781368 -3.52033 0
M  V30 12312 O 1116.13 0.159072 -4.12093 0
M  V30 12313 H 1115.47 -0.218565 -0.626997 0
M  V30 12314 H 1118 -1.23074 -1.63444 0
M  V30 12315 H 1118.01 -0.691946 -4.0209 0
M  V30 12316 H 1116.68 -1.81059 -3.7442 0
M  V30 12317 H 1115.26 0.0208145 -3.72894 0
M  V30 12318 N 1117.44 1.42219 -0.679077 0
M  V30 12319 C 1118.72 1.95155 -0.13188 0
M  V30 12320 C 1119.1 1.6193 1.35433 0
M  V30 12321 O 1118.45 0.917672 2.09263 0
M  V30 12322 C 1118.66 3.46635 -0.405578 0
M  V30 12323 C 1120.01 4.23359 -0.324394 0
M  V30 12324 O 1121.03 3.54578 -0.339564 0
M  V30 12325 O 1119.89 5.45831 -0.270268 0
M  V30 12326 H 1116.98 0.826983 -0.00535438 0
M  V30 12327 H 1119.53 1.52024 -0.754101 0
M  V30 12328 H 1118.3 3.6404 -1.43495 0
M  V30 12329 H 1117.92 3.96823 0.248439 0
M  V30 12330 N 1118.92 0.422693 1.51826 0
M  V30 12331 C 1119.85 -0.386913 2.30272 0
M  V30 12332 C 1120.83 -1.03411 1.35056 0
M  V30 12333 O 1122.02 -1.04055 1.6397 0
M  V30 12334 C 1119.15 -1.49645 3.13407 0
M  V30 12335 C 1118.1 -0.973532 4.16781 0
M  V30 12336 C 1117.43 -2.1777 4.88344 0
M  V30 12337 C 1118.73 -0.0181194 5.22297 0
M  V30 12338 H 1120.42 0.267697 2.98201 0
M  V30 12339 H 1117.97 0.130186 1.4341 0
M  V30 12340 H 1119.92 -2.06993 3.67059 0
M  V30 12341 H 1118.64 -2.17914 2.43272 0
M  V30 12342 H 1117.3 -0.42237 3.64159 0
M  V30 12343 H 1116.95 -2.84625 4.14726 0
M  V30 12344 H 1116.65 -1.83427 5.58237 0
M  V30 12345 H 1118.18 -2.75699 5.44814 0
M  V30 12346 H 1119.59 -0.500822 5.71108 0
M  V30 12347 H 1117.99 0.237163 5.99631 0
M  V30 12348 H 1119.06 0.923065 4.76033 0
M  V30 12349 N 1120.4 -1.5685 0.153553 0
M  V30 12350 C 1121.33 -2.14231 -0.814729 0
M  V30 12351 C 1122.34 -1.09339 -1.20619 0
M  V30 12352 O 1123.53 -1.36592 -1.14913 0
M  V30 12353 C 1120.63 -2.6555 -2.10562 0
M  V30 12354 C 1119.81 -3.94912 -1.8805 0
M  V30 12355 C 1118.87 -4.31476 -3.0119 0
M  V30 12356 O 1117.89 -4.9968 -2.72596 0
M  V30 12357 N 1119.09 -3.91588 -4.28531 0
M  V30 12358 H 1121.86 -2.9794 -0.324277 0
M  V30 12359 H 1119.42 -1.61873 -0.0298087 0
M  V30 12360 H 1121.41 -2.87019 -2.85311 0
M  V30 12361 H 1119.98 -1.86529 -2.5085 0
M  V30 12362 H 1119.2 -3.82002 -0.973024 0
M  V30 12363 H 1120.49 -4.79433 -1.70356 0
M  V30 12364 H 1119.89 -3.36645 -4.54628 0
M  V30 12365 H 1118.44 -4.18095 -5.00039 0
M  V30 12366 N 1121.88 0.120221 -1.57141 0
M  V30 12367 C 1123.1 0.84637 -1.89344 0
M  V30 12368 C 1123.53 1.72702 -0.745365 0
M  V30 12369 O 1122.89 1.7873 0.304155 0
M  V30 12370 C 1122.93 1.65671 -3.20289 0
M  V30 12371 O 1122.04 2.76353 -3.06109 0
M  V30 12372 H 1121.38 0.234132 -0.621352 0
M  V30 12373 H 1123.91 0.102986 -2.04341 0
M  V30 12374 H 1123.92 2.04621 -3.52979 0
M  V30 12375 H 1122.59 1.01023 -4.03444 0
M  V30 12376 H 1121.17 2.40615 -2.84884 0
M  V30 12377 N 1123.36 1.52689 0.390367 0
M  V30 12378 C 1124.77 1.59623 0.968366 0
M  V30 12379 C 1125.12 0.44824 1.91011 0
M  V30 12380 O 1124.24 -0.428868 2.12108 0
M  V30 12381 C 1124.84 2.89312 1.76306 0
M  V30 12382 C 1123.4 2.98664 2.29079 0
M  V30 12383 C 1122.54 2.54725 1.09593 0
M  V30 12384 H 1125.5 1.57787 0.169959 0
M  V30 12385 H 1125.52 2.75721 2.62217 0
M  V30 12386 H 1125.03 3.72846 1.07738 0
M  V30 12387 H 1123.13 2.19665 3.00962 0
M  V30 12388 H 1123.24 4.03277 2.58659 0
M  V30 12389 H 1121.61 2.09012 1.45554 0
M  V30 12390 H 1122.39 3.40651 0.425625 0
M  V30 12391 N 1124.83 -0.648732 1.43629 0
M  V30 12392 C 1125.76 -1.77298 1.51947 0
M  V30 12393 C 1126.75 -1.65942 0.373785 0
M  V30 12394 O 1127.93 -1.8497 0.591596 0
M  V30 12395 C 1125.06 -3.15749 1.44638 0
M  V30 12396 C 1124.01 -3.41872 2.57502 0
M  V30 12397 C 1123.34 -4.8017 2.35246 0
M  V30 12398 C 1124.64 -3.36173 3.99731 0
M  V30 12399 H 1126.33 -1.70594 2.46045 0
M  V30 12400 H 1123.88 -0.819306 1.1842 0
M  V30 12401 H 1125.83 -3.94156 1.4906 0
M  V30 12402 H 1124.56 -3.23194 0.470466 0
M  V30 12403 H 1123.22 -2.65838 2.5244 0
M  V30 12404 H 1122.86 -4.84297 1.35887 0
M  V30 12405 H 1122.56 -4.9861 3.10906 0
M  V30 12406 H 1124.09 -5.6083 2.41459 0
M  V30 12407 H 1125.5 -4.0451 4.06257 0
M  V30 12408 H 1123.9 -3.66148 4.75453 0
M  V30 12409 H 1124.97 -2.34277 4.24549 0
M  V30 12410 N 1126.31 -1.30234 -0.887518 0
M  V30 12411 C 1127.26 -1.16302 -2.01436 0
M  V30 12412 C 1128.25 -0.0755422 -1.69231 0
M  V30 12413 O 1129.46 -0.236213 -1.78443 0
M  V30 12414 H 1125.84 -0.35961 -0.660443 0
M  V30 12415 H 1127.81 -2.11677 -2.10322 0
M  V30 12416 C 1126.56 -0.869009 -3.36665 0
M  V30 12417 H 1125.88 -1.69787 -3.61956 0
M  V30 12418 H 1127.32 -0.811621 -4.16159 0
M  V30 12419 C 1125.78 0.428021 -3.3417 0
M  V30 12420 O 1126.31 1.45033 -3.74604 0
M  V30 12421 N 1124.51 0.438264 -2.87276 0
M  V30 12422 H 1124.06 -0.394142 -2.54567 0
M  V30 12423 H 1124.02 1.30604 -2.85989 0
M  V30 12424 N 1127.79 1.09952 -1.12909 0
M  V30 12425 C 1129.2 1.63516 -0.901087 0
M  V30 12426 C 1129.55 1.87932 0.563547 0
M  V30 12427 O 1128.68 1.625 1.42908 0
M  V30 12428 C 1129.27 2.97054 -1.62924 0
M  V30 12429 C 1127.83 3.47464 -1.44725 0
M  V30 12430 C 1126.98 2.21979 -1.66194 0
M  V30 12431 H 1129.93 0.933858 -1.28315 0
M  V30 12432 H 1129.95 3.64757 -1.08318 0
M  V30 12433 H 1129.46 2.79251 -2.69519 0
M  V30 12434 H 1127.56 3.70402 -0.40409 0
M  V30 12435 H 1127.68 4.25254 -2.20671 0
M  V30 12436 H 1126.04 2.30368 -1.0864 0
M  V30 12437 H 1126.82 2.06702 -2.74097 0
M  V30 12438 N 1129.27 0.921757 1.27833 0
M  V30 12439 C 1130.51 0.566288 1.96399 0
M  V30 12440 C 1130.87 -0.875149 1.70895 0
M  V30 12441 O 1132.07 -1.3386 2.33099 0
M  V30 12442 C 1130.34 0.876329 3.4649 0
M  V30 12443 S 1131.9 0.628481 4.34276 0
M  V30 12444 H 1128.72 0.209246 0.679512 0
M  V30 12445 H 1131.32 1.18892 1.55193 0
M  V30 12446 H 1130.03 1.92319 3.62549 0
M  V30 12447 H 1129.56 0.242658 3.92651 0
M  V30 12448 H 1131.57 -0.516493 4.93505 0
M  V30 12449 N 1130.75 -1.41857 0.686609 0
M  V30 12450 C 1131.99 -2.01666 0.214118 0
M  V30 12451 C 1132.33 -1.5422 -1.18025 0
M  V30 12452 O 1131.6 -0.749482 -1.7948 0
M  V30 12453 C 1131.88 -3.59147 0.261841 0
M  V30 12454 C 1131.74 -4.16742 1.69251 0
M  V30 12455 C 1133.06 -4.38427 -0.383378 0
M  V30 12456 H 1130.17 -0.732724 0.0792785 0
M  V30 12457 H 1132.82 -1.68724 0.873633 0
M  V30 12458 H 1130.97 -3.87342 -0.29971 0
M  V30 12459 H 1132.64 -3.99456 2.30722 0
M  V30 12460 H 1130.88 -3.72124 2.2295 0
M  V30 12461 H 1131.55 -5.25894 1.6775 0
M  V30 12462 H 1134.03 -4.15992 0.0947701 0
M  V30 12463 H 1132.9 -5.4797 -0.319401 0
M  V30 12464 H 1133.17 -4.172 -1.46276 0
M  V30 12465 N 1132.22 -0.430739 -1.51599 0
M  V30 12466 C 1133.47 0.139396 -2.01218 0
M  V30 12467 C 1133.79 1.44361 -1.31982 0
M  V30 12468 O 1134.99 2.0963 -1.72533 0
M  V30 12469 C 1133.45 0.298969 -3.58656 0
M  V30 12470 C 1133.06 -0.994424 -4.36824 0
M  V30 12471 C 1134.8 0.82323 -4.16441 0
M  V30 12472 C 1132.71 -0.800855 -5.85952 0
M  V30 12473 H 1131.64 0.0558698 -0.751927 0
M  V30 12474 H 1134.29 -0.559493 -1.74762 0
M  V30 12475 H 1132.67 1.06071 -3.8153 0
M  V30 12476 H 1133.84 -1.76398 -4.257 0
M  V30 12477 H 1132.16 -1.44672 -3.9046 0
M  V30 12478 H 1134.76 0.984434 -5.2556 0
M  V30 12479 H 1135.1 1.80388 -3.75188 0
M  V30 12480 H 1135.63 0.119982 -3.97619 0
M  V30 12481 H 1132.37 -1.75369 -6.31606 0
M  V30 12482 H 1131.89 -0.0709793 -5.99758 0
M  V30 12483 H 1133.57 -0.451459 -6.45423 0
M  V30 12484 N 1133.7 1.56767 -0.161869 0
M  V30 12485 C 1134.63 2.20511 0.767918 0
M  V30 12486 C 1135.61 1.15783 1.24612 0
M  V30 12487 O 1136.8 1.44179 1.301 0
M  V30 12488 C 1133.93 2.83844 2.00125 0
M  V30 12489 C 1132.88 3.94528 1.65926 0
M  V30 12490 C 1132.21 4.44866 2.96646 0
M  V30 12491 C 1133.51 5.14583 0.894497 0
M  V30 12492 H 1135.2 2.98464 0.236607 0
M  V30 12493 H 1132.75 1.43561 0.112363 0
M  V30 12494 H 1134.7 3.27109 2.65664 0
M  V30 12495 H 1133.43 2.03246 2.55654 0
M  V30 12496 H 1132.08 3.51904 1.02759 0
M  V30 12497 H 1131.73 3.61071 3.50196 0
M  V30 12498 H 1131.43 5.19531 2.74521 0
M  V30 12499 H 1132.96 4.90812 3.6323 0
M  V30 12500 H 1134.37 5.54601 1.45228 0
M  V30 12501 H 1132.77 5.95105 0.772636 0
M  V30 12502 H 1133.84 4.84773 -0.110986 0
M  V30 12503 N 1135.18 -0.111886 1.57202 0
M  V30 12504 C 1136.41 -0.836317 1.89791 0
M  V30 12505 C 1136.83 -1.72304 0.754513 0
M  V30 12506 O 1136.19 -1.78889 -0.294672 0
M  V30 12507 C 1136.24 -1.63971 3.21164 0
M  V30 12508 O 1135.34 -2.74726 3.0757 0
M  V30 12509 H 1134.68 -0.230833 0.622585 0
M  V30 12510 H 1137.21 -0.0921478 2.04392 0
M  V30 12511 H 1137.22 -2.02746 3.54059 0
M  V30 12512 H 1135.9 -0.98882 4.03974 0
M  V30 12513 H 1134.47 -2.39101 2.86156 0
M  V30 12514 N 1136.66 -1.52894 -0.382264 0
M  V30 12515 C 1137.57 -1.81084 -1.4915 0
M  V30 12516 C 1138.58 -0.698045 -1.59384 0
M  V30 12517 O 1139.76 -0.98635 -1.75594 0
M  V30 12518 C 1136.83 -1.97987 -2.84608 0
M  V30 12519 C 1135.89 -3.219 -2.8404 0
M  V30 12520 C 1135.12 -3.37988 -4.13037 0
M  V30 12521 O 1135.34 -2.58733 -5.08344 0
M  V30 12522 O 1134.28 -4.31273 -4.19866 0
M  V30 12523 H 1138.1 -2.75289 -1.28257 0
M  V30 12524 H 1135.69 -1.38068 -0.57076 0
M  V30 12525 H 1137.57 -2.10773 -3.64901 0
M  V30 12526 H 1136.24 -1.06972 -3.05514 0
M  V30 12527 H 1135.15 -3.14551 -2.02505 0
M  V30 12528 H 1136.48 -4.12783 -2.68087 0
M  V30 12529 N 1138.14 0.641106 -1.43971 0
M  V30 12530 C 1139.07 1.76489 -1.52885 0
M  V30 12531 C 1140.05 1.65742 -0.38258 0
M  V30 12532 O 1141.23 1.84653 -0.601397 0
M  V30 12533 C 1138.36 3.14977 -1.4631 0
M  V30 12534 C 1137.32 3.40502 -2.59311 0
M  V30 12535 C 1136.64 4.78916 -2.37789 0
M  V30 12536 C 1137.94 3.34048 -4.01509 0
M  V30 12537 H 1139.64 1.69286 -2.46946 0
M  V30 12538 H 1137.18 0.813015 -1.18853 0
M  V30 12539 H 1139.14 3.9336 -1.51149 0
M  V30 12540 H 1137.86 3.2294 -0.487599 0
M  V30 12541 H 1136.52 2.64495 -2.53846 0
M  V30 12542 H 1136.17 4.8357 -1.38454 0
M  V30 12543 H 1135.87 4.96954 -3.13545 0
M  V30 12544 H 1137.39 5.59541 -2.4443 0
M  V30 12545 H 1138.81 4.0235 -4.08396 0
M  V30 12546 H 1137.2 3.63622 -4.77388 0
M  V30 12547 H 1138.27 2.32022 -4.25786 0
M  V30 12548 N 1139.62 1.30703 0.880598 0
M  V30 12549 C 1140.85 1.22536 1.66339 0
M  V30 12550 C 1141.25 -0.213507 1.87991 0
M  V30 12551 O 1140.6 -1.15236 1.43061 0
M  V30 12552 C 1140.66 1.88798 3.05934 0
M  V30 12553 C 1140.32 3.38131 3.07435 0
M  V30 12554 C 1141.32 4.34053 2.86171 0
M  V30 12555 C 1139 3.79651 3.28893 0
M  V30 12556 C 1141 5.69469 2.86328 0
M  V30 12557 C 1138.69 5.15182 3.2868 0
M  V30 12558 C 1139.68 6.09902 3.07423 0
M  V30 12559 O 1139.37 7.42957 3.07034 0
M  V30 12560 H 1139.1 0.425018 0.525677 0
M  V30 12561 H 1141.66 1.72939 1.1082 0
M  V30 12562 H 1139.89 1.3293 3.63134 0
M  V30 12563 H 1141.58 1.74691 3.66385 0
M  V30 12564 H 1142.34 4.03307 2.69385 0
M  V30 12565 H 1138.22 3.06365 3.44473 0
M  V30 12566 H 1141.77 6.43375 2.69655 0
M  V30 12567 H 1137.66 5.45567 3.45002 0
M  V30 12568 H 1138.43 7.52 3.23169 0
M  V30 12569 N 1141.09 -1.09351 1.1349 0
M  V30 12570 C 1142.34 -1.81812 0.898452 0
M  V30 12571 C 1142.67 -1.85525 -0.573959 0
M  V30 12572 O 1141.95 -1.32403 -1.42477 0
M  V30 12573 C 1142.23 -3.27921 1.48794 0
M  V30 12574 C 1142.08 -3.32476 3.02952 0
M  V30 12575 C 1143.4 -4.24625 1.15678 0
M  V30 12576 H 1140.52 -0.660074 0.327829 0
M  V30 12577 H 1143.16 -1.28091 1.40331 0
M  V30 12578 H 1141.31 -3.738 1.05858 0
M  V30 12579 H 1142.99 -2.94994 3.54649 0
M  V30 12580 H 1141.23 -2.72037 3.37903 0
M  V30 12581 H 1141.9 -4.35409 3.39298 0
M  V30 12582 H 1144.38 -3.87036 1.52781 0
M  V30 12583 H 1143.25 -5.25194 1.59571 0
M  V30 12584 H 1143.51 -4.42044 0.0705933 0
M  V30 12585 N 1142.57 -0.928524 -1.27343 0
M  V30 12586 C 1143.48 -0.433901 -2.30553 0
M  V30 12587 C 1144.5 0.485832 -1.6708 0
M  V30 12588 O 1145.67 0.36844 -1.98001 0
M  V30 12589 C 1142.74 0.304617 -3.45359 0
M  V30 12590 C 1141.8 -0.650131 -4.24349 0
M  V30 12591 C 1141.03 0.0532372 -5.33673 0
M  V30 12592 O 1141.26 1.27246 -5.56026 0
M  V30 12593 O 1140.19 -0.619009 -5.98709 0
M  V30 12594 H 1144.02 -1.2909 -2.74899 0
M  V30 12595 H 1141.6 -0.693903 -1.32308 0
M  V30 12596 H 1143.48 0.721137 -4.15184 0
M  V30 12597 H 1142.16 1.13721 -3.03066 0
M  V30 12598 H 1141.06 -1.11635 -3.57055 0
M  V30 12599 H 1142.4 -1.44996 -4.70358 0
M  V30 12600 N 1144.05 1.41491 -0.694123 0
M  V30 12601 C 1145 2.30783 -0.0278824 0
M  V30 12602 C 1145.97 1.47028 0.772783 0
M  V30 12603 O 1147.15 1.75819 0.74111 0
M  V30 12604 C 1144.29 3.33061 0.903579 0
M  V30 12605 C 1143.4 4.31896 0.0946823 0
M  V30 12606 C 1142.54 5.21243 1.02365 0
M  V30 12607 C 1141.58 6.11748 0.207578 0
M  V30 12608 N 1140.72 6.93583 1.09028 0
M  V30 12609 H 1145.56 2.87197 -0.795092 0
M  V30 12610 H 1143.09 1.41449 -0.403806 0
M  V30 12611 H 1145.05 3.90907 1.45765 0
M  V30 12612 H 1143.68 2.782 1.6372 0
M  V30 12613 H 1142.73 3.76009 -0.576289 0
M  V30 12614 H 1144.04 4.95889 -0.538059 0
M  V30 12615 H 1143.2 5.83917 1.647 0
M  V30 12616 H 1141.94 4.57473 1.69025 0
M  V30 12617 H 1140.94 5.48125 -0.428854 0
M  V30 12618 H 1142.17 6.77573 -0.455206 0
M  V30 12619 H 1140.11 6.32422 1.74292 0
M  V30 12620 H 1140.03 7.54257 0.513073 0
M  V30 12621 H 1141.3 7.60726 1.70048 0
M  V30 12622 N 1145.53 0.438773 1.51369 0
M  V30 12623 C 1146.77 -0.126367 2.04009 0
M  V30 12624 C 1147.13 -1.39837 1.31566 0
M  V30 12625 O 1148.33 -2.04384 1.74587 0
M  V30 12626 C 1146.6 -0.338531 3.55793 0
M  V30 12627 S 1148.16 -0.866869 4.30152 0
M  V30 12628 H 1144.98 -0.0311763 0.710316 0
M  V30 12629 H 1147.58 0.598507 1.86113 0
M  V30 12630 H 1146.29 0.593555 4.06085 0
M  V30 12631 H 1145.82 -1.09044 3.77985 0
M  V30 12632 H 1147.83 -2.14427 4.47477 0
M  V30 12633 N 1147.01 -1.56678 0.170181 0
M  V30 12634 C 1147.95 -2.17909 -0.760556 0
M  V30 12635 C 1148.92 -1.11875 -1.22773 0
M  V30 12636 O 1150.11 -1.40021 -1.2961 0
M  V30 12637 C 1147.25 -2.82305 -1.9849 0
M  V30 12638 C 1146.36 -4.02796 -1.5614 0
M  V30 12639 C 1145.5 -4.55121 -2.73932 0
M  V30 12640 C 1144.53 -5.68025 -2.28067 0
M  V30 12641 N 1143.67 -6.14865 -3.38947 0
M  V30 12642 H 1148.51 -2.97098 -0.231629 0
M  V30 12643 H 1146.05 -1.46742 -0.102602 0
M  V30 12644 H 1148.01 -3.17797 -2.70298 0
M  V30 12645 H 1146.64 -2.05721 -2.48755 0
M  V30 12646 H 1145.69 -3.73131 -0.740097 0
M  V30 12647 H 1147 -4.84526 -1.18472 0
M  V30 12648 H 1146.15 -4.92789 -3.53898 0
M  V30 12649 H 1144.89 -3.72445 -3.14858 0
M  V30 12650 H 1143.9 -5.2991 -1.46546 0
M  V30 12651 H 1145.12 -6.52501 -1.88199 0
M  V30 12652 H 1143.07 -5.35119 -3.79452 0
M  V30 12653 H 1142.99 -6.91582 -3.05369 0
M  V30 12654 H 1144.25 -6.57183 -4.19203 0
M  V30 12655 N 1148.48 0.103547 -1.57259 0
M  V30 12656 C 1149.71 0.821158 -1.8958 0
M  V30 12657 C 1150.12 1.73213 -0.761184 0
M  V30 12658 O 1149.46 1.81611 0.27625 0
M  V30 12659 C 1149.53 1.69428 -3.17072 0
M  V30 12660 C 1149.19 0.956014 -4.46889 0
M  V30 12661 C 1150.19 0.289694 -5.19092 0
M  V30 12662 C 1147.87 0.932602 -4.93566 0
M  V30 12663 C 1149.87 -0.390164 -6.36205 0
M  V30 12664 C 1147.55 0.248954 -6.10593 0
M  V30 12665 C 1148.55 -0.411259 -6.81761 0
M  V30 12666 O 1148.24 -1.08396 -7.96559 0
M  V30 12667 H 1147.97 0.240508 -0.631769 0
M  V30 12668 H 1150.53 0.0877817 -2.05212 0
M  V30 12669 H 1148.76 2.46968 -2.97563 0
M  V30 12670 H 1150.44 2.28769 -3.3529 0
M  V30 12671 H 1151.21 0.299297 -4.84076 0
M  V30 12672 H 1147.09 1.43592 -4.38067 0
M  V30 12673 H 1150.63 -0.906057 -6.91691 0
M  V30 12674 H 1146.53 0.237168 -6.45064 0
M  V30 12675 H 1147.3 -0.990002 -8.12491 0
M  V30 12676 N 1149.96 1.53094 0.37415 0
M  V30 12677 C 1150.89 1.73697 1.48002 0
M  V30 12678 C 1151.87 0.585109 1.51708 0
M  V30 12679 O 1153.06 0.816688 1.6989 0
M  V30 12680 C 1150.18 1.80802 2.86406 0
M  V30 12681 C 1149.23 3.02696 3.00462 0
M  V30 12682 S 1150.06 4.62386 2.70109 0
M  V30 12683 C 1151.22 4.72328 4.10679 0
M  V30 12684 H 1151.45 2.67223 1.30303 0
M  V30 12685 H 1148.98 1.43574 0.567957 0
M  V30 12686 H 1150.94 1.85581 3.66155 0
M  V30 12687 H 1149.6 0.883425 3.01421 0
M  V30 12688 H 1148.8 3.04252 4.01804 0
M  V30 12689 H 1148.4 2.95985 2.28624 0
M  V30 12690 H 1150.69 4.51856 5.04809 0
M  V30 12691 H 1151.63 5.7437 4.14131 0
M  V30 12692 H 1152.04 4.01035 3.9728 0
M  V30 12693 N 1151.44 -0.633461 1.44309 0
M  V30 12694 C 1152.72 -1.3917 1.37444 0
M  V30 12695 C 1153.1 -2.11076 0.0319994 0
M  V30 12696 O 1152.44 -2.06164 -0.98533 0
M  V30 12697 C 1152.65 -2.36005 2.57104 0
M  V30 12698 C 1154 -2.99407 3.01065 0
M  V30 12699 O 1155.03 -2.46331 2.57292 0
M  V30 12700 O 1153.89 -3.95686 3.76954 0
M  V30 12701 H 1150.98 -0.622746 0.544166 0
M  V30 12702 H 1153.53 -0.658712 1.56394 0
M  V30 12703 H 1152.3 -1.81955 3.46422 0
M  V30 12704 H 1151.92 -3.16725 2.40356 0
M  V30 12705 N 1152.92 -1.31168 -0.873655 0
M  V30 12706 C 1154.14 -1.23728 -1.66452 0
M  V30 12707 C 1154.57 0.194869 -1.87088 0
M  V30 12708 O 1153.93 1.1397 -1.40998 0
M  V30 12709 C 1153.97 -1.98285 -3.0119 0
M  V30 12710 O 1153.08 -1.31767 -3.90783 0
M  V30 12711 H 1152.42 -0.427362 -0.508191 0
M  V30 12712 H 1154.95 -1.73176 -1.08955 0
M  V30 12713 H 1154.96 -2.0774 -3.51153 0
M  V30 12714 H 1153.63 -3.02437 -2.8549 0
M  V30 12715 H 1152.21 -1.3074 -3.4923 0
M  V30 12716 N 1154.4 1.08748 -1.14068 0
M  V30 12717 C 1155.34 2.15573 -0.824425 0
M  V30 12718 C 1156.31 1.64683 0.216522 0
M  V30 12719 O 1157.5 1.90601 0.0872193 0
M  V30 12720 C 1154.64 3.43756 -0.30423 0
M  V30 12721 C 1153.75 4.08512 -1.40506 0
M  V30 12722 C 1152.89 5.24477 -0.842479 0
M  V30 12723 C 1151.93 5.81167 -1.92123 0
M  V30 12724 N 1151.06 6.88483 -1.37608 0
M  V30 12725 H 1155.9 2.41968 -1.73941 0
M  V30 12726 H 1153.44 1.18751 -0.868143 0
M  V30 12727 H 1155.4 4.17197 0.0155546 0
M  V30 12728 H 1154.03 3.17658 0.573868 0
M  V30 12729 H 1153.08 3.32866 -1.84131 0
M  V30 12730 H 1154.39 4.46669 -2.2201 0
M  V30 12731 H 1153.55 6.04842 -0.474389 0
M  V30 12732 H 1152.28 4.877 0.00355212 0
M  V30 12733 H 1151.29 4.99458 -2.29831 0
M  V30 12734 H 1152.51 6.20003 -2.77079 0
M  V30 12735 H 1150.46 6.53672 -0.552168 0
M  V30 12736 H 1150.38 7.25446 -2.12752 0
M  V30 12737 H 1151.65 7.72588 -1.03578 0
M  V30 12738 N 1155.87 0.935264 1.26849 0
M  V30 12739 C 1156.81 0.384563 2.24936 0
M  V30 12740 C 1157.79 -0.523311 1.53949 0
M  V30 12741 O 1158.97 -0.462103 1.82748 0
M  V30 12742 C 1156.1 -0.448043 3.35723 0
M  V30 12743 C 1155.14 0.397466 4.24644 0
M  V30 12744 S 1155.98 1.81773 5.03705 0
M  V30 12745 C 1157.13 0.99302 6.17972 0
M  V30 12746 H 1157.36 1.21588 2.713 0
M  V30 12747 H 1154.9 0.737966 1.35622 0
M  V30 12748 H 1156.86 -0.922541 3.99999 0
M  V30 12749 H 1155.52 -1.25397 2.87983 0
M  V30 12750 H 1154.71 -0.240176 5.03427 0
M  V30 12751 H 1154.31 0.806423 3.65202 0
M  V30 12752 H 1156.6 0.232526 6.77101 0
M  V30 12753 H 1157.55 1.75412 6.86029 0
M  V30 12754 H 1157.95 0.531692 5.6199 0
M  V30 12755 N 1157.35 -1.41121 0.701616 0
M  V30 12756 C 1158.3 -2.30765 0.040121 0
M  V30 12757 C 1159.27 -1.47436 -0.764975 0
M  V30 12758 O 1160.45 -1.76209 -0.731775 0
M  V30 12759 C 1157.59 -3.33535 -0.885903 0
M  V30 12760 C 1156.71 -4.3194 -0.0717765 0
M  V30 12761 C 1155.84 -5.21779 -0.995996 0
M  V30 12762 C 1154.88 -6.11849 -0.175133 0
M  V30 12763 N 1154.02 -6.94151 -1.05348 0
M  V30 12764 H 1158.86 -2.86772 0.810312 0
M  V30 12765 H 1156.4 -1.41233 0.411301 0
M  V30 12766 H 1158.35 -3.91675 -1.4369 0
M  V30 12767 H 1156.98 -2.79065 -1.62243 0
M  V30 12768 H 1156.04 -3.75698 0.596221 0
M  V30 12769 H 1157.35 -4.95597 0.56435 0
M  V30 12770 H 1156.5 -5.84782 -1.61601 0
M  V30 12771 H 1155.24 -4.58363 -1.66597 0
M  V30 12772 H 1154.25 -5.4789 0.457916 0
M  V30 12773 H 1155.47 -6.77322 0.491133 0
M  V30 12774 H 1153.42 -6.33338 -1.70936 0
M  V30 12775 H 1153.33 -7.54518 -0.473065 0
M  V30 12776 H 1154.6 -7.61617 -1.66012 0
M  V30 12777 N 1158.83 -0.446794 -1.51134 0
M  V30 12778 C 1160.24 0.0141132 -1.86695 0
M  V30 12779 C 1160.59 1.41095 -1.36333 0
M  V30 12780 O 1159.72 2.04139 -0.718068 0
M  V30 12781 C 1160.31 0.0323866 -3.38785 0
M  V30 12782 C 1158.87 0.437737 -3.73846 0
M  V30 12783 C 1158.02 -0.363436 -2.74908 0
M  V30 12784 H 1160.97 -0.66221 -1.44224 0
M  V30 12785 H 1160.99 0.839865 -3.71115 0
M  V30 12786 H 1160.5 -0.984374 -3.75409 0
M  V30 12787 H 1158.6 1.45975 -3.42815 0
M  V30 12788 H 1158.72 0.155964 -4.78846 0
M  V30 12789 H 1157.08 0.179566 -2.54066 0
M  V30 12790 H 1157.86 -1.37925 -3.14375 0
M  V30 12791 N 1160.31 1.56586 -0.178487 0
M  V30 12792 C 1161.24 2.21313 0.744486 0
M  V30 12793 C 1162.22 1.17098 1.23377 0
M  V30 12794 O 1163.4 1.45551 1.28563 0
M  V30 12795 C 1160.53 2.8595 1.97103 0
M  V30 12796 C 1159.49 3.96266 1.61732 0
M  V30 12797 C 1158.81 4.47987 2.91911 0
M  V30 12798 C 1160.11 5.15503 0.839868 0
M  V30 12799 H 1161.81 2.98698 0.204938 0
M  V30 12800 H 1159.35 1.43672 0.0971306 0
M  V30 12801 H 1161.31 3.29909 2.6218 0
M  V30 12802 H 1160.03 2.05946 2.53484 0
M  V30 12803 H 1158.69 3.52974 0.990208 0
M  V30 12804 H 1158.34 3.64765 3.46346 0
M  V30 12805 H 1158.04 5.22413 2.68995 0
M  V30 12806 H 1159.56 4.94637 3.58004 0
M  V30 12807 H 1160.98 5.5611 1.39337 0
M  V30 12808 H 1159.37 5.95891 0.709473 0
M  V30 12809 H 1160.44 4.84628 -0.162396 0
M  V30 12810 N 1161.79 -0.095206 1.57312 0
M  V30 12811 C 1163.03 -0.794786 1.87229 0
M  V30 12812 C 1163.39 -1.7635 0.769305 0
M  V30 12813 O 1162.68 -1.9023 -0.228704 0
M  V30 12814 C 1162.87 -1.56244 3.21438 0
M  V30 12815 C 1162.7 -0.669563 4.44687 0
M  V30 12816 C 1161.47 -0.315338 5.04315 0
M  V30 12817 C 1163.67 0.0234175 5.14295 0
M  V30 12818 N 1161.65 0.585709 6.111 0
M  V30 12819 C 1163.02 0.782538 6.15042 0
M  V30 12820 C 1165.08 0.0973496 4.97805 0
M  V30 12821 C 1163.78 1.60868 7.01081 0
M  V30 12822 C 1165.81 0.910394 5.84351 0
M  V30 12823 C 1165.17 1.65763 6.84618 0
M  V30 12824 H 1161.27 -0.267005 0.735005 0
M  V30 12825 H 1163.85 -0.0573245 1.94616 0
M  V30 12826 H 1162.02 -2.27077 3.15104 0
M  V30 12827 H 1163.76 -2.2092 3.39082 0
M  V30 12828 H 1160.51 -0.662971 4.68937 0
M  V30 12829 H 1160.94 1.02878 6.69138 0
M  V30 12830 H 1165.58 -0.46602 4.20224 0
M  V30 12831 H 1163.3 2.18312 7.78052 0
M  V30 12832 H 1166.88 0.97027 5.73652 0
M  V30 12833 H 1165.76 2.27663 7.50426 0
M  V30 12834 N 1163.26 -1.53291 -0.366026 0
M  V30 12835 C 1164.19 -1.82675 -1.45437 0
M  V30 12836 C 1165.18 -0.680227 -1.55907 0
M  V30 12837 O 1166.36 -0.930032 -1.70482 0
M  V30 12838 C 1163.49 -2.01626 -2.8278 0
M  V30 12839 C 1162.44 -3.17391 -2.87135 0
M  V30 12840 C 1161.77 -3.21634 -4.27148 0
M  V30 12841 C 1163.07 -4.5599 -2.54697 0
M  V30 12842 H 1164.76 -2.73818 -1.21096 0
M  V30 12843 H 1162.31 -1.31754 -0.581108 0
M  V30 12844 H 1164.26 -2.20765 -3.58944 0
M  V30 12845 H 1162.99 -1.07193 -3.08508 0
M  V30 12846 H 1161.65 -2.98071 -2.13422 0
M  V30 12847 H 1161.29 -2.2484 -4.49951 0
M  V30 12848 H 1160.99 -3.99414 -4.30978 0
M  V30 12849 H 1162.52 -3.42957 -5.05186 0
M  V30 12850 H 1163.93 -4.75294 -3.20575 0
M  V30 12851 H 1162.33 -5.36008 -2.69844 0
M  V30 12852 H 1163.4 -4.61133 -1.49949 0
M  V30 12853 N 1164.74 0.6258 -1.44643 0
M  V30 12854 C 1165.99 1.3873 -1.47925 0
M  V30 12855 C 1166.32 1.93868 -0.113469 0
M  V30 12856 O 1165.6 1.73976 0.869639 0
M  V30 12857 C 1165.88 2.54867 -2.54391 0
M  V30 12858 C 1165.73 2.05044 -4.00346 0
M  V30 12859 C 1167.05 3.57043 -2.57309 0
M  V30 12860 H 1164.17 0.503087 -0.538584 0
M  V30 12861 H 1166.81 0.707102 -1.76352 0
M  V30 12862 H 1164.96 3.12894 -2.30281 0
M  V30 12863 H 1166.63 1.51807 -4.35606 0
M  V30 12864 H 1164.88 1.36185 -4.11869 0
M  V30 12865 H 1165.55 2.88681 -4.70497 0
M  V30 12866 H 1168.02 3.08826 -2.78865 0
M  V30 12867 H 1166.9 4.35818 -3.33698 0
M  V30 12868 H 1167.16 4.11464 -1.61708 0
M  V30 12869 N 1166.22 1.31629 0.866686 0
M  V30 12870 C 1167.45 1.24293 1.6503 0
M  V30 12871 C 1167.86 -0.193556 1.88207 0
M  V30 12872 O 1167.2 -1.13712 1.44275 0
M  V30 12873 C 1167.26 1.92032 3.03914 0
M  V30 12874 C 1166.93 3.41373 3.03831 0
M  V30 12875 C 1167.92 4.37064 2.81551 0
M  V30 12876 C 1165.61 3.83118 3.24848 0
M  V30 12877 C 1167.6 5.72474 2.80272 0
M  V30 12878 C 1165.29 5.18639 3.23197 0
M  V30 12879 C 1166.29 6.13128 3.00936 0
M  V30 12880 O 1165.98 7.46172 2.99137 0
M  V30 12881 H 1165.71 0.430569 0.521139 0
M  V30 12882 H 1168.26 1.74105 1.0898 0
M  V30 12883 H 1166.49 1.36774 3.61704 0
M  V30 12884 H 1168.18 1.78567 3.64512 0
M  V30 12885 H 1168.95 4.06142 2.65093 0
M  V30 12886 H 1164.83 3.10001 3.41204 0
M  V30 12887 H 1168.37 6.46199 2.62816 0
M  V30 12888 H 1164.27 5.49196 3.39197 0
M  V30 12889 H 1165.04 7.55385 3.15175 0
M  V30 12890 N 1167.7 -1.08142 1.14644 0
M  V30 12891 C 1168.65 -2.17229 0.831513 0
M  V30 12892 C 1169.64 -1.68311 -0.19173 0
M  V30 12893 O 1170.85 -1.79937 -0.0475596 0
M  V30 12894 H 1167.22 -0.708807 0.25119 0
M  V30 12895 H 1169.19 -2.41014 1.75939 0
M  V30 12896 C 1167.94 -3.46146 0.328347 0
M  V30 12897 H 1167.27 -3.84166 1.10708 0
M  V30 12898 H 1168.71 -4.23747 0.146568 0
M  V30 12899 C 1167.16 -3.2327 -0.948594 0
M  V30 12900 O 1167.69 -3.47111 -2.0218 0
M  V30 12901 N 1165.9 -2.76799 -0.884909 0
M  V30 12902 H 1165.45 -2.57597 -0.011399 0
M  V30 12903 H 1165.41 -2.61871 -1.73985 0
M  V30 12904 N 1169.18 -0.941978 -1.26351 0
M  V30 12905 C 1170.13 -0.443011 -2.28342 0
M  V30 12906 C 1171.12 0.48013 -1.62453 0
M  V30 12907 O 1172.33 0.358255 -1.76399 0
M  V30 12908 H 1168.7 -0.124728 -0.741584 0
M  V30 12909 H 1170.67 -1.31573 -2.67827 0
M  V30 12910 C 1169.42 0.275675 -3.46605 0
M  V30 12911 H 1168.74 -0.425504 -3.97529 0
M  V30 12912 H 1170.18 0.589012 -4.19889 0
M  V30 12913 C 1168.64 1.49376 -3.01974 0
M  V30 12914 O 1169.17 2.59203 -3.06883 0
M  V30 12915 N 1167.38 1.35061 -2.57307 0
M  V30 12916 H 1166.93 0.457045 -2.53513 0
M  V30 12917 H 1166.88 2.16681 -2.27809 0
M  V30 12918 N 1170.66 1.40747 -0.709091 0
M  V30 12919 C 1171.6 2.30741 -0.0523584 0
M  V30 12920 C 1172.57 1.4784 0.757145 0
M  V30 12921 O 1173.76 1.76595 0.72242 0
M  V30 12922 C 1170.9 3.34 0.868203 0
M  V30 12923 C 1170.01 4.31972 0.0488686 0
M  V30 12924 C 1169.15 5.223 0.968311 0
M  V30 12925 C 1168.18 6.11934 0.142682 0
M  V30 12926 N 1167.32 6.947 1.01665 0
M  V30 12927 H 1172.16 2.86338 -0.825509 0
M  V30 12928 H 1169.7 1.41013 -0.418785 0
M  V30 12929 H 1171.66 3.92431 1.41611 0
M  V30 12930 H 1170.29 2.79921 1.6076 0
M  V30 12931 H 1169.34 3.75377 -0.616137 0
M  V30 12932 H 1170.65 4.95291 -0.590625 0
M  V30 12933 H 1169.8 5.85631 1.58498 0
M  V30 12934 H 1168.54 4.5924 1.64164 0
M  V30 12935 H 1167.55 5.47639 -0.486965 0
M  V30 12936 H 1168.77 6.77052 -0.527046 0
M  V30 12937 H 1166.72 6.34236 1.67575 0
M  V30 12938 H 1166.64 7.54759 0.433045 0
M  V30 12939 H 1167.9 7.62487 1.6197 0
M  V30 12940 N 1172.13 0.454803 1.50895 0
M  V30 12941 C 1173.38 -0.105927 2.02523 0
M  V30 12942 C 1173.71 -1.40825 1.33724 0
M  V30 12943 O 1172.99 -1.89038 0.457683 0
M  V30 12944 C 1173.27 -0.306635 3.58792 0
M  V30 12945 C 1173.12 1.01556 4.38185 0
M  V30 12946 C 1174.44 -1.06858 4.2693 0
M  V30 12947 H 1171.56 -0.0370232 0.736069 0
M  V30 12948 H 1174.2 0.597215 1.8037 0
M  V30 12949 H 1172.35 -0.905563 3.77799 0
M  V30 12950 H 1174.03 1.64981 4.30789 0
M  V30 12951 H 1172.27 1.61608 4.02574 0
M  V30 12952 H 1172.94 0.828959 5.4574 0
M  V30 12953 H 1175.42 -0.561086 4.123 0
M  V30 12954 H 1174.29 -1.1778 5.36115 0
M  V30 12955 H 1174.55 -2.10111 3.8898 0
M  V30 12956 N 1173.61 -1.56489 0.186789 0
M  V30 12957 C 1174.86 -1.97341 -0.454158 0
M  V30 12958 C 1175.19 -1.07337 -1.622 0
M  V30 12959 O 1174.44 -0.1107 -1.95387 0
M  V30 12960 C 1174.74 -3.44145 -0.964315 0
M  V30 12961 C 1174.41 -4.50812 0.0892734 0
M  V30 12962 C 1173.07 -4.79707 0.378794 0
M  V30 12963 C 1175.42 -5.14968 0.8036 0
M  V30 12964 C 1172.75 -5.70051 1.38776 0
M  V30 12965 C 1175.1 -6.06402 1.80166 0
M  V30 12966 C 1173.76 -6.33657 2.09847 0
M  V30 12967 H 1173.03 -0.722124 -0.166188 0
M  V30 12968 H 1175.68 -1.89412 0.282008 0
M  V30 12969 H 1173.99 -3.49103 -1.7786 0
M  V30 12970 H 1175.68 -3.73104 -1.4695 0
M  V30 12971 H 1172.27 -4.28349 -0.146552 0
M  V30 12972 H 1176.46 -4.92743 0.593147 0
M  V30 12973 H 1171.71 -5.89445 1.62373 0
M  V30 12974 H 1175.89 -6.55176 2.36045 0
M  V30 12975 H 1173.51 -7.03462 2.88175 0
M  V30 12976 N 1175.09 0.086862 -1.5736 0
M  V30 12977 C 1176.34 0.787281 -1.86135 0
M  V30 12978 C 1176.66 1.78866 -0.776667 0
M  V30 12979 O 1175.93 1.94915 0.19625 0
M  V30 12980 H 1174.51 0.293744 -0.686821 0
M  V30 12981 H 1177.17 0.0665326 -1.94786 0
M  V30 12982 H 1176.27 1.3128 -2.83147 0
M  V30 12983 N 1176.57 1.53483 0.357892 0
M  V30 12984 C 1177.48 1.83434 1.4625 0
M  V30 12985 C 1178.49 0.723313 1.58254 0
M  V30 12986 O 1179.67 1.01416 1.74002 0
M  V30 12987 C 1176.73 2.0249 2.81423 0
M  V30 12988 C 1175.8 3.26378 2.78883 0
M  V30 12989 C 1175.03 3.44516 4.07608 0
M  V30 12990 O 1175.25 2.66787 5.04163 0
M  V30 12991 O 1174.19 4.37898 4.12952 0
M  V30 12992 H 1178.01 2.77294 1.23861 0
M  V30 12993 H 1175.6 1.38958 0.548722 0
M  V30 12994 H 1177.48 2.16552 3.61501 0
M  V30 12995 H 1176.15 1.11819 3.03773 0
M  V30 12996 H 1175.06 3.17733 1.97475 0
M  V30 12997 H 1176.39 4.16996 2.61486 0
M  V30 12998 N 1178.05 -0.61812 1.44973 0
M  V30 12999 C 1179.32 -1.37705 1.38913 0
M  V30 13000 C 1179.7 -2.1103 0.054385 0
M  V30 13001 O 1179.05 -2.07197 -0.963409 0
M  V30 13002 C 1179.26 -2.33265 2.59593 0
M  V30 13003 C 1180.61 -2.96197 3.04224 0
M  V30 13004 O 1181.63 -2.43589 2.59891 0
M  V30 13005 O 1180.49 -3.91666 3.8113 0
M  V30 13006 H 1177.59 -0.61694 0.55074 0
M  V30 13007 H 1180.13 -0.642088 1.57084 0
M  V30 13008 H 1178.9 -1.78271 3.48332 0
M  V30 13009 H 1178.53 -3.14158 2.43702 0
M  V30 13010 N 1179.52 -1.32087 -0.859693 0
M  V30 13011 C 1180.75 -1.25486 -1.6513 0
M  V30 13012 C 1181.17 0.175015 -1.87284 0
M  V30 13013 O 1180.53 1.12468 -1.42199 0
M  V30 13014 C 1180.58 -2.01469 -2.9907 0
M  V30 13015 O 1179.68 -1.35904 -3.89363 0
M  V30 13016 H 1179.02 -0.432728 -0.503629 0
M  V30 13017 H 1181.55 -1.74322 -1.07112 0
M  V30 13018 H 1181.56 -2.11452 -3.4893 0
M  V30 13019 H 1180.24 -3.05448 -2.82266 0
M  V30 13020 H 1178.82 -1.34437 -3.47823 0
M  V30 13021 N 1181 1.07532 -1.15215 0
M  V30 13022 C 1182.25 1.8036 -0.927263 0
M  V30 13023 C 1182.58 1.86414 0.544371 0
M  V30 13024 O 1181.86 1.34653 1.40353 0
M  V30 13025 C 1182.14 3.25512 -1.53992 0
M  V30 13026 C 1181.99 3.27614 -3.08203 0
M  V30 13027 C 1183.31 4.22731 -1.22418 0
M  V30 13028 H 1180.43 0.654775 -0.338289 0
M  V30 13029 H 1183.07 1.25842 -1.42351 0
M  V30 13030 H 1181.22 3.72068 -1.11791 0
M  V30 13031 H 1182.89 2.89315 -3.59297 0
M  V30 13032 H 1181.14 2.66627 -3.42188 0
M  V30 13033 H 1181.81 4.29956 -3.46182 0
M  V30 13034 H 1184.28 3.84557 -1.58919 0
M  V30 13035 H 1183.16 5.22589 -1.67906 0
M  V30 13036 H 1183.42 4.41875 -0.14091 0
M  V30 13037 N 1182.48 0.948665 1.2585 0
M  V30 13038 C 1183.73 0.59905 1.93018 0
M  V30 13039 C 1184.05 -0.865813 1.74725 0
M  V30 13040 O 1183.32 -1.61602 1.10732 0
M  V30 13041 H 1181.9 0.218565 0.71431 0
M  V30 13042 H 1184.56 1.20561 1.53137 0
M  V30 13043 H 1183.66 0.823244 3.01047 0
M  V30 13044 N 1183.96 -1.40369 0.716545 0
M  V30 13045 C 1185.2 -2.01167 0.256846 0
M  V30 13046 C 1185.54 -1.56689 -1.14727 0
M  V30 13047 O 1184.81 -0.787384 -1.7785 0
M  V30 13048 C 1185.1 -3.58511 0.337963 0
M  V30 13049 C 1184.95 -4.13059 1.78052 0
M  V30 13050 C 1186.27 -4.39142 -0.290295 0
M  V30 13051 H 1183.39 -0.730877 0.0948028 0
M  V30 13052 H 1186.03 -1.66833 0.909225 0
M  V30 13053 H 1184.18 -3.87891 -0.217482 0
M  V30 13054 H 1185.85 -3.94472 2.39143 0
M  V30 13055 H 1184.09 -3.67311 2.30793 0
M  V30 13056 H 1184.76 -5.22217 1.78867 0
M  V30 13057 H 1187.24 -4.15697 0.182987 0
M  V30 13058 H 1186.12 -5.48524 -0.203097 0
M  V30 13059 H 1186.38 -4.20209 -1.37394 0
M  V30 13060 N 1185.44 -0.462799 -1.50652 0
M  V30 13061 C 1186.69 0.0966838 -2.01468 0
M  V30 13062 C 1187 1.41529 -1.35014 0
M  V30 13063 O 1188.2 2.05923 -1.76941 0
M  V30 13064 C 1186.66 0.222826 -3.5921 0
M  V30 13065 C 1186.27 -1.08686 -4.34616 0
M  V30 13066 C 1188.01 0.734711 -4.18094 0
M  V30 13067 C 1185.92 -0.924964 -5.84122 0
M  V30 13068 H 1184.85 0.0399078 -0.752943 0
M  V30 13069 H 1187.5 -0.596437 -1.73536 0
M  V30 13070 H 1185.88 0.979539 -3.83694 0
M  V30 13071 H 1187.06 -1.85388 -4.21862 0
M  V30 13072 H 1185.37 -1.52922 -3.87303 0
M  V30 13073 H 1187.97 0.872734 -5.2753 0
M  V30 13074 H 1188.31 1.72389 -3.7893 0
M  V30 13075 H 1188.84 0.0356139 -3.97784 0
M  V30 13076 H 1185.58 -1.88727 -6.27744 0
M  V30 13077 H 1185.1 -0.198181 -5.99473 0
M  V30 13078 H 1186.78 -0.588262 -6.4432 0
M  V30 13079 N 1186.91 1.56388 -0.195085 0
M  V30 13080 C 1188.16 1.9758 0.443686 0
M  V30 13081 C 1188.49 1.08196 1.61629 0
M  V30 13082 O 1187.74 0.121061 1.95325 0
M  V30 13083 C 1188.04 3.44651 0.946051 0
M  V30 13084 C 1187.71 4.50758 -0.11318 0
M  V30 13085 C 1186.37 4.79499 -0.404229 0
M  V30 13086 C 1188.72 5.14534 -0.830899 0
M  V30 13087 C 1186.05 5.69307 -1.41797 0
M  V30 13088 C 1188.4 6.05438 -1.83379 0
M  V30 13089 C 1187.07 6.32535 -2.13204 0
M  V30 13090 H 1186.34 0.722995 0.162356 0
M  V30 13091 H 1188.98 1.8926 -0.292049 0
M  V30 13092 H 1187.29 3.50042 1.76006 0
M  V30 13093 H 1188.99 3.73878 1.44969 0
M  V30 13094 H 1185.58 4.28421 0.123833 0
M  V30 13095 H 1189.76 4.92421 -0.61927 0
M  V30 13096 H 1185.02 5.88575 -1.65496 0
M  V30 13097 H 1189.19 6.53915 -2.39516 0
M  V30 13098 H 1186.82 7.01924 -2.91902 0
M  V30 13099 N 1188.39 -0.0785156 1.57404 0
M  V30 13100 C 1189.34 -1.09402 2.03224 0
M  V30 13101 C 1190.31 -1.38849 0.911596 0
M  V30 13102 O 1191.49 -1.50031 1.17878 0
M  V30 13103 C 1188.63 -2.40444 2.47549 0
M  V30 13104 C 1187.75 -2.17585 3.73203 0
M  V30 13105 C 1186.88 -3.42143 4.06339 0
M  V30 13106 C 1185.92 -3.14619 5.25054 0
M  V30 13107 N 1185.06 -4.31489 5.5386 0
M  V30 13108 H 1189.9 -0.696307 2.89751 0
M  V30 13109 H 1187.44 -0.332261 1.43298 0
M  V30 13110 H 1189.39 -3.16944 2.71298 0
M  V30 13111 H 1188.02 -2.78031 1.64009 0
M  V30 13112 H 1187.08 -1.3181 3.56834 0
M  V30 13113 H 1188.39 -1.93249 4.59844 0
M  V30 13114 H 1187.54 -4.27042 4.30953 0
M  V30 13115 H 1186.28 -3.69549 3.18253 0
M  V30 13116 H 1185.29 -2.28116 5.00243 0
M  V30 13117 H 1186.51 -2.88543 6.14752 0
M  V30 13118 H 1184.46 -4.58939 4.68734 0
M  V30 13119 H 1184.37 -4.10403 6.34906 0
M  V30 13120 H 1185.64 -5.17404 5.83021 0
M  V30 13121 N 1189.87 -1.5367 -0.349747 0
M  V30 13122 C 1190.82 -1.81914 -1.44948 0
M  V30 13123 C 1191.81 -0.689218 -1.54745 0
M  V30 13124 O 1193.02 -0.872448 -1.57443 0
M  V30 13125 H 1189.39 -0.576234 -0.483176 0
M  V30 13126 H 1191.36 -2.73932 -1.18338 0
M  V30 13127 C 1190.11 -2.04005 -2.81562 0
M  V30 13128 H 1189.44 -2.90399 -2.74788 0
M  V30 13129 H 1190.88 -2.27737 -3.57648 0
M  V30 13130 C 1189.34 -0.823748 -3.26674 0
M  V30 13131 O 1189.87 -0.0201351 -4.01695 0
M  V30 13132 N 1188.07 -0.642716 -2.83403 0
M  V30 13133 H 1187.62 -1.29783 -2.22517 0
M  V30 13134 H 1187.58 0.169654 -3.13942 0
M  V30 13135 N 1191.35 0.610423 -1.45298 0
M  V30 13136 C 1192.6 1.3668 -1.48872 0
M  V30 13137 C 1192.92 1.94562 -0.130686 0
M  V30 13138 O 1192.19 1.76996 0.839607 0
M  V30 13139 H 1190.77 0.507393 -0.548235 0
M  V30 13140 H 1193.43 0.716997 -1.81232 0
M  V30 13141 H 1192.53 2.18766 -2.22593 0
M  V30 13142 N 1192.83 1.32541 0.852676 0
M  V30 13143 C 1194.1 1.1383 1.59067 0
M  V30 13144 C 1194.48 -0.300584 2.08949 0
M  V30 13145 O 1193.83 -1.29751 1.88088 0
M  V30 13146 C 1194.04 2.16758 2.73527 0
M  V30 13147 C 1195.39 2.50194 3.43057 0
M  V30 13148 O 1196.41 2.15319 2.83754 0
M  V30 13149 O 1195.27 3.09985 4.50079 0
M  V30 13150 H 1192.37 0.439379 0.700625 0
M  V30 13151 H 1194.91 1.44078 0.896632 0
M  V30 13152 H 1193.68 3.13469 2.34207 0
M  V30 13153 H 1193.31 1.87515 3.50605 0
M  V30 13154 N 1194.3 -1.0692 1.15784 0
M  V30 13155 C 1195.58 -1.76367 0.845825 0
M  V30 13156 C 1195.96 -2.00594 -0.657672 0
M  V30 13157 O 1195.31 -1.62794 -1.60345 0
M  V30 13158 C 1195.52 -3.06913 1.66149 0
M  V30 13159 C 1196.87 -3.81181 1.87046 0
M  V30 13160 O 1197.89 -3.16737 1.62961 0
M  V30 13161 O 1196.75 -4.96936 2.27413 0
M  V30 13162 H 1193.84 -0.766095 0.311493 0
M  V30 13163 H 1196.39 -1.13246 1.26386 0
M  V30 13164 H 1195.16 -2.84924 2.68205 0
M  V30 13165 H 1194.79 -3.77767 1.24007 0
M  V30 13166 N 1195.78 -0.955326 -1.25345 0
M  V30 13167 C 1196.71 -0.494145 -2.28211 0
M  V30 13168 C 1197.69 0.459875 -1.63766 0
M  V30 13169 O 1198.88 0.358679 -1.90859 0
M  V30 13170 C 1196.01 0.228228 -3.46549 0
M  V30 13171 C 1194.96 -0.640601 -4.23179 0
M  V30 13172 C 1194.29 0.212553 -5.34277 0
M  V30 13173 C 1195.59 -1.91906 -4.85767 0
M  V30 13174 H 1197.28 -1.35391 -2.67039 0
M  V30 13175 H 1194.83 -0.652462 -1.2837 0
M  V30 13176 H 1196.78 0.561995 -4.17636 0
M  V30 13177 H 1195.51 1.12224 -3.06714 0
M  V30 13178 H 1194.16 -0.957462 -3.53876 0
M  V30 13179 H 1193.81 1.10634 -4.90682 0
M  V30 13180 H 1193.51 -0.365473 -5.86462 0
M  V30 13181 H 1195.04 0.541271 -6.08196 0
M  V30 13182 H 1196.45 -1.65165 -5.48993 0
M  V30 13183 H 1194.85 -2.44279 -5.48131 0
M  V30 13184 H 1195.92 -2.62173 -4.07914 0
M  V30 13185 N 1197.26 1.39987 -0.723979 0
M  V30 13186 C 1198.68 1.54547 -0.398403 0
M  V30 13187 C 1198.88 1.69348 1.09194 0
M  V30 13188 O 1197.93 1.68778 1.87804 0
M  V30 13189 C 1199.25 2.76929 -1.1718 0
M  V30 13190 C 1200.79 2.90754 -1.15893 0
M  V30 13191 C 1201.27 4.16059 -1.91465 0
M  V30 13192 N 1202.76 4.23076 -1.88576 0
M  V30 13193 C 1203.5 5.18957 -2.43867 0
M  V30 13194 N 1202.99 6.20695 -3.0775 0
M  V30 13195 N 1204.78 5.11095 -2.33962 0
M  V30 13196 H 1196.94 1.28626 -1.69024 0
M  V30 13197 H 1199.2 0.6226 -0.714894 0
M  V30 13198 H 1198.9 2.72298 -2.22591 0
M  V30 13199 H 1198.78 3.69279 -0.768941 0
M  V30 13200 H 1201.17 2.94884 -0.112978 0
M  V30 13201 H 1201.25 1.99498 -1.60107 0
M  V30 13202 H 1200.89 4.12691 -2.96055 0
M  V30 13203 H 1200.82 5.06339 -1.44665 0
M  V30 13204 H 1203.31 3.50195 -1.42027 0
M  V30 13205 H 1203.62 6.90296 -3.47435 0
M  V30 13206 H 1201.97 6.21114 -3.11837 0
M  V30 13207 H 1205.16 4.30546 -1.83706 0
M  V30 13208 H 1205.33 5.85644 -2.77353 0
M  V30 13209 N 1198.74 0.470782 1.50404 0
M  V30 13210 C 1199.67 -0.359838 2.26358 0
M  V30 13211 C 1200.68 -0.95735 1.31676 0
M  V30 13212 O 1201.87 -0.84581 1.57189 0
M  V30 13213 C 1198.97 -1.51864 3.02969 0
M  V30 13214 C 1198.15 -1.03397 4.25003 0
M  V30 13215 C 1197.21 -2.06679 4.83911 0
M  V30 13216 O 1196.23 -1.64754 5.44835 0
M  V30 13217 N 1197.43 -3.39484 4.70883 0
M  V30 13218 H 1200.2 0.291299 2.98281 0
M  V30 13219 H 1197.76 0.301549 1.59067 0
M  V30 13220 H 1199.75 -2.2065 3.39258 0
M  V30 13221 H 1198.32 -2.07448 2.33846 0
M  V30 13222 H 1197.54 -0.172012 3.93825 0
M  V30 13223 H 1198.83 -0.68807 5.04126 0
M  V30 13224 H 1198.23 -3.76256 4.22431 0
M  V30 13225 H 1196.78 -4.04068 5.11441 0
M  V30 13226 N 1200.22 -1.56282 0.203376 0
M  V30 13227 C 1201.49 -1.89587 -0.481256 0
M  V30 13228 C 1201.87 -1.11812 -1.79057 0
M  V30 13229 O 1201.22 -0.221759 -2.27421 0
M  V30 13230 C 1201.43 -3.42071 -0.691965 0
M  V30 13231 C 1202.78 -4.12471 -1.00761 0
M  V30 13232 O 1203.8 -3.47568 -0.779396 0
M  V30 13233 O 1202.66 -5.27194 -1.43974 0
M  V30 13234 H 1199.76 -0.787682 -0.251963 0
M  V30 13235 H 1202.3 -1.67934 0.244207 0
M  V30 13236 H 1201.08 -3.9061 0.232322 0
M  V30 13237 H 1200.7 -3.69444 -1.46958 0
M  V30 13238 N 1201.7 0.070167 -1.57444 0
M  V30 13239 C 1202.63 1.11509 -1.991 0
M  V30 13240 C 1203.61 1.37481 -0.868194 0
M  V30 13241 O 1204.79 1.50827 -1.13064 0
M  V30 13242 C 1201.92 2.45908 -2.3291 0
M  V30 13243 C 1200.96 2.36059 -3.55216 0
M  V30 13244 S 1201.8 1.75316 -5.05989 0
M  V30 13245 C 1202.95 3.11289 -5.43001 0
M  V30 13246 H 1203.19 0.760096 -2.87419 0
M  V30 13247 H 1200.72 0.278756 -1.51863 0
M  V30 13248 H 1202.68 3.23217 -2.53063 0
M  V30 13249 H 1201.34 2.78567 -1.45117 0
M  V30 13250 H 1200.53 3.35176 -3.76395 0
M  V30 13251 H 1200.13 1.66886 -3.34701 0
M  V30 13252 H 1202.42 4.07603 -5.41171 0
M  V30 13253 H 1203.37 2.94888 -6.43775 0
M  V30 13254 H 1203.78 3.11969 -4.70463 0
M  V30 13255 N 1203.17 1.53854 0.341593 0
M  V30 13256 C 1204.1 1.84966 1.42513 0
M  V30 13257 C 1205.08 0.704944 1.54805 0
M  V30 13258 O 1206.27 0.957036 1.68981 0
M  V30 13259 C 1203.4 2.06099 2.79536 0
M  V30 13260 C 1202.35 3.21919 2.82049 0
M  V30 13261 C 1201.68 3.28389 4.21977 0
M  V30 13262 C 1202.98 4.59984 2.4741 0
M  V30 13263 H 1204.67 2.7571 1.16724 0
M  V30 13264 H 1202.22 1.32662 0.560073 0
M  V30 13265 H 1204.17 2.26448 3.55386 0
M  V30 13266 H 1202.9 1.12087 3.06764 0
M  V30 13267 H 1201.56 3.01429 2.08653 0
M  V30 13268 H 1201.2 2.3197 4.46317 0
M  V30 13269 H 1200.9 4.0622 4.24569 0
M  V30 13270 H 1202.43 3.50951 4.99666 0
M  V30 13271 H 1203.84 4.80334 3.12973 0
M  V30 13272 H 1202.24 5.40233 2.61282 0
M  V30 13273 H 1203.31 4.6346 1.42594 0
M  V30 13274 N 1204.65 -0.602709 1.4562 0
M  V30 13275 C 1205.88 -1.3881 1.53426 0
M  V30 13276 C 1206.29 -1.88046 0.16851 0
M  V30 13277 O 1205.65 -1.62493 -0.830791 0
M  V30 13278 C 1205.7 -2.58927 2.52268 0
M  V30 13279 O 1205.42 -2.11735 3.83536 0
M  V30 13280 C 1206.92 -3.51728 2.69819 0
M  V30 13281 H 1204.14 -0.424744 0.519455 0
M  V30 13282 H 1206.69 -0.73459 1.90851 0
M  V30 13283 H 1204.84 -3.20309 2.17902 0
M  V30 13284 H 1205.26 -2.89814 4.37159 0
M  V30 13285 H 1206.73 -4.32542 3.42945 0
M  V30 13286 H 1207.21 -4.02383 1.76024 0
M  V30 13287 H 1207.81 -2.96196 3.05202 0
M  V30 13288 N 1206.13 -1.32992 -0.845635 0
M  V30 13289 C 1207.06 -1.25301 -1.97033 0
M  V30 13290 C 1208.04 -0.134966 -1.69564 0
M  V30 13291 O 1209.23 -0.323629 -1.91484 0
M  V30 13292 C 1206.36 -0.984551 -3.33052 0
M  V30 13293 C 1205.31 -2.06481 -3.749 0
M  V30 13294 C 1204.64 -1.6486 -5.08651 0
M  V30 13295 C 1205.94 -3.48083 -3.89404 0
M  V30 13296 H 1207.63 -2.194 -2.03725 0
M  V30 13297 H 1205.18 -1.05621 -0.978783 0
M  V30 13298 H 1207.13 -0.917269 -4.11296 0
M  V30 13299 H 1205.85 -0.00793116 -3.26599 0
M  V30 13300 H 1204.51 -2.1224 -2.98915 0
M  V30 13301 H 1204.16 -0.659183 -4.98662 0
M  V30 13302 H 1203.86 -2.37145 -5.37621 0
M  V30 13303 H 1205.38 -1.59585 -5.89377 0
M  V30 13304 H 1206.8 -3.44863 -4.57976 0
M  V30 13305 H 1205.19 -4.18796 -4.29802 0
M  V30 13306 H 1206.26 -3.87084 -2.92051 0
M  V30 13307 N 1207.61 1.06304 -1.1635 0
M  V30 13308 C 1208.54 2.13732 -0.827721 0
M  V30 13309 C 1209.55 1.61962 0.164983 0
M  V30 13310 O 1210.74 1.784 -0.0597591 0
M  V30 13311 C 1207.84 3.38239 -0.211623 0
M  V30 13312 C 1207.01 4.19325 -1.2444 0
M  V30 13313 C 1206.07 5.22193 -0.648127 0
M  V30 13314 O 1205.1 5.53755 -1.31695 0
M  V30 13315 N 1206.3 5.77742 0.565179 0
M  V30 13316 H 1209.07 2.43136 -1.75228 0
M  V30 13317 H 1206.63 1.22304 -1.06081 0
M  V30 13318 H 1208.62 4.04204 0.200306 0
M  V30 13319 H 1207.19 3.06461 0.616491 0
M  V30 13320 H 1206.41 3.49017 -1.83251 0
M  V30 13321 H 1207.7 4.70306 -1.94138 0
M  V30 13322 H 1207.1 5.54366 1.12673 0
M  V30 13323 H 1205.65 6.45284 0.919321 0
M  V30 13324 N 1209.09 0.96196 1.24836 0
M  V30 13325 C 1210.02 0.432188 2.2407 0
M  V30 13326 C 1211 -0.490539 1.55024 0
M  V30 13327 O 1212.18 -0.423236 1.83687 0
M  V30 13328 C 1209.31 -0.37673 3.36598 0
M  V30 13329 C 1208.35 0.48745 4.23705 0
M  V30 13330 S 1209.19 1.92417 4.99736 0
M  V30 13331 C 1210.34 1.12388 6.15727 0
M  V30 13332 H 1210.58 1.27315 2.6866 0
M  V30 13333 H 1208.11 0.766568 1.34026 0
M  V30 13334 H 1210.07 -0.837488 4.01866 0
M  V30 13335 H 1208.73 -1.1926 2.90579 0
M  V30 13336 H 1207.92 -0.133338 5.03824 0
M  V30 13337 H 1207.52 0.883707 3.6341 0
M  V30 13338 H 1209.81 0.376097 6.76455 0
M  V30 13339 H 1210.76 1.89924 6.82154 0
M  V30 13340 H 1211.17 0.650779 5.60736 0
M  V30 13341 N 1210.56 -1.39601 0.731392 0
M  V30 13342 C 1211.49 -2.33268 0.1041 0
M  V30 13343 C 1212.47 -1.53724 -0.728219 0
M  V30 13344 O 1213.66 -1.82131 -0.673933 0
M  V30 13345 C 1210.79 -3.37802 -0.806646 0
M  V30 13346 C 1209.74 -4.27928 -0.0787588 0
M  V30 13347 C 1209.07 -5.23131 -1.10628 0
M  V30 13348 C 1210.37 -5.11086 1.07651 0
M  V30 13349 H 1212.06 -2.85975 0.886496 0
M  V30 13350 H 1209.61 -1.375 0.427746 0
M  V30 13351 H 1211.56 -4.02278 -1.25499 0
M  V30 13352 H 1210.29 -2.83527 -1.62112 0
M  V30 13353 H 1208.95 -3.64926 0.349926 0
M  V30 13354 H 1208.59 -4.65152 -1.91422 0
M  V30 13355 H 1208.29 -5.84277 -0.624043 0
M  V30 13356 H 1209.82 -5.90483 -1.5544 0
M  V30 13357 H 1211.23 -5.68927 0.706781 0
M  V30 13358 H 1209.63 -5.81356 1.48814 0
M  V30 13359 H 1210.7 -4.46131 1.89988 0
M  V30 13360 N 1212.04 -0.478751 -1.50152 0
M  V30 13361 C 1213.46 -0.133356 -1.59042 0
M  V30 13362 C 1213.66 1.36069 -1.48618 0
M  V30 13363 O 1212.71 2.13468 -1.34862 0
M  V30 13364 C 1214.03 -0.690369 -2.92668 0
M  V30 13365 C 1215.58 -0.654481 -3.06081 0
M  V30 13366 C 1216.05 -1.18917 -4.42293 0
M  V30 13367 N 1217.54 -1.14891 -4.48725 0
M  V30 13368 C 1218.28 -1.53305 -5.52526 0
M  V30 13369 N 1217.77 -1.99205 -6.63543 0
M  V30 13370 N 1219.57 -1.4486 -5.43113 0
M  V30 13371 H 1211.72 -1.45037 -1.55171 0
M  V30 13372 H 1213.98 -0.600254 -0.733757 0
M  V30 13373 H 1213.69 -1.7373 -3.05795 0
M  V30 13374 H 1213.56 -0.138227 -3.76947 0
M  V30 13375 H 1215.95 0.383564 -2.92597 0
M  V30 13376 H 1216.03 -1.24352 -2.2354 0
M  V30 13377 H 1215.67 -2.22588 -4.56527 0
M  V30 13378 H 1215.6 -0.57628 -5.23437 0
M  V30 13379 H 1218.09 -0.812344 -3.69066 0
M  V30 13380 H 1218.41 -2.26645 -7.38818 0
M  V30 13381 H 1216.75 -2.03164 -6.64642 0
M  V30 13382 H 1219.94 -1.08836 -4.55272 0
M  V30 13383 H 1220.11 -1.75123 -6.23888 0
M  V30 13384 N 1213.52 1.56172 -0.211661 0
M  V30 13385 C 1214.45 2.22843 0.697375 0
M  V30 13386 C 1215.43 1.19689 1.20866 0
M  V30 13387 O 1216.62 1.48245 1.25447 0
M  V30 13388 C 1213.75 2.90067 1.90993 0
M  V30 13389 C 1212.7 3.99608 1.5329 0
M  V30 13390 C 1212.03 4.54078 2.82343 0
M  V30 13391 C 1213.33 5.17169 0.730333 0
M  V30 13392 H 1215.02 2.99065 0.141533 0
M  V30 13393 H 1212.57 1.43846 0.0666337 0
M  V30 13394 H 1214.52 3.35396 2.55123 0
M  V30 13395 H 1213.24 2.11276 2.49058 0
M  V30 13396 H 1211.9 3.54995 0.915115 0
M  V30 13397 H 1211.55 3.72029 3.38531 0
M  V30 13398 H 1211.25 5.28001 2.57853 0
M  V30 13399 H 1212.77 5.02119 3.47432 0
M  V30 13400 H 1214.19 5.5894 1.2751 0
M  V30 13401 H 1212.59 5.97262 0.582916 0
M  V30 13402 H 1213.66 4.84174 -0.265157 0
M  V30 13403 N 1215 -0.0618163 1.57479 0
M  V30 13404 C 1215.93 -1.10452 1.99689 0
M  V30 13405 C 1216.91 -1.37019 0.875473 0
M  V30 13406 O 1218.09 -1.50226 1.13862 0
M  V30 13407 C 1215.22 -2.44669 2.34211 0
M  V30 13408 C 1214.27 -2.34172 3.56463 0
M  V30 13409 S 1215.1 -1.7263 5.06911 0
M  V30 13410 C 1216.26 -3.08405 5.44644 0
M  V30 13411 H 1216.49 -0.744843 2.87818 0
M  V30 13412 H 1214.02 -0.270698 1.52008 0
M  V30 13413 H 1215.98 -3.2187 2.54774 0
M  V30 13414 H 1214.64 -2.77794 1.46592 0
M  V30 13415 H 1213.83 -3.33175 3.78167 0
M  V30 13416 H 1213.44 -1.65109 3.35582 0
M  V30 13417 H 1215.73 -4.04727 5.43325 0
M  V30 13418 H 1216.67 -2.9147 6.4533 0
M  V30 13419 H 1217.08 -3.0947 4.72111 0
M  V30 13420 N 1216.48 -1.54033 -0.333429 0
M  V30 13421 C 1217.75 -1.62404 -1.09015 0
M  V30 13422 C 1218.13 -0.451653 -2.06212 0
M  V30 13423 O 1217.48 0.555086 -2.21655 0
M  V30 13424 C 1217.69 -2.98949 -1.80085 0
M  V30 13425 C 1219.04 -3.54655 -2.33464 0
M  V30 13426 O 1220.06 -3.0119 -1.90166 0
M  V30 13427 O 1218.92 -4.48195 -3.12703 0
M  V30 13428 H 1216.02 -0.65727 -0.501921 0
M  V30 13429 H 1218.56 -1.66378 -0.33411 0
M  V30 13430 H 1217.33 -3.75716 -1.09332 0
M  V30 13431 H 1216.96 -2.98609 -2.62523 0
M  V30 13432 N 1217.95 0.594978 -1.45938 0
M  V30 13433 C 1218.88 1.71536 -1.58422 0
M  V30 13434 C 1219.87 1.64441 -0.435116 0
M  V30 13435 O 1221.05 1.82647 -0.659839 0
M  V30 13436 C 1218.18 3.10163 -1.56257 0
M  V30 13437 C 1217.13 3.3208 -2.70013 0
M  V30 13438 C 1216.46 4.71108 -2.52905 0
M  V30 13439 C 1217.76 3.21105 -4.11933 0
M  V30 13440 H 1219.45 1.61344 -2.52207 0
M  V30 13441 H 1217 0.774791 -1.2138 0
M  V30 13442 H 1218.95 3.88352 -1.63587 0
M  V30 13443 H 1217.68 3.21225 -0.590093 0
M  V30 13444 H 1216.34 2.56286 -2.62132 0
M  V30 13445 H 1215.98 4.7892 -1.53768 0
M  V30 13446 H 1215.68 4.86727 -3.29197 0
M  V30 13447 H 1217.21 5.51482 -2.62107 0
M  V30 13448 H 1218.62 3.89153 -4.2099 0
M  V30 13449 H 1217.02 3.4825 -4.88715 0
M  V30 13450 H 1218.09 2.18359 -4.32952 0
M  V30 13451 N 1219.43 1.33438 0.838571 0
M  V30 13452 C 1220.36 1.26344 1.96365 0
M  V30 13453 C 1221.34 0.143956 1.6949 0
M  V30 13454 O 1222.53 0.333779 1.9131 0
M  V30 13455 C 1219.66 1.0022 3.32526 0
M  V30 13456 C 1218.61 2.08466 3.73799 0
M  V30 13457 C 1217.94 1.67555 5.07769 0
M  V30 13458 C 1219.24 3.50144 3.87552 0
M  V30 13459 H 1220.93 2.20478 2.02558 0
M  V30 13460 H 1218.48 1.06139 0.973168 0
M  V30 13461 H 1220.43 0.939068 4.10803 0
M  V30 13462 H 1219.16 0.0252514 3.2659 0
M  V30 13463 H 1217.81 2.13822 2.97785 0
M  V30 13464 H 1217.46 0.685619 4.98305 0
M  V30 13465 H 1217.16 2.39993 5.36356 0
M  V30 13466 H 1218.69 1.62708 5.88522 0
M  V30 13467 H 1220.1 3.47287 4.56141 0
M  V30 13468 H 1218.5 4.21069 4.27575 0
M  V30 13469 H 1219.57 3.88628 2.89994 0
M  V30 13470 N 1220.91 -1.05686 1.16912 0
M  V30 13471 C 1222.16 -1.79006 0.965835 0
M  V30 13472 C 1222.51 -1.85774 -0.500593 0
M  V30 13473 O 1221.8 -1.34282 -1.3667 0
M  V30 13474 C 1222 -3.22779 1.53455 0
M  V30 13475 C 1221.83 -3.30023 3.05474 0
M  V30 13476 C 1220.6 -3.396 3.74166 0
M  V30 13477 C 1222.8 -3.19376 4.03117 0
M  V30 13478 N 1220.78 -3.35923 5.13838 0
M  V30 13479 C 1222.15 -3.23013 5.2921 0
M  V30 13480 C 1224.2 -3.03304 3.94856 0
M  V30 13481 C 1222.91 -3.12228 6.48002 0
M  V30 13482 C 1224.93 -2.93859 5.13226 0
M  V30 13483 C 1224.29 -2.98124 6.38202 0
M  V30 13484 H 1220.39 -0.667577 0.407266 0
M  V30 13485 H 1222.98 -1.26025 1.48411 0
M  V30 13486 H 1221.15 -3.74143 1.04268 0
M  V30 13487 H 1222.88 -3.8431 1.26839 0
M  V30 13488 H 1219.64 -3.44654 3.24824 0
M  V30 13489 H 1220.06 -3.37567 5.86837 0
M  V30 13490 H 1224.7 -2.98848 2.99081 0
M  V30 13491 H 1222.42 -3.15439 7.43992 0
M  V30 13492 H 1226.01 -2.82501 5.0861 0
M  V30 13493 H 1224.89 -2.90882 7.28256 0
M  V30 13494 N 1222.39 -0.968567 -1.24324 0
M  V30 13495 C 1223.34 -0.498817 -2.25345 0
M  V30 13496 C 1224.31 0.456082 -1.59716 0
M  V30 13497 O 1225.49 0.366254 -1.87252 0
M  V30 13498 C 1222.63 0.204027 -3.44496 0
M  V30 13499 C 1221.74 -0.789741 -4.2472 0
M  V30 13500 C 1220.88 -0.0629156 -5.31163 0
M  V30 13501 C 1219.92 -1.04669 -6.03084 0
M  V30 13502 N 1219.05 -0.349812 -7.01228 0
M  V30 13503 H 1223.89 -1.36511 -2.64894 0
M  V30 13504 H 1221.43 -0.684288 -1.30215 0
M  V30 13505 H 1223.39 0.628223 -4.12443 0
M  V30 13506 H 1222.02 1.03426 -3.05782 0
M  V30 13507 H 1221.07 -1.33237 -3.56303 0
M  V30 13508 H 1222.38 -1.53988 -4.74436 0
M  V30 13509 H 1221.54 0.419233 -6.0525 0
M  V30 13510 H 1220.28 0.719915 -4.82357 0
M  V30 13511 H 1219.28 -1.53971 -5.278 0
M  V30 13512 H 1220.51 -1.82998 -6.53979 0
M  V30 13513 H 1218.45 0.414026 -6.54692 0
M  V30 13514 H 1218.37 -1.03881 -7.48829 0
M  V30 13515 H 1219.64 0.11034 -7.79422 0
M  V30 13516 N 1223.87 1.39211 -0.738786 0
M  V30 13517 C 1224.78 2.34374 -0.102958 0
M  V30 13518 C 1225.79 1.58514 0.717596 0
M  V30 13519 O 1226.97 1.90786 0.645186 0
M  V30 13520 C 1224.03 3.37562 0.790733 0
M  V30 13521 C 1223.09 4.29279 -0.0425028 0
M  V30 13522 C 1222.33 5.27539 0.808628 0
M  V30 13523 O 1222.55 5.32396 2.04722 0
M  V30 13524 O 1221.48 6.0144 0.235279 0
M  V30 13525 H 1225.31 2.90412 -0.888498 0
M  V30 13526 H 1222.9 1.40803 -0.499498 0
M  V30 13527 H 1224.78 4.00783 1.30196 0
M  V30 13528 H 1223.45 2.83903 1.55502 0
M  V30 13529 H 1222.36 3.69268 -0.599335 0
M  V30 13530 H 1223.69 4.86154 -0.7691 0
M  V30 13531 N 1225.34 0.486708 1.49896 0
M  V30 13532 C 1226.31 -0.288126 2.27382 0
M  V30 13533 C 1227.31 -0.906675 1.32801 0
M  V30 13534 O 1228.5 -0.773425 1.56089 0
M  V30 13535 C 1225.63 -1.41194 3.10285 0
M  V30 13536 H 1226.82 0.391618 2.97332 0
M  V30 13537 H 1224.38 0.24123 1.54427 0
M  V30 13538 H 1225.11 -2.12627 2.44868 0
M  V30 13539 H 1224.9 -0.974033 3.79809 0
M  V30 13540 H 1226.39 -1.95812 3.68846 0
M  V30 13541 N 1226.82 -1.56058 0.219941 0
M  V30 13542 C 1228.07 -1.97869 -0.411383 0
M  V30 13543 C 1228.39 -1.10878 -1.60409 0
M  V30 13544 O 1227.66 -0.185454 -1.9502 0
M  V30 13545 H 1226.24 -0.730747 -0.154979 0
M  V30 13546 H 1228.9 -1.92379 0.312461 0
M  V30 13547 H 1228 -3.0323 -0.738798 0
M  V30 13548 N 1228.3 0.053464 -1.57509 0
M  V30 13549 C 1229.23 1.06151 -2.07977 0
M  V30 13550 C 1230.21 1.3924 -0.977047 0
M  V30 13551 O 1231.4 1.48549 -1.25087 0
M  V30 13552 C 1228.53 2.36969 -2.53895 0
M  V30 13553 C 1227.48 2.18186 -3.6821 0
M  V30 13554 C 1226.81 3.54551 -4.00247 0
M  V30 13555 C 1228.11 1.588 -4.97574 0
M  V30 13556 H 1229.8 0.641483 -2.92447 0
M  V30 13557 H 1227.35 0.307122 -1.40687 0
M  V30 13558 H 1229.3 3.07797 -2.87817 0
M  V30 13559 H 1228.02 2.80986 -1.66476 0
M  V30 13560 H 1226.68 1.49796 -3.34599 0
M  V30 13561 H 1226.33 3.96171 -3.09932 0
M  V30 13562 H 1226.03 3.42816 -4.77232 0
M  V30 13563 H 1227.56 4.2678 -4.36682 0
M  V30 13564 H 1228.97 2.19515 -5.29609 0
M  V30 13565 H 1227.37 1.57711 -5.79006 0
M  V30 13566 H 1228.44 0.551254 -4.81756 0
M  V30 13567 N 1229.78 1.54207 0.325255 0
M  V30 13568 C 1231.06 1.6298 1.08153 0
M  V30 13569 C 1231.44 0.462583 2.05969 0
M  V30 13570 O 1230.78 -0.543323 2.21947 0
M  V30 13571 C 1230.99 2.999 1.78497 0
M  V30 13572 C 1232.34 3.55888 2.3158 0
M  V30 13573 O 1233.37 3.02194 1.88566 0
M  V30 13574 O 1232.23 4.49847 3.10322 0
M  V30 13575 H 1229.32 0.659923 0.498429 0
M  V30 13576 H 1231.87 1.66553 0.325282 0
M  V30 13577 H 1230.64 3.7629 1.07338 0
M  V30 13578 H 1230.26 2.99997 2.60936 0
M  V30 13579 N 1231.26 -0.58723 1.46251 0
M  V30 13580 C 1232.19 -1.70694 1.5933 0
M  V30 13581 C 1233.17 -1.64208 0.443831 0
M  V30 13582 O 1234.35 -1.82294 0.669516 0
M  V30 13583 C 1231.48 -3.0933 1.579 0
M  V30 13584 C 1230.44 -3.30643 2.7177 0
M  V30 13585 C 1229.76 -4.69761 2.554 0
M  V30 13586 C 1231.06 -3.18916 4.1363 0
M  V30 13587 H 1232.76 -1.60004 2.53059 0
M  V30 13588 H 1230.3 -0.768343 1.21789 0
M  V30 13589 H 1232.26 -3.87479 1.65644 0
M  V30 13590 H 1230.98 -3.20907 0.60712 0
M  V30 13591 H 1229.64 -2.54892 2.63488 0
M  V30 13592 H 1229.29 -4.78098 1.56306 0
M  V30 13593 H 1228.99 -4.84974 3.31774 0
M  V30 13594 H 1230.51 -5.50084 2.65028 0
M  V30 13595 H 1231.93 -3.86915 4.23048 0
M  V30 13596 H 1230.32 -3.45653 4.90555 0
M  V30 13597 H 1231.39 -2.1606 4.34104 0
M  V30 13598 N 1232.74 -1.33881 -0.831482 0
M  V30 13599 C 1234.15 -1.13376 -1.1233 0
M  V30 13600 C 1234.35 0.0704402 -2.01377 0
M  V30 13601 O 1233.41 0.748516 -2.4115 0
M  V30 13602 C 1234.72 -2.42484 -1.77826 0
M  V30 13603 C 1236.27 -2.4846 -1.90359 0
M  V30 13604 C 1236.74 -3.77548 -2.59272 0
M  V30 13605 N 1238.23 -3.7866 -2.66778 0
M  V30 13606 C 1238.97 -4.75258 -3.20807 0
M  V30 13607 N 1238.47 -5.82234 -3.75466 0
M  V30 13608 N 1240.26 -4.62724 -3.19128 0
M  V30 13609 H 1232.41 -2.11051 -0.238998 0
M  V30 13610 H 1234.67 -0.932893 -0.168565 0
M  V30 13611 H 1234.38 -3.30647 -1.19857 0
M  V30 13612 H 1234.25 -2.55186 -2.77777 0
M  V30 13613 H 1236.64 -1.60742 -2.47479 0
M  V30 13614 H 1236.72 -2.39693 -0.893359 0
M  V30 13615 H 1236.36 -4.65651 -2.02808 0
M  V30 13616 H 1236.29 -3.83594 -3.60781 0
M  V30 13617 H 1238.79 -3.01351 -2.28026 0
M  V30 13618 H 1239.1 -6.51968 -4.14918 0
M  V30 13619 H 1237.44 -5.85959 -3.73733 0
M  V30 13620 H 1240.63 -3.78303 -2.75688 0
M  V30 13621 H 1240.81 -5.38175 -3.60932 0
M  V30 13622 N 1234.21 1.05064 -1.1747 0
M  V30 13623 C 1235.15 2.12334 -0.836028 0
M  V30 13624 C 1236.12 1.61393 0.197733 0
M  V30 13625 O 1237.31 1.88334 0.0789748 0
M  V30 13626 C 1234.44 3.37796 -0.24734 0
M  V30 13627 C 1233.48 4.07565 -1.25669 0
M  V30 13628 S 1234.31 4.55941 -2.80853 0
M  V30 13629 C 1235.47 5.84648 -2.23468 0
M  V30 13630 H 1235.7 2.40735 -1.74453 0
M  V30 13631 H 1233.24 1.17684 -0.999495 0
M  V30 13632 H 1235.19 4.1041 0.0858241 0
M  V30 13633 H 1233.86 3.07529 0.639124 0
M  V30 13634 H 1233.05 4.97715 -0.793465 0
M  V30 13635 H 1232.65 3.41022 -1.53557 0
M  V30 13636 H 1234.94 6.58067 -1.61104 0
M  V30 13637 H 1235.89 6.35719 -3.11877 0
M  V30 13638 H 1236.29 5.39272 -1.6687 0
M  V30 13639 N 1235.69 0.975146 1.23809 0
M  V30 13640 C 1236.62 0.530389 2.27396 0
M  V30 13641 C 1237.6 -0.433763 1.64476 0
M  V30 13642 O 1238.79 -0.32827 1.91405 0
M  V30 13643 C 1235.92 -0.173066 3.46869 0
M  V30 13644 C 1234.87 0.707844 4.22106 0
M  V30 13645 C 1234.2 -0.127527 5.34548 0
M  V30 13646 C 1235.5 1.99609 4.82652 0
M  V30 13647 H 1237.19 1.39622 2.64851 0
M  V30 13648 H 1234.74 0.672802 1.27316 0
M  V30 13649 H 1236.69 -0.495481 4.18477 0
M  V30 13650 H 1235.41 -1.0733 3.0846 0
M  V30 13651 H 1234.07 1.01364 3.52308 0
M  V30 13652 H 1233.72 -1.02814 4.9238 0
M  V30 13653 H 1233.42 0.458728 5.85807 0
M  V30 13654 H 1234.95 -0.444443 6.0898 0
M  V30 13655 H 1236.36 1.73878 5.46296 0
M  V30 13656 H 1234.76 2.52969 5.44175 0
M  V30 13657 H 1235.83 2.68629 4.03691 0
M  V30 13658 N 1237.17 -1.38817 0.746158 0
M  V30 13659 C 1238.58 -1.83045 0.367629 0
M  V30 13660 C 1238.93 -1.62285 -1.10263 0
M  V30 13661 O 1238.06 -1.12001 -1.85162 0
M  V30 13662 C 1238.65 -3.323 0.660482 0
M  V30 13663 C 1237.21 -3.74903 0.335318 0
M  V30 13664 C 1236.36 -2.61683 0.917446 0
M  V30 13665 H 1239.31 -1.27651 0.94291 0
M  V30 13666 H 1239.33 -3.80446 -0.0639061 0
M  V30 13667 H 1238.84 -3.47377 1.73062 0
M  V30 13668 H 1236.94 -3.65408 -0.728538 0
M  V30 13669 H 1237.06 -4.71932 0.825677 0
M  V30 13670 H 1235.42 -2.52376 0.343316 0
M  V30 13671 H 1236.2 -2.79563 1.99247 0
M  V30 13672 N 1238.65 -0.49465 -1.49636 0
M  V30 13673 C 1239.88 0.0490417 -2.06542 0
M  V30 13674 C 1240.29 1.31945 -1.35599 0
M  V30 13675 O 1239.63 1.78691 -0.426047 0
M  V30 13676 C 1239.69 0.379426 -3.57492 0
M  V30 13677 C 1239.35 -0.792345 -4.50079 0
M  V30 13678 C 1240.35 -1.68106 -4.91972 0
M  V30 13679 C 1238.04 -0.98935 -4.9246 0
M  V30 13680 C 1240.03 -2.75099 -5.74978 0
M  V30 13681 C 1237.72 -2.06247 -5.75244 0
M  V30 13682 C 1238.72 -2.94163 -6.16407 0
M  V30 13683 O 1238.4 -3.99623 -6.97536 0
M  V30 13684 H 1238.14 -0.0143708 -0.675847 0
M  V30 13685 H 1240.69 -0.689358 -1.93486 0
M  V30 13686 H 1238.92 1.17133 -3.68533 0
M  V30 13687 H 1240.61 0.860979 -3.96664 0
M  V30 13688 H 1241.37 -1.54065 -4.59879 0
M  V30 13689 H 1237.25 -0.314435 -4.59926 0
M  V30 13690 H 1240.8 -3.4375 -6.07027 0
M  V30 13691 H 1236.69 -2.20285 -6.06749 0
M  V30 13692 H 1237.46 -3.96899 -7.15831 0
M  V30 13693 N 1240.13 1.55939 -0.228214 0
M  V30 13694 C 1241.37 1.98084 0.400884 0
M  V30 13695 C 1241.69 1.11727 1.59819 0
M  V30 13696 O 1240.96 0.195794 1.94919 0
M  V30 13697 H 1239.54 0.731558 0.151102 0
M  V30 13698 H 1242.21 1.92211 -0.322659 0
M  V30 13699 H 1241.3 3.03617 0.722706 0
M  V30 13700 N 1241.6 -0.0451101 1.57535 0
M  V30 13701 C 1242.84 -0.744146 1.90373 0
M  V30 13702 C 1243.21 -1.7337 0.825039 0
M  V30 13703 O 1244.41 -2.4798 1.03726 0
M  V30 13704 C 1242.68 -1.41028 3.28399 0
M  V30 13705 S 1244.24 -2.14069 3.8304 0
M  V30 13706 H 1241.06 -0.246888 0.666759 0
M  V30 13707 H 1243.66 0.000729019 1.955 0
M  V30 13708 H 1242.36 -0.67663 4.04784 0
M  V30 13709 H 1241.89 -2.19404 3.26536 0
M  V30 13710 H 1243.91 -3.40988 3.60474 0
M  V30 13711 N 1243.08 -1.54377 -0.317073 0
M  V30 13712 C 1244.01 -1.8721 -1.39552 0
M  V30 13713 C 1244.99 -0.729483 -1.53664 0
M  V30 13714 O 1246.18 -0.983799 -1.67437 0
M  V30 13715 C 1243.31 -2.1052 -2.76222 0
M  V30 13716 C 1242.26 -3.26366 -2.76892 0
M  V30 13717 C 1241.59 -3.35061 -4.16699 0
M  V30 13718 C 1242.89 -4.63862 -2.40061 0
M  V30 13719 H 1244.58 -2.77532 -1.12323 0
M  V30 13720 H 1242.13 -1.33536 -0.538897 0
M  V30 13721 H 1244.08 -2.32073 -3.51739 0
M  V30 13722 H 1242.81 -1.16953 -3.04942 0
M  V30 13723 H 1241.46 -3.0471 -2.03831 0
M  V30 13724 H 1241.11 -2.39041 -4.4257 0
M  V30 13725 H 1240.81 -4.12923 -4.18053 0
M  V30 13726 H 1242.34 -3.58856 -4.94019 0
M  V30 13727 H 1243.75 -4.85252 -3.05292 0
M  V30 13728 H 1242.15 -5.44321 -2.52655 0
M  V30 13729 H 1243.22 -4.6567 -1.35202 0
M  V30 13730 N 1244.56 0.579466 -1.4656 0
M  V30 13731 C 1245.52 1.67033 -1.56948 0
M  V30 13732 C 1246.52 1.54481 -0.446361 0
M  V30 13733 O 1247.71 1.5904 -0.710767 0
M  V30 13734 C 1244.85 3.06474 -1.49286 0
M  V30 13735 H 1246.04 1.59179 -2.54169 0
M  V30 13736 H 1243.59 0.797573 -1.34419 0
M  V30 13737 H 1244.33 3.1988 -0.533572 0
M  V30 13738 H 1244.11 3.16993 -2.30776 0
M  V30 13739 H 1245.6 3.85879 -1.59648 0
M  V30 13740 N 1246.04 1.3432 0.824371 0
M  V30 13741 C 1247.27 1.29669 1.61226 0
M  V30 13742 C 1247.68 -0.129532 1.88355 0
M  V30 13743 O 1247.04 -1.07616 1.47394 0
M  V30 13744 C 1247.09 2.08375 2.95402 0
M  V30 13745 O 1246.81 3.45434 2.69456 0
M  V30 13746 C 1248.31 2.11103 3.89808 0
M  V30 13747 H 1245.53 0.446137 0.501201 0
M  V30 13748 H 1248.08 1.76912 1.02579 0
M  V30 13749 H 1246.23 1.64777 3.5061 0
M  V30 13750 H 1246.64 3.86101 3.55001 0
M  V30 13751 H 1248.12 2.706 4.81124 0
M  V30 13752 H 1248.6 1.10505 4.25071 0
M  V30 13753 H 1249.2 2.54784 3.40537 0
M  V30 13754 N 1247.52 -1.0444 1.18026 0
M  V30 13755 C 1248.76 -1.77224 0.971391 0
M  V30 13756 C 1249.09 -1.88466 -0.500564 0
M  V30 13757 O 1248.36 -1.40692 -1.36317 0
M  V30 13758 H 1246.94 -0.656485 0.356422 0
M  V30 13759 H 1249.6 -1.26064 1.4864 0
M  V30 13760 H 1248.69 -2.78626 1.4062 0
M  V30 13761 N 1248.99 -0.981699 -1.2329 0
M  V30 13762 C 1250.27 -0.567659 -1.87182 0
M  V30 13763 C 1250.65 0.955194 -1.88253 0
M  V30 13764 O 1250 1.83245 -1.36504 0
M  V30 13765 C 1250.21 -1.17522 -3.28618 0
M  V30 13766 C 1251.56 -1.26877 -4.052 0
M  V30 13767 O 1252.58 -1.12877 -3.37842 0
M  V30 13768 O 1251.44 -1.49163 -5.2575 0
M  V30 13769 H 1248.53 -0.191315 -0.804567 0
M  V30 13770 H 1251.08 -1.07686 -1.31155 0
M  V30 13771 H 1249.85 -2.21735 -3.22411 0
M  V30 13772 H 1249.48 -0.650913 -3.92236 0
M  V30 13773 N 1250.47 1.3842 -0.753509 0
M  V30 13774 C 1251.89 1.53668 -0.431095 0
M  V30 13775 C 1252.09 1.71626 1.05578 0
M  V30 13776 O 1251.14 1.72723 1.84182 0
M  V30 13777 C 1252.46 2.74381 -1.23027 0
M  V30 13778 C 1254.01 2.8823 -1.22034 0
M  V30 13779 C 1254.48 4.11904 -2.00248 0
M  V30 13780 N 1255.97 4.18981 -1.97508 0
M  V30 13781 C 1256.71 5.13667 -2.5482 0
M  V30 13782 N 1256.2 6.14027 -3.20846 0
M  V30 13783 N 1258 5.06017 -2.44751 0
M  V30 13784 H 1250.15 1.25012 -1.71714 0
M  V30 13785 H 1252.41 0.607296 -0.727939 0
M  V30 13786 H 1252.12 2.67515 -2.28317 0
M  V30 13787 H 1251.99 3.67565 -0.847098 0
M  V30 13788 H 1254.38 2.94578 -0.175502 0
M  V30 13789 H 1254.46 1.96057 -1.64303 0
M  V30 13790 H 1254.1 4.06318 -3.04742 0
M  V30 13791 H 1254.03 5.03157 -1.55373 0
M  V30 13792 H 1256.52 3.47104 -1.49423 0
M  V30 13793 H 1256.84 6.82771 -3.61999 0
M  V30 13794 H 1255.18 6.1436 -3.24941 0
M  V30 13795 H 1258.37 4.26552 -1.92797 0
M  V30 13796 H 1258.54 5.7963 -2.89713 0
M  V30 13797 N 1251.95 0.502579 1.49372 0
M  V30 13798 C 1253.18 -0.0403087 2.07361 0
M  V30 13799 C 1253.6 -1.29918 1.36026 0
M  V30 13800 O 1252.96 -1.76428 0.417488 0
M  V30 13801 C 1253.01 -0.275362 3.59547 0
M  V30 13802 O 1252.11 -1.34975 3.89686 0
M  V30 13803 H 1251.45 0.0269268 0.663454 0
M  V30 13804 H 1253.98 0.702652 1.92156 0
M  V30 13805 H 1253.99 -0.506392 4.04845 0
M  V30 13806 H 1252.67 0.644382 4.10878 0
M  V30 13807 H 1251.24 -1.10355 3.56197 0
M  V30 13808 N 1253.43 -1.55816 0.23648 0
M  V30 13809 C 1254.68 -1.98294 -0.390373 0
M  V30 13810 C 1255 -1.12573 -1.59224 0
M  V30 13811 O 1254.27 -0.206128 -1.94813 0
M  V30 13812 H 1252.85 -0.732349 -0.14722 0
M  V30 13813 H 1255.51 -1.92037 0.332848 0
M  V30 13814 H 1254.61 -3.03996 -0.706595 0
M  V30 13815 N 1254.91 0.036755 -1.57557 0
M  V30 13816 C 1255.84 1.03939 -2.09091 0
M  V30 13817 C 1256.82 1.38196 -0.991761 0
M  V30 13818 O 1258 1.47214 -1.26656 0
M  V30 13819 C 1255.13 2.34263 -2.56394 0
M  V30 13820 C 1254.09 2.14269 -3.70504 0
M  V30 13821 C 1253.41 3.50286 -4.03985 0
M  V30 13822 C 1254.71 1.53514 -4.9923 0
M  V30 13823 H 1256.41 0.610429 -2.93111 0
M  V30 13824 H 1253.95 0.292183 -1.41005 0
M  V30 13825 H 1255.91 3.04727 -2.91066 0
M  V30 13826 H 1254.63 2.79205 -1.69447 0
M  V30 13827 H 1253.29 1.46239 -3.36169 0
M  V30 13828 H 1252.94 3.92861 -3.14116 0
M  V30 13829 H 1252.64 3.37735 -4.80842 0
M  V30 13830 H 1254.16 4.22124 -4.41184 0
M  V30 13831 H 1255.57 2.13885 -5.31908 0
M  V30 13832 H 1253.97 1.51561 -5.80646 0
M  V30 13833 H 1255.04 0.500126 -4.82314 0
M  V30 13834 N 1256.39 1.54543 0.308881 0
M  V30 13835 C 1257.63 1.7266 1.04266 0
M  V30 13836 C 1257.95 0.51518 1.88694 0
M  V30 13837 O 1259.15 0.577988 2.65276 0
M  V30 13838 C 1257.61 3.05448 1.9034 0
M  V30 13839 C 1257.22 4.34043 1.10953 0
M  V30 13840 C 1258.96 3.32925 2.63365 0
M  V30 13841 C 1256.87 5.57886 1.96258 0
M  V30 13842 H 1255.8 0.643485 0.392992 0
M  V30 13843 H 1258.45 1.8103 0.300077 0
M  V30 13844 H 1256.83 2.91023 2.68555 0
M  V30 13845 H 1258.01 4.59279 0.374069 0
M  V30 13846 H 1256.32 4.13442 0.495453 0
M  V30 13847 H 1258.92 4.22649 3.27524 0
M  V30 13848 H 1259.26 2.51451 3.3178 0
M  V30 13849 H 1259.79 3.48285 1.92204 0
M  V30 13850 H 1256.53 6.42005 1.32326 0
M  V30 13851 H 1256.05 5.36847 2.67498 0
M  V30 13852 H 1257.73 5.94846 2.54494 0
M  V30 13853 N 1257.86 -0.571685 1.46866 0
M  V30 13854 C 1258.77 -1.70758 1.60869 0
M  V30 13855 C 1259.79 -1.66903 0.49186 0
M  V30 13856 O 1260.97 -1.86613 0.757468 0
M  V30 13857 C 1258.03 -3.07267 1.60586 0
M  V30 13858 C 1257.09 -3.22301 2.83585 0
M  V30 13859 C 1256.32 -4.52298 2.83306 0
M  V30 13860 O 1256.55 -5.36869 1.92685 0
M  V30 13861 O 1255.48 -4.70814 3.7499 0
M  V30 13862 H 1259.31 -1.6189 2.56954 0
M  V30 13863 H 1256.89 -0.740018 1.29785 0
M  V30 13864 H 1258.77 -3.8853 1.63163 0
M  V30 13865 H 1257.45 -3.16549 0.676637 0
M  V30 13866 H 1256.36 -2.4049 2.86558 0
M  V30 13867 H 1257.69 -3.17916 3.75753 0
M  V30 13868 N 1259.34 -1.34755 -0.817236 0
M  V30 13869 C 1260.59 -1.2762 -1.5761 0
M  V30 13870 C 1260.92 0.152017 -1.93604 0
M  V30 13871 O 1260.2 1.09881 -1.60488 0
M  V30 13872 C 1260.48 -2.17251 -2.87183 0
M  V30 13873 C 1260.33 -3.68638 -2.57733 0
M  V30 13874 C 1261.65 -2.06206 -3.88802 0
M  V30 13875 H 1258.77 -0.464933 -0.571845 0
M  V30 13876 H 1261.41 -1.6506 -0.941028 0
M  V30 13877 H 1259.56 -1.85452 -3.41379 0
M  V30 13878 H 1261.23 -4.10829 -2.09802 0
M  V30 13879 H 1259.48 -3.89445 -1.91089 0
M  V30 13880 H 1260.15 -4.26726 -3.50156 0
M  V30 13881 H 1262.62 -2.34137 -3.43975 0
M  V30 13882 H 1261.5 -2.71136 -4.77259 0
M  V30 13883 H 1261.76 -1.04075 -4.29675 0
M  V30 13884 N 1260.82 1.03812 -1.18578 0
M  V30 13885 C 1262.07 1.77319 -0.984173 0
M  V30 13886 C 1262.4 1.88052 0.484789 0
M  V30 13887 O 1261.67 1.3905 1.35998 0
M  V30 13888 C 1261.96 3.20448 -1.6427 0
M  V30 13889 C 1261.81 3.17643 -3.1847 0
M  V30 13890 C 1263.13 4.18623 -1.35805 0
M  V30 13891 H 1260.25 0.643681 -0.358949 0
M  V30 13892 H 1262.89 1.21249 -1.46283 0
M  V30 13893 H 1261.04 3.68324 -1.23572 0
M  V30 13894 H 1262.71 2.77738 -3.6832 0
M  V30 13895 H 1260.95 2.55606 -3.50497 0
M  V30 13896 H 1261.63 4.18724 -3.59686 0
M  V30 13897 H 1264.1 3.79306 -1.71073 0
M  V30 13898 H 1262.98 5.16982 -1.84446 0
M  V30 13899 H 1263.24 4.41203 -0.281418 0
M  V30 13900 N 1262.3 0.988223 1.22768 0
M  V30 13901 C 1263.52 0.679426 1.95955 0
M  V30 13902 C 1263.95 -0.748483 1.72567 0
M  V30 13903 O 1263.31 -1.51097 1.00197 0
M  V30 13904 C 1263.35 0.985284 3.46878 0
M  V30 13905 O 1262.46 0.0814607 4.1232 0
M  V30 13906 H 1261.8 0.254749 0.613188 0
M  V30 13907 H 1264.33 1.32393 1.55991 0
M  V30 13908 H 1264.34 0.925198 3.97371 0
M  V30 13909 H 1263.01 2.02581 3.63227 0
M  V30 13910 H 1261.59 0.196629 3.72381 0
M  V30 13911 N 1263.78 -1.38018 0.760839 0
M  V30 13912 C 1265 -2.04231 0.331285 0
M  V30 13913 C 1265.42 -1.57385 -1.04285 0
M  V30 13914 O 1264.78 -0.750168 -1.66369 0
M  V30 13915 C 1264.83 -3.59772 0.353021 0
M  V30 13916 O 1264.55 -4.049 1.67294 0
M  V30 13917 C 1266.05 -4.4321 -0.0894942 0
M  V30 13918 H 1263.27 -0.656145 0.140408 0
M  V30 13919 H 1265.81 -1.76567 1.03172 0
M  V30 13920 H 1263.97 -3.86246 -0.298735 0
M  V30 13921 H 1264.38 -4.99369 1.60408 0
M  V30 13922 H 1265.86 -5.51995 -0.0231262 0
M  V30 13923 H 1266.33 -4.2419 -1.13839 0
M  V30 13924 H 1266.94 -4.21939 0.533661 0
M  V30 13925 N 1265.25 -0.510493 -1.49103 0
M  V30 13926 C 1266.48 0.0293113 -2.07379 0
M  V30 13927 C 1266.9 1.29195 -1.36713 0
M  V30 13928 O 1266.26 1.76204 -0.426838 0
M  V30 13929 C 1266.31 0.25629 -3.59688 0
M  V30 13930 O 1265.41 1.32907 -3.90397 0
M  V30 13931 H 1264.75 -0.0304449 -0.663302 0
M  V30 13932 H 1267.28 -0.712832 -1.91781 0
M  V30 13933 H 1267.29 0.484915 -4.05108 0
M  V30 13934 H 1265.97 -0.666163 -4.1053 0
M  V30 13935 H 1264.55 1.08464 -3.56777 0
M  V30 13936 N 1266.73 1.55688 -0.24474 0
M  V30 13937 C 1267.64 2.24933 0.666519 0
M  V30 13938 C 1268.66 1.26471 1.19503 0
M  V30 13939 O 1269.83 1.59342 1.23176 0
M  V30 13940 C 1266.9 2.9336 1.84772 0
M  V30 13941 C 1265.96 4.07225 1.35889 0
M  V30 13942 C 1265.19 4.72381 2.48379 0
M  V30 13943 O 1265.42 4.36605 3.67059 0
M  V30 13944 O 1264.35 5.60933 2.18261 0
M  V30 13945 H 1268.18 3.03513 0.106507 0
M  V30 13946 H 1265.76 1.49394 -0.0133309 0
M  V30 13947 H 1267.64 3.36468 2.53708 0
M  V30 13948 H 1266.32 2.17721 2.39539 0
M  V30 13949 H 1265.22 3.68639 0.636881 0
M  V30 13950 H 1266.56 4.84676 0.857333 0
M  V30 13951 N 1268.21 -0.0283989 1.57574 0
M  V30 13952 C 1269.44 -0.730831 1.93563 0
M  V30 13953 C 1269.85 -1.68857 0.844556 0
M  V30 13954 O 1269.21 -1.8162 -0.178971 0
M  V30 13955 C 1269.26 -1.48731 3.29486 0
M  V30 13956 O 1268.98 -0.568017 4.34402 0
M  V30 13957 C 1270.48 -2.28684 3.79761 0
M  V30 13958 H 1267.7 -0.205346 0.638807 0
M  V30 13959 H 1270.25 0.0142728 2.04495 0
M  V30 13960 H 1268.4 -2.18429 3.19949 0
M  V30 13961 H 1268.82 -1.09861 5.12865 0
M  V30 13962 H 1270.29 -2.77157 4.77376 0
M  V30 13963 H 1270.77 -3.10133 3.10989 0
M  V30 13964 H 1271.37 -1.64059 3.92383 0
M  V30 13965 N 1269.69 -1.54705 -0.300681 0
M  V30 13966 C 1270.94 -1.73211 -1.03349 0
M  V30 13967 C 1271.25 -0.52518 -1.88418 0
M  V30 13968 O 1272.46 -0.592049 -2.64966 0
M  V30 13969 C 1270.91 -3.06453 -1.88717 0
M  V30 13970 C 1270.52 -4.34625 -1.0865 0
M  V30 13971 C 1272.26 -3.34317 -2.61595 0
M  V30 13972 C 1270.17 -5.58919 -1.93297 0
M  V30 13973 H 1269.1 -0.64556 -0.389574 0
M  V30 13974 H 1271.75 -1.81186 -0.290472 0
M  V30 13975 H 1270.13 -2.92443 -2.67008 0
M  V30 13976 H 1271.31 -4.59471 -0.349707 0
M  V30 13977 H 1269.62 -4.13699 -0.473521 0
M  V30 13978 H 1272.22 -4.2438 -3.25278 0
M  V30 13979 H 1272.56 -2.53207 -3.30442 0
M  V30 13980 H 1273.1 -3.493 -1.90354 0
M  V30 13981 H 1269.83 -6.42697 -1.2892 0
M  V30 13982 H 1269.35 -5.38258 -2.64647 0
M  V30 13983 H 1271.03 -5.96187 -2.51336 0
M  V30 13984 N 1271.17 0.563888 -1.47167 0
M  V30 13985 C 1272.13 1.65359 -1.58711 0
M  V30 13986 C 1273.13 1.53999 -0.46272 0
M  V30 13987 O 1274.32 1.58277 -0.727595 0
M  V30 13988 C 1271.45 3.04874 -1.52529 0
M  V30 13989 H 1272.64 1.56475 -2.55843 0
M  V30 13990 H 1270.2 0.783271 -1.35257 0
M  V30 13991 H 1270.93 3.19297 -0.56747 0
M  V30 13992 H 1270.72 3.14528 -2.34125 0
M  V30 13993 H 1272.21 3.84164 -1.63731 0
M  V30 13994 N 1272.64 1.35187 0.810078 0
M  V30 13995 C 1273.92 1.18832 1.55365 0
M  V30 13996 C 1274.3 -0.233956 2.098 0
M  V30 13997 O 1273.65 -1.23701 1.92121 0
M  V30 13998 C 1273.86 2.25351 2.66492 0
M  V30 13999 C 1275.21 2.60981 3.34924 0
M  V30 14000 O 1276.23 2.24238 2.7676 0
M  V30 14001 O 1275.09 3.24147 4.3999 0
M  V30 14002 H 1272.18 0.461446 0.686292 0
M  V30 14003 H 1274.73 1.46858 0.850341 0
M  V30 14004 H 1273.5 3.20762 2.24115 0
M  V30 14005 H 1273.13 1.98575 3.44462 0
M  V30 14006 N 1274.12 -1.03182 1.19127 0
M  V30 14007 C 1275.37 -1.75934 0.986415 0
M  V30 14008 C 1275.68 -1.89519 -0.48392 0
M  V30 14009 O 1276.89 -2.59213 -0.80752 0
M  V30 14010 C 1275.35 -3.16358 1.71597 0
M  V30 14011 C 1274.95 -3.10836 3.22622 0
M  V30 14012 C 1276.7 -3.93426 1.59425 0
M  V30 14013 C 1274.61 -4.46174 3.88179 0
M  V30 14014 H 1273.54 -0.659516 0.365451 0
M  V30 14015 H 1276.19 -1.15497 1.42593 0
M  V30 14016 H 1274.57 -3.77245 1.20426 0
M  V30 14017 H 1275.74 -2.59348 3.80887 0
M  V30 14018 H 1274.06 -2.47266 3.35035 0
M  V30 14019 H 1276.65 -4.93526 2.05757 0
M  V30 14020 H 1277 -4.12678 0.547926 0
M  V30 14021 H 1277.53 -3.39134 2.07925 0
M  V30 14022 H 1274.27 -4.32126 4.92897 0
M  V30 14023 H 1273.79 -4.97729 3.34702 0
M  V30 14024 H 1275.47 -5.15066 3.91556 0
M  V30 14025 N 1275.6 -0.99472 -1.22242 0
M  V30 14026 C 1276.53 -0.504783 -2.23572 0
M  V30 14027 C 1277.55 0.401105 -1.57781 0
M  V30 14028 O 1278.73 0.202948 -1.77343 0
M  V30 14029 C 1275.83 0.287524 -3.37678 0
M  V30 14030 C 1275.01 -0.614941 -4.33056 0
M  V30 14031 C 1274.07 0.125974 -5.26049 0
M  V30 14032 O 1273.09 -0.489234 -5.67094 0
M  V30 14033 N 1274.29 1.40772 -5.63173 0
M  V30 14034 H 1277.06 -1.37612 -2.66238 0
M  V30 14035 H 1274.62 -0.86965 -1.3656 0
M  V30 14036 H 1276.61 0.791884 -3.96877 0
M  V30 14037 H 1275.18 1.05998 -2.9408 0
M  V30 14038 H 1274.4 -1.29994 -3.72149 0
M  V30 14039 H 1275.69 -1.22947 -4.93722 0
M  V30 14040 H 1275.09 1.92884 -5.31801 0
M  V30 14041 H 1273.65 1.85723 -6.2478 0
M  V30 14042 N 1277.08 1.37613 -0.768148 0
M  V30 14043 C 1278.01 2.3291 -0.165911 0
M  V30 14044 C 1278.99 1.556 0.687205 0
M  V30 14045 O 1280.17 1.83854 0.625407 0
M  V30 14046 C 1277.3 3.39822 0.7168 0
M  V30 14047 C 1276.26 4.27986 -0.0347264 0
M  V30 14048 C 1275.58 5.2588 0.967192 0
M  V30 14049 C 1276.88 5.08052 -1.21164 0
M  V30 14050 H 1278.58 2.83524 -0.962006 0
M  V30 14051 H 1276.12 1.36318 -0.464051 0
M  V30 14052 H 1278.08 4.05464 1.14789 0
M  V30 14053 H 1276.8 2.87725 1.54538 0
M  V30 14054 H 1275.46 3.6387 -0.446557 0
M  V30 14055 H 1275.11 4.70064 1.79022 0
M  V30 14056 H 1274.81 5.85726 0.468913 0
M  V30 14057 H 1276.33 5.94397 1.3973 0
M  V30 14058 H 1277.75 5.66853 -0.857373 0
M  V30 14059 H 1276.14 5.77206 -1.64176 0
M  V30 14060 H 1277.21 4.40936 -2.0175 0
M  V30 14061 N 1278.56 0.518393 1.4883 0
M  V30 14062 C 1279.5 -0.264197 2.31095 0
M  V30 14063 C 1280.5 -0.946455 1.40494 0
M  V30 14064 O 1281.7 -0.872161 1.57459 0
M  V30 14065 H 1278.08 -0.104065 0.744765 0
M  V30 14066 H 1280.05 0.449375 2.94997 0
M  V30 14067 C 1278.8 -1.30527 3.2227 0
M  V30 14068 H 1278.12 -0.789695 3.91923 0
M  V30 14069 H 1279.56 -1.82449 3.82738 0
M  V30 14070 C 1278.02 -2.33274 2.43073 0
M  V30 14071 O 1278.55 -3.39493 2.14726 0
M  V30 14072 N 1276.76 -2.06189 2.04779 0
M  V30 14073 H 1276.3 -1.19829 2.28033 0
M  V30 14074 H 1276.26 -2.7516 1.521 0
M  V30 14075 N 1280.03 -1.55556 0.252993 0
M  V30 14076 C 1281.26 -2.03945 -0.376965 0
M  V30 14077 C 1281.68 -1.13089 -1.50308 0
M  V30 14078 O 1281.04 -0.125039 -1.80868 0
M  V30 14079 C 1281.09 -3.50284 -0.856363 0
M  V30 14080 O 1280.19 -3.62551 -1.96546 0
M  V30 14081 H 1279.54 -0.659002 -0.081317 0
M  V30 14082 H 1282.07 -2.01024 0.380831 0
M  V30 14083 H 1282.08 -3.91222 -1.15798 0
M  V30 14084 H 1280.75 -4.15887 -0.0323302 0
M  V30 14085 H 1279.33 -3.33511 -1.66808 0
M  V30 14086 N 1281.51 0.0200419 -1.57587 0
M  V30 14087 C 1282.74 0.724241 -1.94344 0
M  V30 14088 C 1283.16 1.67612 -0.853688 0
M  V30 14089 O 1282.52 1.80303 0.189873 0
M  V30 14090 C 1282.57 1.44967 -3.30177 0
M  V30 14091 O 1281.67 2.56326 -3.23064 0
M  V30 14092 H 1281.01 0.194142 -0.634984 0
M  V30 14093 H 1283.54 -0.0271756 -2.04582 0
M  V30 14094 H 1283.55 1.81758 -3.65278 0
M  V30 14095 H 1282.23 0.75161 -4.09052 0
M  V30 14096 H 1280.81 2.22011 -2.99609 0
M  V30 14097 N 1282.99 1.54862 0.292472 0
M  V30 14098 C 1283.94 1.87168 1.38097 0
M  V30 14099 C 1284.93 0.746176 1.52081 0
M  V30 14100 O 1286.14 0.930281 1.54097 0
M  V30 14101 H 1282.51 0.593769 0.461456 0
M  V30 14102 H 1284.48 2.78135 1.0809 0
M  V30 14103 C 1283.23 2.14315 2.73796 0
M  V30 14104 H 1282.56 3.00398 2.63821 0
M  V30 14105 H 1284 2.40853 3.48949 0
M  V30 14106 C 1282.46 0.944424 3.23392 0
M  V30 14107 O 1282.99 0.169208 4.01343 0
M  V30 14108 N 1281.19 0.747456 2.80823 0
M  V30 14109 H 1280.74 1.37953 2.17547 0
M  V30 14110 H 1280.7 -0.0530199 3.14355 0
M  V30 14111 N 1284.47 -0.556076 1.47464 0
M  V30 14112 C 1285.71 -1.31515 1.54375 0
M  V30 14113 C 1286.05 -1.93106 0.205837 0
M  V30 14114 O 1285.32 -1.77927 -0.785643 0
M  V30 14115 C 1285.61 -2.4244 2.66261 0
M  V30 14116 C 1285.46 -1.8571 4.09673 0
M  V30 14117 C 1286.78 -3.4436 2.74051 0
M  V30 14118 H 1283.9 -0.476817 0.561974 0
M  V30 14119 H 1286.54 -0.622157 1.79525 0
M  V30 14120 H 1284.69 -3.01551 2.44948 0
M  V30 14121 H 1286.36 -1.30851 4.42353 0
M  V30 14122 H 1284.6 -1.16379 4.17898 0
M  V30 14123 H 1285.27 -2.65904 4.83735 0
M  V30 14124 H 1287.75 -2.95169 2.93282 0
M  V30 14125 H 1286.63 -4.194 3.54111 0
M  V30 14126 H 1286.89 -4.03281 1.81155 0
M  V30 14127 N 1285.95 -1.35615 -0.802897 0
M  V30 14128 C 1286.91 -1.28705 -1.89651 0
M  V30 14129 C 1287.91 -0.197681 -1.5958 0
M  V30 14130 O 1289.1 -0.451618 -1.68244 0
M  V30 14131 C 1286.23 -0.991941 -3.26149 0
M  V30 14132 H 1287.43 -2.25951 -1.97196 0
M  V30 14133 H 1284.98 -1.20192 -0.999179 0
M  V30 14134 H 1285.71 -0.0235051 -3.24291 0
M  V30 14135 H 1285.5 -1.78013 -3.49362 0
M  V30 14136 H 1286.99 -0.969298 -4.06195 0
M  V30 14137 N 1287.43 1.02549 -1.19673 0
M  V30 14138 C 1288.39 2.09064 -0.939407 0
M  V30 14139 C 1289.39 1.60593 0.0814837 0
M  V30 14140 O 1290.58 1.73521 -0.153626 0
M  V30 14141 C 1287.71 3.38395 -0.412513 0
M  V30 14142 H 1288.9 2.33325 -1.88413 0
M  V30 14143 H 1286.46 1.19211 -1.01086 0
M  V30 14144 H 1287.19 3.19805 0.538094 0
M  V30 14145 H 1286.98 3.74898 -1.14863 0
M  V30 14146 H 1288.47 4.16841 -0.251678 0
M  V30 14147 N 1288.9 1.00119 1.21713 0
M  V30 14148 C 1289.87 0.563409 2.22167 0
M  V30 14149 C 1290.87 -0.35819 1.5676 0
M  V30 14150 O 1292.06 -0.149001 1.73562 0
M  V30 14151 C 1289.19 -0.179365 3.40428 0
M  V30 14152 H 1290.38 1.45189 2.62412 0
M  V30 14153 H 1287.93 0.789286 1.34907 0
M  V30 14154 H 1288.67 -1.08345 3.05666 0
M  V30 14155 H 1288.45 0.482471 3.8912 0
M  V30 14156 H 1289.94 -0.473537 4.14906 0
M  V30 14157 N 1290.38 -1.37203 0.775435 0
M  V30 14158 C 1291.34 -2.28566 0.170406 0
M  V30 14159 C 1292.34 -1.48195 -0.624085 0
M  V30 14160 O 1293.53 -1.68364 -0.447132 0
M  V30 14161 C 1290.67 -3.32186 -0.765829 0
M  V30 14162 H 1291.86 -2.8358 0.975824 0
M  V30 14163 H 1289.41 -1.46531 0.543895 0
M  V30 14164 H 1290.15 -2.82303 -1.59611 0
M  V30 14165 H 1289.93 -3.91598 -0.198251 0
M  V30 14166 H 1291.42 -4.0045 -1.18446 0
M  V30 14167 N 1291.86 -0.526279 -1.48553 0
M  V30 14168 C 1292.82 0.227739 -2.28066 0
M  V30 14169 C 1293.82 0.871146 -1.35158 0
M  V30 14170 O 1295.01 0.731769 -1.58085 0
M  V30 14171 C 1292.14 1.32918 -3.1392 0
M  V30 14172 H 1293.34 -0.470313 -2.96189 0
M  V30 14173 H 1290.89 -0.282089 -1.53733 0
M  V30 14174 H 1291.63 2.0606 -2.50419 0
M  V30 14175 H 1291.41 0.872991 -3.82258 0
M  V30 14176 H 1292.9 1.85964 -3.73908 0
M  V30 14177 N 1293.34 1.5542 -0.261239 0
M  V30 14178 C 1294.58 1.99284 0.359487 0
M  V30 14179 C 1294.91 1.14954 1.56894 0
M  V30 14180 O 1294.17 0.203796 1.94636 0
M  V30 14181 C 1294.47 3.48354 0.799021 0
M  V30 14182 C 1294.13 4.49872 -0.30426 0
M  V30 14183 C 1292.79 4.77353 -0.607237 0
M  V30 14184 C 1295.15 5.10547 -1.04838 0
M  V30 14185 C 1292.47 5.62781 -1.65816 0
M  V30 14186 C 1294.83 5.97115 -2.08893 0
M  V30 14187 C 1293.49 6.22923 -2.3984 0
M  V30 14188 H 1292.76 0.72923 0.131546 0
M  V30 14189 H 1295.41 1.87851 -0.372058 0
M  V30 14190 H 1293.71 3.57192 1.61001 0
M  V30 14191 H 1295.41 3.7969 1.28981 0
M  V30 14192 H 1292 4.28561 -0.0579863 0
M  V30 14193 H 1296.18 4.89352 -0.827566 0
M  V30 14194 H 1291.44 5.81026 -1.90311 0
M  V30 14195 H 1295.61 6.43168 -2.67035 0
M  V30 14196 H 1293.24 6.88912 -3.2141 0
M  V30 14197 N 1294.82 -0.0116844 1.57596 0
M  V30 14198 C 1295.76 -1.02514 2.08791 0
M  V30 14199 C 1296.76 -1.36341 1.00536 0
M  V30 14200 O 1297.96 -1.35042 1.19011 0
M  V30 14201 H 1294.34 -0.348201 0.666528 0
M  V30 14202 H 1296.31 -0.567698 2.9295 0
M  V30 14203 C 1295.06 -2.312 2.59696 0
M  V30 14204 H 1294.38 -2.06036 3.42621 0
M  V30 14205 H 1295.82 -3.00417 2.99208 0
M  V30 14206 C 1294.28 -3.01372 1.50586 0
M  V30 14207 O 1294.81 -3.91896 0.882046 0
M  V30 14208 N 1293.02 -2.62997 1.23616 0
M  V30 14209 H 1292.56 -1.89466 1.74529 0
M  V30 14210 H 1292.52 -3.10264 0.508289 0
M  V30 14211 N 1296.29 -1.55015 -0.284256 0
M  V30 14212 C 1297.24 -1.87122 -1.35107 0
M  V30 14213 C 1298.21 -0.721638 -1.49605 0
M  V30 14214 O 1299.4 -0.971855 -1.64194 0
M  V30 14215 C 1296.54 -2.1388 -2.70831 0
M  V30 14216 C 1295.65 -3.41447 -2.64647 0
M  V30 14217 C 1294.78 -3.57961 -3.92476 0
M  V30 14218 C 1293.82 -4.79261 -3.80757 0
M  V30 14219 N 1292.96 -4.92492 -5.00395 0
M  V30 14220 H 1297.8 -2.78117 -1.07027 0
M  V30 14221 H 1295.34 -1.37704 -0.517311 0
M  V30 14222 H 1297.29 -2.27391 -3.49784 0
M  V30 14223 H 1295.92 -1.26132 -2.97137 0
M  V30 14224 H 1294.98 -3.36467 -1.77466 0
M  V30 14225 H 1296.29 -4.3053 -2.51884 0
M  V30 14226 H 1295.44 -3.71229 -4.79868 0
M  V30 14227 H 1294.18 -2.67042 -4.08093 0
M  V30 14228 H 1293.19 -4.66008 -2.91747 0
M  V30 14229 H 1294.41 -5.71604 -3.66669 0
M  V30 14230 H 1292.36 -4.04501 -5.16445 0
M  V30 14231 H 1292.27 -5.75603 -4.9012 0
M  V30 14232 H 1293.54 -5.10134 -5.89392 0
M  V30 14233 N 1297.77 0.548248 -1.47757 0
M  V30 14234 C 1299.05 1.3092 -1.45325 0
M  V30 14235 C 1299.43 2.1053 -0.155008 0
M  V30 14236 O 1298.78 2.11558 0.863455 0
M  V30 14237 C 1298.99 2.20614 -2.70426 0
M  V30 14238 C 1300.33 2.81345 -3.18009 0
M  V30 14239 O 1301.36 2.30911 -2.71216 0
M  V30 14240 O 1300.22 3.73036 -3.99383 0
M  V30 14241 H 1297.31 0.58996 -0.579548 0
M  V30 14242 H 1299.86 0.56641 -1.59968 0
M  V30 14243 H 1298.63 1.61449 -3.56441 0
M  V30 14244 H 1298.25 3.02173 -2.58413 0
M  V30 14245 N 1299.25 1.36039 0.795694 0
M  V30 14246 C 1300.21 1.29709 1.88966 0
M  V30 14247 C 1301.21 0.206142 1.59473 0
M  V30 14248 O 1302.4 0.460534 1.68002 0
M  V30 14249 C 1299.53 1.00922 3.25619 0
M  V30 14250 H 1300.73 2.26993 1.95995 0
M  V30 14251 H 1298.28 1.2072 0.992791 0
M  V30 14252 H 1299.02 0.0407027 3.24274 0
M  V30 14253 H 1298.8 1.79863 3.48413 0
M  V30 14254 H 1300.29 0.990826 4.05675 0
M  V30 14255 N 1300.73 -1.01913 1.20215 0
M  V30 14256 C 1301.66 -2.12282 0.97256 0
M  V30 14257 C 1302.64 -1.6982 -0.0975709 0
M  V30 14258 O 1303.82 -1.94109 0.0594307 0
M  V30 14259 C 1300.95 -3.43369 0.521085 0
M  V30 14260 C 1299.91 -3.99559 1.53417 0
M  V30 14261 C 1299.23 -5.26383 0.93942 0
M  V30 14262 C 1300.53 -4.33241 2.91718 0
M  V30 14263 H 1302.23 -2.31746 1.89563 0
M  V30 14264 H 1299.77 -1.1137 0.912841 0
M  V30 14265 H 1301.73 -4.19963 0.347713 0
M  V30 14266 H 1300.45 -3.23655 -0.437605 0
M  V30 14267 H 1299.11 -3.25069 1.69486 0
M  V30 14268 H 1298.76 -5.02993 -0.0271236 0
M  V30 14269 H 1298.46 -5.64942 1.616 0
M  V30 14270 H 1299.98 -6.05635 0.777059 0
M  V30 14271 H 1301.4 -5.00734 2.79175 0
M  V30 14272 H 1299.79 -4.82907 3.56259 0
M  V30 14273 H 1300.86 -3.42118 3.43633 0
M  V30 14274 N 1302.21 -1.00763 -1.2118 0
M  V30 14275 C 1303.14 -0.590493 -2.2591 0
M  V30 14276 C 1304.12 0.390002 -1.65569 0
M  V30 14277 O 1305.3 0.277406 -1.92208 0
M  V30 14278 C 1302.43 0.0810388 -3.47205 0
M  V30 14279 C 1301.39 -0.81951 -4.20081 0
M  V30 14280 C 1300.71 -0.014244 -5.34698 0
M  V30 14281 C 1302.01 -2.12336 -4.7719 0
M  V30 14282 H 1303.71 -1.46595 -2.61056 0
M  V30 14283 H 1301.25 -0.706321 -1.25487 0
M  V30 14284 H 1303.21 0.384355 -4.19644 0
M  V30 14285 H 1301.93 0.991145 -3.11197 0
M  V30 14286 H 1300.59 -1.10669 -3.49497 0
M  V30 14287 H 1300.24 0.897233 -4.94933 0
M  V30 14288 H 1299.94 -0.613883 -5.84384 0
M  V30 14289 H 1301.46 0.282827 -6.09945 0
M  V30 14290 H 1302.87 -1.88301 -5.41494 0
M  V30 14291 H 1301.27 -2.67308 -5.37277 0
M  V30 14292 H 1302.34 -2.79238 -3.96427 0
M  V30 14293 N 1303.68 1.3679 -0.7827 0
M  V30 14294 C 1304.63 2.32019 -0.164358 0
M  V30 14295 C 1305.63 1.55476 0.672571 0
M  V30 14296 O 1306.83 1.7079 0.568406 0
M  V30 14297 H 1303.21 0.751214 -0.0343697 0
M  V30 14298 H 1305.18 2.81741 -0.983077 0
M  V30 14299 C 1303.93 3.4075 0.691727 0
M  V30 14300 H 1303.25 3.99759 0.0570885 0
M  V30 14301 H 1304.69 4.09719 1.09117 0
M  V30 14302 C 1303.15 2.81753 1.84708 0
M  V30 14303 O 1303.68 2.73378 2.94325 0
M  V30 14304 N 1301.89 2.39138 1.6511 0
M  V30 14305 H 1301.43 2.46149 0.759487 0
M  V30 14306 H 1301.39 2.0001 2.42576 0
M  V30 14307 N 1305.16 0.53415 1.48272 0
M  V30 14308 C 1306.41 0.00971554 2.03398 0
M  V30 14309 C 1306.76 -1.316 1.40353 0
M  V30 14310 O 1306.06 -1.83786 0.541589 0
M  V30 14311 C 1306.25 -0.165144 3.57018 0
M  V30 14312 C 1306.08 1.14208 4.34956 0
M  V30 14313 C 1304.85 1.70309 4.75734 0
M  V30 14314 C 1307.05 2.05371 4.71516 0
M  V30 14315 N 1305.03 2.95276 5.38224 0
M  V30 14316 C 1306.4 3.14915 5.34068 0
M  V30 14317 C 1308.46 2.05647 4.53447 0
M  V30 14318 C 1307.16 4.24804 5.8046 0
M  V30 14319 C 1309.18 3.14533 5.00823 0
M  V30 14320 C 1308.55 4.22795 5.63404 0
M  V30 14321 H 1304.65 0.0451562 0.780695 0
M  V30 14322 H 1307.23 0.71635 1.81043 0
M  V30 14323 H 1305.4 -0.840869 3.79189 0
M  V30 14324 H 1307.13 -0.68956 3.98782 0
M  V30 14325 H 1303.89 1.24395 4.56971 0
M  V30 14326 H 1304.31 3.58911 5.74031 0
M  V30 14327 H 1308.95 1.23239 4.0444 0
M  V30 14328 H 1306.67 5.07987 6.2847 0
M  V30 14329 H 1310.26 3.15806 4.88629 0
M  V30 14330 H 1309.14 5.05661 5.99397 0
M  V30 14331 N 1306.64 -1.55279 0.269478 0
M  V30 14332 C 1307.57 -2.25278 -0.614188 0
M  V30 14333 C 1308.55 -1.24092 -1.1634 0
M  V30 14334 O 1309.74 -1.52799 -1.19858 0
M  V30 14335 C 1306.87 -2.96956 -1.80096 0
M  V30 14336 C 1305.82 -4.05021 -1.38353 0
M  V30 14337 C 1305.15 -4.64244 -2.65295 0
M  V30 14338 C 1306.45 -5.19523 -0.537886 0
M  V30 14339 H 1308.14 -2.99385 -0.0304397 0
M  V30 14340 H 1305.69 -1.43994 -0.0132004 0
M  V30 14341 H 1307.64 -3.44633 -2.42499 0
M  V30 14342 H 1306.36 -2.20374 -2.41045 0
M  V30 14343 H 1305.02 -3.58146 -0.78273 0
M  V30 14344 H 1304.67 -3.84337 -3.2449 0
M  V30 14345 H 1304.37 -5.37208 -2.38079 0
M  V30 14346 H 1305.89 -5.14668 -3.28557 0
M  V30 14347 H 1307.31 -5.63287 -1.06677 0
M  V30 14348 H 1305.71 -5.99014 -0.360845 0
M  V30 14349 H 1306.78 -4.82857 0.444672 0
M  V30 14350 N 1308.12 0.00332656 -1.576 0
M  V30 14351 C 1309.07 0.99581 -2.08212 0
M  V30 14352 C 1310.04 1.34342 -0.976804 0
M  V30 14353 O 1311.22 1.44236 -1.24902 0
M  V30 14354 C 1308.36 2.2836 -2.58739 0
M  V30 14355 C 1307.47 1.99531 -3.8316 0
M  V30 14356 C 1306.61 3.22367 -4.222 0
M  V30 14357 C 1305.65 2.89209 -5.39467 0
M  V30 14358 N 1304.78 4.04572 -5.73817 0
M  V30 14359 H 1309.62 0.55727 -2.92743 0
M  V30 14360 H 1307.16 0.263513 -1.4472 0
M  V30 14361 H 1309.12 3.03639 -2.86111 0
M  V30 14362 H 1307.75 2.69889 -1.77087 0
M  V30 14363 H 1306.8 1.14634 -3.62716 0
M  V30 14364 H 1308.11 1.71089 -4.6854 0
M  V30 14365 H 1307.27 4.05994 -4.50837 0
M  V30 14366 H 1306.01 3.53944 -3.35522 0
M  V30 14367 H 1305.01 2.03989 -5.10557 0
M  V30 14368 H 1306.24 2.58883 -6.27819 0
M  V30 14369 H 1304.18 4.36052 -4.90096 0
M  V30 14370 H 1304.1 3.79643 -6.53764 0
M  V30 14371 H 1305.37 4.88998 -6.07043 0
M  V30 14372 N 1309.6 1.55164 0.276031 0
M  V30 14373 C 1310.51 1.90928 1.36321 0
M  V30 14374 C 1311.52 0.806183 1.54197 0
M  V30 14375 O 1312.7 1.10497 1.68382 0
M  V30 14376 C 1309.76 2.17123 2.70293 0
M  V30 14377 C 1308.82 3.40703 2.6119 0
M  V30 14378 C 1308.06 3.65638 3.88773 0
M  V30 14379 O 1308.28 2.93137 4.89313 0
M  V30 14380 O 1307.21 4.59172 3.89159 0
M  V30 14381 H 1311.04 2.8347 1.08988 0
M  V30 14382 H 1308.63 1.41672 0.474292 0
M  V30 14383 H 1310.51 2.3541 3.49514 0
M  V30 14384 H 1309.18 1.27765 2.97419 0
M  V30 14385 H 1308.09 3.27754 1.80355 0
M  V30 14386 H 1309.42 4.30271 2.39014 0
M  V30 14387 N 1311.07 -0.540404 1.48045 0
M  V30 14388 C 1312.3 -1.31986 1.58944 0
M  V30 14389 C 1312.71 -1.87608 0.244889 0
M  V30 14390 O 1312.06 -1.66576 -0.774467 0
M  V30 14391 C 1312.12 -2.51547 2.56835 0
M  V30 14392 C 1311.78 -2.17089 4.02146 0
M  V30 14393 C 1312.78 -1.73379 4.90138 0
M  V30 14394 C 1310.46 -2.27932 4.47607 0
M  V30 14395 C 1312.46 -1.40964 6.21617 0
M  V30 14396 C 1310.14 -1.95129 5.7911 0
M  V30 14397 C 1311.14 -1.51715 6.65937 0
M  V30 14398 O 1310.83 -1.19337 7.94993 0
M  V30 14399 H 1310.56 -0.408028 0.538971 0
M  V30 14400 H 1313.12 -0.659748 1.94516 0
M  V30 14401 H 1311.35 -3.20505 2.16364 0
M  V30 14402 H 1313.04 -3.13617 2.57681 0
M  V30 14403 H 1313.8 -1.64481 4.56258 0
M  V30 14404 H 1309.68 -2.6068 3.8022 0
M  V30 14405 H 1313.22 -1.07005 6.89344 0
M  V30 14406 H 1309.12 -2.03664 6.12528 0
M  V30 14407 H 1309.89 -1.32824 8.07651 0
M  V30 14408 N 1312.55 -1.36459 -0.788468 0
M  V30 14409 C 1313.5 -1.30924 -1.92254 0
M  V30 14410 C 1314.49 -0.200866 -1.68205 0
M  V30 14411 O 1315.7 -0.367927 -1.762 0
M  V30 14412 H 1312.08 -0.407609 -0.631949 0
M  V30 14413 H 1314.05 -2.26695 -1.94041 0
M  V30 14414 C 1312.8 -1.11635 -3.29292 0
M  V30 14415 H 1312.12 -1.96168 -3.48365 0
M  V30 14416 H 1313.56 -1.11808 -4.08993 0
M  V30 14417 C 1312.02 0.178963 -3.36424 0
M  V30 14418 O 1312.55 1.16846 -3.8433 0
M  V30 14419 N 1310.75 0.223962 -2.89736 0
M  V30 14420 H 1310.3 -0.581888 -2.50942 0
M  V30 14421 H 1310.26 1.0903 -2.94889 0
M  V30 14422 N 1314.03 1.01274 -1.20754 0
M  V30 14423 C 1315.26 1.7906 -1.04653 0
M  V30 14424 C 1315.68 1.83806 0.399632 0
M  V30 14425 O 1315.04 1.27596 1.28798 0
M  V30 14426 C 1315.09 3.21187 -1.63925 0
M  V30 14427 O 1314.19 4.02913 -0.879486 0
M  V30 14428 H 1313.53 0.552147 -0.368823 0
M  V30 14429 H 1316.06 1.27356 -1.6013 0
M  V30 14430 H 1316.07 3.71887 -1.67822 0
M  V30 14431 H 1314.75 3.17048 -2.69172 0
M  V30 14432 H 1313.32 3.61499 -0.915019 0
M  V30 14433 N 1315.51 1.01404 1.20644 0
M  V30 14434 C 1316.76 0.700523 1.89571 0
M  V30 14435 C 1317.08 -0.771978 1.79068 0
M  V30 14436 O 1316.35 -1.55506 1.19142 0
M  V30 14437 H 1314.93 0.256122 0.70172 0
M  V30 14438 H 1317.59 1.28509 1.46531 0
M  V30 14439 H 1316.69 0.981665 2.9626 0
M  V30 14440 N 1316.99 -1.36373 0.789944 0
M  V30 14441 C 1318.26 -1.9349 0.286543 0
M  V30 14442 C 1318.64 -1.7218 -1.22136 0
M  V30 14443 O 1317.99 -1.08106 -2.01309 0
M  V30 14444 C 1318.2 -3.42316 0.679749 0
M  V30 14445 C 1319.55 -4.19442 0.659791 0
M  V30 14446 O 1320.57 -3.50758 0.620256 0
M  V30 14447 O 1319.43 -5.41957 0.703159 0
M  V30 14448 H 1316.53 -0.823942 0.0710537 0
M  V30 14449 H 1319.07 -1.45551 0.872523 0
M  V30 14450 H 1317.85 -3.51485 1.7197 0
M  V30 14451 H 1317.47 -3.97542 0.0676823 0
M  V30 14452 N 1318.47 -0.542005 -1.47987 0
M  V30 14453 C 1319.74 0.0526494 -1.95529 0
M  V30 14454 C 1320.12 1.50092 -1.48444 0
M  V30 14455 O 1319.47 2.16981 -0.716347 0
M  V30 14456 C 1319.68 -0.0770524 -3.48915 0
M  V30 14457 C 1321.03 0.0760849 -4.24532 0
M  V30 14458 O 1322.05 -0.00384644 -3.562 0
M  V30 14459 O 1320.91 0.245406 -5.45949 0
M  V30 14460 H 1318.01 0.0726163 -0.823806 0
M  V30 14461 H 1320.55 -0.607454 -1.58455 0
M  V30 14462 H 1319.32 -1.08544 -3.75944 0
M  V30 14463 H 1318.95 0.621357 -3.92715 0
M  V30 14464 N 1319.94 1.55134 -0.277709 0
M  V30 14465 C 1320.87 2.256 0.602232 0
M  V30 14466 C 1321.85 1.24708 1.15681 0
M  V30 14467 O 1323.04 1.53433 1.19046 0
M  V30 14468 C 1320.17 2.97907 1.78519 0
M  V30 14469 C 1319.12 4.0575 1.36203 0
M  V30 14470 C 1318.45 4.65644 2.62829 0
M  V30 14471 C 1319.75 5.19801 0.510327 0
M  V30 14472 H 1321.44 2.99396 0.0145622 0
M  V30 14473 H 1318.99 1.43999 0.00556389 0
M  V30 14474 H 1320.94 3.45915 2.40668 0
M  V30 14475 H 1319.67 2.21649 2.39873 0
M  V30 14476 H 1318.33 3.58557 0.763726 0
M  V30 14477 H 1317.97 3.86053 3.22447 0
M  V30 14478 H 1317.67 5.38463 2.35227 0
M  V30 14479 H 1319.2 5.16403 3.25823 0
M  V30 14480 H 1320.61 5.63845 1.03689 0
M  V30 14481 H 1319.01 5.99197 0.329073 0
M  V30 14482 H 1320.08 4.82614 -0.470273 0
M  V30 14483 N 1321.42 0.00503138 1.57599 0
M  V30 14484 C 1322.7 -0.716079 1.82021 0
M  V30 14485 C 1323.08 -1.91707 0.883829 0
M  V30 14486 O 1322.43 -2.28404 -0.0662812 0
M  V30 14487 C 1322.64 -1.11706 3.3064 0
M  V30 14488 C 1323.98 -1.51881 3.96506 0
M  V30 14489 O 1325.01 -1.21071 3.34993 0
M  V30 14490 O 1323.87 -2.09191 5.04877 0
M  V30 14491 H 1320.96 -0.349112 0.7497 0
M  V30 14492 H 1323.51 0.030871 1.69672 0
M  V30 14493 H 1322.28 -0.261223 3.90427 0
M  V30 14494 H 1321.9 -1.92295 3.48006 0
M  V30 14495 N 1322.9 -1.55308 -0.267798 0
M  V30 14496 C 1324.32 -1.47264 -0.61526 0
M  V30 14497 C 1324.52 -0.691025 -1.8928 0
M  V30 14498 O 1323.57 -0.211964 -2.51609 0
M  V30 14499 C 1324.88 -2.91519 -0.73739 0
M  V30 14500 C 1326.43 -3.01764 -0.831102 0
M  V30 14501 C 1326.91 -4.47283 -0.984965 0
M  V30 14502 N 1328.4 -4.51134 -1.05036 0
M  V30 14503 C 1329.13 -5.60952 -1.1883 0
M  V30 14504 N 1328.63 -6.80625 -1.29311 0
M  V30 14505 N 1330.42 -5.48705 -1.21982 0
M  V30 14506 H 1322.57 -2.04577 0.57114 0
M  V30 14507 H 1324.84 -0.927908 0.194141 0
M  V30 14508 H 1324.54 -3.51456 0.130974 0
M  V30 14509 H 1324.42 -3.40829 -1.61603 0
M  V30 14510 H 1326.8 -2.4192 -1.68993 0
M  V30 14511 H 1326.88 -2.55698 0.0722509 0
M  V30 14512 H 1326.53 -5.07732 -0.130776 0
M  V30 14513 H 1326.46 -4.91011 -1.90305 0
M  V30 14514 H 1328.95 -3.6493 -0.981551 0
M  V30 14515 H 1329.26 -7.60071 -1.39685 0
M  V30 14516 H 1327.61 -6.83426 -1.26306 0
M  V30 14517 H 1330.8 -4.5415 -1.13428 0
M  V30 14518 H 1330.97 -6.34332 -1.32388 0
M  V30 14519 N 1324.38 0.532545 -1.4833 0
M  V30 14520 C 1325.34 1.61955 -1.62183 0
M  V30 14521 C 1326.34 1.52982 -0.495281 0
M  V30 14522 O 1327.53 1.56698 -0.761005 0
M  V30 14523 C 1324.66 3.0157 -1.58961 0
M  V30 14524 H 1325.86 1.51013 -2.59105 0
M  V30 14525 H 1323.41 0.754405 -1.36888 0
M  V30 14526 H 1324.14 3.18021 -0.635069 0
M  V30 14527 H 1323.93 3.09491 -2.40744 0
M  V30 14528 H 1325.42 3.80604 -1.71843 0
M  V30 14529 N 1325.86 1.36875 0.78122 0
M  V30 14530 C 1327.1 1.30886 1.53466 0
M  V30 14531 C 1327.42 -0.107218 1.95306 0
M  V30 14532 O 1328.62 -0.289525 2.69952 0
M  V30 14533 C 1327.08 2.29688 2.77076 0
M  V30 14534 C 1326.69 3.76775 2.42373 0
M  V30 14535 C 1328.43 2.32692 3.55042 0
M  V30 14536 C 1326.34 4.67332 3.62428 0
M  V30 14537 H 1325.27 0.486408 0.576128 0
M  V30 14538 H 1327.92 1.62283 0.856529 0
M  V30 14539 H 1326.3 1.91296 3.4673 0
M  V30 14540 H 1327.48 4.2395 1.80563 0
M  V30 14541 H 1325.79 3.76625 1.77602 0
M  V30 14542 H 1328.39 2.97556 4.44257 0
M  V30 14543 H 1328.73 1.33779 3.94219 0
M  V30 14544 H 1329.26 2.69743 2.92375 0
M  V30 14545 H 1326 5.67339 3.2834 0
M  V30 14546 H 1325.52 4.24868 4.23376 0
M  V30 14547 H 1327.2 4.84005 4.29358 0
M  V30 14548 N 1327.33 -1.00632 1.21289 0
M  V30 14549 C 1328.24 -2.12829 0.986957 0
M  V30 14550 C 1329.26 -1.73895 -0.0605152 0
M  V30 14551 O 1330.44 -2.00985 0.129238 0
M  V30 14552 C 1327.5 -3.4226 0.553089 0
M  V30 14553 C 1326.56 -3.95376 1.67262 0
M  V30 14554 C 1325.79 -5.18629 1.25936 0
M  V30 14555 O 1326.02 -5.70246 0.132402 0
M  V30 14556 O 1324.95 -5.65157 2.07077 0
M  V30 14557 H 1328.78 -2.34765 1.92663 0
M  V30 14558 H 1326.36 -1.11208 0.997654 0
M  V30 14559 H 1328.24 -4.20177 0.320856 0
M  V30 14560 H 1326.92 -3.21716 -0.357881 0
M  V30 14561 H 1325.83 -3.18692 1.95924 0
M  V30 14562 H 1327.16 -4.20328 2.56097 0
M  V30 14563 N 1328.81 -1.02043 -1.20104 0
M  V30 14564 C 1329.72 -0.603724 -2.26699 0
M  V30 14565 C 1330.74 0.360558 -1.70223 0
M  V30 14566 O 1331.91 0.220552 -2.00189 0
M  V30 14567 C 1328.98 0.0475988 -3.46667 0
M  V30 14568 C 1328.04 -0.963111 -4.18357 0
M  V30 14569 C 1327.27 -0.342775 -5.32598 0
M  V30 14570 O 1327.5 0.856509 -5.63933 0
M  V30 14571 O 1326.43 -1.06141 -5.92467 0
M  V30 14572 H 1330.26 -1.49125 -2.64566 0
M  V30 14573 H 1327.84 -0.790134 -1.26796 0
M  V30 14574 H 1329.72 0.411177 -4.19389 0
M  V30 14575 H 1328.4 0.909266 -3.10667 0
M  V30 14576 H 1327.3 -1.37813 -3.47791 0
M  V30 14577 H 1328.64 -1.79487 -4.58307 0
M  V30 14578 N 1330.29 1.35952 -0.797165 0
M  V30 14579 C 1331.54 1.99032 -0.373142 0
M  V30 14580 C 1331.87 1.63257 1.05723 0
M  V30 14581 O 1331.12 0.883022 1.74646 0
M  V30 14582 C 1331.42 3.53986 -0.492805 0
M  V30 14583 C 1331.09 4.09603 -1.88511 0
M  V30 14584 C 1329.75 4.24505 -2.26604 0
M  V30 14585 C 1332.1 4.39829 -2.79643 0
M  V30 14586 C 1329.43 4.66946 -3.55215 0
M  V30 14587 C 1331.78 4.83706 -4.0769 0
M  V30 14588 C 1330.44 4.96813 -4.45795 0
M  V30 14589 H 1329.71 0.728311 -0.136542 0
M  V30 14590 H 1332.36 1.62318 -1.01613 0
M  V30 14591 H 1330.67 3.91103 0.233661 0
M  V30 14592 H 1332.36 4.00735 -0.145638 0
M  V30 14593 H 1328.95 3.98449 -1.57912 0
M  V30 14594 H 1333.14 4.27878 -2.51464 0
M  V30 14595 H 1328.39 4.75282 -3.84599 0
M  V30 14596 H 1332.57 5.06057 -4.78414 0
M  V30 14597 H 1330.19 5.29458 -5.45507 0
M  V30 14598 N 1331.77 0.549846 1.47697 0
M  V30 14599 C 1333 0.0276889 2.06881 0
M  V30 14600 C 1333.41 -1.26273 1.40359 0
M  V30 14601 O 1332.77 -1.75584 0.497644 0
M  V30 14602 C 1332.82 -0.179291 3.61055 0
M  V30 14603 O 1332.54 1.06002 4.25083 0
M  V30 14604 C 1334.04 -0.739571 4.37087 0
M  V30 14605 H 1331.26 0.0425016 0.669653 0
M  V30 14606 H 1333.81 0.761158 1.89807 0
M  V30 14607 H 1331.96 -0.862867 3.77668 0
M  V30 14608 H 1332.37 0.853137 5.17515 0
M  V30 14609 H 1333.85 -0.833722 5.45668 0
M  V30 14610 H 1334.33 -1.74915 4.02867 0
M  V30 14611 H 1334.93 -0.0919294 4.25201 0
M  V30 14612 N 1333.25 -1.54984 0.285932 0
M  V30 14613 C 1334.18 -2.25916 -0.590259 0
M  V30 14614 C 1335.16 -1.25319 -1.15018 0
M  V30 14615 O 1336.34 -1.54062 -1.18231 0
M  V30 14616 C 1333.47 -2.98849 -1.76936 0
M  V30 14617 C 1332.43 -4.06466 -1.3405 0
M  V30 14618 C 1331.75 -4.67032 -2.60356 0
M  V30 14619 C 1333.05 -5.20064 -0.482754 0
M  V30 14620 H 1334.75 -2.994 0.00131571 0
M  V30 14621 H 1332.29 -1.44 0.00207281 0
M  V30 14622 H 1334.25 -3.47186 -2.3883 0
M  V30 14623 H 1332.97 -2.22918 -2.38694 0
M  V30 14624 H 1331.63 -3.58957 -0.7447 0
M  V30 14625 H 1331.28 -3.87757 -3.20396 0
M  V30 14626 H 1330.98 -5.39703 -2.32368 0
M  V30 14627 H 1332.5 -5.18124 -3.23079 0
M  V30 14628 H 1333.91 -5.64387 -1.00697 0
M  V30 14629 H 1332.31 -5.99363 -0.297291 0
M  V30 14630 H 1333.38 -4.82358 0.495861 0
M  V30 14631 N 1334.72 -0.0133892 -1.57594 0
M  V30 14632 C 1335.95 0.682855 -1.95836 0
M  V30 14633 C 1336.37 1.65763 -0.889049 0
M  V30 14634 O 1335.73 1.80665 0.151585 0
M  V30 14635 C 1335.78 1.37931 -3.33178 0
M  V30 14636 O 1334.88 2.49416 -3.28429 0
M  V30 14637 H 1334.23 0.180629 -0.638959 0
M  V30 14638 H 1336.76 -0.0705644 -2.04478 0
M  V30 14639 H 1336.77 1.73969 -3.69051 0
M  V30 14640 H 1335.44 0.664675 -4.10554 0
M  V30 14641 H 1334.02 2.15606 -3.04251 0
M  V30 14642 N 1336.2 1.55448 0.259558 0
M  V30 14643 C 1337.44 1.78444 0.996849 0
M  V30 14644 C 1337.81 0.580862 1.83003 0
M  V30 14645 O 1339.01 0.68934 2.59811 0
M  V30 14646 C 1337.28 3.06094 1.84502 0
M  V30 14647 S 1338.84 3.50263 2.64313 0
M  V30 14648 H 1335.66 0.626854 0.335523 0
M  V30 14649 H 1338.26 1.93683 0.265929 0
M  V30 14650 H 1336.96 3.91772 1.22241 0
M  V30 14651 H 1336.49 2.93558 2.61891 0
M  V30 14652 H 1338.51 3.10596 3.86968 0
M  V30 14653 N 1337.68 -0.524672 1.4861 0
M  V30 14654 C 1338.64 -1.61092 1.63039 0
M  V30 14655 C 1339.64 -1.52718 0.503387 0
M  V30 14656 O 1340.83 -1.56293 0.769304 0
M  V30 14657 C 1337.97 -3.00722 1.60558 0
M  V30 14658 H 1339.16 -1.49636 2.59902 0
M  V30 14659 H 1336.71 -0.747135 1.37287 0
M  V30 14660 H 1337.45 -3.1768 0.651926 0
M  V30 14661 H 1337.23 -3.0821 2.42382 0
M  V30 14662 H 1338.72 -3.79688 1.73859 0
M  V30 14663 N 1339.16 -1.37287 -0.77395 0
M  V30 14664 C 1340.41 -1.32112 -1.5294 0
M  V30 14665 C 1340.73 0.0946137 -1.9477 0
M  V30 14666 O 1340 1.03817 -1.66129 0
M  V30 14667 H 1338.58 -0.486047 -0.567245 0
M  V30 14668 H 1341.24 -1.71752 -0.921263 0
M  V30 14669 H 1340.34 -1.95873 -2.42982 0
M  V30 14670 N 1340.64 0.999871 -1.21821 0
M  V30 14671 C 1341.87 1.77148 -1.06312 0
M  V30 14672 C 1342.27 1.85142 0.389747 0
M  V30 14673 O 1341.62 1.31562 1.28207 0
M  V30 14674 C 1341.68 3.22367 -1.59122 0
M  V30 14675 C 1341.34 3.37937 -3.07649 0
M  V30 14676 C 1342.34 3.25808 -4.05148 0
M  V30 14677 C 1340.03 3.63213 -3.46961 0
M  V30 14678 C 1342.02 3.38729 -5.39946 0
M  V30 14679 C 1339.71 3.75775 -4.81909 0
M  V30 14680 C 1340.7 3.6354 -5.78211 0
M  V30 14681 O 1340.39 3.75694 -7.1071 0
M  V30 14682 H 1340.12 0.563396 -0.373578 0
M  V30 14683 H 1342.68 1.26627 -1.61724 0
M  V30 14684 H 1340.91 3.74047 -0.98111 0
M  V30 14685 H 1342.6 3.81219 -1.39379 0
M  V30 14686 H 1343.36 3.062 -3.76121 0
M  V30 14687 H 1339.24 3.71816 -2.72533 0
M  V30 14688 H 1342.79 3.29096 -6.15095 0
M  V30 14689 H 1338.68 3.94889 -5.1062 0
M  V30 14690 H 1339.45 3.9261 -7.18192 0
M  V30 14691 N 1342.11 1.02678 1.19562 0
M  V30 14692 C 1343.35 0.7307 1.90893 0
M  V30 14693 C 1343.72 -0.727166 1.77697 0
M  V30 14694 O 1344.92 -1.13623 2.43605 0
M  V30 14695 C 1343.19 1.16683 3.37816 0
M  V30 14696 S 1344.75 0.994271 4.27387 0
M  V30 14697 H 1341.57 0.266082 0.659334 0
M  V30 14698 H 1344.17 1.31617 1.44558 0
M  V30 14699 H 1342.87 2.22354 3.44945 0
M  V30 14700 H 1342.4 0.574559 3.89182 0
M  V30 14701 H 1344.42 -0.0963871 4.96106 0
M  V30 14702 N 1343.59 -1.35528 0.804364 0
M  V30 14703 C 1344.84 -1.99126 0.384261 0
M  V30 14704 C 1345.17 -1.63668 -1.0453 0
M  V30 14705 O 1344.45 -0.898896 -1.72482 0
M  V30 14706 C 1344.73 -3.55636 0.565278 0
M  V30 14707 C 1344.58 -4.00899 2.03961 0
M  V30 14708 C 1345.9 -4.40099 -0.0104301 0
M  V30 14709 H 1343.02 -0.723369 0.141092 0
M  V30 14710 H 1345.66 -1.60712 1.01348 0
M  V30 14711 H 1343.81 -3.88489 0.0296425 0
M  V30 14712 H 1345.48 -3.78465 2.63746 0
M  V30 14713 H 1343.73 -3.5189 2.53685 0
M  V30 14714 H 1344.4 -5.09785 2.11716 0
M  V30 14715 H 1346.87 -4.13692 0.446985 0
M  V30 14716 H 1345.75 -5.48705 0.146155 0
M  V30 14717 H 1346.01 -4.28096 -1.10392 0
M  V30 14718 N 1345.07 -0.557671 -1.47404 0
M  V30 14719 C 1346.03 0.179311 -2.28498 0
M  V30 14720 C 1347.03 0.842281 -1.36975 0
M  V30 14721 O 1348.22 0.698072 -1.59601 0
M  V30 14722 C 1345.36 1.26229 -3.16668 0
M  V30 14723 H 1346.55 -0.533033 -2.95125 0
M  V30 14724 H 1344.1 -0.314634 -1.531 0
M  V30 14725 H 1344.84 2.00702 -2.54733 0
M  V30 14726 H 1344.62 0.791712 -3.84024 0
M  V30 14727 H 1346.11 1.77991 -3.77768 0
M  V30 14728 N 1346.55 1.54831 -0.294147 0
M  V30 14729 C 1347.77 2.04873 0.32276 0
M  V30 14730 C 1348.2 1.17034 1.47257 0
M  V30 14731 O 1347.56 0.172949 1.80473 0
M  V30 14732 C 1347.61 3.52431 0.76319 0
M  V30 14733 O 1346.71 3.67635 1.86865 0
M  V30 14734 H 1346.05 0.660926 0.0638162 0
M  V30 14735 H 1348.58 1.99944 -0.433995 0
M  V30 14736 H 1348.59 3.94155 1.05385 0
M  V30 14737 H 1347.27 4.15827 -0.0779464 0
M  V30 14738 H 1345.84 3.37816 1.57907 0
M  V30 14739 N 1348.03 0.0217466 1.57585 0
M  V30 14740 C 1349.26 -0.667911 1.95506 0
M  V30 14741 C 1349.67 -1.66616 0.89642 0
M  V30 14742 O 1349.01 -1.83232 -0.131059 0
M  V30 14743 C 1349.07 -1.43696 3.29533 0
M  V30 14744 C 1348.73 -0.59787 4.53072 0
M  V30 14745 C 1349.73 0.12372 5.19753 0
M  V30 14746 C 1347.42 -0.53744 4.99417 0
M  V30 14747 C 1349.41 0.894491 6.31092 0
M  V30 14748 C 1347.1 0.237041 6.1064 0
M  V30 14749 C 1348.1 0.95172 6.76337 0
M  V30 14750 O 1347.78 1.71352 7.85426 0
M  V30 14751 H 1347.52 -0.189544 0.648883 0
M  V30 14752 H 1350.07 0.0755682 2.05261 0
M  V30 14753 H 1348.3 -2.22541 3.16247 0
M  V30 14754 H 1349.99 -2.01402 3.52409 0
M  V30 14755 H 1350.75 0.0863208 4.84923 0
M  V30 14756 H 1346.63 -1.08327 4.48092 0
M  V30 14757 H 1350.18 1.45285 6.82304 0
M  V30 14758 H 1346.07 0.276183 6.44909 0
M  V30 14759 H 1346.84 1.63252 8.02054 0
M  V30 14760 N 1349.51 -1.55583 -0.251311 0
M  V30 14761 C 1350.75 -1.77471 -0.981418 0
M  V30 14762 C 1351.08 -0.586228 -1.85141 0
M  V30 14763 O 1350.36 0.415623 -1.90007 0
M  V30 14764 C 1350.64 -3.09204 -1.84567 0
M  V30 14765 C 1350.5 -4.38448 -1.00417 0
M  V30 14766 C 1351.81 -3.37133 -2.82895 0
M  V30 14767 H 1348.93 -0.645664 -0.355369 0
M  V30 14768 H 1351.58 -1.88318 -0.252228 0
M  V30 14769 H 1349.73 -3.00087 -2.46738 0
M  V30 14770 H 1351.4 -4.5955 -0.40149 0
M  V30 14771 H 1349.64 -4.32703 -0.308365 0
M  V30 14772 H 1350.31 -5.26995 -1.64258 0
M  V30 14773 H 1352.79 -3.46183 -2.3086 0
M  V30 14774 H 1351.66 -4.30531 -3.40491 0
M  V30 14775 H 1351.92 -2.57829 -3.59133 0
M  V30 14776 N 1350.98 0.516783 -1.48886 0
M  V30 14777 C 1351.91 1.62897 -1.67292 0
M  V30 14778 C 1352.89 1.61903 -0.521671 0
M  V30 14779 O 1354.08 1.78892 -0.755728 0
M  V30 14780 C 1351.21 3.01444 -1.72478 0
M  V30 14781 C 1350.16 3.173 -2.87236 0
M  V30 14782 C 1349.49 4.5704 -2.77522 0
M  V30 14783 C 1350.79 2.98818 -4.28375 0
M  V30 14784 H 1352.48 1.47748 -2.60405 0
M  V30 14785 H 1350.03 0.709361 -1.25316 0
M  V30 14786 H 1351.98 3.79135 -1.83942 0
M  V30 14787 H 1350.71 3.17645 -0.759538 0
M  V30 14788 H 1349.37 2.4203 -2.75349 0
M  V30 14789 H 1349.01 4.70096 -1.78938 0
M  V30 14790 H 1348.71 4.68593 -3.54534 0
M  V30 14791 H 1350.24 5.36813 -2.90972 0
M  V30 14792 H 1351.65 3.66291 -4.41026 0
M  V30 14793 H 1350.05 3.21854 -5.06488 0
M  V30 14794 H 1351.12 1.95102 -4.43918 0
M  V30 14795 N 1352.46 1.37696 0.766659 0
M  V30 14796 C 1353.71 1.32922 1.52237 0
M  V30 14797 C 1354.03 -0.0842833 1.94818 0
M  V30 14798 O 1353.3 -1.02934 1.66677 0
M  V30 14799 H 1351.88 0.489049 0.564659 0
M  V30 14800 H 1354.54 1.72238 0.912142 0
M  V30 14801 H 1353.64 1.97158 2.4194 0
M  V30 14802 N 1353.94 -0.993397 1.22349 0
M  V30 14803 C 1355.19 -1.72707 1.04189 0
M  V30 14804 C 1355.5 -1.90963 -0.423381 0
M  V30 14805 O 1356.71 -2.61651 -0.724645 0
M  V30 14806 C 1355.16 -3.10739 1.81575 0
M  V30 14807 C 1354.77 -3.00415 3.32347 0
M  V30 14808 C 1356.52 -3.88155 1.71861 0
M  V30 14809 C 1354.42 -4.33598 4.02177 0
M  V30 14810 H 1353.35 -0.647556 0.386248 0
M  V30 14811 H 1356 -1.10902 1.46195 0
M  V30 14812 H 1354.39 -3.73222 1.32367 0
M  V30 14813 H 1355.56 -2.47099 3.88946 0
M  V30 14814 H 1353.87 -2.36482 3.42732 0
M  V30 14815 H 1356.47 -4.8673 2.21354 0
M  V30 14816 H 1356.81 -4.10726 0.678939 0
M  V30 14817 H 1357.35 -3.32347 2.18609 0
M  V30 14818 H 1354.09 -4.16226 5.06395 0
M  V30 14819 H 1353.61 -4.86829 3.50367 0
M  V30 14820 H 1355.29 -5.02348 4.07744 0
M  V30 14821 N 1355.42 -1.03311 -1.19015 0
M  V30 14822 C 1356.67 -0.730593 -1.88432 0
M  V30 14823 C 1356.99 0.743392 -1.80274 0
M  V30 14824 O 1356.26 1.5359 -1.21601 0
M  V30 14825 H 1354.84 -0.267253 -0.697556 0
M  V30 14826 H 1357.5 -1.30824 -1.44468 0
M  V30 14827 H 1356.59 -1.02867 -2.9466 0
M  V30 14828 N 1356.9 1.35099 -0.81154 0
M  V30 14829 C 1358.17 1.93009 -0.317289 0
M  V30 14830 C 1358.55 1.74101 1.19382 0
M  V30 14831 O 1357.9 1.11295 1.99564 0
M  V30 14832 C 1358.11 3.41191 -0.734123 0
M  V30 14833 C 1359.46 4.1834 -0.726437 0
M  V30 14834 O 1360.48 3.49727 -0.67598 0
M  V30 14835 O 1359.34 5.4077 -0.789291 0
M  V30 14836 H 1356.44 0.822707 -0.084153 0
M  V30 14837 H 1358.98 1.44145 -0.895569 0
M  V30 14838 H 1357.75 3.48705 -1.7754 0
M  V30 14839 H 1357.38 3.97384 -0.130919 0
M  V30 14840 N 1358.37 0.56548 1.47106 0
M  V30 14841 C 1359.79 0.225855 1.57994 0
M  V30 14842 C 1359.99 -1.27173 1.56299 0
M  V30 14843 O 1359.05 -2.05242 1.47078 0
M  V30 14844 C 1360.36 0.859829 2.88145 0
M  V30 14845 C 1361.91 0.831821 3.01744 0
M  V30 14846 C 1362.38 1.44502 4.34607 0
M  V30 14847 N 1363.87 1.40857 4.41263 0
M  V30 14848 C 1364.61 1.85258 5.42648 0
M  V30 14849 N 1364.1 2.37553 6.508 0
M  V30 14850 N 1365.9 1.76279 5.33744 0
M  V30 14851 H 1358.05 1.53837 1.46451 0
M  V30 14852 H 1360.31 0.642013 0.697512 0
M  V30 14853 H 1360.02 1.91264 2.95146 0
M  V30 14854 H 1359.89 0.357762 3.755 0
M  V30 14855 H 1362.28 -0.212319 2.94335 0
M  V30 14856 H 1362.36 1.37173 2.1591 0
M  V30 14857 H 1362 2.48827 4.42773 0
M  V30 14858 H 1361.93 0.880479 5.19187 0
M  V30 14859 H 1364.42 1.02614 3.63702 0
M  V30 14860 H 1364.74 2.69335 7.24347 0
M  V30 14861 H 1363.08 2.41569 6.51667 0
M  V30 14862 H 1366.27 1.35195 4.48152 0
M  V30 14863 H 1366.45 2.11199 6.12616 0
M  V30 14864 N 1359.85 -1.54672 0.302354 0
M  V30 14865 C 1360.8 -2.20281 -0.588245 0
M  V30 14866 C 1361.79 -1.17624 -1.09788 0
M  V30 14867 O 1362.98 -1.43338 -1.03842 0
M  V30 14868 C 1360.11 -2.94812 -1.759 0
M  V30 14869 C 1359.19 -4.04786 -1.26526 0
M  V30 14870 N 1359.58 -5.03425 -0.489625 0
M  V30 14871 C 1357.88 -4.18352 -1.54588 0
M  V30 14872 C 1358.58 -5.81259 -0.226538 0
M  V30 14873 N 1357.56 -5.37581 -0.806723 0
M  V30 14874 H 1361.36 -2.93898 0.0118911 0
M  V30 14875 H 1358.88 -1.62046 0.107181 0
M  V30 14876 H 1360.87 -3.40283 -2.40859 0
M  V30 14877 H 1359.53 -2.22712 -2.36282 0
M  V30 14878 H 1360.54 -5.17726 -0.134401 0
M  V30 14879 H 1357.22 -3.57458 -2.15709 0
M  V30 14880 H 1358.61 -6.70729 0.396499 0
M  V30 14881 N 1361.33 -0.0301034 -1.57571 0
M  V30 14882 C 1362.56 0.662045 -1.9655 0
M  V30 14883 C 1362.98 1.64811 -0.906581 0
M  V30 14884 O 1362.34 1.80816 0.132415 0
M  V30 14885 C 1362.39 1.34389 -3.34622 0
M  V30 14886 O 1361.49 2.45919 -3.31056 0
M  V30 14887 H 1360.83 0.173842 -0.640839 0
M  V30 14888 H 1363.36 -0.092248 -2.04392 0
M  V30 14889 H 1363.37 1.70045 -3.70875 0
M  V30 14890 H 1362.05 0.621092 -4.11236 0
M  V30 14891 H 1360.62 2.12367 -3.06521 0
M  V30 14892 N 1362.81 1.55714 0.243056 0
M  V30 14893 C 1364.09 1.68483 0.993614 0
M  V30 14894 C 1364.47 0.571112 2.03228 0
M  V30 14895 O 1363.81 -0.42491 2.24515 0
M  V30 14896 C 1364.02 3.0894 1.62349 0
M  V30 14897 C 1365.37 3.67663 2.12389 0
M  V30 14898 O 1366.4 3.11764 1.72283 0
M  V30 14899 O 1365.25 4.65664 2.8604 0
M  V30 14900 H 1362.35 0.685415 0.462747 0
M  V30 14901 H 1364.89 1.68043 0.236538 0
M  V30 14902 H 1363.67 3.81451 0.87241 0
M  V30 14903 H 1363.29 3.13407 2.44667 0
M  V30 14904 N 1364.29 -0.50888 1.49158 0
M  V30 14905 C 1365.23 -1.63216 1.6572 0
M  V30 14906 C 1366.23 -1.61117 0.523236 0
M  V30 14907 O 1367.43 -1.6572 0.702629 0
M  V30 14908 H 1363.81 -0.540909 0.522419 0
M  V30 14909 H 1365.78 -1.46397 2.6002 0
M  V30 14910 C 1364.53 -3.01393 1.73372 0
M  V30 14911 H 1363.85 -3.03711 2.6 0
M  V30 14912 H 1365.29 -3.79547 1.88998 0
M  V30 14913 C 1363.75 -3.33509 0.47683 0
M  V30 14914 O 1364.28 -3.99694 -0.400986 0
M  V30 14915 N 1362.49 -2.88579 0.342145 0
M  V30 14916 H 1362.03 -2.34894 1.05747 0
M  V30 14917 H 1361.99 -3.10435 -0.497757 0
M  V30 14918 N 1365.76 -1.381 -0.759346 0
M  V30 14919 C 1367.01 -1.33311 -1.51364 0
M  V30 14920 C 1367.33 0.0761325 -1.95452 0
M  V30 14921 O 1368.53 0.246541 -2.70378 0
M  V30 14922 C 1366.99 -2.34067 -2.73387 0
M  V30 14923 C 1366.6 -3.80583 -2.36348 0
M  V30 14924 C 1368.34 -2.38311 -3.51295 0
M  V30 14925 C 1366.25 -4.73039 -3.54948 0
M  V30 14926 H 1365.18 -0.495512 -0.568317 0
M  V30 14927 H 1367.83 -1.63625 -0.830602 0
M  V30 14928 H 1366.21 -1.96788 -3.43643 0
M  V30 14929 H 1367.38 -4.26769 -1.73796 0
M  V30 14930 H 1365.7 -3.79403 -1.71587 0
M  V30 14931 H 1368.3 -3.04586 -4.39467 0
M  V30 14932 H 1368.64 -1.40034 -3.92041 0
M  V30 14933 H 1369.17 -2.74361 -2.88047 0
M  V30 14934 H 1365.91 -5.7249 -3.19273 0
M  V30 14935 H 1365.43 -4.3155 -4.16563 0
M  V30 14936 H 1367.11 -4.90775 -4.21603 0
M  V30 14937 N 1367.24 0.986894 -1.22875 0
M  V30 14938 C 1368.18 2.07604 -0.947406 0
M  V30 14939 C 1369.15 1.62214 0.111904 0
M  V30 14940 O 1370.34 1.88488 -0.0209682 0
M  V30 14941 C 1367.46 3.3601 -0.42605 0
M  V30 14942 C 1366.51 4.00331 -1.47097 0
M  V30 14943 S 1367.34 4.40412 -3.04627 0
M  V30 14944 C 1368.5 5.7198 -2.54145 0
M  V30 14945 H 1368.73 2.31149 -1.86969 0
M  V30 14946 H 1366.27 1.1222 -1.06047 0
M  V30 14947 H 1368.22 4.10288 -0.131846 0
M  V30 14948 H 1366.88 3.10484 0.475211 0
M  V30 14949 H 1366.08 4.92809 -1.05618 0
M  V30 14950 H 1365.68 3.32403 -1.71418 0
M  V30 14951 H 1367.97 6.48602 -1.9576 0
M  V30 14952 H 1368.91 6.18293 -3.45137 0
M  V30 14953 H 1369.32 5.29669 -1.95221 0
M  V30 14954 N 1368.72 1.0394 1.18466 0
M  V30 14955 C 1369.97 0.743141 1.88694 0
M  V30 14956 C 1370.3 -0.727211 1.8007 0
M  V30 14957 O 1369.57 -1.53058 1.20014 0
M  V30 14958 C 1369.86 1.20829 3.39223 0
M  V30 14959 C 1369.71 2.74064 3.56664 0
M  V30 14960 C 1371.03 0.797348 4.32817 0
M  V30 14961 H 1368.15 0.271437 0.685194 0
M  V30 14962 H 1370.79 1.29119 1.39386 0
M  V30 14963 H 1368.94 0.742033 3.81348 0
M  V30 14964 H 1370.61 3.28717 3.2364 0
M  V30 14965 H 1368.86 3.1395 2.99362 0
M  V30 14966 H 1369.53 3.01668 4.62277 0
M  V30 14967 H 1372 1.19854 3.98465 0
M  V30 14968 H 1370.88 1.15057 5.36706 0
M  V30 14969 H 1371.14 -0.299601 4.41084 0
M  V30 14970 N 1370.2 -1.34667 0.818693 0
M  V30 14971 C 1371.15 -2.29595 0.235551 0
M  V30 14972 C 1372.12 -1.53389 -0.63727 0
M  V30 14973 O 1373.3 -1.81777 -0.579804 0
M  V30 14974 C 1370.44 -3.39843 -0.600043 0
M  V30 14975 C 1369.55 -4.30995 0.294553 0
M  V30 14976 C 1368.69 -5.28343 -0.550203 0
M  V30 14977 C 1367.73 -6.11132 0.344043 0
M  V30 14978 N 1366.86 -7.00582 -0.461392 0
M  V30 14979 H 1371.7 -2.78872 1.05044 0
M  V30 14980 H 1369.24 -1.37239 0.529517 0
M  V30 14981 H 1371.2 -4.02443 -1.09978 0
M  V30 14982 H 1369.83 -2.91811 -1.38008 0
M  V30 14983 H 1368.88 -3.69294 0.912483 0
M  V30 14984 H 1370.19 -4.89031 0.982341 0
M  V30 14985 H 1369.35 -5.96374 -1.11459 0
M  V30 14986 H 1368.09 -4.70833 -1.27151 0
M  V30 14987 H 1367.09 -5.42038 0.920608 0
M  V30 14988 H 1368.32 -6.70722 1.0634 0
M  V30 14989 H 1366.26 -6.45546 -1.16645 0
M  V30 14990 H 1366.18 -7.55813 0.168095 0
M  V30 14991 H 1367.45 -7.72946 -1.00867 0
M  V30 14992 N 1371.68 -0.573274 -1.46804 0
M  V30 14993 C 1372.62 0.165358 -2.30207 0
M  V30 14994 C 1373.59 0.89312 -1.40045 0
M  V30 14995 O 1374.78 0.885653 -1.68999 0
M  V30 14996 C 1371.92 1.17915 -3.2433 0
M  V30 14997 C 1371.03 0.455805 -4.29589 0
M  V30 14998 C 1370.17 1.45629 -5.10848 0
M  V30 14999 C 1369.21 0.718822 -6.07865 0
M  V30 15000 N 1368.34 1.66691 -6.82025 0
M  V30 15001 H 1373.18 -0.551947 -2.92844 0
M  V30 15002 H 1370.72 -0.28401 -1.44332 0
M  V30 15003 H 1372.68 1.77969 -3.77337 0
M  V30 15004 H 1371.31 1.86429 -2.63523 0
M  V30 15005 H 1370.36 -0.259584 -3.79513 0
M  V30 15006 H 1371.67 -0.121161 -4.98653 0
M  V30 15007 H 1370.83 2.1299 -5.68084 0
M  V30 15008 H 1369.56 2.06718 -4.41723 0
M  V30 15009 H 1368.57 0.0313773 -5.49791 0
M  V30 15010 H 1369.79 0.113452 -6.79005 0
M  V30 15011 H 1367.74 2.26608 -6.15617 0
M  V30 15012 H 1367.66 1.14251 -7.47317 0
M  V30 15013 H 1368.93 2.33117 -7.43826 0
M  V30 15014 N 1373.15 1.5451 -0.310553 0
M  V30 15015 C 1374.38 2.04739 0.29824 0
M  V30 15016 C 1374.8 1.18737 1.46788 0
M  V30 15017 O 1374.15 0.215114 1.81228 0
M  V30 15018 C 1374.21 3.53734 0.745274 0
M  V30 15019 O 1373.93 4.36468 -0.377826 0
M  V30 15020 C 1375.43 4.20001 1.41823 0
M  V30 15021 H 1372.65 0.667997 0.0634159 0
M  V30 15022 H 1375.19 1.9942 -0.452961 0
M  V30 15023 H 1373.35 3.59383 1.44648 0
M  V30 15024 H 1373.76 5.24492 -0.0280567 0
M  V30 15025 H 1375.23 5.25747 1.68209 0
M  V30 15026 H 1375.71 3.70319 2.36137 0
M  V30 15027 H 1376.32 4.18455 0.759951 0
M  V30 15028 N 1374.63 0.0384594 1.57553 0
M  V30 15029 C 1375.88 -0.636879 1.91803 0
M  V30 15030 C 1376.2 -1.72128 0.916347 0
M  V30 15031 O 1375.47 -1.95858 -0.0407405 0
M  V30 15032 H 1374.05 -0.238237 0.707992 0
M  V30 15033 H 1376.71 0.0884651 1.94699 0
M  V30 15034 H 1375.81 -1.08364 2.92683 0
M  V30 15035 N 1376.11 -1.55841 -0.234795 0
M  V30 15036 C 1377.04 -1.87793 -1.31402 0
M  V30 15037 C 1378.06 -0.765113 -1.43701 0
M  V30 15038 O 1379.25 -1.04332 -1.44834 0
M  V30 15039 C 1376.35 -2.05976 -2.69123 0
M  V30 15040 C 1375.52 -3.36914 -2.7894 0
M  V30 15041 C 1374.58 -3.44691 -3.97586 0
M  V30 15042 O 1373.6 -4.17818 -3.86545 0
M  V30 15043 N 1374.81 -2.74866 -5.11301 0
M  V30 15044 H 1377.57 -2.80957 -1.04324 0
M  V30 15045 H 1375.13 -1.56226 -0.424872 0
M  V30 15046 H 1377.12 -2.08507 -3.46853 0
M  V30 15047 H 1375.69 -1.195 -2.88857 0
M  V30 15048 H 1374.91 -3.46595 -1.87791 0
M  V30 15049 H 1376.2 -4.23196 -2.82458 0
M  V30 15050 H 1375.6 -2.15208 -5.23165 0
M  V30 15051 H 1374.16 -2.83075 -5.87122 0
M  V30 15052 N 1377.59 0.500963 -1.49426 0
M  V30 15053 C 1378.52 1.61114 -1.69011 0
M  V30 15054 C 1379.5 1.61341 -0.538813 0
M  V30 15055 O 1380.69 1.78081 -0.77466 0
M  V30 15056 C 1377.82 2.99598 -1.75666 0
M  V30 15057 C 1376.77 3.14236 -2.90585 0
M  V30 15058 C 1376.1 4.54071 -2.82354 0
M  V30 15059 C 1377.4 2.94258 -4.3152 0
M  V30 15060 H 1379.09 1.44978 -2.61957 0
M  V30 15061 H 1376.64 0.69603 -1.26061 0
M  V30 15062 H 1378.59 3.77163 -1.87953 0
M  V30 15063 H 1377.31 3.16822 -0.793186 0
M  V30 15064 H 1375.97 2.39096 -2.779 0
M  V30 15065 H 1375.62 4.68172 -1.83914 0
M  V30 15066 H 1375.32 4.64806 -3.59485 0
M  V30 15067 H 1376.84 5.33696 -2.96649 0
M  V30 15068 H 1378.26 3.61592 -4.44886 0
M  V30 15069 H 1376.65 3.16464 -5.09873 0
M  V30 15070 H 1377.72 1.90383 -4.45962 0
M  V30 15071 N 1379.07 1.38501 0.752011 0
M  V30 15072 C 1380.31 1.34795 1.51118 0
M  V30 15073 C 1380.64 -0.0615084 1.94403 0
M  V30 15074 O 1379.9 -1.03892 1.65846 0
M  V30 15075 C 1380.2 2.25111 2.77596 0
M  V30 15076 C 1379.86 3.73052 2.53265 0
M  V30 15077 C 1378.52 4.13365 2.46339 0
M  V30 15078 C 1380.88 4.66692 2.32051 0
M  V30 15079 C 1378.2 5.45406 2.16216 0
M  V30 15080 C 1380.56 5.98992 2.03448 0
M  V30 15081 C 1379.22 6.38388 1.94979 0
M  V30 15082 H 1378.49 0.49325 0.552979 0
M  V30 15083 H 1381.14 1.70872 0.864588 0
M  V30 15084 H 1379.44 1.82096 3.46913 0
M  V30 15085 H 1381.14 2.19547 3.3556 0
M  V30 15086 H 1377.73 3.41091 2.59528 0
M  V30 15087 H 1381.91 4.36392 2.3638 0
M  V30 15088 H 1377.17 5.7487 2.08168 0
M  V30 15089 H 1381.34 6.71091 1.86037 0
M  V30 15090 H 1378.97 7.40625 1.71402 0
M  V30 15091 N 1380.55 -0.980364 1.23396 0
M  V30 15092 C 1381.5 -2.05753 0.982323 0
M  V30 15093 C 1382.48 -1.6074 -0.0716939 0
M  V30 15094 O 1383.67 -1.76442 0.140438 0
M  V30 15095 C 1380.8 -3.38442 0.575481 0
M  V30 15096 C 1379.89 -3.90054 1.6649 0
M  V30 15097 N 1380.28 -4.14744 2.89519 0
M  V30 15098 C 1378.58 -4.18588 1.53949 0
M  V30 15099 C 1379.28 -4.56877 3.60053 0
M  V30 15100 N 1378.25 -4.61309 2.87567 0
M  V30 15101 H 1382.05 -2.22801 1.91669 0
M  V30 15102 H 1379.57 -1.16314 1.13335 0
M  V30 15103 H 1381.57 -4.15197 0.376477 0
M  V30 15104 H 1380.23 -3.22788 -0.351844 0
M  V30 15105 H 1381.24 -4.02566 3.25824 0
M  V30 15106 H 1377.91 -4.11937 0.679275 0
M  V30 15107 H 1379.3 -4.84498 4.65523 0
M  V30 15108 N 1382.02 -1.04567 -1.17913 0
M  V30 15109 C 1383.27 -0.747179 -1.8735 0
M  V30 15110 C 1383.59 0.728274 -1.81537 0
M  V30 15111 O 1384.79 1.14048 -2.46385 0
M  V30 15112 C 1383.25 -1.28629 -3.36129 0
M  V30 15113 C 1382.86 -2.79073 -3.5046 0
M  V30 15114 C 1384.6 -1.06455 -4.10935 0
M  V30 15115 C 1382.51 -3.26316 -4.93226 0
M  V30 15116 H 1381.44 -0.275807 -0.701745 0
M  V30 15117 H 1384.09 -1.26215 -1.33199 0
M  V30 15118 H 1382.47 -0.699151 -3.89779 0
M  V30 15119 H 1383.64 -3.43587 -3.07057 0
M  V30 15120 H 1381.96 -2.99716 -2.89066 0
M  V30 15121 H 1384.56 -1.3926 -5.16247 0
M  V30 15122 H 1384.9 -0.00201298 -4.163 0
M  V30 15123 H 1385.43 -1.61656 -3.63472 0
M  V30 15124 H 1382.17 -4.31972 -4.93032 0
M  V30 15125 H 1381.69 -2.6654 -5.37323 0
M  V30 15126 H 1383.37 -3.2063 -5.61966 0
M  V30 15127 N 1383.5 1.34231 -0.825823 0
M  V30 15128 C 1384.78 1.92662 -0.337743 0
M  V30 15129 C 1385.16 1.75358 1.17529 0
M  V30 15130 O 1384.51 1.13405 1.98372 0
M  V30 15131 C 1384.72 3.40394 -0.770269 0
M  V30 15132 C 1386.06 4.17546 -0.770767 0
M  V30 15133 O 1387.09 3.4899 -0.713035 0
M  V30 15134 O 1385.95 5.39903 -0.846602 0
M  V30 15135 H 1383.04 0.821768 -0.0928741 0
M  V30 15136 H 1385.59 1.43187 -0.910807 0
M  V30 15137 H 1384.36 3.46802 -1.81228 0
M  V30 15138 H 1383.98 3.97223 -0.17306 0
M  V30 15139 N 1384.98 0.581051 1.46498 0
M  V30 15140 C 1386.23 0.0659956 2.02392 0
M  V30 15141 C 1386.55 -1.29329 1.45273 0
M  V30 15142 O 1385.81 -1.86047 0.607041 0
M  V30 15143 C 1386.11 -0.0514774 3.57363 0
M  V30 15144 C 1385.77 1.24 4.33514 0
M  V30 15145 C 1384.44 1.59383 4.54038 0
M  V30 15146 C 1386.79 2.09473 4.77253 0
M  V30 15147 C 1384.12 2.8004 5.15552 0
M  V30 15148 C 1386.47 3.29355 5.401 0
M  V30 15149 C 1385.13 3.65022 5.58852 0
M  V30 15150 H 1384.4 0.0241495 0.740606 0
M  V30 15151 H 1387.05 0.757354 1.75887 0
M  V30 15152 H 1385.35 -0.825955 3.82995 0
M  V30 15153 H 1387.05 -0.465726 3.98286 0
M  V30 15154 H 1383.64 0.954547 4.17835 0
M  V30 15155 H 1387.83 1.83441 4.61154 0
M  V30 15156 H 1383.08 3.07814 5.28262 0
M  V30 15157 H 1387.26 3.95855 5.7295 0
M  V30 15158 H 1384.88 4.58607 6.06287 0
M  V30 15159 N 1386.46 -1.54343 0.318742 0
M  V30 15160 C 1387.71 -2.00084 -0.284713 0
M  V30 15161 C 1388.03 -1.20855 -1.53033 0
M  V30 15162 O 1387.3 -0.309104 -1.93446 0
M  V30 15163 H 1385.88 -0.739123 -0.108193 0
M  V30 15164 H 1388.54 -1.90002 0.434174 0
M  V30 15165 H 1387.63 -3.07314 -0.544459 0
M  V30 15166 N 1387.94 -0.0468143 -1.5753 0
M  V30 15167 C 1388.89 0.938619 -2.07783 0
M  V30 15168 C 1389.87 1.27454 -0.982057 0
M  V30 15169 O 1391.06 1.25769 -1.24544 0
M  V30 15170 C 1388.19 2.21499 -2.62285 0
M  V30 15171 C 1387.28 1.90665 -3.78824 0
M  V30 15172 N 1387.67 1.30174 -4.88762 0
M  V30 15173 C 1385.97 2.20559 -3.87646 0
M  V30 15174 C 1386.67 1.16872 -5.69838 0
M  V30 15175 N 1385.64 1.67016 -5.17307 0
M  V30 15176 H 1389.44 0.466179 -2.90179 0
M  V30 15177 H 1386.96 0.157752 -1.61632 0
M  V30 15178 H 1388.96 2.92987 -2.96588 0
M  V30 15179 H 1387.62 2.69353 -1.81326 0
M  V30 15180 H 1388.63 0.974495 -5.08649 0
M  V30 15181 H 1385.3 2.70964 -3.17623 0
M  V30 15182 H 1386.69 0.699463 -6.68249 0
M  V30 15183 N 1389.41 1.55964 0.226527 0
M  V30 15184 C 1390.66 1.77944 0.94967 0
M  V30 15185 C 1390.98 0.614478 1.85697 0
M  V30 15186 O 1392.18 0.717793 2.6184 0
M  V30 15187 C 1390.64 3.15108 1.73881 0
M  V30 15188 C 1390.25 4.39314 0.877894 0
M  V30 15189 C 1391.99 3.46418 2.45347 0
M  V30 15190 C 1389.9 5.67505 1.6641 0
M  V30 15191 H 1388.83 0.663412 0.35833 0
M  V30 15192 H 1391.48 1.82366 0.203695 0
M  V30 15193 H 1389.86 3.04849 2.52751 0
M  V30 15194 H 1391.03 4.60616 0.130089 0
M  V30 15195 H 1389.35 4.15487 0.2756 0
M  V30 15196 H 1391.95 4.39416 3.0466 0
M  V30 15197 H 1392.29 2.68685 3.17985 0
M  V30 15198 H 1392.82 3.57984 1.73471 0
M  V30 15199 H 1389.56 6.48116 0.981089 0
M  V30 15200 H 1389.08 5.50272 2.38665 0
M  V30 15201 H 1390.76 6.075 2.22605 0
M  V30 15202 N 1390.89 -0.493031 1.4969 0
M  V30 15203 C 1391.82 -1.60215 1.69863 0
M  V30 15204 C 1392.8 -1.61053 0.547362 0
M  V30 15205 O 1393.99 -1.77667 0.784093 0
M  V30 15206 C 1391.12 -2.98662 1.77252 0
M  V30 15207 C 1390.07 -3.1269 2.92248 0
M  V30 15208 C 1389.4 -4.52567 2.84758 0
M  V30 15209 C 1390.7 -2.91965 4.33074 0
M  V30 15210 H 1392.39 -1.43587 2.62723 0
M  V30 15211 H 1389.94 -0.689334 1.26429 0
M  V30 15212 H 1391.89 -3.7616 1.89951 0
M  V30 15213 H 1390.62 -3.16397 0.809976 0
M  V30 15214 H 1389.27 -2.37619 2.79164 0
M  V30 15215 H 1388.92 -4.6719 1.86394 0
M  V30 15216 H 1388.62 -4.62893 3.61944 0
M  V30 15217 H 1390.15 -5.32116 2.99475 0
M  V30 15218 H 1391.56 -3.59228 4.46798 0
M  V30 15219 H 1389.96 -3.13756 5.11544 0
M  V30 15220 H 1391.03 -1.88015 4.46966 0
M  V30 15221 N 1392.37 -1.38898 -0.744656 0
M  V30 15222 C 1393.62 -1.35327 -1.50104 0
M  V30 15223 C 1393.94 0.0532788 -1.94927 0
M  V30 15224 O 1393.21 1.0027 -1.68294 0
M  V30 15225 H 1391.79 -0.49797 -0.556808 0
M  V30 15226 H 1394.45 -1.73667 -0.884625 0
M  V30 15227 H 1393.55 -2.00983 -2.38773 0
M  V30 15228 N 1393.85 0.973806 -1.23914 0
M  V30 15229 C 1394.8 2.08861 -1.02372 0
M  V30 15230 C 1395.79 1.69354 0.039415 0
M  V30 15231 O 1397 1.79635 -0.114637 0
M  V30 15232 H 1393.37 0.683313 -0.313986 0
M  V30 15233 H 1395.34 2.24195 -1.96924 0
M  V30 15234 C 1394.09 3.41784 -0.638661 0
M  V30 15235 H 1393.41 3.72639 -1.44846 0
M  V30 15236 H 1394.85 4.20706 -0.527487 0
M  V30 15237 C 1393.31 3.30497 0.65369 0
M  V30 15238 O 1393.84 3.63905 1.70107 0
M  V30 15239 N 1392.05 2.83642 0.632104 0
M  V30 15240 H 1391.6 2.56654 -0.220571 0
M  V30 15241 H 1391.55 2.76472 1.49701 0
M  V30 15242 N 1395.33 1.05191 1.17357 0
M  V30 15243 C 1396.57 0.761984 1.87617 0
M  V30 15244 C 1396.9 -0.710976 1.8104 0
M  V30 15245 O 1396.16 -1.53566 1.21309 0
M  V30 15246 C 1396.46 1.18779 3.37085 0
M  V30 15247 C 1396.12 2.66296 3.63864 0
M  V30 15248 C 1394.78 3.06594 3.70882 0
M  V30 15249 C 1397.14 3.61622 3.75339 0
M  V30 15250 C 1394.46 4.41081 3.86865 0
M  V30 15251 C 1396.82 4.95842 3.9284 0
M  V30 15252 C 1395.48 5.35793 3.98097 0
M  V30 15253 H 1394.75 0.27883 0.686538 0
M  V30 15254 H 1397.4 1.31899 1.38834 0
M  V30 15255 H 1395.7 0.549782 3.87923 0
M  V30 15256 H 1397.4 0.940667 3.89811 0
M  V30 15257 H 1393.99 2.34089 3.59027 0
M  V30 15258 H 1398.17 3.31628 3.69238 0
M  V30 15259 H 1393.43 4.71536 3.89183 0
M  V30 15260 H 1397.6 5.696 4.00661 0
M  V30 15261 H 1395.23 6.40009 4.10234 0
M  V30 15262 N 1396.8 -1.33791 0.83293 0
M  V30 15263 C 1397.75 -2.29332 0.25989 0
M  V30 15264 C 1398.72 -1.54056 -0.620965 0
M  V30 15265 O 1399.91 -1.82382 -0.560492 0
M  V30 15266 C 1397.05 -3.40461 -0.563964 0
M  V30 15267 C 1396.16 -4.30658 0.34025 0
M  V30 15268 C 1395.29 -5.28897 -0.494134 0
M  V30 15269 C 1394.33 -6.10733 0.408842 0
M  V30 15270 N 1393.47 -7.01032 -0.38706 0
M  V30 15271 H 1398.31 -2.77743 1.07996 0
M  V30 15272 H 1395.85 -1.3667 0.544043 0
M  V30 15273 H 1397.81 -4.03587 -1.05704 0
M  V30 15274 H 1396.44 -2.93258 -1.34905 0
M  V30 15275 H 1395.49 -3.68305 0.9516 0
M  V30 15276 H 1396.8 -4.87962 1.03415 0
M  V30 15277 H 1395.95 -5.97522 -1.05128 0
M  V30 15278 H 1394.69 -4.72155 -1.2215 0
M  V30 15279 H 1393.7 -5.41031 0.978046 0
M  V30 15280 H 1394.92 -6.69557 1.13448 0
M  V30 15281 H 1392.87 -6.46747 -1.09792 0
M  V30 15282 H 1392.79 -7.55592 0.248249 0
M  V30 15283 H 1394.05 -7.73973 -0.926631 0
M  V30 15284 N 1398.28 -0.588812 -1.46187 0
M  V30 15285 C 1399.51 -0.0806571 -2.07243 0
M  V30 15286 C 1399.93 1.21766 -1.43369 0
M  V30 15287 O 1399.29 1.73694 -0.51964 0
M  V30 15288 C 1399.34 0.065267 -3.60541 0
M  V30 15289 O 1398.44 1.12026 -3.96893 0
M  V30 15290 H 1397.78 -0.0655622 -0.660755 0
M  V30 15291 H 1400.31 -0.813489 -1.87733 0
M  V30 15292 H 1400.32 0.269494 -4.07109 0
M  V30 15293 H 1399 -0.88284 -4.06422 0
M  V30 15294 H 1397.58 0.894 -3.62025 0
M  V30 15295 N 1399.76 1.54172 -0.326923 0
M  V30 15296 C 1400.71 2.24454 0.537501 0
M  V30 15297 C 1401.68 1.23658 1.10896 0
M  V30 15298 O 1402.86 1.52348 1.14868 0
M  V30 15299 C 1400 3.00839 1.69085 0
M  V30 15300 C 1399.12 4.16459 1.1483 0
M  V30 15301 C 1398.25 4.80368 2.26761 0
M  V30 15302 C 1397.29 5.88085 1.69771 0
M  V30 15303 N 1396.43 6.45842 2.75378 0
M  V30 15304 H 1401.27 2.97921 -0.0684022 0
M  V30 15305 H 1398.8 1.4703 -0.0455287 0
M  V30 15306 H 1400.76 3.43375 2.36959 0
M  V30 15307 H 1399.39 2.297 2.26799 0
M  V30 15308 H 1398.44 3.78683 0.361004 0
M  V30 15309 H 1399.76 4.93986 0.69132 0
M  V30 15310 H 1398.91 5.25889 3.02533 0
M  V30 15311 H 1397.65 4.02228 2.75796 0
M  V30 15312 H 1396.65 5.41963 0.924985 0
M  V30 15313 H 1397.88 6.68123 1.21609 0
M  V30 15314 H 1395.82 5.70574 3.23699 0
M  V30 15315 H 1395.74 7.18792 2.34253 0
M  V30 15316 H 1397.01 6.96018 3.50969 0
M  V30 15317 N 1401.24 0.0551678 1.57503 0
M  V30 15318 C 1402.49 -0.61772 1.92848 0
M  V30 15319 C 1402.81 -1.70614 0.933862 0
M  V30 15320 O 1402.07 -1.95628 -0.0532073 0
M  V30 15321 C 1402.37 -1.24895 3.34867 0
M  V30 15322 C 1402.03 -0.288325 4.49977 0
M  V30 15323 C 1400.7 -0.0240016 4.81194 0
M  V30 15324 C 1403.05 0.369804 5.19886 0
M  V30 15325 C 1400.38 0.905818 5.79665 0
M  V30 15326 C 1402.73 1.28784 6.19352 0
M  V30 15327 C 1401.39 1.5608 6.48996 0
M  V30 15328 H 1400.66 -0.22604 0.705682 0
M  V30 15329 H 1403.31 0.1225 1.91108 0
M  V30 15330 H 1401.61 -2.06452 3.32993 0
M  V30 15331 H 1403.31 -1.77659 3.59497 0
M  V30 15332 H 1399.9 -0.504524 4.2562 0
M  V30 15333 H 1404.08 0.178689 4.95978 0
M  V30 15334 H 1399.34 1.12472 6.00966 0
M  V30 15335 H 1403.51 1.80385 6.72632 0
M  V30 15336 H 1401.14 2.28292 7.25112 0
M  V30 15337 N 1402.72 -1.56081 -0.218252 0
M  V30 15338 C 1403.96 -1.78893 -0.940296 0
M  V30 15339 C 1404.29 -0.62425 -1.84738 0
M  V30 15340 O 1403.56 0.358686 -1.92588 0
M  V30 15341 H 1402.14 -0.659828 -0.350193 0
M  V30 15342 H 1404.8 -1.93546 -0.229316 0
M  V30 15343 H 1403.89 -2.71167 -1.54516 0
M  V30 15344 N 1404.2 0.485086 -1.49949 0
M  V30 15345 C 1405.44 1.23486 -1.5948 0
M  V30 15346 C 1405.76 1.93377 -0.294082 0
M  V30 15347 O 1406.96 2.70173 -0.268133 0
M  V30 15348 C 1405.42 2.24303 -2.81454 0
M  V30 15349 C 1405.03 1.60279 -4.18347 0
M  V30 15350 C 1406.77 3.0001 -3.00324 0
M  V30 15351 C 1404.68 2.593 -5.31524 0
M  V30 15352 H 1403.61 0.464595 -0.593858 0
M  V30 15353 H 1406.26 0.506893 -1.7636 0
M  V30 15354 H 1404.64 3.00332 -2.58102 0
M  V30 15355 H 1405.82 0.901352 -4.51899 0
M  V30 15356 H 1404.13 0.969053 -4.04967 0
M  V30 15357 H 1406.73 3.74091 -3.82048 0
M  V30 15358 H 1407.07 3.5857 -2.11502 0
M  V30 15359 H 1407.6 2.31095 -3.2379 0
M  V30 15360 H 1404.34 2.05498 -6.22455 0
M  V30 15361 H 1403.86 3.27638 -5.02408 0
M  V30 15362 H 1405.54 3.21411 -5.61519 0
M  V30 15363 N 1405.67 1.39291 0.737279 0
M  V30 15364 C 1406.62 1.37829 1.85127 0
M  V30 15365 C 1407.59 0.238321 1.64381 0
M  V30 15366 O 1408.78 0.433081 1.8582 0
M  V30 15367 C 1405.92 1.22531 3.22615 0
M  V30 15368 C 1405.03 2.46052 3.55081 0
M  V30 15369 C 1404.16 2.2336 4.81958 0
M  V30 15370 C 1403.2 3.42569 5.0726 0
M  V30 15371 N 1402.34 3.19209 6.2534 0
M  V30 15372 H 1407.18 2.33056 1.85712 0
M  V30 15373 H 1404.72 1.15772 0.907484 0
M  V30 15374 H 1406.67 1.11673 4.01976 0
M  V30 15375 H 1405.3 0.30934 3.21314 0
M  V30 15376 H 1404.36 2.67521 2.70438 0
M  V30 15377 H 1405.67 3.3485 3.69698 0
M  V30 15378 H 1404.82 2.09732 5.69295 0
M  V30 15379 H 1403.56 1.31953 4.6951 0
M  V30 15380 H 1402.57 3.56698 4.18386 0
M  V30 15381 H 1403.79 4.34874 5.21595 0
M  V30 15382 H 1401.74 2.30464 6.14184 0
M  V30 15383 H 1401.65 4.01562 6.40534 0
M  V30 15384 H 1402.92 3.09269 7.15523 0
M  V30 15385 N 1407.15 -0.967221 1.24429 0
M  V30 15386 C 1408.57 -1.23594 1.00979 0
M  V30 15387 C 1408.77 -1.99529 -0.281112 0
M  V30 15388 O 1407.82 -2.31977 -0.997139 0
M  V30 15389 C 1409.14 -2.02261 2.22511 0
M  V30 15390 C 1410.68 -2.15352 2.2714 0
M  V30 15391 C 1411.16 -2.97414 3.48294 0
M  V30 15392 N 1412.65 -3.04996 3.48614 0
M  V30 15393 C 1413.39 -3.68851 4.39017 0
M  V30 15394 N 1412.88 -4.34421 5.39676 0
M  V30 15395 N 1414.67 -3.65868 4.26728 0
M  V30 15396 H 1406.83 -0.458881 2.07384 0
M  V30 15397 H 1409.09 -0.265411 0.910088 0
M  V30 15398 H 1408.79 -1.53852 3.16263 0
M  V30 15399 H 1408.67 -3.02993 2.24667 0
M  V30 15400 H 1411.06 -2.62964 1.33919 0
M  V30 15401 H 1411.14 -1.13966 2.2901 0
M  V30 15402 H 1410.78 -2.50495 4.41831 0
M  V30 15403 H 1410.71 -3.98998 3.43668 0
M  V30 15404 H 1413.2 -2.58354 2.75793 0
M  V30 15405 H 1413.51 -4.80965 6.04891 0
M  V30 15406 H 1411.86 -4.33089 5.43562 0
M  V30 15407 H 1415.05 -3.13819 3.47325 0
M  V30 15408 H 1415.22 -4.15349 4.97382 0
M  V30 15409 N 1408.63 -1.05812 -1.16797 0
M  V30 15410 C 1409.54 -0.675541 -2.24663 0
M  V30 15411 C 1410.56 0.30622 -1.71284 0
M  V30 15412 O 1411.73 0.156752 -2.00789 0
M  V30 15413 C 1408.8 -0.0627149 -3.46643 0
M  V30 15414 C 1407.86 -1.09572 -4.15081 0
M  V30 15415 C 1407.09 -0.512044 -5.31238 0
M  V30 15416 O 1407.31 0.676665 -5.66372 0
M  V30 15417 O 1406.25 -1.24936 -5.88791 0
M  V30 15418 H 1410.07 -1.57467 -2.59688 0
M  V30 15419 H 1407.66 -0.830073 -1.24218 0
M  V30 15420 H 1409.54 0.277543 -4.20485 0
M  V30 15421 H 1408.22 0.80997 -3.13403 0
M  V30 15422 H 1407.12 -1.48807 -3.4323 0
M  V30 15423 H 1408.46 -1.93977 -4.52365 0
M  V30 15424 N 1410.11 1.33347 -0.840014 0
M  V30 15425 C 1411.52 1.50615 -0.52795 0
M  V30 15426 C 1411.72 1.77993 0.944493 0
M  V30 15427 O 1410.78 1.84087 1.72824 0
M  V30 15428 C 1412.09 2.66001 -1.40228 0
M  V30 15429 C 1413.64 2.79886 -1.40117 0
M  V30 15430 C 1414.12 3.98335 -2.26038 0
M  V30 15431 N 1415.61 4.05572 -2.23753 0
M  V30 15432 C 1416.34 4.96422 -2.86972 0
M  V30 15433 N 1415.84 5.9238 -3.59247 0
M  V30 15434 N 1417.63 4.89428 -2.76436 0
M  V30 15435 H 1409.78 1.13839 -1.79317 0
M  V30 15436 H 1412.04 0.559772 -0.765088 0
M  V30 15437 H 1411.75 2.52453 -2.44868 0
M  V30 15438 H 1411.62 3.61434 -1.07914 0
M  V30 15439 H 1414.01 2.92865 -0.362487 0
M  V30 15440 H 1414.09 1.85211 -1.76439 0
M  V30 15441 H 1413.74 3.86115 -3.29966 0
M  V30 15442 H 1413.67 4.92257 -1.87057 0
M  V30 15443 H 1416.16 3.36899 -1.71195 0
M  V30 15444 H 1416.47 6.58367 -4.04688 0
M  V30 15445 H 1414.82 5.92451 -3.63354 0
M  V30 15446 H 1418.01 4.13428 -2.19534 0
M  V30 15447 H 1418.18 5.60032 -3.25989 0
M  V30 15448 N 1411.59 0.596556 1.45873 0
M  V30 15449 C 1412.83 0.0875879 2.02611 0
M  V30 15450 C 1413.16 -1.27438 1.46538 0
M  V30 15451 O 1412.44 -1.83815 0.635779 0
M  V30 15452 C 1412.72 0.0367394 3.60081 0
M  V30 15453 C 1412.58 1.42859 4.26511 0
M  V30 15454 C 1413.89 -0.656795 4.35171 0
M  V30 15455 H 1411.01 0.0333031 0.736247 0
M  V30 15456 H 1413.66 0.766413 1.73857 0
M  V30 15457 H 1411.81 -0.541345 3.8471 0
M  V30 15458 H 1413.48 2.0529 4.13102 0
M  V30 15459 H 1411.72 1.99243 3.85337 0
M  V30 15460 H 1412.39 1.34535 5.35354 0
M  V30 15461 H 1414.87 -0.165553 4.15771 0
M  V30 15462 H 1413.74 -0.661445 5.449 0
M  V30 15463 H 1414 -1.72079 4.07236 0
M  V30 15464 N 1413.06 -1.53996 0.335095 0
M  V30 15465 C 1414.47 -1.86092 -0.15058 0
M  V30 15466 C 1414.83 -1.25652 -1.50685 0
M  V30 15467 O 1413.95 -0.566887 -2.08843 0
M  V30 15468 C 1414.55 -3.37641 -0.280007 0
M  V30 15469 C 1413.1 -3.69645 -0.709907 0
M  V30 15470 C 1412.25 -2.7683 0.161461 0
M  V30 15471 H 1415.2 -1.4868 0.554986 0
M  V30 15472 H 1415.22 -3.63981 -1.10896 0
M  V30 15473 H 1414.74 -3.81601 0.707254 0
M  V30 15474 H 1412.84 -3.31224 -1.7065 0
M  V30 15475 H 1412.95 -4.76424 -0.505661 0
M  V30 15476 H 1411.31 -2.52073 -0.364849 0
M  V30 15477 H 1412.1 -3.23618 1.1457 0
M  V30 15478 N 1414.54 -0.0635198 -1.57472 0
M  V30 15479 C 1415.79 0.607484 -1.93173 0
M  V30 15480 C 1416.12 1.70117 -0.942897 0
M  V30 15481 O 1415.37 1.95653 0.042832 0
M  V30 15482 C 1415.67 1.23117 -3.35525 0
M  V30 15483 C 1415.34 0.264457 -4.50124 0
M  V30 15484 C 1414 -0.00151762 -4.812 0
M  V30 15485 C 1416.35 -0.39737 -5.19683 0
M  V30 15486 C 1413.68 -0.936547 -5.79177 0
M  V30 15487 C 1416.03 -1.32067 -6.18661 0
M  V30 15488 C 1414.69 -1.59519 -6.48159 0
M  V30 15489 H 1413.96 0.222294 -0.706871 0
M  V30 15490 H 1416.61 -0.132633 -1.9104 0
M  V30 15491 H 1414.92 2.04684 -3.34084 0
M  V30 15492 H 1416.61 1.7575 -3.60434 0
M  V30 15493 H 1413.2 0.481945 -4.25882 0
M  V30 15494 H 1417.39 -0.20499 -4.95876 0
M  V30 15495 H 1412.64 -1.15658 -6.00361 0
M  V30 15496 H 1416.82 -1.83949 -6.71666 0
M  V30 15497 H 1414.44 -2.32134 -7.23891 0
M  V30 15498 N 1416.02 1.56195 0.209972 0
M  V30 15499 C 1417.27 1.78941 0.930744 0
M  V30 15500 C 1417.58 0.634139 1.85035 0
M  V30 15501 O 1418.79 0.745524 2.61064 0
M  V30 15502 C 1417.24 3.16935 1.70529 0
M  V30 15503 C 1416.85 4.40221 0.83125 0
M  V30 15504 C 1418.6 3.49 2.41659 0
M  V30 15505 C 1416.5 5.69238 1.60381 0
M  V30 15506 H 1415.43 0.667176 0.351273 0
M  V30 15507 H 1418.08 1.82572 0.184341 0
M  V30 15508 H 1416.47 3.07513 2.49503 0
M  V30 15509 H 1417.64 4.60728 0.081227 0
M  V30 15510 H 1415.95 4.15756 0.231517 0
M  V30 15511 H 1418.55 4.42623 2.99982 0
M  V30 15512 H 1418.89 2.72042 3.15117 0
M  V30 15513 H 1419.43 3.59804 1.69665 0
M  V30 15514 H 1416.17 6.49121 0.912292 0
M  V30 15515 H 1415.69 5.52772 2.32815 0
M  V30 15516 H 1417.37 6.09827 2.16149 0
M  V30 15517 N 1417.5 -0.477127 1.50204 0
M  V30 15518 C 1418.43 -1.58405 1.71552 0
M  V30 15519 C 1419.41 -1.60463 0.564413 0
M  V30 15520 O 1420.59 -1.76826 0.802893 0
M  V30 15521 C 1417.72 -2.96765 1.8041 0
M  V30 15522 C 1416.68 -3.09573 2.95548 0
M  V30 15523 C 1416 -4.49522 2.89542 0
M  V30 15524 C 1417.3 -2.87356 4.36147 0
M  V30 15525 H 1419 -1.40792 2.64231 0
M  V30 15526 H 1416.54 -0.675886 1.27153 0
M  V30 15527 H 1418.5 -3.74125 1.9393 0
M  V30 15528 H 1417.22 -3.1552 0.843489 0
M  V30 15529 H 1415.88 -2.34645 2.81669 0
M  V30 15530 H 1415.53 -4.65186 1.91339 0
M  V30 15531 H 1415.23 -4.59028 3.66834 0
M  V30 15532 H 1416.75 -5.28909 3.05102 0
M  V30 15533 H 1418.17 -3.54469 4.50583 0
M  V30 15534 H 1416.56 -3.08313 5.14843 0
M  V30 15535 H 1417.63 -1.83264 4.48935 0
M  V30 15536 N 1418.98 -1.3968 -0.729882 0
M  V30 15537 C 1420.2 -1.40467 -1.5191 0
M  V30 15538 C 1420.62 -0.000529943 -1.888 0
M  V30 15539 O 1419.98 0.972072 -1.54457 0
M  V30 15540 C 1420.03 -2.2823 -2.80345 0
M  V30 15541 O 1419.75 -3.63176 -2.4502 0
M  V30 15542 C 1421.25 -2.37455 -3.74339 0
M  V30 15543 H 1418.47 -0.479604 -0.469277 0
M  V30 15544 H 1421.01 -1.83558 -0.901484 0
M  V30 15545 H 1419.17 -1.88538 -3.38426 0
M  V30 15546 H 1419.58 -4.0964 -3.2756 0
M  V30 15547 H 1421.06 -3.031 -4.6134 0
M  V30 15548 H 1421.53 -1.39525 -4.16449 0
M  V30 15549 H 1422.14 -2.77638 -3.22176 0
M  V30 15550 N 1420.45 0.960609 -1.2494 0
M  V30 15551 C 1421.68 1.73676 -1.11894 0
M  V30 15552 C 1422.09 1.86288 0.330648 0
M  V30 15553 O 1421.44 1.35575 1.23957 0
M  V30 15554 C 1421.5 3.17142 -1.69297 0
M  V30 15555 C 1421.16 3.27978 -3.18244 0
M  V30 15556 C 1422.16 3.12754 -4.15308 0
M  V30 15557 C 1419.84 3.51991 -3.5834 0
M  V30 15558 C 1421.84 3.21379 -5.50449 0
M  V30 15559 C 1419.52 3.60253 -4.9362 0
M  V30 15560 C 1420.52 3.44961 -5.89484 0
M  V30 15561 O 1420.21 3.52893 -7.22303 0
M  V30 15562 H 1419.94 0.551226 -0.391313 0
M  V30 15563 H 1422.5 1.21418 -1.65671 0
M  V30 15564 H 1420.73 3.70736 -1.09961 0
M  V30 15565 H 1422.42 3.76592 -1.51437 0
M  V30 15566 H 1423.18 2.94079 -3.85672 0
M  V30 15567 H 1419.06 3.62957 -2.84224 0
M  V30 15568 H 1422.6 3.0936 -6.25254 0
M  V30 15569 H 1418.5 3.78444 -5.22925 0
M  V30 15570 H 1419.27 3.69563 -7.30319 0
M  V30 15571 N 1421.93 1.0643 1.16234 0
M  V30 15572 C 1423.21 0.695256 1.82827 0
M  V30 15573 C 1423.59 -0.823242 1.94386 0
M  V30 15574 O 1422.94 -1.73406 1.48804 0
M  V30 15575 C 1423.15 1.3988 3.19741 0
M  V30 15576 C 1424.5 1.54489 3.95498 0
M  V30 15577 O 1425.52 1.35882 3.29264 0
M  V30 15578 O 1424.38 1.85027 5.14225 0
M  V30 15579 H 1421.47 0.246285 0.789476 0
M  V30 15580 H 1424.02 1.16466 1.23426 0
M  V30 15581 H 1422.79 2.43419 3.06371 0
M  V30 15582 H 1422.41 0.91957 3.8682 0
M  V30 15583 N 1423.41 -1.329 0.847073 0
M  V30 15584 C 1424.66 -1.9751 0.446755 0
M  V30 15585 C 1424.99 -1.67069 -0.995905 0
M  V30 15586 O 1424.24 -0.947232 -1.71248 0
M  V30 15587 C 1424.54 -3.51913 0.623845 0
M  V30 15588 C 1424.21 -4.02324 2.03583 0
M  V30 15589 C 1422.87 -4.15802 2.42203 0
M  V30 15590 C 1425.22 -4.29147 2.95774 0
M  V30 15591 C 1422.55 -4.53441 3.72301 0
M  V30 15592 C 1424.9 -4.68242 4.25362 0
M  V30 15593 C 1423.56 -4.79925 4.63927 0
M  V30 15594 H 1422.83 -0.722742 0.163479 0
M  V30 15595 H 1425.48 -1.58435 1.07567 0
M  V30 15596 H 1423.79 -3.917 -0.0883447 0
M  V30 15597 H 1425.48 -3.99919 0.294268 0
M  V30 15598 H 1422.07 -3.92314 1.72591 0
M  V30 15599 H 1426.26 -4.1825 2.67171 0
M  V30 15600 H 1421.51 -4.60681 4.01974 0
M  V30 15601 H 1425.69 -4.87952 4.96866 0
M  V30 15602 H 1423.31 -5.08847 5.64782 0
M  V30 15603 N 1424.89 -0.604284 -1.45555 0
M  V30 15604 C 1426.14 -0.0957836 -2.01472 0
M  V30 15605 C 1426.45 1.28016 -1.47889 0
M  V30 15606 O 1427.66 1.88121 -1.95762 0
M  V30 15607 C 1426.11 -0.120566 -3.59698 0
M  V30 15608 C 1425.72 -1.49616 -4.22278 0
M  V30 15609 C 1427.46 0.332865 -4.23193 0
M  V30 15610 C 1425.37 -1.4775 -5.72646 0
M  V30 15611 H 1424.3 -0.0320399 -0.753319 0
M  V30 15612 H 1426.95 -0.759125 -1.67061 0
M  V30 15613 H 1425.33 0.609365 -3.91283 0
M  V30 15614 H 1426.51 -2.24753 -4.02272 0
M  V30 15615 H 1424.82 -1.89141 -3.70965 0
M  V30 15616 H 1427.42 0.365951 -5.33446 0
M  V30 15617 H 1427.76 1.35487 -3.93635 0
M  V30 15618 H 1428.3 -0.343692 -3.96313 0
M  V30 15619 H 1425.04 -2.47701 -6.06898 0
M  V30 15620 H 1424.56 -0.768659 -5.94854 0
M  V30 15621 H 1426.23 -1.19971 -6.3578 0
M  V30 15622 N 1426.37 1.53816 -0.343257 0
M  V30 15623 C 1427.32 2.21763 0.529635 0
M  V30 15624 C 1428.3 1.20494 1.06631 0
M  V30 15625 O 1429.49 1.46041 1.00006 0
M  V30 15626 C 1426.62 2.99372 1.68022 0
M  V30 15627 C 1425.71 4.07999 1.1575 0
M  V30 15628 N 1426.1 5.04546 0.355979 0
M  V30 15629 C 1424.4 4.22304 1.43442 0
M  V30 15630 C 1425.1 5.81655 0.0723481 0
M  V30 15631 N 1424.07 5.39531 0.66391 0
M  V30 15632 H 1427.88 2.93763 -0.0898087 0
M  V30 15633 H 1425.39 1.61705 -0.150107 0
M  V30 15634 H 1427.39 3.4655 2.31752 0
M  V30 15635 H 1426.05 2.28899 2.30294 0
M  V30 15636 H 1427.06 5.179 -0.00291228 0
M  V30 15637 H 1423.73 3.63051 2.06155 0
M  V30 15638 H 1425.12 6.69442 -0.574192 0
M  V30 15639 N 1427.84 0.0718701 1.57436 0
M  V30 15640 C 1429.09 -0.598116 1.93779 0
M  V30 15641 C 1429.42 -1.69258 0.952131 0
M  V30 15642 O 1428.7 -1.94491 -0.0186426 0
M  V30 15643 C 1428.98 -1.17499 3.40391 0
M  V30 15644 C 1428.83 -0.0871719 4.49716 0
M  V30 15645 C 1430.15 -2.08047 3.8782 0
M  V30 15646 H 1427.27 -0.215954 0.704651 0
M  V30 15647 H 1429.91 0.137854 1.89499 0
M  V30 15648 H 1428.06 -1.80221 3.44169 0
M  V30 15649 H 1429.74 0.545906 4.58058 0
M  V30 15650 H 1427.98 0.582213 4.29875 0
M  V30 15651 H 1428.65 -0.531202 5.49438 0
M  V30 15652 H 1431.13 -1.5526 3.86049 0
M  V30 15653 H 1430 -2.45345 4.91016 0
M  V30 15654 H 1430.26 -2.98879 3.25766 0
M  V30 15655 N 1429.32 -1.56304 -0.201686 0
M  V30 15656 C 1430.57 -1.79433 -0.921241 0
M  V30 15657 C 1430.88 -0.643943 -1.84696 0
M  V30 15658 O 1432.09 -0.759359 -2.60665 0
M  V30 15659 C 1430.55 -3.17835 -1.68846 0
M  V30 15660 C 1430.15 -4.40655 -0.807892 0
M  V30 15661 C 1431.9 -3.50277 -2.39805 0
M  V30 15662 C 1429.81 -5.7008 -1.5736 0
M  V30 15663 H 1428.74 -0.669029 -0.34773 0
M  V30 15664 H 1431.39 -1.82667 -0.174657 0
M  V30 15665 H 1429.77 -3.08832 -2.47869 0
M  V30 15666 H 1430.94 -4.60765 -0.0567923 0
M  V30 15667 H 1429.26 -4.15873 -0.209465 0
M  V30 15668 H 1431.85 -4.44207 -2.97631 0
M  V30 15669 H 1432.2 -2.7371 -3.1367 0
M  V30 15670 H 1432.73 -3.60698 -1.67754 0
M  V30 15671 H 1429.47 -6.49595 -0.877855 0
M  V30 15672 H 1428.99 -5.53999 -2.2988 0
M  V30 15673 H 1430.67 -6.10964 -2.12912 0
M  V30 15674 N 1430.8 0.469154 -1.50455 0
M  V30 15675 C 1431.73 1.58443 -1.65615 0
M  V30 15676 C 1432.75 1.53668 -0.537584 0
M  V30 15677 O 1433.93 1.59021 -0.810832 0
M  V30 15678 C 1431.03 2.97327 -1.62634 0
M  V30 15679 C 1430.21 3.2695 -2.90555 0
M  V30 15680 C 1429.27 4.45398 -2.80191 0
M  V30 15681 O 1428.29 4.45611 -3.54146 0
M  V30 15682 N 1429.49 5.47167 -1.93878 0
M  V30 15683 H 1432.26 1.45854 -2.61814 0
M  V30 15684 H 1429.82 0.657604 -1.47943 0
M  V30 15685 H 1431.81 3.74537 -1.53311 0
M  V30 15686 H 1430.38 3.03675 -0.741624 0
M  V30 15687 H 1429.6 2.38335 -3.13991 0
M  V30 15688 H 1430.89 3.43554 -3.75297 0
M  V30 15689 H 1430.29 5.49817 -1.33109 0
M  V30 15690 H 1428.85 6.23353 -1.90457 0
M  V30 15691 N 1432.28 1.40065 0.722464 0
M  V30 15692 C 1433.21 1.35695 1.84715 0
M  V30 15693 C 1434.22 0.263522 1.60653 0
M  V30 15694 O 1435.41 0.523382 1.70655 0
M  V30 15695 C 1432.51 1.08722 3.20987 0
M  V30 15696 C 1431.69 2.29586 3.72302 0
M  V30 15697 C 1430.74 1.98879 4.87169 0
M  V30 15698 O 1429.77 2.71681 5.00178 0
M  V30 15699 N 1430.97 0.962554 5.72464 0
M  V30 15700 H 1433.74 2.32621 1.88964 0
M  V30 15701 H 1431.3 1.3433 0.903723 0
M  V30 15702 H 1433.29 0.861772 3.95418 0
M  V30 15703 H 1431.86 0.204869 3.11928 0
M  V30 15704 H 1431.08 2.68004 2.8908 0
M  V30 15705 H 1432.37 3.10176 4.03322 0
M  V30 15706 H 1431.77 0.359452 5.64557 0
M  V30 15707 H 1430.32 0.797003 6.46909 0
M  V30 15708 N 1433.76 -0.95397 1.25448 0
M  V30 15709 C 1435.01 -1.6953 1.10018 0
M  V30 15710 C 1435.33 -1.9166 -0.359385 0
M  V30 15711 O 1434.6 -1.50417 -1.25506 0
M  V30 15712 H 1433.18 -0.628238 0.404136 0
M  V30 15713 H 1435.84 -1.14691 1.57581 0
M  V30 15714 H 1434.93 -2.67427 1.60901 0
M  V30 15715 N 1435.24 -1.07045 -1.15668 0
M  V30 15716 C 1436.18 -0.688004 -2.20307 0
M  V30 15717 C 1437.15 0.319081 -1.63006 0
M  V30 15718 O 1438.34 0.206239 -1.89682 0
M  V30 15719 C 1435.48 -0.0886692 -3.44986 0
M  V30 15720 C 1434.59 -1.14685 -4.16499 0
M  V30 15721 C 1433.73 -0.512852 -5.28719 0
M  V30 15722 C 1432.76 -1.55404 -5.92044 0
M  V30 15723 N 1431.9 -0.942848 -6.9574 0
M  V30 15724 H 1436.74 -1.58469 -2.52372 0
M  V30 15725 H 1434.28 -0.792184 -1.23947 0
M  V30 15726 H 1436.24 0.276415 -4.16283 0
M  V30 15727 H 1434.87 0.77139 -3.13448 0
M  V30 15728 H 1433.92 -1.62955 -3.43729 0
M  V30 15729 H 1435.23 -1.93643 -4.59678 0
M  V30 15730 H 1434.38 -0.0952274 -6.06625 0
M  V30 15731 H 1433.12 0.308524 -4.86723 0
M  V30 15732 H 1432.13 -1.98148 -5.12852 0
M  V30 15733 H 1433.35 -2.37765 -6.36117 0
M  V30 15734 H 1431.3 -0.142319 -6.55846 0
M  V30 15735 H 1431.22 -1.6697 -7.37331 0
M  V30 15736 H 1432.48 -0.550621 -7.77553 0
M  V30 15737 N 1436.71 1.32449 -0.85411 0
M  V30 15738 C 1437.94 2.01463 -0.471188 0
M  V30 15739 C 1438.36 1.64195 0.931954 0
M  V30 15740 O 1437.71 0.862994 1.60806 0
M  V30 15741 C 1437.76 3.56486 -0.600022 0
M  V30 15742 O 1437.49 3.92414 -1.94789 0
M  V30 15743 C 1438.99 4.42773 -0.216036 0
M  V30 15744 H 1436.21 0.644914 -0.185275 0
M  V30 15745 H 1438.75 1.6904 -1.1509 0
M  V30 15746 H 1436.91 3.87387 0.0319488 0
M  V30 15747 H 1437.32 4.87133 -1.94427 0
M  V30 15748 H 1438.79 5.50843 -0.357186 0
M  V30 15749 H 1439.27 4.31025 0.843468 0
M  V30 15750 H 1439.88 4.1726 -0.823058 0
M  V30 15751 N 1438.19 0.611994 1.45232 0
M  V30 15752 C 1439.44 0.108696 2.01807 0
M  V30 15753 C 1439.76 -1.26692 1.48237 0
M  V30 15754 O 1439.03 -1.8378 0.678368 0
M  V30 15755 H 1437.61 0.0371921 0.746074 0
M  V30 15756 H 1440.27 0.794386 1.77976 0
M  V30 15757 H 1439.37 0.0618207 3.12039 0
M  V30 15758 N 1439.67 -1.53632 0.351409 0
M  V30 15759 C 1440.62 -2.26782 -0.516983 0
M  V30 15760 C 1441.61 -1.29222 -1.09536 0
M  V30 15761 O 1442.82 -1.46901 -1.04019 0
M  V30 15762 H 1439.19 -0.728783 -0.185417 0
M  V30 15763 H 1441.16 -2.98151 0.121909 0
M  V30 15764 C 1439.91 -3.05943 -1.6521 0
M  V30 15765 H 1439.24 -3.80848 -1.21633 0
M  V30 15766 H 1440.68 -3.60328 -2.23472 0
M  V30 15767 C 1439.13 -2.15917 -2.58614 0
M  V30 15768 O 1439.66 -1.76049 -3.61067 0
M  V30 15769 N 1437.87 -1.80837 -2.27478 0
M  V30 15770 H 1437.42 -2.13456 -1.44202 0
M  V30 15771 H 1437.38 -1.20886 -2.90231 0
M  V30 15772 N 1441.15 -0.0802183 -1.57396 0
M  V30 15773 C 1442.38 0.595754 -1.98137 0
M  V30 15774 C 1442.79 1.62638 -0.958871 0
M  V30 15775 O 1442.15 1.82422 0.0534316 0
M  V30 15776 C 1442.2 1.2568 -3.38949 0
M  V30 15777 O 1441.92 0.267417 -4.37283 0
M  V30 15778 C 1443.42 2.0198 -3.94612 0
M  V30 15779 H 1440.64 0.160853 -0.651435 0
M  V30 15780 H 1443.18 -0.155111 -2.03911 0
M  V30 15781 H 1441.34 1.9587 -3.34236 0
M  V30 15782 H 1441.75 0.742695 -5.19215 0
M  V30 15783 H 1443.23 2.43613 -4.95335 0
M  V30 15784 H 1443.7 2.87973 -3.31614 0
M  V30 15785 H 1444.31 1.36639 -4.02753 0
M  V30 15786 N 1442.63 1.56409 0.193394 0
M  V30 15787 C 1443.54 1.97886 1.26009 0
M  V30 15788 C 1444.55 0.886786 1.49707 0
M  V30 15789 O 1445.73 1.19267 1.62288 0
M  V30 15790 C 1442.79 2.31145 2.58404 0
M  V30 15791 C 1441.85 3.54069 2.42763 0
M  V30 15792 C 1441.09 3.85732 3.68845 0
M  V30 15793 O 1441.31 3.18662 4.73086 0
M  V30 15794 O 1440.24 4.79155 3.64272 0
M  V30 15795 H 1444.07 2.88849 0.938087 0
M  V30 15796 H 1441.65 1.43987 0.398528 0
M  V30 15797 H 1443.54 2.53606 3.36544 0
M  V30 15798 H 1442.21 1.4335 2.90228 0
M  V30 15799 H 1441.12 3.36854 1.62728 0
M  V30 15800 H 1442.45 4.42335 2.15871 0
M  V30 15801 N 1444.1 -0.461169 1.50702 0
M  V30 15802 C 1445.05 -1.5579 1.70288 0
M  V30 15803 C 1446.02 -1.5693 0.544251 0
M  V30 15804 O 1447.21 -1.74308 0.77597 0
M  V30 15805 C 1444.35 -2.93694 1.81212 0
M  V30 15806 C 1443.46 -3.02267 3.0864 0
M  V30 15807 C 1442.59 -4.31147 3.103 0
M  V30 15808 C 1441.63 -4.33498 4.32141 0
M  V30 15809 N 1440.77 -5.53864 4.31484 0
M  V30 15810 H 1445.61 -1.38393 2.63915 0
M  V30 15811 H 1443.15 -0.6727 1.30817 0
M  V30 15812 H 1445.1 -3.73679 1.85526 0
M  V30 15813 H 1443.73 -3.09703 0.91015 0
M  V30 15814 H 1442.79 -2.15093 3.1375 0
M  V30 15815 H 1444.1 -2.99864 3.98601 0
M  V30 15816 H 1443.25 -5.19487 3.13398 0
M  V30 15817 H 1441.99 -4.36172 2.18186 0
M  V30 15818 H 1441 -3.43554 4.29245 0
M  V30 15819 H 1442.22 -4.30156 5.25493 0
M  V30 15820 H 1440.17 -5.59657 3.42229 0
M  V30 15821 H 1440.08 -5.53244 5.15225 0
M  V30 15822 H 1441.35 -6.44302 4.38742 0
M  V30 15823 N 1445.58 -1.40446 -0.715026 0
M  V30 15824 C 1446.83 -1.38754 -1.47491 0
M  V30 15825 C 1447.16 0.0099443 -1.94497 0
M  V30 15826 O 1446.41 0.99458 -1.68543 0
M  V30 15827 C 1446.71 -2.32392 -2.7153 0
M  V30 15828 C 1446.38 -3.79635 -2.43286 0
M  V30 15829 C 1445.04 -4.19751 -2.35293 0
M  V30 15830 C 1447.39 -4.72681 -2.19596 0
M  V30 15831 C 1444.72 -5.50947 -2.01679 0
M  V30 15832 C 1447.07 -6.04176 -1.87495 0
M  V30 15833 C 1445.73 -6.43333 -1.77985 0
M  V30 15834 H 1445 -0.507738 -0.539706 0
M  V30 15835 H 1447.65 -1.73104 -0.81898 0
M  V30 15836 H 1445.96 -1.91229 -3.41963 0
M  V30 15837 H 1447.65 -2.28366 -3.29621 0
M  V30 15838 H 1444.24 -3.47852 -2.50393 0
M  V30 15839 H 1448.43 -4.42506 -2.24727 0
M  V30 15840 H 1443.68 -5.80187 -1.92854 0
M  V30 15841 H 1447.86 -6.75788 -1.68179 0
M  V30 15842 H 1445.48 -7.44909 -1.51706 0
M  V30 15843 N 1447.06 0.947303 -1.25952 0
M  V30 15844 C 1448.31 1.68945 -1.10915 0
M  V30 15845 C 1448.63 1.91848 0.349216 0
M  V30 15846 O 1447.9 1.5108 1.24706 0
M  V30 15847 H 1446.48 0.626086 -0.407462 0
M  V30 15848 H 1449.14 1.13854 -1.58187 0
M  V30 15849 H 1448.24 2.6657 -1.62317 0
M  V30 15850 N 1448.54 1.07657 1.15099 0
M  V30 15851 C 1449.95 0.802696 1.37945 0
M  V30 15852 C 1450.15 -0.591622 1.92619 0
M  V30 15853 O 1449.21 -1.34979 2.13394 0
M  V30 15854 C 1450.52 1.87907 2.34759 0
M  V30 15855 C 1452.07 1.90418 2.48415 0
M  V30 15856 C 1452.55 2.97148 3.48521 0
M  V30 15857 N 1454.04 2.96271 3.56059 0
M  V30 15858 C 1454.77 3.75498 4.33346 0
M  V30 15859 N 1454.27 4.64583 5.1394 0
M  V30 15860 N 1456.06 3.63831 4.28466 0
M  V30 15861 H 1448.21 1.97578 0.779537 0
M  V30 15862 H 1450.48 0.856978 0.405331 0
M  V30 15863 H 1450.18 2.8811 2.01707 0
M  V30 15864 H 1450.06 1.74183 3.34575 0
M  V30 15865 H 1452.44 0.908655 2.80762 0
M  V30 15866 H 1452.52 2.0822 1.48586 0
M  V30 15867 H 1452.17 3.96903 3.16908 0
M  V30 15868 H 1452.1 2.76593 4.48112 0
M  V30 15869 H 1454.59 2.31697 2.98538 0
M  V30 15870 H 1454.9 5.2166 5.70167 0
M  V30 15871 H 1453.25 4.6863 5.13236 0
M  V30 15872 H 1456.44 2.93609 3.6457 0
M  V30 15873 H 1456.61 4.25818 4.8845 0
M  V30 15874 N 1450.02 -1.31994 0.861122 0
M  V30 15875 C 1451.26 -1.97025 0.467678 0
M  V30 15876 C 1451.59 -1.68116 -0.978129 0
M  V30 15877 O 1450.85 -0.965342 -1.70234 0
M  V30 15878 C 1451.15 -3.51232 0.661135 0
M  V30 15879 C 1450.81 -4.00142 2.07839 0
M  V30 15880 C 1449.47 -4.1321 2.466 0
M  V30 15881 C 1451.83 -4.25986 3.00309 0
M  V30 15882 C 1449.15 -4.49467 3.7709 0
M  V30 15883 C 1451.51 -4.63704 4.30304 0
M  V30 15884 C 1450.17 -4.74978 4.68991 0
M  V30 15885 H 1449.44 -0.720967 0.171136 0
M  V30 15886 H 1452.09 -1.57285 1.09242 0
M  V30 15887 H 1450.39 -3.91772 -0.0467947 0
M  V30 15888 H 1452.09 -3.99584 0.336669 0
M  V30 15889 H 1448.68 -3.90461 1.76743 0
M  V30 15890 H 1452.86 -4.15393 2.71592 0
M  V30 15891 H 1448.12 -4.56391 4.06838 0
M  V30 15892 H 1452.29 -4.82654 5.02014 0
M  V30 15893 H 1449.92 -5.02828 5.70147 0
M  V30 15894 N 1451.49 -0.619688 -1.44906 0
M  V30 15895 C 1452.91 -0.284338 -1.57047 0
M  V30 15896 C 1453.11 1.21284 -1.60911 0
M  V30 15897 O 1452.17 1.99642 -1.54594 0
M  V30 15898 C 1453.48 -0.966179 -2.84755 0
M  V30 15899 C 1455.03 -0.943239 -2.98449 0
M  V30 15900 C 1455.5 -1.60532 -4.28945 0
M  V30 15901 N 1456.99 -1.57138 -4.35732 0
M  V30 15902 C 1457.73 -2.05271 -5.35399 0
M  V30 15903 N 1457.22 -2.61543 -6.41535 0
M  V30 15904 N 1459.02 -1.95967 -5.26833 0
M  V30 15905 H 1451.17 -1.59167 -1.40641 0
M  V30 15906 H 1453.43 -0.667458 -0.673204 0
M  V30 15907 H 1453.14 -2.02086 -2.87844 0
M  V30 15908 H 1453.01 -0.49688 -3.73913 0
M  V30 15909 H 1455.4 0.102932 -2.9492 0
M  V30 15910 H 1455.48 -1.45092 -2.1067 0
M  V30 15911 H 1455.12 -2.65088 -4.33233 0
M  V30 15912 H 1455.05 -1.07256 -5.15561 0
M  V30 15913 H 1457.54 -1.16042 -3.59643 0
M  V30 15914 H 1457.86 -2.96033 -7.13852 0
M  V30 15915 H 1456.2 -2.65588 -6.42252 0
M  V30 15916 H 1459.39 -1.51734 -4.42825 0
M  V30 15917 H 1459.57 -2.33791 -6.04356 0
M  V30 15918 N 1452.97 1.53444 -0.359552 0
M  V30 15919 C 1453.9 2.23121 0.524379 0
M  V30 15920 C 1454.92 1.24324 1.05106 0
M  V30 15921 O 1456.11 1.50584 0.958476 0
M  V30 15922 C 1453.21 2.91055 1.7361 0
M  V30 15923 C 1452.38 4.16306 1.34195 0
M  V30 15924 C 1451.44 4.67504 2.41508 0
M  V30 15925 O 1450.46 5.3133 2.04149 0
M  V30 15926 N 1451.67 4.44801 3.73005 0
M  V30 15927 H 1454.43 2.99612 -0.072427 0
M  V30 15928 H 1451.99 1.60846 -0.184438 0
M  V30 15929 H 1453.98 3.22216 2.44865 0
M  V30 15930 H 1452.55 2.18052 2.23991 0
M  V30 15931 H 1451.77 3.91513 0.459501 0
M  V30 15932 H 1453.06 4.97746 1.05483 0
M  V30 15933 H 1452.46 3.9379 4.06136 0
M  V30 15934 H 1451.02 4.80528 4.40382 0
M  V30 15935 N 1454.45 0.0885642 1.57351 0
M  V30 15936 C 1455.69 -0.580127 1.95995 0
M  V30 15937 C 1456.05 -1.65754 0.969003 0
M  V30 15938 O 1457.26 -2.38297 1.2437 0
M  V30 15939 C 1455.53 -1.12689 3.3917 0
M  V30 15940 S 1457.09 -1.80836 3.99805 0
M  V30 15941 H 1453.9 -0.189492 0.685284 0
M  V30 15942 H 1456.51 0.166414 1.9479 0
M  V30 15943 H 1455.21 -0.331139 4.09062 0
M  V30 15944 H 1454.74 -1.90941 3.43955 0
M  V30 15945 H 1456.76 -3.09211 3.88076 0
M  V30 15946 N 1455.93 -1.56509 -0.185096 0
M  V30 15947 C 1457.17 -1.82997 -0.910576 0
M  V30 15948 C 1457.53 -0.667514 -1.80023 0
M  V30 15949 O 1458.73 -0.812514 -2.56226 0
M  V30 15950 C 1457 -3.14549 -1.69688 0
M  V30 15951 S 1458.56 -3.62474 -2.47301 0
M  V30 15952 H 1455.38 -0.642148 -0.305233 0
M  V30 15953 H 1457.98 -1.94731 -0.173217 0
M  V30 15954 H 1456.69 -3.97158 -1.0341 0
M  V30 15955 H 1456.22 -3.05719 -2.47587 0
M  V30 15956 H 1458.23 -3.28705 -3.71709 0
M  V30 15957 N 1457.41 0.45317 -1.50944 0
M  V30 15958 C 1458.32 1.57435 -1.73929 0
M  V30 15959 C 1459.33 1.62467 -0.622935 0
M  V30 15960 O 1460.51 1.80004 -0.903365 0
M  V30 15961 C 1457.57 2.93534 -1.84495 0
M  V30 15962 C 1456.63 2.98747 -3.083 0
M  V30 15963 C 1455.87 4.28354 -3.18352 0
M  V30 15964 O 1456.09 5.1986 -2.34738 0
M  V30 15965 O 1455.02 4.39527 -4.11217 0
M  V30 15966 H 1458.85 1.40959 -2.69006 0
M  V30 15967 H 1456.44 0.634545 -1.35255 0
M  V30 15968 H 1458.32 3.74336 -1.93522 0
M  V30 15969 H 1456.99 3.10171 -0.926044 0
M  V30 15970 H 1455.9 2.16958 -3.04762 0
M  V30 15971 H 1457.23 2.87051 -3.99828 0
M  V30 15972 N 1458.88 1.40823 0.707568 0
M  V30 15973 C 1460.16 1.3003 1.46122 0
M  V30 15974 C 1460.54 -0.0776873 2.10957 0
M  V30 15975 O 1459.89 -1.09109 2.00767 0
M  V30 15976 C 1460.1 2.44498 2.49042 0
M  V30 15977 C 1461.45 2.85106 3.14642 0
M  V30 15978 O 1462.47 2.44149 2.59364 0
M  V30 15979 O 1461.33 3.55892 4.14733 0
M  V30 15980 H 1458.42 0.511082 0.650172 0
M  V30 15981 H 1460.97 1.52761 0.739062 0
M  V30 15982 H 1459.74 3.36502 1.99705 0
M  V30 15983 H 1459.37 2.23579 3.28783 0
M  V30 15984 N 1460.36 -0.94061 1.26453 0
M  V30 15985 C 1461.33 -2.02096 1.0812 0
M  V30 15986 C 1462.33 -1.60773 0.0293393 0
M  V30 15987 O 1463.52 -1.72051 0.272796 0
M  V30 15988 C 1460.65 -3.34749 0.644646 0
M  V30 15989 H 1461.84 -2.19792 2.04038 0
M  V30 15990 H 1459.39 -1.11965 1.09058 0
M  V30 15991 H 1460.13 -3.22752 -0.316509 0
M  V30 15992 H 1459.91 -3.66095 1.40416 0
M  V30 15993 H 1461.4 -4.14117 0.538233 0
M  V30 15994 N 1461.84 -1.08266 -1.14527 0
M  V30 15995 C 1463.07 -0.831673 -1.89121 0
M  V30 15996 C 1463.48 0.619702 -1.78763 0
M  V30 15997 O 1462.82 1.43748 -1.14377 0
M  V30 15998 C 1462.88 -1.17276 -3.39833 0
M  V30 15999 C 1462.55 -2.62662 -3.73975 0
M  V30 16000 C 1463.54 -3.60913 -3.74216 0
M  V30 16001 C 1461.23 -2.9848 -4.03999 0
M  V30 16002 C 1463.22 -4.93012 -4.04002 0
M  V30 16003 C 1460.91 -4.30773 -4.33448 0
M  V30 16004 C 1461.91 -5.27849 -4.33433 0
M  V30 16005 O 1461.6 -6.57765 -4.6217 0
M  V30 16006 H 1461.33 -0.299687 -0.60594 0
M  V30 16007 H 1463.88 -1.44498 -1.45978 0
M  V30 16008 H 1462.11 -0.502458 -3.83422 0
M  V30 16009 H 1463.8 -0.902831 -3.95732 0
M  V30 16010 H 1464.57 -3.34585 -3.5111 0
M  V30 16011 H 1460.45 -2.23561 -4.03164 0
M  V30 16012 H 1463.99 -5.68776 -4.03906 0
M  V30 16013 H 1459.89 -4.5685 -4.56024 0
M  V30 16014 H 1460.66 -6.63057 -4.79893 0
M  V30 16015 N 1463.32 1.31536 -0.86811 0
M  V30 16016 C 1464.25 2.31037 -0.33822 0
M  V30 16017 C 1465.23 1.60269 0.569892 0
M  V30 16018 O 1466.42 1.87987 0.487305 0
M  V30 16019 C 1463.55 3.44203 0.462753 0
M  V30 16020 C 1462.5 4.26549 -0.3521 0
M  V30 16021 C 1461.83 5.31605 0.574443 0
M  V30 16022 C 1463.13 4.97665 -1.58516 0
M  V30 16023 H 1464.82 2.75607 -1.16967 0
M  V30 16024 H 1462.37 1.325 -0.56389 0
M  V30 16025 H 1464.32 4.12862 0.843967 0
M  V30 16026 H 1463.04 2.98396 1.32769 0
M  V30 16027 H 1461.7 3.59555 -0.715237 0
M  V30 16028 H 1461.35 4.82048 1.43661 0
M  V30 16029 H 1461.05 5.87591 0.0331436 0
M  V30 16030 H 1462.57 6.03124 0.952541 0
M  V30 16031 H 1463.99 5.58931 -1.27549 0
M  V30 16032 H 1462.38 5.63437 -2.06539 0
M  V30 16033 H 1463.45 4.24756 -2.33902 0
M  V30 16034 N 1464.8 0.627364 1.44575 0
M  V30 16035 C 1466.05 0.127824 2.01295 0
M  V30 16036 C 1466.36 -1.25647 1.49907 0
M  V30 16037 O 1467.57 -1.84982 1.9873 0
M  V30 16038 C 1466.02 0.177775 3.59461 0
M  V30 16039 C 1465.63 1.56315 4.19845 0
M  V30 16040 C 1467.37 -0.265497 4.23669 0
M  V30 16041 C 1465.28 1.56842 5.70223 0
M  V30 16042 H 1464.21 0.0440205 0.752714 0
M  V30 16043 H 1466.86 0.785607 1.65833 0
M  V30 16044 H 1465.24 -0.547038 3.92203 0
M  V30 16045 H 1466.42 2.31125 3.98645 0
M  V30 16046 H 1464.73 1.95019 3.67909 0
M  V30 16047 H 1467.33 -0.281038 5.33961 0
M  V30 16048 H 1467.67 -1.29208 3.95741 0
M  V30 16049 H 1468.21 0.406698 3.95716 0
M  V30 16050 H 1464.94 2.57325 6.0288 0
M  V30 16051 H 1464.46 0.863198 5.93556 0
M  V30 16052 H 1466.14 1.30071 6.33791 0
M  V30 16053 N 1466.28 -1.53251 0.367684 0
M  V30 16054 C 1467.21 -2.28728 -0.469676 0
M  V30 16055 C 1468.19 -1.3124 -1.08213 0
M  V30 16056 O 1469.37 -1.60112 -1.09898 0
M  V30 16057 C 1466.5 -3.07808 -1.60846 0
M  V30 16058 C 1465.46 -4.13 -1.12315 0
M  V30 16059 C 1464.78 -4.80176 -2.35234 0
M  V30 16060 C 1466.08 -5.21892 -0.2064 0
M  V30 16061 H 1467.78 -2.98972 0.160019 0
M  V30 16062 H 1465.32 -1.43786 0.0784011 0
M  V30 16063 H 1467.27 -3.59358 -2.20091 0
M  V30 16064 H 1466 -2.35258 -2.26542 0
M  V30 16065 H 1464.66 -3.62399 -0.553378 0
M  V30 16066 H 1464.31 -4.04196 -2.99391 0
M  V30 16067 H 1464.01 -5.51261 -2.03433 0
M  V30 16068 H 1465.53 -5.34521 -2.9516 0
M  V30 16069 H 1466.94 -5.68932 -0.706386 0
M  V30 16070 H 1465.34 -6.00096 0.0208362 0
M  V30 16071 H 1466.41 -4.79051 0.750851 0
M  V30 16072 N 1467.75 -0.0969077 -1.57302 0
M  V30 16073 C 1469.17 0.25974 -1.57472 0
M  V30 16074 C 1469.37 1.6829 -1.10818 0
M  V30 16075 O 1468.43 2.39972 -0.785466 0
M  V30 16076 C 1469.74 0.0465211 -3.00664 0
M  V30 16077 C 1471.29 0.114131 -3.12792 0
M  V30 16078 C 1471.76 -0.0711175 -4.57945 0
M  V30 16079 N 1473.25 -0.0163438 -4.63197 0
M  V30 16080 C 1473.99 -0.1349 -5.73241 0
M  V30 16081 N 1473.48 -0.308391 -6.92113 0
M  V30 16082 N 1475.28 -0.0760411 -5.62049 0
M  V30 16083 H 1467.43 -1.02673 -1.85935 0
M  V30 16084 H 1469.69 -0.402528 -0.858298 0
M  V30 16085 H 1469.4 -0.936496 -3.39002 0
M  V30 16086 H 1469.27 0.78805 -3.68876 0
M  V30 16087 H 1471.66 1.08765 -2.74325 0
M  V30 16088 H 1471.74 -0.658918 -2.47168 0
M  V30 16089 H 1471.38 -1.04152 -4.97106 0
M  V30 16090 H 1471.31 0.721647 -5.21632 0
M  V30 16091 H 1473.8 0.115134 -3.77725 0
M  V30 16092 H 1474.12 -0.390318 -7.71814 0
M  V30 16093 H 1472.46 -0.344082 -6.94148 0
M  V30 16094 H 1475.65 0.0583778 -4.68064 0
M  V30 16095 H 1475.83 -0.171884 -6.47772 0
M  V30 16096 N 1469.23 1.56605 0.176793 0
M  V30 16097 C 1470.65 1.50601 0.528354 0
M  V30 16098 C 1470.85 0.800205 1.8493 0
M  V30 16099 O 1469.9 0.358299 2.49945 0
M  V30 16100 C 1471.22 2.95322 0.566172 0
M  V30 16101 C 1472.76 3.06097 0.653751 0
M  V30 16102 C 1473.24 4.52265 0.722511 0
M  V30 16103 N 1474.73 4.5649 0.785548 0
M  V30 16104 C 1475.47 5.66926 0.859232 0
M  V30 16105 N 1474.96 6.87006 0.894088 0
M  V30 16106 N 1476.75 5.54883 0.897832 0
M  V30 16107 H 1468.91 2.00899 -0.689442 0
M  V30 16108 H 1471.17 0.915011 -0.24791 0
M  V30 16109 H 1470.87 3.50095 -0.33566 0
M  V30 16110 H 1470.75 3.49671 1.41456 0
M  V30 16111 H 1473.14 2.51361 1.54601 0
M  V30 16112 H 1473.22 2.54842 -0.221207 0
M  V30 16113 H 1472.86 5.0763 -0.165469 0
M  V30 16114 H 1472.79 5.01271 1.61353 0
M  V30 16115 H 1475.28 3.70032 0.767117 0
M  V30 16116 H 1475.59 7.66922 0.951333 0
M  V30 16117 H 1473.94 6.89628 0.862457 0
M  V30 16118 H 1477.13 4.5999 0.867564 0
M  V30 16119 H 1477.3 6.40972 0.951795 0
M  V30 16120 N 1470.71 -0.445159 1.51182 0
M  V30 16121 C 1471.66 -1.53798 1.68316 0
M  V30 16122 C 1472.64 -1.51666 0.537244 0
M  V30 16123 O 1473.84 -1.58251 0.792818 0
M  V30 16124 C 1470.96 -2.92053 1.80444 0
M  V30 16125 C 1470.05 -2.98971 3.00794 0
M  V30 16126 N 1470.44 -2.75648 4.24089 0
M  V30 16127 C 1468.74 -3.30127 2.99887 0
M  V30 16128 C 1469.44 -2.88206 5.05284 0
M  V30 16129 N 1468.42 -3.19538 4.39769 0
M  V30 16130 H 1472.22 -1.34506 2.61315 0
M  V30 16131 H 1469.73 -0.652341 1.48722 0
M  V30 16132 H 1471.73 -3.70663 1.90827 0
M  V30 16133 H 1470.39 -3.12372 0.886204 0
M  V30 16134 H 1471.4 -2.50727 4.53163 0
M  V30 16135 H 1468.08 -3.5627 2.17665 0
M  V30 16136 H 1469.47 -2.74194 6.13406 0
M  V30 16137 N 1472.19 -1.41197 -0.700089 0
M  V30 16138 C 1473.44 -1.40034 -1.45722 0
M  V30 16139 C 1473.76 -0.00876281 -1.94998 0
M  V30 16140 O 1473.03 0.948647 -1.71399 0
M  V30 16141 H 1471.61 -0.515433 -0.540683 0
M  V30 16142 H 1474.27 -1.76394 -0.828926 0
M  V30 16143 H 1473.36 -2.08477 -2.32258 0
M  V30 16144 N 1473.67 0.933891 -1.2695 0
M  V30 16145 C 1474.61 2.05498 -1.08964 0
M  V30 16146 C 1475.61 1.69394 -0.0144837 0
M  V30 16147 O 1476.81 1.79179 -0.171729 0
M  V30 16148 H 1473.19 0.672978 -0.335566 0
M  V30 16149 H 1475.16 2.17817 -2.03957 0
M  V30 16150 C 1473.91 3.39579 -0.747074 0
M  V30 16151 H 1473.23 3.67842 -1.56628 0
M  V30 16152 H 1474.67 4.18815 -0.661064 0
M  V30 16153 C 1473.13 3.3241 0.548214 0
M  V30 16154 O 1473.66 3.69132 1.58443 0
M  V30 16155 N 1471.87 2.85509 0.541545 0
M  V30 16156 H 1471.41 2.55822 -0.302112 0
M  V30 16157 H 1471.37 2.81095 1.4083 0
M  V30 16158 N 1475.14 1.08871 1.13951 0
M  V30 16159 C 1476.07 0.744715 2.21306 0
M  V30 16160 C 1477.05 -0.275019 1.67862 0
M  V30 16161 O 1478.24 -0.144339 1.93663 0
M  V30 16162 C 1475.37 0.158336 3.46939 0
M  V30 16163 C 1474.32 1.10695 4.13438 0
M  V30 16164 C 1473.65 0.382552 5.3333 0
M  V30 16165 C 1474.95 2.44704 4.61429 0
M  V30 16166 H 1476.64 1.6423 2.50337 0
M  V30 16167 H 1474.19 0.791088 1.20324 0
M  V30 16168 H 1476.14 -0.0943587 4.21294 0
M  V30 16169 H 1474.87 -0.774413 3.17286 0
M  V30 16170 H 1473.53 1.34482 3.41043 0
M  V30 16171 H 1473.17 -0.554153 4.99938 0
M  V30 16172 H 1472.87 1.01499 5.78767 0
M  V30 16173 H 1474.4 0.138023 6.10444 0
M  V30 16174 H 1475.81 2.25156 5.27236 0
M  V30 16175 H 1474.21 3.03684 5.17586 0
M  V30 16176 H 1475.28 3.05883 3.76249 0
M  V30 16177 N 1476.62 -1.31073 0.875073 0
M  V30 16178 C 1477.87 -1.96518 0.488549 0
M  V30 16179 C 1478.2 -1.69144 -0.960243 0
M  V30 16180 O 1477.45 -0.983344 -1.69201 0
M  V30 16181 C 1477.75 -3.50511 0.698351 0
M  V30 16182 C 1477.42 -3.97915 2.12071 0
M  V30 16183 C 1476.08 -4.10571 2.50968 0
M  V30 16184 C 1478.43 -4.22777 3.0481 0
M  V30 16185 C 1475.76 -4.45442 3.81836 0
M  V30 16186 C 1478.11 -4.59114 4.35198 0
M  V30 16187 C 1476.77 -4.69977 4.74002 0
M  V30 16188 H 1476.04 -0.719111 0.178773 0
M  V30 16189 H 1478.69 -1.56117 1.10904 0
M  V30 16190 H 1477 -3.918 -0.00523937 0
M  V30 16191 H 1478.69 -3.99205 0.379031 0
M  V30 16192 H 1475.28 -3.88565 1.80874 0
M  V30 16193 H 1479.47 -4.12489 2.75983 0
M  V30 16194 H 1474.72 -4.52051 4.11655 0
M  V30 16195 H 1478.9 -4.77303 5.07105 0
M  V30 16196 H 1476.52 -4.96753 5.75448 0
M  V30 16197 N 1478.1 -0.635022 -1.4424 0
M  V30 16198 C 1479.35 -0.138497 -2.01224 0
M  V30 16199 C 1479.66 1.2485 -1.50571 0
M  V30 16200 O 1480.87 1.83926 -1.99709 0
M  V30 16201 C 1479.32 -0.196836 -3.59361 0
M  V30 16202 C 1478.93 -1.58539 -4.1901 0
M  V30 16203 C 1480.68 0.243025 -4.23804 0
M  V30 16204 C 1478.58 -1.59864 -5.69384 0
M  V30 16205 H 1477.51 -0.0480117 -0.75247 0
M  V30 16206 H 1480.16 -0.794391 -1.65414 0
M  V30 16207 H 1478.55 0.526231 -3.92488 0
M  V30 16208 H 1479.72 -2.33236 -3.97414 0
M  V30 16209 H 1478.04 -1.96967 -3.66869 0
M  V30 16210 H 1480.63 0.252717 -5.34102 0
M  V30 16211 H 1480.98 1.27107 -3.96421 0
M  V30 16212 H 1481.51 -0.427678 -3.95494 0
M  V30 16213 H 1478.25 -2.60518 -6.01507 0
M  V30 16214 H 1477.77 -0.894664 -5.9309 0
M  V30 16215 H 1479.45 -1.3343 -6.33092 0
M  V30 16216 N 1479.58 1.53054 -0.375806 0
M  V30 16217 C 1480.81 2.0582 0.211135 0
M  V30 16218 C 1481.22 1.24856 1.4162 0
M  V30 16219 O 1480.58 0.291786 1.80152 0
M  V30 16220 C 1480.63 3.56577 0.594573 0
M  V30 16221 O 1480.35 4.34472 -0.562607 0
M  V30 16222 C 1481.85 4.25639 1.23882 0
M  V30 16223 H 1479.07 0.670085 0.0350268 0
M  V30 16224 H 1481.62 1.9732 -0.537135 0
M  V30 16225 H 1479.77 3.65194 1.29275 0
M  V30 16226 H 1480.18 5.23902 -0.250487 0
M  V30 16227 H 1481.66 5.32408 1.45759 0
M  V30 16228 H 1482.14 3.80001 2.20218 0
M  V30 16229 H 1482.74 4.21302 0.581786 0
M  V30 16230 N 1481.06 0.105248 1.57248 0
M  V30 16231 C 1481.99 -0.846915 2.176 0
M  V30 16232 C 1482.97 -1.28706 1.11216 0
M  V30 16233 O 1484.15 -1.35213 1.39396 0
M  V30 16234 C 1481.28 -2.10228 2.76445 0
M  V30 16235 C 1480.24 -1.80041 3.8829 0
M  V30 16236 C 1479.56 -3.12491 4.33882 0
M  V30 16237 C 1480.86 -1.07943 5.11024 0
M  V30 16238 H 1482.56 -0.344052 2.97417 0
M  V30 16239 H 1480.1 -0.164045 1.43063 0
M  V30 16240 H 1482.06 -2.77284 3.17319 0
M  V30 16241 H 1480.78 -2.62815 1.93897 0
M  V30 16242 H 1479.44 -1.15379 3.4797 0
M  V30 16243 H 1479.09 -3.62985 3.48211 0
M  V30 16244 H 1478.79 -2.93072 5.09296 0
M  V30 16245 H 1480.31 -3.80688 4.77398 0
M  V30 16246 H 1481.72 -1.65127 5.49004 0
M  V30 16247 H 1480.12 -0.986674 5.91933 0
M  V30 16248 H 1481.19 -0.0638511 4.84858 0
M  V30 16249 N 1482.53 -1.56697 -0.168486 0
M  V30 16250 C 1483.78 -1.82154 -0.884654 0
M  V30 16251 C 1484.11 -0.682778 -1.82122 0
M  V30 16252 O 1483.36 0.32977 -1.92902 0
M  V30 16253 C 1483.66 -3.138 -1.71068 0
M  V30 16254 C 1483.33 -4.41356 -0.922793 0
M  V30 16255 C 1481.99 -4.76002 -0.705352 0
M  V30 16256 C 1484.34 -5.19883 -0.370323 0
M  V30 16257 C 1481.67 -5.86651 0.0756121 0
M  V30 16258 C 1484.02 -6.31349 0.397568 0
M  V30 16259 C 1482.69 -6.6456 0.625782 0
M  V30 16260 H 1481.96 -0.666549 -0.323718 0
M  V30 16261 H 1484.6 -1.90916 -0.149432 0
M  V30 16262 H 1482.91 -3.00393 -2.51538 0
M  V30 16263 H 1484.61 -3.30708 -2.2679 0
M  V30 16264 H 1481.2 -4.14182 -1.10231 0
M  V30 16265 H 1485.38 -4.93509 -0.525646 0
M  V30 16266 H 1480.64 -6.10838 0.262137 0
M  V30 16267 H 1484.81 -6.91401 0.832902 0
M  V30 16268 H 1482.44 -7.50137 1.23281 0
M  V30 16269 N 1484.01 0.437135 -1.51416 0
M  V30 16270 C 1484.98 1.51313 -1.72154 0
M  V30 16271 C 1485.98 1.49523 -0.59157 0
M  V30 16272 O 1487.17 1.51541 -0.859118 0
M  V30 16273 C 1484.3 2.9085 -1.77818 0
M  V30 16274 H 1485.49 1.34229 -2.68184 0
M  V30 16275 H 1483.04 0.665822 -1.41409 0
M  V30 16276 H 1483.78 3.13338 -0.836033 0
M  V30 16277 H 1483.56 2.93554 -2.59939 0
M  V30 16278 H 1485.05 3.68905 -1.957 0
M  V30 16279 N 1485.49 1.41566 0.692592 0
M  V30 16280 C 1486.42 1.46423 1.81886 0
M  V30 16281 C 1487.4 0.32258 1.67013 0
M  V30 16282 O 1488.59 0.534437 1.86701 0
M  V30 16283 C 1485.72 1.3486 3.20047 0
M  V30 16284 C 1484.67 2.46867 3.49629 0
M  V30 16285 C 1484 2.20369 4.87177 0
M  V30 16286 C 1485.3 3.89205 3.48306 0
M  V30 16287 H 1486.99 2.40683 1.78079 0
M  V30 16288 H 1484.54 1.15845 0.855334 0
M  V30 16289 H 1486.49 1.36869 3.98553 0
M  V30 16290 H 1485.21 0.370859 3.24488 0
M  V30 16291 H 1483.87 2.44146 2.73475 0
M  V30 16292 H 1483.52 1.20931 4.88247 0
M  V30 16293 H 1483.22 2.95426 5.07934 0
M  V30 16294 H 1484.74 2.24099 5.6799 0
M  V30 16295 H 1486.16 3.93626 4.16811 0
M  V30 16296 H 1484.56 4.63969 3.80595 0
M  V30 16297 H 1485.63 4.17144 2.47222 0
M  V30 16298 N 1486.97 -0.927146 1.27443 0
M  V30 16299 C 1487.9 -2.02847 1.04538 0
M  V30 16300 C 1488.88 -1.62564 -0.0343819 0
M  V30 16301 O 1490.06 -1.88174 0.110875 0
M  V30 16302 C 1487.19 -3.33594 0.58588 0
M  V30 16303 C 1486.24 -3.92857 1.66029 0
M  V30 16304 S 1487.07 -4.25376 3.25292 0
M  V30 16305 C 1488.23 -5.59203 2.81145 0
M  V30 16306 H 1488.46 -2.21965 1.97784 0
M  V30 16307 H 1485.99 -1.07033 1.11281 0
M  V30 16308 H 1487.95 -4.09192 0.32745 0
M  V30 16309 H 1486.61 -3.12398 -0.326534 0
M  V30 16310 H 1485.8 -4.87209 1.2901 0
M  V30 16311 H 1485.41 -3.23846 1.87082 0
M  V30 16312 H 1487.7 -6.38523 2.26482 0
M  V30 16313 H 1488.64 -6.01122 3.74243 0
M  V30 16314 H 1489.05 -5.19751 2.2027 0
M  V30 16315 N 1488.45 -1.09474 -1.13372 0
M  V30 16316 C 1489.38 -0.756441 -2.20908 0
M  V30 16317 C 1490.36 0.266113 -1.68006 0
M  V30 16318 O 1491.54 0.134067 -1.93737 0
M  V30 16319 C 1488.67 -0.176733 -3.4685 0
M  V30 16320 C 1487.63 -1.12886 -4.12845 0
M  V30 16321 C 1486.95 -0.410831 -5.33119 0
M  V30 16322 C 1488.25 -2.47148 -4.60125 0
M  V30 16323 H 1489.95 -1.65555 -2.49463 0
M  V30 16324 H 1487.49 -0.797458 -1.19902 0
M  V30 16325 H 1489.45 0.0720151 -4.21338 0
M  V30 16326 H 1488.17 0.757576 -3.17692 0
M  V30 16327 H 1486.83 -1.36289 -3.40325 0
M  V30 16328 H 1486.48 0.527632 -5.00225 0
M  V30 16329 H 1486.18 -1.04567 -5.78221 0
M  V30 16330 H 1487.7 -0.170394 -6.10362 0
M  V30 16331 H 1489.11 -2.27949 -5.26034 0
M  V30 16332 H 1487.51 -3.06425 -5.15969 0
M  V30 16333 H 1488.58 -3.07874 -3.74622 0
M  V30 16334 N 1489.92 1.30607 -0.882012 0
M  V30 16335 C 1491.15 2.00418 -0.513815 0
M  V30 16336 C 1491.57 1.66135 0.896916 0
M  V30 16337 O 1490.92 0.89691 1.5894 0
M  V30 16338 C 1490.98 3.55133 -0.675503 0
M  V30 16339 O 1490.7 3.88194 -2.03069 0
M  V30 16340 C 1492.2 4.42215 -0.309906 0
M  V30 16341 H 1489.42 0.640839 -0.198913 0
M  V30 16342 H 1491.96 1.66561 -1.1865 0
M  V30 16343 H 1490.12 3.87367 -0.0502289 0
M  V30 16344 H 1490.53 4.82899 -2.04717 0
M  V30 16345 H 1492 5.49962 -0.473948 0
M  V30 16346 H 1492.48 4.32717 0.751852 0
M  V30 16347 H 1493.09 4.1542 -0.91138 0
M  V30 16348 N 1491.4 0.642663 1.43901 0
M  V30 16349 C 1492.37 -0.0457858 2.29154 0
M  V30 16350 C 1493.37 -0.760988 1.41653 0
M  V30 16351 O 1494.56 -0.603832 1.634 0
M  V30 16352 C 1491.69 -1.07552 3.23489 0
M  V30 16353 H 1492.88 0.704193 2.91515 0
M  V30 16354 H 1490.43 0.403361 1.51006 0
M  V30 16355 H 1491.17 -1.85509 2.66002 0
M  V30 16356 H 1490.95 -0.566468 3.87987 0
M  V30 16357 H 1492.44 -1.55663 3.87503 0
M  V30 16358 N 1492.88 -1.52852 0.383918 0
M  V30 16359 C 1494.13 -2.01112 -0.199594 0
M  V30 16360 C 1494.45 -1.27237 -1.47769 0
M  V30 16361 O 1493.72 -0.390873 -1.91961 0
M  V30 16362 H 1492.3 -0.743047 -0.0767466 0
M  V30 16363 H 1494.96 -1.8799 0.51437 0
M  V30 16364 H 1494.06 -3.09347 -0.413627 0
M  V30 16365 N 1494.36 -0.113586 -1.5719 0
M  V30 16366 C 1495.29 0.835363 -2.18046 0
M  V30 16367 C 1496.27 1.28114 -1.11897 0
M  V30 16368 O 1497.46 1.34472 -1.40111 0
M  V30 16369 C 1494.59 2.08759 -2.77556 0
M  V30 16370 C 1493.54 1.77979 -3.8924 0
M  V30 16371 C 1492.87 3.10185 -4.35533 0
M  V30 16372 C 1494.17 1.05231 -5.11589 0
M  V30 16373 H 1495.86 0.328275 -2.97595 0
M  V30 16374 H 1493.41 0.156456 -1.43148 0
M  V30 16375 H 1495.36 2.75597 -3.18785 0
M  V30 16376 H 1494.08 2.61783 -1.95288 0
M  V30 16377 H 1492.74 1.13532 -3.48577 0
M  V30 16378 H 1492.39 3.61133 -3.50131 0
M  V30 16379 H 1492.09 2.90367 -5.10843 0
M  V30 16380 H 1493.61 3.78151 -4.7941 0
M  V30 16381 H 1495.03 1.62213 -5.49872 0
M  V30 16382 H 1493.42 0.955269 -5.92448 0
M  V30 16383 H 1494.49 0.038137 -4.84885 0
M  V30 16384 N 1495.84 1.56784 0.160173 0
M  V30 16385 C 1497.25 1.72193 0.721552 0
M  V30 16386 C 1497.6 0.725901 1.82278 0
M  V30 16387 O 1496.72 -0.110343 2.16118 0
M  V30 16388 C 1497.32 3.12212 1.31563 0
M  V30 16389 C 1495.88 3.29268 1.82371 0
M  V30 16390 C 1495.03 2.68136 0.70701 0
M  V30 16391 H 1497.98 1.58565 -0.0653521 0
M  V30 16392 H 1498 3.11481 2.1854 0
M  V30 16393 H 1497.51 3.84682 0.513917 0
M  V30 16394 H 1495.61 2.61774 2.65152 0
M  V30 16395 H 1495.72 4.37107 1.96149 0
M  V30 16396 H 1494.09 2.28246 1.1303 0
M  V30 16397 H 1494.87 3.432 -0.0830407 0
M  V30 16398 N 1497.32 -0.429099 1.51646 0
M  V30 16399 C 1498.23 -1.54648 1.76412 0
M  V30 16400 C 1499.24 -1.61455 0.648703 0
M  V30 16401 O 1500.42 -1.78544 0.931888 0
M  V30 16402 C 1497.48 -2.90562 1.89142 0
M  V30 16403 C 1496.54 -2.93804 3.13014 0
M  V30 16404 C 1495.78 -4.23235 3.25127 0
M  V30 16405 O 1496 -5.1606 2.42979 0
M  V30 16406 O 1494.93 -4.32929 4.18158 0
M  V30 16407 H 1498.76 -1.36661 2.71215 0
M  V30 16408 H 1496.34 -0.612946 1.36247 0
M  V30 16409 H 1498.23 -3.7121 1.99453 0
M  V30 16410 H 1496.9 -3.08659 0.975272 0
M  V30 16411 H 1495.81 -2.12082 3.08175 0
M  V30 16412 H 1497.14 -2.80654 4.04344 0
M  V30 16413 N 1498.79 -1.41931 -0.685074 0
M  V30 16414 C 1499.72 -1.47385 -1.81107 0
M  V30 16415 C 1500.7 -0.331433 -1.6684 0
M  V30 16416 O 1501.89 -0.544331 -1.86415 0
M  V30 16417 C 1499.02 -1.36555 -3.19327 0
M  V30 16418 C 1497.97 -2.48718 -3.48315 0
M  V30 16419 C 1497.3 -2.2295 -4.86002 0
M  V30 16420 C 1498.6 -3.91047 -3.46237 0
M  V30 16421 H 1500.29 -2.41624 -1.768 0
M  V30 16422 H 1497.84 -1.16297 -0.849178 0
M  V30 16423 H 1499.79 -1.38981 -3.97822 0
M  V30 16424 H 1498.52 -0.388063 -3.24286 0
M  V30 16425 H 1497.18 -2.45592 -2.72176 0
M  V30 16426 H 1496.82 -1.23518 -4.87598 0
M  V30 16427 H 1496.52 -2.98116 -5.0636 0
M  V30 16428 H 1498.05 -2.27108 -5.66793 0
M  V30 16429 H 1499.46 -3.95831 -4.14718 0
M  V30 16430 H 1497.86 -4.65981 -3.7813 0
M  V30 16431 H 1498.93 -4.1845 -2.45006 0
M  V30 16432 N 1500.27 0.920374 -1.27933 0
M  V30 16433 C 1501.5 1.70275 -1.17533 0
M  V30 16434 C 1501.91 1.86904 0.266903 0
M  V30 16435 O 1501.27 1.39131 1.18105 0
M  V30 16436 C 1501.32 3.09847 -1.86219 0
M  V30 16437 O 1501.04 2.93992 -3.24808 0
M  V30 16438 C 1502.54 4.042 -1.82037 0
M  V30 16439 H 1499.76 0.53248 -0.408297 0
M  V30 16440 H 1502.31 1.1524 -1.68938 0
M  V30 16441 H 1500.46 3.61719 -1.38701 0
M  V30 16442 H 1500.88 3.82281 -3.59112 0
M  V30 16443 H 1502.35 4.99621 -2.34697 0
M  V30 16444 H 1502.83 4.32013 -0.791295 0
M  V30 16445 H 1503.43 3.58254 -2.29203 0
M  V30 16446 N 1501.75 1.10074 1.1279 0
M  V30 16447 C 1502.97 0.863106 1.88587 0
M  V30 16448 C 1503.4 -0.580595 1.78915 0
M  V30 16449 O 1502.76 -1.40859 1.14142 0
M  V30 16450 C 1502.81 1.31142 3.35908 0
M  V30 16451 O 1501.91 0.474088 4.09666 0
M  V30 16452 H 1501.25 0.312034 0.586115 0
M  V30 16453 H 1503.78 1.46659 1.42662 0
M  V30 16454 H 1503.79 1.29974 3.86744 0
M  V30 16455 H 1502.47 2.36279 3.42265 0
M  V30 16456 H 1501.04 0.550665 3.68812 0
M  V30 16457 N 1503.23 -1.30138 0.888926 0
M  V30 16458 C 1504.47 -1.96279 0.51012 0
M  V30 16459 C 1504.81 -1.69984 -0.939096 0
M  V30 16460 O 1504.08 -1.00677 -1.66416 0
M  V30 16461 C 1504.36 -3.51321 0.790305 0
M  V30 16462 C 1504.22 -3.87116 2.29044 0
M  V30 16463 C 1505.54 -4.39274 0.269477 0
M  V30 16464 H 1502.66 -0.712931 0.18681 0
M  V30 16465 H 1505.3 -1.53942 1.11364 0
M  V30 16466 H 1503.45 -3.87514 0.276647 0
M  V30 16467 H 1505.12 -3.60926 2.87281 0
M  V30 16468 H 1503.36 -3.35044 2.7555 0
M  V30 16469 H 1504.03 -4.95288 2.43708 0
M  V30 16470 H 1506.51 -4.10012 0.709173 0
M  V30 16471 H 1505.39 -5.46665 0.494815 0
M  V30 16472 H 1505.65 -4.3425 -0.829434 0
M  V30 16473 N 1504.71 -0.650285 -1.43559 0
M  V30 16474 C 1505.65 0.043098 -2.3076 0
M  V30 16475 C 1506.62 0.81763 -1.44582 0
M  V30 16476 O 1507.81 0.794825 -1.73457 0
M  V30 16477 C 1504.95 1.00557 -3.30125 0
M  V30 16478 C 1504.06 0.227448 -4.31401 0
M  V30 16479 C 1503.2 1.18345 -5.17849 0
M  V30 16480 C 1502.23 0.395596 -6.1082 0
M  V30 16481 N 1501.37 1.30304 -6.89902 0
M  V30 16482 H 1506.21 -0.706402 -2.89506 0
M  V30 16483 H 1503.75 -0.360118 -1.42624 0
M  V30 16484 H 1505.71 1.57717 -3.8624 0
M  V30 16485 H 1504.34 1.72198 -2.73034 0
M  V30 16486 H 1503.39 -0.460391 -3.77604 0
M  V30 16487 H 1504.7 -0.385316 -4.9731 0
M  V30 16488 H 1503.85 1.82578 -5.78576 0
M  V30 16489 H 1502.59 1.83013 -4.52059 0
M  V30 16490 H 1501.6 -0.260099 -5.49184 0
M  V30 16491 H 1502.82 -0.246633 -6.78652 0
M  V30 16492 H 1500.77 1.93657 -6.26764 0
M  V30 16493 H 1500.69 0.744768 -7.52323 0
M  V30 16494 H 1501.95 1.93361 -7.55137 0
M  V30 16495 N 1506.18 1.52647 -0.392018 0
M  V30 16496 C 1507.46 1.94034 0.247004 0
M  V30 16497 C 1507.84 1.32767 1.64122 0
M  V30 16498 O 1507.19 0.496822 2.23033 0
M  V30 16499 C 1507.4 3.47949 0.270615 0
M  V30 16500 C 1508.75 4.21666 0.498256 0
M  V30 16501 O 1509.77 3.54469 0.350708 0
M  V30 16502 O 1508.63 5.40795 0.787586 0
M  V30 16503 H 1505.72 0.812487 0.154251 0
M  V30 16504 H 1508.27 1.63715 -0.446723 0
M  V30 16505 H 1507.04 3.84881 -0.705862 0
M  V30 16506 H 1506.66 3.8458 1.00915 0
M  V30 16507 N 1507.66 0.121921 1.57128 0
M  V30 16508 C 1508.91 -0.535201 1.9447 0
M  V30 16509 C 1509.22 -1.67644 1.00772 0
M  V30 16510 O 1510.43 -2.39651 1.27592 0
M  V30 16511 C 1508.89 -1.00346 3.45628 0
M  V30 16512 C 1508.49 0.109473 4.47866 0
M  V30 16513 C 1510.24 -1.63179 3.91884 0
M  V30 16514 C 1508.15 -0.375651 5.90206 0
M  V30 16515 H 1507.08 -0.203702 0.725962 0
M  V30 16516 H 1509.73 0.202243 1.82382 0
M  V30 16517 H 1508.11 -1.79541 3.5296 0
M  V30 16518 H 1509.28 0.885815 4.52206 0
M  V30 16519 H 1507.6 0.644642 4.1138 0
M  V30 16520 H 1510.19 -2.00594 4.95647 0
M  V30 16521 H 1510.54 -2.5113 3.32023 0
M  V30 16522 H 1511.07 -0.905197 3.87364 0
M  V30 16523 H 1507.81 0.46788 6.53828 0
M  V30 16524 H 1507.33 -1.11841 5.89281 0
M  V30 16525 H 1509.01 -0.835921 6.41577 0
M  V30 16526 N 1509.14 -1.56867 -0.151857 0
M  V30 16527 C 1510.07 -1.94494 -1.21263 0
M  V30 16528 C 1511.09 -0.84021 -1.39443 0
M  V30 16529 O 1512.27 -1.11863 -1.391 0
M  V30 16530 C 1509.37 -2.19952 -2.57826 0
M  V30 16531 C 1508.55 -3.51227 -2.60689 0
M  V30 16532 C 1507.61 -3.65282 -3.78756 0
M  V30 16533 O 1506.63 -4.3772 -3.63854 0
M  V30 16534 N 1507.83 -3.01582 -4.96012 0
M  V30 16535 H 1510.6 -2.86092 -0.892845 0
M  V30 16536 H 1508.16 -1.58258 -0.341463 0
M  V30 16537 H 1510.15 -2.266 -3.35312 0
M  V30 16538 H 1508.72 -1.34643 -2.82117 0
M  V30 16539 H 1507.94 -3.56062 -1.69155 0
M  V30 16540 H 1509.23 -4.37574 -2.59628 0
M  V30 16541 H 1508.63 -2.42637 -5.11022 0
M  V30 16542 H 1507.19 -3.13799 -5.71291 0
M  V30 16543 N 1510.62 0.421051 -1.51871 0
M  V30 16544 C 1511.85 1.18938 -1.6893 0
M  V30 16545 C 1512.26 1.85069 -0.393198 0
M  V30 16546 O 1511.6 1.72204 0.639648 0
M  V30 16547 C 1511.66 2.30343 -2.76012 0
M  V30 16548 C 1511.33 1.84446 -4.18125 0
M  V30 16549 C 1512.32 1.33882 -5.02366 0
M  V30 16550 C 1510.01 1.91642 -4.64305 0
M  V30 16551 C 1512 0.911212 -6.30853 0
M  V30 16552 C 1509.69 1.48492 -5.92784 0
M  V30 16553 C 1510.69 0.98316 -6.75887 0
M  V30 16554 O 1510.37 0.557853 -8.01962 0
M  V30 16555 H 1510.11 0.363908 -0.56969 0
M  V30 16556 H 1512.66 0.503089 -1.99144 0
M  V30 16557 H 1510.89 3.02298 -2.41148 0
M  V30 16558 H 1512.58 2.92148 -2.81787 0
M  V30 16559 H 1513.35 1.27704 -4.67885 0
M  V30 16560 H 1509.22 2.29641 -3.99732 0
M  V30 16561 H 1512.77 0.518877 -6.95668 0
M  V30 16562 H 1508.67 1.54345 -6.26776 0
M  V30 16563 H 1509.43 0.682238 -8.15652 0
M  V30 16564 N 1512.1 1.42293 0.677538 0
M  V30 16565 C 1513.03 1.48344 1.80323 0
M  V30 16566 C 1514.01 0.340276 1.66662 0
M  V30 16567 O 1515.19 0.554209 1.86124 0
M  V30 16568 C 1512.32 1.38247 3.18599 0
M  V30 16569 C 1511.28 2.50562 3.46991 0
M  V30 16570 C 1510.6 2.25524 4.84812 0
M  V30 16571 C 1511.9 3.92877 3.44158 0
M  V30 16572 H 1513.6 2.42558 1.75516 0
M  V30 16573 H 1511.14 1.16746 0.842999 0
M  V30 16574 H 1513.1 1.41089 3.97079 0
M  V30 16575 H 1511.82 0.405255 3.24076 0
M  V30 16576 H 1510.48 2.47032 2.7087 0
M  V30 16577 H 1510.13 1.26102 4.86937 0
M  V30 16578 H 1509.83 3.00797 5.04772 0
M  V30 16579 H 1511.35 2.3011 5.65581 0
M  V30 16580 H 1512.76 3.98024 4.12613 0
M  V30 16581 H 1511.16 4.6798 3.75653 0
M  V30 16582 H 1512.23 4.19743 2.42783 0
M  V30 16583 N 1513.57 -0.913576 1.28419 0
M  V30 16584 C 1514.52 -2.01603 1.12361 0
M  V30 16585 C 1515.49 -1.66087 0.0206953 0
M  V30 16586 O 1516.68 -1.89895 0.185659 0
M  V30 16587 C 1513.82 -3.35897 0.791655 0
M  V30 16588 C 1512.93 -3.84281 1.97363 0
M  V30 16589 C 1512.06 -5.07087 1.58228 0
M  V30 16590 C 1511.1 -5.47804 2.73089 0
M  V30 16591 N 1510.24 -6.618 2.34446 0
M  V30 16592 H 1515.08 -2.1467 2.0669 0
M  V30 16593 H 1512.62 -1.05147 1.02871 0
M  V30 16594 H 1514.58 -4.13149 0.579943 0
M  V30 16595 H 1513.21 -3.22596 -0.114699 0
M  V30 16596 H 1512.26 -3.03184 2.29746 0
M  V30 16597 H 1513.57 -4.10417 2.83477 0
M  V30 16598 H 1512.72 -5.91883 1.33264 0
M  V30 16599 H 1511.46 -4.82759 0.692429 0
M  V30 16600 H 1510.47 -4.61549 2.98751 0
M  V30 16601 H 1511.69 -5.74119 3.62717 0
M  V30 16602 H 1509.64 -6.39103 1.4793 0
M  V30 16603 H 1509.56 -6.87663 3.14096 0
M  V30 16604 H 1510.82 -7.49901 2.12766 0
M  V30 16605 N 1515.05 -1.1067 -1.12204 0
M  V30 16606 C 1516.33 -0.762632 -1.8012 0
M  V30 16607 C 1516.71 0.750529 -1.97308 0
M  V30 16608 O 1516.06 1.67764 -1.55137 0
M  V30 16609 C 1516.27 -1.51651 -3.14329 0
M  V30 16610 C 1517.62 -1.69061 -3.89491 0
M  V30 16611 O 1518.64 -1.48009 -3.23994 0
M  V30 16612 O 1517.5 -2.03984 -5.07004 0
M  V30 16613 H 1514.59 -0.275417 -0.779791 0
M  V30 16614 H 1517.14 -1.20966 -1.19018 0
M  V30 16615 H 1515.91 -2.54622 -2.97125 0
M  V30 16616 H 1515.53 -1.0625 -3.83141 0
M  V30 16617 N 1516.53 1.29665 -0.895815 0
M  V30 16618 C 1517.76 2.00399 -0.534333 0
M  V30 16619 C 1518.18 1.66632 0.872654 0
M  V30 16620 O 1517.54 0.888811 1.58018 0
M  V30 16621 C 1517.59 3.53154 -0.729023 0
M  V30 16622 O 1516.69 4.11812 0.22023 0
M  V30 16623 H 1516.03 0.630173 -0.209233 0
M  V30 16624 H 1518.56 1.65253 -1.20634 0
M  V30 16625 H 1518.57 4.03073 -0.632179 0
M  V30 16626 H 1517.25 3.77067 -1.75481 0
M  V30 16627 H 1515.82 3.72822 0.0761687 0
M  V30 16628 N 1518.01 0.657889 1.43212 0
M  V30 16629 C 1518.94 -0.0172114 2.33494 0
M  V30 16630 C 1519.92 -0.807087 1.49733 0
M  V30 16631 O 1521.1 -0.767631 1.78385 0
M  V30 16632 C 1518.23 -0.981029 3.33156 0
M  V30 16633 C 1517.19 -0.30094 4.26941 0
M  V30 16634 C 1516.51 -1.37653 5.16678 0
M  V30 16635 C 1517.81 0.809572 5.15988 0
M  V30 16636 H 1519.51 0.736749 2.90194 0
M  V30 16637 H 1517.05 0.355744 1.39537 0
M  V30 16638 H 1519.01 -1.46226 3.95216 0
M  V30 16639 H 1517.73 -1.76621 2.74723 0
M  V30 16640 H 1516.39 0.159893 3.66251 0
M  V30 16641 H 1516.04 -2.15326 4.54581 0
M  V30 16642 H 1515.74 -0.926704 5.80246 0
M  V30 16643 H 1517.26 -1.85903 5.81612 0
M  V30 16644 H 1518.68 0.410297 5.7183 0
M  V30 16645 H 1517.07 1.18415 5.88301 0
M  V30 16646 H 1518.14 1.66558 4.55397 0
M  V30 16647 N 1519.49 -1.52437 0.400108 0
M  V30 16648 C 1520.45 -2.2536 -0.417808 0
M  V30 16649 C 1521.45 -1.27393 -0.981204 0
M  V30 16650 O 1522.64 -1.51406 -0.861503 0
M  V30 16651 C 1519.77 -3.01695 -1.58724 0
M  V30 16652 H 1520.96 -2.99086 0.220782 0
M  V30 16653 H 1518.52 -1.55555 0.152439 0
M  V30 16654 H 1519.25 -2.32295 -2.26295 0
M  V30 16655 H 1519.04 -3.73611 -1.18984 0
M  V30 16656 H 1520.53 -3.57033 -2.16604 0
M  V30 16657 N 1520.96 -0.130252 -1.57061 0
M  V30 16658 C 1521.89 0.812189 -2.18919 0
M  V30 16659 C 1522.88 1.2692 -1.13249 0
M  V30 16660 O 1524.06 1.32978 -1.41529 0
M  V30 16661 C 1521.19 2.05803 -2.79754 0
M  V30 16662 C 1520.14 1.73841 -3.91105 0
M  V30 16663 C 1519.47 3.05549 -4.38799 0
M  V30 16664 C 1520.77 0.997991 -5.12677 0
M  V30 16665 H 1522.46 0.296692 -2.97926 0
M  V30 16666 H 1520.01 0.141265 -1.43305 0
M  V30 16667 H 1521.96 2.72201 -3.21691 0
M  V30 16668 H 1520.69 2.59697 -1.98053 0
M  V30 16669 H 1519.35 1.09828 -3.49762 0
M  V30 16670 H 1518.99 3.57399 -3.53942 0
M  V30 16671 H 1518.69 2.84932 -5.13894 0
M  V30 16672 H 1520.22 3.73045 -4.83394 0
M  V30 16673 H 1521.63 1.56372 -5.51562 0
M  V30 16674 H 1520.03 0.892378 -5.93428 0
M  V30 16675 H 1521.1 -0.0132936 -4.84898 0
M  V30 16676 N 1522.44 1.56945 0.143535 0
M  V30 16677 C 1523.69 1.83176 0.853873 0
M  V30 16678 C 1524.01 0.71168 1.81549 0
M  V30 16679 O 1523.28 -0.266391 1.9408 0
M  V30 16680 H 1521.86 0.675785 0.318313 0
M  V30 16681 H 1524.52 1.9442 0.136712 0
M  V30 16682 H 1523.62 2.7823 1.41402 0
M  V30 16683 N 1523.92 -0.412991 1.52093 0
M  V30 16684 C 1524.87 -1.50294 1.75158 0
M  V30 16685 C 1525.84 -1.55119 0.593902 0
M  V30 16686 O 1527.02 -1.71751 0.831032 0
M  V30 16687 C 1524.16 -2.87781 1.90463 0
M  V30 16688 C 1523.28 -2.92295 3.181 0
M  V30 16689 C 1522.41 -4.21056 3.23859 0
M  V30 16690 C 1521.45 -4.1953 4.45714 0
M  V30 16691 N 1520.59 -5.39857 4.48886 0
M  V30 16692 H 1525.43 -1.29927 2.68185 0
M  V30 16693 H 1522.96 -0.630741 1.32891 0
M  V30 16694 H 1524.92 -3.67588 1.9732 0
M  V30 16695 H 1523.55 -3.06651 1.00822 0
M  V30 16696 H 1522.6 -2.05002 3.20434 0
M  V30 16697 H 1523.92 -2.87031 4.0794 0
M  V30 16698 H 1523.07 -5.09253 3.29767 0
M  V30 16699 H 1521.81 -4.2901 2.31952 0
M  V30 16700 H 1520.81 -3.29724 4.39957 0
M  V30 16701 H 1522.04 -4.1322 5.38912 0
M  V30 16702 H 1519.99 -5.48486 3.59861 0
M  V30 16703 H 1519.9 -5.36572 5.32566 0
M  V30 16704 H 1521.17 -6.30018 4.59018 0
M  V30 16705 N 1525.4 -1.4265 -0.669982 0
M  V30 16706 C 1526.62 -1.46992 -1.46315 0
M  V30 16707 C 1527.05 -0.0840655 -1.87912 0
M  V30 16708 O 1526.41 0.918554 -1.56308 0
M  V30 16709 C 1526.46 -2.40663 -2.6854 0
M  V30 16710 O 1525.56 -1.88132 -3.66988 0
M  V30 16711 H 1524.9 -0.497844 -0.439372 0
M  V30 16712 H 1527.43 -1.8739 -0.821348 0
M  V30 16713 H 1527.44 -2.57405 -3.16554 0
M  V30 16714 H 1526.12 -3.41346 -2.37604 0
M  V30 16715 H 1524.69 -1.80969 -3.26044 0
M  V30 16716 N 1526.88 0.906753 -1.28902 0
M  V30 16717 C 1527.79 2.04313 -1.15296 0
M  V30 16718 C 1528.8 1.73826 -0.0778619 0
M  V30 16719 O 1529.98 1.99322 -0.288543 0
M  V30 16720 C 1527.04 3.36782 -0.823317 0
M  V30 16721 C 1526.11 3.80834 -1.98152 0
M  V30 16722 C 1525.34 5.06981 -1.66751 0
M  V30 16723 O 1525.56 5.67391 -0.58513 0
M  V30 16724 O 1524.5 5.46915 -2.51332 0
M  V30 16725 H 1528.32 2.18713 -2.10709 0
M  V30 16726 H 1525.91 1.02928 -1.08287 0
M  V30 16727 H 1527.79 4.16298 -0.653735 0
M  V30 16728 H 1526.46 3.23542 0.101097 0
M  V30 16729 H 1525.37 3.02115 -2.2063 0
M  V30 16730 H 1526.7 3.98648 -2.88688 0
M  V30 16731 N 1528.36 1.11264 1.11616 0
M  V30 16732 C 1529.27 0.781961 2.21184 0
M  V30 16733 C 1530.28 -0.224149 1.7255 0
M  V30 16734 O 1531.46 -0.0607743 2.01308 0
M  V30 16735 C 1528.52 0.228031 3.45949 0
M  V30 16736 C 1527.58 1.29251 4.09381 0
M  V30 16737 C 1526.82 0.764921 5.2819 0
M  V30 16738 O 1527.04 -0.405671 5.68956 0
M  V30 16739 O 1525.97 1.52886 5.82159 0
M  V30 16740 H 1529.8 1.69678 2.51879 0
M  V30 16741 H 1527.38 0.888394 1.20116 0
M  V30 16742 H 1529.27 -0.0766085 4.2133 0
M  V30 16743 H 1527.94 -0.659519 3.1691 0
M  V30 16744 H 1526.85 1.65014 3.3574 0
M  V30 16745 H 1528.18 2.15339 4.42595 0
M  V30 16746 N 1529.83 -1.29188 0.902679 0
M  V30 16747 C 1530.74 -2.3138 0.387363 0
M  V30 16748 C 1531.76 -1.66067 -0.519396 0
M  V30 16749 O 1532.94 -1.97219 -0.408257 0
M  V30 16750 C 1530 -3.44675 -0.374137 0
M  V30 16751 C 1529.06 -4.25572 0.564503 0
M  V30 16752 C 1528.29 -5.33458 -0.160748 0
M  V30 16753 O 1528.52 -5.53349 -1.38423 0
M  V30 16754 O 1527.45 -5.99834 0.498259 0
M  V30 16755 H 1531.28 -2.77444 1.23525 0
M  V30 16756 H 1528.86 -1.33679 0.667106 0
M  V30 16757 H 1530.74 -4.13647 -0.80464 0
M  V30 16758 H 1529.42 -3.00714 -1.19804 0
M  V30 16759 H 1528.33 -3.59232 1.04418 0
M  V30 16760 H 1529.66 -4.73184 1.3549 0
M  V30 16761 N 1531.31 -0.665475 -1.42861 0
M  V30 16762 C 1532.27 0.00932351 -2.29198 0
M  V30 16763 C 1533.27 0.738356 -1.42846 0
M  V30 16764 O 1534.46 0.57776 -1.6434 0
M  V30 16765 C 1531.6 1.02392 -3.25159 0
M  V30 16766 H 1532.79 -0.750481 -2.90358 0
M  V30 16767 H 1530.34 -0.427334 -1.50345 0
M  V30 16768 H 1531.08 1.81254 -2.68919 0
M  V30 16769 H 1530.86 0.504671 -3.88839 0
M  V30 16770 H 1532.35 1.49479 -3.89931 0
M  V30 16771 N 1532.79 1.52222 -0.408187 0
M  V30 16772 C 1533.72 2.29892 0.408868 0
M  V30 16773 C 1534.7 1.34063 1.04695 0
M  V30 16774 O 1535.89 1.6297 1.05615 0
M  V30 16775 C 1533.02 3.11964 1.52629 0
M  V30 16776 C 1531.97 4.15833 1.01326 0
M  V30 16777 C 1531.3 4.86244 2.2242 0
M  V30 16778 C 1532.6 5.22256 0.0679573 0
M  V30 16779 H 1534.29 2.98443 -0.23923 0
M  V30 16780 H 1531.84 1.43528 -0.116496 0
M  V30 16781 H 1533.79 3.65067 2.10486 0
M  V30 16782 H 1532.51 2.41181 2.20225 0
M  V30 16783 H 1531.17 3.63739 0.4571 0
M  V30 16784 H 1530.82 4.11991 2.88569 0
M  V30 16785 H 1530.52 5.56461 1.88746 0
M  V30 16786 H 1532.04 5.42159 2.80885 0
M  V30 16787 H 1533.46 5.70604 0.555295 0
M  V30 16788 H 1531.85 5.9983 -0.179934 0
M  V30 16789 H 1532.92 4.76892 -0.877599 0
M  V30 16790 N 1534.27 0.138579 1.5699 0
M  V30 16791 C 1535.21 -0.804305 2.16332 0
M  V30 16792 C 1536.18 -1.25002 1.09379 0
M  V30 16793 O 1537.37 -1.32405 1.37381 0
M  V30 16794 C 1534.51 -2.04137 2.78248 0
M  V30 16795 C 1533.62 -1.64223 3.99568 0
M  V30 16796 C 1532.76 -2.83046 4.49509 0
M  V30 16797 C 1531.8 -2.39465 5.63314 0
M  V30 16798 N 1530.93 -3.51267 6.07911 0
M  V30 16799 H 1535.77 -0.29144 2.96571 0
M  V30 16800 H 1533.31 -0.132146 1.46505 0
M  V30 16801 H 1535.27 -2.76646 3.12286 0
M  V30 16802 H 1533.9 -2.52849 2.00667 0
M  V30 16803 H 1532.95 -0.815123 3.71564 0
M  V30 16804 H 1534.26 -1.2821 4.82041 0
M  V30 16805 H 1533.42 -3.63755 4.85559 0
M  V30 16806 H 1532.16 -3.22298 3.66026 0
M  V30 16807 H 1531.16 -1.57193 5.2685 0
M  V30 16808 H 1532.39 -2.01307 6.48577 0
M  V30 16809 H 1530.33 -3.90156 5.27365 0
M  V30 16810 H 1530.25 -3.19241 6.85289 0
M  V30 16811 H 1531.52 -4.32358 6.48604 0
M  V30 16812 N 1535.75 -1.57019 -0.13521 0
M  V30 16813 C 1536.68 -1.95769 -1.19193 0
M  V30 16814 C 1537.69 -0.854953 -1.38544 0
M  V30 16815 O 1538.88 -1.13332 -1.37906 0
M  V30 16816 C 1535.98 -2.22674 -2.55479 0
M  V30 16817 C 1535.15 -3.53972 -2.56949 0
M  V30 16818 C 1534.21 -3.69278 -3.7486 0
M  V30 16819 O 1533.24 -4.41555 -3.59191 0
M  V30 16820 N 1534.44 -3.06826 -4.92786 0
M  V30 16821 H 1537.2 -2.87022 -0.862451 0
M  V30 16822 H 1534.77 -1.58611 -0.324658 0
M  V30 16823 H 1536.76 -2.30144 -3.3289 0
M  V30 16824 H 1535.33 -1.37628 -2.80673 0
M  V30 16825 H 1534.55 -3.57836 -1.65368 0
M  V30 16826 H 1535.84 -4.40303 -2.54973 0
M  V30 16827 H 1535.23 -2.48043 -5.0842 0
M  V30 16828 H 1533.79 -3.19841 -5.67931 0
M  V30 16829 N 1537.22 0.404919 -1.52309 0
M  V30 16830 C 1538.47 1.15148 -1.66575 0
M  V30 16831 C 1538.8 1.9039 -0.397754 0
M  V30 16832 O 1538.05 1.85639 0.619407 0
M  V30 16833 C 1538.35 2.16817 -2.84121 0
M  V30 16834 C 1538.02 1.58352 -4.22179 0
M  V30 16835 C 1536.68 1.42132 -4.5973 0
M  V30 16836 C 1539.03 1.15695 -5.08197 0
M  V30 16837 C 1536.36 0.817785 -5.80973 0
M  V30 16838 C 1538.71 0.56758 -6.30049 0
M  V30 16839 C 1537.38 0.392547 -6.66345 0
M  V30 16840 H 1536.65 0.421357 -0.60954 0
M  V30 16841 H 1539.29 0.438148 -1.8642 0
M  V30 16842 H 1537.6 2.94311 -2.58628 0
M  V30 16843 H 1539.3 2.74463 -2.92355 0
M  V30 16844 H 1535.89 1.71961 -3.92591 0
M  V30 16845 H 1540.07 1.27034 -4.79767 0
M  V30 16846 H 1535.33 0.670228 -6.07715 0
M  V30 16847 H 1539.5 0.228674 -6.96024 0
M  V30 16848 H 1537.13 -0.0772156 -7.60161 0
M  V30 16849 N 1538.7 1.43003 0.662408 0
M  V30 16850 C 1539.65 1.47448 1.77561 0
M  V30 16851 C 1540.62 0.325121 1.62887 0
M  V30 16852 O 1541.8 0.530971 1.83263 0
M  V30 16853 C 1538.94 1.3946 3.15666 0
M  V30 16854 C 1538.06 2.64529 3.41539 0
M  V30 16855 C 1537.19 2.48594 4.69441 0
M  V30 16856 C 1536.23 3.68976 4.88388 0
M  V30 16857 N 1535.37 3.51908 6.0754 0
M  V30 16858 H 1540.21 2.42573 1.73097 0
M  V30 16859 H 1537.75 1.2042 0.84484 0
M  V30 16860 H 1539.7 1.32824 3.95492 0
M  V30 16861 H 1538.33 0.479227 3.19223 0
M  V30 16862 H 1537.39 2.81481 2.55877 0
M  V30 16863 H 1538.7 3.53977 3.51429 0
M  V30 16864 H 1537.85 2.39614 5.57378 0
M  V30 16865 H 1536.59 1.56656 4.61855 0
M  V30 16866 H 1535.6 3.78374 3.9889 0
M  V30 16867 H 1536.82 4.61911 4.9781 0
M  V30 16868 H 1534.77 2.62697 6.01104 0
M  V30 16869 H 1534.68 4.34951 6.18347 0
M  V30 16870 H 1535.95 3.46763 6.98123 0
M  V30 16871 N 1540.18 -0.899904 1.29381 0
M  V30 16872 C 1541.11 -2.00914 1.103 0
M  V30 16873 C 1542.13 -1.62721 0.050568 0
M  V30 16874 O 1543.31 -1.76044 0.295068 0
M  V30 16875 C 1540.41 -3.32473 0.656896 0
M  V30 16876 C 1539.59 -3.99195 1.7878 0
M  V30 16877 C 1538.65 -5.09043 1.33274 0
M  V30 16878 O 1537.67 -5.31486 2.03742 0
M  V30 16879 N 1538.87 -5.80143 0.203519 0
M  V30 16880 H 1541.64 -2.17838 2.05832 0
M  V30 16881 H 1539.2 -1.07208 1.21318 0
M  V30 16882 H 1541.19 -4.03305 0.335783 0
M  V30 16883 H 1539.76 -3.11921 -0.205959 0
M  V30 16884 H 1538.98 -3.21729 2.2778 0
M  V30 16885 H 1540.27 -4.40515 2.54606 0
M  V30 16886 H 1539.67 -5.64395 -0.384005 0
M  V30 16887 H 1538.23 -6.51774 -0.0582282 0
M  V30 16888 N 1541.66 -1.11854 -1.11024 0
M  V30 16889 C 1542.61 -0.780825 -2.17191 0
M  V30 16890 C 1543.58 0.249657 -1.64213 0
M  V30 16891 O 1544.76 0.125603 -1.90386 0
M  V30 16892 C 1541.9 -0.23491 -3.443 0
M  V30 16893 C 1541.01 -1.32247 -4.1126 0
M  V30 16894 C 1540.15 -0.736638 -5.26068 0
M  V30 16895 C 1539.19 -1.80375 -5.8492 0
M  V30 16896 N 1538.32 -1.23709 -6.91115 0
M  V30 16897 H 1543.16 -1.69031 -2.45423 0
M  V30 16898 H 1540.7 -0.844041 -1.20476 0
M  V30 16899 H 1542.66 0.0996064 -4.17081 0
M  V30 16900 H 1541.29 0.637752 -3.16437 0
M  V30 16901 H 1540.34 -1.77387 -3.36509 0
M  V30 16902 H 1541.65 -2.12965 -4.51051 0
M  V30 16903 H 1540.81 -0.352432 -6.05675 0
M  V30 16904 H 1539.55 0.101811 -4.87594 0
M  V30 16905 H 1538.55 -2.19721 -5.03987 0
M  V30 16906 H 1539.78 -2.64531 -6.2546 0
M  V30 16907 H 1537.72 -0.420357 -6.54652 0
M  V30 16908 H 1537.64 -1.98093 -7.29586 0
M  V30 16909 H 1538.91 -0.879912 -7.74518 0
M  V30 16910 N 1543.14 1.28707 -0.909517 0
M  V30 16911 C 1544.38 1.95154 -0.540481 0
M  V30 16912 C 1544.71 1.7163 0.91506 0
M  V30 16913 O 1543.97 1.02786 1.66534 0
M  V30 16914 C 1544.27 3.48536 -0.791037 0
M  V30 16915 C 1543.93 3.92153 -2.22546 0
M  V30 16916 C 1542.59 4.03772 -2.61766 0
M  V30 16917 C 1544.95 4.14547 -3.15912 0
M  V30 16918 C 1542.27 4.35162 -3.93511 0
M  V30 16919 C 1544.63 4.47414 -4.47218 0
M  V30 16920 C 1543.29 4.57244 -4.86296 0
M  V30 16921 H 1542.56 0.714119 -0.197776 0
M  V30 16922 H 1545.21 1.53122 -1.15004 0
M  V30 16923 H 1543.51 3.91676 -0.0986412 0
M  V30 16924 H 1545.21 3.98059 -0.48474 0
M  V30 16925 H 1541.8 3.83633 -1.91113 0
M  V30 16926 H 1545.98 4.05027 -2.86822 0
M  V30 16927 H 1541.24 4.40977 -4.23496 0
M  V30 16928 H 1545.41 4.6369 -5.19581 0
M  V30 16929 H 1543.04 4.81321 -5.88416 0
M  V30 16930 N 1544.61 0.673042 1.42506 0
M  V30 16931 C 1545.89 0.123606 1.95209 0
M  V30 16932 C 1546.27 -1.36118 1.61354 0
M  V30 16933 O 1545.62 -2.0965 0.908793 0
M  V30 16934 C 1545.83 0.39088 3.46804 0
M  V30 16935 C 1547.18 0.306445 4.23493 0
M  V30 16936 O 1548.2 0.32453 3.54719 0
M  V30 16937 O 1547.06 0.247127 5.45941 0
M  V30 16938 H 1544.15 0.00184868 0.826998 0
M  V30 16939 H 1546.7 0.74765 1.52343 0
M  V30 16940 H 1545.47 1.41951 3.64645 0
M  V30 16941 H 1545.1 -0.265259 3.96714 0
M  V30 16942 N 1546.09 -1.52004 0.416254 0
M  V30 16943 C 1547 -2.30947 -0.412403 0
M  V30 16944 C 1548.02 -1.38969 -1.04707 0
M  V30 16945 O 1549.19 -1.72044 -1.04703 0
M  V30 16946 C 1546.26 -3.12078 -1.51024 0
M  V30 16947 C 1545.32 -4.19805 -0.897892 0
M  V30 16948 C 1544.55 -4.97059 -1.94341 0
M  V30 16949 O 1544.78 -4.74695 -3.16261 0
M  V30 16950 O 1543.71 -5.81715 -1.54567 0
M  V30 16951 H 1547.54 -3.02817 0.231473 0
M  V30 16952 H 1545.12 -1.4832 0.179283 0
M  V30 16953 H 1547 -3.6258 -2.14741 0
M  V30 16954 H 1545.68 -2.42995 -2.13858 0
M  V30 16955 H 1544.59 -3.73433 -0.223236 0
M  V30 16956 H 1545.92 -4.91201 -0.31336 0
M  V30 16957 N 1547.57 -0.146903 -1.56914 0
M  V30 16958 C 1548.53 0.778709 -2.15566 0
M  V30 16959 C 1549.53 1.1753 -1.09742 0
M  V30 16960 O 1550.72 1.09624 -1.35382 0
M  V30 16961 C 1547.86 2.0567 -2.71869 0
M  V30 16962 H 1549.05 0.268506 -2.98696 0
M  V30 16963 H 1546.6 0.10254 -1.55963 0
M  V30 16964 H 1547.34 2.61057 -1.92405 0
M  V30 16965 H 1547.12 1.78154 -3.4929 0
M  V30 16966 H 1548.61 2.71779 -3.17059 0
M  V30 16967 N 1549.05 1.57088 0.126881 0
M  V30 16968 C 1549.98 2.02799 1.15737 0
M  V30 16969 C 1550.96 0.911031 1.43646 0
M  V30 16970 O 1552.14 1.18021 1.54223 0
M  V30 16971 C 1549.27 2.42565 2.48555 0
M  V30 16972 C 1548.23 3.57631 2.35125 0
M  V30 16973 C 1547.55 3.83272 3.72836 0
M  V30 16974 C 1548.85 4.89625 1.81838 0
M  V30 16975 H 1550.55 2.89136 0.777207 0
M  V30 16976 H 1548.09 1.39101 0.372416 0
M  V30 16977 H 1550.05 2.73146 3.20888 0
M  V30 16978 H 1548.77 1.53188 2.88446 0
M  V30 16979 H 1547.43 3.27247 1.65242 0
M  V30 16980 H 1547.08 2.91114 4.10197 0
M  V30 16981 H 1546.78 4.60721 3.64705 0
M  V30 16982 H 1548.3 4.16298 4.46686 0
M  V30 16983 H 1549.72 5.18793 2.43981 0
M  V30 16984 H 1548.11 5.71018 1.84548 0
M  V30 16985 H 1549.18 4.7866 0.775385 0
M  V30 16986 N 1550.53 -0.396836 1.52522 0
M  V30 16987 C 1551.94 -0.736347 1.41598 0
M  V30 16988 C 1552.14 -1.944 0.530191 0
M  V30 16989 O 1551.2 -2.525 0.000649033 0
M  V30 16990 C 1552.51 -0.978775 2.84325 0
M  V30 16991 C 1554.06 -1.08073 2.9375 0
M  V30 16992 C 1554.53 -1.35584 4.37471 0
M  V30 16993 N 1556.03 -1.42423 4.40761 0
M  V30 16994 C 1556.76 -1.6536 5.49039 0
M  V30 16995 N 1556.26 -1.85819 6.67415 0
M  V30 16996 N 1558.05 -1.67475 5.36571 0
M  V30 16997 H 1550.2 0.397925 2.08639 0
M  V30 16998 H 1552.46 0.115803 0.9409 0
M  V30 16999 H 1552.17 -0.16362 3.51319 0
M  V30 17000 H 1552.04 -1.8956 3.26109 0
M  V30 17001 H 1554.43 -1.88646 2.26928 0
M  V30 17002 H 1554.51 -0.141996 2.55406 0
M  V30 17003 H 1554.16 -0.555238 5.04856 0
M  V30 17004 H 1554.09 -2.3073 4.73362 0
M  V30 17005 H 1556.58 -1.28352 3.55435 0
M  V30 17006 H 1556.89 -2.02806 7.45714 0
M  V30 17007 H 1555.23 -1.83059 6.70458 0
M  V30 17008 H 1558.43 -1.51038 4.43064 0
M  V30 17009 H 1558.6 -1.85011 6.21027 0
M  V30 17010 N 1552.01 -1.43353 -0.654814 0
M  V30 17011 C 1552.92 -1.50831 -1.79687 0
M  V30 17012 C 1553.93 -0.395518 -1.69445 0
M  V30 17013 O 1555.11 -0.649408 -1.90643 0
M  V30 17014 C 1552.17 -1.42735 -3.15955 0
M  V30 17015 C 1551.23 -2.64671 -3.38005 0
M  V30 17016 C 1550.47 -2.56952 -4.67773 0
M  V30 17017 O 1550.69 -1.61638 -5.47019 0
M  V30 17018 O 1549.62 -3.47425 -4.91507 0
M  V30 17019 H 1553.45 -2.47266 -1.76333 0
M  V30 17020 H 1551.03 -1.25336 -0.813095 0
M  V30 17021 H 1552.92 -1.40656 -3.97233 0
M  V30 17022 H 1551.59 -0.494334 -3.19903 0
M  V30 17023 H 1550.5 -2.72323 -2.56498 0
M  V30 17024 H 1551.83 -3.5694 -3.38903 0
M  V30 17025 N 1553.48 0.89303 -1.29857 0
M  V30 17026 C 1554.71 1.6827 -1.21243 0
M  V30 17027 C 1555.13 1.86778 0.222621 0
M  V30 17028 O 1554.49 1.39291 1.1605 0
M  V30 17029 C 1554.54 3.041 -1.93792 0
M  V30 17030 O 1553.64 3.92696 -1.25951 0
M  V30 17031 H 1552.98 0.514479 -0.419771 0
M  V30 17032 H 1555.51 1.11513 -1.7154 0
M  V30 17033 H 1555.52 3.54198 -2.02504 0
M  V30 17034 H 1554.2 2.89948 -2.98166 0
M  V30 17035 H 1552.78 3.51132 -1.25541 0
M  V30 17036 N 1554.96 1.12442 1.10429 0
M  V30 17037 C 1556.21 0.890989 1.82847 0
M  V30 17038 C 1556.56 -0.576982 1.83545 0
M  V30 17039 O 1555.86 -1.42106 1.28516 0
M  V30 17040 C 1556.05 1.39976 3.28849 0
M  V30 17041 C 1555.88 2.91567 3.42373 0
M  V30 17042 C 1554.65 3.59803 3.54781 0
M  V30 17043 C 1556.85 3.89566 3.35772 0
M  V30 17044 N 1554.83 4.99508 3.56882 0
M  V30 17045 C 1556.2 5.154 3.44619 0
M  V30 17046 C 1558.25 3.81977 3.19372 0
M  V30 17047 C 1556.96 6.34537 3.38756 0
M  V30 17048 C 1558.98 5.00636 3.1483 0
M  V30 17049 C 1558.35 6.25328 3.24259 0
M  V30 17050 H 1554.44 0.379313 0.683846 0
M  V30 17051 H 1557.03 1.43073 1.32054 0
M  V30 17052 H 1555.2 0.887076 3.78134 0
M  V30 17053 H 1556.93 1.1084 3.89226 0
M  V30 17054 H 1553.69 3.10295 3.5779 0
M  V30 17055 H 1554.11 5.72376 3.61544 0
M  V30 17056 H 1558.75 2.86468 3.1096 0
M  V30 17057 H 1556.47 7.30312 3.45934 0
M  V30 17058 H 1560.06 4.96494 3.03291 0
M  V30 17059 H 1558.94 7.15605 3.20747 0
M  V30 17060 N 1556.44 -1.28223 0.91633 0
M  V30 17061 C 1557.67 -1.98986 0.566772 0
M  V30 17062 C 1558.08 -1.68455 -0.852553 0
M  V30 17063 O 1557.44 -0.938734 -1.56506 0
M  V30 17064 C 1557.49 -3.53217 0.769423 0
M  V30 17065 O 1557.21 -3.82674 2.1329 0
M  V30 17066 C 1558.71 -4.41238 0.427043 0
M  V30 17067 H 1555.93 -0.63534 0.215834 0
M  V30 17068 H 1558.48 -1.63357 1.23024 0
M  V30 17069 H 1556.63 -3.87098 0.152915 0
M  V30 17070 H 1557.05 -4.77302 2.17448 0
M  V30 17071 H 1558.52 -5.48512 0.619594 0
M  V30 17072 H 1559 -4.34558 -0.63686 0
M  V30 17073 H 1559.6 -4.12858 1.0212 0
M  V30 17074 N 1557.92 -0.68059 -1.42147 0
M  V30 17075 C 1559.15 -0.213839 -2.05792 0
M  V30 17076 C 1559.56 1.13123 -1.51158 0
M  V30 17077 O 1558.92 1.7039 -0.653708 0
M  V30 17078 C 1558.97 -0.146507 -3.61203 0
M  V30 17079 O 1558.69 -1.43843 -4.13813 0
M  V30 17080 C 1560.19 0.343043 -4.41971 0
M  V30 17081 H 1557.41 -0.10262 -0.663106 0
M  V30 17082 H 1559.95 -0.928957 -1.82183 0
M  V30 17083 H 1558.11 0.519335 -3.83903 0
M  V30 17084 H 1558.52 -1.31561 -5.07732 0
M  V30 17085 H 1560 0.339053 -5.50958 0
M  V30 17086 H 1560.47 1.37933 -4.16979 0
M  V30 17087 H 1561.08 -0.291267 -4.24301 0
M  V30 17088 N 1559.4 1.51781 -0.424309 0
M  V30 17089 C 1560.34 2.27418 0.393668 0
M  V30 17090 C 1561.31 1.3046 1.02808 0
M  V30 17091 O 1562.5 1.59345 1.04946 0
M  V30 17092 C 1559.64 3.10983 1.49611 0
M  V30 17093 C 1558.75 4.22919 0.881123 0
M  V30 17094 C 1557.89 4.93816 1.95752 0
M  V30 17095 C 1556.92 5.97691 1.32028 0
M  V30 17096 N 1556.06 6.62047 2.33747 0
M  V30 17097 H 1560.9 2.96883 -0.257731 0
M  V30 17098 H 1558.44 1.46442 -0.138942 0
M  V30 17099 H 1560.4 3.57749 2.14642 0
M  V30 17100 H 1559.03 2.43658 2.11732 0
M  V30 17101 H 1558.08 3.80212 0.119445 0
M  V30 17102 H 1559.39 4.97383 0.375764 0
M  V30 17103 H 1558.54 5.44064 2.68476 0
M  V30 17104 H 1557.28 4.18954 2.49658 0
M  V30 17105 H 1556.29 5.46749 0.578444 0
M  V30 17106 H 1557.51 6.74504 0.788722 0
M  V30 17107 H 1555.46 5.90005 2.86757 0
M  V30 17108 H 1555.38 7.32234 1.88066 0
M  V30 17109 H 1556.64 7.16929 3.05995 0
M  V30 17110 N 1560.87 0.155222 1.56834 0
M  V30 17111 C 1562.12 -0.494557 1.96677 0
M  V30 17112 C 1562.45 -1.63973 1.04051 0
M  V30 17113 O 1561.73 -1.94316 0.0844791 0
M  V30 17114 C 1562.01 -0.992902 3.46141 0
M  V30 17115 C 1561.86 0.151335 4.49545 0
M  V30 17116 C 1563.18 -1.87197 3.98303 0
M  V30 17117 H 1560.3 -0.178298 0.715107 0
M  V30 17118 H 1562.94 0.23811 1.88502 0
M  V30 17119 H 1561.09 -1.61724 3.53239 0
M  V30 17120 H 1562.77 0.787945 4.54521 0
M  V30 17121 H 1561.01 0.809262 4.26185 0
M  V30 17122 H 1561.68 -0.23921 5.51481 0
M  V30 17123 H 1564.16 -1.34578 3.93736 0
M  V30 17124 H 1563.03 -2.18972 5.03331 0
M  V30 17125 H 1563.29 -2.81191 3.41151 0
M  V30 17126 N 1562.35 -1.57153 -0.118549 0
M  V30 17127 C 1563.3 -2.01357 -1.1644 0
M  V30 17128 C 1564.29 -0.910574 -1.42846 0
M  V30 17129 O 1565.5 -1.09578 -1.42803 0
M  V30 17130 H 1561.87 -0.641376 -0.392607 0
M  V30 17131 H 1563.85 -2.88425 -0.765087 0
M  V30 17132 C 1562.59 -2.43416 -2.48282 0
M  V30 17133 H 1561.92 -3.27857 -2.288 0
M  V30 17134 H 1563.36 -2.78143 -3.20019 0
M  V30 17135 C 1561.82 -1.29799 -3.10892 0
M  V30 17136 O 1562.35 -0.614207 -3.96977 0
M  V30 17137 N 1560.55 -1.05493 -2.70776 0
M  V30 17138 H 1560.1 -1.61276 -2.00868 0
M  V30 17139 H 1560.06 -0.296678 -3.12997 0
M  V30 17140 N 1563.83 0.388742 -1.5273 0
M  V30 17141 C 1565.08 1.13204 -1.68987 0
M  V30 17142 C 1565.43 1.87655 -0.42468 0
M  V30 17143 O 1564.72 1.82558 0.581645 0
M  V30 17144 C 1564.92 2.13792 -2.86405 0
M  V30 17145 C 1564.75 1.49221 -4.24221 0
M  V30 17146 C 1563.52 1.25618 -4.89437 0
M  V30 17147 C 1565.71 0.942175 -5.05596 0
M  V30 17148 N 1563.7 0.571547 -6.11234 0
M  V30 17149 C 1565.07 0.385614 -6.188 0
M  V30 17150 C 1567.12 0.83861 -4.90787 0
M  V30 17151 C 1565.83 -0.264384 -7.18814 0
M  V30 17152 C 1567.85 0.202432 -5.91053 0
M  V30 17153 C 1567.21 -0.343357 -7.03563 0
M  V30 17154 H 1563.31 0.400199 -0.671837 0
M  V30 17155 H 1565.9 0.421541 -1.90082 0
M  V30 17156 H 1564.07 2.82178 -2.66889 0
M  V30 17157 H 1565.8 2.8063 -2.91597 0
M  V30 17158 H 1562.55 1.53124 -4.48163 0
M  V30 17159 H 1562.98 0.245264 -6.76556 0
M  V30 17160 H 1567.62 1.24637 -4.04012 0
M  V30 17161 H 1565.34 -0.684158 -8.05199 0
M  V30 17162 H 1568.92 0.123542 -5.81669 0
M  V30 17163 H 1567.8 -0.827856 -7.79818 0
M  V30 17164 N 1565.31 1.43698 0.647203 0
M  V30 17165 C 1566.24 1.43777 1.7721 0
M  V30 17166 C 1567.22 0.298484 1.59837 0
M  V30 17167 O 1568.4 0.493002 1.81939 0
M  V30 17168 C 1565.53 1.2551 3.14587 0
M  V30 17169 C 1564.58 2.42793 3.50647 0
M  V30 17170 S 1565.41 4.05341 3.49941 0
M  V30 17171 C 1566.56 3.89468 4.89965 0
M  V30 17172 H 1566.8 2.38963 1.76873 0
M  V30 17173 H 1564.33 1.30801 0.820387 0
M  V30 17174 H 1566.29 1.15658 3.9387 0
M  V30 17175 H 1564.95 0.318629 3.1248 0
M  V30 17176 H 1564.14 2.25832 4.50573 0
M  V30 17177 H 1563.74 2.49302 2.78791 0
M  V30 17178 H 1566.04 3.52164 5.7878 0
M  V30 17179 H 1566.98 4.89167 5.11978 0
M  V30 17180 H 1567.39 3.21816 4.63783 0
M  V30 17181 N 1566.79 -0.886131 1.30328 0
M  V30 17182 C 1567.75 -1.97328 1.16594 0
M  V30 17183 C 1568.75 -1.60504 0.0975023 0
M  V30 17184 O 1569.94 -1.70739 0.345524 0
M  V30 17185 C 1567.07 -3.31714 0.786045 0
M  V30 17186 H 1568.26 -2.1094 2.13177 0
M  V30 17187 H 1565.82 -1.07238 1.13708 0
M  V30 17188 H 1566.55 -3.23804 -0.179334 0
M  V30 17189 H 1566.34 -3.5981 1.55817 0
M  V30 17190 H 1567.83 -4.11461 0.71339 0
M  V30 17191 N 1568.26 -1.13026 -1.09832 0
M  V30 17192 C 1569.21 -0.772653 -2.14509 0
M  V30 17193 C 1570.2 0.231327 -1.59228 0
M  V30 17194 O 1571.39 0.0358767 -1.76964 0
M  V30 17195 C 1568.52 -0.235762 -3.42489 0
M  V30 17196 C 1567.61 -1.2684 -4.04688 0
M  V30 17197 N 1568 -2.46801 -4.41501 0
M  V30 17198 C 1566.29 -1.11521 -4.31832 0
M  V30 17199 C 1567 -3.12791 -4.90445 0
M  V30 17200 N 1565.97 -2.40224 -4.87641 0
M  V30 17201 H 1569.77 -1.68541 -2.40772 0
M  V30 17202 H 1567.29 -1.01195 -1.27017 0
M  V30 17203 H 1569.28 0.038649 -4.16882 0
M  V30 17204 H 1567.94 0.671377 -3.17683 0
M  V30 17205 H 1568.96 -2.84137 -4.32997 0
M  V30 17206 H 1565.63 -0.26589 -4.16652 0
M  V30 17207 H 1567.02 -4.14988 -5.28427 0
M  V30 17208 N 1569.74 1.27735 -0.923117 0
M  V30 17209 C 1570.97 1.98682 -0.577317 0
M  V30 17210 C 1571.39 1.68904 0.843608 0
M  V30 17211 O 1570.74 0.947021 1.56006 0
M  V30 17212 C 1570.79 3.52804 -0.788144 0
M  V30 17213 O 1570.51 3.81537 -2.15316 0
M  V30 17214 C 1572.02 4.41006 -0.450437 0
M  V30 17215 H 1569.24 0.634186 -0.2192 0
M  V30 17216 H 1571.78 1.62702 -1.23888 0
M  V30 17217 H 1569.93 3.87012 -0.173441 0
M  V30 17218 H 1570.35 4.76142 -2.19976 0
M  V30 17219 H 1571.82 5.48175 -0.648674 0
M  V30 17220 H 1572.3 4.3489 0.613806 0
M  V30 17221 H 1572.91 4.1231 -1.04308 0
M  V30 17222 N 1571.22 0.688118 1.41784 0
M  V30 17223 C 1572.47 0.216263 2.01644 0
M  V30 17224 C 1572.8 -1.17861 1.54345 0
M  V30 17225 O 1572.07 -1.794 0.751392 0
M  V30 17226 C 1572.36 0.265663 3.59119 0
M  V30 17227 C 1572.21 1.69694 4.16562 0
M  V30 17228 C 1573.53 -0.378713 4.38468 0
M  V30 17229 H 1570.65 0.0800582 0.732639 0
M  V30 17230 H 1573.29 0.875428 1.68631 0
M  V30 17231 H 1571.44 -0.295588 3.87374 0
M  V30 17232 H 1573.11 2.31146 3.9921 0
M  V30 17233 H 1571.36 2.23345 3.71886 0
M  V30 17234 H 1572.03 1.68309 5.25715 0
M  V30 17235 H 1574.5 0.0991969 4.15982 0
M  V30 17236 H 1573.38 -0.31357 5.48004 0
M  V30 17237 H 1573.64 -1.45832 4.17355 0
M  V30 17238 N 1572.7 -1.51554 0.432352 0
M  V30 17239 C 1574.11 -1.59377 0.0843863 0
M  V30 17240 C 1574.31 -1.44364 -1.40575 0
M  V30 17241 O 1573.37 -1.28234 -2.17514 0
M  V30 17242 C 1574.68 -2.94652 0.600046 0
M  V30 17243 C 1576.23 -3.07949 0.560049 0
M  V30 17244 C 1576.71 -4.4574 1.0526 0
M  V30 17245 N 1578.2 -4.52046 1.01038 0
M  V30 17246 C 1578.93 -5.56979 1.36242 0
M  V30 17247 N 1578.43 -6.69355 1.78707 0
M  V30 17248 N 1580.22 -5.47311 1.2809 0
M  V30 17249 H 1572.37 -1.59558 1.40197 0
M  V30 17250 H 1574.64 -0.751868 0.577406 0
M  V30 17251 H 1574.34 -3.10993 1.64245 0
M  V30 17252 H 1574.22 -3.77193 0.0222482 0
M  V30 17253 H 1576.6 -2.91279 -0.473357 0
M  V30 17254 H 1576.68 -2.27259 1.17419 0
M  V30 17255 H 1576.33 -4.63156 2.08445 0
M  V30 17256 H 1576.26 -5.24962 0.415047 0
M  V30 17257 H 1578.75 -3.71389 0.69847 0
M  V30 17258 H 1579.06 -7.45438 2.03819 0
M  V30 17259 H 1577.41 -6.70576 1.82629 0
M  V30 17260 H 1580.6 -4.58403 0.947848 0
M  V30 17261 H 1580.77 -6.28978 1.55855 0
M  V30 17262 N 1574.18 -0.163538 -1.56749 0
M  V30 17263 C 1575.12 0.769787 -2.17584 0
M  V30 17264 C 1576.09 1.23246 -1.11354 0
M  V30 17265 O 1577.28 1.30203 -1.3947 0
M  V30 17266 C 1574.42 1.99685 -2.81461 0
M  V30 17267 C 1573.53 1.57846 -4.0213 0
M  V30 17268 C 1572.67 2.75858 -4.53955 0
M  V30 17269 C 1571.71 2.30473 -5.67053 0
M  V30 17270 N 1570.84 3.41551 -6.13423 0
M  V30 17271 H 1575.68 0.244221 -2.96998 0
M  V30 17272 H 1573.22 0.108821 -1.46697 0
M  V30 17273 H 1575.18 2.71643 -3.16648 0
M  V30 17274 H 1573.81 2.49624 -2.04664 0
M  V30 17275 H 1572.86 0.755907 -3.72814 0
M  V30 17276 H 1574.17 1.20525 -4.8402 0
M  V30 17277 H 1573.33 3.55984 -4.91284 0
M  V30 17278 H 1572.06 3.16434 -3.71107 0
M  V30 17279 H 1571.07 1.48791 -5.29284 0
M  V30 17280 H 1572.29 1.90964 -6.51698 0
M  V30 17281 H 1570.24 3.81717 -5.33506 0
M  V30 17282 H 1570.16 3.08298 -6.90281 0
M  V30 17283 H 1571.43 4.21985 -6.554 0
M  V30 17284 N 1575.65 1.57214 0.110213 0
M  V30 17285 C 1576.93 1.76298 0.847249 0
M  V30 17286 C 1577.31 0.741294 1.97656 0
M  V30 17287 O 1576.66 -0.233104 2.27308 0
M  V30 17288 C 1576.87 3.21588 1.35582 0
M  V30 17289 C 1578.22 3.8434 1.80465 0
M  V30 17290 O 1579.24 3.25244 1.45241 0
M  V30 17291 O 1578.1 4.88231 2.45546 0
M  V30 17292 H 1575.19 0.722167 0.402993 0
M  V30 17293 H 1577.74 1.69443 0.0932694 0
M  V30 17294 H 1576.51 3.87472 0.54599 0
M  V30 17295 H 1576.14 3.33015 2.17225 0
M  V30 17296 N 1577.13 -0.380637 1.52934 0
M  V30 17297 C 1578.36 -1.14417 1.72024 0
M  V30 17298 C 1578.77 -1.83962 0.442128 0
M  V30 17299 O 1578.11 -1.73839 -0.593766 0
M  V30 17300 C 1578.18 -2.22944 2.82022 0
M  V30 17301 C 1577.84 -1.73295 4.22869 0
M  V30 17302 C 1578.84 -1.20515 5.05739 0
M  V30 17303 C 1576.52 -1.79264 4.69222 0
M  V30 17304 C 1578.52 -0.743632 6.33047 0
M  V30 17305 C 1576.2 -1.32724 5.96513 0
M  V30 17306 C 1577.2 -0.803615 6.78256 0
M  V30 17307 O 1576.89 -0.34503 8.03159 0
M  V30 17308 H 1576.62 -0.348676 0.579138 0
M  V30 17309 H 1579.17 -0.450113 2.00407 0
M  V30 17310 H 1577.4 -2.95798 2.49079 0
M  V30 17311 H 1579.09 -2.84575 2.89434 0
M  V30 17312 H 1579.86 -1.15254 4.71107 0
M  V30 17313 H 1575.74 -2.18962 4.0568 0
M  V30 17314 H 1579.28 -0.334251 6.96799 0
M  V30 17315 H 1575.18 -1.37673 6.30648 0
M  V30 17316 H 1575.95 -0.465743 8.17174 0
M  V30 17317 N 1578.61 -1.44039 -0.639573 0
M  V30 17318 C 1580.03 -1.2774 -0.956802 0
M  V30 17319 C 1580.23 -0.207018 -2.00434 0
M  V30 17320 O 1579.28 0.409954 -2.4915 0
M  V30 17321 C 1580.6 -2.64624 -1.42809 0
M  V30 17322 C 1582.14 -2.72266 -1.54402 0
M  V30 17323 C 1582.62 -4.09601 -2.04918 0
M  V30 17324 N 1584.11 -4.11735 -2.122 0
M  V30 17325 C 1584.84 -5.14842 -2.52439 0
M  V30 17326 N 1584.34 -6.28316 -2.91875 0
M  V30 17327 N 1586.13 -5.02196 -2.52499 0
M  V30 17328 H 1578.28 -2.12333 0.0533569 0
M  V30 17329 H 1580.55 -0.947208 -0.0387401 0
M  V30 17330 H 1580.25 -3.43983 -0.732728 0
M  V30 17331 H 1580.13 -2.90944 -2.40066 0
M  V30 17332 H 1582.51 -1.93232 -2.23037 0
M  V30 17333 H 1582.6 -2.49697 -0.555426 0
M  V30 17334 H 1582.24 -4.89108 -1.3688 0
M  V30 17335 H 1582.17 -4.29542 -3.04633 0
M  V30 17336 H 1584.66 -3.29833 -1.84441 0
M  V30 17337 H 1584.97 -7.0281 -3.21368 0
M  V30 17338 H 1583.32 -6.31767 -2.89647 0
M  V30 17339 H 1586.51 -4.12606 -2.21075 0
M  V30 17340 H 1586.68 -5.82677 -2.83535 0
M  V30 17341 N 1580.09 0.879207 -1.30796 0
M  V30 17342 C 1581.31 1.66975 -1.23021 0
M  V30 17343 C 1581.74 1.87004 0.202798 0
M  V30 17344 O 1581.1 1.40514 1.14566 0
M  V30 17345 C 1581.14 3.02028 -1.97007 0
M  V30 17346 O 1580.25 3.91338 -1.30109 0
M  V30 17347 H 1579.59 0.509998 -0.425204 0
M  V30 17348 H 1582.12 1.09688 -1.72713 0
M  V30 17349 H 1582.13 3.5203 -2.06249 0
M  V30 17350 H 1580.8 2.8677 -3.01224 0
M  V30 17351 H 1579.38 3.49781 -1.29258 0
M  V30 17352 O 1581.61 1.25576 1.01553 0
M  V30 17353 H 1582.3 1.04 1.63413 0
M  V30 END ATOM
M  V30 BEGIN BOND
M  V30 END BOND
M  V30 END CTAB
M  END
$$$$
