drugbank_target|P54278 Mismatch repair endonuclease PMS2 (DB02930)
 OpenBabel12092120253D

  0  0  0     0  0            999 V3000
M  V30 BEGIN CTAB
M  V30 COUNTS 13387 13506 0 0 0
M  V30 BEGIN ATOM
M  V30 1 H -0.908 1.98254 -0.117106 0
M  V30 2 N 0 1.576 0 0
M  V30 3 C 0.933 2.03868 1.02534 0
M  V30 4 C 1.911 0.928543 1.3348 0
M  V30 5 O 3.095 1.19667 1.45644 0
M  V30 6 C 0.222 2.43627 2.35294 0
M  V30 7 C -0.732 3.65373 2.2001 0
M  V30 8 S 0.101 5.13292 1.52614 0
M  V30 9 C 1.257 5.56322 2.86805 0
M  V30 10 H 1.49 2.90518 0.631377 0
M  V30 11 H -0.977 1.52953 0.210867 0
M  V30 12 H 0.981 2.67203 3.11629 0
M  V30 13 H -0.358 1.57376 2.7183 0
M  V30 14 H -1.165 3.90944 3.18086 0
M  V30 15 H -1.563 3.418 1.51819 0
M  V30 16 H 0.729 5.58782 3.83104 0
M  V30 17 H 1.672 6.56266 2.65933 0
M  V30 18 H 2.08 4.83886 2.90714 0
M  V30 19 N 1.4781 -0.272755 1.55222 0
M  V30 20 C 2.3881 -1.35918 1.91216 0
M  V30 21 C 3.4041 -1.54026 0.809436 0
M  V30 22 O 4.5801 -1.68148 1.10852 0
M  V30 23 C 1.6451 -2.69834 2.17693 0
M  V30 24 C 0.7061 -2.6047 3.41253 0
M  V30 25 C -0.0609 -3.88 3.66458 0
M  V30 26 O 0.1621 -4.88693 2.94169 0
M  V30 27 O -0.9039 -3.88189 4.59992 0
M  V30 28 H 2.9221 -1.0839 2.83699 0
M  V30 29 H 0.5071 -0.471301 1.41771 0
M  V30 30 H 2.3891 -3.49017 2.36147 0
M  V30 31 H 1.0641 -2.97148 1.28392 0
M  V30 32 H -0.0289 -1.79663 3.28134 0
M  V30 33 H 1.3041 -2.38106 4.30774 0
M  V30 34 N 2.9562 -1.48159 -0.537278 0
M  V30 35 C 4.3722 -1.34118 -0.865129 0
M  V30 36 C 4.5722 -0.346678 -1.98495 0
M  V30 37 O 3.6282 0.234715 -2.51407 0
M  V30 38 C 4.9412 -2.73963 -1.23954 0
M  V30 39 C 6.4892 -2.82397 -1.34984 0
M  V30 40 C 6.9642 -4.22928 -1.75772 0
M  V30 41 N 8.4552 -4.25566 -1.82887 0
M  V30 42 C 9.1902 -5.31235 -2.15817 0
M  V30 43 N 8.6862 -6.47189 -2.47222 0
M  V30 44 N 10.4792 -5.18624 -2.16761 0
M  V30 45 H 2.6302 -2.1144 0.201715 0
M  V30 46 H 4.8932 -0.947598 0.0275949 0
M  V30 47 H 4.5992 -3.48264 -0.490381 0
M  V30 48 H 4.4732 -3.0702 -2.19132 0
M  V30 49 H 6.8602 -2.08356 -2.08978 0
M  V30 50 H 6.9412 -2.5297 -0.379448 0
M  V30 51 H 6.5852 -4.97482 -1.02341 0
M  V30 52 H 6.5152 -4.49794 -2.73848 0
M  V30 53 H 9.0062 -3.41924 -1.60924 0
M  V30 54 H 9.3192 -7.23564 -2.71433 0
M  V30 55 H 7.6642 -6.50476 -2.44757 0
M  V30 56 H 10.8552 -4.27056 -1.91679 0
M  V30 57 H 11.0282 -6.01078 -2.42093 0
M  V30 58 N 4.4343 0.785586 -1.36625 0
M  V30 59 C 5.3973 1.87999 -1.31107 0
M  V30 60 C 6.3973 1.59316 -0.217959 0
M  V30 61 O 7.5873 1.67656 -0.472977 0
M  V30 62 C 4.7193 3.24861 -1.03334 0
M  V30 63 H 5.9123 1.94307 -2.2844 0
M  V30 64 H 3.4653 0.983813 -1.21453 0
M  V30 65 H 4.2003 3.24235 -0.0647432 0
M  V30 66 H 3.9853 3.4707 -1.82441 0
M  V30 67 H 5.4753 4.04929 -1.02088 0
M  V30 68 N 5.9124 1.20967 1.01018 0
M  V30 69 C 6.8224 0.980157 2.13143 0
M  V30 70 C 7.8384 -0.0660665 1.73875 0
M  V30 71 O 9.0144 0.122821 2.01025 0
M  V30 72 C 6.0794 0.54216 3.42435 0
M  V30 73 C 5.1404 1.65999 3.95908 0
M  V30 74 C 4.3734 1.2428 5.19028 0
M  V30 75 O 4.5964 0.114196 5.70286 0
M  V30 76 O 3.5304 2.05271 5.65816 0
M  V30 77 H 7.3564 1.91913 2.35379 0
M  V30 78 H 4.9414 0.994099 1.11526 0
M  V30 79 H 6.8234 0.30744 4.20277 0
M  V30 80 H 5.4984 -0.36815 3.216 0
M  V30 81 H 4.4054 1.94906 3.19316 0
M  V30 82 H 5.7384 2.54753 4.21143 0
M  V30 83 N 7.3905 -1.2043 1.01659 0
M  V30 84 C 8.6155 -1.94318 0.724942 0
M  V30 85 C 9.0405 -1.74266 -0.708034 0
M  V30 86 O 8.3985 -1.03694 -1.48719 0
M  V30 87 C 8.4465 -3.44486 1.06591 0
M  V30 88 O 7.5505 -4.12017 0.177599 0
M  V30 89 H 6.8915 -0.60708 0.26898 0
M  V30 90 H 9.4215 -1.52861 1.35995 0
M  V30 91 H 9.4315 -3.95106 1.01762 0
M  V30 92 H 8.1065 -3.58404 2.10997 0
M  V30 93 H 6.6835 -3.71821 0.283421 0
M  V30 94 N 8.8686 -0.792821 -1.36206 0
M  V30 95 C 10.0936 -0.377701 -2.03932 0
M  V30 96 C 10.5186 0.998947 -1.59382 0
M  V30 97 O 9.8766 1.64421 -0.763903 0
M  V30 98 C 9.9246 -0.453635 -3.57735 0
M  V30 99 O 9.0286 0.538151 -4.08874 0
M  V30 100 H 8.3696 -0.159855 -0.644471 0
M  V30 101 H 10.8996 -1.07488 -1.7409 0
M  V30 102 H 10.9096 -0.318464 -4.06755 0
M  V30 103 H 9.5846 -1.45784 -3.89512 0
M  V30 104 H 8.1616 0.364359 -3.71116 0
M  V30 105 N 10.3467 1.47872 -0.545128 0
M  V30 106 C 11.5717 2.07391 -0.0190611 0
M  V30 107 C 11.9967 1.39688 1.25971 0
M  V30 108 O 11.3547 0.467816 1.7516 0
M  V30 109 C 11.4027 3.60188 0.172335 0
M  V30 110 O 10.5067 3.9339 1.23766 0
M  V30 111 H 9.8477 0.662411 -0.0459059 0
M  V30 112 H 12.3777 1.90066 -0.757365 0
M  V30 113 H 12.3877 4.06129 0.390305 0
M  V30 114 H 11.0627 4.08865 -0.761725 0
M  V30 115 H 9.6397 3.5921 1.00114 0
M  V30 116 N 11.8248 0.280983 1.55075 0
M  V30 117 C 13.0528 -0.337293 2.04132 0
M  V30 118 C 13.4678 -1.4903 1.15912 0
M  V30 119 O 12.8248 -1.81606 0.180459 0
M  V30 120 C 12.8758 -0.812706 3.52246 0
M  V30 121 O 12.5968 0.294387 4.3711 0
M  V30 122 C 14.0978 -1.4982 4.17216 0
M  V30 123 H 11.3178 -0.0761638 0.666663 0
M  V30 124 H 13.8618 0.414787 2.00249 0
M  V30 125 H 12.0168 -1.51486 3.56554 0
M  V30 126 H 12.4308 -0.0721325 5.2445 0
M  V30 127 H 13.9048 -1.7822 5.22438 0
M  V30 128 H 14.3818 -2.43168 3.65741 0
M  V30 129 H 14.9878 -0.839742 4.16927 0
M  V30 130 N 13.3029 -1.57598 0.00835791 0
M  V30 131 C 14.2129 -2.12385 -0.996487 0
M  V30 132 C 15.2289 -1.07108 -1.37127 0
M  V30 133 O 16.4049 -1.39055 -1.4569 0
M  V30 134 C 13.4699 -2.62314 -2.26699 0
M  V30 135 C 12.5309 -3.82225 -1.95456 0
M  V30 136 C 11.7639 -4.29763 -3.16449 0
M  V30 137 O 11.9869 -3.76584 -4.28416 0
M  V30 138 O 10.9209 -5.21832 -2.99958 0
M  V30 139 H 14.7469 -2.98479 -0.560725 0
M  V30 140 H 12.3319 -1.47903 -0.210987 0
M  V30 141 H 14.2139 -2.94589 -3.01322 0
M  V30 142 H 12.8889 -1.79313 -2.69497 0
M  V30 143 H 11.7959 -3.54909 -1.18282 0
M  V30 144 H 13.1289 -4.66324 -1.57489 0
M  V30 145 N 14.781 0.264519 -1.55364 0
M  V30 146 C 16.192 0.834936 -1.6699 0
M  V30 147 C 16.543 1.86718 -0.602552 0
M  V30 148 O 15.668 2.14899 0.254425 0
M  V30 149 C 16.263 1.5212 -3.02729 0
M  V30 150 C 14.822 2.03954 -3.16354 0
M  V30 151 C 13.969 0.884498 -2.62815 0
M  V30 152 H 16.92 0.0406869 -1.58648 0
M  V30 153 H 16.941 2.38853 -2.96191 0
M  V30 154 H 16.453 0.769668 -3.80392 0
M  V30 155 H 14.554 2.82041 -2.43482 0
M  V30 156 H 14.667 2.24902 -4.23032 0
M  V30 157 H 13.031 1.2802 -2.20188 0
M  V30 158 H 13.814 0.14634 -3.42988 0
M  V30 159 N 16.2591 1.48442 0.529413 0
M  V30 160 C 17.2221 1.62524 1.61612 0
M  V30 161 C 18.2221 0.498509 1.52877 0
M  V30 162 O 19.4121 0.76431 1.56537 0
M  V30 163 C 16.5441 1.59597 3.01233 0
M  V30 164 H 17.7371 2.59423 1.50465 0
M  V30 165 H 15.2901 1.37047 0.751514 0
M  V30 166 H 16.0251 0.641781 3.17886 0
M  V30 167 H 15.8101 2.41397 3.08982 0
M  V30 168 H 17.3001 1.72646 3.80241 0
M  V30 169 N 17.7372 -0.778329 1.37039 0
M  V30 170 C 18.6842 -1.89139 1.32269 0
M  V30 171 C 19.6542 -1.65017 0.189387 0
M  V30 172 O 20.8392 -1.87024 0.377693 0
M  V30 173 C 17.9792 -3.26112 1.12894 0
M  V30 174 C 17.0922 -3.62233 2.35396 0
M  V30 175 C 16.2272 -4.8838 2.08946 0
M  V30 176 C 15.2662 -5.17212 3.2735 0
M  V30 177 N 14.4032 -6.34546 3.00492 0
M  V30 178 H 19.2432 -1.92552 2.27437 0
M  V30 179 H 16.7802 -0.941473 1.13025 0
M  V30 180 H 18.7382 -4.05116 0.996835 0
M  V30 181 H 17.3682 -3.22091 0.213758 0
M  V30 182 H 16.4202 -2.78265 2.5937 0
M  V30 183 H 17.7322 -3.79481 3.23721 0
M  V30 184 H 16.8862 -5.75274 1.92729 0
M  V30 185 H 15.6252 -4.73222 1.17949 0
M  V30 186 H 14.6302 -4.28796 3.44113 0
M  V30 187 H 15.8552 -5.34283 4.19188 0
M  V30 188 H 13.8012 -6.20759 2.12118 0
M  V30 189 H 13.7182 -6.52179 3.82358 0
M  V30 190 H 14.9862 -7.24394 2.87879 0
M  V30 191 N 19.2153 -1.21501 -1.00376 0
M  V30 192 C 20.1783 -0.976927 -2.07337 0
M  V30 193 C 21.1783 0.0525322 -1.60714 0
M  V30 194 O 22.3683 -0.184869 -1.73216 0
M  V30 195 C 19.5003 -0.473423 -3.37597 0
M  V30 196 H 20.6933 -1.92587 -2.29892 0
M  V30 197 H 18.2463 -1.03217 -1.17371 0
M  V30 198 H 18.9813 0.480379 -3.20722 0
M  V30 199 H 18.7663 -1.216 -3.72768 0
M  V30 200 H 20.2563 -0.32675 -4.1632 0
M  V30 201 N 20.6934 1.19889 -1.02296 0
M  V30 202 C 21.9424 1.88743 -0.711257 0
M  V30 203 C 22.2554 1.80112 0.762817 0
M  V30 204 O 23.4614 2.44161 1.18733 0
M  V30 205 C 21.9174 3.38525 -1.22185 0
M  V30 206 C 21.5254 3.55727 -2.72328 0
M  V30 207 C 23.2694 4.12893 -0.985864 0
M  V30 208 C 21.1764 4.99369 -3.16835 0
M  V30 209 H 20.1064 0.706885 -0.262353 0
M  V30 210 H 22.7574 1.35586 -1.23648 0
M  V30 211 H 21.1394 3.91044 -0.624571 0
M  V30 212 H 22.3134 3.13564 -3.3766 0
M  V30 213 H 20.6284 2.94739 -2.9414 0
M  V30 214 H 23.2254 5.18813 -1.29374 0
M  V30 215 H 23.5684 4.16228 0.0775055 0
M  V30 216 H 24.1014 3.66494 -1.54684 0
M  V30 217 H 20.8404 5.01193 -4.22476 0
M  V30 218 H 20.3604 5.42317 -2.56228 0
M  V30 219 H 22.0394 5.67988 -3.09837 0
M  V30 220 N 22.1715 0.800033 1.35784 0
M  V30 221 C 23.1185 0.203848 2.29898 0
M  V30 222 C 24.0885 -0.658375 1.52495 0
M  V30 223 O 25.2735 -0.604832 1.8096 0
M  V30 224 C 22.4135 -0.64688 3.38983 0
M  V30 225 C 21.5265 0.235054 4.3136 0
M  V30 226 C 20.6615 -0.623054 5.27533 0
M  V30 227 C 19.7005 0.259682 6.11549 0
M  V30 228 N 18.8375 -0.558019 6.99879 0
M  V30 229 H 23.6775 1.01186 2.80295 0
M  V30 230 H 21.2145 0.51053 1.37957 0
M  V30 231 H 23.1725 -1.15521 4.00887 0
M  V30 232 H 21.8025 -1.42021 2.89879 0
M  V30 233 H 20.8545 0.861438 3.70518 0
M  V30 234 H 22.1665 0.914768 4.9034 0
M  V30 235 H 21.3205 -1.19678 5.94779 0
M  V30 236 H 20.0595 -1.33636 4.69034 0
M  V30 237 H 19.0645 0.845726 5.43256 0
M  V30 238 H 20.2895 0.970748 6.72126 0
M  V30 239 H 18.2355 -1.25542 6.43875 0
M  V30 240 H 18.1525 0.0637872 7.55973 0
M  V30 241 H 19.4205 -1.11523 7.71481 0
M  V30 242 N 23.6496 -1.47581 0.552962 0
M  V30 243 C 25.0606 -1.86324 0.118463 0
M  V30 244 C 25.4116 -1.46006 -1.3106 0
M  V30 245 O 24.5366 -0.861182 -1.98526 0
M  V30 246 C 25.1316 -3.3816 0.20821 0
M  V30 247 C 23.6906 -3.7601 -0.171226 0
M  V30 248 C 22.8376 -2.71634 0.557686 0
M  V30 249 H 25.7886 -1.39159 0.762928 0
M  V30 250 H 25.8096 -3.76141 -0.574278 0
M  V30 251 H 25.3216 -3.67473 1.24841 0
M  V30 252 H 23.4226 -3.52313 -1.21269 0
M  V30 253 H 23.5356 -4.78745 0.184379 0
M  V30 254 H 21.8996 -2.547 0.00125792 0
M  V30 255 H 22.6826 -3.0379 1.59896 0
M  V30 256 N 25.1277 -0.289203 -1.54924 0
M  V30 257 C 26.3767 0.324231 -1.99077 0
M  V30 258 C 26.6897 1.5591 -1.18117 0
M  V30 259 O 27.8957 2.24637 -1.52481 0
M  V30 260 C 26.3517 0.628209 -3.54375 0
M  V30 261 C 25.9597 -0.587647 -4.44129 0
M  V30 262 C 27.7037 1.20349 -4.07083 0
M  V30 263 C 25.6107 -0.257475 -5.90839 0
M  V30 264 H 24.5407 0.124924 -0.743579 0
M  V30 265 H 27.1917 -0.396063 -1.79175 0
M  V30 266 H 25.5737 1.40778 -3.70132 0
M  V30 267 H 26.7477 -1.36418 -4.40144 0
M  V30 268 H 25.0627 -1.08074 -4.0213 0
M  V30 269 H 27.6597 1.46456 -5.14252 0
M  V30 270 H 28.0027 2.14195 -3.56968 0
M  V30 271 H 28.5357 0.485889 -3.94821 0
M  V30 272 H 25.2747 -1.16419 -6.45079 0
M  V30 273 H 24.7947 0.482018 -5.9786 0
M  V30 274 H 26.4737 0.145238 -6.46837 0
M  V30 275 N 26.6058 1.57591 -0.0167156 0
M  V30 276 C 27.8828 1.82547 0.702564 0
M  V30 277 C 28.2628 0.898018 1.91047 0
M  V30 278 O 27.6108 -0.0493456 2.28447 0
M  V30 279 C 27.8208 3.31459 1.09251 0
M  V30 280 C 29.1688 3.97622 1.48937 0
M  V30 281 O 30.1928 3.35881 1.18584 0
M  V30 282 O 29.0518 5.06415 2.05442 0
M  V30 283 H 26.1458 0.752268 0.343544 0
M  V30 284 H 28.6918 1.69644 -0.0434495 0
M  V30 285 H 27.4638 3.9061 0.23227 0
M  V30 286 H 27.0868 3.49422 1.89709 0
M  V30 287 N 28.0839 -0.256276 1.55502 0
M  V30 288 C 29.4999 -0.604325 1.47716 0
M  V30 289 C 29.6999 -1.88763 0.705039 0
M  V30 290 O 28.7559 -2.51445 0.230613 0
M  V30 291 C 30.0689 -0.715756 2.92057 0
M  V30 292 C 31.6169 -0.808706 3.02372 0
M  V30 293 C 32.0919 -0.951777 4.48001 0
M  V30 294 N 33.5829 -1.01688 4.519 0
M  V30 295 C 34.3179 -1.14668 5.61817 0
M  V30 296 N 33.8139 -1.24261 6.81565 0
M  V30 297 N 35.6069 -1.1791 5.49594 0
M  V30 298 H 27.7579 0.586291 2.04148 0
M  V30 299 H 30.0209 0.201015 0.926443 0
M  V30 300 H 29.7269 0.157027 3.51349 0
M  V30 301 H 29.6009 -1.59071 3.42018 0
M  V30 302 H 31.9879 -1.67195 2.43166 0
M  V30 303 H 32.0689 0.0912063 2.55637 0
M  V30 304 H 31.7129 -0.0931291 5.07815 0
M  V30 305 H 31.6429 -1.86659 4.92408 0
M  V30 306 H 34.1339 -0.954468 3.65648 0
M  V30 307 H 34.4469 -1.34046 7.61086 0
M  V30 308 H 32.7919 -1.21236 6.84344 0
M  V30 309 H 35.9829 -1.10057 4.54978 0
M  V30 310 H 36.1559 -1.27681 6.35296 0
M  V30 311 N 29.562 -1.4872 -0.521534 0
M  V30 312 C 30.509 -1.63871 -1.62527 0
M  V30 313 C 31.479 -0.480559 -1.58996 0
M  V30 314 O 32.664 -0.705085 -1.77294 0
M  V30 315 C 29.804 -1.69227 -3.00759 0
M  V30 316 C 28.917 -2.96207 -3.14461 0
M  V30 317 C 28.052 -2.92671 -4.43303 0
M  V30 318 C 27.091 -4.14318 -4.50563 0
M  V30 319 N 26.228 -4.0881 -5.70805 0
M  V30 320 H 31.068 -2.58123 -1.48918 0
M  V30 321 H 28.605 -1.28 -0.724878 0
M  V30 322 H 30.563 -1.70314 -3.80853 0
M  V30 323 H 29.193 -0.784586 -3.1312 0
M  V30 324 H 28.245 -3.04826 -2.27564 0
M  V30 325 H 29.557 -3.86192 -3.15686 0
M  V30 326 H 28.711 -2.92206 -5.31696 0
M  V30 327 H 27.45 -2.00429 -4.44612 0
M  V30 328 H 26.455 -4.15049 -3.60575 0
M  V30 329 H 27.68 -5.07729 -4.50986 0
M  V30 330 H 25.626 -3.19394 -5.72995 0
M  V30 331 H 25.543 -4.92509 -5.7356 0
M  V30 332 H 26.811 -4.12418 -6.61462 0
M  V30 333 N 31.0401 0.771051 -1.3745 0
M  V30 334 C 32.2651 1.56529 -1.36065 0
M  V30 335 C 32.6901 1.88029 0.0515859 0
M  V30 336 O 32.0481 1.49282 1.02882 0
M  V30 337 C 32.0961 2.85187 -2.20683 0
M  V30 338 O 31.2001 3.79593 -1.61193 0
M  V30 339 H 30.5411 0.47411 -0.464883 0
M  V30 340 H 33.0711 0.954269 -1.80983 0
M  V30 341 H 33.0811 3.34283 -2.33921 0
M  V30 342 H 31.7561 2.61588 -3.23334 0
M  V30 343 H 30.3331 3.38239 -1.56999 0
M  V30 344 N 32.5182 1.22032 0.997298 0
M  V30 345 C 33.7642 1.04376 1.73878 0
M  V30 346 C 34.0972 -0.420716 1.89588 0
M  V30 347 O 33.3722 -1.31202 1.43583 0
M  V30 348 C 33.6552 1.75047 3.14691 0
M  V30 349 C 33.5082 3.29062 3.06656 0
M  V30 350 C 34.8272 1.49928 4.13775 0
M  V30 351 H 31.9462 0.380578 0.631133 0
M  V30 352 H 34.5882 1.50312 1.16217 0
M  V30 353 H 32.7382 1.35996 3.63919 0
M  V30 354 H 34.4102 3.7753 2.65083 0
M  V30 355 H 32.6532 3.58967 2.43568 0
M  V30 356 H 33.3242 3.73683 4.06282 0
M  V30 357 H 35.8002 1.83842 3.73285 0
M  V30 358 H 34.6762 2.01878 5.10428 0
M  V30 359 H 34.9372 0.430929 4.39995 0
M  V30 360 N 33.9963 -1.19345 1.0293 0
M  V30 361 C 34.9463 -2.20472 0.58104 0
M  V30 362 C 35.9303 -1.56578 -0.370442 0
M  V30 363 O 37.1223 -1.75963 -0.191344 0
M  V30 364 C 34.2513 -3.43236 -0.066306 0
M  V30 365 C 33.3373 -4.14274 0.907642 0
M  V30 366 N 33.7283 -4.61492 2.07023 0
M  V30 367 C 32.0263 -4.39966 0.731177 0
M  V30 368 C 32.7273 -5.1605 2.68454 0
M  V30 369 N 31.7033 -5.06875 1.96414 0
M  V30 370 H 35.5053 -2.54659 1.46717 0
M  V30 371 H 33.0193 -1.35423 0.896345 0
M  V30 372 H 35.0163 -4.14927 -0.405068 0
M  V30 373 H 33.6763 -3.10549 -0.948118 0
M  V30 374 H 34.6873 -4.56304 2.44963 0
M  V30 375 H 31.3643 -4.17377 -0.101507 0
M  V30 376 H 32.7543 -5.6287 3.66915 0
M  V30 377 N 35.4744 -0.807222 -1.35358 0
M  V30 378 C 36.4064 -0.175717 -2.28525 0
M  V30 379 C 37.4194 0.625354 -1.5031 0
M  V30 380 O 38.6084 0.457611 -1.72535 0
M  V30 381 C 35.7084 0.773471 -3.29956 0
M  V30 382 C 34.8814 0.0186296 -4.37396 0
M  V30 383 C 33.9404 0.886395 -5.18681 0
M  V30 384 O 32.9664 0.337106 -5.68201 0
M  V30 385 N 34.1684 2.20839 -5.36852 0
M  V30 386 H 36.9334 -0.976091 -2.83359 0
M  V30 387 H 34.4944 -0.662737 -1.47714 0
M  V30 388 H 36.4864 1.35824 -3.81227 0
M  V30 389 H 35.0564 1.47465 -2.75632 0
M  V30 390 H 34.2764 -0.747349 -3.87051 0
M  V30 391 H 35.5644 -0.501577 -5.06322 0
M  V30 392 H 34.9624 2.67858 -4.98265 0
M  V30 393 H 33.5194 2.74237 -5.91301 0
M  V30 394 N 36.9525 1.47285 -0.560781 0
M  V30 395 C 38.2015 2.01668 -0.035895 0
M  V30 396 C 38.5145 1.44021 1.32353 0
M  V30 397 O 39.7205 1.90088 1.93853 0
M  V30 398 C 38.1765 3.59897 -0.0136659 0
M  V30 399 C 37.7845 4.26536 -1.37006 0
M  V30 400 C 39.5285 4.22017 0.458425 0
M  V30 401 C 37.4355 5.76782 -1.30675 0
M  V30 402 H 36.3655 0.753938 -0.00964879 0
M  V30 403 H 39.0165 1.69243 -0.709166 0
M  V30 404 H 37.3985 3.89301 0.725325 0
M  V30 405 H 38.5725 4.0877 -2.12705 0
M  V30 406 H 36.8875 3.76419 -1.78038 0
M  V30 407 H 39.4845 5.32124 0.524247 0
M  V30 408 H 39.8275 3.89437 1.4712 0
M  V30 409 H 40.3605 3.97159 -0.225818 0
M  V30 410 H 37.0995 6.13988 -2.29564 0
M  V30 411 H 36.6195 5.96875 -0.591622 0
M  V30 412 H 38.2985 6.39063 -1.01033 0
M  V30 413 N 38.4306 0.297415 1.54768 0
M  V30 414 C 39.6706 -0.313829 2.01976 0
M  V30 415 C 40.0346 -1.51366 1.1812 0
M  V30 416 O 41.2356 -2.19603 1.5501 0
M  V30 417 C 39.5066 -0.664964 3.51159 0
M  V30 418 S 41.0656 -1.25958 4.20333 0
M  V30 419 H 37.8836 -0.0965014 0.704421 0
M  V30 420 H 40.4856 0.424451 1.90837 0
M  V30 421 H 39.1896 0.21681 4.09827 0
M  V30 422 H 38.7206 -1.43413 3.66328 0
M  V30 423 H 40.7356 -2.54751 4.25813 0
M  V30 424 N 39.9087 -1.5758 0.0250728 0
M  V30 425 C 41.1337 -1.96337 -0.668317 0
M  V30 426 C 41.5587 -0.901314 -1.651 0
M  V30 427 O 40.9167 0.138187 -1.80773 0
M  V30 428 C 40.9647 -3.34191 -1.35457 0
M  V30 429 O 40.0687 -3.30269 -2.46974 0
M  V30 430 H 39.4097 -0.640281 -0.175887 0
M  V30 431 H 41.9397 -2.0442 0.0857224 0
M  V30 432 H 41.9497 -3.70331 -1.71228 0
M  V30 433 H 40.6247 -4.11036 -0.634218 0
M  V30 434 H 39.2017 -3.05841 -2.13344 0
M  V30 435 N 41.3868 0.248026 -1.55636 0
M  V30 436 C 42.6348 0.974295 -1.77065 0
M  V30 437 C 42.9558 1.85897 -0.588849 0
M  V30 438 O 42.2258 1.91868 0.395407 0
M  V30 439 H 40.8058 0.362733 -0.653019 0
M  V30 440 H 43.4678 0.266244 -1.93073 0
M  V30 441 H 42.5638 1.59667 -2.68166 0
M  V30 442 N 42.8649 1.48995 0.513639 0
M  V30 443 C 43.7969 1.60836 1.63293 0
M  V30 444 C 44.8099 0.491701 1.55197 0
M  V30 445 O 45.9989 0.763238 1.6136 0
M  V30 446 C 43.0989 1.53731 3.02027 0
M  V30 447 C 42.2719 2.80715 3.35437 0
M  V30 448 C 41.3309 2.66837 4.53525 0
M  V30 449 O 40.3569 3.40753 4.55934 0
M  V30 450 N 41.5589 1.77539 5.52684 0
M  V30 451 H 44.3239 2.57366 1.53566 0
M  V30 452 H 41.8849 1.45925 0.701259 0
M  V30 453 H 43.8769 1.42118 3.78926 0
M  V30 454 H 42.4469 0.651092 3.05744 0
M  V30 455 H 41.6669 3.06772 2.47557 0
M  V30 456 H 42.9549 3.64927 3.54551 0
M  V30 457 H 42.3529 1.16719 5.53528 0
M  V30 458 H 40.9099 1.71856 6.28736 0
M  V30 459 N 44.343 -0.763751 1.37857 0
M  V30 460 C 45.589 -1.52483 1.33704 0
M  V30 461 C 45.922 -1.94051 -0.0759612 0
M  V30 462 O 45.197 -1.64675 -1.03501 0
M  V30 463 C 45.48 -2.78441 2.28348 0
M  V30 464 C 45.333 -2.43075 3.78463 0
M  V30 465 C 46.652 -3.80415 2.21298 0
M  V30 466 H 43.771 -0.553169 0.487005 0
M  V30 467 H 46.413 -0.875562 1.68624 0
M  V30 468 H 44.563 -3.33842 1.987 0
M  V30 469 H 46.235 -1.93527 4.18742 0
M  V30 470 H 44.478 -1.75666 3.96641 0
M  V30 471 H 45.149 -3.33149 4.40132 0
M  V30 472 H 47.625 -3.34527 2.47449 0
M  V30 473 H 46.501 -4.66257 2.89647 0
M  V30 474 H 46.762 -4.25262 1.20849 0
M  V30 475 N 45.8211 -1.22559 -0.990812 0
M  V30 476 C 47.0671 -1.05297 -1.73322 0
M  V30 477 C 47.4001 0.410655 -1.89808 0
M  V30 478 O 46.6751 1.30439 -1.44277 0
M  V30 479 C 46.9581 -1.76713 -3.13759 0
M  V30 480 C 46.8111 -3.30684 -3.04907 0
M  V30 481 C 48.1301 -1.52121 -4.12974 0
M  V30 482 H 45.2491 -0.38392 -0.629106 0
M  V30 483 H 47.8911 -1.50926 -1.15418 0
M  V30 484 H 46.0411 -1.37924 -3.63193 0
M  V30 485 H 47.7131 -3.7893 -2.63077 0
M  V30 486 H 45.9561 -3.60253 -2.41661 0
M  V30 487 H 46.6271 -3.75833 -4.04294 0
M  V30 488 H 49.1031 -1.85819 -3.72304 0
M  V30 489 H 47.9791 -2.04582 -5.0935 0
M  V30 490 H 48.2401 -0.454257 -4.3976 0
M  V30 491 N 47.2992 1.18797 -1.03562 0
M  V30 492 C 48.2292 2.24472 -0.643019 0
M  V30 493 C 49.2102 1.66433 0.351283 0
M  V30 494 O 50.3952 1.92803 0.232505 0
M  V30 495 C 47.5252 3.473 4.24935e-05 0
M  V30 496 C 46.4792 4.18055 -0.917257 0
M  V30 497 C 45.8052 5.34519 -0.138941 0
M  V30 498 C 47.1052 4.72109 -2.23407 0
M  V30 499 H 48.7992 2.57566 -1.52643 0
M  V30 500 H 46.3452 1.23806 -0.735394 0
M  V30 501 H 48.2982 4.20426 0.286383 0
M  V30 502 H 47.0222 3.13424 0.918299 0
M  V30 503 H 45.6812 3.46821 -1.1879 0
M  V30 504 H 45.3292 4.96891 0.781562 0
M  V30 505 H 45.0292 5.82794 -0.750005 0
M  V30 506 H 46.5532 6.10438 0.1405 0
M  V30 507 H 47.9672 5.36955 -2.00879 0
M  V30 508 H 46.3642 5.30897 -2.79765 0
M  V30 509 H 47.4342 3.89807 -2.88407 0
M  V30 510 N 48.7773 0.814389 1.34928 0
M  V30 511 C 50.0023 0.410097 2.03305 0
M  V30 512 C 50.4273 -0.973464 1.60951 0
M  V30 513 O 49.7853 -1.63185 0.789964 0
M  V30 514 C 49.8333 0.51049 3.56968 0
M  V30 515 O 48.9373 -0.473035 4.09678 0
M  V30 516 H 48.2783 0.170088 0.641846 0
M  V30 517 H 50.8083 1.10244 1.72358 0
M  V30 518 H 50.8183 0.383135 4.06197 0
M  V30 519 H 49.4933 1.51963 3.87144 0
M  V30 520 H 48.0703 -0.305272 3.71648 0
M  V30 521 N 50.2554 -1.46986 0.568584 0
M  V30 522 C 51.1854 -2.32946 -0.160753 0
M  V30 523 C 52.1664 -1.44487 -0.897631 0
M  V30 524 O 53.3514 -1.73327 -0.875867 0
M  V30 525 C 50.4814 -3.26494 -1.18403 0
M  V30 526 C 49.4354 -4.24282 -0.562895 0
M  V30 527 C 48.7614 -5.07236 -1.69163 0
M  V30 528 C 50.0614 -5.19989 0.490761 0
M  V30 529 H 51.7554 -2.94175 0.556916 0
M  V30 530 H 49.3014 -1.4146 0.26927 0
M  V30 531 H 51.2544 -3.85477 -1.70251 0
M  V30 532 H 49.9784 -2.63343 -1.93179 0
M  V30 533 H 48.6374 -3.66541 -0.0656164 0
M  V30 534 H 48.2854 -4.4048 -2.42871 0
M  V30 535 H 47.9854 -5.7345 -1.28174 0
M  V30 536 H 49.5094 -5.6908 -2.21314 0
M  V30 537 H 50.9234 -5.73271 0.0579047 0
M  V30 538 H 49.3204 -5.94469 0.820165 0
M  V30 539 H 50.3904 -4.64777 1.3824 0
M  V30 540 N 51.7335 -0.305618 -1.54608 0
M  V30 541 C 52.9585 0.307562 -2.05107 0
M  V30 542 C 53.3835 1.46385 -1.18123 0
M  V30 543 O 52.7415 1.8034 -0.186324 0
M  V30 544 C 52.7895 0.73704 -3.52987 0
M  V30 545 O 51.8935 1.84134 -3.6901 0
M  V30 546 H 51.2345 0.0589143 -0.661381 0
M  V30 547 H 53.7645 -0.448807 -1.99617 0
M  V30 548 H 53.7745 1.02459 -3.94925 0
M  V30 549 H 52.4495 -0.108773 -4.15758 0
M  V30 550 H 51.0265 1.55398 -3.38978 0
M  V30 551 N 53.2116 1.57565 -0.0334293 0
M  V30 552 C 54.4396 1.9628 0.654347 0
M  V30 553 C 54.8546 0.910138 1.65414 0
M  V30 554 O 54.2116 -0.107595 1.82183 0
M  V30 555 C 54.2626 3.35067 1.35693 0
M  V30 556 O 53.9836 4.36296 0.397191 0
M  V30 557 C 55.4846 3.88439 2.13613 0
M  V30 558 H 52.7046 0.646369 0.180132 0
M  V30 559 H 55.2486 2.04282 -0.0944721 0
M  V30 560 H 53.4036 3.2827 2.05712 0
M  V30 561 H 53.8176 5.1678 0.896597 0
M  V30 562 H 55.2916 4.8788 2.58219 0
M  V30 563 H 55.7686 3.22914 2.97696 0
M  V30 564 H 56.3746 3.98516 1.48543 0
M  V30 565 N 54.6897 -0.239769 1.55765 0
M  V30 566 C 55.6527 -1.28038 1.90103 0
M  V30 567 C 56.6527 -1.40723 0.778055 0
M  V30 568 O 57.8427 -1.39301 1.04599 0
M  V30 569 C 54.9747 -2.65702 2.13577 0
M  V30 570 H 56.1677 -0.988048 2.83157 0
M  V30 571 H 53.7207 -0.479382 1.48767 0
M  V30 572 H 54.4557 -3.00063 1.23015 0
M  V30 573 H 54.2407 -2.57875 2.95369 0
M  V30 574 H 55.7307 -3.40828 2.41301 0
M  V30 575 N 56.1678 -1.49265 -0.50573 0
M  V30 576 C 57.4138 -1.58748 -1.26202 0
M  V30 577 C 57.7468 -0.271227 -1.92297 0
M  V30 578 O 57.0218 0.724831 -1.80489 0
M  V30 579 C 57.3048 -2.74332 -2.33268 0
M  V30 580 C 57.1578 -4.15737 -1.71705 0
M  V30 581 C 58.4768 -2.85576 -3.34865 0
M  V30 582 H 55.5958 -0.577826 -0.457478 0
M  V30 583 H 58.2378 -1.81532 -0.560897 0
M  V30 584 H 56.3878 -2.55036 -2.93068 0
M  V30 585 H 58.0598 -4.46537 -1.15769 0
M  V30 586 H 56.3028 -4.21605 -1.02135 0
M  V30 587 H 56.9738 -4.92477 -2.49341 0
M  V30 588 H 59.4498 -3.03127 -2.8505 0
M  V30 589 H 58.3258 -3.68135 -4.07146 0
M  V30 590 H 58.5868 -1.94732 -3.96903 0
M  V30 591 N 57.6459 0.756429 -1.3826 0
M  V30 592 C 58.5929 1.87011 -1.35261 0
M  V30 593 C 59.5629 1.64695 -0.215616 0
M  V30 594 O 60.7479 1.864 -0.407399 0
M  V30 595 C 57.8879 3.24275 -1.18068 0
M  V30 596 C 57.0009 3.58442 -2.41129 0
M  V30 597 C 56.1359 4.84994 -2.16689 0
M  V30 598 C 55.1749 5.11939 -3.35537 0
M  V30 599 N 54.3119 6.29685 -3.10549 0
M  V30 600 H 59.1519 1.8891 -2.30472 0
M  V30 601 H 56.6889 0.923373 -1.14509 0
M  V30 602 H 58.6469 4.03479 -1.06116 0
M  V30 603 H 57.2769 3.21711 -0.264973 0
M  V30 604 H 56.3289 2.74103 -2.63764 0
M  V30 605 H 57.6409 3.74283 -3.29717 0
M  V30 606 H 56.7949 5.72135 -2.01857 0
M  V30 607 H 55.5339 4.71286 -1.25462 0
M  V30 608 H 54.5389 4.23268 -3.50891 0
M  V30 609 H 55.7639 5.27546 -4.27635 0
M  V30 610 H 53.7099 6.17306 -2.21967 0
M  V30 611 H 53.6269 6.46014 -3.92686 0
M  V30 612 H 54.8949 7.19722 -2.99367 0
M  V30 613 N 59.124 1.23083 0.984299 0
M  V30 614 C 60.034 1.02515 2.11016 0
M  V30 615 C 61.05 -0.0291702 1.73976 0
M  V30 616 O 62.226 0.165434 2.00719 0
M  V30 617 C 59.291 0.614673 3.41208 0
M  V30 618 C 58.352 1.74359 3.92297 0
M  V30 619 C 57.585 1.35261 5.16275 0
M  V30 620 O 57.808 0.235136 5.69915 0
M  V30 621 O 56.742 2.17227 5.61334 0
M  V30 622 H 60.568 1.96862 2.31255 0
M  V30 623 H 58.153 1.01753 1.09392 0
M  V30 624 H 60.035 0.396518 4.1953 0
M  V30 625 H 58.71 -0.299851 3.22308 0
M  V30 626 H 57.617 2.01635 3.1511 0
M  V30 627 H 58.95 2.63629 4.15645 0
M  V30 628 N 60.6021 -1.18246 1.0419 0
M  V30 629 C 61.5321 -2.24127 0.654914 0
M  V30 630 C 62.5131 -1.66617 -0.342451 0
M  V30 631 O 63.6981 -1.92924 -0.222277 0
M  V30 632 C 60.8281 -3.47295 0.0183757 0
M  V30 633 C 59.7821 -4.17563 0.939414 0
M  V30 634 C 59.1081 -5.34438 0.167286 0
M  V30 635 C 60.4081 -4.70917 2.25908 0
M  V30 636 H 62.1021 -2.56753 1.54007 0
M  V30 637 H 59.6481 -1.23414 0.74195 0
M  V30 638 H 61.6011 -4.20572 -0.264082 0
M  V30 639 H 60.3251 -3.13907 -0.901664 0
M  V30 640 H 58.9841 -3.46186 1.20628 0
M  V30 641 H 58.6321 -4.97298 -0.7552 0
M  V30 642 H 58.3321 -5.82388 0.780901 0
M  V30 643 H 59.8561 -6.10504 -0.108125 0
M  V30 644 H 61.2701 -5.35882 2.03724 0
M  V30 645 H 59.6671 -5.29406 2.82577 0
M  V30 646 H 60.7371 -3.88272 2.9047 0
M  V30 647 N 62.0802 -0.821533 -1.34494 0
M  V30 648 C 63.3262 -0.409552 -1.98622 0
M  V30 649 C 63.6592 1.0244 -1.64984 0
M  V30 650 O 62.9342 1.71325 -0.920758 0
M  V30 651 C 63.2172 -0.610458 -3.54888 0
M  V30 652 C 63.0702 -2.09043 -3.98273 0
M  V30 653 C 64.3892 -0.0455379 -4.40076 0
M  V30 654 H 61.5082 -0.15028 -0.721516 0
M  V30 655 H 64.1502 -1.03384 -1.59411 0
M  V30 656 H 62.3002 -0.079044 -3.8842 0
M  V30 657 H 63.9722 -2.68537 -3.75081 0
M  V30 658 H 62.2152 -2.58139 -3.48635 0
M  V30 659 H 62.8862 -2.18182 -5.07051 0
M  V30 660 H 65.3622 -0.499557 -4.1309 0
M  V30 661 H 64.2382 -0.215922 -5.48475 0
M  V30 662 H 64.4992 1.04939 -4.29465 0
M  V30 663 N 63.5583 1.46682 -0.576371 0
M  V30 664 C 64.4683 2.34032 0.163141 0
M  V30 665 C 65.4843 1.49367 0.892501 0
M  V30 666 O 66.6603 1.82252 0.857106 0
M  V30 667 C 63.7253 3.26435 1.16795 0
M  V30 668 C 62.7863 4.26998 0.443944 0
M  V30 669 C 62.0193 5.14986 1.40088 0
M  V30 670 O 62.2423 5.05785 2.637 0
M  V30 671 O 61.1763 5.94906 0.914917 0
M  V30 672 H 65.0023 2.98607 -0.55388 0
M  V30 673 H 62.5873 1.45554 -0.336821 0
M  V30 674 H 64.4693 3.83459 1.74748 0
M  V30 675 H 63.1443 2.64465 1.86655 0
M  V30 676 H 62.0513 3.7368 -0.177271 0
M  V30 677 H 63.3843 4.91736 -0.213566 0
M  V30 678 N 65.0364 0.313813 1.54444 0
M  V30 679 C 65.9844 -0.572171 2.25453 0
M  V30 680 C 66.9784 -1.12657 1.2651 0
M  V30 681 O 68.1844 -1.07573 1.44319 0
M  V30 682 H 64.5594 -0.203146 0.724041 0
M  V30 683 H 66.5304 0.0491145 2.9836 0
M  V30 684 C 65.2794 -1.72626 3.0182 0
M  V30 685 H 64.6024 -1.30891 3.77767 0
M  V30 686 H 66.0424 -2.32199 3.54767 0
M  V30 687 C 64.5014 -2.63806 2.09542 0
M  V30 688 O 65.0314 -3.65256 1.67185 0
M  V30 689 N 63.2374 -2.31824 1.75232 0
M  V30 690 H 62.7844 -1.49368 2.09873 0
M  V30 691 H 62.7424 -2.93095 1.13767 0
M  V30 692 N 66.5145 -1.57545 0.0417849 0
M  V30 693 C 67.7395 -1.97035 -0.647455 0
M  V30 694 C 68.1645 -0.918775 -1.64135 0
M  V30 695 O 67.5225 0.119006 -1.80909 0
M  V30 696 C 67.5705 -3.35609 -1.31905 0
M  V30 697 O 66.6745 -3.3287 -2.43457 0
M  V30 698 H 66.0155 -0.64211 -0.169086 0
M  V30 699 H 68.5455 -2.04318 0.107399 0
M  V30 700 H 68.5555 -3.72126 -1.67291 0
M  V30 701 H 67.2305 -4.11685 -0.590586 0
M  V30 702 H 65.8075 -3.08087 -2.10088 0
M  V30 703 N 67.9926 0.231505 -1.5589 0
M  V30 704 C 68.9226 1.29022 -1.94617 0
M  V30 705 C 69.9036 1.4941 -0.813067 0
M  V30 706 O 71.0886 1.6176 -1.07459 0
M  V30 707 C 68.2186 2.64199 -2.25424 0
M  V30 708 C 67.1726 2.58484 -3.41131 0
M  V30 709 C 66.4986 3.97599 -3.57518 0
M  V30 710 C 67.7986 2.1413 -4.76388 0
M  V30 711 H 69.4926 0.968563 -2.83301 0
M  V30 712 H 67.0386 0.464479 -1.36303 0
M  V30 713 H 68.9916 3.38413 -2.51107 0
M  V30 714 H 67.7156 2.98032 -1.33583 0
M  V30 715 H 66.3746 1.86727 -3.15481 0
M  V30 716 H 66.0226 4.28723 -2.6307 0
M  V30 717 H 65.7226 3.94659 -4.35337 0
M  V30 718 H 67.2466 4.7349 -3.85538 0
M  V30 719 H 68.6606 2.78083 -5.01341 0
M  V30 720 H 67.0576 2.2227 -5.57419 0
M  V30 721 H 68.1276 1.09331 -4.72414 0
M  V30 722 N 69.4707 1.49531 0.497807 0
M  V30 723 C 70.7477 1.49682 1.25915 0
M  V30 724 C 71.1277 0.226339 2.09883 0
M  V30 725 O 70.4757 -0.791189 2.14365 0
M  V30 726 C 70.6857 2.77755 2.11313 0
M  V30 727 C 72.0337 3.27371 2.70395 0
M  V30 728 O 73.0577 2.78894 2.21578 0
M  V30 729 O 71.9167 4.11808 3.59272 0
M  V30 730 H 69.0107 0.599228 0.56996 0
M  V30 731 H 71.5567 1.61798 0.511816 0
M  V30 732 H 70.3287 3.61713 1.49264 0
M  V30 733 H 69.9517 2.68515 2.93233 0
M  V30 734 N 70.9488 -0.749086 1.3866 0
M  V30 735 C 71.9118 -1.84457 1.36045 0
M  V30 736 C 72.9118 -1.58682 0.260122 0
M  V30 737 O 74.1018 -1.66343 0.517261 0
M  V30 738 C 71.2338 -3.22008 1.11911 0
M  V30 739 H 72.4268 -1.88182 2.33512 0
M  V30 740 H 69.9798 -0.951266 1.24019 0
M  V30 741 H 70.7148 -3.2395 0.150686 0
M  V30 742 H 70.4998 -3.42111 1.91579 0
M  V30 743 H 71.9898 -4.0208 1.12788 0
M  V30 744 N 72.4269 -1.23603 -0.977757 0
M  V30 745 C 73.6749 -1.06759 -1.71601 0
M  V30 746 C 73.9959 0.395929 -1.90938 0
M  V30 747 O 73.2659 1.28356 -1.47992 0
M  V30 748 H 71.8459 -0.392062 -0.635843 0
M  V30 749 H 74.5079 -1.55362 -1.1768 0
M  V30 750 H 73.6039 -1.55763 -2.70452 0
M  V30 751 N 73.905 1.17692 -1.04816 0
M  V30 752 C 74.868 2.19787 -0.650117 0
M  V30 753 C 75.868 1.58044 0.296427 0
M  V30 754 O 77.058 1.74012 0.0808097 0
M  V30 755 C 74.19 3.40869 0.0456987 0
M  V30 756 H 75.383 2.56516 -1.5537 0
M  V30 757 H 72.936 1.31708 -0.841594 0
M  V30 758 H 73.671 3.09681 0.962726 0
M  V30 759 H 73.456 3.86928 -0.634727 0
M  V30 760 H 74.946 4.16445 0.310432 0
M  V30 761 N 75.3831 0.828654 1.34056 0
M  V30 762 C 76.6111 0.43262 2.02326 0
M  V30 763 C 77.0261 -0.963147 1.62385 0
M  V30 764 O 76.3831 -1.62425 0.832121 0
M  V30 765 C 76.4341 0.53182 3.57567 0
M  V30 766 O 76.1551 1.87258 3.96063 0
M  V30 767 C 77.6561 0.131422 4.43105 0
M  V30 768 H 74.8761 0.172923 0.648335 0
M  V30 769 H 77.4201 1.1184 1.71208 0
M  V30 770 H 75.5751 -0.105938 3.87255 0
M  V30 771 H 75.9891 1.85087 4.90758 0
M  V30 772 H 77.4631 0.251904 5.51425 0
M  V30 773 H 77.9401 -0.925645 4.29335 0
M  V30 774 H 78.5461 0.743207 4.18756 0
M  V30 775 N 76.8612 -1.46375 0.584142 0
M  V30 776 C 77.8092 -2.32042 -0.161047 0
M  V30 777 C 78.8032 -1.44569 -0.882966 0
M  V30 778 O 80.0092 -1.61186 -0.801191 0
M  V30 779 H 76.3842 -0.748659 -0.0708033 0
M  V30 780 H 78.3552 -2.92704 0.580269 0
M  V30 781 C 77.1042 -3.27762 -1.1605 0
M  V30 782 H 76.4272 -3.95051 -0.614419 0
M  V30 783 H 77.8672 -3.90481 -1.65228 0
M  V30 784 C 76.3262 -2.53218 -2.22221 0
M  V30 785 O 76.8562 -2.29628 -3.29597 0
M  V30 786 N 75.0622 -2.13756 -1.96868 0
M  V30 787 H 74.6092 -2.33142 -1.09557 0
M  V30 788 H 74.5672 -1.642 -2.68115 0
M  V30 789 N 78.3393 -0.321999 -1.54275 0
M  V30 790 C 79.5883 0.281931 -1.9972 0
M  V30 791 C 79.9013 1.53369 -1.21397 0
M  V30 792 O 81.1073 2.21352 -1.57211 0
M  V30 793 C 79.5633 0.5529 -3.55628 0
M  V30 794 C 79.1713 -0.681721 -4.42783 0
M  V30 795 C 80.9153 1.11687 -4.09544 0
M  V30 796 C 78.8223 -0.382742 -5.9016 0
M  V30 797 H 77.7523 0.109124 -0.746062 0
M  V30 798 H 80.4033 -0.43398 -1.78294 0
M  V30 799 H 78.7853 1.32896 -3.73035 0
M  V30 800 H 79.9593 -1.45723 -4.37151 0
M  V30 801 H 78.2743 -1.1658 -3.99748 0
M  V30 802 H 80.8713 1.35515 -5.17242 0
M  V30 803 H 81.2143 2.06575 -3.61431 0
M  V30 804 H 81.7473 0.402032 -3.95763 0
M  V30 805 H 78.4863 -1.30076 -6.42464 0
M  V30 806 H 78.0063 0.355094 -5.98748 0
M  V30 807 H 79.6853 0.00800157 -6.47 0
M  V30 808 N 79.8174 1.5752 -0.0501392 0
M  V30 809 C 81.0944 1.83996 0.663685 0
M  V30 810 C 81.4744 0.938339 1.89099 0
M  V30 811 O 80.8224 -0.00087759 2.285 0
M  V30 812 C 81.0324 3.33702 1.02196 0
M  V30 813 C 82.3804 4.00691 1.40469 0
M  V30 814 O 83.4044 3.38321 1.11433 0
M  V30 815 O 82.2634 5.10658 1.94654 0
M  V30 816 H 79.3574 0.759385 0.32751 0
M  V30 817 H 81.9034 1.69514 -0.0794238 0
M  V30 818 H 80.6754 3.91015 0.149364 0
M  V30 819 H 80.2984 3.53368 1.82255 0
M  V30 820 N 81.2955 -0.223234 1.56011 0
M  V30 821 C 82.2255 -1.27988 1.95298 0
M  V30 822 C 83.2065 -1.48976 0.820979 0
M  V30 823 O 84.3915 -1.61188 1.08315 0
M  V30 824 C 81.5215 -2.63 2.26822 0
M  V30 825 C 80.4755 -2.56671 3.42497 0
M  V30 826 C 79.8015 -3.95697 3.59622 0
M  V30 827 C 81.1015 -2.11601 4.77517 0
M  V30 828 H 82.7955 -0.953525 2.8381 0
M  V30 829 H 80.3415 -0.457244 1.36548 0
M  V30 830 H 82.2945 -3.37077 2.52898 0
M  V30 831 H 81.0185 -2.9732 1.35161 0
M  V30 832 H 79.6775 -1.85051 3.16467 0
M  V30 833 H 79.3255 -4.27322 2.6534 0
M  V30 834 H 79.0255 -3.92345 4.37424 0
M  V30 835 H 80.5495 -4.71438 3.88044 0
M  V30 836 H 81.9635 -2.7542 5.02809 0
M  V30 837 H 80.3605 -2.19311 5.5859 0
M  V30 838 H 81.4305 -1.06824 4.72987 0
M  V30 839 N 82.7736 -1.49793 -0.48987 0
M  V30 840 C 83.7206 -1.67281 -1.59014 0
M  V30 841 C 84.6906 -0.514177 -1.57941 0
M  V30 842 O 85.8756 -0.742533 -1.75759 0
M  V30 843 C 83.0156 -1.75569 -2.97102 0
M  V30 844 C 82.1286 -3.0281 -3.08107 0
M  V30 845 C 81.2636 -3.02008 -4.36995 0
M  V30 846 C 80.3026 -4.23782 -4.41673 0
M  V30 847 N 79.4396 -4.20826 -5.62005 0
M  V30 848 H 84.2796 -2.61224 -1.43409 0
M  V30 849 H 81.8166 -1.29508 -0.697565 0
M  V30 850 H 83.7746 -1.78354 -3.77155 0
M  V30 851 H 82.4046 -0.850827 -3.11385 0
M  V30 852 H 81.4566 -3.09584 -2.21047 0
M  V30 853 H 82.7686 -3.92801 -3.07423 0
M  V30 854 H 81.9226 -3.03418 -5.25378 0
M  V30 855 H 80.6616 -2.09815 -4.4026 0
M  V30 856 H 79.6666 -4.22604 -3.5169 0
M  V30 857 H 80.8916 -5.17181 -4.40115 0
M  V30 858 H 78.8376 -3.31476 -5.66091 0
M  V30 859 H 78.7546 -5.04564 -5.62984 0
M  V30 860 H 80.0226 -4.26355 -6.52565 0
M  V30 861 N 84.2517 0.741722 -1.39055 0
M  V30 862 C 85.1817 1.869 -1.39966 0
M  V30 863 C 86.1627 1.6804 -0.26392 0
M  V30 864 O 87.3477 1.88458 -0.468755 0
M  V30 865 C 84.4777 3.24572 -1.23574 0
M  V30 866 C 83.4317 3.58056 -2.34477 0
M  V30 867 C 82.7577 4.94593 -2.0318 0
M  V30 868 C 84.0577 3.61716 -3.76774 0
M  V30 869 H 85.7517 1.86395 -2.34302 0
M  V30 870 H 83.2977 0.895361 -1.1278 0
M  V30 871 H 85.2507 4.031 -1.22834 0
M  V30 872 H 83.9747 3.25587 -0.257045 0
M  V30 873 H 82.6337 2.81854 -2.34423 0
M  V30 874 H 82.2817 4.92181 -1.03765 0
M  V30 875 H 81.9817 5.17964 -2.77465 0
M  V30 876 H 83.5057 5.75486 -2.04079 0
M  V30 877 H 84.9197 4.30335 -3.78794 0
M  V30 878 H 83.3167 3.96603 -4.50362 0
M  V30 879 H 84.3867 2.61672 -4.08235 0
M  V30 880 N 85.7298 1.2412 0.971189 0
M  V30 881 C 86.6768 1.0305 2.06517 0
M  V30 882 C 87.6468 -0.0550666 1.66009 0
M  V30 883 O 88.8318 0.0988688 1.90544 0
M  V30 884 C 85.9718 0.637653 3.39158 0
M  V30 885 C 85.0848 1.79633 3.92882 0
M  V30 886 C 84.2198 1.34939 5.13775 0
M  V30 887 C 83.2588 2.47823 5.59687 0
M  V30 888 N 82.3958 2.04022 6.71803 0
M  V30 889 H 87.2358 1.96685 2.23873 0
M  V30 890 H 84.7728 0.979694 1.09729 0
M  V30 891 H 86.7308 0.390931 4.15364 0
M  V30 892 H 85.3608 -0.261693 3.21737 0
M  V30 893 H 84.4128 2.15681 3.13346 0
M  V30 894 H 85.7248 2.64466 4.22918 0
M  V30 895 H 84.8788 1.06134 5.97345 0
M  V30 896 H 83.6178 0.471557 4.85415 0
M  V30 897 H 82.6228 2.77392 4.74693 0
M  V30 898 H 83.8478 3.36158 5.90063 0
M  V30 899 H 81.7938 1.18632 6.45184 0
M  V30 900 H 81.7108 2.82409 7.01271 0
M  V30 901 H 82.9788 1.78347 7.58823 0
M  V30 902 N 87.2079 -1.17134 1.05439 0
M  V30 903 C 88.4849 -1.83411 0.679699 0
M  V30 904 C 88.8649 -1.9368 -0.839726 0
M  V30 905 O 88.2129 -1.47325 -1.74664 0
M  V30 906 C 88.4229 -3.20918 1.37159 0
M  V30 907 C 89.7709 -3.96796 1.51123 0
M  V30 908 O 90.7949 -3.30406 1.3308 0
M  V30 909 O 89.6539 -5.15778 1.80651 0
M  V30 910 H 86.7479 -0.79154 0.239569 0
M  V30 911 H 89.2939 -1.24411 1.15413 0
M  V30 912 H 88.0659 -3.08428 2.40807 0
M  V30 913 H 87.6889 -3.87587 0.886674 0
M  V30 914 N 88.686 -0.835752 -1.33615 0
M  V30 915 C 89.916 -0.442701 -2.01801 0
M  V30 916 C 90.324 0.959807 -1.63047 0
M  V30 917 O 89.667 1.63468 -0.838088 0
M  V30 918 C 89.729 -0.480125 -3.56279 0
M  V30 919 C 89.393 -1.8382 -4.18401 0
M  V30 920 C 90.39 -2.80097 -4.37998 0
M  V30 921 C 88.075 -2.13019 -4.54894 0
M  V30 922 C 90.069 -4.03736 -4.9323 0
M  V30 923 C 87.756 -3.36916 -5.09834 0
M  V30 924 C 88.754 -4.32091 -5.28948 0
M  V30 925 O 88.442 -5.53797 -5.82721 0
M  V30 926 H 88.174 -0.17441 -0.653114 0
M  V30 927 H 90.728 -1.129 -1.71589 0
M  V30 928 H 88.958 0.262931 -3.85805 0
M  V30 929 H 90.647 -0.105335 -4.05763 0
M  V30 930 H 91.413 -2.58838 -4.10156 0
M  V30 931 H 87.292 -1.39733 -4.39313 0
M  V30 932 H 90.836 -4.78034 -5.08064 0
M  V30 933 H 86.733 -3.58033 -5.37106 0
M  V30 934 H 87.501 -5.55494 -6.0114 0
M  V30 935 N 90.1641 1.46063 -0.591896 0
M  V30 936 C 91.4121 2.01938 -0.0808391 0
M  V30 937 C 91.7331 1.46475 1.28725 0
M  V30 938 O 91.0031 0.652944 1.84698 0
M  V30 939 H 89.5831 0.746516 -0.0268938 0
M  V30 940 H 92.2451 1.79055 -0.769752 0
M  V30 941 H 91.3411 3.12094 -0.0187578 0
M  V30 942 N 91.6422 0.330177 1.54103 0
M  V30 943 C 92.8882 -0.270806 2.00984 0
M  V30 944 C 93.2212 -1.51265 1.21789 0
M  V30 945 O 92.4962 -1.92142 0.301927 0
M  V30 946 C 92.7792 -0.598339 3.55094 0
M  V30 947 C 92.6322 0.654674 4.4501 0
M  V30 948 C 93.9512 -1.41334 4.16789 0
M  V30 949 H 91.0702 -0.0969531 0.730595 0
M  V30 950 H 93.7122 0.448066 1.84641 0
M  V30 951 H 91.8622 -1.21078 3.69151 0
M  V30 952 H 93.5342 1.29285 4.42813 0
M  V30 953 H 91.7772 1.28224 4.14416 0
M  V30 954 H 92.4482 0.380944 5.50684 0
M  V30 955 H 94.9242 -0.895597 4.06347 0
M  V30 956 H 93.8002 -1.61127 5.24718 0
M  V30 957 H 94.0612 -2.41146 3.70541 0
M  V30 958 N 93.1203 -1.57491 0.0584922 0
M  V30 959 C 94.3973 -1.84346 -0.653918 0
M  V30 960 C 94.7773 -0.948355 -1.88599 0
M  V30 961 O 94.1253 -0.0112403 -2.28497 0
M  V30 962 C 94.3353 -3.34239 -1.00425 0
M  V30 963 C 95.6833 -4.01431 -1.38342 0
M  V30 964 O 96.7073 -3.38907 -1.09637 0
M  V30 965 O 95.5663 -5.11683 -1.91943 0
M  V30 966 H 92.6603 -0.761112 -0.323478 0
M  V30 967 H 95.2063 -1.6947 0.0884125 0
M  V30 968 H 93.9783 -3.91089 -0.128625 0
M  V30 969 H 93.6013 -3.54329 -1.80378 0
M  V30 970 N 94.5984 0.214957 -1.56127 0
M  V30 971 C 95.5284 1.2695 -1.95974 0
M  V30 972 C 96.5094 1.48539 -0.828868 0
M  V30 973 O 97.6944 1.60611 -1.09168 0
M  V30 974 C 94.8244 2.61794 -2.28214 0
M  V30 975 C 93.7784 2.54851 -3.43853 0
M  V30 976 C 93.1044 3.93785 -3.61715 0
M  V30 977 C 94.4044 2.09065 -4.78632 0
M  V30 978 H 96.0984 0.93846 -2.84312 0
M  V30 979 H 93.6444 0.449996 -1.36788 0
M  V30 980 H 95.5974 3.35731 -2.54682 0
M  V30 981 H 94.3214 2.96599 -1.36736 0
M  V30 982 H 92.9804 1.8337 -3.17444 0
M  V30 983 H 92.6284 4.25908 -2.67602 0
M  V30 984 H 92.3284 3.90019 -4.39498 0
M  V30 985 H 93.8524 4.69374 -3.90539 0
M  V30 986 H 95.2664 2.7275 -5.04262 0
M  V30 987 H 93.6634 2.16346 -5.59745 0
M  V30 988 H 94.7334 1.04315 -4.73547 0
M  V30 989 N 96.0765 1.50051 0.48192 0
M  V30 990 C 97.3255 1.59741 1.23149 0
M  V30 991 C 97.6385 0.298163 1.93314 0
M  V30 992 O 98.8445 0.273835 2.70116 0
M  V30 993 C 97.3005 2.81926 2.23708 0
M  V30 994 C 96.9085 4.18685 1.59396 0
M  V30 995 C 98.6525 3.00956 2.99375 0
M  V30 996 C 96.5595 5.3207 2.58178 0
M  V30 997 H 95.4895 0.594838 0.46334 0
M  V30 998 H 98.1405 1.76467 0.503169 0
M  V30 999 H 96.5225 2.58736 2.99786 0
M  V30 1000 H 97.6965 4.52088 0.891811 0
M  V30 1001 H 96.0115 4.05171 0.960503 0
M  V30 1002 H 98.6085 3.82836 3.73283 0
M  V30 1003 H 98.9515 2.12258 3.58123 0
M  V30 1004 H 99.4845 3.24277 2.30411 0
M  V30 1005 H 96.2235 6.22888 2.04184 0
M  V30 1006 H 95.7435 5.03098 3.26577 0
M  V30 1007 H 97.4225 5.62196 3.20225 0
M  V30 1008 N 97.5546 -0.734337 1.39446 0
M  V30 1009 C 98.4646 -1.87879 1.40495 0
M  V30 1010 C 99.4806 -1.714 0.299672 0
M  V30 1011 O 100.657 -1.93991 0.541249 0
M  V30 1012 C 97.7216 -3.23477 1.24754 0
M  V30 1013 C 96.7826 -3.52344 2.45259 0
M  V30 1014 C 96.0156 -4.81473 2.30259 0
M  V30 1015 O 96.2386 -5.55237 1.30643 0
M  V30 1016 O 95.1726 -5.10254 3.19256 0
M  V30 1017 H 98.9986 -1.89949 2.36966 0
M  V30 1018 H 96.5836 -0.882243 1.20569 0
M  V30 1019 H 98.4656 -4.04509 1.18111 0
M  V30 1020 H 97.1406 -3.22176 0.313781 0
M  V30 1021 H 96.0476 -2.71396 2.57478 0
M  V30 1022 H 97.3806 -3.58426 3.37331 0
M  V30 1023 N 99.0327 -1.24633 -0.964593 0
M  V30 1024 C 100.279 -1.08949 -1.71049 0
M  V30 1025 C 100.612 0.370302 -1.90637 0
M  V30 1026 O 99.8867 1.27349 -1.47011 0
M  V30 1027 C 100.17 -1.83329 -3.0994 0
M  V30 1028 C 100.023 -3.37077 -2.97824 0
M  V30 1029 C 101.342 -1.60846 -4.09654 0
M  V30 1030 H 98.4607 -0.397178 -0.620821 0
M  V30 1031 H 101.103 -1.5334 -1.12191 0
M  V30 1032 H 99.2527 -1.45597 -3.60186 0
M  V30 1033 H 100.925 -3.84425 -2.5498 0
M  V30 1034 H 99.1677 -3.65298 -2.33965 0
M  V30 1035 H 99.8387 -3.84324 -3.96231 0
M  V30 1036 H 102.315 -1.93674 -3.68279 0
M  V30 1037 H 101.191 -2.1534 -5.04896 0
M  V30 1038 H 101.452 -0.547434 -4.38698 0
M  V30 1039 N 100.511 1.16574 -1.06058 0
M  V30 1040 C 101.736 1.91493 -0.796562 0
M  V30 1041 C 102.161 1.76773 0.642868 0
M  V30 1042 O 101.519 1.09142 1.44768 0
M  V30 1043 C 101.567 3.40293 -1.19303 0
M  V30 1044 O 100.671 4.11074 -0.330394 0
M  V30 1045 H 100.012 0.596678 -0.291326 0
M  V30 1046 H 102.542 1.47708 -1.41575 0
M  V30 1047 H 102.552 3.91057 -1.16356 0
M  V30 1048 H 101.227 3.50326 -2.24153 0
M  V30 1049 H 99.8038 3.70513 -0.421225 0
M  V30 1050 N 101.989 0.842826 1.3317 0
M  V30 1051 C 103.266 0.362216 1.92217 0
M  V30 1052 C 103.646 -1.15289 1.76838 0
M  V30 1053 O 102.994 -1.96914 1.15919 0
M  V30 1054 C 103.204 0.813495 3.39387 0
M  V30 1055 C 104.552 0.823804 4.16532 0
M  V30 1056 O 105.576 0.757358 3.48055 0
M  V30 1057 O 104.435 0.915193 5.38782 0
M  V30 1058 H 101.529 0.103317 0.820521 0
M  V30 1059 H 104.075 0.928942 1.42017 0
M  V30 1060 H 102.847 1.85624 3.4447 0
M  V30 1061 H 102.47 0.223561 3.96971 0
M  V30 1062 N 103.467 -1.45747 0.599634 0
M  V30 1063 C 104.415 -2.322 -0.136426 0
M  V30 1064 C 105.409 -1.45497 -0.867583 0
M  V30 1065 O 106.615 -1.62027 -0.78405 0
M  V30 1066 H 102.99 -0.749368 -0.0628588 0
M  V30 1067 H 104.961 -2.92072 0.611281 0
M  V30 1068 C 103.71 -3.28974 -1.12567 0
M  V30 1069 H 103.033 -3.9568 -0.572484 0
M  V30 1070 H 104.473 -3.92212 -1.61077 0
M  V30 1071 C 102.932 -2.55561 -2.19523 0
M  V30 1072 O 103.462 -2.33111 -3.27143 0
M  V30 1073 N 101.668 -2.15832 -1.94589 0
M  V30 1074 H 101.215 -2.3429 -1.07078 0
M  V30 1075 H 101.173 -1.67034 -2.66359 0
M  V30 1076 N 104.945 -0.338344 -1.53925 0
M  V30 1077 C 106.193 0.259245 -2.0043 0
M  V30 1078 C 106.514 1.51484 -1.22791 0
M  V30 1079 O 105.784 1.93037 -0.33368 0
M  V30 1080 H 104.364 0.0987845 -0.740439 0
M  V30 1081 H 107.026 -0.458302 -1.89435 0
M  V30 1082 H 106.122 0.505334 -3.07982 0
M  V30 1083 N 106.423 1.57458 -0.0668435 0
M  V30 1084 C 107.663 1.95175 0.607116 0
M  V30 1085 C 108.027 0.946039 1.67075 0
M  V30 1086 O 109.228 1.2107 2.39991 0
M  V30 1087 C 107.499 3.37582 1.17358 0
M  V30 1088 S 109.058 3.97271 1.86336 0
M  V30 1089 H 105.876 0.682604 0.19893 0
M  V30 1090 H 108.478 1.95002 -0.139519 0
M  V30 1091 H 107.182 4.08566 0.387553 0
M  V30 1092 H 106.713 3.41288 1.95669 0
M  V30 1093 H 108.728 3.83772 3.14537 0
M  V30 1094 N 107.901 -0.206675 1.56239 0
M  V30 1095 C 109.149 -0.927007 1.79586 0
M  V30 1096 C 109.47 -1.8427 0.637929 0
M  V30 1097 O 108.74 -1.92849 -0.344398 0
M  V30 1098 H 107.32 -0.345292 0.662407 0
M  V30 1099 H 109.982 -0.21496 1.93711 0
M  V30 1100 H 109.078 -1.52501 2.72305 0
M  V30 1101 N 109.379 -1.50304 -0.473955 0
M  V30 1102 C 110.625 -1.61389 -1.22806 0
M  V30 1103 C 110.958 -0.311955 -1.91678 0
M  V30 1104 O 110.233 0.686384 -1.81986 0
M  V30 1105 C 110.516 -2.79219 -2.27396 0
M  V30 1106 C 110.369 -4.19286 -1.62848 0
M  V30 1107 C 111.688 -2.92614 -3.28732 0
M  V30 1108 H 108.807 -0.587399 -0.445119 0
M  V30 1109 H 111.449 -1.82681 -0.522265 0
M  V30 1110 H 109.599 -2.61195 -2.87592 0
M  V30 1111 H 111.271 -4.48892 -1.06271 0
M  V30 1112 H 109.514 -4.23677 -0.931693 0
M  V30 1113 H 110.185 -4.97655 -2.38838 0
M  V30 1114 H 112.661 -3.09105 -2.78556 0
M  V30 1115 H 111.537 -3.76688 -3.99246 0
M  V30 1116 H 111.798 -2.03107 -3.92683 0
M  V30 1117 N 110.857 0.726932 -1.39834 0
M  V30 1118 C 111.767 1.87131 -1.41489 0
M  V30 1119 C 112.783 1.71239 -0.308757 0
M  V30 1120 O 113.959 1.93701 -0.551529 0
M  V30 1121 C 111.024 3.22811 -1.26468 0
M  V30 1122 C 110.085 3.51039 -2.47124 0
M  V30 1123 C 109.318 4.80245 -2.3281 0
M  V30 1124 O 109.541 5.54537 -1.33585 0
M  V30 1125 O 108.475 5.08554 -3.21957 0
M  V30 1126 H 112.301 1.8869 -2.3797 0
M  V30 1127 H 109.886 0.875837 -1.21035 0
M  V30 1128 H 111.768 4.03877 -1.20255 0
M  V30 1129 H 110.443 3.22005 -0.330862 0
M  V30 1130 H 109.35 2.70027 -2.58914 0
M  V30 1131 H 110.683 3.56632 -3.39227 0
M  V30 1132 N 112.336 1.25143 0.95797 0
M  V30 1133 C 113.246 1.06968 2.08794 0
M  V30 1134 C 114.262 0.00773911 1.73998 0
M  V30 1135 O 115.438 0.207972 2.00323 0
M  V30 1136 C 112.503 0.68691 3.39827 0
M  V30 1137 C 111.564 1.82641 3.88511 0
M  V30 1138 C 110.797 1.46181 5.1329 0
M  V30 1139 O 111.02 0.355971 5.69288 0
M  V30 1140 O 109.954 2.29085 5.566 0
M  V30 1141 H 113.78 2.01723 2.27027 0
M  V30 1142 H 111.365 1.04051 1.07209 0
M  V30 1143 H 113.247 0.485417 4.18595 0
M  V30 1144 H 111.922 -0.231417 3.22872 0
M  V30 1145 H 110.829 2.08274 3.10762 0
M  V30 1146 H 112.162 2.72386 4.09959 0
M  V30 1147 N 113.814 -1.1601 1.06675 0
M  V30 1148 C 114.724 -2.24156 0.692179 0
M  V30 1149 C 115.74 -1.71507 -0.293513 0
M  V30 1150 O 116.916 -2.009 -0.141861 0
M  V30 1151 C 113.981 -3.46587 0.0884131 0
M  V30 1152 C 113.042 -4.14257 1.12646 0
M  V30 1153 C 112.275 -5.30844 0.551416 0
M  V30 1154 O 112.498 -5.66858 -0.634656 0
M  V30 1155 O 111.432 -5.87848 1.29298 0
M  V30 1156 H 115.258 -2.58513 1.59388 0
M  V30 1157 H 112.843 -1.23599 0.83926 0
M  V30 1158 H 114.725 -4.20679 -0.246361 0
M  V30 1159 H 113.4 -3.13994 -0.786712 0
M  V30 1160 H 112.307 -3.42118 1.51348 0
M  V30 1161 H 113.64 -4.50914 1.97325 0
M  V30 1162 N 115.292 -0.849877 -1.32721 0
M  V30 1163 C 116.24 -0.279745 -2.30912 0
M  V30 1164 C 117.234 0.594278 -1.58634 0
M  V30 1165 O 118.44 0.482613 -1.73409 0
M  V30 1166 H 114.815 -0.0717521 -0.748569 0
M  V30 1167 H 116.786 -1.12222 -2.76494 0
M  V30 1168 C 115.535 0.521108 -3.43773 0
M  V30 1169 H 114.858 -0.142141 -3.99547 0
M  V30 1170 H 116.298 0.885693 -4.14646 0
M  V30 1171 C 114.757 1.70442 -2.90605 0
M  V30 1172 O 115.287 2.8034 -2.87702 0
M  V30 1173 N 113.493 1.52991 -2.47067 0
M  V30 1174 H 113.04 0.635914 -2.49628 0
M  V30 1175 H 112.998 2.32311 -2.11847 0
M  V30 1176 N 116.77 1.45427 -0.607355 0
M  V30 1177 C 118.017 2.02241 -0.102455 0
M  V30 1178 C 118.345 1.4758 1.26691 0
M  V30 1179 O 117.6 0.640468 1.84923 0
M  V30 1180 C 117.899 3.57398 -0.0129263 0
M  V30 1181 C 117.565 4.3121 -1.31792 0
M  V30 1182 C 116.227 4.51092 -1.67539 0
M  V30 1183 C 118.579 4.73401 -2.18039 0
M  V30 1184 C 115.907 5.10422 -2.89285 0
M  V30 1185 C 118.259 5.34078 -3.39034 0
M  V30 1186 C 116.923 5.52184 -3.75033 0
M  V30 1187 H 116.193 0.740051 -0.037491 0
M  V30 1188 H 118.84 1.74494 -0.788926 0
M  V30 1189 H 117.145 3.84421 0.756806 0
M  V30 1190 H 118.842 3.99061 0.393881 0
M  V30 1191 H 115.432 4.16047 -1.02968 0
M  V30 1192 H 119.616 4.57774 -1.91721 0
M  V30 1193 H 114.872 5.22629 -3.17283 0
M  V30 1194 H 119.046 5.65724 -4.06115 0
M  V30 1195 H 116.673 5.97925 -4.69457 0
M  V30 1196 N 118.248 0.346503 1.53744 0
M  V30 1197 C 119.158 -0.517293 2.28826 0
M  V30 1198 C 120.174 -1.10935 1.3405 0
M  V30 1199 O 121.35 -1.1244 1.6709 0
M  V30 1200 C 118.415 -1.65098 3.04866 0
M  V30 1201 C 117.476 -1.0884 4.15274 0
M  V30 1202 C 116.709 -2.16806 4.87679 0
M  V30 1203 O 116.932 -3.3758 4.59778 0
M  V30 1204 O 115.866 -1.80934 5.74061 0
M  V30 1205 H 119.692 0.0931396 3.03557 0
M  V30 1206 H 117.277 0.111458 1.48984 0
M  V30 1207 H 119.159 -2.31053 3.5241 0
M  V30 1208 H 117.834 -2.24717 2.32989 0
M  V30 1209 H 116.741 -0.3933 3.72027 0
M  V30 1210 H 118.074 -0.537036 4.89261 0
M  V30 1211 N 119.726 -1.57421 0.075193 0
M  V30 1212 C 120.974 -1.93236 -0.591974 0
M  V30 1213 C 121.295 -0.956241 -1.69944 0
M  V30 1214 O 120.565 -0.00494792 -1.95899 0
M  V30 1215 H 119.145 -0.713355 -0.22166 0
M  V30 1216 H 121.807 -1.9444 0.133848 0
M  V30 1217 H 120.903 -2.95131 -1.01509 0
M  V30 1218 N 121.204 0.198386 -1.56346 0
M  V30 1219 C 122.134 1.24865 -1.9731 0
M  V30 1220 C 123.115 1.47651 -0.844576 0
M  V30 1221 O 124.3 1.59444 -1.10866 0
M  V30 1222 C 121.43 2.59358 -2.30977 0
M  V30 1223 C 120.384 2.5119 -3.46537 0
M  V30 1224 C 119.71 3.89926 -3.65871 0
M  V30 1225 C 121.01 2.03977 -4.80823 0
M  V30 1226 H 122.704 0.908252 -2.85291 0
M  V30 1227 H 120.25 0.435462 -1.37258 0
M  V30 1228 H 122.203 3.33011 -2.58228 0
M  V30 1229 H 120.927 2.95132 -1.39874 0
M  V30 1230 H 119.586 1.79993 -3.19371 0
M  V30 1231 H 119.234 4.23046 -2.72105 0
M  V30 1232 H 118.934 3.85336 -4.4361 0
M  V30 1233 H 120.458 4.65205 -3.95495 0
M  V30 1234 H 121.872 2.67386 -5.07127 0
M  V30 1235 H 120.269 2.10397 -5.62008 0
M  V30 1236 H 121.339 0.992861 -4.74626 0
M  V30 1237 N 122.682 1.50554 0.465978 0
M  V30 1238 C 123.91 1.65563 1.24083 0
M  V30 1239 C 124.325 0.341051 1.85694 0
M  V30 1240 O 123.682 -0.677543 1.69457 0
M  V30 1241 C 123.733 2.75051 2.34583 0
M  V30 1242 O 123.454 4.01413 1.75497 0
M  V30 1243 C 124.955 3.01078 3.25372 0
M  V30 1244 H 122.175 0.55638 0.375077 0
M  V30 1245 H 124.719 1.96807 0.555624 0
M  V30 1246 H 122.874 2.46486 2.9887 0
M  V30 1247 H 123.288 4.62002 2.48303 0
M  V30 1248 H 124.762 3.81339 3.99105 0
M  V30 1249 H 125.239 2.12349 3.84453 0
M  V30 1250 H 125.845 3.31194 2.66816 0
M  V30 1251 N 124.16 -0.719506 1.40217 0
M  V30 1252 C 125.09 -1.8465 1.42922 0
M  V30 1253 C 126.071 -1.67599 0.29062 0
M  V30 1254 O 127.256 -1.87688 0.498677 0
M  V30 1255 C 124.386 -3.22565 1.28722 0
M  V30 1256 C 123.34 -3.54281 2.40144 0
M  V30 1257 C 122.666 -4.91298 2.11023 0
M  V30 1258 C 123.966 -3.55676 3.82481 0
M  V30 1259 H 125.66 -1.82644 2.37237 0
M  V30 1260 H 123.206 -0.877305 1.1419 0
M  V30 1261 H 125.159 -4.01095 1.29232 0
M  V30 1262 H 123.883 -3.25137 0.308811 0
M  V30 1263 H 122.542 -2.78088 2.38877 0
M  V30 1264 H 122.19 -4.90468 1.11582 0
M  V30 1265 H 121.89 -5.13485 2.8567 0
M  V30 1266 H 123.414 -5.72166 2.13209 0
M  V30 1267 H 124.828 -4.24254 3.85592 0
M  V30 1268 H 123.225 -3.89388 4.56614 0
M  V30 1269 H 124.295 -2.55144 4.12346 0
M  V30 1270 N 125.638 -1.25649 -0.95132 0
M  V30 1271 C 126.585 -1.06323 -2.04851 0
M  V30 1272 C 127.555 0.0286491 -1.66075 0
M  V30 1273 O 128.74 -0.12917 -1.90362 0
M  V30 1274 C 125.88 -0.691529 -3.381 0
M  V30 1275 C 124.993 -1.85861 -3.89974 0
M  V30 1276 C 124.128 -1.43096 -5.11563 0
M  V30 1277 C 123.167 -2.56696 -5.55674 0
M  V30 1278 N 122.304 -2.14684 -6.68472 0
M  V30 1279 H 127.144 -2.00222 -2.20715 0
M  V30 1280 H 124.681 -0.997027 -1.08156 0
M  V30 1281 H 126.639 -0.456963 -4.1469 0
M  V30 1282 H 125.269 0.210474 -3.22113 0
M  V30 1283 H 124.321 -2.20639 -3.09875 0
M  V30 1284 H 125.633 -2.71161 -4.18657 0
M  V30 1285 H 124.787 -1.15624 -5.9558 0
M  V30 1286 H 123.526 -0.548722 -4.84603 0
M  V30 1287 H 122.531 -2.84909 -4.7022 0
M  V30 1288 H 123.756 -3.45503 -5.8464 0
M  V30 1289 H 121.702 -1.28881 -6.43215 0
M  V30 1290 H 121.619 -2.9353 -6.96689 0
M  V30 1291 H 122.887 -1.90397 -7.5589 0
M  V30 1292 N 127.117 1.15442 -1.07289 0
M  V30 1293 C 128.067 2.18164 -0.662467 0
M  V30 1294 C 129.051 1.57845 0.312074 0
M  V30 1295 O 130.243 1.76552 0.125905 0
M  V30 1296 C 127.372 3.43246 -0.0611295 0
M  V30 1297 C 126.458 4.1062 -1.06077 0
M  V30 1298 N 126.849 4.53491 -2.24008 0
M  V30 1299 C 125.147 4.36949 -0.893964 0
M  V30 1300 C 125.848 5.05731 -2.87422 0
M  V30 1301 N 124.824 4.99236 -2.15091 0
M  V30 1302 H 128.626 2.49038 -1.56068 0
M  V30 1303 H 126.14 1.32003 -0.945988 0
M  V30 1304 H 128.137 4.16145 0.250792 0
M  V30 1305 H 126.797 3.13854 0.832207 0
M  V30 1306 H 127.808 4.46898 -2.6173 0
M  V30 1307 H 124.485 4.17466 -0.0534693 0
M  V30 1308 H 125.875 5.48865 -3.87553 0
M  V30 1309 N 128.595 0.856903 1.32268 0
M  V30 1310 C 129.545 0.274899 2.26337 0
M  V30 1311 C 130.529 -0.580543 1.50062 0
M  V30 1312 O 131.721 -0.429559 1.71708 0
M  V30 1313 C 128.85 -0.533841 3.39124 0
M  V30 1314 C 127.936 0.334114 4.22782 0
M  V30 1315 N 128.327 1.42143 4.85416 0
M  V30 1316 C 126.625 0.124256 4.45827 0
M  V30 1317 C 127.326 1.95559 5.47843 0
M  V30 1318 N 126.302 1.25444 5.28928 0
M  V30 1319 H 130.104 1.10612 2.72291 0
M  V30 1320 H 127.618 0.703258 1.46383 0
M  V30 1321 H 129.615 -0.96722 4.05525 0
M  V30 1322 H 128.275 -1.36283 2.94715 0
M  V30 1323 H 129.286 1.80436 4.85451 0
M  V30 1324 H 125.963 -0.669837 4.12092 0
M  V30 1325 H 127.353 2.86714 6.07655 0
M  V30 1326 N 130.073 -1.45103 0.615059 0
M  V30 1327 C 131.301 -2.06553 0.11977 0
M  V30 1328 C 131.716 -1.45842 -1.19898 0
M  V30 1329 O 131.073 -0.575325 -1.73194 0
M  V30 1330 C 131.124 -3.61495 -0.018364 0
M  V30 1331 O 130.845 -4.19942 1.24822 0
M  V30 1332 C 132.346 -4.39947 -0.544237 0
M  V30 1333 H 129.566 -0.667096 0.0722739 0
M  V30 1334 H 132.11 -1.8623 0.84491 0
M  V30 1335 H 130.265 -3.81135 -0.693865 0
M  V30 1336 H 130.679 -5.13204 1.0827 0
M  V30 1337 H 132.153 -5.48838 -0.589953 0
M  V30 1338 H 132.63 -4.10255 -1.56805 0
M  V30 1339 H 133.236 -4.25188 0.0974703 0
M  V30 1340 N 131.551 -0.354651 -1.53558 0
M  V30 1341 C 132.776 0.242153 -2.05981 0
M  V30 1342 C 133.201 1.42553 -1.2272 0
M  V30 1343 O 132.559 1.79656 -0.243604 0
M  V30 1344 C 132.607 0.624367 -3.55154 0
M  V30 1345 O 131.711 1.72301 -3.74681 0
M  V30 1346 H 131.052 0.0378432 -0.662921 0
M  V30 1347 H 133.582 -0.512087 -1.98088 0
M  V30 1348 H 133.592 0.898433 -3.97985 0
M  V30 1349 H 132.267 -0.240989 -4.15201 0
M  V30 1350 H 130.844 1.44535 -3.4375 0
M  V30 1351 N 133.029 1.57378 -0.0835403 0
M  V30 1352 C 133.976 2.13384 0.879539 0
M  V30 1353 C 134.946 1.04936 1.28754 0
M  V30 1354 O 136.131 1.32662 1.37133 0
M  V30 1355 C 133.271 2.70932 2.13752 0
M  V30 1356 C 132.384 3.93575 1.7811 0
M  V30 1357 C 131.519 4.39326 2.98607 0
M  V30 1358 C 130.558 5.54587 2.59037 0
M  V30 1359 N 129.695 5.95243 3.72331 0
M  V30 1360 H 134.535 2.9537 0.395076 0
M  V30 1361 H 132.072 1.45953 0.183349 0
M  V30 1362 H 134.03 3.02411 2.87408 0
M  V30 1363 H 132.66 1.91693 2.59718 0
M  V30 1364 H 131.712 3.68483 0.94469 0
M  V30 1365 H 133.024 4.77258 1.45005 0
M  V30 1366 H 132.178 4.72528 3.80529 0
M  V30 1367 H 130.917 3.5452 3.34913 0
M  V30 1368 H 129.922 5.21024 1.75539 0
M  V30 1369 H 131.147 6.41133 2.23887 0
M  V30 1370 H 129.093 5.13385 4.08378 0
M  V30 1371 H 129.01 6.73694 3.43034 0
M  V30 1372 H 130.278 6.33072 4.54797 0
M  V30 1373 N 134.507 -0.190092 1.56449 0
M  V30 1374 C 135.756 -0.907912 1.80111 0
M  V30 1375 C 136.069 -1.84214 0.657619 0
M  V30 1376 O 137.275 -2.60094 0.778663 0
M  V30 1377 C 135.731 -1.66485 3.19078 0
M  V30 1378 C 135.339 -0.7752 4.41242 0
M  V30 1379 C 137.083 -2.37201 3.52045 0
M  V30 1380 C 134.99 -1.53129 5.71231 0
M  V30 1381 H 133.92 -0.34276 0.671589 0
M  V30 1382 H 136.571 -0.161109 1.82791 0
M  V30 1383 H 134.953 -2.45572 3.10661 0
M  V30 1384 H 136.127 -0.0226298 4.60794 0
M  V30 1385 H 134.442 -0.178627 4.16017 0
M  V30 1386 H 137.039 -2.94329 4.46402 0
M  V30 1387 H 137.382 -3.11632 2.76028 0
M  V30 1388 H 137.915 -1.65075 3.61932 0
M  V30 1389 H 134.654 -0.82967 6.50228 0
M  V30 1390 H 134.174 -2.25767 5.55688 0
M  V30 1391 H 135.853 -2.08377 6.12526 0
M  V30 1392 N 135.985 -1.50799 -0.457987 0
M  V30 1393 C 136.917 -1.66786 -1.57211 0
M  V30 1394 C 137.93 -0.548962 -1.53265 0
M  V30 1395 O 139.119 -0.8226 -1.58416 0
M  V30 1396 C 136.219 -1.64834 -2.96113 0
M  V30 1397 C 135.392 -2.92971 -3.24787 0
M  V30 1398 C 134.451 -2.83485 -4.43309 0
M  V30 1399 O 133.477 -3.5744 -4.42973 0
M  V30 1400 N 134.679 -1.97929 -5.45714 0
M  V30 1401 H 137.444 -2.62889 -1.43909 0
M  V30 1402 H 135.005 -1.48427 -0.646617 0
M  V30 1403 H 136.997 -1.56084 -3.7339 0
M  V30 1404 H 135.567 -0.764118 -3.03117 0
M  V30 1405 H 134.787 -3.15749 -2.36 0
M  V30 1406 H 136.075 -3.77834 -3.40762 0
M  V30 1407 H 135.473 -1.37182 -5.48815 0
M  V30 1408 H 134.03 -1.95073 -6.21924 0
M  V30 1409 N 137.463 0.71206 -1.40597 0
M  V30 1410 C 138.373 1.8562 -1.43466 0
M  V30 1411 C 139.389 1.70902 -0.326902 0
M  V30 1412 O 140.565 1.93105 -0.572043 0
M  V30 1413 C 137.63 3.21451 -1.29884 0
M  V30 1414 C 136.691 3.48398 -2.50833 0
M  V30 1415 C 135.924 4.77749 -2.3789 0
M  V30 1416 O 136.147 5.53089 -1.39459 0
M  V30 1417 O 135.081 5.05111 -3.27333 0
M  V30 1418 H 138.907 1.86155 -2.39958 0
M  V30 1419 H 136.492 0.86295 -1.21957 0
M  V30 1420 H 138.374 4.02579 -1.24531 0
M  V30 1421 H 137.049 3.21636 -0.364997 0
M  V30 1422 H 135.956 2.67265 -2.61763 0
M  V30 1423 H 137.289 3.53014 -3.4299 0
M  V30 1424 N 138.941 1.26152 0.944643 0
M  V30 1425 C 140.188 1.11492 1.69044 0
M  V30 1426 C 140.516 -0.342366 1.91463 0
M  V30 1427 O 139.771 -1.26812 1.49054 0
M  V30 1428 C 140.07 1.82541 3.07268 0
M  V30 1429 C 139.736 3.32445 3.04616 0
M  V30 1430 C 138.398 3.73337 3.036 0
M  V30 1431 C 140.75 4.28171 2.97185 0
M  V30 1432 C 138.078 5.08348 2.92915 0
M  V30 1433 C 140.43 5.63218 2.88041 0
M  V30 1434 C 139.094 6.03426 2.85366 0
M  V30 1435 H 138.364 0.407977 0.618576 0
M  V30 1436 H 141.011 1.56551 1.10291 0
M  V30 1437 H 139.316 1.29941 3.69625 0
M  V30 1438 H 141.013 1.68642 3.63815 0
M  V30 1439 H 137.603 2.99915 3.06185 0
M  V30 1440 H 141.787 3.97563 2.97081 0
M  V30 1441 H 137.043 5.38667 2.89219 0
M  V30 1442 H 141.217 6.37078 2.81254 0
M  V30 1443 H 138.844 7.07999 2.76842 0
M  V30 1444 N 140.419 -1.14872 1.07899 0
M  V30 1445 C 141.382 -2.17986 0.708161 0
M  V30 1446 C 142.382 -1.58775 -0.25442 0
M  V30 1447 O 143.572 -1.74166 -0.034645 0
M  V30 1448 C 140.704 -3.40871 0.0446929 0
M  V30 1449 H 141.897 -2.52306 1.62116 0
M  V30 1450 H 139.45 -1.2943 0.876218 0
M  V30 1451 H 140.185 -3.12124 -0.880281 0
M  V30 1452 H 139.97 -3.8511 0.737091 0
M  V30 1453 H 141.46 -4.17121 -0.19991 0
M  V30 1454 N 141.898 -0.863906 -1.31812 0
M  V30 1455 C 143.175 -0.39275 -1.91616 0
M  V30 1456 C 143.555 1.12461 -1.7865 0
M  V30 1457 O 142.903 1.95045 -1.19037 0
M  V30 1458 C 143.113 -0.867385 -3.38049 0
M  V30 1459 C 144.461 -0.889966 -4.15168 0
M  V30 1460 O 145.485 -0.812635 -3.46806 0
M  V30 1461 O 144.344 -1.00079 -5.37258 0
M  V30 1462 H 141.438 -0.116358 -0.818773 0
M  V30 1463 H 143.984 -0.951418 -1.40521 0
M  V30 1464 H 142.756 -1.91081 -3.41473 0
M  V30 1465 H 142.379 -0.286687 -3.96565 0
M  V30 1466 N 143.376 1.44774 -0.622745 0
M  V30 1467 C 144.306 2.33382 0.0741861 0
M  V30 1468 C 145.287 1.47719 0.843387 0
M  V30 1469 O 146.472 1.76458 0.810934 0
M  V30 1470 C 143.602 3.30663 1.06204 0
M  V30 1471 C 142.556 4.26079 0.405037 0
M  V30 1472 C 141.882 5.13165 1.5022 0
M  V30 1473 C 143.182 5.1781 -0.683414 0
M  V30 1474 H 144.876 2.91905 -0.665713 0
M  V30 1475 H 142.422 1.40363 -0.321587 0
M  V30 1476 H 144.375 3.9153 1.55827 0
M  V30 1477 H 143.099 2.70331 1.83272 0
M  V30 1478 H 141.758 3.66532 -0.0704683 0
M  V30 1479 H 141.406 4.49191 2.26355 0
M  V30 1480 H 141.106 5.77812 1.06803 0
M  V30 1481 H 142.63 5.76902 2.00041 0
M  V30 1482 H 144.044 5.72661 -0.270631 0
M  V30 1483 H 142.441 5.91015 -1.04023 0
M  V30 1484 H 143.511 4.59326 -1.55395 0
M  V30 1485 N 144.854 0.36279 1.53368 0
M  V30 1486 C 146.082 -0.228613 2.05633 0
M  V30 1487 C 146.497 -1.42676 1.23649 0
M  V30 1488 O 145.854 -1.80394 0.27647 0
M  V30 1489 C 145.905 -0.624845 3.56059 0
M  V30 1490 O 145.626 0.525675 4.34935 0
M  V30 1491 C 147.127 -1.27493 4.24571 0
M  V30 1492 H 144.347 -0.0407183 0.669763 0
M  V30 1493 H 146.891 0.520352 1.97769 0
M  V30 1494 H 145.046 -1.32373 3.64083 0
M  V30 1495 H 145.46 0.205969 5.24095 0
M  V30 1496 H 146.934 -1.50277 5.31151 0
M  V30 1497 H 147.411 -2.23439 3.78116 0
M  V30 1498 H 148.017 -0.617558 4.20792 0
M  V30 1499 N 146.332 -1.57332 0.0918853 0
M  V30 1500 C 147.264 -2.10869 -0.898168 0
M  V30 1501 C 148.277 -1.04521 -1.24817 0
M  V30 1502 O 149.466 -1.31977 -1.20184 0
M  V30 1503 C 146.566 -2.57083 -2.2082 0
M  V30 1504 C 145.739 -3.87229 -2.03402 0
M  V30 1505 C 144.798 -4.19324 -3.17889 0
M  V30 1506 O 143.824 -4.88598 -2.91994 0
M  V30 1507 N 145.026 -3.74471 -4.43567 0
M  V30 1508 H 147.791 -2.96439 -0.440943 0
M  V30 1509 H 145.352 -1.61631 -0.0933064 0
M  V30 1510 H 147.344 -2.75602 -2.96354 0
M  V30 1511 H 145.914 -1.76541 -2.57977 0
M  V30 1512 H 145.134 -3.7789 -1.12218 0
M  V30 1513 H 146.422 -4.72379 -1.89038 0
M  V30 1514 H 145.82 -3.18546 -4.67488 0
M  V30 1515 H 144.377 -3.98151 -5.16061 0
M  V30 1516 N 147.81 0.181792 -1.56548 0
M  V30 1517 C 149.056 0.901431 -1.81665 0
M  V30 1518 C 149.389 1.82347 -0.668075 0
M  V30 1519 O 148.664 1.91669 0.330615 0
M  V30 1520 C 148.947 1.70618 -3.17115 0
M  V30 1521 C 148.8 0.807964 -4.42484 0
M  V30 1522 C 150.119 2.67605 -3.49393 0
M  V30 1523 H 147.238 0.32627 -0.660846 0
M  V30 1524 H 149.88 0.168134 -1.89255 0
M  V30 1525 H 148.03 2.33133 -3.10775 0
M  V30 1526 H 149.702 0.19649 -4.60881 0
M  V30 1527 H 147.945 0.115411 -4.33646 0
M  V30 1528 H 148.616 1.40632 -5.33785 0
M  V30 1529 H 151.092 2.15218 -3.56118 0
M  V30 1530 H 149.968 3.20985 -4.45264 0
M  V30 1531 H 150.229 3.47298 -2.73563 0
M  V30 1532 N 149.288 1.51039 0.449983 0
M  V30 1533 C 150.198 1.74261 1.57067 0
M  V30 1534 C 151.214 0.626363 1.62335 0
M  V30 1535 O 152.39 0.907162 1.79812 0
M  V30 1536 C 149.455 1.85114 2.93144 0
M  V30 1537 C 148.516 3.0893 2.98095 0
M  V30 1538 C 147.749 3.19256 4.27681 0
M  V30 1539 O 147.972 2.35835 5.19363 0
M  V30 1540 O 146.906 4.12144 4.38658 0
M  V30 1541 H 150.732 2.69303 1.40391 0
M  V30 1542 H 148.317 1.35389 0.631688 0
M  V30 1543 H 150.199 1.94311 3.73926 0
M  V30 1544 H 148.874 0.932588 3.09975 0
M  V30 1545 H 147.781 3.0522 2.16314 0
M  V30 1546 H 149.114 4.00433 2.86206 0
M  V30 1547 N 150.766 -0.704594 1.40972 0
M  V30 1548 C 151.994 -1.49354 1.43182 0
M  V30 1549 C 152.409 -1.88768 0.0345508 0
M  V30 1550 O 151.766 -1.56184 -0.944081 0
M  V30 1551 C 151.817 -2.76187 2.33244 0
M  V30 1552 O 151.538 -2.38436 3.67532 0
M  V30 1553 C 153.039 -3.7 2.44162 0
M  V30 1554 H 150.259 -0.460559 0.487982 0
M  V30 1555 H 152.803 -0.868261 1.85153 0
M  V30 1556 H 150.958 -3.34974 1.94606 0
M  V30 1557 H 151.372 -3.20126 4.15475 0
M  V30 1558 H 152.846 -4.55803 3.11364 0
M  V30 1559 H 153.323 -4.13867 1.47006 0
M  V30 1560 H 153.929 -3.17121 2.83398 0
M  V30 1561 N 152.244 -1.26651 -0.937939 0
M  V30 1562 C 153.491 -1.12387 -1.6845 0
M  V30 1563 C 153.819 0.332208 -1.91642 0
M  V30 1564 O 153.074 1.2602 -1.49725 0
M  V30 1565 C 153.373 -1.84168 -3.06295 0
M  V30 1566 C 153.039 -3.34056 -3.02849 0
M  V30 1567 C 151.701 -3.74942 -3.01616 0
M  V30 1568 C 154.053 -4.29741 -2.9491 0
M  V30 1569 C 151.381 -5.09894 -2.90215 0
M  V30 1570 C 153.733 -5.64738 -2.8505 0
M  V30 1571 C 152.397 -6.0493 -2.82162 0
M  V30 1572 H 151.667 -0.411252 -0.616403 0
M  V30 1573 H 154.314 -1.57134 -1.09459 0
M  V30 1574 H 152.619 -1.319 -3.6893 0
M  V30 1575 H 154.316 -1.70569 -3.62915 0
M  V30 1576 H 150.906 -3.01534 -3.0459 0
M  V30 1577 H 155.09 -3.99133 -2.94969 0
M  V30 1578 H 150.346 -5.40194 -2.86358 0
M  V30 1579 H 154.52 -6.38561 -2.77872 0
M  V30 1580 H 152.147 -7.09457 -2.73084 0
M  V30 1581 N 153.722 1.14298 -1.08507 0
M  V30 1582 C 154.97 1.84993 -0.813763 0
M  V30 1583 C 155.291 1.83405 0.662393 0
M  V30 1584 O 154.561 1.28319 1.48024 0
M  V30 1585 H 153.141 0.684966 -0.298045 0
M  V30 1586 H 155.803 1.385 -1.37126 0
M  V30 1587 H 154.899 2.89788 -1.15884 0
M  V30 1588 N 155.201 0.870884 1.31352 0
M  V30 1589 C 156.448 0.482273 1.96673 0
M  V30 1590 C 156.776 -0.965638 1.68836 0
M  V30 1591 O 156.031 -1.69514 0.977937 0
M  V30 1592 C 156.33 0.687157 3.50732 0
M  V30 1593 C 155.996 2.108 3.9859 0
M  V30 1594 C 154.658 2.49656 4.1137 0
M  V30 1595 C 157.01 3.03459 4.23748 0
M  V30 1596 C 154.338 3.80412 4.46659 0
M  V30 1597 C 156.69 4.3373 4.60501 0
M  V30 1598 C 155.354 4.725 4.71487 0
M  V30 1599 H 154.624 0.176476 0.719679 0
M  V30 1600 H 157.271 1.10405 1.56471 0
M  V30 1601 H 155.576 -0.0177476 3.91796 0
M  V30 1602 H 157.273 0.366284 3.99324 0
M  V30 1603 H 153.863 1.79633 3.8914 0
M  V30 1604 H 158.047 2.74665 4.13368 0
M  V30 1605 H 153.303 4.1021 4.53362 0
M  V30 1606 H 157.477 5.05578 4.78919 0
M  V30 1607 H 155.104 5.73859 4.98588 0
M  V30 1608 N 156.679 -1.44442 0.630414 0
M  V30 1609 C 158.095 -1.56832 0.295973 0
M  V30 1610 C 158.295 -1.61806 -1.20088 0
M  V30 1611 O 157.351 -1.5607 -1.9849 0
M  V30 1612 C 158.664 -2.84031 0.987264 0
M  V30 1613 C 160.212 -2.97742 0.96534 0
M  V30 1614 C 160.687 -4.27743 1.63708 0
M  V30 1615 N 162.178 -4.34555 1.60364 0
M  V30 1616 C 162.913 -5.33862 2.09234 0
M  V30 1617 N 162.409 -6.39578 2.66292 0
M  V30 1618 N 164.202 -5.25366 1.99867 0
M  V30 1619 H 156.353 -1.39457 1.60205 0
M  V30 1620 H 158.616 -0.668237 0.672431 0
M  V30 1621 H 158.322 -2.86338 2.04215 0
M  V30 1622 H 158.196 -3.73534 0.524588 0
M  V30 1623 H 160.583 -2.94989 -0.0810639 0
M  V30 1624 H 160.664 -2.09589 1.4665 0
M  V30 1625 H 160.308 -4.31255 2.68293 0
M  V30 1626 H 160.238 -5.14752 1.11076 0
M  V30 1627 H 162.729 -3.58772 1.18705 0
M  V30 1628 H 163.042 -7.11637 3.01317 0
M  V30 1629 H 161.387 -6.40265 2.70343 0
M  V30 1630 H 164.578 -4.41688 1.55013 0
M  V30 1631 H 164.751 -6.02606 2.38265 0
M  V30 1632 N 158.157 -0.370918 -1.53173 0
M  V30 1633 C 159.405 0.216673 -2.00935 0
M  V30 1634 C 159.726 1.48845 -1.25977 0
M  V30 1635 O 158.996 1.92286 -0.374551 0
M  V30 1636 H 157.576 0.0830565 -0.742368 0
M  V30 1637 H 160.238 -0.49838 -1.8842 0
M  V30 1638 H 159.334 0.439893 -3.08984 0
M  V30 1639 N 159.635 1.57281 -0.100228 0
M  V30 1640 C 160.545 2.17833 0.870965 0
M  V30 1641 C 161.561 1.14921 1.30649 0
M  V30 1642 O 162.737 1.47313 1.37335 0
M  V30 1643 C 159.802 2.75085 2.1102 0
M  V30 1644 C 158.863 3.9297 1.72838 0
M  V30 1645 C 158.096 4.47482 2.90854 0
M  V30 1646 O 158.319 4.00922 4.05731 0
M  V30 1647 O 157.253 5.38433 2.69023 0
M  V30 1648 H 161.079 3.0124 0.38575 0
M  V30 1649 H 158.664 1.48881 0.124397 0
M  V30 1650 H 160.546 3.11656 2.83634 0
M  V30 1651 H 159.221 1.94721 2.58584 0
M  V30 1652 H 158.128 3.61201 0.973883 0
M  V30 1653 H 159.461 4.74713 1.30033 0
M  V30 1654 N 161.113 -0.173488 1.56642 0
M  V30 1655 C 162.076 -1.19859 1.95362 0
M  V30 1656 C 163.076 -1.37296 0.83704 0
M  V30 1657 O 164.266 -1.34739 1.10413 0
M  V30 1658 C 161.398 -2.56405 2.24654 0
M  V30 1659 H 162.591 -0.867062 2.87092 0
M  V30 1660 H 160.144 -0.415853 1.50666 0
M  V30 1661 H 160.879 -2.94576 1.35631 0
M  V30 1662 H 160.664 -2.45115 3.06041 0
M  V30 1663 H 162.154 -3.30287 2.5554 0
M  V30 1664 N 162.591 -1.51276 -0.441967 0
M  V30 1665 C 163.521 -1.752 -1.54361 0
M  V30 1666 C 164.502 -0.601682 -1.59103 0
M  V30 1667 O 165.687 -0.843913 -1.74905 0
M  V30 1668 C 162.817 -1.87282 -2.92477 0
M  V30 1669 C 161.771 -3.02687 -3.02596 0
M  V30 1670 C 161.097 -2.99947 -4.42647 0
M  V30 1671 C 162.397 -4.4273 -2.77106 0
M  V30 1672 H 164.091 -2.67442 -1.34592 0
M  V30 1673 H 161.637 -1.28694 -0.646048 0
M  V30 1674 H 163.59 -2.02602 -3.695 0
M  V30 1675 H 162.314 -0.916844 -3.13467 0
M  V30 1676 H 160.973 -2.87065 -2.28012 0
M  V30 1677 H 160.621 -2.02136 -4.60597 0
M  V30 1678 H 160.321 -3.77439 -4.50348 0
M  V30 1679 H 161.845 -3.17354 -5.2165 0
M  V30 1680 H 163.259 -4.58727 -3.43864 0
M  V30 1681 H 161.656 -5.21893 -2.96222 0
M  V30 1682 H 162.726 -4.53087 -1.72744 0
M  V30 1683 N 164.069 0.697108 -1.41344 0
M  V30 1684 C 165.294 1.49096 -1.44171 0
M  V30 1685 C 165.719 1.88038 -0.0481568 0
M  V30 1686 O 165.077 1.54525 0.948243 0
M  V30 1687 C 165.125 2.73088 -2.3549 0
M  V30 1688 O 164.229 3.70514 -1.81088 0
M  V30 1689 H 163.57 0.448801 -0.489361 0
M  V30 1690 H 166.1 0.856992 -1.85787 0
M  V30 1691 H 166.11 3.21413 -2.51312 0
M  V30 1692 H 164.785 2.44081 -3.36745 0
M  V30 1693 H 163.362 3.29441 -1.74708 0
M  V30 1694 N 165.547 1.27147 0.931209 0
M  V30 1695 C 166.772 1.16191 1.71797 0
M  V30 1696 C 167.197 -0.278004 1.86034 0
M  V30 1697 O 166.555 -1.20137 1.35782 0
M  V30 1698 C 166.603 1.84673 3.09723 0
M  V30 1699 O 165.707 1.14231 3.96264 0
M  V30 1700 H 165.048 0.404303 0.526721 0
M  V30 1701 H 167.578 1.68152 1.1656 0
M  V30 1702 H 167.588 1.91893 3.60057 0
M  V30 1703 H 166.263 2.89421 2.98677 0
M  V30 1704 H 164.84 1.15056 3.54706 0
M  V30 1705 N 167.025 -1.13721 1.09112 0
M  V30 1706 C 167.955 -2.21148 0.749385 0
M  V30 1707 C 168.936 -1.6792 -0.271475 0
M  V30 1708 O 170.121 -1.93693 -0.140251 0
M  V30 1709 C 167.251 -3.46905 0.165659 0
M  V30 1710 C 166.205 -4.13203 1.11567 0
M  V30 1711 C 165.531 -5.33248 0.393809 0
M  V30 1712 C 166.831 -4.60912 2.45678 0
M  V30 1713 H 168.525 -2.4999 1.64758 0
M  V30 1714 H 166.071 -1.20156 0.793626 0
M  V30 1715 H 168.024 -4.21313 -0.085466 0
M  V30 1716 H 166.748 -3.17449 -0.767714 0
M  V30 1717 H 165.407 -3.40758 1.35202 0
M  V30 1718 H 165.055 -5.00054 -0.543599 0
M  V30 1719 H 164.755 -5.78552 1.02721 0
M  V30 1720 H 166.279 -6.10413 0.150908 0
M  V30 1721 H 167.693 -5.26759 2.26269 0
M  V30 1722 H 166.09 -5.16944 3.04776 0
M  V30 1723 H 167.16 -3.75603 3.06677 0
M  V30 1724 N 168.503 -0.877838 -1.30888 0
M  V30 1725 C 169.743 -0.499301 -1.98208 0
M  V30 1726 C 170.107 0.932649 -1.67826 0
M  V30 1727 O 171.308 1.41694 -2.28421 0
M  V30 1728 C 169.579 -0.758221 -3.49265 0
M  V30 1729 S 171.138 -0.480719 -4.36159 0
M  V30 1730 H 167.956 -0.186062 -0.686223 0
M  V30 1731 H 170.558 -1.13556 -1.59139 0
M  V30 1732 H 169.262 -1.79903 -3.68867 0
M  V30 1733 H 168.793 -0.109247 -3.93248 0
M  V30 1734 H 170.808 0.683698 -4.91467 0
M  V30 1735 N 169.982 1.44106 -0.638065 0
M  V30 1736 C 170.945 2.29138 0.0531013 0
M  V30 1737 C 171.945 1.41409 0.765506 0
M  V30 1738 O 173.135 1.63206 0.609046 0
M  V30 1739 C 170.267 3.23144 1.08584 0
M  V30 1740 H 171.46 2.91739 -0.694883 0
M  V30 1741 H 169.013 1.51134 -0.398538 0
M  V30 1742 H 169.748 2.65408 1.86357 0
M  V30 1743 H 169.533 3.87804 0.578852 0
M  V30 1744 H 171.023 3.87004 1.56899 0
M  V30 1745 N 171.46 0.379036 1.52974 0
M  V30 1746 C 172.39 -0.452706 2.29069 0
M  V30 1747 C 173.371 -1.07237 1.32039 0
M  V30 1748 O 174.556 -1.08708 1.60923 0
M  V30 1749 C 171.686 -1.5856 3.08992 0
M  V30 1750 C 170.64 -1.0925 4.13822 0
M  V30 1751 C 169.966 -2.31668 4.81907 0
M  V30 1752 C 171.266 -0.167702 5.22031 0
M  V30 1753 H 172.96 0.182181 2.98845 0
M  V30 1754 H 170.506 0.0890592 1.43724 0
M  V30 1755 H 172.459 -2.1742 3.6098 0
M  V30 1756 H 171.183 -2.24792 2.36931 0
M  V30 1757 H 169.842 -0.526494 3.628 0
M  V30 1758 H 169.49 -2.96386 4.06404 0
M  V30 1759 H 169.19 -1.9934 5.52754 0
M  V30 1760 H 170.714 -2.91189 5.36695 0
M  V30 1761 H 172.128 -0.664186 5.6944 0
M  V30 1762 H 170.525 0.0653265 6.00064 0
M  V30 1763 H 171.595 0.786347 4.78482 0
M  V30 1764 N 172.938 -1.57226 0.108567 0
M  V30 1765 C 174.163 -1.99604 -0.563303 0
M  V30 1766 C 174.588 -0.987563 -1.6009 0
M  V30 1767 O 173.946 0.0421687 -1.81251 0
M  V30 1768 C 173.994 -3.40902 -1.17552 0
M  V30 1769 O 173.098 -3.42896 -2.2912 0
M  V30 1770 H 172.439 -0.648704 -0.1417 0
M  V30 1771 H 174.969 -2.03679 0.193961 0
M  V30 1772 H 174.979 -3.78886 -1.51357 0
M  V30 1773 H 173.654 -4.1382 -0.415445 0
M  V30 1774 H 172.231 -3.1672 -1.96832 0
M  V30 1775 N 174.416 0.165178 -1.56732 0
M  V30 1776 C 175.693 0.908443 -1.73224 0
M  V30 1777 C 176.073 2.0013 -0.67165 0
M  V30 1778 O 175.421 2.26353 0.31253 0
M  V30 1779 C 175.631 1.46756 -3.16644 0
M  V30 1780 C 176.979 1.93809 -3.77787 0
M  V30 1781 O 178.003 1.56537 -3.1996 0
M  V30 1782 O 176.862 2.62486 -4.79336 0
M  V30 1783 H 173.956 0.428025 -0.707618 0
M  V30 1784 H 176.502 0.152526 -1.69013 0
M  V30 1785 H 175.274 0.68129 -3.85323 0
M  V30 1786 H 174.897 2.28749 -3.25207 0
M  V30 1787 N 175.894 1.51508 0.433938 0
M  V30 1788 C 177.14 1.64588 1.18484 0
M  V30 1789 C 177.473 0.362666 1.90784 0
M  V30 1790 O 176.748 -0.637892 1.83742 0
M  V30 1791 C 177.031 2.85149 2.19913 0
M  V30 1792 C 176.884 4.23456 1.51674 0
M  V30 1793 C 178.203 3.01227 3.20858 0
M  V30 1794 H 175.322 0.598994 0.429389 0
M  V30 1795 H 177.964 1.84002 0.473647 0
M  V30 1796 H 176.114 2.68729 2.80566 0
M  V30 1797 H 177.786 4.51552 0.943322 0
M  V30 1798 H 176.029 4.25998 0.819035 0
M  V30 1799 H 176.7 5.03812 2.2556 0
M  V30 1800 H 179.176 3.16382 2.70263 0
M  V30 1801 H 178.052 3.87141 3.89118 0
M  V30 1802 H 178.313 2.13447 3.8716 0
M  V30 1803 N 177.372 -0.689602 1.41712 0
M  V30 1804 C 178.6 -1.47827 1.44758 0
M  V30 1805 C 179.015 -1.88721 0.0545703 0
M  V30 1806 O 178.372 -1.57176 -0.927463 0
M  V30 1807 C 178.423 -2.73698 2.3616 0
M  V30 1808 O 178.144 -2.34524 3.7004 0
M  V30 1809 C 179.645 -3.67389 2.48072 0
M  V30 1810 H 176.865 -0.455357 0.49284 0
M  V30 1811 H 179.409 -0.848574 1.86063 0
M  V30 1812 H 177.564 -3.32891 1.98148 0
M  V30 1813 H 177.978 -3.15701 4.18847 0
M  V30 1814 H 179.452 -4.52475 3.16181 0
M  V30 1815 H 179.929 -4.12284 1.51388 0
M  V30 1816 H 180.535 -3.14097 2.86746 0
M  V30 1817 N 178.85 -1.27639 -0.924453 0
M  V30 1818 C 180.099 -1.13549 -1.66702 0
M  V30 1819 C 180.412 0.317487 -1.93006 0
M  V30 1820 O 181.618 0.579333 -2.65247 0
M  V30 1821 C 180.074 -1.98426 -3.00259 0
M  V30 1822 C 179.682 -3.484 -2.81641 0
M  V30 1823 C 181.426 -1.92993 -3.78092 0
M  V30 1824 C 179.333 -4.25464 -4.10773 0
M  V30 1825 H 178.263 -0.421351 -0.625283 0
M  V30 1826 H 180.914 -1.52085 -1.02676 0
M  V30 1827 H 179.296 -1.52736 -3.6536 0
M  V30 1828 H 180.47 -4.01973 -2.25287 0
M  V30 1829 H 178.785 -3.55245 -2.17232 0
M  V30 1830 H 181.382 -2.47844 -4.7379 0
M  V30 1831 H 181.725 -0.904281 -4.0636 0
M  V30 1832 H 182.258 -2.36595 -3.19793 0
M  V30 1833 H 178.997 -5.28566 -3.87683 0
M  V30 1834 H 178.517 -3.76667 -4.66779 0
M  V30 1835 H 180.196 -4.34812 -4.79111 0
M  V30 1836 N 180.328 1.1314 -1.09713 0
M  V30 1837 C 181.553 1.88862 -0.857081 0
M  V30 1838 C 181.978 1.78729 0.586304 0
M  V30 1839 O 181.336 1.13692 1.41222 0
M  V30 1840 C 181.384 3.36325 -1.30069 0
M  V30 1841 O 180.488 4.09815 -0.461007 0
M  V30 1842 H 179.829 0.587108 -0.310162 0
M  V30 1843 H 182.359 1.43129 -1.46203 0
M  V30 1844 H 182.369 3.87157 -1.28738 0
M  V30 1845 H 181.044 3.43017 -2.35185 0
M  V30 1846 H 179.621 3.68986 -0.538888 0
M  V30 1847 N 181.806 0.884767 1.30421 0
M  V30 1848 C 183.034 0.518044 2.0031 0
M  V30 1849 C 183.449 -0.893408 1.66324 0
M  V30 1850 O 182.806 -1.5875 0.900262 0
M  V30 1851 C 182.857 0.682997 3.54989 0
M  V30 1852 O 182.578 2.03888 3.87764 0
M  V30 1853 C 184.079 0.31924 4.42149 0
M  V30 1854 H 181.299 0.200265 0.640418 0
M  V30 1855 H 183.843 1.19001 1.6631 0
M  V30 1856 H 181.998 0.0584052 3.87356 0
M  V30 1857 H 182.412 2.05735 4.82466 0
M  V30 1858 H 183.886 0.485555 5.4986 0
M  V30 1859 H 184.363 -0.742717 4.32875 0
M  V30 1860 H 184.969 0.920147 4.15227 0
M  V30 1861 N 183.284 -1.43765 0.645699 0
M  V30 1862 C 184.524 -2.03776 0.159542 0
M  V30 1863 C 184.888 -1.49792 -1.2011 0
M  V30 1864 O 186.089 -2.01398 -1.78023 0
M  V30 1865 C 184.36 -3.57036 0.161251 0
M  V30 1866 S 185.919 -4.3804 -0.258159 0
M  V30 1867 H 182.737 -0.707717 0.0682454 0
M  V30 1868 H 185.339 -1.75941 0.852352 0
M  V30 1869 H 184.043 -3.9383 1.15439 0
M  V30 1870 H 183.574 -3.89503 -0.552339 0
M  V30 1871 H 185.589 -4.7302 -1.49889 0
M  V30 1872 N 184.763 -0.387143 -1.52771 0
M  V30 1873 C 185.713 0.465942 -2.23188 0
M  V30 1874 C 186.697 1.03138 -1.23496 0
M  V30 1875 O 187.889 0.957845 -1.48843 0
M  V30 1876 C 185.018 1.59384 -3.04059 0
M  V30 1877 C 184.104 1.04024 -4.11144 0
M  V30 1878 N 184.495 0.211416 -5.05358 0
M  V30 1879 C 182.793 1.31295 -4.26237 0
M  V30 1880 C 183.494 -0.0941698 -5.81624 0
M  V30 1881 N 182.47 0.509207 -5.4121 0
M  V30 1882 H 186.272 -0.173856 -2.93385 0
M  V30 1883 H 183.786 -0.19633 -1.61209 0
M  V30 1884 H 185.783 2.21738 -3.53041 0
M  V30 1885 H 184.443 2.23648 -2.35397 0
M  V30 1886 H 185.454 -0.151151 -5.17679 0
M  V30 1887 H 182.131 1.95679 -3.68803 0
M  V30 1888 H 183.521 -0.765572 -6.67524 0
M  V30 1889 N 186.241 1.57166 -0.116904 0
M  V30 1890 C 187.204 2.14039 0.819742 0
M  V30 1891 C 188.204 1.07477 1.19605 0
M  V30 1892 O 189.394 1.33263 1.1219 0
M  V30 1893 C 186.526 2.67891 2.10826 0
M  V30 1894 H 187.719 2.98128 0.325511 0
M  V30 1895 H 185.272 1.55739 0.132312 0
M  V30 1896 H 186.007 1.87384 2.64685 0
M  V30 1897 H 185.792 3.45823 1.84793 0
M  V30 1898 H 187.282 3.11809 2.77785 0
M  V30 1899 N 187.719 -0.156864 1.56817 0
M  V30 1900 C 188.944 -0.890331 1.87318 0
M  V30 1901 C 189.369 -1.74394 0.704855 0
M  V30 1902 O 188.727 -1.77972 -0.345786 0
M  V30 1903 C 188.775 -1.73102 3.16336 0
M  V30 1904 O 187.879 -2.83422 2.99576 0
M  V30 1905 H 187.22 -0.24857 0.615718 0
M  V30 1906 H 189.75 -0.150649 2.04045 0
M  V30 1907 H 189.76 -2.12803 3.48107 0
M  V30 1908 H 188.435 -1.10412 4.00976 0
M  V30 1909 H 187.012 -2.47199 2.7919 0
M  V30 1910 N 189.197 -1.51736 -0.425897 0
M  V30 1911 C 190.16 -1.73271 -1.50032 0
M  V30 1912 C 191.16 -0.602639 -1.4908 0
M  V30 1913 O 192.35 -0.87033 -1.509 0
M  V30 1914 C 189.482 -1.79969 -2.89523 0
M  V30 1915 H 190.675 -2.69172 -1.32237 0
M  V30 1916 H 188.228 -1.41899 -0.65532 0
M  V30 1917 H 188.963 -0.859241 -3.1271 0
M  V30 1918 H 188.748 -2.62109 -2.91619 0
M  V30 1919 H 190.238 -1.9843 -3.67444 0
M  V30 1920 N 190.675 0.682077 -1.42076 0
M  V30 1921 C 191.622 1.79578 -1.44984 0
M  V30 1922 C 192.592 1.6332 -0.302614 0
M  V30 1923 O 193.777 1.83978 -0.505633 0
M  V30 1924 C 190.917 3.1756 -1.35091 0
M  V30 1925 C 190.03 3.45156 -2.59791 0
M  V30 1926 C 189.165 4.72826 -2.42093 0
M  V30 1927 C 188.204 4.93433 -3.62202 0
M  V30 1928 N 187.341 6.12338 -3.43491 0
M  V30 1929 H 192.181 1.76427 -2.40161 0
M  V30 1930 H 189.718 0.861376 -1.19242 0
M  V30 1931 H 191.676 3.97287 -1.27354 0
M  V30 1932 H 190.306 3.19854 -0.435133 0
M  V30 1933 H 189.358 2.59736 -2.77923 0
M  V30 1934 H 190.67 3.5628 -3.49094 0
M  V30 1935 H 189.824 5.60631 -2.319 0
M  V30 1936 H 188.563 4.63973 -1.50268 0
M  V30 1937 H 187.568 4.04073 -3.72834 0
M  V30 1938 H 188.793 5.04136 -4.54998 0
M  V30 1939 H 186.739 6.04672 -2.54377 0
M  V30 1940 H 186.656 6.2429 -4.26377 0
M  V30 1941 H 187.924 7.02841 -3.37097 0
M  V30 1942 N 192.153 1.28127 0.917671 0
M  V30 1943 C 193.399 1.15223 1.66888 0
M  V30 1944 C 193.732 -0.299293 1.9188 0
M  V30 1945 O 193.007 -1.21805 1.51637 0
M  V30 1946 C 193.29 1.94706 3.02922 0
M  V30 1947 C 193.143 3.47898 2.85109 0
M  V30 1948 C 194.462 1.75939 4.03402 0
M  V30 1949 H 191.581 0.419946 0.605652 0
M  V30 1950 H 194.223 1.57398 1.06423 0
M  V30 1951 H 192.373 1.58864 3.54534 0
M  V30 1952 H 194.045 3.93624 2.40537 0
M  V30 1953 H 192.288 3.7373 2.20246 0
M  V30 1954 H 192.959 3.98765 3.81694 0
M  V30 1955 H 195.435 2.07209 3.60837 0
M  V30 1956 H 194.311 2.33931 4.96556 0
M  V30 1957 H 194.572 0.709877 4.36364 0
M  V30 1958 N 193.631 -1.12557 1.10312 0
M  V30 1959 C 194.879 -1.83675 0.843091 0
M  V30 1960 C 195.2 -1.84435 -0.633131 0
M  V30 1961 O 194.47 -1.30657 -1.45964 0
M  V30 1962 H 193.05 -0.680138 0.308904 0
M  V30 1963 H 195.712 -1.36301 1.39313 0
M  V30 1964 H 194.808 -2.87908 1.2048 0
M  V30 1965 N 195.109 -0.891671 -1.2995 0
M  V30 1966 C 196.337 -0.52866 -2.00032 0
M  V30 1967 C 196.752 0.884574 -1.66795 0
M  V30 1968 O 196.109 1.5827 -0.908669 0
M  V30 1969 C 196.16 -0.701814 -3.54622 0
M  V30 1970 O 195.881 -2.05942 -3.86678 0
M  V30 1971 C 197.382 -0.342683 -4.41973 0
M  V30 1972 H 194.602 -0.203659 -0.639347 0
M  V30 1973 H 197.146 -1.19881 -1.65677 0
M  V30 1974 H 195.301 -0.0789468 -3.8732 0
M  V30 1975 H 195.715 -2.08291 -4.81368 0
M  V30 1976 H 197.189 -0.514709 -5.49595 0
M  V30 1977 H 197.666 0.71975 -4.33262 0
M  V30 1978 H 198.272 -0.942154 -4.14733 0
M  V30 1979 N 196.587 1.43421 -0.653314 0
M  V30 1980 C 198.003 1.56341 -0.320886 0
M  V30 1981 C 198.203 1.63696 1.17499 0
M  V30 1982 O 197.259 1.59208 1.95982 0
M  V30 1983 C 198.572 2.82424 -1.03233 0
M  V30 1984 C 200.12 2.96168 -1.01259 0
M  V30 1985 C 200.595 4.25084 -1.70492 0
M  V30 1986 N 202.086 4.31948 -1.67257 0
M  V30 1987 C 202.821 5.30466 -2.17701 0
M  V30 1988 N 202.317 6.35261 -2.76434 0
M  V30 1989 N 204.11 5.2212 -2.082 0
M  V30 1990 H 196.261 1.3689 -1.62403 0
M  V30 1991 H 198.524 0.657455 -0.682977 0
M  V30 1992 H 198.23 2.83053 -2.08744 0
M  V30 1993 H 198.104 3.72653 -0.583948 0
M  V30 1994 H 200.491 2.9508 0.0341235 0
M  V30 1995 H 200.572 2.07229 -1.49966 0
M  V30 1996 H 200.216 4.26932 -2.7512 0
M  V30 1997 H 200.146 5.1292 -1.19251 0
M  V30 1998 H 202.637 3.56838 -1.24398 0
M  V30 1999 H 202.95 7.06754 -3.12601 0
M  V30 2000 H 201.295 6.35884 -2.80495 0
M  V30 2001 H 204.486 4.39166 -1.62021 0
M  V30 2002 H 204.659 5.98739 -2.47822 0
M  V30 2003 N 198.065 0.39524 1.52563 0
M  V30 2004 C 198.995 -0.428384 2.29537 0
M  V30 2005 C 199.976 -1.05831 1.33169 0
M  V30 2006 O 201.161 -1.06995 1.62067 0
M  V30 2007 C 198.291 -1.55274 3.10656 0
M  V30 2008 C 197.245 -1.04855 4.14957 0
M  V30 2009 C 196.571 -2.26543 4.84337 0
M  V30 2010 C 197.871 -0.112324 5.22179 0
M  V30 2011 H 199.565 0.213867 2.98635 0
M  V30 2012 H 197.111 0.104298 1.43622 0
M  V30 2013 H 199.064 -2.1358 3.63265 0
M  V30 2014 H 197.788 -2.22266 2.39302 0
M  V30 2015 H 196.447 -0.487985 3.63338 0
M  V30 2016 H 196.095 -2.92059 4.09525 0
M  V30 2017 H 195.795 -1.93466 5.54837 0
M  V30 2018 H 197.319 -2.85481 5.39753 0
M  V30 2019 H 198.733 -0.603752 5.70112 0
M  V30 2020 H 197.13 0.128968 5.99961 0
M  V30 2021 H 198.2 0.837052 4.77621 0
M  V30 2022 N 199.544 -1.57102 0.125237 0
M  V30 2023 C 200.477 -2.11371 -0.860094 0
M  V30 2024 C 201.455 -1.03168 -1.25679 0
M  V30 2025 O 202.639 -1.30862 -1.35674 0
M  V30 2026 C 199.766 -2.61555 -2.1519 0
M  V30 2027 C 198.812 -3.81701 -1.9028 0
M  V30 2028 S 199.645 -5.23797 -1.11343 0
M  V30 2029 C 200.801 -5.77353 -2.41689 0
M  V30 2030 H 201.034 -2.94617 -0.39852 0
M  V30 2031 H 198.567 -1.54145 -0.0886555 0
M  V30 2032 H 200.525 -2.91122 -2.89411 0
M  V30 2033 H 199.186 -1.78479 -2.58465 0
M  V30 2034 H 198.379 -4.14985 -2.86014 0
M  V30 2035 H 197.981 -3.52783 -1.24178 0
M  V30 2036 H 200.273 -5.87458 -3.37489 0
M  V30 2037 H 201.216 -6.75323 -2.12942 0
M  V30 2038 H 201.624 -5.05457 -2.51342 0
M  V30 2039 N 201.022 0.148545 -1.56898 0
M  V30 2040 C 202.269 0.861418 -1.83264 0
M  V30 2041 C 202.597 1.81239 -0.705883 0
M  V30 2042 O 201.852 1.93305 0.305212 0
M  V30 2043 C 202.151 1.67064 -3.1595 0
M  V30 2044 C 201.817 0.866591 -4.42494 0
M  V30 2045 C 200.479 0.644762 -4.76861 0
M  V30 2046 C 202.831 0.30418 -5.20312 0
M  V30 2047 C 200.159 -0.15021 -5.86508 0
M  V30 2048 C 202.511 -0.477824 -6.30793 0
M  V30 2049 C 201.175 -0.710244 -6.63711 0
M  V30 2050 H 200.445 0.315215 -0.670612 0
M  V30 2051 H 203.092 0.125142 -1.91091 0
M  V30 2052 H 201.397 2.47698 -3.03567 0
M  V30 2053 H 203.094 2.22566 -3.33565 0
M  V30 2054 H 199.684 1.04955 -4.15551 0
M  V30 2055 H 203.868 0.462844 -4.94137 0
M  V30 2056 H 199.124 -0.339796 -6.10455 0
M  V30 2057 H 203.298 -0.92076 -6.90286 0
M  V30 2058 H 200.925 -1.3281 -7.48509 0
M  V30 2059 N 202.5 1.5196 0.417844 0
M  V30 2060 C 203.777 1.56146 1.17803 0
M  V30 2061 C 204.157 0.337275 2.08388 0
M  V30 2062 O 203.505 -0.676447 2.18258 0
M  V30 2063 C 203.715 2.88566 1.96293 0
M  V30 2064 C 205.063 3.41244 2.52662 0
M  V30 2065 O 206.087 2.90247 2.06483 0
M  V30 2066 O 204.946 4.30273 3.36938 0
M  V30 2067 H 202.04 0.628598 0.537395 0
M  V30 2068 H 204.586 1.64283 0.425331 0
M  V30 2069 H 203.358 3.69116 1.2988 0
M  V30 2070 H 202.981 2.83681 2.78587 0
M  V30 2071 N 203.978 -0.674533 1.42435 0
M  V30 2072 C 204.928 -1.7807 1.4239 0
M  V30 2073 C 205.912 -1.58169 0.295202 0
M  V30 2074 O 207.104 -1.68643 0.537449 0
M  V30 2075 C 204.233 -3.16532 1.32901 0
M  V30 2076 C 203.319 -3.42055 2.50717 0
M  V30 2077 N 203.71 -3.38162 3.76139 0
M  V30 2078 C 202.008 -3.72692 2.44983 0
M  V30 2079 C 202.709 -3.63177 4.54398 0
M  V30 2080 N 201.685 -3.83954 3.84812 0
M  V30 2081 H 205.487 -1.73454 2.37257 0
M  V30 2082 H 203.001 -0.875381 1.36788 0
M  V30 2083 H 204.998 -3.958 1.30951 0
M  V30 2084 H 203.658 -3.22345 0.390363 0
M  V30 2085 H 204.669 -3.18057 4.0873 0
M  V30 2086 H 201.346 -3.85749 1.59699 0
M  V30 2087 H 202.736 -3.66125 5.63384 0
M  V30 2088 N 205.456 -1.28612 -0.910864 0
M  V30 2089 C 206.404 -1.1265 -2.03501 0
M  V30 2090 C 207.398 -0.0450054 -1.6934 0
M  V30 2091 O 208.604 -0.203988 -1.7884 0
M  V30 2092 H 204.979 -0.347639 -0.666822 0
M  V30 2093 H 206.95 -2.07849 -2.14106 0
M  V30 2094 C 205.699 -0.808143 -3.38178 0
M  V30 2095 H 205.022 -1.63231 -3.6496 0
M  V30 2096 H 206.462 -0.736426 -4.17556 0
M  V30 2097 C 204.921 0.488226 -3.33344 0
M  V30 2098 O 205.451 1.51766 -3.71927 0
M  V30 2099 N 203.657 0.490009 -2.86439 0
M  V30 2100 H 203.204 -0.348161 -2.55236 0
M  V30 2101 H 203.162 1.35741 -2.83587 0
M  V30 2102 N 206.934 1.1197 -1.10907 0
M  V30 2103 C 208.182 1.83225 -0.852819 0
M  V30 2104 C 208.503 1.84769 0.623341 0
M  V30 2105 O 207.773 1.3143 1.45269 0
M  V30 2106 H 206.353 0.67849 -0.312507 0
M  V30 2107 H 209.015 1.3556 -1.40033 0
M  V30 2108 H 208.111 2.87265 -1.22005 0
M  V30 2109 N 208.412 0.89855 1.29475 0
M  V30 2110 C 209.359 0.373819 2.27753 0
M  V30 2111 C 210.329 -0.543444 1.56958 0
M  V30 2112 O 211.514 -0.468934 1.84948 0
M  V30 2113 C 208.654 -0.393648 3.42848 0
M  V30 2114 C 207.767 0.554379 4.28428 0
M  V30 2115 C 206.902 -0.230026 5.30702 0
M  V30 2116 C 205.941 0.712599 6.07938 0
M  V30 2117 N 205.078 -0.0373283 7.0209 0
M  V30 2118 H 209.918 1.21699 2.72017 0
M  V30 2119 H 207.455 0.611456 1.33789 0
M  V30 2120 H 209.413 -0.85466 4.08352 0
M  V30 2121 H 208.043 -1.20128 2.99615 0
M  V30 2122 H 207.095 1.13391 3.63107 0
M  V30 2123 H 208.407 1.27597 4.82204 0
M  V30 2124 H 207.561 -0.752288 6.02018 0
M  V30 2125 H 206.3 -0.984758 4.77654 0
M  V30 2126 H 205.305 1.24637 5.35486 0
M  V30 2127 H 206.53 1.46664 6.63074 0
M  V30 2128 H 204.476 -0.774348 6.51414 0
M  V30 2129 H 204.393 0.624374 7.53417 0
M  V30 2130 H 205.661 -0.539891 7.77628 0
M  V30 2131 N 209.89 -1.43072 0.660911 0
M  V30 2132 C 211.139 -2.00942 0.174735 0
M  V30 2133 C 211.452 -1.52797 -1.22117 0
M  V30 2134 O 212.658 -2.02991 -1.80297 0
M  V30 2135 C 211.114 -3.58948 0.261559 0
M  V30 2136 C 210.722 -4.16085 1.66064 0
M  V30 2137 C 212.466 -4.24173 -0.166617 0
M  V30 2138 C 210.373 -5.6641 1.70098 0
M  V30 2139 H 209.303 -0.751483 0.0615631 0
M  V30 2140 H 211.954 -1.63955 0.824069 0
M  V30 2141 H 210.336 -3.93372 -0.455421 0
M  V30 2142 H 211.51 -3.93147 2.40359 0
M  V30 2143 H 209.825 -3.6326 2.03546 0
M  V30 2144 H 212.422 -5.34471 -0.156433 0
M  V30 2145 H 212.765 -3.98647 -1.19943 0
M  V30 2146 H 213.298 -3.94659 0.498875 0
M  V30 2147 H 210.037 -5.96715 2.71315 0
M  V30 2148 H 209.557 -5.91382 1.00139 0
M  V30 2149 H 211.236 -6.30585 1.44816 0
M  V30 2150 N 211.368 -0.403325 -1.52352 0
M  V30 2151 C 212.617 0.175668 -2.00934 0
M  V30 2152 C 212.93 1.46718 -1.29356 0
M  V30 2153 O 214.136 2.12708 -1.68724 0
M  V30 2154 C 212.592 0.363612 -3.58058 0
M  V30 2155 C 212.2 -0.915472 -4.38547 0
M  V30 2156 C 213.944 0.89821 -4.14888 0
M  V30 2157 C 211.851 -0.695035 -5.87302 0
M  V30 2158 H 210.781 0.0694234 -0.750797 0
M  V30 2159 H 213.432 -0.527879 -1.75743 0
M  V30 2160 H 211.814 1.12935 -3.79555 0
M  V30 2161 H 212.988 -1.68691 -4.28812 0
M  V30 2162 H 211.303 -1.37606 -3.93006 0
M  V30 2163 H 213.9 1.07907 -5.23699 0
M  V30 2164 H 214.243 1.87126 -3.71873 0
M  V30 2165 H 214.776 0.191681 -3.97338 0
M  V30 2166 H 211.515 -1.63948 -6.34666 0
M  V30 2167 H 211.035 0.0372116 -5.99788 0
M  V30 2168 H 212.714 -0.33497 -6.46132 0
M  V30 2169 N 212.846 1.57033 -0.133567 0
M  V30 2170 C 213.778 2.13176 0.841944 0
M  V30 2171 C 214.791 1.07794 1.22001 0
M  V30 2172 O 215.98 1.35117 1.16643 0
M  V30 2173 C 213.08 2.62847 2.13926 0
M  V30 2174 C 212.253 3.92486 1.93064 0
M  V30 2175 C 211.312 4.27605 3.0666 0
M  V30 2176 O 210.338 4.96168 2.78937 0
M  V30 2177 N 211.54 3.861 4.33483 0
M  V30 2178 H 214.305 2.97503 0.362192 0
M  V30 2179 H 211.866 1.61821 0.05042 0
M  V30 2180 H 213.858 2.83363 2.88942 0
M  V30 2181 H 212.428 1.83319 2.53205 0
M  V30 2182 H 211.648 3.80732 1.02159 0
M  V30 2183 H 212.936 4.77225 1.76447 0
M  V30 2184 H 212.334 3.30828 4.58878 0
M  V30 2185 H 210.891 4.11694 5.05323 0
M  V30 2186 N 214.325 -0.140222 1.56975 0
M  V30 2187 C 215.272 -1.17292 1.98774 0
M  V30 2188 C 216.242 -1.4232 0.856408 0
M  V30 2189 O 217.427 -1.54541 1.119 0
M  V30 2190 C 214.567 -2.49973 2.37923 0
M  V30 2191 C 213.68 -2.32062 3.64378 0
M  V30 2192 C 212.815 -3.57825 3.926 0
M  V30 2193 C 211.854 -3.3498 5.12303 0
M  V30 2194 N 210.991 -4.52891 5.36502 0
M  V30 2195 H 215.831 -0.809472 2.86795 0
M  V30 2196 H 213.368 -0.388237 1.41884 0
M  V30 2197 H 215.326 -3.27346 2.58652 0
M  V30 2198 H 213.956 -2.84252 1.52972 0
M  V30 2199 H 213.008 -1.45711 3.51387 0
M  V30 2200 H 214.32 -2.11145 4.51906 0
M  V30 2201 H 213.474 -4.43624 4.13863 0
M  V30 2202 H 212.213 -3.81753 3.03506 0
M  V30 2203 H 211.218 -2.4757 4.90906 0
M  V30 2204 H 212.443 -3.12444 6.02956 0
M  V30 2205 H 210.389 -4.76979 4.50363 0
M  V30 2206 H 210.306 -4.35001 6.18312 0
M  V30 2207 H 211.574 -5.39884 5.62268 0
M  V30 2208 N 215.803 -1.52179 -0.40978 0
M  V30 2209 C 217.031 -1.70054 -1.17853 0
M  V30 2210 C 217.446 -0.409735 -1.843 0
M  V30 2211 O 216.803 0.614183 -1.71855 0
M  V30 2212 C 216.854 -2.83568 -2.24213 0
M  V30 2213 O 216.575 -4.0765 -1.60478 0
M  V30 2214 C 218.076 -3.12947 -3.13973 0
M  V30 2215 H 215.296 -0.569917 -0.354169 0
M  V30 2216 H 217.84 -1.98734 -0.482198 0
M  V30 2217 H 215.995 -2.57409 -2.89516 0
M  V30 2218 H 216.409 -4.70899 -2.30986 0
M  V30 2219 H 217.883 -3.95889 -3.84677 0
M  V30 2220 H 218.36 -2.26472 -3.76307 0
M  V30 2221 H 218.966 -3.40868 -2.5434 0
M  V30 2222 N 217.281 0.66697 -1.42791 0
M  V30 2223 C 218.692 1.2478 -1.38877 0
M  V30 2224 C 219.043 1.96012 -0.0859426 0
M  V30 2225 O 218.168 2.00463 0.815081 0
M  V30 2226 C 218.763 2.26938 -2.51564 0
M  V30 2227 C 217.322 2.80529 -2.50959 0
M  V30 2228 C 216.469 1.54965 -2.29959 0
M  V30 2229 H 219.42 0.459853 -1.51892 0
M  V30 2230 H 219.441 3.08834 -2.22265 0
M  V30 2231 H 218.953 1.75065 -3.46372 0
M  V30 2232 H 217.054 3.36502 -1.59991 0
M  V30 2233 H 217.167 3.29012 -3.48265 0
M  V30 2234 H 215.531 1.81817 -1.78366 0
M  V30 2235 H 216.314 1.05047 -3.26833 0
M  V30 2236 N 218.759 1.29093 0.90403 0
M  V30 2237 C 219.989 1.19516 1.68522 0
M  V30 2238 C 220.397 -0.24738 1.87576 0
M  V30 2239 O 219.74 -1.17798 1.40959 0
M  V30 2240 C 219.802 1.83249 3.0929 0
M  V30 2241 C 219.466 3.32531 3.13484 0
M  V30 2242 C 220.463 4.28821 2.93953 0
M  V30 2243 C 218.148 3.73656 3.35688 0
M  V30 2244 C 220.142 5.64212 2.96553 0
M  V30 2245 C 217.829 5.0917 3.37919 0
M  V30 2246 C 218.827 6.04258 3.18373 0
M  V30 2247 O 218.515 7.37298 3.20385 0
M  V30 2248 H 218.247 0.415467 0.533257 0
M  V30 2249 H 220.801 1.70912 1.13922 0
M  V30 2250 H 219.031 1.26358 3.65473 0
M  V30 2251 H 220.72 1.68054 3.69476 0
M  V30 2252 H 221.486 3.98382 2.76616 0
M  V30 2253 H 217.365 3.00101 3.49943 0
M  V30 2254 H 220.909 6.38407 2.81216 0
M  V30 2255 H 216.806 5.39256 3.54787 0
M  V30 2256 H 217.574 7.46048 3.36681 0
M  V30 2257 N 220.237 -1.11381 1.11499 0
M  V30 2258 C 221.648 -1.6465 0.880191 0
M  V30 2259 C 221.999 -1.87199 -0.587434 0
M  V30 2260 O 221.124 -1.60667 -1.44966 0
M  V30 2261 C 221.719 -2.99105 1.59128 0
M  V30 2262 C 220.278 -3.49279 1.40289 0
M  V30 2263 C 219.425 -2.24077 1.63354 0
M  V30 2264 H 222.376 -0.950123 1.27116 0
M  V30 2265 H 222.397 -3.66107 1.03664 0
M  V30 2266 H 221.909 -2.82661 2.65941 0
M  V30 2267 H 220.01 -3.70887 0.356888 0
M  V30 2268 H 220.123 -4.2803 2.15238 0
M  V30 2269 H 218.487 -2.31733 1.05698 0
M  V30 2270 H 219.27 -2.10175 2.71443 0
M  V30 2271 N 221.715 -0.905404 -1.28997 0
M  V30 2272 C 223.131 -0.60233 -1.47798 0
M  V30 2273 C 223.331 0.854645 -1.82478 0
M  V30 2274 O 222.387 1.63439 -1.92468 0
M  V30 2275 C 223.7 -1.53306 -2.58685 0
M  V30 2276 C 225.248 -1.53887 -2.72558 0
M  V30 2277 C 225.723 -2.45602 -3.86579 0
M  V30 2278 N 227.214 -2.43681 -3.93921 0
M  V30 2279 C 227.949 -3.11347 -4.81509 0
M  V30 2280 N 227.445 -3.88313 -5.73746 0
M  V30 2281 N 229.238 -3.00476 -4.75048 0
M  V30 2282 H 221.389 -1.84765 -1.04764 0
M  V30 2283 H 223.652 -0.792025 -0.520961 0
M  V30 2284 H 223.358 -2.57141 -2.39941 0
M  V30 2285 H 223.232 -1.25787 -3.55609 0
M  V30 2286 H 225.619 -0.507941 -2.90696 0
M  V30 2287 H 225.7 -1.85447 -1.76191 0
M  V30 2288 H 225.344 -3.48792 -3.69197 0
M  V30 2289 H 225.274 -2.11349 -4.82327 0
M  V30 2290 H 227.765 -1.87767 -3.27951 0
M  V30 2291 H 228.078 -4.36985 -6.37389 0
M  V30 2292 H 226.423 -3.92419 -5.73614 0
M  V30 2293 H 229.614 -2.39858 -4.01977 0
M  V30 2294 H 229.787 -3.53485 -5.43095 0
M  V30 2295 N 223.193 1.4272 -0.668489 0
M  V30 2296 C 224.604 1.84793 -0.266151 0
M  V30 2297 C 224.955 1.55959 1.19043 0
M  V30 2298 O 224.08 1.01622 1.91055 0
M  V30 2299 C 224.675 3.35436 -0.476271 0
M  V30 2300 C 223.234 3.76182 -0.128113 0
M  V30 2301 C 222.381 2.66344 -0.771777 0
M  V30 2302 H 225.332 1.32656 -0.871098 0
M  V30 2303 H 225.353 3.79515 0.273561 0
M  V30 2304 H 224.865 3.5639 -1.53647 0
M  V30 2305 H 222.966 3.60836 0.928891 0
M  V30 2306 H 223.079 4.75766 -0.564231 0
M  V30 2307 H 221.443 2.53885 -0.203652 0
M  V30 2308 H 222.226 2.90123 -1.83531 0
M  V30 2309 N 224.671 0.411399 1.52136 0
M  V30 2310 C 226.087 0.0623865 1.59478 0
M  V30 2311 C 226.287 -1.42554 1.4241 0
M  V30 2312 O 225.343 -2.19263 1.2522 0
M  V30 2313 C 226.656 0.559331 2.95452 0
M  V30 2314 C 228.204 0.517503 3.08692 0
M  V30 2315 C 228.679 0.990994 4.4715 0
M  V30 2316 N 230.17 0.947908 4.53397 0
M  V30 2317 C 230.905 1.28544 5.58806 0
M  V30 2318 N 230.401 1.69454 6.71757 0
M  V30 2319 N 232.194 1.20526 5.49026 0
M  V30 2320 H 224.345 1.37982 1.61477 0
M  V30 2321 H 226.608 0.566977 0.759764 0
M  V30 2322 H 226.314 1.59938 3.1323 0
M  V30 2323 H 226.188 -0.0298014 3.77188 0
M  V30 2324 H 228.575 -0.513505 2.90598 0
M  V30 2325 H 228.656 1.14272 2.28857 0
M  V30 2326 H 228.3 2.02034 4.65988 0
M  V30 2327 H 228.23 0.34257 5.25485 0
M  V30 2328 H 230.721 0.647157 3.72317 0
M  V30 2329 H 231.034 1.93513 7.48179 0
M  V30 2330 H 229.379 1.73359 6.73032 0
M  V30 2331 H 232.57 0.884505 4.59667 0
M  V30 2332 H 232.743 1.47161 6.31069 0
M  V30 2333 N 226.149 -1.5696 0.141893 0
M  V30 2334 C 227.397 -1.95573 -0.509484 0
M  V30 2335 C 227.718 -1.02746 -1.65736 0
M  V30 2336 O 226.988 -0.0880311 -1.95702 0
M  V30 2337 H 225.568 -0.722115 -0.191205 0
M  V30 2338 H 228.23 -1.93697 0.216196 0
M  V30 2339 H 227.326 -2.99171 -0.889 0
M  V30 2340 N 227.627 0.131896 -1.57047 0
M  V30 2341 C 228.855 0.856461 -1.88341 0
M  V30 2342 C 229.27 1.74042 -0.731757 0
M  V30 2343 O 228.627 1.80051 0.297945 0
M  V30 2344 C 228.678 1.70064 -3.18999 0
M  V30 2345 O 228.399 0.852278 -4.2973 0
M  V30 2346 C 229.9 2.53148 -3.63911 0
M  V30 2347 H 227.12 0.246885 -0.62393 0
M  V30 2348 H 229.664 0.120152 -2.04147 0
M  V30 2349 H 227.819 2.38984 -3.04902 0
M  V30 2350 H 228.233 1.43329 -5.04537 0
M  V30 2351 H 229.707 3.07931 -4.58129 0
M  V30 2352 H 230.184 3.29901 -2.89935 0
M  V30 2353 H 230.79 1.89492 -3.80753 0
M  V30 2354 N 229.106 1.52395 0.401703 0
M  V30 2355 C 230.334 1.70676 1.16949 0
M  V30 2356 C 230.749 0.419503 1.8408 0
M  V30 2357 O 230.106 -0.605061 1.72178 0
M  V30 2358 C 230.157 2.84753 2.22706 0
M  V30 2359 O 229.878 4.08495 1.58314 0
M  V30 2360 C 231.379 3.14608 3.12309 0
M  V30 2361 H 228.599 0.571787 0.351142 0
M  V30 2362 H 231.143 1.98987 0.471652 0
M  V30 2363 H 229.298 2.58941 2.88147 0
M  V30 2364 H 229.712 4.72117 2.28485 0
M  V30 2365 H 231.186 3.97923 3.82572 0
M  V30 2366 H 231.663 2.28464 3.75101 0
M  V30 2367 H 232.269 3.42212 2.52529 0
M  V30 2368 N 230.584 -0.659388 1.43143 0
M  V30 2369 C 231.83 -1.42145 1.44647 0
M  V30 2370 C 232.163 -1.9408 0.0681907 0
M  V30 2371 O 231.438 -1.71899 -0.910007 0
M  V30 2372 C 231.721 -2.60735 2.48373 0
M  V30 2373 C 231.574 -2.14332 3.95451 0
M  V30 2374 C 232.893 -3.62951 2.48906 0
M  V30 2375 H 230.012 -0.51552 0.526696 0
M  V30 2376 H 232.654 -0.748069 1.74654 0
M  V30 2377 H 230.804 -3.18184 2.22916 0
M  V30 2378 H 232.476 -1.61932 4.31944 0
M  V30 2379 H 230.719 -1.4576 4.08578 0
M  V30 2380 H 231.39 -2.99583 4.63631 0
M  V30 2381 H 233.866 -3.1525 2.71582 0
M  V30 2382 H 232.742 -4.43487 3.23435 0
M  V30 2383 H 233.003 -4.15126 1.52061 0
M  V30 2384 N 232.062 -1.29571 -0.897171 0
M  V30 2385 C 233.287 -1.20705 -1.68656 0
M  V30 2386 C 233.712 0.228582 -1.86706 0
M  V30 2387 O 233.07 1.16494 -1.3892 0
M  V30 2388 C 233.118 -1.9282 -3.04717 0
M  V30 2389 O 232.222 -1.24697 -3.93096 0
M  V30 2390 H 231.563 -0.418126 -0.515816 0
M  V30 2391 H 234.093 -1.71183 -1.12061 0
M  V30 2392 H 234.103 -2.01372 -3.54843 0
M  V30 2393 H 232.778 -2.97239 -2.90899 0
M  V30 2394 H 231.355 -1.2442 -3.51531 0
M  V30 2395 N 233.54 1.10788 -1.12088 0
M  V30 2396 C 234.786 1.82942 -0.875226 0
M  V30 2397 C 235.119 1.84779 0.597538 0
M  V30 2398 O 234.394 1.30578 1.44152 0
M  V30 2399 C 234.677 3.29789 -1.44606 0
M  V30 2400 C 234.53 3.36307 -2.98693 0
M  V30 2401 C 235.849 4.26064 -1.10261 0
M  V30 2402 H 232.968 0.664195 -0.319397 0
M  V30 2403 H 235.61 1.29867 -1.38689 0
M  V30 2404 H 233.76 3.75118 -1.01089 0
M  V30 2405 H 235.432 2.99487 -3.50864 0
M  V30 2406 H 233.675 2.76318 -3.34411 0
M  V30 2407 H 234.346 4.39694 -3.33726 0
M  V30 2408 H 236.822 3.88951 -1.4784 0
M  V30 2409 H 235.698 5.27183 -1.52869 0
M  V30 2410 H 235.959 4.42098 -0.0142953 0
M  V30 2411 N 235.018 0.912232 1.28515 0
M  V30 2412 C 235.95 0.35676 2.26406 0
M  V30 2413 C 236.963 -0.503933 1.54804 0
M  V30 2414 O 238.152 -0.319059 1.75625 0
M  V30 2415 C 235.252 -0.508825 3.35058 0
M  V30 2416 C 234.425 0.329007 4.36161 0
M  V30 2417 C 233.484 -0.471422 5.24084 0
M  V30 2418 O 232.51 0.115482 5.69083 0
M  V30 2419 N 233.712 -1.77479 5.52704 0
M  V30 2420 H 236.477 1.19818 2.74707 0
M  V30 2421 H 234.038 0.778022 1.4198 0
M  V30 2422 H 236.03 -1.051 3.90815 0
M  V30 2423 H 234.6 -1.25095 2.86478 0
M  V30 2424 H 233.82 1.05256 3.79888 0
M  V30 2425 H 235.108 0.90234 5.00735 0
M  V30 2426 H 234.506 -2.27417 5.17975 0
M  V30 2427 H 233.063 -2.26382 6.11224 0
M  V30 2428 N 236.496 -1.42363 0.676048 0
M  V30 2429 C 237.428 -2.29164 -0.0404605 0
M  V30 2430 C 238.441 -1.43747 -0.764245 0
M  V30 2431 O 239.63 -1.67453 -0.618195 0
M  V30 2432 C 236.73 -3.21196 -1.08103 0
M  V30 2433 C 235.903 -4.35273 -0.430812 0
M  V30 2434 C 234.962 -5.08017 -1.37133 0
M  V30 2435 O 233.988 -5.62494 -0.87116 0
M  V30 2436 N 235.19 -5.13647 -2.70456 0
M  V30 2437 H 237.955 -2.91298 0.704667 0
M  V30 2438 H 235.516 -1.53303 0.520559 0
M  V30 2439 H 237.508 -3.66728 -1.71152 0
M  V30 2440 H 236.078 -2.60505 -1.72788 0
M  V30 2441 H 235.298 -3.92372 0.379209 0
M  V30 2442 H 236.586 -5.08795 0.0221132 0
M  V30 2443 H 235.984 -4.708 -3.1363 0
M  V30 2444 H 234.541 -5.62821 -3.28749 0
M  V30 2445 N 237.974 -0.419461 -1.51915 0
M  V30 2446 C 238.904 0.391813 -2.30189 0
M  V30 2447 C 239.885 1.03699 -1.34836 0
M  V30 2448 O 241.07 1.04403 -1.63748 0
M  V30 2449 C 238.2 1.50312 -3.13087 0
M  V30 2450 C 237.154 0.9824 -4.16573 0
M  V30 2451 C 236.48 2.18809 -4.8788 0
M  V30 2452 C 237.78 0.0292356 -5.22292 0
M  V30 2453 H 239.474 -0.26135 -2.98257 0
M  V30 2454 H 237.02 -0.127134 -1.43438 0
M  V30 2455 H 238.973 2.07773 -3.66617 0
M  V30 2456 H 237.697 2.18431 -2.42807 0
M  V30 2457 H 236.356 0.430119 -3.64068 0
M  V30 2458 H 236.004 2.85507 -4.14119 0
M  V30 2459 H 235.704 1.84615 -5.57845 0
M  V30 2460 H 237.228 2.76858 -5.44226 0
M  V30 2461 H 238.642 0.512976 -5.71 0
M  V30 2462 H 237.039 -0.2244 -5.9968 0
M  V30 2463 H 238.109 -0.912931 -4.76228 0
M  V30 2464 N 239.452 1.56882 -0.150215 0
M  V30 2465 C 240.699 1.96228 0.500093 0
M  V30 2466 C 241.027 1.03522 1.64661 0
M  V30 2467 O 240.282 0.0650683 1.95592 0
M  V30 2468 C 240.581 3.41801 1.04437 0
M  V30 2469 C 240.247 4.50897 0.0159671 0
M  V30 2470 C 238.909 4.8046 -0.266731 0
M  V30 2471 C 241.261 5.16703 -0.683192 0
M  V30 2472 C 238.589 5.73135 -1.25434 0
M  V30 2473 C 240.941 6.10441 -1.65964 0
M  V30 2474 C 239.605 6.38382 -1.95 0
M  V30 2475 H 238.875 0.718048 0.182997 0
M  V30 2476 H 241.522 1.90019 -0.237724 0
M  V30 2477 H 239.827 3.44857 1.85959 0
M  V30 2478 H 241.524 3.69573 1.55618 0
M  V30 2479 H 238.114 4.27891 0.246485 0
M  V30 2480 H 242.298 4.93993 -0.477983 0
M  V30 2481 H 237.554 5.93074 -1.48571 0
M  V30 2482 H 241.728 6.60507 -2.20689 0
M  V30 2483 H 239.355 7.09996 -2.71679 0
M  V30 2484 N 240.93 -0.123565 1.57115 0
M  V30 2485 C 242.155 -0.850398 1.89164 0
M  V30 2486 C 242.58 -1.7286 0.741688 0
M  V30 2487 O 241.938 -1.78665 -0.307958 0
M  V30 2488 C 241.986 -1.66353 3.19936 0
M  V30 2489 O 241.09 -2.77004 3.0552 0
M  V30 2490 H 240.431 -0.235454 0.620852 0
M  V30 2491 H 242.961 -0.107335 2.04318 0
M  V30 2492 H 242.971 -2.05372 3.52543 0
M  V30 2493 H 241.646 -1.01881 4.03228 0
M  V30 2494 H 240.223 -2.41221 2.84371 0
M  V30 2495 N 242.408 -1.52605 -0.393616 0
M  V30 2496 C 243.636 -1.71294 -1.16043 0
M  V30 2497 C 244.051 -0.429259 -1.83855 0
M  V30 2498 O 243.408 0.595921 -1.72496 0
M  V30 2499 C 243.459 -2.8593 -2.21193 0
M  V30 2500 O 243.18 -4.09329 -1.56146 0
M  V30 2501 C 244.681 -3.16259 -3.10636 0
M  V30 2502 H 241.901 -0.573641 -0.348104 0
M  V30 2503 H 244.445 -1.99234 -0.461092 0
M  V30 2504 H 242.6 -2.60465 -2.86769 0
M  V30 2505 H 243.014 -4.73323 -2.25978 0
M  V30 2506 H 244.488 -3.99946 -3.80456 0
M  V30 2507 H 244.965 -2.3045 -3.73884 0
M  V30 2508 H 245.571 -3.43547 -2.50711 0
M  V30 2509 N 243.887 0.651787 -1.4349 0
M  V30 2510 C 244.817 1.77621 -1.51569 0
M  V30 2511 C 245.798 1.66022 -0.370253 0
M  V30 2512 O 246.983 1.85095 -0.587658 0
M  V30 2513 C 244.113 3.16056 -1.43966 0
M  V30 2514 C 243.067 3.4242 -2.56774 0
M  V30 2515 C 242.393 4.8067 -2.34223 0
M  V30 2516 C 243.693 3.37023 -3.99015 0
M  V30 2517 H 245.387 1.71117 -2.45681 0
M  V30 2518 H 242.933 0.821825 -1.18246 0
M  V30 2519 H 244.886 3.94472 -1.48221 0
M  V30 2520 H 243.61 3.23293 -0.463586 0
M  V30 2521 H 242.269 2.66375 -2.51873 0
M  V30 2522 H 241.917 4.84585 -1.34856 0
M  V30 2523 H 241.617 4.9927 -3.09844 0
M  V30 2524 H 243.141 5.61342 -2.40265 0
M  V30 2525 H 244.555 4.05374 -4.05395 0
M  V30 2526 H 242.952 3.67159 -4.74673 0
M  V30 2527 H 244.022 2.3518 -4.2405 0
M  V30 2528 N 245.365 1.30045 0.890287 0
M  V30 2529 C 246.776 1.16738 1.45702 0
M  V30 2530 C 247.127 -0.233939 1.948 0
M  V30 2531 O 246.252 -1.13021 1.84541 0
M  V30 2532 C 246.847 2.11313 2.64825 0
M  V30 2533 C 245.406 2.02001 3.17604 0
M  V30 2534 C 244.553 2.01699 1.90296 0
M  V30 2535 H 247.504 1.42392 0.700726 0
M  V30 2536 H 247.525 1.69086 3.40867 0
M  V30 2537 H 247.037 3.13294 2.2906 0
M  V30 2538 H 245.138 1.03142 3.5804 0
M  V30 2539 H 245.251 2.90128 3.81264 0
M  V30 2540 H 243.615 1.46427 2.08402 0
M  V30 2541 H 244.398 3.05402 1.56795 0
M  V30 2542 N 246.843 -1.10192 1.12674 0
M  V30 2543 C 248.089 -1.82475 0.884915 0
M  V30 2544 C 248.422 -1.85093 -0.58773 0
M  V30 2545 O 247.697 -1.3134 -1.43457 0
M  V30 2546 C 247.98 -3.29018 1.46353 0
M  V30 2547 C 247.833 -3.34718 3.00473 0
M  V30 2548 C 249.152 -4.25473 1.12519 0
M  V30 2549 H 246.271 -0.662492 0.322915 0
M  V30 2550 H 248.913 -1.2913 1.39375 0
M  V30 2551 H 247.063 -3.74576 1.03077 0
M  V30 2552 H 248.735 -2.97622 3.52447 0
M  V30 2553 H 246.978 -2.74541 3.35872 0
M  V30 2554 H 247.649 -4.37918 3.36053 0
M  V30 2555 H 250.125 -3.88161 1.499 0
M  V30 2556 H 249.001 -5.26365 1.55663 0
M  V30 2557 H 249.262 -4.42084 0.0377407 0
M  V30 2558 N 248.321 -0.919034 -1.28029 0
M  V30 2559 C 249.737 -0.617972 -1.4715 0
M  V30 2560 C 249.937 0.835242 -1.83374 0
M  V30 2561 O 248.993 1.61388 -1.94191 0
M  V30 2562 C 250.306 -1.56041 -2.57044 0
M  V30 2563 C 251.854 -1.56769 -2.7091 0
M  V30 2564 C 252.329 -2.49688 -3.83953 0
M  V30 2565 N 253.82 -2.47845 -3.91314 0
M  V30 2566 C 254.555 -3.16437 -4.78179 0
M  V30 2567 N 254.051 -3.94376 -5.69596 0
M  V30 2568 N 255.844 -3.05498 -4.71834 0
M  V30 2569 H 247.995 -1.85866 -1.02798 0
M  V30 2570 H 250.258 -0.797506 -0.512531 0
M  V30 2571 H 249.964 -2.59671 -2.372 0
M  V30 2572 H 249.838 -1.29551 -3.54255 0
M  V30 2573 H 252.225 -0.538745 -2.90141 0
M  V30 2574 H 252.306 -1.87305 -1.74214 0
M  V30 2575 H 251.95 -3.52688 -3.65477 0
M  V30 2576 H 251.88 -2.16453 -4.80058 0
M  V30 2577 H 254.371 -1.91234 -3.25941 0
M  V30 2578 H 254.684 -4.43721 -6.32718 0
M  V30 2579 H 253.029 -3.98481 -5.69419 0
M  V30 2580 H 256.22 -2.44108 -3.99411 0
M  V30 2581 H 256.393 -3.59225 -5.39316 0
M  V30 2582 N 249.799 1.42003 -0.683588 0
M  V30 2583 C 250.749 2.27997 0.0121992 0
M  V30 2584 C 251.733 1.4156 0.764822 0
M  V30 2585 O 252.925 1.64935 0.642287 0
M  V30 2586 C 250.054 3.29706 0.956482 0
M  V30 2587 C 249.14 4.23625 0.200739 0
M  V30 2588 N 249.531 4.99448 -0.799087 0
M  V30 2589 C 247.829 4.43845 0.437937 0
M  V30 2590 C 248.53 5.68102 -1.25041 0
M  V30 2591 N 247.506 5.40511 -0.578648 0
M  V30 2592 H 251.308 2.84048 -0.754564 0
M  V30 2593 H 248.822 1.54071 -0.513398 0
M  V30 2594 H 250.819 3.90124 1.47 0
M  V30 2595 H 249.479 2.75216 1.72297 0
M  V30 2596 H 250.49 5.04303 -1.17893 0
M  V30 2597 H 247.167 4.00382 1.18325 0
M  V30 2598 H 248.557 6.38913 -2.07942 0
M  V30 2599 N 251.277 0.427512 1.51691 0
M  V30 2600 C 252.224 -0.388867 2.275 0
M  V30 2601 C 253.194 -1.02532 1.30677 0
M  V30 2602 O 254.379 -1.0461 1.59566 0
M  V30 2603 C 251.519 -1.48954 3.11298 0
M  V30 2604 C 250.632 -0.872194 4.23104 0
M  V30 2605 C 249.767 -1.94709 4.94228 0
M  V30 2606 C 248.806 -1.30766 5.97969 0
M  V30 2607 N 247.943 -2.32349 6.62539 0
M  V30 2608 H 252.783 0.263997 2.96828 0
M  V30 2609 H 250.32 0.142033 1.46413 0
M  V30 2610 H 252.278 -2.13887 3.58201 0
M  V30 2611 H 250.908 -2.11217 2.44105 0
M  V30 2612 H 249.96 -0.111419 3.80237 0
M  V30 2613 H 251.272 -0.365264 4.97461 0
M  V30 2614 H 250.426 -2.67327 5.44629 0
M  V30 2615 H 249.165 -2.48773 4.1948 0
M  V30 2616 H 248.17 -0.566902 5.4687 0
M  V30 2617 H 249.395 -0.774483 6.74669 0
M  V30 2618 H 247.341 -2.85511 5.90609 0
M  V30 2619 H 247.258 -1.8652 7.3263 0
M  V30 2620 H 248.526 -3.04481 7.17574 0
M  V30 2621 N 252.755 -1.56801 0.158532 0
M  V30 2622 C 253.665 -2.20916 -0.789518 0
M  V30 2623 C 254.681 -1.1969 -1.26294 0
M  V30 2624 O 255.857 -1.52308 -1.31773 0
M  V30 2625 C 252.922 -2.82727 -2.00665 0
M  V30 2626 C 251.983 -3.99114 -1.58134 0
M  V30 2627 C 251.216 -4.57968 -2.74045 0
M  V30 2628 O 251.439 -4.15704 -3.90572 0
M  V30 2629 O 250.373 -5.48047 -2.48855 0
M  V30 2630 H 254.199 -3.02464 -0.273681 0
M  V30 2631 H 251.784 -1.4924 -0.0690548 0
M  V30 2632 H 253.666 -3.21968 -2.71872 0
M  V30 2633 H 252.341 -2.04184 -2.51179 0
M  V30 2634 H 251.248 -3.64567 -0.839155 0
M  V30 2635 H 252.581 -4.79212 -1.12325 0
M  V30 2636 N 254.233 0.115231 -1.57178 0
M  V30 2637 C 255.48 0.822351 -1.8505 0
M  V30 2638 C 255.808 1.79701 -0.744168 0
M  V30 2639 O 255.063 1.93909 0.26414 0
M  V30 2640 C 255.362 1.60324 -3.19423 0
M  V30 2641 C 255.028 0.772536 -4.44233 0
M  V30 2642 C 253.69 0.543468 -4.78121 0
M  V30 2643 C 256.042 0.193746 -5.2084 0
M  V30 2644 C 253.37 -0.274583 -5.86057 0
M  V30 2645 C 255.722 -0.611517 -6.29637 0
M  V30 2646 C 254.386 -0.850867 -6.62055 0
M  V30 2647 H 253.656 0.30092 -0.677147 0
M  V30 2648 H 256.303 0.0845802 -1.91313 0
M  V30 2649 H 254.608 2.41203 -3.08753 0
M  V30 2650 H 256.305 2.1544 -3.38211 0
M  V30 2651 H 252.895 0.96117 -4.17683 0
M  V30 2652 H 257.079 0.357926 -4.95008 0
M  V30 2653 H 252.335 -0.469206 -6.09597 0
M  V30 2654 H 256.509 -1.06697 -6.88178 0
M  V30 2655 H 254.136 -1.48657 -7.45523 0
M  V30 2656 N 255.711 1.52812 0.385517 0
M  V30 2657 C 256.643 1.74096 1.49074 0
M  V30 2658 C 257.656 0.621462 1.50472 0
M  V30 2659 O 258.845 0.897245 1.54311 0
M  V30 2660 C 255.945 1.78774 2.87911 0
M  V30 2661 C 255.118 3.08134 3.10439 0
M  V30 2662 C 254.177 3.04313 4.29278 0
M  V30 2663 O 253.203 3.78168 4.25415 0
M  V30 2664 N 254.405 2.23741 5.35649 0
M  V30 2665 H 257.17 2.69455 1.31202 0
M  V30 2666 H 254.731 1.51343 0.575065 0
M  V30 2667 H 256.723 1.73721 3.65518 0
M  V30 2668 H 255.293 0.907869 2.99126 0
M  V30 2669 H 254.513 3.26649 2.20667 0
M  V30 2670 H 255.801 3.93662 3.22347 0
M  V30 2671 H 255.199 1.63211 5.41645 0
M  V30 2672 H 253.756 2.24524 6.11909 0
M  V30 2673 N 257.189 -0.644168 1.43834 0
M  V30 2674 C 258.605 -0.960875 1.27434 0
M  V30 2675 C 258.805 -2.00499 0.200618 0
M  V30 2676 O 257.861 -2.49018 -0.417906 0
M  V30 2677 C 259.174 -1.43653 2.64167 0
M  V30 2678 C 260.722 -1.55271 2.71772 0
M  V30 2679 C 261.197 -2.06224 4.08944 0
M  V30 2680 N 262.688 -2.13513 4.11055 0
M  V30 2681 C 263.423 -2.54081 5.14033 0
M  V30 2682 N 262.919 -2.9388 6.27381 0
M  V30 2683 N 264.712 -2.54101 5.01387 0
M  V30 2684 H 256.863 0.0465779 2.12349 0
M  V30 2685 H 259.126 -0.0417638 0.94708 0
M  V30 2686 H 258.832 -0.743706 3.43747 0
M  V30 2687 H 258.706 -2.40993 2.90176 0
M  V30 2688 H 261.093 -2.23653 1.92519 0
M  V30 2689 H 261.174 -0.563395 2.49519 0
M  V30 2690 H 260.818 -1.38441 4.88668 0
M  V30 2691 H 260.748 -3.06003 4.28567 0
M  V30 2692 H 263.239 -1.85493 3.29242 0
M  V30 2693 H 263.552 -3.2361 7.01781 0
M  V30 2694 H 261.897 -2.91663 6.30839 0
M  V30 2695 H 265.088 -2.22391 4.11898 0
M  V30 2696 H 265.261 -2.85394 5.81768 0
M  V30 2697 N 258.668 -1.30515 -0.883378 0
M  V30 2698 C 259.616 -1.16941 -2.01066 0
M  V30 2699 C 260.61 -0.0809148 -1.69207 0
M  V30 2700 O 261.816 -0.241877 -1.78367 0
M  V30 2701 H 258.191 -0.361705 -0.659298 0
M  V30 2702 H 260.162 -2.12344 -2.09649 0
M  V30 2703 C 258.911 -0.879694 -3.36388 0
M  V30 2704 H 258.234 -1.70936 -3.61415 0
M  V30 2705 H 259.674 -0.82483 -4.159 0
M  V30 2706 C 258.133 0.417409 -3.34304 0
M  V30 2707 O 258.663 1.43843 -3.75063 0
M  V30 2708 N 256.869 0.429141 -2.87414 0
M  V30 2709 H 256.416 -0.402222 -2.5444 0
M  V30 2710 H 256.374 1.29696 -2.86403 0
M  V30 2711 N 260.146 1.09593 -1.13257 0
M  V30 2712 C 261.395 1.81105 -0.887917 0
M  V30 2713 C 261.708 1.86563 0.587672 0
M  V30 2714 O 262.914 2.54367 0.949204 0
M  V30 2715 C 261.37 3.25338 -1.53895 0
M  V30 2716 C 260.978 3.28151 -3.04994 0
M  V30 2717 C 262.722 4.01617 -1.37492 0
M  V30 2718 C 260.629 4.66897 -3.6299 0
M  V30 2719 H 259.559 0.678661 -0.328534 0
M  V30 2720 H 262.21 1.23183 -1.36008 0
M  V30 2721 H 260.592 3.8331 -0.994446 0
M  V30 2722 H 261.766 2.79953 -3.66009 0
M  V30 2723 H 260.081 2.65361 -3.20893 0
M  V30 2724 H 262.678 5.04119 -1.78235 0
M  V30 2725 H 263.021 4.15072 -0.31957 0
M  V30 2726 H 263.554 3.50082 -1.88912 0
M  V30 2727 H 260.293 4.58643 -4.68323 0
M  V30 2728 H 259.813 5.15426 -3.06752 0
M  V30 2729 H 261.492 5.3587 -3.62563 0
M  V30 2730 N 261.624 0.925811 1.2754 0
M  V30 2731 C 262.571 0.422045 2.26908 0
M  V30 2732 C 263.541 -0.510029 1.58076 0
M  V30 2733 O 264.726 -0.429599 1.85901 0
M  V30 2734 C 261.866 -0.320837 3.43605 0
M  V30 2735 C 260.979 0.64513 4.27156 0
M  V30 2736 C 260.114 -0.117405 5.3107 0
M  V30 2737 C 259.153 0.841391 6.0629 0
M  V30 2738 N 258.29 0.111604 7.02011 0
M  V30 2739 H 263.13 1.27441 2.69375 0
M  V30 2740 H 260.667 0.639697 1.32462 0
M  V30 2741 H 262.625 -0.76785 4.10073 0
M  V30 2742 H 261.255 -1.13745 3.02096 0
M  V30 2743 H 260.307 1.21067 3.6062 0
M  V30 2744 H 261.619 1.37797 4.79389 0
M  V30 2745 H 260.773 -0.624422 6.03478 0
M  V30 2746 H 259.512 -0.883219 4.79636 0
M  V30 2747 H 258.517 1.35967 5.32722 0
M  V30 2748 H 259.742 1.60696 6.59813 0
M  V30 2749 H 257.688 -0.635999 6.5291 0
M  V30 2750 H 257.605 0.784044 7.51923 0
M  V30 2751 H 258.873 -0.374823 7.78598 0
M  V30 2752 N 263.102 -1.41638 0.69111 0
M  V30 2753 C 264.049 -2.30789 0.0229705 0
M  V30 2754 C 265.019 -1.46863 -0.775911 0
M  V30 2755 O 266.204 -1.75661 -0.74485 0
M  V30 2756 C 263.344 -3.32868 -0.910666 0
M  V30 2757 C 262.457 -4.31875 -0.103874 0
M  V30 2758 C 261.592 -5.21024 -1.03475 0
M  V30 2759 C 260.631 -6.11702 -0.220598 0
M  V30 2760 N 259.768 -6.93349 -1.10504 0
M  V30 2761 H 264.608 -2.87366 0.788978 0
M  V30 2762 H 262.145 -1.41535 0.400794 0
M  V30 2763 H 264.103 -3.90596 -1.46597 0
M  V30 2764 H 262.733 -2.77851 -1.64312 0
M  V30 2765 H 261.785 -3.76131 0.568285 0
M  V30 2766 H 263.097 -4.96003 0.527504 0
M  V30 2767 H 262.251 -5.83565 -1.65943 0
M  V30 2768 H 260.99 -4.57112 -1.69999 0
M  V30 2769 H 259.995 -5.48215 0.417187 0
M  V30 2770 H 261.22 -6.77668 0.440784 0
M  V30 2771 H 259.166 -6.3205 -1.75638 0
M  V30 2772 H 259.083 -7.54146 -0.529125 0
M  V30 2773 H 260.351 -7.60362 -1.71667 0
M  V30 2774 N 264.58 -0.43555 -1.51462 0
M  V30 2775 C 265.49 0.383001 -2.31453 0
M  V30 2776 C 266.506 1.02931 -1.4029 0
M  V30 2777 O 267.682 1.02507 -1.73362 0
M  V30 2778 C 264.747 1.47043 -3.13973 0
M  V30 2779 C 263.808 0.844433 -4.20913 0
M  V30 2780 C 263.041 1.88004 -4.9949 0
M  V30 2781 O 263.264 3.10199 -4.78678 0
M  V30 2782 O 262.198 1.47157 -5.83634 0
M  V30 2783 H 266.024 -0.269964 -3.02498 0
M  V30 2784 H 263.609 -0.19813 -1.4808 0
M  V30 2785 H 265.491 2.10113 -3.65281 0
M  V30 2786 H 264.166 2.10751 -2.45695 0
M  V30 2787 H 263.073 0.175729 -3.73687 0
M  V30 2788 H 264.406 0.250869 -4.9156 0
M  V30 2789 N 266.058 1.56714 -0.166846 0
M  V30 2790 C 267.288 2.00828 0.48494 0
M  V30 2791 C 267.696 1.04612 1.57648 0
M  V30 2792 O 267.039 0.0383201 1.8366 0
M  V30 2793 C 267.101 3.4137 1.12723 0
M  V30 2794 C 266.765 4.56654 0.177886 0
M  V30 2795 C 267.762 5.16402 -0.60207 0
M  V30 2796 C 265.447 5.02244 0.0750139 0
M  V30 2797 C 267.441 6.20167 -1.47215 0
M  V30 2798 C 265.128 6.05859 -0.798649 0
M  V30 2799 C 266.126 6.64691 -1.57082 0
M  V30 2800 O 265.814 7.66297 -2.42989 0
M  V30 2801 H 265.546 0.663587 0.128953 0
M  V30 2802 H 268.1 2.03692 -0.264365 0
M  V30 2803 H 266.33 3.35406 1.92457 0
M  V30 2804 H 268.019 3.69466 1.68076 0
M  V30 2805 H 268.785 4.82065 -0.53274 0
M  V30 2806 H 264.664 4.56167 0.665812 0
M  V30 2807 H 268.208 6.66016 -2.07531 0
M  V30 2808 H 264.105 6.39621 -0.869199 0
M  V30 2809 H 264.873 7.83601 -2.36455 0
M  V30 2810 N 267.536 -0.106894 1.57237 0
M  V30 2811 C 268.499 -1.11466 2.0027 0
M  V30 2812 C 269.499 -1.33623 0.894519 0
M  V30 2813 O 270.689 -1.29935 1.16028 0
M  V30 2814 C 267.821 -2.46646 2.35327 0
M  V30 2815 H 269.014 -0.744516 2.90512 0
M  V30 2816 H 266.567 -0.351576 1.52295 0
M  V30 2817 H 267.302 -2.88558 1.48003 0
M  V30 2818 H 267.087 -2.31915 3.16161 0
M  V30 2819 H 268.577 -3.19151 2.69318 0
M  V30 2820 N 269.014 -1.53014 -0.377408 0
M  V30 2821 C 269.961 -1.78616 -1.46168 0
M  V30 2822 C 270.931 -0.629917 -1.53692 0
M  V30 2823 O 272.116 -0.870861 -1.69766 0
M  V30 2824 C 269.256 -1.97123 -2.8326 0
M  V30 2825 C 268.369 -3.24831 -2.84796 0
M  V30 2826 C 267.504 -3.33591 -4.13389 0
M  V30 2827 C 266.543 -4.55377 -4.09021 0
M  V30 2828 N 265.68 -4.61355 -5.29241 0
M  V30 2829 H 270.52 -2.71142 -1.23637 0
M  V30 2830 H 268.057 -1.34326 -0.599577 0
M  V30 2831 H 270.015 -2.05839 -3.62886 0
M  V30 2832 H 268.645 -1.07946 -3.04216 0
M  V30 2833 H 267.697 -3.25128 -1.97474 0
M  V30 2834 H 269.009 -4.14523 -2.77439 0
M  V30 2835 H 268.163 -3.41554 -5.01424 0
M  V30 2836 H 266.902 -2.41894 -4.23484 0
M  V30 2837 H 265.907 -4.47527 -3.19373 0
M  V30 2838 H 267.132 -5.48402 -4.00539 0
M  V30 2839 H 265.078 -3.72554 -5.39944 0
M  V30 2840 H 264.995 -5.44935 -5.24006 0
M  V30 2841 H 266.263 -4.73586 -6.19141 0
M  V30 2842 N 270.492 0.636531 -1.44174 0
M  V30 2843 C 271.425 1.76139 -1.45087 0
M  V30 2844 C 272.403 1.59611 -0.310326 0
M  V30 2845 O 273.587 1.81568 -0.506477 0
M  V30 2846 C 270.714 3.13648 -1.27839 0
M  V30 2847 C 269.76 3.48838 -2.45386 0
M  V30 2848 S 270.593 3.46927 -4.07924 0
M  V30 2849 C 271.749 4.87064 -3.9309 0
M  V30 2850 H 271.982 1.75096 -2.40268 0
M  V30 2851 H 269.515 0.810666 -1.31406 0
M  V30 2852 H 271.473 3.93002 -1.18575 0
M  V30 2853 H 270.134 3.12235 -0.341787 0
M  V30 2854 H 269.327 4.48886 -2.29167 0
M  V30 2855 H 268.929 2.76935 -2.51362 0
M  V30 2856 H 271.221 5.76153 -3.56446 0
M  V30 2857 H 272.164 5.08337 -4.92949 0
M  V30 2858 H 272.572 4.61384 -3.25246 0
M  V30 2859 N 271.97 1.30982 0.876444 0
M  V30 2860 C 273.216 1.20474 1.63138 0
M  V30 2861 C 273.549 -0.238096 1.92735 0
M  V30 2862 O 272.824 -1.1692 1.55435 0
M  V30 2863 C 273.107 2.04244 2.96574 0
M  V30 2864 C 272.96 3.56793 2.73896 0
M  V30 2865 C 274.279 1.88684 3.97601 0
M  V30 2866 H 271.398 0.439001 0.591985 0
M  V30 2867 H 274.04 1.60704 1.01361 0
M  V30 2868 H 272.19 1.70063 3.493 0
M  V30 2869 H 273.862 4.01077 2.27892 0
M  V30 2870 H 272.105 3.80548 2.08245 0
M  V30 2871 H 272.776 4.10706 3.68815 0
M  V30 2872 H 275.252 2.18584 3.54062 0
M  V30 2873 H 274.128 2.4961 4.88862 0
M  V30 2874 H 274.389 0.848343 4.33884 0
M  V30 2875 N 273.449 -1.08991 1.13837 0
M  V30 2876 C 274.381 -2.15606 0.777612 0
M  V30 2877 C 275.394 -1.61533 -0.202739 0
M  V30 2878 O 276.583 -1.78491 0.0181055 0
M  V30 2879 C 273.683 -3.3864 0.132623 0
M  V30 2880 C 272.856 -4.22115 1.1462 0
M  V30 2881 C 271.915 -5.23564 0.526074 0
M  V30 2882 O 270.941 -5.56678 1.18735 0
M  V30 2883 N 272.143 -5.76266 -0.699866 0
M  V30 2884 H 274.908 -2.47159 1.69506 0
M  V30 2885 H 272.469 -1.24747 1.03198 0
M  V30 2886 H 274.461 -4.03626 -0.29459 0
M  V30 2887 H 273.031 -3.04938 -0.687849 0
M  V30 2888 H 272.251 -3.53199 1.75055 0
M  V30 2889 H 273.539 -4.74709 1.83109 0
M  V30 2890 H 272.937 -5.51585 -1.25581 0
M  V30 2891 H 271.494 -6.42963 -1.06968 0
M  V30 2892 N 274.927 -0.932562 -1.27047 0
M  V30 2893 C 276.173 -0.576412 -1.94436 0
M  V30 2894 C 276.506 0.880891 -1.73072 0
M  V30 2895 O 275.781 1.62905 -1.06264 0
M  V30 2896 C 276.064 -0.909031 -3.48437 0
M  V30 2897 C 275.917 -2.42044 -3.79123 0
M  V30 2898 C 277.236 -0.418341 -4.38107 0
M  V30 2899 H 274.355 -0.210888 -0.706184 0
M  V30 2900 H 276.997 -1.16522 -1.50075 0
M  V30 2901 H 275.147 -0.407947 -3.86352 0
M  V30 2902 H 276.819 -2.99359 -3.50973 0
M  V30 2903 H 275.062 -2.86758 -3.25503 0
M  V30 2904 H 275.733 -2.6037 -4.86736 0
M  V30 2905 H 278.209 -0.847856 -4.0737 0
M  V30 2906 H 277.085 -0.679981 -5.44672 0
M  V30 2907 H 277.346 0.681642 -4.36814 0
M  V30 2908 N 276.405 1.4127 -0.698611 0
M  V30 2909 C 277.335 2.33447 -0.049629 0
M  V30 2910 C 278.316 1.51982 0.763898 0
M  V30 2911 O 279.501 1.80509 0.716257 0
M  V30 2912 C 276.631 3.35828 0.885267 0
M  V30 2913 C 275.585 4.27627 0.178613 0
M  V30 2914 C 274.911 5.20406 1.22807 0
M  V30 2915 C 276.211 5.13459 -0.956933 0
M  V30 2916 H 277.905 2.87966 -0.81951 0
M  V30 2917 H 275.451 1.38461 -0.395538 0
M  V30 2918 H 277.404 3.9924 1.34854 0
M  V30 2919 H 276.128 2.79666 1.68685 0
M  V30 2920 H 274.787 3.65643 -0.26466 0
M  V30 2921 H 274.435 4.60558 2.02226 0
M  V30 2922 H 274.135 5.82661 0.760239 0
M  V30 2923 H 275.659 5.86695 1.69179 0
M  V30 2924 H 277.073 5.70421 -0.573805 0
M  V30 2925 H 275.47 5.8467 -1.35205 0
M  V30 2926 H 276.54 4.50443 -1.79524 0
M  V30 2927 N 277.883 0.443576 1.51229 0
M  V30 2928 C 278.833 -0.382787 2.24764 0
M  V30 2929 C 279.817 -0.984836 1.27239 0
M  V30 2930 O 281.009 -0.901943 1.52296 0
M  V30 2931 C 278.138 -1.47989 3.09765 0
M  V30 2932 C 277.224 -0.886931 4.14722 0
M  V30 2933 N 277.615 -0.0237103 5.05794 0
M  V30 2934 C 275.913 -1.15385 4.30816 0
M  V30 2935 C 276.614 0.309971 5.80874 0
M  V30 2936 N 275.59 -0.307989 5.42727 0
M  V30 2937 H 279.392 0.282624 2.92538 0
M  V30 2938 H 276.906 0.256027 1.60369 0
M  V30 2939 H 278.903 -2.08482 3.61027 0
M  V30 2940 H 277.563 -2.14758 2.43535 0
M  V30 2941 H 278.574 0.34318 5.16762 0
M  V30 2942 H 275.251 -1.81857 3.75812 0
M  V30 2943 H 276.641 1.01279 6.64223 0
M  V30 2944 N 279.361 -1.56624 0.175154 0
M  V30 2945 C 280.324 -2.16934 -0.739738 0
M  V30 2946 C 281.324 -1.11842 -1.15533 0
M  V30 2947 O 282.514 -1.37335 -1.07167 0
M  V30 2948 C 279.646 -2.75531 -2.00738 0
M  V30 2949 H 280.839 -2.99131 -0.214639 0
M  V30 2950 H 278.392 -1.56123 -0.0744197 0
M  V30 2951 H 279.127 -1.97078 -2.57548 0
M  V30 2952 H 278.912 -3.52444 -1.71831 0
M  V30 2953 H 280.402 -3.21904 -2.66021 0
M  V30 2954 N 280.839 0.0985539 -1.57292 0
M  V30 2955 C 282.069 0.815135 -1.8984 0
M  V30 2956 C 282.477 1.7297 -0.766679 0
M  V30 2957 O 281.82 1.81698 0.270483 0
M  V30 2958 C 281.882 1.6842 -3.17608 0
M  V30 2959 C 281.546 0.94182 -4.4719 0
M  V30 2960 C 282.543 0.273212 -5.19182 0
M  V30 2961 C 280.228 0.916927 -4.9386 0
M  V30 2962 C 282.222 -0.410361 -6.36078 0
M  V30 2963 C 279.909 0.229567 -6.10669 0
M  V30 2964 C 280.907 -0.432902 -6.81627 0
M  V30 2965 O 280.595 -1.10925 -7.9621 0
M  V30 2966 H 280.327 0.238501 -0.632529 0
M  V30 2967 H 282.881 0.0812659 -2.05239 0
M  V30 2968 H 281.111 2.46022 -2.98345 0
M  V30 2969 H 282.8 2.27704 -3.36015 0
M  V30 2970 H 283.566 0.283927 -4.84168 0
M  V30 2971 H 279.445 1.42201 -4.3852 0
M  V30 2972 H 282.989 -0.928013 -6.914 0
M  V30 2973 H 278.886 0.216686 -6.45136 0
M  V30 2974 H 279.654 -1.01579 -8.12172 0
M  V30 2975 N 282.317 1.53212 0.369288 0
M  V30 2976 C 283.557 1.70915 1.12105 0
M  V30 2977 C 283.921 0.449444 1.86665 0
M  V30 2978 O 285.122 0.503105 2.6405 0
M  V30 2979 C 283.393 2.9222 2.05772 0
M  V30 2980 S 284.952 3.30609 2.88519 0
M  V30 2981 H 281.77 0.601445 0.379189 0
M  V30 2982 H 284.372 1.91306 0.402794 0
M  V30 2983 H 283.076 3.82103 1.49752 0
M  V30 2984 H 282.607 2.7422 2.82076 0
M  V30 2985 H 284.622 2.82333 4.08047 0
M  V30 2986 N 283.795 -0.628877 1.44509 0
M  V30 2987 C 285.044 -1.38437 1.4669 0
M  V30 2988 C 285.357 -1.95322 0.104272 0
M  V30 2989 O 286.563 -2.715 0.00362163 0
M  V30 2990 C 285.019 -2.50659 2.5826 0
M  V30 2991 C 284.627 -2.00277 4.0074 0
M  V30 2992 C 286.371 -3.27844 2.69664 0
M  V30 2993 C 284.278 -3.09854 5.0373 0
M  V30 2994 H 283.208 -0.520245 0.545766 0
M  V30 2995 H 285.859 -0.676313 1.70582 0
M  V30 2996 H 284.241 -3.2405 2.27612 0
M  V30 2997 H 285.415 -1.33736 4.40966 0
M  V30 2998 H 283.73 -1.35901 3.93599 0
M  V30 2999 H 286.327 -4.09534 3.43781 0
M  V30 3000 H 286.67 -3.77471 1.75559 0
M  V30 3001 H 287.203 -2.61543 2.99733 0
M  V30 3002 H 283.942 -2.65168 5.99472 0
M  V30 3003 H 283.462 -3.7503 4.68095 0
M  V30 3004 H 285.141 -3.74592 5.27532 0
M  V30 3005 N 285.273 -1.31445 -0.869486 0
M  V30 3006 C 286.522 -1.20517 -1.61736 0
M  V30 3007 C 286.835 0.235341 -1.94179 0
M  V30 3008 O 288.041 0.466312 -2.67465 0
M  V30 3009 C 286.497 -2.10982 -2.91573 0
M  V30 3010 C 286.105 -3.60032 -2.66611 0
M  V30 3011 C 287.849 -2.08856 -3.69567 0
M  V30 3012 C 285.756 -4.42503 -3.92358 0
M  V30 3013 H 284.686 -0.447493 -0.606849 0
M  V30 3014 H 287.337 -1.56303 -0.96133 0
M  V30 3015 H 285.719 -1.68095 -3.58553 0
M  V30 3016 H 286.893 -4.11167 -2.08035 0
M  V30 3017 H 285.208 -3.64139 -2.0197 0
M  V30 3018 H 287.805 -2.67716 -4.62852 0
M  V30 3019 H 288.148 -1.07582 -4.02159 0
M  V30 3020 H 288.681 -2.49945 -3.09471 0
M  V30 3021 H 285.42 -5.44533 -3.64916 0
M  V30 3022 H 284.94 -3.96125 -4.50383 0
M  V30 3023 H 286.619 -4.54741 -4.60238 0
M  V30 3024 N 286.751 1.08385 -1.14413 0
M  V30 3025 C 287.976 1.85057 -0.936413 0
M  V30 3026 C 288.401 1.81055 0.509971 0
M  V30 3027 O 287.759 1.1958 1.36273 0
M  V30 3028 C 287.807 3.30505 -1.44217 0
M  V30 3029 O 286.911 4.07491 -0.634409 0
M  V30 3030 H 286.252 0.573425 -0.334784 0
M  V30 3031 H 288.782 1.36799 -1.52142 0
M  V30 3032 H 288.792 3.81348 -1.45043 0
M  V30 3033 H 287.467 3.32734 -2.49522 0
M  V30 3034 H 286.044 3.66368 -0.694902 0
M  V30 3035 N 288.23 0.939286 1.26551 0
M  V30 3036 C 289.193 0.451987 2.24699 0
M  V30 3037 C 290.193 -0.435869 1.5478 0
M  V30 3038 O 291.383 -0.235314 1.72603 0
M  V30 3039 C 288.515 -0.348801 3.39111 0
M  V30 3040 H 289.708 1.3193 2.69322 0
M  V30 3041 H 287.261 0.721072 1.38673 0
M  V30 3042 H 287.996 -1.23444 2.99887 0
M  V30 3043 H 287.781 0.287945 3.91041 0
M  V30 3044 H 289.271 -0.679726 4.12031 0
M  V30 3045 N 289.708 -1.40897 0.706093 0
M  V30 3046 C 290.956 -2.00657 0.241054 0
M  V30 3047 C 291.277 -1.56241 -1.16678 0
M  V30 3048 O 290.547 -0.79765 -1.78926 0
M  V30 3049 H 289.127 -0.742018 0.0861308 0
M  V30 3050 H 291.789 -1.72372 0.909604 0
M  V30 3051 H 290.885 -3.10958 0.266705 0
M  V30 3052 N 291.186 -0.45159 -1.50991 0
M  V30 3053 C 292.435 0.111653 -2.01391 0
M  V30 3054 C 292.748 1.42529 -1.33959 0
M  V30 3055 O 293.954 2.07232 -1.75405 0
M  V30 3056 C 292.41 0.249514 -3.59034 0
M  V30 3057 C 292.018 -1.05453 -4.35412 0
M  V30 3058 C 293.762 0.765762 -4.17536 0
M  V30 3059 C 291.669 -0.881529 -5.84793 0
M  V30 3060 H 290.599 0.0455022 -0.752626 0
M  V30 3061 H 293.25 -0.583524 -1.73975 0
M  V30 3062 H 291.632 1.00803 -3.82955 0
M  V30 3063 H 292.806 -1.82248 -4.23229 0
M  V30 3064 H 291.121 -1.50039 -3.88429 0
M  V30 3065 H 293.718 0.911913 -5.26866 0
M  V30 3066 H 294.061 1.75201 -3.77638 0
M  V30 3067 H 294.594 0.0651744 -3.97747 0
M  V30 3068 H 291.333 -1.84057 -6.29129 0
M  V30 3069 H 290.853 -0.153625 -5.99603 0
M  V30 3070 H 292.532 -0.540363 -6.4474 0
M  V30 3071 N 292.664 1.56529 -0.183458 0
M  V30 3072 C 294.08 1.58664 0.172554 0
M  V30 3073 C 294.28 1.19925 1.61926 0
M  V30 3074 O 293.336 0.916534 2.35278 0
M  V30 3075 C 294.649 3.00463 -0.119262 0
M  V30 3076 C 296.197 3.12945 -0.0584396 0
M  V30 3077 C 296.672 4.56857 -0.323408 0
M  V30 3078 N 298.163 4.62403 -0.271612 0
M  V30 3079 C 298.898 5.71626 -0.450639 0
M  V30 3080 N 298.394 6.89362 -0.689384 0
M  V30 3081 N 300.187 5.60775 -0.385701 0
M  V30 3082 H 292.338 1.79994 -1.12765 0
M  V30 3083 H 294.601 0.834808 -0.449222 0
M  V30 3084 H 294.307 3.33326 -1.12192 0
M  V30 3085 H 294.181 3.72659 0.583544 0
M  V30 3086 H 296.568 2.79902 0.934805 0
M  V30 3087 H 296.649 2.4316 -0.794144 0
M  V30 3088 H 296.293 4.9061 -1.31392 0
M  V30 3089 H 296.223 5.24816 0.43305 0
M  V30 3090 H 298.714 3.77785 -0.0932256 0
M  V30 3091 H 299.027 7.68489 -0.815113 0
M  V30 3092 H 297.372 6.91196 -0.726142 0
M  V30 3093 H 300.563 4.67674 -0.199687 0
M  V30 3094 H 300.736 6.4584 -0.528646 0
M  V30 3095 N 294.142 -0.090211 1.57342 0
M  V30 3096 C 295.388 -0.793982 1.86611 0
M  V30 3097 C 295.721 -1.78142 0.773252 0
M  V30 3098 O 294.996 -1.93271 -0.218304 0
M  V30 3099 C 295.279 -1.51839 3.26523 0
M  V30 3100 C 295.132 -0.548609 4.46442 0
M  V30 3101 C 296.451 -2.46779 3.64401 0
M  V30 3102 H 293.57 -0.287186 0.678744 0
M  V30 3103 H 296.212 -0.0575076 1.89913 0
M  V30 3104 H 294.362 -2.14617 3.23839 0
M  V30 3105 H 296.034 0.0725513 4.61243 0
M  V30 3106 H 294.277 0.137614 4.33582 0
M  V30 3107 H 294.948 -1.09271 5.41076 0
M  V30 3108 H 297.424 -1.94089 3.68061 0
M  V30 3109 H 296.3 -2.94479 4.63221 0
M  V30 3110 H 296.561 -3.30758 2.93346 0
M  V30 3111 N 295.62 -1.53406 -0.361157 0
M  V30 3112 C 296.845 -1.74024 -1.12829 0
M  V30 3113 C 297.27 -0.470069 -1.82132 0
M  V30 3114 O 296.628 0.57619 -1.719 0
M  V30 3115 C 296.676 -2.90903 -2.13091 0
M  V30 3116 O 295.78 -2.59821 -3.20261 0
M  V30 3117 H 295.121 -0.577804 -0.327168 0
M  V30 3118 H 297.651 -2.00307 -0.41693 0
M  V30 3119 H 297.661 -3.17194 -2.56616 0
M  V30 3120 H 296.336 -3.83034 -1.62042 0
M  V30 3121 H 294.913 -2.44362 -2.81677 0
M  V30 3122 N 297.098 0.621204 -1.44841 0
M  V30 3123 C 298.338 1.39201 -1.49674 0
M  V30 3124 C 298.702 1.91561 -0.129764 0
M  V30 3125 O 299.903 2.68748 -0.0527814 0
M  V30 3126 C 298.174 2.519 -2.53537 0
M  V30 3127 S 299.733 3.39916 -2.77494 0
M  V30 3128 H 296.551 0.474758 -0.529269 0
M  V30 3129 H 299.153 0.718171 -1.81831 0
M  V30 3130 H 297.857 2.11761 -3.51547 0
M  V30 3131 H 297.388 3.241 -2.22986 0
M  V30 3132 H 299.403 4.49646 -2.0984 0
M  V30 3133 N 298.576 1.31904 0.862503 0
M  V30 3134 C 299.804 1.24998 1.64873 0
M  V30 3135 C 300.219 -0.183425 1.87907 0
M  V30 3136 O 299.576 -1.11794 1.44251 0
M  V30 3137 C 299.627 1.99829 3.01248 0
M  V30 3138 O 299.348 3.37575 2.79239 0
M  V30 3139 C 300.849 1.99852 3.95694 0
M  V30 3140 H 298.069 0.431599 0.513773 0
M  V30 3141 H 300.613 1.73901 1.07604 0
M  V30 3142 H 298.768 1.54668 3.55185 0
M  V30 3143 H 299.182 3.75776 3.65914 0
M  V30 3144 H 300.656 2.56709 4.88676 0
M  V30 3145 H 301.133 0.982852 4.28062 0
M  V30 3146 H 301.739 2.44926 3.47694 0
M  V30 3147 N 300.054 -1.07777 1.14986 0
M  V30 3148 C 301.002 -2.16964 0.838406 0
M  V30 3149 C 301.996 -1.68372 -0.186386 0
M  V30 3150 O 303.202 -1.79951 -0.0418465 0
M  V30 3151 H 299.577 -0.708006 0.253439 0
M  V30 3152 H 301.548 -2.40454 1.76704 0
M  V30 3153 C 300.297 -3.4604 0.339335 0
M  V30 3154 H 299.62 -3.83813 1.11927 0
M  V30 3155 H 301.06 -4.23698 0.160021 0
M  V30 3156 C 299.519 -3.23569 -0.938325 0
M  V30 3157 O 300.049 -3.47752 -2.01077 0
M  V30 3158 N 298.255 -2.77079 -0.876117 0
M  V30 3159 H 297.802 -2.576 -0.00322037 0
M  V30 3160 H 297.76 -2.62422 -1.73153 0
M  V30 3161 N 301.532 -0.945985 -1.26051 0
M  V30 3162 C 302.464 -0.416662 -2.25381 0
M  V30 3163 C 303.477 0.462712 -1.56086 0
M  V30 3164 O 304.666 0.272383 -1.7641 0
M  V30 3165 C 301.766 0.419812 -3.3629 0
M  V30 3166 C 300.939 -0.444531 -4.35135 0
M  V30 3167 C 299.998 0.332305 -5.2515 0
M  V30 3168 O 299.024 -0.266324 -5.68577 0
M  V30 3169 N 300.226 1.62763 -5.57215 0
M  V30 3170 H 302.991 -1.27059 -2.71433 0
M  V30 3171 H 300.552 -0.815392 -1.39868 0
M  V30 3172 H 302.544 0.947013 -3.93464 0
M  V30 3173 H 301.114 1.17456 -2.89694 0
M  V30 3174 H 300.334 -1.15291 -3.76964 0
M  V30 3175 H 301.622 -1.03478 -4.98166 0
M  V30 3176 H 301.02 2.13603 -5.23823 0
M  V30 3177 H 299.577 2.10097 -6.17011 0
M  V30 3178 N 303.011 1.40521 -0.713556 0
M  V30 3179 C 303.941 2.33381 -0.0743864 0
M  V30 3180 C 304.922 1.52784 0.747735 0
M  V30 3181 O 306.107 1.81258 0.697071 0
M  V30 3182 C 303.237 3.36748 0.849598 0
M  V30 3183 C 302.191 4.27793 0.133247 0
M  V30 3184 C 301.517 5.21679 1.17281 0
M  V30 3185 C 302.817 5.12415 -1.01134 0
M  V30 3186 H 304.511 2.87081 -0.850007 0
M  V30 3187 H 302.057 1.38034 -0.410201 0
M  V30 3188 H 304.01 4.00648 1.30612 0
M  V30 3189 H 302.734 2.81439 1.65709 0
M  V30 3190 H 301.393 3.65342 -0.303426 0
M  V30 3191 H 301.041 4.62677 1.9733 0
M  V30 3192 H 300.741 5.83435 0.698397 0
M  V30 3193 H 302.265 5.88456 1.62947 0
M  V30 3194 H 303.679 5.69781 -0.634274 0
M  V30 3195 H 302.076 5.83203 -1.41399 0
M  V30 3196 H 303.146 4.48514 -1.84292 0
M  V30 3197 N 304.489 0.459591 1.5075 0
M  V30 3198 C 305.737 -0.0991532 2.01857 0
M  V30 3199 C 306.058 -1.41247 1.34441 0
M  V30 3200 O 305.328 -1.89775 0.486022 0
M  V30 3201 H 303.908 -0.039633 0.745948 0
M  V30 3202 H 306.57 0.607387 1.85194 0
M  V30 3203 H 305.666 -0.258998 3.11023 0
M  V30 3204 N 305.967 -1.56429 0.191757 0
M  V30 3205 C 306.899 -2.16154 -0.762245 0
M  V30 3206 C 307.912 -1.12247 -1.17917 0
M  V30 3207 O 309.101 -1.39353 -1.11548 0
M  V30 3208 C 306.201 -2.70606 -2.04024 0
M  V30 3209 C 305.374 -3.99381 -1.78364 0
M  V30 3210 C 304.433 -4.38692 -2.90578 0
M  V30 3211 O 303.459 -5.06179 -2.6033 0
M  V30 3212 N 304.661 -4.01922 -4.18854 0
M  V30 3213 H 307.426 -2.98643 -0.251526 0
M  V30 3214 H 304.987 -1.61897 0.00967373 0
M  V30 3215 H 306.979 -2.93891 -2.78227 0
M  V30 3216 H 305.549 -1.9259 -2.46227 0
M  V30 3217 H 304.769 -3.84262 -0.879581 0
M  V30 3218 H 306.057 -4.83445 -1.58614 0
M  V30 3219 H 305.455 -3.47631 -4.46283 0
M  V30 3220 H 304.012 -4.30165 -4.89695 0
M  V30 3221 N 307.445 0.0818655 -1.57387 0
M  V30 3222 C 308.693 0.781368 -1.86384 0
M  V30 3223 C 309.014 1.78618 -0.782342 0
M  V30 3224 O 308.284 1.94976 0.190061 0
M  V30 3225 H 306.864 0.291562 -0.687751 0
M  V30 3226 H 309.526 0.060348 -1.94807 0
M  V30 3227 H 308.622 1.3038 -2.83562 0
M  V30 3228 N 308.923 1.53595 0.353017 0
M  V30 3229 C 309.87 1.80919 1.43308 0
M  V30 3230 C 310.84 0.654288 1.5267 0
M  V30 3231 O 312.025 0.897759 1.6836 0
M  V30 3232 C 309.165 2.01605 2.80089 0
M  V30 3233 C 308.278 3.29321 2.79593 0
M  V30 3234 C 307.413 3.40125 4.0803 0
M  V30 3235 C 306.452 4.61826 4.01725 0
M  V30 3236 N 305.589 4.69716 5.21834 0
M  V30 3237 H 310.429 2.73074 1.19308 0
M  V30 3238 H 307.966 1.35263 0.578131 0
M  V30 3239 H 309.924 2.11586 3.59565 0
M  V30 3240 H 308.554 1.12772 3.0246 0
M  V30 3241 H 307.606 3.28229 1.92276 0
M  V30 3242 H 308.918 4.18884 2.70809 0
M  V30 3243 H 308.072 3.49488 4.95927 0
M  V30 3244 H 306.811 2.48601 4.19582 0
M  V30 3245 H 305.816 4.52552 3.12213 0
M  V30 3246 H 307.041 5.54705 3.91764 0
M  V30 3247 H 304.987 3.81097 5.33948 0
M  V30 3248 H 304.904 5.53202 5.1527 0
M  V30 3249 H 306.172 4.83376 6.11529 0
M  V30 3250 N 310.401 -0.613514 1.45168 0
M  V30 3251 C 311.817 -0.933629 1.29443 0
M  V30 3252 C 312.017 -2.00028 0.243101 0
M  V30 3253 O 311.073 -2.49848 -0.364992 0
M  V30 3254 C 312.386 -1.38018 2.67155 0
M  V30 3255 C 313.934 -1.49471 2.75004 0
M  V30 3256 C 314.409 -1.97503 4.13227 0
M  V30 3257 N 315.9 -2.04746 4.15491 0
M  V30 3258 C 316.635 -2.43121 5.19307 0
M  V30 3259 N 316.131 -2.80506 6.33473 0
M  V30 3260 N 317.924 -2.43408 5.06664 0
M  V30 3261 H 310.075 0.0916097 2.12202 0
M  V30 3262 H 312.338 -0.0216655 0.947752 0
M  V30 3263 H 312.044 -0.670625 3.45247 0
M  V30 3264 H 311.918 -2.34784 2.95222 0
M  V30 3265 H 314.305 -2.19519 1.9722 0
M  V30 3266 H 314.386 -0.510342 2.50657 0
M  V30 3267 H 314.03 -1.28045 4.91495 0
M  V30 3268 H 313.96 -2.96843 4.34962 0
M  V30 3269 H 316.451 -1.78468 3.33103 0
M  V30 3270 H 316.764 -3.08652 7.08487 0
M  V30 3271 H 315.109 -2.78216 6.36884 0
M  V30 3272 H 318.3 -2.13604 4.16523 0
M  V30 3273 H 318.473 -2.72989 5.87691 0
M  V30 3274 N 311.879 -1.3236 -0.855495 0
M  V30 3275 C 312.811 -1.17052 -1.97057 0
M  V30 3276 C 313.824 -0.10574 -1.62456 0
M  V30 3277 O 315.013 -0.354619 -1.74942 0
M  V30 3278 C 312.113 -0.769305 -3.30053 0
M  V30 3279 C 311.286 -1.9222 -3.929 0
M  V30 3280 C 310.345 -1.50466 -5.04228 0
M  V30 3281 O 309.371 -2.21655 -5.24269 0
M  V30 3282 N 310.573 -0.400209 -5.79119 0
M  V30 3283 H 313.338 -2.13103 -2.1073 0
M  V30 3284 H 310.899 -1.24885 -1.0303 0
M  V30 3285 H 312.891 -0.472407 -4.01933 0
M  V30 3286 H 311.461 0.100025 -3.1244 0
M  V30 3287 H 310.681 -2.38563 -3.13817 0
M  V30 3288 H 311.969 -2.69403 -4.31624 0
M  V30 3289 H 311.367 0.192319 -5.65373 0
M  V30 3290 H 309.924 -0.162912 -6.51596 0
M  V30 3291 N 313.357 1.07166 -1.15556 0
M  V30 3292 C 314.768 1.6127 -0.940693 0
M  V30 3293 C 315.119 1.89251 0.517551 0
M  V30 3294 O 314.244 1.65937 1.38903 0
M  V30 3295 C 314.839 2.92993 -1.7012 0
M  V30 3296 C 313.398 3.43832 -1.53156 0
M  V30 3297 C 312.545 2.1786 -1.71558 0
M  V30 3298 H 315.496 0.90229 -1.30554 0
M  V30 3299 H 315.517 3.62007 -1.17181 0
M  V30 3300 H 315.029 2.72596 -2.76248 0
M  V30 3301 H 313.13 3.69307 -0.494294 0
M  V30 3302 H 313.243 4.19747 -2.30975 0
M  V30 3303 H 311.607 2.2765 -1.14225 0
M  V30 3304 H 312.39 1.99956 -2.79056 0
M  V30 3305 N 314.835 0.952656 1.25548 0
M  V30 3306 C 316.081 0.607272 1.93494 0
M  V30 3307 C 316.414 -0.853245 1.74452 0
M  V30 3308 O 315.689 -1.61194 1.08843 0
M  V30 3309 C 315.972 0.96435 3.46947 0
M  V30 3310 C 315.825 2.48045 3.75225 0
M  V30 3311 C 317.144 0.487987 4.37386 0
M  V30 3312 H 314.263 0.222096 0.702739 0
M  V30 3313 H 316.905 1.18895 1.48203 0
M  V30 3314 H 315.055 0.469361 3.85654 0
M  V30 3315 H 316.727 3.04905 3.46166 0
M  V30 3316 H 314.97 2.919 3.209 0
M  V30 3317 H 315.641 2.6808 4.82532 0
M  V30 3318 H 318.117 0.912558 4.0597 0
M  V30 3319 H 316.993 0.766547 5.43521 0
M  V30 3320 H 317.254 -0.612063 4.37843 0
M  V30 3321 N 316.313 -1.40141 0.720998 0
M  V30 3322 C 317.559 -2.01084 0.263231 0
M  V30 3323 C 317.892 -1.57052 -1.14229 0
M  V30 3324 O 317.167 -0.793027 -1.77599 0
M  V30 3325 C 317.45 -3.58401 0.349344 0
M  V30 3326 C 317.303 -4.12491 1.79363 0
M  V30 3327 C 318.622 -4.39231 -0.276351 0
M  V30 3328 H 315.741 -0.730572 0.0971228 0
M  V30 3329 H 318.383 -1.66543 0.914518 0
M  V30 3330 H 316.533 -3.87958 -0.205165 0
M  V30 3331 H 318.205 -3.93711 2.40394 0
M  V30 3332 H 316.448 -3.66576 2.31958 0
M  V30 3333 H 317.119 -5.21646 1.80524 0
M  V30 3334 H 319.595 -4.15637 0.196184 0
M  V30 3335 H 318.471 -5.48586 -0.185681 0
M  V30 3336 H 318.732 -4.20643 -1.36059 0
M  V30 3337 N 317.792 -0.46758 -1.50504 0
M  V30 3338 C 319.032 0.0874114 -2.04213 0
M  V30 3339 C 319.396 1.37301 -1.34211 0
M  V30 3340 O 320.597 2.01015 -1.78456 0
M  V30 3341 C 318.868 0.270571 -3.56374 0
M  V30 3342 S 320.427 0.784623 -4.31728 0
M  V30 3343 H 317.245 0.0176153 -0.710782 0
M  V30 3344 H 319.847 -0.633915 -1.84937 0
M  V30 3345 H 318.551 -0.670942 -4.04878 0
M  V30 3346 H 318.082 1.01811 -3.79997 0
M  V30 3347 H 320.097 2.05849 -4.51487 0
M  V30 3348 N 319.27 1.56325 -0.20005 0
M  V30 3349 C 320.498 2.02105 0.442874 0
M  V30 3350 C 320.913 1.08014 1.5485 0
M  V30 3351 O 320.27 0.0858797 1.82298 0
M  V30 3352 C 320.321 3.47549 0.994583 0
M  V30 3353 O 320.042 4.38049 -0.0669322 0
M  V30 3354 C 321.543 4.0887 1.7129 0
M  V30 3355 H 318.763 0.661807 0.110691 0
M  V30 3356 H 321.307 2.02134 -0.310207 0
M  V30 3357 H 319.462 3.48204 1.69803 0
M  V30 3358 H 319.876 5.23368 0.344462 0
M  V30 3359 H 321.35 5.12475 2.05118 0
M  V30 3360 H 321.827 3.52615 2.61838 0
M  V30 3361 H 322.433 4.12002 1.05518 0
M  V30 3362 N 320.748 -0.0735177 1.57428 0
M  V30 3363 C 321.996 -0.771472 1.86796 0
M  V30 3364 C 322.317 -1.78201 0.791804 0
M  V30 3365 O 321.587 -1.95074 -0.179718 0
M  V30 3366 H 320.167 -0.28791 0.689287 0
M  V30 3367 H 322.829 -0.0500161 1.94836 0
M  V30 3368 H 321.925 -1.28874 2.8425 0
M  V30 3369 N 322.226 -1.5378 -0.344866 0
M  V30 3370 C 323.474 -1.70625 -1.08311 0
M  V30 3371 C 323.795 -0.471447 -1.89215 0
M  V30 3372 O 323.065 0.514616 -1.8902 0
M  V30 3373 H 321.645 -0.629058 -0.402859 0
M  V30 3374 H 324.307 -1.9103 -0.386459 0
M  V30 3375 H 323.403 -2.57656 -1.76124 0
M  V30 3376 N 323.704 0.605807 -1.45491 0
M  V30 3377 C 324.929 1.39625 -1.53361 0
M  V30 3378 C 325.354 1.87351 -0.167645 0
M  V30 3379 O 324.712 1.60243 0.848051 0
M  V30 3380 C 324.76 2.57559 -2.5238 0
M  V30 3381 O 323.864 3.58248 -2.04285 0
M  V30 3382 H 323.205 0.416771 -0.516912 0
M  V30 3383 H 325.735 0.737103 -1.90861 0
M  V30 3384 H 325.745 3.0478 -2.71244 0
M  V30 3385 H 324.42 2.22171 -3.51586 0
M  V30 3386 H 322.997 3.17664 -1.95305 0
M  V30 3387 N 325.182 1.32811 0.848464 0
M  V30 3388 C 326.593 1.21315 1.41914 0
M  V30 3389 C 326.944 -0.171847 1.95446 0
M  V30 3390 O 326.069 -1.07093 1.88043 0
M  V30 3391 C 326.664 2.19631 2.57968 0
M  V30 3392 C 325.223 2.12003 3.11017 0
M  V30 3393 C 324.37 2.07651 1.83783 0
M  V30 3394 H 327.321 1.44549 0.655071 0
M  V30 3395 H 327.342 1.79845 3.35315 0
M  V30 3396 H 326.854 3.20423 2.18976 0
M  V30 3397 H 324.955 1.14481 3.54577 0
M  V30 3398 H 325.068 3.02111 3.71841 0
M  V30 3399 H 323.432 1.52983 2.03638 0
M  V30 3400 H 324.215 3.10235 1.47 0
M  V30 3401 N 326.66 -1.06551 1.16123 0
M  V30 3402 C 327.885 -1.83544 0.965735 0
M  V30 3403 C 328.31 -1.81843 -0.481102 0
M  V30 3404 O 327.668 -1.21732 -1.34354 0
M  V30 3405 C 327.716 -3.28169 1.49457 0
M  V30 3406 O 326.82 -4.0643 0.699157 0
M  V30 3407 H 326.161 -0.568026 0.343864 0
M  V30 3408 H 328.691 -1.34362 1.54299 0
M  V30 3409 H 328.701 -3.78992 1.51092 0
M  V30 3410 H 327.376 -3.28722 2.54784 0
M  V30 3411 H 325.953 -3.65216 0.7531 0
M  V30 3412 N 328.138 -0.959301 -1.25041 0
M  V30 3413 C 329.387 -0.612254 -1.92183 0
M  V30 3414 C 329.7 0.855347 -1.75907 0
M  V30 3415 O 330.906 1.31256 -2.37664 0
M  V30 3416 C 329.362 -1.04435 -3.44414 0
M  V30 3417 C 328.97 -2.53482 -3.69393 0
M  V30 3418 C 330.714 -0.770055 -4.17457 0
M  V30 3419 C 328.621 -2.90468 -5.15153 0
M  V30 3420 H 327.551 -0.225279 -0.719559 0
M  V30 3421 H 330.202 -1.16438 -1.41825 0
M  V30 3422 H 328.584 -0.4206 -3.9376 0
M  V30 3423 H 329.758 -3.20916 -3.30681 0
M  V30 3424 H 328.073 -2.78432 -3.0962 0
M  V30 3425 H 330.67 -1.02249 -5.24832 0
M  V30 3426 H 331.013 0.293611 -4.15263 0
M  V30 3427 H 331.546 -1.35437 -3.74034 0
M  V30 3428 H 328.285 -3.95871 -5.22462 0
M  V30 3429 H 327.805 -2.27711 -5.54894 0
M  V30 3430 H 329.484 -2.79914 -5.83315 0
M  V30 3431 N 329.616 1.39756 -0.72842 0
M  V30 3432 C 330.563 2.30647 -0.0841519 0
M  V30 3433 C 331.533 1.48869 0.7367 0
M  V30 3434 O 332.718 1.77574 0.698015 0
M  V30 3435 C 329.858 3.35165 0.822091 0
M  V30 3436 C 328.971 4.31999 -0.0106663 0
M  V30 3437 C 328.106 5.23585 0.896241 0
M  V30 3438 C 327.145 6.12072 0.0583381 0
M  V30 3439 N 326.282 6.96035 0.920818 0
M  V30 3440 H 331.122 2.85173 -0.864891 0
M  V30 3441 H 328.659 1.40422 -0.438179 0
M  V30 3442 H 330.617 3.94345 1.36189 0
M  V30 3443 H 329.247 2.8211 1.56888 0
M  V30 3444 H 328.299 3.74492 -0.66781 0
M  V30 3445 H 329.611 4.9443 -0.658825 0
M  V30 3446 H 328.765 5.87759 1.50412 0
M  V30 3447 H 327.504 4.61459 1.57819 0
M  V30 3448 H 326.509 5.46916 -0.562389 0
M  V30 3449 H 327.734 6.76261 -0.6203 0
M  V30 3450 H 325.68 6.36485 1.58818 0
M  V30 3451 H 325.597 7.55284 0.32899 0
M  V30 3452 H 326.865 7.64646 1.51447 0
M  V30 3453 N 331.094 0.475555 1.50254 0
M  V30 3454 C 332.004 -0.321501 2.32387 0
M  V30 3455 C 333.02 -0.991755 1.42969 0
M  V30 3456 O 334.196 -0.978747 1.76018 0
M  V30 3457 C 331.261 -1.38667 3.17762 0
M  V30 3458 C 330.322 -0.732538 4.23004 0
M  V30 3459 C 329.555 -1.74695 5.04299 0
M  V30 3460 O 329.778 -2.97399 4.86734 0
M  V30 3461 O 328.712 -1.31631 5.8733 0
M  V30 3462 H 332.538 0.350071 3.01676 0
M  V30 3463 H 330.123 0.237321 1.47503 0
M  V30 3464 H 332.005 -2.00354 3.70724 0
M  V30 3465 H 330.68 -2.04163 2.51196 0
M  V30 3466 H 329.587 -0.0765902 3.74022 0
M  V30 3467 H 330.92 -0.120452 4.92053 0
M  V30 3468 N 332.573 -1.56217 0.208337 0
M  V30 3469 C 333.521 -2.21053 -0.723769 0
M  V30 3470 C 334.515 -1.18578 -1.20978 0
M  V30 3471 O 335.721 -1.36691 -1.17114 0
M  V30 3472 H 332.096 -0.708595 -0.251788 0
M  V30 3473 H 334.067 -2.98006 -0.153365 0
M  V30 3474 C 332.816 -2.89417 -1.927 0
M  V30 3475 H 332.139 -3.68019 -1.56212 0
M  V30 3476 H 333.579 -3.38201 -2.55727 0
M  V30 3477 C 332.038 -1.91166 -2.77411 0
M  V30 3478 O 332.568 -1.42026 -3.75754 0
M  V30 3479 N 330.774 -1.59105 -2.43175 0
M  V30 3480 H 330.321 -1.99259 -1.63259 0
M  V30 3481 H 330.279 -0.936255 -3.00136 0
M  V30 3482 N 334.051 0.0651679 -1.57465 0
M  V30 3483 C 335.3 0.761916 -1.86756 0
M  V30 3484 C 335.613 1.78406 -0.801925 0
M  V30 3485 O 336.819 2.53084 -0.982885 0
M  V30 3486 C 335.275 1.40603 -3.31299 0
M  V30 3487 C 334.883 0.422115 -4.46007 0
M  V30 3488 C 336.627 2.08476 -3.69781 0
M  V30 3489 C 334.534 1.07252 -5.81593 0
M  V30 3490 H 333.464 0.288308 -0.696702 0
M  V30 3491 H 336.115 0.015344 -1.83494 0
M  V30 3492 H 334.497 2.20109 -3.29193 0
M  V30 3493 H 335.671 -0.343613 -4.59517 0
M  V30 3494 H 333.986 -0.152527 -4.16121 0
M  V30 3495 H 336.583 2.57925 -4.68379 0
M  V30 3496 H 336.926 2.88712 -2.99919 0
M  V30 3497 H 337.459 1.35792 -3.73905 0
M  V30 3498 H 334.198 0.310342 -6.54765 0
M  V30 3499 H 333.718 1.80895 -5.71872 0
M  V30 3500 H 335.397 1.59043 -6.27148 0
M  V30 3501 N 335.529 1.53961 0.336706 0
M  V30 3502 C 336.777 1.71197 1.07405 0
M  V30 3503 C 337.098 0.481475 1.88962 0
M  V30 3504 O 336.368 -0.504585 1.8929 0
M  V30 3505 H 334.948 0.631185 0.399517 0
M  V30 3506 H 337.61 1.91232 0.376323 0
M  V30 3507 H 336.706 2.58587 1.74755 0
M  V30 3508 N 337.007 -0.598083 1.45811 0
M  V30 3509 C 338.232 -1.3881 1.54099 0
M  V30 3510 C 338.657 -1.8726 0.177578 0
M  V30 3511 O 338.015 -1.6069 -0.839541 0
M  V30 3512 C 338.063 -2.56217 2.53743 0
M  V30 3513 O 337.167 -3.5716 2.06182 0
M  V30 3514 H 336.508 -0.414024 0.519115 0
M  V30 3515 H 339.038 -0.726971 1.91249 0
M  V30 3516 H 339.048 -3.03337 2.72856 0
M  V30 3517 H 337.723 -2.20303 3.5276 0
M  V30 3518 H 336.3 -3.16624 1.96987 0
M  V30 3519 N 338.485 -1.33259 -0.841409 0
M  V30 3520 C 339.731 -1.24757 -1.59886 0
M  V30 3521 C 340.064 0.186913 -1.93298 0
M  V30 3522 O 339.339 1.12757 -1.5848 0
M  V30 3523 C 339.622 -2.12036 -2.91055 0
M  V30 3524 C 339.475 -3.63929 -2.6434 0
M  V30 3525 C 340.794 -1.9916 -3.92458 0
M  V30 3526 H 337.913 -0.454542 -0.580138 0
M  V30 3527 H 340.555 -1.63335 -0.970647 0
M  V30 3528 H 338.705 -1.79265 -3.44669 0
M  V30 3529 H 340.377 -4.06978 -2.17178 0
M  V30 3530 H 338.62 -3.85935 -1.98082 0
M  V30 3531 H 339.291 -4.20341 -3.57796 0
M  V30 3532 H 341.767 -2.27895 -3.48143 0
M  V30 3533 H 340.643 -2.62484 -4.82072 0
M  V30 3534 H 340.904 -0.963082 -4.31482 0
M  V30 3535 N 339.963 1.05934 -1.16686 0
M  V30 3536 C 341.21 1.788 -0.950622 0
M  V30 3537 C 341.538 1.87384 0.521305 0
M  V30 3538 O 340.793 1.36438 1.40297 0
M  V30 3539 C 341.092 3.23105 -1.52767 0
M  V30 3540 C 340.758 3.34594 -3.02254 0
M  V30 3541 C 339.42 3.37437 -3.43059 0
M  V30 3542 C 341.772 3.36219 -3.98254 0
M  V30 3543 C 339.1 3.39525 -4.78477 0
M  V30 3544 C 341.452 3.39845 -5.33562 0
M  V30 3545 C 340.116 3.40971 -5.73842 0
M  V30 3546 H 339.386 0.654275 -0.347857 0
M  V30 3547 H 342.033 1.24555 -1.45459 0
M  V30 3548 H 340.338 3.80227 -0.94524 0
M  V30 3549 H 342.035 3.7809 -1.336 0
M  V30 3550 H 338.625 3.3309 -2.6972 0
M  V30 3551 H 342.809 3.33231 -3.67792 0
M  V30 3552 H 338.065 3.38703 -5.09009 0
M  V30 3553 H 342.239 3.4005 -6.07733 0
M  V30 3554 H 339.866 3.42342 -6.78753 0
M  V30 3555 N 341.441 0.965919 1.2453 0
M  V30 3556 C 342.689 0.625593 1.92174 0
M  V30 3557 C 343.01 -0.841652 1.75901 0
M  V30 3558 O 342.28 -1.60061 1.12948 0
M  V30 3559 H 340.86 0.228388 0.71123 0
M  V30 3560 H 343.522 1.2266 1.51461 0
M  V30 3561 H 342.618 0.864653 2.99884 0
M  V30 3562 N 342.919 -1.39368 0.735821 0
M  V30 3563 C 343.851 -2.2913 0.0567723 0
M  V30 3564 C 344.864 -1.46859 -0.702589 0
M  V30 3565 O 346.053 -1.69925 -0.546616 0
M  V30 3566 C 343.153 -3.25492 -0.943823 0
M  V30 3567 C 342.326 -4.36709 -0.24581 0
M  V30 3568 C 341.385 -5.13376 -1.15463 0
M  V30 3569 O 340.411 -5.65683 -0.631803 0
M  V30 3570 N 341.613 -5.24656 -2.48427 0
M  V30 3571 H 344.378 -2.88047 0.827582 0
M  V30 3572 H 341.939 -1.50957 0.585112 0
M  V30 3573 H 343.931 -3.73657 -1.55443 0
M  V30 3574 H 342.501 -2.676 -1.61583 0
M  V30 3575 H 341.721 -3.9041 0.545286 0
M  V30 3576 H 343.009 -5.08244 0.237891 0
M  V30 3577 H 342.407 -4.83679 -2.93379 0
M  V30 3578 H 340.964 -5.76258 -3.04582 0
M  V30 3579 N 344.397 -0.483516 -1.5 0
M  V30 3580 C 345.344 0.304164 -2.28787 0
M  V30 3581 C 346.314 0.976114 -1.34392 0
M  V30 3582 O 347.499 0.986156 -1.63339 0
M  V30 3583 C 344.639 1.37298 -3.16612 0
M  V30 3584 C 343.752 0.714561 -4.26049 0
M  V30 3585 C 342.887 1.76232 -5.01114 0
M  V30 3586 C 341.926 1.08483 -6.0241 0
M  V30 3587 N 341.063 2.076 -6.70706 0
M  V30 3588 H 345.903 -0.373981 -2.95644 0
M  V30 3589 H 343.44 -0.196275 -1.45785 0
M  V30 3590 H 345.398 2.00445 -3.65893 0
M  V30 3591 H 344.028 2.02012 -2.51776 0
M  V30 3592 H 343.08 -0.0297798 -3.80388 0
M  V30 3593 H 344.392 0.180383 -4.98474 0
M  V30 3594 H 343.546 2.46929 -5.54176 0
M  V30 3595 H 342.285 2.33033 -4.28424 0
M  V30 3596 H 341.29 0.363545 -5.48597 0
M  V30 3597 H 342.515 0.523551 -6.77079 0
M  V30 3598 H 340.461 2.63394 -6.00799 0
M  V30 3599 H 340.378 1.59201 -7.39047 0
M  V30 3600 H 341.646 2.77639 -7.2838 0
M  V30 3601 N 345.875 1.56104 -0.216619 0
M  V30 3602 C 346.807 2.17339 0.72776 0
M  V30 3603 C 347.82 1.14109 1.16116 0
M  V30 3604 O 349.009 1.4111 1.09317 0
M  V30 3605 C 346.109 2.73818 1.99693 0
M  V30 3606 C 345.282 4.02168 1.71988 0
M  V30 3607 C 344.341 4.43259 2.83562 0
M  V30 3608 O 343.367 5.10257 2.52244 0
M  V30 3609 N 344.569 4.08535 4.12407 0
M  V30 3610 H 347.334 2.99005 0.203983 0
M  V30 3611 H 344.895 1.61861 -0.0354289 0
M  V30 3612 H 346.887 2.9828 2.73516 0
M  V30 3613 H 345.457 1.96483 2.43132 0
M  V30 3614 H 344.677 3.85612 0.818337 0
M  V30 3615 H 345.965 4.85907 1.50903 0
M  V30 3616 H 345.363 3.54687 4.40696 0
M  V30 3617 H 343.92 4.37901 4.8279 0
M  V30 3618 N 347.353 -0.0568162 1.57498 0
M  V30 3619 C 348.283 -1.06593 2.0775 0
M  V30 3620 C 349.264 -1.39448 0.974082 0
M  V30 3621 O 350.449 -1.48815 1.24771 0
M  V30 3622 C 347.579 -2.37509 2.5339 0
M  V30 3623 C 346.533 -2.1897 3.67745 0
M  V30 3624 C 345.859 -3.55402 3.99492 0
M  V30 3625 C 347.159 -1.59859 4.97235 0
M  V30 3626 H 348.853 -0.647706 2.9231 0
M  V30 3627 H 346.399 -0.310116 1.40621 0
M  V30 3628 H 348.352 -3.08409 2.87162 0
M  V30 3629 H 347.076 -2.8134 1.65878 0
M  V30 3630 H 345.735 -1.50508 3.3428 0
M  V30 3631 H 345.383 -3.9683 3.09088 0
M  V30 3632 H 345.083 -3.43831 4.76502 0
M  V30 3633 H 346.607 -4.27708 4.35773 0
M  V30 3634 H 348.021 -2.20642 5.29141 0
M  V30 3635 H 346.418 -1.58942 5.78669 0
M  V30 3636 H 347.488 -0.561506 4.81638 0
M  V30 3637 N 348.832 -1.54138 -0.328536 0
M  V30 3638 C 349.764 -1.79509 -1.4251 0
M  V30 3639 C 350.777 -0.67688 -1.48061 0
M  V30 3640 O 351.966 -0.953898 -1.50874 0
M  V30 3641 C 349.066 -1.89337 -2.81078 0
M  V30 3642 C 348.239 -3.19443 -2.98789 0
M  V30 3643 C 347.298 -3.20036 -4.17688 0
M  V30 3644 O 346.324 -3.93697 -4.11086 0
M  V30 3645 N 347.526 -2.43467 -5.26976 0
M  V30 3646 H 350.291 -2.74139 -1.21111 0
M  V30 3647 H 347.852 -1.53373 -0.518499 0
M  V30 3648 H 349.844 -1.87167 -3.58818 0
M  V30 3649 H 348.414 -1.01826 -2.95551 0
M  V30 3650 H 347.634 -3.34614 -2.08391 0
M  V30 3651 H 348.922 -4.05354 -3.07515 0
M  V30 3652 H 348.32 -1.83201 -5.35214 0
M  V30 3653 H 346.877 -2.4708 -6.03154 0
M  V30 3654 N 350.31 0.590341 -1.46126 0
M  V30 3655 C 351.535 1.37991 -1.54833 0
M  V30 3656 C 351.96 1.87163 -0.187506 0
M  V30 3657 O 351.318 1.61133 0.831008 0
M  V30 3658 C 351.366 2.54867 -2.55098 0
M  V30 3659 O 350.47 3.56061 -2.08073 0
M  V30 3660 H 349.811 0.411265 -0.521303 0
M  V30 3661 H 352.341 0.716819 -1.91632 0
M  V30 3662 H 352.351 3.01886 -2.74461 0
M  V30 3663 H 351.026 2.18429 -3.53923 0
M  V30 3664 H 349.603 3.15574 -1.98664 0
M  V30 3665 N 351.788 1.33704 0.83433 0
M  V30 3666 C 352.718 1.26967 1.95963 0
M  V30 3667 C 353.699 0.149337 1.69443 0
M  V30 3668 O 354.884 0.339852 1.91203 0
M  V30 3669 C 352.014 1.01275 3.32206 0
M  V30 3670 C 350.968 2.09652 3.73136 0
M  V30 3671 C 350.294 1.69166 5.07235 0
M  V30 3672 C 351.594 3.51372 3.86439 0
M  V30 3673 H 353.288 2.2112 2.01857 0
M  V30 3674 H 350.834 1.06447 0.969793 0
M  V30 3675 H 352.787 0.952106 4.10503 0
M  V30 3676 H 351.511 0.0356203 3.26581 0
M  V30 3677 H 350.17 2.14766 2.97104 0
M  V30 3678 H 349.818 0.701437 4.98085 0
M  V30 3679 H 349.518 2.41694 5.35591 0
M  V30 3680 H 351.042 1.64576 5.88003 0
M  V30 3681 H 352.456 3.48734 4.55036 0
M  V30 3682 H 350.853 4.22425 4.26236 0
M  V30 3683 H 351.923 3.89546 2.88759 0
M  V30 3684 N 353.266 -1.05314 1.17247 0
M  V30 3685 C 354.515 -1.77685 0.954521 0
M  V30 3686 C 354.828 -1.88616 -0.518025 0
M  V30 3687 O 356.034 -2.57714 -0.854144 0
M  V30 3688 C 354.49 -3.19402 1.65863 0
M  V30 3689 C 354.098 -3.16605 3.16963 0
M  V30 3690 C 355.842 -3.96237 1.52303 0
M  V30 3691 C 353.749 -4.53103 3.80068 0
M  V30 3692 H 352.679 -0.666 0.353496 0
M  V30 3693 H 355.33 -1.1805 1.40486 0
M  V30 3694 H 353.712 -3.79355 1.13602 0
M  V30 3695 H 354.886 -2.66176 3.76148 0
M  V30 3696 H 353.201 -2.53268 3.30521 0
M  V30 3697 H 355.798 -4.97157 1.96822 0
M  V30 3698 H 356.141 -4.136 0.473401 0
M  V30 3699 H 356.674 -3.42829 2.01775 0
M  V30 3700 H 353.413 -4.40946 4.85023 0
M  V30 3701 H 352.933 -5.03686 3.2567 0
M  V30 3702 H 354.612 -5.22045 3.82202 0
M  V30 3703 N 354.744 -0.972509 -1.24016 0
M  V30 3704 C 356.155 -0.67517 -1.74064 0
M  V30 3705 C 356.506 0.808939 -1.78747 0
M  V30 3706 O 355.631 1.63286 -1.42009 0
M  V30 3707 C 356.226 -1.21889 -3.16115 0
M  V30 3708 C 354.785 -0.971358 -3.6365 0
M  V30 3709 C 353.932 -1.35134 -2.42145 0
M  V30 3710 H 356.883 -1.14727 -1.09651 0
M  V30 3711 H 356.904 -0.587489 -3.75937 0
M  V30 3712 H 356.416 -2.29906 -3.12674 0
M  V30 3713 H 354.517 0.0930686 -3.72484 0
M  V30 3714 H 354.63 -1.62039 -4.50866 0
M  V30 3715 H 352.994 -0.769751 -2.4279 0
M  V30 3716 H 353.777 -2.4411 -2.41381 0
M  V30 3717 N 356.222 1.38976 -0.743202 0
M  V30 3718 C 357.469 2.00343 -0.294752 0
M  V30 3719 C 357.797 1.58983 1.12047 0
M  V30 3720 O 357.052 0.813809 1.77977 0
M  V30 3721 C 357.351 3.55647 -0.353517 0
M  V30 3722 C 357.017 4.16685 -1.72292 0
M  V30 3723 C 355.679 4.3307 -2.09771 0
M  V30 3724 C 358.031 4.50464 -2.62168 0
M  V30 3725 C 355.359 4.80526 -3.36618 0
M  V30 3726 C 357.711 4.99332 -3.88395 0
M  V30 3727 C 356.375 5.13924 -4.25956 0
M  V30 3728 H 355.645 0.733108 -0.107857 0
M  V30 3729 H 358.292 1.6618 -0.951651 0
M  V30 3730 H 356.597 3.89884 0.386954 0
M  V30 3731 H 358.294 4.00998 0.0117269 0
M  V30 3732 H 354.884 4.04339 -1.42155 0
M  V30 3733 H 359.068 4.37416 -2.3448 0
M  V30 3734 H 354.324 4.90008 -3.65653 0
M  V30 3735 H 358.498 5.2444 -4.58187 0
M  V30 3736 H 356.125 5.50457 -5.2431 0
M  V30 3737 N 357.7 0.491464 1.49741 0
M  V30 3738 C 358.946 -0.0565092 2.02721 0
M  V30 3739 C 359.279 -1.37522 1.37118 0
M  V30 3740 O 358.554 -1.87866 0.503645 0
M  V30 3741 C 358.837 -0.219051 3.59433 0
M  V30 3742 C 358.69 1.12211 4.35579 0
M  V30 3743 C 360.009 -0.964157 4.29409 0
M  V30 3744 H 357.128 -0.0190627 0.736753 0
M  V30 3745 H 359.77 0.641021 1.7886 0
M  V30 3746 H 357.92 -0.813165 3.79895 0
M  V30 3747 H 359.592 1.75437 4.26637 0
M  V30 3748 H 357.835 1.71377 3.98513 0
M  V30 3749 H 358.506 0.961794 5.43556 0
M  V30 3750 H 360.982 -0.460378 4.13545 0
M  V30 3751 H 359.858 -1.04671 5.38828 0
M  V30 3752 H 360.119 -2.00563 3.93988 0
M  V30 3753 N 359.178 -1.55987 0.224894 0
M  V30 3754 C 360.11 -2.17722 -0.716224 0
M  V30 3755 C 361.123 -1.14723 -1.15509 0
M  V30 3756 O 362.312 -1.41688 -1.08567 0
M  V30 3757 C 359.412 -2.74873 -1.98238 0
M  V30 3758 C 358.585 -4.03074 -1.69853 0
M  V30 3759 C 357.644 -4.44757 -2.81208 0
M  V30 3760 O 356.67 -5.11587 -2.49534 0
M  V30 3761 N 357.872 -4.10716 -4.10235 0
M  V30 3762 H 360.637 -2.99109 -0.188123 0
M  V30 3763 H 358.198 -1.6184 0.0440123 0
M  V30 3764 H 360.19 -2.99727 -2.7193 0
M  V30 3765 H 358.76 -1.9777 -2.42086 0
M  V30 3766 H 357.98 -3.86041 -0.797875 0
M  V30 3767 H 359.268 -4.86701 -1.48324 0
M  V30 3768 H 358.666 -3.57019 -4.38809 0
M  V30 3769 H 357.223 -4.40455 -4.80461 0
M  V30 3770 N 360.656 0.0484629 -1.57525 0
M  V30 3771 C 361.586 1.0549 -2.08313 0
M  V30 3772 C 362.567 1.38929 -0.981463 0
M  V30 3773 O 363.752 1.48151 -1.25558 0
M  V30 3774 C 360.882 2.36162 -2.54646 0
M  V30 3775 C 359.836 2.17016 -3.68901 0
M  V30 3776 C 359.162 3.53278 -4.01371 0
M  V30 3777 C 360.462 1.57219 -4.98076 0
M  V30 3778 H 362.156 0.632195 -2.92649 0
M  V30 3779 H 359.702 0.302654 -1.40784 0
M  V30 3780 H 361.655 3.06882 -2.88793 0
M  V30 3781 H 360.379 2.80456 -1.67368 0
M  V30 3782 H 359.038 1.48733 -3.35073 0
M  V30 3783 H 358.686 3.95185 -3.11188 0
M  V30 3784 H 358.386 3.41299 -4.78318 0
M  V30 3785 H 359.91 4.25391 -4.38035 0
M  V30 3786 H 361.324 2.17832 -5.30304 0
M  V30 3787 H 359.721 1.55871 -5.79503 0
M  V30 3788 H 360.791 0.535956 -4.81929 0
M  V30 3789 N 362.134 1.5431 0.320358 0
M  V30 3790 C 363.545 1.63872 0.894594 0
M  V30 3791 C 363.896 0.534847 1.88769 0
M  V30 3792 O 363.021 -0.331732 2.13842 0
M  V30 3793 C 363.616 2.97049 1.62934 0
M  V30 3794 C 362.175 3.08796 2.15226 0
M  V30 3795 C 361.322 2.59456 0.978671 0
M  V30 3796 H 364.273 1.58398 0.0978544 0
M  V30 3797 H 364.294 2.87388 2.49376 0
M  V30 3798 H 363.806 3.7737 0.906302 0
M  V30 3799 H 361.907 2.33156 2.90636 0
M  V30 3800 H 362.02 4.14649 2.40006 0
M  V30 3801 H 360.384 2.1543 1.35875 0
M  V30 3802 H 361.167 3.42237 0.269895 0
M  V30 3803 N 363.613 -0.582584 1.46437 0
M  V30 3804 C 365.024 -1.1647 1.45916 0
M  V30 3805 C 365.375 -1.95177 0.200077 0
M  V30 3806 O 364.5 -2.04874 -0.696819 0
M  V30 3807 C 365.095 -2.11885 2.64367 0
M  V30 3808 C 363.654 -2.65421 2.66887 0
M  V30 3809 C 362.801 -1.41294 2.38603 0
M  V30 3810 H 365.752 -0.370514 1.54314 0
M  V30 3811 H 365.773 -2.9535 2.39892 0
M  V30 3812 H 365.285 -1.54573 3.5599 0
M  V30 3813 H 363.386 -3.26602 1.79338 0
M  V30 3814 H 363.499 -3.08147 3.66854 0
M  V30 3815 H 361.863 -1.71109 1.88663 0
M  V30 3816 H 362.646 -0.858125 3.32402 0
M  V30 3817 N 365.091 -1.34144 -0.827227 0
M  V30 3818 C 366.316 -1.29476 -1.62021 0
M  V30 3819 C 366.741 0.129292 -1.87655 0
M  V30 3820 O 366.099 1.08967 -1.449 0
M  V30 3821 C 366.147 -2.08702 -2.94068 0
M  V30 3822 O 365.251 -1.45359 -3.85933 0
M  V30 3823 H 364.592 -0.444881 -0.492927 0
M  V30 3824 H 367.122 -1.76882 -1.02829 0
M  V30 3825 H 367.132 -2.19898 -3.43669 0
M  V30 3826 H 365.807 -3.12241 -2.74734 0
M  V30 3827 H 364.384 -1.42879 -3.44442 0
M  V30 3828 N 366.569 1.04691 -1.17803 0
M  V30 3829 C 367.846 1.7472 -0.879328 0
M  V30 3830 C 368.226 2.01812 0.619271 0
M  V30 3831 O 367.574 1.65824 1.57209 0
M  V30 3832 C 367.784 3.03686 -1.71976 0
M  V30 3833 C 369.132 3.77542 -1.94286 0
M  V30 3834 O 370.156 3.13569 -1.68976 0
M  V30 3835 O 369.015 4.92506 -2.36855 0
M  V30 3836 H 366.109 0.760011 -0.326056 0
M  V30 3837 H 368.655 1.10813 -1.28525 0
M  V30 3838 H 367.427 2.79754 -2.73594 0
M  V30 3839 H 367.05 3.75332 -1.31194 0
M  V30 3840 N 368.047 0.979072 1.23499 0
M  V30 3841 C 369.272 0.664845 1.96455 0
M  V30 3842 C 369.697 -0.761287 1.72006 0
M  V30 3843 O 369.055 -1.51837 0.990713 0
M  V30 3844 C 369.103 0.959479 3.47601 0
M  V30 3845 O 368.207 0.0508168 4.12369 0
M  V30 3846 H 367.548 0.250185 0.615064 0
M  V30 3847 H 370.078 1.31231 1.5697 0
M  V30 3848 H 370.088 0.895642 3.98048 0
M  V30 3849 H 368.763 1.99876 3.64723 0
M  V30 3850 H 367.34 0.16895 3.72517 0
M  V30 3851 N 369.525 -1.3858 0.750561 0
M  V30 3852 C 370.771 -2.00481 0.305825 0
M  V30 3853 C 371.104 -1.5944 -1.10872 0
M  V30 3854 O 370.379 -0.83052 -1.75877 0
M  V30 3855 C 370.662 -3.5758 0.425287 0
M  V30 3856 C 370.515 -4.08594 1.88072 0
M  V30 3857 C 371.834 -4.39719 -0.183122 0
M  V30 3858 H 368.953 -0.728348 0.112598 0
M  V30 3859 H 371.595 -1.64566 0.949638 0
M  V30 3860 H 369.745 -3.88306 -0.122828 0
M  V30 3861 H 371.417 -3.88523 2.48691 0
M  V30 3862 H 369.66 -3.61574 2.39681 0
M  V30 3863 H 370.331 -5.177 1.91548 0
M  V30 3864 H 372.807 -4.15128 0.284303 0
M  V30 3865 H 371.683 -5.48856 -0.0692757 0
M  V30 3866 H 371.944 -4.23434 -1.27106 0
M  V30 3867 N 371.003 -0.499398 -1.49478 0
M  V30 3868 C 372.243 0.0440751 -2.04352 0
M  V30 3869 C 372.607 1.34423 -1.37093 0
M  V30 3870 O 373.808 1.97184 -1.82679 0
M  V30 3871 C 372.079 0.194918 -3.56868 0
M  V30 3872 S 373.638 0.69287 -4.33295 0
M  V30 3873 H 370.456 0.00253458 -0.710995 0
M  V30 3874 H 373.058 -0.673 -1.83551 0
M  V30 3875 H 371.762 -0.756672 -4.03364 0
M  V30 3876 H 371.293 0.93728 -3.82071 0
M  V30 3877 H 373.308 1.96226 -4.55752 0
M  V30 3878 N 372.481 1.55866 -0.233164 0
M  V30 3879 C 373.391 2.24431 0.683217 0
M  V30 3880 C 374.407 1.2558 1.2044 0
M  V30 3881 O 375.583 1.58422 1.24356 0
M  V30 3882 C 372.648 2.91979 1.86947 0
M  V30 3883 C 371.709 4.06204 1.38912 0
M  V30 3884 C 370.942 4.70522 2.51883 0
M  V30 3885 O 371.165 4.33865 3.70293 0
M  V30 3886 O 370.099 5.59296 2.22423 0
M  V30 3887 H 373.925 3.03426 0.129059 0
M  V30 3888 H 371.51 1.494 -0.0022283 0
M  V30 3889 H 373.392 3.34573 2.56201 0
M  V30 3890 H 372.067 2.15935 2.41151 0
M  V30 3891 H 370.974 3.68155 0.664259 0
M  V30 3892 H 372.307 4.84025 0.893328 0
M  V30 3893 N 373.959 -0.0401083 1.57549 0
M  V30 3894 C 374.869 -1.06133 2.0922 0
M  V30 3895 C 375.885 -1.40356 1.0284 0
M  V30 3896 O 377.061 -1.49897 1.34509 0
M  V30 3897 C 374.126 -2.34658 2.55218 0
M  V30 3898 C 373.187 -2.07117 3.76033 0
M  V30 3899 C 372.42 -3.29514 4.19829 0
M  V30 3900 O 372.643 -4.39794 3.63232 0
M  V30 3901 O 371.577 -3.15863 5.12362 0
M  V30 3902 H 375.403 -0.652244 2.96613 0
M  V30 3903 H 372.988 -0.256368 1.47184 0
M  V30 3904 H 374.87 -3.10239 2.85184 0
M  V30 3905 H 373.545 -2.74883 1.70941 0
M  V30 3906 H 372.452 -1.29139 3.51104 0
M  V30 3907 H 373.785 -1.71754 4.61261 0
M  V30 3908 N 375.437 -1.54477 -0.31217 0
M  V30 3909 C 376.667 -1.76948 -1.06645 0
M  V30 3910 C 377.075 -0.523593 -1.81811 0
M  V30 3911 O 376.418 0.51578 -1.76311 0
M  V30 3912 C 376.48 -2.91668 -2.10166 0
M  V30 3913 C 376.144 -4.30165 -1.54296 0
M  V30 3914 C 377.141 -5.10603 -0.978793 0
M  V30 3915 C 374.826 -4.76738 -1.58196 0
M  V30 3916 C 376.82 -6.3573 -0.461048 0
M  V30 3917 C 374.507 -6.01831 -1.06034 0
M  V30 3918 C 375.505 -6.81161 -0.500844 0
M  V30 3919 O 375.193 -8.03899 0.0128958 0
M  V30 3920 H 374.925 -0.594088 -0.322546 0
M  V30 3921 H 377.479 -2.02213 -0.360441 0
M  V30 3922 H 375.709 -2.62001 -2.84416 0
M  V30 3923 H 377.398 -3.01817 -2.71406 0
M  V30 3924 H 378.164 -4.75771 -0.941651 0
M  V30 3925 H 374.043 -4.15027 -2.00683 0
M  V30 3926 H 377.587 -6.97596 -0.0236894 0
M  V30 3927 H 373.484 -6.36152 -1.09459 0
M  V30 3928 H 374.252 -8.18437 -0.101457 0
M  V30 3929 N 376.915 0.57481 -1.46744 0
M  V30 3930 C 378.163 1.33009 -1.52161 0
M  V30 3931 C 378.484 1.94185 -0.178092 0
M  V30 3932 O 377.754 1.7899 0.796196 0
M  V30 3933 H 376.334 0.493873 -0.560445 0
M  V30 3934 H 378.996 0.672589 -1.82927 0
M  V30 3935 H 378.092 2.13273 -2.27862 0
M  V30 3936 N 378.394 1.34581 0.820102 0
M  V30 3937 C 379.324 1.29038 1.94606 0
M  V30 3938 C 380.305 0.1673 1.69275 0
M  V30 3939 O 381.49 0.360112 1.90832 0
M  V30 3940 C 378.62 1.04793 3.31113 0
M  V30 3941 C 377.574 2.13597 3.70891 0
M  V30 3942 C 376.9 1.74537 5.05412 0
M  V30 3943 C 378.2 3.55451 3.8269 0
M  V30 3944 H 379.894 2.23248 1.99501 0
M  V30 3945 H 377.44 1.0747 0.958449 0
M  V30 3946 H 379.393 0.995592 4.0947 0
M  V30 3947 H 378.117 0.0702565 3.26524 0
M  V30 3948 H 376.776 2.17905 2.9481 0
M  V30 3949 H 376.424 0.754226 4.97313 0
M  V30 3950 H 376.124 2.47361 5.32997 0
M  V30 3951 H 377.648 1.70803 5.86224 0
M  V30 3952 H 379.062 3.5354 4.51312 0
M  V30 3953 H 377.459 4.26922 4.21732 0
M  V30 3954 H 378.529 3.92587 2.84611 0
M  V30 3955 N 379.872 -1.04064 1.18357 0
M  V30 3956 C 381.097 -1.81454 1.00445 0
M  V30 3957 C 381.522 -1.82823 -0.442423 0
M  V30 3958 O 380.88 -1.24555 -1.31741 0
M  V30 3959 C 380.928 -3.24925 1.56384 0
M  V30 3960 O 380.032 -4.04856 0.785209 0
M  V30 3961 H 379.373 -0.560604 0.355835 0
M  V30 3962 H 381.903 -1.31059 1.57114 0
M  V30 3963 H 381.913 -3.75702 1.59097 0
M  V30 3964 H 380.588 -3.23244 2.61699 0
M  V30 3965 H 379.165 -3.63537 0.830399 0
M  V30 3966 N 381.35 -0.985608 -1.22978 0
M  V30 3967 C 382.59 -0.665487 -1.93263 0
M  V30 3968 C 382.954 0.78706 -1.75127 0
M  V30 3969 O 384.155 1.21826 -2.39608 0
M  V30 3970 C 382.426 -1.0515 -3.41582 0
M  V30 3971 S 383.985 -0.848637 -4.30516 0
M  V30 3972 H 380.803 -0.24355 -0.667985 0
M  V30 3973 H 383.405 -1.26635 -1.48942 0
M  V30 3974 H 382.109 -2.10517 -3.52293 0
M  V30 3975 H 381.64 -0.442134 -3.90908 0
M  V30 3976 H 383.655 0.264717 -4.95493 0
M  V30 3977 N 382.828 1.3818 -0.7579 0
M  V30 3978 C 384.053 2.04827 -0.325679 0
M  V30 3979 C 384.478 1.56788 1.03919 0
M  V30 3980 O 383.836 0.721811 1.66312 0
M  V30 3981 C 383.884 3.58774 -0.362447 0
M  V30 3982 O 382.988 4.07372 0.642033 0
M  V30 3983 H 382.329 0.64833 -0.143402 0
M  V30 3984 H 384.859 1.7677 -1.03023 0
M  V30 3985 H 384.869 4.07434 -0.214844 0
M  V30 3986 H 383.544 3.93096 -1.35824 0
M  V30 3987 H 382.121 3.70068 0.458688 0
M  V30 3988 N 384.306 0.507319 1.49211 0
M  V30 3989 C 385.583 -0.0982702 1.95353 0
M  V30 3990 C 385.963 -1.53516 1.449 0
M  V30 3991 O 385.311 -2.18594 0.66551 0
M  V30 3992 C 385.521 -0.00440283 3.49 0
M  V30 3993 C 386.869 -0.175147 4.24239 0
M  V30 3994 O 387.893 -0.0792891 3.56112 0
M  V30 3995 O 386.752 -0.37276 5.45227 0
M  V30 3996 H 383.846 -0.0918236 0.821887 0
M  V30 3997 H 386.392 0.570307 1.5983 0
M  V30 3998 H 385.164 0.997402 3.78375 0
M  V30 3999 H 384.787 -0.712845 3.91158 0
M  V30 4000 N 385.784 -1.5574 0.241426 0
M  V30 4001 C 386.747 -2.19877 -0.647063 0
M  V30 4002 C 387.747 -1.16642 -1.10686 0
M  V30 4003 O 388.937 -1.41757 -1.01245 0
M  V30 4004 C 386.069 -2.83797 -1.88871 0
M  V30 4005 H 387.262 -2.99772 -0.087574 0
M  V30 4006 H 384.815 -1.56298 -0.00813574 0
M  V30 4007 H 385.55 -2.07824 -2.48957 0
M  V30 4008 H 385.335 -3.59414 -1.56728 0
M  V30 4009 H 386.825 -3.32898 -2.52129 0
M  V30 4010 N 387.262 0.0317525 -1.57568 0
M  V30 4011 C 388.192 1.03274 -2.0942 0
M  V30 4012 C 389.173 1.3788 -0.996143 0
M  V30 4013 O 390.358 1.46811 -1.27122 0
M  V30 4014 C 387.488 2.33448 -2.57137 0
M  V30 4015 C 386.442 2.13091 -3.71182 0
M  V30 4016 C 385.768 3.49001 -4.05095 0
M  V30 4017 C 387.068 1.51928 -4.99715 0
M  V30 4018 H 388.762 0.60112 -2.93303 0
M  V30 4019 H 386.308 0.287705 -1.41097 0
M  V30 4020 H 388.261 3.03802 -2.92032 0
M  V30 4021 H 386.985 2.78665 -1.70333 0
M  V30 4022 H 385.644 1.45171 -3.36632 0
M  V30 4023 H 385.292 3.91862 -3.15362 0
M  V30 4024 H 384.992 3.36207 -4.81911 0
M  V30 4025 H 386.516 4.20721 -4.42522 0
M  V30 4026 H 387.93 2.12196 -5.32584 0
M  V30 4027 H 386.327 1.49716 -5.81124 0
M  V30 4028 H 387.397 0.484811 -4.8247 0
M  V30 4029 N 388.74 1.54641 0.303973 0
M  V30 4030 C 389.69 1.8177 1.37636 0
M  V30 4031 C 390.674 0.674697 1.46071 0
M  V30 4032 O 391.866 0.935251 1.50273 0
M  V30 4033 C 388.995 2.06584 2.74186 0
M  V30 4034 C 388.081 3.2706 2.69986 0
M  V30 4035 N 388.472 4.47682 2.35402 0
M  V30 4036 C 386.77 3.29028 3.01092 0
M  V30 4037 C 387.471 5.29689 2.40426 0
M  V30 4038 N 386.447 4.67339 2.7766 0
M  V30 4039 H 390.249 2.72596 1.09857 0
M  V30 4040 H 387.763 1.541 0.51254 0
M  V30 4041 H 389.76 2.24166 3.51504 0
M  V30 4042 H 388.42 1.17024 3.02879 0
M  V30 4043 H 389.431 4.74336 2.07908 0
M  V30 4044 H 386.108 2.49565 3.34699 0
M  V30 4045 H 387.498 6.3606 2.16512 0
M  V30 4046 N 390.218 -0.567019 1.47046 0
M  V30 4047 C 391.166 -1.69593 1.59188 0
M  V30 4048 C 392.16 -1.63046 0.459609 0
M  V30 4049 O 393.366 -1.6835 0.637058 0
M  V30 4050 H 389.741 -0.560993 0.500791 0
M  V30 4051 H 391.712 -1.56488 2.54075 0
M  V30 4052 C 390.461 -3.07964 1.61411 0
M  V30 4053 H 389.784 -3.13679 2.47881 0
M  V30 4054 H 391.224 -3.86671 1.73958 0
M  V30 4055 C 389.683 -3.35123 0.34559 0
M  V30 4056 O 390.213 -3.97812 -0.557521 0
M  V30 4057 N 388.419 -2.89699 0.22864 0
M  V30 4058 H 387.966 -2.38863 0.964479 0
M  V30 4059 H 387.924 -3.08242 -0.619192 0
M  V30 4060 N 391.696 -1.35014 -0.812953 0
M  V30 4061 C 392.626 -1.30069 -1.93919 0
M  V30 4062 C 393.607 -0.176275 -1.69184 0
M  V30 4063 O 394.792 -0.370227 -1.90638 0
M  V30 4064 C 391.922 -1.06547 -3.30552 0
M  V30 4065 C 390.876 -2.15561 -3.69753 0
M  V30 4066 C 390.202 -1.77214 -5.04479 0
M  V30 4067 C 391.502 -3.57476 -3.808 0
M  V30 4068 H 393.196 -2.24303 -1.98314 0
M  V30 4069 H 390.742 -1.07977 -0.952736 0
M  V30 4070 H 392.695 -1.01729 -4.08937 0
M  V30 4071 H 391.419 -0.0875719 -3.26483 0
M  V30 4072 H 390.078 -2.19466 -2.9365 0
M  V30 4073 H 389.726 -0.780589 -4.96906 0
M  V30 4074 H 389.426 -2.50184 -5.31678 0
M  V30 4075 H 390.95 -1.7391 -5.8531 0
M  V30 4076 H 392.364 -3.55929 -4.4943 0
M  V30 4077 H 390.761 -4.29152 -4.19462 0
M  V30 4078 H 391.831 -3.94091 -2.82525 0
M  V30 4079 N 393.175 1.03435 -1.18907 0
M  V30 4080 C 394.422 1.76743 -0.988334 0
M  V30 4081 C 394.75 1.88447 0.481441 0
M  V30 4082 O 394.005 1.39383 1.37371 0
M  V30 4083 C 394.304 3.19792 -1.59586 0
M  V30 4084 C 393.97 3.28108 -3.09283 0
M  V30 4085 C 392.632 3.30084 -3.5014 0
M  V30 4086 C 394.984 3.27696 -4.05296 0
M  V30 4087 C 392.312 3.29299 -4.85571 0
M  V30 4088 C 394.664 3.28451 -5.4065 0
M  V30 4089 C 393.328 3.28723 -5.80946 0
M  V30 4090 H 392.598 0.64675 -0.361657 0
M  V30 4091 H 395.245 1.21442 -1.48068 0
M  V30 4092 H 393.55 3.78136 -1.02568 0
M  V30 4093 H 395.247 3.75171 -1.41589 0
M  V30 4094 H 391.837 3.27294 -2.76725 0
M  V30 4095 H 396.021 3.25354 -3.74778 0
M  V30 4096 H 391.277 3.2783 -5.16079 0
M  V30 4097 H 395.451 3.27082 -6.14809 0
M  V30 4098 H 393.078 3.27868 -6.85862 0
M  V30 4099 N 394.653 0.992116 1.22453 0
M  V30 4100 C 395.883 0.684949 1.94915 0
M  V30 4101 C 396.291 -0.754292 1.73514 0
M  V30 4102 O 395.634 -1.52056 1.03076 0
M  V30 4103 C 395.696 0.910054 3.47791 0
M  V30 4104 C 395.36 2.33363 3.92926 0
M  V30 4105 C 396.357 3.31308 4.00663 0
M  V30 4106 C 394.042 2.66785 4.25595 0
M  V30 4107 C 396.036 4.6075 4.40441 0
M  V30 4108 C 393.723 3.96446 4.65053 0
M  V30 4109 C 394.721 4.9324 4.72444 0
M  V30 4110 O 394.409 6.20584 5.1101 0
M  V30 4111 H 394.141 0.25258 0.62704 0
M  V30 4112 H 396.695 1.32939 1.56577 0
M  V30 4113 H 394.925 0.208443 3.86138 0
M  V30 4114 H 396.614 0.598257 4.01467 0
M  V30 4115 H 397.38 3.0682 3.75615 0
M  V30 4116 H 393.259 1.92148 4.19047 0
M  V30 4117 H 396.803 5.363 4.46126 0
M  V30 4118 H 392.7 4.20724 4.89552 0
M  V30 4119 H 393.468 6.24509 5.29085 0
M  V30 4120 N 396.131 -1.37776 0.765217 0
M  V30 4121 C 397.38 -1.99092 0.323307 0
M  V30 4122 C 397.693 -1.61434 -1.10446 0
M  V30 4123 O 398.899 -2.15805 -1.64743 0
M  V30 4124 C 397.355 -3.56019 0.527098 0
M  V30 4125 C 396.963 -4.0262 1.96471 0
M  V30 4126 C 398.707 -4.2424 0.148483 0
M  V30 4127 C 396.614 -5.52233 2.11644 0
M  V30 4128 H 395.544 -0.744846 0.117137 0
M  V30 4129 H 398.195 -1.57391 0.943417 0
M  V30 4130 H 396.577 -3.95667 -0.162372 0
M  V30 4131 H 397.751 -3.74234 2.68859 0
M  V30 4132 H 396.066 -3.47161 2.29931 0
M  V30 4133 H 398.663 -5.34159 0.240456 0
M  V30 4134 H 399.006 -4.06446 -0.900422 0
M  V30 4135 H 399.539 -3.89872 0.79025 0
M  V30 4136 H 396.278 -5.74945 3.1483 0
M  V30 4137 H 395.798 -5.82324 1.4373 0
M  V30 4138 H 397.477 -6.18106 1.91193 0
M  V30 4139 N 397.609 -0.515225 -1.4894 0
M  V30 4140 C 398.834 0.022727 -2.07388 0
M  V30 4141 C 399.259 1.2876 -1.37122 0
M  V30 4142 O 398.617 1.76067 -0.432431 0
M  V30 4143 C 398.665 0.244869 -3.59768 0
M  V30 4144 O 397.769 1.31667 -3.90817 0
M  V30 4145 H 397.11 -0.0325506 -0.663202 0
M  V30 4146 H 399.64 -0.718918 -1.91553 0
M  V30 4147 H 399.65 0.47205 -4.0526 0
M  V30 4148 H 398.325 -0.679194 -4.10317 0
M  V30 4149 H 396.902 1.07331 -3.5712 0
M  V30 4150 N 399.087 1.5561 -0.249682 0
M  V30 4151 C 400.335 1.98618 0.373548 0
M  V30 4152 C 400.656 1.13919 1.58264 0
M  V30 4153 O 399.926 0.222637 1.94631 0
M  V30 4154 H 398.506 0.733571 0.141006 0
M  V30 4155 H 401.168 1.91748 -0.349117 0
M  V30 4156 H 400.264 3.04584 0.680796 0
M  V30 4157 N 400.565 -0.0233959 1.57583 0
M  V30 4158 C 401.812 -0.713063 1.8953 0
M  V30 4159 C 402.14 -1.75056 0.847673 0
M  V30 4160 O 401.395 -1.95119 -0.150636 0
M  V30 4161 C 401.694 -1.41428 3.28227 0
M  V30 4162 C 401.36 -0.512222 4.47981 0
M  V30 4163 C 400.022 -0.263785 4.80476 0
M  V30 4164 C 402.374 0.110248 5.21083 0
M  V30 4165 C 399.702 0.615804 5.83459 0
M  V30 4166 C 402.054 0.977573 6.25001 0
M  V30 4167 C 400.718 1.23542 6.55968 0
M  V30 4168 H 399.988 -0.260928 0.69354 0
M  V30 4169 H 402.635 0.0271047 1.91481 0
M  V30 4170 H 400.94 -2.22791 3.22291 0
M  V30 4171 H 402.637 -1.95355 3.50196 0
M  V30 4172 H 399.227 -0.716013 4.22577 0
M  V30 4173 H 403.411 -0.0687137 4.96252 0
M  V30 4174 H 398.667 0.82382 6.05824 0
M  V30 4175 H 402.841 1.46638 6.80786 0
M  V30 4176 H 400.468 1.91871 7.35588 0
M  V30 4177 N 402.043 -1.548 -0.295768 0
M  V30 4178 C 403.292 -1.73538 -1.02798 0
M  V30 4179 C 403.605 -0.531159 -1.8825 0
M  V30 4180 O 404.811 -0.600458 -2.64777 0
M  V30 4181 C 403.267 -3.07051 -1.87744 0
M  V30 4182 C 402.875 -4.34968 -1.07269 0
M  V30 4183 C 404.619 -3.35146 -2.60533 0
M  V30 4184 C 402.526 -5.5953 -1.91521 0
M  V30 4185 H 401.456 -0.646794 -0.387522 0
M  V30 4186 H 404.107 -1.81278 -0.284718 0
M  V30 4187 H 402.489 -2.93289 -2.66078 0
M  V30 4188 H 403.663 -4.5958 -0.335117 0
M  V30 4189 H 401.978 -4.13847 -0.460384 0
M  V30 4190 H 404.575 -4.2541 -3.23929 0
M  V30 4191 H 404.918 -2.54255 -3.29636 0
M  V30 4192 H 405.451 -3.49902 -1.89244 0
M  V30 4193 H 402.19 -6.43103 -1.26878 0
M  V30 4194 H 401.71 -5.39096 -2.62937 0
M  V30 4195 H 403.389 -5.96982 -2.49442 0
M  V30 4196 N 403.521 0.559213 -1.47345 0
M  V30 4197 C 404.746 1.34676 -1.57725 0
M  V30 4198 C 405.171 1.86723 -0.227164 0
M  V30 4199 O 404.529 1.6286 0.796642 0
M  V30 4200 C 404.577 2.49399 -2.60447 0
M  V30 4201 O 403.681 3.51567 -2.15578 0
M  V30 4202 H 403.022 0.400115 -0.52991 0
M  V30 4203 H 405.552 0.676009 -1.93109 0
M  V30 4204 H 405.562 2.95996 -2.80803 0
M  V30 4205 H 404.237 2.10873 -3.58477 0
M  V30 4206 H 402.814 3.11289 -2.05313 0
M  V30 4207 N 404.999 1.35443 0.805782 0
M  V30 4208 C 405.931 1.24285 1.92577 0
M  V30 4209 C 406.944 0.165962 1.61952 0
M  V30 4210 O 408.133 0.419303 1.73505 0
M  V30 4211 C 405.233 0.891272 3.2697 0
M  V30 4212 C 404.406 2.06669 3.85495 0
M  V30 4213 C 403.465 1.69077 4.98297 0
M  V30 4214 O 402.491 2.4096 5.15681 0
M  V30 4215 N 403.693 0.614869 5.77234 0
M  V30 4216 H 406.458 2.20777 2.02676 0
M  V30 4217 H 404.019 1.28623 0.983243 0
M  V30 4218 H 406.011 0.621256 3.99903 0
M  V30 4219 H 404.581 0.016004 3.12596 0
M  V30 4220 H 403.801 2.50046 3.04747 0
M  V30 4221 H 405.089 2.85237 4.21328 0
M  V30 4222 H 404.487 0.017648 5.65697 0
M  V30 4223 H 403.044 0.404636 6.50543 0
M  V30 4224 N 406.477 -1.02803 1.19454 0
M  V30 4225 C 407.717 -1.77769 1.00883 0
M  V30 4226 C 408.081 -1.86596 -0.45233 0
M  V30 4227 O 409.282 -2.57895 -0.757877 0
M  V30 4228 C 407.553 -3.16486 1.66046 0
M  V30 4229 S 409.112 -4.07632 1.62424 0
M  V30 4230 H 405.93 -0.611949 0.361993 0
M  V30 4231 H 408.532 -1.23175 1.51816 0
M  V30 4232 H 407.236 -3.0768 2.7159 0
M  V30 4233 H 406.767 -3.76156 1.15196 0
M  V30 4234 H 408.782 -4.91937 0.64903 0
M  V30 4235 N 407.956 -0.998596 -1.21925 0
M  V30 4236 C 409.184 -0.696286 -1.94832 0
M  V30 4237 C 409.599 0.740032 -1.73692 0
M  V30 4238 O 408.956 1.5 -1.03953 0
M  V30 4239 C 409.007 -0.999833 -3.47398 0
M  V30 4240 O 408.728 -2.37972 -3.67833 0
M  V30 4241 C 410.229 -0.716025 -4.37479 0
M  V30 4242 H 407.449 -0.257111 -0.619786 0
M  V30 4243 H 409.993 -1.33491 -1.54921 0
M  V30 4244 H 408.148 -0.406918 -3.85257 0
M  V30 4245 H 408.562 -2.48338 -4.61983 0
M  V30 4246 H 410.036 -0.978642 -5.43256 0
M  V30 4247 H 410.513 0.349968 -4.37803 0
M  V30 4248 H 411.119 -1.29025 -4.05256 0
M  V30 4249 N 409.434 1.37368 -0.772513 0
M  V30 4250 C 410.384 2.27613 -0.132823 0
M  V30 4251 C 411.368 1.46138 0.673247 0
M  V30 4252 O 412.56 1.68686 0.536095 0
M  V30 4253 C 409.689 3.35122 0.744864 0
M  V30 4254 C 408.775 4.24044 -0.0690771 0
M  V30 4255 N 409.166 4.93355 -1.1151 0
M  V30 4256 C 407.464 4.45731 0.154782 0
M  V30 4257 C 408.165 5.59 -1.60917 0
M  V30 4258 N 407.141 5.35737 -0.921222 0
M  V30 4259 H 410.943 2.78675 -0.933681 0
M  V30 4260 H 408.457 1.50494 -0.610342 0
M  V30 4261 H 410.454 3.98683 1.21892 0
M  V30 4262 H 409.114 2.85616 1.54446 0
M  V30 4263 H 410.125 4.95785 -1.49726 0
M  V30 4264 H 406.802 4.07096 0.926224 0
M  V30 4265 H 408.192 6.24395 -2.48153 0
M  V30 4266 N 410.912 0.523116 1.48665 0
M  V30 4267 C 412.16 -0.0134497 2.02096 0
M  V30 4268 C 412.481 -1.35418 1.40311 0
M  V30 4269 O 411.751 -1.87543 0.566074 0
M  V30 4270 H 410.331 -0.00795915 0.746958 0
M  V30 4271 H 412.993 0.685388 1.82451 0
M  V30 4272 H 412.089 -0.126849 3.11842 0
M  V30 4273 N 412.39 -1.55475 0.257931 0
M  V30 4274 C 413.636 -1.99502 -0.364266 0
M  V30 4275 C 413.969 -1.146 -1.56782 0
M  V30 4276 O 413.244 -0.211968 -1.93342 0
M  V30 4277 C 413.527 -3.51917 -0.763333 0
M  V30 4278 C 413.38 -4.4758 0.446371 0
M  V30 4279 C 414.699 -4.09742 -1.60623 0
M  V30 4280 H 411.818 -0.725277 -0.130929 0
M  V30 4281 H 414.46 -1.8653 0.361446 0
M  V30 4282 H 412.61 -3.63101 -1.38166 0
M  V30 4283 H 414.282 -4.48362 1.08487 0
M  V30 4284 H 412.525 -4.19947 1.08753 0
M  V30 4285 H 413.196 -5.51862 0.123645 0
M  V30 4286 H 415.672 -4.01727 -1.08418 0
M  V30 4287 H 414.548 -5.16631 -1.85429 0
M  V30 4288 H 414.809 -3.58889 -2.58169 0
M  V30 4289 N 413.868 0.0150385 -1.57593 0
M  V30 4290 C 415.116 0.701613 -1.8953 0
M  V30 4291 C 415.437 1.75139 -0.857396 0
M  V30 4292 O 414.707 1.95607 0.107194 0
M  V30 4293 H 413.287 0.26213 -0.699498 0
M  V30 4294 H 415.949 -0.0223304 -1.94887 0
M  V30 4295 H 415.045 1.18236 -2.88837 0
M  V30 4296 N 415.346 1.54954 0.287554 0
M  V30 4297 C 416.762 1.46469 0.633964 0
M  V30 4298 C 416.962 0.666865 1.90145 0
M  V30 4299 O 416.018 0.179906 2.51858 0
M  V30 4300 C 417.331 2.90556 0.774454 0
M  V30 4301 C 418.879 3.00681 0.869462 0
M  V30 4302 C 419.354 4.45993 1.04184 0
M  V30 4303 N 420.845 4.4976 1.10772 0
M  V30 4304 C 421.58 5.59393 1.25964 0
M  V30 4305 N 421.076 6.78923 1.37968 0
M  V30 4306 N 422.869 5.47107 1.28959 0
M  V30 4307 H 415.02 2.05288 -0.545041 0
M  V30 4308 H 417.283 0.930305 -0.182308 0
M  V30 4309 H 416.989 3.51594 -0.086207 0
M  V30 4310 H 416.863 3.38743 1.6593 0
M  V30 4311 H 419.25 2.39749 1.7206 0
M  V30 4312 H 419.331 2.55769 -0.0396831 0
M  V30 4313 H 418.975 5.07524 0.195422 0
M  V30 4314 H 418.905 4.88548 1.96542 0
M  V30 4315 H 421.396 3.63651 1.02794 0
M  V30 4316 H 421.709 7.58231 1.49353 0
M  V30 4317 H 420.054 6.81763 1.34999 0
M  V30 4318 H 423.245 4.52668 1.19202 0
M  V30 4319 H 423.418 6.32595 1.40455 0
M  V30 4320 N 416.824 -0.551391 1.4764 0
M  V30 4321 C 418.049 -1.33837 1.58437 0
M  V30 4322 C 418.474 -1.866 0.237063 0
M  V30 4323 O 417.832 -1.6328 -0.787994 0
M  V30 4324 C 417.88 -2.48014 2.61766 0
M  V30 4325 O 416.984 -3.50419 2.1744 0
M  V30 4326 H 416.325 -0.397299 0.532024 0
M  V30 4327 H 418.855 -0.665759 1.93465 0
M  V30 4328 H 418.865 -2.94503 2.82369 0
M  V30 4329 H 417.54 -2.08969 3.5959 0
M  V30 4330 H 416.117 -3.10196 2.06961 0
M  V30 4331 N 418.302 -1.35869 -0.798587 0
M  V30 4332 C 419.527 -1.32883 -1.59238 0
M  V30 4333 C 419.952 0.0894587 -1.87887 0
M  V30 4334 O 419.31 1.05869 -1.47178 0
M  V30 4335 C 419.358 -2.14892 -2.89575 0
M  V30 4336 O 418.462 -1.53512 -3.82763 0
M  V30 4337 H 417.803 -0.455236 -0.48338 0
M  V30 4338 H 420.333 -1.79024 -0.990539 0
M  V30 4339 H 420.343 -2.27139 -3.38928 0
M  V30 4340 H 419.018 -3.17998 -2.68049 0
M  V30 4341 H 417.595 -1.50153 -3.41334 0
M  V30 4342 N 419.78 1.02168 -1.19998 0
M  V30 4343 C 421.008 1.79296 -1.03249 0
M  V30 4344 C 421.423 1.84103 0.418502 0
M  V30 4345 O 420.78 1.29031 1.29063 0
M  V30 4346 C 420.831 3.24007 -1.60319 0
M  V30 4347 O 420.552 3.19512 -2.99739 0
M  V30 4348 C 422.053 4.17704 -1.48453 0
M  V30 4349 H 419.273 0.564016 -0.363493 0
M  V30 4350 H 421.817 1.28639 -1.58973 0
M  V30 4351 H 419.972 3.7183 -1.08727 0
M  V30 4352 H 420.386 4.10306 -3.26725 0
M  V30 4353 H 421.86 5.17104 -1.93153 0
M  V30 4354 H 422.337 4.37029 -0.436193 0
M  V30 4355 H 422.943 3.7576 -1.99211 0
M  V30 4356 N 421.258 1.00505 1.21394 0
M  V30 4357 C 422.535 0.603277 1.86064 0
M  V30 4358 C 422.915 -0.919095 1.90042 0
M  V30 4359 O 422.263 -1.80607 1.39977 0
M  V30 4360 C 422.473 1.23772 3.26315 0
M  V30 4361 C 423.821 1.34586 4.02705 0
M  V30 4362 O 424.845 1.19304 3.35626 0
M  V30 4363 O 423.704 1.59169 5.22807 0
M  V30 4364 H 420.798 0.206634 0.800769 0
M  V30 4365 H 423.344 1.1017 1.29076 0
M  V30 4366 H 422.116 2.27848 3.18121 0
M  V30 4367 H 421.739 0.725648 3.90922 0
M  V30 4368 N 422.737 -1.36956 0.779787 0
M  V30 4369 C 424.153 -1.52817 0.460342 0
M  V30 4370 C 424.353 -1.7361 -1.02283 0
M  V30 4371 O 423.409 -1.76207 -1.80852 0
M  V30 4372 C 424.722 -2.71983 1.28241 0
M  V30 4373 C 426.27 -2.85849 1.27512 0
M  V30 4374 C 426.745 -4.08008 2.08072 0
M  V30 4375 N 428.236 -4.15135 2.05467 0
M  V30 4376 C 428.971 -5.08711 2.64577 0
M  V30 4377 N 428.467 -6.07792 3.32506 0
M  V30 4378 N 430.26 -5.01254 2.54363 0
M  V30 4379 H 422.411 -1.21713 1.74068 0
M  V30 4380 H 424.674 -0.593294 0.739396 0
M  V30 4381 H 424.38 -2.63109 2.33381 0
M  V30 4382 H 424.254 -3.65882 0.917088 0
M  V30 4383 H 426.641 -2.94189 0.231686 0
M  V30 4384 H 426.722 -1.92886 1.68014 0
M  V30 4385 H 426.366 -4.00429 3.12441 0
M  V30 4386 H 426.296 -5.001 1.64947 0
M  V30 4387 H 428.787 -3.44189 1.5602 0
M  V30 4388 H 429.1 -6.75739 3.74963 0
M  V30 4389 H 427.445 -6.08047 3.36606 0
M  V30 4390 H 430.636 -4.22795 2.00902 0
M  V30 4391 H 430.809 -5.73995 3.00722 0
M  V30 4392 N 424.215 -0.530993 -1.48385 0
M  V30 4393 C 425.147 0.268353 -2.27624 0
M  V30 4394 C 426.16 0.903525 -1.35426 0
M  V30 4395 O 427.349 0.781796 -1.60469 0
M  V30 4396 C 424.449 1.39535 -3.08842 0
M  V30 4397 C 423.622 0.861913 -4.28824 0
M  V30 4398 C 422.681 1.87016 -4.91845 0
M  V30 4399 O 421.707 1.4267 -5.5103 0
M  V30 4400 N 422.909 3.20238 -4.84178 0
M  V30 4401 H 425.674 -0.41123 -2.96865 0
M  V30 4402 H 423.235 -0.365387 -1.57723 0
M  V30 4403 H 425.227 2.06803 -3.47871 0
M  V30 4404 H 423.797 1.97859 -2.42014 0
M  V30 4405 H 423.017 0.0132126 -3.94198 0
M  V30 4406 H 424.305 0.484415 -5.06489 0
M  V30 4407 H 423.703 3.58932 -4.37246 0
M  V30 4408 H 422.26 3.83136 -5.27305 0
M  V30 4409 N 425.693 1.55336 -0.266172 0
M  V30 4410 C 426.94 1.99397 0.353158 0
M  V30 4411 C 427.268 1.15451 1.56529 0
M  V30 4412 O 426.523 0.209974 1.9457 0
M  V30 4413 C 426.822 3.48606 0.787957 0
M  V30 4414 C 426.488 4.49773 -0.318541 0
M  V30 4415 C 425.15 4.77158 -0.62239 0
M  V30 4416 C 427.502 5.10212 -1.06459 0
M  V30 4417 C 424.83 5.62251 -1.67602 0
M  V30 4418 C 427.182 5.96449 -2.10788 0
M  V30 4419 C 425.846 6.22158 -2.41817 0
M  V30 4420 H 425.116 0.729644 0.12923 0
M  V30 4421 H 427.763 1.87732 -0.37802 0
M  V30 4422 H 426.068 3.57701 1.59866 0
M  V30 4423 H 427.765 3.80098 1.27775 0
M  V30 4424 H 424.355 4.2854 -0.0715925 0
M  V30 4425 H 428.539 4.89086 -0.843098 0
M  V30 4426 H 423.795 5.80419 -1.92155 0
M  V30 4427 H 427.969 6.42317 -2.69076 0
M  V30 4428 H 425.596 6.87888 -3.23596 0
M  V30 4429 N 427.171 -0.0066808 1.57599 0
M  V30 4430 C 428.418 -0.69292 1.90276 0
M  V30 4431 C 428.746 -1.74148 0.866192 0
M  V30 4432 O 428.001 -1.95268 -0.129933 0
M  V30 4433 C 428.3 -1.37939 3.29708 0
M  V30 4434 C 427.966 -0.464679 4.48499 0
M  V30 4435 C 426.628 -0.212809 4.80729 0
M  V30 4436 C 428.98 0.16551 5.20937 0
M  V30 4437 C 426.308 0.677653 5.82773 0
M  V30 4438 C 428.66 1.04381 6.23929 0
M  V30 4439 C 427.324 1.30492 6.54621 0
M  V30 4440 H 426.594 -0.253558 0.696268 0
M  V30 4441 H 429.241 0.0474123 1.91441 0
M  V30 4442 H 427.546 -2.1936 3.24636 0
M  V30 4443 H 429.243 -1.9163 3.52249 0
M  V30 4444 H 425.833 -0.671153 4.23313 0
M  V30 4445 H 430.017 -0.0160756 4.96297 0
M  V30 4446 H 425.273 0.88803 6.04917 0
M  V30 4447 H 429.447 1.53851 6.79193 0
M  V30 4448 H 427.074 1.99662 7.33512 0
M  V30 4449 N 428.649 -1.55105 -0.279332 0
M  V30 4450 C 429.896 -1.75412 -1.01177 0
M  V30 4451 C 430.224 -0.551728 -1.86511 0
M  V30 4452 O 429.479 0.465919 -1.90073 0
M  V30 4453 C 429.778 -3.0086 -1.92919 0
M  V30 4454 C 429.444 -4.33689 -1.23387 0
M  V30 4455 C 428.106 -4.69792 -1.04159 0
M  V30 4456 C 430.458 -5.15941 -0.738562 0
M  V30 4457 C 427.786 -5.85707 -0.341166 0
M  V30 4458 C 430.138 -6.32579 -0.0517636 0
M  V30 4459 C 428.802 -6.67326 0.152292 0
M  V30 4460 H 428.072 -0.641879 -0.370233 0
M  V30 4461 H 430.719 -1.89373 -0.284627 0
M  V30 4462 H 429.024 -2.81773 -2.72234 0
M  V30 4463 H 430.721 -3.13768 -2.49701 0
M  V30 4464 H 427.311 -4.05309 -1.39364 0
M  V30 4465 H 431.495 -4.8853 -0.874764 0
M  V30 4466 H 426.751 -6.11157 -0.172287 0
M  V30 4467 H 430.925 -6.9557 0.339828 0
M  V30 4468 H 428.552 -7.56998 0.697014 0
M  V30 4469 N 430.127 0.543554 -1.4793 0
M  V30 4470 C 431.376 1.29649 -1.54512 0
M  V30 4471 C 431.689 1.94382 -0.217973 0
M  V30 4472 O 432.895 2.71017 -0.161908 0
M  V30 4473 C 431.351 2.35175 -2.72435 0
M  V30 4474 C 430.959 1.76572 -4.11736 0
M  V30 4475 C 432.703 3.11564 -2.8832 0
M  V30 4476 C 430.61 2.79958 -5.20939 0
M  V30 4477 H 429.54 0.487541 -0.57517 0
M  V30 4478 H 432.191 0.575708 -1.74235 0
M  V30 4479 H 430.573 3.10229 -2.46118 0
M  V30 4480 H 431.747 1.07799 -4.48013 0
M  V30 4481 H 430.062 1.12722 -4.00852 0
M  V30 4482 H 432.659 3.88794 -3.67074 0
M  V30 4483 H 433.002 3.66594 -1.97268 0
M  V30 4484 H 433.535 2.43623 -3.14472 0
M  V30 4485 H 430.274 2.29766 -6.13912 0
M  V30 4486 H 429.794 3.47101 -4.89164 0
M  V30 4487 H 431.473 3.43198 -5.48474 0
M  V30 4488 N 431.605 1.3629 0.791371 0
M  V30 4489 C 432.553 1.30514 1.92533 0
M  V30 4490 C 433.547 0.197285 1.68247 0
M  V30 4491 O 434.753 0.364176 1.76278 0
M  V30 4492 H 431.128 0.406263 0.632815 0
M  V30 4493 H 433.099 2.26282 1.94523 0
M  V30 4494 C 431.848 1.10933 3.29529 0
M  V30 4495 H 431.171 1.95427 3.48781 0
M  V30 4496 H 432.611 1.10937 4.0923 0
M  V30 4497 C 431.07 -0.186123 3.36385 0
M  V30 4498 O 431.6 -1.17664 3.84081 0
M  V30 4499 N 429.806 -0.230128 2.89687 0
M  V30 4500 H 429.353 0.576545 2.51065 0
M  V30 4501 H 429.311 -1.09658 2.94657 0
M  V30 4502 N 433.083 -1.0153 1.20538 0
M  V30 4503 C 434.499 -1.27461 0.96051 0
M  V30 4504 C 434.699 -1.98273 -0.359193 0
M  V30 4505 O 433.755 -2.27886 -1.0874 0
M  V30 4506 C 435.068 -2.10837 2.14402 0
M  V30 4507 C 436.616 -2.24099 2.18515 0
M  V30 4508 C 437.091 -3.10852 3.36355 0
M  V30 4509 N 438.582 -3.18441 3.36377 0
M  V30 4510 C 439.317 -3.85795 4.24205 0
M  V30 4511 N 438.813 -4.55264 5.22213 0
M  V30 4512 N 440.606 -3.82331 4.12043 0
M  V30 4513 H 432.757 -0.539907 2.05423 0
M  V30 4514 H 435.02 -0.30092 0.898972 0
M  V30 4515 H 434.726 -1.66144 3.09983 0
M  V30 4516 H 434.6 -3.11576 2.12604 0
M  V30 4517 H 436.987 -2.68016 1.23497 0
M  V30 4518 H 437.068 -1.22865 2.24361 0
M  V30 4519 H 436.712 -2.6764 4.31661 0
M  V30 4520 H 436.642 -4.12177 3.27746 0
M  V30 4521 H 439.133 -2.68978 2.65442 0
M  V30 4522 H 439.446 -5.04331 5.85551 0
M  V30 4523 H 437.791 -4.54085 5.26148 0
M  V30 4524 H 440.982 -3.27207 3.34743 0
M  V30 4525 H 441.155 -4.34547 4.807 0
M  V30 4526 N 434.561 -1.01147 -1.20859 0
M  V30 4527 C 435.977 -0.725422 -1.42161 0
M  V30 4528 C 436.177 0.696919 -1.89064 0
M  V30 4529 O 435.233 1.46539 -2.05627 0
M  V30 4530 C 436.546 -1.74678 -2.44761 0
M  V30 4531 C 438.094 -1.76433 -2.58535 0
M  V30 4532 C 438.569 -2.77481 -3.64374 0
M  V30 4533 N 440.06 -2.76189 -3.71852 0
M  V30 4534 C 440.795 -3.51035 -4.53389 0
M  V30 4535 N 440.291 -4.35541 -5.38773 0
M  V30 4536 N 442.084 -3.39655 -4.47873 0
M  V30 4537 H 434.235 -1.92979 -0.887282 0
M  V30 4538 H 436.498 -0.833327 -0.451962 0
M  V30 4539 H 436.204 -2.76551 -2.17285 0
M  V30 4540 H 436.078 -1.55472 -3.43669 0
M  V30 4541 H 438.465 -0.75248 -2.85345 0
M  V30 4542 H 438.546 -1.99712 -1.5984 0
M  V30 4543 H 438.19 -3.78827 -3.38308 0
M  V30 4544 H 438.12 -2.51466 -4.6268 0
M  V30 4545 H 440.611 -2.14885 -3.10858 0
M  V30 4546 H 440.924 -4.89432 -5.98061 0
M  V30 4547 H 439.269 -4.39621 -5.38292 0
M  V30 4548 H 442.46 -2.73063 -3.80203 0
M  V30 4549 H 442.633 -3.9824 -5.11184 0
M  V30 4550 N 436.039 1.36541 -0.78704 0
M  V30 4551 C 437.45 1.81873 -0.421807 0
M  V30 4552 C 437.801 1.65487 1.05397 0
M  V30 4553 O 436.926 1.17448 1.81755 0
M  V30 4554 C 437.521 3.30192 -0.758841 0
M  V30 4555 C 436.08 3.73743 -0.446468 0
M  V30 4556 C 435.227 2.58844 -0.994728 0
M  V30 4557 H 438.178 1.24796 -0.98039 0
M  V30 4558 H 438.199 3.80468 -0.0490648 0
M  V30 4559 H 437.711 3.42087 -1.83299 0
M  V30 4560 H 435.812 3.6741 0.619739 0
M  V30 4561 H 435.925 4.69272 -0.965415 0
M  V30 4562 H 434.289 2.51245 -0.418087 0
M  V30 4563 H 435.072 2.73525 -2.07458 0
M  V30 4564 N 437.518 0.538854 1.48102 0
M  V30 4565 C 438.758 0.0101209 2.04397 0
M  V30 4566 C 439.122 -1.30741 1.40609 0
M  V30 4567 O 440.323 -1.92272 1.87843 0
M  V30 4568 C 438.594 -0.100232 3.57259 0
M  V30 4569 S 440.153 -0.577746 4.3498 0
M  V30 4570 H 436.971 0.0163171 0.710813 0
M  V30 4571 H 439.573 0.721429 1.81702 0
M  V30 4572 H 438.277 0.863351 4.01216 0
M  V30 4573 H 437.808 -0.835651 3.84422 0
M  V30 4574 H 439.823 -1.84073 4.60794 0
M  V30 4575 N 438.996 -1.55193 0.274407 0
M  V30 4576 C 440.273 -1.91584 -0.394331 0
M  V30 4577 C 440.653 -1.19858 -1.73774 0
M  V30 4578 O 440.001 -0.3252 -2.26174 0
M  V30 4579 C 440.211 -3.4487 -0.535311 0
M  V30 4580 C 441.559 -4.16636 -0.818534 0
M  V30 4581 O 442.583 -3.5076 -0.620146 0
M  V30 4582 O 441.442 -5.33209 -1.19792 0
M  V30 4583 H 438.536 -0.798349 -0.215794 0
M  V30 4584 H 441.082 -1.66646 0.320507 0
M  V30 4585 H 439.854 -3.89145 0.410141 0
M  V30 4586 H 439.477 -3.75759 -1.29964 0
M  V30 4587 N 440.474 -0.00167713 -1.576 0
M  V30 4588 C 441.885 0.54091 -1.78693 0
M  V30 4589 C 442.236 1.7386 -0.909247 0
M  V30 4590 O 441.361 2.16109 -0.112176 0
M  V30 4591 C 441.956 0.98806 -3.24072 0
M  V30 4592 C 440.515 1.47594 -3.46256 0
M  V30 4593 C 439.662 0.42792 -2.73978 0
M  V30 4594 H 442.613 -0.22784 -1.57056 0
M  V30 4595 H 442.634 1.85398 -3.32277 0
M  V30 4596 H 442.146 0.116164 -3.87926 0
M  V30 4597 H 440.247 2.36868 -2.87618 0
M  V30 4598 H 440.36 1.50225 -4.54939 0
M  V30 4599 H 438.724 0.889934 -2.38647 0
M  V30 4600 H 439.507 -0.435038 -3.40532 0
M  V30 4601 N 441.952 1.55251 0.271103 0
M  V30 4602 C 442.915 1.87484 1.31842 0
M  V30 4603 C 443.915 0.749545 1.42262 0
M  V30 4604 O 445.105 1.01771 1.4138 0
M  V30 4605 C 442.237 2.0818 2.69951 0
M  V30 4606 H 443.43 2.81108 1.0449 0
M  V30 4607 H 440.983 1.47771 0.509258 0
M  V30 4608 H 441.718 1.16944 3.02481 0
M  V30 4609 H 441.503 2.90114 2.63774 0
M  V30 4610 H 442.993 2.34385 3.4562 0
M  V30 4611 N 443.43 -0.535701 1.48216 0
M  V30 4612 C 444.377 -1.64083 1.62312 0
M  V30 4613 C 445.347 -1.59448 0.465365 0
M  V30 4614 O 446.532 -1.77959 0.688135 0
M  V30 4615 C 443.672 -3.0236 1.66349 0
M  V30 4616 C 442.785 -3.17273 2.93193 0
M  V30 4617 C 441.92 -4.46075 2.88427 0
M  V30 4618 C 440.959 -4.54496 4.1 0
M  V30 4619 N 440.096 -5.7468 4.03345 0
M  V30 4620 H 444.936 -1.51374 2.5669 0
M  V30 4621 H 442.473 -0.737059 1.27302 0
M  V30 4622 H 444.431 -3.82461 1.66672 0
M  V30 4623 H 443.061 -3.13854 0.754672 0
M  V30 4624 H 442.113 -2.30462 3.02641 0
M  V30 4625 H 443.425 -3.19357 3.83162 0
M  V30 4626 H 442.579 -5.3446 2.87119 0
M  V30 4627 H 441.318 -4.46504 1.96177 0
M  V30 4628 H 440.323 -3.64519 4.11589 0
M  V30 4629 H 441.548 -4.5581 5.03402 0
M  V30 4630 H 439.494 -5.76017 3.13912 0
M  V30 4631 H 439.411 -5.78234 4.87013 0
M  V30 4632 H 440.679 -6.65367 4.06087 0
M  V30 4633 N 444.908 -1.36708 -0.784132 0
M  V30 4634 C 446.154 -1.31426 -1.54451 0
M  V30 4635 C 446.487 0.10476 -1.93917 0
M  V30 4636 O 445.762 1.05934 -1.6312 0
M  V30 4637 C 446.045 -2.24189 -2.818 0
M  V30 4638 C 445.898 -3.74813 -2.48667 0
M  V30 4639 C 447.217 -2.15626 -3.83658 0
M  V30 4640 H 444.336 -0.478739 -0.560337 0
M  V30 4641 H 446.978 -1.67305 -0.900498 0
M  V30 4642 H 445.128 -1.93722 -3.36755 0
M  V30 4643 H 446.8 -4.15823 -1.99722 0
M  V30 4644 H 445.043 -3.93989 -1.81535 0
M  V30 4645 H 445.714 -4.35138 -3.39646 0
M  V30 4646 H 448.19 -2.42456 -3.38163 0
M  V30 4647 H 447.066 -2.82694 -4.70506 0
M  V30 4648 H 447.327 -1.14522 -4.27009 0
M  V30 4649 N 446.386 1.0089 -1.21074 0
M  V30 4650 C 447.626 1.76142 -1.03699 0
M  V30 4651 C 447.99 1.87292 0.422587 0
M  V30 4652 O 449.191 2.59068 0.716752 0
M  V30 4653 C 447.462 3.13805 -1.7106 0
M  V30 4654 S 449.021 4.04996 -1.68889 0
M  V30 4655 H 445.839 0.606113 -0.371683 0
M  V30 4656 H 448.441 1.20744 -1.53756 0
M  V30 4657 H 447.145 3.0332 -2.76451 0
M  V30 4658 H 446.676 3.74276 -1.21166 0
M  V30 4659 H 448.691 4.90842 -0.727211 0
M  V30 4660 N 447.864 1.01787 1.20321 0
M  V30 4661 C 449.28 0.732951 1.41774 0
M  V30 4662 C 449.48 -0.686883 1.89431 0
M  V30 4663 O 448.536 -1.45446 2.06402 0
M  V30 4664 C 449.849 1.75973 2.43832 0
M  V30 4665 C 451.397 1.77802 2.57596 0
M  V30 4666 C 451.872 2.7941 3.62897 0
M  V30 4667 N 453.363 2.78157 3.70382 0
M  V30 4668 C 454.098 3.53434 4.51521 0
M  V30 4669 N 453.594 4.38392 5.36455 0
M  V30 4670 N 455.387 3.42026 4.46066 0
M  V30 4671 H 447.538 1.93447 0.877035 0
M  V30 4672 H 449.801 0.835712 0.447536 0
M  V30 4673 H 449.507 2.77699 2.15815 0
M  V30 4674 H 449.381 1.57292 3.4284 0
M  V30 4675 H 451.768 0.767602 2.84942 0
M  V30 4676 H 451.849 2.00557 1.58779 0
M  V30 4677 H 451.493 3.80616 3.36295 0
M  V30 4678 H 451.423 2.53916 4.61339 0
M  V30 4679 H 453.914 2.16531 3.09714 0
M  V30 4680 H 454.227 4.92596 5.95457 0
M  V30 4681 H 452.572 4.4247 5.35953 0
M  V30 4682 H 455.763 2.75075 3.78749 0
M  V30 4683 H 455.936 4.00946 5.09064 0
M  V30 4684 N 449.342 -1.36122 0.79427 0
M  V30 4685 C 450.272 -2.32551 0.210328 0
M  V30 4686 C 451.253 -1.56884 -0.657386 0
M  V30 4687 O 452.438 -1.85014 -0.590207 0
M  V30 4688 C 449.568 -3.41128 -0.651819 0
M  V30 4689 C 448.522 -4.27842 0.116395 0
M  V30 4690 C 447.848 -5.2763 -0.86666 0
M  V30 4691 C 449.148 -5.05647 1.30837 0
M  V30 4692 H 450.842 -2.81636 1.01594 0
M  V30 4693 H 448.388 -1.35407 0.489981 0
M  V30 4694 H 450.341 -4.07581 -1.07031 0
M  V30 4695 H 449.065 -2.90622 -1.49019 0
M  V30 4696 H 447.724 -3.62952 0.515915 0
M  V30 4697 H 447.372 -4.73395 -1.70019 0
M  V30 4698 H 447.072 -5.86514 -0.35705 0
M  V30 4699 H 448.596 -5.96955 -1.28361 0
M  V30 4700 H 450.01 -5.65113 0.965393 0
M  V30 4701 H 448.407 -5.73967 1.75161 0
M  V30 4702 H 449.477 -4.37006 2.10128 0
M  V30 4703 N 450.82 -0.546701 -1.47814 0
M  V30 4704 C 452.066 -0.0187684 -2.02791 0
M  V30 4705 C 452.399 1.32338 -1.42128 0
M  V30 4706 O 451.674 1.85867 -0.573023 0
M  V30 4707 C 451.957 0.0854985 -3.59998 0
M  V30 4708 C 451.81 -1.283 -4.31114 0
M  V30 4709 C 453.129 0.80412 -4.32691 0
M  V30 4710 H 450.248 -0.0082946 -0.736953 0
M  V30 4711 H 452.89 -0.706962 -1.76358 0
M  V30 4712 H 451.04 0.671609 -3.82651 0
M  V30 4713 H 452.712 -1.91151 -4.19832 0
M  V30 4714 H 450.955 -1.86049 -3.91878 0
M  V30 4715 H 451.626 -1.16287 -5.39612 0
M  V30 4716 H 454.102 0.306576 -4.14969 0
M  V30 4717 H 452.978 0.846011 -5.42341 0
M  V30 4718 H 453.239 1.85802 -4.01161 0
M  V30 4719 N 452.299 1.55045 -0.282633 0
M  V30 4720 C 453.247 2.24254 0.617478 0
M  V30 4721 C 454.241 1.24215 1.15183 0
M  V30 4722 O 455.447 1.42123 1.10459 0
M  V30 4723 H 451.822 0.719801 0.217693 0
M  V30 4724 H 453.793 2.98398 0.0110076 0
M  V30 4725 C 452.542 2.98281 1.78672 0
M  V30 4726 H 451.865 3.75053 1.38475 0
M  V30 4727 H 453.305 3.50017 2.393 0
M  V30 4728 C 451.764 2.04184 2.67975 0
M  V30 4729 O 452.294 1.59792 3.6855 0
M  V30 4730 N 450.5 1.70526 2.35307 0
M  V30 4731 H 450.047 2.06821 1.53567 0
M  V30 4732 H 450.005 1.07839 2.95327 0
M  V30 4733 N 453.777 0.010035 1.57597 0
M  V30 4734 C 454.687 -0.994226 2.12491 0
M  V30 4735 C 455.703 -1.37013 1.07254 0
M  V30 4736 O 456.879 -1.45542 1.3921 0
M  V30 4737 C 453.944 -2.2642 2.62555 0
M  V30 4738 C 453.005 -1.95049 3.82432 0
M  V30 4739 C 452.238 -3.15991 4.30099 0
M  V30 4740 O 452.461 -4.28015 3.7704 0
M  V30 4741 O 451.395 -2.99403 5.22151 0
M  V30 4742 H 455.221 -0.557549 2.98538 0
M  V30 4743 H 452.806 -0.209413 1.47925 0
M  V30 4744 H 454.688 -3.01009 2.9491 0
M  V30 4745 H 453.363 -2.69306 1.796 0
M  V30 4746 H 452.27 -1.17904 3.55034 0
M  V30 4747 H 453.603 -1.56992 4.66491 0
M  V30 4748 N 455.255 -1.55392 -0.262866 0
M  V30 4749 C 456.501 -1.76737 -0.99458 0
M  V30 4750 C 456.834 -0.572453 -1.85571 0
M  V30 4751 O 456.109 0.429732 -1.89693 0
M  V30 4752 C 456.392 -3.07824 -1.8686 0
M  V30 4753 C 456.245 -4.3769 -1.03672 0
M  V30 4754 C 457.564 -3.35021 -2.85393 0
M  V30 4755 H 454.683 -0.643005 -0.360157 0
M  V30 4756 H 457.325 -1.88126 -0.266216 0
M  V30 4757 H 455.475 -2.98245 -2.48962 0
M  V30 4758 H 457.147 -4.59238 -0.43563 0
M  V30 4759 H 455.39 -4.32461 -0.340513 0
M  V30 4760 H 456.061 -5.25759 -1.6817 0
M  V30 4761 H 458.537 -3.44458 -2.33426 0
M  V30 4762 H 457.413 -4.27989 -3.43681 0
M  V30 4763 H 457.674 -2.55153 -3.61039 0
M  V30 4764 N 456.733 0.527833 -1.48498 0
M  V30 4765 C 457.963 1.30633 -1.60058 0
M  V30 4766 C 458.371 1.87394 -0.260786 0
M  V30 4767 O 457.714 1.67227 0.760317 0
M  V30 4768 C 457.776 2.49361 -2.58958 0
M  V30 4769 C 457.44 2.13671 -4.03972 0
M  V30 4770 C 458.437 1.69217 -4.91591 0
M  V30 4771 C 456.122 2.24129 -4.49524 0
M  V30 4772 C 458.116 1.35689 -6.2279 0
M  V30 4773 C 455.803 1.90212 -5.80743 0
M  V30 4774 C 456.801 1.46063 -6.67199 0
M  V30 4775 O 456.489 1.12593 -7.95976 0
M  V30 4776 H 456.221 0.403444 -0.54241 0
M  V30 4777 H 458.775 0.643233 -1.95068 0
M  V30 4778 H 457.005 3.18659 -2.19073 0
M  V30 4779 H 458.694 3.11421 -2.6033 0
M  V30 4780 H 459.46 1.60607 -4.57636 0
M  V30 4781 H 455.339 2.57447 -3.82416 0
M  V30 4782 H 458.883 1.01157 -6.90227 0
M  V30 4783 H 454.78 1.98464 -6.14233 0
M  V30 4784 H 455.548 1.25972 -8.08748 0
M  V30 4785 N 458.211 1.37122 0.776871 0
M  V30 4786 C 459.161 1.28989 1.88005 0
M  V30 4787 C 460.145 0.178765 1.59904 0
M  V30 4788 O 461.337 0.412705 1.72121 0
M  V30 4789 C 458.466 1.09402 3.25402 0
M  V30 4790 C 457.552 2.25036 3.59471 0
M  V30 4791 N 457.943 3.50407 3.64759 0
M  V30 4792 C 456.241 2.17078 3.89607 0
M  V30 4793 C 456.942 4.26628 3.95428 0
M  V30 4794 N 455.918 3.55709 4.11062 0
M  V30 4795 H 459.72 2.2394 1.90337 0
M  V30 4796 H 457.234 1.30021 0.973052 0
M  V30 4797 H 459.231 1.01661 4.04315 0
M  V30 4798 H 457.891 0.153632 3.24336 0
M  V30 4799 H 458.902 3.8438 3.47091 0
M  V30 4800 H 455.579 1.31067 3.96393 0
M  V30 4801 H 456.969 5.35107 4.06338 0
M  V30 4802 N 459.689 -1.00246 1.21608 0
M  V30 4803 C 460.622 -2.08794 0.920892 0
M  V30 4804 C 461.6 -1.62059 -0.132552 0
M  V30 4805 O 462.784 -1.885 -0.0030366 0
M  V30 4806 C 459.911 -3.36525 0.383226 0
M  V30 4807 C 458.957 -4.02172 1.41987 0
M  V30 4808 S 459.79 -4.44256 2.98994 0
M  V30 4809 C 460.946 -5.7517 2.4684 0
M  V30 4810 H 461.179 -2.33511 1.8401 0
M  V30 4811 H 458.712 -1.13562 1.04609 0
M  V30 4812 H 460.67 -4.10423 0.0795871 0
M  V30 4813 H 459.331 -3.09854 -0.514711 0
M  V30 4814 H 458.524 -4.94114 0.993335 0
M  V30 4815 H 458.126 -3.34559 1.67171 0
M  V30 4816 H 460.418 -6.51042 1.87484 0
M  V30 4817 H 461.361 -6.22638 3.37235 0
M  V30 4818 H 461.769 -5.32112 1.88461 0
M  V30 4819 N 461.167 -1.02423 -1.1978 0
M  V30 4820 C 462.397 -0.736387 -1.93031 0
M  V30 4821 C 462.805 0.708023 -1.75453 0
M  V30 4822 O 462.148 1.4927 -1.07071 0
M  V30 4823 C 462.21 -1.00194 -3.45255 0
M  V30 4824 C 461.874 -2.43698 -3.86601 0
M  V30 4825 C 462.871 -3.41814 -3.91738 0
M  V30 4826 C 460.556 -2.77975 -4.18372 0
M  V30 4827 C 462.55 -4.72265 -4.28071 0
M  V30 4828 C 460.237 -4.08636 -4.54378 0
M  V30 4829 C 461.235 -5.05592 -4.59201 0
M  V30 4830 O 460.923 -6.33914 -4.94376 0
M  V30 4831 H 460.655 -0.269116 -0.620123 0
M  V30 4832 H 463.209 -1.37043 -1.52998 0
M  V30 4833 H 461.439 -0.310747 -3.85449 0
M  V30 4834 H 463.128 -0.704488 -3.9974 0
M  V30 4835 H 463.894 -3.16671 -3.67348 0
M  V30 4836 H 459.773 -2.0319 -4.13805 0
M  V30 4837 H 463.317 -5.4794 -4.3175 0
M  V30 4838 H 459.214 -4.33556 -4.78226 0
M  V30 4839 H 459.982 -6.38317 -5.12341 0
M  V30 4840 N 462.645 1.35699 -0.801477 0
M  V30 4841 C 463.593 2.3177 -0.196317 0
M  V30 4842 C 464.587 1.56388 0.651081 0
M  V30 4843 O 465.793 1.71557 0.544815 0
M  V30 4844 H 462.168 0.750669 -0.0447189 0
M  V30 4845 H 464.139 2.8036 -1.02181 0
M  V30 4846 C 462.888 3.41671 0.644702 0
M  V30 4847 H 462.211 3.998 0.0019921 0
M  V30 4848 H 463.651 4.11184 1.0346 0
M  V30 4849 C 462.11 2.84271 1.80808 0
M  V30 4850 O 462.64 2.77408 2.9053 0
M  V30 4851 N 460.846 2.41391 1.61799 0
M  V30 4852 H 460.393 2.47173 0.725493 0
M  V30 4853 H 460.351 2.03334 2.39797 0
M  V30 4854 N 464.123 0.554532 1.47522 0
M  V30 4855 C 465.539 0.214107 1.58157 0
M  V30 4856 C 465.739 -1.28331 1.55349 0
M  V30 4857 O 464.795 -2.06329 1.45549 0
M  V30 4858 C 466.108 0.838391 2.88776 0
M  V30 4859 C 467.656 0.809374 3.02354 0
M  V30 4860 C 468.131 1.41268 4.35669 0
M  V30 4861 N 469.622 1.37574 4.42298 0
M  V30 4862 C 470.357 1.8122 5.4401 0
M  V30 4863 N 469.853 2.3271 6.52547 0
M  V30 4864 N 471.646 1.72307 5.35039 0
M  V30 4865 H 463.797 1.52744 1.4759 0
M  V30 4866 H 466.06 0.636812 0.702264 0
M  V30 4867 H 465.766 1.89065 2.96559 0
M  V30 4868 H 465.64 0.329847 3.75755 0
M  V30 4869 H 468.027 -0.234187 2.94169 0
M  V30 4870 H 468.108 1.35565 2.16924 0
M  V30 4871 H 467.752 2.45529 4.4461 0
M  V30 4872 H 467.682 0.841871 5.19827 0
M  V30 4873 H 470.173 0.999081 3.64454 0
M  V30 4874 H 470.486 2.63944 7.26329 0
M  V30 4875 H 468.831 2.36719 6.53444 0
M  V30 4876 H 472.022 1.3186 4.49144 0
M  V30 4877 H 472.195 2.06641 6.14169 0
M  V30 4878 N 465.601 -1.54893 0.290851 0
M  V30 4879 C 466.551 -2.19838 -0.604599 0
M  V30 4880 C 467.535 -1.16805 -1.10659 0
M  V30 4881 O 468.727 -1.42562 -1.04905 0
M  V30 4882 C 465.856 -2.93497 -1.78086 0
M  V30 4883 C 464.942 -4.03835 -1.29531 0
M  V30 4884 N 465.333 -5.03047 -0.527024 0
M  V30 4885 C 463.631 -4.17192 -1.57693 0
M  V30 4886 C 464.332 -5.81074 -0.269728 0
M  V30 4887 N 463.308 -5.36966 -0.846651 0
M  V30 4888 H 467.11 -2.93898 -0.00995032 0
M  V30 4889 H 464.624 -1.62121 0.0951353 0
M  V30 4890 H 466.621 -3.38484 -2.43381 0
M  V30 4891 H 465.281 -2.2095 -2.37931 0
M  V30 4892 H 466.292 -5.17611 -0.172872 0
M  V30 4893 H 462.969 -3.55845 -2.18359 0
M  V30 4894 H 464.359 -6.71005 0.346643 0
M  V30 4895 N 467.08 -0.0183926 -1.57589 0
M  V30 4896 C 468.012 0.995557 -2.06449 0
M  V30 4897 C 469.025 1.29556 -0.985849 0
M  V30 4898 O 470.214 1.2621 -1.26227 0
M  V30 4899 C 467.314 2.32572 -2.46502 0
M  V30 4900 C 466.487 2.21245 -3.77319 0
M  V30 4901 C 465.546 3.37104 -4.04039 0
M  V30 4902 O 464.572 3.14468 -4.74445 0
M  V30 4903 N 465.774 4.60553 -3.53372 0
M  V30 4904 H 468.539 0.578746 -2.94059 0
M  V30 4905 H 466.1 0.168603 -1.6102 0
M  V30 4906 H 468.092 3.08887 -2.61478 0
M  V30 4907 H 466.662 2.65931 -1.64315 0
M  V30 4908 H 465.882 1.29723 -3.72244 0
M  V30 4909 H 467.17 2.10868 -4.63047 0
M  V30 4910 H 466.568 4.81839 -2.96391 0
M  V30 4911 H 465.125 5.34072 -3.73644 0
M  V30 4912 N 468.558 1.5553 0.254621 0
M  V30 4913 C 469.788 1.80784 1.00004 0
M  V30 4914 C 470.196 0.59071 1.79742 0
M  V30 4915 O 469.539 -0.449988 1.78103 0
M  V30 4916 C 469.601 2.99268 1.99196 0
M  V30 4917 C 469.265 4.35595 1.38224 0
M  V30 4918 C 470.262 5.13884 0.788611 0
M  V30 4919 C 467.947 4.82281 1.40393 0
M  V30 4920 C 469.941 6.37004 0.224783 0
M  V30 4921 C 467.628 6.05351 0.836243 0
M  V30 4922 C 468.626 6.82551 0.24769 0
M  V30 4923 O 468.314 8.03297 -0.311249 0
M  V30 4924 H 468.046 0.60565 0.300274 0
M  V30 4925 H 470.6 2.03411 0.285143 0
M  V30 4926 H 468.83 2.72377 2.74496 0
M  V30 4927 H 470.519 3.11682 2.60018 0
M  V30 4928 H 471.285 4.78938 0.764423 0
M  V30 4929 H 467.164 4.22189 1.85142 0
M  V30 4930 H 470.708 6.97203 -0.235235 0
M  V30 4931 H 466.605 6.39776 0.857733 0
M  V30 4932 H 467.373 8.1825 -0.20237 0
M  V30 4933 N 470.036 -0.519951 1.48776 0
M  V30 4934 C 471.447 -1.10177 1.50725 0
M  V30 4935 C 471.798 -1.94153 0.282678 0
M  V30 4936 O 470.923 -2.07645 -0.609298 0
M  V30 4937 C 471.518 -2.00482 2.73116 0
M  V30 4938 C 470.077 -2.53862 2.77905 0
M  V30 4939 C 469.224 -1.31047 2.44381 0
M  V30 4940 H 472.175 -0.30473 1.55747 0
M  V30 4941 H 472.196 -2.8491 2.52203 0
M  V30 4942 H 471.708 -1.39335 3.62225 0
M  V30 4943 H 469.809 -3.18702 1.93029 0
M  V30 4944 H 469.922 -2.9231 3.79594 0
M  V30 4945 H 468.286 -1.62953 1.95751 0
M  V30 4946 H 469.069 -0.71637 3.35743 0
M  V30 4947 N 471.514 -1.37532 -0.769588 0
M  V30 4948 C 472.761 -1.3286 -1.52822 0
M  V30 4949 C 473.089 0.0862597 -1.94309 0
M  V30 4950 O 472.344 1.05995 -1.6451 0
M  V30 4951 C 472.643 -2.21558 -2.8044 0
M  V30 4952 C 472.309 -3.69796 -2.57996 0
M  V30 4953 C 470.971 -4.10194 -2.51583 0
M  V30 4954 C 473.323 -4.63699 -2.37976 0
M  V30 4955 C 470.651 -5.42608 -2.23144 0
M  V30 4956 C 473.003 -5.96353 -2.1106 0
M  V30 4957 C 471.667 -6.35853 -2.03093 0
M  V30 4958 H 470.937 -0.486168 -0.559215 0
M  V30 4959 H 473.584 -1.69757 -0.886277 0
M  V30 4960 H 471.889 -1.77663 -3.49204 0
M  V30 4961 H 473.586 -2.15256 -3.38328 0
M  V30 4962 H 470.176 -3.37759 -2.63851 0
M  V30 4963 H 474.36 -4.33346 -2.41919 0
M  V30 4964 H 469.616 -5.72173 -2.15472 0
M  V30 4965 H 473.79 -6.68667 -1.94568 0
M  V30 4966 H 471.417 -7.38382 -1.8082 0
M  V30 4967 N 472.992 0.995999 -1.22138 0
M  V30 4968 C 474.238 1.73767 -1.04561 0
M  V30 4969 C 474.571 1.89633 0.418698 0
M  V30 4970 O 473.846 1.43723 1.3105 0
M  V30 4971 C 474.129 3.14505 -1.75382 0
M  V30 4972 C 473.982 3.06306 -3.29388 0
M  V30 4973 C 475.301 4.13615 -1.50369 0
M  V30 4974 H 472.42 0.630728 -0.38125 0
M  V30 4975 H 475.062 1.16057 -1.50435 0
M  V30 4976 H 473.212 3.63775 -1.36383 0
M  V30 4977 H 474.884 2.64681 -3.77812 0
M  V30 4978 H 473.127 2.43186 -3.59226 0
M  V30 4979 H 473.798 4.05884 -3.74116 0
M  V30 4980 H 476.274 3.73089 -1.84239 0
M  V30 4981 H 475.15 5.10212 -2.02421 0
M  V30 4982 H 475.411 4.39949 -0.435611 0
M  V30 4983 N 474.47 1.03057 1.19235 0
M  V30 4984 C 475.716 0.729098 1.89241 0
M  V30 4985 C 476.049 -0.740573 1.79525 0
M  V30 4986 O 475.324 -1.53946 1.18874 0
M  V30 4987 C 475.607 1.18304 3.40112 0
M  V30 4988 C 475.46 2.71406 3.5869 0
M  V30 4989 C 476.779 0.765161 4.33397 0
M  V30 4990 H 473.898 0.266338 0.687192 0
M  V30 4991 H 476.54 1.28079 1.40341 0
M  V30 4992 H 474.69 0.713672 3.81889 0
M  V30 4993 H 476.362 3.26303 3.26074 0
M  V30 4994 H 474.605 3.11717 3.01687 0
M  V30 4995 H 475.276 2.98225 4.64506 0
M  V30 4996 H 477.752 1.16889 3.99345 0
M  V30 4997 H 476.628 1.11065 5.37546 0
M  V30 4998 H 476.889 -0.332372 4.40849 0
M  V30 4999 N 475.948 -1.35272 0.808662 0
M  V30 5000 C 476.878 -2.32315 0.234981 0
M  V30 5001 C 477.859 -1.57572 -0.64071 0
M  V30 5002 O 479.044 -1.8563 -0.570551 0
M  V30 5003 C 476.174 -3.41801 -0.615601 0
M  V30 5004 C 475.128 -4.27694 0.161767 0
M  V30 5005 C 474.454 -5.28519 -0.810649 0
M  V30 5006 C 475.754 -5.04231 1.36193 0
M  V30 5007 H 477.448 -2.80543 1.04575 0
M  V30 5008 H 474.994 -1.3488 0.504315 0
M  V30 5009 H 476.947 -4.08693 -1.02702 0
M  V30 5010 H 475.671 -2.92186 -1.45928 0
M  V30 5011 H 474.33 -3.62384 0.554382 0
M  V30 5012 H 473.978 -4.75171 -1.64988 0
M  V30 5013 H 473.678 -5.8686 -0.294822 0
M  V30 5014 H 475.202 -5.98283 -1.22023 0
M  V30 5015 H 476.616 -5.64058 1.02528 0
M  V30 5016 H 475.013 -5.72077 1.81239 0
M  V30 5017 H 476.083 -4.34753 2.14751 0
M  V30 5018 N 477.426 -0.562348 -1.47226 0
M  V30 5019 C 478.374 0.195476 -2.31777 0
M  V30 5020 C 479.368 0.90433 -1.43242 0
M  V30 5021 O 480.574 0.825031 -1.59979 0
M  V30 5022 H 476.949 0.0819095 -0.747526 0
M  V30 5023 H 478.92 -0.536753 -2.93533 0
M  V30 5024 C 477.669 1.20902 -3.26003 0
M  V30 5025 H 476.992 0.672997 -3.94095 0
M  V30 5026 H 478.432 1.71006 -3.87986 0
M  V30 5027 C 476.891 2.25955 -2.49891 0
M  V30 5028 O 477.421 3.32969 -2.2471 0
M  V30 5029 N 475.627 2.00019 -2.1081 0
M  V30 5030 H 475.174 1.13006 -2.31489 0
M  V30 5031 H 475.132 2.70523 -1.60201 0
M  V30 5032 N 478.904 1.54736 -0.299062 0
M  V30 5033 C 480.153 1.99279 0.311549 0
M  V30 5034 C 480.466 1.19107 1.55154 0
M  V30 5035 O 481.672 1.53908 2.23662 0
M  V30 5036 C 480.128 3.54768 0.605632 0
M  V30 5037 C 479.736 4.43746 -0.615914 0
M  V30 5038 C 481.48 4.07841 1.17754 0
M  V30 5039 C 479.387 5.90663 -0.29509 0
M  V30 5040 H 478.317 0.744359 0.120187 0
M  V30 5041 H 480.968 1.78919 -0.407464 0
M  V30 5042 H 479.35 3.71021 1.38419 0
M  V30 5043 H 480.524 4.39267 -1.39218 0
M  V30 5044 H 478.839 4.01434 -1.10633 0
M  V30 5045 H 481.436 5.15174 1.43179 0
M  V30 5046 H 481.779 3.58324 2.11918 0
M  V30 5047 H 482.312 3.95123 0.460739 0
M  V30 5048 H 479.051 6.44325 -1.20524 0
M  V30 5049 H 478.571 5.98155 0.44394 0
M  V30 5050 H 480.25 6.46916 0.104048 0
M  V30 5051 N 480.382 0.0267497 1.57577 0
M  V30 5052 C 481.607 -0.666227 1.96408 0
M  V30 5053 C 482.032 -1.65004 0.903071 0
M  V30 5054 O 481.39 -1.80787 -0.136263 0
M  V30 5055 C 481.438 -1.35101 3.34335 0
M  V30 5056 O 480.542 -2.46623 3.30531 0
M  V30 5057 H 479.883 -0.175206 0.640468 0
M  V30 5058 H 482.413 0.0878977 2.04411 0
M  V30 5059 H 482.423 -1.70834 3.70513 0
M  V30 5060 H 481.098 -0.629844 4.11103 0
M  V30 5061 H 479.675 -2.13019 3.06068 0
M  V30 5062 N 481.861 -1.55662 -0.24637 0
M  V30 5063 C 483.107 -1.77782 -0.975779 0
M  V30 5064 C 483.44 -0.592103 -1.84953 0
M  V30 5065 O 482.715 0.409588 -1.90138 0
M  V30 5066 C 482.998 -3.09788 -1.83584 0
M  V30 5067 C 482.851 -4.38764 -0.990241 0
M  V30 5068 C 484.17 -3.38029 -2.81823 0
M  V30 5069 H 481.289 -0.646789 -0.353317 0
M  V30 5070 H 483.931 -1.88398 -0.246248 0
M  V30 5071 H 482.081 -3.00869 -2.45784 0
M  V30 5072 H 483.753 -4.59675 -0.386897 0
M  V30 5073 H 481.996 -4.32798 -0.294626 0
M  V30 5074 H 482.667 -5.27514 -1.62584 0
M  V30 5075 H 485.143 -3.46915 -2.2976 0
M  V30 5076 H 484.019 -4.3161 -3.39122 0
M  V30 5077 H 484.28 -2.58968 -3.58313 0
M  V30 5078 N 483.339 0.512053 -1.4905 0
M  V30 5079 C 484.616 1.27337 -1.48474 0
M  V30 5080 C 484.996 2.1009 -0.206301 0
M  V30 5081 O 484.344 2.136 0.811609 0
M  V30 5082 C 484.554 2.13954 -2.75726 0
M  V30 5083 C 485.902 2.73507 -3.24776 0
M  V30 5084 O 486.926 2.24229 -2.76767 0
M  V30 5085 O 485.785 3.63186 -4.08361 0
M  V30 5086 H 482.879 0.575652 -0.593762 0
M  V30 5087 H 485.425 0.527232 -1.61302 0
M  V30 5088 H 484.197 1.52709 -3.60272 0
M  V30 5089 H 483.82 2.95782 -2.65705 0
M  V30 5090 N 484.817 1.37938 0.762283 0
M  V30 5091 C 486.042 1.37059 1.55659 0
M  V30 5092 C 486.467 -0.0396123 1.88058 0
M  V30 5093 O 485.825 -1.01929 1.49934 0
M  V30 5094 C 485.873 2.22494 2.83776 0
M  V30 5095 O 484.977 1.63607 3.78559 0
M  V30 5096 H 484.318 0.467892 0.47114 0
M  V30 5097 H 486.848 1.81587 0.942725 0
M  V30 5098 H 486.858 2.36045 3.32786 0
M  V30 5099 H 485.533 3.24993 2.59524 0
M  V30 5100 H 484.11 1.5915 3.37233 0
M  V30 5101 N 486.295 -0.989507 1.22664 0
M  V30 5102 C 487.205 -2.11449 1.01619 0
M  V30 5103 C 488.221 -1.73962 -0.036545 0
M  V30 5104 O 489.397 -2.00788 0.156924 0
M  V30 5105 C 486.462 -3.41465 0.600204 0
M  V30 5106 C 485.523 -3.93033 1.72695 0
M  V30 5107 C 484.756 -5.16844 1.33071 0
M  V30 5108 O 484.979 -5.7001 0.210975 0
M  V30 5109 O 483.913 -5.6225 2.14845 0
M  V30 5110 H 487.739 -2.32088 1.9588 0
M  V30 5111 H 485.324 -1.09823 1.01289 0
M  V30 5112 H 487.206 -4.19695 0.37873 0
M  V30 5113 H 485.881 -3.22178 -0.313511 0
M  V30 5114 H 484.788 -3.15961 2.00298 0
M  V30 5115 H 486.121 -4.16758 2.61865 0
M  V30 5116 N 487.773 -1.03688 -1.18687 0
M  V30 5117 C 489.013 -0.746858 -1.90267 0
M  V30 5118 C 489.377 0.712075 -1.78307 0
M  V30 5119 O 490.578 1.11553 -2.44559 0
M  V30 5120 C 488.849 -1.19543 -3.36815 0
M  V30 5121 S 490.408 -1.03047 -4.26529 0
M  V30 5122 H 487.226 -0.271663 -0.657054 0
M  V30 5123 H 489.828 -1.32838 -1.43437 0
M  V30 5124 H 488.532 -2.2527 -3.43047 0
M  V30 5125 H 488.063 -0.607533 -3.88681 0
M  V30 5126 H 490.078 0.0543232 -4.9617 0
M  V30 5127 N 489.251 1.34841 -0.815825 0
M  V30 5128 C 490.497 1.98793 -0.401129 0
M  V30 5129 C 490.83 1.64548 1.03139 0
M  V30 5130 O 490.105 0.913487 1.71714 0
M  V30 5131 C 490.388 3.55143 -0.595409 0
M  V30 5132 C 490.241 3.99155 -2.07352 0
M  V30 5133 C 491.56 4.40092 -0.0268823 0
M  V30 5134 H 488.679 0.722146 -0.14722 0
M  V30 5135 H 491.321 1.59847 -1.02707 0
M  V30 5136 H 489.471 3.8845 -0.0625779 0
M  V30 5137 H 491.143 3.76216 -2.66945 0
M  V30 5138 H 489.386 3.49726 -2.56659 0
M  V30 5139 H 490.057 5.07971 -2.1603 0
M  V30 5140 H 492.533 4.13298 -0.482042 0
M  V30 5141 H 491.409 5.48562 -0.19267 0
M  V30 5142 H 491.67 4.29016 1.06759 0
M  V30 5143 N 490.729 0.570148 1.46925 0
M  V30 5144 C 492.006 -0.0153259 1.95594 0
M  V30 5145 C 492.386 -1.47232 1.51281 0
M  V30 5146 O 491.734 -2.15574 0.757624 0
M  V30 5147 C 491.944 0.143624 3.48704 0
M  V30 5148 C 493.292 0.00494484 4.246 0
M  V30 5149 O 494.316 0.0718214 3.56128 0
M  V30 5150 O 493.175 -0.141175 5.46318 0
M  V30 5151 H 490.269 -0.0568819 0.825041 0
M  V30 5152 H 492.815 0.637583 1.57267 0
M  V30 5153 H 491.587 1.15699 3.73804 0
M  V30 5154 H 491.21 -0.5463 3.93829 0
M  V30 5155 N 492.207 -1.54576 0.307264 0
M  V30 5156 C 493.456 -1.99442 -0.300976 0
M  V30 5157 C 493.769 -1.19928 -1.5452 0
M  V30 5158 O 494.975 -1.55092 -2.22842 0
M  V30 5159 C 493.431 -3.55084 -0.586809 0
M  V30 5160 C 493.039 -4.43413 0.639438 0
M  V30 5161 C 494.783 -4.0846 -1.1559 0
M  V30 5162 C 492.69 -5.90499 0.326411 0
M  V30 5163 H 491.62 -0.744986 -0.116238 0
M  V30 5164 H 494.271 -1.787 0.416947 0
M  V30 5165 H 492.653 -3.71749 -1.36449 0
M  V30 5166 H 493.827 -4.38522 1.41545 0
M  V30 5167 H 492.142 -4.00842 1.1276 0
M  V30 5168 H 494.739 -5.15926 -1.40445 0
M  V30 5169 H 495.082 -3.59443 -2.10015 0
M  V30 5170 H 495.615 -3.95362 -0.439778 0
M  V30 5171 H 492.354 -6.43676 1.23939 0
M  V30 5172 H 491.874 -5.98382 -0.412212 0
M  V30 5173 H 493.553 -6.46962 -0.0697393 0
M  V30 5174 N 493.685 -0.035106 -1.57561 0
M  V30 5175 C 494.633 0.962707 -2.11742 0
M  V30 5176 C 495.627 1.33296 -1.0454 0
M  V30 5177 O 496.833 1.31449 -1.22968 0
M  V30 5178 H 493.208 0.32826 -0.676572 0
M  V30 5179 H 495.179 0.48048 -2.94506 0
M  V30 5180 C 493.928 2.23388 -2.66445 0
M  V30 5181 H 493.251 1.95774 -3.48587 0
M  V30 5182 H 494.691 2.91402 -3.07995 0
M  V30 5183 C 493.15 2.96769 -1.59467 0
M  V30 5184 O 493.68 3.89105 -0.998 0
M  V30 5185 N 491.886 2.59212 -1.31369 0
M  V30 5186 H 491.433 1.84202 -1.80076 0
M  V30 5187 H 491.391 3.08618 -0.600173 0
M  V30 5188 N 495.163 1.55791 0.238111 0
M  V30 5189 C 496.409 1.78297 0.966337 0
M  V30 5190 C 496.742 0.601903 1.84637 0
M  V30 5191 O 496.017 -0.399499 1.90353 0
M  V30 5192 C 496.3 3.10758 1.81939 0
M  V30 5193 C 496.153 4.39283 0.966958 0
M  V30 5194 C 497.472 3.39519 2.80027 0
M  V30 5195 H 494.591 0.648654 0.349882 0
M  V30 5196 H 497.233 1.88525 0.236253 0
M  V30 5197 H 495.383 3.02168 2.44185 0
M  V30 5198 H 497.055 4.59873 0.362514 0
M  V30 5199 H 495.298 4.32948 0.271669 0
M  V30 5200 H 495.969 5.28368 1.59784 0
M  V30 5201 H 498.445 3.48128 2.27917 0
M  V30 5202 H 497.321 4.33402 3.36829 0
M  V30 5203 H 497.582 2.60864 3.56934 0
M  V30 5204 N 496.642 -0.504142 1.49319 0
M  V30 5205 C 497.87 -1.28256 1.62351 0
M  V30 5206 C 498.285 -1.86502 0.293682 0
M  V30 5207 O 497.642 -1.67678 -0.720449 0
M  V30 5208 C 497.693 -2.41507 2.68992 0
M  V30 5209 O 497.414 -1.85656 3.96817 0
M  V30 5210 C 498.915 -3.32929 2.927 0
M  V30 5211 H 496.135 -0.389115 0.546654 0
M  V30 5212 H 498.679 -0.605531 1.95329 0
M  V30 5213 H 496.834 -3.05046 2.38801 0
M  V30 5214 H 497.248 -2.59981 4.55533 0
M  V30 5215 H 498.722 -4.0868 3.71058 0
M  V30 5216 H 499.199 -3.89733 2.02496 0
M  V30 5217 H 499.805 -2.75158 3.24296 0
M  V30 5218 N 498.12 -1.38341 -0.754957 0
M  V30 5219 C 499.531 -1.30803 -1.3322 0
M  V30 5220 C 499.882 0.0368 -1.96165 0
M  V30 5221 O 499.007 0.938844 -1.94974 0
M  V30 5222 C 499.602 -2.3688 -2.42225 0
M  V30 5223 C 498.161 -2.32925 -2.95674 0
M  V30 5224 C 497.308 -2.19819 -1.69042 0
M  V30 5225 H 500.259 -1.48719 -0.553937 0
M  V30 5226 H 500.28 -2.02517 -3.22129 0
M  V30 5227 H 499.792 -3.34747 -1.96383 0
M  V30 5228 H 497.893 -1.38635 -3.45848 0
M  V30 5229 H 498.006 -3.27008 -3.50146 0
M  V30 5230 H 496.37 -1.66648 -1.92615 0
M  V30 5231 H 497.153 -3.19625 -1.25279 0
M  V30 5232 N 499.598 0.982988 -1.23187 0
M  V30 5233 C 500.875 1.69814 -0.970707 0
M  V30 5234 C 501.255 2.04811 0.511424 0
M  V30 5235 O 500.603 1.73924 1.48198 0
M  V30 5236 C 500.813 2.94143 -1.87831 0
M  V30 5237 C 502.161 3.66712 -2.14026 0
M  V30 5238 O 503.185 3.04171 -1.8536 0
M  V30 5239 O 502.044 4.79258 -2.62629 0
M  V30 5240 H 499.138 0.741659 -0.365884 0
M  V30 5241 H 501.684 1.03844 -1.34218 0
M  V30 5242 H 500.456 2.64858 -2.88038 0
M  V30 5243 H 500.079 3.6785 -1.50905 0
M  V30 5244 N 501.076 1.04316 1.18135 0
M  V30 5245 C 502.023 0.636398 2.21853 0
M  V30 5246 C 502.993 -0.357039 1.62217 0
M  V30 5247 O 504.178 -0.250453 1.89149 0
M  V30 5248 C 501.318 0.00812779 3.45099 0
M  V30 5249 C 500.431 1.04933 4.19062 0
M  V30 5250 C 499.566 0.389313 5.29771 0
M  V30 5251 C 498.605 1.41544 5.9551 0
M  V30 5252 N 497.742 0.78021 6.97751 0
M  V30 5253 H 502.582 1.52536 2.56002 0
M  V30 5254 H 500.119 0.76304 1.25762 0
M  V30 5255 H 502.077 -0.373497 4.15525 0
M  V30 5256 H 500.707 -0.844336 3.11562 0
M  V30 5257 H 499.759 1.54888 3.47439 0
M  V30 5258 H 501.071 1.82862 4.64072 0
M  V30 5259 H 500.225 -0.0463805 6.06682 0
M  V30 5260 H 498.964 -0.422038 4.8587 0
M  V30 5261 H 497.969 1.86124 5.17337 0
M  V30 5262 H 499.194 2.22854 6.41493 0
M  V30 5263 H 497.14 -0.0107899 6.55999 0
M  V30 5264 H 497.057 1.49716 7.41027 0
M  V30 5265 H 498.325 0.368996 7.78626 0
M  V30 5266 N 502.554 -1.34406 0.822964 0
M  V30 5267 C 503.97 -1.51275 0.508727 0
M  V30 5268 C 504.17 -1.76776 -0.967083 0
M  V30 5269 O 503.226 -1.81871 -1.75155 0
M  V30 5270 C 504.539 -2.67765 1.36829 0
M  V30 5271 C 506.087 -2.81647 1.36542 0
M  V30 5272 C 506.562 -4.01181 2.20947 0
M  V30 5273 N 508.053 -4.08388 2.18571 0
M  V30 5274 C 508.788 -5.00036 2.80627 0
M  V30 5275 N 508.284 -5.96906 3.51674 0
M  V30 5276 N 510.077 -4.92908 2.70181 0
M  V30 5277 H 502.228 -1.16113 1.77852 0
M  V30 5278 H 504.491 -0.56947 0.757897 0
M  V30 5279 H 504.197 -2.55551 2.41633 0
M  V30 5280 H 504.071 -3.62779 1.03303 0
M  V30 5281 H 506.458 -2.93303 0.325163 0
M  V30 5282 H 506.539 -1.87443 1.74066 0
M  V30 5283 H 506.183 -3.90286 3.25022 0
M  V30 5284 H 506.113 -4.94599 1.80774 0
M  V30 5285 H 508.604 -3.39051 1.66891 0
M  V30 5286 H 508.917 -6.63468 3.96271 0
M  V30 5287 H 507.262 -5.9703 3.5578 0
M  V30 5288 H 510.453 -4.1619 2.14251 0
M  V30 5289 H 510.626 -5.64137 3.18831 0
M  V30 5290 N 504.032 -0.577932 -1.46621 0
M  V30 5291 C 504.964 0.195801 -2.28362 0
M  V30 5292 C 505.977 0.859983 -1.38232 0
M  V30 5293 O 507.166 0.730349 -1.62875 0
M  V30 5294 C 504.266 1.29639 -3.13124 0
M  V30 5295 C 503.439 0.725049 -4.31349 0
M  V30 5296 C 502.498 1.71274 -4.97546 0
M  V30 5297 O 501.524 1.25067 -5.5529 0
M  V30 5298 N 502.726 3.04672 -4.94121 0
M  V30 5299 H 505.491 -0.505468 -2.95407 0
M  V30 5300 H 503.052 -0.415381 -1.56481 0
M  V30 5301 H 505.044 1.95631 -3.54275 0
M  V30 5302 H 503.614 1.90059 -2.48186 0
M  V30 5303 H 502.834 -0.112205 -3.9404 0
M  V30 5304 H 504.122 0.323034 -5.07774 0
M  V30 5305 H 503.52 3.4484 -4.48444 0
M  V30 5306 H 502.077 3.66166 -5.39227 0
M  V30 5307 N 505.51 1.54411 -0.315457 0
M  V30 5308 C 506.759 1.99599 0.290395 0
M  V30 5309 C 507.072 1.20746 1.53882 0
M  V30 5310 O 508.278 1.56272 2.22017 0
M  V30 5311 C 506.734 3.5539 0.56797 0
M  V30 5312 C 506.342 4.43068 -0.662945 0
M  V30 5313 C 508.086 4.09067 1.13422 0
M  V30 5314 C 505.993 5.90317 -0.357722 0
M  V30 5315 H 504.923 0.745592 0.112286 0
M  V30 5316 H 507.574 1.78477 -0.426418 0
M  V30 5317 H 505.956 3.72468 1.34476 0
M  V30 5318 H 507.13 4.37765 -1.43869 0
M  V30 5319 H 505.445 4.00238 -1.14884 0
M  V30 5320 H 508.042 5.16663 1.37707 0
M  V30 5321 H 508.385 3.60552 2.08106 0
M  V30 5322 H 508.918 3.95589 0.418805 0
M  V30 5323 H 505.657 6.4301 -1.27351 0
M  V30 5324 H 505.177 5.98592 0.380472 0
M  V30 5325 H 506.856 6.4699 0.0354284 0
M  V30 5326 N 506.988 0.0434614 1.5754 0
M  V30 5327 C 507.918 -0.931651 2.14109 0
M  V30 5328 C 508.899 -1.32971 1.06079 0
M  V30 5329 O 510.084 -1.40579 1.33982 0
M  V30 5330 C 507.214 -2.20914 2.67982 0
M  V30 5331 C 506.168 -1.95139 3.80926 0
M  V30 5332 C 505.494 -3.29276 4.21285 0
M  V30 5333 C 506.794 -1.27913 5.06395 0
M  V30 5334 H 508.488 -0.460497 2.95837 0
M  V30 5335 H 506.034 -0.220058 1.42309 0
M  V30 5336 H 507.987 -2.89522 3.06194 0
M  V30 5337 H 506.711 -2.70221 1.83434 0
M  V30 5338 H 505.37 -1.28945 3.43175 0
M  V30 5339 H 505.018 -3.76369 3.33699 0
M  V30 5340 H 504.718 -3.12831 4.97404 0
M  V30 5341 H 506.242 -3.99129 4.62091 0
M  V30 5342 H 507.656 -1.86544 5.42102 0
M  V30 5343 H 506.053 -1.2182 5.87605 0
M  V30 5344 H 507.123 -0.254066 4.84234 0
M  V30 5345 N 508.466 -1.55915 -0.229846 0
M  V30 5346 C 509.396 -1.94754 -1.28815 0
M  V30 5347 C 510.377 -0.814657 -1.49323 0
M  V30 5348 O 511.562 -1.07631 -1.61645 0
M  V30 5349 C 508.692 -2.25705 -2.63959 0
M  V30 5350 C 507.646 -3.41406 -2.5812 0
M  V30 5351 C 506.972 -3.57941 -3.97218 0
M  V30 5352 C 508.272 -4.76616 -2.13623 0
M  V30 5353 H 509.966 -2.83404 -0.965547 0
M  V30 5354 H 507.512 -1.36353 -0.463028 0
M  V30 5355 H 509.465 -2.51467 -3.38146 0
M  V30 5356 H 508.189 -1.339 -2.9789 0
M  V30 5357 H 506.848 -3.1568 -1.86391 0
M  V30 5358 H 506.496 -2.63526 -4.28443 0
M  V30 5359 H 506.196 -4.35757 -3.94195 0
M  V30 5360 H 507.72 -3.86042 -4.73079 0
M  V30 5361 H 509.134 -5.01637 -2.77549 0
M  V30 5362 H 507.531 -5.57655 -2.21677 0
M  V30 5363 H 508.601 -4.7253 -1.08829 0
M  V30 5364 N 509.944 0.496216 -1.49584 0
M  V30 5365 C 510.876 1.61404 -1.62731 0
M  V30 5366 C 511.889 1.54613 -0.50978 0
M  V30 5367 O 513.078 1.60458 -0.782017 0
M  V30 5368 C 510.178 3.00212 -1.57245 0
M  V30 5369 C 509.351 3.32138 -2.84611 0
M  V30 5370 C 508.41 4.5038 -2.72112 0
M  V30 5371 O 507.436 4.51926 -3.46051 0
M  V30 5372 N 508.638 5.50575 -1.83977 0
M  V30 5373 H 511.403 1.50552 -2.59141 0
M  V30 5374 H 508.964 0.684182 -1.46733 0
M  V30 5375 H 510.956 3.77241 -1.4653 0
M  V30 5376 H 509.526 3.04964 -0.686729 0
M  V30 5377 H 508.746 2.4396 -3.09641 0
M  V30 5378 H 510.034 3.50268 -3.69039 0
M  V30 5379 H 509.432 5.52128 -1.23171 0
M  V30 5380 H 507.989 6.26687 -1.79182 0
M  V30 5381 N 511.423 1.38739 0.74761 0
M  V30 5382 C 512.333 1.38696 1.89211 0
M  V30 5383 C 513.349 0.283303 1.71678 0
M  V30 5384 O 514.525 0.522713 1.94498 0
M  V30 5385 C 511.59 1.21662 3.24653 0
M  V30 5386 C 510.651 2.41886 3.54669 0
M  V30 5387 C 509.884 2.25655 4.83648 0
M  V30 5388 O 510.107 1.25339 5.56459 0
M  V30 5389 O 509.041 3.14372 5.13277 0
M  V30 5390 H 512.867 2.35143 1.92202 0
M  V30 5391 H 510.452 1.19721 0.893708 0
M  V30 5392 H 512.334 1.14246 4.05618 0
M  V30 5393 H 511.009 0.283024 3.2246 0
M  V30 5394 H 509.916 2.54877 2.73841 0
M  V30 5395 H 511.249 3.33895 3.61628 0
M  V30 5396 N 512.901 -0.976442 1.23707 0
M  V30 5397 C 513.811 -2.10359 1.03856 0
M  V30 5398 C 514.827 -1.73991 -0.0180919 0
M  V30 5399 O 516.003 -2.0061 0.178211 0
M  V30 5400 C 513.068 -3.40809 0.636387 0
M  V30 5401 C 512.129 -3.91179 1.76854 0
M  V30 5402 C 511.362 -5.15404 1.38546 0
M  V30 5403 O 511.585 -5.69754 0.27142 0
M  V30 5404 O 510.519 -5.5994 2.20797 0
M  V30 5405 H 514.345 -2.29997 1.98331 0
M  V30 5406 H 511.93 -1.08742 1.02448 0
M  V30 5407 H 513.812 -4.19269 0.423223 0
M  V30 5408 H 512.487 -3.22493 -0.279322 0
M  V30 5409 H 511.394 -3.13819 2.03638 0
M  V30 5410 H 512.727 -4.13958 2.6627 0
M  V30 5411 N 514.379 -1.04941 -1.1758 0
M  V30 5412 C 515.326 -0.648155 -2.21512 0
M  V30 5413 C 516.296 0.348431 -1.62404 0
M  V30 5414 O 517.481 0.240419 -1.89279 0
M  V30 5415 C 514.621 -0.0264291 -3.4509 0
M  V30 5416 C 513.734 -1.07154 -4.185 0
M  V30 5417 C 512.869 -0.417403 -5.29558 0
M  V30 5418 C 511.908 -1.447 -5.94751 0
M  V30 5419 N 511.045 -0.817203 -6.97328 0
M  V30 5420 H 515.885 -1.53891 -2.55189 0
M  V30 5421 H 513.422 -0.769699 -1.25356 0
M  V30 5422 H 515.38 0.351456 -4.15717 0
M  V30 5423 H 514.01 0.827802 -3.12005 0
M  V30 5424 H 513.062 -1.56728 -3.46613 0
M  V30 5425 H 514.374 -1.8532 -4.63096 0
M  V30 5426 H 513.528 0.0142061 -6.06698 0
M  V30 5427 H 512.267 0.396265 -4.86087 0
M  V30 5428 H 511.272 -1.88865 -5.16343 0
M  V30 5429 H 512.497 -2.26252 -6.40302 0
M  V30 5430 H 510.443 -0.0239995 -6.55996 0
M  V30 5431 H 510.36 -1.53644 -7.40223 0
M  V30 5432 H 511.628 -0.410283 -7.7842 0
M  V30 5433 N 515.857 1.33968 -0.830081 0
M  V30 5434 C 516.787 2.31911 -0.271911 0
M  V30 5435 C 517.768 1.58571 0.61556 0
M  V30 5436 O 518.953 1.86514 0.540946 0
M  V30 5437 C 516.083 3.42737 0.561146 0
M  V30 5438 C 515.037 4.27383 -0.229789 0
M  V30 5439 C 514.363 5.29742 0.726463 0
M  V30 5440 C 515.663 5.02 -1.44197 0
M  V30 5441 H 517.357 2.78844 -1.09025 0
M  V30 5442 H 514.903 1.34061 -0.52571 0
M  V30 5443 H 516.856 4.10276 0.961867 0
M  V30 5444 H 515.58 2.94471 1.41261 0
M  V30 5445 H 514.239 3.61456 -0.611964 0
M  V30 5446 H 513.887 4.77736 1.57408 0
M  V30 5447 H 513.587 5.87255 0.20142 0
M  V30 5448 H 515.111 6.00149 1.12489 0
M  V30 5449 H 516.525 5.62355 -1.11488 0
M  V30 5450 H 514.922 5.69122 -1.90317 0
M  V30 5451 H 515.992 4.31281 -2.2164 0
M  V30 5452 N 517.335 0.585699 1.46312 0
M  V30 5453 C 518.265 -0.133556 2.33118 0
M  V30 5454 C 519.246 -0.880707 1.45525 0
M  V30 5455 O 520.431 -0.855579 1.74337 0
M  V30 5456 C 517.561 -1.14585 3.27853 0
M  V30 5457 C 516.515 -0.513341 4.2491 0
M  V30 5458 C 515.841 -1.63231 5.09175 0
M  V30 5459 C 517.141 0.551413 5.19381 0
M  V30 5460 H 518.835 0.59121 2.93505 0
M  V30 5461 H 516.381 0.285761 1.41136 0
M  V30 5462 H 518.334 -1.65741 3.87438 0
M  V30 5463 H 517.058 -1.90093 2.65579 0
M  V30 5464 H 515.717 -0.0228349 3.66593 0
M  V30 5465 H 515.365 -2.37713 4.43285 0
M  V30 5466 H 515.065 -1.21473 5.74907 0
M  V30 5467 H 516.589 -2.14658 5.71624 0
M  V30 5468 H 518.003 0.124804 5.73164 0
M  V30 5469 H 516.4 0.889486 5.93471 0
M  V30 5470 H 517.47 1.43655 4.63132 0
M  V30 5471 N 518.813 -1.54241 0.323641 0
M  V30 5472 C 519.743 -2.27289 -0.534993 0
M  V30 5473 C 520.724 -1.28087 -1.11927 0
M  V30 5474 O 521.909 -1.56899 -1.14439 0
M  V30 5475 C 519.039 -3.03075 -1.69596 0
M  V30 5476 C 517.993 -4.09614 -1.24098 0
M  V30 5477 C 517.319 -4.73242 -2.4889 0
M  V30 5478 C 518.619 -5.21087 -0.355789 0
M  V30 5479 H 520.313 -2.99308 0.0743257 0
M  V30 5480 H 517.859 -1.43952 0.0371874 0
M  V30 5481 H 519.812 -3.52907 -2.30293 0
M  V30 5482 H 518.536 -2.28673 -2.33187 0
M  V30 5483 H 517.195 -3.60666 -0.656945 0
M  V30 5484 H 516.843 -3.95455 -3.10845 0
M  V30 5485 H 516.543 -5.45209 -2.19138 0
M  V30 5486 H 518.067 -5.25848 -3.10348 0
M  V30 5487 H 519.481 -5.66675 -0.869042 0
M  V30 5488 H 517.878 -5.9991 -0.151045 0
M  V30 5489 H 518.948 -4.81005 0.613339 0
M  V30 5490 N 520.291 -0.0518155 -1.57515 0
M  V30 5491 C 521.254 0.907547 -2.10467 0
M  V30 5492 C 522.254 1.23947 -1.02439 0
M  V30 5493 O 523.444 1.17604 -1.2851 0
M  V30 5494 C 520.576 2.21723 -2.58944 0
M  V30 5495 H 521.769 0.44851 -2.96527 0
M  V30 5496 H 519.322 0.196598 -1.55059 0
M  V30 5497 H 520.057 2.72206 -1.76279 0
M  V30 5498 H 519.842 1.98935 -3.37886 0
M  V30 5499 H 521.332 2.90441 -3.00056 0
M  V30 5500 N 521.769 1.56035 0.221574 0
M  V30 5501 C 523.015 1.79312 0.947372 0
M  V30 5502 C 523.348 0.621453 1.83988 0
M  V30 5503 O 522.623 -0.379287 1.90766 0
M  V30 5504 C 522.906 3.1267 1.78633 0
M  V30 5505 C 522.759 4.40284 0.920312 0
M  V30 5506 C 524.078 3.4247 2.7641 0
M  V30 5507 H 521.197 0.652328 0.342982 0
M  V30 5508 H 523.839 1.88765 0.216244 0
M  V30 5509 H 521.989 3.04741 2.40967 0
M  V30 5510 H 523.661 4.60232 0.313718 0
M  V30 5511 H 521.904 4.33212 0.225734 0
M  V30 5512 H 522.575 5.30033 1.54171 0
M  V30 5513 H 525.051 3.50526 2.24211 0
M  V30 5514 H 523.927 4.3695 3.32213 0
M  V30 5515 H 524.188 2.64635 3.54148 0
M  V30 5516 N 523.247 -0.488276 1.49845 0
M  V30 5517 C 524.177 -1.59675 1.70371 0
M  V30 5518 C 525.158 -1.60878 0.552473 0
M  V30 5519 O 526.343 -1.77417 0.78973 0
M  V30 5520 C 523.473 -2.98098 1.782 0
M  V30 5521 C 522.427 -3.11761 2.93239 0
M  V30 5522 C 521.753 -4.51661 2.86193 0
M  V30 5523 C 523.053 -2.90589 4.33999 0
M  V30 5524 H 524.747 -1.42752 2.63177 0
M  V30 5525 H 522.293 -0.685317 1.26647 0
M  V30 5526 H 524.246 -3.75555 1.91144 0
M  V30 5527 H 522.97 -3.16138 0.820018 0
M  V30 5528 H 521.629 -2.36732 2.79917 0
M  V30 5529 H 521.277 -4.66595 1.87877 0
M  V30 5530 H 520.977 -4.61742 3.63412 0
M  V30 5531 H 522.501 -5.31162 3.01163 0
M  V30 5532 H 523.915 -3.57807 4.47936 0
M  V30 5533 H 522.312 -3.1213 5.12538 0
M  V30 5534 H 523.382 -1.86595 4.4756 0
M  V30 5535 N 524.725 -1.39134 -0.740242 0
M  V30 5536 C 525.672 -1.37434 -1.8542 0
M  V30 5537 C 526.642 -0.234822 -1.64432 0
M  V30 5538 O 527.827 -0.429125 -1.85912 0
M  V30 5539 C 524.967 -1.21844 -3.22875 0
M  V30 5540 C 524.08 -2.45296 -3.55603 0
M  V30 5541 C 523.215 -2.22334 -4.82432 0
M  V30 5542 C 522.254 -3.41488 -5.07988 0
M  V30 5543 N 521.391 -3.17877 -6.26018 0
M  V30 5544 H 526.231 -2.3266 -1.86207 0
M  V30 5545 H 523.768 -1.15578 -0.909946 0
M  V30 5546 H 525.726 -1.10818 -4.02213 0
M  V30 5547 H 524.356 -0.3025 -3.21379 0
M  V30 5548 H 523.408 -2.66945 -2.71006 0
M  V30 5549 H 524.72 -3.34063 -3.7041 0
M  V30 5550 H 523.874 -2.0852 -5.69741 0
M  V30 5551 H 522.613 -1.30954 -4.6979 0
M  V30 5552 H 521.618 -3.55807 -4.19144 0
M  V30 5553 H 522.843 -4.33763 -5.22519 0
M  V30 5554 H 520.789 -2.29156 -6.14673 0
M  V30 5555 H 520.706 -4.00198 -6.41387 0
M  V30 5556 H 521.974 -3.07746 -7.16179 0
M  V30 5557 N 526.204 0.969867 -1.24223 0
M  V30 5558 C 527.432 1.74756 -1.10761 0
M  V30 5559 C 527.847 1.85713 0.340041 0
M  V30 5560 O 527.204 1.34389 1.23474 0
M  V30 5561 C 527.255 3.16915 -1.73917 0
M  V30 5562 O 526.976 3.06511 -3.13021 0
M  V30 5563 C 528.477 4.11032 -1.66036 0
M  V30 5564 H 525.697 0.548092 -0.387087 0
M  V30 5565 H 528.241 1.2178 -1.64286 0
M  V30 5566 H 526.396 3.66884 -1.244 0
M  V30 5567 H 526.81 3.96079 -3.43834 0
M  V30 5568 H 528.284 5.08446 -2.14911 0
M  V30 5569 H 528.761 4.34785 -0.621159 0
M  V30 5570 H 529.367 3.66972 -2.14969 0
M  V30 5571 N 527.682 1.05563 1.17022 0
M  V30 5572 C 528.907 0.788437 1.91829 0
M  V30 5573 C 529.332 -0.650356 1.76499 0
M  V30 5574 O 528.69 -1.45229 1.08527 0
M  V30 5575 C 528.738 1.1786 3.40795 0
M  V30 5576 O 527.842 0.312965 4.11211 0
M  V30 5577 H 527.183 0.288794 0.597908 0
M  V30 5578 H 529.713 1.40948 1.48307 0
M  V30 5579 H 529.723 1.14697 3.91546 0
M  V30 5580 H 528.398 2.22666 3.51273 0
M  V30 5581 H 526.975 0.405515 3.70689 0
M  V30 5582 N 529.16 -1.33526 0.837174 0
M  V30 5583 C 530.09 -2.31764 0.284206 0
M  V30 5584 C 531.071 -1.58896 -0.607142 0
M  V30 5585 O 532.256 -1.86798 -0.531047 0
M  V30 5586 C 529.386 -3.43029 -0.542962 0
M  V30 5587 C 528.34 -4.27255 0.252451 0
M  V30 5588 C 527.666 -5.3012 -0.69836 0
M  V30 5589 C 528.966 -5.01229 1.46858 0
M  V30 5590 H 530.66 -2.78262 1.10502 0
M  V30 5591 H 528.206 -1.3378 0.532812 0
M  V30 5592 H 530.159 -4.1078 -0.940096 0
M  V30 5593 H 528.883 -2.95216 -1.39697 0
M  V30 5594 H 527.542 -3.61127 0.631124 0
M  V30 5595 H 527.19 -4.78564 -1.54872 0
M  V30 5596 H 526.89 -5.87353 -0.170274 0
M  V30 5597 H 528.414 -6.00737 -1.09305 0
M  V30 5598 H 529.828 -5.61756 1.14469 0
M  V30 5599 H 528.225 -5.68104 1.93333 0
M  V30 5600 H 529.295 -4.301 2.23924 0
M  V30 5601 N 530.638 -0.59345 -1.46 0
M  V30 5602 C 531.887 -0.0808084 -2.01538 0
M  V30 5603 C 532.2 1.29112 -1.46934 0
M  V30 5604 O 533.406 1.8957 -1.94359 0
M  V30 5605 C 531.862 -0.0938311 -3.59778 0
M  V30 5606 C 531.47 -1.46474 -4.23379 0
M  V30 5607 C 533.214 0.364306 -4.22934 0
M  V30 5608 C 531.121 -1.4349 -5.73729 0
M  V30 5609 H 530.051 -0.0264407 -0.753536 0
M  V30 5610 H 532.702 -0.746689 -1.67621 0
M  V30 5611 H 531.084 0.638427 -3.9082 0
M  V30 5612 H 532.258 -2.21758 -4.03931 0
M  V30 5613 H 530.573 -1.86379 -3.7236 0
M  V30 5614 H 533.17 0.405584 -5.3316 0
M  V30 5615 H 533.513 1.38409 -3.92618 0
M  V30 5616 H 534.046 -0.31423 -3.96557 0
M  V30 5617 H 530.785 -2.43184 -6.08722 0
M  V30 5618 H 530.305 -0.724431 -5.95409 0
M  V30 5619 H 531.984 -1.15243 -6.36654 0
M  V30 5620 N 532.116 1.54067 -0.331816 0
M  V30 5621 C 533.364 2.00319 0.267739 0
M  V30 5622 C 533.685 1.22148 1.52003 0
M  V30 5623 O 532.955 0.325494 1.93177 0
M  V30 5624 H 531.535 0.740014 0.101922 0
M  V30 5625 H 534.197 1.89628 -0.450267 0
M  V30 5626 H 533.293 3.07765 0.518385 0
M  V30 5627 N 533.594 0.0601682 1.57485 0
M  V30 5628 C 534.527 -0.94676 2.07634 0
M  V30 5629 C 535.505 -1.29837 0.978826 0
M  V30 5630 O 536.689 -1.40969 1.2514 0
M  V30 5631 C 533.816 -2.25822 2.52433 0
M  V30 5632 C 532.862 -2.05901 3.73507 0
M  V30 5633 S 533.695 -1.32907 5.18745 0
M  V30 5634 C 534.851 -2.65356 5.66866 0
M  V30 5635 H 535.084 -0.520003 2.92717 0
M  V30 5636 H 532.617 -0.152319 1.53647 0
M  V30 5637 H 534.575 -3.01201 2.78905 0
M  V30 5638 H 533.236 -2.65624 1.67639 0
M  V30 5639 H 532.429 -3.02929 4.02803 0
M  V30 5640 H 532.031 -1.38659 3.47347 0
M  V30 5641 H 534.323 -3.61492 5.73001 0
M  V30 5642 H 535.266 -2.40685 6.6594 0
M  V30 5643 H 535.674 -2.72028 4.94632 0
M  V30 5644 N 535.072 -1.5615 -0.213296 0
M  V30 5645 C 536.319 -1.79546 -0.936462 0
M  V30 5646 C 536.647 -0.630337 -1.84003 0
M  V30 5647 O 535.902 0.384883 -1.91878 0
M  V30 5648 C 536.201 -3.08772 -1.79985 0
M  V30 5649 C 535.867 -4.38532 -1.04882 0
M  V30 5650 C 534.529 -4.73787 -0.841393 0
M  V30 5651 C 536.881 -5.18609 -0.51907 0
M  V30 5652 C 534.209 -5.86627 -0.0924403 0
M  V30 5653 C 536.561 -6.32229 0.216581 0
M  V30 5654 C 535.225 -6.6608 0.435191 0
M  V30 5655 H 534.495 -0.657004 -0.342676 0
M  V30 5656 H 537.142 -1.9041 -0.204051 0
M  V30 5657 H 535.447 -2.93065 -2.60038 0
M  V30 5658 H 537.144 -3.24077 -2.36168 0
M  V30 5659 H 533.734 -4.10855 -1.22048 0
M  V30 5660 H 537.918 -4.91801 -0.666775 0
M  V30 5661 H 533.174 -6.11338 0.087081 0
M  V30 5662 H 537.348 -6.93503 0.634538 0
M  V30 5663 H 534.975 -7.5336 1.01746 0
M  V30 5664 N 536.55 0.480323 -1.50102 0
M  V30 5665 C 537.827 1.24159 -1.51142 0
M  V30 5666 C 538.207 2.09605 -0.250818 0
M  V30 5667 O 537.555 2.15274 0.766118 0
M  V30 5668 C 537.765 2.08057 -2.80202 0
M  V30 5669 C 539.113 2.66556 -3.30504 0
M  V30 5670 O 540.137 2.18308 -2.81461 0
M  V30 5671 O 538.996 3.54442 -4.15973 0
M  V30 5672 H 536.09 0.562928 -0.605839 0
M  V30 5673 H 538.636 0.492899 -1.62384 0
M  V30 5674 H 537.408 1.45032 -3.6343 0
M  V30 5675 H 537.031 2.90079 -2.71919 0
M  V30 5676 N 538.028 1.39524 0.732853 0
M  V30 5677 C 539.253 1.40329 1.52717 0
M  V30 5678 C 539.678 0.000286574 1.881 0
M  V30 5679 O 539.036 -0.987262 1.52062 0
M  V30 5680 C 539.084 2.28464 2.78992 0
M  V30 5681 O 538.188 1.716 3.75003 0
M  V30 5682 H 537.529 0.47778 0.461109 0
M  V30 5683 H 540.059 1.83546 0.903996 0
M  V30 5684 H 540.069 2.43051 3.27705 0
M  V30 5685 H 538.744 3.30425 2.52572 0
M  V30 5686 H 537.321 1.66267 3.33781 0
M  V30 5687 N 539.506 -0.963266 1.24736 0
M  V30 5688 C 540.783 -1.68248 0.9976 0
M  V30 5689 C 541.163 -2.05599 -0.478776 0
M  V30 5690 O 540.511 -1.7626 -1.45412 0
M  V30 5691 C 540.721 -2.91118 1.92487 0
M  V30 5692 C 542.069 -3.63261 2.19833 0
M  V30 5693 O 543.093 -3.01184 1.90176 0
M  V30 5694 O 541.952 -4.75019 2.7022 0
M  V30 5695 H 539.046 -0.735744 0.377637 0
M  V30 5696 H 541.592 -1.01696 1.35853 0
M  V30 5697 H 540.364 -2.60242 2.92215 0
M  V30 5698 H 539.987 -3.65402 1.56738 0
M  V30 5699 N 540.985 -1.06182 -1.16461 0
M  V30 5700 C 542.231 -0.779015 -1.87241 0
M  V30 5701 C 542.564 0.692715 -1.81425 0
M  V30 5702 O 541.839 1.5074 -1.22913 0
M  V30 5703 C 542.122 -1.2728 -3.36856 0
M  V30 5704 C 541.975 -2.80821 -3.51368 0
M  V30 5705 C 543.294 -0.879799 -4.31216 0
M  V30 5706 H 540.413 -0.284464 -0.679889 0
M  V30 5707 H 543.055 -1.31755 -1.36896 0
M  V30 5708 H 541.205 -0.814673 -3.79862 0
M  V30 5709 H 542.877 -3.34833 -3.17308 0
M  V30 5710 H 541.12 -3.19606 -2.93316 0
M  V30 5711 H 541.791 -3.10435 -4.56436 0
M  V30 5712 H 544.267 -1.27436 -3.96105 0
M  V30 5713 H 543.143 -1.25278 -5.34412 0
M  V30 5714 H 543.404 0.215372 -4.41575 0
M  V30 5715 N 542.463 1.3308 -0.844243 0
M  V30 5716 C 543.411 2.31028 -0.269954 0
M  V30 5717 C 544.405 1.58381 0.600997 0
M  V30 5718 O 545.611 1.73203 0.48996 0
M  V30 5719 H 541.986 0.748866 -0.0685782 0
M  V30 5720 H 543.957 2.76967 -1.11049 0
M  V30 5721 C 542.706 3.43549 0.535676 0
M  V30 5722 H 542.029 3.99604 -0.125202 0
M  V30 5723 H 543.469 4.14267 0.903262 0
M  V30 5724 C 541.928 2.8988 1.71672 0
M  V30 5725 O 542.458 2.86511 2.81557 0
M  V30 5726 N 540.664 2.46416 1.54037 0
M  V30 5727 H 540.211 2.49356 0.64649 0
M  V30 5728 H 540.169 2.1086 2.33207 0
M  V30 5729 N 543.941 0.601185 1.45683 0
M  V30 5730 C 544.888 -0.121396 2.30481 0
M  V30 5731 C 545.858 -0.866232 1.41724 0
M  V30 5732 O 547.043 -0.85324 1.70659 0
M  V30 5733 C 544.183 -1.11704 3.26521 0
M  V30 5734 C 543.296 -0.373741 4.3038 0
M  V30 5735 C 542.431 -1.35854 5.13534 0
M  V30 5736 C 541.47 -0.602689 6.09126 0
M  V30 5737 N 540.607 -1.53645 6.85082 0
M  V30 5738 H 545.447 0.607732 2.91737 0
M  V30 5739 H 542.984 0.311502 1.43764 0
M  V30 5740 H 544.942 -1.70735 3.80664 0
M  V30 5741 H 543.572 -1.81366 2.67032 0
M  V30 5742 H 542.624 0.331962 3.78949 0
M  V30 5743 H 543.936 0.2163 4.98331 0
M  V30 5744 H 543.09 -2.02111 5.72046 0
M  V30 5745 H 541.829 -1.98251 4.45587 0
M  V30 5746 H 540.834 0.0735482 5.49751 0
M  V30 5747 H 542.059 0.0161467 6.79098 0
M  V30 5748 H 540.005 -2.14819 6.1983 0
M  V30 5749 H 539.922 -0.999688 7.49361 0
M  V30 5750 H 541.19 -2.1888 7.48139 0
M  V30 5751 N 545.419 -1.53889 0.339982 0
M  V30 5752 C 546.349 -2.27843 -0.510856 0
M  V30 5753 C 547.33 -1.29267 -1.10563 0
M  V30 5754 O 548.515 -1.58104 -1.12768 0
M  V30 5755 C 545.645 -3.04857 -1.66372 0
M  V30 5756 C 544.599 -4.10907 -1.19746 0
M  V30 5757 C 543.925 -4.75855 -2.43857 0
M  V30 5758 C 545.225 -5.21435 -0.300501 0
M  V30 5759 H 546.919 -2.99212 0.106067 0
M  V30 5760 H 544.465 -1.43904 0.0524533 0
M  V30 5761 H 546.418 -3.5533 -2.26537 0
M  V30 5762 H 545.142 -2.31133 -2.30749 0
M  V30 5763 H 543.801 -3.61342 -0.618654 0
M  V30 5764 H 543.449 -3.9873 -3.06633 0
M  V30 5765 H 543.149 -5.47502 -2.13343 0
M  V30 5766 H 544.673 -5.2911 -3.04754 0
M  V30 5767 H 546.087 -5.67565 -0.80889 0
M  V30 5768 H 544.484 -6.00036 -0.0874076 0
M  V30 5769 H 545.554 -4.80328 0.664321 0
M  V30 5770 N 546.897 -0.0685191 -1.57451 0
M  V30 5771 C 547.845 0.917577 -2.13736 0
M  V30 5772 C 548.839 1.31049 -1.07344 0
M  V30 5773 O 550.045 1.28811 -1.25728 0
M  V30 5774 H 546.42 0.313835 -0.683382 0
M  V30 5775 H 548.391 0.417903 -2.95459 0
M  V30 5776 C 547.14 2.17686 -2.71123 0
M  V30 5777 H 546.463 1.88336 -3.52661 0
M  V30 5778 H 547.903 2.84803 -3.14107 0
M  V30 5779 C 546.362 2.9332 -1.65726 0
M  V30 5780 O 546.892 3.86901 -1.08031 0
M  V30 5781 N 545.098 2.56367 -1.36837 0
M  V30 5782 H 544.645 1.80341 -1.83943 0
M  V30 5783 H 544.603 3.07276 -0.665501 0
M  V30 5784 N 548.375 1.56261 0.205012 0
M  V30 5785 C 549.621 1.80306 0.9283 0
M  V30 5786 C 549.954 0.640932 1.83319 0
M  V30 5787 O 549.229 -0.359032 1.91158 0
M  V30 5788 C 549.512 3.14547 1.75306 0
M  V30 5789 C 549.365 4.41236 0.873562 0
M  V30 5790 C 550.684 3.45382 2.72762 0
M  V30 5791 H 547.803 0.655929 0.336044 0
M  V30 5792 H 550.445 1.88984 0.196211 0
M  V30 5793 H 548.595 3.0728 2.37721 0
M  V30 5794 H 550.267 4.60539 0.264887 0
M  V30 5795 H 548.51 4.33427 0.179773 0
M  V30 5796 H 549.181 5.31639 1.48541 0
M  V30 5797 H 551.657 3.52884 2.20481 0
M  V30 5798 H 550.533 4.40449 3.2756 0
M  V30 5799 H 550.794 2.68377 3.51321 0
M  V30 5800 N 549.853 -0.472356 1.50355 0
M  V30 5801 C 551.078 -1.25251 1.65309 0
M  V30 5802 C 551.503 -1.85081 0.335643 0
M  V30 5803 O 550.861 -1.67227 -0.700335 0
M  V30 5804 C 550.909 -2.3379 2.74544 0
M  V30 5805 O 550.013 -3.38401 2.35709 0
M  V30 5806 H 549.354 -0.368539 0.552336 0
M  V30 5807 H 551.884 -0.562271 1.96722 0
M  V30 5808 H 551.894 -2.79121 2.97583 0
M  V30 5809 H 550.569 -1.89614 3.70161 0
M  V30 5810 H 549.146 -2.9879 2.23112 0
M  V30 5811 N 551.331 -1.39911 -0.725443 0
M  V30 5812 C 552.263 -1.35301 -1.85003 0
M  V30 5813 C 553.276 -0.260102 -1.60709 0
M  V30 5814 O 554.465 -0.519749 -1.70766 0
M  V30 5815 C 551.565 -1.08039 -3.21218 0
M  V30 5816 C 550.738 -2.28793 -3.7279 0
M  V30 5817 C 549.797 -1.97841 -4.87591 0
M  V30 5818 O 548.823 -2.70616 -5.00755 0
M  V30 5819 N 550.025 -0.950367 -5.72668 0
M  V30 5820 H 552.79 -2.32218 -1.89459 0
M  V30 5821 H 550.351 -1.34137 -0.90658 0
M  V30 5822 H 552.343 -0.853354 -3.95601 0
M  V30 5823 H 550.913 -0.198229 -3.11971 0
M  V30 5824 H 550.133 -2.67388 -2.8965 0
M  V30 5825 H 551.421 -3.09317 -4.03981 0
M  V30 5826 H 550.819 -0.347436 -5.64632 0
M  V30 5827 H 549.376 -0.783232 -6.47077 0
M  V30 5828 N 552.809 0.956637 -1.25245 0
M  V30 5829 C 553.741 2.05628 -1.01242 0
M  V30 5830 C 554.754 1.62785 0.0219579 0
M  V30 5831 O 555.943 1.77184 -0.216365 0
M  V30 5832 C 553.043 3.35069 -0.508161 0
M  V30 5833 C 552.216 4.06761 -1.60823 0
M  V30 5834 C 551.275 5.14473 -1.1047 0
M  V30 5835 O 550.301 5.40033 -1.79868 0
M  V30 5836 N 551.503 5.80474 0.0550773 0
M  V30 5837 H 554.268 2.2679 -1.95925 0
M  V30 5838 H 551.829 1.12505 -1.16423 0
M  V30 5839 H 553.821 4.044 -0.155819 0
M  V30 5840 H 552.391 3.10694 0.344683 0
M  V30 5841 H 551.611 3.31555 -2.13224 0
M  V30 5842 H 552.899 4.51418 -2.34733 0
M  V30 5843 H 552.297 5.62125 0.635004 0
M  V30 5844 H 550.854 6.50868 0.348469 0
M  V30 5845 N 554.287 1.06798 1.15896 0
M  V30 5846 C 555.698 0.811355 1.68149 0
M  V30 5847 C 556.049 -0.664339 1.8461 0
M  V30 5848 O 555.174 -1.51485 1.54535 0
M  V30 5849 C 555.769 1.46624 3.05429 0
M  V30 5850 C 554.328 1.25726 3.54781 0
M  V30 5851 C 553.475 1.53949 2.3064 0
M  V30 5852 H 556.426 1.23078 1.00187 0
M  V30 5853 H 556.447 0.88437 3.7008 0
M  V30 5854 H 555.959 2.54025 2.93416 0
M  V30 5855 H 554.06 0.20322 3.72045 0
M  V30 5856 H 554.173 1.97354 4.36564 0
M  V30 5857 H 552.537 0.96025 2.35905 0
M  V30 5858 H 553.32 2.6252 2.2122 0
M  V30 5859 N 555.766 -1.3263 0.851289 0
M  V30 5860 C 556.696 -2.31449 0.308771 0
M  V30 5861 C 557.677 -1.59531 -0.590255 0
M  V30 5862 O 558.862 -1.87351 -0.511205 0
M  V30 5863 C 555.992 -3.43586 -0.506548 0
M  V30 5864 C 554.946 -4.26963 0.297753 0
M  V30 5865 C 554.272 -5.30831 -0.642094 0
M  V30 5866 C 555.572 -4.99643 1.52166 0
M  V30 5867 H 557.266 -2.77074 1.13447 0
M  V30 5868 H 554.812 -1.33207 0.546971 0
M  V30 5869 H 556.765 -4.11754 -0.896474 0
M  V30 5870 H 555.489 -2.96681 -1.36558 0
M  V30 5871 H 554.148 -3.60437 0.669391 0
M  V30 5872 H 553.796 -4.8018 -1.49788 0
M  V30 5873 H 553.496 -5.87501 -0.107968 0
M  V30 5874 H 555.02 -6.01862 -1.02927 0
M  V30 5875 H 556.434 -5.6051 1.20421 0
M  V30 5876 H 554.831 -5.66022 1.99347 0
M  V30 5877 H 555.901 -4.27701 2.28474 0
M  V30 5878 N 557.244 -0.608902 -1.45362 0
M  V30 5879 C 558.174 0.0964526 -2.33301 0
M  V30 5880 C 559.155 0.857444 -1.46908 0
M  V30 5881 O 560.34 0.827735 -1.75676 0
M  V30 5882 C 557.47 1.09354 -3.29635 0
M  V30 5883 C 556.424 0.445676 -4.25673 0
M  V30 5884 C 555.75 1.5511 -5.11708 0
M  V30 5885 C 557.05 -0.633972 -5.18438 0
M  V30 5886 H 558.744 -0.637829 -2.92527 0
M  V30 5887 H 556.29 -0.308178 -1.40664 0
M  V30 5888 H 558.243 1.59556 -3.90025 0
M  V30 5889 H 556.967 1.85843 -2.6857 0
M  V30 5890 H 555.626 -0.0354897 -3.66583 0
M  V30 5891 H 555.274 2.30631 -4.4701 0
M  V30 5892 H 554.974 1.12311 -5.76767 0
M  V30 5893 H 556.498 2.05537 -5.74967 0
M  V30 5894 H 557.912 -0.215974 -5.72893 0
M  V30 5895 H 556.309 -0.983789 -5.91981 0
M  V30 5896 H 557.379 -1.51005 -4.60788 0
M  V30 5897 N 558.722 1.53707 -0.348139 0
M  V30 5898 C 559.999 1.93247 0.302475 0
M  V30 5899 C 560.379 1.28012 1.67857 0
M  V30 5900 O 559.727 0.43274 2.24365 0
M  V30 5901 C 559.937 3.47031 0.370159 0
M  V30 5902 C 561.285 4.20066 0.61882 0
M  V30 5903 O 562.309 3.53319 0.452087 0
M  V30 5904 O 561.168 5.38318 0.94215 0
M  V30 5905 H 558.262 0.807736 0.177458 0
M  V30 5906 H 560.808 1.64927 -0.399651 0
M  V30 5907 H 559.58 3.86745 -0.59534 0
M  V30 5908 H 559.203 3.81532 1.11888 0
M  V30 5909 N 560.2 0.0768682 1.57412 0
M  V30 5910 C 561.446 -0.591961 1.93968 0
M  V30 5911 C 561.779 -1.68954 0.9575 0
M  V30 5912 O 561.054 -1.94496 -0.0124675 0
M  V30 5913 C 561.337 -1.16418 3.40762 0
M  V30 5914 C 561.19 -0.0728933 4.49741 0
M  V30 5915 C 562.509 -2.06814 3.88479 0
M  V30 5916 H 559.628 -0.213716 0.705333 0
M  V30 5917 H 562.27 0.14387 1.89455 0
M  V30 5918 H 560.42 -1.79128 3.4474 0
M  V30 5919 H 562.092 0.560446 4.57883 0
M  V30 5920 H 560.335 0.595859 4.29688 0
M  V30 5921 H 561.006 -0.513755 5.49604 0
M  V30 5922 H 563.482 -1.54033 3.8654 0
M  V30 5923 H 562.358 -2.43785 4.91793 0
M  V30 5924 H 562.619 -2.97844 3.26713 0
M  V30 5925 N 561.678 -1.56367 -0.196722 0
M  V30 5926 C 562.588 -1.97617 -1.2643 0
M  V30 5927 C 563.604 -0.883598 -1.49895 0
M  V30 5928 O 564.78 -1.18921 -1.62541 0
M  V30 5929 C 561.845 -2.30595 -2.58895 0
M  V30 5930 C 560.906 -3.53551 -2.43516 0
M  V30 5931 C 560.139 -3.84946 -3.69665 0
M  V30 5932 O 560.362 -3.17655 -4.73763 0
M  V30 5933 O 559.296 -4.78379 -3.65291 0
M  V30 5934 H 563.122 -2.88648 -0.944233 0
M  V30 5935 H 560.707 -1.43901 -0.401592 0
M  V30 5936 H 562.589 -2.52889 -3.37083 0
M  V30 5937 H 561.264 -1.42732 -2.90533 0
M  V30 5938 H 560.171 -3.36507 -1.63445 0
M  V30 5939 H 561.504 -4.41875 -2.16812 0
M  V30 5940 N 563.156 0.464375 -1.50603 0
M  V30 5941 C 564.404 1.21356 -1.61608 0
M  V30 5942 C 564.725 1.92329 -0.321643 0
M  V30 5943 O 563.995 1.84403 0.661232 0
M  V30 5944 H 562.575 0.45094 -0.595535 0
M  V30 5945 H 565.237 0.535046 -1.87412 0
M  V30 5946 H 564.333 1.95783 -2.43054 0
M  V30 5947 N 564.634 1.40294 0.718013 0
M  V30 5948 C 565.582 1.40536 1.85344 0
M  V30 5949 C 566.576 0.286192 1.66965 0
M  V30 5950 O 567.782 0.457105 1.74099 0
M  V30 5951 H 564.157 0.439236 0.61039 0
M  V30 5952 H 566.128 2.36275 1.82255 0
M  V30 5953 C 564.877 1.28245 3.23185 0
M  V30 5954 H 564.2 2.1364 3.37932 0
M  V30 5955 H 565.64 1.32474 4.02774 0
M  V30 5956 C 564.099 -0.0075503 3.36899 0
M  V30 5957 O 564.629 -0.971391 3.89778 0
M  V30 5958 N 562.835 -0.0762479 2.905 0
M  V30 5959 H 562.382 0.708819 2.47656 0
M  V30 5960 H 562.34 -0.938846 3.00055 0
M  V30 5961 N 566.112 -0.949982 1.2575 0
M  V30 5962 C 567.042 -2.06483 1.09028 0
M  V30 5963 C 568.023 -1.701 -0.00201532 0
M  V30 5964 O 569.208 -1.93469 0.168383 0
M  V30 5965 C 566.338 -3.39899 0.71316 0
M  V30 5966 C 565.292 -3.90309 1.75621 0
M  V30 5967 C 564.618 -5.20274 1.23365 0
M  V30 5968 C 565.918 -4.16169 3.15596 0
M  V30 5969 H 567.612 -2.20731 2.02283 0
M  V30 5970 H 565.158 -1.06066 0.973964 0
M  V30 5971 H 567.111 -4.17346 0.58309 0
M  V30 5972 H 565.835 -3.25602 -0.255091 0
M  V30 5973 H 564.494 -3.15035 1.8748 0
M  V30 5974 H 564.142 -5.02351 0.255491 0
M  V30 5975 H 563.842 -5.54971 1.93082 0
M  V30 5976 H 565.366 -6.00314 1.11607 0
M  V30 5977 H 566.78 -4.84259 3.06864 0
M  V30 5978 H 565.177 -4.62131 3.82825 0
M  V30 5979 H 566.247 -3.22273 3.6231 0
M  V30 5980 N 567.59 -1.07411 -1.15328 0
M  V30 5981 C 568.839 -0.792643 -1.85473 0
M  V30 5982 C 569.152 0.683789 -1.83259 0
M  V30 5983 O 570.358 1.08005 -2.49093 0
M  V30 5984 C 568.814 -1.36787 -3.32892 0
M  V30 5985 C 568.422 -2.87536 -3.43551 0
M  V30 5986 C 570.166 -1.16444 -4.08217 0
M  V30 5987 C 568.073 -3.38247 -4.85122 0
M  V30 5988 H 567.003 -0.292838 -0.694811 0
M  V30 5989 H 569.654 -1.29426 -1.30082 0
M  V30 5990 H 568.036 -0.793993 -3.87958 0
M  V30 5991 H 569.21 -3.50973 -2.98588 0
M  V30 5992 H 567.525 -3.06676 -2.81672 0
M  V30 5993 H 570.122 -1.51808 -5.12697 0
M  V30 5994 H 570.465 -0.10353 -4.16171 0
M  V30 5995 H 570.998 -1.70472 -3.59422 0
M  V30 5996 H 567.737 -4.43866 -4.82351 0
M  V30 5997 H 567.257 -2.79564 -5.30664 0
M  V30 5998 H 568.936 -3.34238 -5.5398 0
M  V30 5999 N 569.068 1.32177 -0.85831 0
M  V30 6000 C 570.015 2.28794 -0.303607 0
M  V30 6001 C 570.985 1.55213 0.591453 0
M  V30 6002 O 572.17 1.83418 0.525585 0
M  V30 6003 C 569.31 3.41475 0.49889 0
M  V30 6004 C 568.423 4.2993 -0.422373 0
M  V30 6005 C 567.558 5.29743 0.393111 0
M  V30 6006 C 566.597 6.09842 -0.525317 0
M  V30 6007 N 565.734 7.01643 0.253208 0
M  V30 6008 H 570.574 2.75631 -1.13276 0
M  V30 6009 H 568.111 1.35606 -0.570026 0
M  V30 6010 H 570.069 4.05531 0.979826 0
M  V30 6011 H 568.699 2.95779 1.29284 0
M  V30 6012 H 567.751 3.66422 -1.02171 0
M  V30 6013 H 569.063 4.85899 -1.12709 0
M  V30 6014 H 568.217 5.9942 0.937056 0
M  V30 6015 H 566.956 4.744 1.13117 0
M  V30 6016 H 565.961 5.39066 -1.08112 0
M  V30 6017 H 567.186 6.6727 -1.26205 0
M  V30 6018 H 565.132 6.48725 0.974295 0
M  V30 6019 H 565.049 7.54981 -0.392398 0
M  V30 6020 H 566.317 7.756 0.778761 0
M  V30 6021 N 570.547 0.616602 1.45037 0
M  V30 6022 C 571.48 -0.145984 2.27733 0
M  V30 6023 C 572.458 -0.865108 1.37676 0
M  V30 6024 O 573.642 -0.872152 1.6711 0
M  V30 6025 C 570.769 -1.2122 3.16265 0
M  V30 6026 C 569.815 -0.595218 4.22326 0
M  V30 6027 S 570.648 0.603744 5.32086 0
M  V30 6028 C 571.804 -0.462842 6.24186 0
M  V30 6029 H 572.037 0.555591 2.92062 0
M  V30 6030 H 569.57 0.404364 1.49011 0
M  V30 6031 H 571.528 -1.82247 3.67827 0
M  V30 6032 H 570.189 -1.88589 2.51183 0
M  V30 6033 H 569.382 -1.39775 4.8423 0
M  V30 6034 H 568.984 -0.0598965 3.73952 0
M  V30 6035 H 571.276 -1.33945 6.64127 0
M  V30 6036 H 572.219 0.120259 7.07998 0
M  V30 6037 H 572.627 -0.782219 5.59054 0
M  V30 6038 N 572.025 -1.5352 0.356285 0
M  V30 6039 C 572.975 -2.22204 -0.510815 0
M  V30 6040 C 573.959 -1.21393 -1.05605 0
M  V30 6041 O 575.151 -1.46883 -0.987639 0
M  V30 6042 C 572.28 -3.00786 -1.65478 0
M  V30 6043 C 571.366 -4.08965 -1.12287 0
M  V30 6044 N 571.757 -5.04829 -0.313191 0
M  V30 6045 C 570.055 -4.23505 -1.39856 0
M  V30 6046 C 570.756 -5.81695 -0.0230322 0
M  V30 6047 N 569.732 -5.40074 -0.618144 0
M  V30 6048 H 573.534 -2.93676 0.114711 0
M  V30 6049 H 571.048 -1.61572 0.163811 0
M  V30 6050 H 573.045 -3.48502 -2.28806 0
M  V30 6051 H 571.705 -2.30843 -2.28345 0
M  V30 6052 H 572.716 -5.17879 0.0468202 0
M  V30 6053 H 569.393 -3.64786 -2.0307 0
M  V30 6054 H 570.783 -6.68931 0.630927 0
M  V30 6055 N 573.503 -0.0852151 -1.57369 0
M  V30 6056 C 574.466 0.8627 -2.12344 0
M  V30 6057 C 575.466 1.21746 -1.05046 0
M  V30 6058 O 576.656 1.14852 -1.30976 0
M  V30 6059 C 573.788 2.1618 -2.63589 0
M  V30 6060 H 574.981 0.385511 -2.97412 0
M  V30 6061 H 572.534 0.163663 -1.55441 0
M  V30 6062 H 573.269 2.68406 -1.82013 0
M  V30 6063 H 573.054 1.91723 -3.4203 0
M  V30 6064 H 574.544 2.84011 -3.06149 0
M  V30 6065 N 574.981 1.5647 0.188427 0
M  V30 6066 C 575.944 1.9421 1.21718 0
M  V30 6067 C 576.944 0.823901 1.38089 0
M  V30 6068 O 578.134 1.09122 1.35787 0
M  V30 6069 C 575.266 2.22197 2.58537 0
M  V30 6070 H 576.459 2.86252 0.894418 0
M  V30 6071 H 574.012 1.50263 0.430211 0
M  V30 6072 H 574.747 1.32814 2.95856 0
M  V30 6073 H 574.532 3.03688 2.48025 0
M  V30 6074 H 576.022 2.52376 3.3271 0
M  V30 6075 N 576.459 -0.456382 1.50847 0
M  V30 6076 C 577.736 -1.21739 1.53098 0
M  V30 6077 C 578.116 -2.09179 0.284132 0
M  V30 6078 O 577.464 -2.16466 -0.731773 0
M  V30 6079 C 577.674 -2.03573 2.83477 0
M  V30 6080 C 579.022 -2.61264 3.34703 0
M  V30 6081 O 580.046 -2.13802 2.84898 0
M  V30 6082 O 578.905 -3.47779 4.21559 0
M  V30 6083 H 575.999 -0.553219 0.614718 0
M  V30 6084 H 578.545 -0.467003 1.63148 0
M  V30 6085 H 577.317 -1.39232 3.65691 0
M  V30 6086 H 576.94 -2.85716 2.76499 0
M  V30 6087 N 577.937 -1.40673 -0.710563 0
M  V30 6088 C 578.867 -1.44095 -1.83736 0
M  V30 6089 C 579.848 -0.301286 -1.67411 0
M  V30 6090 O 581.033 -0.510618 -1.87367 0
M  V30 6091 C 578.163 -1.30773 -3.21738 0
M  V30 6092 C 577.117 -2.42395 -3.52745 0
M  V30 6093 C 576.443 -2.14147 -4.89944 0
M  V30 6094 C 577.743 -3.84738 -3.53234 0
M  V30 6095 H 579.437 -2.38396 -1.81129 0
M  V30 6096 H 576.983 -1.14746 -0.870017 0
M  V30 6097 H 578.936 -1.31783 -4.00264 0
M  V30 6098 H 577.66 -0.329507 -3.24934 0
M  V30 6099 H 576.319 -2.40643 -2.76562 0
M  V30 6100 H 575.967 -1.14703 -4.89747 0
M  V30 6101 H 575.667 -2.88934 -5.11655 0
M  V30 6102 H 577.191 -2.16848 -5.70797 0
M  V30 6103 H 578.605 -3.88286 -4.2179 0
M  V30 6104 H 577.002 -4.59085 -3.86473 0
M  V30 6105 H 578.072 -4.13962 -2.52514 0
M  V30 6106 N 579.415 0.9433 -1.26252 0
M  V30 6107 C 580.325 2.07532 -1.09397 0
M  V30 6108 C 581.341 1.73977 -0.0280449 0
M  V30 6109 O 582.517 2.00067 -0.231337 0
M  V30 6110 C 579.582 3.39002 -0.726523 0
M  V30 6111 C 578.643 3.86353 -1.87163 0
M  V30 6112 C 577.876 5.11549 -1.52162 0
M  V30 6113 O 578.099 5.68834 -0.422385 0
M  V30 6114 O 577.033 5.53889 -2.35565 0
M  V30 6115 H 580.859 2.24658 -2.04359 0
M  V30 6116 H 578.444 1.05988 -1.05295 0
M  V30 6117 H 580.326 4.18 -0.534236 0
M  V30 6118 H 579.001 3.2312 0.193721 0
M  V30 6119 H 577.908 3.0831 -2.11886 0
M  V30 6120 H 579.241 4.06752 -2.77152 0
M  V30 6121 N 580.893 1.08022 1.14757 0
M  V30 6122 C 581.84 0.706657 2.19716 0
M  V30 6123 C 582.81 -0.30525 1.63271 0
M  V30 6124 O 583.995 -0.19015 1.8985 0
M  V30 6125 C 581.135 0.117914 3.44898 0
M  V30 6126 C 580.248 1.18212 4.15512 0
M  V30 6127 C 579.383 0.557659 5.28265 0
M  V30 6128 C 578.422 1.60418 5.90705 0
M  V30 6129 N 577.559 1.0018 6.94916 0
M  V30 6130 H 582.399 1.60603 2.51019 0
M  V30 6131 H 579.936 0.802664 1.23271 0
M  V30 6132 H 581.894 -0.241112 4.16503 0
M  V30 6133 H 580.524 -0.744788 3.1409 0
M  V30 6134 H 579.576 1.65863 3.42335 0
M  V30 6135 H 580.888 1.97533 4.5802 0
M  V30 6136 H 580.042 0.146654 6.06523 0
M  V30 6137 H 578.781 -0.267249 4.86967 0
M  V30 6138 H 577.786 2.02489 5.11154 0
M  V30 6139 H 579.011 2.43149 6.34078 0
M  V30 6140 H 576.957 0.197917 6.55701 0
M  V30 6141 H 576.874 1.73216 7.35889 0
M  V30 6142 H 578.142 0.616523 7.77058 0
M  V30 6143 N 582.371 -1.3172 0.865308 0
M  V30 6144 C 583.782 -1.79104 0.527126 0
M  V30 6145 C 584.133 -1.7135 -0.955695 0
M  V30 6146 O 583.258 -1.27845 -1.74598 0
M  V30 6147 C 583.853 -3.25207 0.950061 0
M  V30 6148 C 582.412 -3.70504 0.663611 0
M  V30 6149 C 581.559 -2.52605 1.14395 0
M  V30 6150 H 584.51 -1.18868 1.05148 0
M  V30 6151 H 584.531 -3.79535 0.270805 0
M  V30 6152 H 584.043 -3.30818 2.02931 0
M  V30 6153 H 582.144 -3.70398 -0.404474 0
M  V30 6154 H 582.257 -4.62845 1.23737 0
M  V30 6155 H 580.621 -2.4838 0.563859 0
M  V30 6156 H 581.404 -2.60964 2.23053 0
M  V30 6157 N 583.85 -0.624285 -1.44708 0
M  V30 6158 C 584.783 0.133905 -2.27807 0
M  V30 6159 C 585.76 0.857794 -1.38133 0
M  V30 6160 O 586.945 0.863277 -1.6757 0
M  V30 6161 C 584.072 1.19541 -3.16903 0
M  V30 6162 C 583.118 0.572813 -4.22636 0
M  V30 6163 S 583.951 -0.631953 -5.31758 0
M  V30 6164 C 585.106 0.429733 -6.24423 0
M  V30 6165 H 585.34 -0.571072 -2.91764 0
M  V30 6166 H 582.873 -0.412261 -1.48794 0
M  V30 6167 H 584.831 1.80293 -3.68788 0
M  V30 6168 H 583.492 1.87255 -2.5218 0
M  V30 6169 H 582.685 1.37205 -4.84965 0
M  V30 6170 H 582.287 0.0400641 -3.73979 0
M  V30 6171 H 584.579 1.30421 -6.64828 0
M  V30 6172 H 585.522 -0.157804 -7.07924 0
M  V30 6173 H 585.93 0.75256 -5.59461 0
M  V30 6174 N 585.328 1.53329 -0.364422 0
M  V30 6175 C 586.574 2.01537 0.225969 0
M  V30 6176 C 586.907 1.25128 1.48515 0
M  V30 6177 O 586.182 0.344653 1.91422 0
M  V30 6178 C 586.465 3.56339 0.519092 0
M  V30 6179 C 586.318 4.43441 -0.753639 0
M  V30 6180 C 587.637 4.19833 1.32015 0
M  V30 6181 H 584.756 0.732573 0.0806548 0
M  V30 6182 H 587.398 1.83597 -0.489084 0
M  V30 6183 H 585.548 3.71756 1.12825 0
M  V30 6184 H 587.22 4.39823 -1.39116 0
M  V30 6185 H 585.463 4.11457 -1.37424 0
M  V30 6186 H 586.134 5.49699 -0.503517 0
M  V30 6187 H 588.61 4.08242 0.804859 0
M  V30 6188 H 587.486 5.28177 1.49399 0
M  V30 6189 H 587.747 3.75821 2.32832 0
M  V30 6190 N 586.806 0.0935595 1.57322 0
M  V30 6191 C 587.716 -0.880192 2.17462 0
M  V30 6192 C 588.732 -1.31135 1.14366 0
M  V30 6193 O 589.908 -1.37958 1.46729 0
M  V30 6194 C 586.973 -2.12184 2.74188 0
M  V30 6195 C 586.034 -1.74503 3.92234 0
M  V30 6196 C 585.267 -2.92748 4.46245 0
M  V30 6197 O 585.49 -4.07427 3.99198 0
M  V30 6198 O 584.424 -2.71303 5.37288 0
M  V30 6199 H 588.25 -0.398516 3.01074 0
M  V30 6200 H 585.835 -0.130707 1.48827 0
M  V30 6201 H 587.717 -2.84953 3.10451 0
M  V30 6202 H 586.392 -2.59407 1.93623 0
M  V30 6203 H 585.299 -0.989186 3.60785 0
M  V30 6204 H 586.632 -1.32044 4.74157 0
M  V30 6205 N 588.284 -1.56567 -0.180126 0
M  V30 6206 C 589.231 -1.95725 -1.22313 0
M  V30 6207 C 590.201 -0.819911 -1.44453 0
M  V30 6208 O 591.386 -1.07931 -1.57339 0
M  V30 6209 C 588.526 -2.31484 -2.55947 0
M  V30 6210 C 587.639 -3.58354 -2.4126 0
M  V30 6211 C 586.774 -3.83366 -3.67701 0
M  V30 6212 C 585.813 -5.03612 -3.47909 0
M  V30 6213 N 584.95 -5.24802 -4.66398 0
M  V30 6214 H 589.79 -2.84642 -0.882198 0
M  V30 6215 H 587.327 -1.4085 -0.42422 0
M  V30 6216 H 589.285 -2.50237 -3.33822 0
M  V30 6217 H 587.915 -1.45689 -2.88053 0
M  V30 6218 H 586.967 -3.47565 -1.54606 0
M  V30 6219 H 588.279 -4.46386 -2.22577 0
M  V30 6220 H 587.433 -4.02439 -4.54013 0
M  V30 6221 H 586.172 -2.93692 -3.89353 0
M  V30 6222 H 585.177 -4.84447 -2.59983 0
M  V30 6223 H 586.402 -5.94809 -3.27688 0
M  V30 6224 H 584.348 -4.38079 -4.88286 0
M  V30 6225 H 584.265 -6.07041 -4.50596 0
M  V30 6226 H 585.533 -5.48346 -5.54019 0
M  V30 6227 N 589.762 0.448376 -1.51087 0
M  V30 6228 C 590.694 1.56146 -1.67783 0
M  V30 6229 C 591.707 1.52913 -0.55871 0
M  V30 6230 O 592.896 1.57889 -0.83267 0
M  V30 6231 C 589.996 2.95057 -1.66716 0
M  V30 6232 C 589.169 3.22915 -2.95033 0
M  V30 6233 C 588.228 4.41495 -2.86302 0
M  V30 6234 O 587.254 4.40688 -3.60254 0
M  V30 6235 N 588.456 5.44443 -2.014 0
M  V30 6236 H 591.221 1.42232 -2.638 0
M  V30 6237 H 588.782 0.637153 -1.48835 0
M  V30 6238 H 590.774 3.72388 -1.58458 0
M  V30 6239 H 589.344 3.02624 -0.783403 0
M  V30 6240 H 588.564 2.33985 -3.17245 0
M  V30 6241 H 589.852 3.38349 -3.79996 0
M  V30 6242 H 589.25 5.4793 -1.40674 0
M  V30 6243 H 587.807 6.2067 -1.99029 0
M  V30 6244 N 591.24 1.41047 0.703093 0
M  V30 6245 C 592.517 1.30493 1.45708 0
M  V30 6246 C 592.897 -0.0709892 2.10981 0
M  V30 6247 O 592.245 -1.08471 2.01113 0
M  V30 6248 C 592.455 2.45287 2.48265 0
M  V30 6249 C 593.803 2.86104 3.13735 0
M  V30 6250 O 594.827 2.44971 2.58587 0
M  V30 6251 O 593.686 3.57206 4.13601 0
M  V30 6252 H 590.78 0.513144 0.648546 0
M  V30 6253 H 593.326 1.52995 0.734208 0
M  V30 6254 H 592.098 3.37135 1.98635 0
M  V30 6255 H 591.721 2.24622 3.28071 0
M  V30 6256 N 592.718 -0.936591 1.26751 0
M  V30 6257 C 593.65 -2.03991 1.045 0
M  V30 6258 C 594.663 -1.628 0.00394261 0
M  V30 6259 O 595.852 -1.76817 0.244526 0
M  V30 6260 C 592.952 -3.34218 0.561403 0
M  V30 6261 C 592.125 -4.04151 1.67274 0
M  V30 6262 C 591.184 -5.12651 1.1864 0
M  V30 6263 O 590.21 -5.37104 1.88437 0
M  V30 6264 N 591.412 -5.80488 0.037278 0
M  V30 6265 H 594.177 -2.23644 1.99508 0
M  V30 6266 H 591.738 -1.10638 1.18198 0
M  V30 6267 H 593.73 -4.04101 0.220136 0
M  V30 6268 H 592.3 -3.11203 -0.295211 0
M  V30 6269 H 591.52 -3.28121 2.18472 0
M  V30 6270 H 592.808 -4.47626 2.41885 0
M  V30 6271 H 592.206 -5.63064 -0.545494 0
M  V30 6272 H 590.763 -6.5134 -0.244877 0
M  V30 6273 N 594.196 -1.08629 -1.14182 0
M  V30 6274 C 595.421 -0.83902 -1.89671 0
M  V30 6275 C 595.846 0.603332 -1.78161 0
M  V30 6276 O 595.204 1.42301 -1.12339 0
M  V30 6277 C 595.252 -1.26854 -3.37551 0
M  V30 6278 O 594.356 -0.42188 -4.10236 0
M  V30 6279 H 593.697 -0.304545 -0.590041 0
M  V30 6280 H 596.227 -1.4483 -1.44518 0
M  V30 6281 H 596.237 -1.25038 -3.88368 0
M  V30 6282 H 594.912 -2.31901 -3.45246 0
M  V30 6283 H 593.489 -0.503654 -3.69483 0
M  V30 6284 N 595.674 1.31259 -0.872281 0
M  V30 6285 C 597.085 1.78822 -0.536617 0
M  V30 6286 C 597.436 1.71855 0.946594 0
M  V30 6287 O 596.561 1.28769 1.73918 0
M  V30 6288 C 597.156 3.24698 -0.967294 0
M  V30 6289 C 595.715 3.70147 -0.683251 0
M  V30 6290 C 594.862 2.51994 -1.15733 0
M  V30 6291 H 597.813 1.18308 -1.05777 0
M  V30 6292 H 597.834 3.79386 -0.290929 0
M  V30 6293 H 597.346 3.29737 -2.04683 0
M  V30 6294 H 595.447 3.70607 0.384825 0
M  V30 6295 H 595.56 4.62183 -1.2619 0
M  V30 6296 H 593.924 2.48078 -0.577024 0
M  V30 6297 H 594.707 2.59778 -2.24434 0
M  V30 6298 N 597.152 0.631951 1.44375 0
M  V30 6299 C 598.377 0.142146 2.06912 0
M  V30 6300 C 598.802 -1.17456 1.4692 0
M  V30 6301 O 598.16 -1.72074 0.570975 0
M  V30 6302 C 598.208 0.0417952 3.60576 0
M  V30 6303 O 597.312 -1.00194 4.00044 0
M  V30 6304 H 596.653 0.0851491 0.658518 0
M  V30 6305 H 599.183 0.868863 1.85235 0
M  V30 6306 H 599.193 -0.148517 4.0773 0
M  V30 6307 H 597.868 1.0031 4.03622 0
M  V30 6308 H 596.445 -0.786131 3.64519 0
M  V30 6309 N 598.631 -1.53133 0.372548 0
M  V30 6310 C 599.561 -2.28876 -0.462412 0
M  V30 6311 C 600.542 -1.31583 -1.07796 0
M  V30 6312 O 601.727 -1.60461 -1.09389 0
M  V30 6313 C 598.857 -3.08317 -1.59868 0
M  V30 6314 C 597.811 -4.13355 -1.11003 0
M  V30 6315 C 597.137 -4.8092 -2.33708 0
M  V30 6316 C 598.437 -5.21955 -0.18983 0
M  V30 6317 H 600.131 -2.9892 0.169511 0
M  V30 6318 H 597.677 -1.43761 0.0829658 0
M  V30 6319 H 599.63 -3.60055 -2.18949 0
M  V30 6320 H 598.354 -2.35976 -2.25794 0
M  V30 6321 H 597.013 -3.62573 -0.541869 0
M  V30 6322 H 596.661 -4.05144 -2.98106 0
M  V30 6323 H 596.361 -5.51904 -2.01682 0
M  V30 6324 H 597.885 -5.35455 -2.93462 0
M  V30 6325 H 599.299 -5.69153 -0.688319 0
M  V30 6326 H 597.696 -6.00087 0.0398887 0
M  V30 6327 H 598.766 -4.78811 0.766057 0
M  V30 6328 N 600.109 -0.101901 -1.5727 0
M  V30 6329 C 601.525 0.254739 -1.57554 0
M  V30 6330 C 601.725 1.67937 -1.11352 0
M  V30 6331 O 600.781 2.39722 -0.793081 0
M  V30 6332 C 602.094 0.036975 -3.00677 0
M  V30 6333 C 603.642 0.104199 -3.12827 0
M  V30 6334 C 604.117 -0.0856565 -4.5792 0
M  V30 6335 N 605.608 -0.0310498 -4.6319 0
M  V30 6336 C 606.343 -0.153099 -5.73196 0
M  V30 6337 N 605.839 -0.330364 -6.92012 0
M  V30 6338 N 607.632 -0.0938854 -5.62022 0
M  V30 6339 H 599.783 -1.03263 -1.85609 0
M  V30 6340 H 602.046 -0.405251 -0.857016 0
M  V30 6341 H 601.752 -0.947254 -3.38703 0
M  V30 6342 H 601.626 0.776335 -3.69124 0
M  V30 6343 H 604.013 1.07894 -2.74669 0
M  V30 6344 H 604.094 -0.666762 -2.46957 0
M  V30 6345 H 603.738 -1.05729 -4.96773 0
M  V30 6346 H 603.668 0.705082 -5.21858 0
M  V30 6347 H 606.159 0.103141 -3.77759 0
M  V30 6348 H 606.472 -0.41482 -7.71686 0
M  V30 6349 H 604.817 -0.366119 -6.94035 0
M  V30 6350 H 608.008 0.0435168 -4.6808 0
M  V30 6351 H 608.181 -0.19245 -6.47714 0
M  V30 6352 N 601.587 1.56661 0.17182 0
M  V30 6353 C 602.815 1.861 0.904115 0
M  V30 6354 C 603.23 0.687227 1.75848 0
M  V30 6355 O 602.587 -0.343671 1.79235 0
M  V30 6356 C 602.638 3.14568 1.78127 0
M  V30 6357 O 602.359 4.27422 0.961366 0
M  V30 6358 C 603.86 3.5735 2.62327 0
M  V30 6359 H 601.08 0.617445 0.262684 0
M  V30 6360 H 603.624 2.03775 0.172068 0
M  V30 6361 H 601.779 2.98721 2.46666 0
M  V30 6362 H 602.193 5.00725 1.56123 0
M  V30 6363 H 603.667 4.50144 3.1949 0
M  V30 6364 H 604.144 2.81445 3.37173 0
M  V30 6365 H 604.75 3.75807 1.99121 0
M  V30 6366 N 603.065 -0.440357 1.51323 0
M  V30 6367 C 604.313 -1.18769 1.63518 0
M  V30 6368 C 604.634 -1.91793 0.352201 0
M  V30 6369 O 603.904 -1.85432 -0.631811 0
M  V30 6370 H 602.484 -0.441408 0.602634 0
M  V30 6371 H 605.146 -0.505162 1.8824 0
M  V30 6372 H 604.242 -1.91892 2.46138 0
M  V30 6373 N 604.543 -1.41418 -0.695603 0
M  V30 6374 C 605.453 -1.45622 -1.83933 0
M  V30 6375 C 606.469 -0.346825 -1.70508 0
M  V30 6376 O 607.645 -0.59454 -1.92424 0
M  V30 6377 C 604.71 -1.33627 -3.19914 0
M  V30 6378 C 603.771 -2.54882 -3.45447 0
M  V30 6379 C 603.004 -2.43449 -4.7494 0
M  V30 6380 O 603.227 -1.45905 -5.51424 0
M  V30 6381 O 602.161 -3.33206 -5.01256 0
M  V30 6382 H 605.987 -2.42114 -1.83342 0
M  V30 6383 H 603.572 -1.22956 -0.848658 0
M  V30 6384 H 605.454 -1.29221 -4.01098 0
M  V30 6385 H 604.129 -0.402508 -3.21188 0
M  V30 6386 H 603.036 -2.64865 -2.64192 0
M  V30 6387 H 604.369 -3.47087 -3.48987 0
M  V30 6388 N 606.021 0.929856 -1.27246 0
M  V30 6389 C 606.931 2.0636 -1.11592 0
M  V30 6390 C 607.947 1.73938 -0.046496 0
M  V30 6391 O 609.123 1.9981 -0.252544 0
M  V30 6392 C 606.188 3.38213 -0.762437 0
M  V30 6393 C 605.249 3.84346 -1.9125 0
M  V30 6394 C 604.482 5.09906 -1.57579 0
M  V30 6395 O 604.705 5.68354 -0.482694 0
M  V30 6396 O 603.639 5.51359 -2.41426 0
M  V30 6397 H 607.465 2.22478 -2.0673 0
M  V30 6398 H 605.05 1.04865 -1.06413 0
M  V30 6399 H 606.932 4.1741 -0.57854 0
M  V30 6400 H 605.607 3.23307 0.159439 0
M  V30 6401 H 604.514 3.06045 -2.15144 0
M  V30 6402 H 605.847 4.0379 -2.81451 0
M  V30 6403 N 607.499 1.09233 1.13605 0
M  V30 6404 C 608.446 0.729921 2.18954 0
M  V30 6405 C 609.416 -0.287916 1.63586 0
M  V30 6406 O 610.601 -0.170003 1.90041 0
M  V30 6407 C 607.741 0.154489 3.44754 0
M  V30 6408 C 606.854 1.22613 4.14234 0
M  V30 6409 C 605.989 0.613657 5.27644 0
M  V30 6410 C 605.028 1.66674 5.8897 0
M  V30 6411 N 604.165 1.07545 6.93814 0
M  V30 6412 H 609.005 1.63257 2.49302 0
M  V30 6413 H 606.542 0.815693 1.22413 0
M  V30 6414 H 608.5 -0.196923 4.16735 0
M  V30 6415 H 607.13 -0.711433 3.14863 0
M  V30 6416 H 606.182 1.69485 3.40557 0
M  V30 6417 H 607.494 2.0238 4.55899 0
M  V30 6418 H 606.648 0.210976 6.06333 0
M  V30 6419 H 605.387 -0.215584 4.87223 0
M  V30 6420 H 604.392 2.07899 5.08978 0
M  V30 6421 H 605.617 2.49861 6.31464 0
M  V30 6422 H 603.563 0.267451 6.55455 0
M  V30 6423 H 603.48 1.81011 7.3401 0
M  V30 6424 H 604.748 0.698906 7.7636 0
M  V30 6425 N 608.977 -1.30795 0.87923 0
M  V30 6426 C 609.924 -2.28282 0.339968 0
M  V30 6427 C 610.894 -1.56134 -0.566685 0
M  V30 6428 O 612.079 -1.84231 -0.496338 0
M  V30 6429 C 609.219 -3.42225 -0.444501 0
M  V30 6430 C 608.332 -4.29204 0.490717 0
M  V30 6431 C 607.467 -5.30302 -0.308784 0
M  V30 6432 C 606.506 -6.08929 0.622272 0
M  V30 6433 N 605.643 -7.01957 -0.14155 0
M  V30 6434 H 610.483 -2.73794 1.17647 0
M  V30 6435 H 608.02 -1.34682 0.591527 0
M  V30 6436 H 609.978 -4.07038 -0.915186 0
M  V30 6437 H 608.608 -2.97799 -1.24562 0
M  V30 6438 H 607.66 -3.6475 1.07988 0
M  V30 6439 H 608.972 -4.84045 1.20425 0
M  V30 6440 H 608.126 -6.00835 -0.841575 0
M  V30 6441 H 606.865 -4.7614 -1.05556 0
M  V30 6442 H 605.87 -5.37278 1.16674 0
M  V30 6443 H 607.095 -6.65178 1.36804 0
M  V30 6444 H 605.041 -6.50192 -0.870966 0
M  V30 6445 H 604.958 -7.54261 0.51246 0
M  V30 6446 H 606.226 -7.76741 -0.655271 0
M  V30 6447 N 610.455 -0.639598 -1.44038 0
M  V30 6448 C 611.732 -0.078012 -1.95444 0
M  V30 6449 C 612.112 1.39847 -1.58133 0
M  V30 6450 O 611.46 2.11714 -0.859614 0
M  V30 6451 C 611.67 -0.309832 -3.47622 0
M  V30 6452 C 613.018 -0.207521 -4.24093 0
M  V30 6453 O 614.042 -0.241653 -3.55379 0
M  V30 6454 O 612.901 -0.119641 -5.46369 0
M  V30 6455 H 609.995 0.0174534 -0.826816 0
M  V30 6456 H 612.541 -0.711891 -1.54046 0
M  V30 6457 H 611.313 -1.33401 -3.67858 0
M  V30 6458 H 610.936 0.357777 -3.95987 0
M  V30 6459 N 611.933 1.52934 -0.380664 0
M  V30 6460 C 613.179 2.01765 0.20458 0
M  V30 6461 C 613.512 1.26696 1.47179 0
M  V30 6462 O 612.787 0.364936 1.91046 0
M  V30 6463 C 613.07 3.56869 0.481269 0
M  V30 6464 C 612.923 4.42617 -0.800629 0
M  V30 6465 C 614.242 4.2121 1.27554 0
M  V30 6466 H 611.361 0.733388 0.0728803 0
M  V30 6467 H 614.003 1.83068 -0.50853 0
M  V30 6468 H 612.153 3.72932 1.08875 0
M  V30 6469 H 613.825 4.38323 -1.43773 0
M  V30 6470 H 612.068 4.09977 -1.4178 0
M  V30 6471 H 612.739 5.49134 -0.561791 0
M  V30 6472 H 615.215 4.09072 0.761514 0
M  V30 6473 H 614.091 5.29732 1.43788 0
M  V30 6474 H 614.352 3.78269 2.28833 0
M  V30 6475 N 613.412 0.11024 1.57214 0
M  V30 6476 C 614.637 -0.561179 1.99664 0
M  V30 6477 C 615.062 -1.59985 0.989266 0
M  V30 6478 O 614.42 -1.81255 -0.0402399 0
M  V30 6479 C 614.468 -1.17189 3.41027 0
M  V30 6480 O 613.572 -2.28755 3.4314 0
M  V30 6481 H 612.913 -0.14101 0.648855 0
M  V30 6482 H 615.443 0.196128 2.03658 0
M  V30 6483 H 615.453 -1.50954 3.79047 0
M  V30 6484 H 614.128 -0.411041 4.13864 0
M  V30 6485 H 612.705 -1.96495 3.16929 0
M  V30 6486 N 614.89 -1.56749 -0.16351 0
M  V30 6487 C 616.139 -1.81626 -0.877211 0
M  V30 6488 C 616.452 -0.688791 -1.83071 0
M  V30 6489 O 617.658 -0.822697 -2.58735 0
M  V30 6490 C 616.114 -3.21858 -1.61045 0
M  V30 6491 C 615.722 -4.42494 -0.700195 0
M  V30 6492 C 617.466 -3.56021 -2.31192 0
M  V30 6493 C 615.373 -5.73748 -1.43412 0
M  V30 6494 H 614.303 -0.67731 -0.331312 0
M  V30 6495 H 616.954 -1.83039 -0.13006 0
M  V30 6496 H 615.336 -3.14784 -2.40264 0
M  V30 6497 H 616.51 -4.60766 0.0555849 0
M  V30 6498 H 614.825 -4.1626 -0.10799 0
M  V30 6499 H 617.422 -4.51333 -2.8671 0
M  V30 6500 H 617.765 -2.81277 -3.06902 0
M  V30 6501 H 618.298 -3.64682 -1.58909 0
M  V30 6502 H 615.037 -6.51543 -0.719186 0
M  V30 6503 H 614.557 -5.5944 -2.16302 0
M  V30 6504 H 616.236 -6.15975 -1.9795 0
M  V30 6505 N 616.368 0.432326 -1.51554 0
M  V30 6506 C 617.593 1.20824 -1.68571 0
M  V30 6507 C 618.018 1.84126 -0.384596 0
M  V30 6508 O 617.376 1.69025 0.655751 0
M  V30 6509 C 617.424 2.26429 -2.80646 0
M  V30 6510 O 616.528 3.32032 -2.44598 0
M  V30 6511 H 615.869 0.353765 -0.561913 0
M  V30 6512 H 618.399 0.509916 -1.98144 0
M  V30 6513 H 618.409 2.71133 -3.04878 0
M  V30 6514 H 617.084 1.79733 -3.75058 0
M  V30 6515 H 615.661 2.92769 -2.30956 0
M  V30 6516 N 617.846 1.41785 0.688094 0
M  V30 6517 C 619.262 1.24419 0.999608 0
M  V30 6518 C 619.462 0.138868 2.01021 0
M  V30 6519 O 618.518 -0.494283 2.47615 0
M  V30 6520 C 619.831 2.59625 1.51709 0
M  V30 6521 C 621.379 2.66869 1.63554 0
M  V30 6522 C 621.854 4.0241 2.18702 0
M  V30 6523 N 623.345 4.04295 2.26053 0
M  V30 6524 C 624.08 5.05977 2.69768 0
M  V30 6525 N 623.576 6.18047 3.13033 0
M  V30 6526 N 625.369 4.93336 2.69398 0
M  V30 6527 H 617.52 2.12392 0.0187427 0
M  V30 6528 H 619.783 0.945347 0.0708673 0
M  V30 6529 H 619.489 3.41297 0.849059 0
M  V30 6530 H 619.363 2.82628 2.49803 0
M  V30 6531 H 621.75 1.8555 2.29467 0
M  V30 6532 H 621.831 2.47668 0.639857 0
M  V30 6533 H 621.475 4.8418 1.53402 0
M  V30 6534 H 621.405 4.18955 3.19037 0
M  V30 6535 H 623.896 3.23383 1.9553 0
M  V30 6536 H 624.209 6.91498 3.45038 0
M  V30 6537 H 622.554 6.21572 3.10923 0
M  V30 6538 H 625.745 4.04865 2.34952 0
M  V30 6539 H 625.918 5.72717 3.03148 0
M  V30 6540 N 619.324 -0.923095 1.27737 0
M  V30 6541 C 620.254 -2.04124 1.13383 0
M  V30 6542 C 621.235 -1.70066 0.0340658 0
M  V30 6543 O 622.42 -1.93068 0.209383 0
M  V30 6544 C 619.55 -3.3831 0.785097 0
M  V30 6545 C 618.504 -3.86496 1.8386 0
M  V30 6546 C 617.83 -5.1754 1.34373 0
M  V30 6547 C 619.13 -4.09381 3.24353 0
M  V30 6548 H 620.824 -2.1639 2.06919 0
M  V30 6549 H 618.37 -1.03976 0.996243 0
M  V30 6550 H 620.323 -4.16016 0.671485 0
M  V30 6551 H 619.047 -3.2607 -0.185969 0
M  V30 6552 H 617.706 -3.10987 1.9412 0
M  V30 6553 H 617.354 -5.01696 0.361989 0
M  V30 6554 H 617.054 -5.50751 2.04811 0
M  V30 6555 H 618.578 -5.97811 1.24315 0
M  V30 6556 H 619.992 -4.77641 3.17067 0
M  V30 6557 H 618.389 -4.53906 3.92542 0
M  V30 6558 H 619.459 -3.14515 3.69064 0
M  V30 6559 N 620.802 -1.09834 -1.13024 0
M  V30 6560 C 622.218 -0.828875 -1.36388 0
M  V30 6561 C 622.418 0.554756 -1.93713 0
M  V30 6562 O 621.474 1.30882 -2.15931 0
M  V30 6563 C 622.787 -1.92352 -2.3113 0
M  V30 6564 C 624.335 -1.95124 -2.44735 0
M  V30 6565 C 624.81 -3.03745 -3.42787 0
M  V30 6566 N 626.301 -3.03012 -3.5034 0
M  V30 6567 C 627.036 -3.83699 -4.26101 0
M  V30 6568 N 626.532 -4.74306 -5.04981 0
M  V30 6569 N 628.325 -3.71942 -4.21445 0
M  V30 6570 H 620.476 -1.99029 -0.74169 0
M  V30 6571 H 622.739 -0.864557 -0.388903 0
M  V30 6572 H 622.445 -2.91906 -1.96172 0
M  V30 6573 H 622.319 -1.80536 -3.3119 0
M  V30 6574 H 624.706 -0.962069 -2.78977 0
M  V30 6575 H 624.787 -2.11018 -1.44586 0
M  V30 6576 H 624.431 -4.02878 -3.09276 0
M  V30 6577 H 624.361 -2.85094 -4.42752 0
M  V30 6578 H 626.852 -2.37352 -2.94062 0
M  V30 6579 H 627.165 -5.32446 -5.60108 0
M  V30 6580 H 625.51 -4.78339 -5.04199 0
M  V30 6581 H 628.701 -3.00513 -3.589 0
M  V30 6582 H 628.874 -4.35062 -4.80235 0
M  V30 6583 N 622.28 1.30327 -0.886154 0
M  V30 6584 C 623.19 2.31854 -0.357866 0
M  V30 6585 C 624.206 1.65392 0.540502 0
M  V30 6586 O 625.382 1.96683 0.433339 0
M  V30 6587 C 622.447 3.44171 0.417999 0
M  V30 6588 C 621.508 4.26257 -0.510263 0
M  V30 6589 C 620.741 5.3321 0.228669 0
M  V30 6590 O 620.964 5.51542 1.45458 0
M  V30 6591 O 619.898 6.0042 -0.421832 0
M  V30 6592 H 623.724 2.78995 -1.19982 0
M  V30 6593 H 621.309 1.34518 -0.650028 0
M  V30 6594 H 623.191 4.12588 0.857251 0
M  V30 6595 H 621.866 2.99164 1.23623 0
M  V30 6596 H 620.773 3.60533 -0.99835 0
M  V30 6597 H 622.106 4.74871 -1.29454 0
M  V30 6598 N 623.758 0.647228 1.43697 0
M  V30 6599 C 624.721 -0.0385101 2.29168 0
M  V30 6600 C 625.721 -0.756487 1.41894 0
M  V30 6601 O 626.911 -0.598641 1.63591 0
M  V30 6602 C 624.043 -1.06524 3.23829 0
M  V30 6603 H 625.236 0.713445 2.9129 0
M  V30 6604 H 622.789 0.408153 1.50877 0
M  V30 6605 H 623.524 -1.84664 2.66589 0
M  V30 6606 H 623.309 -0.554147 3.88164 0
M  V30 6607 H 624.799 -1.54432 3.87996 0
M  V30 6608 N 625.236 -1.5273 0.388769 0
M  V30 6609 C 626.483 -2.01573 -0.19359 0
M  V30 6610 C 626.811 -1.27525 -1.46859 0
M  V30 6611 O 626.066 -0.363926 -1.92286 0
M  V30 6612 C 626.365 -3.53765 -0.508445 0
M  V30 6613 C 626.031 -4.4582 0.674947 0
M  V30 6614 C 624.693 -4.70703 0.999596 0
M  V30 6615 C 627.045 -5.00138 1.46666 0
M  V30 6616 C 624.373 -5.47155 2.11751 0
M  V30 6617 C 626.725 -5.77812 2.57518 0
M  V30 6618 C 625.389 -6.00975 2.90492 0
M  V30 6619 H 624.659 -0.737606 -0.0708397 0
M  V30 6620 H 627.306 -1.84134 0.526006 0
M  V30 6621 H 625.611 -3.69274 -1.30936 0
M  V30 6622 H 627.308 -3.8905 -0.971664 0
M  V30 6623 H 623.898 -4.26616 0.411906 0
M  V30 6624 H 628.082 -4.8084 1.22909 0
M  V30 6625 H 623.338 -5.63314 2.3767 0
M  V30 6626 H 627.512 -6.18904 3.19267 0
M  V30 6627 H 625.139 -6.59998 3.77236 0
M  V30 6628 N 626.714 -0.118576 -1.57153 0
M  V30 6629 C 627.939 0.550582 -1.99958 0
M  V30 6630 C 628.364 1.59458 -0.997736 0
M  V30 6631 O 627.722 1.81274 0.0306269 0
M  V30 6632 C 627.77 1.15379 -3.41643 0
M  V30 6633 O 626.874 2.26932 -3.44348 0
M  V30 6634 H 626.215 0.137567 -0.649593 0
M  V30 6635 H 628.745 -0.206926 -2.03551 0
M  V30 6636 H 628.755 1.48942 -3.79843 0
M  V30 6637 H 627.43 0.389087 -4.14076 0
M  V30 6638 H 626.007 1.94812 -3.17967 0
M  V30 6639 N 628.193 1.56834 0.155195 0
M  V30 6640 C 629.123 2.00678 1.19376 0
M  V30 6641 C 630.104 0.884973 1.45266 0
M  V30 6642 O 631.289 1.1522 1.56326 0
M  V30 6643 C 628.419 2.38042 2.5289 0
M  V30 6644 C 627.373 3.53332 2.41538 0
M  V30 6645 C 626.699 3.76485 3.79688 0
M  V30 6646 C 627.999 4.86265 1.9064 0
M  V30 6647 H 629.693 2.87688 0.829232 0
M  V30 6648 H 627.239 1.38407 0.397445 0
M  V30 6649 H 629.192 2.67314 3.25763 0
M  V30 6650 H 627.916 1.4796 2.91162 0
M  V30 6651 H 626.575 3.24213 1.71117 0
M  V30 6652 H 626.223 2.83667 4.15382 0
M  V30 6653 H 625.923 4.54068 3.72956 0
M  V30 6654 H 627.447 4.08174 4.54122 0
M  V30 6655 H 628.861 5.14308 2.53299 0
M  V30 6656 H 627.258 5.67597 1.94818 0
M  V30 6657 H 628.328 4.77184 0.861596 0
M  V30 6658 N 629.671 -0.424282 1.51781 0
M  V30 6659 C 631.087 -0.761768 1.40247 0
M  V30 6660 C 631.287 -1.95324 0.495041 0
M  V30 6661 O 630.343 -2.5246 -0.0448949 0
M  V30 6662 C 631.656 -1.0299 2.82513 0
M  V30 6663 C 633.204 -1.13354 2.91753 0
M  V30 6664 C 633.679 -1.43453 4.34954 0
M  V30 6665 N 635.17 -1.5035 4.3812 0
M  V30 6666 C 635.905 -1.75236 5.45967 0
M  V30 6667 N 635.401 -1.97827 6.63955 0
M  V30 6668 N 637.194 -1.77126 5.33463 0
M  V30 6669 H 629.345 0.360228 2.09323 0
M  V30 6670 H 631.608 0.0988128 0.942836 0
M  V30 6671 H 631.314 -0.226961 3.50967 0
M  V30 6672 H 631.188 -1.95411 3.22637 0
M  V30 6673 H 633.575 -1.92709 2.23489 0
M  V30 6674 H 633.656 -0.188041 2.55108 0
M  V30 6675 H 633.3 -0.646209 5.03772 0
M  V30 6676 H 633.23 -2.3923 4.69123 0
M  V30 6677 H 635.721 -1.34742 3.53062 0
M  V30 6678 H 636.034 -2.16223 7.41935 0
M  V30 6679 H 634.379 -1.95123 6.67047 0
M  V30 6680 H 637.57 -1.59005 4.40267 0
M  V30 6681 H 637.743 -1.96182 6.17589 0
M  V30 6682 N 631.149 -1.42148 -0.680565 0
M  V30 6683 C 632.099 -1.41634 -1.78672 0
M  V30 6684 C 633.083 -0.288494 -1.58293 0
M  V30 6685 O 634.275 -0.530295 -1.68869 0
M  V30 6686 C 631.404 -1.31558 -3.17092 0
M  V30 6687 C 630.49 -2.49265 -3.43115 0
M  V30 6688 N 630.881 -3.74702 -3.39753 0
M  V30 6689 C 629.179 -2.43401 -3.73727 0
M  V30 6690 C 629.88 -4.52854 -3.651 0
M  V30 6691 N 628.856 -3.83181 -3.85582 0
M  V30 6692 H 632.658 -2.3652 -1.74458 0
M  V30 6693 H 630.172 -1.36415 -0.881171 0
M  V30 6694 H 632.169 -1.29272 -3.96351 0
M  V30 6695 H 630.829 -0.376696 -3.22508 0
M  V30 6696 H 631.84 -4.07378 -3.19787 0
M  V30 6697 H 628.517 -1.58062 -3.86423 0
M  V30 6698 H 629.907 -5.61827 -3.6851 0
M  V30 6699 N 632.627 0.916307 -1.28225 0
M  V30 6700 C 633.855 1.69901 -1.18073 0
M  V30 6701 C 634.27 1.86988 0.260968 0
M  V30 6702 O 633.627 1.39505 1.17663 0
M  V30 6703 C 633.678 3.09254 -1.87201 0
M  V30 6704 O 633.399 2.92959 -3.2574 0
M  V30 6705 C 634.9 4.0362 -1.83319 0
M  V30 6706 H 632.12 0.531181 -0.409985 0
M  V30 6707 H 634.664 1.14703 -1.69303 0
M  V30 6708 H 632.819 3.61277 -1.39848 0
M  V30 6709 H 633.233 3.81139 -3.60324 0
M  V30 6710 H 634.707 4.98873 -2.36282 0
M  V30 6711 H 635.184 4.3176 -0.805007 0
M  V30 6712 H 635.79 3.57524 -2.3034 0
M  V30 6713 N 634.105 1.10431 1.1244 0
M  V30 6714 C 635.333 0.868872 1.87772 0
M  V30 6715 C 635.748 -0.580645 1.7965 0
M  V30 6716 O 635.105 -1.40031 1.17036 0
M  V30 6717 C 635.156 1.30855 3.36986 0
M  V30 6718 O 634.877 2.70123 3.44914 0
M  V30 6719 C 636.378 1.107 4.29256 0
M  V30 6720 H 633.598 0.311868 0.59412 0
M  V30 6721 H 636.142 1.46897 1.42273 0
M  V30 6722 H 634.297 0.752126 3.80029 0
M  V30 6723 H 634.711 2.88923 4.37748 0
M  V30 6724 H 636.185 1.46378 5.32238 0
M  V30 6725 H 636.662 0.0456228 4.39176 0
M  V30 6726 H 637.268 1.64988 3.91994 0
M  V30 6727 N 635.583 -1.29855 0.893053 0
M  V30 6728 C 636.493 -2.31661 0.370157 0
M  V30 6729 C 637.509 -1.65677 -0.531723 0
M  V30 6730 O 638.685 -1.9691 -0.422902 0
M  V30 6731 C 635.75 -3.44388 -0.399741 0
M  V30 6732 C 634.811 -4.2598 0.532861 0
M  V30 6733 C 634.044 -5.33324 -0.200388 0
M  V30 6734 O 634.267 -5.52305 -1.42531 0
M  V30 6735 O 633.201 -6.00188 0.453668 0
M  V30 6736 H 637.027 -2.78354 1.2146 0
M  V30 6737 H 634.612 -1.34171 0.657153 0
M  V30 6738 H 636.494 -4.13037 -0.835358 0
M  V30 6739 H 635.169 -2.99815 -1.22035 0
M  V30 6740 H 634.076 -3.59998 1.01746 0
M  V30 6741 H 635.409 -4.74178 1.3197 0
M  V30 6742 N 637.061 -0.65484 -1.43351 0
M  V30 6743 C 638.009 0.0476784 -2.32551 0
M  V30 6744 C 639.003 0.811403 -1.48703 0
M  V30 6745 O 640.209 0.721621 -1.64902 0
M  V30 6746 H 636.584 0.0342038 -0.751222 0
M  V30 6747 H 638.555 -0.722342 -2.89525 0
M  V30 6748 C 637.304 0.999251 -3.33032 0
M  V30 6749 H 636.627 0.421005 -3.97577 0
M  V30 6750 H 638.067 1.45986 -3.98076 0
M  V30 6751 C 636.526 2.09606 -2.63756 0
M  V30 6752 O 637.056 3.18004 -2.4543 0
M  V30 6753 N 635.262 1.86207 -2.23103 0
M  V30 6754 H 634.809 0.980555 -2.38208 0
M  V30 6755 H 634.767 2.59787 -1.77081 0
M  V30 6756 N 638.539 1.52521 -0.396863 0
M  V30 6757 C 639.486 2.26671 0.434624 0
M  V30 6758 C 640.456 1.28584 1.05144 0
M  V30 6759 O 641.641 1.57426 1.07804 0
M  V30 6760 C 638.781 3.08234 1.55196 0
M  V30 6761 C 637.894 4.21261 0.957262 0
M  V30 6762 C 637.029 4.90205 2.04627 0
M  V30 6763 C 636.068 5.95213 1.42787 0
M  V30 6764 N 635.205 6.57723 2.45651 0
M  V30 6765 H 640.045 2.973 -0.204139 0
M  V30 6766 H 637.582 1.46669 -0.112505 0
M  V30 6767 H 639.54 3.53819 2.2106 0
M  V30 6768 H 638.17 2.398 2.16092 0
M  V30 6769 H 637.222 3.79935 0.188005 0
M  V30 6770 H 638.534 4.96624 0.465416 0
M  V30 6771 H 637.688 5.39133 2.78246 0
M  V30 6772 H 636.427 4.14383 2.57174 0
M  V30 6773 H 635.432 5.45616 0.676968 0
M  V30 6774 H 636.657 6.72972 0.910255 0
M  V30 6775 H 634.603 5.84737 2.97353 0
M  V30 6776 H 634.52 7.28723 2.01243 0
M  V30 6777 H 635.788 7.11293 3.18876 0
M  V30 6778 N 640.017 0.126909 1.57088 0
M  V30 6779 C 641.428 -0.397201 1.82426 0
M  V30 6780 C 641.779 -1.66084 1.04453 0
M  V30 6781 O 640.904 -2.14534 0.283552 0
M  V30 6782 C 641.499 -0.727411 3.30899 0
M  V30 6783 C 640.058 -1.19612 3.56889 0
M  V30 6784 C 639.205 -0.20885 2.76512 0
M  V30 6785 H 642.156 0.351924 1.54749 0
M  V30 6786 H 642.177 -1.58407 3.45959 0
M  V30 6787 H 641.689 0.19247 3.87622 0
M  V30 6788 H 639.79 -2.13263 3.05532 0
M  V30 6789 H 639.903 -1.13598 4.65438 0
M  V30 6790 H 638.267 -0.697479 2.44964 0
M  V30 6791 H 639.05 0.704267 3.35998 0
M  V30 6792 N 641.495 -1.56914 -0.146875 0
M  V30 6793 C 642.445 -1.94693 -1.18653 0
M  V30 6794 C 643.429 -0.81821 -1.38543 0
M  V30 6795 O 644.621 -1.08167 -1.40103 0
M  V30 6796 C 641.75 -2.33117 -2.52014 0
M  V30 6797 C 640.836 -3.5256 -2.35717 0
M  V30 6798 N 641.227 -4.69091 -1.89175 0
M  V30 6799 C 639.525 -3.57647 -2.66467 0
M  V30 6800 C 640.226 -5.51187 -1.85924 0
M  V30 6801 N 639.202 -4.92899 -2.29242 0
M  V30 6802 H 643.004 -2.82264 -0.81879 0
M  V30 6803 H 640.518 -1.58474 -0.354929 0
M  V30 6804 H 642.515 -2.58387 -3.27172 0
M  V30 6805 H 641.175 -1.46898 -2.89571 0
M  V30 6806 H 642.186 -4.92844 -1.59139 0
M  V30 6807 H 638.863 -2.81967 -3.07898 0
M  V30 6808 H 640.253 -6.54613 -1.51431 0
M  V30 6809 N 642.974 0.416227 -1.52004 0
M  V30 6810 C 644.199 1.19029 -1.69843 0
M  V30 6811 C 644.624 1.83708 -0.404103 0
M  V30 6812 O 643.982 1.69711 0.637787 0
M  V30 6813 C 644.03 2.23439 -2.83032 0
M  V30 6814 O 643.134 3.29419 -2.48106 0
M  V30 6815 H 642.475 0.347785 -0.565634 0
M  V30 6816 H 645.005 0.488871 -1.98674 0
M  V30 6817 H 645.015 2.67884 -3.07737 0
M  V30 6818 H 643.69 1.75745 -3.76944 0
M  V30 6819 H 642.267 2.90303 -2.34048 0
M  V30 6820 N 644.452 1.42507 0.673017 0
M  V30 6821 C 645.863 1.38347 1.25367 0
M  V30 6822 C 646.214 0.0776327 1.96046 0
M  V30 6823 O 645.339 -0.823571 2.00116 0
M  V30 6824 C 645.934 2.506 2.28002 0
M  V30 6825 C 644.493 2.49767 2.81591 0
M  V30 6826 C 643.64 2.293 1.55938 0
M  V30 6827 H 646.591 1.51695 0.466288 0
M  V30 6828 H 646.612 2.20953 3.09774 0
M  V30 6829 H 646.124 3.45627 1.76532 0
M  V30 6830 H 644.225 1.58563 3.37177 0
M  V30 6831 H 644.338 3.46867 3.30485 0
M  V30 6832 H 642.702 1.77594 1.82572 0
M  V30 6833 H 643.485 3.26385 1.06431 0
M  V30 6834 N 645.93 -0.909495 1.28709 0
M  V30 6835 C 646.877 -2.01245 1.13 0
M  V30 6836 C 647.847 -1.6608 0.0259684 0
M  V30 6837 O 649.032 -1.89835 0.191687 0
M  V30 6838 C 646.172 -3.35644 0.802315 0
M  V30 6839 C 645.285 -3.83653 1.98582 0
M  V30 6840 C 644.42 -5.06582 1.59837 0
M  V30 6841 C 643.459 -5.46934 2.74827 0
M  V30 6842 N 642.596 -6.61053 2.36546 0
M  V30 6843 H 647.436 -2.14013 2.0737 0
M  V30 6844 H 644.973 -1.0482 1.03205 0
M  V30 6845 H 646.931 -4.12963 0.593057 0
M  V30 6846 H 645.561 -3.22631 -0.104457 0
M  V30 6847 H 644.613 -3.02454 2.30708 0
M  V30 6848 H 645.925 -4.09515 2.84779 0
M  V30 6849 H 645.079 -5.91457 1.35143 0
M  V30 6850 H 643.818 -4.82537 0.707753 0
M  V30 6851 H 642.823 -4.60599 3.00215 0
M  V30 6852 H 644.048 -5.72965 3.64538 0
M  V30 6853 H 641.994 -6.3863 1.49959 0
M  V30 6854 H 641.911 -6.86662 3.16277 0
M  V30 6855 H 643.179 -7.49221 2.15146 0
M  V30 6856 N 647.408 -1.11026 -1.11852 0
M  V30 6857 C 648.636 -0.878818 -1.87308 0
M  V30 6858 C 649.051 0.57111 -1.79955 0
M  V30 6859 O 648.408 1.39409 -1.17777 0
M  V30 6860 C 648.459 -1.3264 -3.36287 0
M  V30 6861 O 648.18 -2.71948 -3.43476 0
M  V30 6862 C 649.681 -1.12974 -4.28663 0
M  V30 6863 H 646.901 -0.315015 -0.592458 0
M  V30 6864 H 649.445 -1.47649 -1.41492 0
M  V30 6865 H 647.6 -0.772269 -3.79625 0
M  V30 6866 H 648.014 -2.91241 -4.3621 0
M  V30 6867 H 649.488 -1.49198 -5.31454 0
M  V30 6868 H 649.965 -0.0689127 -4.39146 0
M  V30 6869 H 650.571 -1.67064 -3.91113 0
M  V30 6870 N 648.886 1.2938 -0.899927 0
M  V30 6871 C 650.297 1.77644 -0.574427 0
M  V30 6872 C 650.648 1.73824 0.909928 0
M  V30 6873 O 649.773 1.32429 1.71147 0
M  V30 6874 C 650.368 3.22573 -1.03595 0
M  V30 6875 C 648.927 3.68614 -0.76161 0
M  V30 6876 C 648.074 2.49483 -1.21052 0
M  V30 6877 H 651.025 1.16038 -1.08263 0
M  V30 6878 H 651.046 3.78684 -0.371337 0
M  V30 6879 H 650.558 3.25321 -2.11631 0
M  V30 6880 H 648.659 3.7134 0.306127 0
M  V30 6881 H 648.772 4.59402 -1.35965 0
M  V30 6882 H 647.136 2.46798 -0.629515 0
M  V30 6883 H 647.919 2.54959 -2.29893 0
M  V30 6884 N 650.364 0.662433 1.43002 0
M  V30 6885 C 651.274 -0.0239199 2.34588 0
M  V30 6886 C 652.29 -0.802255 1.54402 0
M  V30 6887 O 653.466 -0.747401 1.87018 0
M  V30 6888 C 650.531 -0.972098 3.32793 0
M  V30 6889 C 649.592 -0.189673 4.28881 0
M  V30 6890 C 648.825 -1.09269 5.22395 0
M  V30 6891 O 649.048 -2.33209 5.20547 0
M  V30 6892 O 647.982 -0.560136 5.99288 0
M  V30 6893 H 651.808 0.730171 2.94792 0
M  V30 6894 H 649.393 0.422635 1.43297 0
M  V30 6895 H 651.275 -1.51676 3.93157 0
M  V30 6896 H 649.95 -1.70626 2.75079 0
M  V30 6897 H 648.857 0.398794 3.71968 0
M  V30 6898 H 650.19 0.50511 4.89601 0
M  V30 6899 N 651.842 -1.52309 0.404946 0
M  V30 6900 C 653.253 -1.86585 -0.0655926 0
M  V30 6901 C 653.604 -1.3239 -1.44801 0
M  V30 6902 O 652.729 -0.6615 -2.06042 0
M  V30 6903 C 653.324 -3.38566 -0.125801 0
M  V30 6904 C 651.883 -3.72497 -0.540666 0
M  V30 6905 C 651.03 -2.75806 0.287487 0
M  V30 6906 H 653.981 -1.45995 0.622185 0
M  V30 6907 H 654.002 -3.68658 -0.941888 0
M  V30 6908 H 653.514 -3.77981 0.880473 0
M  V30 6909 H 651.615 -3.38659 -1.55373 0
M  V30 6910 H 651.728 -4.78234 -0.287956 0
M  V30 6911 H 650.092 -2.53474 -0.249561 0
M  V30 6912 H 650.875 -3.18059 1.29203 0
M  V30 6913 N 653.32 -0.135238 -1.57019 0
M  V30 6914 C 654.736 0.221262 -1.58059 0
M  V30 6915 C 654.936 1.65538 -1.14889 0
M  V30 6916 O 653.992 2.37985 -0.843751 0
M  V30 6917 C 655.305 -0.0268114 -3.00688 0
M  V30 6918 C 656.853 0.0378206 -3.12977 0
M  V30 6919 C 657.328 -0.182769 -4.57635 0
M  V30 6920 N 658.819 -0.129292 -4.6302 0
M  V30 6921 C 659.554 -0.274648 -5.72742 0
M  V30 6922 N 659.05 -0.477075 -6.91155 0
M  V30 6923 N 660.843 -0.213077 -5.61696 0
M  V30 6924 H 652.994 -1.07177 -1.83376 0
M  V30 6925 H 655.257 -0.423338 -0.848227 0
M  V30 6926 H 654.963 -1.01889 -3.36618 0
M  V30 6927 H 654.837 0.697863 -3.70688 0
M  V30 6928 H 657.224 1.02043 -2.76896 0
M  V30 6929 H 657.305 -0.718996 -2.45487 0
M  V30 6930 H 656.949 -1.16243 -4.94419 0
M  V30 6931 H 656.879 0.59423 -5.23237 0
M  V30 6932 H 659.37 0.0229896 -3.77893 0
M  V30 6933 H 659.683 -0.578413 -7.70632 0
M  V30 6934 H 658.028 -0.513252 -6.93102 0
M  V30 6935 H 661.219 -0.0557796 -4.68067 0
M  V30 6936 H 661.392 -0.329796 -6.4716 0
M  V30 6937 N 654.798 1.5699 0.138552 0
M  V30 6938 C 656.214 1.51844 0.491472 0
M  V30 6939 C 656.414 0.845063 1.82923 0
M  V30 6940 O 655.47 0.419143 2.48997 0
M  V30 6941 C 656.783 2.96615 0.493987 0
M  V30 6942 C 658.331 3.076 0.578913 0
M  V30 6943 C 658.806 4.53893 0.612009 0
M  V30 6944 N 660.297 4.5827 0.673997 0
M  V30 6945 C 661.032 5.68852 0.720729 0
M  V30 6946 N 660.528 6.88982 0.726292 0
M  V30 6947 N 662.321 5.56908 0.762253 0
M  V30 6948 H 654.472 1.99158 -0.738228 0
M  V30 6949 H 656.735 0.908693 -0.270149 0
M  V30 6950 H 656.441 3.49172 -0.420933 0
M  V30 6951 H 656.315 3.53017 1.32887 0
M  V30 6952 H 658.702 2.55057 1.48425 0
M  V30 6953 H 658.783 2.54227 -0.283286 0
M  V30 6954 H 658.427 5.07076 -0.289208 0
M  V30 6955 H 658.357 5.05057 1.49082 0
M  V30 6956 H 660.848 3.71793 0.676654 0
M  V30 6957 H 661.161 7.69014 0.764032 0
M  V30 6958 H 659.506 6.91526 0.69403 0
M  V30 6959 H 662.697 4.61969 0.755135 0
M  V30 6960 H 662.87 6.43102 0.795207 0
M  V30 6961 N 656.276 -0.40816 1.52223 0
M  V30 6962 C 657.501 -1.18127 1.70472 0
M  V30 6963 C 657.926 -1.83491 0.41384 0
M  V30 6964 O 657.284 -1.70047 -0.628778 0
M  V30 6965 C 657.332 -2.21935 2.84213 0
M  V30 6966 O 656.436 -3.28099 2.4985 0
M  V30 6967 H 655.777 -0.344781 0.56747 0
M  V30 6968 H 658.307 -0.478328 1.9893 0
M  V30 6969 H 658.317 -2.66248 3.09153 0
M  V30 6970 H 656.992 -1.73744 3.7787 0
M  V30 6971 H 655.569 -2.89058 2.35584 0
M  V30 6972 N 657.755 -1.42862 -0.66545 0
M  V30 6973 C 659.166 -1.3901 -1.24632 0
M  V30 6974 C 659.517 -0.0880285 -1.96002 0
M  V30 6975 O 658.642 0.812947 -2.0055 0
M  V30 6976 C 659.237 -2.51806 -2.2667 0
M  V30 6977 C 657.796 -2.51257 -2.80262 0
M  V30 6978 C 656.943 -2.30124 -1.5472 0
M  V30 6979 H 659.894 -1.5194 -0.458237 0
M  V30 6980 H 659.915 -2.22593 -3.08598 0
M  V30 6981 H 659.427 -3.46558 -1.74697 0
M  V30 6982 H 657.528 -1.60349 -3.36332 0
M  V30 6983 H 657.641 -3.48614 -3.28641 0
M  V30 6984 H 656.005 -1.7856 -1.81627 0
M  V30 6985 H 656.788 -3.26945 -1.04699 0
M  V30 6986 N 659.233 0.902656 -1.29189 0
M  V30 6987 C 660.163 2.02294 -1.16616 0
M  V30 6988 C 661.144 1.6999 -0.0611175 0
M  V30 6989 O 662.329 1.9271 -0.240072 0
M  V30 6990 C 659.459 3.37018 -0.83882 0
M  V30 6991 C 658.413 3.83522 -1.89986 0
M  V30 6992 C 657.739 5.15337 -1.42589 0
M  V30 6993 C 659.039 4.04169 -3.30824 0
M  V30 6994 H 660.733 2.13071 -2.10336 0
M  V30 6995 H 658.279 1.02378 -1.01266 0
M  V30 6996 H 660.232 4.14895 -0.737584 0
M  V30 6997 H 658.956 3.26325 0.134071 0
M  V30 6998 H 657.615 3.07859 -1.99043 0
M  V30 6999 H 657.263 5.01056 -0.441759 0
M  V30 7000 H 656.963 5.47423 -2.13547 0
M  V30 7001 H 658.487 5.95758 -1.3381 0
M  V30 7002 H 659.901 4.72537 -3.24626 0
M  V30 7003 H 658.298 4.47604 -3.99713 0
M  V30 7004 H 659.368 3.08604 -3.74021 0
M  V30 7005 N 660.711 1.11618 1.11262 0
M  V30 7006 C 661.959 0.864469 1.82678 0
M  V30 7007 C 662.28 -0.611564 1.85162 0
M  V30 7008 O 661.55 -1.44429 1.32352 0
M  V30 7009 H 660.13 0.316821 0.676486 0
M  V30 7010 H 662.792 1.40894 1.34666 0
M  V30 7011 H 661.888 1.23832 2.86482 0
M  V30 7012 N 662.189 -1.289 0.906776 0
M  V30 7013 C 663.121 -2.26556 0.347159 0
M  V30 7014 C 664.134 -1.54589 -0.51049 0
M  V30 7015 O 665.323 -1.75489 -0.326501 0
M  V30 7016 C 662.423 -3.3484 -0.523024 0
M  V30 7017 C 661.596 -4.36296 0.310515 0
M  V30 7018 C 660.655 -5.23879 -0.493634 0
M  V30 7019 O 659.681 -5.69127 0.0913569 0
M  V30 7020 N 660.883 -5.51946 -1.7982 0
M  V30 7021 H 663.648 -2.75212 1.18652 0
M  V30 7022 H 661.209 -1.42309 0.771996 0
M  V30 7023 H 663.201 -3.90366 -1.06756 0
M  V30 7024 H 661.771 -2.85946 -1.26309 0
M  V30 7025 H 660.991 -3.80331 1.03644 0
M  V30 7026 H 662.279 -5.01113 0.881106 0
M  V30 7027 H 661.677 -5.17006 -2.2961 0
M  V30 7028 H 660.234 -6.10258 -2.28971 0
M  V30 7029 N 663.667 -0.670007 -1.42649 0
M  V30 7030 C 664.614 0.0112928 -2.30797 0
M  V30 7031 C 665.584 0.797627 -1.45695 0
M  V30 7032 O 666.769 0.770845 -1.74535 0
M  V30 7033 C 663.909 0.95998 -3.31479 0
M  V30 7034 C 663.022 0.167975 -4.31673 0
M  V30 7035 C 662.157 1.11198 -5.19431 0
M  V30 7036 C 661.196 0.311381 -6.11307 0
M  V30 7037 N 660.333 1.20784 -6.91633 0
M  V30 7038 H 665.173 -0.746231 -2.88505 0
M  V30 7039 H 662.71 -0.379739 -1.42114 0
M  V30 7040 H 664.668 1.52379 -3.88377 0
M  V30 7041 H 663.298 1.68419 -2.75382 0
M  V30 7042 H 662.35 -0.512385 -3.76933 0
M  V30 7043 H 663.662 -0.453814 -4.96731 0
M  V30 7044 H 662.816 1.74587 -5.81037 0
M  V30 7045 H 661.555 1.76766 -4.54538 0
M  V30 7046 H 660.56 -0.335758 -5.48774 0
M  V30 7047 H 661.785 -0.340135 -6.78248 0
M  V30 7048 H 659.731 1.85001 -6.29373 0
M  V30 7049 H 659.648 0.64102 -7.53277 0
M  V30 7050 H 660.916 1.82936 -7.5773 0
M  V30 7051 N 665.145 1.52092 -0.413018 0
M  V30 7052 C 666.561 1.59471 -0.0640836 0
M  V30 7053 C 666.761 1.42562 1.42402 0
M  V30 7054 O 665.817 1.25453 2.19129 0
M  V30 7055 C 667.13 2.95392 -0.562474 0
M  V30 7056 C 668.678 3.08637 -0.520788 0
M  V30 7057 C 669.153 4.47044 -0.995752 0
M  V30 7058 N 670.644 4.53296 -0.952732 0
M  V30 7059 C 671.379 5.58669 -1.29138 0
M  V30 7060 N 670.875 6.71576 -1.70168 0
M  V30 7061 N 672.668 5.48898 -1.2111 0
M  V30 7062 H 664.819 1.6133 -1.38153 0
M  V30 7063 H 667.082 0.75916 -0.567785 0
M  V30 7064 H 666.788 3.13059 -1.60271 0
M  V30 7065 H 666.662 3.77191 0.0257875 0
M  V30 7066 H 669.049 2.90652 0.510412 0
M  V30 7067 H 669.13 2.28735 -1.14515 0
M  V30 7068 H 668.774 4.65773 -2.0253 0
M  V30 7069 H 668.704 5.25448 -0.348162 0
M  V30 7070 H 671.195 3.72248 -0.651119 0
M  V30 7071 H 671.508 7.47973 -1.9431 0
M  V30 7072 H 669.853 6.72847 -1.74075 0
M  V30 7073 H 673.044 4.59573 -0.889396 0
M  V30 7074 H 673.217 6.30912 -1.47833 0
M  V30 7075 N 666.623 0.143563 1.56945 0
M  V30 7076 C 667.871 -0.507402 1.95627 0
M  V30 7077 C 668.192 -1.65626 1.02922 0
M  V30 7078 O 667.462 -1.95693 0.0901136 0
M  V30 7079 H 666.042 -0.190436 0.722318 0
M  V30 7080 H 668.704 0.218257 1.93674 0
M  V30 7081 H 667.8 -0.885816 2.99265 0
M  V30 7082 N 668.101 -1.57061 -0.130224 0
M  V30 7083 C 669.034 -1.94698 -1.19029 0
M  V30 7084 C 670.012 -0.815074 -1.40696 0
M  V30 7085 O 671.196 -1.07223 -1.55034 0
M  V30 7086 C 668.323 -2.23352 -2.5462 0
M  V30 7087 C 667.369 -3.45945 -2.49448 0
M  V30 7088 S 668.202 -4.98927 -1.94505 0
M  V30 7089 C 669.358 -5.30721 -3.31792 0
M  V30 7090 H 669.591 -2.84308 -0.869272 0
M  V30 7091 H 667.124 -1.50688 -0.336531 0
M  V30 7092 H 669.082 -2.40539 -3.32643 0
M  V30 7093 H 667.743 -1.34376 -2.83905 0
M  V30 7094 H 666.936 -3.63324 -3.49302 0
M  V30 7095 H 666.538 -3.28086 -1.79543 0
M  V30 7096 H 668.83 -5.25215 -4.27966 0
M  V30 7097 H 669.773 -6.32048 -3.19251 0
M  V30 7098 H 670.181 -4.5821 -3.29703 0
M  V30 7099 N 669.579 0.400081 -1.52437 0
M  V30 7100 C 670.509 1.4947 -1.7939 0
M  V30 7101 C 671.49 1.57383 -0.645329 0
M  V30 7102 O 672.675 1.72511 -0.891826 0
M  V30 7103 C 669.805 2.87201 -1.95276 0
M  V30 7104 C 668.759 2.94134 -3.10917 0
M  V30 7105 C 668.085 4.34207 -3.1204 0
M  V30 7106 C 669.385 2.64791 -4.50203 0
M  V30 7107 H 671.079 1.27165 -2.71052 0
M  V30 7108 H 668.625 0.610312 -1.30427 0
M  V30 7109 H 670.578 3.63772 -2.12715 0
M  V30 7110 H 669.302 3.10819 -1.00294 0
M  V30 7111 H 667.961 2.20009 -2.93243 0
M  V30 7112 H 667.609 4.54848 -2.14761 0
M  V30 7113 H 667.309 4.39768 -3.89715 0
M  V30 7114 H 668.833 5.127 -3.31619 0
M  V30 7115 H 670.247 3.31083 -4.68035 0
M  V30 7116 H 668.644 2.81717 -5.29864 0
M  V30 7117 H 669.714 1.60184 -4.57678 0
M  V30 7118 N 671.057 1.43213 0.657864 0
M  V30 7119 C 672.282 1.48227 1.45064 0
M  V30 7120 C 672.707 0.0999939 1.87834 0
M  V30 7121 O 672.065 -0.905269 1.57081 0
M  V30 7122 C 672.113 2.42931 2.6649 0
M  V30 7123 O 671.217 1.91237 3.6538 0
M  V30 7124 H 670.558 0.501551 0.435135 0
M  V30 7125 H 673.088 1.8808 0.805431 0
M  V30 7126 H 673.098 2.6008 3.1436 0
M  V30 7127 H 671.773 3.43348 2.34701 0
M  V30 7128 H 670.35 1.83726 3.24498 0
M  V30 7129 N 672.536 -0.895792 1.29666 0
M  V30 7130 C 673.761 -1.68528 1.20885 0
M  V30 7131 C 674.186 -1.8673 -0.226595 0
M  V30 7132 O 673.544 -1.39044 -1.16347 0
M  V30 7133 C 673.592 -3.04512 1.93144 0
M  V30 7134 O 672.696 -3.92963 1.25115 0
M  V30 7135 H 672.037 -0.515371 0.418675 0
M  V30 7136 H 674.567 -1.11878 1.71302 0
M  V30 7137 H 674.577 -3.54628 2.0175 0
M  V30 7138 H 673.252 -2.90582 2.97548 0
M  V30 7139 H 671.829 -3.51399 1.24794 0
M  V30 7140 N 674.014 -1.12206 -1.10668 0
M  V30 7141 C 675.239 -0.898938 -1.86906 0
M  V30 7142 C 675.664 0.546346 -1.79991 0
M  V30 7143 O 675.022 1.38655 -1.1681 0
M  V30 7144 C 675.07 -1.37529 -3.33344 0
M  V30 7145 O 674.174 -0.55218 -4.08687 0
M  V30 7146 H 673.515 -0.323163 -0.580053 0
M  V30 7147 H 676.045 -1.49355 -1.39837 0
M  V30 7148 H 676.055 -1.3733 -3.84193 0
M  V30 7149 H 674.73 -2.42767 -3.37693 0
M  V30 7150 H 673.307 -0.620947 -3.67694 0
M  V30 7151 N 675.492 1.28418 -0.913599 0
M  V30 7152 C 676.72 1.99106 -0.562536 0
M  V30 7153 C 677.135 1.68273 0.856137 0
M  V30 7154 O 676.492 0.935401 1.56705 0
M  V30 7155 C 676.543 3.5338 -0.761903 0
M  V30 7156 O 676.264 3.83127 -2.12475 0
M  V30 7157 C 677.765 4.41328 -0.417651 0
M  V30 7158 H 674.985 0.635798 -0.214481 0
M  V30 7159 H 677.529 1.63618 -1.22676 0
M  V30 7160 H 675.684 3.8713 -0.144676 0
M  V30 7161 H 676.098 4.77763 -2.16431 0
M  V30 7162 H 677.572 5.48642 -0.607919 0
M  V30 7163 H 678.049 4.34422 0.646108 0
M  V30 7164 H 678.655 4.13074 -1.01241 0
M  V30 7165 N 676.97 0.677563 1.42291 0
M  V30 7166 C 678.195 0.207901 2.06355 0
M  V30 7167 C 678.62 -1.12723 1.50583 0
M  V30 7168 O 677.978 -1.70171 0.62543 0
M  V30 7169 C 678.026 0.156489 3.6026 0
M  V30 7170 O 677.13 -0.874162 4.03029 0
M  V30 7171 H 676.471 0.106056 0.655475 0
M  V30 7172 H 679.001 0.927354 1.82377 0
M  V30 7173 H 679.011 -0.0187258 4.07996 0
M  V30 7174 H 677.686 1.13101 4.00226 0
M  V30 7175 H 676.263 -0.669764 3.66836 0
M  V30 7176 N 678.448 -1.51871 0.421078 0
M  V30 7177 C 679.696 -2.01539 -0.150492 0
M  V30 7178 C 680.017 -1.30803 -1.44623 0
M  V30 7179 O 679.287 -0.437568 -1.90951 0
M  V30 7180 H 677.867 -0.744698 -0.0586041 0
M  V30 7181 H 680.529 -1.8668 0.560059 0
M  V30 7182 H 679.625 -3.10264 -0.338068 0
M  V30 7183 N 679.926 -0.151884 -1.56866 0
M  V30 7184 C 680.889 0.771861 -2.15812 0
M  V30 7185 C 681.889 1.17181 -1.10115 0
M  V30 7186 O 683.079 1.09194 -1.35729 0
M  V30 7187 C 680.211 2.04806 -2.7252 0
M  V30 7188 H 681.404 0.259021 -2.98779 0
M  V30 7189 H 678.957 0.097588 -1.55995 0
M  V30 7190 H 679.692 2.60445 -1.93233 0
M  V30 7191 H 679.477 1.77044 -3.49854 0
M  V30 7192 H 680.967 2.70771 -3.1792 0
M  V30 7193 N 681.404 1.57128 0.121893 0
M  V30 7194 C 682.653 1.83888 0.828748 0
M  V30 7195 C 682.966 0.737087 1.81181 0
M  V30 7196 O 684.172 0.891007 2.56463 0
M  V30 7197 C 682.628 3.26014 1.52455 0
M  V30 7198 C 682.236 4.44195 0.58263 0
M  V30 7199 C 683.98 3.62025 2.21671 0
M  V30 7200 C 681.887 5.77349 1.28149 0
M  V30 7201 H 680.817 0.685856 0.313238 0
M  V30 7202 H 683.468 1.83319 0.0814851 0
M  V30 7203 H 681.85 3.21044 2.31834 0
M  V30 7204 H 683.024 4.60457 -0.177729 0
M  V30 7205 H 681.339 4.164 -0.00241228 0
M  V30 7206 H 683.936 4.58776 2.74643 0
M  V30 7207 H 684.279 2.89315 2.99337 0
M  V30 7208 H 684.812 3.68767 1.49184 0
M  V30 7209 H 681.551 6.53221 0.546189 0
M  V30 7210 H 681.071 5.64978 2.01394 0
M  V30 7211 H 682.75 6.21006 1.81549 0
M  V30 7212 N 682.882 -0.391992 1.52647 0
M  V30 7213 C 684.107 -1.16312 1.71716 0
M  V30 7214 C 684.532 -1.83042 0.433279 0
M  V30 7215 O 683.89 -1.70705 -0.610707 0
M  V30 7216 C 683.938 -2.18908 2.86551 0
M  V30 7217 O 683.042 -3.2543 2.53316 0
M  V30 7218 H 682.383 -0.338743 0.571095 0
M  V30 7219 H 684.913 -0.457202 1.99426 0
M  V30 7220 H 684.923 -2.62954 3.1196 0
M  V30 7221 H 683.598 -1.69726 3.79692 0
M  V30 7222 H 682.175 -2.86543 2.38637 0
M  V30 7223 N 684.36 -1.4356 -0.65026 0
M  V30 7224 C 685.637 -1.35811 -1.40765 0
M  V30 7225 C 686.017 -0.00736379 -2.11099 0
M  V30 7226 O 685.365 1.00932 -2.05 0
M  V30 7227 C 685.575 -2.54332 -2.3899 0
M  V30 7228 C 686.923 -2.97551 -3.02901 0
M  V30 7229 O 687.947 -2.544 -2.49317 0
M  V30 7230 O 686.806 -3.72311 -4.00059 0
M  V30 7231 H 683.9 -0.536861 -0.629054 0
M  V30 7232 H 686.446 -1.55615 -0.676919 0
M  V30 7233 H 685.218 -3.44274 -1.85986 0
M  V30 7234 H 684.841 -2.36643 -3.19509 0
M  V30 7235 N 685.838 0.888903 -1.30139 0
M  V30 7236 C 686.785 1.99422 -1.16188 0
M  V30 7237 C 687.755 1.66017 -0.0523869 0
M  V30 7238 O 688.94 1.89506 -0.221864 0
M  V30 7239 C 686.08 3.34325 -0.855612 0
M  V30 7240 C 685.193 3.80445 -2.0466 0
M  V30 7241 C 684.328 5.03975 -1.67876 0
M  V30 7242 C 683.367 5.42492 -2.83493 0
M  V30 7243 N 682.504 6.57206 -2.47032 0
M  V30 7244 H 687.344 2.10687 -2.10749 0
M  V30 7245 H 684.881 1.03165 -1.04859 0
M  V30 7246 H 686.839 4.11968 -0.658681 0
M  V30 7247 H 685.469 3.22756 0.0531155 0
M  V30 7248 H 684.521 2.98745 -2.3549 0
M  V30 7249 H 685.833 4.04933 -2.91257 0
M  V30 7250 H 684.987 5.89232 -1.44535 0
M  V30 7251 H 683.726 4.8135 -0.784431 0
M  V30 7252 H 682.731 4.55764 -3.07505 0
M  V30 7253 H 683.956 5.67093 -3.73607 0
M  V30 7254 H 681.902 6.36164 -1.601 0
M  V30 7255 H 681.819 6.81543 -3.27161 0
M  V30 7256 H 683.087 7.45704 -2.27038 0
M  V30 7257 N 687.317 1.12792 1.10072 0
M  V30 7258 C 688.565 0.883796 1.81751 0
M  V30 7259 C 688.886 -0.591891 1.858 0
M  V30 7260 O 688.156 -1.43017 1.33876 0
M  V30 7261 H 686.736 0.323978 0.673088 0
M  V30 7262 H 689.398 1.42314 1.33164 0
M  V30 7263 H 688.494 1.26863 2.85153 0
M  V30 7264 N 688.795 -1.27931 0.920396 0
M  V30 7265 C 690.041 -1.94977 0.557832 0
M  V30 7266 C 690.374 -1.72224 -0.897365 0
M  V30 7267 O 689.649 -1.04705 -1.63912 0
M  V30 7268 C 689.932 -3.49289 0.875741 0
M  V30 7269 C 689.785 -3.81416 2.38416 0
M  V30 7270 C 691.104 -4.38486 0.376517 0
M  V30 7271 H 688.223 -0.708164 0.20414 0
M  V30 7272 H 690.865 -1.5118 1.15085 0
M  V30 7273 H 689.015 -3.86724 0.371062 0
M  V30 7274 H 690.687 -3.53813 2.95997 0
M  V30 7275 H 688.93 -3.28225 2.83639 0
M  V30 7276 H 689.601 -4.89198 2.55713 0
M  V30 7277 H 692.077 -4.08161 0.808945 0
M  V30 7278 H 690.953 -5.45296 0.627976 0
M  V30 7279 H 691.214 -4.36143 -0.723293 0
M  V30 7280 N 690.273 -0.685099 -1.4193 0
M  V30 7281 C 691.203 -0.0273506 -2.33484 0
M  V30 7282 C 692.184 0.778366 -1.51246 0
M  V30 7283 O 693.369 0.733449 -1.79817 0
M  V30 7284 C 690.499 0.917272 -3.34968 0
M  V30 7285 C 689.453 0.21941 -4.27437 0
M  V30 7286 C 688.779 1.27768 -5.1921 0
M  V30 7287 C 690.079 -0.907894 -5.14349 0
M  V30 7288 H 691.773 -0.791994 -2.88735 0
M  V30 7289 H 689.319 -0.382308 -1.38832 0
M  V30 7290 H 691.272 1.38657 -3.97935 0
M  V30 7291 H 689.996 1.71346 -2.78043 0
M  V30 7292 H 688.655 -0.229757 -3.65879 0
M  V30 7293 H 688.303 2.06612 -4.58607 0
M  V30 7294 H 688.003 0.815803 -5.81909 0
M  V30 7295 H 689.527 1.7477 -5.85054 0
M  V30 7296 H 690.941 -0.519348 -5.70943 0
M  V30 7297 H 689.338 -1.2962 -5.85934 0
M  V30 7298 H 690.408 -1.75218 -4.52136 0
M  V30 7299 N 691.751 1.51645 -0.429126 0
M  V30 7300 C 693.167 1.59394 -0.080994 0
M  V30 7301 C 693.367 1.44064 1.40882 0
M  V30 7302 O 692.423 1.27771 2.17786 0
M  V30 7303 C 693.736 2.94779 -0.593773 0
M  V30 7304 C 695.284 3.08067 -0.553494 0
M  V30 7305 C 695.759 4.45963 -1.04311 0
M  V30 7306 N 697.25 4.5226 -1.00076 0
M  V30 7307 C 697.985 5.57268 -1.35056 0
M  V30 7308 N 697.481 6.69734 -1.77282 0
M  V30 7309 N 699.274 5.47582 -1.26925 0
M  V30 7310 H 691.425 1.59856 -1.39857 0
M  V30 7311 H 693.688 0.753095 -0.575805 0
M  V30 7312 H 693.394 3.11342 -1.63583 0
M  V30 7313 H 693.268 3.77197 -0.0142202 0
M  V30 7314 H 695.655 2.91177 0.479556 0
M  V30 7315 H 695.736 2.27508 -1.16935 0
M  V30 7316 H 695.38 4.63598 -2.07459 0
M  V30 7317 H 695.31 5.25049 -0.403873 0
M  V30 7318 H 697.801 3.71537 -0.690564 0
M  V30 7319 H 698.114 7.4587 -2.02232 0
M  V30 7320 H 696.459 6.70963 -1.81202 0
M  V30 7321 H 699.65 4.58604 -0.93809 0
M  V30 7322 H 699.823 6.29308 -1.54516 0
M  V30 7323 N 693.229 0.160201 1.56784 0
M  V30 7324 C 694.64 -0.358417 1.83227 0
M  V30 7325 C 694.991 -1.63831 1.07952 0
M  V30 7326 O 694.116 -2.13885 0.328995 0
M  V30 7327 C 694.711 -0.657058 3.32368 0
M  V30 7328 C 693.27 -1.12015 3.59346 0
M  V30 7329 C 692.417 -0.15015 2.76893 0
M  V30 7330 H 695.368 0.384669 1.53967 0
M  V30 7331 H 695.389 -1.51033 3.49241 0
M  V30 7332 H 694.901 0.274647 3.87127 0
M  V30 7333 H 693.002 -2.06734 3.09987 0
M  V30 7334 H 693.115 -1.037 4.67743 0
M  V30 7335 H 691.479 -0.645361 2.46388 0
M  V30 7336 H 692.262 0.775379 3.34429 0
M  V30 7337 N 694.707 -1.5719 -0.113559 0
M  V30 7338 C 695.639 -1.97393 -1.16484 0
M  V30 7339 C 696.652 -0.873964 -1.37352 0
M  V30 7340 O 697.841 -1.15222 -1.36331 0
M  V30 7341 C 694.941 -2.26174 -2.52386 0
M  V30 7342 C 694.114 -3.57479 -2.52046 0
M  V30 7343 C 693.173 -3.74409 -3.69735 0
M  V30 7344 O 692.199 -4.46463 -3.53071 0
M  V30 7345 N 693.401 -3.13588 -4.88511 0
M  V30 7346 H 696.166 -2.88184 -0.822814 0
M  V30 7347 H 693.727 -1.59044 -0.302769 0
M  V30 7348 H 695.719 -2.3471 -3.29687 0
M  V30 7349 H 694.289 -1.41483 -2.7875 0
M  V30 7350 H 693.509 -3.60081 -1.60421 0
M  V30 7351 H 694.797 -4.43775 -2.48881 0
M  V30 7352 H 694.195 -2.55026 -5.04953 0
M  V30 7353 H 692.752 -3.27637 -5.63469 0
M  V30 7354 N 696.185 0.383891 -1.52853 0
M  V30 7355 C 697.132 1.46924 -1.77995 0
M  V30 7356 C 698.102 1.53958 -0.623396 0
M  V30 7357 O 699.287 1.70134 -0.863657 0
M  V30 7358 C 696.427 2.84093 -1.95921 0
M  V30 7359 C 695.54 2.86171 -3.23621 0
M  V30 7360 C 694.675 4.14799 -3.31836 0
M  V30 7361 C 693.714 4.10948 -4.53639 0
M  V30 7362 N 692.851 5.31192 -4.59107 0
M  V30 7363 H 697.691 1.24786 -2.70615 0
M  V30 7364 H 695.228 0.605265 -1.34071 0
M  V30 7365 H 697.186 3.63755 -2.04299 0
M  V30 7366 H 695.816 3.04671 -1.06656 0
M  V30 7367 H 694.868 1.9885 -3.24288 0
M  V30 7368 H 696.18 2.79194 -4.13343 0
M  V30 7369 H 695.334 5.02867 -3.39425 0
M  V30 7370 H 694.073 4.24505 -2.40097 0
M  V30 7371 H 693.078 3.21268 -4.46169 0
M  V30 7372 H 694.303 4.0286 -5.467 0
M  V30 7373 H 692.249 5.41518 -3.70262 0
M  V30 7374 H 692.166 5.26311 -5.42708 0
M  V30 7375 H 693.434 6.21143 -4.70958 0
M  V30 7376 N 697.663 1.43903 0.642637 0
M  V30 7377 C 698.573 1.52349 1.78401 0
M  V30 7378 C 699.589 0.409869 1.69104 0
M  V30 7379 O 700.765 0.665548 1.90085 0
M  V30 7380 C 697.83 1.45408 3.14734 0
M  V30 7381 C 696.891 2.67528 3.35749 0
M  V30 7382 C 696.124 2.60909 4.65577 0
M  V30 7383 O 696.347 1.6627 5.45628 0
M  V30 7384 O 695.281 3.5158 4.88544 0
M  V30 7385 H 699.107 2.48752 1.7423 0
M  V30 7386 H 696.692 1.26021 0.802439 0
M  V30 7387 H 698.574 1.44019 3.96026 0
M  V30 7388 H 697.249 0.521437 3.19473 0
M  V30 7389 H 696.156 2.74487 2.5418 0
M  V30 7390 H 697.489 3.598 3.35864 0
M  V30 7391 N 699.141 -0.881989 1.30609 0
M  V30 7392 C 700.104 -1.96957 1.1722 0
M  V30 7393 C 701.104 -1.60472 0.102598 0
M  V30 7394 O 702.294 -1.70628 0.350943 0
M  V30 7395 C 699.426 -3.31463 0.796572 0
M  V30 7396 H 700.619 -2.10262 2.13846 0
M  V30 7397 H 698.172 -1.06877 1.14048 0
M  V30 7398 H 698.907 -3.23859 -0.169053 0
M  V30 7399 H 698.692 -3.59314 1.56959 0
M  V30 7400 H 700.182 -4.11233 0.72645 0
M  V30 7401 N 700.619 -1.13374 -1.09472 0
M  V30 7402 C 701.865 -0.896516 -1.81908 0
M  V30 7403 C 702.198 0.575933 -1.85463 0
M  V30 7404 O 701.473 1.42618 -1.32251 0
M  V30 7405 C 701.756 -1.48445 -3.28079 0
M  V30 7406 C 701.609 -3.02598 -3.32798 0
M  V30 7407 C 702.928 -1.15226 -4.24748 0
M  V30 7408 H 700.047 -0.327127 -0.660422 0
M  V30 7409 H 702.689 -1.40195 -1.2824 0
M  V30 7410 H 700.839 -1.0546 -3.73912 0
M  V30 7411 H 702.511 -3.54335 -2.95372 0
M  V30 7412 H 700.754 -3.37613 -2.72397 0
M  V30 7413 H 701.425 -3.38835 -4.3577 0
M  V30 7414 H 703.901 -1.52369 -3.87199 0
M  V30 7415 H 702.777 -1.59012 -5.25363 0
M  V30 7416 H 703.038 -0.0658891 -4.42051 0
M  V30 7417 N 702.098 1.27442 -0.927168 0
M  V30 7418 C 703.323 1.99036 -0.583042 0
M  V30 7419 C 703.748 1.68711 0.83176 0
M  V30 7420 O 703.106 0.927081 1.55804 0
M  V30 7421 C 703.154 3.51271 -0.814925 0
M  V30 7422 O 702.258 4.12226 0.119742 0
M  V30 7423 H 701.599 0.624883 -0.224538 0
M  V30 7424 H 704.129 1.62263 -1.24628 0
M  V30 7425 H 704.139 4.01411 -0.730282 0
M  V30 7426 H 702.814 3.72676 -1.84623 0
M  V30 7427 H 701.391 3.72897 -0.0147688 0
M  V30 7428 N 703.576 0.692616 1.41565 0
M  V30 7429 C 704.801 0.229776 2.06123 0
M  V30 7430 C 705.226 -1.11119 1.5177 0
M  V30 7431 O 704.584 -1.69498 0.643444 0
M  V30 7432 C 704.632 0.19469 3.60074 0
M  V30 7433 O 703.736 -0.831366 4.03933 0
M  V30 7434 H 703.077 0.113002 0.654314 0
M  V30 7435 H 705.607 0.946645 1.81383 0
M  V30 7436 H 705.617 0.0245487 4.07993 0
M  V30 7437 H 704.292 1.17339 3.99004 0
M  V30 7438 H 702.869 -0.630819 3.67526 0
M  V30 7439 N 705.054 -1.51416 0.437162 0
M  V30 7440 C 706.279 -2.0699 -0.130424 0
M  V30 7441 C 706.704 -1.30249 -1.35709 0
M  V30 7442 O 706.062 -0.340388 -1.78076 0
M  V30 7443 C 706.11 -3.5801 -0.43142 0
M  V30 7444 O 705.214 -3.8345 -1.5179 0
M  V30 7445 H 704.555 -0.663997 -0.00194339 0
M  V30 7446 H 707.085 -1.95029 0.618445 0
M  V30 7447 H 707.095 -4.02261 -0.681926 0
M  V30 7448 H 705.77 -4.13291 0.465137 0
M  V30 7449 H 704.347 -3.51062 -1.25737 0
M  V30 7450 N 706.532 -0.168513 -1.56696 0
M  V30 7451 C 707.482 0.7751 -2.14421 0
M  V30 7452 C 708.466 1.19476 -1.07769 0
M  V30 7453 O 709.658 1.15759 -1.33898 0
M  V30 7454 C 706.787 2.00549 -2.7863 0
M  V30 7455 C 705.873 1.60795 -3.92436 0
M  V30 7456 N 706.264 0.919812 -4.97366 0
M  V30 7457 C 704.562 1.89917 -4.03544 0
M  V30 7458 C 705.263 0.724485 -5.77171 0
M  V30 7459 N 704.239 1.26505 -5.28675 0
M  V30 7460 H 708.041 0.240349 -2.92916 0
M  V30 7461 H 705.555 0.0322675 -1.62368 0
M  V30 7462 H 707.552 2.6917 -3.1836 0
M  V30 7463 H 706.212 2.54522 -2.01615 0
M  V30 7464 H 707.223 0.578169 -5.14663 0
M  V30 7465 H 703.9 2.45587 -3.37629 0
M  V30 7466 H 705.29 0.180521 -6.71657 0
M  V30 7467 N 708.01 1.57248 0.105221 0
M  V30 7468 C 709.258 1.85204 0.808951 0
M  V30 7469 C 709.579 0.75574 1.7976 0
M  V30 7470 O 708.849 -0.218984 1.94672 0
M  V30 7471 H 707.429 0.683346 0.301739 0
M  V30 7472 H 710.091 1.94695 0.0892605 0
M  V30 7473 H 709.187 2.81595 1.34575 0
M  V30 7474 N 709.488 -0.375779 1.53054 0
M  V30 7475 C 710.899 -0.95309 1.6054 0
M  V30 7476 C 711.25 -1.90575 0.466446 0
M  V30 7477 O 710.375 -2.12507 -0.408609 0
M  V30 7478 C 710.97 -1.73537 2.90982 0
M  V30 7479 C 709.529 -2.26218 3.00836 0
M  V30 7480 C 708.676 -1.07157 2.55759 0
M  V30 7481 H 711.627 -0.154895 1.57942 0
M  V30 7482 H 711.648 -2.59574 2.78211 0
M  V30 7483 H 711.16 -1.04176 3.73857 0
M  V30 7484 H 709.261 -2.98852 2.22527 0
M  V30 7485 H 709.374 -2.54799 4.05727 0
M  V30 7486 H 707.738 -1.43553 2.10391 0
M  V30 7487 H 708.521 -0.393099 3.41042 0
M  V30 7488 N 710.966 -1.44241 -0.634997 0
M  V30 7489 C 712.191 -1.50516 -1.42687 0
M  V30 7490 C 712.616 -0.129864 -1.87651 0
M  V30 7491 O 711.974 0.880164 -1.58502 0
M  V30 7492 C 712.022 -2.4714 -2.62591 0
M  V30 7493 O 711.126 -1.97025 -3.62291 0
M  V30 7494 H 710.467 -0.50841 -0.427101 0
M  V30 7495 H 712.997 -1.89337 -0.775408 0
M  V30 7496 H 713.007 -2.65048 -3.10183 0
M  V30 7497 H 711.682 -3.47039 -2.29209 0
M  V30 7498 H 710.259 -1.88866 -3.21534 0
M  V30 7499 N 712.444 0.87505 -1.31075 0
M  V30 7500 C 713.721 1.60976 -1.11113 0
M  V30 7501 C 714.101 2.08409 0.336006 0
M  V30 7502 O 713.449 1.85858 1.32924 0
M  V30 7503 C 713.659 2.77166 -2.12085 0
M  V30 7504 C 715.007 3.47254 -2.44335 0
M  V30 7505 O 716.031 2.87367 -2.10472 0
M  V30 7506 O 714.89 4.55276 -3.02301 0
M  V30 7507 H 711.984 0.707982 -0.427424 0
M  V30 7508 H 714.53 0.920957 -1.42536 0
M  V30 7509 H 713.302 2.39494 -3.09449 0
M  V30 7510 H 712.925 3.53737 -1.81538 0
M  V30 7511 N 713.922 1.13953 1.08869 0
M  V30 7512 C 715.333 0.916649 1.62648 0
M  V30 7513 C 715.684 -0.545589 1.88462 0
M  V30 7514 O 714.809 -1.41351 1.63856 0
M  V30 7515 C 715.404 1.65751 2.95486 0
M  V30 7516 C 713.963 1.48034 3.46068 0
M  V30 7517 C 713.11 1.68305 2.20383 0
M  V30 7518 H 716.061 1.292 0.921572 0
M  V30 7519 H 716.082 1.11794 3.63707 0
M  V30 7520 H 715.594 2.72171 2.76667 0
M  V30 7521 H 713.695 0.439416 3.7 0
M  V30 7522 H 713.808 2.24719 4.23129 0
M  V30 7523 H 712.172 1.10833 2.29321 0
M  V30 7524 H 712.955 2.76057 2.04077 0
M  V30 7525 N 715.4 -1.26948 0.933913 0
M  V30 7526 C 716.628 -1.98186 0.59414 0
M  V30 7527 C 717.043 -1.69614 -0.829257 0
M  V30 7528 O 716.4 -0.960213 -1.55197 0
M  V30 7529 C 716.451 -3.52123 0.818026 0
M  V30 7530 O 716.172 -3.79698 2.18543 0
M  V30 7531 C 717.673 -4.40608 0.48781 0
M  V30 7532 H 714.893 -0.632305 0.224569 0
M  V30 7533 H 717.437 -1.61646 1.25263 0
M  V30 7534 H 715.592 -3.86851 0.206246 0
M  V30 7535 H 716.006 -4.7426 2.24005 0
M  V30 7536 H 717.48 -5.47606 0.695126 0
M  V30 7537 H 717.957 -4.35394 -0.576913 0
M  V30 7538 H 718.563 -4.11411 1.078 0
M  V30 7539 N 716.879 -0.700114 -1.41195 0
M  V30 7540 C 718.156 -0.160836 -1.94938 0
M  V30 7541 C 718.536 1.33014 -1.63922 0
M  V30 7542 O 717.884 2.07878 -0.948636 0
M  V30 7543 C 718.094 -0.456991 -3.45995 0
M  V30 7544 C 719.442 -0.387207 -4.22831 0
M  V30 7545 O 720.466 -0.392164 -3.54035 0
M  V30 7546 O 719.325 -0.351267 -5.4537 0
M  V30 7547 H 716.419 -0.0176304 -0.826812 0
M  V30 7548 H 718.965 -0.776586 -1.50888 0
M  V30 7549 H 717.737 -1.48884 -3.61869 0
M  V30 7550 H 717.36 0.189503 -3.97148 0
M  V30 7551 N 718.357 1.51182 -0.445186 0
M  V30 7552 C 719.773 1.59299 -0.0978954 0
M  V30 7553 C 719.973 1.4555 1.39346 0
M  V30 7554 O 719.029 1.30073 2.16419 0
M  V30 7555 C 720.342 2.94133 -0.625005 0
M  V30 7556 C 721.89 3.07463 -0.586137 0
M  V30 7557 C 722.365 4.44832 -1.09035 0
M  V30 7558 N 723.856 4.51173 -1.04867 0
M  V30 7559 C 724.591 5.55804 -1.40959 0
M  V30 7560 N 724.087 6.67816 -1.84375 0
M  V30 7561 N 725.88 5.46205 -1.32726 0
M  V30 7562 H 718.031 1.58363 -1.41544 0
M  V30 7563 H 720.294 0.746946 -0.58376 0
M  V30 7564 H 720 3.09589 -1.66876 0
M  V30 7565 H 719.874 3.77161 -0.0542262 0
M  V30 7566 H 722.261 2.9167 0.448646 0
M  V30 7567 H 722.342 2.26255 -1.19341 0
M  V30 7568 H 721.986 4.61372 -2.12364 0
M  V30 7569 H 721.916 5.24591 -0.459539 0
M  V30 7570 H 724.407 3.70783 -0.729932 0
M  V30 7571 H 724.72 7.43683 -2.10131 0
M  V30 7572 H 723.065 6.69003 -1.88308 0
M  V30 7573 H 726.256 4.57583 -0.986678 0
M  V30 7574 H 726.429 6.27634 -1.61182 0
M  V30 7575 N 719.835 0.176821 1.56605 0
M  V30 7576 C 720.798 -0.737429 2.17013 0
M  V30 7577 C 721.798 -1.15414 1.11965 0
M  V30 7578 O 722.988 -1.0702 1.37449 0
M  V30 7579 C 720.12 -2.00445 2.75744 0
M  V30 7580 H 721.313 -0.211455 2.99154 0
M  V30 7581 H 718.866 -0.0727582 1.56131 0
M  V30 7582 H 719.601 -2.57338 1.97352 0
M  V30 7583 H 719.386 -1.71456 3.52626 0
M  V30 7584 H 720.876 -2.65679 3.22187 0
M  V30 7585 N 721.313 -1.57302 -0.09688 0
M  V30 7586 C 722.223 -2.05258 -1.13606 0
M  V30 7587 C 723.239 -0.977137 -1.43972 0
M  V30 7588 O 724.415 -1.29018 -1.54649 0
M  V30 7589 C 721.48 -2.46593 -2.43706 0
M  V30 7590 C 720.541 -3.68322 -2.20538 0
M  V30 7591 C 719.774 -4.07676 -3.44435 0
M  V30 7592 O 719.997 -3.47141 -4.52603 0
M  V30 7593 O 718.931 -5.00641 -3.34129 0
M  V30 7594 H 722.757 -2.94069 -0.758752 0
M  V30 7595 H 720.342 -1.46164 -0.309263 0
M  V30 7596 H 722.224 -2.73814 -3.20318 0
M  V30 7597 H 720.899 -1.6092 -2.80867 0
M  V30 7598 H 719.806 -3.4622 -1.41713 0
M  V30 7599 H 721.139 -4.54769 -1.88271 0
M  V30 7600 N 722.791 0.367657 -1.53252 0
M  V30 7601 C 724.037 1.11216 -1.69584 0
M  V30 7602 C 724.37 1.89026 -0.445269 0
M  V30 7603 O 723.645 1.86342 0.557404 0
M  V30 7604 C 723.928 2.07308 -2.94441 0
M  V30 7605 C 723.781 1.3312 -4.2965 0
M  V30 7606 C 725.1 3.07459 -3.14892 0
M  V30 7607 H 722.219 0.40294 -0.617096 0
M  V30 7608 H 724.861 0.393201 -1.85887 0
M  V30 7609 H 723.011 2.68617 -2.80673 0
M  V30 7610 H 724.683 0.746111 -4.55226 0
M  V30 7611 H 722.926 0.633051 -4.29156 0
M  V30 7612 H 723.597 2.03443 -5.13142 0
M  V30 7613 H 726.073 2.56252 -3.27832 0
M  V30 7614 H 724.949 3.71919 -4.03693 0
M  V30 7615 H 725.21 3.77514 -2.30077 0
M  V30 7616 N 724.269 1.44576 0.627338 0
M  V30 7617 C 725.179 1.54232 1.76776 0
M  V30 7618 C 726.195 0.427782 1.6866 0
M  V30 7619 O 727.371 0.685671 1.89369 0
M  V30 7620 C 724.436 1.48738 3.13174 0
M  V30 7621 C 723.497 2.71074 3.32893 0
M  V30 7622 C 722.73 2.65832 4.62784 0
M  V30 7623 O 722.953 1.72048 5.43834 0
M  V30 7624 O 721.887 3.56742 4.84787 0
M  V30 7625 H 725.713 2.50586 1.71582 0
M  V30 7626 H 723.298 1.26865 0.789028 0
M  V30 7627 H 725.18 1.48211 3.94476 0
M  V30 7628 H 723.855 0.555292 3.18902 0
M  V30 7629 H 722.762 2.77168 2.51254 0
M  V30 7630 H 724.095 3.63342 3.32029 0
M  V30 7631 N 725.747 -0.868086 1.31537 0
M  V30 7632 C 726.694 -1.97548 1.19346 0
M  V30 7633 C 727.664 -1.65913 0.0787922 0
M  V30 7634 O 728.849 -1.89129 0.251985 0
M  V30 7635 C 725.989 -3.32922 0.908692 0
M  V30 7636 C 725.102 -3.77141 2.10687 0
M  V30 7637 C 724.237 -5.01241 1.75873 0
M  V30 7638 C 723.276 -5.37914 2.92088 0
M  V30 7639 N 722.413 -6.53192 2.57457 0
M  V30 7640 H 727.253 -2.07307 2.14074 0
M  V30 7641 H 724.79 -1.01483 1.06487 0
M  V30 7642 H 726.748 -4.10867 0.724138 0
M  V30 7643 H 725.378 -3.228 -0.0017611 0
M  V30 7644 H 724.43 -2.94961 2.40213 0
M  V30 7645 H 725.742 -4.00248 2.97663 0
M  V30 7646 H 724.896 -5.86858 1.53891 0
M  V30 7647 H 723.635 -4.80041 0.86091 0
M  V30 7648 H 722.64 -4.50814 3.14717 0
M  V30 7649 H 723.865 -5.61077 3.82582 0
M  V30 7650 H 721.811 -6.33536 1.702 0
M  V30 7651 H 721.728 -6.76252 3.37963 0
M  V30 7652 H 722.996 -7.41997 2.38873 0
M  V30 7653 N 727.225 -1.14528 -1.08264 0
M  V30 7654 C 728.502 -0.825185 -1.77342 0
M  V30 7655 C 728.882 0.681037 -1.99813 0
M  V30 7656 O 728.23 1.62234 -1.60912 0
M  V30 7657 C 728.44 -1.62556 -3.08831 0
M  V30 7658 C 729.788 -1.82585 -3.83338 0
M  V30 7659 O 730.812 -1.59254 -3.18617 0
M  V30 7660 O 729.671 -2.21598 -4.99556 0
M  V30 7661 H 726.765 -0.302531 -0.769678 0
M  V30 7662 H 729.311 -1.25056 -1.14713 0
M  V30 7663 H 728.083 -2.64862 -2.88035 0
M  V30 7664 H 727.706 -1.1959 -3.79189 0
M  V30 7665 N 728.703 1.26451 -0.940633 0
M  V30 7666 C 729.928 1.98407 -0.60412 0
M  V30 7667 C 730.353 1.69584 0.81382 0
M  V30 7668 O 729.711 0.943553 1.54812 0
M  V30 7669 C 729.759 3.50387 -0.852136 0
M  V30 7670 O 728.863 4.1233 0.076013 0
M  V30 7671 H 728.204 0.622466 -0.231153 0
M  V30 7672 H 730.734 1.60932 -1.26342 0
M  V30 7673 H 730.744 4.00614 -0.772816 0
M  V30 7674 H 729.419 3.70696 -1.88566 0
M  V30 7675 H 727.996 3.7286 -0.0543187 0
M  V30 7676 N 730.181 0.707592 1.40822 0
M  V30 7677 C 731.429 0.243189 2.00632 0
M  V30 7678 C 731.75 -1.16512 1.56365 0
M  V30 7679 O 731.02 -1.78841 0.799553 0
M  V30 7680 H 729.6 0.0869203 0.741926 0
M  V30 7681 H 732.262 0.911438 1.72275 0
M  V30 7682 H 731.358 0.270014 3.1093 0
M  V30 7683 N 731.66 -1.50943 0.453197 0
M  V30 7684 C 732.61 -2.25003 -0.368467 0
M  V30 7685 C 733.594 -1.27864 -0.976714 0
M  V30 7686 O 734.786 -1.52867 -0.892228 0
M  V30 7687 C 731.915 -3.10701 -1.46014 0
M  V30 7688 C 731.001 -4.15278 -0.860506 0
M  V30 7689 N 731.392 -5.05799 0.00849611 0
M  V30 7690 C 729.69 -4.31542 -1.1264 0
M  V30 7691 C 730.391 -5.80664 0.346951 0
M  V30 7692 N 729.367 -5.42912 -0.273426 0
M  V30 7693 H 733.169 -2.92352 0.301246 0
M  V30 7694 H 730.683 -1.60203 0.266233 0
M  V30 7695 H 732.68 -3.62348 -2.06179 0
M  V30 7696 H 731.34 -2.44898 -2.13202 0
M  V30 7697 H 732.351 -5.16533 0.376077 0
M  V30 7698 H 729.028 -3.76962 -1.7946 0
M  V30 7699 H 730.418 -6.63565 1.05507 0
M  V30 7700 N 733.138 -0.185124 -1.56509 0
M  V30 7701 C 734.386 0.455357 -1.96903 0
M  V30 7702 C 734.707 1.62839 -1.07277 0
M  V30 7703 O 733.977 1.95385 -0.141966 0
M  V30 7704 H 732.557 0.171218 -0.727113 0
M  V30 7705 H 735.219 -0.26953 -1.93027 0
M  V30 7706 H 734.315 0.80616 -3.01509 0
M  V30 7707 N 734.616 1.57351 0.0885366 0
M  V30 7708 C 735.841 1.91011 0.80805 0
M  V30 7709 C 736.266 0.780009 1.71165 0
M  V30 7710 O 735.624 -0.268083 1.79307 0
M  V30 7711 C 735.672 3.23562 1.59185 0
M  V30 7712 O 734.776 3.11615 2.7013 0
M  V30 7713 H 734.117 0.625943 0.221565 0
M  V30 7714 H 736.647 2.04507 0.0617954 0
M  V30 7715 H 736.657 3.5703 1.97468 0
M  V30 7716 H 735.332 4.05398 0.928741 0
M  V30 7717 H 733.909 2.89673 2.34827 0
M  V30 7718 N 736.094 -0.359525 1.53444 0
M  V30 7719 C 737.322 -1.12198 1.73837 0
M  V30 7720 C 737.737 -1.82854 0.470107 0
M  V30 7721 O 737.094 -1.73781 -0.557349 0
M  V30 7722 C 737.145 -2.14769 2.90786 0
M  V30 7723 O 736.866 -1.46989 4.12706 0
M  V30 7724 C 738.367 -3.03514 3.231 0
M  V30 7725 H 735.587 -0.33524 0.581253 0
M  V30 7726 H 738.131 -0.416598 2.00212 0
M  V30 7727 H 736.286 -2.80896 2.66788 0
M  V30 7728 H 736.7 -2.15378 4.78239 0
M  V30 7729 H 738.174 -3.71453 4.08322 0
M  V30 7730 H 738.651 -3.68658 2.38721 0
M  V30 7731 H 739.257 -2.42996 3.49046 0
M  V30 7732 N 737.572 -1.44907 -0.619662 0
M  V30 7733 C 738.797 -1.52021 -1.41083 0
M  V30 7734 C 739.222 -0.14976 -1.87503 0
M  V30 7735 O 738.58 0.863303 -1.59426 0
M  V30 7736 C 738.628 -2.49911 -2.59955 0
M  V30 7737 O 737.732 -2.00857 -3.60181 0
M  V30 7738 H 737.073 -0.512912 -0.421684 0
M  V30 7739 H 739.603 -1.90149 -0.755282 0
M  V30 7740 H 739.613 -2.68323 -3.07354 0
M  V30 7741 H 738.288 -3.4945 -2.25516 0
M  V30 7742 H 736.865 -1.92265 -3.19513 0
M  V30 7743 N 739.05 0.861098 -1.31996 0
M  V30 7744 C 740.296 1.61721 -1.22369 0
M  V30 7745 C 740.629 1.93 0.215587 0
M  V30 7746 O 739.904 1.56789 1.15098 0
M  V30 7747 C 740.187 2.9417 -2.07691 0
M  V30 7748 C 740.04 2.69714 -3.59965 0
M  V30 7749 C 741.359 3.95372 -1.93312 0
M  V30 7750 H 738.478 0.586822 -0.44588 0
M  V30 7751 H 741.12 0.994788 -1.61876 0
M  V30 7752 H 739.27 3.47292 -1.74128 0
M  V30 7753 H 740.942 2.23196 -4.03709 0
M  V30 7754 H 739.185 2.03789 -3.82952 0
M  V30 7755 H 739.856 3.63996 -4.14983 0
M  V30 7756 H 742.332 3.51487 -2.22701 0
M  V30 7757 H 741.208 4.85916 -2.55298 0
M  V30 7758 H 741.469 4.32865 -0.898922 0
M  V30 7759 N 740.528 1.15101 1.07655 0
M  V30 7760 C 741.805 0.834578 1.76902 0
M  V30 7761 C 742.185 -0.670431 2.00171 0
M  V30 7762 O 741.533 -1.61378 1.6177 0
M  V30 7763 C 741.743 1.64191 3.07965 0
M  V30 7764 C 743.091 1.84615 3.82364 0
M  V30 7765 O 744.115 1.60941 3.17768 0
M  V30 7766 O 742.974 2.24244 4.98374 0
M  V30 7767 H 740.068 0.306608 0.768063 0
M  V30 7768 H 742.614 1.25663 1.14048 0
M  V30 7769 H 741.386 2.66386 2.86626 0
M  V30 7770 H 741.009 1.216 3.78549 0
M  V30 7771 N 742.006 -1.2595 0.947325 0
M  V30 7772 C 743.231 -1.98083 0.614633 0
M  V30 7773 C 743.656 -1.70013 -0.804815 0
M  V30 7774 O 743.014 -0.95175 -1.54309 0
M  V30 7775 C 743.062 -3.4993 0.870706 0
M  V30 7776 O 742.166 -4.12364 -0.0541451 0
M  V30 7777 H 741.507 -0.621232 0.234451 0
M  V30 7778 H 744.037 -1.60259 1.27193 0
M  V30 7779 H 744.047 -4.00198 0.794051 0
M  V30 7780 H 742.722 -3.69691 1.90529 0
M  V30 7781 H 741.299 -3.72826 0.0740917 0
M  V30 7782 N 743.484 -0.715051 -1.40445 0
M  V30 7783 C 744.394 -0.0631624 -2.34515 0
M  V30 7784 C 745.41 0.744397 -1.57273 0
M  V30 7785 O 746.586 0.677475 -1.89663 0
M  V30 7786 C 743.651 0.847915 -3.36172 0
M  V30 7787 C 742.712 0.0303655 -4.29289 0
M  V30 7788 C 741.945 0.898051 -5.2609 0
M  V30 7789 O 742.168 2.13729 -5.28844 0
M  V30 7790 O 741.102 0.337328 -6.00954 0
M  V30 7791 H 744.928 -0.839078 -2.91879 0
M  V30 7792 H 742.513 -0.475527 -1.4163 0
M  V30 7793 H 744.395 1.3698 -3.98515 0
M  V30 7794 H 743.07 1.60299 -2.81222 0
M  V30 7795 H 741.977 -0.536573 -3.70232 0
M  V30 7796 H 743.31 -0.686474 -4.87389 0
M  V30 7797 N 744.962 1.50701 -0.461195 0
M  V30 7798 C 746.21 2.01867 0.0970051 0
M  V30 7799 C 746.531 1.34591 1.41104 0
M  V30 7800 O 745.801 0.488041 1.89723 0
M  V30 7801 H 744.381 0.74599 0.0388392 0
M  V30 7802 H 747.043 1.85129 -0.609357 0
M  V30 7803 H 746.139 3.11051 0.255688 0
M  V30 7804 N 746.441 0.193421 1.56409 0
M  V30 7805 C 747.688 -0.445789 1.97532 0
M  V30 7806 C 748.016 -1.61744 1.08024 0
M  V30 7807 O 747.271 -1.95338 0.118982 0
M  V30 7808 C 747.57 -0.949718 3.44551 0
M  V30 7809 C 747.236 0.108383 4.5077 0
M  V30 7810 C 745.898 0.399126 4.79542 0
M  V30 7811 C 748.25 0.825423 5.14622 0
M  V30 7812 C 745.578 1.41192 5.69457 0
M  V30 7813 C 747.93 1.82735 6.05632 0
M  V30 7814 C 746.594 2.12531 6.32761 0
M  V30 7815 H 745.864 -0.163126 0.722822 0
M  V30 7816 H 748.511 0.290035 1.89291 0
M  V30 7817 H 746.816 -1.76378 3.49854 0
M  V30 7818 H 748.513 -1.45367 3.73724 0
M  V30 7819 H 745.103 -0.128392 4.28408 0
M  V30 7820 H 749.287 0.61403 4.92487 0
M  V30 7821 H 744.543 1.6487 5.88751 0
M  V30 7822 H 748.717 2.3882 6.5417 0
M  V30 7823 H 746.344 2.91155 7.02234 0
M  V30 7824 N 747.919 -1.57396 -0.0801906 0
M  V30 7825 C 749.144 -1.91437 -0.797909 0
M  V30 7826 C 749.569 -0.789075 -1.70749 0
M  V30 7827 O 748.927 0.25857 -1.79447 0
M  V30 7828 C 748.975 -3.24402 -1.57467 0
M  V30 7829 O 748.079 -3.13043 -2.68473 0
M  V30 7830 H 747.42 -0.627109 -0.218243 0
M  V30 7831 H 749.95 -2.04537 -0.050949 0
M  V30 7832 H 749.96 -3.58072 -1.95571 0
M  V30 7833 H 748.635 -4.05884 -0.907229 0
M  V30 7834 H 747.212 -2.90915 -2.33287 0
M  V30 7835 N 749.397 0.351382 -1.53633 0
M  V30 7836 C 750.646 1.08988 -1.69719 0
M  V30 7837 C 750.959 1.90043 -0.462948 0
M  V30 7838 O 752.165 2.66769 -0.504613 0
M  V30 7839 C 750.621 1.98691 -3.00083 0
M  V30 7840 C 750.229 1.22881 -4.30818 0
M  V30 7841 C 751.973 2.72446 -3.25536 0
M  V30 7842 C 749.88 2.11568 -5.52262 0
M  V30 7843 H 748.81 0.410588 -0.632403 0
M  V30 7844 H 751.461 0.349886 -1.80133 0
M  V30 7845 H 749.843 2.76478 -2.83506 0
M  V30 7846 H 751.017 0.500582 -4.58073 0
M  V30 7847 H 749.332 0.60928 -4.11918 0
M  V30 7848 H 751.929 3.39055 -4.13456 0
M  V30 7849 H 752.272 3.38588 -2.42206 0
M  V30 7850 H 752.805 2.01735 -3.42852 0
M  V30 7851 H 749.544 1.4998 -6.38111 0
M  V30 7852 H 749.064 2.82201 -5.29266 0
M  V30 7853 H 750.743 2.70802 -5.87601 0
M  V30 7854 N 750.875 1.45233 0.611969 0
M  V30 7855 C 752.286 1.4354 1.19387 0
M  V30 7856 C 752.637 0.160713 1.95541 0
M  V30 7857 O 751.762 -0.737954 2.03429 0
M  V30 7858 C 752.357 2.60045 2.17169 0
M  V30 7859 C 750.916 2.61486 2.70744 0
M  V30 7860 C 750.063 2.35708 1.46072 0
M  V30 7861 H 753.014 1.53536 0.401529 0
M  V30 7862 H 753.035 2.33893 3.00124 0
M  V30 7863 H 752.547 3.52803 1.61714 0
M  V30 7864 H 750.648 1.72721 3.30149 0
M  V30 7865 H 750.761 3.60572 3.15476 0
M  V30 7866 H 749.125 1.85178 1.74875 0
M  V30 7867 H 749.908 3.30606 0.924922 0
M  V30 7868 N 752.353 -0.854086 1.3245 0
M  V30 7869 C 753.63 -1.59188 1.1366 0
M  V30 7870 C 754.01 -2.08917 -0.302807 0
M  V30 7871 O 753.358 -1.8795 -1.29951 0
M  V30 7872 C 753.568 -2.73757 2.16467 0
M  V30 7873 C 754.916 -3.43323 2.49829 0
M  V30 7874 O 755.94 -2.83983 2.15017 0
M  V30 7875 O 754.799 -4.50409 3.09506 0
M  V30 7876 H 751.893 -0.701092 0.438633 0
M  V30 7877 H 754.439 -0.898165 1.43983 0
M  V30 7878 H 753.211 -2.3454 3.1322 0
M  V30 7879 H 752.834 -3.50804 1.87142 0
M  V30 7880 N 753.831 -1.1567 -1.07043 0
M  V30 7881 C 755.059 -0.957471 -1.83412 0
M  V30 7882 C 755.474 0.494271 -1.82215 0
M  V30 7883 O 754.831 1.34288 -1.23584 0
M  V30 7884 C 754.882 -1.46784 -3.30359 0
M  V30 7885 O 754.603 -2.86271 -3.31633 0
M  V30 7886 C 756.104 -1.31054 -4.23485 0
M  V30 7887 H 753.324 -0.33986 -0.578564 0
M  V30 7888 H 755.868 -1.53518 -1.35102 0
M  V30 7889 H 754.023 -0.932586 -3.76007 0
M  V30 7890 H 754.437 -3.0948 -4.23465 0
M  V30 7891 H 755.911 -1.71605 -5.24648 0
M  V30 7892 H 756.388 -0.255107 -4.38458 0
M  V30 7893 H 756.994 -1.83503 -3.83676 0
M  V30 7894 N 755.309 1.25446 -0.953992 0
M  V30 7895 C 756.557 1.92762 -0.607227 0
M  V30 7896 C 756.878 1.7509 0.858399 0
M  V30 7897 O 756.148 1.11416 1.61132 0
M  V30 7898 H 754.728 0.713377 -0.221591 0
M  V30 7899 H 757.39 1.52625 -1.21209 0
M  V30 7900 H 756.486 3.00695 -0.835998 0
M  V30 7901 N 756.787 0.722489 1.40064 0
M  V30 7902 C 758.012 0.273446 2.05589 0
M  V30 7903 C 758.437 -1.07875 1.54093 0
M  V30 7904 O 757.795 -1.68095 0.679252 0
M  V30 7905 C 757.843 0.271023 3.5958 0
M  V30 7906 O 756.947 -0.745499 4.05606 0
M  V30 7907 H 756.288 0.126856 0.65177 0
M  V30 7908 H 758.818 0.984906 1.79334 0
M  V30 7909 H 758.828 0.111084 4.07849 0
M  V30 7910 H 757.503 1.25776 3.96425 0
M  V30 7911 H 756.08 -0.552719 3.68781 0
M  V30 7912 N 758.265 -1.50454 0.469181 0
M  V30 7913 C 759.215 -2.25381 -0.344582 0
M  V30 7914 C 760.199 -1.28892 -0.963098 0
M  V30 7915 O 761.391 -1.53805 -0.875964 0
M  V30 7916 C 758.52 -3.12232 -1.4271 0
M  V30 7917 C 757.606 -4.16168 -0.816411 0
M  V30 7918 N 757.997 -5.05762 0.0621424 0
M  V30 7919 C 756.295 -4.32712 -1.08056 0
M  V30 7920 C 756.996 -5.80264 0.408519 0
M  V30 7921 N 755.972 -5.43171 -0.215827 0
M  V30 7922 H 759.774 -2.92016 0.332237 0
M  V30 7923 H 757.288 -1.59911 0.283209 0
M  V30 7924 H 759.285 -3.64514 -2.02324 0
M  V30 7925 H 757.945 -2.47145 -2.10593 0
M  V30 7926 H 758.956 -5.16105 0.430841 0
M  V30 7927 H 755.633 -3.78844 -1.75452 0
M  V30 7928 H 757.023 -6.62408 1.12539 0
M  V30 7929 N 759.743 -0.201713 -1.56304 0
M  V30 7930 C 760.983 0.437395 -1.99665 0
M  V30 7931 C 761.347 1.58341 -1.08592 0
M  V30 7932 O 762.548 2.28716 -1.41217 0
M  V30 7933 C 760.819 0.879572 -3.46408 0
M  V30 7934 S 762.378 1.51558 -4.11795 0
M  V30 7935 H 759.196 0.139621 -0.697156 0
M  V30 7936 H 761.798 -0.306337 -1.93085 0
M  V30 7937 H 760.502 0.0355295 -4.10385 0
M  V30 7938 H 760.033 1.65661 -3.56819 0
M  V30 7939 H 762.048 2.80445 -4.09347 0
M  V30 7940 N 761.222 1.57436 0.0718424 0
M  V30 7941 C 762.447 1.91858 0.787745 0
M  V30 7942 C 762.872 0.798119 1.70328 0
M  V30 7943 O 762.23 -0.24905 1.79581 0
M  V30 7944 C 762.278 3.25232 1.55744 0
M  V30 7945 O 761.382 3.14462 2.6681 0
M  V30 7946 H 760.723 0.628258 0.214914 0
M  V30 7947 H 763.253 2.04561 0.0401012 0
M  V30 7948 H 763.263 3.59105 1.9367 0
M  V30 7949 H 761.938 4.0636 0.885691 0
M  V30 7950 H 760.515 2.92148 2.31741 0
M  V30 7951 N 762.7 -0.34323 1.53817 0
M  V30 7952 C 763.925 -1.1079 1.75329 0
M  V30 7953 C 764.35 -1.81571 0.491293 0
M  V30 7954 O 763.708 -1.72561 -0.556089 0
M  V30 7955 C 763.756 -2.09681 2.9337 0
M  V30 7956 O 762.86 -3.17207 2.63541 0
M  V30 7957 H 762.201 -0.320402 0.581583 0
M  V30 7958 H 764.731 -0.393525 2.0078 0
M  V30 7959 H 764.741 -2.52897 3.20168 0
M  V30 7960 H 763.416 -1.5756 3.84899 0
M  V30 7961 H 761.993 -2.78806 2.47632 0
M  V30 7962 N 764.178 -1.45556 -0.604258 0
M  V30 7963 C 765.088 -1.57025 -1.74299 0
M  V30 7964 C 766.104 -0.45456 -1.67958 0
M  V30 7965 O 767.28 -0.715711 -1.88254 0
M  V30 7966 C 764.345 -1.53702 -3.10768 0
M  V30 7967 C 763.406 -2.76335 -3.28538 0
M  V30 7968 C 762.639 -2.73161 -4.58496 0
M  V30 7969 O 762.862 -1.80678 -5.41028 0
M  V30 7970 O 761.796 -3.64409 -4.79051 0
M  V30 7971 H 765.622 -2.53284 -1.67573 0
M  V30 7972 H 763.207 -1.28104 -0.768745 0
M  V30 7973 H 765.089 -1.54468 -3.92068 0
M  V30 7974 H 763.764 -0.605957 -3.17978 0
M  V30 7975 H 762.671 -2.8113 -2.46813 0
M  V30 7976 H 764.004 -3.68578 -3.26207 0
M  V30 7977 N 765.656 0.84705 -1.32902 0
M  V30 7978 C 766.886 1.63166 -1.26729 0
M  V30 7979 C 767.294 1.88474 0.165595 0
M  V30 7980 O 766.637 1.45947 1.11558 0
M  V30 7981 C 766.699 3.0103 -1.96522 0
M  V30 7982 C 766.363 2.9873 -3.45846 0
M  V30 7983 C 767.36 2.75032 -4.41196 0
M  V30 7984 C 765.045 3.19125 -3.87898 0
M  V30 7985 C 767.039 2.71743 -5.76571 0
M  V30 7986 C 764.726 3.15462 -5.2338 0
M  V30 7987 C 765.724 2.91801 -6.17528 0
M  V30 7988 O 765.412 2.88027 -7.5053 0
M  V30 7989 H 765.144 0.51469 -0.438258 0
M  V30 7990 H 767.698 1.06383 -1.75704 0
M  V30 7991 H 765.928 3.59634 -1.42128 0
M  V30 7992 H 767.617 3.61821 -1.83958 0
M  V30 7993 H 768.383 2.59034 -4.10032 0
M  V30 7994 H 764.262 3.36565 -3.15032 0
M  V30 7995 H 767.806 2.53194 -6.5003 0
M  V30 7996 H 763.703 3.31006 -5.54171 0
M  V30 7997 H 764.471 3.03927 -7.59981 0
M  V30 7998 N 767.134 1.16236 1.06428 0
M  V30 7999 C 768.097 0.870163 2.1204 0
M  V30 8000 C 769.097 -0.134239 1.60239 0
M  V30 8001 O 770.287 0.0964932 1.73933 0
M  V30 8002 C 767.419 0.301033 3.39568 0
M  V30 8003 H 768.612 1.8064 2.39394 0
M  V30 8004 H 766.165 0.971116 1.2247 0
M  V30 8005 H 766.9 -0.642948 3.17863 0
M  V30 8006 H 766.685 1.02475 3.78472 0
M  V30 8007 H 768.175 0.114494 4.17443 0
M  V30 8008 N 768.612 -1.24939 0.960631 0
M  V30 8009 C 769.575 -2.239 0.49006 0
M  V30 8010 C 770.575 -1.55497 -0.409535 0
M  V30 8011 O 771.765 -1.72978 -0.205984 0
M  V30 8012 C 768.897 -3.39654 -0.291193 0
M  V30 8013 H 770.09 -2.67044 1.36482 0
M  V30 8014 H 767.643 -1.37429 0.744505 0
M  V30 8015 H 768.378 -3.01939 -1.18336 0
M  V30 8016 H 768.163 -3.90496 0.354276 0
M  V30 8017 H 769.653 -4.13125 -0.609693 0
M  V30 8018 N 770.09 -0.729906 -1.39679 0
M  V30 8019 C 771.315 -0.284345 -2.05442 0
M  V30 8020 C 771.74 1.07056 -1.54663 0
M  V30 8021 O 771.098 1.67732 -0.688157 0
M  V30 8022 C 771.146 -0.290089 -3.59431 0
M  V30 8023 O 770.25 0.723978 -4.05995 0
M  V30 8024 H 769.591 -0.130311 -0.651088 0
M  V30 8025 H 772.121 -0.994403 -1.78809 0
M  V30 8026 H 772.131 -0.132712 -4.07784 0
M  V30 8027 H 770.806 -1.27877 -3.95753 0
M  V30 8028 H 769.383 0.533154 -3.69069 0
M  V30 8029 N 771.568 1.50203 -0.477153 0
M  V30 8030 C 772.793 2.07263 0.0754986 0
M  V30 8031 C 773.218 1.33801 1.32208 0
M  V30 8032 O 772.576 0.387482 1.77111 0
M  V30 8033 C 772.624 3.59028 0.336348 0
M  V30 8034 O 771.728 3.87339 1.4157 0
M  V30 8035 H 771.069 0.663815 -0.015662 0
M  V30 8036 H 773.599 1.93321 -0.669936 0
M  V30 8037 H 773.609 4.03927 0.575034 0
M  V30 8038 H 772.284 4.11912 -0.574551 0
M  V30 8039 H 770.861 3.54272 1.16385 0
M  V30 8040 N 773.046 0.209999 1.56195 0
M  V30 8041 C 774.457 -0.299943 1.84275 0
M  V30 8042 C 774.808 -1.60314 1.1311 0
M  V30 8043 O 773.933 -2.1273 0.396874 0
M  V30 8044 C 774.528 -0.550986 3.3429 0
M  V30 8045 C 773.087 -1.00526 3.62728 0
M  V30 8046 C 772.234 -0.0619828 2.77231 0
M  V30 8047 H 775.185 0.433458 1.52666 0
M  V30 8048 H 775.206 -1.39846 3.53869 0
M  V30 8049 H 774.718 0.397669 3.86057 0
M  V30 8050 H 772.819 -1.96768 3.16407 0
M  V30 8051 H 772.932 -0.887664 4.70805 0
M  V30 8052 H 771.296 -0.566648 2.48317 0
M  V30 8053 H 772.079 0.881383 3.31793 0
M  V30 8054 N 774.524 -1.57472 -0.0634922 0
M  V30 8055 C 775.772 -1.87283 -0.759563 0
M  V30 8056 C 776.093 -0.803135 -1.77693 0
M  V30 8057 O 775.363 0.167293 -1.95184 0
M  V30 8058 H 773.943 -0.691106 -0.283516 0
M  V30 8059 H 776.605 -1.94864 -0.0376091 0
M  V30 8060 H 775.701 -2.85064 -1.27062 0
M  V30 8061 N 776.003 0.335068 -1.53997 0
M  V30 8062 C 777.28 1.09188 -1.62288 0
M  V30 8063 C 777.66 2.0626 -0.449458 0
M  V30 8064 O 777.008 2.21596 0.557444 0
M  V30 8065 C 777.218 1.80403 -2.98757 0
M  V30 8066 C 778.566 2.33841 -3.54406 0
M  V30 8067 O 779.59 1.90487 -3.00987 0
M  V30 8068 O 778.449 3.1318 -4.47862 0
M  V30 8069 H 775.543 0.502621 -0.656736 0
M  V30 8070 H 778.089 0.33588 -1.66343 0
M  V30 8071 H 776.861 1.09732 -3.75599 0
M  V30 8072 H 776.484 2.62841 -2.9833 0
M  V30 8073 N 777.481 1.45874 0.596531 0
M  V30 8074 C 778.897 1.30524 0.918459 0
M  V30 8075 C 779.097 0.266429 1.99731 0
M  V30 8076 O 778.153 -0.335809 2.50257 0
M  V30 8077 C 779.466 2.68747 1.3489 0
M  V30 8078 C 781.014 2.7673 1.46251 0
M  V30 8079 C 781.489 4.15504 1.92667 0
M  V30 8080 N 782.98 4.17853 1.99883 0
M  V30 8081 C 783.715 5.22109 2.37044 0
M  V30 8082 N 783.211 6.36704 2.73094 0
M  V30 8083 N 785.004 5.09471 2.37479 0
M  V30 8084 H 777.155 2.12081 -0.116368 0
M  V30 8085 H 779.418 0.947941 0.0106033 0
M  V30 8086 H 779.124 3.46006 0.630288 0
M  V30 8087 H 778.998 2.97942 2.31323 0
M  V30 8088 H 781.385 1.99768 2.17202 0
M  V30 8089 H 781.466 2.51236 0.481054 0
M  V30 8090 H 781.11 4.92956 1.223 0
M  V30 8091 H 781.04 4.38396 2.91747 0
M  V30 8092 H 783.531 3.35163 1.74568 0
M  V30 8093 H 783.844 7.12041 3.00362 0
M  V30 8094 H 782.189 6.40087 2.70764 0
M  V30 8095 H 785.38 4.18987 2.08728 0
M  V30 8096 H 785.553 5.90837 2.66112 0
M  V30 8097 N 778.959 -0.83999 1.33349 0
M  V30 8098 C 780.207 -1.59202 1.24496 0
M  V30 8099 C 780.528 -1.94077 -0.189499 0
M  V30 8100 O 779.798 -1.60868 -1.11796 0
M  V30 8101 H 778.378 -0.590276 0.457802 0
M  V30 8102 H 781.04 -1.00394 1.67054 0
M  V30 8103 H 780.136 -2.52247 1.83788 0
M  V30 8104 N 780.437 -1.16799 -1.0581 0
M  V30 8105 C 781.662 -0.977402 -1.82925 0
M  V30 8106 C 782.087 0.469514 -1.82146 0
M  V30 8107 O 781.445 1.33576 -1.22585 0
M  V30 8108 C 781.493 -1.51543 -3.27211 0
M  V30 8109 O 780.597 -0.725021 -4.05977 0
M  V30 8110 H 779.938 -0.347474 -0.565825 0
M  V30 8111 H 782.468 -1.55151 -1.33376 0
M  V30 8112 H 782.478 -1.53502 -3.78023 0
M  V30 8113 H 781.153 -2.56872 -3.27093 0
M  V30 8114 H 779.73 -0.77634 -3.64729 0
M  V30 8115 N 781.915 1.24427 -0.967243 0
M  V30 8116 C 782.847 2.24641 -0.454856 0
M  V30 8117 C 783.86 1.56849 0.436152 0
M  V30 8118 O 785.049 1.76846 0.242401 0
M  V30 8119 C 782.149 3.36954 0.362672 0
M  V30 8120 C 781.322 4.34318 -0.518324 0
M  V30 8121 C 780.381 5.25638 0.243122 0
M  V30 8122 O 779.407 5.68043 -0.362791 0
M  V30 8123 N 780.609 5.59897 1.53282 0
M  V30 8124 H 783.374 2.69238 -1.31648 0
M  V30 8125 H 780.935 1.38464 -0.839015 0
M  V30 8126 H 782.927 3.95014 0.880094 0
M  V30 8127 H 781.497 2.91646 1.12522 0
M  V30 8128 H 780.717 3.74953 -1.21672 0
M  V30 8129 H 782.005 4.96338 -1.11919 0
M  V30 8130 H 781.403 5.27373 2.04682 0
M  V30 8131 H 779.96 6.20488 1.99594 0
M  V30 8132 N 783.393 0.737304 1.3929 0
M  V30 8133 C 784.303 0.100464 2.34385 0
M  V30 8134 C 785.319 -0.719282 1.58437 0
M  V30 8135 O 786.495 -0.647216 1.90717 0
M  V30 8136 C 783.56 -0.794325 3.37478 0
M  V30 8137 C 782.621 0.0379345 4.29283 0
M  V30 8138 C 781.854 -0.814241 5.27452 0
M  V30 8139 O 782.077 -2.05288 5.32177 0
M  V30 8140 O 781.011 -0.241679 6.01415 0
M  V30 8141 H 784.837 0.885407 2.90507 0
M  V30 8142 H 782.422 0.497999 1.40856 0
M  V30 8143 H 784.304 -1.30622 4.00644 0
M  V30 8144 H 782.979 -1.55804 2.83737 0
M  V30 8145 H 781.886 0.595405 3.69331 0
M  V30 8146 H 783.219 0.763926 4.86236 0
M  V30 8147 N 784.871 -1.49948 0.485112 0
M  V30 8148 C 785.821 -2.25734 -0.320658 0
M  V30 8149 C 786.805 -1.29907 -0.949373 0
M  V30 8150 O 787.997 -1.54725 -0.859601 0
M  V30 8151 C 785.126 -3.13728 -1.39391 0
M  V30 8152 C 784.212 -4.1701 -0.772225 0
M  V30 8153 N 784.603 -5.05667 0.115782 0
M  V30 8154 C 782.901 -4.33834 -1.03461 0
M  V30 8155 C 783.602 -5.79798 0.47004 0
M  V30 8156 N 782.578 -5.4337 -0.158204 0
M  V30 8157 H 786.38 -2.91647 0.36319 0
M  V30 8158 H 783.894 -1.59602 0.300154 0
M  V30 8159 H 785.891 -3.66639 -1.98447 0
M  V30 8160 H 784.551 -2.49365 -2.0796 0
M  V30 8161 H 785.562 -5.15619 0.485557 0
M  V30 8162 H 782.239 -3.80684 -1.71424 0
M  V30 8163 H 783.629 -6.61177 1.19558 0
M  V30 8164 N 786.349 -0.21828 -1.56081 0
M  V30 8165 C 787.595 0.414921 -1.9851 0
M  V30 8166 C 787.928 1.59648 -1.10573 0
M  V30 8167 O 787.203 1.93818 -0.162695 0
M  V30 8168 C 787.486 0.852647 -3.4986 0
M  V30 8169 C 787.339 -0.33232 -4.48571 0
M  V30 8170 C 788.658 1.70998 -4.05521 0
M  V30 8171 H 785.777 0.149344 -0.72171 0
M  V30 8172 H 788.419 -0.313858 -1.8739 0
M  V30 8173 H 786.569 1.47362 -3.59467 0
M  V30 8174 H 788.241 -0.970418 -4.50977 0
M  V30 8175 H 786.484 -0.980302 -4.22578 0
M  V30 8176 H 787.155 0.0168407 -5.51997 0
M  V30 8177 H 789.631 1.18606 -3.98838 0
M  V30 8178 H 788.507 1.98517 -5.11744 0
M  V30 8179 H 788.768 2.67219 -3.52202 0
M  V30 8180 N 787.827 1.57504 0.0551401 0
M  V30 8181 C 789.104 1.79155 0.785048 0
M  V30 8182 C 789.484 0.809995 1.94942 0
M  V30 8183 O 788.832 -0.153432 2.27984 0
M  V30 8184 C 789.042 3.26134 1.24247 0
M  V30 8185 C 790.39 3.90419 1.66908 0
M  V30 8186 O 791.414 3.30126 1.33772 0
M  V30 8187 O 790.273 4.96523 2.28314 0
M  V30 8188 H 787.367 0.735825 0.377479 0
M  V30 8189 H 789.913 1.69666 0.0339285 0
M  V30 8190 H 788.685 3.89145 0.410089 0
M  V30 8191 H 788.308 3.40411 2.05441 0
M  V30 8192 N 789.305 -0.326896 1.54172 0
M  V30 8193 C 790.53 -1.08924 1.76494 0
M  V30 8194 C 790.955 -1.81039 0.510523 0
M  V30 8195 O 790.313 -1.73141 -0.537756 0
M  V30 8196 C 790.361 -2.06558 2.95578 0
M  V30 8197 O 789.465 -3.14394 2.6689 0
M  V30 8198 H 788.806 -0.314216 0.584948 0
M  V30 8199 H 791.336 -0.372207 2.01186 0
M  V30 8200 H 791.346 -2.49487 3.22832 0
M  V30 8201 H 790.021 -1.53469 3.86549 0
M  V30 8202 H 788.598 -2.76164 2.50576 0
M  V30 8203 N 790.784 -1.46188 -0.588786 0
M  V30 8204 C 791.716 -1.52319 -1.71265 0
M  V30 8205 C 792.729 -0.412096 -1.57498 0
M  V30 8206 O 793.918 -0.680146 -1.65034 0
M  V30 8207 C 791.018 -1.38164 -3.09458 0
M  V30 8208 C 790.191 -2.63284 -3.49286 0
M  V30 8209 C 789.25 -2.43415 -4.66514 0
M  V30 8210 O 788.276 -3.17113 -4.72682 0
M  V30 8211 N 789.478 -1.49187 -5.61002 0
M  V30 8212 H 792.243 -2.49219 -1.66463 0
M  V30 8213 H 789.804 -1.42167 -0.774601 0
M  V30 8214 H 791.796 -1.22653 -3.85666 0
M  V30 8215 H 790.366 -0.494678 -3.08661 0
M  V30 8216 H 789.586 -2.93779 -2.62845 0
M  V30 8217 H 790.874 -3.46413 -3.7266 0
M  V30 8218 H 790.272 -0.884027 -5.5875 0
M  V30 8219 H 788.829 -1.39642 -6.36666 0
M  V30 8220 N 792.262 0.832906 -1.33792 0
M  V30 8221 C 793.172 1.97514 -1.26592 0
M  V30 8222 C 794.188 1.73114 -0.175391 0
M  V30 8223 O 795.364 1.97387 -0.400062 0
M  V30 8224 C 792.429 3.31625 -1.01121 0
M  V30 8225 C 791.49 3.69101 -2.19233 0
M  V30 8226 C 790.723 4.96813 -1.94968 0
M  V30 8227 O 790.946 5.63208 -0.902955 0
M  V30 8228 O 789.88 5.31932 -2.8166 0
M  V30 8229 H 793.706 2.0653 -2.22664 0
M  V30 8230 H 791.291 0.966826 -1.13898 0
M  V30 8231 H 793.173 4.11968 -0.886571 0
M  V30 8232 H 791.848 3.23599 -0.080822 0
M  V30 8233 H 790.755 2.89243 -2.37253 0
M  V30 8234 H 792.088 3.818 -3.10628 0
M  V30 8235 N 793.74 1.17359 1.05189 0
M  V30 8236 C 794.687 0.890325 2.12936 0
M  V30 8237 C 795.657 -0.165779 1.65271 0
M  V30 8238 O 796.842 -0.0285672 1.90779 0
M  V30 8239 C 793.982 0.409793 3.42658 0
M  V30 8240 C 793.095 1.53002 4.03998 0
M  V30 8241 C 792.23 1.00336 5.21638 0
M  V30 8242 C 791.269 2.09903 5.74984 0
M  V30 8243 N 790.406 1.58714 6.83926 0
M  V30 8244 H 795.246 1.81299 2.36505 0
M  V30 8245 H 792.783 0.904249 1.16025 0
M  V30 8246 H 794.741 0.112743 4.17048 0
M  V30 8247 H 793.371 -0.475915 3.19272 0
M  V30 8248 H 792.423 1.9428 3.27047 0
M  V30 8249 H 793.735 2.3564 4.39631 0
M  V30 8250 H 792.889 0.660158 6.03098 0
M  V30 8251 H 791.628 0.14642 4.8748 0
M  V30 8252 H 790.633 2.45081 4.92154 0
M  V30 8253 H 791.858 2.96013 6.1119 0
M  V30 8254 H 789.804 0.752915 6.51665 0
M  V30 8255 H 789.721 2.34959 7.18561 0
M  V30 8256 H 790.989 1.27287 7.69037 0
M  V30 8257 N 795.218 -1.23913 0.973828 0
M  V30 8258 C 796.181 -2.23367 0.51378 0
M  V30 8259 C 797.181 -1.55923 -0.39302 0
M  V30 8260 O 798.371 -1.73187 -0.187626 0
M  V30 8261 C 795.503 -3.39944 -0.255152 0
M  V30 8262 H 796.696 -2.65581 1.39307 0
M  V30 8263 H 794.249 -1.36632 0.759039 0
M  V30 8264 H 794.984 -3.03177 -1.15127 0
M  V30 8265 H 794.769 -3.90098 0.395673 0
M  V30 8266 H 796.259 -4.13749 -0.565842 0
M  V30 8267 N 796.696 -0.74468 -1.38897 0
M  V30 8268 C 798.107 -0.36568 -1.83084 0
M  V30 8269 C 798.458 1.10436 -1.62168 0
M  V30 8270 O 797.583 1.85281 -1.11804 0
M  V30 8271 C 798.178 -0.656946 -3.3237 0
M  V30 8272 C 796.737 -0.331329 -3.74939 0
M  V30 8273 C 795.884 -0.914661 -2.61781 0
M  V30 8274 H 798.835 -0.941551 -1.27752 0
M  V30 8275 H 798.856 0.0679546 -3.80439 0
M  V30 8276 H 798.368 -1.72693 -3.47561 0
M  V30 8277 H 796.469 0.732426 -3.6533 0
M  V30 8278 H 796.582 -0.820655 -4.72019 0
M  V30 8279 H 794.946 -0.34063 -2.52412 0
M  V30 8280 H 795.729 -1.98949 -2.79775 0
M  V30 8281 N 798.174 1.49689 -0.493057 0
M  V30 8282 C 799.121 2.28976 0.28959 0
M  V30 8283 C 800.091 1.35011 0.967536 0
M  V30 8284 O 801.276 1.63964 0.975736 0
M  V30 8285 C 798.416 3.1748 1.35279 0
M  V30 8286 C 797.529 4.26496 0.687418 0
M  V30 8287 C 796.664 5.02226 1.73038 0
M  V30 8288 C 795.703 6.03089 1.04645 0
M  V30 8289 N 794.84 6.72014 2.03325 0
M  V30 8290 H 799.68 2.954 -0.392798 0
M  V30 8291 H 797.217 1.45657 -0.205554 0
M  V30 8292 H 799.175 3.67162 1.98111 0
M  V30 8293 H 797.805 2.53057 2.00405 0
M  V30 8294 H 796.857 3.80362 -0.0540001 0
M  V30 8295 H 798.169 4.98578 0.14864 0
M  V30 8296 H 797.323 5.55737 2.43395 0
M  V30 8297 H 796.062 4.29899 2.303 0
M  V30 8298 H 795.067 5.48817 0.328606 0
M  V30 8299 H 796.292 6.77398 0.480428 0
M  V30 8300 H 794.238 6.02464 2.59564 0
M  V30 8301 H 794.155 7.40046 1.54492 0
M  V30 8302 H 795.423 7.30133 2.72995 0
M  V30 8303 N 799.652 0.226554 1.55963 0
M  V30 8304 C 800.88 -0.408507 2.02827 0
M  V30 8305 C 801.295 -1.52994 1.10627 0
M  V30 8306 O 800.652 -1.82126 0.116809 0
M  V30 8307 C 800.703 -0.93545 3.49187 0
M  V30 8308 O 800.424 0.141273 4.37872 0
M  V30 8309 C 801.925 -1.64325 4.11719 0
M  V30 8310 H 799.145 -0.099442 0.66359 0
M  V30 8311 H 801.689 0.344471 2.01578 0
M  V30 8312 H 799.844 -1.63868 3.51036 0
M  V30 8313 H 800.258 -0.25558 5.23877 0
M  V30 8314 H 801.732 -1.9639 5.15883 0
M  V30 8315 H 802.209 -2.55815 3.57009 0
M  V30 8316 H 802.815 -0.9851 4.13734 0
M  V30 8317 N 801.13 -1.57531 -0.0467866 0
M  V30 8318 C 802.407 -1.79568 -0.775536 0
M  V30 8319 C 802.787 -0.820322 -1.94509 0
M  V30 8320 O 802.135 0.14134 -2.28062 0
M  V30 8321 C 802.345 -3.26789 -1.22516 0
M  V30 8322 C 803.693 -3.91299 -1.64835 0
M  V30 8323 O 804.717 -3.30831 -1.3202 0
M  V30 8324 O 803.576 -4.97727 -2.25677 0
M  V30 8325 H 800.67 -0.737817 -0.373572 0
M  V30 8326 H 803.216 -1.69682 -0.0249302 0
M  V30 8327 H 801.988 -3.89357 -0.389446 0
M  V30 8328 H 801.611 -3.41496 -2.03633 0
M  V30 8329 N 802.608 0.318715 -1.54344 0
M  V30 8330 C 803.885 1.07461 -1.63437 0
M  V30 8331 C 804.265 2.05771 -0.47131 0
M  V30 8332 O 803.613 2.22175 0.53391 0
M  V30 8333 C 803.823 1.77224 -3.00654 0
M  V30 8334 C 805.171 2.30069 -3.56866 0
M  V30 8335 O 806.195 1.87284 -3.0299 0
M  V30 8336 O 805.054 3.08412 -4.51159 0
M  V30 8337 H 802.148 0.495627 -0.66203 0
M  V30 8338 H 804.694 0.318218 -1.6669 0
M  V30 8339 H 803.466 1.05742 -3.76742 0
M  V30 8340 H 803.089 2.59662 -3.01101 0
M  V30 8341 N 804.086 1.46499 0.581025 0
M  V30 8342 C 805.311 1.55708 1.37002 0
M  V30 8343 C 805.736 0.19942 1.8704 0
M  V30 8344 O 805.094 -0.820731 1.61659 0
M  V30 8345 C 805.142 2.56716 2.53238 0
M  V30 8346 O 804.246 2.10336 3.54729 0
M  V30 8347 H 803.587 0.523912 0.407937 0
M  V30 8348 H 806.117 1.92085 0.704602 0
M  V30 8349 H 806.127 2.76378 3.00132 0
M  V30 8350 H 804.802 3.55307 2.16171 0
M  V30 8351 H 803.379 2.00669 3.14303 0
M  V30 8352 N 805.565 -0.825799 1.34232 0
M  V30 8353 C 806.812 -1.58185 1.26427 0
M  V30 8354 C 807.14 -1.93786 -0.166533 0
M  V30 8355 O 806.395 -1.59986 -1.12707 0
M  V30 8356 C 806.694 -2.89362 2.09772 0
M  V30 8357 C 806.36 -2.73066 3.58812 0
M  V30 8358 C 805.022 -2.68329 3.99441 0
M  V30 8359 C 807.374 -2.56946 4.53462 0
M  V30 8360 C 804.702 -2.4539 5.32917 0
M  V30 8361 C 807.054 -2.35538 5.87115 0
M  V30 8362 C 805.718 -2.29212 6.26912 0
M  V30 8363 H 804.988 -0.57884 0.462629 0
M  V30 8364 H 807.635 -0.955714 1.65947 0
M  V30 8365 H 805.94 -3.56251 1.63071 0
M  V30 8366 H 807.637 -3.4694 2.01081 0
M  V30 8367 H 804.227 -2.77591 3.26559 0
M  V30 8368 H 808.411 -2.59631 4.22972 0
M  V30 8369 H 803.667 -2.38947 5.62774 0
M  V30 8370 H 807.841 -2.22051 6.6005 0
M  V30 8371 H 805.468 -2.11197 7.30274 0
M  V30 8372 N 807.043 -1.17915 -1.04565 0
M  V30 8373 C 808.268 -0.996749 -1.81878 0
M  V30 8374 C 808.693 0.450169 -1.82634 0
M  V30 8375 O 808.051 1.32268 -1.23995 0
M  V30 8376 C 808.099 -1.55005 -3.25585 0
M  V30 8377 O 807.203 -0.76804 -4.05185 0
M  V30 8378 H 806.544 -0.353456 -0.562108 0
M  V30 8379 H 809.074 -1.56557 -1.31723 0
M  V30 8380 H 809.084 -1.57503 -3.76373 0
M  V30 8381 H 807.759 -2.60327 -3.2435 0
M  V30 8382 H 806.336 -0.81498 -3.63885 0
M  V30 8383 N 808.521 1.23394 -0.980386 0
M  V30 8384 C 809.798 1.87242 -0.565667 0
M  V30 8385 C 810.178 1.88151 0.957197 0
M  V30 8386 O 809.526 1.36309 1.8339 0
M  V30 8387 C 809.736 3.28743 -1.17172 0
M  V30 8388 C 811.084 4.05335 -1.26446 0
M  V30 8389 O 812.108 3.37962 -1.12517 0
M  V30 8390 O 810.967 5.25908 -1.48604 0
M  V30 8391 H 808.061 0.80477 -0.190459 0
M  V30 8392 H 810.607 1.3127 -1.07547 0
M  V30 8393 H 809.379 3.22647 -2.21392 0
M  V30 8394 H 809.002 3.92305 -0.646739 0
M  V30 8395 N 809.999 0.752036 1.385 0
M  V30 8396 C 811.245 0.307958 2.00448 0
M  V30 8397 C 811.578 -1.10702 1.59558 0
M  V30 8398 O 810.853 -1.75788 0.832391 0
M  V30 8399 C 811.136 0.429092 3.57534 0
M  V30 8400 C 810.989 1.88507 4.08393 0
M  V30 8401 C 812.308 -0.178442 4.39738 0
M  V30 8402 H 809.427 0.113373 0.728228 0
M  V30 8403 H 812.069 0.951389 1.64465 0
M  V30 8404 H 810.219 -0.118695 3.88319 0
M  V30 8405 H 811.891 2.49104 3.88259 0
M  V30 8406 H 810.134 2.40066 3.61318 0
M  V30 8407 H 810.805 1.92099 5.17496 0
M  V30 8408 H 813.281 0.28872 4.15097 0
M  V30 8409 H 812.157 -0.0634349 5.48863 0
M  V30 8410 H 812.418 -1.26655 4.23569 0
M  V30 8411 N 811.477 -1.49425 0.500989 0
M  V30 8412 C 812.754 -1.9531 -0.106551 0
M  V30 8413 C 813.134 -1.44248 -1.54129 0
M  V30 8414 O 812.482 -0.656237 -2.18874 0
M  V30 8415 C 812.692 -3.48995 -0.0191972 0
M  V30 8416 C 814.04 -4.24161 -0.193129 0
M  V30 8417 O 815.064 -3.56075 -0.0943843 0
M  V30 8418 O 813.923 -5.45064 -0.395869 0
M  V30 8419 H 811.017 -0.82149 -0.0953068 0
M  V30 8420 H 813.563 -1.6007 0.563526 0
M  V30 8421 H 812.335 -3.78794 0.981353 0
M  V30 8422 H 811.958 -3.90852 -0.72942 0
M  V30 8423 N 812.955 -0.234822 -1.55841 0
M  V30 8424 C 814.195 0.394944 -2.00548 0
M  V30 8425 C 814.559 1.56002 -1.11926 0
M  V30 8426 O 815.76 2.2567 -1.46037 0
M  V30 8427 C 814.031 0.805896 -3.48195 0
M  V30 8428 S 815.59 1.4279 -4.14918 0
M  V30 8429 H 812.408 0.124802 -0.699961 0
M  V30 8430 H 815.01 -0.347224 -1.92392 0
M  V30 8431 H 813.714 -0.0515271 -4.10368 0
M  V30 8432 H 813.245 1.58055 -3.60253 0
M  V30 8433 H 815.26 2.71699 -4.15204 0
M  V30 8434 N 814.433 1.57553 0.0384317 0
M  V30 8435 C 815.383 2.02404 1.0496 0
M  V30 8436 C 816.367 0.911705 1.32577 0
M  V30 8437 O 817.559 1.17561 1.32319 0
M  V30 8438 C 814.688 2.49924 2.35357 0
M  V30 8439 C 813.774 3.6796 2.1087 0
M  V30 8440 N 814.165 4.81009 1.56411 0
M  V30 8441 C 812.463 3.75153 2.41197 0
M  V30 8442 C 813.164 5.62686 1.47512 0
M  V30 8443 N 812.14 5.0752 1.94742 0
M  V30 8444 H 815.942 2.87234 0.622399 0
M  V30 8445 H 813.456 1.60543 0.244916 0
M  V30 8446 H 815.453 2.80312 3.08595 0
M  V30 8447 H 814.113 1.66496 2.78763 0
M  V30 8448 H 815.124 5.02636 1.2481 0
M  V30 8449 H 811.801 3.02507 2.87742 0
M  V30 8450 H 813.191 6.6349 1.05976 0
M  V30 8451 N 815.911 -0.310526 1.54511 0
M  V30 8452 C 817.136 -1.07046 1.7764 0
M  V30 8453 C 817.561 -1.80488 0.529696 0
M  V30 8454 O 816.919 -1.73702 -0.519361 0
M  V30 8455 C 816.967 -2.03411 2.97752 0
M  V30 8456 O 816.071 -3.11545 2.7021 0
M  V30 8457 H 815.412 -0.307994 0.588248 0
M  V30 8458 H 817.942 -0.350848 2.01569 0
M  V30 8459 H 817.952 -2.46048 3.2546 0
M  V30 8460 H 816.627 -1.49361 3.88155 0
M  V30 8461 H 815.204 -2.7349 2.53491 0
M  V30 8462 N 817.389 -1.46805 -0.573248 0
M  V30 8463 C 818.337 -1.58468 -1.70267 0
M  V30 8464 C 819.331 -0.452694 -1.63239 0
M  V30 8465 O 820.537 -0.629915 -1.68618 0
M  V30 8466 H 816.912 -0.498408 -0.56311 0
M  V30 8467 H 818.883 -2.5341 -1.57563 0
M  V30 8468 C 817.632 -1.60104 -3.08645 0
M  V30 8469 H 816.955 -2.4655 -3.14727 0
M  V30 8470 H 818.395 -1.72318 -3.87405 0
M  V30 8471 C 816.854 -0.33138 -3.35266 0
M  V30 8472 O 817.384 0.57438 -3.97572 0
M  V30 8473 N 815.59 -0.216358 -2.89793 0
M  V30 8474 H 815.137 -0.954345 -2.3927 0
M  V30 8475 H 815.095 0.632253 -3.07977 0
M  V30 8476 N 818.867 0.818669 -1.34668 0
M  V30 8477 C 819.799 1.93754 -1.22442 0
M  V30 8478 C 820.812 1.62103 -0.150501 0
M  V30 8479 O 822.001 1.73898 -0.402728 0
M  V30 8480 C 819.101 3.27806 -0.860031 0
M  V30 8481 C 818.274 3.8745 -2.02981 0
M  V30 8482 C 817.333 4.99887 -1.64314 0
M  V30 8483 O 816.359 5.17957 -2.36029 0
M  V30 8484 N 817.561 5.77795 -0.55976 0
M  V30 8485 H 820.326 2.04773 -2.18833 0
M  V30 8486 H 817.887 0.995472 -1.27679 0
M  V30 8487 H 819.879 4.00478 -0.583068 0
M  V30 8488 H 818.449 3.12597 0.0138253 0
M  V30 8489 H 817.669 3.07119 -2.47127 0
M  V30 8490 H 818.957 4.2403 -2.81204 0
M  V30 8491 H 818.355 5.65688 0.0363329 0
M  V30 8492 H 816.912 6.50899 -0.342541 0
M  V30 8493 N 820.346 1.18468 1.03938 0
M  V30 8494 C 821.256 0.927889 2.1547 0
M  V30 8495 C 822.272 -0.108447 1.73662 0
M  V30 8496 O 823.448 0.0737636 2.01265 0
M  V30 8497 C 820.513 0.458494 3.43655 0
M  V30 8498 C 819.574 1.56295 3.99838 0
M  V30 8499 C 818.807 1.11586 5.21904 0
M  V30 8500 O 819.03 -0.0249057 5.70395 0
M  V30 8501 O 817.964 1.91412 5.70653 0
M  V30 8502 H 821.79 1.86116 2.39989 0
M  V30 8503 H 819.375 0.966607 1.13917 0
M  V30 8504 H 821.257 0.204861 4.20902 0
M  V30 8505 H 819.932 -0.446464 3.20606 0
M  V30 8506 H 818.839 1.87061 3.23974 0
M  V30 8507 H 820.172 2.44408 4.2723 0
M  V30 8508 N 821.824 -1.22873 0.986916 0
M  V30 8509 C 823.101 -1.86939 0.575589 0
M  V30 8510 C 823.481 -1.88656 -0.947205 0
M  V30 8511 O 822.829 -1.3728 -1.82665 0
M  V30 8512 C 823.039 -3.28117 1.18914 0
M  V30 8513 C 824.387 -4.04659 1.28593 0
M  V30 8514 O 825.411 -3.3736 1.14308 0
M  V30 8515 O 824.27 -5.25112 1.51391 0
M  V30 8516 H 821.364 -0.803748 0.194724 0
M  V30 8517 H 823.91 -1.30698 1.08241 0
M  V30 8518 H 822.682 -3.21468 2.231 0
M  V30 8519 H 822.305 -3.91956 0.667535 0
M  V30 8520 N 823.302 -0.75937 -1.38099 0
M  V30 8521 C 824.53 -0.329111 -2.04266 0
M  V30 8522 C 824.945 1.04453 -1.57274 0
M  V30 8523 O 824.302 1.66449 -0.748397 0
M  V30 8524 C 824.353 -0.349192 -3.5981 0
M  V30 8525 O 824.074 -1.66863 -4.05078 0
M  V30 8526 C 825.575 0.0942106 -4.432 0
M  V30 8527 H 822.795 -0.13971 -0.656294 0
M  V30 8528 H 825.339 -1.02984 -1.76677 0
M  V30 8529 H 823.494 0.302846 -3.86214 0
M  V30 8530 H 823.908 -1.59877 -4.9954 0
M  V30 8531 H 825.382 0.0290004 -5.51992 0
M  V30 8532 H 825.859 1.1429 -4.24069 0
M  V30 8533 H 826.465 -0.529171 -4.21995 0
M  V30 8534 N 824.78 1.49157 -0.508906 0
M  V30 8535 C 826.028 2.02073 0.0327335 0
M  V30 8536 C 826.349 1.39012 1.3675 0
M  V30 8537 O 825.619 0.548153 1.88075 0
M  V30 8538 H 824.199 0.746848 0.0150864 0
M  V30 8539 H 826.861 1.83097 -0.667946 0
M  V30 8540 H 825.957 3.11707 0.1566 0
M  V30 8541 N 826.258 0.243083 1.55714 0
M  V30 8542 C 827.498 -0.384303 2.00755 0
M  V30 8543 C 827.862 -1.55406 1.12752 0
M  V30 8544 O 829.063 -2.24892 1.47231 0
M  V30 8545 C 827.334 -0.787419 3.48618 0
M  V30 8546 S 828.893 -1.40587 4.15669 0
M  V30 8547 H 825.711 -0.121088 0.700613 0
M  V30 8548 H 828.313 0.357423 1.92205 0
M  V30 8549 H 827.017 0.0732892 4.10335 0
M  V30 8550 H 826.548 -1.56142 3.61086 0
M  V30 8551 H 828.563 -2.69493 4.16639 0
M  V30 8552 N 827.736 -1.57571 -0.0300757 0
M  V30 8553 C 828.683 -2.06492 -1.03101 0
M  V30 8554 C 829.653 -0.953862 -1.3598 0
M  V30 8555 O 830.838 -1.22436 -1.46335 0
M  V30 8556 C 827.978 -2.54826 -2.32718 0
M  V30 8557 C 827.091 -3.79718 -2.06006 0
M  V30 8558 C 826.226 -4.16668 -3.29487 0
M  V30 8559 C 825.265 -5.3448 -2.98324 0
M  V30 8560 N 824.402 -5.66867 -4.14254 0
M  V30 8561 H 829.242 -2.91755 -0.606877 0
M  V30 8562 H 826.779 -1.44252 -0.288038 0
M  V30 8563 H 828.737 -2.80916 -3.08451 0
M  V30 8564 H 827.367 -1.72481 -2.72856 0
M  V30 8565 H 826.419 -3.60718 -1.20774 0
M  V30 8566 H 827.731 -4.65569 -1.79017 0
M  V30 8567 H 826.885 -4.43881 -4.13588 0
M  V30 8568 H 825.624 -3.29466 -3.59588 0
M  V30 8569 H 824.629 -5.07021 -2.12625 0
M  V30 8570 H 825.854 -6.23334 -2.69502 0
M  V30 8571 H 823.8 -4.82625 -4.44308 0
M  V30 8572 H 823.717 -6.47226 -3.90685 0
M  V30 8573 H 824.985 -5.98656 -4.99231 0
M  V30 8574 N 829.214 0.302327 -1.54673 0
M  V30 8575 C 830.461 1.0377 -1.73891 0
M  V30 8576 C 830.789 1.87309 -0.523979 0
M  V30 8577 O 830.044 1.8936 0.494084 0
M  V30 8578 C 830.343 1.97365 -2.97963 0
M  V30 8579 C 830.009 1.29812 -4.3181 0
M  V30 8580 C 828.671 1.11121 -4.68194 0
M  V30 8581 C 831.023 0.815073 -5.14787 0
M  V30 8582 C 828.351 0.428077 -5.85136 0
M  V30 8583 C 830.703 0.145665 -6.32432 0
M  V30 8584 C 829.367 -0.0532098 -6.67479 0
M  V30 8585 H 828.637 0.379721 -0.636312 0
M  V30 8586 H 831.284 0.312708 -1.8893 0
M  V30 8587 H 829.589 2.76387 -2.777 0
M  V30 8588 H 831.286 2.54331 -3.10027 0
M  V30 8589 H 827.876 1.45366 -4.03196 0
M  V30 8590 H 832.06 0.947191 -4.87178 0
M  V30 8591 H 827.316 0.262995 -6.10834 0
M  V30 8592 H 831.49 -0.236533 -6.95998 0
M  V30 8593 H 829.117 -0.58456 -7.57949 0
M  V30 8594 N 830.692 1.47107 0.565454 0
M  V30 8595 C 832.108 1.32443 0.890566 0
M  V30 8596 C 832.308 0.308735 1.99121 0
M  V30 8597 O 831.364 -0.28265 2.50913 0
M  V30 8598 C 832.677 2.71548 1.2916 0
M  V30 8599 C 834.225 2.7977 1.40349 0
M  V30 8600 C 834.7 4.19497 1.83811 0
M  V30 8601 N 836.191 4.21998 1.90975 0
M  V30 8602 C 836.926 5.2702 2.25916 0
M  V30 8603 N 836.422 6.42353 2.59527 0
M  V30 8604 N 838.215 5.14393 2.26619 0
M  V30 8605 H 830.366 2.11786 -0.161328 0
M  V30 8606 H 832.629 0.947952 -0.00950631 0
M  V30 8607 H 832.335 3.47265 0.556753 0
M  V30 8608 H 832.209 3.02782 2.24951 0
M  V30 8609 H 834.596 2.0433 2.12916 0
M  V30 8610 H 834.677 2.522 0.427655 0
M  V30 8611 H 834.321 4.95439 1.11816 0
M  V30 8612 H 834.251 4.44486 2.82382 0
M  V30 8613 H 836.742 3.38791 1.6742 0
M  V30 8614 H 837.055 7.18252 2.85191 0
M  V30 8615 H 835.4 6.45687 2.57126 0
M  V30 8616 H 838.591 4.2332 1.99794 0
M  V30 8617 H 838.764 5.96349 2.5352 0
M  V30 8618 N 832.17 -0.811516 1.35101 0
M  V30 8619 C 833.416 -1.57068 1.28287 0
M  V30 8620 C 833.749 -1.93667 -0.143808 0
M  V30 8621 O 833.024 -1.60953 -1.09199 0
M  V30 8622 C 833.307 -2.86259 2.18466 0
M  V30 8623 C 833.16 -2.56168 3.69727 0
M  V30 8624 C 834.479 -3.87924 2.07852 0
M  V30 8625 H 831.598 -0.569869 0.467353 0
M  V30 8626 H 834.24 -0.934023 1.65457 0
M  V30 8627 H 832.39 -3.4059 1.86898 0
M  V30 8628 H 834.062 -2.08059 4.11715 0
M  V30 8629 H 832.305 -1.89436 3.90252 0
M  V30 8630 H 832.976 -3.48344 4.28206 0
M  V30 8631 H 835.452 -3.4298 2.35593 0
M  V30 8632 H 834.328 -4.76106 2.73157 0
M  V30 8633 H 834.589 -4.2923 1.05896 0
M  V30 8634 N 833.648 -1.19017 -1.03309 0
M  V30 8635 C 834.578 -0.94772 -2.13402 0
M  V30 8636 C 835.559 0.117383 -1.69694 0
M  V30 8637 O 836.744 -0.0367733 -1.94165 0
M  V30 8638 C 833.874 -0.480977 -3.43953 0
M  V30 8639 C 832.828 -1.48743 -4.01322 0
M  V30 8640 C 832.154 -0.877924 -5.27443 0
M  V30 8641 C 833.454 -2.86642 -4.36616 0
M  V30 8642 H 835.148 -1.86846 -2.33942 0
M  V30 8643 H 832.694 -0.899781 -1.12427 0
M  V30 8644 H 834.647 -0.298677 -4.2034 0
M  V30 8645 H 833.371 0.475348 -3.23122 0
M  V30 8646 H 832.03 -1.65681 -3.27025 0
M  V30 8647 H 831.678 0.0858232 -5.02927 0
M  V30 8648 H 831.378 -1.54996 -5.66789 0
M  V30 8649 H 832.902 -0.706326 -6.06501 0
M  V30 8650 H 834.316 -2.73312 -5.03958 0
M  V30 8651 H 832.713 -3.50599 -4.87032 0
M  V30 8652 H 833.783 -3.39617 -3.46105 0
M  V30 8653 N 835.127 1.22348 -0.993418 0
M  V30 8654 C 836.538 1.72893 -0.704616 0
M  V30 8655 C 836.889 1.80095 0.778483 0
M  V30 8656 O 836.014 1.4476 1.60853 0
M  V30 8657 C 836.609 3.14 -1.27237 0
M  V30 8658 C 835.168 3.61949 -1.03294 0
M  V30 8659 C 834.315 2.39816 -1.39225 0
M  V30 8660 H 837.266 1.07688 -1.16572 0
M  V30 8661 H 837.287 3.74886 -0.651212 0
M  V30 8662 H 836.799 3.08727 -2.3518 0
M  V30 8663 H 834.9 3.72588 0.0298329 0
M  V30 8664 H 835.013 4.48051 -1.69668 0
M  V30 8665 H 833.377 2.41448 -0.810849 0
M  V30 8666 H 834.16 2.37203 -2.48172 0
M  V30 8667 N 836.605 0.766683 1.37694 0
M  V30 8668 C 837.537 0.107798 2.28946 0
M  V30 8669 C 838.55 -0.669701 1.48387 0
M  V30 8670 O 839.739 -0.508629 1.711 0
M  V30 8671 C 836.839 -0.871084 3.27514 0
M  V30 8672 C 836.012 -0.148471 4.37148 0
M  V30 8673 C 835.071 -1.03998 5.1582 0
M  V30 8674 O 834.097 -0.505639 5.6695 0
M  V30 8675 N 835.299 -2.36679 5.3006 0
M  V30 8676 H 838.064 0.89154 2.86132 0
M  V30 8677 H 835.625 0.618593 1.49616 0
M  V30 8678 H 837.617 -1.47081 3.77027 0
M  V30 8679 H 836.187 -1.55582 2.71133 0
M  V30 8680 H 835.407 0.632117 3.89099 0
M  V30 8681 H 836.695 0.351045 5.07588 0
M  V30 8682 H 836.093 -2.82532 4.90094 0
M  V30 8683 H 834.65 -2.9167 5.82899 0
M  V30 8684 N 838.083 -1.48885 0.516809 0
M  V30 8685 C 839.494 -1.86557 0.0729921 0
M  V30 8686 C 839.845 -1.42767 -1.34581 0
M  V30 8687 O 838.97 -0.812514 -2.00567 0
M  V30 8688 C 839.565 -3.38567 0.125686 0
M  V30 8689 C 838.124 -3.75481 -0.262867 0
M  V30 8690 C 837.271 -2.72913 0.491281 0
M  V30 8691 H 840.222 -1.40978 0.728767 0
M  V30 8692 H 840.243 -3.74629 -0.665831 0
M  V30 8693 H 839.755 -3.70408 1.15842 0
M  V30 8694 H 837.856 -3.49251 -1.29824 0
M  V30 8695 H 837.969 -4.79052 0.067579 0
M  V30 8696 H 836.333 -2.54627 -0.0608525 0
M  V30 8697 H 837.116 -3.07599 1.5244 0
M  V30 8698 N 839.561 -0.251338 -1.55583 0
M  V30 8699 C 840.789 0.376187 -2.03451 0
M  V30 8700 C 841.204 1.51215 -1.13047 0
M  V30 8701 O 840.561 1.81917 -0.145769 0
M  V30 8702 C 840.612 0.879779 -3.50631 0
M  V30 8703 O 840.333 -0.210917 -4.37592 0
M  V30 8704 C 841.834 1.57754 -4.14281 0
M  V30 8705 H 839.054 0.0888722 -0.665089 0
M  V30 8706 H 841.598 -0.376497 -2.01004 0
M  V30 8707 H 839.753 1.58263 -3.53598 0
M  V30 8708 H 840.167 0.172203 -5.24217 0
M  V30 8709 H 841.641 1.88158 -5.18942 0
M  V30 8710 H 842.118 2.50103 -3.61034 0
M  V30 8711 H 842.724 0.919154 -4.15249 0
M  V30 8712 N 841.039 1.57585 0.0217189 0
M  V30 8713 C 841.987 2.08134 1.03842 0
M  V30 8714 C 842.981 0.996662 1.36978 0
M  V30 8715 O 844.187 1.18149 1.35797 0
M  V30 8716 H 840.562 0.664298 0.352438 0
M  V30 8717 H 842.533 2.92583 0.58634 0
M  V30 8718 C 841.282 2.58218 2.32849 0
M  V30 8719 H 840.605 3.41302 2.08214 0
M  V30 8720 H 842.045 2.97289 3.02316 0
M  V30 8721 C 840.504 1.48664 3.02325 0
M  V30 8722 O 841.034 0.857075 3.9245 0
M  V30 8723 N 839.24 1.21938 2.63779 0
M  V30 8724 H 838.787 1.73319 1.90574 0
M  V30 8725 H 838.745 0.488523 3.10581 0
M  V30 8726 N 842.517 -0.29412 1.54831 0
M  V30 8727 C 843.447 -1.36757 1.89261 0
M  V30 8728 C 844.428 -1.52564 0.752214 0
M  V30 8729 O 845.613 -1.65958 1.00855 0
M  V30 8730 C 842.743 -2.73066 2.14597 0
M  V30 8731 C 841.697 -2.72017 3.3044 0
M  V30 8732 C 841.023 -4.11679 3.4121 0
M  V30 8733 C 842.323 -2.33149 4.67375 0
M  V30 8734 H 844.017 -1.08191 2.79169 0
M  V30 8735 H 841.563 -0.519014 1.34321 0
M  V30 8736 H 843.516 -3.48255 2.37269 0
M  V30 8737 H 842.24 -3.03172 1.21467 0
M  V30 8738 H 840.899 -1.99285 3.07703 0
M  V30 8739 H 840.547 -4.38973 2.45584 0
M  V30 8740 H 840.247 -4.11877 4.19084 0
M  V30 8741 H 841.771 -4.88637 3.6615 0
M  V30 8742 H 843.185 -2.98054 4.89731 0
M  V30 8743 H 841.582 -2.44546 5.48012 0
M  V30 8744 H 842.652 -1.28275 4.67626 0
M  V30 8745 N 843.995 -1.47404 -0.557645 0
M  V30 8746 C 844.958 -1.59411 -1.64684 0
M  V30 8747 C 845.958 -0.469244 -1.53801 0
M  V30 8748 O 847.148 -0.734298 -1.57967 0
M  V30 8749 C 844.28 -1.5382 -3.04224 0
M  V30 8750 H 845.473 -2.56504 -1.55389 0
M  V30 8751 H 843.026 -1.35588 -0.777531 0
M  V30 8752 H 843.761 -0.581 -3.19053 0
M  V30 8753 H 843.546 -2.35456 -3.13533 0
M  V30 8754 H 845.036 -1.65358 -3.83466 0
M  V30 8755 N 845.473 0.80434 -1.35529 0
M  V30 8756 C 846.701 1.59283 -1.32048 0
M  V30 8757 C 847.116 1.88527 0.101556 0
M  V30 8758 O 846.473 1.48975 1.05417 0
M  V30 8759 C 846.524 2.92276 -2.12737 0
M  V30 8760 O 846.245 2.64299 -3.49396 0
M  V30 8761 C 847.746 3.86631 -2.16867 0
M  V30 8762 H 844.966 0.494523 -0.453528 0
M  V30 8763 H 847.51 0.999415 -1.78415 0
M  V30 8764 H 845.665 3.48125 -1.69964 0
M  V30 8765 H 846.079 3.4923 -3.91329 0
M  V30 8766 H 847.553 4.77053 -2.77712 0
M  V30 8767 H 848.03 4.23384 -1.16803 0
M  V30 8768 H 848.636 3.36717 -2.59811 0
M  V30 8769 N 846.951 1.19563 1.02676 0
M  V30 8770 C 848.362 1.00158 1.57561 0
M  V30 8771 C 848.713 -0.444922 1.91089 0
M  V30 8772 O 847.838 -1.32466 1.71119 0
M  V30 8773 C 848.433 1.81181 2.86284 0
M  V30 8774 C 846.992 1.66171 3.37734 0
M  V30 8775 C 846.139 1.7975 2.11152 0
M  V30 8776 H 849.09 1.33904 0.85179 0
M  V30 8777 H 849.111 1.30916 3.57269 0
M  V30 8778 H 848.623 2.86454 2.6185 0
M  V30 8779 H 846.724 0.634927 3.6715 0
M  V30 8780 H 846.837 2.46832 4.10622 0
M  V30 8781 H 845.201 1.22833 2.23123 0
M  V30 8782 H 845.984 2.86487 1.89157 0
M  V30 8783 N 848.429 -1.21819 0.999893 0
M  V30 8784 C 849.377 -2.26027 0.549047 0
M  V30 8785 C 850.371 -1.64516 -0.403826 0
M  V30 8786 O 851.577 -1.77878 -0.275578 0
M  V30 8787 H 847.952 -0.734958 0.159185 0
M  V30 8788 H 849.923 -2.61398 1.43923 0
M  V30 8789 C 848.672 -3.47514 -0.11369 0
M  V30 8790 H 847.995 -3.95112 0.610482 0
M  V30 8791 H 849.435 -4.22179 -0.3925 0
M  V30 8792 C 847.894 -3.08614 -1.35126 0
M  V30 8793 O 848.424 -3.1864 -2.44605 0
M  V30 8794 N 846.63 -2.63327 -1.22911 0
M  V30 8795 H 846.177 -2.55369 -0.338288 0
M  V30 8796 H 846.135 -2.37668 -2.05818 0
M  V30 8797 N 849.908 -0.773975 -1.37286 0
M  V30 8798 C 851.136 -0.350758 -2.03905 0
M  V30 8799 C 851.551 1.02779 -1.58373 0
M  V30 8800 O 850.908 1.65646 -0.766009 0
M  V30 8801 C 850.959 -0.387335 -3.59419 0
M  V30 8802 O 850.68 -1.7115 -4.03286 0
M  V30 8803 C 852.181 0.047198 -4.43275 0
M  V30 8804 H 849.401 -0.146663 -0.654775 0
M  V30 8805 H 851.945 -1.04852 -1.75574 0
M  V30 8806 H 850.1 0.261865 -3.86514 0
M  V30 8807 H 850.514 -1.65166 -4.97816 0
M  V30 8808 H 851.988 -0.0295474 -5.51992 0
M  V30 8809 H 852.465 1.09786 -4.25257 0
M  V30 8810 H 853.071 -0.573899 -4.2141 0
M  V30 8811 N 851.386 1.48609 -0.524698 0
M  V30 8812 C 852.333 2.29539 0.240956 0
M  V30 8813 C 853.303 1.37033 0.938681 0
M  V30 8814 O 854.488 1.65996 0.940737 0
M  V30 8815 C 851.628 3.20278 1.28514 0
M  V30 8816 C 850.741 4.27858 0.596798 0
M  V30 8817 C 849.876 5.05784 1.62346 0
M  V30 8818 C 848.915 6.05173 0.918287 0
M  V30 8819 N 848.052 6.76176 1.89025 0
M  V30 8820 H 852.892 2.945 -0.455368 0
M  V30 8821 H 850.429 1.45188 -0.236403 0
M  V30 8822 H 852.387 3.71281 1.90279 0
M  V30 8823 H 851.017 2.57251 1.94992 0
M  V30 8824 H 850.069 3.80162 -0.134668 0
M  V30 8825 H 851.381 4.98782 0.0428506 0
M  V30 8826 H 850.535 5.60775 2.31553 0
M  V30 8827 H 849.274 4.34687 2.2113 0
M  V30 8828 H 848.279 5.49391 0.21212 0
M  V30 8829 H 849.504 6.78265 0.336633 0
M  V30 8830 H 847.45 6.07834 2.46726 0
M  V30 8831 H 847.367 7.43157 1.3876 0
M  V30 8832 H 848.635 7.35759 2.57446 0
M  V30 8833 N 852.864 0.259585 1.55447 0
M  V30 8834 C 854.28 -0.094961 1.59317 0
M  V30 8835 C 854.48 -1.55884 1.2768 0
M  V30 8836 O 853.536 -2.30528 1.0302 0
M  V30 8837 C 854.849 0.265669 2.99524 0
M  V30 8838 C 856.397 0.211007 3.12288 0
M  V30 8839 C 856.872 0.545851 4.54736 0
M  V30 8840 N 858.363 0.496823 4.60528 0
M  V30 8841 C 859.098 0.728909 5.68748 0
M  V30 8842 N 858.594 1.02479 6.85179 0
M  V30 8843 N 860.387 0.658756 5.58226 0
M  V30 8844 H 852.538 1.2141 1.7428 0
M  V30 8845 H 854.801 0.489404 0.811904 0
M  V30 8846 H 854.507 1.28316 3.27457 0
M  V30 8847 H 854.381 -0.401089 3.75061 0
M  V30 8848 H 856.768 -0.797172 2.84129 0
M  V30 8849 H 856.849 0.911799 2.38998 0
M  V30 8850 H 856.493 1.55164 4.83618 0
M  V30 8851 H 856.423 -0.17656 5.26304 0
M  V30 8852 H 858.914 0.277376 3.76881 0
M  V30 8853 H 859.227 1.18897 7.63599 0
M  V30 8854 H 857.572 1.0624 6.86832 0
M  V30 8855 H 860.763 0.427553 4.66143 0
M  V30 8856 H 860.936 0.84302 6.42493 0
M  V30 8857 N 854.342 -1.57594 -0.0133615 0
M  V30 8858 C 855.589 -1.8998 -0.70098 0
M  V30 8859 C 855.917 -0.858802 -1.74513 0
M  V30 8860 O 855.172 0.138209 -1.95211 0
M  V30 8861 C 855.471 -3.29121 -1.39336 0
M  V30 8862 C 855.137 -4.48298 -0.483687 0
M  V30 8863 C 853.799 -4.80635 -0.233186 0
M  V30 8864 C 856.151 -5.21003 0.143426 0
M  V30 8865 C 853.479 -5.83055 0.652943 0
M  V30 8866 C 855.831 -6.24366 1.01735 0
M  V30 8867 C 854.495 -6.55168 1.27716 0
M  V30 8868 H 853.765 -0.695187 -0.256507 0
M  V30 8869 H 856.412 -1.9146 0.0392965 0
M  V30 8870 H 854.717 -3.23703 -2.20735 0
M  V30 8871 H 856.414 -3.51433 -1.93121 0
M  V30 8872 H 853.004 -4.23024 -0.689092 0
M  V30 8873 H 857.188 -4.96286 -0.0371139 0
M  V30 8874 H 852.444 -6.05288 0.862379 0
M  V30 8875 H 856.618 -6.79839 1.5097 0
M  V30 8876 H 854.245 -7.34351 1.9655 0
M  V30 8877 N 855.82 0.285905 -1.54985 0
M  V30 8878 C 856.767 1.35306 -1.86978 0
M  V30 8879 C 857.737 1.49682 -0.720046 0
M  V30 8880 O 858.922 1.64297 -0.970107 0
M  V30 8881 C 856.062 2.71059 -2.13591 0
M  V30 8882 C 855.175 2.6501 -3.41165 0
M  V30 8883 C 854.31 3.92856 -3.57544 0
M  V30 8884 C 853.349 3.81266 -4.78855 0
M  V30 8885 N 852.486 5.00919 -4.9196 0
M  V30 8886 H 857.326 1.07323 -2.78003 0
M  V30 8887 H 854.863 0.518776 -1.37649 0
M  V30 8888 H 856.821 3.50026 -2.27019 0
M  V30 8889 H 855.451 2.97271 -1.25816 0
M  V30 8890 H 854.503 1.77824 -3.36278 0
M  V30 8891 H 855.815 2.52342 -4.30262 0
M  V30 8892 H 854.969 4.80263 -3.70718 0
M  V30 8893 H 853.708 4.08377 -2.66608 0
M  V30 8894 H 852.713 2.92243 -4.65698 0
M  V30 8895 H 853.938 3.67277 -5.71213 0
M  V30 8896 H 851.884 5.16875 -4.03951 0
M  V30 8897 H 851.801 4.90732 -5.75081 0
M  V30 8898 H 853.069 5.89935 -5.09507 0
M  V30 8899 N 857.298 1.47698 0.54982 0
M  V30 8900 C 858.245 1.60739 1.65625 0
M  V30 8901 C 859.215 0.450129 1.59884 0
M  V30 8902 O 860.4 0.671123 1.78607 0
M  V30 8903 C 857.54 1.63457 3.03934 0
M  V30 8904 C 856.653 2.90152 3.20056 0
M  V30 8905 C 855.788 2.84157 4.48807 0
M  V30 8906 C 854.827 4.05644 4.58387 0
M  V30 8907 N 853.964 3.97843 5.78503 0
M  V30 8908 H 858.804 2.55234 1.53817 0
M  V30 8909 H 856.341 1.26593 0.749173 0
M  V30 8910 H 858.299 1.63015 3.84034 0
M  V30 8911 H 856.929 0.724689 3.1456 0
M  V30 8912 H 855.981 3.00428 2.33339 0
M  V30 8913 H 857.293 3.80097 3.22998 0
M  V30 8914 H 856.447 2.82006 5.37175 0
M  V30 8915 H 855.186 1.91908 4.48356 0
M  V30 8916 H 854.191 4.08092 3.6843 0
M  V30 8917 H 855.416 4.9903 4.60593 0
M  V30 8918 H 853.362 3.08401 5.78986 0
M  V30 8919 H 853.279 4.81473 5.82855 0
M  V30 8920 H 854.547 3.99719 6.69212 0
M  V30 8921 N 858.776 -0.797141 1.35954 0
M  V30 8922 C 859.686 -1.94088 1.31784 0
M  V30 8923 C 860.702 -1.72588 0.221227 0
M  V30 8924 O 861.878 -1.96256 0.452255 0
M  V30 8925 C 858.943 -3.28828 1.09878 0
M  V30 8926 C 858.004 -3.63158 2.28942 0
M  V30 8927 C 857.237 -4.91469 2.08072 0
M  V30 8928 O 857.46 -5.60616 1.05196 0
M  V30 8929 O 856.394 -5.24277 2.95664 0
M  V30 8930 H 860.22 -2.00554 2.28061 0
M  V30 8931 H 857.805 -0.936288 1.16422 0
M  V30 8932 H 859.687 -4.09473 0.995485 0
M  V30 8933 H 858.362 -3.23271 0.16659 0
M  V30 8934 H 857.269 -2.82851 2.44839 0
M  V30 8935 H 858.602 -3.7343 3.20641 0
M  V30 8936 N 860.254 -1.20106 -1.0204 0
M  V30 8937 C 861.164 -0.962051 -2.13967 0
M  V30 8938 C 862.18 0.0808053 -1.73812 0
M  V30 8939 O 863.356 -0.105774 -2.01122 0
M  V30 8940 C 860.421 -0.513108 -3.42882 0
M  V30 8941 C 859.482 -1.62636 -3.97301 0
M  V30 8942 C 858.715 -1.19875 -5.20063 0
M  V30 8943 O 858.938 -0.0658423 -5.70362 0
M  V30 8944 O 857.872 -2.00467 -5.67536 0
M  V30 8945 H 861.698 -1.8991 -2.36998 0
M  V30 8946 H 859.283 -0.984608 -1.12365 0
M  V30 8947 H 861.165 -0.271797 -4.20523 0
M  V30 8948 H 859.84 0.395402 -3.21276 0
M  V30 8949 H 858.747 -1.92192 -3.20957 0
M  V30 8950 H 860.08 -2.51174 -4.23288 0
M  V30 8951 N 861.732 1.21287 -1.00634 0
M  V30 8952 C 862.981 1.89706 -0.685178 0
M  V30 8953 C 863.294 1.79044 0.787566 0
M  V30 8954 O 864.5 2.42502 1.22086 0
M  V30 8955 C 862.956 3.40176 -1.17508 0
M  V30 8956 C 862.564 3.59446 -2.674 0
M  V30 8957 C 864.308 4.14213 -0.928869 0
M  V30 8958 C 862.215 5.03688 -3.09923 0
M  V30 8959 H 861.145 0.710434 -0.252586 0
M  V30 8960 H 863.796 1.37277 -1.21768 0
M  V30 8961 H 862.178 3.91867 -0.570622 0
M  V30 8962 H 863.352 3.18188 -3.33306 0
M  V30 8963 H 861.667 2.98764 -2.9005 0
M  V30 8964 H 864.264 5.20546 -1.22212 0
M  V30 8965 H 864.607 4.16082 0.134859 0
M  V30 8966 H 865.14 3.68591 -1.49619 0
M  V30 8967 H 861.879 5.06968 -4.15529 0
M  V30 8968 H 861.399 5.45796 -2.4873 0
M  V30 8969 H 863.078 5.72204 -3.0198 0
M  V30 8970 N 863.21 0.781244 1.36873 0
M  V30 8971 C 864.14 0.188128 2.32741 0
M  V30 8972 C 865.121 -0.672326 1.56249 0
M  V30 8973 O 866.306 -0.607835 1.84442 0
M  V30 8974 C 863.436 -0.684341 3.40491 0
M  V30 8975 C 862.39 0.0755641 4.27933 0
M  V30 8976 C 861.716 -0.916968 5.26779 0
M  V30 8977 C 863.016 1.26006 5.06873 0
M  V30 8978 H 864.71 0.989016 2.82593 0
M  V30 8979 H 862.256 0.477038 1.35869 0
M  V30 8980 H 864.209 -1.10915 4.06541 0
M  V30 8981 H 862.933 -1.51785 2.89187 0
M  V30 8982 H 861.592 0.481258 3.63427 0
M  V30 8983 H 861.24 -1.74528 4.71751 0
M  V30 8984 H 860.94 -0.413 5.86147 0
M  V30 8985 H 862.464 -1.34052 5.95703 0
M  V30 8986 H 863.878 0.911425 5.66009 0
M  V30 8987 H 862.275 1.69676 5.75613 0
M  V30 8988 H 863.345 2.05948 4.38991 0
M  V30 8989 N 864.689 -1.48329 0.532571 0
M  V30 8990 C 865.914 -2.074 0.00147755 0
M  V30 8991 C 866.339 -1.38615 -1.27151 0
M  V30 8992 O 865.697 -0.452949 -1.75551 0
M  V30 8993 C 865.745 -3.60029 -0.202866 0
M  V30 8994 O 864.849 -3.92327 -1.27097 0
M  V30 8995 H 864.19 -0.662777 0.0402883 0
M  V30 8996 H 866.72 -1.90701 0.741224 0
M  V30 8997 H 866.73 -4.05783 -0.424722 0
M  V30 8998 H 865.405 -4.09496 0.727033 0
M  V30 8999 H 863.982 -3.58348 -1.03156 0
M  V30 9000 N 866.167 -0.267825 -1.55308 0
M  V30 9001 C 867.392 0.357487 -2.04296 0
M  V30 9002 C 867.817 1.49222 -1.14518 0
M  V30 9003 O 867.175 1.80741 -0.142292 0
M  V30 9004 C 867.223 0.822899 -3.51085 0
M  V30 9005 O 866.327 1.93078 -3.6441 0
M  V30 9006 H 865.668 0.075025 -0.659748 0
M  V30 9007 H 868.198 -0.399996 -2.00652 0
M  V30 9008 H 868.208 1.12059 -3.92309 0
M  V30 9009 H 866.883 -0.0073562 -4.15899 0
M  V30 9010 H 865.46 1.63618 -3.35087 0
M  V30 9011 N 867.645 1.57599 0.00500368 0
M  V30 9012 C 868.87 1.95026 0.705663 0
M  V30 9013 C 869.295 0.869643 1.6679 0
M  V30 9014 O 868.653 -0.172659 1.80476 0
M  V30 9015 C 868.701 3.31545 1.4181 0
M  V30 9016 O 867.805 3.25495 2.53232 0
M  V30 9017 H 867.146 0.636808 0.188074 0
M  V30 9018 H 869.676 2.04547 -0.046696 0
M  V30 9019 H 869.686 3.66996 1.78265 0
M  V30 9020 H 868.361 4.09751 0.712543 0
M  V30 9021 H 866.938 3.01714 2.19142 0
M  V30 9022 N 869.123 -0.277682 1.55134 0
M  V30 9023 C 870.4 -1.0309 1.66228 0
M  V30 9024 C 870.78 -2.0445 0.525701 0
M  V30 9025 O 870.128 -2.23512 -0.474816 0
M  V30 9026 C 870.338 -1.6919 3.05247 0
M  V30 9027 C 871.686 -2.20526 3.62841 0
M  V30 9028 O 872.71 -1.79185 3.07849 0
M  V30 9029 O 871.569 -2.96342 4.59177 0
M  V30 9030 H 868.663 -0.4779 0.674937 0
M  V30 9031 H 871.209 -0.273912 1.67475 0
M  V30 9032 H 869.981 -0.957163 3.79413 0
M  V30 9033 H 869.604 -2.51587 3.07879 0
M  V30 9034 N 870.601 -1.47988 -0.541979 0
M  V30 9035 C 871.85 -1.5465 -1.29485 0
M  V30 9036 C 872.163 -0.220041 -1.94358 0
M  V30 9037 O 873.369 -0.164792 -2.70999 0
M  V30 9038 C 871.825 -2.72685 -2.34885 0
M  V30 9039 C 871.433 -4.11923 -1.76134 0
M  V30 9040 C 873.177 -2.88651 -3.11257 0
M  V30 9041 C 871.084 -5.21237 -2.79404 0
M  V30 9042 H 870.014 -0.575688 -0.486928 0
M  V30 9043 H 872.665 -1.74296 -0.573853 0
M  V30 9044 H 871.047 -2.46448 -3.09966 0
M  V30 9045 H 872.221 -4.48128 -1.07322 0
M  V30 9046 H 870.536 -4.00972 -1.12295 0
M  V30 9047 H 873.133 -3.67487 -3.88404 0
M  V30 9048 H 873.476 -1.97658 -3.66384 0
M  V30 9049 H 874.009 -3.14731 -2.43288 0
M  V30 9050 H 870.748 -6.14156 -2.29113 0
M  V30 9051 H 870.268 -4.89533 -3.4658 0
M  V30 9052 H 871.947 -5.48839 -3.42615 0
M  V30 9053 N 872.079 0.78992 -1.36375 0
M  V30 9054 C 873.319 1.56098 -1.31958 0
M  V30 9055 C 873.683 1.91738 0.100197 0
M  V30 9056 O 874.884 2.67451 0.268913 0
M  V30 9057 C 873.155 2.80406 -2.21601 0
M  V30 9058 S 874.714 3.70655 -2.34863 0
M  V30 9059 H 871.532 0.534632 -0.46871 0
M  V30 9060 H 874.134 0.930417 -1.7194 0
M  V30 9061 H 872.838 2.52273 -3.23707 0
M  V30 9062 H 872.369 3.48436 -1.82637 0
M  V30 9063 H 874.384 4.71509 -1.54575 0
M  V30 9064 N 873.557 1.20646 1.01402 0
M  V30 9065 C 874.489 0.915392 2.10127 0
M  V30 9066 C 875.502 -0.0978705 1.62506 0
M  V30 9067 O 876.691 0.133477 1.78 0
M  V30 9068 C 873.791 0.351304 3.37074 0
M  V30 9069 C 872.964 1.41673 4.13821 0
M  V30 9070 C 872.023 0.8635 5.19067 0
M  V30 9071 O 871.049 1.54481 5.47836 0
M  V30 9072 N 872.251 -0.325799 5.79585 0
M  V30 9073 H 875.016 1.85132 2.35682 0
M  V30 9074 H 872.577 1.11048 1.17813 0
M  V30 9075 H 874.569 -0.032996 4.04687 0
M  V30 9076 H 873.139 -0.489242 3.08748 0
M  V30 9077 H 872.359 1.97526 3.41141 0
M  V30 9078 H 873.647 2.1342 4.61876 0
M  V30 9079 H 873.045 -0.896534 5.58551 0
M  V30 9080 H 871.602 -0.651708 6.48534 0
M  V30 9081 N 875.035 -1.20752 1.01276 0
M  V30 9082 C 875.982 -2.234 0.579732 0
M  V30 9083 C 876.952 -1.61256 -0.398206 0
M  V30 9084 O 878.137 -1.8845 -0.29851 0
M  V30 9085 C 875.277 -3.45008 -0.0797006 0
M  V30 9086 C 874.39 -4.21597 0.942343 0
M  V30 9087 C 873.525 -5.30591 0.254364 0
M  V30 9088 C 872.564 -5.98919 1.26343 0
M  V30 9089 N 871.701 -6.99511 0.602384 0
M  V30 9090 H 876.541 -2.59801 1.45971 0
M  V30 9091 H 874.078 -1.27663 0.730787 0
M  V30 9092 H 876.036 -4.1444 -0.479125 0
M  V30 9093 H 874.666 -3.09312 -0.923354 0
M  V30 9094 H 873.718 -3.51268 1.45996 0
M  V30 9095 H 875.03 -4.68576 1.70992 0
M  V30 9096 H 874.184 -6.06368 -0.200763 0
M  V30 9097 H 872.923 -4.84639 -0.545553 0
M  V30 9098 H 871.928 -5.21906 1.72898 0
M  V30 9099 H 873.153 -6.46957 2.06456 0
M  V30 9100 H 871.099 -6.55759 -0.177734 0
M  V30 9101 H 871.016 -7.44597 1.30809 0
M  V30 9102 H 872.284 -7.79313 0.17072 0
M  V30 9103 N 876.513 -0.788492 -1.36457 0
M  V30 9104 C 877.443 -0.200468 -2.32638 0
M  V30 9105 C 878.424 0.664031 -1.56603 0
M  V30 9106 O 879.609 0.598045 -1.84762 0
M  V30 9107 C 876.739 0.666274 -3.40849 0
M  V30 9108 C 875.693 -0.0982574 -4.27887 0
M  V30 9109 C 875.019 0.889018 -5.27258 0
M  V30 9110 C 876.319 -1.28692 -5.06197 0
M  V30 9111 H 878.013 -1.00399 -2.82065 0
M  V30 9112 H 875.559 -0.484237 -1.35614 0
M  V30 9113 H 877.512 1.08757 -4.07124 0
M  V30 9114 H 876.236 1.50249 -2.89987 0
M  V30 9115 H 874.895 -0.500525 -3.63167 0
M  V30 9116 H 874.543 1.72024 -4.7267 0
M  V30 9117 H 874.243 0.381909 -5.86358 0
M  V30 9118 H 875.767 1.30891 -5.96406 0
M  V30 9119 H 877.181 -0.941429 -5.65517 0
M  V30 9120 H 875.578 -1.72726 -5.74705 0
M  V30 9121 H 876.648 -2.08273 -4.37893 0
M  V30 9122 N 877.991 1.48044 -0.54043 0
M  V30 9123 C 879.237 2.02797 -0.0101718 0
M  V30 9124 C 879.57 1.41565 1.32939 0
M  V30 9125 O 878.845 0.565139 1.86109 0
M  V30 9126 C 879.128 3.59959 0.100758 0
M  V30 9127 C 878.981 4.31654 -1.26471 0
M  V30 9128 C 880.3 4.32347 0.822455 0
M  V30 9129 H 877.419 0.736982 -0.00517052 0
M  V30 9130 H 880.061 1.76656 -0.69948 0
M  V30 9131 H 878.211 3.82363 0.687824 0
M  V30 9132 H 879.883 4.20639 -1.89369 0
M  V30 9133 H 878.126 3.92663 -1.84386 0
M  V30 9134 H 878.797 5.401 -1.13998 0
M  V30 9135 H 881.273 4.14835 0.324164 0
M  V30 9136 H 880.149 5.41978 0.868993 0
M  V30 9137 H 880.41 4.00369 1.87501 0
M  V30 9138 N 879.47 0.276058 1.55163 0
M  V30 9139 C 880.418 -0.626978 2.2399 0
M  V30 9140 C 881.412 -1.15708 1.23725 0
M  V30 9141 O 882.618 -1.1106 1.41653 0
M  V30 9142 H 878.993 -0.220742 0.718872 0
M  V30 9143 H 880.964 -0.0236569 2.98391 0
M  V30 9144 C 879.713 -1.79935 2.97521 0
M  V30 9145 H 879.036 -1.40064 3.74463 0
M  V30 9146 H 880.476 -2.40781 3.48999 0
M  V30 9147 C 878.935 -2.68838 2.03046 0
M  V30 9148 O 879.465 -3.69224 1.58229 0
M  V30 9149 N 877.671 -2.36028 1.69527 0
M  V30 9150 H 877.218 -1.54442 2.06169 0
M  V30 9151 H 877.176 -2.95782 1.06586 0
M  V30 9152 N 880.948 -1.576 0.00335426 0
M  V30 9153 C 882.176 -1.94996 -0.691685 0
M  V30 9154 C 882.591 -0.878405 -1.67121 0
M  V30 9155 O 881.948 0.142343 -1.81944 0
M  V30 9156 C 881.999 -3.32416 -1.42063 0
M  V30 9157 O 881.72 -4.35458 -0.48038 0
M  V30 9158 C 883.221 -3.84291 -2.20987 0
M  V30 9159 H 880.441 -0.642814 -0.192434 0
M  V30 9160 H 882.985 -2.04425 0.0554706 0
M  V30 9161 H 881.14 -3.24285 -2.11939 0
M  V30 9162 H 881.554 -5.14975 -0.995054 0
M  V30 9163 H 883.028 -4.82863 -2.67483 0
M  V30 9164 H 883.505 -3.17174 -3.03805 0
M  V30 9165 H 884.111 -3.95609 -1.56121 0
M  V30 9166 N 882.426 0.269451 -1.5528 0
M  V30 9167 C 883.358 1.35553 -1.84819 0
M  V30 9168 C 884.371 1.45369 -0.732914 0
M  V30 9169 O 885.56 1.47122 -1.0108 0
M  V30 9170 C 882.66 2.73645 -1.9993 0
M  V30 9171 C 881.833 2.86376 -3.30617 0
M  V30 9172 C 880.892 4.05165 -3.35749 0
M  V30 9173 O 879.918 3.95756 -4.09104 0
M  V30 9174 N 881.12 5.17297 -2.63408 0
M  V30 9175 H 883.885 1.10557 -2.78563 0
M  V30 9176 H 881.446 0.459566 -1.5524 0
M  V30 9177 H 883.438 3.51411 -2.00729 0
M  V30 9178 H 882.008 2.91448 -1.13035 0
M  V30 9179 H 881.228 1.95465 -3.42326 0
M  V30 9180 H 882.516 2.91815 -4.16799 0
M  V30 9181 H 881.914 5.2783 -2.03501 0
M  V30 9182 H 880.471 5.93281 -2.69927 0
M  V30 9183 N 883.904 1.48273 0.534124 0
M  V30 9184 C 885.181 1.46567 1.29528 0
M  V30 9185 C 885.561 0.17509 2.10373 0
M  V30 9186 O 884.909 -0.843228 2.12372 0
M  V30 9187 C 885.119 2.72519 2.18023 0
M  V30 9188 C 886.467 3.2068 2.78298 0
M  V30 9189 O 887.491 2.73408 2.28313 0
M  V30 9190 O 886.35 4.02924 3.69208 0
M  V30 9191 H 883.444 0.585151 0.584403 0
M  V30 9192 H 885.99 1.60502 0.551119 0
M  V30 9193 H 884.762 3.57965 1.5804 0
M  V30 9194 H 884.385 2.61285 2.99693 0
M  V30 9195 N 885.382 -0.782676 1.36792 0
M  V30 9196 C 886.315 -1.90241 1.2603 0
M  V30 9197 C 887.293 -1.61969 0.143055 0
M  V30 9198 O 888.477 -1.85843 0.315366 0
M  V30 9199 C 885.604 -3.25218 0.946082 0
M  V30 9200 C 884.65 -3.72414 2.0787 0
M  V30 9201 S 885.483 -3.87376 3.69729 0
M  V30 9202 C 886.639 -5.25219 3.40435 0
M  V30 9203 H 886.872 -1.99079 2.20805 0
M  V30 9204 H 884.405 -0.942625 1.22286 0
M  V30 9205 H 886.363 -4.03183 0.771612 0
M  V30 9206 H 885.024 -3.14096 0.0159991 0
M  V30 9207 H 884.217 -4.7024 1.81358 0
M  V30 9208 H 883.819 -3.01519 2.21274 0
M  V30 9209 H 886.111 -6.10025 2.94746 0
M  V30 9210 H 887.054 -5.56738 4.37549 0
M  V30 9211 H 887.462 -4.92638 2.75622 0
M  V30 9212 N 886.86 -1.21182 -1.00761 0
M  V30 9213 C 888.085 -1.05411 -1.78615 0
M  V30 9214 C 888.51 0.391837 -1.83973 0
M  V30 9215 O 887.868 1.28256 -1.28141 0
M  V30 9216 C 887.916 -1.65285 -3.20489 0
M  V30 9217 O 887.02 -0.896558 -4.02536 0
M  V30 9218 H 886.361 -0.37116 -0.550578 0
M  V30 9219 H 888.891 -1.60669 -1.26676 0
M  V30 9220 H 888.901 -1.69397 -3.71172 0
M  V30 9221 H 887.576 -2.70514 -3.15904 0
M  V30 9222 H 886.153 -0.930335 -3.61108 0
M  V30 9223 N 888.338 1.20213 -1.01915 0
M  V30 9224 C 889.301 2.21307 -0.596327 0
M  V30 9225 C 890.301 1.57274 0.334879 0
M  V30 9226 O 891.491 1.73764 0.12322 0
M  V30 9227 C 888.623 3.40657 0.128808 0
M  V30 9228 H 889.816 2.60228 -1.49068 0
M  V30 9229 H 887.369 1.33721 -0.809226 0
M  V30 9230 H 888.104 3.07241 1.03796 0
M  V30 9231 H 887.889 3.88361 -0.540183 0
M  V30 9232 H 889.379 4.15564 0.411892 0
M  V30 9233 N 889.816 0.795718 1.36037 0
M  V30 9234 C 891.041 0.38204 2.03851 0
M  V30 9235 C 891.466 -0.995553 1.59594 0
M  V30 9236 O 890.824 -1.64258 0.767401 0
M  V30 9237 C 890.872 0.461248 3.57638 0
M  V30 9238 O 889.976 -0.529448 4.08987 0
M  V30 9239 H 889.317 0.161227 0.644129 0
M  V30 9240 H 891.847 1.07858 1.73861 0
M  V30 9241 H 891.857 0.32712 4.06687 0
M  V30 9242 H 890.532 1.46613 3.89201 0
M  V30 9243 H 889.109 -0.35646 3.71192 0
M  V30 9244 N 891.294 -1.47756 0.548274 0
M  V30 9245 C 892.226 -2.27921 -0.24177 0
M  V30 9246 C 893.239 -1.36471 -0.887658 0
M  V30 9247 O 894.428 -1.6137 -0.763016 0
M  V30 9248 C 891.528 -3.10449 -1.35922 0
M  V30 9249 C 890.701 -4.298 -0.811808 0
M  V30 9250 C 889.76 -4.93994 -1.81264 0
M  V30 9251 O 888.786 -5.52657 -1.3623 0
M  V30 9252 N 889.988 -4.87882 -3.14566 0
M  V30 9253 H 892.753 -2.96365 0.445848 0
M  V30 9254 H 890.314 -1.57286 0.383769 0
M  V30 9255 H 892.306 -3.50261 -2.02729 0
M  V30 9256 H 890.876 -2.44306 -1.95021 0
M  V30 9257 H 890.096 -3.94186 0.0327929 0
M  V30 9258 H 891.384 -5.0702 -0.425272 0
M  V30 9259 H 890.782 -4.41405 -3.53805 0
M  V30 9260 H 889.339 -5.3174 -3.76956 0
M  V30 9261 N 892.772 -0.284283 -1.55015 0
M  V30 9262 C 894.018 0.330352 -2.00091 0
M  V30 9263 C 894.351 1.54814 -1.17244 0
M  V30 9264 O 893.626 1.92954 -0.244753 0
M  V30 9265 C 893.909 0.703492 -3.53161 0
M  V30 9266 C 893.762 -0.522275 -4.46758 0
M  V30 9267 C 895.081 1.53645 -4.12409 0
M  V30 9268 H 892.2 0.118599 -0.727395 0
M  V30 9269 H 894.842 -0.393054 -1.8589 0
M  V30 9270 H 892.992 1.31983 -3.65394 0
M  V30 9271 H 894.664 -1.16082 -4.46456 0
M  V30 9272 H 892.907 -1.15865 -4.1804 0
M  V30 9273 H 893.578 -0.217295 -5.51572 0
M  V30 9274 H 896.054 1.01583 -4.0351 0
M  V30 9275 H 894.93 1.76633 -5.19704 0
M  V30 9276 H 895.191 2.5204 -3.63219 0
M  V30 9277 N 894.251 1.57596 -0.0117121 0
M  V30 9278 C 895.528 1.82323 0.708356 0
M  V30 9279 C 895.908 0.891947 1.91331 0
M  V30 9280 O 895.256 -0.0565984 2.2843 0
M  V30 9281 C 895.466 3.31111 1.10303 0
M  V30 9282 C 896.814 3.97147 1.50199 0
M  V30 9283 O 897.838 3.35503 1.1965 0
M  V30 9284 O 896.697 5.0576 2.07049 0
M  V30 9285 H 893.791 0.751173 0.345931 0
M  V30 9286 H 896.337 1.69657 -0.0380632 0
M  V30 9287 H 895.109 3.90534 0.24467 0
M  V30 9288 H 894.732 3.48818 1.90818 0
M  V30 9289 N 895.729 -0.261212 1.5542 0
M  V30 9290 C 896.975 -0.992699 1.76843 0
M  V30 9291 C 897.308 -1.8551 0.574428 0
M  V30 9292 O 896.583 -1.89739 -0.427713 0
M  V30 9293 C 896.866 -1.86532 3.08022 0
M  V30 9294 C 896.719 -1.03206 4.378 0
M  V30 9295 C 898.038 -2.85036 3.35324 0
M  V30 9296 H 895.157 -0.359473 0.643388 0
M  V30 9297 H 897.799 -0.264214 1.88154 0
M  V30 9298 H 895.949 -2.48644 2.9851 0
M  V30 9299 H 897.621 -0.430743 4.59285 0
M  V30 9300 H 895.864 -0.335911 4.32497 0
M  V30 9301 H 896.535 -1.6761 5.25938 0
M  V30 9302 H 899.011 -2.3306 3.44706 0
M  V30 9303 H 897.887 -3.43226 4.28354 0
M  V30 9304 H 898.148 -3.60768 2.55537 0
M  V30 9305 N 897.207 -1.48554 -0.526253 0
M  V30 9306 C 898.17 -1.62868 -1.61266 0
M  V30 9307 C 899.17 -0.501762 -1.52771 0
M  V30 9308 O 900.36 -0.76764 -1.56374 0
M  V30 9309 C 897.492 -1.60238 -3.00893 0
M  V30 9310 H 898.685 -2.59742 -1.49913 0
M  V30 9311 H 896.238 -1.37207 -0.748595 0
M  V30 9312 H 896.973 -0.648545 -3.17749 0
M  V30 9313 H 896.758 -2.42054 -3.08468 0
M  V30 9314 H 898.248 -1.73455 -3.79872 0
M  V30 9315 N 898.685 0.775411 -1.37205 0
M  V30 9316 C 899.931 1.53611 -1.32407 0
M  V30 9317 C 900.264 1.9398 0.0924103 0
M  V30 9318 O 899.539 1.63791 1.04893 0
M  V30 9319 C 899.822 2.80367 -2.25979 0
M  V30 9320 C 899.675 2.46275 -3.76389 0
M  V30 9321 C 900.994 3.82277 -2.18064 0
M  V30 9322 H 898.113 0.557278 -0.482297 0
M  V30 9323 H 900.755 0.889826 -1.67875 0
M  V30 9324 H 898.905 3.35515 -1.95862 0
M  V30 9325 H 900.577 1.9707 -4.17087 0
M  V30 9326 H 898.82 1.79023 -3.95137 0
M  V30 9327 H 899.491 3.36868 -4.37291 0
M  V30 9328 H 901.967 3.36613 -2.44604 0
M  V30 9329 H 900.843 4.68696 -2.85684 0
M  V30 9330 H 901.104 4.26272 -1.17239 0
M  V30 9331 N 900.163 1.21714 1.00117 0
M  V30 9332 C 901.11 0.979837 2.08968 0
M  V30 9333 C 902.08 -0.0955324 1.65825 0
M  V30 9334 O 903.265 0.0523742 1.90728 0
M  V30 9335 C 900.405 0.554758 3.40612 0
M  V30 9336 C 899.518 1.69999 3.97145 0
M  V30 9337 C 898.653 1.2237 5.16913 0
M  V30 9338 C 897.692 2.34101 5.65564 0
M  V30 9339 N 896.829 1.87579 6.76579 0
M  V30 9340 H 901.669 1.91167 2.28602 0
M  V30 9341 H 899.206 0.952645 1.12085 0
M  V30 9342 H 901.164 0.289526 4.16194 0
M  V30 9343 H 899.794 -0.340073 3.21004 0
M  V30 9344 H 898.846 2.07976 3.18512 0
M  V30 9345 H 900.158 2.54074 4.29241 0
M  V30 9346 H 899.312 0.915358 5.99755 0
M  V30 9347 H 898.051 0.353045 4.8642 0
M  V30 9348 H 897.056 2.65734 4.81316 0
M  V30 9349 H 898.281 3.21669 5.98085 0
M  V30 9350 H 896.227 1.02863 6.47885 0
M  V30 9351 H 896.144 2.65225 7.07949 0
M  V30 9352 H 897.412 1.5979 7.62947 0
M  V30 9353 N 901.641 -1.19671 1.02551 0
M  V30 9354 C 902.89 -1.88591 0.715272 0
M  V30 9355 C 903.203 -1.80274 -0.758982 0
M  V30 9356 O 904.409 -2.44413 -1.18213 0
M  V30 9357 C 902.865 -3.38264 1.22905 0
M  V30 9358 C 902.473 -3.55146 2.73084 0
M  V30 9359 C 904.217 -4.12683 0.994649 0
M  V30 9360 C 902.124 -4.98693 3.17897 0
M  V30 9361 H 901.054 -0.706326 0.263857 0
M  V30 9362 H 903.705 -1.35322 1.23936 0
M  V30 9363 H 902.087 -3.9091 0.632892 0
M  V30 9364 H 903.261 -3.12845 3.38326 0
M  V30 9365 H 901.576 -2.94112 2.94766 0
M  V30 9366 H 904.173 -5.18536 1.30478 0
M  V30 9367 H 904.516 -4.16243 -0.0686466 0
M  V30 9368 H 905.049 -3.66164 1.55464 0
M  V30 9369 H 901.788 -5.00293 4.23542 0
M  V30 9370 H 901.308 -5.4177 2.57381 0
M  V30 9371 H 902.987 -5.67327 3.11045 0
M  V30 9372 N 903.119 -0.802921 -1.35613 0
M  V30 9373 C 904.067 -0.198783 -2.31749 0
M  V30 9374 C 905.061 0.649416 -1.56458 0
M  V30 9375 O 906.267 0.542989 -1.71615 0
M  V30 9376 H 902.642 -0.0455177 -0.750621 0
M  V30 9377 H 904.613 -1.02479 -2.80251 0
M  V30 9378 C 903.362 0.641066 -3.41739 0
M  V30 9379 H 902.685 -0.00226244 -3.998 0
M  V30 9380 H 904.125 1.03022 -4.11294 0
M  V30 9381 C 902.584 1.80505 -2.84464 0
M  V30 9382 O 903.114 2.90235 -2.77717 0
M  V30 9383 N 901.32 1.61542 -2.41563 0
M  V30 9384 H 900.867 0.722863 -2.4725 0
M  V30 9385 H 900.825 2.39581 -2.03589 0
M  V30 9386 N 904.597 1.47463 -0.556102 0
M  V30 9387 C 905.544 2.29998 0.192213 0
M  V30 9388 C 906.514 1.38993 0.909403 0
M  V30 9389 O 907.699 1.67954 0.905316 0
M  V30 9390 C 904.839 3.22932 1.21692 0
M  V30 9391 C 903.952 4.29027 0.505908 0
M  V30 9392 C 903.087 5.09114 1.51581 0
M  V30 9393 C 902.126 6.06984 0.789714 0
M  V30 9394 N 901.263 6.80033 1.74639 0
M  V30 9395 H 906.103 2.93468 -0.517734 0
M  V30 9396 H 903.64 1.44654 -0.267147 0
M  V30 9397 H 905.598 3.75234 1.8236 0
M  V30 9398 H 904.228 2.61329 1.89491 0
M  V30 9399 H 903.28 3.7979 -0.215276 0
M  V30 9400 H 904.592 4.9876 -0.062958 0
M  V30 9401 H 903.746 5.6556 2.19606 0
M  V30 9402 H 902.485 4.3928 2.11859 0
M  V30 9403 H 901.49 5.49717 0.0955382 0
M  V30 9404 H 902.715 6.78827 0.192688 0
M  V30 9405 H 900.661 6.12931 2.33777 0
M  V30 9406 H 900.578 7.45933 1.22965 0
M  V30 9407 H 901.846 7.41054 2.41782 0
M  V30 9408 N 906.075 0.2925 1.54862 0
M  V30 9409 C 907.022 -0.587365 2.23201 0
M  V30 9410 C 907.992 -1.13623 1.21157 0
M  V30 9411 O 909.177 -1.18233 1.49752 0
M  V30 9412 C 906.317 -1.75745 2.96998 0
M  V30 9413 C 905.43 -1.24078 4.13798 0
M  V30 9414 C 904.565 -2.37405 4.75197 0
M  V30 9415 C 903.604 -1.82829 5.84157 0
M  V30 9416 N 902.741 -2.89696 6.39547 0
M  V30 9417 H 907.581 0.00202207 2.98 0
M  V30 9418 H 905.118 0.012766 1.47094 0
M  V30 9419 H 907.076 -2.44549 3.38011 0
M  V30 9420 H 905.706 -2.3186 2.24591 0
M  V30 9421 H 904.758 -0.445268 3.77785 0
M  V30 9422 H 906.07 -0.801186 4.92324 0
M  V30 9423 H 905.224 -3.14172 5.19019 0
M  V30 9424 H 903.963 -2.84688 3.95985 0
M  V30 9425 H 902.968 -1.04548 5.39768 0
M  V30 9426 H 904.193 -1.36461 6.65248 0
M  V30 9427 H 902.139 -3.36328 5.63222 0
M  V30 9428 H 902.056 -2.50206 7.13395 0
M  V30 9429 H 903.324 -3.66386 6.88027 0
M  V30 9430 N 907.553 -1.57587 0.0200696 0
M  V30 9431 C 908.799 -1.91708 -0.661503 0
M  V30 9432 C 909.132 -0.895968 -1.72296 0
M  V30 9433 O 908.407 0.082577 -1.94325 0
M  V30 9434 C 908.69 -3.36344 -1.28627 0
M  V30 9435 C 908.543 -4.49186 -0.234982 0
M  V30 9436 C 909.862 -3.80771 -2.20685 0
M  V30 9437 H 906.981 -0.69717 -0.239005 0
M  V30 9438 H 909.623 -1.8985 0.0754764 0
M  V30 9439 H 907.773 -3.38058 -1.91439 0
M  V30 9440 H 909.445 -4.59606 0.395011 0
M  V30 9441 H 907.688 -4.31557 0.440565 0
M  V30 9442 H 908.359 -5.47395 -0.711558 0
M  V30 9443 H 910.835 -3.80735 -1.67868 0
M  V30 9444 H 909.711 -4.82685 -2.61356 0
M  V30 9445 H 909.972 -3.15764 -3.09428 0
M  V30 9446 N 909.032 0.252966 -1.55557 0
M  V30 9447 C 910.278 0.983306 -1.77367 0
M  V30 9448 C 910.611 1.85203 -0.584258 0
M  V30 9449 O 909.886 1.89963 0.417644 0
M  V30 9450 C 910.169 1.84896 -3.09007 0
M  V30 9451 C 910.022 1.00883 -4.38341 0
M  V30 9452 C 911.341 2.83254 -3.36831 0
M  V30 9453 H 908.46 0.356056 -0.645286 0
M  V30 9454 H 911.102 0.254232 -1.88291 0
M  V30 9455 H 909.252 2.47058 -2.99825 0
M  V30 9456 H 910.924 0.40638 -4.59507 0
M  V30 9457 H 909.167 0.31297 -4.3267 0
M  V30 9458 H 909.838 1.64818 -5.2682 0
M  V30 9459 H 912.314 2.31228 -3.45937 0
M  V30 9460 H 911.19 3.40949 -4.30169 0
M  V30 9461 H 911.451 3.59407 -2.57447 0
M  V30 9462 N 910.51 1.48831 0.518367 0
M  V30 9463 C 911.921 1.50842 1.10016 0
M  V30 9464 C 912.272 0.284744 1.94123 0
M  V30 9465 O 911.397 -0.607088 2.0771 0
M  V30 9466 C 911.992 2.73329 2.00191 0
M  V30 9467 C 910.551 2.78175 2.53566 0
M  V30 9468 C 909.698 2.4452 1.30786 0
M  V30 9469 H 912.649 1.55779 0.303073 0
M  V30 9470 H 912.67 2.52506 2.84642 0
M  V30 9471 H 912.182 3.62374 1.3895 0
M  V30 9472 H 910.283 1.93368 3.18496 0
M  V30 9473 H 910.396 3.79905 2.91906 0
M  V30 9474 H 908.76 1.95924 1.62744 0
M  V30 9475 H 909.543 3.35819 0.712797 0
M  V30 9476 N 911.988 -0.768124 1.37614 0
M  V30 9477 C 912.918 -1.89537 1.36374 0
M  V30 9478 C 913.899 -1.68513 0.231803 0
M  V30 9479 O 915.084 -1.89318 0.432705 0
M  V30 9480 C 912.214 -3.26871 1.17358 0
M  V30 9481 C 911.168 -3.62466 2.27602 0
M  V30 9482 C 910.494 -4.9838 1.93705 0
M  V30 9483 C 911.794 -3.68841 3.69802 0
M  V30 9484 H 913.488 -1.90832 2.30702 0
M  V30 9485 H 911.034 -0.91672 1.11051 0
M  V30 9486 H 912.987 -4.05371 1.15119 0
M  V30 9487 H 911.711 -3.26018 0.194865 0
M  V30 9488 H 910.37 -2.86276 2.29002 0
M  V30 9489 H 910.018 -4.94071 0.943539 0
M  V30 9490 H 909.718 -5.23165 2.6753 0
M  V30 9491 H 911.242 -5.79276 1.93059 0
M  V30 9492 H 912.656 -4.37485 3.70513 0
M  V30 9493 H 911.053 -4.05126 4.42711 0
M  V30 9494 H 912.123 -2.69415 4.03167 0
M  V30 9495 N 913.466 -1.22244 -0.994698 0
M  V30 9496 C 914.743 -0.954459 -1.70732 0
M  V30 9497 C 915.123 0.530945 -2.04314 0
M  V30 9498 O 914.471 1.49851 -1.72502 0
M  V30 9499 C 914.681 -1.85016 -2.95922 0
M  V30 9500 C 916.029 -2.10517 -3.68738 0
M  V30 9501 O 917.053 -1.82449 -3.05926 0
M  V30 9502 O 915.912 -2.58044 -4.81742 0
M  V30 9503 H 913.006 -0.35879 -0.745116 0
M  V30 9504 H 915.552 -1.33221 -1.0512 0
M  V30 9505 H 914.324 -2.85498 -2.67594 0
M  V30 9506 H 913.947 -1.47388 -3.69273 0
M  V30 9507 N 914.944 1.19125 -1.03184 0
M  V30 9508 C 916.191 1.88883 -0.730029 0
M  V30 9509 C 916.519 1.79807 0.741602 0
M  V30 9510 O 915.774 1.18686 1.55603 0
M  V30 9511 C 916.073 3.39052 -1.13041 0
M  V30 9512 C 915.739 3.68332 -2.60082 0
M  V30 9513 C 914.401 3.76033 -3.00254 0
M  V30 9514 C 916.753 3.81423 -3.55199 0
M  V30 9515 C 914.081 3.94296 -4.34451 0
M  V30 9516 C 916.433 4.012 -4.89103 0
M  V30 9517 C 915.097 4.07134 -5.28959 0
M  V30 9518 H 914.367 0.691172 -0.267137 0
M  V30 9519 H 917.014 1.41053 -1.29523 0
M  V30 9520 H 915.319 3.88801 -0.48386 0
M  V30 9521 H 917.016 3.91351 -0.874368 0
M  V30 9522 H 913.606 3.62948 -2.27961 0
M  V30 9523 H 917.79 3.74814 -3.25313 0
M  V30 9524 H 913.046 3.97131 -4.64863 0
M  V30 9525 H 917.22 4.10271 -5.62717 0
M  V30 9526 H 914.847 4.21038 -6.32954 0
M  V30 9527 N 916.422 0.810101 1.35185 0
M  V30 9528 C 917.647 0.40364 2.03434 0
M  V30 9529 C 918.072 -0.97857 1.60641 0
M  V30 9530 O 917.43 -1.63435 0.784779 0
M  V30 9531 C 917.478 0.499154 3.57129 0
M  V30 9532 O 916.582 -0.486039 4.09526 0
M  V30 9533 H 915.923 0.168049 0.642383 0
M  V30 9534 H 918.453 1.09696 1.72708 0
M  V30 9535 H 918.463 0.370236 4.06317 0
M  V30 9536 H 917.138 1.50733 3.87624 0
M  V30 9537 H 915.715 -0.31707 3.7155 0
M  V30 9538 N 917.9 -1.47166 0.563914 0
M  V30 9539 C 918.833 -2.27058 -0.227989 0
M  V30 9540 C 919.811 -1.34468 -0.914179 0
M  V30 9541 O 920.995 -1.63857 -0.931829 0
M  V30 9542 C 918.122 -3.11689 -1.32543 0
M  V30 9543 C 917.168 -4.19906 -0.747084 0
M  V30 9544 S 918.001 -5.33916 0.41153 0
M  V30 9545 C 919.157 -6.22112 -0.687566 0
M  V30 9546 H 919.39 -2.93876 0.449939 0
M  V30 9547 H 916.923 -1.50372 0.350382 0
M  V30 9548 H 918.881 -3.61017 -1.95389 0
M  V30 9549 H 917.542 -2.44221 -1.97522 0
M  V30 9550 H 916.735 -4.78876 -1.57141 0
M  V30 9551 H 916.337 -3.73493 -0.194671 0
M  V30 9552 H 918.629 -6.58867 -1.578 0
M  V30 9553 H 919.572 -7.07971 -0.135058 0
M  V30 9554 H 919.98 -5.55871 -0.983255 0
M  V30 9555 N 919.378 -0.300708 -1.54705 0
M  V30 9556 C 920.603 0.314073 -2.05008 0
M  V30 9557 C 921.028 1.46759 -1.17657 0
M  V30 9558 O 920.386 1.80398 -0.180598 0
M  V30 9559 C 920.434 0.748243 -3.52752 0
M  V30 9560 O 919.538 1.85305 -3.68424 0
M  V30 9561 H 918.879 0.0610139 -0.661191 0
M  V30 9562 H 921.409 -0.442467 -1.99758 0
M  V30 9563 H 921.419 1.03713 -3.94598 0
M  V30 9564 H 920.094 -0.095573 -4.1579 0
M  V30 9565 H 918.671 1.56473 -3.38483 0
M  V30 9566 N 920.856 1.57574 -0.0284266 0
M  V30 9567 C 922.081 1.96479 0.664137 0
M  V30 9568 C 922.506 0.904826 1.64908 0
M  V30 9569 O 921.864 -0.134339 1.80802 0
M  V30 9570 C 921.912 3.34479 1.34745 0
M  V30 9571 O 921.016 3.30794 2.46271 0
M  V30 9572 H 920.357 0.640654 0.174524 0
M  V30 9573 H 922.887 2.04402 -0.0900729 0
M  V30 9574 H 922.897 3.70694 1.7044 0
M  V30 9575 H 921.572 4.1117 0.625468 0
M  V30 9576 H 920.149 3.06294 2.12693 0
M  V30 9577 N 922.334 -0.244713 1.55689 0
M  V30 9578 C 923.264 -1.30667 1.93516 0
M  V30 9579 C 924.245 -1.50094 0.800371 0
M  V30 9580 O 925.43 -1.62665 1.06083 0
M  V30 9581 C 922.56 -2.66101 2.23176 0
M  V30 9582 C 921.514 -2.61366 3.38927 0
M  V30 9583 C 920.84 -4.00616 3.54134 0
M  V30 9584 C 922.14 -2.18161 4.74555 0
M  V30 9585 H 923.834 -0.992546 2.82469 0
M  V30 9586 H 921.38 -0.476018 1.35905 0
M  V30 9587 H 923.333 -3.4053 2.48228 0
M  V30 9588 H 922.057 -2.99154 1.31051 0
M  V30 9589 H 920.716 -1.89395 3.13887 0
M  V30 9590 H 920.364 -4.30938 2.59426 0
M  V30 9591 H 920.064 -3.98335 4.31975 0
M  V30 9592 H 921.588 -4.76741 3.8151 0
M  V30 9593 H 923.002 -2.82323 4.98965 0
M  V30 9594 H 921.399 -2.26988 5.55515 0
M  V30 9595 H 922.469 -1.13333 4.7147 0
M  V30 9596 N 923.813 -1.49104 -0.510467 0
M  V30 9597 C 924.776 -1.64569 -1.59529 0
M  V30 9598 C 925.776 -0.517937 -1.5223 0
M  V30 9599 O 926.966 -0.784183 -1.55551 0
M  V30 9600 C 924.098 -1.6342 -2.99177 0
M  V30 9601 H 925.291 -2.61318 -1.4715 0
M  V30 9602 H 922.844 -1.37993 -0.734001 0
M  V30 9603 H 923.579 -0.68221 -3.17043 0
M  V30 9604 H 923.364 -2.45312 -3.05883 0
M  V30 9605 H 924.854 -1.77474 -3.78011 0
M  V30 9606 N 925.291 0.760815 -1.38019 0
M  V30 9607 C 926.238 1.8744 -1.34666 0
M  V30 9608 C 927.208 1.64762 -0.210386 0
M  V30 9609 O 928.393 1.86528 -0.401479 0
M  V30 9610 C 925.533 3.24648 -1.17037 0
M  V30 9611 C 924.646 3.59206 -2.3999 0
M  V30 9612 C 923.781 4.8568 -2.15148 0
M  V30 9613 C 922.82 5.13002 -3.3391 0
M  V30 9614 N 921.957 6.30668 -3.08549 0
M  V30 9615 H 926.797 1.8964 -2.29871 0
M  V30 9616 H 924.334 0.927004 -1.14215 0
M  V30 9617 H 926.292 4.03814 -1.04834 0
M  V30 9618 H 924.922 3.21793 -0.254758 0
M  V30 9619 H 923.974 2.74939 -2.62893 0
M  V30 9620 H 925.286 3.75328 -3.28527 0
M  V30 9621 H 924.44 5.72773 -2.00039 0
M  V30 9622 H 923.179 4.71682 -1.23965 0
M  V30 9623 H 922.184 4.2438 -3.49545 0
M  V30 9624 H 923.409 5.28901 -4.25958 0
M  V30 9625 H 921.355 6.18008 -2.20006 0
M  V30 9626 H 921.272 6.47257 -3.90633 0
M  V30 9627 H 922.54 7.20669 -2.9708 0
M  V30 9628 N 926.769 1.22769 0.988202 0
M  V30 9629 C 928.185 0.988665 1.2529 0
M  V30 9630 C 928.385 -0.314938 1.99024 0
M  V30 9631 O 927.441 -1.03637 2.30251 0
M  V30 9632 C 928.754 2.19046 2.06009 0
M  V30 9633 C 930.302 2.23452 2.19176 0
M  V30 9634 C 930.777 3.43196 3.03283 0
M  V30 9635 N 932.268 3.43387 3.10869 0
M  V30 9636 C 933.003 4.32693 3.7625 0
M  V30 9637 N 932.499 5.32224 4.43519 0
M  V30 9638 N 934.292 4.20457 3.73058 0
M  V30 9639 H 926.443 2.06575 0.494014 0
M  V30 9640 H 928.706 0.905452 0.28082 0
M  V30 9641 H 928.412 3.13607 1.59197 0
M  V30 9642 H 928.286 2.19492 3.06763 0
M  V30 9643 H 930.673 1.29436 2.65199 0
M  V30 9644 H 930.754 2.27042 1.17836 0
M  V30 9645 H 930.398 4.37515 2.57959 0
M  V30 9646 H 930.328 3.36847 4.04774 0
M  V30 9647 H 932.819 2.71368 2.62998 0
M  V30 9648 H 933.132 5.9664 4.91163 0
M  V30 9649 H 931.477 5.36133 4.42252 0
M  V30 9650 H 934.668 3.41949 3.19669 0
M  V30 9651 H 934.841 4.90261 4.23731 0
M  V30 9652 N 928.247 -1.18576 1.03814 0
M  V30 9653 C 929.496 -1.87822 0.735235 0
M  V30 9654 C 929.809 -1.81069 -0.739819 0
M  V30 9655 O 931.015 -2.45654 -1.15614 0
M  V30 9656 C 929.471 -3.36941 1.26486 0
M  V30 9657 C 929.079 -3.5223 2.76836 0
M  V30 9658 C 930.823 -4.11604 1.03836 0
M  V30 9659 C 928.73 -4.95294 3.23169 0
M  V30 9660 H 927.66 -0.703487 0.271333 0
M  V30 9661 H 930.311 -1.34 1.25365 0
M  V30 9662 H 928.693 -3.90217 0.674318 0
M  V30 9663 H 929.867 -3.09239 3.41625 0
M  V30 9664 H 928.182 -2.90969 2.97869 0
M  V30 9665 H 930.779 -5.17123 1.3597 0
M  V30 9666 H 931.122 -4.16293 -0.0244945 0
M  V30 9667 H 931.655 -3.64494 1.59338 0
M  V30 9668 H 928.394 -4.95772 4.28824 0
M  V30 9669 H 927.914 -5.3901 2.63113 0
M  V30 9670 H 929.593 -5.63996 3.17045 0
M  V30 9671 N 929.725 -0.817259 -1.34754 0
M  V30 9672 C 930.672 -0.233108 -2.2962 0
M  V30 9673 C 931.642 0.638902 -1.53321 0
M  V30 9674 O 932.827 0.581739 -1.81715 0
M  V30 9675 C 929.967 0.603659 -3.39779 0
M  V30 9676 C 929.08 -0.289967 -4.31026 0
M  V30 9677 C 928.215 0.555825 -5.28284 0
M  V30 9678 C 927.254 -0.337539 -6.11169 0
M  V30 9679 N 926.391 0.468847 -7.00533 0
M  V30 9680 H 931.231 -1.04747 -2.78984 0
M  V30 9681 H 928.768 -0.528056 -1.37295 0
M  V30 9682 H 930.726 1.10407 -4.02326 0
M  V30 9683 H 929.356 1.38319 -2.91664 0
M  V30 9684 H 928.408 -0.908552 -3.69391 0
M  V30 9685 H 929.72 -0.977136 -4.89135 0
M  V30 9686 H 928.874 1.12094 -5.96255 0
M  V30 9687 H 927.613 1.27652 -4.70698 0
M  V30 9688 H 926.618 -0.914839 -5.42135 0
M  V30 9689 H 927.843 -1.05626 -6.70835 0
M  V30 9690 H 925.789 1.17332 -6.45422 0
M  V30 9691 H 925.706 -0.160052 -7.55831 0
M  V30 9692 H 926.974 1.01689 -7.72839 0
M  V30 9693 N 931.203 1.46865 -0.571711 0
M  V30 9694 C 932.135 2.28277 0.205479 0
M  V30 9695 C 933.148 1.37866 0.865835 0
M  V30 9696 O 934.337 1.62564 0.737247 0
M  V30 9697 C 931.437 3.12572 1.30965 0
M  V30 9698 C 930.61 4.31038 0.743328 0
M  V30 9699 C 929.669 4.96815 1.73382 0
M  V30 9700 O 928.695 5.54755 1.2742 0
M  V30 9701 N 929.897 4.92825 3.06764 0
M  V30 9702 H 932.662 2.95618 -0.49294 0
M  V30 9703 H 930.223 1.56655 -0.408744 0
M  V30 9704 H 932.215 3.53442 1.97131 0
M  V30 9705 H 930.785 2.47378 1.91109 0
M  V30 9706 H 930.005 3.94084 -0.0955004 0
M  V30 9707 H 931.293 5.07632 0.344556 0
M  V30 9708 H 930.691 4.46978 3.46738 0
M  V30 9709 H 929.248 5.3767 3.68449 0
M  V30 9710 N 932.681 0.308908 1.54543 0
M  V30 9711 C 933.611 -0.556657 2.26768 0
M  V30 9712 C 934.592 -1.13145 1.27013 0
M  V30 9713 O 935.777 -1.15931 1.558 0
M  V30 9714 C 932.907 -1.72481 3.01443 0
M  V30 9715 C 931.861 -1.28001 4.08411 0
M  V30 9716 C 931.187 -2.53395 4.70845 0
M  V30 9717 C 932.487 -0.405497 5.20724 0
M  V30 9718 H 934.181 0.0457618 2.99365 0
M  V30 9719 H 931.727 0.0234495 1.43981 0
M  V30 9720 H 933.68 -2.3365 3.50693 0
M  V30 9721 H 932.404 -2.35359 2.26437 0
M  V30 9722 H 931.063 -0.69133 3.60022 0
M  V30 9723 H 930.711 -3.14604 3.92471 0
M  V30 9724 H 930.411 -2.2433 5.43093 0
M  V30 9725 H 931.935 -3.15352 5.22863 0
M  V30 9726 H 933.349 -0.923076 5.6582 0
M  V30 9727 H 931.746 -0.208282 5.99738 0
M  V30 9728 H 932.816 0.567412 4.81569 0
M  V30 9729 N 934.159 -1.57557 0.0367827 0
M  V30 9730 C 935.109 -2.07182 -0.95183 0
M  V30 9731 C 936.093 -0.973921 -1.28076 0
M  V30 9732 O 937.285 -1.23741 -1.26559 0
M  V30 9733 C 934.414 -2.60869 -2.23164 0
M  V30 9734 C 933.5 -3.77602 -1.93074 0
M  V30 9735 N 933.891 -4.87923 -1.33283 0
M  V30 9736 C 932.189 -3.86234 -2.23023 0
M  V30 9737 C 932.89 -5.69083 -1.20498 0
M  V30 9738 N 931.866 -5.16233 -1.70306 0
M  V30 9739 H 935.668 -2.89876 -0.484647 0
M  V30 9740 H 933.182 -1.61528 -0.16804 0
M  V30 9741 H 935.179 -2.94716 -2.9487 0
M  V30 9742 H 933.839 -1.79607 -2.70502 0
M  V30 9743 H 934.85 -5.08018 -1.00686 0
M  V30 9744 H 931.527 -3.15891 -2.72981 0
M  V30 9745 H 932.917 -6.6779 -0.741999 0
M  V30 9746 N 935.637 0.236453 -1.55816 0
M  V30 9747 C 936.587 1.29603 -1.87582 0
M  V30 9748 C 937.571 1.42999 -0.737566 0
M  V30 9749 O 938.763 1.46065 -0.999701 0
M  V30 9750 C 935.892 2.64945 -2.1831 0
M  V30 9751 C 934.978 2.55511 -3.38489 0
M  V30 9752 N 935.369 2.15716 -4.57494 0
M  V30 9753 C 933.667 2.86502 -3.41808 0
M  V30 9754 C 934.368 2.17169 -5.39641 0
M  V30 9755 N 933.344 2.5708 -4.78969 0
M  V30 9756 H 937.146 0.979016 -2.77115 0
M  V30 9757 H 934.66 0.445058 -1.56183 0
M  V30 9758 H 936.657 3.41426 -2.39236 0
M  V30 9759 H 935.317 2.97504 -1.30082 0
M  V30 9760 H 936.328 1.87089 -4.82927 0
M  V30 9761 H 933.005 3.23533 -2.6388 0
M  V30 9762 H 934.395 1.88653 -6.44872 0
M  V30 9763 N 937.115 1.49373 0.502552 0
M  V30 9764 C 938.025 1.68659 1.63068 0
M  V30 9765 C 939.041 0.569182 1.64427 0
M  V30 9766 O 940.217 0.843695 1.82876 0
M  V30 9767 C 937.282 1.74745 2.99441 0
M  V30 9768 C 936.343 2.98311 3.08721 0
M  V30 9769 C 935.576 3.04097 4.38589 0
M  V30 9770 O 935.799 2.17519 5.27297 0
M  V30 9771 O 934.733 3.96544 4.52809 0
M  V30 9772 H 938.559 2.64226 1.49727 0
M  V30 9773 H 936.144 1.33096 0.67867 0
M  V30 9774 H 938.026 1.8111 3.80496 0
M  V30 9775 H 936.701 0.823565 3.13048 0
M  V30 9776 H 935.608 2.97465 2.2686 0
M  V30 9777 H 936.941 3.90174 3.00041 0
M  V30 9778 N 938.594 -0.753485 1.38421 0
M  V30 9779 C 939.557 -1.84888 1.35459 0
M  V30 9780 C 940.557 -1.58764 0.255083 0
M  V30 9781 O 941.747 -1.66507 0.511978 0
M  V30 9782 C 938.879 -3.22361 1.10888 0
M  V30 9783 H 940.072 -1.88922 2.32913 0
M  V30 9784 H 937.625 -0.955199 1.23716 0
M  V30 9785 H 938.36 -3.23996 0.1404 0
M  V30 9786 H 938.145 -3.42717 1.90492 0
M  V30 9787 H 939.635 -4.02437 1.1151 0
M  V30 9788 N 940.072 -1.23292 -0.981677 0
M  V30 9789 C 941.004 -0.970782 -2.07626 0
M  V30 9790 C 942.017 0.0547506 -1.62708 0
M  V30 9791 O 943.206 -0.180623 -1.77584 0
M  V30 9792 C 940.306 -0.44055 -3.36024 0
M  V30 9793 C 939.479 -1.52595 -4.09919 0
M  V30 9794 C 938.538 -1.00082 -5.16595 0
M  V30 9795 O 937.564 -1.68951 -5.43548 0
M  V30 9796 N 938.766 0.172017 -5.80245 0
M  V30 9797 H 941.531 -1.91316 -2.30691 0
M  V30 9798 H 939.092 -1.14133 -1.14828 0
M  V30 9799 H 941.084 -0.0743111 -4.04632 0
M  V30 9800 H 939.654 0.407211 -3.09936 0
M  V30 9801 H 938.874 -2.06501 -3.35784 0
M  V30 9802 H 940.162 -2.2559 -4.56055 0
M  V30 9803 H 939.56 0.748129 -5.60731 0
M  V30 9804 H 938.117 0.479532 -6.50034 0
M  V30 9805 N 941.55 1.18024 -1.04442 0
M  V30 9806 C 942.482 2.21294 -0.596799 0
M  V30 9807 C 943.495 1.59305 0.33552 0
M  V30 9808 O 944.684 1.7803 0.129443 0
M  V30 9809 C 941.784 3.38578 0.147648 0
M  V30 9810 C 940.957 4.30143 -0.793484 0
M  V30 9811 C 940.016 5.2612 -0.0916561 0
M  V30 9812 O 939.042 5.64586 -0.72331 0
M  V30 9813 N 940.244 5.68512 1.17364 0
M  V30 9814 H 943.009 2.6032 -1.48504 0
M  V30 9815 H 940.57 1.32847 -0.925374 0
M  V30 9816 H 942.562 3.99812 0.627098 0
M  V30 9817 H 941.132 2.98212 0.937466 0
M  V30 9818 H 940.352 3.66456 -1.45272 0
M  V30 9819 H 941.64 4.88216 -1.43258 0
M  V30 9820 H 941.038 5.39322 1.70729 0
M  V30 9821 H 939.595 6.31925 1.5973 0
M  V30 9822 N 943.028 0.824394 1.34319 0
M  V30 9823 C 944.253 0.425194 2.02995 0
M  V30 9824 C 944.678 -0.961476 1.6167 0
M  V30 9825 O 944.036 -1.62593 0.80207 0
M  V30 9826 C 944.084 0.537004 3.56579 0
M  V30 9827 O 943.188 -0.442576 4.10018 0
M  V30 9828 H 942.529 0.174853 0.640564 0
M  V30 9829 H 945.059 1.11522 1.71534 0
M  V30 9830 H 945.069 0.413311 4.05901 0
M  V30 9831 H 943.744 1.54836 3.86004 0
M  V30 9832 H 942.321 -0.277644 3.71865 0
M  V30 9833 N 944.506 -1.46559 0.579492 0
M  V30 9834 C 945.416 -2.34066 -0.15816 0
M  V30 9835 C 946.432 -1.49556 -0.88932 0
M  V30 9836 O 947.608 -1.82434 -0.853226 0
M  V30 9837 C 944.673 -3.26683 -1.161 0
M  V30 9838 C 943.734 -4.27092 -0.434855 0
M  V30 9839 C 942.967 -5.15283 -1.38992 0
M  V30 9840 O 943.19 -5.06345 -2.62623 0
M  V30 9841 O 942.124 -5.95099 -0.902253 0
M  V30 9842 H 945.95 -2.98488 0.560234 0
M  V30 9843 H 943.535 -1.45482 0.339918 0
M  V30 9844 H 945.417 -3.8383 -1.73932 0
M  V30 9845 H 944.092 -2.64862 -1.86091 0
M  V30 9846 H 942.999 -3.73641 0.185224 0
M  V30 9847 H 944.332 -4.9169 0.224031 0
M  V30 9848 N 945.984 -0.3171 -1.54377 0
M  V30 9849 C 947.232 0.286842 -2.00054 0
M  V30 9850 C 947.553 1.53161 -1.20692 0
M  V30 9851 O 946.823 1.93479 -0.307045 0
M  V30 9852 H 945.403 0.108979 -0.739008 0
M  V30 9853 H 948.065 -0.432152 -1.90049 0
M  V30 9854 H 947.161 0.547729 -3.07256 0
M  V30 9855 N 947.462 1.57535 -0.0451378 0
M  V30 9856 C 948.372 2.14653 0.946646 0
M  V30 9857 C 949.388 1.10279 1.3459 0
M  V30 9858 O 950.564 1.42417 1.42405 0
M  V30 9859 C 947.629 2.67533 2.20515 0
M  V30 9860 C 946.69 3.86682 1.86481 0
M  V30 9861 C 945.923 4.37031 3.06332 0
M  V30 9862 O 946.146 3.86481 4.1951 0
M  V30 9863 O 945.08 5.28691 2.87697 0
M  V30 9864 H 948.906 2.99706 0.49091 0
M  V30 9865 H 946.491 1.48355 0.17641 0
M  V30 9866 H 948.373 3.01542 2.94365 0
M  V30 9867 H 947.048 1.85554 2.65238 0
M  V30 9868 H 945.955 3.57573 1.09966 0
M  V30 9869 H 947.288 4.69873 1.46562 0
M  V30 9870 N 948.94 -0.228186 1.55939 0
M  V30 9871 C 949.872 -1.30605 1.88348 0
M  V30 9872 C 950.885 -1.43375 0.771198 0
M  V30 9873 O 952.074 -1.44391 1.04945 0
M  V30 9874 C 949.174 -2.68248 2.07115 0
M  V30 9875 C 948.347 -2.77509 3.38094 0
M  V30 9876 C 947.406 -3.96121 3.46373 0
M  V30 9877 O 946.432 -3.8477 4.19453 0
M  V30 9878 N 947.634 -5.10132 2.77031 0
M  V30 9879 H 950.399 -1.03132 2.81396 0
M  V30 9880 H 947.96 -0.418245 1.56404 0
M  V30 9881 H 949.952 -3.45966 2.09976 0
M  V30 9882 H 948.522 -2.88348 1.20723 0
M  V30 9883 H 947.742 -1.8632 3.47388 0
M  V30 9884 H 949.03 -2.80662 4.2439 0
M  V30 9885 H 948.428 -5.22249 2.17424 0
M  V30 9886 H 946.985 -5.85916 2.85561 0
M  V30 9887 N 950.418 -1.49637 -0.494624 0
M  V30 9888 C 951.366 -1.6727 -1.61627 0
M  V30 9889 C 952.36 -0.538587 -1.6061 0
M  V30 9890 O 953.566 -0.718411 -1.65042 0
M  V30 9891 H 949.941 -0.527557 -0.535899 0
M  V30 9892 H 951.912 -2.61405 -1.43909 0
M  V30 9893 C 950.661 -1.7624 -2.99725 0
M  V30 9894 H 949.984 -2.62886 -3.01216 0
M  V30 9895 H 951.424 -1.92611 -3.77726 0
M  V30 9896 C 949.883 -0.508632 -3.33038 0
M  V30 9897 O 950.413 0.362828 -4.00058 0
M  V30 9898 N 948.619 -0.369667 -2.88239 0
M  V30 9899 H 948.166 -1.07984 -2.33875 0
M  V30 9900 H 948.124 0.468112 -3.10896 0
M  V30 9901 N 951.896 0.746133 -1.38819 0
M  V30 9902 C 953.126 1.53316 -1.38484 0
M  V30 9903 C 953.534 1.89183 0.0253332 0
M  V30 9904 O 952.877 1.5382 1.00424 0
M  V30 9905 C 952.939 2.85623 -2.18311 0
M  V30 9906 C 952.603 2.72253 -3.67052 0
M  V30 9907 C 953.6 2.41547 -4.60381 0
M  V30 9908 C 951.285 2.89472 -4.10501 0
M  V30 9909 C 953.279 2.28226 -5.9514 0
M  V30 9910 C 950.966 2.7577 -5.45338 0
M  V30 9911 C 951.964 2.45191 -6.37472 0
M  V30 9912 O 951.652 2.31561 -7.69828 0
M  V30 9913 H 951.384 0.480763 -0.475229 0
M  V30 9914 H 953.938 0.93057 -1.83111 0
M  V30 9915 H 952.168 3.481 -1.68414 0
M  V30 9916 H 953.857 3.47178 -2.10291 0
M  V30 9917 H 954.623 2.27905 -4.28117 0
M  V30 9918 H 950.502 3.12269 -3.3913 0
M  V30 9919 H 954.046 2.04279 -6.6702 0
M  V30 9920 H 949.943 2.88987 -5.77197 0
M  V30 9921 H 950.711 2.46716 -7.80432 0
M  V30 9922 N 953.375 1.23811 0.975125 0
M  V30 9923 C 954.791 1.0019 1.24234 0
M  V30 9924 C 954.991 -0.293811 1.99346 0
M  V30 9925 O 954.047 -1.01189 2.31337 0
M  V30 9926 C 955.36 2.21218 2.03674 0
M  V30 9927 C 956.908 2.25764 2.16793 0
M  V30 9928 C 957.383 3.46394 2.99626 0
M  V30 9929 N 958.874 3.46665 3.07209 0
M  V30 9930 C 959.609 4.3666 3.71639 0
M  V30 9931 N 959.105 5.36899 4.37849 0
M  V30 9932 N 960.898 4.2439 3.68578 0
M  V30 9933 H 953.049 2.07087 0.472076 0
M  V30 9934 H 955.312 0.90838 0.271201 0
M  V30 9935 H 955.018 3.15277 1.55862 0
M  V30 9936 H 954.892 2.22733 3.04417 0
M  V30 9937 H 957.279 1.32242 2.63811 0
M  V30 9938 H 957.36 2.28279 1.15422 0
M  V30 9939 H 957.004 4.40227 2.53304 0
M  V30 9940 H 956.934 3.41121 4.01178 0
M  V30 9941 H 959.425 2.74142 2.60105 0
M  V30 9942 H 959.738 6.01816 4.84807 0
M  V30 9943 H 958.083 5.40793 4.36541 0
M  V30 9944 H 961.274 3.4532 3.16025 0
M  V30 9945 H 961.447 4.94727 4.18508 0
M  V30 9946 N 954.853 -1.17469 1.05066 0
M  V30 9947 C 955.8 -2.21443 0.650512 0
M  V30 9948 C 956.77 -1.62441 -0.346702 0
M  V30 9949 O 957.955 -1.89305 -0.238404 0
M  V30 9950 C 955.095 -3.45087 0.0301014 0
M  V30 9951 C 954.208 -4.18385 1.07599 0
M  V30 9952 C 953.343 -5.29513 0.423038 0
M  V30 9953 C 952.382 -5.94596 1.45333 0
M  V30 9954 N 951.519 -6.97241 0.824623 0
M  V30 9955 H 956.359 -2.55025 1.54163 0
M  V30 9956 H 953.896 -1.25274 0.771032 0
M  V30 9957 H 955.854 -4.15754 -0.347032 0
M  V30 9958 H 954.484 -3.12093 -0.824481 0
M  V30 9959 H 953.536 -3.46446 1.57097 0
M  V30 9960 H 954.848 -4.62899 1.85813 0
M  V30 9961 H 954.002 -6.067 -0.00774975 0
M  V30 9962 H 952.741 -4.86129 -0.391092 0
M  V30 9963 H 951.746 -5.16142 1.89415 0
M  V30 9964 H 952.971 -6.40061 2.26934 0
M  V30 9965 H 950.917 -6.55993 0.0309804 0
M  V30 9966 H 950.834 -7.40059 1.54432 0
M  V30 9967 H 952.102 -7.78375 0.418567 0
M  V30 9968 N 956.331 -0.831506 -1.3388 0
M  V30 9969 C 957.578 -0.423674 -1.98018 0
M  V30 9970 C 957.906 1.01533 -1.65895 0
M  V30 9971 O 957.161 1.72342 -0.927183 0
M  V30 9972 C 957.46 -0.582733 -3.52617 0
M  V30 9973 C 957.126 -1.98874 -4.04673 0
M  V30 9974 C 955.788 -2.37334 -4.186 0
M  V30 9975 C 958.14 -2.90745 -4.3257 0
M  V30 9976 C 955.468 -3.66984 -4.57755 0
M  V30 9977 C 957.82 -4.19868 -4.73174 0
M  V30 9978 C 956.484 -4.58294 -4.85307 0
M  V30 9979 H 955.754 -0.155033 -0.7246 0
M  V30 9980 H 958.401 -1.05711 -1.59679 0
M  V30 9981 H 956.706 0.134052 -3.91571 0
M  V30 9982 H 958.403 -0.247576 -4.00235 0
M  V30 9983 H 954.993 -1.68001 -3.94301 0
M  V30 9984 H 959.177 -2.62272 -4.2134 0
M  V30 9985 H 954.433 -3.9657 -4.65341 0
M  V30 9986 H 958.607 -4.91138 -4.93717 0
M  V30 9987 H 956.234 -5.58805 -5.15404 0
M  V30 9988 N 957.809 1.4625 -0.587256 0
M  V30 9989 C 959.225 1.57641 -0.249284 0
M  V30 9990 C 959.425 1.58169 1.24839 0
M  V30 9991 O 958.481 1.50109 2.03036 0
M  V30 9992 C 959.794 2.86837 -0.902509 0
M  V30 9993 C 961.342 3.00476 -0.876524 0
M  V30 9994 C 961.817 4.32414 -1.50938 0
M  V30 9995 N 963.308 4.39124 -1.47392 0
M  V30 9996 C 964.043 5.39838 -1.93293 0
M  V30 9997 N 963.539 6.47202 -2.47188 0
M  V30 9998 N 965.332 5.31068 -1.84183 0
M  V30 9999 H 957.483 1.44151 -1.55994 0
M  V30 10000 H 959.746 0.687905 -0.652297 0
M  V30 10001 H 959.452 2.92274 -1.95624 0
M  V30 10002 H 959.326 3.74927 -0.413466 0
M  V30 10003 H 961.713 2.94618 0.168601 0
M  V30 10004 H 961.794 2.1385 -1.40363 0
M  V30 10005 H 961.438 4.3903 -2.55372 0
M  V30 10006 H 961.368 5.17823 -0.957455 0
M  V30 10007 H 963.859 3.62138 -1.08002 0
M  V30 10008 H 964.172 7.20269 -2.80058 0
M  V30 10009 H 962.517 6.48009 -2.51216 0
M  V30 10010 H 965.708 4.46095 -1.41833 0
M  V30 10011 H 965.881 6.09414 -2.2027 0
M  V30 10012 N 959.287 0.325282 1.54207 0
M  V30 10013 C 960.25 -0.527228 2.23054 0
M  V30 10014 C 961.25 -1.04217 1.22456 0
M  V30 10015 O 962.44 -0.934325 1.47024 0
M  V30 10016 C 959.572 -1.7325 2.93594 0
M  V30 10017 H 960.765 0.0746423 2.99807 0
M  V30 10018 H 958.318 0.0763872 1.56113 0
M  V30 10019 H 959.053 -2.37356 2.20981 0
M  V30 10020 H 958.838 -1.37065 3.67363 0
M  V30 10021 H 960.328 -2.3376 3.46043 0
M  V30 10022 N 960.765 -1.57509 0.0534917 0
M  V30 10023 C 961.712 -2.11667 -0.920101 0
M  V30 10024 C 962.682 -1.0246 -1.30733 0
M  V30 10025 O 963.867 -1.30021 -1.39639 0
M  V30 10026 C 961.007 -2.66803 -2.18883 0
M  V30 10027 C 960.12 -3.90104 -1.85588 0
M  V30 10028 C 959.255 -4.33547 -3.06937 0
M  V30 10029 C 958.294 -5.49542 -2.69573 0
M  V30 10030 N 957.431 -5.88029 -3.83623 0
M  V30 10031 H 962.271 -2.94562 -0.451371 0
M  V30 10032 H 959.808 -1.45576 -0.211168 0
M  V30 10033 H 961.766 -2.96871 -2.93127 0
M  V30 10034 H 960.396 -1.86702 -2.63329 0
M  V30 10035 H 959.448 -3.66613 -1.01484 0
M  V30 10036 H 960.76 -4.74404 -1.54087 0
M  V30 10037 H 959.914 -4.6518 -3.89477 0
M  V30 10038 H 958.653 -3.48064 -3.41618 0
M  V30 10039 H 957.658 -5.17579 -1.8545 0
M  V30 10040 H 958.883 -6.36743 -2.36082 0
M  V30 10041 H 956.829 -5.05498 -4.181 0
M  V30 10042 H 956.746 -6.67025 -3.55828 0
M  V30 10043 H 958.014 -6.24277 -4.66796 0
M  V30 10044 N 962.243 0.219913 -1.56058 0
M  V30 10045 C 963.492 0.942119 -1.78345 0
M  V30 10046 C 963.805 1.85435 -0.622344 0
M  V30 10047 O 965.011 2.61533 -0.728886 0
M  V30 10048 C 963.467 1.72544 -3.15843 0
M  V30 10049 C 963.075 0.859263 -4.39682 0
M  V30 10050 C 964.819 2.43876 -3.47455 0
M  V30 10051 C 962.726 1.64003 -5.68205 0
M  V30 10052 H 961.656 0.355514 -0.664925 0
M  V30 10053 H 964.307 0.195963 -1.82451 0
M  V30 10054 H 962.689 2.51456 -3.05918 0
M  V30 10055 H 963.863 0.110562 -4.60667 0
M  V30 10056 H 962.178 0.257985 -4.156 0
M  V30 10057 H 964.775 3.02794 -4.40704 0
M  V30 10058 H 965.118 3.16843 -2.7003 0
M  V30 10059 H 965.651 1.71952 -3.58716 0
M  V30 10060 H 962.39 0.953606 -6.48526 0
M  V30 10061 H 961.91 2.3633 -5.51279 0
M  V30 10062 H 963.589 2.20028 -6.08438 0
M  V30 10063 N 963.721 1.49897 0.486681 0
M  V30 10064 C 964.961 1.61732 1.24988 0
M  V30 10065 C 965.325 0.303724 1.89582 0
M  V30 10066 O 966.526 0.297373 2.6715 0
M  V30 10067 C 964.797 2.75429 2.27757 0
M  V30 10068 S 966.356 3.07304 3.13225 0
M  V30 10069 H 963.174 0.570316 0.424571 0
M  V30 10070 H 965.776 1.87617 0.549549 0
M  V30 10071 H 964.48 3.69376 1.78857 0
M  V30 10072 H 964.011 2.51582 3.0244 0
M  V30 10073 H 966.026 2.49928 4.28661 0
M  V30 10074 N 965.199 -0.738761 1.39212 0
M  V30 10075 C 966.61 -1.31684 1.32348 0
M  V30 10076 C 966.961 -1.96195 -0.0139041 0
M  V30 10077 O 966.086 -1.96056 -0.916025 0
M  V30 10078 C 966.681 -2.39444 2.39691 0
M  V30 10079 C 965.24 -2.92935 2.36359 0
M  V30 10080 C 964.387 -1.66465 2.21776 0
M  V30 10081 H 967.338 -0.536543 1.49355 0
M  V30 10082 H 967.359 -3.19744 2.06262 0
M  V30 10083 H 966.871 -1.92463 3.37016 0
M  V30 10084 H 964.972 -3.44207 1.42662 0
M  V30 10085 H 965.085 -3.46306 3.31073 0
M  V30 10086 H 963.449 -1.90657 1.68884 0
M  V30 10087 H 964.232 -1.21541 3.21065 0
M  V30 10088 N 966.677 -1.24326 -0.968545 0
M  V30 10089 C 967.925 -1.08032 -1.70803 0
M  V30 10090 C 968.246 0.381728 -1.91227 0
M  V30 10091 O 967.516 1.27253 -1.48942 0
M  V30 10092 H 966.096 -0.396777 -0.632912 0
M  V30 10093 H 968.758 -1.56232 -1.16523 0
M  V30 10094 H 967.854 -1.57769 -2.69287 0
M  V30 10095 N 968.156 1.1691 -1.05688 0
M  V30 10096 C 969.066 2.24735 -0.67315 0
M  V30 10097 C 970.082 1.71252 0.308043 0
M  V30 10098 O 971.258 2.00772 0.158889 0
M  V30 10099 C 968.323 3.4665 -0.059026 0
M  V30 10100 C 967.384 4.15198 -1.0913 0
M  V30 10101 C 966.617 5.31292 -0.50639 0
M  V30 10102 O 966.84 5.663 0.682692 0
M  V30 10103 O 965.774 5.88923 -1.2431 0
M  V30 10104 H 969.6 2.59855 -1.57191 0
M  V30 10105 H 967.185 1.24306 -0.828751 0
M  V30 10106 H 969.067 4.20455 0.282018 0
M  V30 10107 H 967.742 3.13316 0.813304 0
M  V30 10108 H 966.649 3.43389 -1.48442 0
M  V30 10109 H 967.982 4.52571 -1.93495 0
M  V30 10110 N 969.634 0.838594 1.33437 0
M  V30 10111 C 970.582 0.260158 2.31141 0
M  V30 10112 C 971.576 -0.607706 1.58124 0
M  V30 10113 O 972.782 -0.497298 1.72994 0
M  V30 10114 H 969.157 0.0654031 0.74915 0
M  V30 10115 H 971.128 1.09874 2.77435 0
M  V30 10116 C 969.877 -0.550234 3.43319 0
M  V30 10117 H 969.2 0.108262 3.99653 0
M  V30 10118 H 970.64 -0.920815 4.1388 0
M  V30 10119 C 969.099 -1.729 2.89149 0
M  V30 10120 O 969.629 -2.82769 2.85315 0
M  V30 10121 N 967.835 -1.5508 2.45761 0
M  V30 10122 H 967.382 -0.657055 2.49079 0
M  V30 10123 H 967.34 -2.34099 2.0987 0
M  V30 10124 N 971.112 -1.45937 0.595003 0
M  V30 10125 C 972.044 -2.28575 -0.169137 0
M  V30 10126 C 973.057 -1.39226 -0.843792 0
M  V30 10127 O 974.246 -1.63716 -0.711291 0
M  V30 10128 C 971.346 -3.14616 -1.25976 0
M  V30 10129 C 970.519 -4.32166 -0.67466 0
M  V30 10130 C 969.578 -4.99511 -1.65456 0
M  V30 10131 O 968.604 -5.56712 -1.18578 0
M  V30 10132 N 969.806 -4.97643 -2.98885 0
M  V30 10133 H 972.571 -2.94797 0.539908 0
M  V30 10134 H 970.132 -1.55985 0.433614 0
M  V30 10135 H 972.124 -3.56534 -1.91483 0
M  V30 10136 H 970.694 -2.50387 -1.8715 0
M  V30 10137 H 969.914 -3.93882 0.158184 0
M  V30 10138 H 971.202 -5.08116 -0.263753 0
M  V30 10139 H 970.6 -4.52438 -3.39583 0
M  V30 10140 H 969.157 -5.43463 -3.59848 0
M  V30 10141 N 972.59 -0.333456 -1.54032 0
M  V30 10142 C 973.553 0.515392 -2.2333 0
M  V30 10143 C 974.553 1.03566 -1.23007 0
M  V30 10144 O 975.743 0.926514 -1.47517 0
M  V30 10145 C 972.875 1.7169 -2.94508 0
M  V30 10146 H 974.068 -0.0905407 -2.99763 0
M  V30 10147 H 971.621 -0.0846651 -1.56071 0
M  V30 10148 H 972.356 2.3618 -2.22237 0
M  V30 10149 H 972.141 1.35115 -3.68085 0
M  V30 10150 H 973.631 2.31922 -3.47278 0
M  V30 10151 N 974.068 1.57479 -0.061844 0
M  V30 10152 C 975.031 2.1104 0.894127 0
M  V30 10153 C 976.031 1.03227 1.23292 0
M  V30 10154 O 977.221 1.29256 1.16784 0
M  V30 10155 C 974.353 2.6035 2.20069 0
M  V30 10156 H 975.546 2.96807 0.429619 0
M  V30 10157 H 973.099 1.55181 0.18672 0
M  V30 10158 H 973.834 1.78008 2.71079 0
M  V30 10159 H 973.619 3.39146 1.9678 0
M  V30 10160 H 975.109 3.019 2.88525 0
M  V30 10161 N 975.546 -0.211634 1.56173 0
M  V30 10162 C 976.456 -1.2831 1.96402 0
M  V30 10163 C 977.472 -1.50731 0.869254 0
M  V30 10164 O 978.648 -1.63669 1.17365 0
M  V30 10165 C 975.713 -2.61084 2.28114 0
M  V30 10166 C 974.774 -2.46879 3.51211 0
M  V30 10167 C 974.007 -3.73321 3.81401 0
M  V30 10168 O 974.23 -4.76773 3.13119 0
M  V30 10169 O 973.164 -3.69839 4.74871 0
M  V30 10170 H 976.99 -0.971733 2.87734 0
M  V30 10171 H 974.575 -0.415305 1.43512 0
M  V30 10172 H 976.457 -3.39481 2.49661 0
M  V30 10173 H 975.132 -2.91881 1.39954 0
M  V30 10174 H 974.039 -1.66648 3.34932 0
M  V30 10175 H 975.372 -2.21018 4.39786 0
M  V30 10176 N 977.024 -1.50153 -0.478725 0
M  V30 10177 C 978.301 -1.51274 -1.23999 0
M  V30 10178 C 978.681 -0.253048 -2.09578 0
M  V30 10179 O 978.029 0.763827 -2.15355 0
M  V30 10180 C 978.239 -2.80423 -2.07759 0
M  V30 10181 C 979.587 -3.30788 -2.66204 0
M  V30 10182 O 980.611 -2.81693 -2.18008 0
M  V30 10183 O 979.47 -4.1635 -3.53999 0
M  V30 10184 H 976.564 -0.606438 -0.562283 0
M  V30 10185 H 979.11 -1.62436 -0.491171 0
M  V30 10186 H 977.882 -3.63584 -1.44645 0
M  V30 10187 H 977.505 -2.72228 -2.89789 0
M  V30 10188 N 978.502 0.731368 -1.39602 0
M  V30 10189 C 979.412 1.87579 -1.40894 0
M  V30 10190 C 980.428 1.71336 -0.303319 0
M  V30 10191 O 981.604 1.93875 -0.545377 0
M  V30 10192 C 978.669 3.23211 -1.25442 0
M  V30 10193 C 977.73 3.51822 -2.46008 0
M  V30 10194 C 976.963 4.80982 -2.31284 0
M  V30 10195 O 977.186 5.54958 -1.31824 0
M  V30 10196 O 976.12 5.09574 -3.20341 0
M  V30 10197 H 979.946 1.89444 -2.3737 0
M  V30 10198 H 977.531 0.879675 -1.20756 0
M  V30 10199 H 979.413 4.04257 -1.18972 0
M  V30 10200 H 978.088 3.22108 -0.320637 0
M  V30 10201 H 976.995 2.70847 -2.58055 0
M  V30 10202 H 978.328 3.57707 -3.38093 0
M  V30 10203 N 979.98 1.24838 0.961938 0
M  V30 10204 C 980.91 1.07053 2.07514 0
M  V30 10205 C 981.891 -0.0182465 1.7009 0
M  V30 10206 O 983.076 0.149915 1.9362 0
M  V30 10207 C 980.206 0.680693 3.40564 0
M  V30 10208 C 979.16 1.71889 3.91967 0
M  V30 10209 C 978.486 1.18395 5.21428 0
M  V30 10210 C 979.786 3.1161 4.19161 0
M  V30 10211 H 981.48 2.00167 2.22651 0
M  V30 10212 H 979.026 0.963799 1.0699 0
M  V30 10213 H 980.979 0.54324 4.17884 0
M  V30 10214 H 979.703 -0.28615 3.25344 0
M  V30 10215 H 978.362 1.84465 3.16809 0
M  V30 10216 H 978.01 0.207543 5.02572 0
M  V30 10217 H 977.71 1.87778 5.56788 0
M  V30 10218 H 979.234 1.05873 6.01351 0
M  V30 10219 H 980.648 3.0223 4.87165 0
M  V30 10220 H 979.045 3.78398 4.65763 0
M  V30 10221 H 980.115 3.59218 3.25715 0
M  V30 10222 N 981.458 -1.16348 1.06306 0
M  V30 10223 C 982.874 -1.38873 0.786543 0
M  V30 10224 C 983.074 -1.91915 -0.614061 0
M  V30 10225 O 982.13 -2.11804 -1.3746 0
M  V30 10226 C 983.443 -2.36936 1.85154 0
M  V30 10227 C 984.991 -2.5062 1.87506 0
M  V30 10228 C 985.466 -3.51965 2.9306 0
M  V30 10229 N 986.957 -3.59492 2.92095 0
M  V30 10230 C 987.692 -4.37699 3.70415 0
M  V30 10231 N 987.188 -5.19327 4.58553 0
M  V30 10232 N 988.981 -4.32683 3.58806 0
M  V30 10233 H 981.132 -0.802542 1.96655 0
M  V30 10234 H 983.395 -0.415304 0.852189 0
M  V30 10235 H 983.101 -2.05056 2.85736 0
M  V30 10236 H 982.975 -3.36585 1.70267 0
M  V30 10237 H 985.362 -2.81804 0.875827 0
M  V30 10238 H 985.443 -1.51006 2.06472 0
M  V30 10239 H 985.087 -3.21518 3.93177 0
M  V30 10240 H 985.017 -4.51309 2.71344 0
M  V30 10241 H 987.508 -3.01222 2.28197 0
M  V30 10242 H 987.821 -5.76216 5.1497 0
M  V30 10243 H 986.166 -5.1867 4.62608 0
M  V30 10244 H 989.357 -3.67971 2.89335 0
M  V30 10245 H 989.53 -4.93386 4.20088 0
M  V30 10246 N 982.937 -0.845659 -1.3299 0
M  V30 10247 C 983.884 -0.281761 -2.29074 0
M  V30 10248 C 984.854 0.606237 -1.54641 0
M  V30 10249 O 986.039 0.543063 -1.82908 0
M  V30 10250 C 983.179 0.531451 -3.40983 0
M  V30 10251 C 982.292 -0.381328 -4.30314 0
M  V30 10252 C 981.427 0.443643 -5.29344 0
M  V30 10253 C 980.466 -0.467101 -6.10315 0
M  V30 10254 N 979.603 0.320148 -7.0137 0
M  V30 10255 H 984.443 -1.10641 -2.76699 0
M  V30 10256 H 981.98 -0.55706 -1.36144 0
M  V30 10257 H 983.938 1.01848 -4.04577 0
M  V30 10258 H 982.568 1.32101 -2.94532 0
M  V30 10259 H 981.62 -0.986701 -3.6738 0
M  V30 10260 H 982.932 -1.08067 -4.86953 0
M  V30 10261 H 982.086 0.994212 -5.98498 0
M  V30 10262 H 980.825 1.17639 -4.73299 0
M  V30 10263 H 979.83 -1.02963 -5.40073 0
M  V30 10264 H 981.055 -1.19832 -6.68444 0
M  V30 10265 H 979.001 1.03615 -6.47765 0
M  V30 10266 H 978.918 -0.320338 -7.55321 0
M  V30 10267 H 980.186 0.852735 -7.74822 0
M  V30 10268 N 984.415 1.45619 -0.602734 0
M  V30 10269 C 985.325 2.34288 0.120902 0
M  V30 10270 C 986.341 1.50952 0.865414 0
M  V30 10271 O 987.517 1.83768 0.824094 0
M  V30 10272 C 984.582 3.28489 1.10888 0
M  V30 10273 C 983.643 4.2773 0.366853 0
M  V30 10274 C 982.876 5.17429 1.30776 0
M  V30 10275 O 983.099 5.10459 2.54535 0
M  V30 10276 O 982.033 5.96459 0.807464 0
M  V30 10277 H 985.859 2.97559 -0.60765 0
M  V30 10278 H 983.444 1.44922 -0.363019 0
M  V30 10279 H 985.326 3.86549 1.67803 0
M  V30 10280 H 984.001 2.67789 1.81854 0
M  V30 10281 H 982.908 3.73299 -0.244643 0
M  V30 10282 H 984.241 4.91271 -0.302226 0
M  V30 10283 N 985.893 0.34162 1.53853 0
M  V30 10284 C 987.142 -0.256475 2.00063 0
M  V30 10285 C 987.455 -1.51811 1.23341 0
M  V30 10286 O 988.661 -2.19332 1.60017 0
M  V30 10287 C 987.117 -0.507567 3.56303 0
M  V30 10288 C 986.725 0.738052 4.41879 0
M  V30 10289 C 988.469 -1.06463 4.10933 0
M  V30 10290 C 986.376 0.457865 5.89625 0
M  V30 10291 H 985.306 -0.0996143 0.747391 0
M  V30 10292 H 987.957 0.456649 1.77727 0
M  V30 10293 H 986.339 -1.28134 3.74697 0
M  V30 10294 H 987.513 1.51278 4.3526 0
M  V30 10295 H 985.828 1.21661 3.98231 0
M  V30 10296 H 988.425 -1.28918 5.18926 0
M  V30 10297 H 988.768 -2.01956 3.64032 0
M  V30 10298 H 989.301 -0.351601 3.96243 0
M  V30 10299 H 986.04 1.38247 6.40756 0
M  V30 10300 H 985.56 -0.278818 5.99152 0
M  V30 10301 H 987.239 0.0743914 6.46957 0
M  V30 10302 N 987.371 -1.57444 0.0701946 0
M  V30 10303 C 988.596 -1.98171 -0.61181 0
M  V30 10304 C 989.021 -0.94823 -1.62451 0
M  V30 10305 O 988.379 0.0863553 -1.81094 0
M  V30 10306 C 988.427 -3.37934 -1.2583 0
M  V30 10307 O 987.531 -3.37207 -2.37414 0
M  V30 10308 H 986.872 -0.645056 -0.157477 0
M  V30 10309 H 989.402 -2.04091 0.144235 0
M  V30 10310 H 989.412 -3.75083 -1.60552 0
M  V30 10311 H 988.087 -4.12684 -0.516234 0
M  V30 10312 H 986.664 -3.11826 -2.04497 0
M  V30 10313 N 988.849 0.203349 -1.56283 0
M  V30 10314 C 989.796 1.25205 -1.93888 0
M  V30 10315 C 990.766 1.45654 -0.798376 0
M  V30 10316 O 991.951 1.58924 -1.05583 0
M  V30 10317 C 989.091 2.59355 -2.27659 0
M  V30 10318 C 988.204 2.46553 -3.54733 0
M  V30 10319 C 987.339 3.73351 -3.77865 0
M  V30 10320 C 986.378 3.55347 -4.98392 0
M  V30 10321 N 985.515 4.74137 -5.17821 0
M  V30 10322 H 990.355 0.924356 -2.83301 0
M  V30 10323 H 987.892 0.445082 -1.40205 0
M  V30 10324 H 989.85 3.375 -2.45254 0
M  V30 10325 H 988.48 2.90184 -1.41396 0
M  V30 10326 H 987.532 1.59749 -3.45231 0
M  V30 10327 H 988.844 2.2918 -4.43033 0
M  V30 10328 H 987.998 4.59937 -3.95655 0
M  V30 10329 H 986.737 3.9367 -2.8788 0
M  V30 10330 H 985.742 2.67146 -4.80534 0
M  V30 10331 H 986.967 3.36482 -5.89879 0
M  V30 10332 H 984.913 4.94735 -4.30782 0
M  V30 10333 H 984.83 4.59558 -6.00285 0
M  V30 10334 H 986.098 5.62098 -5.40061 0
M  V30 10335 N 990.327 1.50405 0.470755 0
M  V30 10336 C 991.555 1.65168 1.24608 0
M  V30 10337 C 991.97 0.335153 1.85801 0
M  V30 10338 O 991.327 -0.682919 1.69241 0
M  V30 10339 C 991.378 2.74305 2.35455 0
M  V30 10340 O 991.099 4.00854 1.76771 0
M  V30 10341 C 992.6 3.00044 3.26326 0
M  V30 10342 H 989.82 0.555186 0.376842 0
M  V30 10343 H 992.364 1.9663 0.56187 0
M  V30 10344 H 990.519 2.45536 2.99651 0
M  V30 10345 H 990.933 4.61211 2.49769 0
M  V30 10346 H 992.407 3.8007 4.00313 0
M  V30 10347 H 992.884 2.11128 3.85126 0
M  V30 10348 H 993.49 3.30345 2.67866 0
M  V30 10349 N 991.805 -0.723954 1.39988 0
M  V30 10350 C 992.738 -1.84725 1.33985 0
M  V30 10351 C 993.716 -1.61217 0.211623 0
M  V30 10352 O 994.9 -1.84338 0.393905 0
M  V30 10353 C 992.027 -3.20913 1.08317 0
M  V30 10354 C 991.073 -3.63262 2.23478 0
M  V30 10355 S 991.906 -3.71346 3.85827 0
M  V30 10356 C 993.062 -5.10307 3.62405 0
M  V30 10357 H 993.295 -1.89535 2.2905 0
M  V30 10358 H 990.828 -0.889911 1.26174 0
M  V30 10359 H 992.786 -3.99547 0.941921 0
M  V30 10360 H 991.447 -3.13745 0.149203 0
M  V30 10361 H 990.64 -4.62124 2.01139 0
M  V30 10362 H 990.242 -2.91863 2.33863 0
M  V30 10363 H 992.534 -5.96975 3.20354 0
M  V30 10364 H 993.477 -5.37679 4.60768 0
M  V30 10365 H 993.885 -4.80505 2.96269 0
M  V30 10366 N 993.283 -1.25346 -0.955304 0
M  V30 10367 C 994.53 -1.10055 -1.69983 0
M  V30 10368 C 994.858 0.358586 -1.91166 0
M  V30 10369 O 994.113 1.28071 -1.47974 0
M  V30 10370 C 994.412 -1.7993 -3.08804 0
M  V30 10371 C 994.078 -3.29851 -3.07424 0
M  V30 10372 C 992.74 -3.7075 -3.06754 0
M  V30 10373 C 995.092 -4.25636 -3.00805 0
M  V30 10374 C 992.42 -5.05847 -2.97214 0
M  V30 10375 C 994.772 -5.60756 -2.92806 0
M  V30 10376 C 993.436 -6.00984 -2.90472 0
M  V30 10377 H 992.706 -0.402718 -0.622012 0
M  V30 10378 H 995.353 -1.5561 -1.11614 0
M  V30 10379 H 993.658 -1.26803 -3.70713 0
M  V30 10380 H 995.355 -1.65551 -3.65231 0
M  V30 10381 H 991.945 -2.97308 -3.08716 0
M  V30 10382 H 996.129 -3.9503 -3.00441 0
M  V30 10383 H 991.385 -5.36196 -2.93775 0
M  V30 10384 H 995.559 -6.34671 -2.86645 0
M  V30 10385 H 993.186 -7.05626 -2.82835 0
M  V30 10386 N 994.761 1.15782 -1.06922 0
M  V30 10387 C 995.724 2.18578 -0.689654 0
M  V30 10388 C 996.724 1.58553 0.267872 0
M  V30 10389 O 997.914 1.7413 0.0494097 0
M  V30 10390 C 995.046 3.40896 -0.0157919 0
M  V30 10391 H 996.239 2.53672 -1.59971 0
M  V30 10392 H 993.792 1.30168 -0.865214 0
M  V30 10393 H 994.527 3.11367 0.906712 0
M  V30 10394 H 994.312 3.85721 -0.704415 0
M  V30 10395 H 995.802 4.16937 0.235266 0
M  V30 10396 N 996.239 0.8527 1.3254 0
M  V30 10397 C 997.149 0.298744 2.3269 0
M  V30 10398 C 998.165 -0.582418 1.63963 0
M  V30 10399 O 999.341 -0.483253 1.95516 0
M  V30 10400 C 996.406 -0.505453 3.42996 0
M  V30 10401 C 995.467 0.401618 4.27417 0
M  V30 10402 C 994.7 -0.364294 5.32455 0
M  V30 10403 O 994.923 -1.59448 5.47661 0
M  V30 10404 O 993.857 0.268892 6.01299 0
M  V30 10405 H 997.683 1.12843 2.81958 0
M  V30 10406 H 995.268 0.615584 1.36128 0
M  V30 10407 H 997.15 -0.961974 4.10273 0
M  V30 10408 H 995.825 -1.31197 2.95921 0
M  V30 10409 H 994.732 0.906274 3.62957 0
M  V30 10410 H 996.065 1.17327 4.78012 0
M  V30 10411 N 997.718 -1.45297 0.610449 0
M  V30 10412 C 998.651 -2.27669 -0.155637 0
M  V30 10413 C 999.629 -1.37308 -0.870936 0
M  V30 10414 O 1000.81 -1.66739 -0.879228 0
M  V30 10415 C 997.94 -3.15748 -1.2256 0
M  V30 10416 C 996.986 -4.2207 -0.613116 0
M  V30 10417 S 997.819 -5.32337 0.581183 0
M  V30 10418 C 998.975 -6.23985 -0.489298 0
M  V30 10419 H 999.208 -2.92295 0.543205 0
M  V30 10420 H 996.741 -1.49181 0.398044 0
M  V30 10421 H 998.699 -3.67051 -1.83804 0
M  V30 10422 H 997.36 -2.50381 -1.89652 0
M  V30 10423 H 996.553 -4.83633 -1.41827 0
M  V30 10424 H 996.155 -3.73923 -0.0757482 0
M  V30 10425 H 998.447 -6.63553 -1.36759 0
M  V30 10426 H 999.39 -7.08042 0.0902456 0
M  V30 10427 H 999.798 -5.58718 -0.805911 0
M  V30 10428 N 999.196 -0.349774 -1.5367 0
M  V30 10429 C 1000.11 0.512421 -2.28935 0
M  V30 10430 C 1001.12 1.1065 -1.34286 0
M  V30 10431 O 1002.3 1.12084 -1.67329 0
M  V30 10432 C 999.363 1.64449 -3.05217 0
M  V30 10433 C 998.424 1.07956 -4.15505 0
M  V30 10434 C 997.657 2.15768 -4.88139 0
M  V30 10435 O 997.88 3.366 -4.60496 0
M  V30 10436 O 996.814 1.79712 -5.74445 0
M  V30 10437 H 1000.64 -0.0996001 -3.03537 0
M  V30 10438 H 998.225 -0.114629 -1.4896 0
M  V30 10439 H 1000.11 2.30302 -3.52901 0
M  V30 10440 H 998.782 2.24221 -2.33467 0
M  V30 10441 H 997.689 0.385381 -3.7211 0
M  V30 10442 H 999.022 0.526621 -4.89375 0
M  V30 10443 N 1000.67 1.57404 -0.0785433 0
M  V30 10444 C 1001.92 1.9292 0.588626 0
M  V30 10445 C 1002.24 0.961106 1.70359 0
M  V30 10446 O 1003.44 1.20934 2.43079 0
M  V30 10447 C 1001.9 3.42729 1.09839 0
M  V30 10448 C 1001.51 4.47998 0.0140773 0
M  V30 10449 C 1003.25 3.87235 1.73924 0
M  V30 10450 C 1001.16 5.88945 0.538269 0
M  V30 10451 H 1000.09 0.720069 0.223645 0
M  V30 10452 H 1002.74 1.8287 -0.15187 0
M  V30 10453 H 1001.12 3.47875 1.89207 0
M  V30 10454 H 1002.29 4.54476 -0.760773 0
M  V30 10455 H 1000.61 4.13001 -0.53095 0
M  V30 10456 H 1003.21 4.89927 2.14186 0
M  V30 10457 H 1003.55 3.24971 2.60191 0
M  V30 10458 H 1004.08 3.84721 1.01168 0
M  V30 10459 H 1000.82 6.5487 -0.287395 0
M  V30 10460 H 1000.34 5.85972 1.28049 0
M  V30 10461 H 1002.02 6.39028 1.01253 0
M  V30 10462 N 1002.15 -0.195058 1.56388 0
M  V30 10463 C 1003.4 -0.913626 1.79821 0
M  V30 10464 C 1003.71 -1.84422 0.651767 0
M  V30 10465 O 1004.92 -2.6034 0.770402 0
M  V30 10466 C 1003.38 -1.67497 3.18548 0
M  V30 10467 C 1002.98 -0.789205 4.40994 0
M  V30 10468 C 1004.73 -2.38318 3.5129 0
M  V30 10469 C 1002.63 -1.54942 5.70742 0
M  V30 10470 H 1001.56 -0.344891 0.670497 0
M  V30 10471 H 1004.22 -0.166912 1.82739 0
M  V30 10472 H 1002.6 -2.46557 3.0988 0
M  V30 10473 H 1003.77 -0.0372595 4.60785 0
M  V30 10474 H 1002.09 -0.191834 4.15958 0
M  V30 10475 H 1004.68 -2.95745 4.45465 0
M  V30 10476 H 1005.03 -3.12507 2.75037 0
M  V30 10477 H 1005.56 -1.66224 3.61406 0
M  V30 10478 H 1002.3 -0.85031 6.49962 0
M  V30 10479 H 1001.82 -2.2753 5.54969 0
M  V30 10480 H 1003.5 -2.1032 6.11861 0
M  V30 10481 N 1003.63 -1.50653 -0.462772 0
M  V30 10482 C 1004.88 -1.61737 -1.21184 0
M  V30 10483 C 1005.2 -0.32369 -1.92295 0
M  V30 10484 O 1004.47 0.659269 -1.84473 0
M  V30 10485 H 1003.05 -0.596015 -0.450306 0
M  V30 10486 H 1005.71 -1.87469 -0.533051 0
M  V30 10487 H 1004.81 -2.43262 -1.95525 0
M  V30 10488 N 1005.11 0.71652 -1.4037 0
M  V30 10489 C 1006.04 1.84138 -1.36477 0
M  V30 10490 C 1007.05 1.6054 -0.27033 0
M  V30 10491 O 1008.24 1.70431 -0.530612 0
M  V30 10492 C 1005.34 3.20523 -1.10082 0
M  V30 10493 C 1004.52 3.71326 -2.31162 0
M  V30 10494 C 1003.57 4.86322 -2.00942 0
M  V30 10495 O 1002.6 4.99022 -2.73799 0
M  V30 10496 N 1003.8 5.72051 -0.986812 0
M  V30 10497 H 1006.57 1.87977 -2.3342 0
M  V30 10498 H 1004.13 0.89802 -1.34712 0
M  V30 10499 H 1006.12 3.95049 -0.878526 0
M  V30 10500 H 1004.69 3.11838 -0.21809 0
M  V30 10501 H 1003.91 2.87941 -2.69227 0
M  V30 10502 H 1005.2 4.02003 -3.11883 0
M  V30 10503 H 1004.6 5.64399 -0.383381 0
M  V30 10504 H 1003.15 6.46565 -0.824419 0
M  V30 10505 N 1006.59 1.25851 0.948643 0
M  V30 10506 C 1007.83 1.10954 1.69397 0
M  V30 10507 C 1008.16 -0.348443 1.91353 0
M  V30 10508 O 1007.42 -1.27285 1.48651 0
M  V30 10509 C 1007.72 1.81565 3.07846 0
M  V30 10510 C 1007.38 3.31477 3.0567 0
M  V30 10511 C 1006.04 3.72371 3.04784 0
M  V30 10512 C 1008.4 4.27225 2.98543 0
M  V30 10513 C 1005.72 5.07416 2.94527 0
M  V30 10514 C 1008.08 5.62301 2.89828 0
M  V30 10515 C 1006.74 6.02516 2.87281 0
M  V30 10516 H 1006.01 0.406011 0.619868 0
M  V30 10517 H 1008.66 1.562 1.10787 0
M  V30 10518 H 1006.96 1.28767 3.70035 0
M  V30 10519 H 1008.66 1.67486 3.64348 0
M  V30 10520 H 1005.25 2.98941 3.07135 0
M  V30 10521 H 1009.43 3.96618 2.98342 0
M  V30 10522 H 1004.69 5.37746 2.90928 0
M  V30 10523 H 1008.86 6.36182 2.83276 0
M  V30 10524 H 1006.49 7.07116 2.79089 0
M  V30 10525 N 1008.06 -1.15214 1.07534 0
M  V30 10526 C 1009.01 -2.22078 0.69168 0
M  V30 10527 C 1010.01 -1.66751 -0.298382 0
M  V30 10528 O 1011.21 -1.7927 -0.161897 0
M  V30 10529 H 1007.59 -0.723347 0.205604 0
M  V30 10530 H 1009.56 -2.51716 1.60256 0
M  V30 10531 C 1008.31 -3.47534 0.107546 0
M  V30 10532 H 1007.63 -3.90429 0.860522 0
M  V30 10533 H 1009.07 -4.23821 -0.123215 0
M  V30 10534 C 1007.53 -3.16583 -1.15226 0
M  V30 10535 O 1008.06 -3.33551 -2.23845 0
M  V30 10536 N 1006.27 -2.70611 -1.05915 0
M  V30 10537 H 1005.81 -2.57004 -0.175198 0
M  V30 10538 H 1005.77 -2.50277 -1.90287 0
M  V30 10539 N 1009.54 -0.859717 -1.32086 0
M  V30 10540 C 1010.47 -0.323502 -2.31248 0
M  V30 10541 C 1011.45 0.580085 -1.59903 0
M  V30 10542 O 1012.64 0.499265 -1.87673 0
M  V30 10543 C 1009.77 0.484661 -3.43902 0
M  V30 10544 C 1008.72 -0.324933 -4.26765 0
M  V30 10545 C 1008.05 0.608281 -5.31229 0
M  V30 10546 C 1009.35 -1.55344 -4.98664 0
M  V30 10547 H 1011.04 -1.15209 -2.76346 0
M  V30 10548 H 1008.59 -0.555442 -1.32856 0
M  V30 10549 H 1010.54 0.870238 -4.12316 0
M  V30 10550 H 1009.27 1.34666 -2.97544 0
M  V30 10551 H 1007.92 -0.692328 -3.60003 0
M  V30 10552 H 1007.57 1.46727 -4.81124 0
M  V30 10553 H 1007.27 0.0705571 -5.87558 0
M  V30 10554 H 1008.8 0.990925 -6.02506 0
M  V30 10555 H 1010.21 -1.23987 -5.59732 0
M  V30 10556 H 1008.61 -2.02947 -5.64741 0
M  V30 10557 H 1009.68 -2.31192 -4.26237 0
M  V30 10558 N 1011.02 1.44971 -0.618145 0
M  V30 10559 C 1012.27 2.0176 -0.11725 0
M  V30 10560 C 1012.59 1.48773 1.26062 0
M  V30 10561 O 1011.86 0.686152 1.83491 0
M  V30 10562 H 1010.44 0.745909 -0.0403545 0
M  V30 10563 H 1013.1 1.77638 -0.801923 0
M  V30 10564 H 1012.2 3.1201 -0.0750477 0
M  V30 10565 N 1012.5 0.357919 1.53482 0
M  V30 10566 C 1013.75 -0.234163 2.01142 0
M  V30 10567 C 1014.07 -1.49399 1.2454 0
M  V30 10568 O 1013.33 -1.92981 0.325111 0
M  V30 10569 C 1013.63 -0.579617 3.52669 0
M  V30 10570 C 1013.29 0.584988 4.47089 0
M  V30 10571 C 1011.96 0.904558 4.72622 0
M  V30 10572 C 1014.31 1.3656 5.02992 0
M  V30 10573 C 1011.64 2.00685 5.5131 0
M  V30 10574 C 1013.99 2.45824 5.82884 0
M  V30 10575 C 1012.65 2.78325 6.06706 0
M  V30 10576 H 1011.92 -0.0856863 0.736029 0
M  V30 10577 H 1014.57 0.488801 1.85157 0
M  V30 10578 H 1012.87 -1.38349 3.66561 0
M  V30 10579 H 1014.57 -1.04985 3.87013 0
M  V30 10580 H 1011.16 0.32587 4.27359 0
M  V30 10581 H 1015.34 1.13196 4.83219 0
M  V30 10582 H 1010.6 2.26272 5.67988 0
M  V30 10583 H 1014.77 3.06732 6.25211 0
M  V30 10584 H 1012.4 3.63862 6.67464 0
M  V30 10585 N 1013.98 -1.5736 0.0868897 0
M  V30 10586 C 1015.23 -1.93229 -0.578387 0
M  V30 10587 C 1015.54 -0.970127 -1.69847 0
M  V30 10588 O 1016.74 -1.22222 -2.42434 0
M  V30 10589 C 1015.2 -3.43307 -1.0802 0
M  V30 10590 C 1014.81 -4.47999 0.00968135 0
M  V30 10591 C 1016.55 -3.88151 -1.71868 0
M  V30 10592 C 1014.46 -5.89223 -0.507029 0
M  V30 10593 H 1013.39 -0.721245 -0.219823 0
M  V30 10594 H 1016.04 -1.82787 0.161566 0
M  V30 10595 H 1014.42 -3.48873 -1.87359 0
M  V30 10596 H 1015.6 -4.54067 0.784865 0
M  V30 10597 H 1013.91 -4.12714 0.552845 0
M  V30 10598 H 1016.51 -4.91056 -2.11585 0
M  V30 10599 H 1016.85 -3.26347 -2.58464 0
M  V30 10600 H 1017.38 -3.85252 -0.991259 0
M  V30 10601 H 1014.12 -6.54708 0.322121 0
M  V30 10602 H 1013.64 -5.86643 -1.2494 0
M  V30 10603 H 1015.32 -6.39556 -0.978628 0
M  V30 10604 N 1015.45 0.186762 -1.56489 0
M  V30 10605 C 1016.7 0.904077 -1.80303 0
M  V30 10606 C 1017.02 1.84073 -0.661538 0
M  V30 10607 O 1018.22 2.59928 -0.784197 0
M  V30 10608 C 1016.68 1.65806 -3.19432 0
M  V30 10609 C 1016.29 0.765807 -4.41406 0
M  V30 10610 C 1018.03 2.36451 -3.52549 0
M  V30 10611 C 1015.94 1.51913 -5.71556 0
M  V30 10612 H 1014.87 0.34133 -0.672317 0
M  V30 10613 H 1017.52 0.157218 -1.82825 0
M  V30 10614 H 1015.9 2.44911 -3.11183 0
M  V30 10615 H 1017.07 0.0128225 -4.60798 0
M  V30 10616 H 1015.39 0.169772 -4.16054 0
M  V30 10617 H 1017.99 2.93378 -4.47027 0
M  V30 10618 H 1018.33 3.11044 -2.7669 0
M  V30 10619 H 1018.86 1.64305 -3.62283 0
M  V30 10620 H 1015.6 0.815829 -6.50403 0
M  V30 10621 H 1015.12 2.24583 -5.56168 0
M  V30 10622 H 1016.8 2.07073 -6.12968 0
M  V30 10623 N 1016.93 1.50896 0.454776 0
M  V30 10624 C 1018.16 1.6648 1.22849 0
M  V30 10625 C 1018.58 0.354841 1.85435 0
M  V30 10626 O 1017.93 -0.664931 1.69956 0
M  V30 10627 C 1017.98 2.76787 2.32532 0
M  V30 10628 O 1017.7 4.02706 1.72509 0
M  V30 10629 C 1019.21 3.03488 3.23125 0
M  V30 10630 H 1016.43 0.559152 0.370932 0
M  V30 10631 H 1018.97 1.97215 0.540983 0
M  V30 10632 H 1017.12 2.48701 2.9703 0
M  V30 10633 H 1017.54 4.63834 2.44863 0
M  V30 10634 H 1019.01 3.84294 3.9626 0
M  V30 10635 H 1019.49 2.152 3.82865 0
M  V30 10636 H 1020.1 3.33167 2.64347 0
M  V30 10637 N 1018.41 -0.709066 1.40748 0
M  V30 10638 C 1019.36 -1.82312 1.4153 0
M  V30 10639 C 1020.33 -1.63868 0.271392 0
M  V30 10640 O 1021.51 -1.8491 0.470431 0
M  V30 10641 C 1018.65 -3.2008 1.29006 0
M  V30 10642 C 1017.77 -3.50051 2.53156 0
M  V30 10643 C 1016.9 -4.7736 2.33025 0
M  V30 10644 C 1015.94 -5.00255 3.52719 0
M  V30 10645 N 1015.08 -6.18782 3.31743 0
M  V30 10646 H 1019.92 -1.80978 2.36751 0
M  V30 10647 H 1017.45 -0.883975 1.17577 0
M  V30 10648 H 1019.41 -3.99645 1.19749 0
M  V30 10649 H 1018.04 -3.20626 0.374014 0
M  V30 10650 H 1017.09 -2.64993 2.72916 0
M  V30 10651 H 1018.41 -3.62877 3.42231 0
M  V30 10652 H 1017.56 -5.64954 2.21159 0
M  V30 10653 H 1016.3 -4.66756 1.41386 0
M  V30 10654 H 1015.3 -4.11114 3.65055 0
M  V30 10655 H 1016.53 -5.12728 4.45295 0
M  V30 10656 H 1014.47 -6.09416 2.42791 0
M  V30 10657 H 1014.39 -6.32313 4.14386 0
M  V30 10658 H 1015.66 -7.09146 3.23623 0
M  V30 10659 N 1019.89 -1.26353 -0.941956 0
M  V30 10660 C 1020.82 -1.10341 -2.05784 0
M  V30 10661 C 1021.8 -0.00881565 -1.70098 0
M  V30 10662 O 1022.99 -0.180699 -1.93357 0
M  V30 10663 C 1020.12 -0.734788 -3.39438 0
M  V30 10664 C 1019.07 -1.78103 -3.89183 0
M  V30 10665 C 1018.4 -1.26675 -5.19478 0
M  V30 10666 C 1019.7 -3.1824 -4.14151 0
M  V30 10667 H 1021.39 -2.03684 -2.19438 0
M  V30 10668 H 1018.94 -0.980698 -1.05443 0
M  V30 10669 H 1020.89 -0.609653 -4.16967 0
M  V30 10670 H 1019.61 0.234354 -3.25758 0
M  V30 10671 H 1018.27 -1.89482 -3.13835 0
M  V30 10672 H 1017.92 -0.287472 -5.02178 0
M  V30 10673 H 1017.62 -1.96612 -5.53731 0
M  V30 10674 H 1019.14 -1.15427 -5.99591 0
M  V30 10675 H 1020.56 -3.09942 -4.82296 0
M  V30 10676 H 1018.95 -3.8576 -4.59684 0
M  V30 10677 H 1020.02 -3.64354 -3.19959 0
M  V30 10678 N 1021.37 1.14642 -1.08144 0
M  V30 10679 C 1022.32 2.21708 -0.703448 0
M  V30 10680 C 1023.31 1.66907 0.289535 0
M  V30 10681 O 1024.52 1.79354 0.152387 0
M  V30 10682 H 1020.89 0.722247 -0.209437 0
M  V30 10683 H 1022.86 2.50862 -1.61588 0
M  V30 10684 C 1021.61 3.47472 -0.125975 0
M  V30 10685 H 1020.93 3.89967 -0.881216 0
M  V30 10686 H 1022.37 4.2388 0.100737 0
M  V30 10687 C 1020.83 3.17189 1.13546 0
M  V30 10688 O 1021.36 3.34733 2.22073 0
M  V30 10689 N 1019.57 2.71169 1.04479 0
M  V30 10690 H 1019.12 2.57093 0.161566 0
M  V30 10691 H 1019.07 2.51282 1.88957 0
M  V30 10692 N 1022.85 0.866709 1.31628 0
M  V30 10693 C 1023.76 0.323408 2.3236 0
M  V30 10694 C 1024.77 -0.564995 1.64572 0
M  V30 10695 O 1025.95 -0.462489 1.96018 0
M  V30 10696 C 1023.01 -0.469045 3.43513 0
M  V30 10697 C 1022.07 0.446928 4.26967 0
M  V30 10698 C 1021.31 -0.307799 5.32812 0
M  V30 10699 O 1021.53 -1.5363 5.49321 0
M  V30 10700 O 1020.46 0.332653 6.0098 0
M  V30 10701 H 1024.29 1.15827 2.80745 0
M  V30 10702 H 1021.87 0.629987 1.35468 0
M  V30 10703 H 1023.76 -0.918405 4.1127 0
M  V30 10704 H 1022.43 -1.28051 2.97296 0
M  V30 10705 H 1021.34 0.944719 3.61975 0
M  V30 10706 H 1022.67 1.2239 4.76741 0
M  V30 10707 N 1024.32 -1.44642 0.625825 0
M  V30 10708 C 1025.6 -1.9551 0.0593587 0
M  V30 10709 C 1025.98 -1.56792 -1.41349 0
M  V30 10710 O 1025.33 -0.839373 -2.12525 0
M  V30 10711 C 1025.54 -3.47902 0.276647 0
M  V30 10712 C 1026.89 -4.24271 0.167044 0
M  V30 10713 O 1027.91 -3.55594 0.207731 0
M  V30 10714 O 1026.77 -5.46458 0.0675 0
M  V30 10715 H 1023.86 -0.826612 -0.0253422 0
M  V30 10716 H 1026.41 -1.54718 0.697159 0
M  V30 10717 H 1025.18 -3.69115 1.29885 0
M  V30 10718 H 1024.8 -3.95628 -0.395547 0
M  V30 10719 N 1025.8 -0.366053 -1.5329 0
M  V30 10720 C 1027.05 0.224614 -2.00445 0
M  V30 10721 C 1027.36 1.49829 -1.2574 0
M  V30 10722 O 1028.57 2.16759 -1.63487 0
M  V30 10723 C 1027.03 0.450818 -3.57065 0
M  V30 10724 C 1026.63 -0.808257 -4.40649 0
M  V30 10725 C 1028.38 0.999116 -4.12575 0
M  V30 10726 C 1026.28 -0.551612 -5.88822 0
M  V30 10727 H 1025.21 0.0877114 -0.748881 0
M  V30 10728 H 1027.87 -0.484866 -1.76978 0
M  V30 10729 H 1026.25 1.22157 -3.76688 0
M  V30 10730 H 1027.42 -1.58184 -4.32798 0
M  V30 10731 H 1025.74 -1.27981 -3.96245 0
M  V30 10732 H 1028.33 1.20646 -5.20911 0
M  V30 10733 H 1028.68 1.96139 -3.67199 0
M  V30 10734 H 1029.21 0.288518 -3.96752 0
M  V30 10735 H 1025.95 -1.48423 -6.38475 0
M  V30 10736 H 1025.47 0.183462 -5.99519 0
M  V30 10737 H 1027.15 -0.177307 -6.46757 0
M  V30 10738 N 1027.28 1.57312 -0.0952337 0
M  V30 10739 C 1028.53 1.94358 0.568442 0
M  V30 10740 C 1028.85 0.97698 1.68182 0
M  V30 10741 O 1028.11 -0.00340398 1.957 0
M  V30 10742 C 1028.41 3.37937 1.16332 0
M  V30 10743 C 1028.07 4.50565 0.173715 0
M  V30 10744 C 1026.74 4.81099 -0.0984673 0
M  V30 10745 C 1029.09 5.18777 -0.501992 0
M  V30 10746 C 1026.42 5.77172 -1.05305 0
M  V30 10747 C 1028.77 6.15874 -1.44505 0
M  V30 10748 C 1027.43 6.44813 -1.72546 0
M  V30 10749 H 1026.7 0.711206 0.208007 0
M  V30 10750 H 1029.35 1.90734 -0.171096 0
M  V30 10751 H 1027.65 3.3814 1.97911 0
M  V30 10752 H 1029.35 3.63902 1.68453 0
M  V30 10753 H 1025.94 4.26766 0.396042 0
M  V30 10754 H 1030.13 4.95363 -0.304855 0
M  V30 10755 H 1025.38 5.97909 -1.2773 0
M  V30 10756 H 1029.56 6.67824 -1.97444 0
M  V30 10757 H 1027.18 7.19067 -2.46671 0
M  V30 10758 N 1028.76 -0.17846 1.56586 0
M  V30 10759 C 1030.01 -0.894502 1.8078 0
M  V30 10760 C 1030.32 -1.8372 0.67129 0
M  V30 10761 O 1031.53 -2.59509 0.797971 0
M  V30 10762 C 1029.98 -1.64109 3.20306 0
M  V30 10763 C 1029.59 -0.742387 4.41806 0
M  V30 10764 C 1031.33 -2.34578 3.53798 0
M  V30 10765 C 1029.24 -1.4888 5.72354 0
M  V30 10766 H 1028.17 -0.33776 0.674117 0
M  V30 10767 H 1030.82 -0.14752 1.82906 0
M  V30 10768 H 1029.2 -2.43257 3.12477 0
M  V30 10769 H 1030.38 0.011615 4.60799 0
M  V30 10770 H 1028.69 -0.147705 4.16138 0
M  V30 10771 H 1031.29 -2.91004 4.48577 0
M  V30 10772 H 1031.63 -3.09572 2.78336 0
M  V30 10773 H 1032.17 -1.62381 3.63149 0
M  V30 10774 H 1028.9 -0.781325 6.50827 0
M  V30 10775 H 1028.42 -2.21631 5.57351 0
M  V30 10776 H 1030.1 -2.03819 6.14058 0
M  V30 10777 N 1030.24 -1.51135 -0.446768 0
M  V30 10778 C 1031.48 -1.63578 -1.19875 0
M  V30 10779 C 1031.81 -0.346478 -1.91084 0
M  V30 10780 O 1031.09 0.653447 -1.83195 0
M  V30 10781 C 1031.37 -2.83275 -2.22323 0
M  V30 10782 C 1031.23 -4.22155 -1.55259 0
M  V30 10783 C 1032.54 -2.98496 -3.23401 0
M  V30 10784 H 1029.66 -0.595333 -0.434452 0
M  V30 10785 H 1032.31 -1.83593 -0.48923 0
M  V30 10786 H 1030.46 -2.6634 -2.82834 0
M  V30 10787 H 1032.13 -4.50736 -0.981571 0
M  V30 10788 H 1030.37 -4.25288 -0.855122 0
M  V30 10789 H 1031.04 -5.01882 -2.29823 0
M  V30 10790 H 1033.52 -3.14079 -2.72935 0
M  V30 10791 H 1032.39 -3.83828 -3.92386 0
M  V30 10792 H 1032.65 -2.10157 -3.88956 0
M  V30 10793 N 1031.71 0.701592 -1.41122 0
M  V30 10794 C 1032.99 1.45569 -1.30648 0
M  V30 10795 C 1033.37 2.10988 0.068744 0
M  V30 10796 O 1032.72 2.01228 1.08257 0
M  V30 10797 C 1032.93 2.48003 -2.45551 0
M  V30 10798 C 1034.28 3.13431 -2.86437 0
M  V30 10799 O 1035.3 2.58327 -2.45247 0
M  V30 10800 O 1034.16 4.13221 -3.57646 0
M  V30 10801 H 1031.25 0.648 -0.513834 0
M  V30 10802 H 1033.8 0.73258 -1.53073 0
M  V30 10803 H 1032.57 1.98276 -3.37346 0
M  V30 10804 H 1032.19 3.27832 -2.24971 0
M  V30 10805 N 1033.19 1.2685 0.935242 0
M  V30 10806 C 1034.12 1.04717 2.0388 0
M  V30 10807 C 1035.14 0.00567507 1.62799 0
M  V30 10808 O 1036.33 0.246408 1.76791 0
M  V30 10809 C 1033.43 0.56496 3.34158 0
M  V30 10810 C 1032.6 1.67704 4.03973 0
M  V30 10811 C 1031.66 1.19186 5.12524 0
M  V30 10812 O 1030.68 1.89008 5.36903 0
M  V30 10813 N 1031.89 0.0434554 5.80484 0
M  V30 10814 H 1034.65 1.99746 2.23431 0
M  V30 10815 H 1032.21 1.18316 1.10512 0
M  V30 10816 H 1034.2 0.224436 4.04077 0
M  V30 10817 H 1032.77 -0.291899 3.11234 0
M  V30 10818 H 1031.99 2.18821 3.27889 0
M  V30 10819 H 1033.28 2.42361 4.47368 0
M  V30 10820 H 1032.68 -0.539502 5.63122 0
M  V30 10821 H 1031.24 -0.237946 6.51366 0
M  V30 10822 N 1034.67 -1.14067 1.0875 0
M  V30 10823 C 1035.62 -2.17302 0.690195 0
M  V30 10824 C 1036.6 -1.58229 -0.291948 0
M  V30 10825 O 1037.8 -1.76698 -0.103411 0
M  V30 10826 C 1034.93 -3.4314 0.104835 0
M  V30 10827 C 1034.01 -4.09235 1.11298 0
M  V30 10828 N 1034.4 -4.50601 2.29765 0
M  V30 10829 C 1032.7 -4.35775 0.949535 0
M  V30 10830 C 1033.4 -5.02029 2.93839 0
M  V30 10831 N 1032.38 -4.96457 2.21431 0
M  V30 10832 H 1036.18 -2.47031 1.59226 0
M  V30 10833 H 1033.69 -1.30788 0.962722 0
M  V30 10834 H 1035.69 -4.16431 -0.197777 0
M  V30 10835 H 1034.35 -3.14888 -0.792172 0
M  V30 10836 H 1035.36 -4.43529 2.67399 0
M  V30 10837 H 1032.04 -4.17364 0.106627 0
M  V30 10838 H 1033.43 -5.43885 3.94511 0
M  V30 10839 N 1036.15 -0.873678 -1.31166 0
M  V30 10840 C 1037.11 -0.337069 -2.26708 0
M  V30 10841 C 1038.11 0.51406 -1.52362 0
M  V30 10842 O 1039.3 0.322834 -1.71182 0
M  V30 10843 C 1036.43 0.520897 -3.36897 0
M  V30 10844 H 1037.63 -1.18056 -2.75686 0
M  V30 10845 H 1035.18 -0.649577 -1.42163 0
M  V30 10846 H 1035.91 1.38543 -2.93217 0
M  V30 10847 H 1035.7 -0.0886015 -3.92 0
M  V30 10848 H 1037.19 0.888497 -4.08039 0
M  V30 10849 N 1037.63 1.44308 -0.633487 0
M  V30 10850 C 1038.85 2.06384 -0.146063 0
M  V30 10851 C 1039.27 1.47357 1.18031 0
M  V30 10852 O 1038.63 0.597334 1.72448 0
M  V30 10853 C 1038.68 3.61489 -0.0276722 0
M  V30 10854 O 1038.4 4.18318 -1.3016 0
M  V30 10855 C 1039.9 4.40604 0.488168 0
M  V30 10856 H 1037.12 0.666122 -0.0807632 0
M  V30 10857 H 1039.66 1.85139 -0.868557 0
M  V30 10858 H 1037.82 3.81988 0.645273 0
M  V30 10859 H 1038.23 5.11783 -1.14797 0
M  V30 10860 H 1039.71 5.49545 0.520013 0
M  V30 10861 H 1040.18 4.12218 1.51568 0
M  V30 10862 H 1040.79 4.2503 -0.151608 0
M  V30 10863 N 1039.1 0.374177 1.53094 0
M  V30 10864 C 1040.38 -0.269632 1.93733 0
M  V30 10865 C 1040.76 -1.6566 1.30843 0
M  V30 10866 O 1040.11 -2.23598 0.470759 0
M  V30 10867 C 1040.32 -0.311204 3.4761 0
M  V30 10868 C 1041.67 -0.547432 4.21056 0
M  V30 10869 O 1042.69 -0.392053 3.54036 0
M  V30 10870 O 1041.55 -0.850645 5.39839 0
M  V30 10871 H 1038.64 -0.163723 0.810632 0
M  V30 10872 H 1041.19 0.427586 1.64225 0
M  V30 10873 H 1039.96 0.660897 3.85678 0
M  V30 10874 H 1039.59 -1.05397 3.83376 0
M  V30 10875 N 1040.58 -1.57259 0.103575 0
M  V30 10876 C 1041.49 -2.18018 -0.866327 0
M  V30 10877 C 1042.51 -1.15198 -1.30404 0
M  V30 10878 O 1043.68 -1.47605 -1.37021 0
M  V30 10879 C 1040.75 -2.75533 -2.10434 0
M  V30 10880 C 1039.81 -3.93337 -1.72002 0
M  V30 10881 C 1039.04 -4.481 -2.89901 0
M  V30 10882 O 1039.27 -4.01784 -4.04877 0
M  V30 10883 O 1038.2 -5.39004 -2.67877 0
M  V30 10884 H 1042.03 -3.01322 -0.379338 0
M  V30 10885 H 1039.61 -1.48907 -0.121228 0
M  V30 10886 H 1041.49 -3.12259 -2.8297 0
M  V30 10887 H 1040.17 -1.9527 -2.58169 0
M  V30 10888 H 1039.08 -3.61408 -0.966193 0
M  V30 10889 H 1040.41 -4.74989 -1.29022 0
M  V30 10890 N 1042.06 0.170153 -1.56679 0
M  V30 10891 C 1043.01 1.21064 -1.965 0
M  V30 10892 C 1043.98 1.43928 -0.829092 0
M  V30 10893 O 1045.16 1.56649 -1.08931 0
M  V30 10894 C 1042.3 2.54468 -2.33109 0
M  V30 10895 C 1041.42 2.38974 -3.59883 0
M  V30 10896 C 1040.55 3.65252 -3.857 0
M  V30 10897 C 1039.59 3.44696 -5.05817 0
M  V30 10898 N 1038.73 4.63047 -5.27761 0
M  V30 10899 H 1043.57 0.864055 -2.85198 0
M  V30 10900 H 1041.1 0.415243 -1.41117 0
M  V30 10901 H 1043.06 3.32222 -2.52358 0
M  V30 10902 H 1041.69 2.8712 -1.4752 0
M  V30 10903 H 1040.74 1.5239 -3.48542 0
M  V30 10904 H 1042.06 2.19731 -4.47794 0
M  V30 10905 H 1041.21 4.51441 -4.05322 0
M  V30 10906 H 1039.95 3.87475 -2.96166 0
M  V30 10907 H 1038.95 2.56893 -4.86092 0
M  V30 10908 H 1040.18 3.23894 -5.96883 0
M  V30 10909 H 1038.12 4.85487 -4.41179 0
M  V30 10910 H 1038.04 4.46722 -6.09898 0
M  V30 10911 H 1039.31 5.50516 -5.51863 0
M  V30 10912 N 1043.54 1.5137 0.438746 0
M  V30 10913 C 1044.77 1.6753 1.20901 0
M  V30 10914 C 1045.18 0.371573 1.85515 0
M  V30 10915 O 1044.52 -0.659701 1.71446 0
M  V30 10916 C 1044.58 2.73305 2.33548 0
M  V30 10917 C 1044.25 4.15944 1.89313 0
M  V30 10918 C 1045.24 5.00769 1.39736 0
M  V30 10919 C 1042.93 4.62036 1.97047 0
M  V30 10920 C 1044.92 6.29747 0.984773 0
M  V30 10921 C 1042.61 5.91011 1.554 0
M  V30 10922 C 1043.61 6.74693 1.06197 0
M  V30 10923 O 1043.29 8.01256 0.651407 0
M  V30 10924 H 1043.03 0.565404 0.370532 0
M  V30 10925 H 1045.58 1.98543 0.526296 0
M  V30 10926 H 1043.81 2.37604 3.05092 0
M  V30 10927 H 1045.5 2.78359 2.95417 0
M  V30 10928 H 1046.27 4.66363 1.33156 0
M  V30 10929 H 1042.14 3.97025 2.34291 0
M  V30 10930 H 1045.69 6.95015 0.600029 0
M  V30 10931 H 1041.59 6.24932 1.6165 0
M  V30 10932 H 1042.35 8.148 0.777382 0
M  V30 10933 N 1045.02 -0.694098 1.41492 0
M  V30 10934 C 1045.96 -1.82932 1.43662 0
M  V30 10935 C 1046.96 -1.66455 0.31449 0
M  V30 10936 O 1048.16 -1.73298 0.486589 0
M  V30 10937 H 1044.54 -0.602847 0.449533 0
M  V30 10938 H 1046.51 -1.78218 2.39334 0
M  V30 10939 C 1045.26 -3.20962 1.33712 0
M  V30 10940 H 1044.58 -3.34257 2.19345 0
M  V30 10941 H 1046.02 -4.00467 1.39291 0
M  V30 10942 C 1044.48 -3.36863 0.0496332 0
M  V30 10943 O 1045.01 -3.91371 -0.905093 0
M  V30 10944 N 1043.22 -2.90588 -0.0269299 0
M  V30 10945 H 1042.76 -2.46417 0.750752 0
M  V30 10946 H 1042.72 -3.01605 -0.887781 0
M  V30 10947 N 1046.49 -1.27344 -0.928501 0
M  V30 10948 C 1047.74 -1.13635 -1.6761 0
M  V30 10949 C 1048.07 0.317957 -1.91884 0
M  V30 10950 O 1047.32 1.24904 -1.50657 0
M  V30 10951 C 1047.62 -1.86439 -3.04918 0
M  V30 10952 C 1047.29 -3.36298 -3.00358 0
M  V30 10953 C 1045.95 -3.77173 -2.98821 0
M  V30 10954 C 1048.3 -4.31921 -2.91708 0
M  V30 10955 C 1045.63 -5.12037 -2.86417 0
M  V30 10956 C 1047.98 -5.66841 -2.80846 0
M  V30 10957 C 1046.65 -6.07011 -2.77659 0
M  V30 10958 H 1045.92 -0.415821 -0.61333 0
M  V30 10959 H 1048.56 -1.57943 -1.08288 0
M  V30 10960 H 1046.87 -1.34638 -3.6794 0
M  V30 10961 H 1048.57 -1.73261 -3.61637 0
M  V30 10962 H 1045.16 -3.0379 -3.0234 0
M  V30 10963 H 1049.34 -4.01314 -2.91994 0
M  V30 10964 H 1044.6 -5.42307 -2.82336 0
M  V30 10965 H 1048.77 -6.40608 -2.73119 0
M  V30 10966 H 1046.4 -7.11467 -2.67804 0
M  V30 10967 N 1047.97 1.13488 -1.09353 0
M  V30 10968 C 1048.88 2.2248 -0.744307 0
M  V30 10969 C 1049.9 1.72145 0.253404 0
M  V30 10970 O 1051.07 2.01176 0.0949339 0
M  V30 10971 C 1048.14 3.46286 -0.16928 0
M  V30 10972 C 1047.2 4.11516 -1.22284 0
M  V30 10973 C 1046.43 5.29412 -0.675161 0
M  V30 10974 O 1046.66 5.68185 0.502182 0
M  V30 10975 O 1045.59 5.8467 -1.42983 0
M  V30 10976 H 1049.42 2.54723 -1.65378 0
M  V30 10977 H 1047 1.21607 -0.867879 0
M  V30 10978 H 1048.88 4.2114 0.14811 0
M  V30 10979 H 1047.56 3.15745 0.713214 0
M  V30 10980 H 1046.47 3.38492 -1.59292 0
M  V30 10981 H 1047.8 4.46186 -2.07796 0
M  V30 10982 N 1049.45 0.880621 1.30701 0
M  V30 10983 C 1050.38 0.288813 2.26365 0
M  V30 10984 C 1051.36 -0.588135 1.51591 0
M  V30 10985 O 1052.55 -0.539197 1.80624 0
M  V30 10986 C 1049.67 -0.590032 3.33521 0
M  V30 10987 C 1048.72 0.217003 4.25948 0
M  V30 10988 S 1049.55 1.60246 5.10961 0
M  V30 10989 C 1050.71 0.730023 6.21628 0
M  V30 10990 H 1050.94 1.09971 2.76213 0
M  V30 10991 H 1048.47 0.67978 1.3863 0
M  V30 10992 H 1050.43 -1.09136 3.95727 0
M  V30 10993 H 1049.09 -1.37498 2.82406 0
M  V30 10994 H 1048.29 -0.453481 5.01956 0
M  V30 10995 H 1047.89 0.650803 3.68294 0
M  V30 10996 H 1050.18 -0.0548644 6.77478 0
M  V30 10997 H 1051.12 1.46157 6.92852 0
M  V30 10998 H 1051.53 0.292854 5.6374 0
M  V30 10999 N 1050.93 -1.4397 0.641131 0
M  V30 11000 C 1051.86 -2.33458 -0.04446 0
M  V30 11001 C 1052.84 -1.48781 -0.824507 0
M  V30 11002 O 1054.03 -1.77477 -0.788397 0
M  V30 11003 C 1051.16 -3.31989 -1.01984 0
M  V30 11004 C 1050.11 -4.2656 -0.350745 0
M  V30 11005 C 1049.44 -5.15036 -1.43673 0
M  V30 11006 C 1050.74 -5.16897 0.749299 0
M  V30 11007 H 1052.43 -2.91034 0.702832 0
M  V30 11008 H 1049.98 -1.39942 0.339435 0
M  V30 11009 H 1051.93 -3.93483 -1.50828 0
M  V30 11010 H 1050.65 -2.72643 -1.79815 0
M  V30 11011 H 1049.31 -3.66413 0.117139 0
M  V30 11012 H 1048.96 -4.52037 -2.20617 0
M  V30 11013 H 1048.66 -5.79125 -0.994358 0
M  V30 11014 H 1050.18 -5.79403 -1.92678 0
M  V30 11015 H 1051.6 -5.7227 0.343534 0
M  V30 11016 H 1049.99 -5.89643 1.11541 0
M  V30 11017 H 1051.06 -4.5731 1.61232 0
M  V30 11018 N 1052.41 -0.382291 -1.52893 0
M  V30 11019 C 1053.34 0.491199 -2.23875 0
M  V30 11020 C 1054.35 1.03249 -1.25871 0
M  V30 11021 O 1055.54 0.936016 -1.5199 0
M  V30 11022 C 1052.64 1.6927 -2.936 0
M  V30 11023 C 1051.81 1.28 -4.18252 0
M  V30 11024 C 1050.87 2.34541 -4.71038 0
M  V30 11025 O 1049.9 1.96239 -5.34302 0
M  V30 11026 N 1051.1 3.6636 -4.50289 0
M  V30 11027 H 1053.87 -0.116897 -2.99472 0
M  V30 11028 H 1051.43 -0.208296 -1.60554 0
M  V30 11029 H 1053.42 2.40054 -3.25816 0
M  V30 11030 H 1051.99 2.20729 -2.21354 0
M  V30 11031 H 1051.21 0.40133 -3.92152 0
M  V30 11032 H 1052.5 0.98082 -4.99257 0
M  V30 11033 H 1051.9 4.00245 -3.99775 0
M  V30 11034 H 1050.45 4.332 -4.87013 0
M  V30 11035 N 1053.89 1.57202 -0.111913 0
M  V30 11036 C 1054.82 2.11995 0.871242 0
M  V30 11037 C 1055.83 1.06102 1.23475 0
M  V30 11038 O 1057.02 1.33497 1.18494 0
M  V30 11039 C 1054.12 2.59874 2.17528 0
M  V30 11040 C 1053.29 3.89788 1.98455 0
M  V30 11041 C 1052.35 4.23339 3.12523 0
M  V30 11042 O 1051.38 4.92277 2.85748 0
M  V30 11043 N 1052.58 3.80089 4.38762 0
M  V30 11044 H 1055.34 2.96976 0.403157 0
M  V30 11045 H 1052.91 1.61737 0.0727159 0
M  V30 11046 H 1054.9 2.79354 2.9282 0
M  V30 11047 H 1053.47 1.79812 2.55707 0
M  V30 11048 H 1052.69 3.79288 1.07396 0
M  V30 11049 H 1053.98 4.74748 1.83007 0
M  V30 11050 H 1053.37 3.24473 4.63394 0
M  V30 11051 H 1051.93 4.04691 5.10949 0
M  V30 11052 N 1055.36 -0.161842 1.56767 0
M  V30 11053 C 1056.31 -1.20506 1.93552 0
M  V30 11054 C 1057.3 -1.39317 0.804952 0
M  V30 11055 O 1058.49 -1.41129 1.06825 0
M  V30 11056 C 1055.62 -2.54227 2.30702 0
M  V30 11057 C 1054.7 -2.3907 3.50295 0
M  V30 11058 N 1055.1 -1.93642 4.67265 0
M  V30 11059 C 1053.39 -2.69868 3.55088 0
M  V30 11060 C 1054.09 -1.91175 5.49388 0
M  V30 11061 N 1053.07 -2.33935 4.90689 0
M  V30 11062 H 1056.87 -0.845687 2.8147 0
M  V30 11063 H 1054.39 -0.370034 1.58128 0
M  V30 11064 H 1056.38 -3.29623 2.55254 0
M  V30 11065 H 1055.04 -2.90959 1.44128 0
M  V30 11066 H 1056.05 -1.63834 4.91303 0
M  V30 11067 H 1052.73 -3.10574 2.79016 0
M  V30 11068 H 1054.12 -1.57671 6.53138 0
M  V30 11069 N 1056.84 -1.516 -0.430713 0
M  V30 11070 C 1058.07 -1.68414 -1.20185 0
M  V30 11071 C 1058.48 -0.384297 -1.84847 0
M  V30 11072 O 1057.84 0.637808 -1.70992 0
M  V30 11073 C 1057.89 -2.80451 -2.28099 0
M  V30 11074 O 1057.61 -4.05399 -1.66081 0
M  V30 11075 C 1059.11 -3.0859 -3.18256 0
M  V30 11076 H 1056.33 -0.564982 -0.361989 0
M  V30 11077 H 1058.88 -1.9805 -0.50954 0
M  V30 11078 H 1057.03 -2.53395 -2.93036 0
M  V30 11079 H 1057.45 -4.67671 -2.37453 0
M  V30 11080 H 1058.92 -3.9055 -3.90096 0
M  V30 11081 H 1059.4 -2.21264 -3.79393 0
M  V30 11082 H 1060 -3.37331 -2.59014 0
M  V30 11083 N 1058.32 0.686584 -1.41858 0
M  V30 11084 C 1059.57 1.44879 -1.41908 0
M  V30 11085 C 1059.9 1.94175 -0.0311408 0
M  V30 11086 O 1059.17 1.70131 0.942646 0
M  V30 11087 C 1059.46 2.65428 -2.43352 0
M  V30 11088 C 1059.31 2.2184 -3.91289 0
M  V30 11089 C 1060.63 3.67635 -2.41934 0
M  V30 11090 H 1057.75 0.525477 -0.516762 0
M  V30 11091 H 1060.39 0.781263 -1.73194 0
M  V30 11092 H 1058.54 3.2238 -2.16803 0
M  V30 11093 H 1060.21 1.70146 -4.28775 0
M  V30 11094 H 1058.45 1.53531 -4.05722 0
M  V30 11095 H 1059.13 3.08376 -4.5783 0
M  V30 11096 H 1061.6 3.20376 -2.65516 0
M  V30 11097 H 1060.48 4.49579 -3.14913 0
M  V30 11098 H 1060.74 4.17953 -1.44111 0
M  V30 11099 N 1059.8 1.27835 0.921735 0
M  V30 11100 C 1060.73 1.136 2.04003 0
M  V30 11101 C 1061.71 0.0358756 1.70062 0
M  V30 11102 O 1062.89 0.211438 1.93046 0
M  V30 11103 C 1060.02 0.788697 3.38226 0
M  V30 11104 C 1058.98 1.84272 3.863 0
M  V30 11105 C 1058.3 1.34923 5.17397 0
M  V30 11106 C 1059.6 3.24788 4.09035 0
M  V30 11107 H 1061.3 2.07149 2.1617 0
M  V30 11108 H 1058.84 0.997349 1.0387 0
M  V30 11109 H 1060.8 0.675911 4.15944 0
M  V30 11110 H 1059.52 -0.182499 3.2609 0
M  V30 11111 H 1058.18 1.94451 3.1078 0
M  V30 11112 H 1057.83 0.367328 5.01657 0
M  V30 11113 H 1057.53 2.05397 5.50532 0
M  V30 11114 H 1059.05 1.24951 5.97678 0
M  V30 11115 H 1060.47 3.17575 4.77304 0
M  V30 11116 H 1058.86 3.93025 4.53488 0
M  V30 11117 H 1059.93 3.69398 3.14122 0
M  V30 11118 N 1061.28 -1.12907 1.09954 0
M  V30 11119 C 1062.21 -2.18194 0.701701 0
M  V30 11120 C 1063.22 -1.60724 -0.259131 0
M  V30 11121 O 1064.41 -1.78445 -0.0443549 0
M  V30 11122 C 1061.51 -3.38897 0.0140602 0
M  V30 11123 C 1060.68 -4.25867 0.997807 0
M  V30 11124 C 1059.74 -5.25084 0.34257 0
M  V30 11125 O 1058.77 -5.60492 0.991857 0
M  V30 11126 N 1059.97 -5.73464 -0.901058 0
M  V30 11127 H 1062.73 -2.52939 1.60755 0
M  V30 11128 H 1060.3 -1.28281 0.987703 0
M  V30 11129 H 1062.29 -4.02349 -0.435628 0
M  V30 11130 H 1060.86 -3.02345 -0.794118 0
M  V30 11131 H 1060.08 -3.59107 1.6259 0
M  V30 11132 H 1061.37 -4.80825 1.66388 0
M  V30 11133 H 1060.76 -5.46854 -1.44802 0
M  V30 11134 H 1059.32 -6.38827 -1.29398 0
M  V30 11135 N 1062.75 -0.88754 -1.30232 0
M  V30 11136 C 1064 -0.506277 -1.95656 0
M  V30 11137 C 1064.32 0.948191 -1.70395 0
M  V30 11138 O 1063.59 1.66701 -1.02895 0
M  V30 11139 H 1062.17 -0.184235 -0.723924 0
M  V30 11140 H 1064.83 -1.13118 -1.58715 0
M  V30 11141 H 1063.93 -0.678673 -3.04632 0
M  V30 11142 N 1064.23 1.43628 -0.648757 0
M  V30 11143 C 1065.16 2.29045 0.0841858 0
M  V30 11144 C 1066.18 1.42262 0.791537 0
M  V30 11145 O 1067.37 1.66243 0.650039 0
M  V30 11146 C 1064.47 3.19075 1.14212 0
M  V30 11147 C 1063.64 4.34372 0.513799 0
M  V30 11148 C 1062.7 5.05307 1.46803 0
M  V30 11149 O 1061.72 5.60729 0.978346 0
M  V30 11150 N 1062.93 5.08393 2.80209 0
M  V30 11151 H 1065.69 2.9259 -0.648948 0
M  V30 11152 H 1063.25 1.54268 -0.491209 0
M  V30 11153 H 1065.24 3.63395 1.78119 0
M  V30 11154 H 1063.81 2.57161 1.77728 0
M  V30 11155 H 1063.03 3.93024 -0.304262 0
M  V30 11156 H 1064.32 5.08745 0.0749871 0
M  V30 11157 H 1063.72 4.64729 3.22557 0
M  V30 11158 H 1062.28 5.56445 3.3943 0
M  V30 11159 N 1065.71 0.390394 1.52688 0
M  V30 11160 C 1067.13 0.0404028 1.59549 0
M  V30 11161 C 1067.33 -1.44503 1.40432 0
M  V30 11162 O 1066.38 -2.20968 1.22187 0
M  V30 11163 C 1067.7 0.518561 2.96195 0
M  V30 11164 C 1069.24 0.474913 3.09376 0
M  V30 11165 C 1069.72 0.929278 4.48473 0
M  V30 11166 N 1071.21 0.885335 4.5466 0
M  V30 11167 C 1071.94 1.2083 5.60524 0
M  V30 11168 N 1071.44 1.6018 6.74028 0
M  V30 11169 N 1073.23 1.12949 5.50635 0
M  V30 11170 H 1065.38 1.35743 1.63363 0
M  V30 11171 H 1067.65 0.556453 0.767505 0
M  V30 11172 H 1067.35 1.55606 3.15404 0
M  V30 11173 H 1067.23 -0.081779 3.77111 0
M  V30 11174 H 1069.61 -0.553503 2.89863 0
M  V30 11175 H 1069.7 1.11107 2.3041 0
M  V30 11176 H 1069.34 1.95593 4.68728 0
M  V30 11177 H 1069.27 0.270121 5.25907 0
M  V30 11178 H 1071.76 0.595787 3.73174 0
M  V30 11179 H 1072.07 1.83184 7.50775 0
M  V30 11180 H 1070.42 1.64067 6.75357 0
M  V30 11181 H 1073.61 0.821074 4.60843 0
M  V30 11182 H 1073.78 1.3845 6.33037 0
M  V30 11183 N 1067.19 -1.57141 0.120249 0
M  V30 11184 C 1068.12 -2.18398 -0.826112 0
M  V30 11185 C 1069.1 -1.12439 -1.27638 0
M  V30 11186 O 1070.28 -1.40679 -1.33877 0
M  V30 11187 C 1067.41 -2.78438 -2.0758 0
M  V30 11188 C 1066.37 -3.89991 -1.76327 0
M  V30 11189 C 1065.69 -4.36844 -3.08336 0
M  V30 11190 C 1066.99 -5.12031 -1.03062 0
M  V30 11191 H 1068.69 -2.97731 -0.315656 0
M  V30 11192 H 1066.23 -1.43213 -0.150387 0
M  V30 11193 H 1068.19 -3.19951 -2.74243 0
M  V30 11194 H 1066.91 -1.96396 -2.60953 0
M  V30 11195 H 1065.57 -3.49055 -1.12053 0
M  V30 11196 H 1065.22 -3.51659 -3.59646 0
M  V30 11197 H 1064.92 -5.1207 -2.88199 0
M  V30 11198 H 1066.44 -4.81009 -3.76116 0
M  V30 11199 H 1067.86 -5.50555 -1.59881 0
M  V30 11200 H 1066.25 -5.92848 -0.930146 0
M  V30 11201 H 1067.32 -4.84897 -0.017582 0
M  V30 11202 N 1068.67 0.153526 -1.5685 0
M  V30 11203 C 1069.92 0.865628 -1.82181 0
M  V30 11204 C 1070.23 1.82629 -0.700434 0
M  V30 11205 O 1071.43 2.58206 -0.839155 0
M  V30 11206 C 1069.89 1.58993 -3.22877 0
M  V30 11207 C 1069.5 0.672006 -4.42931 0
M  V30 11208 C 1071.24 2.2892 -3.57486 0
M  V30 11209 C 1069.15 1.39755 -5.7465 0
M  V30 11210 H 1068.08 0.326993 -0.679406 0
M  V30 11211 H 1070.73 0.118403 -1.83118 0
M  V30 11212 H 1069.11 2.38255 -3.16308 0
M  V30 11213 H 1070.29 -0.0849226 -4.60722 0
M  V30 11214 H 1068.6 0.0814825 -4.1632 0
M  V30 11215 H 1071.2 2.8383 -4.5315 0
M  V30 11216 H 1071.54 3.05105 -2.83226 0
M  V30 11217 H 1072.07 1.56583 -3.65686 0
M  V30 11218 H 1068.81 0.677686 -6.51987 0
M  V30 11219 H 1068.33 2.12736 -5.60806 0
M  V30 11220 H 1070.01 1.94024 -6.17223 0
M  V30 11221 N 1070.14 1.51827 0.422667 0
M  V30 11222 C 1071.11 1.7359 1.49663 0
M  V30 11223 C 1072.11 0.605811 1.48952 0
M  V30 11224 O 1073.3 0.87354 1.50715 0
M  V30 11225 C 1070.43 1.80585 2.8914 0
M  V30 11226 H 1071.62 2.69453 1.31664 0
M  V30 11227 H 1069.18 1.42038 0.652298 0
M  V30 11228 H 1069.91 0.865895 3.12526 0
M  V30 11229 H 1069.7 2.62729 2.9106 0
M  V30 11230 H 1071.19 1.99212 3.67021 0
M  V30 11231 N 1071.62 -0.679052 1.4222 0
M  V30 11232 C 1073.03 -1.25953 1.37815 0
M  V30 11233 C 1073.38 -1.96077 0.0693215 0
M  V30 11234 O 1072.51 -1.99765 -0.832047 0
M  V30 11235 C 1073.1 -2.29063 2.49631 0
M  V30 11236 C 1071.66 -2.82647 2.48571 0
M  V30 11237 C 1070.81 -1.56909 2.28637 0
M  V30 11238 H 1073.76 -0.472714 1.51496 0
M  V30 11239 H 1073.78 -3.10708 2.19638 0
M  V30 11240 H 1073.29 -1.77996 3.44876 0
M  V30 11241 H 1071.4 -3.37846 1.57132 0
M  V30 11242 H 1071.51 -3.31952 3.45463 0
M  V30 11243 H 1069.87 -1.83323 1.76819 0
M  V30 11244 H 1070.66 -1.07814 3.25931 0
M  V30 11245 N 1073.1 -1.28322 -0.914942 0
M  V30 11246 C 1074.03 -1.07947 -2.02188 0
M  V30 11247 C 1075.05 -0.0315743 -1.62769 0
M  V30 11248 O 1076.23 -0.274503 -1.76377 0
M  V30 11249 C 1073.33 -0.61805 -3.33217 0
M  V30 11250 C 1072.51 -1.74109 -4.01254 0
M  V30 11251 C 1071.57 -1.27325 -5.10563 0
M  V30 11252 O 1070.59 -1.97526 -5.33828 0
M  V30 11253 N 1071.79 -0.1358 -5.80341 0
M  V30 11254 H 1074.56 -2.03275 -2.20225 0
M  V30 11255 H 1072.12 -1.20059 -1.08616 0
M  V30 11256 H 1074.11 -0.288693 -4.03669 0
M  V30 11257 H 1072.68 0.242348 -3.11659 0
M  V30 11258 H 1071.9 -2.2401 -3.24366 0
M  V30 11259 H 1073.19 -2.49448 -4.43456 0
M  V30 11260 H 1072.59 0.449846 -5.63909 0
M  V30 11261 H 1071.15 0.134289 -6.51662 0
M  V30 11262 N 1074.58 1.12322 -1.10551 0
M  V30 11263 C 1075.81 1.87679 -0.87087 0
M  V30 11264 C 1076.22 1.79711 0.578733 0
M  V30 11265 O 1075.58 1.17185 1.39907 0
M  V30 11266 C 1075.63 3.36846 -1.31213 0
M  V30 11267 O 1075.35 3.44626 -2.70489 0
M  V30 11268 C 1076.85 4.29138 -1.11156 0
M  V30 11269 H 1074.07 0.593788 -0.3125 0
M  V30 11270 H 1076.62 1.42116 -1.47048 0
M  V30 11271 H 1074.77 3.79948 -0.756169 0
M  V30 11272 H 1075.18 4.37441 -2.89389 0
M  V30 11273 H 1076.66 5.32082 -1.46944 0
M  V30 11274 H 1077.14 4.39171 -0.0502963 0
M  V30 11275 H 1077.74 3.91818 -1.65405 0
M  V30 11276 N 1076.06 0.894434 1.2976 0
M  V30 11277 C 1076.99 0.3847 2.30309 0
M  V30 11278 C 1077.97 -0.537486 1.61385 0
M  V30 11279 O 1079.15 -0.449332 1.8893 0
M  V30 11280 C 1076.28 -0.393311 3.45066 0
M  V30 11281 C 1075.24 0.437968 4.25753 0
M  V30 11282 C 1074.56 -0.467221 5.32655 0
M  V30 11283 C 1075.86 1.6851 4.9437 0
M  V30 11284 H 1077.56 1.22496 2.73194 0
M  V30 11285 H 1075.1 0.590471 1.31337 0
M  V30 11286 H 1077.06 -0.760614 4.14479 0
M  V30 11287 H 1075.78 -1.2673 3.0101 0
M  V30 11288 H 1074.44 0.787533 3.58041 0
M  V30 11289 H 1074.09 -1.33919 4.84845 0
M  V30 11290 H 1073.79 0.0852482 5.87538 0
M  V30 11291 H 1075.31 -0.830833 6.04921 0
M  V30 11292 H 1076.72 1.38784 5.56248 0
M  V30 11293 H 1075.12 2.17849 5.59162 0
M  V30 11294 H 1076.19 2.42412 4.19958 0
M  V30 11295 N 1077.53 -1.43282 0.656365 0
M  V30 11296 C 1078.48 -2.32556 -0.0452037 0
M  V30 11297 C 1079.48 -1.48789 -0.80982 0
M  V30 11298 O 1080.68 -1.64979 -0.719865 0
M  V30 11299 H 1077.06 -0.751258 -0.0334043 0
M  V30 11300 H 1079.03 -2.89448 0.725423 0
M  V30 11301 C 1077.78 -3.33138 -0.995706 0
M  V30 11302 H 1077.1 -3.97622 -0.416774 0
M  V30 11303 H 1078.54 -3.98231 -1.45562 0
M  V30 11304 C 1077 -2.63978 -2.09325 0
M  V30 11305 O 1077.53 -2.45769 -3.17743 0
M  V30 11306 N 1075.74 -2.23301 -1.8597 0
M  V30 11307 H 1075.28 -2.38312 -0.97802 0
M  V30 11308 H 1075.24 -1.77358 -2.59599 0
M  V30 11309 N 1079.01 -0.398486 -1.52479 0
M  V30 11310 C 1079.94 0.423498 -2.29627 0
M  V30 11311 C 1080.92 1.05547 -1.33394 0
M  V30 11312 O 1082.11 1.0665 -1.62294 0
M  V30 11313 C 1079.24 1.54612 -3.10986 0
M  V30 11314 C 1078.19 1.03971 -4.15179 0
M  V30 11315 C 1077.52 2.25512 -4.84818 0
M  V30 11316 C 1078.82 0.10121 -5.22202 0
M  V30 11317 H 1080.51 -0.220222 -2.98589 0
M  V30 11318 H 1078.06 -0.107355 -1.43599 0
M  V30 11319 H 1080.01 2.12806 -3.63719 0
M  V30 11320 H 1078.74 2.21756 -2.39774 0
M  V30 11321 H 1077.4 0.480251 -3.63441 0
M  V30 11322 H 1077.04 2.91187 -4.10145 0
M  V30 11323 H 1076.74 1.92285 -5.55248 0
M  V30 11324 H 1078.27 2.84331 -5.40359 0
M  V30 11325 H 1079.68 0.591617 -5.70239 0
M  V30 11326 H 1078.08 -0.141737 -5.99933 0
M  V30 11327 H 1079.15 -0.847216 -4.77441 0
M  V30 11328 N 1080.49 1.57075 -0.12858 0
M  V30 11329 C 1081.72 1.99876 0.534544 0
M  V30 11330 C 1082.13 1.00843 1.59612 0
M  V30 11331 O 1081.49 0.00268947 1.825 0
M  V30 11332 C 1081.54 3.42654 1.15198 0
M  V30 11333 O 1081.26 4.37899 0.132823 0
M  V30 11334 C 1082.76 4.00637 1.8975 0
M  V30 11335 H 1079.98 0.656073 0.140744 0
M  V30 11336 H 1082.53 2.03337 -0.217742 0
M  V30 11337 H 1080.68 3.40101 1.85499 0
M  V30 11338 H 1081.1 5.21253 0.582682 0
M  V30 11339 H 1082.57 5.02592 2.28266 0
M  V30 11340 H 1083.05 3.40313 2.7764 0
M  V30 11341 H 1083.65 4.06764 1.2419 0
M  V30 11342 N 1081.97 -0.145205 1.5693 0
M  V30 11343 C 1082.93 -1.16316 1.97492 0
M  V30 11344 C 1083.93 -1.35764 0.861668 0
M  V30 11345 O 1085.12 -1.32726 1.12825 0
M  V30 11346 C 1082.25 -2.52311 2.29242 0
M  V30 11347 H 1083.45 -0.815138 2.8861 0
M  V30 11348 H 1081 -0.38861 1.51392 0
M  V30 11349 H 1081.74 -2.92081 1.40922 0
M  V30 11350 H 1081.52 -2.39555 3.10412 0
M  V30 11351 H 1083.01 -3.25624 2.61456 0
M  V30 11352 N 1083.45 -1.52049 -0.414609 0
M  V30 11353 C 1084.69 -1.66084 -1.16379 0
M  V30 11354 C 1085.03 -0.386932 -1.90306 0
M  V30 11355 O 1084.3 0.614441 -1.8454 0
M  V30 11356 C 1084.58 -2.87927 -2.16264 0
M  V30 11357 C 1084.44 -4.25353 -1.46269 0
M  V30 11358 C 1085.76 -3.05289 -3.16996 0
M  V30 11359 H 1082.88 -0.604414 -0.421726 0
M  V30 11360 H 1085.52 -1.8459 -0.450177 0
M  V30 11361 H 1083.67 -2.7228 -2.77121 0
M  V30 11362 H 1085.34 -4.52717 -0.885743 0
M  V30 11363 H 1083.58 -4.27006 -0.76472 0
M  V30 11364 H 1084.25 -5.06644 -2.19126 0
M  V30 11365 H 1086.73 -3.19798 -2.66212 0
M  V30 11366 H 1085.61 -3.92065 -3.84156 0
M  V30 11367 H 1085.87 -2.1836 -3.84411 0
M  V30 11368 N 1084.93 0.6715 -1.42579 0
M  V30 11369 C 1085.87 1.80623 -1.46554 0
M  V30 11370 C 1086.87 1.65934 -0.340932 0
M  V30 11371 O 1088.07 1.72502 -0.514098 0
M  V30 11372 H 1084.45 0.595619 -0.459067 0
M  V30 11373 H 1086.42 1.74388 -2.42139 0
M  V30 11374 C 1085.17 3.18794 -1.38801 0
M  V30 11375 H 1084.49 3.30725 -2.24635 0
M  V30 11376 H 1085.93 3.98201 -1.45645 0
M  V30 11377 C 1084.39 3.36742 -0.103219 0
M  V30 11378 O 1084.92 3.92761 0.842715 0
M  V30 11379 N 1083.13 2.90594 -0.0193034 0
M  V30 11380 H 1082.67 2.45192 -0.78986 0
M  V30 11381 H 1082.63 3.0298 0.839686 0
M  V30 11382 N 1086.4 1.28806 0.908124 0
M  V30 11383 C 1087.31 1.15079 2.04436 0
M  V30 11384 C 1088.33 0.076012 1.73834 0
M  V30 11385 O 1089.51 0.286421 1.99353 0
M  V30 11386 C 1086.57 0.819733 3.3687 0
M  V30 11387 C 1085.63 1.97746 3.81045 0
M  V30 11388 C 1084.86 1.66211 5.07158 0
M  V30 11389 O 1085.09 0.579092 5.67453 0
M  V30 11390 O 1084.02 2.5075 5.47182 0
M  V30 11391 H 1087.85 2.10477 2.18937 0
M  V30 11392 H 1085.43 1.08177 1.03044 0
M  V30 11393 H 1087.31 0.649304 4.16368 0
M  V30 11394 H 1085.99 -0.10454 3.23531 0
M  V30 11395 H 1084.9 2.20308 3.02349 0
M  V30 11396 H 1086.23 2.88264 3.98955 0
M  V30 11397 N 1087.88 -1.11734 1.11145 0
M  V30 11398 C 1088.84 -2.15868 0.770303 0
M  V30 11399 C 1089.84 -1.59438 -0.208842 0
M  V30 11400 O 1091.03 -1.74193 0.0152516 0
M  V30 11401 C 1088.17 -3.40603 0.142303 0
M  V30 11402 H 1089.36 -2.4756 1.69276 0
M  V30 11403 H 1086.91 -1.26867 0.912929 0
M  V30 11404 H 1087.65 -3.14517 -0.790526 0
M  V30 11405 H 1087.43 -3.8284 0.847087 0
M  V30 11406 H 1088.92 -4.17523 -0.0803608 0
M  V30 11407 N 1089.36 -0.901303 -1.29284 0
M  V30 11408 C 1090.61 -0.528826 -1.95784 0
M  V30 11409 C 1090.94 0.922833 -1.70873 0
M  V30 11410 O 1090.21 1.65448 -1.0226 0
M  V30 11411 C 1090.5 -0.823793 -3.50551 0
M  V30 11412 C 1090.35 -2.32727 -3.84913 0
M  V30 11413 C 1091.67 -0.311382 -4.38997 0
M  V30 11414 H 1088.79 -0.193604 -0.711116 0
M  V30 11415 H 1091.43 -1.12828 -1.52872 0
M  V30 11416 H 1089.58 -0.313612 -3.87232 0
M  V30 11417 H 1091.25 -2.90712 -3.58168 0
M  V30 11418 H 1089.49 -2.78735 -3.32399 0
M  V30 11419 H 1090.17 -2.48423 -4.9294 0
M  V30 11420 H 1092.64 -0.748265 -4.09317 0
M  V30 11421 H 1091.52 -0.546957 -5.46168 0
M  V30 11422 H 1091.78 0.787959 -4.35021 0
M  V30 11423 N 1090.84 1.42931 -0.663954 0
M  V30 11424 C 1091.77 2.33499 0.00731327 0
M  V30 11425 C 1092.75 1.50074 0.800733 0
M  V30 11426 O 1093.93 1.78708 0.760062 0
M  V30 11427 C 1091.06 3.33569 0.966897 0
M  V30 11428 C 1090.02 4.27064 0.282839 0
M  V30 11429 C 1089.34 5.17257 1.35461 0
M  V30 11430 C 1090.64 5.1564 -0.831438 0
M  V30 11431 H 1092.34 2.89879 -0.749044 0
M  V30 11432 H 1089.88 1.39385 -0.361656 0
M  V30 11433 H 1091.84 3.95833 1.44549 0
M  V30 11434 H 1090.56 2.75469 1.75455 0
M  V30 11435 H 1089.22 3.6618 -0.175417 0
M  V30 11436 H 1088.87 4.5549 2.13397 0
M  V30 11437 H 1088.57 5.80634 0.902098 0
M  V30 11438 H 1090.09 5.82395 1.83436 0
M  V30 11439 H 1091.51 5.71651 -0.434534 0
M  V30 11440 H 1089.9 5.87794 -1.20908 0
M  V30 11441 H 1090.97 4.54687 -1.68487 0
M  V30 11442 N 1092.32 0.406567 1.52266 0
M  V30 11443 C 1093.56 -0.171391 2.00971 0
M  V30 11444 C 1093.88 -1.46443 1.29668 0
M  V30 11445 O 1095.08 -2.12348 1.69176 0
M  V30 11446 C 1093.54 -0.35599 3.58135 0
M  V30 11447 C 1093.15 0.924803 4.38351 0
M  V30 11448 C 1094.89 -0.889378 4.15079 0
M  V30 11449 C 1092.8 0.707534 5.87152 0
M  V30 11450 H 1091.73 -0.0678253 0.750943 0
M  V30 11451 H 1094.38 0.531619 1.7563 0
M  V30 11452 H 1092.76 -1.12127 3.79794 0
M  V30 11453 H 1093.94 1.69603 4.28452 0
M  V30 11454 H 1092.25 1.38442 3.92712 0
M  V30 11455 H 1094.85 -1.06792 5.23927 0
M  V30 11456 H 1095.19 -1.86334 3.7227 0
M  V30 11457 H 1095.72 -0.183224 3.97378 0
M  V30 11458 H 1092.46 1.65299 6.34316 0
M  V30 11459 H 1091.98 -0.024446 5.99795 0
M  V30 11460 H 1093.66 0.348721 6.4606 0
M  V30 11461 N 1093.79 -1.57004 0.136909 0
M  V30 11462 C 1094.7 -2.19807 -0.819887 0
M  V30 11463 C 1095.72 -1.17939 -1.27932 0
M  V30 11464 O 1096.9 -1.50478 -1.3386 0
M  V30 11465 C 1093.96 -2.79935 -2.04542 0
M  V30 11466 C 1093.02 -3.96897 -1.6362 0
M  V30 11467 C 1092.26 -4.54148 -2.80331 0
M  V30 11468 O 1092.48 -4.10282 -3.96264 0
M  V30 11469 O 1091.41 -5.44565 -2.56384 0
M  V30 11470 H 1095.24 -3.02058 -0.315337 0
M  V30 11471 H 1092.82 -1.49131 -0.0896151 0
M  V30 11472 H 1094.71 -3.18191 -2.76283 0
M  V30 11473 H 1093.38 -2.00703 -2.53969 0
M  V30 11474 H 1092.29 -3.63376 -0.889316 0
M  V30 11475 H 1093.62 -4.77618 -1.18918 0
M  V30 11476 N 1095.27 0.136881 -1.57004 0
M  V30 11477 C 1096.22 1.18782 -1.99984 0
M  V30 11478 C 1097.21 1.43899 -0.893841 0
M  V30 11479 O 1098.42 1.44072 -1.07904 0
M  V30 11480 H 1094.8 0.400065 -0.636751 0
M  V30 11481 H 1096.77 0.798696 -2.87512 0
M  V30 11482 C 1095.52 2.51105 -2.40502 0
M  V30 11483 H 1094.84 2.32611 -3.25165 0
M  V30 11484 H 1096.28 3.23244 -2.74389 0
M  V30 11485 C 1094.74 3.12386 -1.26161 0
M  V30 11486 O 1095.27 3.97666 -0.567836 0
M  V30 11487 N 1093.47 2.71989 -1.02326 0
M  V30 11488 H 1093.02 2.02736 -1.58921 0
M  V30 11489 H 1092.98 3.13322 -0.26013 0
M  V30 11490 N 1096.75 1.52266 0.40654 0
M  V30 11491 C 1097.68 1.78755 1.50229 0
M  V30 11492 C 1098.66 0.638652 1.57655 0
M  V30 11493 O 1099.85 0.884505 1.72888 0
M  V30 11494 C 1096.98 1.94057 2.88026 0
M  V30 11495 C 1095.93 3.09667 2.95449 0
M  V30 11496 C 1095.26 3.10196 4.35526 0
M  V30 11497 C 1096.56 4.49077 2.66697 0
M  V30 11498 H 1098.25 2.70511 1.28313 0
M  V30 11499 H 1095.8 1.30167 0.615836 0
M  V30 11500 H 1097.75 2.11171 3.64671 0
M  V30 11501 H 1096.47 0.989755 3.11242 0
M  V30 11502 H 1095.13 2.92308 2.2125 0
M  V30 11503 H 1094.78 2.12831 4.55754 0
M  V30 11504 H 1094.48 3.87847 4.41416 0
M  V30 11505 H 1096 3.29443 5.14101 0
M  V30 11506 H 1097.42 4.66628 3.33064 0
M  V30 11507 H 1095.82 5.28665 2.8396 0
M  V30 11508 H 1096.89 4.56995 1.62122 0
M  V30 11509 N 1098.23 -0.663929 1.42933 0
M  V30 11510 C 1099.14 -1.80643 1.49683 0
M  V30 11511 C 1100.15 -1.69694 0.38472 0
M  V30 11512 O 1101.33 -1.91052 0.637256 0
M  V30 11513 C 1098.4 -3.16858 1.4072 0
M  V30 11514 C 1097.46 -3.39684 2.62514 0
M  V30 11515 C 1096.69 -4.69399 2.53969 0
M  V30 11516 O 1096.91 -5.48037 1.58152 0
M  V30 11517 O 1095.85 -4.93709 3.44289 0
M  V30 11518 H 1099.67 -1.77903 2.46138 0
M  V30 11519 H 1097.26 -0.821059 1.24816 0
M  V30 11520 H 1099.14 -3.9812 1.38124 0
M  V30 11521 H 1097.81 -3.20211 0.473954 0
M  V30 11522 H 1096.72 -2.58227 2.70684 0
M  V30 11523 H 1098.05 -3.41169 3.54774 0
M  V30 11524 N 1099.71 -1.29285 -0.901281 0
M  V30 11525 C 1100.96 -1.16538 -1.64626 0
M  V30 11526 C 1101.27 0.282623 -1.93547 0
M  V30 11527 O 1102.47 0.531396 -2.66249 0
M  V30 11528 C 1100.93 -2.03809 -2.96631 0
M  V30 11529 C 1100.54 -3.53423 -2.75311 0
M  V30 11530 C 1102.28 -1.99782 -3.7455 0
M  V30 11531 C 1100.19 -4.32804 -4.03032 0
M  V30 11532 H 1099.12 -0.432561 -0.617581 0
M  V30 11533 H 1101.77 -1.53912 -0.999159 0
M  V30 11534 H 1100.15 -1.59302 -3.62545 0
M  V30 11535 H 1101.33 -4.05971 -2.18 0
M  V30 11536 H 1099.64 -3.59106 -2.10789 0
M  V30 11537 H 1102.24 -2.5635 -4.69243 0
M  V30 11538 H 1102.58 -0.97743 -4.04663 0
M  V30 11539 H 1103.11 -2.42324 -3.15474 0
M  V30 11540 H 1099.85 -5.35473 -3.78086 0
M  V30 11541 H 1099.37 -3.85025 -4.59909 0
M  V30 11542 H 1101.05 -4.43383 -4.71191 0
M  V30 11543 N 1101.18 1.11143 -1.11736 0
M  V30 11544 C 1102.43 1.82948 -0.868127 0
M  V30 11545 C 1102.76 1.84813 0.606182 0
M  V30 11546 O 1102.01 1.29901 1.4637 0
M  V30 11547 C 1102.31 3.29733 -1.3788 0
M  V30 11548 C 1101.98 3.48025 -2.86687 0
M  V30 11549 C 1100.64 3.52725 -3.2732 0
M  V30 11550 C 1102.99 3.54024 -3.82513 0
M  V30 11551 C 1100.32 3.60983 -4.62502 0
M  V30 11552 C 1102.67 3.63814 -5.17515 0
M  V30 11553 C 1101.34 3.66776 -5.57702 0
M  V30 11554 H 1100.61 0.669452 -0.31767 0
M  V30 11555 H 1103.25 1.31057 -1.3963 0
M  V30 11556 H 1101.56 3.8414 -0.77093 0
M  V30 11557 H 1103.26 3.83787 -1.16225 0
M  V30 11558 H 1099.85 3.45039 -2.54256 0
M  V30 11559 H 1104.03 3.4965 -3.52219 0
M  V30 11560 H 1099.29 3.61554 -4.9304 0
M  V30 11561 H 1103.46 3.674 -5.916 0
M  V30 11562 H 1101.09 3.72927 -6.62442 0
M  V30 11563 N 1102.66 0.908147 1.28804 0
M  V30 11564 C 1104.08 0.605474 1.47669 0
M  V30 11565 C 1104.28 -0.850759 1.82659 0
M  V30 11566 O 1103.33 -1.63029 1.92816 0
M  V30 11567 C 1104.65 1.53856 2.58358 0
M  V30 11568 C 1106.2 1.54467 2.7223 0
M  V30 11569 C 1106.67 2.46424 3.86056 0
M  V30 11570 N 1108.16 2.44519 3.93402 0
M  V30 11571 C 1108.9 3.12371 4.80845 0
M  V30 11572 N 1108.39 3.89533 5.72919 0
M  V30 11573 N 1110.19 3.01486 4.74407 0
M  V30 11574 H 1102.34 1.84988 1.04371 0
M  V30 11575 H 1104.6 0.793132 0.519274 0
M  V30 11576 H 1104.31 2.57651 2.39393 0
M  V30 11577 H 1104.18 1.26543 3.5534 0
M  V30 11578 H 1106.57 0.514127 2.90587 0
M  V30 11579 H 1106.65 1.85821 1.75796 0
M  V30 11580 H 1106.29 3.49577 3.68454 0
M  V30 11581 H 1106.22 2.12375 4.81876 0
M  V30 11582 H 1108.71 1.88464 3.27551 0
M  V30 11583 H 1109.03 4.3834 6.36457 0
M  V30 11584 H 1107.37 3.93639 5.72777 0
M  V30 11585 H 1110.56 2.40713 4.01466 0
M  V30 11586 H 1110.73 3.5464 5.42342 0
M  V30 11587 N 1104.14 -1.42577 0.671525 0
M  V30 11588 C 1105.09 -2.30798 -0.00883676 0
M  V30 11589 C 1106.06 -1.4578 -0.796076 0
M  V30 11590 O 1107.24 -1.74617 -0.768987 0
M  V30 11591 C 1104.38 -3.31581 -0.956452 0
M  V30 11592 C 1103.5 -4.31691 -0.163381 0
M  V30 11593 C 1102.63 -5.19549 -1.10645 0
M  V30 11594 C 1101.67 -6.1134 -0.304876 0
M  V30 11595 N 1100.81 -6.91761 -1.20048 0
M  V30 11596 H 1105.65 -2.88426 0.749301 0
M  V30 11597 H 1103.18 -1.42074 0.381251 0
M  V30 11598 H 1105.14 -3.88539 -1.51966 0
M  V30 11599 H 1103.77 -2.75561 -1.68126 0
M  V30 11600 H 1102.82 -3.76879 0.516396 0
M  V30 11601 H 1104.14 -4.96683 0.459099 0
M  V30 11602 H 1103.29 -5.81223 -1.73969 0
M  V30 11603 H 1102.03 -4.54726 -1.76282 0
M  V30 11604 H 1101.03 -5.48738 0.341597 0
M  V30 11605 H 1102.26 -6.78211 0.347352 0
M  V30 11606 H 1100.2 -6.2957 -1.84331 0
M  V30 11607 H 1100.12 -7.53345 -0.633003 0
M  V30 11608 H 1101.39 -7.57924 -1.82129 0
M  V30 11609 N 1105.62 -0.414636 -1.52048 0
M  V30 11610 C 1106.57 0.422766 -2.28726 0
M  V30 11611 C 1107.56 1.04099 -1.3364 0
M  V30 11612 O 1108.77 0.978559 -1.51077 0
M  V30 11613 H 1105.14 0.155123 -0.735827 0
M  V30 11614 H 1107.11 -0.245091 -2.97392 0
M  V30 11615 C 1105.86 1.52418 -3.12513 0
M  V30 11616 H 1105.18 1.05781 -3.85552 0
M  V30 11617 H 1106.62 2.08382 -3.6926 0
M  V30 11618 C 1105.08 2.49465 -2.26426 0
M  V30 11619 O 1105.61 3.53479 -1.90829 0
M  V30 11620 N 1103.82 2.19806 -1.90088 0
M  V30 11621 H 1103.37 1.35253 -2.19236 0
M  V30 11622 H 1103.32 2.84984 -1.32783 0
M  V30 11623 N 1107.1 1.56929 -0.145233 0
M  V30 11624 C 1108.34 1.95681 0.50532 0
M  V30 11625 C 1108.67 1.03098 1.65516 0
M  V30 11626 O 1107.94 0.0921961 1.95683 0
M  V30 11627 H 1106.52 0.72252 0.189668 0
M  V30 11628 H 1109.18 1.93651 -0.220318 0
M  V30 11629 H 1108.27 2.99359 0.882631 0
M  V30 11630 N 1108.58 -0.128553 1.57075 0
M  V30 11631 C 1109.82 -0.83801 1.84347 0
M  V30 11632 C 1110.15 -1.80325 0.728906 0
M  V30 11633 O 1109.41 -1.93678 -0.280571 0
M  V30 11634 C 1109.7 -1.63027 3.18052 0
M  V30 11635 C 1109.37 -0.810171 4.43562 0
M  V30 11636 C 1108.03 -0.583984 4.77643 0
M  V30 11637 C 1110.38 -0.237896 5.20657 0
M  V30 11638 C 1107.71 0.224887 5.86269 0
M  V30 11639 C 1110.06 0.558114 6.30133 0
M  V30 11640 C 1108.73 0.794706 6.62752 0
M  V30 11641 H 1108 -0.30665 0.674572 0
M  V30 11642 H 1110.65 -0.100797 1.91235 0
M  V30 11643 H 1108.95 -2.43812 3.06697 0
M  V30 11644 H 1110.65 -2.183 3.36372 0
M  V30 11645 H 1107.24 -0.996547 4.16854 0
M  V30 11646 H 1111.42 -0.399881 4.94686 0
M  V30 11647 H 1106.68 0.417507 6.09973 0
M  V30 11648 H 1110.85 1.00859 6.89058 0
M  V30 11649 H 1108.48 1.42331 7.46757 0
M  V30 11650 N 1110.05 -1.5248 -0.398459 0
M  V30 11651 C 1111.33 -1.57634 -1.15805 0
M  V30 11652 C 1111.71 -0.363785 -2.07942 0
M  V30 11653 O 1111.06 0.648598 -2.19101 0
M  V30 11654 C 1111.27 -2.91042 -1.92602 0
M  V30 11655 C 1112.62 -3.44433 -2.48296 0
M  V30 11656 O 1113.64 -2.92853 -2.0277 0
M  V30 11657 O 1112.5 -4.34529 -3.31432 0
M  V30 11658 H 1109.59 -0.63539 -0.529347 0
M  V30 11659 H 1112.14 -1.64812 -0.404376 0
M  V30 11660 H 1110.91 -3.7074 -1.25169 0
M  V30 11661 H 1110.53 -2.87206 -2.74952 0
M  V30 11662 N 1111.53 0.65634 -1.43283 0
M  V30 11663 C 1112.78 1.41627 -1.44734 0
M  V30 11664 C 1113.11 1.94372 -0.0704893 0
M  V30 11665 O 1112.36 1.72511 0.924037 0
M  V30 11666 C 1112.66 2.61688 -2.43421 0
M  V30 11667 C 1112.33 2.2738 -3.8937 0
M  V30 11668 C 1110.99 2.17735 -4.29121 0
M  V30 11669 C 1113.34 1.99863 -4.81357 0
M  V30 11670 C 1110.67 1.78725 -5.58815 0
M  V30 11671 C 1113.02 1.62352 -6.11412 0
M  V30 11672 C 1111.68 1.51231 -6.50143 0
M  V30 11673 H 1110.95 0.51825 -0.529621 0
M  V30 11674 H 1113.6 0.746701 -1.76342 0
M  V30 11675 H 1111.91 3.33763 -2.05206 0
M  V30 11676 H 1113.6 3.19896 -2.41801 0
M  V30 11677 H 1110.19 2.35795 -3.57908 0
M  V30 11678 H 1114.38 2.06237 -4.5142 0
M  V30 11679 H 1109.63 1.68698 -5.87666 0
M  V30 11680 H 1113.81 1.40091 -6.82164 0
M  V30 11681 H 1111.43 1.20774 -7.50545 0
M  V30 11682 N 1113.01 1.29761 0.894412 0
M  V30 11683 C 1114.26 1.18214 1.64782 0
M  V30 11684 C 1114.59 -0.264635 1.92388 0
M  V30 11685 O 1113.86 -1.19051 1.53809 0
M  V30 11686 C 1114.15 2.00138 2.99361 0
M  V30 11687 C 1114 3.52984 2.78787 0
M  V30 11688 C 1115.32 1.83187 4.00163 0
M  V30 11689 H 1112.44 0.430802 0.597979 0
M  V30 11690 H 1115.08 1.59292 1.03566 0
M  V30 11691 H 1113.23 1.65233 3.51611 0
M  V30 11692 H 1114.9 3.97898 2.33398 0
M  V30 11693 H 1113.14 3.77642 2.13469 0
M  V30 11694 H 1113.82 4.05585 3.7444 0
M  V30 11695 H 1116.29 2.13684 3.57041 0
M  V30 11696 H 1115.17 2.42849 4.92255 0
M  V30 11697 H 1115.43 0.788469 4.35012 0
M  V30 11698 N 1114.49 -1.10549 1.12324 0
M  V30 11699 C 1115.74 -1.81851 0.872531 0
M  V30 11700 C 1116.05 -1.86058 -0.603468 0
M  V30 11701 O 1117.26 -2.53553 -0.970736 0
M  V30 11702 C 1115.71 -3.26631 1.51131 0
M  V30 11703 C 1115.32 -3.30725 3.02201 0
M  V30 11704 C 1117.06 -4.02768 1.34082 0
M  V30 11705 C 1114.97 -4.69957 3.59018 0
M  V30 11706 H 1113.9 -0.681422 0.322769 0
M  V30 11707 H 1116.55 -1.24332 1.34959 0
M  V30 11708 H 1114.93 -3.8414 0.961913 0
M  V30 11709 H 1116.11 -2.83046 3.63623 0
M  V30 11710 H 1114.42 -2.68072 3.18632 0
M  V30 11711 H 1117.02 -5.05612 1.73955 0
M  V30 11712 H 1117.36 -4.15328 0.284369 0
M  V30 11713 H 1117.9 -3.51671 1.85937 0
M  V30 11714 H 1114.63 -4.62597 4.64418 0
M  V30 11715 H 1114.15 -5.18008 3.02371 0
M  V30 11716 H 1115.83 -5.38925 3.58007 0
M  V30 11717 N 1115.97 -0.914965 -1.28321 0
M  V30 11718 C 1117.24 -0.46764 -1.89928 0
M  V30 11719 C 1117.62 1.05364 -1.82925 0
M  V30 11720 O 1116.97 1.90223 -1.26599 0
M  V30 11721 C 1117.18 -0.999372 -3.34385 0
M  V30 11722 C 1118.53 -1.0522 -4.11356 0
M  V30 11723 O 1119.55 -0.9481 -3.4335 0
M  V30 11724 O 1118.41 -1.21085 -5.32917 0
M  V30 11725 H 1115.51 -0.148398 -0.813577 0
M  V30 11726 H 1118.05 -1.00583 -1.36679 0
M  V30 11727 H 1116.82 -2.04333 -3.33712 0
M  V30 11728 H 1116.45 -0.442083 -3.95135 0
M  V30 11729 N 1117.44 1.42219 -0.679077 0
M  V30 11730 C 1118.35 2.346 -0.00345919 0
M  V30 11731 C 1119.37 1.55327 0.784181 0
M  V30 11732 O 1120.55 1.87878 0.725524 0
M  V30 11733 C 1117.61 3.33905 0.933194 0
M  V30 11734 C 1116.67 4.29073 0.139607 0
M  V30 11735 C 1115.9 5.23634 1.03165 0
M  V30 11736 O 1116.13 5.23234 2.27119 0
M  V30 11737 O 1115.06 5.99901 0.490159 0
M  V30 11738 H 1118.89 2.9392 -0.764525 0
M  V30 11739 H 1116.47 1.42794 -0.439329 0
M  V30 11740 H 1118.35 3.949 1.47077 0
M  V30 11741 H 1117.03 2.77052 1.67404 0
M  V30 11742 H 1115.94 3.71478 -0.442177 0
M  V30 11743 H 1117.27 4.88979 -0.562214 0
M  V30 11744 N 1118.92 0.422693 1.51826 0
M  V30 11745 C 1119.87 -0.41063 2.28947 0
M  V30 11746 C 1120.86 -1.03389 1.34191 0
M  V30 11747 O 1122.07 -0.970533 1.51594 0
M  V30 11748 H 1118.44 -0.151219 0.736639 0
M  V30 11749 H 1120.42 0.260859 2.97258 0
M  V30 11750 C 1119.16 -1.50758 3.13317 0
M  V30 11751 H 1118.49 -1.03734 3.86108 0
M  V30 11752 H 1119.93 -2.0642 3.7036 0
M  V30 11753 C 1118.39 -2.48261 2.27746 0
M  V30 11754 O 1118.92 -3.52462 1.92701 0
M  V30 11755 N 1117.12 -2.18795 1.91251 0
M  V30 11756 H 1116.67 -1.34088 2.1995 0
M  V30 11757 H 1116.63 -2.84276 1.34293 0
M  V30 11758 N 1120.4 -1.5685 0.153553 0
M  V30 11759 C 1121.36 -2.15894 -0.769564 0
M  V30 11760 C 1122.36 -1.10239 -1.17064 0
M  V30 11761 O 1123.55 -1.35845 -1.09049 0
M  V30 11762 C 1120.68 -2.72738 -2.04516 0
M  V30 11763 H 1121.88 -2.98807 -0.255842 0
M  V30 11764 H 1119.43 -1.56005 -0.0959279 0
M  V30 11765 H 1120.17 -1.9351 -2.60239 0
M  V30 11766 H 1119.95 -3.50042 -1.76672 0
M  V30 11767 H 1121.44 -3.18208 -2.70432 0
M  V30 11768 N 1121.88 0.120221 -1.57141 0
M  V30 11769 C 1123.29 0.677497 -1.73974 0
M  V30 11770 C 1123.64 1.80371 -0.772055 0
M  V30 11771 O 1122.76 2.16329 0.0553062 0
M  V30 11772 C 1123.36 1.23575 -3.1546 0
M  V30 11773 C 1121.92 1.73933 -3.33803 0
M  V30 11774 C 1121.07 0.638542 -2.69848 0
M  V30 11775 H 1124.02 -0.105685 -1.58348 0
M  V30 11776 H 1124.04 2.10542 -3.16942 0
M  V30 11777 H 1123.55 0.415851 -3.85866 0
M  V30 11778 H 1121.65 2.58404 -2.68437 0
M  V30 11779 H 1121.76 1.84961 -4.41957 0
M  V30 11780 H 1120.13 1.07185 -2.31049 0
M  V30 11781 H 1120.91 -0.170356 -3.42877 0
M  V30 11782 N 1123.36 1.52689 0.390367 0
M  V30 11783 C 1124.6 1.67914 1.13722 0
M  V30 11784 C 1124.94 0.417159 1.89667 0
M  V30 11785 O 1124.21 -0.585005 1.85494 0
M  V30 11786 C 1124.49 2.91331 2.11656 0
M  V30 11787 C 1124.35 4.27626 1.39484 0
M  V30 11788 C 1125.67 3.10293 3.12099 0
M  V30 11789 H 1122.78 0.611047 0.412057 0
M  V30 11790 H 1125.43 1.85283 0.420753 0
M  V30 11791 H 1123.58 2.76654 2.72754 0
M  V30 11792 H 1125.25 4.54068 0.813607 0
M  V30 11793 H 1123.49 4.28169 0.69669 0
M  V30 11794 H 1124.16 5.10066 2.11038 0
M  V30 11795 H 1126.64 3.23992 2.6109 0
M  V30 11796 H 1125.51 3.98127 3.7787 0
M  V30 11797 H 1125.78 2.24448 3.80888 0
M  V30 11798 N 1124.83 -0.648732 1.43629 0
M  V30 11799 C 1126.06 -1.4362 1.48932 0
M  V30 11800 C 1126.48 -1.88487 0.108599 0
M  V30 11801 O 1125.83 -1.59768 -0.882066 0
M  V30 11802 C 1125.89 -2.66822 2.43903 0
M  V30 11803 O 1125.61 -2.2383 3.76606 0
M  V30 11804 C 1127.11 -3.60134 2.58493 0
M  V30 11805 H 1124.33 -0.441055 0.505679 0
M  V30 11806 H 1126.87 -0.794936 1.88417 0
M  V30 11807 H 1125.03 -3.27079 2.07601 0
M  V30 11808 H 1125.44 -3.03575 4.27718 0
M  V30 11809 H 1126.91 -4.43234 3.29011 0
M  V30 11810 H 1127.39 -4.07779 1.63134 0
M  V30 11811 H 1128 -3.05756 2.95624 0
M  V30 11812 N 1126.31 -1.30234 -0.887518 0
M  V30 11813 C 1127.22 -1.18316 -2.02579 0
M  V30 11814 C 1128.24 -0.103658 -1.73691 0
M  V30 11815 O 1129.41 -0.3181 -1.98872 0
M  V30 11816 C 1126.48 -0.873222 -3.35523 0
M  V30 11817 C 1125.54 -2.03783 -3.7785 0
M  V30 11818 C 1124.77 -1.74258 -5.0445 0
M  V30 11819 O 1125 -0.669295 -5.6646 0
M  V30 11820 O 1123.93 -2.59423 -5.43124 0
M  V30 11821 H 1127.76 -2.13933 -2.15561 0
M  V30 11822 H 1125.34 -1.09803 -1.0131 0
M  V30 11823 H 1127.22 -0.715463 -4.15282 0
M  V30 11824 H 1125.9 0.053056 -3.23657 0
M  V30 11825 H 1124.81 -2.2509 -2.98806 0
M  V30 11826 H 1126.14 -2.94574 -3.94318 0
M  V30 11827 N 1127.79 1.09952 -1.12909 0
M  V30 11828 C 1129.21 1.34051 -0.866172 0
M  V30 11829 C 1129.41 1.95169 0.501125 0
M  V30 11830 O 1128.46 2.19458 1.24878 0
M  V30 11831 C 1129.78 2.25738 -1.98653 0
M  V30 11832 C 1131.32 2.39261 -2.01799 0
M  V30 11833 C 1131.8 3.3428 -3.13083 0
M  V30 11834 N 1133.29 3.41851 -3.12558 0
M  V30 11835 C 1134.02 4.15358 -3.95304 0
M  V30 11836 N 1133.52 4.91709 -4.88051 0
M  V30 11837 N 1135.31 4.11027 -3.83423 0
M  V30 11838 H 1127.46 0.686521 -2.00999 0
M  V30 11839 H 1129.73 0.364913 -0.874953 0
M  V30 11840 H 1129.43 1.88048 -2.97205 0
M  V30 11841 H 1129.31 3.26085 -1.89601 0
M  V30 11842 H 1131.69 2.76218 -1.03864 0
M  V30 11843 H 1131.78 1.38712 -2.14925 0
M  V30 11844 H 1131.42 2.98048 -4.11254 0
M  V30 11845 H 1131.35 4.34721 -2.97195 0
M  V30 11846 H 1133.84 2.87405 -2.45371 0
M  V30 11847 H 1134.15 5.45212 -5.47689 0
M  V30 11848 H 1132.5 4.90816 -4.92061 0
M  V30 11849 H 1135.69 3.50477 -3.10296 0
M  V30 11850 H 1135.86 4.68054 -4.4814 0
M  V30 11851 N 1129.27 0.921757 1.27833 0
M  V30 11852 C 1130.23 0.420978 2.25301 0
M  V30 11853 C 1131.23 -0.457158 1.54165 0
M  V30 11854 O 1132.42 -0.259079 1.72263 0
M  V30 11855 C 1129.55 -0.395501 3.38598 0
M  V30 11856 H 1130.75 1.28206 2.71115 0
M  V30 11857 H 1128.3 0.701893 1.39654 0
M  V30 11858 H 1129.03 -1.27565 2.98157 0
M  V30 11859 H 1128.82 0.234029 3.91401 0
M  V30 11860 H 1130.31 -0.736444 4.11055 0
M  V30 11861 N 1130.75 -1.41857 0.686609 0
M  V30 11862 C 1131.69 -2.30795 0.015643 0
M  V30 11863 C 1132.66 -1.46616 -0.780569 0
M  V30 11864 O 1133.85 -1.75423 -0.750424 0
M  V30 11865 C 1130.99 -3.32577 -0.921229 0
M  V30 11866 C 1130.1 -4.3184 -0.117585 0
M  V30 11867 C 1129.24 -5.20693 -1.05128 0
M  V30 11868 C 1128.28 -6.11629 -0.240018 0
M  V30 11869 N 1127.41 -6.92995 -1.12704 0
M  V30 11870 H 1132.25 -2.87615 0.77985 0
M  V30 11871 H 1129.79 -1.41661 0.396298 0
M  V30 11872 H 1131.75 -3.90129 -1.47836 0
M  V30 11873 H 1130.38 -2.77328 -1.65193 0
M  V30 11874 H 1129.43 -3.7631 0.55634 0
M  V30 11875 H 1130.74 -4.96168 0.511753 0
M  V30 11876 H 1129.9 -5.83035 -1.67795 0
M  V30 11877 H 1128.63 -4.5657 -1.71449 0
M  V30 11878 H 1127.64 -5.48345 0.399779 0
M  V30 11879 H 1128.86 -6.77805 0.419266 0
M  V30 11880 H 1126.81 -6.31489 -1.77644 0
M  V30 11881 H 1126.73 -7.53974 -0.553065 0
M  V30 11882 H 1128 -7.59813 -1.7408 0
M  V30 11883 N 1132.22 -0.430739 -1.51599 0
M  V30 11884 C 1133.15 0.374695 -2.30474 0
M  V30 11885 C 1134.14 1.02694 -1.35602 0
M  V30 11886 O 1135.32 1.03184 -1.6452 0
M  V30 11887 C 1132.45 1.47981 -3.14196 0
M  V30 11888 C 1131.4 0.951415 -4.17291 0
M  V30 11889 C 1130.73 2.15177 -4.89492 0
M  V30 11890 C 1132.03 -0.00957951 -5.22299 0
M  V30 11891 H 1133.72 -0.283508 -2.98055 0
M  V30 11892 H 1131.27 -0.13779 -1.43339 0
M  V30 11893 H 1133.22 2.05043 -3.68151 0
M  V30 11894 H 1131.95 2.16621 -2.44424 0
M  V30 11895 H 1130.61 0.403052 -3.64378 0
M  V30 11896 H 1130.25 2.82421 -4.1623 0
M  V30 11897 H 1129.95 1.80464 -5.59202 0
M  V30 11898 H 1131.48 2.72806 -5.46269 0
M  V30 11899 H 1132.89 0.470527 -5.71366 0
M  V30 11900 H 1131.29 -0.268959 -5.99497 0
M  V30 11901 H 1132.36 -0.948297 -4.75537 0
M  V30 11902 N 1133.7 1.56767 -0.161869 0
M  V30 11903 C 1134.95 1.95769 0.485536 0
M  V30 11904 C 1135.26 1.05006 1.65025 0
M  V30 11905 O 1136.47 1.33649 2.36326 0
M  V30 11906 C 1134.93 3.4807 0.915176 0
M  V30 11907 C 1134.53 4.47443 -0.223416 0
M  V30 11908 C 1136.28 3.95909 1.53153 0
M  V30 11909 C 1134.19 5.90971 0.225325 0
M  V30 11910 H 1133.12 0.730911 0.185161 0
M  V30 11911 H 1135.77 1.81808 -0.248592 0
M  V30 11912 H 1134.15 3.57415 1.705 0
M  V30 11913 H 1135.32 4.49805 -1.00061 0
M  V30 11914 H 1133.64 4.09606 -0.749127 0
M  V30 11915 H 1136.23 5.00592 1.87915 0
M  V30 11916 H 1136.58 3.38307 2.42599 0
M  V30 11917 H 1137.11 3.89542 0.806322 0
M  V30 11918 H 1133.85 6.52426 -0.634124 0
M  V30 11919 H 1133.37 5.91936 0.96808 0
M  V30 11920 H 1135.05 6.43497 0.672373 0
M  V30 11921 N 1135.18 -0.111886 1.57202 0
M  V30 11922 C 1136.41 -0.836317 1.89791 0
M  V30 11923 C 1136.83 -1.72304 0.754513 0
M  V30 11924 O 1136.19 -1.78889 -0.294672 0
M  V30 11925 C 1136.24 -1.63971 3.21164 0
M  V30 11926 O 1135.34 -2.74726 3.0757 0
M  V30 11927 H 1134.68 -0.230833 0.622585 0
M  V30 11928 H 1137.21 -0.0921478 2.04392 0
M  V30 11929 H 1137.22 -2.02746 3.54059 0
M  V30 11930 H 1135.9 -0.98882 4.03974 0
M  V30 11931 H 1134.47 -2.39101 2.86156 0
M  V30 11932 N 1136.66 -1.52894 -0.382264 0
M  V30 11933 C 1137.59 -1.81122 -1.47367 0
M  V30 11934 C 1138.57 -0.663653 -1.56619 0
M  V30 11935 O 1139.75 -0.911898 -1.71459 0
M  V30 11936 C 1136.88 -1.98615 -2.84902 0
M  V30 11937 C 1135.84 -3.14328 -2.90485 0
M  V30 11938 C 1135.16 -3.17086 -4.30535 0
M  V30 11939 C 1136.46 -4.53263 -2.59519 0
M  V30 11940 H 1138.16 -2.72518 -1.23993 0
M  V30 11941 H 1135.7 -1.3113 -0.595049 0
M  V30 11942 H 1137.66 -2.16946 -3.61265 0
M  V30 11943 H 1136.38 -1.03915 -3.09628 0
M  V30 11944 H 1135.04 -2.95791 -2.16572 0
M  V30 11945 H 1134.69 -2.20055 -4.52311 0
M  V30 11946 H 1134.39 -3.94821 -4.3519 0
M  V30 11947 H 1135.91 -3.3758 -5.08795 0
M  V30 11948 H 1137.33 -4.71867 -3.25598 0
M  V30 11949 H 1135.72 -5.33115 -2.75514 0
M  V30 11950 H 1136.79 -4.59516 -1.54831 0
M  V30 11951 N 1138.14 0.641106 -1.43971 0
M  V30 11952 C 1139.55 1.22254 -1.41106 0
M  V30 11953 C 1139.9 1.95825 -0.121284 0
M  V30 11954 O 1139.02 2.01901 0.77879 0
M  V30 11955 C 1139.62 2.22364 -2.55617 0
M  V30 11956 C 1138.18 2.75957 -2.55978 0
M  V30 11957 C 1137.33 1.50792 -2.32717 0
M  V30 11958 H 1140.28 0.432381 -1.52696 0
M  V30 11959 H 1140.3 3.04775 -2.27799 0
M  V30 11960 H 1139.81 1.68789 -3.49474 0
M  V30 11961 H 1137.91 3.33562 -1.66034 0
M  V30 11962 H 1138.02 3.22676 -3.54142 0
M  V30 11963 H 1136.39 1.7857 -1.81617 0
M  V30 11964 H 1137.17 0.991343 -3.28675 0
M  V30 11965 N 1139.62 1.30703 0.880598 0
M  V30 11966 C 1140.84 1.22714 1.6658 0
M  V30 11967 C 1141.26 -0.209303 1.87636 0
M  V30 11968 O 1140.62 -1.13771 1.42697 0
M  V30 11969 C 1140.67 1.95659 3.03974 0
M  V30 11970 O 1140.39 3.33695 2.83865 0
M  V30 11971 C 1141.89 1.9438 3.98411 0
M  V30 11972 H 1139.11 0.424478 0.519673 0
M  V30 11973 H 1141.65 1.72402 1.0999 0
M  V30 11974 H 1139.81 1.49758 3.57283 0
M  V30 11975 H 1140.22 3.70697 3.71058 0
M  V30 11976 H 1141.7 2.4995 4.92168 0
M  V30 11977 H 1142.17 0.923767 4.29375 0
M  V30 11978 H 1142.78 2.40112 3.51036 0
M  V30 11979 N 1141.09 -1.09351 1.1349 0
M  V30 11980 C 1142.32 -1.85844 0.92069 0
M  V30 11981 C 1142.74 -1.80616 -0.525303 0
M  V30 11982 O 1142.1 -1.1842 -1.37282 0
M  V30 11983 C 1142.15 -3.31716 1.4141 0
M  V30 11984 O 1141.25 -4.08014 0.599838 0
M  V30 11985 H 1140.59 -0.576242 0.32991 0
M  V30 11986 H 1143.12 -1.38084 1.50976 0
M  V30 11987 H 1143.13 -3.82564 1.41805 0
M  V30 11988 H 1141.81 -3.34837 2.46692 0
M  V30 11989 H 1140.39 -3.66944 0.663816 0
M  V30 11990 N 1142.57 -0.928524 -1.27343 0
M  V30 11991 C 1143.52 -0.426873 -2.26818 0
M  V30 11992 C 1144.49 0.506663 -1.58184 0
M  V30 11993 O 1145.67 0.425641 -1.85992 0
M  V30 11994 C 1142.81 0.313523 -3.43673 0
M  V30 11995 C 1141.93 -0.65422 -4.27018 0
M  V30 11996 C 1141.06 0.106102 -5.31094 0
M  V30 11997 C 1140.1 -0.854293 -6.06109 0
M  V30 11998 N 1139.24 -0.126545 -7.01986 0
M  V30 11999 H 1144.08 -1.28014 -2.69103 0
M  V30 12000 H 1141.61 -0.642515 -1.32326 0
M  V30 12001 H 1143.57 0.75912 -4.10236 0
M  V30 12002 H 1142.2 1.13102 -3.02337 0
M  V30 12003 H 1141.25 -1.21834 -3.60362 0
M  V30 12004 H 1142.57 -1.38817 -4.79094 0
M  V30 12005 H 1141.72 0.611577 -6.0361 0
M  V30 12006 H 1140.46 0.873009 -4.79823 0
M  V30 12007 H 1139.46 -1.37101 -5.32432 0
M  V30 12008 H 1140.69 -1.621 -6.5947 0
M  V30 12009 H 1138.64 0.622102 -6.53044 0
M  V30 12010 H 1138.55 -0.800046 -7.51755 0
M  V30 12011 H 1139.82 0.358251 -7.78676 0
M  V30 12012 N 1144.05 1.41491 -0.694123 0
M  V30 12013 C 1145 2.32594 -0.0164704 0
M  V30 12014 C 1145.99 1.50884 0.770086 0
M  V30 12015 O 1147.2 1.66829 0.675871 0
M  V30 12016 H 1143.57 0.751879 0.0134743 0
M  V30 12017 H 1145.54 2.87423 -0.80191 0
M  V30 12018 C 1144.29 3.35661 0.90703 0
M  V30 12019 H 1143.62 3.98587 0.311205 0
M  V30 12020 H 1145.06 4.0195 1.34952 0
M  V30 12021 C 1143.51 2.69436 2.02253 0
M  V30 12022 O 1144.04 2.54107 3.11115 0
M  V30 12023 N 1142.25 2.28154 1.79984 0
M  V30 12024 H 1141.8 2.40821 0.914492 0
M  V30 12025 H 1141.76 1.84178 2.54805 0
M  V30 12026 N 1145.53 0.438773 1.51369 0
M  V30 12027 C 1146.77 -0.119657 2.03048 0
M  V30 12028 C 1147.13 -1.4026 1.317 0
M  V30 12029 O 1146.42 -1.86858 0.423612 0
M  V30 12030 C 1146.62 -0.39186 3.55245 0
M  V30 12031 C 1146.44 0.863149 4.41339 0
M  V30 12032 C 1145.21 1.39709 4.85602 0
M  V30 12033 C 1147.41 1.74969 4.83622 0
M  V30 12034 N 1145.39 2.60449 5.55913 0
M  V30 12035 C 1146.77 2.80313 5.53014 0
M  V30 12036 C 1148.82 1.76393 4.65607 0
M  V30 12037 C 1147.52 3.87029 6.06301 0
M  V30 12038 C 1149.55 2.82045 5.19812 0
M  V30 12039 C 1148.91 3.86109 5.89151 0
M  V30 12040 H 1145.01 -0.00458455 0.781987 0
M  V30 12041 H 1147.59 0.599764 1.85232 0
M  V30 12042 H 1145.77 -1.08032 3.73073 0
M  V30 12043 H 1147.5 -0.941775 3.93589 0
M  V30 12044 H 1144.25 0.950817 4.63957 0
M  V30 12045 H 1144.68 3.21678 5.95695 0
M  V30 12046 H 1149.32 0.972686 4.11459 0
M  V30 12047 H 1147.04 4.66991 6.59504 0
M  V30 12048 H 1150.62 2.84091 5.07724 0
M  V30 12049 H 1149.5 4.66518 6.30342 0
M  V30 12050 N 1147.01 -1.56678 0.170181 0
M  V30 12051 C 1148.23 -2.01223 -0.481362 0
M  V30 12052 C 1148.65 -1.05039 -1.56883 0
M  V30 12053 O 1148.01 -0.0510751 -1.82429 0
M  V30 12054 C 1148.06 -3.45588 -1.06073 0
M  V30 12055 O 1147.78 -4.38097 -0.0166754 0
M  V30 12056 C 1149.28 -4.05527 -1.79061 0
M  V30 12057 H 1146.5 -0.659574 -0.1233 0
M  V30 12058 H 1149.04 -2.02689 0.271576 0
M  V30 12059 H 1147.2 -3.449 -1.76417 0
M  V30 12060 H 1147.61 -5.22615 -0.444276 0
M  V30 12061 H 1149.09 -5.08467 -2.1486 0
M  V30 12062 H 1149.56 -3.47554 -2.68519 0
M  V30 12063 H 1150.17 -4.09914 -1.13361 0
M  V30 12064 N 1148.48 0.103547 -1.57259 0
M  V30 12065 C 1149.73 0.808576 -1.85656 0
M  V30 12066 C 1150.06 1.79143 -0.757502 0
M  V30 12067 O 1149.31 1.941 0.249723 0
M  V30 12068 C 1149.61 1.57946 -3.20605 0
M  V30 12069 C 1149.28 0.739502 -4.44795 0
M  V30 12070 C 1147.94 0.507921 -4.78512 0
M  V30 12071 C 1150.29 0.155034 -5.20969 0
M  V30 12072 C 1147.62 -0.318129 -5.85837 0
M  V30 12073 C 1149.97 -0.658292 -6.29166 0
M  V30 12074 C 1148.64 -0.900044 -6.61404 0
M  V30 12075 H 1147.91 0.295879 -0.679365 0
M  V30 12076 H 1150.55 0.0703604 -1.91371 0
M  V30 12077 H 1148.86 2.38902 -3.10537 0
M  V30 12078 H 1150.56 2.12921 -3.39803 0
M  V30 12079 H 1147.15 0.930103 -4.18386 0
M  V30 12080 H 1151.33 0.32113 -4.9526 0
M  V30 12081 H 1146.59 -0.514495 -6.09231 0
M  V30 12082 H 1150.76 -1.11809 -6.87366 0
M  V30 12083 H 1148.39 -1.54194 -7.44398 0
M  V30 12084 N 1149.96 1.53094 0.37415 0
M  V30 12085 C 1151.21 1.68527 1.11548 0
M  V30 12086 C 1151.53 0.435253 1.9008 0
M  V30 12087 O 1150.8 -0.550594 1.88003 0
M  V30 12088 H 1149.38 0.621255 0.41479 0
M  V30 12089 H 1152.04 1.90258 0.422844 0
M  V30 12090 H 1151.14 2.54248 1.81009 0
M  V30 12091 N 1151.44 -0.633461 1.44309 0
M  V30 12092 C 1152.85 -1.21504 1.41752 0
M  V30 12093 C 1153.2 -1.95758 0.131667 0
M  V30 12094 O 1152.33 -2.02311 -0.768072 0
M  V30 12095 C 1152.92 -2.21005 2.56792 0
M  V30 12096 C 1151.48 -2.74596 2.57438 0
M  V30 12097 C 1150.63 -1.49555 2.33513 0
M  V30 12098 H 1153.58 -0.424277 1.52923 0
M  V30 12099 H 1153.6 -3.03563 2.29412 0
M  V30 12100 H 1153.11 -1.66934 3.50364 0
M  V30 12101 H 1151.21 -3.32676 1.67801 0
M  V30 12102 H 1151.33 -3.20794 3.55849 0
M  V30 12103 H 1149.69 -1.77605 1.82561 0
M  V30 12104 H 1150.47 -0.973899 3.29196 0
M  V30 12105 N 1152.92 -1.31168 -0.873655 0
M  V30 12106 C 1153.85 -1.14325 -1.98651 0
M  V30 12107 C 1154.86 -0.0833421 -1.62587 0
M  V30 12108 O 1156.05 -0.330477 -1.75414 0
M  V30 12109 C 1153.15 -0.723747 -3.31082 0
M  V30 12110 C 1152.33 -1.86787 -3.95512 0
M  V30 12111 C 1151.38 -1.43503 -5.06254 0
M  V30 12112 O 1150.41 -2.14409 -5.27273 0
M  V30 12113 N 1151.61 -0.320362 -5.79615 0
M  V30 12114 H 1154.38 -2.10179 -2.13647 0
M  V30 12115 H 1151.94 -1.23454 -1.04742 0
M  V30 12116 H 1153.93 -0.416971 -4.02546 0
M  V30 12117 H 1152.5 0.143073 -3.12272 0
M  V30 12118 H 1151.72 -2.34216 -3.17075 0
M  V30 12119 H 1153.01 -2.6343 -4.35296 0
M  V30 12120 H 1152.41 0.270215 -5.65054 0
M  V30 12121 H 1150.96 -0.0731 -6.51759 0
M  V30 12122 N 1154.4 1.08748 -1.14068 0
M  V30 12123 C 1155.67 1.7769 -0.81766 0
M  V30 12124 C 1156.05 1.99522 0.689501 0
M  V30 12125 O 1155.4 1.60222 1.62914 0
M  V30 12126 C 1155.61 3.09517 -1.61245 0
M  V30 12127 C 1156.96 3.84108 -1.80958 0
M  V30 12128 O 1157.98 3.19289 -1.57902 0
M  V30 12129 O 1156.84 5.00491 -2.19479 0
M  V30 12130 H 1153.94 0.770953 -0.299265 0
M  V30 12131 H 1156.48 1.15242 -1.24569 0
M  V30 12132 H 1155.25 2.89155 -2.63638 0
M  V30 12133 H 1154.88 3.79692 -1.17982 0
M  V30 12134 N 1155.87 0.935264 1.26849 0
M  V30 12135 C 1157.12 0.580548 1.94313 0
M  V30 12136 C 1157.45 -0.877205 1.73259 0
M  V30 12137 O 1156.73 -1.62679 1.06611 0
M  V30 12138 C 1157.01 0.916445 3.48243 0
M  V30 12139 C 1156.86 2.42851 3.78607 0
M  V30 12140 C 1158.18 0.427665 4.38017 0
M  V30 12141 H 1155.3 0.21239 0.705733 0
M  V30 12142 H 1157.94 1.16841 1.49827 0
M  V30 12143 H 1156.09 0.416169 3.86265 0
M  V30 12144 H 1157.77 3.00106 3.50335 0
M  V30 12145 H 1156.01 2.8745 3.24892 0
M  V30 12146 H 1156.68 2.61405 4.8618 0
M  V30 12147 H 1159.16 0.856525 4.07189 0
M  V30 12148 H 1158.03 0.691571 5.44526 0
M  V30 12149 H 1158.29 -0.672344 4.36958 0
M  V30 12150 N 1157.35 -1.41121 0.701616 0
M  V30 12151 C 1158.63 -1.9492 0.162911 0
M  V30 12152 C 1159.01 -1.64064 -1.32839 0
M  V30 12153 O 1158.36 -0.950848 -2.07777 0
M  V30 12154 C 1158.57 -3.45946 0.460673 0
M  V30 12155 C 1159.92 -4.22789 0.391706 0
M  V30 12156 O 1160.94 -3.53993 0.395931 0
M  V30 12157 O 1159.8 -5.45332 0.357071 0
M  V30 12158 H 1156.89 -0.826793 0.0185103 0
M  V30 12159 H 1159.44 -1.50805 0.778192 0
M  V30 12160 H 1158.21 -3.61711 1.49269 0
M  V30 12161 H 1157.83 -3.97168 -0.185277 0
M  V30 12162 N 1158.83 -0.446794 -1.51134 0
M  V30 12163 C 1159.74 0.36579 -2.31731 0
M  V30 12164 C 1160.76 1.01886 -1.41051 0
M  V30 12165 O 1161.93 1.01216 -1.74119 0
M  V30 12166 C 1159 1.44705 -3.15058 0
M  V30 12167 C 1158.06 0.813129 -4.21529 0
M  V30 12168 C 1157.29 1.84287 -5.00873 0
M  V30 12169 O 1157.51 3.06633 -4.8097 0
M  V30 12170 O 1156.45 1.42816 -5.84711 0
M  V30 12171 H 1160.27 -0.292436 -3.02289 0
M  V30 12172 H 1157.86 -0.209129 -1.47929 0
M  V30 12173 H 1159.74 2.07393 -3.66833 0
M  V30 12174 H 1158.42 2.08919 -2.47254 0
M  V30 12175 H 1157.32 0.147953 -3.73807 0
M  V30 12176 H 1158.66 0.214331 -4.91733 0
M  V30 12177 N 1160.31 1.56586 -0.178487 0
M  V30 12178 C 1161.24 2.21313 0.744486 0
M  V30 12179 C 1162.22 1.17098 1.23377 0
M  V30 12180 O 1163.4 1.45551 1.28563 0
M  V30 12181 C 1160.53 2.8595 1.97103 0
M  V30 12182 C 1159.49 3.96266 1.61732 0
M  V30 12183 C 1158.81 4.47987 2.91911 0
M  V30 12184 C 1160.11 5.15503 0.839868 0
M  V30 12185 H 1161.81 2.98698 0.204938 0
M  V30 12186 H 1159.35 1.43672 0.0971306 0
M  V30 12187 H 1161.31 3.29909 2.6218 0
M  V30 12188 H 1160.03 2.05946 2.53484 0
M  V30 12189 H 1158.69 3.52974 0.990208 0
M  V30 12190 H 1158.34 3.64765 3.46346 0
M  V30 12191 H 1158.04 5.22413 2.68995 0
M  V30 12192 H 1159.56 4.94637 3.58004 0
M  V30 12193 H 1160.98 5.5611 1.39337 0
M  V30 12194 H 1159.37 5.95891 0.709473 0
M  V30 12195 H 1160.44 4.84628 -0.162396 0
M  V30 12196 N 1161.79 -0.095206 1.57312 0
M  V30 12197 C 1163.04 -0.797417 1.85268 0
M  V30 12198 C 1163.35 -1.79903 0.767733 0
M  V30 12199 O 1164.55 -2.54914 0.934409 0
M  V30 12200 C 1163.01 -1.469 3.28555 0
M  V30 12201 C 1162.62 -0.507152 4.4512 0
M  V30 12202 C 1164.36 -2.15494 3.65735 0
M  V30 12203 C 1162.27 -1.18331 5.79441 0
M  V30 12204 H 1161.2 -0.301552 0.691074 0
M  V30 12205 H 1163.85 -0.0503584 1.83431 0
M  V30 12206 H 1162.23 -2.26351 3.24933 0
M  V30 12207 H 1163.41 0.255858 4.60089 0
M  V30 12208 H 1161.72 0.0730882 4.16336 0
M  V30 12209 H 1164.32 -2.66816 4.63371 0
M  V30 12210 H 1164.66 -2.94383 2.94354 0
M  V30 12211 H 1165.19 -1.42903 3.71246 0
M  V30 12212 H 1161.93 -0.435238 6.54053 0
M  V30 12213 H 1161.45 -1.91775 5.68315 0
M  V30 12214 H 1163.13 -1.70983 6.23998 0
M  V30 12215 N 1163.26 -1.53291 -0.366026 0
M  V30 12216 C 1164.51 -1.69451 -1.10872 0
M  V30 12217 C 1164.84 -0.446078 -1.89316 0
M  V30 12218 O 1164.09 0.571962 -1.87155 0
M  V30 12219 C 1164.39 -2.89547 -2.09517 0
M  V30 12220 C 1164.06 -4.26073 -1.47556 0
M  V30 12221 C 1162.72 -4.63199 -1.30386 0
M  V30 12222 C 1165.07 -5.10977 -1.02724 0
M  V30 12223 C 1162.4 -5.82866 -0.669666 0
M  V30 12224 C 1164.75 -6.31289 -0.407052 0
M  V30 12225 C 1163.42 -6.67128 -0.222839 0
M  V30 12226 H 1162.69 -0.620066 -0.405708 0
M  V30 12227 H 1165.33 -1.87475 -0.390563 0
M  V30 12228 H 1163.64 -2.66034 -2.87634 0
M  V30 12229 H 1165.34 -2.99245 -2.66933 0
M  V30 12230 H 1161.93 -3.9684 -1.61914 0
M  V30 12231 H 1166.11 -4.82844 -1.14783 0
M  V30 12232 H 1161.37 -6.09224 -0.515351 0
M  V30 12233 H 1165.54 -6.96381 -0.0514661 0
M  V30 12234 H 1163.17 -7.59718 0.270647 0
M  V30 12235 N 1164.74 0.6258 -1.44643 0
M  V30 12236 C 1165.68 1.75056 -1.46392 0
M  V30 12237 C 1166.65 1.59376 -0.322179 0
M  V30 12238 O 1167.84 1.81187 -0.519956 0
M  V30 12239 C 1164.96 3.12689 -1.30166 0
M  V30 12240 C 1164.01 3.47005 -2.47972 0
M  V30 12241 S 1164.84 3.43885 -4.10491 0
M  V30 12242 C 1166 4.84129 -3.96698 0
M  V30 12243 H 1166.23 1.73306 -2.41562 0
M  V30 12244 H 1163.77 0.800879 -1.32005 0
M  V30 12245 H 1165.72 3.9211 -1.21492 0
M  V30 12246 H 1164.38 3.11972 -0.364982 0
M  V30 12247 H 1163.58 4.47171 -2.32496 0
M  V30 12248 H 1163.18 2.75059 -2.53414 0
M  V30 12249 H 1165.47 5.73488 -3.60718 0
M  V30 12250 H 1166.41 5.0466 -4.96713 0
M  V30 12251 H 1166.82 4.58954 -3.28666 0
M  V30 12252 N 1166.22 1.31629 0.866686 0
M  V30 12253 C 1167.15 1.22151 1.99001 0
M  V30 12254 C 1168.13 0.107972 1.69757 0
M  V30 12255 O 1169.32 0.293125 1.91975 0
M  V30 12256 C 1166.45 0.93144 3.34577 0
M  V30 12257 C 1165.4 2.0049 3.78137 0
M  V30 12258 C 1164.73 1.56747 5.11209 0
M  V30 12259 C 1166.03 3.41844 3.94892 0
M  V30 12260 H 1167.72 2.16132 2.0719 0
M  V30 12261 H 1165.27 1.04051 0.995463 0
M  V30 12262 H 1167.22 0.851719 4.12703 0
M  V30 12263 H 1165.94 -0.0440289 3.2657 0
M  V30 12264 H 1164.6 2.07457 3.02253 0
M  V30 12265 H 1164.25 0.579767 4.99648 0
M  V30 12266 H 1163.95 2.28562 5.41326 0
M  V30 12267 H 1165.47 1.50188 5.91841 0
M  V30 12268 H 1166.89 3.37534 4.63405 0
M  V30 12269 H 1165.29 4.11905 4.36411 0
M  V30 12270 H 1166.36 3.82389 2.98172 0
M  V30 12271 N 1167.7 -1.08142 1.14644 0
M  V30 12272 C 1168.92 -1.84857 0.940349 0
M  V30 12273 C 1169.35 -1.81163 -0.506117 0
M  V30 12274 O 1168.71 -1.19869 -1.36019 0
M  V30 12275 C 1168.76 -3.30198 1.4492 0
M  V30 12276 O 1167.86 -4.07355 0.64308 0
M  V30 12277 H 1167.2 -0.572711 0.336003 0
M  V30 12278 H 1169.73 -1.36475 1.52432 0
M  V30 12279 H 1169.74 -3.81039 1.45854 0
M  V30 12280 H 1168.42 -3.32202 2.50229 0
M  V30 12281 H 1166.99 -3.66219 0.702698 0
M  V30 12282 N 1169.18 -0.941978 -1.26351 0
M  V30 12283 C 1170.45 -0.507822 -1.88893 0
M  V30 12284 C 1170.83 1.0146 -1.85119 0
M  V30 12285 O 1170.18 1.87495 -1.30606 0
M  V30 12286 C 1170.39 -1.07007 -3.3219 0
M  V30 12287 C 1171.74 -1.13922 -4.09032 0
M  V30 12288 O 1172.76 -1.02072 -3.41262 0
M  V30 12289 O 1171.62 -1.32362 -5.30229 0
M  V30 12290 H 1168.72 -0.165621 -0.810246 0
M  V30 12291 H 1171.26 -1.03459 -1.34515 0
M  V30 12292 H 1170.04 -2.11366 -3.29302 0
M  V30 12293 H 1169.66 -0.525797 -3.94108 0
M  V30 12294 N 1170.66 1.40747 -0.709091 0
M  V30 12295 C 1171.88 2.05841 -0.253816 0
M  V30 12296 C 1172.31 1.53056 1.09341 0
M  V30 12297 O 1171.66 0.663181 1.68735 0
M  V30 12298 C 1171.71 3.59822 -0.236699 0
M  V30 12299 O 1170.82 4.04876 0.784168 0
M  V30 12300 H 1170.16 0.65295 -0.120631 0
M  V30 12301 H 1172.69 1.80266 -0.967749 0
M  V30 12302 H 1172.7 4.07936 -0.0721616 0
M  V30 12303 H 1171.37 3.97608 -1.21988 0
M  V30 12304 H 1169.95 3.68237 0.587884 0
M  V30 12305 N 1172.13 0.454803 1.50895 0
M  V30 12306 C 1173.54 -0.00421212 1.867 0
M  V30 12307 C 1173.9 -1.4037 1.3708 0
M  V30 12308 O 1173.02 -2.03755 0.728884 0
M  V30 12309 C 1173.62 -0.0144196 3.38797 0
M  V30 12310 C 1172.17 -0.417905 3.74073 0
M  V30 12311 C 1171.32 0.37801 2.74711 0
M  V30 12312 H 1174.27 0.669849 1.4387 0
M  V30 12313 H 1174.29 -0.820172 3.71555 0
M  V30 12314 H 1173.81 1.00427 3.74881 0
M  V30 12315 H 1171.91 -1.44155 3.43584 0
M  V30 12316 H 1172.02 -0.130568 4.78922 0
M  V30 12317 H 1170.38 -0.166089 2.54158 0
M  V30 12318 H 1171.17 1.3959 3.13639 0
M  V30 12319 N 1173.61 -1.56489 0.186789 0
M  V30 12320 C 1174.86 -1.96952 -0.453261 0
M  V30 12321 C 1175.18 -1.07451 -1.62725 0
M  V30 12322 O 1174.45 -0.144046 -1.9537 0
M  V30 12323 H 1173.03 -0.727295 -0.170445 0
M  V30 12324 H 1175.69 -1.92999 0.271584 0
M  V30 12325 H 1174.79 -3.01594 -0.802951 0
M  V30 12326 N 1175.09 0.086862 -1.5736 0
M  V30 12327 C 1176.34 0.790008 -1.8678 0
M  V30 12328 C 1176.67 1.77977 -0.777042 0
M  V30 12329 O 1175.94 1.93317 0.21419 0
M  V30 12330 C 1176.23 1.51143 -3.26845 0
M  V30 12331 C 1176.08 0.539106 -4.46558 0
M  V30 12332 C 1177.4 2.46003 -3.64926 0
M  V30 12333 H 1174.52 0.285741 -0.679354 0
M  V30 12334 H 1177.16 0.0534655 -1.89925 0
M  V30 12335 H 1175.31 2.13928 -3.24295 0
M  V30 12336 H 1176.98 -0.0823679 -4.61226 0
M  V30 12337 H 1175.22 -0.146842 -4.33551 0
M  V30 12338 H 1175.9 1.0812 -5.41308 0
M  V30 12339 H 1178.37 1.93306 -3.68473 0
M  V30 12340 H 1177.25 2.93493 -4.63846 0
M  V30 12341 H 1177.51 3.30133 -2.94049 0
M  V30 12342 N 1176.57 1.53483 0.357892 0
M  V30 12343 C 1177.5 1.75257 1.46151 0
M  V30 12344 C 1178.48 0.601167 1.51079 0
M  V30 12345 O 1179.66 0.834661 1.69014 0
M  V30 12346 C 1176.79 1.8383 2.84472 0
M  V30 12347 C 1175.84 3.05866 2.97234 0
M  V30 12348 S 1176.67 4.65225 2.6519 0
M  V30 12349 C 1177.82 4.76657 4.05646 0
M  V30 12350 H 1178.06 2.6859 1.27462 0
M  V30 12351 H 1175.59 1.44169 0.552697 0
M  V30 12352 H 1177.55 1.89454 3.64167 0
M  V30 12353 H 1176.21 0.915345 3.00467 0
M  V30 12354 H 1175.4 3.08497 3.98555 0
M  V30 12355 H 1175 2.98393 2.25471 0
M  V30 12356 H 1177.3 4.57185 4.99988 0
M  V30 12357 H 1178.24 5.7873 4.08016 0
M  V30 12358 H 1178.65 4.05226 3.93004 0
M  V30 12359 N 1178.05 -0.61812 1.44973 0
M  V30 12360 C 1179.29 -1.38882 1.4997 0
M  V30 12361 C 1179.65 -1.91533 0.133841 0
M  V30 12362 O 1180.85 -2.68736 0.0585012 0
M  V30 12363 C 1179.12 -2.5136 2.54073 0
M  V30 12364 S 1180.68 -3.39324 2.78216 0
M  V30 12365 H 1177.5 -0.473631 0.530278 0
M  V30 12366 H 1180.1 -0.714299 1.81984 0
M  V30 12367 H 1178.8 -2.11012 3.51997 0
M  V30 12368 H 1178.34 -3.23625 2.23675 0
M  V30 12369 H 1180.35 -4.49198 2.10797 0
M  V30 12370 N 1179.52 -1.32087 -0.859693 0
M  V30 12371 C 1180.94 -1.10968 -1.14709 0
M  V30 12372 C 1181.14 0.113139 -2.01182 0
M  V30 12373 O 1180.2 0.799499 -2.39508 0
M  V30 12374 C 1181.51 -2.38657 -1.8293 0
M  V30 12375 C 1183.06 -2.44366 -1.95587 0
M  V30 12376 C 1183.53 -3.71963 -2.67222 0
M  V30 12377 N 1185.02 -3.72916 -2.7475 0
M  V30 12378 C 1185.76 -4.68346 -3.30816 0
M  V30 12379 N 1185.25 -5.74139 -3.87732 0
M  V30 12380 N 1187.05 -4.55851 -3.28872 0
M  V30 12381 H 1179.2 -2.10497 -0.283711 0
M  V30 12382 H 1181.46 -0.929108 -0.188315 0
M  V30 12383 H 1181.17 -3.2803 -1.26844 0
M  V30 12384 H 1181.04 -2.49236 -2.83128 0
M  V30 12385 H 1183.43 -1.55456 -2.50833 0
M  V30 12386 H 1183.51 -2.37744 -0.944001 0
M  V30 12387 H 1183.15 -4.61245 -2.1264 0
M  V30 12388 H 1183.08 -3.75855 -3.68837 0
M  V30 12389 H 1185.57 -2.96447 -2.34367 0
M  V30 12390 H 1185.89 -6.43021 -4.28654 0
M  V30 12391 H 1184.23 -5.779 -3.86078 0
M  V30 12392 H 1187.42 -3.72371 -2.83651 0
M  V30 12393 H 1187.6 -5.30398 -3.72266 0
M  V30 12394 N 1181 1.07532 -1.15215 0
M  V30 12395 C 1182.41 1.61567 -0.935568 0
M  V30 12396 C 1182.76 1.89085 0.523557 0
M  V30 12397 O 1181.89 1.65495 1.39429 0
M  V30 12398 C 1182.48 2.93531 -1.69189 0
M  V30 12399 C 1181.04 3.44316 -1.52063 0
M  V30 12400 C 1180.19 2.18404 -1.70866 0
M  V30 12401 H 1183.14 0.906431 -1.30267 0
M  V30 12402 H 1183.16 3.62377 -1.16031 0
M  V30 12403 H 1182.67 2.73471 -2.75381 0
M  V30 12404 H 1180.77 3.69462 -0.482567 0
M  V30 12405 H 1180.89 4.20478 -2.29642 0
M  V30 12406 H 1179.25 2.28012 -1.13502 0
M  V30 12407 H 1180.03 2.00841 -2.7842 0
M  V30 12408 N 1182.48 0.948665 1.2585 0
M  V30 12409 C 1183.71 0.616741 1.98018 0
M  V30 12410 C 1184.13 -0.803005 1.70098 0
M  V30 12411 O 1183.49 -1.54208 0.953392 0
M  V30 12412 C 1183.54 0.874429 3.49837 0
M  V30 12413 O 1182.64 -0.0497568 4.1237 0
M  V30 12414 H 1181.98 0.235112 0.620982 0
M  V30 12415 H 1184.51 1.27364 1.60124 0
M  V30 12416 H 1184.52 0.798309 4.00114 0
M  V30 12417 H 1183.2 1.90922 3.69488 0
M  V30 12418 H 1181.77 0.0780591 3.72818 0
M  V30 12419 N 1183.96 -1.40369 0.716545 0
M  V30 12420 C 1185.37 -1.54757 0.390202 0
M  V30 12421 C 1185.57 -1.68767 -1.10091 0
M  V30 12422 O 1184.63 -1.67779 -1.88697 0
M  V30 12423 C 1185.94 -2.77546 1.15709 0
M  V30 12424 C 1187.49 -2.91364 1.14349 0
M  V30 12425 C 1187.97 -4.17068 1.89256 0
M  V30 12426 N 1189.46 -4.2407 1.8633 0
M  V30 12427 C 1190.19 -5.20243 2.41112 0
M  V30 12428 N 1189.69 -6.22318 3.04454 0
M  V30 12429 N 1191.48 -5.12328 2.31249 0
M  V30 12430 H 1183.63 -1.29521 1.68339 0
M  V30 12431 H 1185.9 -0.626382 0.711582 0
M  V30 12432 H 1185.6 -2.73474 2.21144 0
M  V30 12433 H 1185.48 -3.69682 0.749347 0
M  V30 12434 H 1187.86 -2.94939 0.0973383 0
M  V30 12435 H 1187.94 -2.00344 1.59047 0
M  V30 12436 H 1187.59 -4.14255 2.93863 0
M  V30 12437 H 1187.52 -5.07099 1.41978 0
M  V30 12438 H 1190.01 -3.50944 1.40168 0
M  V30 12439 H 1190.32 -6.92129 3.43769 0
M  V30 12440 H 1188.67 -6.22759 3.08538 0
M  V30 12441 H 1191.86 -4.31514 1.8142 0
M  V30 12442 H 1192.03 -5.87107 2.74243 0
M  V30 12443 N 1185.44 -0.462799 -1.50652 0
M  V30 12444 C 1186.68 0.0951853 -2.02576 0
M  V30 12445 C 1187.02 1.40113 -1.34469 0
M  V30 12446 O 1186.29 1.88793 -0.467702 0
M  V30 12447 C 1186.57 0.287603 -3.5895 0
M  V30 12448 C 1186.43 -1.03878 -4.37641 0
M  V30 12449 C 1187.75 1.04593 -4.27491 0
M  V30 12450 H 1184.86 0.0331191 -0.736255 0
M  V30 12451 H 1187.51 -0.606772 -1.80051 0
M  V30 12452 H 1185.66 0.885514 -3.78274 0
M  V30 12453 H 1187.33 -1.67263 -4.29908 0
M  V30 12454 H 1185.57 -1.6374 -4.01711 0
M  V30 12455 H 1186.24 -0.857889 -5.45293 0
M  V30 12456 H 1188.72 0.539213 -4.12591 0
M  V30 12457 H 1187.59 1.14935 -5.36732 0
M  V30 12458 H 1187.86 2.08045 -3.90089 0
M  V30 12459 N 1186.91 1.56388 -0.195085 0
M  V30 12460 C 1187.86 2.19091 0.725793 0
M  V30 12461 C 1188.83 1.13814 1.20977 0
M  V30 12462 O 1190.02 1.42065 1.27366 0
M  V30 12463 C 1187.16 2.85427 1.93973 0
M  V30 12464 C 1186.27 4.05229 1.49712 0
M  V30 12465 C 1185.4 4.59421 2.66656 0
M  V30 12466 C 1184.44 5.71581 2.19001 0
M  V30 12467 N 1183.58 6.2018 3.29123 0
M  V30 12468 H 1188.42 2.97429 0.184334 0
M  V30 12469 H 1185.96 1.46886 0.0792434 0
M  V30 12470 H 1187.92 3.22057 2.65208 0
M  V30 12471 H 1186.55 2.09652 2.4545 0
M  V30 12472 H 1185.6 3.74261 0.680641 0
M  V30 12473 H 1186.91 4.8635 1.10749 0
M  V30 12474 H 1186.06 4.98357 3.46014 0
M  V30 12475 H 1184.8 3.77407 3.08893 0
M  V30 12476 H 1183.81 5.32174 1.38097 0
M  V30 12477 H 1185.03 6.55413 1.77795 0
M  V30 12478 H 1182.98 5.41088 3.70891 0
M  V30 12479 H 1182.9 6.96353 2.94328 0
M  V30 12480 H 1184.16 6.63769 4.08694 0
M  V30 12481 N 1188.39 -0.0785156 1.57404 0
M  V30 12482 C 1189.32 -1.12058 1.99939 0
M  V30 12483 C 1190.34 -1.35372 0.904343 0
M  V30 12484 O 1191.53 -1.33731 1.1823 0
M  V30 12485 C 1188.63 -2.47285 2.31739 0
M  V30 12486 C 1187.8 -2.44021 3.63005 0
M  V30 12487 C 1186.86 -3.61303 3.82552 0
M  V30 12488 O 1185.88 -3.43039 4.54217 0
M  V30 12489 N 1187.09 -4.81404 3.24392 0
M  V30 12490 H 1189.85 -0.758416 2.89945 0
M  V30 12491 H 1187.41 -0.267266 1.59679 0
M  V30 12492 H 1189.4 -3.24377 2.41995 0
M  V30 12493 H 1187.97 -2.75529 1.47657 0
M  V30 12494 H 1187.19 -1.52361 3.63565 0
M  V30 12495 H 1188.48 -2.38934 4.49208 0
M  V30 12496 H 1187.88 -4.99147 2.66211 0
M  V30 12497 H 1186.44 -5.56031 3.40107 0
M  V30 12498 N 1189.87 -1.5367 -0.349747 0
M  V30 12499 C 1190.8 -1.7603 -1.4522 0
M  V30 12500 C 1191.78 -0.609171 -1.50758 0
M  V30 12501 O 1192.97 -0.843613 -1.68569 0
M  V30 12502 C 1190.09 -1.85336 -2.83493 0
M  V30 12503 C 1189.14 -3.07438 -2.95608 0
M  V30 12504 S 1189.97 -4.66625 -2.62719 0
M  V30 12505 C 1191.13 -4.78802 -4.03112 0
M  V30 12506 H 1191.36 -2.69263 -1.26035 0
M  V30 12507 H 1188.89 -1.4446 -0.545044 0
M  V30 12508 H 1190.85 -1.91383 -3.63157 0
M  V30 12509 H 1189.51 -0.931267 -2.99977 0
M  V30 12510 H 1188.71 -3.10606 -3.96913 0
M  V30 12511 H 1188.31 -2.99585 -2.23886 0
M  V30 12512 H 1190.6 -4.5983 -4.97557 0
M  V30 12513 H 1191.54 -5.80886 -4.04941 0
M  V30 12514 H 1191.95 -4.07305 -3.90849 0
M  V30 12515 N 1191.35 0.610423 -1.45298 0
M  V30 12516 C 1192.6 1.36951 -1.49167 0
M  V30 12517 C 1192.92 1.9405 -0.132292 0
M  V30 12518 O 1192.18 1.75363 0.868686 0
M  V30 12519 C 1192.48 2.53812 -2.51623 0
M  V30 12520 C 1192.14 2.14877 -3.96407 0
M  V30 12521 C 1190.81 2.03972 -4.35831 0
M  V30 12522 C 1193.16 1.84448 -4.87472 0
M  V30 12523 C 1190.49 1.60856 -5.64218 0
M  V30 12524 C 1192.84 1.42818 -6.16268 0
M  V30 12525 C 1191.5 1.3047 -6.54625 0
M  V30 12526 H 1190.77 0.501138 -0.54584 0
M  V30 12527 H 1193.42 0.690221 -1.78629 0
M  V30 12528 H 1191.72 3.27066 -2.1572 0
M  V30 12529 H 1193.42 3.12041 -2.51856 0
M  V30 12530 H 1190.01 2.2429 -3.65229 0
M  V30 12531 H 1194.19 1.91771 -4.57753 0
M  V30 12532 H 1189.45 1.49916 -5.92735 0
M  V30 12533 H 1193.62 1.18318 -6.86275 0
M  V30 12534 H 1191.25 0.968347 -7.54007 0
M  V30 12535 N 1192.83 1.32541 0.852676 0
M  V30 12536 C 1193.79 1.21578 1.94297 0
M  V30 12537 C 1194.79 0.138318 1.60204 0
M  V30 12538 O 1195.98 0.388864 1.69804 0
M  V30 12539 C 1193.11 0.870209 3.29606 0
M  V30 12540 H 1194.3 2.18476 2.05446 0
M  V30 12541 H 1191.86 1.16401 1.0431 0
M  V30 12542 H 1192.59 -0.0968698 3.24155 0
M  V30 12543 H 1192.38 1.64924 3.55728 0
M  V30 12544 H 1193.87 0.817874 4.09513 0
M  V30 12545 N 1194.3 -1.0692 1.15784 0
M  V30 12546 C 1195.53 -1.83849 0.959903 0
M  V30 12547 C 1195.95 -1.8169 -0.486873 0
M  V30 12548 O 1195.31 -1.21305 -1.34739 0
M  V30 12549 C 1195.36 -3.28642 1.48414 0
M  V30 12550 O 1194.46 -4.0665 0.686249 0
M  V30 12551 H 1193.81 -0.569115 0.342059 0
M  V30 12552 H 1196.34 -1.34851 1.53871 0
M  V30 12553 H 1196.35 -3.7947 1.49888 0
M  V30 12554 H 1195.02 -3.29529 2.53739 0
M  V30 12555 H 1193.6 -3.65453 0.741501 0
M  V30 12556 N 1195.78 -0.955326 -1.25345 0
M  V30 12557 C 1197.2 -0.659863 -1.4532 0
M  V30 12558 C 1197.4 0.78238 -1.85691 0
M  V30 12559 O 1196.45 1.5576 -1.98734 0
M  V30 12560 C 1197.77 -1.63339 -2.5247 0
M  V30 12561 C 1199.32 -1.64464 -2.66309 0
M  V30 12562 C 1199.79 -2.60583 -3.76644 0
M  V30 12563 N 1201.28 -2.58951 -3.84055 0
M  V30 12564 C 1202.02 -3.30002 -4.6892 0
M  V30 12565 N 1201.51 -4.10528 -5.58067 0
M  V30 12566 N 1203.31 -3.18886 -4.62891 0
M  V30 12567 H 1195.46 -1.88734 -0.97433 0
M  V30 12568 H 1197.72 -0.811858 -0.48948 0
M  V30 12569 H 1197.43 -2.66358 -2.29665 0
M  V30 12570 H 1197.3 -1.39644 -3.50399 0
M  V30 12571 H 1199.69 -0.621622 -2.88479 0
M  V30 12572 H 1199.77 -1.92218 -1.68778 0
M  V30 12573 H 1199.41 -3.63011 -3.55226 0
M  V30 12574 H 1199.34 -2.30113 -4.73662 0
M  V30 12575 H 1201.83 -2.00491 -3.20331 0
M  V30 12576 H 1202.15 -4.6166 -6.1975 0
M  V30 12577 H 1200.49 -4.14626 -5.57773 0
M  V30 12578 H 1203.68 -2.55447 -3.92255 0
M  V30 12579 H 1203.85 -3.74524 -5.28806 0
M  V30 12580 N 1197.26 1.39987 -0.723979 0
M  V30 12581 C 1198.22 2.29041 -0.0854583 0
M  V30 12582 C 1199.22 1.45777 0.678657 0
M  V30 12583 O 1200.41 1.66588 0.509311 0
M  V30 12584 C 1197.55 3.29115 0.88859 0
M  V30 12585 H 1198.74 2.87006 -0.869903 0
M  V30 12586 H 1196.29 1.48449 -0.489136 0
M  V30 12587 H 1197.03 2.76184 1.69979 0
M  V30 12588 H 1196.81 3.90593 0.343454 0
M  V30 12589 H 1198.3 3.95778 1.33227 0
M  V30 12590 N 1198.74 0.470782 1.50404 0
M  V30 12591 C 1199.98 -0.0830648 2.04231 0
M  V30 12592 C 1200.34 -1.37015 1.34503 0
M  V30 12593 O 1201.54 -2.00635 1.78883 0
M  V30 12594 C 1199.82 -0.262986 3.56431 0
M  V30 12595 S 1201.37 -0.775432 4.31894 0
M  V30 12596 H 1198.19 -0.0161025 0.710818 0
M  V30 12597 H 1200.79 0.63785 1.84802 0
M  V30 12598 H 1199.5 0.679558 4.04735 0
M  V30 12599 H 1199.03 -1.01002 3.80213 0
M  V30 12600 H 1201.04 -2.04887 4.51924 0
M  V30 12601 N 1200.22 -1.56282 0.203376 0
M  V30 12602 C 1201.63 -1.58871 -0.152335 0
M  V30 12603 C 1201.83 -1.21978 -1.60386 0
M  V30 12604 O 1200.89 -0.946422 -2.34092 0
M  V30 12605 C 1202.2 -3.00287 0.157515 0
M  V30 12606 C 1203.75 -3.12846 0.098287 0
M  V30 12607 C 1204.23 -4.56408 0.38156 0
M  V30 12608 N 1205.72 -4.6202 0.330475 0
M  V30 12609 C 1206.45 -5.71006 0.523397 0
M  V30 12610 N 1205.95 -6.88428 0.777115 0
M  V30 12611 N 1207.74 -5.60238 0.457082 0
M  V30 12612 H 1199.89 -1.78543 1.15048 0
M  V30 12613 H 1202.15 -0.829019 0.459816 0
M  V30 12614 H 1201.86 -3.3187 1.16427 0
M  V30 12615 H 1201.73 -3.73372 -0.536041 0
M  V30 12616 H 1204.12 -2.8107 -0.899085 0
M  V30 12617 H 1204.2 -2.42129 0.825045 0
M  V30 12618 H 1203.85 -4.88897 1.37629 0
M  V30 12619 H 1203.78 -5.25325 -0.366182 0
M  V30 12620 H 1206.27 -3.77636 0.141327 0
M  V30 12621 H 1206.58 -7.67389 0.912911 0
M  V30 12622 H 1204.93 -6.90215 0.814104 0
M  V30 12623 H 1208.12 -4.67382 0.259226 0
M  V30 12624 H 1208.29 -6.45114 0.610848 0
M  V30 12625 N 1201.7 0.070167 -1.57444 0
M  V30 12626 C 1202.64 1.08322 -2.03801 0
M  V30 12627 C 1203.61 1.38364 -0.918946 0
M  V30 12628 O 1204.8 1.49404 -1.18672 0
M  V30 12629 C 1201.94 2.39128 -2.48821 0
M  V30 12630 C 1201.05 2.15603 -3.74352 0
M  V30 12631 C 1200.19 3.39984 -4.08148 0
M  V30 12632 C 1199.22 3.1183 -5.26715 0
M  V30 12633 N 1198.36 4.28546 -5.56141 0
M  V30 12634 H 1203.2 0.680931 -2.90116 0
M  V30 12635 H 1200.74 0.324657 -1.43473 0
M  V30 12636 H 1202.7 3.15501 -2.72975 0
M  V30 12637 H 1201.33 2.77157 -1.65481 0
M  V30 12638 H 1200.38 1.29915 -3.57528 0
M  V30 12639 H 1201.69 1.90808 -4.60862 0
M  V30 12640 H 1200.84 4.2475 -4.33211 0
M  V30 12641 H 1199.58 3.67856 -3.20208 0
M  V30 12642 H 1198.59 2.2546 -5.01446 0
M  V30 12643 H 1199.81 2.85278 -6.16273 0
M  V30 12644 H 1197.76 4.56447 -4.71161 0
M  V30 12645 H 1197.68 4.0703 -6.37073 0
M  V30 12646 H 1198.94 5.14305 -5.85757 0
M  V30 12647 N 1203.17 1.53854 0.341593 0
M  V30 12648 C 1204.4 1.75447 1.10604 0
M  V30 12649 C 1204.82 0.493225 1.81518 0
M  V30 12650 O 1204.18 -0.554253 1.7262 0
M  V30 12651 C 1204.23 2.93593 2.09369 0
M  V30 12652 O 1203.33 2.63878 3.16926 0
M  V30 12653 H 1202.67 0.581923 0.319783 0
M  V30 12654 H 1205.2 2.00822 0.391388 0
M  V30 12655 H 1205.21 3.20437 2.52556 0
M  V30 12656 H 1203.89 3.85067 1.57151 0
M  V30 12657 H 1202.47 2.47929 2.78542 0
M  V30 12658 N 1204.65 -0.602709 1.4562 0
M  V30 12659 C 1205.9 -1.36359 1.50113 0
M  V30 12660 C 1206.23 -1.93663 0.144297 0
M  V30 12661 O 1205.51 -1.75337 -0.841851 0
M  V30 12662 C 1205.79 -2.50788 2.58413 0
M  V30 12663 C 1205.64 -1.98649 4.03557 0
M  V30 12664 C 1206.96 -3.52905 2.62957 0
M  V30 12665 H 1204.08 -0.494455 0.54652 0
M  V30 12666 H 1206.72 -0.678957 1.77455 0
M  V30 12667 H 1204.87 -3.09191 2.3523 0
M  V30 12668 H 1206.54 -1.44857 4.37966 0
M  V30 12669 H 1204.79 -1.29615 4.13984 0
M  V30 12670 H 1205.46 -2.81159 4.7503 0
M  V30 12671 H 1207.93 -3.0435 2.83743 0
M  V30 12672 H 1206.81 -4.30454 3.40589 0
M  V30 12673 H 1207.07 -4.0884 1.68233 0
M  V30 12674 N 1206.13 -1.32992 -0.845635 0
M  V30 12675 C 1207.06 -1.17018 -1.95913 0
M  V30 12676 C 1208.04 -0.0673433 -1.6246 0
M  V30 12677 O 1209.22 -0.22833 -1.87112 0
M  V30 12678 C 1206.35 -0.793343 -3.29278 0
M  V30 12679 C 1205.4 -1.90271 -3.81705 0
M  V30 12680 S 1206.23 -3.51256 -4.04202 0
M  V30 12681 C 1207.39 -3.15564 -5.40528 0
M  V30 12682 H 1207.62 -2.11278 -2.09163 0
M  V30 12683 H 1205.15 -1.17756 -0.998644 0
M  V30 12684 H 1207.11 -0.582694 -4.06343 0
M  V30 12685 H 1205.77 0.130539 -3.13829 0
M  V30 12686 H 1204.96 -1.59225 -4.78188 0
M  V30 12687 H 1204.57 -2.06968 -3.11513 0
M  V30 12688 H 1206.86 -2.65969 -6.23111 0
M  V30 12689 H 1207.8 -4.11102 -5.76542 0
M  V30 12690 H 1208.21 -2.52341 -5.04959 0
M  V30 12691 N 1207.61 1.06304 -1.1635 0
M  V30 12692 C 1208.86 1.78487 -0.939423 0
M  V30 12693 C 1209.17 1.8817 0.533998 0
M  V30 12694 O 1210.38 2.56981 0.875962 0
M  V30 12695 C 1208.83 3.20796 -1.63149 0
M  V30 12696 C 1208.44 3.19281 -3.14267 0
M  V30 12697 C 1210.18 3.97514 -1.48938 0
M  V30 12698 C 1208.09 4.56309 -3.76213 0
M  V30 12699 H 1207.02 0.668973 -0.347837 0
M  V30 12700 H 1209.67 1.19237 -1.3948 0
M  V30 12701 H 1208.05 3.80305 -1.10382 0
M  V30 12702 H 1209.23 2.69356 -3.73877 0
M  V30 12703 H 1207.54 2.56062 -3.28362 0
M  V30 12704 H 1210.14 4.98808 -1.926 0
M  V30 12705 H 1210.48 4.13986 -0.438319 0
M  V30 12706 H 1211.02 3.44528 -1.98861 0
M  V30 12707 H 1207.75 4.45042 -4.81267 0
M  V30 12708 H 1207.27 5.06429 -3.21388 0
M  V30 12709 H 1208.95 5.25266 -3.77762 0
M  V30 12710 N 1209.09 0.96196 1.24836 0
M  V30 12711 C 1210.33 0.619489 1.92371 0
M  V30 12712 C 1210.65 -0.847233 1.75633 0
M  V30 12713 O 1209.92 -1.60419 1.12439 0
M  V30 12714 H 1208.5 0.226129 0.711951 0
M  V30 12715 H 1211.17 1.22179 1.5185 0
M  V30 12716 H 1210.26 0.855128 3.00157 0
M  V30 12717 N 1210.56 -1.39601 0.731392 0
M  V30 12718 C 1211.79 -2.04887 0.28789 0
M  V30 12719 C 1212.21 -1.55138 -1.076 0
M  V30 12720 O 1211.56 -0.71471 -1.67923 0
M  V30 12721 C 1211.61 -3.6044 0.276629 0
M  V30 12722 O 1211.34 -4.08358 1.58668 0
M  V30 12723 C 1212.84 -4.4292 -0.183485 0
M  V30 12724 H 1210.06 -0.658976 0.126459 0
M  V30 12725 H 1212.6 -1.78716 0.994031 0
M  V30 12726 H 1210.76 -3.85526 -0.380597 0
M  V30 12727 H 1211.17 -5.02659 1.4978 0
M  V30 12728 H 1212.64 -5.51822 -0.140207 0
M  V30 12729 H 1213.12 -4.2168 -1.22811 0
M  V30 12730 H 1213.73 -4.22976 0.444042 0
M  V30 12731 N 1212.04 -0.478751 -1.50152 0
M  V30 12732 C 1213.01 0.300181 -2.27226 0
M  V30 12733 C 1214.01 0.913705 -1.32318 0
M  V30 12734 O 1215.2 0.781692 -1.55677 0
M  V30 12735 C 1212.33 1.42838 -3.09532 0
M  V30 12736 H 1213.52 -0.375845 -2.97536 0
M  V30 12737 H 1211.07 -0.233037 -1.54553 0
M  V30 12738 H 1211.81 2.13923 -2.43737 0
M  V30 12739 H 1211.59 0.994161 -3.79287 0
M  V30 12740 H 1213.08 1.97765 -3.67802 0
M  V30 12741 N 1213.52 1.56172 -0.211661 0
M  V30 12742 C 1214.45 2.22843 0.697375 0
M  V30 12743 C 1215.43 1.19689 1.20866 0
M  V30 12744 O 1216.62 1.48245 1.25447 0
M  V30 12745 C 1213.75 2.90067 1.90993 0
M  V30 12746 C 1212.7 3.99608 1.5329 0
M  V30 12747 C 1212.03 4.54078 2.82343 0
M  V30 12748 C 1213.33 5.17169 0.730333 0
M  V30 12749 H 1215.02 2.99065 0.141533 0
M  V30 12750 H 1212.57 1.43846 0.0666337 0
M  V30 12751 H 1214.52 3.35396 2.55123 0
M  V30 12752 H 1213.24 2.11276 2.49058 0
M  V30 12753 H 1211.9 3.54995 0.915115 0
M  V30 12754 H 1211.55 3.72029 3.38531 0
M  V30 12755 H 1211.25 5.28001 2.57853 0
M  V30 12756 H 1212.77 5.02119 3.47432 0
M  V30 12757 H 1214.19 5.5894 1.2751 0
M  V30 12758 H 1212.59 5.97262 0.582916 0
M  V30 12759 H 1213.66 4.84174 -0.265157 0
M  V30 12760 N 1215 -0.0618163 1.57479 0
M  V30 12761 C 1215.95 -1.09105 2.05424 0
M  V30 12762 C 1216.94 -1.3947 0.961479 0
M  V30 12763 O 1218.15 -1.3876 1.14655 0
M  V30 12764 H 1214.52 -0.36923 0.655113 0
M  V30 12765 H 1216.49 -0.66061 2.90996 0
M  V30 12766 C 1215.24 -2.39345 2.52209 0
M  V30 12767 H 1214.56 -2.16832 3.35893 0
M  V30 12768 H 1216 -3.09784 2.89499 0
M  V30 12769 C 1214.46 -3.06011 1.40922 0
M  V30 12770 O 1214.99 -3.94504 0.756921 0
M  V30 12771 N 1213.2 -2.66797 1.15186 0
M  V30 12772 H 1212.75 -1.94923 1.68412 0
M  V30 12773 H 1212.7 -3.11724 0.409324 0
M  V30 12774 N 1216.48 -1.54033 -0.333429 0
M  V30 12775 C 1217.7 -1.75716 -1.09232 0
M  V30 12776 C 1218.12 -0.501076 -1.82029 0
M  V30 12777 O 1217.48 0.527772 -1.74702 0
M  V30 12778 C 1217.53 -2.9439 -2.09802 0
M  V30 12779 O 1217.25 -4.15141 -1.39963 0
M  V30 12780 C 1218.75 -3.28206 -2.97987 0
M  V30 12781 H 1215.97 -0.586859 -0.325326 0
M  V30 12782 H 1218.51 -2.0089 -0.382555 0
M  V30 12783 H 1216.67 -2.71518 -2.76327 0
M  V30 12784 H 1217.08 -4.81826 -2.0723 0
M  V30 12785 H 1218.56 -4.14568 -3.64469 0
M  V30 12786 H 1219.03 -2.44944 -3.64553 0
M  V30 12787 H 1219.64 -3.5312 -2.37036 0
M  V30 12788 N 1217.95 0.594978 -1.45938 0
M  V30 12789 C 1219.18 1.38482 -1.54394 0
M  V30 12790 C 1219.6 1.87222 -0.181563 0
M  V30 12791 O 1218.96 1.60869 0.836119 0
M  V30 12792 C 1219.01 2.55676 -2.54287 0
M  V30 12793 O 1218.11 3.5672 -2.06941 0
M  V30 12794 H 1217.46 0.412918 -0.519995 0
M  V30 12795 H 1219.99 0.722899 -1.91404 0
M  V30 12796 H 1220 3.02756 -2.73501 0
M  V30 12797 H 1218.67 2.19552 -3.53228 0
M  V30 12798 H 1217.25 3.16204 -1.97661 0
M  V30 12799 N 1219.43 1.33438 0.838571 0
M  V30 12800 C 1220.34 1.25753 1.98049 0
M  V30 12801 C 1221.36 0.168051 1.73187 0
M  V30 12802 O 1222.53 0.391691 1.97554 0
M  V30 12803 C 1219.6 0.997148 3.32051 0
M  V30 12804 C 1218.66 2.17667 3.70027 0
M  V30 12805 C 1217.89 1.92861 4.97635 0
M  V30 12806 O 1218.12 0.879072 5.63585 0
M  V30 12807 O 1217.05 2.79402 5.33121 0
M  V30 12808 H 1220.88 2.21786 2.07472 0
M  V30 12809 H 1218.46 1.13488 0.971645 0
M  V30 12810 H 1220.34 0.869099 4.1234 0
M  V30 12811 H 1219.02 0.0671036 3.2363 0
M  V30 12812 H 1217.93 2.36025 2.90246 0
M  V30 12813 H 1219.26 3.09006 3.83114 0
M  V30 12814 N 1220.91 -1.05686 1.16912 0
M  V30 12815 C 1221.84 -2.12775 0.824755 0
M  V30 12816 C 1222.82 -1.61286 -0.206289 0
M  V30 12817 O 1224.01 -1.8829 -0.0889616 0
M  V30 12818 C 1221.13 -3.37922 0.229422 0
M  V30 12819 C 1220.18 -4.08226 1.23506 0
M  V30 12820 S 1221.01 -4.57424 2.78431 0
M  V30 12821 C 1222.17 -5.85825 2.20364 0
M  V30 12822 H 1222.4 -2.41657 1.73174 0
M  V30 12823 H 1219.93 -1.18212 0.99324 0
M  V30 12824 H 1221.89 -4.10359 -0.107588 0
M  V30 12825 H 1220.55 -3.07186 -0.655424 0
M  V30 12826 H 1219.75 -4.98129 0.767059 0
M  V30 12827 H 1219.35 -3.41832 1.51747 0
M  V30 12828 H 1221.64 -6.58912 1.57611 0
M  V30 12829 H 1222.58 -6.37364 3.08501 0
M  V30 12830 H 1222.99 -5.4015 1.64008 0
M  V30 12831 N 1222.39 -0.968567 -1.24324 0
M  V30 12832 C 1223.34 -0.498817 -2.25345 0
M  V30 12833 C 1224.31 0.456082 -1.59716 0
M  V30 12834 O 1225.49 0.366254 -1.87252 0
M  V30 12835 C 1222.63 0.204027 -3.44496 0
M  V30 12836 C 1221.74 -0.789741 -4.2472 0
M  V30 12837 C 1220.88 -0.0629156 -5.31163 0
M  V30 12838 C 1219.92 -1.04669 -6.03084 0
M  V30 12839 N 1219.05 -0.349812 -7.01228 0
M  V30 12840 H 1223.89 -1.36511 -2.64894 0
M  V30 12841 H 1221.43 -0.684288 -1.30215 0
M  V30 12842 H 1223.39 0.628223 -4.12443 0
M  V30 12843 H 1222.02 1.03426 -3.05782 0
M  V30 12844 H 1221.07 -1.33237 -3.56303 0
M  V30 12845 H 1222.38 -1.53988 -4.74436 0
M  V30 12846 H 1221.54 0.419233 -6.0525 0
M  V30 12847 H 1220.28 0.719915 -4.82357 0
M  V30 12848 H 1219.28 -1.53971 -5.278 0
M  V30 12849 H 1220.51 -1.82998 -6.53979 0
M  V30 12850 H 1218.45 0.414026 -6.54692 0
M  V30 12851 H 1218.37 -1.03881 -7.48829 0
M  V30 12852 H 1219.64 0.11034 -7.79422 0
M  V30 12853 N 1223.87 1.39211 -0.738786 0
M  V30 12854 C 1224.81 2.30578 -0.10129 0
M  V30 12855 C 1225.78 1.49412 0.725616 0
M  V30 12856 O 1226.97 1.78087 0.684799 0
M  V30 12857 C 1224.11 3.35767 0.797161 0
M  V30 12858 C 1223.22 4.31979 -0.0427701 0
M  V30 12859 C 1222.36 5.24236 0.857306 0
M  V30 12860 C 1221.4 6.12099 0.0128501 0
M  V30 12861 N 1220.53 6.96701 0.869067 0
M  V30 12862 H 1225.37 2.84522 -0.88606 0
M  V30 12863 H 1222.91 1.40093 -0.448602 0
M  V30 12864 H 1224.87 3.95347 1.33255 0
M  V30 12865 H 1223.5 2.83268 1.54787 0
M  V30 12866 H 1222.55 3.73986 -0.695622 0
M  V30 12867 H 1223.86 4.93927 -0.69555 0
M  V30 12868 H 1223.02 5.88861 1.4604 0
M  V30 12869 H 1221.75 4.62619 1.54386 0
M  V30 12870 H 1220.76 5.46483 -0.603018 0
M  V30 12871 H 1221.98 6.75781 -0.67054 0
M  V30 12872 H 1219.93 6.37647 1.54084 0
M  V30 12873 H 1219.85 7.55507 0.272852 0
M  V30 12874 H 1221.12 7.65751 1.4576 0
M  V30 12875 N 1225.34 0.486708 1.49896 0
M  V30 12876 C 1226.27 -0.288898 2.31706 0
M  V30 12877 C 1227.26 -0.975901 1.3932 0
M  V30 12878 O 1228.44 -0.970065 1.68236 0
M  V30 12879 C 1225.57 -1.36218 3.19471 0
M  V30 12880 C 1224.52 -0.795884 4.20535 0
M  V30 12881 C 1223.85 -1.96862 4.97141 0
M  V30 12882 C 1225.15 0.203421 5.21904 0
M  V30 12883 H 1226.84 0.393934 2.96797 0
M  V30 12884 H 1224.39 0.190894 1.42729 0
M  V30 12885 H 1226.34 -1.91238 3.75508 0
M  V30 12886 H 1225.07 -2.074 2.52295 0
M  V30 12887 H 1223.73 -0.267538 3.65622 0
M  V30 12888 H 1223.37 -2.66779 4.26425 0
M  V30 12889 H 1223.07 -1.59585 5.65514 0
M  V30 12890 H 1224.6 -2.52343 5.56017 0
M  V30 12891 H 1226.01 -0.258144 5.72719 0
M  V30 12892 H 1224.41 0.491273 5.98086 0
M  V30 12893 H 1225.48 1.12414 4.7169 0
M  V30 12894 N 1226.82 -1.56058 0.219941 0
M  V30 12895 C 1228.07 -1.97436 -0.412543 0
M  V30 12896 C 1228.39 -1.11058 -1.61014 0
M  V30 12897 O 1229.59 -1.42328 -2.31203 0
M  V30 12898 C 1228.05 -3.51227 -0.785362 0
M  V30 12899 C 1227.66 -4.46305 0.389328 0
M  V30 12900 C 1229.4 -4.01321 -1.38354 0
M  V30 12901 C 1227.31 -5.914 -0.00583531 0
M  V30 12902 H 1226.24 -0.73728 -0.157906 0
M  V30 12903 H 1228.89 -1.8076 0.315898 0
M  V30 12904 H 1227.27 -3.63497 -1.57118 0
M  V30 12905 H 1228.44 -4.45781 1.16686 0
M  V30 12906 H 1226.76 -4.06543 0.900633 0
M  V30 12907 H 1229.36 -5.07221 -1.69207 0
M  V30 12908 H 1229.7 -3.47077 -2.29876 0
M  V30 12909 H 1230.23 -3.92267 -0.66119 0
M  V30 12910 H 1226.97 -6.49623 0.87583 0
M  V30 12911 H 1226.49 -5.95121 -0.74772 0
M  V30 12912 H 1228.17 -6.45549 -0.43308 0
M  V30 12913 N 1228.3 0.053464 -1.57509 0
M  V30 12914 C 1229.53 0.761533 -1.92375 0
M  V30 12915 C 1229.94 1.70179 -0.817585 0
M  V30 12916 O 1229.3 1.81313 0.207843 0
M  V30 12917 C 1229.35 1.53954 -3.27078 0
M  V30 12918 O 1229.07 0.637054 -4.33443 0
M  V30 12919 C 1230.57 2.34697 -3.76075 0
M  V30 12920 H 1227.79 0.215483 -0.635459 0
M  V30 12921 H 1230.34 0.0182624 -2.04492 0
M  V30 12922 H 1228.49 2.23492 -3.16434 0
M  V30 12923 H 1228.91 1.18006 -5.11053 0
M  V30 12924 H 1230.38 2.84716 -4.72906 0
M  V30 12925 H 1230.86 3.15041 -3.06016 0
M  V30 12926 H 1231.46 1.70281 -3.89724 0
M  V30 12927 N 1229.78 1.54207 0.325255 0
M  V30 12928 C 1230.73 1.79856 1.40128 0
M  V30 12929 C 1231.71 0.654503 1.46987 0
M  V30 12930 O 1232.91 0.914453 1.51548 0
M  V30 12931 C 1230.03 2.02786 2.77007 0
M  V30 12932 C 1229.12 3.23309 2.74467 0
M  V30 12933 N 1229.51 4.44396 2.41549 0
M  V30 12934 C 1227.81 3.24848 3.05598 0
M  V30 12935 C 1228.51 5.26325 2.47703 0
M  V30 12936 N 1227.49 4.63468 2.84074 0
M  V30 12937 H 1231.29 2.71056 1.13603 0
M  V30 12938 H 1228.8 1.53379 0.533728 0
M  V30 12939 H 1230.8 2.19301 3.5456 0
M  V30 12940 H 1229.46 1.12839 3.04463 0
M  V30 12941 H 1230.47 4.71426 2.14425 0
M  V30 12942 H 1227.15 2.44929 3.38107 0
M  V30 12943 H 1228.54 6.33016 2.25257 0
M  V30 12944 N 1231.26 -0.58723 1.46251 0
M  V30 12945 C 1232.19 -1.71113 1.50982 0
M  V30 12946 C 1233.17 -1.58466 0.364322 0
M  V30 12947 O 1234.35 -1.79745 0.567812 0
M  V30 12948 C 1231.48 -3.09128 1.38411 0
M  V30 12949 C 1230.53 -3.40308 2.57085 0
M  V30 12950 S 1231.36 -3.32881 4.19464 0
M  V30 12951 C 1232.51 -4.73441 4.09395 0
M  V30 12952 H 1232.75 -1.66841 2.46072 0
M  V30 12953 H 1230.28 -0.765598 1.34082 0
M  V30 12954 H 1232.24 -3.88751 1.31846 0
M  V30 12955 H 1230.9 -3.10895 0.447567 0
M  V30 12956 H 1230.09 -4.40849 2.4427 0
M  V30 12957 H 1229.69 -2.68244 2.60617 0
M  V30 12958 H 1231.99 -5.63723 3.75796 0
M  V30 12959 H 1232.93 -4.91313 5.09919 0
M  V30 12960 H 1233.34 -4.50079 3.40719 0
M  V30 12961 N 1232.74 -1.33881 -0.831482 0
M  V30 12962 C 1233.98 -1.25507 -1.58406 0
M  V30 12963 C 1234.3 0.177137 -1.94194 0
M  V30 12964 O 1233.57 1.10769 -1.61576 0
M  V30 12965 H 1232.15 -0.461551 -0.587349 0
M  V30 12966 H 1234.82 -1.6769 -0.99328 0
M  V30 12967 H 1233.91 -1.85391 -2.51071 0
M  V30 12968 N 1234.21 1.05064 -1.1747 0
M  V30 12969 C 1235.12 2.16346 -0.907286 0
M  V30 12970 C 1236.14 1.7355 0.125013 0
M  V30 12971 O 1237.32 2.01326 -0.0545551 0
M  V30 12972 C 1234.38 3.44077 -0.425681 0
M  V30 12973 C 1233.44 4.01311 -1.52473 0
M  V30 12974 C 1232.67 5.22946 -1.06601 0
M  V30 12975 O 1232.9 5.70345 0.0793329 0
M  V30 12976 O 1231.83 5.72454 -1.85958 0
M  V30 12977 H 1235.66 2.41754 -1.83817 0
M  V30 12978 H 1233.24 1.14834 -0.955693 0
M  V30 12979 H 1235.12 4.21078 -0.164689 0
M  V30 12980 H 1233.8 3.20166 0.477037 0
M  V30 12981 H 1232.71 3.25744 -1.83961 0
M  V30 12982 H 1234.04 4.29543 -2.4032 0
M  V30 12983 N 1235.69 0.975146 1.23809 0
M  V30 12984 C 1236.62 0.45593 2.23599 0
M  V30 12985 C 1237.6 -0.474069 1.55536 0
M  V30 12986 O 1238.79 -0.40373 1.84126 0
M  V30 12987 C 1235.91 -0.341008 3.36979 0
M  V30 12988 C 1234.96 0.532362 4.23164 0
M  V30 12989 S 1235.79 1.97706 4.97667 0
M  V30 12990 C 1236.95 1.18912 6.145 0
M  V30 12991 H 1237.18 1.30157 2.67295 0
M  V30 12992 H 1234.71 0.78074 1.33206 0
M  V30 12993 H 1236.67 -0.794817 4.02732 0
M  V30 12994 H 1235.33 -1.16171 2.91827 0
M  V30 12995 H 1234.53 -0.0798928 5.03937 0
M  V30 12996 H 1234.13 0.922202 3.62452 0
M  V30 12997 H 1236.42 0.447823 6.76018 0
M  V30 12998 H 1237.36 1.97148 6.80102 0
M  V30 12999 H 1237.77 0.710216 5.60014 0
M  V30 13000 N 1237.17 -1.38817 0.746158 0
M  V30 13001 C 1238.45 -1.94303 0.224841 0
M  V30 13002 C 1238.83 -1.68207 -1.27552 0
M  V30 13003 O 1238.17 -1.01647 -2.04646 0
M  V30 13004 C 1238.38 -3.44306 0.5705 0
M  V30 13005 C 1239.73 -4.21329 0.526015 0
M  V30 13006 O 1240.76 -3.52554 0.508351 0
M  V30 13007 O 1239.62 -5.4392 0.530383 0
M  V30 13008 H 1236.71 -0.825785 0.0448047 0
M  V30 13009 H 1239.26 -1.48253 0.825775 0
M  V30 13010 H 1238.03 -3.56779 1.60701 0
M  V30 13011 H 1237.65 -3.97556 -0.0588271 0
M  V30 13012 N 1238.65 -0.49465 -1.49636 0
M  V30 13013 C 1239.6 0.306278 -2.25933 0
M  V30 13014 C 1240.58 0.941082 -1.30508 0
M  V30 13015 O 1241.77 0.849732 -1.55269 0
M  V30 13016 C 1238.9 1.3739 -3.14609 0
M  V30 13017 C 1237.99 0.745657 -4.17493 0
M  V30 13018 N 1238.38 -0.147977 -5.05583 0
M  V30 13019 C 1236.68 1.00696 -4.34484 0
M  V30 13020 C 1237.38 -0.506949 -5.79487 0
M  V30 13021 N 1236.35 0.123603 -5.43459 0
M  V30 13022 H 1240.16 -0.381753 -2.9141 0
M  V30 13023 H 1237.67 -0.310311 -1.59408 0
M  V30 13024 H 1239.67 1.96108 -3.67896 0
M  V30 13025 H 1238.33 2.06368 -2.50684 0
M  V30 13026 H 1239.34 -0.518378 -5.15299 0
M  V30 13027 H 1236.02 1.68996 -3.81768 0
M  V30 13028 H 1237.41 -1.23766 -6.60403 0
M  V30 13029 N 1240.13 1.55939 -0.228214 0
M  V30 13030 C 1241.54 1.84612 0.278417 0
M  V30 13031 C 1241.89 1.14973 1.58983 0
M  V30 13032 O 1241.01 0.421673 2.12252 0
M  V30 13033 C 1241.61 3.3491 0.511935 0
M  V30 13034 C 1240.17 3.63876 0.962861 0
M  V30 13035 C 1239.31 2.77284 0.0296246 0
M  V30 13036 H 1242.26 1.52149 -0.451245 0
M  V30 13037 H 1242.29 3.55477 1.35707 0
M  V30 13038 H 1241.8 3.85567 -0.442697 0
M  V30 13039 H 1239.9 3.18682 1.93062 0
M  V30 13040 H 1240.01 4.71809 0.832659 0
M  V30 13041 H 1238.38 2.48961 0.53763 0
M  V30 13042 H 1239.16 3.30742 -0.920044 0
M  V30 13043 N 1241.6 -0.0451101 1.57535 0
M  V30 13044 C 1242.85 -0.734819 1.89663 0
M  V30 13045 C 1243.21 -1.73814 0.82502 0
M  V30 13046 O 1242.5 -1.90861 -0.168067 0
M  V30 13047 C 1242.69 -1.45938 3.26247 0
M  V30 13048 C 1242.52 -0.52775 4.46593 0
M  V30 13049 C 1241.29 -0.154735 5.05063 0
M  V30 13050 C 1243.49 0.187025 5.1396 0
M  V30 13051 N 1241.47 0.77983 6.08927 0
M  V30 13052 C 1242.84 0.977812 6.12241 0
M  V30 13053 C 1244.9 0.255673 4.97243 0
M  V30 13054 C 1243.6 1.83091 6.95608 0
M  V30 13055 C 1245.63 1.09584 5.81159 0
M  V30 13056 C 1244.99 1.8746 6.78998 0
M  V30 13057 H 1241.09 -0.243486 0.743128 0
M  V30 13058 H 1243.67 0.00462003 1.94699 0
M  V30 13059 H 1241.84 -2.16938 3.22169 0
M  V30 13060 H 1243.57 -2.10021 3.45938 0
M  V30 13061 H 1240.33 -0.513447 4.70809 0
M  V30 13062 H 1240.75 1.24114 6.65526 0
M  V30 13063 H 1245.4 -0.332093 4.21494 0
M  V30 13064 H 1243.11 2.42954 7.70713 0
M  V30 13065 H 1246.7 1.15228 5.70275 0
M  V30 13066 H 1245.58 2.51422 7.42803 0
M  V30 13067 N 1243.08 -1.54377 -0.317073 0
M  V30 13068 C 1244.03 -1.84948 -1.41057 0
M  V30 13069 C 1245.02 -0.721887 -1.53249 0
M  V30 13070 O 1246.23 -0.905648 -1.55557 0
M  V30 13071 H 1242.61 -0.586353 -0.470844 0
M  V30 13072 H 1244.58 -2.7638 -1.12501 0
M  V30 13073 C 1243.33 -2.09932 -2.77171 0
M  V30 13074 H 1242.65 -2.96162 -2.68566 0
M  V30 13075 H 1244.09 -2.35272 -3.52737 0
M  V30 13076 C 1242.55 -0.892855 -3.24853 0
M  V30 13077 O 1243.08 -0.105336 -4.01562 0
M  V30 13078 N 1241.28 -0.702685 -2.81976 0
M  V30 13079 H 1240.83 -1.34474 -2.19715 0
M  V30 13080 H 1240.79 0.103024 -3.14231 0
M  V30 13081 N 1244.56 0.579466 -1.4656 0
M  V30 13082 C 1245.8 1.34857 -1.536 0
M  V30 13083 C 1246.16 1.91111 -0.184576 0
M  V30 13084 O 1247.37 2.68487 -0.129731 0
M  V30 13085 C 1245.64 2.44535 -2.60648 0
M  V30 13086 S 1247.2 3.31829 -2.87115 0
M  V30 13087 H 1244.01 0.459405 -0.542649 0
M  V30 13088 H 1246.62 0.665798 -1.83813 0
M  V30 13089 H 1245.32 2.01605 -3.57468 0
M  V30 13090 H 1244.85 3.17581 -2.32177 0
M  V30 13091 H 1246.87 4.43452 -2.22632 0
M  V30 13092 N 1246.04 1.3432 0.824371 0
M  V30 13093 C 1247.45 1.23855 1.39703 0
M  V30 13094 C 1247.8 -0.136566 1.95724 0
M  V30 13095 O 1246.93 -1.03683 1.89944 0
M  V30 13096 C 1247.52 2.24249 2.53965 0
M  V30 13097 C 1246.08 2.17578 3.07143 0
M  V30 13098 C 1245.23 2.10933 1.80008 0
M  V30 13099 H 1248.18 1.45707 0.628891 0
M  V30 13100 H 1248.2 1.85864 3.32016 0
M  V30 13101 H 1247.71 3.24321 2.13161 0
M  V30 13102 H 1245.81 1.20858 3.52455 0
M  V30 13103 H 1245.92 3.08769 3.66331 0
M  V30 13104 H 1244.29 1.56631 2.00845 0
M  V30 13105 H 1245.07 3.12836 1.4138 0
M  V30 13106 N 1247.52 -1.0444 1.18026 0
M  V30 13107 C 1248.47 -2.10671 0.871877 0
M  V30 13108 C 1249.45 -1.60134 -0.156798 0
M  V30 13109 O 1250.64 -1.76938 0.0467129 0
M  V30 13110 C 1247.77 -3.41017 0.395271 0
M  V30 13111 C 1246.86 -3.98331 1.4558 0
M  V30 13112 N 1247.25 -4.29508 2.67127 0
M  V30 13113 C 1245.55 -4.2616 1.31544 0
M  V30 13114 C 1246.25 -4.7532 3.35329 0
M  V30 13115 N 1245.22 -4.75904 2.6271 0
M  V30 13116 H 1249.03 -2.32647 1.79589 0
M  V30 13117 H 1246.54 -1.22158 1.0701 0
M  V30 13118 H 1248.54 -4.16609 0.155861 0
M  V30 13119 H 1247.2 -3.20469 -0.522452 0
M  V30 13120 H 1248.21 -4.19271 3.04027 0
M  V30 13121 H 1244.88 -4.14959 0.459962 0
M  V30 13122 H 1246.27 -5.08493 4.39186 0
M  V30 13123 N 1248.99 -0.981699 -1.2329 0
M  V30 13124 C 1250.24 -0.650015 -1.91361 0
M  V30 13125 C 1250.56 0.819184 -1.76959 0
M  V30 13126 O 1249.83 1.5861 -1.14977 0
M  V30 13127 H 1248.41 -0.237427 -0.708264 0
M  V30 13128 H 1251.08 -1.24579 -1.49887 0
M  V30 13129 H 1250.17 -0.902772 -2.98758 0
M  V30 13130 N 1250.47 1.3842 -0.753509 0
M  V30 13131 C 1251.89 1.53668 -0.431095 0
M  V30 13132 C 1252.09 1.71626 1.05578 0
M  V30 13133 O 1251.14 1.72723 1.84182 0
M  V30 13134 C 1252.46 2.74381 -1.23027 0
M  V30 13135 C 1254.01 2.8823 -1.22034 0
M  V30 13136 C 1254.48 4.11904 -2.00248 0
M  V30 13137 N 1255.97 4.18981 -1.97508 0
M  V30 13138 C 1256.71 5.13667 -2.5482 0
M  V30 13139 N 1256.2 6.14027 -3.20846 0
M  V30 13140 N 1258 5.06017 -2.44751 0
M  V30 13141 H 1250.15 1.25012 -1.71714 0
M  V30 13142 H 1252.41 0.607296 -0.727939 0
M  V30 13143 H 1252.12 2.67515 -2.28317 0
M  V30 13144 H 1251.99 3.67565 -0.847098 0
M  V30 13145 H 1254.38 2.94578 -0.175502 0
M  V30 13146 H 1254.46 1.96057 -1.64303 0
M  V30 13147 H 1254.1 4.06318 -3.04742 0
M  V30 13148 H 1254.03 5.03157 -1.55373 0
M  V30 13149 H 1256.52 3.47104 -1.49423 0
M  V30 13150 H 1256.84 6.82771 -3.61999 0
M  V30 13151 H 1255.18 6.1436 -3.24941 0
M  V30 13152 H 1258.37 4.26552 -1.92797 0
M  V30 13153 H 1258.54 5.7963 -2.89713 0
M  V30 13154 N 1251.95 0.502579 1.49372 0
M  V30 13155 C 1253.36 0.055187 1.86618 0
M  V30 13156 C 1253.71 -1.35938 1.41476 0
M  V30 13157 O 1252.84 -2.01333 0.793338 0
M  V30 13158 C 1253.43 0.0933734 3.38671 0
M  V30 13159 C 1251.99 -0.298685 3.75213 0
M  V30 13160 C 1251.14 0.465216 2.7337 0
M  V30 13161 H 1254.09 0.715281 1.41667 0
M  V30 13162 H 1254.11 -0.701549 3.73977 0
M  V30 13163 H 1253.62 1.12303 3.71497 0
M  V30 13164 H 1251.72 -1.33151 3.47996 0
M  V30 13165 H 1251.84 0.0218637 4.79095 0
M  V30 13166 H 1250.2 -0.0851469 2.54558 0
M  V30 13167 H 1250.98 1.49498 3.09039 0
M  V30 13168 N 1253.43 -1.55816 0.23648 0
M  V30 13169 C 1254.66 -2.03083 -0.395584 0
M  V30 13170 C 1255.07 -1.11599 -1.52286 0
M  V30 13171 O 1254.43 -0.128403 -1.82048 0
M  V30 13172 C 1254.48 -3.49776 -0.913197 0
M  V30 13173 O 1254.2 -4.37773 0.169151 0
M  V30 13174 C 1255.7 -4.12756 -1.617 0
M  V30 13175 H 1252.92 -0.66421 -0.0952146 0
M  V30 13176 H 1255.47 -2.01354 0.357299 0
M  V30 13177 H 1253.62 -3.52072 -1.6163 0
M  V30 13178 H 1254.03 -5.24029 -0.222217 0
M  V30 13179 H 1255.51 -5.17123 -1.93101 0
M  V30 13180 H 1255.99 -3.58631 -2.53537 0
M  V30 13181 H 1256.59 -4.14353 -0.958736 0
M  V30 13182 N 1254.91 0.036755 -1.57557 0
M  V30 13183 C 1255.84 1.07261 -2.01421 0
M  V30 13184 C 1256.82 1.35609 -0.897161 0
M  V30 13185 O 1258 1.48395 -1.16237 0
M  V30 13186 C 1255.13 2.40912 -2.38074 0
M  V30 13187 C 1254.17 2.28471 -3.60143 0
M  V30 13188 S 1255.01 1.64544 -5.09594 0
M  V30 13189 C 1256.16 2.99701 -5.49482 0
M  V30 13190 H 1256.4 0.698959 -2.88967 0
M  V30 13191 H 1253.93 0.246481 -1.5242 0
M  V30 13192 H 1255.89 3.17776 -2.59862 0
M  V30 13193 H 1254.55 2.75427 -1.50993 0
M  V30 13194 H 1253.74 3.27117 -3.8342 0
M  V30 13195 H 1253.34 1.59749 -3.38166 0
M  V30 13196 H 1255.64 3.96032 -5.49695 0
M  V30 13197 H 1256.58 2.81166 -6.49885 0
M  V30 13198 H 1256.99 3.0192 -4.76975 0
M  V30 13199 N 1256.39 1.54543 0.308881 0
M  V30 13200 C 1257.8 1.45581 0.654088 0
M  V30 13201 C 1258 0.640597 1.91046 0
M  V30 13202 O 1257.06 0.14518 2.52082 0
M  V30 13203 C 1258.37 2.89461 0.814422 0
M  V30 13204 C 1259.92 2.99455 0.910817 0
M  V30 13205 C 1260.39 4.44515 1.10321 0
M  V30 13206 N 1261.88 4.4819 1.1696 0
M  V30 13207 C 1262.62 5.57604 1.33661 0
M  V30 13208 N 1262.12 6.76957 1.47311 0
M  V30 13209 N 1263.91 5.45278 1.36487 0
M  V30 13210 H 1256.06 2.06019 -0.516699 0
M  V30 13211 H 1258.32 0.932729 -0.169471 0
M  V30 13212 H 1258.03 3.5168 -0.0377455 0
M  V30 13213 H 1257.9 3.36425 1.70582 0
M  V30 13214 H 1260.29 2.37355 1.75348 0
M  V30 13215 H 1260.37 2.558 -0.00443172 0
M  V30 13216 H 1260.01 5.07206 0.265346 0
M  V30 13217 H 1259.94 4.85793 2.03256 0
M  V30 13218 H 1262.44 3.62199 1.07796 0
M  V30 13219 H 1262.75 7.561 1.59788 0
M  V30 13220 H 1261.09 6.79837 1.44382 0
M  V30 13221 H 1264.28 4.50983 1.25429 0
M  V30 13222 H 1264.46 6.30599 1.4916 0
M  V30 13223 N 1257.86 -0.571685 1.46866 0
M  V30 13224 C 1258.81 -1.6751 1.54676 0
M  V30 13225 C 1259.8 -1.55673 0.406774 0
M  V30 13226 O 1260.99 -1.64401 0.655847 0
M  V30 13227 C 1258.12 -3.06295 1.55043 0
M  V30 13228 C 1257.2 -3.23388 2.74374 0
M  V30 13229 N 1257.6 -3.10598 3.99202 0
M  V30 13230 C 1255.89 -3.54354 2.7083 0
M  V30 13231 C 1256.59 -3.29993 4.79041 0
M  V30 13232 N 1255.57 -3.55659 4.11106 0
M  V30 13233 H 1259.37 -1.56168 2.48975 0
M  V30 13234 H 1256.89 -0.776036 1.42658 0
M  V30 13235 H 1258.88 -3.85502 1.58726 0
M  V30 13236 H 1257.54 -3.18759 0.618278 0
M  V30 13237 H 1258.55 -2.8823 4.30283 0
M  V30 13238 H 1255.23 -3.73435 1.86688 0
M  V30 13239 H 1256.62 -3.25194 5.87961 0
M  V30 13240 N 1259.34 -1.34755 -0.817236 0
M  V30 13241 C 1260.59 -1.26771 -1.56882 0
M  V30 13242 C 1260.9 0.158962 -1.94953 0
M  V30 13243 O 1262.11 0.360996 -2.69089 0
M  V30 13244 C 1260.57 -2.22261 -2.83069 0
M  V30 13245 C 1260.17 -3.70216 -2.52277 0
M  V30 13246 C 1261.92 -2.23197 -3.61086 0
M  V30 13247 C 1259.82 -4.57559 -3.74691 0
M  V30 13248 H 1258.75 -0.470961 -0.588822 0
M  V30 13249 H 1261.41 -1.59955 -0.899254 0
M  V30 13250 H 1259.79 -1.82036 -3.5168 0
M  V30 13251 H 1260.96 -4.19014 -1.9174 0
M  V30 13252 H 1259.28 -3.71784 -1.87525 0
M  V30 13253 H 1261.87 -2.85673 -4.5199 0
M  V30 13254 H 1262.22 -1.2328 -3.97628 0
M  V30 13255 H 1262.75 -2.61897 -2.99424 0
M  V30 13256 H 1259.49 -5.58434 -3.43267 0
M  V30 13257 H 1259.01 -4.13494 -4.34491 0
M  V30 13258 H 1260.69 -4.72451 -4.42039 0
M  V30 13259 N 1260.82 1.03812 -1.18578 0
M  V30 13260 C 1261.78 2.10049 -0.91718 0
M  V30 13261 C 1262.78 1.60498 0.0985122 0
M  V30 13262 O 1263.97 1.73674 -0.135213 0
M  V30 13263 C 1261.1 3.38813 -0.376599 0
M  V30 13264 H 1262.3 2.3531 -1.85927 0
M  V30 13265 H 1259.85 1.20277 -0.998156 0
M  V30 13266 H 1260.59 3.19216 0.571983 0
M  V30 13267 H 1260.37 3.76096 -1.10881 0
M  V30 13268 H 1261.86 4.17084 -0.207453 0
M  V30 13269 N 1262.3 0.988223 1.22768 0
M  V30 13270 C 1263.25 0.527454 2.26541 0
M  V30 13271 C 1264.24 -0.419506 1.64123 0
M  V30 13272 O 1265.45 -0.292539 1.77607 0
M  V30 13273 H 1261.82 0.152165 0.736444 0
M  V30 13274 H 1263.79 1.41422 2.62759 0
M  V30 13275 C 1262.54 -0.146845 3.4739 0
M  V30 13276 H 1261.86 0.572752 3.95676 0
M  V30 13277 H 1263.3 -0.432768 4.21786 0
M  V30 13278 C 1261.76 -1.38065 3.0731 0
M  V30 13279 O 1262.29 -2.47634 3.16291 0
M  V30 13280 N 1260.5 -1.25418 2.62143 0
M  V30 13281 H 1260.05 -0.362641 2.55035 0
M  V30 13282 H 1260 -2.08077 2.35694 0
M  V30 13283 N 1263.78 -1.38018 0.760839 0
M  V30 13284 C 1264.71 -2.32995 0.153557 0
M  V30 13285 C 1265.69 -1.55234 -0.695448 0
M  V30 13286 O 1266.87 -1.8352 -0.635148 0
M  V30 13287 C 1264 -3.39437 -0.734811 0
M  V30 13288 C 1262.96 -4.27998 0.0120287 0
M  V30 13289 C 1262.28 -5.25359 -0.995067 0
M  V30 13290 C 1263.58 -5.08687 1.18468 0
M  V30 13291 H 1265.28 -2.8403 0.946956 0
M  V30 13292 H 1262.82 -1.36562 0.456816 0
M  V30 13293 H 1264.77 -4.0485 -1.16938 0
M  V30 13294 H 1263.5 -2.86901 -1.56061 0
M  V30 13295 H 1262.16 -3.64102 0.427254 0
M  V30 13296 H 1261.81 -4.69108 -1.81512 0
M  V30 13297 H 1261.51 -5.85469 -0.499969 0
M  V30 13298 H 1263.03 -5.93648 -1.4288 0
M  V30 13299 H 1264.44 -5.67299 0.8273 0
M  V30 13300 H 1262.84 -5.78068 1.61112 0
M  V30 13301 H 1263.91 -4.42 1.99409 0
M  V30 13302 N 1265.25 -0.510493 -1.49103 0
M  V30 13303 C 1266.5 0.0305831 -2.02077 0
M  V30 13304 C 1266.82 1.36602 -1.39157 0
M  V30 13305 O 1266.09 1.88016 -0.550154 0
M  V30 13306 H 1264.67 0.0142916 -0.746863 0
M  V30 13307 H 1267.33 -0.669895 -1.83026 0
M  V30 13308 H 1266.43 0.153283 -3.11723 0
M  V30 13309 N 1266.73 1.55688 -0.24474 0
M  V30 13310 C 1267.98 1.99186 0.381167 0
M  V30 13311 C 1268.31 1.13266 1.57748 0
M  V30 13312 O 1267.59 0.195568 1.93514 0
M  V30 13313 C 1267.87 3.51257 0.793142 0
M  V30 13314 C 1267.72 4.47942 -0.408409 0
M  V30 13315 C 1269.04 4.08365 1.64091 0
M  V30 13316 H 1266.16 0.724141 0.137073 0
M  V30 13317 H 1268.8 1.8683 -0.345619 0
M  V30 13318 H 1266.95 3.61917 1.4124 0
M  V30 13319 H 1268.62 4.49265 -1.04682 0
M  V30 13320 H 1266.87 4.20854 -1.05189 0
M  V30 13321 H 1267.54 5.51946 -0.0768531 0
M  V30 13322 H 1270.01 4.00794 1.1182 0
M  V30 13323 H 1268.89 5.1504 1.89802 0
M  V30 13324 H 1269.15 3.56687 2.61202 0
M  V30 13325 N 1268.21 -0.0283989 1.57574 0
M  V30 13326 C 1269.46 -0.718121 1.88483 0
M  V30 13327 C 1269.77 -1.76485 0.843345 0
M  V30 13328 O 1270.98 -2.50721 1.04169 0
M  V30 13329 C 1269.43 -1.32832 3.3449 0
M  V30 13330 C 1269.04 -0.317905 4.46871 0
M  V30 13331 C 1270.79 -1.99788 3.74546 0
M  V30 13332 C 1268.69 -0.936489 5.83938 0
M  V30 13333 H 1267.62 -0.271969 0.703242 0
M  V30 13334 H 1270.27 0.0274862 1.83479 0
M  V30 13335 H 1268.66 -2.12366 3.34241 0
M  V30 13336 H 1269.83 0.450767 4.5859 0
M  V30 13337 H 1268.14 0.249605 4.15651 0
M  V30 13338 H 1270.74 -2.46923 4.74271 0
M  V30 13339 H 1271.08 -2.81633 3.06575 0
M  V30 13340 H 1271.62 -1.27029 3.76973 0
M  V30 13341 H 1268.36 -0.15744 6.55311 0
M  V30 13342 H 1267.88 -1.67499 5.75938 0
M  V30 13343 H 1269.56 -1.44363 6.30689 0
M  V30 13344 N 1269.69 -1.54705 -0.300681 0
M  V30 13345 C 1270.91 -1.78318 -1.05913 0
M  V30 13346 C 1271.34 -0.541177 -1.80147 0
M  V30 13347 O 1270.7 0.508291 -1.74029 0
M  V30 13348 C 1270.74 -2.99041 -2.01511 0
M  V30 13349 O 1269.85 -2.72188 -3.09818 0
M  V30 13350 H 1269.19 -0.590197 -0.304242 0
M  V30 13351 H 1271.72 -2.01789 -0.338006 0
M  V30 13352 H 1271.73 -3.2702 -2.43971 0
M  V30 13353 H 1270.4 -3.89098 -1.46886 0
M  V30 13354 H 1268.98 -2.55227 -2.71871 0
M  V30 13355 N 1271.17 0.563888 -1.47167 0
M  V30 13356 C 1272.1 1.68655 -1.55204 0
M  V30 13357 C 1273.11 1.56776 -0.438769 0
M  V30 13358 O 1274.3 1.63856 -0.708059 0
M  V30 13359 C 1271.4 3.07068 -1.43396 0
M  V30 13360 C 1270.57 3.44767 -2.69174 0
M  V30 13361 C 1269.63 4.62316 -2.51298 0
M  V30 13362 O 1268.66 4.67231 -3.2509 0
M  V30 13363 N 1269.86 5.58389 -1.58688 0
M  V30 13364 H 1272.63 1.62209 -2.52009 0
M  V30 13365 H 1270.19 0.750359 -1.43462 0
M  V30 13366 H 1272.18 3.83529 -1.29181 0
M  V30 13367 H 1270.75 3.07777 -0.546997 0
M  V30 13368 H 1269.97 2.57821 -2.98198 0
M  V30 13369 H 1271.26 3.66726 -3.52689 0
M  V30 13370 H 1270.65 5.57169 -0.978737 0
M  V30 13371 H 1269.21 6.34204 -1.50428 0
M  V30 13372 N 1272.64 1.35187 0.810078 0
M  V30 13373 C 1273.59 1.27848 1.94313 0
M  V30 13374 C 1274.59 0.174081 1.68503 0
M  V30 13375 O 1275.79 0.339848 1.76763 0
M  V30 13376 H 1272.17 0.397504 0.638353 0
M  V30 13377 H 1274.14 2.23579 1.97623 0
M  V30 13378 C 1272.89 1.06382 3.31026 0
M  V30 13379 H 1272.21 1.90601 3.51441 0
M  V30 13380 H 1273.65 1.05287 4.1072 0
M  V30 13381 C 1272.11 -0.232462 3.36097 0
M  V30 13382 O 1272.64 -1.22946 3.82423 0
M  V30 13383 N 1270.85 -0.270028 2.89343 0
M  V30 13384 H 1270.39 0.541891 2.51836 0
M  V30 13385 H 1270.35 -1.13708 2.93117 0
M  V30 13386 O 1274.16 -0.948929 1.30681 0
M  V30 13387 H 1274.85 -1.5779 1.12348 0
M  V30 END ATOM
M  V30 BEGIN BOND
M  V30 END BOND
M  V30 END CTAB
M  END
$$$$
