drugbank_target|Q8IC05 Heat shock protein 90 (DB11638)
 OpenBabel12092121103D

  0  0  0     0  0            999 V3000
M  V30 BEGIN CTAB
M  V30 COUNTS 12053 12146 0 0 0
M  V30 BEGIN ATOM
M  V30 1 H -0.908 1.98254 -0.117106 0
M  V30 2 N 0 1.576 0 0
M  V30 3 C 0.933 2.03868 1.02534 0
M  V30 4 C 1.911 0.928543 1.3348 0
M  V30 5 O 3.095 1.19667 1.45644 0
M  V30 6 C 0.222 2.43627 2.35294 0
M  V30 7 C -0.732 3.65373 2.2001 0
M  V30 8 S 0.101 5.13292 1.52614 0
M  V30 9 C 1.257 5.56322 2.86805 0
M  V30 10 H 1.49 2.90518 0.631377 0
M  V30 11 H -0.977 1.52953 0.210867 0
M  V30 12 H 0.981 2.67203 3.11629 0
M  V30 13 H -0.358 1.57376 2.7183 0
M  V30 14 H -1.165 3.90944 3.18086 0
M  V30 15 H -1.563 3.418 1.51819 0
M  V30 16 H 0.729 5.58782 3.83104 0
M  V30 17 H 1.672 6.56266 2.65933 0
M  V30 18 H 2.08 4.83886 2.90714 0
M  V30 19 N 1.4781 -0.272755 1.55222 0
M  V30 20 C 2.7031 -1.02683 1.80197 0
M  V30 21 C 3.1281 -1.79142 0.573551 0
M  V30 22 O 2.4861 -1.74917 -0.476849 0
M  V30 23 C 2.5341 -1.9609 3.02624 0
M  V30 24 O 1.6381 -3.04863 2.77727 0
M  V30 25 H 0.9791 -0.293557 0.595584 0
M  V30 26 H 3.5091 -0.30159 2.02365 0
M  V30 27 H 3.5191 -2.38039 3.31363 0
M  V30 28 H 2.1941 -1.39851 3.91682 0
M  V30 29 H 0.7711 -2.67228 2.60084 0
M  V30 30 N 2.9562 -1.48159 -0.537278 0
M  V30 31 C 4.1842 -1.59454 -1.31841 0
M  V30 32 C 4.5992 -0.252065 -1.8711 0
M  V30 33 O 3.9562 0.757621 -1.66031 0
M  V30 34 C 4.0072 -2.63546 -2.47439 0
M  V30 35 O 3.7282 -3.92583 -1.94449 0
M  V30 36 C 5.2292 -2.85212 -3.39366 0
M  V30 37 H 2.4492 -0.53785 -0.401196 0
M  V30 38 H 4.9932 -1.93932 -0.648891 0
M  V30 39 H 3.1482 -2.31946 -3.1029 0
M  V30 40 H 3.5622 -4.49629 -2.70063 0
M  V30 41 H 5.0362 -3.61863 -4.16844 0
M  V30 42 H 5.5132 -1.93765 -3.94147 0
M  V30 43 H 6.1192 -3.18086 -2.82314 0
M  V30 44 N 4.4343 0.785586 -1.36625 0
M  V30 45 C 5.3443 1.92964 -1.33425 0
M  V30 46 C 6.3603 1.72394 -0.235851 0
M  V30 47 O 7.5363 1.95866 -0.468878 0
M  V30 48 C 4.6013 3.27884 -1.12662 0
M  V30 49 C 3.6623 3.61204 -2.32013 0
M  V30 50 C 2.8953 4.89687 -2.12231 0
M  V30 51 O 3.1183 5.59704 -1.09945 0
M  V30 52 O 2.0523 5.21752 -3.00098 0
M  V30 53 H 5.8783 1.98613 -2.29753 0
M  V30 54 H 3.4633 0.926384 -1.17211 0
M  V30 55 H 5.3453 4.08614 -1.03016 0
M  V30 56 H 4.0203 3.23118 -0.193991 0
M  V30 57 H 2.9273 2.80765 -2.47228 0
M  V30 58 H 4.2603 3.70698 -3.23796 0
M  V30 59 N 5.9124 1.20967 1.01018 0
M  V30 60 C 7.1404 1.04956 1.78303 0
M  V30 61 C 7.5554 -0.400915 1.84494 0
M  V30 62 O 6.9124 -1.27826 1.30257 0
M  V30 63 C 6.9634 1.63403 3.22462 0
M  V30 64 O 6.6844 3.02775 3.16637 0
M  V30 65 C 8.1854 1.52432 4.16268 0
M  V30 66 H 5.4054 0.368858 0.560522 0
M  V30 67 H 7.9494 1.60193 1.27116 0
M  V30 68 H 6.1044 1.1227 3.70775 0
M  V30 69 H 6.5184 3.30626 4.07169 0
M  V30 70 H 7.9924 1.98078 5.15237 0
M  V30 71 H 8.4694 0.477875 4.36592 0
M  V30 72 H 9.0754 2.02787 3.73841 0
M  V30 73 N 7.3905 -1.2043 1.01659 0
M  V30 74 C 8.6375 -1.89797 0.705917 0
M  V30 75 C 8.9655 -1.78848 -0.764439 0
M  V30 76 O 8.2205 -1.16694 -1.57102 0
M  V30 77 C 8.5195 -3.40464 1.08714 0
M  V30 78 C 8.1855 -3.71614 2.5537 0
M  V30 79 C 6.8475 -3.79826 2.95441 0
M  V30 80 C 9.1995 -3.85915 3.50313 0
M  V30 81 C 6.5275 -3.99797 4.29394 0
M  V30 82 C 8.8795 -4.07396 4.83954 0
M  V30 83 C 7.5435 -4.13837 5.23732 0
M  V30 84 H 6.8135 -0.694518 0.258313 0
M  V30 85 H 9.4605 -1.42691 1.27717 0
M  V30 86 H 7.7655 -3.89385 0.434309 0
M  V30 87 H 9.4625 -3.92433 0.824461 0
M  V30 88 H 6.0525 -3.65822 2.23321 0
M  V30 89 H 10.2365 -3.78926 3.20513 0
M  V30 90 H 5.4925 -4.03018 4.59768 0
M  V30 91 H 9.6665 -4.17404 5.57447 0
M  V30 92 H 7.2935 -4.29064 6.27541 0
M  V30 93 N 8.8686 -0.792821 -1.36206 0
M  V30 94 C 9.8316 -0.199459 -2.2833 0
M  V30 95 C 10.8316 0.605189 -1.48977 0
M  V30 96 O 12.0216 0.425685 -1.68919 0
M  V30 97 C 9.1536 0.723523 -3.33134 0
M  V30 98 H 10.3466 -1.01181 -2.82316 0
M  V30 99 H 7.8996 -0.562485 -1.45828 0
M  V30 100 H 8.6346 1.56008 -2.84309 0
M  V30 101 H 8.4196 0.148436 -3.91819 0
M  V30 102 H 9.9096 1.13344 -4.01924 0
M  V30 103 N 10.3467 1.47872 -0.545128 0
M  V30 104 C 11.5937 2.02493 -0.0165858 0
M  V30 105 C 11.9217 1.42073 1.32836 0
M  V30 106 O 11.1767 0.561459 1.87473 0
M  V30 107 C 11.4757 3.57131 0.13867 0
M  V30 108 C 11.1417 4.36411 -1.13384 0
M  V30 109 C 9.8037 4.57792 -1.48256 0
M  V30 110 C 12.1557 4.82223 -1.97764 0
M  V30 111 C 9.4837 5.22233 -2.67376 0
M  V30 112 C 11.8357 5.47977 -3.16076 0
M  V30 113 C 10.4997 5.67593 -3.51275 0
M  V30 114 H 9.7697 0.740975 -0.00606918 0
M  V30 115 H 12.4167 1.77683 -0.714207 0
M  V30 116 H 10.7217 3.80865 0.919172 0
M  V30 117 H 12.4187 3.97031 0.562782 0
M  V30 118 H 9.0087 4.2004 -0.852297 0
M  V30 119 H 13.1927 4.65493 -1.72132 0
M  V30 120 H 8.4487 5.35616 -2.94831 0
M  V30 121 H 12.6227 5.8244 -3.81755 0
M  V30 122 H 10.2497 6.17298 -4.43675 0
M  V30 123 N 11.8248 0.280983 1.55075 0
M  V30 124 C 12.7728 -0.619864 2.24188 0
M  V30 125 C 13.7668 -1.15315 1.24092 0
M  V30 126 O 14.9728 -1.1061 1.42005 0
M  V30 127 H 11.3478 -0.218459 0.719569 0
M  V30 128 H 13.3188 -0.0141831 2.98397 0
M  V30 129 C 12.0678 -1.7899 2.98091 0
M  V30 130 H 11.3908 -1.38874 3.74905 0
M  V30 131 H 12.8308 -2.39672 3.49762 0
M  V30 132 C 11.2898 -2.68192 2.03899 0
M  V30 133 O 11.8198 -3.6872 1.594 0
M  V30 134 N 10.0258 -2.35488 1.70275 0
M  V30 135 H 9.5728 -1.53787 2.06658 0
M  V30 136 H 9.5308 -2.95442 1.07524 0
M  V30 137 N 13.3029 -1.57598 0.00835791 0
M  V30 138 C 14.2659 -2.07884 -0.965242 0
M  V30 139 C 15.2659 -0.989825 -1.26725 0
M  V30 140 O 16.4559 -1.25218 -1.21104 0
M  V30 141 C 13.5879 -2.52731 -2.28779 0
M  V30 142 H 14.7809 -2.95178 -0.530112 0
M  V30 143 H 12.3339 -1.54458 -0.239283 0
M  V30 144 H 13.0689 -1.68705 -2.76964 0
M  V30 145 H 12.8539 -3.32272 -2.08177 0
M  V30 146 H 14.3439 -2.91933 -2.98605 0
M  V30 147 N 14.781 0.264519 -1.55364 0
M  V30 148 C 16.058 1.01677 -1.67096 0
M  V30 149 C 16.438 2.03996 -0.543015 0
M  V30 150 O 15.786 2.23907 0.45585 0
M  V30 151 C 15.996 1.66596 -3.0667 0
M  V30 152 C 17.344 2.17442 -3.64697 0
M  V30 153 O 18.368 1.76568 -3.09358 0
M  V30 154 O 17.227 2.92439 -4.61673 0
M  V30 155 H 14.321 0.472161 -0.678965 0
M  V30 156 H 16.867 0.259703 -1.67701 0
M  V30 157 H 15.639 0.924962 -3.80211 0
M  V30 158 H 15.262 2.48968 -3.10001 0
M  V30 159 N 16.2591 1.48442 0.529413 0
M  V30 160 C 17.5081 1.55742 1.28169 0
M  V30 161 C 17.8211 0.236511 1.94165 0
M  V30 162 O 19.0271 0.187761 2.7085 0
M  V30 163 C 17.4831 2.74667 2.32564 0
M  V30 164 C 17.0911 4.13402 1.72636 0
M  V30 165 C 18.8351 2.9128 3.08798 0
M  V30 166 C 16.7421 5.23587 2.74975 0
M  V30 167 H 15.6721 0.579796 0.48203 0
M  V30 168 H 18.3231 1.74776 0.559056 0
M  V30 169 H 16.7051 2.49067 3.07866 0
M  V30 170 H 17.8791 4.49022 1.03519 0
M  V30 171 H 16.1941 4.0191 1.08892 0
M  V30 172 H 18.7911 3.70767 3.85274 0
M  V30 173 H 19.1341 2.00757 3.64695 0
M  V30 174 H 19.6671 3.16782 2.40611 0
M  V30 175 H 16.4061 6.16076 2.23897 0
M  V30 176 H 15.9261 4.92454 3.42417 0
M  V30 177 H 17.6051 5.51724 3.37949 0
M  V30 178 N 17.7372 -0.778329 1.37039 0
M  V30 179 C 19.1532 -1.07796 1.17695 0
M  V30 180 C 19.3532 -2.01498 0.00860115 0
M  V30 181 O 18.4092 -2.43901 -0.653352 0
M  V30 182 C 19.7222 -1.68178 2.49272 0
M  V30 183 C 21.2702 -1.80467 2.55735 0
M  V30 184 C 21.7452 -2.44263 3.87427 0
M  V30 185 N 23.2362 -2.51721 3.88833 0
M  V30 186 C 23.9712 -3.01919 4.87476 0
M  V30 187 N 23.4672 -3.5234 5.96513 0
M  V30 188 N 25.2602 -3.00733 4.74885 0
M  V30 189 H 17.4112 -0.156032 2.11826 0
M  V30 190 H 19.6742 -0.131844 0.938787 0
M  V30 191 H 19.3802 -1.06796 3.35093 0
M  V30 192 H 19.2542 -2.67554 2.65885 0
M  V30 193 H 21.6412 -2.40984 1.70325 0
M  V30 194 H 21.7222 -0.798656 2.43013 0
M  V30 195 H 21.3662 -1.84388 4.73248 0
M  V30 196 H 21.2962 -3.45458 3.9745 0
M  V30 197 H 23.7872 -2.1603 3.10063 0
M  V30 198 H 24.1002 -3.89027 6.67741 0
M  V30 199 H 22.4452 -3.50462 6.00168 0
M  V30 200 H 25.6362 -2.60638 3.88826 0
M  V30 201 H 25.8092 -3.39545 5.51918 0
M  V30 202 N 19.2153 -1.21501 -1.00376 0
M  V30 203 C 20.1473 -0.933174 -2.09343 0
M  V30 204 C 21.1603 0.0840896 -1.62583 0
M  V30 205 O 22.3493 -0.148563 -1.77881 0
M  V30 206 C 19.4493 -0.379869 -3.36764 0
M  V30 207 C 18.6223 -1.45176 -4.12605 0
M  V30 208 C 17.6813 -0.907476 -5.18316 0
M  V30 209 O 16.7073 -1.5912 -5.46507 0
M  V30 210 N 17.9093 0.276649 -5.7984 0
M  V30 211 H 20.6743 -1.87124 -2.34104 0
M  V30 212 H 18.2353 -1.12043 -1.16867 0
M  V30 213 H 20.2273 -0.00131488 -4.047 0
M  V30 214 H 18.7973 0.463048 -3.09151 0
M  V30 215 H 18.0173 -2.00411 -3.39454 0
M  V30 216 H 19.3053 -2.17328 -4.6005 0
M  V30 217 H 18.7033 0.849147 -5.59291 0
M  V30 218 H 17.2603 0.596702 -6.49063 0
M  V30 219 N 20.6934 1.19889 -1.02296 0
M  V30 220 C 21.6234 2.25141 -0.619174 0
M  V30 221 C 22.6044 1.66051 0.368915 0
M  V30 222 O 23.7894 1.92546 0.252941 0
M  V30 223 C 20.9194 3.4728 0.0368783 0
M  V30 224 C 19.8734 4.19005 -0.872865 0
M  V30 225 C 19.1994 5.34637 -0.0822402 0
M  V30 226 C 20.4994 4.74452 -2.18387 0
M  V30 227 H 22.1934 2.59171 -1.49903 0
M  V30 228 H 19.7394 1.24579 -0.722222 0
M  V30 229 H 21.6924 4.20098 0.330958 0
M  V30 230 H 20.4164 3.12433 0.95149 0
M  V30 231 H 19.0754 3.48061 -1.15105 0
M  V30 232 H 18.7234 4.96034 0.83422 0
M  V30 233 H 18.4234 5.83557 -0.688149 0
M  V30 234 H 19.9474 6.10255 0.205238 0
M  V30 235 H 21.3614 5.39055 -1.95172 0
M  V30 236 H 19.7584 5.33834 -2.74119 0
M  V30 237 H 20.8284 3.92844 -2.84257 0
M  V30 238 N 22.1715 0.800033 1.35784 0
M  V30 239 C 23.1045 0.151499 2.27697 0
M  V30 240 C 24.0825 -0.678663 1.4776 0
M  V30 241 O 25.2665 -0.647358 1.77035 0
M  V30 242 C 22.3935 -0.790492 3.29346 0
M  V30 243 C 21.4395 -0.0407832 4.26481 0
M  V30 244 S 22.2725 1.29077 5.19711 0
M  V30 245 C 23.4285 0.353055 6.24903 0
M  V30 246 H 23.6615 0.930796 2.82353 0
M  V30 247 H 21.1945 0.594767 1.42485 0
M  V30 248 H 23.1525 -1.3285 3.88409 0
M  V30 249 H 21.8135 -1.54312 2.73581 0
M  V30 250 H 21.0065 -0.755971 4.98298 0
M  V30 251 H 20.6085 0.427063 3.71554 0
M  V30 252 H 22.9005 -0.464147 6.75908 0
M  V30 253 H 23.8435 1.04023 7.00418 0
M  V30 254 H 24.2515 -0.0483344 5.64479 0
M  V30 255 N 23.6496 -1.47581 0.552962 0
M  V30 256 C 24.8746 -2.07378 0.0300593 0
M  V30 257 C 25.2996 -1.40355 -1.25229 0
M  V30 258 O 24.6576 -0.477099 -1.7491 0
M  V30 259 C 24.7056 -3.60274 -0.153231 0
M  V30 260 O 23.8096 -3.94041 -1.21678 0
M  V30 261 H 23.1506 -0.662158 0.0494182 0
M  V30 262 H 25.6806 -1.89662 0.767434 0
M  V30 263 H 25.6906 -4.0633 -0.368761 0
M  V30 264 H 24.3656 -4.08455 0.783397 0
M  V30 265 H 22.9426 -3.59735 -0.982079 0
M  V30 266 N 25.1277 -0.289203 -1.54924 0
M  V30 267 C 26.0577 0.58549 -2.2604 0
M  V30 268 C 27.0387 1.14753 -1.25562 0
M  V30 269 O 28.2237 1.17906 -1.54311 0
M  V30 270 C 25.3537 1.76305 -2.99222 0
M  V30 271 C 24.3077 1.33191 -4.06748 0
M  V30 272 C 23.6337 2.5937 -4.6758 0
M  V30 273 C 24.9337 0.471775 -5.20165 0
M  V30 274 H 26.6277 -0.00763532 -2.99399 0
M  V30 275 H 24.1737 -0.00511229 -1.43999 0
M  V30 276 H 26.1267 2.38097 -3.47689 0
M  V30 277 H 24.8507 2.38223 -2.23422 0
M  V30 278 H 23.5097 0.737121 -3.59113 0
M  V30 279 H 23.1577 3.19576 -3.88433 0
M  V30 280 H 22.8577 2.31228 -5.40192 0
M  V30 281 H 24.3817 3.21985 -5.18804 0
M  V30 282 H 25.7957 0.995056 -5.64599 0
M  V30 283 H 24.1927 0.284639 -5.99425 0
M  V30 284 H 25.2627 -0.506041 -4.82252 0
M  V30 285 N 26.6058 1.57591 -0.0167156 0
M  V30 286 C 27.8548 1.90461 0.663877 0
M  V30 287 C 28.1678 0.893515 1.73999 0
M  V30 288 O 29.3738 1.11302 2.47637 0
M  V30 289 C 27.8298 3.38155 1.23204 0
M  V30 290 C 27.4378 4.47597 0.189866 0
M  V30 291 C 29.1818 3.80111 1.88986 0
M  V30 292 C 27.0888 5.86379 0.768964 0
M  V30 293 H 26.0188 0.710738 0.251729 0
M  V30 294 H 28.6698 1.83326 -0.0799926 0
M  V30 295 H 27.0518 3.40182 2.02712 0
M  V30 296 H 28.2258 4.57112 -0.581846 0
M  V30 297 H 26.5408 4.14766 -0.368475 0
M  V30 298 H 29.1378 4.81145 2.33247 0
M  V30 299 H 29.4808 3.14511 2.72743 0
M  V30 300 H 30.0138 3.80454 1.16187 0
M  V30 301 H 26.7528 6.55493 -0.0301957 0
M  V30 302 H 26.2728 5.80496 1.50945 0
M  V30 303 H 27.9518 6.34563 1.26251 0
M  V30 304 N 28.0839 -0.256276 1.55502 0
M  V30 305 C 29.3329 -0.983486 1.76098 0
M  V30 306 C 29.6459 -1.86837 0.578896 0
M  V30 307 O 30.8519 -2.63163 0.667648 0
M  V30 308 C 29.3079 -1.79868 3.1173 0
M  V30 309 C 28.9159 -0.961648 4.37557 0
M  V30 310 C 30.6599 -2.51919 3.41668 0
M  V30 311 C 28.5669 -1.77219 5.64223 0
M  V30 312 H 27.4969 -0.370936 0.656447 0
M  V30 313 H 30.1479 -0.238492 1.81944 0
M  V30 314 H 28.5299 -2.58527 2.99966 0
M  V30 315 H 29.7039 -0.218048 4.60284 0
M  V30 316 H 28.0189 -0.354913 4.14885 0
M  V30 317 H 30.6159 -3.12998 4.33516 0
M  V30 318 H 30.9589 -3.23059 2.62562 0
M  V30 319 H 31.4919 -1.80278 3.54605 0
M  V30 320 H 28.2309 -1.10471 6.46124 0
M  V30 321 H 27.7509 -2.49132 5.45613 0
M  V30 322 H 29.4299 -2.34169 6.03137 0
M  V30 323 N 29.562 -1.4872 -0.521534 0
M  V30 324 C 30.51 -1.64328 -1.64618 0
M  V30 325 C 31.504 -0.50953 -1.61555 0
M  V30 326 O 32.71 -0.688525 -1.66311 0
M  V30 327 H 29.085 -0.517805 -0.545328 0
M  V30 328 H 31.056 -2.58767 -1.48601 0
M  V30 329 C 29.805 -1.70805 -3.02855 0
M  V30 330 H 29.128 -2.5741 -3.05909 0
M  V30 331 H 30.568 -1.85766 -3.81139 0
M  V30 332 C 29.027 -0.448479 -3.33902 0
M  V30 333 O 29.557 0.434928 -3.99339 0
M  V30 334 N 27.763 -0.317616 -2.88859 0
M  V30 335 H 27.31 -1.03748 -2.35784 0
M  V30 336 H 27.268 0.524113 -3.10001 0
M  V30 337 N 31.0401 0.771051 -1.3745 0
M  V30 338 C 32.2681 1.56015 -1.35893 0
M  V30 339 C 32.6831 1.88718 0.0555523 0
M  V30 340 O 32.0401 1.51502 1.01752 0
M  V30 341 C 32.0911 2.87001 -2.19801 0
M  V30 342 O 31.8121 2.557 -3.55738 0
M  V30 343 C 33.3131 3.81228 -2.26231 0
M  V30 344 H 30.5331 0.483317 -0.465453 0
M  V30 345 H 33.0771 0.955611 -1.80799 0
M  V30 346 H 31.2321 3.43877 -1.78402 0
M  V30 347 H 31.6461 3.39584 -3.99729 0
M  V30 348 H 33.1201 4.70139 -2.89263 0
M  V30 349 H 33.5971 4.20409 -1.27093 0
M  V30 350 H 34.2031 3.30281 -2.67945 0
M  V30 351 N 32.5182 1.22032 0.997298 0
M  V30 352 C 33.7652 1.04222 1.73621 0
M  V30 353 C 34.0932 -0.423264 1.89839 0
M  V30 354 O 33.3482 -1.3302 1.43542 0
M  V30 355 C 33.6472 1.69345 3.14733 0
M  V30 356 C 33.3132 3.19226 3.18442 0
M  V30 357 C 31.9752 3.60124 3.19161 0
M  V30 358 C 34.3272 4.15181 3.15078 0
M  V30 359 C 31.6552 4.95467 3.14212 0
M  V30 360 C 34.0072 5.50495 3.1167 0
M  V30 361 C 32.6712 5.90779 3.10703 0
M  V30 362 H 31.9412 0.381374 0.635323 0
M  V30 363 H 34.5882 1.51732 1.16831 0
M  V30 364 H 32.8932 1.14147 3.74803 0
M  V30 365 H 34.5902 1.53059 3.7064 0
M  V30 366 H 31.1802 2.86659 3.18629 0
M  V30 367 H 35.3642 3.84605 3.13676 0
M  V30 368 H 30.6202 5.25916 3.11805 0
M  V30 369 H 34.7942 6.24576 3.08022 0
M  V30 370 H 32.4212 6.9562 3.06622 0
M  V30 371 N 33.9963 -1.19345 1.0293 0
M  V30 372 C 35.2263 -1.92717 0.744563 0
M  V30 373 C 35.6343 -1.75751 -0.700579 0
M  V30 374 O 34.9773 -1.07703 -1.48815 0
M  V30 375 C 35.0393 -3.44828 1.01657 0
M  V30 376 C 34.7033 -3.85564 2.45335 0
M  V30 377 C 35.7003 -3.90286 3.43472 0
M  V30 378 C 33.3853 -4.1719 2.79746 0
M  V30 379 C 35.3793 -4.26065 4.74075 0
M  V30 380 C 33.0663 -4.52642 4.10559 0
M  V30 381 C 34.0643 -4.57054 5.07534 0
M  V30 382 O 33.7523 -4.91685 6.36004 0
M  V30 383 H 33.4843 -0.618977 0.271742 0
M  V30 384 H 36.0383 -1.52415 1.37691 0
M  V30 385 H 34.2683 -3.85314 0.327084 0
M  V30 386 H 35.9573 -3.99437 0.721427 0
M  V30 387 H 36.7233 -3.66002 3.18225 0
M  V30 388 H 32.6023 -4.1294 2.04943 0
M  V30 389 H 36.1463 -4.29423 5.49765 0
M  V30 390 H 32.0433 -4.76383 4.35579 0
M  V30 391 H 32.8113 -5.09631 6.40483 0
M  V30 392 N 35.4744 -0.807222 -1.35358 0
M  V30 393 C 36.6994 -0.399309 -2.0352 0
M  V30 394 C 37.1244 0.981986 -1.60433 0
M  V30 395 O 36.4824 1.63601 -0.781299 0
M  V30 396 C 36.5304 -0.491552 -3.57234 0
M  V30 397 O 35.6344 0.494754 -4.09421 0
M  V30 398 H 34.9754 -0.166682 -0.642739 0
M  V30 399 H 37.5054 -1.09328 -1.72941 0
M  V30 400 H 37.5154 -0.361588 -4.06395 0
M  V30 401 H 36.1904 -1.49907 -3.87944 0
M  V30 402 H 34.7674 0.324977 -3.71481 0
M  V30 403 N 36.9525 1.47285 -0.560781 0
M  V30 404 C 37.9005 2.31756 0.197942 0
M  V30 405 C 38.8945 1.43146 0.905854 0
M  V30 406 O 40.1005 1.59891 0.826733 0
M  V30 407 H 36.4755 0.747438 0.0827049 0
M  V30 408 H 38.4465 2.9359 -0.533629 0
M  V30 409 C 37.1955 3.25874 1.21249 0
M  V30 410 H 36.5185 3.94023 0.67719 0
M  V30 411 H 37.9585 3.87803 1.71419 0
M  V30 412 C 36.4175 2.49651 2.26221 0
M  V30 413 O 36.9475 2.24355 3.33208 0
M  V30 414 N 35.1535 2.10597 2.00243 0
M  V30 415 H 34.7005 2.31369 1.13252 0
M  V30 416 H 34.6585 1.59913 2.70694 0
M  V30 417 N 38.4306 0.297415 1.54768 0
M  V30 418 C 39.3776 -0.580276 2.23386 0
M  V30 419 C 40.3476 -1.13238 1.21517 0
M  V30 420 O 41.5326 -1.17757 1.50126 0
M  V30 421 C 38.6726 -1.74801 2.97555 0
M  V30 422 C 37.7856 -1.22764 4.1419 0
M  V30 423 C 36.9206 -2.35895 4.75949 0
M  V30 424 C 35.9596 -1.80974 5.84735 0
M  V30 425 N 35.0966 -2.87664 6.40464 0
M  V30 426 H 39.9366 0.0114833 2.97998 0
M  V30 427 H 37.4736 0.0174361 1.4709 0
M  V30 428 H 39.4316 -2.43475 3.38786 0
M  V30 429 H 38.0616 -2.31145 2.25326 0
M  V30 430 H 37.1136 -0.433271 3.77924 0
M  V30 431 H 38.4256 -0.785551 4.92575 0
M  V30 432 H 37.5796 -3.12523 5.20014 0
M  V30 433 H 36.3186 -2.83429 3.96887 0
M  V30 434 H 35.3236 -1.02834 5.40097 0
M  V30 435 H 36.5486 -1.34348 6.65678 0
M  V30 436 H 34.4946 -3.34538 5.64287 0
M  V30 437 H 34.4116 -2.4794 7.14186 0
M  V30 438 H 35.6796 -3.642 6.89187 0
M  V30 439 N 39.9087 -1.5758 0.0250728 0
M  V30 440 C 40.8187 -2.1343 -0.973905 0
M  V30 441 C 41.8347 -1.08556 -1.35984 0
M  V30 442 O 43.0107 -1.40592 -1.44207 0
M  V30 443 C 40.0757 -2.64703 -2.23904 0
M  V30 444 C 39.1367 -3.84276 -1.91391 0
M  V30 445 C 38.3697 -4.33095 -3.11873 0
M  V30 446 O 38.5927 -3.81107 -4.24398 0
M  V30 447 O 37.5267 -5.24984 -2.94406 0
M  V30 448 H 41.3527 -2.99057 -0.529036 0
M  V30 449 H 38.9377 -1.48118 -0.195288 0
M  V30 450 H 40.8197 -2.97769 -2.98181 0
M  V30 451 H 39.4947 -1.82161 -2.6758 0
M  V30 452 H 38.4017 -3.56143 -1.14511 0
M  V30 453 H 39.7347 -4.67968 -1.52534 0
M  V30 454 N 41.3868 0.248026 -1.55636 0
M  V30 455 C 42.6358 0.974134 -1.76617 0
M  V30 456 C 42.9488 1.86528 -0.588796 0
M  V30 457 O 44.1548 2.62805 -0.681594 0
M  V30 458 C 42.6108 1.78213 -3.12679 0
M  V30 459 C 42.2188 0.93843 -4.38061 0
M  V30 460 C 43.9628 2.50104 -3.42999 0
M  V30 461 C 41.8698 1.74225 -5.65155 0
M  V30 462 H 40.7998 0.36745 -0.658405 0
M  V30 463 H 43.4508 0.22884 -1.82067 0
M  V30 464 H 41.8328 2.56933 -3.01333 0
M  V30 465 H 43.0068 0.193635 -4.60393 0
M  V30 466 H 41.3218 0.332905 -4.15067 0
M  V30 467 H 43.9188 3.10694 -4.3517 0
M  V30 468 H 44.2618 3.21662 -2.64271 0
M  V30 469 H 44.7948 1.78395 -3.55556 0
M  V30 470 H 41.5338 1.07043 -6.46701 0
M  V30 471 H 41.0538 2.46235 -5.46926 0
M  V30 472 H 42.7328 2.30967 -6.0437 0
M  V30 473 N 42.8649 1.48995 0.513639 0
M  V30 474 C 44.1119 1.57843 1.26854 0
M  V30 475 C 44.4399 0.259501 1.92761 0
M  V30 476 O 43.6949 -0.75159 1.80692 0
M  V30 477 C 43.9939 2.67756 2.36731 0
M  V30 478 C 43.6599 4.09669 1.88368 0
M  V30 479 C 42.3219 4.48291 1.74896 0
M  V30 480 C 44.6739 4.98537 1.52021 0
M  V30 481 C 42.0019 5.73568 1.23438 0
M  V30 482 C 44.3539 6.24319 1.0202 0
M  V30 483 C 43.0179 6.61783 0.871778 0
M  V30 484 H 42.2879 0.577587 0.464192 0
M  V30 485 H 44.9349 1.82778 0.571366 0
M  V30 486 H 43.2399 2.36743 3.12185 0
M  V30 487 H 44.9369 2.71813 2.9482 0
M  V30 488 H 41.5269 3.79176 1.99808 0
M  V30 489 H 45.7109 4.69363 1.61281 0
M  V30 490 H 40.9669 6.01304 1.10648 0
M  V30 491 H 45.1409 6.92566 0.729722 0
M  V30 492 H 42.7679 7.5874 0.470852 0
M  V30 493 N 44.343 -0.763751 1.37857 0
M  V30 494 C 45.273 -1.89103 1.36975 0
M  V30 495 C 46.254 -1.68439 0.237152 0
M  V30 496 O 47.439 -1.8918 0.438713 0
M  V30 497 C 44.569 -3.26496 1.18395 0
M  V30 498 C 43.523 -3.61741 2.28751 0
M  V30 499 C 42.849 -4.97762 1.95286 0
M  V30 500 C 44.149 -3.67665 3.70972 0
M  V30 501 H 45.843 -1.90099 2.31307 0
M  V30 502 H 43.389 -0.91319 1.11341 0
M  V30 503 H 45.342 -4.05003 1.16406 0
M  V30 504 H 44.066 -3.25955 0.205215 0
M  V30 505 H 42.725 -2.85547 2.29909 0
M  V30 506 H 42.373 -4.93769 0.959221 0
M  V30 507 H 42.073 -5.22313 2.69189 0
M  V30 508 H 43.597 -5.7866 1.94898 0
M  V30 509 H 45.011 -4.36307 3.719 0
M  V30 510 H 43.408 -4.03718 4.43995 0
M  V30 511 H 44.478 -2.68134 4.0402 0
M  V30 512 N 45.8211 -1.22559 -0.990812 0
M  V30 513 C 47.2371 -0.985996 -1.255 0
M  V30 514 C 47.4371 0.319173 -1.98956 0
M  V30 515 O 46.4931 1.04127 -2.3003 0
M  V30 516 C 47.8061 -2.18607 -2.06474 0
M  V30 517 C 49.3541 -2.22985 -2.19651 0
M  V30 518 C 49.8291 -3.4255 -3.04012 0
M  V30 519 N 51.3201 -3.42725 -3.11599 0
M  V30 520 C 52.0551 -4.31892 -3.7717 0
M  V30 521 N 51.5511 -5.31279 -4.44651 0
M  V30 522 N 53.3441 -4.19662 -3.73952 0
M  V30 523 H 45.4951 -2.06469 -0.49841 0
M  V30 524 H 47.7581 -0.904853 -0.282747 0
M  V30 525 H 47.4641 -3.13267 -1.59865 0
M  V30 526 H 47.3381 -2.18838 -3.07229 0
M  V30 527 H 49.7251 -1.28871 -2.65474 0
M  V30 528 H 49.8061 -2.26791 -1.18319 0
M  V30 529 H 49.4501 -4.36965 -2.58889 0
M  V30 530 H 49.3801 -3.35984 -4.0549 0
M  V30 531 H 51.8711 -2.70807 -2.63575 0
M  V30 532 H 52.1841 -5.95593 -4.92431 0
M  V30 533 H 50.5291 -5.3519 -4.43392 0
M  V30 534 H 53.7201 -3.41268 -3.20396 0
M  V30 535 H 53.8931 -4.89358 -4.24774 0
M  V30 536 N 47.2992 1.18797 -1.03562 0
M  V30 537 C 48.2092 2.25913 -0.632505 0
M  V30 538 C 49.2252 1.70668 0.338882 0
M  V30 539 O 50.4012 2.00453 0.195076 0
M  V30 540 C 47.4662 3.467 0.00350942 0
M  V30 541 C 46.5272 4.17098 -1.01624 0
M  V30 542 C 45.7602 5.32119 -0.410478 0
M  V30 543 O 45.9832 5.64976 0.784725 0
M  V30 544 O 44.9172 5.9107 -1.13667 0
M  V30 545 H 48.7432 2.62648 -1.52478 0
M  V30 546 H 46.3282 1.25781 -0.806195 0
M  V30 547 H 48.2102 4.19878 0.35781 0
M  V30 548 H 46.8852 3.11798 0.869686 0
M  V30 549 H 45.7922 3.4601 -1.42224 0
M  V30 550 H 47.1252 4.55987 -1.85301 0
M  V30 551 N 48.7773 0.814389 1.34928 0
M  V30 552 C 49.7073 0.244827 2.32213 0
M  V30 553 C 50.6883 -0.634024 1.57842 0
M  V30 554 O 51.8733 -0.562676 1.8587 0
M  V30 555 C 49.0033 -0.601106 3.42058 0
M  V30 556 C 47.9573 0.179896 4.27622 0
M  V30 557 C 47.2833 -0.788237 5.28858 0
M  V30 558 C 48.5833 1.38329 5.03649 0
M  V30 559 H 50.2773 1.05763 2.80097 0
M  V30 560 H 47.8233 0.510029 1.34665 0
M  V30 561 H 49.7763 -1.00968 4.09125 0
M  V30 562 H 48.5003 -1.44688 2.92802 0
M  V30 563 H 47.1593 0.569739 3.62146 0
M  V30 564 H 46.8073 -1.62973 4.75866 0
M  V30 565 H 46.5073 -0.269942 5.8698 0
M  V30 566 H 48.0313 -1.19485 5.98795 0
M  V30 567 H 49.4453 1.04918 5.63618 0
M  V30 568 H 47.8423 1.83662 5.71304 0
M  V30 569 H 48.9123 2.16592 4.33839 0
M  V30 570 N 50.2554 -1.46986 0.568584 0
M  V30 571 C 51.5044 -2.01646 0.0465894 0
M  V30 572 C 51.8174 -1.44721 -1.31587 0
M  V30 573 O 53.0234 -1.91113 -1.92842 0
M  V30 574 C 51.4794 -3.59885 0.032752 0
M  V30 575 C 51.0874 -4.25804 1.39266 0
M  V30 576 C 52.8314 -4.22255 -0.436038 0
M  V30 577 C 50.7384 -5.76081 1.33732 0
M  V30 578 H 49.6684 -0.753876 0.013647 0
M  V30 579 H 52.3194 -1.68864 0.718131 0
M  V30 580 H 50.7014 -3.8968 -0.704669 0
M  V30 581 H 51.8754 -4.07637 2.1487 0
M  V30 582 H 50.1904 -3.7547 1.80032 0
M  V30 583 H 52.7874 -5.32394 -0.49602 0
M  V30 584 H 53.1304 -3.90212 -1.45053 0
M  V30 585 H 53.6634 -3.97033 0.246877 0
M  V30 586 H 50.4024 -6.12761 2.32817 0
M  V30 587 H 49.9224 -5.96553 0.623267 0
M  V30 588 H 51.6014 -6.38518 1.0442 0
M  V30 589 N 51.7335 -0.305618 -1.54608 0
M  V30 590 C 52.9585 0.307562 -2.05107 0
M  V30 591 C 53.3835 1.46385 -1.18123 0
M  V30 592 O 52.7415 1.8034 -0.186324 0
M  V30 593 C 52.7895 0.73704 -3.52987 0
M  V30 594 O 51.8935 1.84134 -3.6901 0
M  V30 595 H 51.2345 0.0589143 -0.661381 0
M  V30 596 H 53.7645 -0.448807 -1.99617 0
M  V30 597 H 53.7745 1.02459 -3.94925 0
M  V30 598 H 52.4495 -0.108773 -4.15758 0
M  V30 599 H 51.0265 1.55398 -3.38978 0
M  V30 600 N 53.2116 1.57565 -0.0334293 0
M  V30 601 C 54.1596 2.1164 0.96496 0
M  V30 602 C 55.1536 1.04398 1.33407 0
M  V30 603 O 56.3596 1.22828 1.3158 0
M  V30 604 H 52.7346 0.676222 0.32898 0
M  V30 605 H 54.7056 2.94455 0.483614 0
M  V30 606 C 53.4546 2.66207 2.23672 0
M  V30 607 H 52.7776 3.48378 1.96145 0
M  V30 608 H 54.2176 3.07685 2.9173 0
M  V30 609 C 52.6766 1.59151 2.96939 0
M  V30 610 O 53.2066 0.993858 3.89211 0
M  V30 611 N 51.4126 1.31093 2.59351 0
M  V30 612 H 50.9596 1.7988 1.84393 0
M  V30 613 H 50.9176 0.596889 3.08682 0
M  V30 614 N 54.6897 -0.239769 1.55765 0
M  V30 615 C 55.6527 -1.28038 1.90103 0
M  V30 616 C 56.6527 -1.40723 0.778055 0
M  V30 617 O 57.8427 -1.39301 1.04599 0
M  V30 618 C 54.9747 -2.65702 2.13577 0
M  V30 619 H 56.1677 -0.988048 2.83157 0
M  V30 620 H 53.7207 -0.479382 1.48767 0
M  V30 621 H 54.4557 -3.00063 1.23015 0
M  V30 622 H 54.2407 -2.57875 2.95369 0
M  V30 623 H 55.7307 -3.40828 2.41301 0
M  V30 624 N 56.1678 -1.49265 -0.50573 0
M  V30 625 C 57.3928 -1.62478 -1.28902 0
M  V30 626 C 57.8178 -0.294332 -1.85783 0
M  V30 627 O 57.1758 0.737412 -1.65626 0
M  V30 628 C 57.2238 -2.69268 -2.39848 0
M  V30 629 O 56.3278 -2.28113 -3.43567 0
M  V30 630 H 55.6688 -0.54399 -0.380751 0
M  V30 631 H 58.1988 -1.95421 -0.605952 0
M  V30 632 H 58.2088 -2.91291 -2.85681 0
M  V30 633 H 56.8838 -3.65846 -1.97812 0
M  V30 634 H 55.4608 -2.16401 -3.03685 0
M  V30 635 N 57.6459 0.756429 -1.3826 0
M  V30 636 C 58.9229 1.50584 -1.24835 0
M  V30 637 C 59.3029 2.10556 0.151485 0
M  V30 638 O 58.6509 1.96825 1.1607 0
M  V30 639 C 58.8609 2.57448 -2.3563 0
M  V30 640 C 60.2089 3.24429 -2.73917 0
M  V30 641 O 61.2329 2.67751 -2.34921 0
M  V30 642 O 60.0919 4.26937 -3.41156 0
M  V30 643 H 57.1859 0.667664 -0.48801 0
M  V30 644 H 59.7319 0.792083 -1.5008 0
M  V30 645 H 58.5039 2.11362 -3.29305 0
M  V30 646 H 58.1269 3.36408 -2.11933 0
M  V30 647 N 59.124 1.23083 0.984299 0
M  V30 648 C 60.087 1.00979 2.05757 0
M  V30 649 C 61.087 -0.0269573 1.60777 0
M  V30 650 O 62.277 0.212403 1.729 0
M  V30 651 C 59.409 0.527072 3.36801 0
M  V30 652 H 60.602 1.9622 2.26799 0
M  V30 653 H 58.155 1.05072 1.15714 0
M  V30 654 H 58.89 -0.429294 3.21446 0
M  V30 655 H 58.675 1.27515 3.70786 0
M  V30 656 H 60.165 0.392942 4.15747 0
M  V30 657 N 60.6021 -1.18246 1.0419 0
M  V30 658 C 61.5321 -2.24127 0.654914 0
M  V30 659 C 62.5131 -1.66617 -0.342451 0
M  V30 660 O 63.6981 -1.92924 -0.222277 0
M  V30 661 C 60.8281 -3.47295 0.0183757 0
M  V30 662 C 59.7821 -4.17563 0.939414 0
M  V30 663 C 59.1081 -5.34438 0.167286 0
M  V30 664 C 60.4081 -4.70917 2.25908 0
M  V30 665 H 62.1021 -2.56753 1.54007 0
M  V30 666 H 59.6481 -1.23414 0.74195 0
M  V30 667 H 61.6011 -4.20572 -0.264082 0
M  V30 668 H 60.3251 -3.13907 -0.901664 0
M  V30 669 H 58.9841 -3.46186 1.20628 0
M  V30 670 H 58.6321 -4.97298 -0.7552 0
M  V30 671 H 58.3321 -5.82388 0.780901 0
M  V30 672 H 59.8561 -6.10504 -0.108125 0
M  V30 673 H 61.2701 -5.35882 2.03724 0
M  V30 674 H 59.6671 -5.29406 2.82577 0
M  V30 675 H 60.7371 -3.88272 2.9047 0
M  V30 676 N 62.0802 -0.821533 -1.34494 0
M  V30 677 C 63.3572 -0.33159 -1.92769 0
M  V30 678 C 63.7372 1.18088 -1.74981 0
M  V30 679 O 63.0852 1.98733 -1.12772 0
M  V30 680 C 63.2952 -0.759398 -3.40638 0
M  V30 681 C 64.6432 -0.757433 -4.1779 0
M  V30 682 O 65.6672 -0.70189 -3.49216 0
M  V30 683 O 64.5262 -0.829361 -5.4017 0
M  V30 684 H 61.6202 -0.0902502 -0.822061 0
M  V30 685 H 64.1662 -0.906231 -1.43477 0
M  V30 686 H 62.9382 -1.8012 -3.47379 0
M  V30 687 H 62.5612 -0.160378 -3.97276 0
M  V30 688 N 63.5583 1.46682 -0.576371 0
M  V30 689 C 64.5053 2.30241 0.160499 0
M  V30 690 C 65.4753 1.40233 0.890162 0
M  V30 691 O 66.6603 1.69186 0.882084 0
M  V30 692 C 63.8003 3.24578 1.1723 0
M  V30 693 C 62.9133 4.29684 0.446736 0
M  V30 694 C 62.0483 5.11154 1.44551 0
M  V30 695 C 61.0873 6.08015 0.70599 0
M  V30 696 N 60.2243 6.82376 1.65251 0
M  V30 697 H 65.0643 2.92727 -0.558127 0
M  V30 698 H 62.6013 1.44272 -0.287056 0
M  V30 699 H 64.5593 3.77711 1.77172 0
M  V30 700 H 63.1893 2.63916 1.85872 0
M  V30 701 H 62.2413 3.79458 -0.267594 0
M  V30 702 H 63.5533 4.98626 -0.131686 0
M  V30 703 H 62.7073 5.68533 2.11791 0
M  V30 704 H 61.4463 4.42158 2.05786 0
M  V30 705 H 60.4513 5.49796 0.0197725 0
M  V30 706 H 61.6763 6.79028 0.09912 0
M  V30 707 H 59.6223 6.16094 2.25308 0
M  V30 708 H 59.5393 7.47556 1.12673 0
M  V30 709 H 60.8073 7.44316 2.31546 0
M  V30 710 N 65.0364 0.313813 1.54444 0
M  V30 711 C 66.2854 -0.292519 1.99568 0
M  V30 712 C 66.5984 -1.54011 1.20582 0
M  V30 713 O 67.8044 -2.22183 1.56035 0
M  V30 714 C 66.2604 -0.571752 3.55329 0
M  V30 715 C 65.8684 0.658229 4.43138 0
M  V30 716 C 67.6124 -1.13857 4.08946 0
M  V30 717 C 65.5194 0.351439 5.90355 0
M  V30 718 H 64.4494 -0.113079 0.745472 0
M  V30 719 H 67.1004 0.424518 1.78522 0
M  V30 720 H 65.4824 -1.34872 3.72325 0
M  V30 721 H 66.6564 1.43403 4.37918 0
M  V30 722 H 64.9714 1.14458 4.0036 0
M  V30 723 H 67.5684 -1.38257 5.16516 0
M  V30 724 H 67.9114 -2.08489 3.6033 0
M  V30 725 H 68.4444 -0.423015 3.95544 0
M  V30 726 H 65.1834 1.26667 6.43145 0
M  V30 727 H 64.7034 -0.386842 5.98551 0
M  V30 728 H 66.3824 -0.0423134 6.46986 0
M  V30 729 N 66.5145 -1.57545 0.0417849 0
M  V30 730 C 67.9305 -1.56467 -0.314704 0
M  V30 731 C 68.1305 -1.04859 -1.72066 0
M  V30 732 O 67.1865 -0.700983 -2.42575 0
M  V30 733 C 68.4995 -3.00317 -0.15174 0
M  V30 734 C 70.0475 -3.12201 -0.223553 0
M  V30 735 C 70.5225 -4.57913 -0.0892295 0
M  V30 736 N 72.0135 -4.6297 -0.145808 0
M  V30 737 C 72.7485 -5.73362 -0.0658459 0
M  V30 738 N 72.2445 -6.92769 0.0659282 0
M  V30 739 N 74.0375 -5.6197 -0.12075 0
M  V30 740 H 66.1885 -1.89416 0.961014 0
M  V30 741 H 68.4515 -0.871862 0.372237 0
M  V30 742 H 68.1575 -3.42073 0.817254 0
M  V30 743 H 68.0315 -3.65892 -0.916692 0
M  V30 744 H 70.4185 -2.70349 -1.18301 0
M  V30 745 H 70.4995 -2.49323 0.571994 0
M  V30 746 H 70.1435 -5.00448 0.866867 0
M  V30 747 H 70.0735 -5.18786 -0.903802 0
M  V30 748 H 72.5645 -3.7709 -0.247286 0
M  V30 749 H 72.8775 -7.72707 0.119905 0
M  V30 750 H 71.2225 -6.94927 0.100885 0
M  V30 751 H 74.4135 -4.67572 -0.222187 0
M  V30 752 H 74.5865 -6.47977 -0.0549735 0
M  V30 753 N 67.9926 0.231505 -1.5589 0
M  V30 754 C 69.2226 0.973092 -1.82248 0
M  V30 755 C 69.6306 1.78845 -0.617328 0
M  V30 756 O 68.9736 1.78752 0.423499 0
M  V30 757 C 69.0356 1.94732 -3.02192 0
M  V30 758 C 68.6996 1.31743 -4.37599 0
M  V30 759 C 69.6966 0.712238 -5.14998 0
M  V30 760 C 67.3816 1.33218 -4.84312 0
M  V30 761 C 69.3756 0.130195 -6.37267 0
M  V30 762 C 67.0626 0.746286 -6.06526 0
M  V30 763 C 68.0606 0.146337 -6.82843 0
M  V30 764 O 67.7486 -0.430465 -8.02747 0
M  V30 765 H 67.4806 0.29125 -0.61004 0
M  V30 766 H 70.0346 0.254915 -2.03812 0
M  V30 767 H 68.2646 2.70422 -2.76422 0
M  V30 768 H 69.9536 2.55362 -3.15508 0
M  V30 769 H 70.7196 0.69324 -4.8002 0
M  V30 770 H 66.5986 1.78854 -4.24891 0
M  V30 771 H 70.1426 -0.33871 -6.96777 0
M  V30 772 H 66.0396 0.762663 -6.40979 0
M  V30 773 H 66.8076 -0.323818 -8.17859 0
M  V30 774 N 69.4707 1.49531 0.497807 0
M  V30 775 C 70.3807 1.69176 1.62532 0
M  V30 776 C 71.3967 0.5744 1.64246 0
M  V30 777 O 72.5727 0.849497 1.82608 0
M  V30 778 C 69.6377 1.75695 2.98885 0
M  V30 779 C 68.6987 2.9929 3.07773 0
M  V30 780 C 67.9317 3.05488 4.37622 0
M  V30 781 O 68.1547 2.19192 5.26603 0
M  V30 782 O 67.0887 3.9798 4.51548 0
M  V30 783 H 70.9147 2.647 1.48887 0
M  V30 784 H 68.4997 1.3331 0.674441 0
M  V30 785 H 70.3817 1.82317 3.79919 0
M  V30 786 H 69.0567 0.8335 3.12785 0
M  V30 787 H 67.9637 2.98183 2.25915 0
M  V30 788 H 69.2967 3.91125 2.98801 0
M  V30 789 N 70.9488 -0.749086 1.3866 0
M  V30 790 C 72.1738 -1.54344 1.38538 0
M  V30 791 C 72.5988 -1.88088 -0.0216655 0
M  V30 792 O 71.9568 -1.50899 -1.00494 0
M  V30 793 C 72.0048 -2.8164 2.25192 0
M  V30 794 O 71.1088 -3.7698 1.67212 0
M  V30 795 H 70.4498 -0.466654 0.472367 0
M  V30 796 H 72.9798 -0.925355 1.82478 0
M  V30 797 H 72.9898 -3.30519 2.3921 0
M  V30 798 H 71.6648 -2.56411 3.27454 0
M  V30 799 H 70.2418 -3.35699 1.6236 0
M  V30 800 N 72.4269 -1.23603 -0.977757 0
M  V30 801 C 73.6759 -1.06377 -1.71368 0
M  V30 802 C 73.9889 0.399062 -1.91486 0
M  V30 803 O 75.1949 0.691312 -2.62551 0
M  V30 804 C 73.6509 -1.85512 -3.08404 0
M  V30 805 C 73.2589 -3.36141 -2.96164 0
M  V30 806 C 75.0029 -1.76783 -3.85938 0
M  V30 807 C 72.9099 -4.07659 -4.28449 0
M  V30 808 H 71.8399 -0.394452 -0.642591 0
M  V30 809 H 74.4909 -1.47594 -1.09034 0
M  V30 810 H 72.8729 -1.37103 -3.71509 0
M  V30 811 H 74.0469 -3.92056 -2.42133 0
M  V30 812 H 72.3619 -3.45712 -2.32104 0
M  V30 813 H 74.9589 -2.27526 -4.83876 0
M  V30 814 H 75.3019 -0.731116 -4.0983 0
M  V30 815 H 75.8349 -2.22818 -3.2954 0
M  V30 816 H 72.5739 -5.11648 -4.09752 0
M  V30 817 H 72.0939 -3.5653 -4.82334 0
M  V30 818 H 73.7729 -4.141 -4.97122 0
M  V30 819 N 73.905 1.17692 -1.04816 0
M  V30 820 C 75.133 1.91786 -0.776254 0
M  V30 821 C 75.548 1.76604 0.667577 0
M  V30 822 O 74.905 1.10067 1.45573 0
M  V30 823 C 74.956 3.42967 -1.14263 0
M  V30 824 O 74.677 3.57678 -2.52978 0
M  V30 825 C 76.178 4.34144 -0.896311 0
M  V30 826 H 73.398 0.608624 -0.282519 0
M  V30 827 H 75.942 1.49268 -1.39783 0
M  V30 828 H 74.097 3.83245 -0.565874 0
M  V30 829 H 74.511 4.51319 -2.67229 0
M  V30 830 H 75.985 5.38744 -1.20244 0
M  V30 831 H 76.462 4.38876 0.168636 0
M  V30 832 H 77.068 3.99574 -1.45672 0
M  V30 833 N 75.3831 0.828654 1.34056 0
M  V30 834 C 76.6601 0.341809 1.9259 0
M  V30 835 C 77.0401 -1.17158 1.75605 0
M  V30 836 O 76.3881 -1.98132 1.13824 0
M  V30 837 C 76.5981 0.777453 3.4023 0
M  V30 838 C 77.9461 0.779579 4.17382 0
M  V30 839 O 78.9701 0.7204 3.48839 0
M  V30 840 O 77.8291 0.857996 5.39723 0
M  V30 841 H 74.9231 0.0946085 0.821571 0
M  V30 842 H 77.4691 0.913827 1.42994 0
M  V30 843 H 76.2411 1.8196 3.46419 0
M  V30 844 H 75.8641 0.181444 3.97186 0
M  V30 845 N 76.8612 -1.46375 0.584142 0
M  V30 846 C 78.0892 -2.06761 0.0759296 0
M  V30 847 C 78.5042 -1.43266 -1.22965 0
M  V30 848 O 77.8612 -0.538458 -1.74376 0
M  V30 849 C 77.9122 -3.61375 -0.0950384 0
M  V30 850 O 77.6332 -4.22495 1.15887 0
M  V30 851 C 79.1342 -4.38693 -0.637434 0
M  V30 852 H 76.3542 -0.668479 0.0581075 0
M  V30 853 H 78.8982 -1.8798 0.805218 0
M  V30 854 H 77.0532 -3.79578 -0.774554 0
M  V30 855 H 77.4672 -5.15385 0.973598 0
M  V30 856 H 78.9412 -5.47464 -0.706237 0
M  V30 857 H 79.4182 -4.06836 -1.65472 0
M  V30 858 H 80.0242 -4.25299 0.00725967 0
M  V30 859 N 78.3393 -0.321999 -1.54275 0
M  V30 860 C 79.2713 0.578671 -2.21775 0
M  V30 861 C 80.2843 1.08109 -1.21722 0
M  V30 862 O 81.4733 0.994938 -1.482 0
M  V30 863 C 78.5733 1.80661 -2.86731 0
M  V30 864 C 77.7463 1.44314 -4.12907 0
M  V30 865 C 76.8053 2.52845 -4.61472 0
M  V30 866 O 75.8313 2.17054 -5.2619 0
M  V30 867 N 77.0333 3.83748 -4.35566 0
M  V30 868 H 79.7983 0.000709447 -2.997 0
M  V30 869 H 77.3593 -0.145132 -1.61248 0
M  V30 870 H 79.3513 2.52655 -3.16145 0
M  V30 871 H 77.9213 2.29245 -2.12521 0
M  V30 872 H 77.1413 0.554906 -3.90275 0
M  V30 873 H 78.4293 1.17598 -4.95023 0
M  V30 874 H 77.8273 4.15625 -3.83761 0
M  V30 875 H 76.3843 4.51977 -4.69638 0
M  V30 876 N 79.8174 1.5752 -0.0501392 0
M  V30 877 C 80.7644 2.1147 0.924603 0
M  V30 878 C 81.7344 1.02182 1.30951 0
M  V30 879 O 82.9194 1.29723 1.39916 0
M  V30 880 C 80.0594 2.66337 2.19451 0
M  V30 881 C 79.1724 3.89708 1.86418 0
M  V30 882 C 78.3074 4.32893 3.07859 0
M  V30 883 C 77.3464 5.48967 2.70742 0
M  V30 884 N 76.4834 5.87211 3.84874 0
M  V30 885 H 81.3234 2.94465 0.457639 0
M  V30 886 H 78.8604 1.45531 0.214266 0
M  V30 887 H 80.8184 2.96247 2.93758 0
M  V30 888 H 79.4484 1.86141 2.63726 0
M  V30 889 H 78.5004 3.66396 1.02264 0
M  V30 890 H 79.8124 4.74074 1.55096 0
M  V30 891 H 78.9664 4.6435 3.90466 0
M  V30 892 H 77.7054 3.47336 3.42358 0
M  V30 893 H 76.7104 5.17183 1.86551 0
M  V30 894 H 77.9354 6.3624 2.37436 0
M  V30 895 H 75.8814 5.04607 4.19175 0
M  V30 896 H 75.7984 6.66266 3.57247 0
M  V30 897 H 77.0664 6.23282 4.68123 0
M  V30 898 N 81.2955 -0.223234 1.56011 0
M  V30 899 C 82.2255 -1.27988 1.95298 0
M  V30 900 C 83.2065 -1.48976 0.820979 0
M  V30 901 O 84.3915 -1.61188 1.08315 0
M  V30 902 C 81.5215 -2.63 2.26822 0
M  V30 903 C 80.4755 -2.56671 3.42497 0
M  V30 904 C 79.8015 -3.95697 3.59622 0
M  V30 905 C 81.1015 -2.11601 4.77517 0
M  V30 906 H 82.7955 -0.953525 2.8381 0
M  V30 907 H 80.3415 -0.457244 1.36548 0
M  V30 908 H 82.2945 -3.37077 2.52898 0
M  V30 909 H 81.0185 -2.9732 1.35161 0
M  V30 910 H 79.6775 -1.85051 3.16467 0
M  V30 911 H 79.3255 -4.27322 2.6534 0
M  V30 912 H 79.0255 -3.92345 4.37424 0
M  V30 913 H 80.5495 -4.71438 3.88044 0
M  V30 914 H 81.9635 -2.7542 5.02809 0
M  V30 915 H 80.3605 -2.19311 5.5859 0
M  V30 916 H 81.4305 -1.06824 4.72987 0
M  V30 917 N 82.7736 -1.49793 -0.48987 0
M  V30 918 C 83.9986 -1.63836 -1.27172 0
M  V30 919 C 84.4236 -0.31402 -1.8546 0
M  V30 920 O 83.7816 0.719803 -1.66399 0
M  V30 921 C 83.8296 -2.71797 -2.36978 0
M  V30 922 O 82.9336 -2.31744 -3.41128 0
M  V30 923 H 82.2746 -0.547997 -0.37496 0
M  V30 924 H 84.8046 -1.96053 -0.585191 0
M  V30 925 H 84.8146 -2.94305 -2.82575 0
M  V30 926 H 83.4896 -3.67923 -1.93921 0
M  V30 927 H 82.0666 -2.1961 -3.01373 0
M  V30 928 N 84.2517 0.741722 -1.39055 0
M  V30 929 C 85.2147 1.83733 -1.37021 0
M  V30 930 C 86.2147 1.58542 -0.268534 0
M  V30 931 O 87.4047 1.66067 -0.526076 0
M  V30 932 C 84.5367 3.2141 -1.13617 0
M  V30 933 H 85.7297 1.86941 -2.34506 0
M  V30 934 H 83.2827 0.944676 -1.24521 0
M  V30 935 H 84.0177 3.23865 -0.167863 0
M  V30 936 H 83.8027 3.4109 -1.93391 0
M  V30 937 H 85.2927 4.01477 -1.14918 0
M  V30 938 N 85.7298 1.2412 0.971189 0
M  V30 939 C 86.6398 1.04747 2.09917 0
M  V30 940 C 87.6558 -0.0107162 1.73997 0
M  V30 941 O 88.8318 0.186714 2.00533 0
M  V30 942 C 85.8968 0.650828 3.40537 0
M  V30 943 C 84.9578 1.7851 3.90426 0
M  V30 944 C 84.1908 1.40729 5.14812 0
M  V30 945 O 84.4138 0.29557 5.69634 0
M  V30 946 O 83.3478 2.23168 5.58999 0
M  V30 947 H 87.1738 1.99304 2.29154 0
M  V30 948 H 84.7588 1.02908 1.08307 0
M  V30 949 H 86.6408 0.440992 4.19086 0
M  V30 950 H 85.3158 -0.265649 3.22608 0
M  V30 951 H 84.2228 2.04966 3.12953 0
M  V30 952 H 85.5558 2.68023 4.12825 0
M  V30 953 N 87.2079 -1.17134 1.05439 0
M  V30 954 C 88.6189 -1.69084 0.791676 0
M  V30 955 C 88.9699 -1.83822 -0.685839 0
M  V30 956 O 88.0949 -1.52757 -1.53278 0
M  V30 957 C 88.6899 -3.07119 1.4305 0
M  V30 958 C 87.2489 -3.56225 1.21577 0
M  V30 959 C 86.3959 -2.32421 1.51247 0
M  V30 960 H 89.3469 -1.01617 1.219 0
M  V30 961 H 89.3679 -3.71087 0.84112 0
M  V30 962 H 88.8799 -2.9636 2.50584 0
M  V30 963 H 86.9809 -3.72257 0.159787 0
M  V30 964 H 87.0939 -4.38837 1.92246 0
M  V30 965 H 85.4579 -2.3701 0.932653 0
M  V30 966 H 86.2409 -2.24268 2.5992 0
M  V30 967 N 88.686 -0.835752 -1.33615 0
M  V30 968 C 89.596 -0.269088 -2.33052 0
M  V30 969 C 90.612 0.603251 -1.63208 0
M  V30 970 O 91.788 0.508112 -1.94885 0
M  V30 971 C 88.853 0.549091 -3.42324 0
M  V30 972 C 87.914 -0.347156 -4.27894 0
M  V30 973 C 87.147 0.43207 -5.31948 0
M  V30 974 O 87.37 1.66409 -5.45586 0
M  V30 975 O 86.304 -0.192298 -6.01593 0
M  V30 976 H 90.13 -1.09243 -2.83372 0
M  V30 977 H 87.715 -0.598198 -1.36901 0
M  V30 978 H 89.597 1.01414 -4.09015 0
M  V30 979 H 88.272 1.34955 -2.94226 0
M  V30 980 H 87.179 -0.859979 -3.64081 0
M  V30 981 H 88.512 -1.1123 -4.79467 0
M  V30 982 N 90.1641 1.46063 -0.591896 0
M  V30 983 C 91.4111 2.02338 -0.0809991 0
M  V30 984 C 91.7391 1.46228 1.28249 0
M  V30 985 O 90.9941 0.620818 1.85592 0
M  V30 986 C 91.2931 3.57391 0.0249813 0
M  V30 987 C 90.9591 4.32583 -1.27211 0
M  V30 988 C 89.6211 4.52844 -1.62745 0
M  V30 989 C 91.9731 4.75687 -2.13005 0
M  V30 990 C 89.3011 5.13462 -2.83855 0
M  V30 991 C 91.6531 5.37644 -3.3335 0
M  V30 992 C 90.3171 5.5613 -3.69155 0
M  V30 993 H 89.5871 0.740407 -0.0296397 0
M  V30 994 H 92.2341 1.75321 -0.770374 0
M  V30 995 H 90.5391 3.83597 0.797537 0
M  V30 996 H 92.2361 3.98621 0.436184 0
M  V30 997 H 88.8261 4.17116 -0.985499 0
M  V30 998 H 93.0101 4.59782 -1.86855 0
M  V30 999 H 88.2661 5.25965 -3.11722 0
M  V30 1000 H 92.4401 5.7 -4.00092 0
M  V30 1001 H 90.0671 6.0287 -4.63089 0
M  V30 1002 N 91.6422 0.330177 1.54103 0
M  V30 1003 C 92.8892 -0.270405 2.00686 0
M  V30 1004 C 93.2172 -1.51621 1.21825 0
M  V30 1005 O 92.4722 -1.93536 0.29025 0
M  V30 1006 C 92.7712 -0.643134 3.51566 0
M  V30 1007 C 92.4372 0.504251 4.48072 0
M  V30 1008 C 91.0992 0.819163 4.74176 0
M  V30 1009 C 93.4512 1.27465 5.05373 0
M  V30 1010 C 90.7792 1.90708 5.5484 0
M  V30 1011 C 93.1312 2.35271 5.87223 0
M  V30 1012 C 91.7952 2.67336 6.11627 0
M  V30 1013 H 91.0652 -0.0989482 0.734364 0
M  V30 1014 H 93.7122 0.455324 1.86008 0
M  V30 1015 H 92.0172 -1.44938 3.64006 0
M  V30 1016 H 93.7142 -1.11949 3.85056 0
M  V30 1017 H 90.3042 0.248733 4.27878 0
M  V30 1018 H 94.4882 1.04462 4.85182 0
M  V30 1019 H 89.7442 2.15991 5.71977 0
M  V30 1020 H 93.9182 2.95405 6.30641 0
M  V30 1021 H 91.5452 3.51763 6.73919 0
M  V30 1022 N 93.1203 -1.57491 0.0584922 0
M  V30 1023 C 94.3693 -1.92155 -0.613146 0
M  V30 1024 C 94.6823 -0.939334 -1.71569 0
M  V30 1025 O 95.8883 -1.17829 -2.44599 0
M  V30 1026 C 94.3443 -3.41303 -1.14195 0
M  V30 1027 C 93.9523 -4.47944 -0.0711265 0
M  V30 1028 C 95.6963 -3.84988 -1.78841 0
M  V30 1029 C 93.6033 -5.88212 -0.613225 0
M  V30 1030 H 92.5333 -0.717162 -0.232796 0
M  V30 1031 H 95.1843 -1.83049 0.12857 0
M  V30 1032 H 93.5663 -3.45437 -1.93621 0
M  V30 1033 H 94.7403 -4.55408 0.702836 0
M  V30 1034 H 93.0553 -4.13644 0.478313 0
M  V30 1035 H 95.6523 -4.87159 -2.20408 0
M  V30 1036 H 95.9953 -3.21632 -2.64308 0
M  V30 1037 H 96.5283 -3.83401 -1.06059 0
M  V30 1038 H 93.2673 -6.55183 0.203978 0
M  V30 1039 H 92.7873 -5.84294 -1.35501 0
M  V30 1040 H 94.4663 -6.37687 -1.09383 0
M  V30 1041 N 94.5984 0.214957 -1.56127 0
M  V30 1042 C 96.0144 0.564948 -1.49267 0
M  V30 1043 C 96.2144 1.86827 -0.754838 0
M  V30 1044 O 95.2704 2.50745 -0.297198 0
M  V30 1045 C 96.5834 0.638071 -2.93852 0
M  V30 1046 C 98.1314 0.728253 -3.0441 0
M  V30 1047 C 98.6064 0.832663 -4.50367 0
M  V30 1048 N 100.097 0.896712 -4.54437 0
M  V30 1049 C 100.832 0.997324 -5.6466 0
M  V30 1050 N 100.328 1.06147 -6.8462 0
M  V30 1051 N 102.121 1.03297 -5.52527 0
M  V30 1052 H 94.2724 -0.640211 -2.02522 0
M  V30 1053 H 96.5354 -0.225507 -0.920788 0
M  V30 1054 H 96.2414 -0.250126 -3.50809 0
M  V30 1055 H 96.1154 1.49947 -3.46115 0
M  V30 1056 H 98.5024 1.60689 -2.47514 0
M  V30 1057 H 98.5834 -0.158952 -2.55306 0
M  V30 1058 H 98.2274 -0.0415417 -5.07883 0
M  V30 1059 H 98.1574 1.73538 -4.97184 0
M  V30 1060 H 100.648 0.857188 -3.6805 0
M  V30 1061 H 100.961 1.1382 -7.64372 0
M  V30 1062 H 99.3064 1.03049 -6.87318 0
M  V30 1063 H 102.497 0.979558 -4.57736 0
M  V30 1064 H 102.67 1.10793 -6.38458 0
M  V30 1065 N 96.0765 1.50051 0.48192 0
M  V30 1066 C 97.3255 1.59741 1.23149 0
M  V30 1067 C 97.6385 0.298163 1.93314 0
M  V30 1068 O 98.8445 0.273835 2.70116 0
M  V30 1069 C 97.3005 2.81926 2.23708 0
M  V30 1070 C 96.9085 4.18685 1.59396 0
M  V30 1071 C 98.6525 3.00956 2.99375 0
M  V30 1072 C 96.5595 5.3207 2.58178 0
M  V30 1073 H 95.4895 0.594838 0.46334 0
M  V30 1074 H 98.1405 1.76467 0.503169 0
M  V30 1075 H 96.5225 2.58736 2.99786 0
M  V30 1076 H 97.6965 4.52088 0.891811 0
M  V30 1077 H 96.0115 4.05171 0.960503 0
M  V30 1078 H 98.6085 3.82836 3.73283 0
M  V30 1079 H 98.9515 2.12258 3.58123 0
M  V30 1080 H 99.4845 3.24277 2.30411 0
M  V30 1081 H 96.2235 6.22888 2.04184 0
M  V30 1082 H 95.7435 5.03098 3.26577 0
M  V30 1083 H 97.4225 5.62196 3.20225 0
M  V30 1084 N 97.5546 -0.734337 1.39446 0
M  V30 1085 C 98.8036 -1.48937 1.36017 0
M  V30 1086 C 99.1166 -1.95557 -0.0409005 0
M  V30 1087 O 100.323 -2.70779 -0.19778 0
M  V30 1088 C 98.7786 -2.69125 2.38955 0
M  V30 1089 C 98.3866 -2.29452 3.8478 0
M  V30 1090 C 100.131 -3.46944 2.44603 0
M  V30 1091 C 98.0376 -3.46366 4.79358 0
M  V30 1092 H 96.9676 -0.559296 0.505672 0
M  V30 1093 H 99.6186 -0.800983 1.65095 0
M  V30 1094 H 98.0006 -3.40041 2.02948 0
M  V30 1095 H 99.1746 -1.66077 4.29831 0
M  V30 1096 H 97.4896 -1.64723 3.82433 0
M  V30 1097 H 100.087 -4.33907 3.12456 0
M  V30 1098 H 100.43 -3.89454 1.47076 0
M  V30 1099 H 100.963 -2.83056 2.79507 0
M  V30 1100 H 97.7016 -3.08905 5.78151 0
M  V30 1101 H 97.2216 -4.08719 4.38986 0
M  V30 1102 H 98.9006 -4.12691 4.98292 0
M  V30 1103 N 99.0327 -1.24633 -0.964593 0
M  V30 1104 C 100.444 -1.08045 -1.5226 0
M  V30 1105 C 100.795 0.347116 -1.93105 0
M  V30 1106 O 99.9197 1.23588 -1.77637 0
M  V30 1107 C 100.515 -1.95514 -2.76695 0
M  V30 1108 C 99.0737 -1.8314 -3.28841 0
M  V30 1109 C 98.2207 -1.90262 -2.01732 0
M  V30 1110 H 101.172 -1.38064 -0.782553 0
M  V30 1111 H 101.193 -1.48925 -3.50145 0
M  V30 1112 H 100.705 -2.99407 -2.46936 0
M  V30 1113 H 98.8057 -0.82092 -3.63444 0
M  V30 1114 H 98.9187 -2.67406 -3.97531 0
M  V30 1115 H 97.2827 -1.34027 -2.16584 0
M  V30 1116 H 98.0657 -2.9574 -1.74334 0
M  V30 1117 N 100.511 1.16574 -1.06058 0
M  V30 1118 C 101.788 1.83048 -0.689416 0
M  V30 1119 C 102.168 1.94122 0.829443 0
M  V30 1120 O 101.516 1.48249 1.7388 0
M  V30 1121 C 101.726 3.20186 -1.38859 0
M  V30 1122 C 103.074 3.95989 -1.53226 0
M  V30 1123 O 104.098 3.29696 -1.3483 0
M  V30 1124 O 102.957 5.14813 -1.83384 0
M  V30 1125 H 100.051 0.790258 -0.243764 0
M  V30 1126 H 102.597 1.23797 -1.16071 0
M  V30 1127 H 101.369 3.07146 -2.4244 0
M  V30 1128 H 100.992 3.87112 -0.907216 0
M  V30 1129 N 101.989 0.842826 1.3317 0
M  V30 1130 C 102.936 0.276885 2.29133 0
M  V30 1131 C 103.906 -0.609527 1.54512 0
M  V30 1132 O 105.091 -0.546955 1.82792 0
M  V30 1133 C 102.231 -0.538707 3.40869 0
M  V30 1134 C 101.344 0.372169 4.30394 0
M  V30 1135 C 100.479 -0.454908 5.29249 0
M  V30 1136 C 99.5179 0.45411 6.10413 0
M  V30 1137 N 98.6549 -0.335075 7.013 0
M  V30 1138 H 103.495 1.10052 2.76934 0
M  V30 1139 H 101.032 0.554161 1.36262 0
M  V30 1140 H 102.99 -1.02709 4.0436 0
M  V30 1141 H 101.62 -1.32727 2.9425 0
M  V30 1142 H 100.672 0.97888 3.6759 0
M  V30 1143 H 101.984 1.0703 4.87182 0
M  V30 1144 H 101.138 -1.00695 5.98285 0
M  V30 1145 H 99.8769 -1.18646 4.73048 0
M  V30 1146 H 98.8819 1.01813 5.40291 0
M  V30 1147 H 100.107 1.18409 6.68697 0
M  V30 1148 H 98.0529 -1.04994 6.47543 0
M  V30 1149 H 97.9699 0.304262 7.55387 0
M  V30 1150 H 99.2379 -0.869224 7.74638 0
M  V30 1151 N 103.467 -1.45747 0.599634 0
M  V30 1152 C 104.695 -2.06668 0.0978551 0
M  V30 1153 C 105.11 -1.44562 -1.21439 0
M  V30 1154 O 104.467 -0.556923 -1.73795 0
M  V30 1155 C 104.518 -3.61456 -0.0567044 0
M  V30 1156 O 104.239 -4.21242 1.20361 0
M  V30 1157 C 105.74 -4.39345 -0.590869 0
M  V30 1158 H 102.96 -0.667825 0.0651943 0
M  V30 1159 H 105.504 -1.87115 0.82511 0
M  V30 1160 H 103.659 -3.80378 -0.734251 0
M  V30 1161 H 104.073 -5.14323 1.02821 0
M  V30 1162 H 105.547 -5.48182 -0.648131 0
M  V30 1163 H 106.024 -4.08568 -1.61147 0
M  V30 1164 H 106.63 -4.25268 0.0523679 0
M  V30 1165 N 104.945 -0.338344 -1.53925 0
M  V30 1166 C 105.893 0.536231 -2.26335 0
M  V30 1167 C 106.887 1.1063 -1.28286 0
M  V30 1168 O 108.093 1.05264 -1.46012 0
M  V30 1169 H 104.468 0.191602 -0.727181 0
M  V30 1170 H 106.439 -0.0965747 -2.98244 0
M  V30 1171 C 105.188 1.67803 -3.04528 0
M  V30 1172 H 104.511 1.24864 -3.79801 0
M  V30 1173 H 105.951 2.26526 -3.58416 0
M  V30 1174 C 104.41 2.60439 -2.13712 0
M  V30 1175 O 104.94 3.6255 -1.72975 0
M  V30 1176 N 103.146 2.29006 -1.78898 0
M  V30 1177 H 102.693 1.46011 -2.12223 0
M  V30 1178 H 102.651 2.91248 -1.18416 0
M  V30 1179 N 106.423 1.57458 -0.0668435 0
M  V30 1180 C 107.371 2.13639 0.919851 0
M  V30 1181 C 108.365 1.07204 1.31163 0
M  V30 1182 O 109.571 1.25591 1.28945 0
M  V30 1183 H 105.946 0.683048 0.314562 0
M  V30 1184 H 107.917 2.95415 0.421047 0
M  V30 1185 C 106.666 2.70892 2.17975 0
M  V30 1186 H 105.989 3.5246 1.88711 0
M  V30 1187 H 107.429 3.13803 2.85138 0
M  V30 1188 C 105.888 1.65414 2.93496 0
M  V30 1189 O 106.418 1.07619 3.87015 0
M  V30 1190 N 104.624 1.36564 2.56512 0
M  V30 1191 H 104.171 1.83751 1.80536 0
M  V30 1192 H 104.129 0.66223 3.07347 0
M  V30 1193 N 107.901 -0.206675 1.56239 0
M  V30 1194 C 109.129 -0.945345 1.8404 0
M  V30 1195 C 109.544 -1.77336 0.647885 0
M  V30 1196 O 108.901 -1.78425 -0.383511 0
M  V30 1197 C 108.952 -1.8509 3.10522 0
M  V30 1198 O 108.673 -1.05634 4.25174 0
M  V30 1199 C 110.174 -2.70222 3.51418 0
M  V30 1200 H 107.394 -0.276372 0.61144 0
M  V30 1201 H 109.938 -0.217417 2.03341 0
M  V30 1202 H 108.093 -2.53259 2.93153 0
M  V30 1203 H 108.507 -1.67238 4.97124 0
M  V30 1204 H 109.981 -3.29438 4.42916 0
M  V30 1205 H 110.458 -3.43358 2.73864 0
M  V30 1206 H 111.064 -2.07443 3.71278 0
M  V30 1207 N 109.379 -1.50304 -0.473955 0
M  V30 1208 C 110.309 -1.71886 -1.58042 0
M  V30 1209 C 111.29 -0.567799 -1.60344 0
M  V30 1210 O 112.475 -0.806623 -1.76656 0
M  V30 1211 C 109.605 -1.81036 -2.96384 0
M  V30 1212 C 108.559 -2.962 -3.08949 0
M  V30 1213 C 107.885 -2.9049 -4.48909 0
M  V30 1214 C 109.185 -4.36752 -2.86434 0
M  V30 1215 H 110.879 -2.64527 -1.40234 0
M  V30 1216 H 108.425 -1.27295 -0.673201 0
M  V30 1217 H 110.378 -1.94719 -3.73714 0
M  V30 1218 H 109.102 -0.850147 -3.15341 0
M  V30 1219 H 107.761 -2.82164 -2.3405 0
M  V30 1220 H 107.409 -1.92321 -4.64781 0
M  V30 1221 H 107.109 -3.67802 -4.58253 0
M  V30 1222 H 108.633 -3.06218 -5.28264 0
M  V30 1223 H 110.047 -4.5133 -3.53517 0
M  V30 1224 H 108.444 -5.15493 -3.07225 0
M  V30 1225 H 109.514 -4.49321 -1.82316 0
M  V30 1226 N 110.857 0.726932 -1.39834 0
M  V30 1227 C 112.085 1.51613 -1.40787 0
M  V30 1228 C 112.5 1.88799 -0.00451505 0
M  V30 1229 O 111.857 1.54662 0.968809 0
M  V30 1230 C 111.908 2.79863 -2.28821 0
M  V30 1231 O 111.629 2.44253 -3.63692 0
M  V30 1232 C 113.13 3.73837 -2.38245 0
M  V30 1233 H 110.35 0.468264 -0.480593 0
M  V30 1234 H 112.894 0.897607 -1.83748 0
M  V30 1235 H 111.049 3.38027 -1.89252 0
M  V30 1236 H 111.463 3.26695 -4.1033 0
M  V30 1237 H 112.937 4.60699 -3.04073 0
M  V30 1238 H 113.414 4.16153 -1.40403 0
M  V30 1239 H 114.02 3.21589 -2.78317 0
M  V30 1240 N 112.336 1.25143 0.95797 0
M  V30 1241 C 113.585 1.0909 1.69654 0
M  V30 1242 C 113.898 -0.368548 1.92097 0
M  V30 1243 O 115.104 -0.649455 2.63618 0
M  V30 1244 C 113.56 1.90395 3.05414 0
M  V30 1245 C 113.168 3.4081 2.90779 0
M  V30 1246 C 114.912 1.82901 3.83076 0
M  V30 1247 C 112.819 4.14423 4.21909 0
M  V30 1248 H 111.749 0.404625 0.636235 0
M  V30 1249 H 114.4 1.4931 1.06672 0
M  V30 1250 H 112.782 1.42996 3.69281 0
M  V30 1251 H 113.956 3.95859 2.35865 0
M  V30 1252 H 112.271 3.49361 2.26575 0
M  V30 1253 H 114.868 2.35196 4.80195 0
M  V30 1254 H 115.211 0.796224 4.08615 0
M  V30 1255 H 115.744 2.28033 3.25954 0
M  V30 1256 H 112.483 5.18102 4.01561 0
M  V30 1257 H 112.003 3.64159 4.76601 0
M  V30 1258 H 113.682 4.21956 4.90471 0
M  V30 1259 N 113.814 -1.1601 1.06675 0
M  V30 1260 C 114.724 -2.24156 0.692179 0
M  V30 1261 C 115.74 -1.71507 -0.293513 0
M  V30 1262 O 116.916 -2.009 -0.141861 0
M  V30 1263 C 113.981 -3.46587 0.0884131 0
M  V30 1264 C 113.042 -4.14257 1.12646 0
M  V30 1265 C 112.275 -5.30844 0.551416 0
M  V30 1266 O 112.498 -5.66858 -0.634656 0
M  V30 1267 O 111.432 -5.87848 1.29298 0
M  V30 1268 H 115.258 -2.58513 1.59388 0
M  V30 1269 H 112.843 -1.23599 0.83926 0
M  V30 1270 H 114.725 -4.20679 -0.246361 0
M  V30 1271 H 113.4 -3.13994 -0.786712 0
M  V30 1272 H 112.307 -3.42118 1.51348 0
M  V30 1273 H 113.64 -4.50914 1.97325 0
M  V30 1274 N 115.292 -0.849877 -1.32721 0
M  V30 1275 C 116.569 -0.372405 -1.92022 0
M  V30 1276 C 116.949 1.1435 -1.77447 0
M  V30 1277 O 116.297 1.96296 -1.16962 0
M  V30 1278 C 116.507 -0.831482 -3.3895 0
M  V30 1279 C 117.855 -0.845882 -4.16089 0
M  V30 1280 O 118.879 -0.775806 -3.47649 0
M  V30 1281 O 117.738 -0.943753 -5.38289 0
M  V30 1282 H 114.832 -0.107667 -0.819961 0
M  V30 1283 H 117.378 -0.93646 -1.41522 0
M  V30 1284 H 116.15 -1.87448 -3.4348 0
M  V30 1285 H 115.773 -0.24461 -3.96847 0
M  V30 1286 N 116.77 1.45427 -0.607355 0
M  V30 1287 C 117.995 2.07124 -0.107006 0
M  V30 1288 C 118.42 1.44906 1.19933 0
M  V30 1289 O 117.778 0.541687 1.73019 0
M  V30 1290 C 117.826 3.60595 0.0194119 0
M  V30 1291 O 116.93 3.98285 1.0697 0
M  V30 1292 H 116.271 0.659868 -0.0739597 0
M  V30 1293 H 118.801 1.86683 -0.837297 0
M  V30 1294 H 118.811 4.07419 0.2177 0
M  V30 1295 H 117.486 4.05266 -0.934453 0
M  V30 1296 H 116.063 3.63133 0.847889 0
M  V30 1297 N 118.248 0.346503 1.53744 0
M  V30 1298 C 119.496 -0.248612 2.00565 0
M  V30 1299 C 119.817 -1.5083 1.23593 0
M  V30 1300 O 119.087 -1.92858 0.343912 0
M  V30 1301 H 117.667 -0.0948564 0.740953 0
M  V30 1302 H 120.329 0.468341 1.89189 0
M  V30 1303 H 119.425 -0.488994 3.08245 0
M  V30 1304 N 119.726 -1.57421 0.075193 0
M  V30 1305 C 120.975 -1.92794 -0.592731 0
M  V30 1306 C 121.288 -0.957478 -1.70563 0
M  V30 1307 O 122.494 -1.20417 -2.43335 0
M  V30 1308 C 120.95 -3.42495 -1.10569 0
M  V30 1309 C 120.558 -4.47994 -0.0236121 0
M  V30 1310 C 122.302 -3.86864 -1.74748 0
M  V30 1311 C 120.209 -5.88829 -0.550803 0
M  V30 1312 H 119.139 -0.719591 -0.225177 0
M  V30 1313 H 121.79 -1.82902 0.147978 0
M  V30 1314 H 120.172 -3.47471 -1.89947 0
M  V30 1315 H 121.346 -4.54637 0.751099 0
M  V30 1316 H 119.661 -4.13113 0.522159 0
M  V30 1317 H 122.258 -4.8947 -2.15229 0
M  V30 1318 H 122.601 -3.24417 -2.60882 0
M  V30 1319 H 123.134 -3.84504 -1.01986 0
M  V30 1320 H 119.873 -6.54929 0.273457 0
M  V30 1321 H 119.393 -5.85698 -1.29296 0
M  V30 1322 H 121.072 -6.38811 -1.02613 0
M  V30 1323 N 121.204 0.198386 -1.56346 0
M  V30 1324 C 122.452 0.91747 -1.80075 0
M  V30 1325 C 122.773 1.83929 -0.647692 0
M  V30 1326 O 122.043 1.93029 0.334166 0
M  V30 1327 H 120.623 0.341774 -0.664228 0
M  V30 1328 H 123.285 0.204684 -1.93822 0
M  V30 1329 H 122.381 1.51055 -2.7311 0
M  V30 1330 N 122.682 1.50554 0.465978 0
M  V30 1331 C 123.615 1.64436 1.58227 0
M  V30 1332 C 124.593 0.492367 1.54966 0
M  V30 1333 O 125.777 0.712536 1.74514 0
M  V30 1334 C 122.904 1.63165 2.96808 0
M  V30 1335 C 121.95 2.83987 3.18204 0
M  V30 1336 S 122.783 4.45219 2.97557 0
M  V30 1337 C 123.939 4.46649 4.3847 0
M  V30 1338 H 124.172 2.58861 1.46213 0
M  V30 1339 H 121.705 1.3988 0.653678 0
M  V30 1340 H 123.663 1.63116 3.76701 0
M  V30 1341 H 122.324 0.69967 3.06208 0
M  V30 1342 H 121.517 2.79416 4.19455 0
M  V30 1343 H 121.119 2.81629 2.46092 0
M  V30 1344 H 123.411 4.20526 5.31191 0
M  V30 1345 H 124.354 5.48295 4.48082 0
M  V30 1346 H 124.762 3.76296 4.20787 0
M  V30 1347 N 124.16 -0.719506 1.40217 0
M  V30 1348 C 125.388 -1.50864 1.41589 0
M  V30 1349 C 125.803 -1.88794 0.0145275 0
M  V30 1350 O 125.16 -1.55174 -0.960594 0
M  V30 1351 C 125.211 -2.78646 2.30302 0
M  V30 1352 O 124.932 -2.42321 3.64983 0
M  V30 1353 C 126.433 -3.72569 2.40224 0
M  V30 1354 H 123.653 -0.465709 0.48307 0
M  V30 1355 H 126.197 -0.88785 1.84221 0
M  V30 1356 H 124.352 -3.37019 1.91042 0
M  V30 1357 H 124.766 -3.24514 4.12057 0
M  V30 1358 H 126.24 -4.5908 3.06512 0
M  V30 1359 H 126.717 -4.15403 1.42608 0
M  V30 1360 H 127.323 -3.20109 2.80019 0
M  V30 1361 N 125.638 -1.25649 -0.95132 0
M  V30 1362 C 126.585 -1.06323 -2.04851 0
M  V30 1363 C 127.555 0.0286491 -1.66075 0
M  V30 1364 O 128.74 -0.12917 -1.90362 0
M  V30 1365 C 125.88 -0.691529 -3.381 0
M  V30 1366 C 124.993 -1.85861 -3.89974 0
M  V30 1367 C 124.128 -1.43096 -5.11563 0
M  V30 1368 C 123.167 -2.56696 -5.55674 0
M  V30 1369 N 122.304 -2.14684 -6.68472 0
M  V30 1370 H 127.144 -2.00222 -2.20715 0
M  V30 1371 H 124.681 -0.997027 -1.08156 0
M  V30 1372 H 126.639 -0.456963 -4.1469 0
M  V30 1373 H 125.269 0.210474 -3.22113 0
M  V30 1374 H 124.321 -2.20639 -3.09875 0
M  V30 1375 H 125.633 -2.71161 -4.18657 0
M  V30 1376 H 124.787 -1.15624 -5.9558 0
M  V30 1377 H 123.526 -0.548722 -4.84603 0
M  V30 1378 H 122.531 -2.84909 -4.7022 0
M  V30 1379 H 123.756 -3.45503 -5.8464 0
M  V30 1380 H 121.702 -1.28881 -6.43215 0
M  V30 1381 H 121.619 -2.9353 -6.96689 0
M  V30 1382 H 122.887 -1.90397 -7.5589 0
M  V30 1383 N 127.117 1.15442 -1.07289 0
M  V30 1384 C 128.065 2.22225 -0.686952 0
M  V30 1385 C 129.059 1.66688 0.30193 0
M  V30 1386 O 130.265 1.79236 0.165712 0
M  V30 1387 H 126.64 0.723783 -0.204064 0
M  V30 1388 H 128.611 2.52056 -1.5972 0
M  V30 1389 C 127.36 3.47556 -0.100149 0
M  V30 1390 H 126.683 3.90612 -0.852211 0
M  V30 1391 H 128.123 4.23794 0.132235 0
M  V30 1392 C 126.582 3.16337 1.159 0
M  V30 1393 O 127.112 3.33074 2.24555 0
M  V30 1394 N 125.318 2.70385 1.06491 0
M  V30 1395 H 124.865 2.56966 0.180668 0
M  V30 1396 H 124.823 2.49871 1.90819 0
M  V30 1397 N 128.595 0.856903 1.32268 0
M  V30 1398 C 129.872 0.382583 1.91822 0
M  V30 1399 C 130.252 -1.13407 1.78051 0
M  V30 1400 O 129.6 -1.95673 1.18001 0
M  V30 1401 C 129.81 0.849446 3.38505 0
M  V30 1402 C 131.158 0.867936 4.15634 0
M  V30 1403 O 132.182 0.794232 3.47232 0
M  V30 1404 O 131.041 0.972286 5.37781 0
M  V30 1405 H 128.135 0.112014 0.819379 0
M  V30 1406 H 130.681 0.943952 1.41024 0
M  V30 1407 H 129.453 1.89267 3.42482 0
M  V30 1408 H 129.076 0.265652 3.96712 0
M  V30 1409 N 130.073 -1.45103 0.615059 0
M  V30 1410 C 131.003 -2.33339 -0.0865619 0
M  V30 1411 C 131.984 -1.4727 -0.851209 0
M  V30 1412 O 133.169 -1.76026 -0.820281 0
M  V30 1413 C 130.299 -3.30095 -1.07956 0
M  V30 1414 C 129.253 -4.25858 -0.427628 0
M  V30 1415 C 128.579 -5.12361 -1.5294 0
M  V30 1416 C 129.879 -5.18165 0.655944 0
M  V30 1417 H 131.573 -2.92254 0.650224 0
M  V30 1418 H 129.119 -1.40532 0.314138 0
M  V30 1419 H 131.072 -3.90698 -1.57901 0
M  V30 1420 H 129.796 -2.69355 -1.84703 0
M  V30 1421 H 128.455 -3.66564 0.0510292 0
M  V30 1422 H 128.103 -4.47984 -2.28734 0
M  V30 1423 H 127.803 -5.77238 -1.09865 0
M  V30 1424 H 129.327 -5.75833 -2.03098 0
M  V30 1425 H 130.741 -5.72796 0.240257 0
M  V30 1426 H 129.138 -5.91559 1.00888 0
M  V30 1427 H 130.208 -4.60144 1.52957 0
M  V30 1428 N 131.551 -0.354651 -1.53558 0
M  V30 1429 C 132.8 0.239504 -2.00273 0
M  V30 1430 C 133.113 1.50759 -1.24623 0
M  V30 1431 O 134.319 2.17968 -1.61871 0
M  V30 1432 C 132.775 0.477341 -3.5672 0
M  V30 1433 C 132.383 -0.775488 -4.41237 0
M  V30 1434 C 134.127 1.02975 -4.11821 0
M  V30 1435 C 132.034 -0.507838 -5.89216 0
M  V30 1436 H 130.964 0.0932743 -0.748208 0
M  V30 1437 H 133.615 -0.471701 -1.77334 0
M  V30 1438 H 131.997 1.24953 -3.7577 0
M  V30 1439 H 133.171 -1.54963 -4.33962 0
M  V30 1440 H 131.486 -1.25033 -3.97185 0
M  V30 1441 H 134.083 1.24513 -5.2 0
M  V30 1442 H 134.426 1.98862 -3.65731 0
M  V30 1443 H 134.959 0.317994 -3.96527 0
M  V30 1444 H 131.698 -1.43674 -6.39561 0
M  V30 1445 H 131.218 0.228011 -5.99366 0
M  V30 1446 H 132.897 -0.129238 -6.46871 0
M  V30 1447 N 133.029 1.57378 -0.0835403 0
M  V30 1448 C 133.977 2.14602 0.89714 0
M  V30 1449 C 134.971 1.08589 1.30018 0
M  V30 1450 O 136.177 1.26952 1.27606 0
M  V30 1451 H 132.552 0.686346 0.3073 0
M  V30 1452 H 134.523 2.95845 0.38969 0
M  V30 1453 C 133.272 2.73188 2.15089 0
M  V30 1454 H 132.595 3.54442 1.84962 0
M  V30 1455 H 134.035 3.1681 2.81793 0
M  V30 1456 C 132.494 1.68517 2.91725 0
M  V30 1457 O 133.024 1.11718 3.85852 0
M  V30 1458 N 131.23 1.39277 2.55049 0
M  V30 1459 H 130.777 1.85655 1.78577 0
M  V30 1460 H 130.735 0.694791 3.06627 0
M  V30 1461 N 134.507 -0.190092 1.56449 0
M  V30 1462 C 135.455 -1.25501 1.95837 0
M  V30 1463 C 136.449 -1.4685 0.844485 0
M  V30 1464 O 137.655 -1.47651 1.02952 0
M  V30 1465 H 134.03 -0.421447 0.622805 0
M  V30 1466 H 136.001 -0.895821 2.84636 0
M  V30 1467 C 134.75 -2.59124 2.31841 0
M  V30 1468 H 134.073 -2.43514 3.17082 0
M  V30 1469 H 135.513 -3.32371 2.6326 0
M  V30 1470 C 133.972 -3.16488 1.15486 0
M  V30 1471 O 134.502 -3.99365 0.432535 0
M  V30 1472 N 132.708 -2.75305 0.930349 0
M  V30 1473 H 132.255 -2.08013 1.51948 0
M  V30 1474 H 132.213 -3.14024 0.153634 0
M  V30 1475 N 135.985 -1.50799 -0.457987 0
M  V30 1476 C 136.915 -1.73553 -1.5621 0
M  V30 1477 C 137.896 -0.584774 -1.59732 0
M  V30 1478 O 139.081 -0.825314 -1.7579 0
M  V30 1479 C 136.211 -1.84169 -2.94447 0
M  V30 1480 C 135.165 -2.99461 -3.0579 0
M  V30 1481 C 134.491 -2.95235 -4.45803 0
M  V30 1482 C 135.791 -4.39766 -2.81786 0
M  V30 1483 H 137.485 -2.66 -1.37421 0
M  V30 1484 H 135.031 -1.28002 -0.659662 0
M  V30 1485 H 136.984 -1.98672 -3.71628 0
M  V30 1486 H 135.708 -0.883545 -3.14422 0
M  V30 1487 H 134.367 -2.8463 -2.31044 0
M  V30 1488 H 134.015 -1.97239 -4.62715 0
M  V30 1489 H 133.715 -3.72642 -4.54326 0
M  V30 1490 H 135.239 -3.11803 -5.24987 0
M  V30 1491 H 136.653 -4.55054 -3.4871 0
M  V30 1492 H 135.05 -5.18722 -3.0174 0
M  V30 1493 H 136.12 -4.51229 -1.7754 0
M  V30 1494 N 137.463 0.71206 -1.40597 0
M  V30 1495 C 138.711 1.46907 -1.38791 0
M  V30 1496 C 139.032 1.94998 0.00780391 0
M  V30 1497 O 138.302 1.70587 0.963174 0
M  V30 1498 H 136.882 0.545043 -0.51082 0
M  V30 1499 H 139.544 0.843882 -1.75683 0
M  V30 1500 H 138.64 2.34021 -2.06496 0
M  V30 1501 N 138.941 1.26152 0.944643 0
M  V30 1502 C 140.169 1.14259 1.72489 0
M  V30 1503 C 140.584 -0.302555 1.8636 0
M  V30 1504 O 139.941 -1.20741 1.36849 0
M  V30 1505 C 139.992 1.80266 3.13347 0
M  V30 1506 O 139.713 3.19133 3.00143 0
M  V30 1507 C 141.214 1.74283 4.07603 0
M  V30 1508 H 138.434 0.398051 0.540181 0
M  V30 1509 H 140.978 1.66706 1.18446 0
M  V30 1510 H 139.133 1.31766 3.64303 0
M  V30 1511 H 139.547 3.51744 3.89071 0
M  V30 1512 H 141.021 2.25111 5.04013 0
M  V30 1513 H 141.498 0.708631 4.33446 0
M  V30 1514 H 142.104 2.22319 3.62567 0
M  V30 1515 N 140.419 -1.14872 1.07899 0
M  V30 1516 C 141.668 -1.85135 0.800499 0
M  V30 1517 C 141.981 -1.83547 -0.676014 0
M  V30 1518 O 143.187 -2.49548 -1.06948 0
M  V30 1519 C 141.643 -3.3231 1.38197 0
M  V30 1520 C 141.251 -3.42329 2.8899 0
M  V30 1521 C 142.995 -4.0772 1.18174 0
M  V30 1522 C 140.902 -4.83684 3.403 0
M  V30 1523 H 139.832 -0.693563 0.29578 0
M  V30 1524 H 142.483 -1.29532 1.29976 0
M  V30 1525 H 140.865 -3.87618 0.810431 0
M  V30 1526 H 142.039 -2.97097 3.52236 0
M  V30 1527 H 140.354 -2.80369 3.07867 0
M  V30 1528 H 142.951 -5.12049 1.5398 0
M  V30 1529 H 143.294 -4.16124 0.12117 0
M  V30 1530 H 143.827 -3.58696 1.71994 0
M  V30 1531 H 140.566 -4.80465 4.45907 0
M  V30 1532 H 140.086 -5.29474 2.81811 0
M  V30 1533 H 141.765 -5.52558 3.36584 0
M  V30 1534 N 141.898 -0.863906 -1.31812 0
M  V30 1535 C 142.861 -0.320212 -2.26952 0
M  V30 1536 C 143.861 0.525369 -1.51975 0
M  V30 1537 O 145.051 0.335547 -1.70938 0
M  V30 1538 C 142.183 0.545919 -3.365 0
M  V30 1539 H 143.376 -1.16004 -2.76556 0
M  V30 1540 H 140.929 -0.638995 -1.42641 0
M  V30 1541 H 141.664 1.40718 -2.92179 0
M  V30 1542 H 141.449 -0.0594674 -3.92055 0
M  V30 1543 H 142.939 0.918796 -4.07367 0
M  V30 1544 N 143.376 1.44774 -0.622745 0
M  V30 1545 C 144.792 1.56986 -0.287652 0
M  V30 1546 C 144.992 1.61167 1.20944 0
M  V30 1547 O 144.048 1.55015 1.99315 0
M  V30 1548 C 145.361 2.84551 -0.972188 0
M  V30 1549 C 146.909 2.9825 -0.949536 0
M  V30 1550 C 147.384 4.28605 -1.61437 0
M  V30 1551 N 148.875 4.35399 -1.58057 0
M  V30 1552 C 149.61 5.34964 -2.064 0
M  V30 1553 N 149.106 6.40981 -2.62897 0
M  V30 1554 N 150.899 5.26419 -1.97078 0
M  V30 1555 H 143.05 1.40304 -1.59463 0
M  V30 1556 H 145.313 0.671794 -0.668878 0
M  V30 1557 H 145.019 2.87417 -2.02693 0
M  V30 1558 H 144.893 3.73807 -0.504771 0
M  V30 1559 H 147.28 2.94941 0.0967067 0
M  V30 1560 H 147.361 2.10364 -1.45536 0
M  V30 1561 H 147.005 4.32672 -2.66002 0
M  V30 1562 H 146.935 5.15334 -1.08344 0
M  V30 1563 H 149.426 3.59397 -1.16801 0
M  V30 1564 H 149.739 7.13225 -2.97539 0
M  V30 1565 H 148.084 6.4169 -2.66943 0
M  V30 1566 H 151.275 4.42504 -1.52669 0
M  V30 1567 H 151.448 6.03861 -2.35066 0
M  V30 1568 N 144.854 0.36279 1.53368 0
M  V30 1569 C 146.079 -0.231226 2.06107 0
M  V30 1570 C 146.504 -1.419 1.23474 0
M  V30 1571 O 145.862 -1.79524 0.253128 0
M  V30 1572 C 145.91 -0.605523 3.5548 0
M  V30 1573 O 145.014 -1.70312 3.7559 0
M  V30 1574 H 144.355 -0.034327 0.663112 0
M  V30 1575 H 146.885 0.522584 1.97814 0
M  V30 1576 H 146.895 -0.877314 3.98456 0
M  V30 1577 H 145.57 0.263004 4.15068 0
M  V30 1578 H 144.147 -1.4271 3.44512 0
M  V30 1579 N 146.332 -1.57332 0.0918853 0
M  V30 1580 C 147.58 -1.93853 -0.571446 0
M  V30 1581 C 147.901 -0.974212 -1.6892 0
M  V30 1582 O 147.171 -0.0257254 -1.95883 0
M  V30 1583 H 145.751 -0.715666 -0.214082 0
M  V30 1584 H 148.413 -1.94287 0.154464 0
M  V30 1585 H 147.509 -2.96191 -0.983729 0
M  V30 1586 N 147.81 0.181792 -1.56548 0
M  V30 1587 C 149.038 0.915947 -1.85521 0
M  V30 1588 C 149.453 1.76282 -0.676016 0
M  V30 1589 O 148.81 1.79012 0.355077 0
M  V30 1590 C 148.861 1.80126 -3.13427 0
M  V30 1591 O 148.582 0.988562 -4.26801 0
M  V30 1592 C 150.083 2.64597 -3.55673 0
M  V30 1593 H 147.303 0.26661 -0.61576 0
M  V30 1594 H 149.847 0.185039 -2.03661 0
M  V30 1595 H 148.002 2.48563 -2.97145 0
M  V30 1596 H 148.416 1.59308 -4.99721 0
M  V30 1597 H 149.89 3.2235 -4.48101 0
M  V30 1598 H 150.367 3.38958 -2.79292 0
M  V30 1599 H 150.973 2.0151 -3.74532 0
M  V30 1600 N 149.288 1.51039 0.449983 0
M  V30 1601 C 150.235 1.71439 1.54523 0
M  V30 1602 C 151.205 0.555871 1.56522 0
M  V30 1603 O 152.39 0.788871 1.73728 0
M  V30 1604 C 149.53 1.83384 2.92343 0
M  V30 1605 C 148.643 3.10873 2.9997 0
M  V30 1606 C 147.778 3.13488 4.28834 0
M  V30 1607 C 146.817 4.35343 4.30282 0
M  V30 1608 N 145.954 4.35579 5.5065 0
M  V30 1609 H 150.794 2.64934 1.36433 0
M  V30 1610 H 148.331 1.31312 0.662982 0
M  V30 1611 H 150.289 1.88291 3.72293 0
M  V30 1612 H 148.919 0.933086 3.0902 0
M  V30 1613 H 147.971 3.15336 2.12761 0
M  V30 1614 H 149.283 4.00814 2.96901 0
M  V30 1615 H 148.437 3.17241 5.17149 0
M  V30 1616 H 147.176 2.21414 4.34543 0
M  V30 1617 H 146.181 4.3178 3.40362 0
M  V30 1618 H 147.406 5.28668 4.26248 0
M  V30 1619 H 145.352 3.46369 5.57104 0
M  V30 1620 H 145.269 5.19313 5.49409 0
M  V30 1621 H 146.537 4.43507 6.41032 0
M  V30 1622 N 150.766 -0.704594 1.40972 0
M  V30 1623 C 151.729 -1.80035 1.41845 0
M  V30 1624 C 152.729 -1.57774 0.310474 0
M  V30 1625 O 153.919 -1.64613 0.56992 0
M  V30 1626 C 151.051 -3.18284 1.22098 0
M  V30 1627 H 152.244 -1.80658 2.3938 0
M  V30 1628 H 149.797 -0.911329 1.26982 0
M  V30 1629 H 150.532 -3.23306 0.253672 0
M  V30 1630 H 150.317 -3.35843 2.02366 0
M  V30 1631 H 151.807 -3.98289 1.25522 0
M  V30 1632 N 152.244 -1.26651 -0.937939 0
M  V30 1633 C 153.491 -1.12387 -1.6845 0
M  V30 1634 C 153.819 0.332208 -1.91642 0
M  V30 1635 O 153.074 1.2602 -1.49725 0
M  V30 1636 C 153.373 -1.84168 -3.06295 0
M  V30 1637 C 153.039 -3.34056 -3.02849 0
M  V30 1638 C 151.701 -3.74942 -3.01616 0
M  V30 1639 C 154.053 -4.29741 -2.9491 0
M  V30 1640 C 151.381 -5.09894 -2.90215 0
M  V30 1641 C 153.733 -5.64738 -2.8505 0
M  V30 1642 C 152.397 -6.0493 -2.82162 0
M  V30 1643 H 151.667 -0.411252 -0.616403 0
M  V30 1644 H 154.314 -1.57134 -1.09459 0
M  V30 1645 H 152.619 -1.319 -3.6893 0
M  V30 1646 H 154.316 -1.70569 -3.62915 0
M  V30 1647 H 150.906 -3.01534 -3.0459 0
M  V30 1648 H 155.09 -3.99133 -2.94969 0
M  V30 1649 H 150.346 -5.40194 -2.86358 0
M  V30 1650 H 154.52 -6.38561 -2.77872 0
M  V30 1651 H 152.147 -7.09457 -2.73084 0
M  V30 1652 N 153.722 1.14298 -1.08507 0
M  V30 1653 C 154.655 2.18447 -0.660004 0
M  V30 1654 C 155.633 1.59242 0.328749 0
M  V30 1655 O 156.817 1.87062 0.232367 0
M  V30 1656 C 153.944 3.38688 0.0290807 0
M  V30 1657 C 152.99 4.1646 -0.919982 0
M  V30 1658 S 153.823 4.77334 -2.42718 0
M  V30 1659 C 154.979 6.00931 -1.75024 0
M  V30 1660 H 155.212 2.54166 -1.54231 0
M  V30 1661 H 152.745 1.25446 -0.900149 0
M  V30 1662 H 154.703 4.08342 0.420378 0
M  V30 1663 H 153.364 3.01289 0.887895 0
M  V30 1664 H 152.557 5.02529 -0.384751 0
M  V30 1665 H 152.159 3.52414 -1.25223 0
M  V30 1666 H 154.451 6.69017 -1.06877 0
M  V30 1667 H 155.394 6.59044 -2.58971 0
M  V30 1668 H 155.802 5.51089 -1.22317 0
M  V30 1669 N 155.201 0.870884 1.31352 0
M  V30 1670 C 156.111 0.330783 2.32256 0
M  V30 1671 C 157.127 -0.559767 1.6475 0
M  V30 1672 O 158.303 -0.456263 1.96164 0
M  V30 1673 C 155.368 -0.458137 3.4366 0
M  V30 1674 C 154.429 0.460482 4.26823 0
M  V30 1675 C 153.662 -0.290881 5.32907 0
M  V30 1676 O 153.885 -1.51885 5.49806 0
M  V30 1677 O 152.819 0.351732 6.00871 0
M  V30 1678 H 156.645 1.16718 2.80376 0
M  V30 1679 H 154.23 0.634285 1.35267 0
M  V30 1680 H 156.112 -0.905343 4.1156 0
M  V30 1681 H 154.787 -1.27106 2.97701 0
M  V30 1682 H 153.694 0.956207 3.61673 0
M  V30 1683 H 155.027 1.23903 4.7635 0
M  V30 1684 N 156.679 -1.44442 0.630414 0
M  V30 1685 C 157.642 -2.29107 -0.0652523 0
M  V30 1686 C 158.642 -1.41002 -0.772995 0
M  V30 1687 O 159.832 -1.62881 -0.617692 0
M  V30 1688 C 156.964 -3.22564 -1.10296 0
M  V30 1689 H 158.157 -2.92103 0.679401 0
M  V30 1690 H 155.71 -1.51343 0.390517 0
M  V30 1691 H 156.445 -2.64416 -1.87762 0
M  V30 1692 H 156.23 -3.87491 -0.59941 0
M  V30 1693 H 157.72 -3.86167 -1.5895 0
M  V30 1694 N 158.157 -0.370918 -1.53173 0
M  V30 1695 C 159.406 0.218249 -2.00516 0
M  V30 1696 C 159.719 1.49429 -1.26215 0
M  V30 1697 O 160.925 2.16239 -1.64174 0
M  V30 1698 C 159.381 0.43948 -3.57207 0
M  V30 1699 C 158.989 -0.822244 -4.4039 0
M  V30 1700 C 160.733 0.986012 -4.1289 0
M  V30 1701 C 158.64 -0.570304 -5.88644 0
M  V30 1702 H 157.57 0.0853333 -0.749156 0
M  V30 1703 H 160.221 -0.490483 -1.76823 0
M  V30 1704 H 158.603 1.20961 -3.77074 0
M  V30 1705 H 159.777 -1.59557 -4.32294 0
M  V30 1706 H 158.092 -1.29238 -3.95836 0
M  V30 1707 H 160.689 1.18991 -5.21292 0
M  V30 1708 H 161.032 1.94972 -3.6782 0
M  V30 1709 H 161.565 0.27592 -3.96842 0
M  V30 1710 H 158.304 -1.50449 -6.38001 0
M  V30 1711 H 157.824 0.164427 -5.99575 0
M  V30 1712 H 159.503 -0.19784 -6.46697 0
M  V30 1713 N 159.635 1.57281 -0.100228 0
M  V30 1714 C 160.567 2.11342 0.886972 0
M  V30 1715 C 161.58 1.05182 1.24261 0
M  V30 1716 O 162.769 1.32613 1.19483 0
M  V30 1717 C 159.869 2.5825 2.19454 0
M  V30 1718 C 159.042 3.88302 2.01346 0
M  V30 1719 C 158.101 4.21004 3.15661 0
M  V30 1720 O 157.127 4.9014 2.89398 0
M  V30 1721 N 158.329 3.76818 4.41575 0
M  V30 1722 H 161.094 2.96668 0.425216 0
M  V30 1723 H 158.655 1.61678 0.0847334 0
M  V30 1724 H 160.647 2.7717 2.94888 0
M  V30 1725 H 159.217 1.77907 2.57037 0
M  V30 1726 H 158.437 3.7848 1.10212 0
M  V30 1727 H 159.725 4.73375 1.8653 0
M  V30 1728 H 159.123 3.2102 4.65792 0
M  V30 1729 H 157.68 4.00882 5.13942 0
M  V30 1730 N 161.113 -0.173488 1.56642 0
M  V30 1731 C 162.076 -1.19859 1.95362 0
M  V30 1732 C 163.076 -1.37296 0.83704 0
M  V30 1733 O 164.266 -1.34739 1.10413 0
M  V30 1734 C 161.398 -2.56405 2.24654 0
M  V30 1735 H 162.591 -0.867062 2.87092 0
M  V30 1736 H 160.144 -0.415853 1.50666 0
M  V30 1737 H 160.879 -2.94576 1.35631 0
M  V30 1738 H 160.664 -2.45115 3.06041 0
M  V30 1739 H 162.154 -3.30287 2.5554 0
M  V30 1740 N 162.591 -1.51276 -0.441967 0
M  V30 1741 C 163.816 -1.67799 -1.21895 0
M  V30 1742 C 164.241 -0.372864 -1.84367 0
M  V30 1743 O 163.599 0.666501 -1.68604 0
M  V30 1744 C 163.647 -2.79199 -2.28211 0
M  V30 1745 O 162.751 -2.42479 -3.33583 0
M  V30 1746 H 162.092 -0.559649 -0.357336 0
M  V30 1747 H 164.622 -1.97815 -0.522522 0
M  V30 1748 H 164.632 -3.03146 -2.73069 0
M  V30 1749 H 163.307 -3.73906 -1.82118 0
M  V30 1750 H 161.884 -2.29087 -2.94234 0
M  V30 1751 N 164.069 0.697108 -1.41344 0
M  V30 1752 C 165.317 1.45426 -1.40341 0
M  V30 1753 C 165.638 1.94996 -0.0128787 0
M  V30 1754 O 164.908 1.71599 0.945027 0
M  V30 1755 H 163.488 0.539594 -0.516573 0
M  V30 1756 H 166.15 0.825201 -1.76569 0
M  V30 1757 H 165.246 2.31817 -2.08967 0
M  V30 1758 N 165.547 1.27147 0.931209 0
M  V30 1759 C 166.824 1.0401 1.65654 0
M  V30 1760 C 167.204 -0.426297 2.06751 0
M  V30 1761 O 166.552 -1.40879 1.79904 0
M  V30 1762 C 166.762 1.99834 2.86125 0
M  V30 1763 C 168.11 2.29007 3.57549 0
M  V30 1764 O 169.134 1.97779 2.96246 0
M  V30 1765 O 167.993 2.82222 4.67989 0
M  V30 1766 H 165.087 0.396239 0.725895 0
M  V30 1767 H 167.633 1.38397 0.982056 0
M  V30 1768 H 166.405 2.98744 2.52721 0
M  V30 1769 H 166.028 1.65987 3.61295 0
M  V30 1770 N 167.025 -1.13721 1.09112 0
M  V30 1771 C 168.274 -1.84275 0.82009 0
M  V30 1772 C 168.587 -1.84253 -0.656509 0
M  V30 1773 O 169.793 -2.50668 -1.04296 0
M  V30 1774 C 168.249 -3.30825 1.41714 0
M  V30 1775 C 167.857 -3.39244 2.92605 0
M  V30 1776 C 169.601 -4.06443 1.22492 0
M  V30 1777 C 167.508 -4.80047 3.45411 0
M  V30 1778 H 166.438 -0.690387 0.30312 0
M  V30 1779 H 169.089 -1.28146 1.31343 0
M  V30 1780 H 167.471 -3.86737 0.851498 0
M  V30 1781 H 168.645 -2.93344 3.55367 0
M  V30 1782 H 166.96 -2.77088 3.10823 0
M  V30 1783 H 169.557 -5.10387 1.59402 0
M  V30 1784 H 169.9 -4.15972 0.165299 0
M  V30 1785 H 170.433 -3.56852 1.75788 0
M  V30 1786 H 167.172 -4.75709 4.50978 0
M  V30 1787 H 166.692 -5.26455 2.87411 0
M  V30 1788 H 168.371 -5.48957 3.42425 0
M  V30 1789 N 168.503 -0.877838 -1.30888 0
M  V30 1790 C 169.728 -0.506629 -2.01117 0
M  V30 1791 C 170.153 0.895564 -1.65412 0
M  V30 1792 O 169.511 1.5923 -0.866922 0
M  V30 1793 C 169.559 -0.680223 -3.54126 0
M  V30 1794 O 168.663 0.277033 -4.11468 0
M  V30 1795 H 168.004 -0.200518 -0.633 0
M  V30 1796 H 170.534 -1.18342 -1.66902 0
M  V30 1797 H 170.544 -0.5765 -4.03907 0
M  V30 1798 H 169.219 -1.70261 -3.79452 0
M  V30 1799 H 167.796 0.127606 -3.72682 0
M  V30 1800 N 169.982 1.44106 -0.638065 0
M  V30 1801 C 170.915 2.27924 0.112161 0
M  V30 1802 C 171.893 1.38945 0.844574 0
M  V30 1803 O 173.077 1.68386 0.847248 0
M  V30 1804 C 170.204 3.18029 1.16512 0
M  V30 1805 C 169.25 4.23163 0.532458 0
M  V30 1806 S 170.083 5.31131 -0.682666 0
M  V30 1807 C 171.239 6.24805 0.37013 0
M  V30 1808 H 171.472 2.91205 -0.598887 0
M  V30 1809 H 169.005 1.48394 -0.426441 0
M  V30 1810 H 170.963 3.70492 1.76766 0
M  V30 1811 H 169.624 2.53955 1.8484 0
M  V30 1812 H 168.817 4.86252 1.32571 0
M  V30 1813 H 168.419 3.74 0.00437644 0
M  V30 1814 H 170.711 6.66042 1.24071 0
M  V30 1815 H 171.654 7.07741 -0.225349 0
M  V30 1816 H 172.062 5.60154 0.699141 0
M  V30 1817 N 171.46 0.379036 1.52974 0
M  V30 1818 C 172.709 -0.207612 2.00629 0
M  V30 1819 C 173.022 -1.48758 1.27006 0
M  V30 1820 O 174.228 -2.15365 1.65318 0
M  V30 1821 C 172.684 -0.42053 3.57435 0
M  V30 1822 C 172.292 0.845587 4.39948 0
M  V30 1823 C 174.036 -0.964102 4.13407 0
M  V30 1824 C 171.943 0.601513 5.88333 0
M  V30 1825 H 170.873 -0.0813591 0.749598 0
M  V30 1826 H 173.524 0.499853 1.76561 0
M  V30 1827 H 171.906 -1.18959 3.7771 0
M  V30 1828 H 173.08 1.61848 4.31442 0
M  V30 1829 H 171.395 1.31336 3.95145 0
M  V30 1830 H 173.992 -1.16225 5.21916 0
M  V30 1831 H 174.335 -1.93019 3.68849 0
M  V30 1832 H 174.868 -0.25487 3.96983 0
M  V30 1833 H 171.607 1.53831 6.37194 0
M  V30 1834 H 171.127 -0.132628 5.99653 0
M  V30 1835 H 172.806 0.232134 6.46583 0
M  V30 1836 N 172.938 -1.57226 0.108567 0
M  V30 1837 C 174.186 -1.94448 -0.550853 0
M  V30 1838 C 174.507 -0.992074 -1.67878 0
M  V30 1839 O 173.777 -0.0465 -1.95845 0
M  V30 1840 H 172.357 -0.717897 -0.206479 0
M  V30 1841 H 175.019 -1.94112 0.175062 0
M  V30 1842 H 174.115 -2.97218 -0.952259 0
M  V30 1843 N 174.416 0.165178 -1.56732 0
M  V30 1844 C 175.348 1.22911 -1.93457 0
M  V30 1845 C 176.361 1.40152 -0.828333 0
M  V30 1846 O 177.55 1.40046 -1.10677 0
M  V30 1847 C 174.65 2.59686 -2.17753 0
M  V30 1848 C 173.823 2.63663 -3.48999 0
M  V30 1849 C 172.882 3.81845 -3.62051 0
M  V30 1850 O 171.908 3.67559 -4.34613 0
M  V30 1851 N 173.11 4.98557 -2.97357 0
M  V30 1852 H 175.875 0.917118 -2.85323 0
M  V30 1853 H 173.436 0.354895 -1.57962 0
M  V30 1854 H 175.428 3.37225 -2.23743 0
M  V30 1855 H 173.998 2.83251 -1.32242 0
M  V30 1856 H 173.218 1.72173 -3.54612 0
M  V30 1857 H 174.506 2.63336 -4.35352 0
M  V30 1858 H 173.904 5.13065 -2.38287 0
M  V30 1859 H 172.461 5.73936 -3.08934 0
M  V30 1860 N 175.894 1.51508 0.433938 0
M  V30 1861 C 177.141 1.64345 1.18309 0
M  V30 1862 C 177.469 0.361315 1.91115 0
M  V30 1863 O 176.724 -0.654753 1.84422 0
M  V30 1864 C 177.023 2.79928 2.22205 0
M  V30 1865 C 176.689 4.19078 1.66387 0
M  V30 1866 C 175.351 4.56932 1.50887 0
M  V30 1867 C 177.703 5.05894 1.25381 0
M  V30 1868 C 175.031 5.79305 0.928608 0
M  V30 1869 C 177.383 6.2885 0.687823 0
M  V30 1870 C 176.047 6.65473 0.519755 0
M  V30 1871 H 175.317 0.601381 0.432923 0
M  V30 1872 H 177.964 1.85549 0.473676 0
M  V30 1873 H 176.269 2.52959 2.99197 0
M  V30 1874 H 177.966 2.87059 2.79997 0
M  V30 1875 H 174.556 3.89234 1.79428 0
M  V30 1876 H 178.74 4.77253 1.36175 0
M  V30 1877 H 173.996 6.06324 0.786186 0
M  V30 1878 H 178.17 6.95461 0.361581 0
M  V30 1879 H 175.797 7.6017 0.0679979 0
M  V30 1880 N 177.372 -0.689602 1.41712 0
M  V30 1881 C 178.62 -1.4468 1.4111 0
M  V30 1882 C 178.941 -1.94986 0.0232196 0
M  V30 1883 O 178.211 -1.72097 -0.935913 0
M  V30 1884 H 176.791 -0.536847 0.519427 0
M  V30 1885 H 179.453 -0.815825 1.77004 0
M  V30 1886 H 178.549 -2.30706 2.10193 0
M  V30 1887 N 178.85 -1.27639 -0.924453 0
M  V30 1888 C 180.096 -1.14336 -1.67497 0
M  V30 1889 C 180.429 0.309465 -1.91718 0
M  V30 1890 O 179.704 1.22608 -1.50989 0
M  V30 1891 C 179.987 -1.93096 -3.0395 0
M  V30 1892 C 179.84 -3.46381 -2.8695 0
M  V30 1893 C 181.159 -1.73798 -4.0433 0
M  V30 1894 H 178.278 -0.416728 -0.607871 0
M  V30 1895 H 180.92 -1.56832 -1.07256 0
M  V30 1896 H 179.07 -1.56982 -3.55372 0
M  V30 1897 H 180.742 -3.92343 -2.42621 0
M  V30 1898 H 178.985 -3.72557 -2.22225 0
M  V30 1899 H 179.656 -3.96735 -3.83804 0
M  V30 1900 H 182.132 -2.05293 -3.61931 0
M  V30 1901 H 181.008 -2.31294 -4.97789 0
M  V30 1902 H 181.269 -0.686725 -4.36734 0
M  V30 1903 N 180.328 1.1314 -1.09713 0
M  V30 1904 C 181.576 1.84119 -0.833338 0
M  V30 1905 C 181.897 1.84097 0.642904 0
M  V30 1906 O 181.167 1.29881 1.46655 0
M  V30 1907 H 179.747 0.681766 -0.305293 0
M  V30 1908 H 182.409 1.37038 -1.38588 0
M  V30 1909 H 181.505 2.88543 -1.18951 0
M  V30 1910 N 181.806 0.884767 1.30421 0
M  V30 1911 C 183.053 0.503105 1.96151 0
M  V30 1912 C 183.381 -0.947676 1.69851 0
M  V30 1913 O 182.636 -1.68467 0.995861 0
M  V30 1914 C 182.935 0.724318 3.49983 0
M  V30 1915 C 182.601 2.15015 3.96332 0
M  V30 1916 C 181.263 2.54005 4.08699 0
M  V30 1917 C 183.615 3.07936 4.20505 0
M  V30 1918 C 180.943 3.85128 4.42599 0
M  V30 1919 C 183.295 4.3859 4.55874 0
M  V30 1920 C 181.959 4.77474 4.66449 0
M  V30 1921 H 181.229 0.184099 0.717766 0
M  V30 1922 H 183.876 1.12058 1.55291 0
M  V30 1923 H 182.181 0.0238086 3.91793 0
M  V30 1924 H 183.878 0.408617 3.98913 0
M  V30 1925 H 180.468 1.8375 3.87213 0
M  V30 1926 H 184.652 2.79033 4.10431 0
M  V30 1927 H 179.908 4.14996 4.48986 0
M  V30 1928 H 184.082 5.10629 4.7353 0
M  V30 1929 H 181.709 5.79115 4.92473 0
M  V30 1930 N 183.284 -1.43765 0.645699 0
M  V30 1931 C 184.514 -2.05953 0.163318 0
M  V30 1932 C 184.922 -1.48432 -1.17322 0
M  V30 1933 O 184.265 -0.607295 -1.73371 0
M  V30 1934 C 184.327 -3.59499 -0.0103065 0
M  V30 1935 C 183.991 -4.39563 1.25035 0
M  V30 1936 C 184.988 -4.72108 2.17739 0
M  V30 1937 C 182.673 -4.79697 1.48983 0
M  V30 1938 C 184.667 -5.43688 3.3269 0
M  V30 1939 C 182.354 -5.51023 2.64229 0
M  V30 1940 C 183.352 -5.8294 3.55908 0
M  V30 1941 O 183.04 -6.5281 4.69142 0
M  V30 1942 H 182.772 -0.670798 0.0836986 0
M  V30 1943 H 185.326 -1.85384 0.884407 0
M  V30 1944 H 183.556 -3.78613 -0.78669 0
M  V30 1945 H 185.245 -4.03408 -0.449087 0
M  V30 1946 H 186.011 -4.41627 2.00476 0
M  V30 1947 H 181.89 -4.54266 0.785078 0
M  V30 1948 H 185.434 -5.68517 4.04269 0
M  V30 1949 H 181.331 -5.8092 2.81429 0
M  V30 1950 H 182.099 -6.71288 4.6831 0
M  V30 1951 N 184.763 -0.387143 -1.52771 0
M  V30 1952 C 185.988 0.198407 -2.06449 0
M  V30 1953 C 186.413 1.39918 -1.25716 0
M  V30 1954 O 185.771 1.79099 -0.281657 0
M  V30 1955 C 185.819 0.548893 -3.56398 0
M  V30 1956 O 184.923 1.64315 -3.78252 0
M  V30 1957 H 184.264 0.0237731 -0.663574 0
M  V30 1958 H 186.794 -0.553989 -1.96957 0
M  V30 1959 H 186.804 0.813812 -3.99801 0
M  V30 1960 H 185.479 -0.329005 -4.14597 0
M  V30 1961 H 184.056 1.37211 -3.46738 0
M  V30 1962 N 186.241 1.57166 -0.116904 0
M  V30 1963 C 187.204 2.14039 0.819742 0
M  V30 1964 C 188.204 1.07477 1.19605 0
M  V30 1965 O 189.394 1.33263 1.1219 0
M  V30 1966 C 186.526 2.67891 2.10826 0
M  V30 1967 H 187.719 2.98128 0.325511 0
M  V30 1968 H 185.272 1.55739 0.132312 0
M  V30 1969 H 186.007 1.87384 2.64685 0
M  V30 1970 H 185.792 3.45823 1.84793 0
M  V30 1971 H 187.282 3.11809 2.77785 0
M  V30 1972 N 187.719 -0.156864 1.56817 0
M  V30 1973 C 188.949 -0.885031 1.86684 0
M  V30 1974 C 189.357 -1.75696 0.701954 0
M  V30 1975 O 188.7 -1.80569 -0.337732 0
M  V30 1976 C 188.762 -1.80092 3.11138 0
M  V30 1977 C 188.426 -1.10714 4.43386 0
M  V30 1978 C 189.423 -0.465714 5.1781 0
M  V30 1979 C 187.108 -1.09959 4.90117 0
M  V30 1980 C 189.102 0.174002 6.37162 0
M  V30 1981 C 186.789 -0.456055 6.09396 0
M  V30 1982 C 187.787 0.179622 6.82764 0
M  V30 1983 O 187.475 0.812975 7.99779 0
M  V30 1984 H 187.207 -0.261813 0.623242 0
M  V30 1985 H 189.761 -0.157383 2.04796 0
M  V30 1986 H 187.991 -2.56926 2.89009 0
M  V30 1987 H 189.68 -2.40018 3.27332 0
M  V30 1988 H 190.446 -0.463427 4.82781 0
M  V30 1989 H 186.325 -1.58378 4.3294 0
M  V30 1990 H 189.869 0.670765 6.94368 0
M  V30 1991 H 185.766 -0.455975 6.43888 0
M  V30 1992 H 186.534 0.71366 8.15383 0
M  V30 1993 N 189.197 -1.51736 -0.425897 0
M  V30 1994 C 190.127 -1.76827 -1.52494 0
M  V30 1995 C 191.108 -0.618524 -1.58456 0
M  V30 1996 O 192.293 -0.862416 -1.74 0
M  V30 1997 C 189.423 -1.90374 -2.90474 0
M  V30 1998 C 188.377 -3.0588 -2.99369 0
M  V30 1999 C 187.703 -3.04625 -4.3944 0
M  V30 2000 C 189.003 -4.45644 -2.72394 0
M  V30 2001 H 190.697 -2.68855 -1.31748 0
M  V30 2002 H 188.243 -1.29372 -0.632362 0
M  V30 2003 H 190.196 -2.0651 -3.6733 0
M  V30 2004 H 188.92 -0.95004 -3.12477 0
M  V30 2005 H 187.579 -2.89467 -2.24954 0
M  V30 2006 H 187.227 -2.0701 -4.58428 0
M  V30 2007 H 186.927 -3.82195 -4.46319 0
M  V30 2008 H 188.451 -3.22869 -5.18255 0
M  V30 2009 H 189.865 -4.62348 -3.38979 0
M  V30 2010 H 188.262 -5.25006 -2.9067 0
M  V30 2011 H 189.332 -4.54893 -1.67929 0
M  V30 2012 N 190.675 0.682077 -1.42076 0
M  V30 2013 C 191.921 1.44428 -1.42367 0
M  V30 2014 C 192.254 1.94164 -0.0373056 0
M  V30 2015 O 191.529 1.70429 0.937239 0
M  V30 2016 C 191.812 2.64654 -2.44194 0
M  V30 2017 C 191.665 2.20596 -3.91991 0
M  V30 2018 C 192.984 3.66865 -2.431 0
M  V30 2019 H 190.103 0.523834 -0.518428 0
M  V30 2020 H 192.745 0.77576 -1.73442 0
M  V30 2021 H 190.895 3.2169 -2.17826 0
M  V30 2022 H 192.567 1.68783 -4.29313 0
M  V30 2023 H 190.81 1.52242 -4.06208 0
M  V30 2024 H 191.481 3.06921 -4.58807 0
M  V30 2025 H 193.957 3.19531 -2.66532 0
M  V30 2026 H 192.833 4.48577 -3.16339 0
M  V30 2027 H 193.094 4.17493 -1.45437 0
M  V30 2028 N 192.153 1.28127 0.917671 0
M  V30 2029 C 193.116 1.11744 2.00115 0
M  V30 2030 C 194.116 0.0583052 1.60694 0
M  V30 2031 O 195.306 0.303755 1.71531 0
M  V30 2032 C 192.438 0.704862 3.33533 0
M  V30 2033 H 193.631 2.07966 2.16079 0
M  V30 2034 H 191.184 1.11058 1.09981 0
M  V30 2035 H 191.919 -0.258299 3.2327 0
M  V30 2036 H 191.704 1.4699 3.63505 0
M  V30 2037 H 193.194 0.612768 4.1308 0
M  V30 2038 N 193.631 -1.12557 1.10312 0
M  V30 2039 C 194.908 -1.80363 0.756878 0
M  V30 2040 C 195.288 -1.97067 -0.756824 0
M  V30 2041 O 194.636 -1.54601 -1.68259 0
M  V30 2042 C 194.846 -3.14812 1.50647 0
M  V30 2043 C 196.194 -3.90029 1.67817 0
M  V30 2044 O 197.218 -3.24464 1.46974 0
M  V30 2045 O 196.077 -5.07652 2.02365 0
M  V30 2046 H 193.171 -0.780667 0.272926 0
M  V30 2047 H 195.717 -1.19404 1.20586 0
M  V30 2048 H 194.489 -2.97936 2.53672 0
M  V30 2049 H 194.112 -3.83478 1.05026 0
M  V30 2050 N 195.109 -0.891671 -1.2995 0
M  V30 2051 C 196.059 -0.334811 -2.25528 0
M  V30 2052 C 197.043 0.540553 -1.51548 0
M  V30 2053 O 198.235 0.383882 -1.72787 0
M  V30 2054 C 195.364 0.44374 -3.4042 0
M  V30 2055 C 194.45 -0.44609 -4.21747 0
M  V30 2056 N 194.841 -1.54963 -4.81477 0
M  V30 2057 C 193.139 -0.242415 -4.45341 0
M  V30 2058 C 193.84 -2.10015 -5.42465 0
M  V30 2059 N 192.816 -1.39423 -5.25416 0
M  V30 2060 H 196.618 -1.17792 -2.69262 0
M  V30 2061 H 194.132 -0.741822 -1.44467 0
M  V30 2062 H 196.129 0.859362 -4.07947 0
M  V30 2063 H 194.789 1.28421 -2.98225 0
M  V30 2064 H 195.8 -1.93244 -4.80497 0
M  V30 2065 H 192.477 0.560342 -4.13723 0
M  V30 2066 H 193.867 -3.02724 -5.9984 0
M  V30 2067 N 196.587 1.43421 -0.653314 0
M  V30 2068 C 197.833 2.02111 -0.166992 0
M  V30 2069 C 198.166 1.51423 1.21592 0
M  V30 2070 O 197.441 0.707389 1.8118 0
M  V30 2071 C 197.724 3.5966 -0.177948 0
M  V30 2072 C 197.577 4.20579 -1.59478 0
M  V30 2073 C 198.896 4.37413 0.4856 0
M  V30 2074 H 196.015 0.734374 -0.0621557 0
M  V30 2075 H 198.657 1.70717 -0.834016 0
M  V30 2076 H 196.807 3.86537 0.390032 0
M  V30 2077 H 198.479 4.04732 -2.21336 0
M  V30 2078 H 196.722 3.77226 -2.14204 0
M  V30 2079 H 197.393 5.29665 -1.5543 0
M  V30 2080 H 199.869 4.161 0.00234528 0
M  V30 2081 H 198.745 5.47075 0.447207 0
M  V30 2082 H 199.006 4.13672 1.55974 0
M  V30 2083 N 198.065 0.39524 1.52563 0
M  V30 2084 C 199.311 -0.185318 2.01952 0
M  V30 2085 C 199.644 -1.45964 1.28095 0
M  V30 2086 O 198.919 -1.90689 0.38315 0
M  V30 2087 C 199.202 -0.447193 3.57312 0
M  V30 2088 C 199.055 0.842828 4.41833 0
M  V30 2089 C 200.374 -1.23529 4.22408 0
M  V30 2090 H 197.493 -0.0658788 0.73405 0
M  V30 2091 H 200.135 0.525975 1.82575 0
M  V30 2092 H 198.285 -1.05312 3.73954 0
M  V30 2093 H 199.957 1.4795 4.36931 0
M  V30 2094 H 198.2 1.45686 4.08605 0
M  V30 2095 H 198.871 0.614165 5.48573 0
M  V30 2096 H 201.347 -0.722445 4.0978 0
M  V30 2097 H 200.223 -1.38727 5.3108 0
M  V30 2098 H 200.484 -2.25213 3.80436 0
M  V30 2099 N 199.544 -1.57102 0.125237 0
M  V30 2100 C 200.79 -1.95697 -0.532035 0
M  V30 2101 C 201.123 -1.009 -1.6593 0
M  V30 2102 O 200.398 -0.047347 -1.94442 0
M  V30 2103 C 200.681 -3.44181 -1.05884 0
M  V30 2104 C 200.534 -4.49752 0.0654392 0
M  V30 2105 C 201.853 -3.94655 -1.9477 0
M  V30 2106 H 198.972 -0.711571 -0.191925 0
M  V30 2107 H 201.614 -1.88923 0.20206 0
M  V30 2108 H 199.764 -3.50085 -1.68442 0
M  V30 2109 H 201.436 -4.55943 0.700982 0
M  V30 2110 H 199.679 -4.27653 0.727709 0
M  V30 2111 H 200.35 -5.50924 -0.344505 0
M  V30 2112 H 202.826 -3.91094 -1.42074 0
M  V30 2113 H 201.702 -4.99057 -2.28546 0
M  V30 2114 H 201.963 -3.35718 -2.87656 0
M  V30 2115 N 201.022 0.148545 -1.56898 0
M  V30 2116 C 202.271 0.85984 -1.82454 0
M  V30 2117 C 202.584 1.82406 -0.706229 0
M  V30 2118 O 203.79 2.57938 -0.847349 0
M  V30 2119 C 202.246 1.57967 -3.2338 0
M  V30 2120 C 201.854 0.65794 -4.43142 0
M  V30 2121 C 203.598 2.27784 -3.58211 0
M  V30 2122 C 201.505 1.3793 -5.75091 0
M  V30 2123 H 200.435 0.324834 -0.68044 0
M  V30 2124 H 203.086 0.112588 -1.83154 0
M  V30 2125 H 201.468 2.37249 -3.17063 0
M  V30 2126 H 202.642 -0.0995497 -4.60692 0
M  V30 2127 H 200.957 0.0682643 -4.16344 0
M  V30 2128 H 203.554 2.8239 -4.54048 0
M  V30 2129 H 203.897 3.04204 -2.84193 0
M  V30 2130 H 204.43 1.55421 -3.66182 0
M  V30 2131 H 201.169 0.656982 -6.52199 0
M  V30 2132 H 200.689 2.10954 -5.61479 0
M  V30 2133 H 202.368 1.92063 -6.17835 0
M  V30 2134 N 202.5 1.5196 0.417844 0
M  V30 2135 C 203.725 1.69717 1.1921 0
M  V30 2136 C 204.15 0.402148 1.83751 0
M  V30 2137 O 203.508 -0.639593 1.69643 0
M  V30 2138 C 203.556 2.82794 2.2374 0
M  V30 2139 O 202.66 2.47756 3.29683 0
M  V30 2140 H 202.001 0.565263 0.348387 0
M  V30 2141 H 204.531 1.98621 0.490985 0
M  V30 2142 H 204.541 3.07452 2.68212 0
M  V30 2143 H 203.216 3.76756 1.76146 0
M  V30 2144 H 201.793 2.33739 2.90552 0
M  V30 2145 N 203.978 -0.674533 1.42435 0
M  V30 2146 C 204.925 -1.78807 1.45934 0
M  V30 2147 C 205.895 -1.63157 0.311271 0
M  V30 2148 O 207.08 -1.83707 0.515383 0
M  V30 2149 C 204.22 -3.16839 1.36773 0
M  V30 2150 C 203.333 -3.43774 2.61617 0
M  V30 2151 C 202.468 -4.71536 2.44597 0
M  V30 2152 C 201.507 -4.91505 3.64814 0
M  V30 2153 N 200.644 -6.10508 3.46734 0
M  V30 2154 H 205.484 -1.75151 2.41093 0
M  V30 2155 H 203.021 -0.85504 1.19697 0
M  V30 2156 H 204.979 -3.96606 1.29459 0
M  V30 2157 H 203.609 -3.19619 0.452089 0
M  V30 2158 H 202.661 -2.58259 2.79297 0
M  V30 2159 H 203.973 -3.54423 3.50978 0
M  V30 2160 H 203.127 -5.59393 2.3487 0
M  V30 2161 H 201.866 -4.6317 1.52726 0
M  V30 2162 H 200.871 -4.0209 3.74972 0
M  V30 2163 H 202.096 -5.01716 4.57665 0
M  V30 2164 H 200.042 -6.03315 2.5758 0
M  V30 2165 H 199.959 -6.2202 4.29682 0
M  V30 2166 H 201.227 -7.01044 3.40819 0
M  V30 2167 N 205.456 -1.28612 -0.910864 0
M  V30 2168 C 206.404 -1.1265 -2.03501 0
M  V30 2169 C 207.398 -0.0450054 -1.6934 0
M  V30 2170 O 208.604 -0.203988 -1.7884 0
M  V30 2171 H 204.979 -0.347639 -0.666822 0
M  V30 2172 H 206.95 -2.07849 -2.14106 0
M  V30 2173 C 205.699 -0.808143 -3.38178 0
M  V30 2174 H 205.022 -1.63231 -3.6496 0
M  V30 2175 H 206.462 -0.736426 -4.17556 0
M  V30 2176 C 204.921 0.488226 -3.33344 0
M  V30 2177 O 205.451 1.51766 -3.71927 0
M  V30 2178 N 203.657 0.490009 -2.86439 0
M  V30 2179 H 203.204 -0.348161 -2.55236 0
M  V30 2180 H 203.162 1.35741 -2.83587 0
M  V30 2181 N 206.934 1.1197 -1.10907 0
M  V30 2182 C 207.882 2.19927 -0.757303 0
M  V30 2183 C 208.876 1.67564 0.248747 0
M  V30 2184 O 210.082 1.79672 0.108605 0
M  V30 2185 H 206.457 0.716925 -0.226987 0
M  V30 2186 H 208.428 2.46847 -1.67658 0
M  V30 2187 C 207.177 3.47061 -0.210671 0
M  V30 2188 H 206.5 3.87703 -0.976049 0
M  V30 2189 H 207.94 4.24 -0.0026584 0
M  V30 2190 C 206.399 3.19864 1.05777 0
M  V30 2191 O 206.929 3.40049 2.13845 0
M  V30 2192 N 205.135 2.73636 0.978349 0
M  V30 2193 H 204.682 2.5741 0.0988246 0
M  V30 2194 H 204.64 2.55815 1.82773 0
M  V30 2195 N 208.412 0.89855 1.29475 0
M  V30 2196 C 209.689 0.443416 1.90508 0
M  V30 2197 C 210.069 -1.07685 1.81569 0
M  V30 2198 O 209.417 -1.9182 1.24166 0
M  V30 2199 C 209.627 0.956708 3.35631 0
M  V30 2200 C 210.975 0.999728 4.12663 0
M  V30 2201 O 211.999 0.904299 3.4453 0
M  V30 2202 O 210.858 1.14289 5.34416 0
M  V30 2203 H 207.952 0.138025 0.815401 0
M  V30 2204 H 210.498 0.98834 1.37949 0
M  V30 2205 H 209.27 2.00067 3.36287 0
M  V30 2206 H 208.893 0.391728 3.95666 0
M  V30 2207 N 209.89 -1.43072 0.660911 0
M  V30 2208 C 211.167 -1.95307 0.107017 0
M  V30 2209 C 211.547 -1.60192 -1.37484 0
M  V30 2210 O 210.895 -0.890949 -2.10415 0
M  V30 2211 C 211.105 -3.47124 0.361402 0
M  V30 2212 C 212.453 -4.23738 0.270455 0
M  V30 2213 O 213.477 -3.54981 0.294382 0
M  V30 2214 O 212.336 -5.46131 0.200737 0
M  V30 2215 H 209.43 -0.826984 -0.00517729 0
M  V30 2216 H 211.976 -1.52972 0.734681 0
M  V30 2217 H 210.748 -3.65837 1.38848 0
M  V30 2218 H 210.371 -3.96475 -0.298953 0
M  V30 2219 N 211.368 -0.403325 -1.52352 0
M  V30 2220 C 212.278 0.432009 -2.30588 0
M  V30 2221 C 213.294 1.05884 -1.38075 0
M  V30 2222 O 214.47 1.06161 -1.71148 0
M  V30 2223 C 211.535 1.53669 -3.10784 0
M  V30 2224 C 210.596 0.933525 -4.19027 0
M  V30 2225 C 209.829 1.98557 -4.9539 0
M  V30 2226 O 210.052 3.20283 -4.71991 0
M  V30 2227 O 208.986 1.59504 -5.80381 0
M  V30 2228 H 212.812 -0.205739 -3.03002 0
M  V30 2229 H 210.397 -0.166675 -1.48467 0
M  V30 2230 H 212.279 2.17814 -3.60742 0
M  V30 2231 H 210.954 2.15915 -2.41169 0
M  V30 2232 H 209.861 0.254954 -3.7323 0
M  V30 2233 H 211.194 0.35508 -4.90918 0
M  V30 2234 N 212.846 1.57033 -0.133567 0
M  V30 2235 C 213.778 2.13176 0.841944 0
M  V30 2236 C 214.791 1.07794 1.22001 0
M  V30 2237 O 215.98 1.35117 1.16643 0
M  V30 2238 C 213.08 2.62847 2.13926 0
M  V30 2239 C 212.253 3.92486 1.93064 0
M  V30 2240 C 211.312 4.27605 3.0666 0
M  V30 2241 O 210.338 4.96168 2.78937 0
M  V30 2242 N 211.54 3.861 4.33483 0
M  V30 2243 H 214.305 2.97503 0.362192 0
M  V30 2244 H 211.866 1.61821 0.05042 0
M  V30 2245 H 213.858 2.83363 2.88942 0
M  V30 2246 H 212.428 1.83319 2.53205 0
M  V30 2247 H 211.648 3.80732 1.02159 0
M  V30 2248 H 212.936 4.77225 1.76447 0
M  V30 2249 H 212.334 3.30828 4.58878 0
M  V30 2250 H 210.891 4.11694 5.05323 0
M  V30 2251 N 214.325 -0.140222 1.56975 0
M  V30 2252 C 215.555 -0.865181 1.87612 0
M  V30 2253 C 215.963 -1.74942 0.72055 0
M  V30 2254 O 215.306 -1.80917 -0.318561 0
M  V30 2255 C 215.368 -1.76782 3.13031 0
M  V30 2256 C 215.032 -1.06005 4.44536 0
M  V30 2257 C 216.029 -0.410768 5.18275 0
M  V30 2258 C 213.714 -1.04754 4.91255 0
M  V30 2259 C 215.708 0.241572 6.36942 0
M  V30 2260 C 213.395 -0.391394 6.09845 0
M  V30 2261 C 214.393 0.252029 6.82535 0
M  V30 2262 O 214.081 0.897757 7.98871 0
M  V30 2263 H 213.813 -0.255188 0.625983 0
M  V30 2264 H 216.367 -0.135653 2.04952 0
M  V30 2265 H 214.597 -2.53846 2.91718 0
M  V30 2266 H 216.286 -2.36533 3.29859 0
M  V30 2267 H 217.052 -0.412195 4.83245 0
M  V30 2268 H 212.931 -1.53777 4.34596 0
M  V30 2269 H 216.475 0.744375 6.93617 0
M  V30 2270 H 212.372 -0.387656 6.44335 0
M  V30 2271 H 213.14 0.800102 8.1458 0
M  V30 2272 N 215.803 -1.52179 -0.40978 0
M  V30 2273 C 217.049 -1.66453 -1.15851 0
M  V30 2274 C 217.382 -0.392972 -1.90182 0
M  V30 2275 O 216.657 0.608579 -1.84734 0
M  V30 2276 C 216.94 -2.88612 -2.15349 0
M  V30 2277 C 216.793 -4.25815 -1.44918 0
M  V30 2278 C 218.112 -3.06294 -3.16026 0
M  V30 2279 H 215.231 -0.60575 -0.419805 0
M  V30 2280 H 217.873 -1.84732 -0.444314 0
M  V30 2281 H 216.023 -2.73158 -2.76255 0
M  V30 2282 H 217.695 -4.52995 -0.871365 0
M  V30 2283 H 215.938 -4.27247 -0.751159 0
M  V30 2284 H 216.609 -5.07337 -2.17516 0
M  V30 2285 H 219.085 -3.20641 -2.65195 0
M  V30 2286 H 217.961 -3.93283 -3.8291 0
M  V30 2287 H 218.222 -2.19579 -3.83715 0
M  V30 2288 N 217.281 0.66697 -1.42791 0
M  V30 2289 C 218.527 1.42754 -1.44889 0
M  V30 2290 C 218.882 1.92283 -0.0669755 0
M  V30 2291 O 218.175 1.68494 0.912154 0
M  V30 2292 C 218.369 2.6349 -2.4147 0
M  V30 2293 C 218.198 2.25776 -3.88915 0
M  V30 2294 C 216.968 2.1476 -4.57391 0
M  V30 2295 C 219.166 1.86927 -4.79127 0
M  V30 2296 N 217.148 1.70232 -5.89826 0
M  V30 2297 C 218.519 1.53378 -6.00729 0
M  V30 2298 C 220.574 1.73989 -4.66511 0
M  V30 2299 C 219.277 1.08187 -7.11117 0
M  V30 2300 C 221.303 1.30203 -5.76889 0
M  V30 2301 C 220.665 0.975818 -6.97608 0
M  V30 2302 H 216.764 0.518559 -0.585338 0
M  V30 2303 H 219.348 0.768906 -1.78874 0
M  V30 2304 H 217.519 3.27033 -2.09533 0
M  V30 2305 H 219.251 3.30123 -2.34096 0
M  V30 2306 H 216.006 2.3408 -4.11708 0
M  V30 2307 H 216.43 1.50369 -6.6009 0
M  V30 2308 H 221.072 1.97853 -3.7365 0
M  V30 2309 H 218.79 0.830701 -8.03819 0
M  V30 2310 H 222.376 1.20701 -5.69142 0
M  V30 2311 H 221.256 0.642157 -7.81566 0
M  V30 2312 N 218.759 1.29093 0.90403 0
M  V30 2313 C 219.669 1.15727 2.0407 0
M  V30 2314 C 220.685 0.0815308 1.73809 0
M  V30 2315 O 221.861 0.292749 1.99261 0
M  V30 2316 C 218.926 0.830424 3.36608 0
M  V30 2317 C 217.987 1.98955 3.80415 0
M  V30 2318 C 217.22 1.6782 5.06628 0
M  V30 2319 O 217.443 0.597105 5.67266 0
M  V30 2320 O 216.377 2.52486 5.46383 0
M  V30 2321 H 220.203 2.11171 2.18267 0
M  V30 2322 H 217.788 1.08504 1.027 0
M  V30 2323 H 219.67 0.662521 4.16159 0
M  V30 2324 H 218.345 -0.0942678 3.23563 0
M  V30 2325 H 217.252 2.21267 3.01648 0
M  V30 2326 H 218.585 2.89529 3.98037 0
M  V30 2327 N 220.237 -1.11381 1.11499 0
M  V30 2328 C 221.462 -1.87475 0.887019 0
M  V30 2329 C 221.887 -1.79639 -0.557796 0
M  V30 2330 O 221.245 -1.15924 -1.39396 0
M  V30 2331 C 221.293 -3.34213 1.35403 0
M  V30 2332 O 220.397 -4.0903 0.526146 0
M  V30 2333 H 219.738 -0.582099 0.319463 0
M  V30 2334 H 222.268 -1.40785 1.48461 0
M  V30 2335 H 222.278 -3.8506 1.34881 0
M  V30 2336 H 220.953 -3.39232 2.40612 0
M  V30 2337 H 219.53 -3.68082 0.597522 0
M  V30 2338 N 221.715 -0.905404 -1.28997 0
M  V30 2339 C 222.678 -0.392253 -2.25819 0
M  V30 2340 C 223.678 0.476753 -1.5357 0
M  V30 2341 O 224.868 0.280994 -1.71919 0
M  V30 2342 C 222 0.438588 -3.38067 0
M  V30 2343 H 223.193 -1.24743 -2.72725 0
M  V30 2344 H 220.746 -0.684051 -1.40536 0
M  V30 2345 H 221.481 1.31352 -2.96508 0
M  V30 2346 H 221.266 -0.184167 -3.91667 0
M  V30 2347 H 222.756 0.78873 -4.10084 0
M  V30 2348 N 223.193 1.4272 -0.668489 0
M  V30 2349 C 224.156 2.292 0.00448567 0
M  V30 2350 C 225.156 1.43001 0.735339 0
M  V30 2351 O 226.346 1.64461 0.57429 0
M  V30 2352 C 223.478 3.25375 1.01705 0
M  V30 2353 H 224.671 2.90199 -0.756608 0
M  V30 2354 H 222.224 1.50254 -0.430506 0
M  V30 2355 H 222.959 2.69301 1.80686 0
M  V30 2356 H 222.744 3.88944 0.496463 0
M  V30 2357 H 224.234 3.90245 1.48655 0
M  V30 2358 N 224.671 0.411399 1.52136 0
M  V30 2359 C 225.919 -0.163322 2.01439 0
M  V30 2360 C 226.24 -1.45453 1.29879 0
M  V30 2361 O 225.51 -1.91225 0.4254 0
M  V30 2362 H 224.09 -0.0633447 0.744309 0
M  V30 2363 H 226.752 0.548161 1.87033 0
M  V30 2364 H 225.848 -0.357817 3.10042 0
M  V30 2365 N 226.149 -1.5696 0.141893 0
M  V30 2366 C 227.397 -1.95573 -0.509484 0
M  V30 2367 C 227.718 -1.02746 -1.65736 0
M  V30 2368 O 226.988 -0.0880311 -1.95702 0
M  V30 2369 H 225.568 -0.722115 -0.191205 0
M  V30 2370 H 228.23 -1.93697 0.216196 0
M  V30 2371 H 227.326 -2.99171 -0.889 0
M  V30 2372 N 227.627 0.131896 -1.57047 0
M  V30 2373 C 228.852 0.860418 -1.8871 0
M  V30 2374 C 229.277 1.73251 -0.73251 0
M  V30 2375 O 228.635 1.785 0.317429 0
M  V30 2376 C 228.683 1.68047 -3.19049 0
M  V30 2377 O 227.787 2.7862 -3.04047 0
M  V30 2378 H 227.128 0.238743 -0.619595 0
M  V30 2379 H 229.658 0.118169 -2.04258 0
M  V30 2380 H 229.668 2.07238 -3.51449 0
M  V30 2381 H 228.343 1.04018 -4.02682 0
M  V30 2382 H 226.92 2.42726 -2.83088 0
M  V30 2383 N 229.106 1.52395 0.401703 0
M  V30 2384 C 230.353 1.66817 1.14796 0
M  V30 2385 C 230.681 0.401772 1.90305 0
M  V30 2386 O 229.936 -0.615487 1.85769 0
M  V30 2387 C 230.235 2.84578 2.16217 0
M  V30 2388 C 229.901 4.22513 1.5746 0
M  V30 2389 C 228.563 4.60029 1.41161 0
M  V30 2390 C 230.915 5.0844 1.14622 0
M  V30 2391 C 228.243 5.81144 0.80552 0
M  V30 2392 C 230.595 6.30167 0.55428 0
M  V30 2393 C 229.259 6.66426 0.378482 0
M  V30 2394 H 228.529 0.610428 0.420069 0
M  V30 2395 H 231.176 1.86512 0.434212 0
M  V30 2396 H 229.481 2.59248 2.93764 0
M  V30 2397 H 231.178 2.92933 2.73845 0
M  V30 2398 H 227.768 3.92953 1.71132 0
M  V30 2399 H 231.952 4.80034 1.26021 0
M  V30 2400 H 227.208 6.07855 0.657399 0
M  V30 2401 H 231.382 6.96071 0.213983 0
M  V30 2402 H 229.009 7.60143 -0.0932606 0
M  V30 2403 N 230.584 -0.659388 1.43143 0
M  V30 2404 C 231.812 -1.44723 1.47861 0
M  V30 2405 C 232.227 -1.88563 0.0945886 0
M  V30 2406 O 231.584 -1.59108 -0.893915 0
M  V30 2407 C 231.635 -2.68627 2.41913 0
M  V30 2408 O 231.356 -2.26623 3.74932 0
M  V30 2409 C 232.857 -3.62045 2.55809 0
M  V30 2410 H 230.077 -0.444801 0.502387 0
M  V30 2411 H 232.621 -0.808916 1.87821 0
M  V30 2412 H 230.776 -3.28613 2.05164 0
M  V30 2413 H 231.19 -3.06745 4.2545 0
M  V30 2414 H 232.664 -4.45666 3.25708 0
M  V30 2415 H 233.141 -4.08981 1.60099 0
M  V30 2416 H 233.747 -3.07944 2.93344 0
M  V30 2417 N 232.062 -1.29571 -0.897171 0
M  V30 2418 C 233.308 -1.17863 -1.65034 0
M  V30 2419 C 233.641 0.268729 -1.92332 0
M  V30 2420 O 232.916 1.19378 -1.53555 0
M  V30 2421 C 233.199 -1.995 -2.99786 0
M  V30 2422 C 233.052 -3.5239 -2.79538 0
M  V30 2423 C 234.371 -1.82335 -4.00552 0
M  V30 2424 H 231.49 -0.429528 -0.598895 0
M  V30 2425 H 234.132 -1.59072 -1.03905 0
M  V30 2426 H 232.282 -1.64485 -3.51962 0
M  V30 2427 H 233.954 -3.97401 -2.34244 0
M  V30 2428 H 232.197 -3.77187 -2.14273 0
M  V30 2429 H 232.868 -4.04787 -3.75302 0
M  V30 2430 H 235.344 -2.12924 -3.57495 0
M  V30 2431 H 234.22 -2.41801 -4.92771 0
M  V30 2432 H 234.481 -0.779209 -4.35179 0
M  V30 2433 N 233.54 1.10788 -1.12088 0
M  V30 2434 C 234.768 1.86461 -0.896651 0
M  V30 2435 C 235.183 1.80492 0.553912 0
M  V30 2436 O 234.54 1.19102 1.38278 0
M  V30 2437 C 234.591 3.35006 -1.35843 0
M  V30 2438 O 234.312 3.40866 -2.75213 0
M  V30 2439 C 235.813 4.27565 -1.1706 0
M  V30 2440 H 233.033 0.589425 -0.320654 0
M  V30 2441 H 235.577 1.40076 -1.48993 0
M  V30 2442 H 233.732 3.7887 -0.808458 0
M  V30 2443 H 234.146 4.33411 -2.9539 0
M  V30 2444 H 235.62 5.30007 -1.54263 0
M  V30 2445 H 236.097 4.3906 -0.110814 0
M  V30 2446 H 236.703 3.89501 -1.70789 0
M  V30 2447 N 235.018 0.912232 1.28515 0
M  V30 2448 C 235.965 0.397954 2.27343 0
M  V30 2449 C 236.935 -0.526766 1.57526 0
M  V30 2450 O 238.12 -0.449292 1.85435 0
M  V30 2451 C 235.26 -0.357263 3.43246 0
M  V30 2452 C 234.373 0.599788 4.27816 0
M  V30 2453 C 233.508 -0.173725 5.30916 0
M  V30 2454 C 232.547 0.777039 6.07148 0
M  V30 2455 N 231.684 0.0371398 7.0209 0
M  V30 2456 H 236.524 1.24577 2.70711 0
M  V30 2457 H 234.061 0.625612 1.33133 0
M  V30 2458 H 236.019 -0.8113 4.09236 0
M  V30 2459 H 234.649 -1.16943 3.00872 0
M  V30 2460 H 233.701 1.17235 3.61884 0
M  V30 2461 H 235.013 1.32704 4.80823 0
M  V30 2462 H 234.167 -0.688394 6.02782 0
M  V30 2463 H 232.906 -0.934041 4.78672 0
M  V30 2464 H 231.911 1.3031 5.34134 0
M  V30 2465 H 233.136 1.53689 6.61481 0
M  V30 2466 H 231.082 -0.705213 6.52198 0
M  V30 2467 H 230.999 0.704249 7.52713 0
M  V30 2468 H 232.267 -0.457383 7.78157 0
M  V30 2469 N 236.496 -1.42363 0.676048 0
M  V30 2470 C 237.773 -1.95183 0.127726 0
M  V30 2471 C 238.153 -1.61641 -1.35777 0
M  V30 2472 O 237.501 -0.913216 -2.09458 0
M  V30 2473 C 237.711 -3.46721 0.398199 0
M  V30 2474 C 239.059 -4.23427 0.315383 0
M  V30 2475 O 240.083 -3.54649 0.332016 0
M  V30 2476 O 238.942 -5.45888 0.25865 0
M  V30 2477 H 236.036 -0.826992 0.00359427 0
M  V30 2478 H 238.582 -1.52184 0.750864 0
M  V30 2479 H 237.354 -3.64344 1.4272 0
M  V30 2480 H 236.977 -3.96769 -0.256885 0
M  V30 2481 N 237.974 -0.419461 -1.51915 0
M  V30 2482 C 238.884 0.407528 -2.31033 0
M  V30 2483 C 239.9 1.04413 -1.3919 0
M  V30 2484 O 241.076 1.0434 -1.72265 0
M  V30 2485 C 238.141 1.50365 -3.12396 0
M  V30 2486 C 237.202 0.889029 -4.19994 0
M  V30 2487 C 236.435 1.93291 -4.97468 0
M  V30 2488 O 236.658 3.15259 -4.75361 0
M  V30 2489 O 235.592 1.53339 -5.8204 0
M  V30 2490 H 239.418 -0.237865 -3.02767 0
M  V30 2491 H 237.003 -0.182413 -1.48282 0
M  V30 2492 H 238.885 2.13975 -3.63032 0
M  V30 2493 H 237.56 2.13345 -2.43445 0
M  V30 2494 H 236.467 0.215353 -3.7348 0
M  V30 2495 H 237.8 0.302991 -4.91267 0
M  V30 2496 N 239.452 1.56882 -0.150215 0
M  V30 2497 C 240.68 2.00593 0.506948 0
M  V30 2498 C 241.095 1.03033 1.58208 0
M  V30 2499 O 240.452 0.0278396 1.82479 0
M  V30 2500 C 240.503 3.44209 1.10465 0
M  V30 2501 O 240.224 4.3804 0.0724636 0
M  V30 2502 C 241.725 4.03214 1.84211 0
M  V30 2503 H 238.945 0.65795 0.13169 0
M  V30 2504 H 241.489 2.03018 -0.245743 0
M  V30 2505 H 239.644 3.42625 1.80795 0
M  V30 2506 H 240.058 5.22007 0.510793 0
M  V30 2507 H 241.532 5.0569 2.21318 0
M  V30 2508 H 242.009 3.44107 2.72923 0
M  V30 2509 H 242.615 4.08437 1.18572 0
M  V30 2510 N 240.93 -0.123565 1.57115 0
M  V30 2511 C 241.878 -1.17082 2.00984 0
M  V30 2512 C 242.872 -1.43136 0.906009 0
M  V30 2513 O 244.078 -1.43152 1.09121 0
M  V30 2514 H 240.453 -0.394653 0.64012 0
M  V30 2515 H 242.424 -0.774292 2.88179 0
M  V30 2516 C 241.173 -2.49057 2.42623 0
M  V30 2517 H 240.496 -2.29846 3.27125 0
M  V30 2518 H 241.936 -3.20906 2.7712 0
M  V30 2519 C 240.395 -3.11305 1.28805 0
M  V30 2520 O 240.925 -3.97171 0.60153 0
M  V30 2521 N 239.131 -2.71111 1.04628 0
M  V30 2522 H 238.678 -2.01382 1.60634 0
M  V30 2523 H 238.636 -3.1309 0.286685 0
M  V30 2524 N 242.408 -1.52605 -0.393616 0
M  V30 2525 C 243.318 -1.79971 -1.50492 0
M  V30 2526 C 244.334 -0.686181 -1.59899 0
M  V30 2527 O 245.51 -0.973274 -1.76322 0
M  V30 2528 C 242.575 -1.95867 -2.86072 0
M  V30 2529 C 241.636 -3.19781 -2.86424 0
M  V30 2530 C 240.869 -3.34909 -4.15538 0
M  V30 2531 O 241.092 -2.54948 -5.10253 0
M  V30 2532 O 240.026 -4.28141 -4.23059 0
M  V30 2533 H 243.852 -2.74328 -1.30299 0
M  V30 2534 H 241.437 -1.3764 -0.581005 0
M  V30 2535 H 243.319 -2.08056 -3.66457 0
M  V30 2536 H 241.994 -1.04699 -3.063 0
M  V30 2537 H 240.901 -3.13038 -2.04837 0
M  V30 2538 H 242.234 -4.1078 -2.71147 0
M  V30 2539 N 243.887 0.651787 -1.4349 0
M  V30 2540 C 244.834 1.76462 -1.4876 0
M  V30 2541 C 245.804 1.62641 -0.337189 0
M  V30 2542 O 246.989 1.82864 -0.544544 0
M  V30 2543 C 244.129 3.14623 -1.41796 0
M  V30 2544 C 243.242 3.39568 -2.67053 0
M  V30 2545 C 242.377 4.67585 -2.52068 0
M  V30 2546 C 241.416 4.85639 -3.72587 0
M  V30 2547 N 240.553 6.04915 -3.56402 0
M  V30 2548 H 245.393 1.71293 -2.43849 0
M  V30 2549 H 242.93 0.835889 -1.21043 0
M  V30 2550 H 244.888 3.94496 -1.35753 0
M  V30 2551 H 243.518 3.18859 -0.50288 0
M  V30 2552 H 242.57 2.53783 -2.8337 0
M  V30 2553 H 243.882 3.48795 -3.56572 0
M  V30 2554 H 243.036 5.55586 -2.4374 0
M  V30 2555 H 241.775 4.60681 -1.60075 0
M  V30 2556 H 240.78 3.96073 -3.81321 0
M  V30 2557 H 242.005 4.94372 -4.65589 0
M  V30 2558 H 239.951 5.9914 -2.67146 0
M  V30 2559 H 239.868 6.15106 -4.39524 0
M  V30 2560 H 241.136 6.95533 -3.51929 0
M  V30 2561 N 245.365 1.30045 0.890287 0
M  V30 2562 C 246.295 1.18541 2.01172 0
M  V30 2563 C 247.276 0.0773356 1.69924 0
M  V30 2564 O 248.461 0.25845 1.92473 0
M  V30 2565 C 245.591 0.870941 3.36202 0
M  V30 2566 C 244.545 1.93637 3.81692 0
M  V30 2567 C 243.871 1.475 5.13953 0
M  V30 2568 C 245.171 3.34666 4.00994 0
M  V30 2569 H 246.865 2.12359 2.11054 0
M  V30 2570 H 244.411 1.02238 1.01407 0
M  V30 2571 H 246.364 0.777141 4.14172 0
M  V30 2572 H 245.088 -0.102926 3.26438 0
M  V30 2573 H 243.747 2.01972 3.05946 0
M  V30 2574 H 243.395 0.489551 5.00612 0
M  V30 2575 H 243.095 2.1876 5.4536 0
M  V30 2576 H 244.619 1.39489 5.94454 0
M  V30 2577 H 246.033 3.2912 4.69417 0
M  V30 2578 H 244.43 4.03966 4.43769 0
M  V30 2579 H 245.5 3.76949 3.05021 0
M  V30 2580 N 246.843 -1.10192 1.12674 0
M  V30 2581 C 248.091 -1.81845 0.881861 0
M  V30 2582 C 248.412 -1.85737 -0.593867 0
M  V30 2583 O 247.682 -1.33724 -1.4316 0
M  V30 2584 H 246.262 -0.673432 0.323261 0
M  V30 2585 H 248.924 -1.33316 1.42172 0
M  V30 2586 H 248.02 -2.85288 1.2656 0
M  V30 2587 N 248.321 -0.919034 -1.28029 0
M  V30 2588 C 249.737 -0.617972 -1.4715 0
M  V30 2589 C 249.937 0.835242 -1.83374 0
M  V30 2590 O 248.993 1.61388 -1.94191 0
M  V30 2591 C 250.306 -1.56041 -2.57044 0
M  V30 2592 C 251.854 -1.56769 -2.7091 0
M  V30 2593 C 252.329 -2.49688 -3.83953 0
M  V30 2594 N 253.82 -2.47845 -3.91314 0
M  V30 2595 C 254.555 -3.16437 -4.78179 0
M  V30 2596 N 254.051 -3.94376 -5.69596 0
M  V30 2597 N 255.844 -3.05498 -4.71834 0
M  V30 2598 H 247.995 -1.85866 -1.02798 0
M  V30 2599 H 250.258 -0.797506 -0.512531 0
M  V30 2600 H 249.964 -2.59671 -2.372 0
M  V30 2601 H 249.838 -1.29551 -3.54255 0
M  V30 2602 H 252.225 -0.538745 -2.90141 0
M  V30 2603 H 252.306 -1.87305 -1.74214 0
M  V30 2604 H 251.95 -3.52688 -3.65477 0
M  V30 2605 H 251.88 -2.16453 -4.80058 0
M  V30 2606 H 254.371 -1.91234 -3.25941 0
M  V30 2607 H 254.684 -4.43721 -6.32718 0
M  V30 2608 H 253.029 -3.98481 -5.69419 0
M  V30 2609 H 256.22 -2.44108 -3.99411 0
M  V30 2610 H 256.393 -3.59225 -5.39316 0
M  V30 2611 N 249.799 1.42003 -0.683588 0
M  V30 2612 C 251.047 2.01015 -0.209101 0
M  V30 2613 C 251.368 1.54365 1.19149 0
M  V30 2614 O 250.638 0.769083 1.80172 0
M  V30 2615 H 249.218 0.743294 -0.074315 0
M  V30 2616 H 251.88 1.73798 -0.882066 0
M  V30 2617 H 250.976 3.11343 -0.2172 0
M  V30 2618 N 251.277 0.427512 1.51691 0
M  V30 2619 C 252.505 -0.141191 2.06418 0
M  V30 2620 C 252.92 -1.37303 1.29589 0
M  V30 2621 O 252.277 -1.79059 0.352732 0
M  V30 2622 C 252.328 -0.473266 3.58389 0
M  V30 2623 O 252.049 0.709673 4.32314 0
M  V30 2624 C 253.55 -1.09371 4.29596 0
M  V30 2625 H 250.77 -0.0122747 0.670888 0
M  V30 2626 H 253.314 0.603764 1.95384 0
M  V30 2627 H 251.469 -1.16812 3.69369 0
M  V30 2628 H 251.883 0.42807 5.2275 0
M  V30 2629 H 253.357 -1.27613 5.37046 0
M  V30 2630 H 253.834 -2.072 3.87253 0
M  V30 2631 H 254.44 -0.43853 4.23033 0
M  V30 2632 N 252.755 -1.56801 0.158532 0
M  V30 2633 C 253.702 -2.17337 -0.776729 0
M  V30 2634 C 254.672 -1.1096 -1.23601 0
M  V30 2635 O 255.857 -1.39054 -1.30647 0
M  V30 2636 C 252.997 -2.80822 -2.00582 0
M  V30 2637 C 252.11 -4.01624 -1.59129 0
M  V30 2638 C 251.245 -4.53072 -2.77306 0
M  V30 2639 C 250.284 -5.66314 -2.32282 0
M  V30 2640 N 249.421 -6.12329 -3.43508 0
M  V30 2641 H 254.261 -2.96918 -0.253701 0
M  V30 2642 H 251.798 -1.46661 -0.113504 0
M  V30 2643 H 253.756 -3.15779 -2.72652 0
M  V30 2644 H 252.386 -2.03866 -2.50277 0
M  V30 2645 H 251.438 -3.72571 -0.767806 0
M  V30 2646 H 252.75 -4.83633 -1.2207 0
M  V30 2647 H 251.904 -4.90145 -3.57551 0
M  V30 2648 H 250.643 -3.70095 -3.17617 0
M  V30 2649 H 249.648 -5.28806 -1.5048 0
M  V30 2650 H 250.873 -6.51085 -1.93043 0
M  V30 2651 H 248.819 -5.32284 -3.83418 0
M  V30 2652 H 248.736 -6.89293 -3.105 0
M  V30 2653 H 250.004 -6.5405 -4.24075 0
M  V30 2654 N 254.233 0.115231 -1.57178 0
M  V30 2655 C 255.482 0.820945 -1.84237 0
M  V30 2656 C 255.795 1.80866 -0.744761 0
M  V30 2657 O 257.001 2.56083 -0.901871 0
M  V30 2658 C 255.457 1.51072 -3.26658 0
M  V30 2659 C 255.065 0.563795 -4.44438 0
M  V30 2660 C 256.809 2.20134 -3.62962 0
M  V30 2661 C 254.716 1.25701 -5.77887 0
M  V30 2662 H 253.646 0.310328 -0.687177 0
M  V30 2663 H 256.297 0.0737134 -1.83352 0
M  V30 2664 H 254.679 2.30471 -3.22024 0
M  V30 2665 H 255.853 -0.197247 -4.60378 0
M  V30 2666 H 254.168 -0.0200638 -4.16395 0
M  V30 2667 H 256.765 2.72696 -4.59936 0
M  V30 2668 H 257.108 2.98107 -2.90582 0
M  V30 2669 H 257.641 1.47619 -3.69396 0
M  V30 2670 H 254.38 0.518493 -6.53446 0
M  V30 2671 H 253.9 1.98997 -5.65827 0
M  V30 2672 H 255.579 1.78915 -6.2177 0
M  V30 2673 N 255.711 1.52812 0.385517 0
M  V30 2674 C 256.96 1.67249 1.12741 0
M  V30 2675 C 257.273 0.4205 1.91027 0
M  V30 2676 O 258.479 0.445064 2.67827 0
M  V30 2677 C 256.935 2.95583 2.05326 0
M  V30 2678 C 256.543 4.27974 1.32447 0
M  V30 2679 C 258.287 3.19386 2.7963 0
M  V30 2680 C 256.194 5.47412 2.23818 0
M  V30 2681 H 255.124 0.6231 0.424573 0
M  V30 2682 H 257.775 1.79309 0.389924 0
M  V30 2683 H 256.157 2.77277 2.82725 0
M  V30 2684 H 257.331 4.56844 0.602495 0
M  V30 2685 H 255.646 4.10459 0.700885 0
M  V30 2686 H 258.243 4.05801 3.48181 0
M  V30 2687 H 258.586 2.34604 3.43899 0
M  V30 2688 H 259.119 3.38274 2.09322 0
M  V30 2689 H 255.858 6.34612 1.64157 0
M  V30 2690 H 255.378 5.22849 2.93921 0
M  V30 2691 H 257.057 5.81423 2.83824 0
M  V30 2692 N 257.189 -0.644168 1.43834 0
M  V30 2693 C 258.119 -1.76814 1.52509 0
M  V30 2694 C 259.1 -1.65823 0.379052 0
M  V30 2695 O 260.285 -1.84781 0.597466 0
M  V30 2696 C 257.415 -3.15288 1.4564 0
M  V30 2697 C 256.369 -3.41053 2.58586 0
M  V30 2698 C 255.695 -4.79421 2.36769 0
M  V30 2699 C 256.995 -3.34902 4.00797 0
M  V30 2700 H 258.689 -1.69812 2.46586 0
M  V30 2701 H 256.235 -0.815542 1.1868 0
M  V30 2702 H 258.188 -3.93681 1.50311 0
M  V30 2703 H 256.912 -3.23043 0.480725 0
M  V30 2704 H 255.571 -2.65035 2.53282 0
M  V30 2705 H 255.219 -4.83863 1.37424 0
M  V30 2706 H 254.919 -4.9762 3.12487 0
M  V30 2707 H 256.443 -5.6006 2.43238 0
M  V30 2708 H 257.857 -4.03218 4.07539 0
M  V30 2709 H 256.254 -3.64637 4.76613 0
M  V30 2710 H 257.324 -2.32928 4.25291 0
M  V30 2711 N 258.668 -1.30515 -0.883378 0
M  V30 2712 C 259.618 -1.13641 -1.9766 0
M  V30 2713 C 260.602 -0.0511314 -1.60819 0
M  V30 2714 O 261.794 -0.274623 -1.74857 0
M  V30 2715 C 258.923 -0.831976 -3.33066 0
M  V30 2716 C 258.009 -1.95759 -3.76217 0
M  V30 2717 N 258.4 -3.20313 -3.9145 0
M  V30 2718 C 256.698 -1.85431 -4.05625 0
M  V30 2719 C 257.399 -3.93856 -4.2808 0
M  V30 2720 N 256.375 -3.21919 -4.38029 0
M  V30 2721 H 260.177 -2.08106 -2.07531 0
M  V30 2722 H 257.691 -1.21877 -1.0733 0
M  V30 2723 H 259.688 -0.692102 -4.11115 0
M  V30 2724 H 258.348 0.104588 -3.24532 0
M  V30 2725 H 259.359 -3.55583 -3.76538 0
M  V30 2726 H 256.036 -0.991531 -4.05555 0
M  V30 2727 H 257.426 -5.01125 -4.47575 0
M  V30 2728 N 260.146 1.09593 -1.13257 0
M  V30 2729 C 261.076 2.18214 -0.830946 0
M  V30 2730 C 262.057 1.68812 0.208966 0
M  V30 2731 O 263.242 1.9408 0.0682666 0
M  V30 2732 C 260.372 3.46051 -0.294296 0
M  V30 2733 C 259.326 4.08778 -1.26826 0
M  V30 2734 C 258.652 5.31419 -0.591449 0
M  V30 2735 C 259.952 4.51476 -2.62615 0
M  V30 2736 H 261.646 2.43703 -1.73923 0
M  V30 2737 H 259.192 1.17128 -0.837675 0
M  V30 2738 H 261.145 4.2134 -0.0709606 0
M  V30 2739 H 259.869 3.20079 0.649366 0
M  V30 2740 H 258.528 3.35505 -1.47756 0
M  V30 2741 H 258.176 5.01727 0.357633 0
M  V30 2742 H 257.876 5.74341 -1.24123 0
M  V30 2743 H 259.4 6.09433 -0.377355 0
M  V30 2744 H 260.814 5.17999 -2.45663 0
M  V30 2745 H 259.211 5.05277 -3.23752 0
M  V30 2746 H 260.281 3.63962 -3.20406 0
M  V30 2747 N 261.624 0.925811 1.2754 0
M  V30 2748 C 262.571 0.422045 2.26908 0
M  V30 2749 C 263.541 -0.510029 1.58076 0
M  V30 2750 O 264.726 -0.429599 1.85901 0
M  V30 2751 C 261.866 -0.320837 3.43605 0
M  V30 2752 C 260.979 0.64513 4.27156 0
M  V30 2753 C 260.114 -0.117405 5.3107 0
M  V30 2754 C 259.153 0.841391 6.0629 0
M  V30 2755 N 258.29 0.111604 7.02011 0
M  V30 2756 H 263.13 1.27441 2.69375 0
M  V30 2757 H 260.667 0.639697 1.32462 0
M  V30 2758 H 262.625 -0.76785 4.10073 0
M  V30 2759 H 261.255 -1.13745 3.02096 0
M  V30 2760 H 260.307 1.21067 3.6062 0
M  V30 2761 H 261.619 1.37797 4.79389 0
M  V30 2762 H 260.773 -0.624422 6.03478 0
M  V30 2763 H 259.512 -0.883219 4.79636 0
M  V30 2764 H 258.517 1.35967 5.32722 0
M  V30 2765 H 259.742 1.60696 6.59813 0
M  V30 2766 H 257.688 -0.635999 6.5291 0
M  V30 2767 H 257.605 0.784044 7.51923 0
M  V30 2768 H 258.873 -0.374823 7.78598 0
M  V30 2769 N 263.102 -1.41638 0.69111 0
M  V30 2770 C 264.012 -2.34588 0.0233487 0
M  V30 2771 C 265.028 -1.55987 -0.770984 0
M  V30 2772 O 266.204 -1.88486 -0.709569 0
M  V30 2773 C 263.269 -3.34684 -0.904851 0
M  V30 2774 C 262.33 -4.29176 -0.103225 0
M  V30 2775 C 261.563 -5.2449 -0.987216 0
M  V30 2776 O 261.786 -5.2514 -2.22674 0
M  V30 2777 O 260.72 -6.00295 -0.439281 0
M  V30 2778 H 264.546 -2.93261 0.789416 0
M  V30 2779 H 262.131 -1.42417 0.45142 0
M  V30 2780 H 264.013 -3.96133 -1.43724 0
M  V30 2781 H 262.688 -2.78461 -1.65049 0
M  V30 2782 H 261.595 -3.71089 0.473655 0
M  V30 2783 H 262.928 -4.88484 0.60365 0
M  V30 2784 N 264.58 -0.43555 -1.51462 0
M  V30 2785 C 265.857 0.191364 -1.94662 0
M  V30 2786 C 266.237 1.60254 -1.37411 0
M  V30 2787 O 265.585 2.2152 -0.560458 0
M  V30 2788 C 265.795 0.17091 -3.48581 0
M  V30 2789 C 267.143 0.377357 -4.2292 0
M  V30 2790 O 268.167 0.249104 -3.55328 0
M  V30 2791 O 267.026 0.63247 -5.42828 0
M  V30 2792 H 264.12 0.130932 -0.816569 0
M  V30 2793 H 266.666 -0.4934 -1.62369 0
M  V30 2794 H 265.438 -0.815738 -3.82703 0
M  V30 2795 H 265.061 0.898659 -3.87311 0
M  V30 2796 N 266.058 1.56714 -0.166846 0
M  V30 2797 C 266.99 2.14914 0.796537 0
M  V30 2798 C 268.003 1.10357 1.19688 0
M  V30 2799 O 269.192 1.37561 1.13751 0
M  V30 2800 C 266.292 2.67326 2.08303 0
M  V30 2801 C 265.465 3.96493 1.84696 0
M  V30 2802 C 264.524 4.34014 2.97521 0
M  V30 2803 O 263.55 5.01973 2.6835 0
M  V30 2804 N 264.752 3.95208 4.25196 0
M  V30 2805 H 267.517 2.98205 0.299006 0
M  V30 2806 H 265.078 1.61892 0.0160839 0
M  V30 2807 H 267.07 2.89428 2.82867 0
M  V30 2808 H 265.64 1.88649 2.4926 0
M  V30 2809 H 264.86 3.82814 0.940602 0
M  V30 2810 H 266.148 4.8086 1.66285 0
M  V30 2811 H 265.546 3.40487 4.51758 0
M  V30 2812 H 264.103 4.2232 4.96477 0
M  V30 2813 N 267.536 -0.106894 1.57237 0
M  V30 2814 C 268.466 -1.13148 2.04254 0
M  V30 2815 C 269.447 -1.42476 0.929224 0
M  V30 2816 O 270.632 -1.52709 1.19973 0
M  V30 2817 C 267.762 -2.4545 2.45706 0
M  V30 2818 C 266.716 -2.30558 3.60592 0
M  V30 2819 C 266.042 -3.67931 3.87983 0
M  V30 2820 C 267.342 -1.75597 4.91897 0
M  V30 2821 H 269.036 -0.740374 2.90101 0
M  V30 2822 H 266.582 -0.354696 1.39563 0
M  V30 2823 H 268.535 -3.17389 2.77205 0
M  V30 2824 H 267.259 -2.86475 1.56843 0
M  V30 2825 H 265.918 -1.61067 3.29322 0
M  V30 2826 H 265.566 -4.06462 2.96306 0
M  V30 2827 H 265.266 -3.58817 4.65322 0
M  V30 2828 H 266.79 -4.41356 4.21945 0
M  V30 2829 H 268.204 -2.37364 5.21854 0
M  V30 2830 H 266.601 -1.77272 5.73319 0
M  V30 2831 H 267.671 -0.714451 4.79608 0
M  V30 2832 N 269.014 -1.53014 -0.377408 0
M  V30 2833 C 269.924 -1.81557 -1.48574 0
M  V30 2834 C 270.94 -0.703102 -1.59162 0
M  V30 2835 O 272.116 -0.99192 -1.75279 0
M  V30 2836 C 269.181 -1.9889 -2.83978 0
M  V30 2837 C 268.242 -3.22801 -2.83016 0
M  V30 2838 C 267.475 -3.39298 -4.11962 0
M  V30 2839 O 267.698 -2.60345 -5.0752 0
M  V30 2840 O 266.632 -4.32604 -4.18494 0
M  V30 2841 H 270.458 -2.75695 -1.27382 0
M  V30 2842 H 268.043 -1.38248 -0.566373 0
M  V30 2843 H 269.925 -2.11931 -3.6423 0
M  V30 2844 H 268.6 -1.07942 -3.05172 0
M  V30 2845 H 267.507 -3.15193 -2.01505 0
M  V30 2846 H 268.84 -4.13632 -2.66775 0
M  V30 2847 N 270.492 0.636531 -1.44174 0
M  V30 2848 C 271.722 1.42146 -1.49927 0
M  V30 2849 C 272.13 1.88812 -0.121063 0
M  V30 2850 O 271.473 1.61126 0.882267 0
M  V30 2851 C 271.535 2.67883 -2.39748 0
M  V30 2852 C 271.199 2.43048 -3.8701 0
M  V30 2853 C 272.196 2.05216 -4.77684 0
M  V30 2854 C 269.881 2.56856 -4.3166 0
M  V30 2855 C 271.875 1.81512 -6.11009 0
M  V30 2856 C 269.562 2.32766 -5.65034 0
M  V30 2857 C 270.56 1.95152 -6.54526 0
M  V30 2858 O 270.248 1.71326 -7.85431 0
M  V30 2859 H 269.98 0.442567 -0.51099 0
M  V30 2860 H 272.534 0.786158 -1.8976 0
M  V30 2861 H 270.764 3.34032 -1.94832 0
M  V30 2862 H 272.453 3.29874 -2.36513 0
M  V30 2863 H 273.219 1.94111 -4.44462 0
M  V30 2864 H 269.098 2.85104 -3.62266 0
M  V30 2865 H 272.642 1.52077 -6.80822 0
M  V30 2866 H 268.539 2.43479 -5.97819 0
M  V30 2867 H 269.307 1.85616 -7.97176 0
M  V30 2868 N 271.97 1.30982 0.876444 0
M  V30 2869 C 272.9 1.20668 1.99903 0
M  V30 2870 C 273.881 0.095354 1.69833 0
M  V30 2871 O 275.066 0.27885 1.92188 0
M  V30 2872 C 272.196 0.90655 3.3526 0
M  V30 2873 C 271.15 1.97675 3.79617 0
M  V30 2874 C 270.476 1.52943 5.1236 0
M  V30 2875 C 271.776 3.389 3.97422 0
M  V30 2876 H 273.47 2.14586 2.0879 0
M  V30 2877 H 271.016 1.03308 1.00317 0
M  V30 2878 H 272.969 0.821025 4.13324 0
M  V30 2879 H 271.693 -0.0682969 3.26529 0
M  V30 2880 H 270.352 2.05205 3.03787 0
M  V30 2881 H 270 0.54262 5.00065 0
M  V30 2882 H 269.7 2.24532 5.43009 0
M  V30 2883 H 271.224 1.45786 5.92941 0
M  V30 2884 H 272.638 3.34081 4.659 0
M  V30 2885 H 271.035 4.0865 4.3946 0
M  V30 2886 H 272.105 3.80163 3.01006 0
M  V30 2887 N 273.449 -1.08991 1.13837 0
M  V30 2888 C 274.359 -2.19301 0.833333 0
M  V30 2889 C 275.375 -1.73026 -0.183847 0
M  V30 2890 O 276.551 -2.01395 -0.0138092 0
M  V30 2891 C 273.616 -3.45323 0.308651 0
M  V30 2892 C 272.677 -4.06255 1.38764 0
M  V30 2893 C 271.91 -5.26262 0.887896 0
M  V30 2894 O 272.133 -5.69747 -0.27287 0
M  V30 2895 O 271.067 -5.78435 1.66421 0
M  V30 2896 H 274.893 -2.47854 1.75506 0
M  V30 2897 H 272.478 -1.18012 0.916166 0
M  V30 2898 H 274.36 -4.21394 0.0216739 0
M  V30 2899 H 273.035 -3.18362 -0.585431 0
M  V30 2900 H 271.942 -3.318 1.72799 0
M  V30 2901 H 273.275 -4.37452 2.25602 0
M  V30 2902 N 274.927 -0.932562 -1.27047 0
M  V30 2903 C 275.837 -0.441219 -2.30414 0
M  V30 2904 C 276.853 0.480525 -1.67233 0
M  V30 2905 O 278.029 0.362151 -1.98117 0
M  V30 2906 C 275.094 0.293651 -3.45454 0
M  V30 2907 C 274.155 -0.663601 -4.2414 0
M  V30 2908 C 273.388 0.0362932 -5.33688 0
M  V30 2909 O 273.611 1.2548 -5.56427 0
M  V30 2910 O 272.545 -0.638015 -5.98509 0
M  V30 2911 H 276.371 -1.29962 -2.74488 0
M  V30 2912 H 273.956 -0.6981 -1.32087 0
M  V30 2913 H 275.838 0.707951 -4.15411 0
M  V30 2914 H 274.513 1.12758 -3.03426 0
M  V30 2915 H 273.42 -1.12768 -3.56699 0
M  V30 2916 H 274.753 -1.46489 -4.69896 0
M  V30 2917 N 276.405 1.4127 -0.698611 0
M  V30 2918 C 277.352 2.30773 -0.0352094 0
M  V30 2919 C 278.322 1.47273 0.768111 0
M  V30 2920 O 279.507 1.76053 0.735524 0
M  V30 2921 C 276.647 3.33346 0.893 0
M  V30 2922 C 275.76 4.31924 0.0809695 0
M  V30 2923 C 274.895 5.21566 1.0071 0
M  V30 2924 C 273.934 6.11811 0.188155 0
M  V30 2925 N 273.071 6.93926 1.06825 0
M  V30 2926 H 277.911 2.86943 -0.804207 0
M  V30 2927 H 275.448 1.4132 -0.408294 0
M  V30 2928 H 277.406 3.91368 1.44523 0
M  V30 2929 H 276.036 2.78719 1.62836 0
M  V30 2930 H 275.088 3.75825 -0.588224 0
M  V30 2931 H 276.4 4.95716 -0.553801 0
M  V30 2932 H 275.554 5.84437 1.62845 0
M  V30 2933 H 274.293 4.58008 1.67572 0
M  V30 2934 H 273.298 5.47986 -0.446254 0
M  V30 2935 H 274.523 6.77425 -0.476716 0
M  V30 2936 H 272.469 6.32973 1.72283 0
M  V30 2937 H 272.386 7.54416 0.489123 0
M  V30 2938 H 273.654 7.61262 1.67632 0
M  V30 2939 N 277.883 0.443576 1.51229 0
M  V30 2940 C 279.299 0.0962001 1.5931 0
M  V30 2941 C 279.499 -1.39501 1.45402 0
M  V30 2942 O 278.555 -2.16557 1.29843 0
M  V30 2943 C 279.868 0.621875 2.94199 0
M  V30 2944 C 281.416 0.582865 3.07525 0
M  V30 2945 C 281.891 1.08562 4.44948 0
M  V30 2946 N 283.382 1.04387 4.51284 0
M  V30 2947 C 284.117 1.40368 5.55954 0
M  V30 2948 N 283.613 1.83664 6.68011 0
M  V30 2949 N 285.406 1.32145 5.46346 0
M  V30 2950 H 277.557 1.41376 1.58514 0
M  V30 2951 H 279.82 0.582965 0.747567 0
M  V30 2952 H 279.526 1.66546 3.09767 0
M  V30 2953 H 279.4 0.0502125 3.77167 0
M  V30 2954 H 281.787 -0.451749 2.91622 0
M  V30 2955 H 281.868 1.191 2.26382 0
M  V30 2956 H 281.512 2.11873 4.61598 0
M  V30 2957 H 281.442 0.453956 5.2464 0
M  V30 2958 H 283.933 0.725986 3.70861 0
M  V30 2959 H 284.246 2.0934 7.43906 0
M  V30 2960 H 282.591 1.87596 6.69203 0
M  V30 2961 H 285.782 0.981808 4.57688 0
M  V30 2962 H 285.955 1.60514 6.27805 0
M  V30 2963 N 279.361 -1.56624 0.175154 0
M  V30 2964 C 280.61 -1.96173 -0.468921 0
M  V30 2965 C 280.923 -1.06401 -1.64128 0
M  V30 2966 O 282.129 -1.35648 -2.35185 0
M  V30 2967 C 280.585 -3.48833 -0.885633 0
M  V30 2968 C 280.193 -4.47237 0.261343 0
M  V30 2969 C 281.937 -3.97194 -1.49791 0
M  V30 2970 C 279.844 -5.9114 -0.175214 0
M  V30 2971 H 278.774 -0.732455 -0.178958 0
M  V30 2972 H 281.425 -1.81591 0.263997 0
M  V30 2973 H 279.807 -3.58848 -1.67464 0
M  V30 2974 H 280.981 -4.4894 1.03871 0
M  V30 2975 H 279.296 -4.08956 0.783827 0
M  V30 2976 H 281.893 -5.02167 -1.83665 0
M  V30 2977 H 282.236 -3.40351 -2.39722 0
M  V30 2978 H 282.769 -3.90212 -0.773267 0
M  V30 2979 H 279.508 -6.51865 0.689414 0
M  V30 2980 H 279.028 -5.92735 -0.91786 0
M  V30 2981 H 280.707 -6.44044 -0.617792 0
M  V30 2982 N 280.839 0.0985539 -1.57292 0
M  V30 2983 C 281.786 1.11981 -2.01814 0
M  V30 2984 C 282.756 1.39999 -0.89384 0
M  V30 2985 O 283.941 1.5152 -1.15958 0
M  V30 2986 C 281.081 2.43577 -2.44467 0
M  V30 2987 C 280.194 2.2232 -3.70402 0
M  V30 2988 C 279.329 3.4729 -4.01949 0
M  V30 2989 C 278.368 3.2128 -5.21005 0
M  V30 2990 N 277.505 4.38507 -5.48321 0
M  V30 2991 H 282.345 0.733149 -2.88841 0
M  V30 2992 H 279.882 0.350482 -1.42864 0
M  V30 2993 H 281.84 3.20373 -2.6724 0
M  V30 2994 H 280.47 2.80097 -1.60455 0
M  V30 2995 H 279.522 1.36343 -3.55126 0
M  V30 2996 H 280.834 1.99089 -4.57345 0
M  V30 2997 H 279.988 4.32495 -4.25479 0
M  V30 2998 H 278.727 3.73572 -3.13521 0
M  V30 2999 H 277.732 2.34468 -4.97298 0
M  V30 3000 H 278.957 2.96348 -6.11028 0
M  V30 3001 H 276.903 4.64871 -4.62851 0
M  V30 3002 H 276.82 4.18455 -6.29628 0
M  V30 3003 H 278.088 5.24787 -5.76385 0
M  V30 3004 N 282.317 1.53212 0.369288 0
M  V30 3005 C 283.594 1.59815 1.12776 0
M  V30 3006 C 283.974 0.403402 2.0721 0
M  V30 3007 O 283.322 -0.606667 2.20299 0
M  V30 3008 C 283.532 2.94664 1.87013 0
M  V30 3009 C 284.88 3.49109 2.41677 0
M  V30 3010 O 285.904 2.96669 1.97144 0
M  V30 3011 O 284.763 4.40775 3.23079 0
M  V30 3012 H 281.857 0.645376 0.517125 0
M  V30 3013 H 284.403 1.65553 0.37285 0
M  V30 3014 H 283.175 3.73061 1.18071 0
M  V30 3015 H 282.798 2.92401 2.69421 0
M  V30 3016 N 283.795 -0.628877 1.44509 0
M  V30 3017 C 284.725 -1.75187 1.54376 0
M  V30 3018 C 285.706 -1.65411 0.396618 0
M  V30 3019 O 286.891 -1.84137 0.617031 0
M  V30 3020 C 284.021 -3.13725 1.48976 0
M  V30 3021 C 282.975 -3.38291 2.62189 0
M  V30 3022 C 282.301 -4.76883 2.41841 0
M  V30 3023 C 283.601 -3.30632 4.04326 0
M  V30 3024 H 285.295 -1.67187 2.48373 0
M  V30 3025 H 282.841 -0.802909 1.19538 0
M  V30 3026 H 284.794 -3.92064 1.54478 0
M  V30 3027 H 283.518 -3.22515 0.514961 0
M  V30 3028 H 282.177 -2.62334 2.56079 0
M  V30 3029 H 281.825 -4.82378 1.42548 0
M  V30 3030 H 281.525 -4.94278 3.17747 0
M  V30 3031 H 283.049 -5.57449 2.49165 0
M  V30 3032 H 284.463 -3.98873 4.11793 0
M  V30 3033 H 282.86 -3.59561 4.80454 0
M  V30 3034 H 283.93 -2.28404 4.27738 0
M  V30 3035 N 285.273 -1.31445 -0.869486 0
M  V30 3036 C 286.519 -1.21337 -1.62496 0
M  V30 3037 C 286.852 0.227872 -1.92858 0
M  V30 3038 O 286.127 1.16094 -1.56053 0
M  V30 3039 C 286.41 -2.05814 -2.95487 0
M  V30 3040 C 286.263 -3.5824 -2.72 0
M  V30 3041 C 287.582 -1.9079 -3.96594 0
M  V30 3042 H 284.701 -0.442135 -0.589649 0
M  V30 3043 H 287.343 -1.6124 -1.00507 0
M  V30 3044 H 285.493 -1.71913 -3.48394 0
M  V30 3045 H 287.165 -4.0228 -2.25762 0
M  V30 3046 H 285.408 -3.81647 -2.06224 0
M  V30 3047 H 286.079 -4.12657 -3.66631 0
M  V30 3048 H 288.555 -2.20459 -3.52898 0
M  V30 3049 H 287.431 -2.52199 -4.87531 0
M  V30 3050 H 287.692 -0.871341 -4.33428 0
M  V30 3051 N 286.751 1.08385 -1.14413 0
M  V30 3052 C 287.698 2.15311 -0.831265 0
M  V30 3053 C 288.668 1.64751 0.211292 0
M  V30 3054 O 289.853 1.90627 0.0811674 0
M  V30 3055 C 286.993 3.43658 -0.315143 0
M  V30 3056 C 286.106 4.08064 -1.41802 0
M  V30 3057 C 285.241 5.24207 -0.859126 0
M  V30 3058 C 284.28 5.80554 -1.93967 0
M  V30 3059 N 283.417 6.88042 -1.39793 0
M  V30 3060 H 288.257 2.41415 -1.74708 0
M  V30 3061 H 285.794 1.18474 -0.871909 0
M  V30 3062 H 287.752 4.172 0.00230884 0
M  V30 3063 H 286.382 3.17839 0.56378 0
M  V30 3064 H 285.434 3.3228 -1.85187 0
M  V30 3065 H 286.746 4.45962 -2.23427 0
M  V30 3066 H 285.9 6.04689 -0.49359 0
M  V30 3067 H 284.639 4.87699 -0.011932 0
M  V30 3068 H 283.644 4.98725 -2.31415 0
M  V30 3069 H 284.869 6.19121 -2.79046 0
M  V30 3070 H 282.815 6.53493 -0.572919 0
M  V30 3071 H 282.732 7.24767 -2.15054 0
M  V30 3072 H 284 7.72255 -1.0603 0
M  V30 3073 N 288.23 0.939286 1.26551 0
M  V30 3074 C 289.177 0.446088 2.26448 0
M  V30 3075 C 290.147 -0.493234 1.58608 0
M  V30 3076 O 291.332 -0.409857 1.86346 0
M  V30 3077 C 288.472 -0.284375 3.43926 0
M  V30 3078 C 287.585 0.690399 4.26448 0
M  V30 3079 C 286.72 -0.0610712 5.31165 0
M  V30 3080 C 285.759 0.905649 6.05363 0
M  V30 3081 N 284.896 0.186055 7.01853 0
M  V30 3082 H 289.736 1.30291 2.68008 0
M  V30 3083 H 287.273 0.65371 1.31776 0
M  V30 3084 H 289.231 -0.724313 4.10864 0
M  V30 3085 H 287.861 -1.10535 3.03285 0
M  V30 3086 H 286.913 1.24885 3.59316 0
M  V30 3087 H 288.225 1.42873 4.779 0
M  V30 3088 H 287.379 -0.56038 6.04106 0
M  V30 3089 H 286.118 -0.832297 4.80546 0
M  V30 3090 H 285.123 1.4161 5.3125 0
M  V30 3091 H 286.348 1.67685 6.58072 0
M  V30 3092 H 284.294 -0.566714 6.53548 0
M  V30 3093 H 284.211 0.863752 7.51049 0
M  V30 3094 H 285.479 -0.292221 7.78952 0
M  V30 3095 N 289.708 -1.40897 0.706093 0
M  V30 3096 C 290.658 -2.27987 0.0240746 0
M  V30 3097 C 291.642 -1.42759 -0.742204 0
M  V30 3098 O 292.834 -1.65936 -0.615966 0
M  V30 3099 C 289.963 -3.31186 -0.903907 0
M  V30 3100 C 289.049 -4.2389 -0.133318 0
M  V30 3101 N 289.44 -4.98113 0.878444 0
M  V30 3102 C 287.738 -4.44485 -0.367269 0
M  V30 3103 C 288.439 -5.6604 1.34064 0
M  V30 3104 N 287.415 -5.39522 0.664565 0
M  V30 3105 H 291.217 -2.82812 0.799658 0
M  V30 3106 H 288.731 -1.53235 0.537845 0
M  V30 3107 H 290.728 -3.92413 -1.40775 0
M  V30 3108 H 289.388 -2.77922 -1.67897 0
M  V30 3109 H 290.399 -5.02364 1.25901 0
M  V30 3110 H 287.076 -4.02213 -1.1194 0
M  V30 3111 H 288.466 -6.35524 2.1808 0
M  V30 3112 N 291.186 -0.45159 -1.50991 0
M  V30 3113 C 292.411 0.110667 -2.07105 0
M  V30 3114 C 292.836 1.3446 -1.31538 0
M  V30 3115 O 292.194 1.77743 -0.357365 0
M  V30 3116 C 292.242 0.397238 -3.58405 0
M  V30 3117 O 291.346 1.48124 -3.84881 0
M  V30 3118 H 290.687 -0.00439271 -0.663985 0
M  V30 3119 H 293.217 -0.637026 -1.9443 0
M  V30 3120 H 293.227 0.64351 -4.02893 0
M  V30 3121 H 291.902 -0.504553 -4.12828 0
M  V30 3122 H 290.479 1.22381 -3.52246 0
M  V30 3123 N 292.664 1.56529 -0.183458 0
M  V30 3124 C 293.574 2.22144 0.754272 0
M  V30 3125 C 294.59 1.21684 1.24374 0
M  V30 3126 O 295.766 1.54385 1.29333 0
M  V30 3127 C 292.831 2.85884 1.96141 0
M  V30 3128 C 291.892 4.01579 1.51765 0
M  V30 3129 C 291.125 4.6227 2.66725 0
M  V30 3130 O 291.348 4.21865 3.83909 0
M  V30 3131 O 290.282 5.51936 2.40104 0
M  V30 3132 H 294.108 3.02861 0.225527 0
M  V30 3133 H 291.693 1.49331 0.0453032 0
M  V30 3134 H 293.575 3.26253 2.66715 0
M  V30 3135 H 292.25 2.08154 2.47899 0
M  V30 3136 H 291.157 3.65856 0.781049 0
M  V30 3137 H 292.49 4.80938 1.04686 0
M  V30 3138 N 294.142 -0.090211 1.57342 0
M  V30 3139 C 295.389 -0.792807 1.86335 0
M  V30 3140 C 295.717 -1.78494 0.772662 0
M  V30 3141 O 294.972 -1.94305 -0.233258 0
M  V30 3142 C 295.271 -1.55222 3.21933 0
M  V30 3143 C 294.937 -0.701765 4.45406 0
M  V30 3144 C 293.599 -0.467334 4.78925 0
M  V30 3145 C 295.951 -0.11086 5.21082 0
M  V30 3146 C 293.279 0.367785 5.85546 0
M  V30 3147 C 295.631 0.711609 6.28585 0
M  V30 3148 C 294.295 0.956086 6.60617 0
M  V30 3149 H 293.565 -0.290109 0.681849 0
M  V30 3150 H 296.212 -0.0541332 1.91423 0
M  V30 3151 H 294.517 -2.3626 3.12551 0
M  V30 3152 H 296.214 -2.10032 3.41595 0
M  V30 3153 H 292.804 -0.894598 4.1916 0
M  V30 3154 H 296.988 -0.279129 4.95514 0
M  V30 3155 H 292.244 0.566128 6.08773 0
M  V30 3156 H 296.418 1.17632 6.86393 0
M  V30 3157 H 294.045 1.60499 7.43064 0
M  V30 3158 N 295.62 -1.53406 -0.361157 0
M  V30 3159 C 296.869 -1.69022 -1.10066 0
M  V30 3160 C 297.182 -0.450838 -1.90333 0
M  V30 3161 O 298.388 -0.487617 -2.67085 0
M  V30 3162 C 296.844 -2.98812 -2.00598 0
M  V30 3163 C 296.452 -4.30027 -1.25621 0
M  V30 3164 C 298.196 -3.23795 -2.74513 0
M  V30 3165 C 296.103 -5.50903 -2.1508 0
M  V30 3166 H 295.033 -0.629776 -0.414606 0
M  V30 3167 H 297.684 -1.79907 -0.361348 0
M  V30 3168 H 296.066 -2.8174 -2.78278 0
M  V30 3169 H 297.24 -4.57745 -0.529739 0
M  V30 3170 H 295.555 -4.11522 -0.635496 0
M  V30 3171 H 298.152 -4.11289 -3.41681 0
M  V30 3172 H 298.495 -2.40045 -3.40123 0
M  V30 3173 H 299.028 -3.41561 -2.03914 0
M  V30 3174 H 295.767 -6.37143 -1.54041 0
M  V30 3175 H 295.287 -5.27459 -2.85565 0
M  V30 3176 H 296.966 -5.85865 -2.74538 0
M  V30 3177 N 297.098 0.621204 -1.44841 0
M  V30 3178 C 298.323 1.41244 -1.51871 0
M  V30 3179 C 298.748 1.87519 -0.147764 0
M  V30 3180 O 298.106 1.59334 0.865 0
M  V30 3181 C 298.154 2.60221 -2.49634 0
M  V30 3182 O 297.258 3.60395 -2.00473 0
M  V30 3183 H 296.599 0.42223 -0.512463 0
M  V30 3184 H 299.129 0.757305 -1.90069 0
M  V30 3185 H 299.139 3.0764 -2.67996 0
M  V30 3186 H 297.814 2.25887 -3.4921 0
M  V30 3187 H 296.391 3.19717 -1.91925 0
M  V30 3188 N 298.576 1.31904 0.862503 0
M  V30 3189 C 299.823 1.22017 1.61611 0
M  V30 3190 C 300.151 -0.21991 1.93253 0
M  V30 3191 O 299.406 -1.17076 1.56817 0
M  V30 3192 C 299.705 2.01713 2.95037 0
M  V30 3193 C 299.371 3.51145 2.82857 0
M  V30 3194 C 298.033 3.91889 2.79243 0
M  V30 3195 C 300.385 4.46204 2.69353 0
M  V30 3196 C 297.713 5.25947 2.59993 0
M  V30 3197 C 300.065 5.80397 2.5164 0
M  V30 3198 C 298.729 6.20352 2.46413 0
M  V30 3199 H 297.999 0.44649 0.591378 0
M  V30 3200 H 300.646 1.63248 1.00111 0
M  V30 3201 H 298.951 1.53185 3.60613 0
M  V30 3202 H 300.648 1.91437 3.52353 0
M  V30 3203 H 297.238 3.1878 2.86491 0
M  V30 3204 H 301.422 4.15652 2.71196 0
M  V30 3205 H 296.678 5.5597 2.54376 0
M  V30 3206 H 300.852 6.53676 2.40169 0
M  V30 3207 H 298.479 7.24172 2.31256 0
M  V30 3208 N 300.054 -1.07777 1.14986 0
M  V30 3209 C 301.465 -1.61766 0.932127 0
M  V30 3210 C 301.816 -1.88974 -0.527581 0
M  V30 3211 O 300.941 -1.65198 -1.39781 0
M  V30 3212 C 301.536 -2.93891 1.68563 0
M  V30 3213 C 300.095 -3.44639 1.5133 0
M  V30 3214 C 299.242 -2.18767 1.704 0
M  V30 3215 H 302.193 -0.909201 1.30074 0
M  V30 3216 H 302.214 -3.62623 1.15259 0
M  V30 3217 H 301.726 -2.74057 2.74799 0
M  V30 3218 H 299.827 -3.69564 0.474702 0
M  V30 3219 H 299.94 -4.20966 2.28746 0
M  V30 3220 H 298.304 -2.28253 1.13016 0
M  V30 3221 H 299.087 -2.01433 2.77992 0
M  V30 3222 N 301.532 -0.945985 -1.26051 0
M  V30 3223 C 302.781 -0.591836 -1.92822 0
M  V30 3224 C 303.094 0.873956 -1.7499 0
M  V30 3225 O 304.3 1.33769 -2.36259 0
M  V30 3226 C 302.756 -1.00776 -3.45503 0
M  V30 3227 C 302.364 -2.4955 -3.7206 0
M  V30 3228 C 304.108 -0.725735 -4.1825 0
M  V30 3229 C 302.015 -2.84988 -5.18205 0
M  V30 3230 H 300.945 -0.217635 -0.721908 0
M  V30 3231 H 303.596 -1.14927 -1.43052 0
M  V30 3232 H 301.978 -0.378812 -3.94184 0
M  V30 3233 H 303.152 -3.1739 -3.34066 0
M  V30 3234 H 301.467 -2.75133 -3.12555 0
M  V30 3235 H 304.064 -0.966771 -5.25887 0
M  V30 3236 H 304.407 0.337639 -4.14929 0
M  V30 3237 H 304.94 -1.31463 -3.7545 0
M  V30 3238 H 301.679 -3.90307 -5.26631 0
M  V30 3239 H 301.199 -2.21813 -5.57278 0
M  V30 3240 H 302.878 -2.73712 -5.86252 0
M  V30 3241 N 303.011 1.40521 -0.713556 0
M  V30 3242 C 303.958 2.30723 -0.059684 0
M  V30 3243 C 304.928 1.48079 0.752448 0
M  V30 3244 O 306.113 1.76823 0.71681 0
M  V30 3245 C 303.253 3.34274 0.857594 0
M  V30 3246 C 302.366 4.31986 0.0351536 0
M  V30 3247 C 301.501 5.22605 0.951724 0
M  V30 3248 C 300.54 6.11976 0.123253 0
M  V30 3249 N 299.677 6.9502 0.99459 0
M  V30 3250 H 304.517 2.86074 -0.834596 0
M  V30 3251 H 302.054 1.40879 -0.42326 0
M  V30 3252 H 304.012 3.92879 1.40364 0
M  V30 3253 H 302.642 2.8043 1.59871 0
M  V30 3254 H 301.694 3.7518 -0.628052 0
M  V30 3255 H 303.006 4.95101 -0.606347 0
M  V30 3256 H 302.16 5.86131 1.56638 0
M  V30 3257 H 300.899 4.59759 1.62705 0
M  V30 3258 H 299.904 5.47482 -0.50435 0
M  V30 3259 H 301.129 6.76881 -0.548539 0
M  V30 3260 H 299.075 6.34764 1.6556 0
M  V30 3261 H 298.992 7.54892 0.40908 0
M  V30 3262 H 300.26 7.62997 1.59549 0
M  V30 3263 N 304.489 0.459591 1.5075 0
M  V30 3264 C 305.419 -0.330644 2.31147 0
M  V30 3265 C 306.4 -1.00087 1.37538 0
M  V30 3266 O 307.585 -1.00025 1.66459 0
M  V30 3267 C 304.715 -1.41958 3.16962 0
M  V30 3268 C 303.669 -0.871608 4.19031 0
M  V30 3269 C 302.995 -2.05797 4.9351 0
M  V30 3270 C 304.295 0.109251 5.22186 0
M  V30 3271 H 305.989 0.340336 2.97459 0
M  V30 3272 H 303.535 0.165119 1.4305 0
M  V30 3273 H 305.488 -1.9798 3.71997 0
M  V30 3274 H 304.212 -2.11917 2.48513 0
M  V30 3275 H 302.871 -0.333442 3.6508 0
M  V30 3276 H 302.519 -2.74427 4.21544 0
M  V30 3277 H 302.219 -1.6976 5.62544 0
M  V30 3278 H 303.743 -2.62331 5.51375 0
M  V30 3279 H 305.157 -0.361405 5.7216 0
M  V30 3280 H 303.554 0.383316 5.98875 0
M  V30 3281 H 304.624 1.03887 4.73641 0
M  V30 3282 N 305.967 -1.56429 0.191757 0
M  V30 3283 C 307.197 -2.01574 -0.452928 0
M  V30 3284 C 307.605 -1.07107 -1.55964 0
M  V30 3285 O 306.948 -0.067534 -1.83576 0
M  V30 3286 C 307.01 -3.43121 -1.07278 0
M  V30 3287 C 306.674 -4.56879 -0.105214 0
M  V30 3288 C 307.671 -5.15379 0.684149 0
M  V30 3289 C 305.356 -5.023 0.00489824 0
M  V30 3290 C 307.35 -6.17746 1.57062 0
M  V30 3291 C 305.037 -6.04511 0.894935 0
M  V30 3292 C 306.035 -6.62108 1.67637 0
M  V30 3293 O 305.723 -7.62335 2.55149 0
M  V30 3294 H 305.455 -0.665554 -0.118379 0
M  V30 3295 H 308.009 -2.03245 0.296737 0
M  V30 3296 H 306.239 -3.38425 -1.87097 0
M  V30 3297 H 307.928 -3.72093 -1.62177 0
M  V30 3298 H 308.694 -4.81157 0.609365 0
M  V30 3299 H 304.573 -4.57168 -0.593156 0
M  V30 3300 H 308.117 -6.6263 2.181 0
M  V30 3301 H 304.014 -6.38157 0.970847 0
M  V30 3302 H 304.782 -7.79741 2.48892 0
M  V30 3303 N 307.445 0.0818655 -1.57387 0
M  V30 3304 C 308.685 0.788375 -1.88584 0
M  V30 3305 C 309.049 1.75248 -0.784351 0
M  V30 3306 O 310.25 2.50334 -0.979105 0
M  V30 3307 C 308.521 1.48654 -3.25018 0
M  V30 3308 S 310.08 2.22951 -3.7794 0
M  V30 3309 H 306.898 0.262383 -0.660815 0
M  V30 3310 H 309.5 0.0448995 -1.95448 0
M  V30 3311 H 308.204 0.770919 -4.03094 0
M  V30 3312 H 307.735 2.26965 -3.21326 0
M  V30 3313 H 309.75 3.49309 -3.52417 0
M  V30 3314 N 308.923 1.53595 0.353017 0
M  V30 3315 C 309.833 1.83897 1.45667 0
M  V30 3316 C 310.849 0.728334 1.58023 0
M  V30 3317 O 312.025 1.01968 1.73679 0
M  V30 3318 C 309.09 2.03383 2.80778 0
M  V30 3319 C 308.151 3.27262 2.77845 0
M  V30 3320 C 307.384 3.45809 4.06512 0
M  V30 3321 O 307.607 2.68387 5.03314 0
M  V30 3322 O 306.541 4.39207 4.11559 0
M  V30 3323 H 310.367 2.77686 1.2298 0
M  V30 3324 H 307.952 1.39132 0.544308 0
M  V30 3325 H 309.834 2.17698 3.60812 0
M  V30 3326 H 308.509 1.12783 3.03417 0
M  V30 3327 H 307.416 3.18359 1.96465 0
M  V30 3328 H 308.749 4.17824 2.60161 0
M  V30 3329 N 310.401 -0.613514 1.45168 0
M  V30 3330 C 311.817 -0.933629 1.29443 0
M  V30 3331 C 312.017 -2.00028 0.243101 0
M  V30 3332 O 311.073 -2.49848 -0.364992 0
M  V30 3333 C 312.386 -1.38018 2.67155 0
M  V30 3334 C 313.934 -1.49471 2.75004 0
M  V30 3335 C 314.409 -1.97503 4.13227 0
M  V30 3336 N 315.9 -2.04746 4.15491 0
M  V30 3337 C 316.635 -2.43121 5.19307 0
M  V30 3338 N 316.131 -2.80506 6.33473 0
M  V30 3339 N 317.924 -2.43408 5.06664 0
M  V30 3340 H 310.075 0.0916097 2.12202 0
M  V30 3341 H 312.338 -0.0216655 0.947752 0
M  V30 3342 H 312.044 -0.670625 3.45247 0
M  V30 3343 H 311.918 -2.34784 2.95222 0
M  V30 3344 H 314.305 -2.19519 1.9722 0
M  V30 3345 H 314.386 -0.510342 2.50657 0
M  V30 3346 H 314.03 -1.28045 4.91495 0
M  V30 3347 H 313.96 -2.96843 4.34962 0
M  V30 3348 H 316.451 -1.78468 3.33103 0
M  V30 3349 H 316.764 -3.08652 7.08487 0
M  V30 3350 H 315.109 -2.78216 6.36884 0
M  V30 3351 H 318.3 -2.13604 4.16523 0
M  V30 3352 H 318.473 -2.72989 5.87691 0
M  V30 3353 N 311.879 -1.3236 -0.855495 0
M  V30 3354 C 312.811 -1.17052 -1.97057 0
M  V30 3355 C 313.824 -0.10574 -1.62456 0
M  V30 3356 O 315.013 -0.354619 -1.74942 0
M  V30 3357 C 312.113 -0.769305 -3.30053 0
M  V30 3358 C 311.286 -1.9222 -3.929 0
M  V30 3359 C 310.345 -1.50466 -5.04228 0
M  V30 3360 O 309.371 -2.21655 -5.24269 0
M  V30 3361 N 310.573 -0.400209 -5.79119 0
M  V30 3362 H 313.338 -2.13103 -2.1073 0
M  V30 3363 H 310.899 -1.24885 -1.0303 0
M  V30 3364 H 312.891 -0.472407 -4.01933 0
M  V30 3365 H 311.461 0.100025 -3.1244 0
M  V30 3366 H 310.681 -2.38563 -3.13817 0
M  V30 3367 H 311.969 -2.69403 -4.31624 0
M  V30 3368 H 311.367 0.192319 -5.65373 0
M  V30 3369 H 309.924 -0.162912 -6.51596 0
M  V30 3370 N 313.357 1.07166 -1.15556 0
M  V30 3371 C 314.305 2.16517 -0.8499 0
M  V30 3372 C 315.299 1.68468 0.177454 0
M  V30 3373 O 316.505 1.79971 0.0323026 0
M  V30 3374 H 312.88 0.706652 -0.25719 0
M  V30 3375 H 314.851 2.39514 -1.77976 0
M  V30 3376 C 313.6 3.45855 -0.357682 0
M  V30 3377 H 312.923 3.83214 -1.13961 0
M  V30 3378 H 314.363 4.23607 -0.182489 0
M  V30 3379 C 312.822 3.24062 0.921152 0
M  V30 3380 O 313.352 3.48813 1.9923 0
M  V30 3381 N 311.558 2.77539 0.86141 0
M  V30 3382 H 311.105 2.57598 -0.0104408 0
M  V30 3383 H 311.063 2.63337 1.71758 0
M  V30 3384 N 314.835 0.952656 1.25548 0
M  V30 3385 C 315.745 0.47782 2.29682 0
M  V30 3386 C 316.761 -0.453859 1.67977 0
M  V30 3387 O 317.937 -0.330587 1.98668 0
M  V30 3388 C 315.002 -0.238655 3.45878 0
M  V30 3389 C 314.063 0.730994 4.23031 0
M  V30 3390 C 313.296 0.0486165 5.33678 0
M  V30 3391 O 313.519 -1.16612 5.58353 0
M  V30 3392 O 312.453 0.733152 5.97418 0
M  V30 3393 H 316.279 1.34312 2.72386 0
M  V30 3394 H 313.864 0.719026 1.30959 0
M  V30 3395 H 315.746 -0.641774 4.16484 0
M  V30 3396 H 314.421 -1.07916 3.05181 0
M  V30 3397 H 313.328 1.18428 3.5486 0
M  V30 3398 H 314.661 1.53946 4.67506 0
M  V30 3399 N 316.313 -1.40141 0.720998 0
M  V30 3400 C 317.26 -2.30688 0.071919 0
M  V30 3401 C 318.23 -1.48476 -0.744584 0
M  V30 3402 O 319.415 -1.77201 -0.707423 0
M  V30 3403 C 316.555 -3.34724 -0.839855 0
M  V30 3404 C 315.668 -4.31998 -0.0122438 0
M  V30 3405 C 314.803 -5.23102 -0.923995 0
M  V30 3406 C 313.842 -6.12033 -0.0907969 0
M  V30 3407 N 312.979 -6.95537 -0.957718 0
M  V30 3408 H 317.819 -2.85628 0.849755 0
M  V30 3409 H 315.356 -1.40653 0.430726 0
M  V30 3410 H 317.314 -3.93618 -1.38279 0
M  V30 3411 H 315.944 -2.81274 -1.58381 0
M  V30 3412 H 314.996 -3.74841 0.64794 0
M  V30 3413 H 316.308 -4.94772 0.632595 0
M  V30 3414 H 315.462 -5.86953 -1.53527 0
M  V30 3415 H 314.201 -4.60615 -1.60264 0
M  V30 3416 H 313.206 -5.47207 0.533377 0
M  V30 3417 H 314.431 -6.76581 0.584428 0
M  V30 3418 H 312.377 -6.35633 -1.62192 0
M  V30 3419 H 312.294 -7.55099 -0.36904 0
M  V30 3420 H 313.562 -7.63832 -1.555 0
M  V30 3421 N 317.792 -0.46758 -1.50504 0
M  V30 3422 C 318.702 0.33382 -2.32213 0
M  V30 3423 C 319.718 0.999323 -1.42441 0
M  V30 3424 O 320.894 0.988068 -1.75497 0
M  V30 3425 C 317.959 1.4035 -3.17022 0
M  V30 3426 C 317.02 0.754961 -4.2261 0
M  V30 3427 C 316.253 1.77367 -5.03365 0
M  V30 3428 O 316.476 2.99976 -4.8515 0
M  V30 3429 O 315.41 1.34744 -5.86624 0
M  V30 3430 H 319.236 -0.334067 -3.01857 0
M  V30 3431 H 316.821 -0.229496 -1.47627 0
M  V30 3432 H 318.703 2.02318 -3.69656 0
M  V30 3433 H 317.378 2.05492 -2.5011 0
M  V30 3434 H 316.285 0.0964244 -3.73976 0
M  V30 3435 H 317.618 0.146545 -4.91982 0
M  V30 3436 N 319.27 1.56325 -0.20005 0
M  V30 3437 C 320.519 1.96895 0.437652 0
M  V30 3438 C 320.832 1.08999 1.62415 0
M  V30 3439 O 322.038 1.39372 2.32997 0
M  V30 3440 C 320.494 3.50198 0.830025 0
M  V30 3441 C 320.102 4.46765 -0.332461 0
M  V30 3442 C 321.846 3.99526 1.43453 0
M  V30 3443 C 319.753 5.91344 0.0811468 0
M  V30 3444 H 318.683 0.735209 0.167282 0
M  V30 3445 H 321.334 1.81148 -0.292853 0
M  V30 3446 H 319.716 3.61467 1.61734 0
M  V30 3447 H 320.89 4.47231 -1.11 0
M  V30 3448 H 319.205 4.07657 -0.848789 0
M  V30 3449 H 321.802 5.05025 1.75652 0
M  V30 3450 H 322.145 3.44122 2.34277 0
M  V30 3451 H 322.678 3.91393 0.71109 0
M  V30 3452 H 319.417 6.50685 -0.793033 0
M  V30 3453 H 318.937 5.94121 0.823445 0
M  V30 3454 H 320.616 6.44945 0.515252 0
M  V30 3455 N 320.748 -0.0735177 1.57428 0
M  V30 3456 C 321.976 -0.785969 1.9139 0
M  V30 3457 C 322.391 -1.71207 0.795847 0
M  V30 3458 O 321.748 -1.81033 -0.230915 0
M  V30 3459 C 321.799 -1.58107 3.25091 0
M  V30 3460 O 321.52 -0.6922 4.32597 0
M  V30 3461 C 323.021 -2.39467 3.73055 0
M  V30 3462 H 320.241 -0.223558 0.632663 0
M  V30 3463 H 322.785 -0.044302 2.04452 0
M  V30 3464 H 320.94 -2.27503 3.13562 0
M  V30 3465 H 321.354 -1.24504 5.09508 0
M  V30 3466 H 322.828 -2.90716 4.69242 0
M  V30 3467 H 323.305 -3.18913 3.01979 0
M  V30 3468 H 323.911 -1.7523 3.87523 0
M  V30 3469 N 322.226 -1.5378 -0.344866 0
M  V30 3470 C 323.189 -1.80981 -1.40637 0
M  V30 3471 C 324.189 -0.680816 -1.45676 0
M  V30 3472 O 325.379 -0.949095 -1.46075 0
M  V30 3473 C 322.511 -1.95063 -2.79577 0
M  V30 3474 H 323.704 -2.75803 -1.17783 0
M  V30 3475 H 321.257 -1.45173 -0.579181 0
M  V30 3476 H 321.992 -1.02379 -3.07716 0
M  V30 3477 H 321.777 -2.77198 -2.77315 0
M  V30 3478 H 323.267 -2.17629 -3.56409 0
M  V30 3479 N 323.704 0.605807 -1.45491 0
M  V30 3480 C 324.929 1.39625 -1.53361 0
M  V30 3481 C 325.354 1.87351 -0.167645 0
M  V30 3482 O 324.712 1.60243 0.848051 0
M  V30 3483 C 324.76 2.57559 -2.5238 0
M  V30 3484 O 323.864 3.58248 -2.04285 0
M  V30 3485 H 323.205 0.416771 -0.516912 0
M  V30 3486 H 325.735 0.737103 -1.90861 0
M  V30 3487 H 325.745 3.0478 -2.71244 0
M  V30 3488 H 324.42 2.22171 -3.51586 0
M  V30 3489 H 322.997 3.17664 -1.95305 0
M  V30 3490 N 325.182 1.32811 0.848464 0
M  V30 3491 C 326.092 1.24278 1.98978 0
M  V30 3492 C 327.108 0.155176 1.73307 0
M  V30 3493 O 328.284 0.376999 1.9784 0
M  V30 3494 C 325.349 0.972444 3.32783 0
M  V30 3495 C 324.41 2.14911 3.71634 0
M  V30 3496 C 323.643 1.89157 4.99054 0
M  V30 3497 O 323.866 0.837165 5.64223 0
M  V30 3498 O 322.8 2.75433 5.35183 0
M  V30 3499 H 326.626 2.20238 2.09115 0
M  V30 3500 H 324.211 1.12762 0.980052 0
M  V30 3501 H 326.093 0.838432 4.12975 0
M  V30 3502 H 324.768 0.043051 3.23671 0
M  V30 3503 H 323.675 2.33862 2.91992 0
M  V30 3504 H 325.008 3.06151 3.85399 0
M  V30 3505 N 326.66 -1.06551 1.16123 0
M  V30 3506 C 327.57 -2.17484 0.879662 0
M  V30 3507 C 328.586 -1.73377 -0.147104 0
M  V30 3508 O 329.762 -2.01379 0.0289128 0
M  V30 3509 C 326.827 -3.44591 0.381829 0
M  V30 3510 C 325.888 -4.0322 1.4735 0
M  V30 3511 C 325.121 -5.24261 0.999324 0
M  V30 3512 O 325.344 -5.70198 -0.151957 0
M  V30 3513 O 324.278 -5.74775 1.78653 0
M  V30 3514 H 328.104 -2.44075 1.80724 0
M  V30 3515 H 325.689 -1.16042 0.940992 0
M  V30 3516 H 327.571 -4.21254 0.111053 0
M  V30 3517 H 326.246 -3.19532 -0.51777 0
M  V30 3518 H 325.153 -3.2806 1.79798 0
M  V30 3519 H 326.486 -4.32568 2.34831 0
M  V30 3520 N 328.138 -0.959301 -1.25041 0
M  V30 3521 C 329.048 -0.489994 -2.29426 0
M  V30 3522 C 330.064 0.444944 -1.68215 0
M  V30 3523 O 331.24 0.320046 -1.98841 0
M  V30 3524 C 328.305 0.220309 -3.45999 0
M  V30 3525 C 327.366 -0.753418 -4.22637 0
M  V30 3526 C 326.599 -0.076918 -5.33645 0
M  V30 3527 O 326.822 1.13649 -5.58963 0
M  V30 3528 O 325.756 -0.764824 -5.97021 0
M  V30 3529 H 329.582 -1.35755 -2.71669 0
M  V30 3530 H 327.167 -0.725961 -1.30576 0
M  V30 3531 H 329.049 0.619677 -4.16819 0
M  V30 3532 H 327.724 1.06296 -3.0575 0
M  V30 3533 H 326.631 -1.20308 -3.54227 0
M  V30 3534 H 327.964 -1.56423 -4.66683 0
M  V30 3535 N 329.616 1.39756 -0.72842 0
M  V30 3536 C 330.526 2.34444 -0.0855374 0
M  V30 3537 C 331.542 1.57976 0.729356 0
M  V30 3538 O 332.718 1.90301 0.659346 0
M  V30 3539 C 329.783 3.36965 0.815798 0
M  V30 3540 C 328.844 4.29299 -0.0105996 0
M  V30 3541 C 328.077 5.26923 0.84781 0
M  V30 3542 O 328.3 5.30859 2.08673 0
M  V30 3543 O 327.234 6.01249 0.279969 0
M  V30 3544 H 331.06 2.91065 -0.866892 0
M  V30 3545 H 328.645 1.4117 -0.48902 0
M  V30 3546 H 330.527 3.99804 1.33171 0
M  V30 3547 H 329.202 2.82739 1.57608 0
M  V30 3548 H 328.109 3.69703 -0.571877 0
M  V30 3549 H 329.442 4.86712 -0.73295 0
M  V30 3550 N 331.094 0.475555 1.50254 0
M  V30 3551 C 332.342 -0.077738 2.0195 0
M  V30 3552 C 332.663 -1.39813 1.35931 0
M  V30 3553 O 331.933 -1.89249 0.506123 0
M  V30 3554 H 330.513 -0.031719 0.746326 0
M  V30 3555 H 333.175 0.626995 1.84539 0
M  V30 3556 H 332.271 -0.225995 3.11281 0
M  V30 3557 N 332.573 -1.56217 0.208337 0
M  V30 3558 C 333.483 -2.23316 -0.718836 0
M  V30 3559 C 334.499 -1.23648 -1.22422 0
M  V30 3560 O 335.675 -1.56423 -1.26861 0
M  V30 3561 C 332.74 -2.88968 -1.91568 0
M  V30 3562 C 331.801 -4.03943 -1.45357 0
M  V30 3563 C 331.034 -4.66455 -2.59337 0
M  V30 3564 O 331.257 -4.27919 -3.77149 0
M  V30 3565 O 330.191 -5.55686 -2.31293 0
M  V30 3566 H 334.017 -3.03182 -0.177315 0
M  V30 3567 H 331.602 -1.49384 -0.0215402 0
M  V30 3568 H 333.484 -3.30455 -2.61491 0
M  V30 3569 H 332.159 -2.12071 -2.44556 0
M  V30 3570 H 331.066 -3.67052 -0.722746 0
M  V30 3571 H 332.399 -4.82543 -0.970219 0
M  V30 3572 N 334.051 0.0651679 -1.57465 0
M  V30 3573 C 335.299 0.761555 -1.87202 0
M  V30 3574 C 335.62 1.77778 -0.801243 0
M  V30 3575 O 334.89 1.95166 0.16937 0
M  V30 3576 H 333.47 0.284251 -0.690804 0
M  V30 3577 H 336.132 0.0396827 -1.9486 0
M  V30 3578 H 335.228 1.27365 -2.84929 0
M  V30 3579 N 335.529 1.53961 0.336706 0
M  V30 3580 C 336.439 1.85432 1.43708 0
M  V30 3581 C 337.455 0.745053 1.57242 0
M  V30 3582 O 338.631 1.03804 1.72588 0
M  V30 3583 C 335.696 2.06349 2.78605 0
M  V30 3584 C 334.757 3.30191 2.74358 0
M  V30 3585 C 333.99 3.50101 4.02822 0
M  V30 3586 O 334.213 2.7371 5.00439 0
M  V30 3587 O 333.147 4.43547 4.06878 0
M  V30 3588 H 336.973 2.78975 1.20028 0
M  V30 3589 H 334.558 1.39701 0.52952 0
M  V30 3590 H 336.44 2.21513 3.58483 0
M  V30 3591 H 335.115 1.15995 3.02203 0
M  V30 3592 H 334.022 3.20425 1.93078 0
M  V30 3593 H 335.355 4.2056 2.55715 0
M  V30 3594 N 337.007 -0.598083 1.45811 0
M  V30 3595 C 338.255 -1.35413 1.50026 0
M  V30 3596 C 338.576 -1.94444 0.147177 0
M  V30 3597 O 337.846 -1.77701 -0.824571 0
M  V30 3598 H 336.426 -0.502727 0.552517 0
M  V30 3599 H 339.088 -0.701606 1.81834 0
M  V30 3600 H 338.184 -2.16871 2.2444 0
M  V30 3601 N 338.485 -1.33259 -0.841409 0
M  V30 3602 C 339.395 -1.25332 -1.98316 0
M  V30 3603 C 340.411 -0.164364 -1.73222 0
M  V30 3604 O 341.587 -0.387486 -1.97637 0
M  V30 3605 C 338.652 -0.990078 -3.32262 0
M  V30 3606 C 337.713 -2.16879 -3.70489 0
M  V30 3607 C 336.946 -1.91801 -4.98044 0
M  V30 3608 O 337.169 -0.867075 -5.63771 0
M  V30 3609 O 336.103 -2.78267 -5.33714 0
M  V30 3610 H 339.929 -2.21344 -2.07944 0
M  V30 3611 H 337.514 -1.1328 -0.974058 0
M  V30 3612 H 339.396 -0.860321 -4.12524 0
M  V30 3613 H 338.071 -0.0602155 -3.23644 0
M  V30 3614 H 336.978 -2.35407 -2.90748 0
M  V30 3615 H 338.311 -3.0819 -3.8377 0
M  V30 3616 N 339.963 1.05934 -1.16686 0
M  V30 3617 C 341.379 1.30938 -0.912542 0
M  V30 3618 C 341.579 1.96803 0.432533 0
M  V30 3619 O 340.635 2.23693 1.17123 0
M  V30 3620 C 341.948 2.18649 -2.06429 0
M  V30 3621 C 343.496 2.32055 -2.10047 0
M  V30 3622 C 343.971 3.23122 -3.24586 0
M  V30 3623 N 345.462 3.30706 -3.24327 0
M  V30 3624 C 346.197 4.01273 -4.09594 0
M  V30 3625 N 345.693 4.74332 -5.04956 0
M  V30 3626 N 347.486 3.97361 -3.97569 0
M  V30 3627 H 339.637 0.615777 -2.03278 0
M  V30 3628 H 341.9 0.334077 -0.887185 0
M  V30 3629 H 341.606 1.77534 -3.03603 0
M  V30 3630 H 341.48 3.19252 -2.00894 0
M  V30 3631 H 343.867 2.72415 -1.13464 0
M  V30 3632 H 343.948 1.31107 -2.19647 0
M  V30 3633 H 343.592 2.83477 -4.2143 0
M  V30 3634 H 343.522 4.24057 -3.12223 0
M  V30 3635 H 346.013 2.78644 -2.55276 0
M  V30 3636 H 346.326 5.25716 -5.6643 0
M  V30 3637 H 344.671 4.733 -5.08933 0
M  V30 3638 H 347.862 3.39405 -3.22369 0
M  V30 3639 H 348.035 4.52089 -4.64241 0
M  V30 3640 N 341.441 0.965919 1.2453 0
M  V30 3641 C 342.351 0.502154 2.29163 0
M  V30 3642 C 343.367 -0.436017 1.68448 0
M  V30 3643 O 344.543 -0.309497 1.99008 0
M  V30 3644 C 341.608 -0.201956 3.46111 0
M  V30 3645 C 340.669 0.775821 4.22232 0
M  V30 3646 C 339.902 0.105217 5.33596 0
M  V30 3647 O 340.125 -1.10683 5.59558 0
M  V30 3648 O 339.059 0.796475 5.96607 0
M  V30 3649 H 342.885 1.37194 2.70946 0
M  V30 3650 H 340.47 0.732875 1.30189 0
M  V30 3651 H 342.352 -0.597564 4.17142 0
M  V30 3652 H 341.027 -1.04673 3.06309 0
M  V30 3653 H 339.934 1.22185 3.53584 0
M  V30 3654 H 341.267 1.58896 4.65846 0
M  V30 3655 N 342.919 -1.39368 0.735821 0
M  V30 3656 C 344.167 -2.00101 0.283562 0
M  V30 3657 C 344.488 -1.5868 -1.13338 0
M  V30 3658 O 343.758 -0.835423 -1.77193 0
M  V30 3659 H 342.338 -0.740024 0.101851 0
M  V30 3660 H 345 -1.70404 0.945962 0
M  V30 3661 H 344.096 -3.10323 0.332604 0
M  V30 3662 N 344.397 -0.483516 -1.5 0
M  V30 3663 C 345.307 0.309172 -2.32554 0
M  V30 3664 C 346.323 0.984159 -1.43493 0
M  V30 3665 O 347.499 0.969399 -1.76535 0
M  V30 3666 C 344.564 1.36979 -3.18493 0
M  V30 3667 C 343.625 0.710095 -4.23387 0
M  V30 3668 C 342.858 1.72018 -5.05218 0
M  V30 3669 O 343.081 2.94813 -4.88305 0
M  V30 3670 O 342.015 1.28515 -5.8802 0
M  V30 3671 H 345.841 -0.366064 -3.01486 0
M  V30 3672 H 343.426 -0.24514 -1.47375 0
M  V30 3673 H 345.308 1.98385 -3.71781 0
M  V30 3674 H 343.983 2.02828 -2.52275 0
M  V30 3675 H 342.89 0.0567539 -3.74057 0
M  V30 3676 H 344.223 0.0943557 -4.9211 0
M  V30 3677 N 345.875 1.56104 -0.216619 0
M  V30 3678 C 346.785 2.23694 0.706982 0
M  V30 3679 C 347.801 1.24295 1.21765 0
M  V30 3680 O 348.977 1.57094 1.2603 0
M  V30 3681 C 346.042 2.8998 1.90033 0
M  V30 3682 C 345.103 4.04708 1.43213 0
M  V30 3683 C 344.336 4.67824 2.56859 0
M  V30 3684 O 344.559 4.29913 3.74874 0
M  V30 3685 O 343.493 5.56905 2.28343 0
M  V30 3686 H 347.319 3.03272 0.161235 0
M  V30 3687 H 344.904 1.49394 0.0136177 0
M  V30 3688 H 346.786 3.31837 2.59735 0
M  V30 3689 H 345.461 2.13365 2.43428 0
M  V30 3690 H 344.368 3.6743 0.70327 0
M  V30 3691 H 345.701 4.83051 0.944615 0
M  V30 3692 N 347.353 -0.0568162 1.57498 0
M  V30 3693 C 348.263 -1.08346 2.08083 0
M  V30 3694 C 349.279 -1.41439 1.01346 0
M  V30 3695 O 350.455 -1.51316 1.32912 0
M  V30 3696 C 347.52 -2.37352 2.52715 0
M  V30 3697 C 346.581 -2.11093 3.73816 0
M  V30 3698 C 345.814 -3.33949 4.1631 0
M  V30 3699 O 346.037 -4.43622 3.58547 0
M  V30 3700 O 344.971 -3.21279 5.08983 0
M  V30 3701 H 348.797 -0.683667 2.95905 0
M  V30 3702 H 346.382 -0.271965 1.46904 0
M  V30 3703 H 348.264 -3.13246 2.81877 0
M  V30 3704 H 346.939 -2.76681 1.68016 0
M  V30 3705 H 345.846 -1.32856 3.49714 0
M  V30 3706 H 347.179 -1.76637 4.59413 0
M  V30 3707 N 348.832 -1.54138 -0.328536 0
M  V30 3708 C 349.742 -1.86192 -1.42723 0
M  V30 3709 C 350.758 -0.753382 -1.56844 0
M  V30 3710 O 351.934 -1.04718 -1.72035 0
M  V30 3711 C 348.999 -2.07824 -2.77507 0
M  V30 3712 C 348.06 -3.31641 -2.72603 0
M  V30 3713 C 347.293 -3.52232 -4.00959 0
M  V30 3714 O 347.516 -2.7636 -4.9898 0
M  V30 3715 O 346.45 -4.45699 -4.0452 0
M  V30 3716 H 350.276 -2.79608 -1.18547 0
M  V30 3717 H 347.861 -1.3998 -0.522104 0
M  V30 3718 H 349.743 -2.23411 -3.57303 0
M  V30 3719 H 348.418 -1.17596 -3.01584 0
M  V30 3720 H 347.325 -3.21444 -1.91376 0
M  V30 3721 H 348.658 -4.2191 -2.53481 0
M  V30 3722 N 350.31 0.590341 -1.46126 0
M  V30 3723 C 351.22 1.72793 -1.58681 0
M  V30 3724 C 352.236 1.67516 -0.470566 0
M  V30 3725 O 353.412 1.87562 -0.733642 0
M  V30 3726 C 350.477 3.09287 -1.5666 0
M  V30 3727 C 349.538 3.25886 -2.79458 0
M  V30 3728 C 348.771 4.55869 -2.77524 0
M  V30 3729 O 348.994 5.3928 -1.85832 0
M  V30 3730 O 347.928 4.75552 -3.68964 0
M  V30 3731 H 351.754 1.65149 -2.54872 0
M  V30 3732 H 349.339 0.756486 -1.28832 0
M  V30 3733 H 351.221 3.90577 -1.58202 0
M  V30 3734 H 349.896 3.17385 -0.636271 0
M  V30 3735 H 348.803 2.44119 -2.83472 0
M  V30 3736 H 350.136 3.22675 -3.71674 0
M  V30 3737 N 351.788 1.33704 0.83433 0
M  V30 3738 C 352.735 1.24335 1.94447 0
M  V30 3739 C 353.705 0.120991 1.65659 0
M  V30 3740 O 354.89 0.300035 1.88426 0
M  V30 3741 C 352.03 0.993124 3.30501 0
M  V30 3742 C 351.143 2.20217 3.71657 0
M  V30 3743 C 350.278 1.88572 4.96602 0
M  V30 3744 C 349.317 3.05683 5.30306 0
M  V30 3745 N 348.454 2.73997 6.46429 0
M  V30 3746 H 353.294 2.1928 2.01792 0
M  V30 3747 H 350.831 1.09035 0.987404 0
M  V30 3748 H 352.789 0.828467 4.08892 0
M  V30 3749 H 351.419 0.0803902 3.227 0
M  V30 3750 H 350.471 2.47642 2.88752 0
M  V30 3751 H 351.783 3.07752 3.92543 0
M  V30 3752 H 350.937 1.68776 5.82752 0
M  V30 3753 H 349.676 0.982799 4.77695 0
M  V30 3754 H 348.681 3.26088 4.42659 0
M  V30 3755 H 349.906 3.96737 5.51159 0
M  V30 3756 H 347.852 1.86268 6.28999 0
M  V30 3757 H 347.769 3.55064 6.67432 0
M  V30 3758 H 349.037 2.57679 7.35678 0
M  V30 3759 N 353.266 -1.05314 1.17247 0
M  V30 3760 C 354.213 -2.13031 0.888058 0
M  V30 3761 C 355.183 -1.65253 -0.167537 0
M  V30 3762 O 356.368 -1.90775 -0.0305974 0
M  V30 3763 C 353.508 -3.42702 0.406147 0
M  V30 3764 C 352.621 -4.04161 1.52572 0
M  V30 3765 C 351.756 -5.21744 0.997808 0
M  V30 3766 C 350.795 -5.75207 2.09291 0
M  V30 3767 N 349.932 -6.84094 1.57986 0
M  V30 3768 H 354.772 -2.36698 1.81048 0
M  V30 3769 H 352.309 -1.16121 0.903013 0
M  V30 3770 H 354.267 -4.17059 0.108305 0
M  V30 3771 H 352.897 -3.19222 -0.479313 0
M  V30 3772 H 351.949 -3.27253 1.93931 0
M  V30 3773 H 353.261 -4.39881 2.35172 0
M  V30 3774 H 352.415 -6.03168 0.653739 0
M  V30 3775 H 351.154 -4.87495 0.141232 0
M  V30 3776 H 350.159 -4.92414 2.44557 0
M  V30 3777 H 351.384 -6.11505 2.95362 0
M  V30 3778 H 349.33 -6.51745 0.74598 0
M  V30 3779 H 349.247 -7.18811 2.34195 0
M  V30 3780 H 350.515 -7.69172 1.26468 0
M  V30 3781 N 354.744 -0.972509 -1.24016 0
M  V30 3782 C 355.691 -0.505969 -2.25186 0
M  V30 3783 C 356.661 0.451009 -1.5986 0
M  V30 3784 O 357.846 0.360307 -1.87367 0
M  V30 3785 C 354.986 0.193089 -3.44559 0
M  V30 3786 C 354.099 -0.803222 -4.24467 0
M  V30 3787 C 353.234 -0.0797793 -5.3114 0
M  V30 3788 C 352.273 -1.06583 -6.02749 0
M  V30 3789 N 351.41 -0.372074 -7.01113 0
M  V30 3790 H 356.25 -1.37351 -2.64459 0
M  V30 3791 H 353.787 -0.688419 -1.29997 0
M  V30 3792 H 355.745 0.615125 -4.1264 0
M  V30 3793 H 354.375 1.02455 -3.06109 0
M  V30 3794 H 353.427 -1.34368 -3.55878 0
M  V30 3795 H 354.739 -1.55494 -4.73944 0
M  V30 3796 H 353.893 0.400015 -6.0538 0
M  V30 3797 H 352.632 0.704597 -4.82583 0
M  V30 3798 H 351.637 -1.55645 -5.27309 0
M  V30 3799 H 352.862 -1.85074 -6.53395 0
M  V30 3800 H 350.808 0.393238 -6.5482 0
M  V30 3801 H 350.725 -1.06258 -7.48495 0
M  V30 3802 H 351.993 0.0855932 -7.79453 0
M  V30 3803 N 356.222 1.38976 -0.743202 0
M  V30 3804 C 357.169 2.30544 -0.10861 0
M  V30 3805 C 358.139 1.49642 0.720869 0
M  V30 3806 O 359.324 1.78304 0.679142 0
M  V30 3807 C 356.464 3.36018 0.786496 0
M  V30 3808 C 355.577 4.31963 -0.0564849 0
M  V30 3809 C 354.712 5.24506 0.840657 0
M  V30 3810 C 353.751 6.121 -0.00658363 0
M  V30 3811 N 352.888 6.96973 0.846943 0
M  V30 3812 H 357.728 2.8424 -0.895088 0
M  V30 3813 H 355.265 1.3995 -0.453048 0
M  V30 3814 H 357.223 3.95768 1.31999 0
M  V30 3815 H 355.853 2.83758 1.53887 0
M  V30 3816 H 354.905 3.73763 -0.707492 0
M  V30 3817 H 356.217 4.93703 -0.711229 0
M  V30 3818 H 355.371 5.89322 1.4417 0
M  V30 3819 H 354.11 4.63107 1.52916 0
M  V30 3820 H 353.115 5.46289 -0.620366 0
M  V30 3821 H 354.34 6.75565 -0.691992 0
M  V30 3822 H 352.286 6.38133 1.52059 0
M  V30 3823 H 352.203 7.5559 0.248864 0
M  V30 3824 H 353.471 7.6621 1.43328 0
M  V30 3825 N 357.7 0.491464 1.49741 0
M  V30 3826 C 358.928 -0.0535151 2.06831 0
M  V30 3827 C 359.343 -1.31683 1.35296 0
M  V30 3828 O 358.7 -1.77402 0.42836 0
M  V30 3829 C 358.751 -0.320835 3.60073 0
M  V30 3830 O 358.472 0.892394 4.28915 0
M  V30 3831 C 359.973 -0.910519 4.33848 0
M  V30 3832 H 357.193 0.0161909 0.670805 0
M  V30 3833 H 359.737 0.68609 1.92647 0
M  V30 3834 H 357.892 -1.0104 3.73991 0
M  V30 3835 H 358.306 0.649401 5.20464 0
M  V30 3836 H 359.78 -1.04721 5.41976 0
M  V30 3837 H 360.257 -1.90589 3.95692 0
M  V30 3838 H 360.863 -0.258712 4.24512 0
M  V30 3839 N 359.178 -1.55987 0.224894 0
M  V30 3840 C 360.426 -1.97998 -0.405099 0
M  V30 3841 C 360.747 -1.11387 -1.60056 0
M  V30 3842 O 360.017 -0.191645 -1.9496 0
M  V30 3843 H 358.597 -0.731235 -0.152658 0
M  V30 3844 H 361.259 -1.92279 0.318567 0
M  V30 3845 H 360.355 -3.03463 -0.729167 0
M  V30 3846 N 360.656 0.0484629 -1.57525 0
M  V30 3847 C 361.566 1.07241 -2.08654 0
M  V30 3848 C 362.582 1.409 -1.02095 0
M  V30 3849 O 363.758 1.50609 -1.33712 0
M  V30 3850 C 360.823 2.36008 -2.5397 0
M  V30 3851 C 359.884 2.09108 -3.7493 0
M  V30 3852 C 359.117 3.31736 -4.18075 0
M  V30 3853 O 359.34 4.41714 -3.60895 0
M  V30 3854 O 358.274 3.18576 -5.10679 0
M  V30 3855 H 362.1 0.667965 -2.96263 0
M  V30 3856 H 359.685 0.26417 -1.47046 0
M  V30 3857 H 361.567 3.11747 -2.83535 0
M  V30 3858 H 360.242 2.75786 -1.69481 0
M  V30 3859 H 359.149 1.31 -3.50414 0
M  V30 3860 H 360.482 1.74198 -4.60343 0
M  V30 3861 N 362.134 1.5431 0.320358 0
M  V30 3862 C 363.411 1.63322 1.07635 0
M  V30 3863 C 363.791 0.46912 2.05821 0
M  V30 3864 O 363.139 -0.536274 2.22118 0
M  V30 3865 C 363.349 3.00465 1.77544 0
M  V30 3866 C 364.697 3.56621 2.30449 0
M  V30 3867 O 365.721 3.02791 1.87606 0
M  V30 3868 O 364.58 4.5083 3.08892 0
M  V30 3869 H 361.674 0.661502 0.496331 0
M  V30 3870 H 364.22 1.66656 0.319992 0
M  V30 3871 H 362.992 3.76629 1.06143 0
M  V30 3872 H 362.615 3.00824 2.59982 0
M  V30 3873 N 363.613 -0.582584 1.46437 0
M  V30 3874 C 364.56 -1.69164 1.5701 0
M  V30 3875 C 365.53 -1.60847 0.414403 0
M  V30 3876 O 366.715 -1.80058 0.631171 0
M  V30 3877 C 363.855 -3.075 1.56646 0
M  V30 3878 C 362.968 -3.2644 2.82951 0
M  V30 3879 C 362.103 -4.55026 2.7409 0
M  V30 3880 C 361.142 -4.6731 3.95333 0
M  V30 3881 N 360.279 -5.87221 3.84858 0
M  V30 3882 H 365.119 -1.59464 2.51744 0
M  V30 3883 H 362.656 -0.777186 1.24893 0
M  V30 3884 H 364.614 -3.8757 1.5442 0
M  V30 3885 H 363.244 -3.16096 0.654439 0
M  V30 3886 H 362.296 -2.39974 2.95155 0
M  V30 3887 H 363.608 -3.31385 3.72808 0
M  V30 3888 H 362.762 -5.43324 2.6997 0
M  V30 3889 H 361.501 -4.52519 1.81873 0
M  V30 3890 H 360.506 -3.77429 3.99784 0
M  V30 3891 H 361.731 -4.71595 4.88646 0
M  V30 3892 H 359.677 -5.85712 2.95427 0
M  V30 3893 H 359.594 -5.93435 4.6837 0
M  V30 3894 H 360.862 -6.7795 3.84713 0
M  V30 3895 N 365.091 -1.34144 -0.827227 0
M  V30 3896 C 366.039 -1.25364 -1.95925 0
M  V30 3897 C 367.033 -0.152608 -1.68711 0
M  V30 3898 O 368.239 -0.317311 -1.77181 0
M  V30 3899 H 364.614 -0.389342 -0.643364 0
M  V30 3900 H 366.585 -2.21045 -2.00454 0
M  V30 3901 C 365.334 -1.02158 -3.32354 0
M  V30 3902 H 364.657 -1.86111 -3.5384 0
M  V30 3903 H 366.097 -1.00048 -4.12027 0
M  V30 3904 C 364.556 0.275244 -3.35774 0
M  V30 3905 O 365.086 1.27806 -3.80826 0
M  V30 3906 N 363.292 0.306853 -2.88975 0
M  V30 3907 H 362.839 -0.509777 -2.52506 0
M  V30 3908 H 362.797 1.17432 -2.91646 0
M  V30 3909 N 366.569 1.04691 -1.17803 0
M  V30 3910 C 367.532 2.10724 -0.901545 0
M  V30 3911 C 368.532 1.6042 0.110437 0
M  V30 3912 O 369.722 1.7377 -0.122303 0
M  V30 3913 C 366.854 3.39084 -0.351409 0
M  V30 3914 H 368.047 2.36686 -1.84174 0
M  V30 3915 H 365.6 1.21015 -0.98919 0
M  V30 3916 H 366.335 3.18782 0.59569 0
M  V30 3917 H 366.12 3.76909 -1.08083 0
M  V30 3918 H 367.61 4.17227 -0.176451 0
M  V30 3919 N 368.047 0.979072 1.23499 0
M  V30 3920 C 369.324 0.563674 1.87302 0
M  V30 3921 C 369.704 -0.959199 1.88049 0
M  V30 3922 O 369.052 -1.83535 1.36114 0
M  V30 3923 C 369.262 1.16822 3.28867 0
M  V30 3924 C 370.61 1.26014 4.0547 0
M  V30 3925 O 371.634 1.12158 3.38082 0
M  V30 3926 O 370.493 1.48044 5.26066 0
M  V30 3927 H 367.587 0.189602 0.804972 0
M  V30 3928 H 370.133 1.07407 1.31384 0
M  V30 3929 H 368.905 2.21049 3.22883 0
M  V30 3930 H 368.528 0.642564 3.92373 0
M  V30 3931 N 369.525 -1.3858 0.750561 0
M  V30 3932 C 370.435 -2.34278 0.122825 0
M  V30 3933 C 371.451 -1.59116 -0.704131 0
M  V30 3934 O 372.627 -1.91326 -0.628987 0
M  V30 3935 C 369.692 -3.38221 -0.762086 0
M  V30 3936 C 368.753 -4.29227 0.078896 0
M  V30 3937 C 367.986 -5.28205 -0.763874 0
M  V30 3938 O 368.209 -5.34112 -2.00201 0
M  V30 3939 O 367.143 -6.01618 -0.18428 0
M  V30 3940 H 370.969 -2.89649 0.913088 0
M  V30 3941 H 368.554 -1.40374 0.511417 0
M  V30 3942 H 370.436 -4.01872 -1.26793 0
M  V30 3943 H 369.111 -2.85211 -1.5309 0
M  V30 3944 H 368.018 -3.68747 0.630621 0
M  V30 3945 H 369.351 -4.85484 0.810289 0
M  V30 3946 N 371.003 -0.499398 -1.49478 0
M  V30 3947 C 372.228 0.044722 -2.07352 0
M  V30 3948 C 372.653 1.30207 -1.35749 0
M  V30 3949 O 372.011 1.76516 -0.413732 0
M  V30 3950 C 372.059 0.283013 -3.59488 0
M  V30 3951 O 371.163 1.35804 -3.89398 0
M  V30 3952 H 370.504 -0.0255147 -0.66351 0
M  V30 3953 H 373.034 -0.698561 -1.92305 0
M  V30 3954 H 373.044 0.515007 -4.04737 0
M  V30 3955 H 371.719 -0.635636 -4.11014 0
M  V30 3956 H 370.296 1.11113 -3.55961 0
M  V30 3957 N 372.481 1.55866 -0.233164 0
M  V30 3958 C 373.428 2.20796 0.67215 0
M  V30 3959 C 374.398 1.16731 1.18166 0
M  V30 3960 O 375.583 1.45129 1.23864 0
M  V30 3961 C 372.723 2.90072 1.86955 0
M  V30 3962 C 371.836 4.08759 1.39786 0
M  V30 3963 C 370.971 4.65787 2.55374 0
M  V30 3964 C 370.01 5.76752 2.04998 0
M  V30 3965 N 369.147 6.28021 3.13901 0
M  V30 3966 H 373.987 2.9779 0.111749 0
M  V30 3967 H 371.524 1.47036 0.0434007 0
M  V30 3968 H 373.482 3.28428 2.57276 0
M  V30 3969 H 372.112 2.15575 2.40265 0
M  V30 3970 H 371.164 3.7581 0.589173 0
M  V30 3971 H 372.476 4.88906 0.98856 0
M  V30 3972 H 371.63 5.06646 3.33758 0
M  V30 3973 H 370.369 3.84828 2.99598 0
M  V30 3974 H 369.374 5.35383 1.25079 0
M  V30 3975 H 370.599 6.59553 1.61759 0
M  V30 3976 H 368.545 5.49971 3.57586 0
M  V30 3977 H 368.462 7.03323 2.7726 0
M  V30 3978 H 369.73 6.73538 3.92386 0
M  V30 3979 N 373.959 -0.0401083 1.57549 0
M  V30 3980 C 374.869 -1.06133 2.0922 0
M  V30 3981 C 375.885 -1.40356 1.0284 0
M  V30 3982 O 377.061 -1.49897 1.34509 0
M  V30 3983 C 374.126 -2.34658 2.55218 0
M  V30 3984 C 373.187 -2.07117 3.76033 0
M  V30 3985 C 372.42 -3.29514 4.19829 0
M  V30 3986 O 372.643 -4.39794 3.63232 0
M  V30 3987 O 371.577 -3.15863 5.12362 0
M  V30 3988 H 375.403 -0.652244 2.96613 0
M  V30 3989 H 372.988 -0.256368 1.47184 0
M  V30 3990 H 374.87 -3.10239 2.85184 0
M  V30 3991 H 373.545 -2.74883 1.70941 0
M  V30 3992 H 372.452 -1.29139 3.51104 0
M  V30 3993 H 373.785 -1.71754 4.61261 0
M  V30 3994 N 375.437 -1.54477 -0.31217 0
M  V30 3995 C 376.347 -1.87695 -1.4074 0
M  V30 3996 C 377.363 -0.769975 -1.56036 0
M  V30 3997 O 378.539 -1.06537 -1.70915 0
M  V30 3998 C 375.604 -2.10755 -2.75287 0
M  V30 3999 C 374.665 -3.34514 -2.69071 0
M  V30 4000 C 373.898 -3.56465 -3.97201 0
M  V30 4001 O 374.121 -2.81637 -4.96021 0
M  V30 4002 O 373.055 -4.49964 -3.9977 0
M  V30 4003 H 376.881 -2.80849 -1.15574 0
M  V30 4004 H 374.466 -1.40526 -0.507228 0
M  V30 4005 H 376.348 -2.27188 -3.54913 0
M  V30 4006 H 375.023 -1.20788 -3.0032 0
M  V30 4007 H 373.93 -3.23456 -1.87955 0
M  V30 4008 H 375.263 -4.24575 -2.48992 0
M  V30 4009 N 376.915 0.57481 -1.46744 0
M  V30 4010 C 377.863 1.70435 -1.58286 0
M  V30 4011 C 378.857 1.63287 -0.450956 0
M  V30 4012 O 380.063 1.68685 -0.628121 0
M  V30 4013 H 376.438 0.56364 -0.497809 0
M  V30 4014 H 378.409 1.57833 -2.53242 0
M  V30 4015 C 377.158 3.08815 -1.59776 0
M  V30 4016 H 376.481 3.1499 -2.46214 0
M  V30 4017 H 377.921 3.87588 -1.71905 0
M  V30 4018 C 376.38 3.35301 -0.327812 0
M  V30 4019 O 376.91 3.97511 0.57861 0
M  V30 4020 N 375.116 2.89816 -0.213274 0
M  V30 4021 H 374.663 2.39371 -0.951798 0
M  V30 4022 H 374.621 3.0791 0.63553 0
M  V30 4023 N 378.394 1.34581 0.820102 0
M  V30 4024 C 379.304 1.28471 1.96297 0
M  V30 4025 C 380.32 0.191902 1.72939 0
M  V30 4026 O 381.496 0.418879 1.96996 0
M  V30 4027 C 378.561 1.04281 3.30645 0
M  V30 4028 C 377.622 2.22745 3.66992 0
M  V30 4029 C 376.855 1.997 4.9493 0
M  V30 4030 O 377.078 0.956656 5.6232 0
M  V30 4031 O 376.012 2.86723 5.2922 0
M  V30 4032 H 379.838 2.24624 2.04396 0
M  V30 4033 H 377.423 1.14816 0.955913 0
M  V30 4034 H 379.305 0.925841 4.11104 0
M  V30 4035 H 377.98 0.111697 3.23507 0
M  V30 4036 H 376.887 2.40003 2.86966 0
M  V30 4037 H 378.22 3.14257 3.78819 0
M  V30 4038 N 379.872 -1.04064 1.18357 0
M  V30 4039 C 381.149 -1.74252 0.888581 0
M  V30 4040 C 381.529 -2.02138 -0.60856 0
M  V30 4041 O 380.877 -1.66656 -1.56327 0
M  V30 4042 C 381.087 -3.0277 1.73584 0
M  V30 4043 C 382.435 -3.76506 1.96286 0
M  V30 4044 O 383.459 -3.12668 1.70637 0
M  V30 4045 O 382.318 -4.91243 2.39464 0
M  V30 4046 H 379.412 -0.758271 0.330082 0
M  V30 4047 H 381.958 -1.1013 1.2911 0
M  V30 4048 H 380.73 -2.78299 2.75073 0
M  V30 4049 H 380.353 -3.74631 1.33183 0
M  V30 4050 N 381.35 -0.985608 -1.22978 0
M  V30 4051 C 382.26 -0.538548 -2.28335 0
M  V30 4052 C 383.276 0.409163 -1.69121 0
M  V30 4053 O 384.452 0.277797 -1.99475 0
M  V30 4054 C 381.517 0.146867 -3.46389 0
M  V30 4055 C 380.578 -0.842896 -4.20944 0
M  V30 4056 C 379.811 -0.190095 -5.33361 0
M  V30 4057 O 380.034 1.01767 -5.61248 0
M  V30 4058 O 378.968 -0.891289 -5.95264 0
M  V30 4059 H 382.794 -1.41487 -2.68729 0
M  V30 4060 H 380.379 -0.753495 -1.29007 0
M  V30 4061 H 382.261 0.531125 -4.1804 0
M  V30 4062 H 380.936 0.997871 -3.07935 0
M  V30 4063 H 379.843 -1.27795 -3.51595 0
M  V30 4064 H 381.176 -1.66287 -4.6326 0
M  V30 4065 N 382.828 1.3818 -0.7579 0
M  V30 4066 C 383.738 2.3421 -0.135247 0
M  V30 4067 C 384.754 1.59487 0.695683 0
M  V30 4068 O 385.93 1.91657 0.618832 0
M  V30 4069 C 382.995 3.3862 0.744139 0
M  V30 4070 C 382.056 4.2918 -0.101658 0
M  V30 4071 C 381.289 5.28603 0.735851 0
M  V30 4072 O 381.512 5.35166 1.97366 0
M  V30 4073 O 380.446 6.01707 0.152372 0
M  V30 4074 H 384.272 2.8916 -0.928436 0
M  V30 4075 H 381.857 1.40101 -0.518855 0
M  V30 4076 H 383.739 4.02539 1.2466 0
M  V30 4077 H 382.414 2.86019 1.51575 0
M  V30 4078 H 381.321 3.68407 -0.650167 0
M  V30 4079 H 382.654 4.85048 -0.836024 0
M  V30 4080 N 384.306 0.507319 1.49211 0
M  V30 4081 C 385.253 -0.267728 2.29242 0
M  V30 4082 C 386.223 -0.954609 1.35928 0
M  V30 4083 O 387.408 -0.960046 1.64887 0
M  V30 4084 C 384.548 -1.32243 3.18756 0
M  V30 4085 C 383.661 -0.64669 4.27132 0
M  V30 4086 C 382.796 -1.68238 5.03855 0
M  V30 4087 C 381.835 -0.98885 6.0406 0
M  V30 4088 N 380.972 -1.96903 6.73924 0
M  V30 4089 H 385.812 0.420968 2.95012 0
M  V30 4090 H 383.349 0.219443 1.45454 0
M  V30 4091 H 385.307 -1.94599 3.69036 0
M  V30 4092 H 383.937 -1.97981 2.54958 0
M  V30 4093 H 382.989 0.0902926 3.80293 0
M  V30 4094 H 384.301 -0.101058 4.98698 0
M  V30 4095 H 383.455 -2.38081 5.58034 0
M  V30 4096 H 382.194 -2.26187 4.32077 0
M  V30 4097 H 381.199 -0.276222 5.49106 0
M  V30 4098 H 382.424 -0.415767 6.77826 0
M  V30 4099 H 380.37 -2.53803 6.04913 0
M  V30 4100 H 380.287 -1.47423 7.41487 0
M  V30 4101 H 381.555 -2.66015 7.32705 0
M  V30 4102 N 385.784 -1.5574 0.241426 0
M  V30 4103 C 386.731 -2.21149 -0.660432 0
M  V30 4104 C 387.701 -1.17356 -1.17545 0
M  V30 4105 O 388.886 -1.45784 -1.23093 0
M  V30 4106 C 386.026 -2.91059 -1.85414 0
M  V30 4107 C 385.139 -4.09495 -1.37616 0
M  V30 4108 C 384.274 -4.67135 -2.529 0
M  V30 4109 C 383.313 -5.77831 -2.01936 0
M  V30 4110 N 382.45 -6.29677 -3.10566 0
M  V30 4111 H 387.29 -2.97845 -0.095955 0
M  V30 4112 H 384.827 -1.47057 -0.0356024 0
M  V30 4113 H 386.785 -3.29788 -2.5553 0
M  V30 4114 H 385.415 -2.16846 -2.39118 0
M  V30 4115 H 384.467 -3.76117 -0.569235 0
M  V30 4116 H 385.779 -4.89423 -0.962618 0
M  V30 4117 H 384.933 -5.08409 -3.31067 0
M  V30 4118 H 383.672 -3.86411 -2.97553 0
M  V30 4119 H 382.677 -5.36039 -1.22238 0
M  V30 4120 H 383.902 -6.60402 -1.58259 0
M  V30 4121 H 381.848 -5.5186 -3.54664 0
M  V30 4122 H 381.765 -7.04783 -2.73526 0
M  V30 4123 H 383.033 -6.75609 -3.88809 0
M  V30 4124 N 387.262 0.0317525 -1.57568 0
M  V30 4125 C 388.172 1.05021 -2.0978 0
M  V30 4126 C 389.188 1.39809 -1.03583 0
M  V30 4127 O 390.364 1.49182 -1.35302 0
M  V30 4128 C 387.429 2.33301 -2.56459 0
M  V30 4129 C 386.49 2.0512 -3.77127 0
M  V30 4130 C 385.723 3.27283 -4.2157 0
M  V30 4131 O 385.946 4.37861 -3.65559 0
M  V30 4132 O 384.88 3.13141 -5.14029 0
M  V30 4133 H 388.706 0.636505 -2.96955 0
M  V30 4134 H 386.291 0.248559 -1.47318 0
M  V30 4135 H 388.173 3.08722 -2.86825 0
M  V30 4136 H 386.848 2.73973 -1.72397 0
M  V30 4137 H 385.755 1.27276 -3.51784 0
M  V30 4138 H 387.088 1.69305 -4.62165 0
M  V30 4139 N 388.74 1.54641 0.303973 0
M  V30 4140 C 390.017 1.64455 1.05896 0
M  V30 4141 C 390.397 0.490923 2.05312 0
M  V30 4142 O 389.745 -0.512685 2.22674 0
M  V30 4143 C 389.955 3.02331 1.74347 0
M  V30 4144 C 391.303 3.59045 2.26653 0
M  V30 4145 O 392.327 3.04764 1.84384 0
M  V30 4146 O 391.186 4.54081 3.04093 0
M  V30 4147 H 388.28 0.666729 0.489287 0
M  V30 4148 H 390.826 1.66986 0.302298 0
M  V30 4149 H 389.598 3.77734 1.02142 0
M  V30 4150 H 389.221 3.03565 2.56777 0
M  V30 4151 N 390.218 -0.567019 1.47046 0
M  V30 4152 C 391.166 -1.69593 1.59188 0
M  V30 4153 C 392.16 -1.63046 0.459609 0
M  V30 4154 O 393.366 -1.6835 0.637058 0
M  V30 4155 H 389.741 -0.560993 0.500791 0
M  V30 4156 H 391.712 -1.56488 2.54075 0
M  V30 4157 C 390.461 -3.07964 1.61411 0
M  V30 4158 H 389.784 -3.13679 2.47881 0
M  V30 4159 H 391.224 -3.86671 1.73958 0
M  V30 4160 C 389.683 -3.35123 0.34559 0
M  V30 4161 O 390.213 -3.97812 -0.557521 0
M  V30 4162 N 388.419 -2.89699 0.22864 0
M  V30 4163 H 387.966 -2.38863 0.964479 0
M  V30 4164 H 387.924 -3.08242 -0.619192 0
M  V30 4165 N 391.696 -1.35014 -0.812953 0
M  V30 4166 C 392.606 -1.2951 -1.95613 0
M  V30 4167 C 393.622 -0.20107 -1.72834 0
M  V30 4168 O 394.798 -0.42932 -1.96771 0
M  V30 4169 C 391.863 -1.06033 -3.30088 0
M  V30 4170 C 390.924 -2.24688 -3.65805 0
M  V30 4171 C 390.157 -2.02322 -4.93864 0
M  V30 4172 O 390.38 -0.986464 -5.61805 0
M  V30 4173 O 389.314 -2.89525 -5.27692 0
M  V30 4174 H 393.14 -2.25705 -2.03202 0
M  V30 4175 H 390.725 -1.15321 -0.949811 0
M  V30 4176 H 392.607 -0.94763 -4.10607 0
M  V30 4177 H 391.282 -0.128852 -3.23443 0
M  V30 4178 H 390.189 -2.41521 -2.85689 0
M  V30 4179 H 391.522 -3.16261 -3.77147 0
M  V30 4180 N 393.175 1.03435 -1.18907 0
M  V30 4181 C 394.085 2.15075 -0.937015 0
M  V30 4182 C 395.101 1.73706 0.101085 0
M  V30 4183 O 396.277 2.01232 -0.0822948 0
M  V30 4184 C 393.342 3.43458 -0.473057 0
M  V30 4185 C 392.403 3.99172 -1.57989 0
M  V30 4186 C 391.636 5.21427 -1.13797 0
M  V30 4187 O 391.859 5.704 0.000725941 0
M  V30 4188 O 390.793 5.69837 -1.9383 0
M  V30 4189 H 394.619 2.39198 -1.87131 0
M  V30 4190 H 392.204 1.13506 -0.971427 0
M  V30 4191 H 394.086 4.20811 -0.222702 0
M  V30 4192 H 392.761 3.20793 0.432869 0
M  V30 4193 H 391.668 3.23178 -1.88433 0
M  V30 4194 H 393.001 4.2619 -2.46217 0
M  V30 4195 N 394.653 0.992116 1.22453 0
M  V30 4196 C 395.93 0.583508 1.86694 0
M  V30 4197 C 396.31 -0.9392 1.89056 0
M  V30 4198 O 395.658 -1.82081 1.38053 0
M  V30 4199 C 395.868 1.20304 3.2761 0
M  V30 4200 C 397.216 1.30308 4.0411 0
M  V30 4201 O 398.24 1.15737 3.36873 0
M  V30 4202 O 397.099 1.53615 5.24466 0
M  V30 4203 H 394.193 0.198129 0.802916 0
M  V30 4204 H 396.739 1.08794 1.30238 0
M  V30 4205 H 395.511 2.24461 3.2052 0
M  V30 4206 H 395.134 0.684144 3.9167 0
M  V30 4207 N 396.131 -1.37776 0.765217 0
M  V30 4208 C 397.408 -1.93975 0.251596 0
M  V30 4209 C 397.788 -1.69949 -1.25222 0
M  V30 4210 O 397.136 -1.04457 -2.03226 0
M  V30 4211 C 397.346 -3.43487 0.617895 0
M  V30 4212 C 398.694 -4.20564 0.584029 0
M  V30 4213 O 399.718 -3.5182 0.556888 0
M  V30 4214 O 398.577 -5.43138 0.605291 0
M  V30 4215 H 395.671 -0.82509 0.0561806 0
M  V30 4216 H 398.217 -1.47101 0.846128 0
M  V30 4217 H 396.989 -3.5453 1.65602 0
M  V30 4218 H 396.612 -3.976 -0.00403411 0
M  V30 4219 N 397.609 -0.515225 -1.4894 0
M  V30 4220 C 398.557 0.269115 -2.31038 0
M  V30 4221 C 399.551 0.949443 -1.40292 0
M  V30 4222 O 400.757 0.87551 -1.57273 0
M  V30 4223 H 397.132 0.10565 -0.744542 0
M  V30 4224 H 399.103 -0.443096 -2.95092 0
M  V30 4225 C 397.852 1.31213 -3.21991 0
M  V30 4226 H 397.175 0.798034 -3.91754 0
M  V30 4227 H 398.615 1.83263 -3.82349 0
M  V30 4228 C 397.074 2.33791 -2.42576 0
M  V30 4229 O 397.604 3.3995 -2.14003 0
M  V30 4230 N 395.81 2.06625 -2.0434 0
M  V30 4231 H 395.357 1.20314 -2.27777 0
M  V30 4232 H 395.315 2.75483 -1.51514 0
M  V30 4233 N 399.087 1.5561 -0.249682 0
M  V30 4234 C 400.034 2.21496 0.648694 0
M  V30 4235 C 401.004 1.17977 1.16921 0
M  V30 4236 O 402.189 1.46434 1.22318 0
M  V30 4237 C 399.329 2.92039 1.83868 0
M  V30 4238 C 398.442 4.10219 1.35442 0
M  V30 4239 C 397.577 4.6847 2.50419 0
M  V30 4240 C 396.616 5.78893 1.98869 0
M  V30 4241 N 395.753 6.31315 3.07223 0
M  V30 4242 H 400.593 2.97892 0.0801582 0
M  V30 4243 H 398.13 1.47074 0.0278031 0
M  V30 4244 H 400.088 3.31138 2.53778 0
M  V30 4245 H 398.718 2.18111 2.37965 0
M  V30 4246 H 397.77 3.76413 0.54928 0
M  V30 4247 H 399.082 4.89927 0.936649 0
M  V30 4248 H 398.236 5.10158 3.28366 0
M  V30 4249 H 396.975 3.87984 2.95499 0
M  V30 4250 H 395.98 5.3668 1.19393 0
M  V30 4251 H 397.205 6.61232 1.54755 0
M  V30 4252 H 395.151 5.53733 3.51732 0
M  V30 4253 H 395.068 7.06224 2.69784 0
M  V30 4254 H 396.336 6.77662 3.8522 0
M  V30 4255 N 400.565 -0.0233959 1.57583 0
M  V30 4256 C 401.793 -0.724682 1.93794 0
M  V30 4257 C 402.208 -1.68588 0.849912 0
M  V30 4258 O 401.565 -1.81676 -0.173204 0
M  V30 4259 C 401.616 -1.47684 3.29957 0
M  V30 4260 O 401.337 -0.554222 4.3458 0
M  V30 4261 C 402.838 -2.27477 3.80485 0
M  V30 4262 H 400.058 -0.203317 0.639455 0
M  V30 4263 H 402.602 0.0207653 2.04489 0
M  V30 4264 H 400.757 -2.17412 3.20641 0
M  V30 4265 H 401.171 -1.08232 5.13212 0
M  V30 4266 H 402.645 -2.7564 4.78254 0
M  V30 4267 H 403.122 -3.09144 3.11972 0
M  V30 4268 H 403.728 -1.62813 3.92902 0
M  V30 4269 N 402.043 -1.548 -0.295768 0
M  V30 4270 C 403.32 -1.65014 -1.05023 0
M  V30 4271 C 403.7 -0.501805 -2.05049 0
M  V30 4272 O 403.048 0.500869 -2.22943 0
M  V30 4273 C 403.258 -3.03252 -1.72741 0
M  V30 4274 C 404.606 -3.60242 -2.24746 0
M  V30 4275 O 405.63 -3.05737 -1.82765 0
M  V30 4276 O 404.489 -4.55687 -3.01681 0
M  V30 4277 H 401.583 -0.669314 -0.485744 0
M  V30 4278 H 404.129 -1.67144 -0.293438 0
M  V30 4279 H 402.901 -3.7827 -1.00138 0
M  V30 4280 H 402.524 -3.04922 -2.55163 0
M  V30 4281 N 403.521 0.559213 -1.47345 0
M  V30 4282 C 404.471 1.66192 -1.5609 0
M  V30 4283 C 405.455 1.55323 -0.419957 0
M  V30 4284 O 406.647 1.63839 -0.669762 0
M  V30 4285 C 403.776 3.0497 -1.57634 0
M  V30 4286 C 402.862 3.2105 -2.77106 0
M  V30 4287 N 403.253 3.07203 -4.01821 0
M  V30 4288 C 401.551 3.52046 -2.73825 0
M  V30 4289 C 402.252 3.25919 -4.81821 0
M  V30 4290 N 401.228 3.52161 -4.14106 0
M  V30 4291 H 405.03 1.54052 -2.5029 0
M  V30 4292 H 402.544 0.763914 -1.43311 0
M  V30 4293 H 404.541 3.84142 -1.61989 0
M  V30 4294 H 403.201 3.18224 -0.645281 0
M  V30 4295 H 404.212 2.84572 -4.32711 0
M  V30 4296 H 400.889 3.71839 -1.89848 0
M  V30 4297 H 402.279 3.20198 -5.90697 0
M  V30 4298 N 404.999 1.35443 0.805782 0
M  V30 4299 C 406.41 1.25768 1.37983 0
M  V30 4300 C 406.761 -0.10958 1.95894 0
M  V30 4301 O 405.886 -1.01056 1.91355 0
M  V30 4302 C 406.481 2.27727 2.5085 0
M  V30 4303 C 405.04 2.2179 3.04115 0
M  V30 4304 C 404.187 2.13393 1.77084 0
M  V30 4305 H 407.138 1.4656 0.608752 0
M  V30 4306 H 407.159 1.90422 3.29424 0
M  V30 4307 H 406.671 3.27227 2.08671 0
M  V30 4308 H 404.772 1.25703 3.50756 0
M  V30 4309 H 404.885 3.13788 3.62042 0
M  V30 4310 H 403.249 1.59384 1.98668 0
M  V30 4311 H 404.032 3.14755 1.37056 0
M  V30 4312 N 406.477 -1.02803 1.19454 0
M  V30 4313 C 407.424 -2.11099 0.933046 0
M  V30 4314 C 408.394 -1.65571 -0.132447 0
M  V30 4315 O 409.579 -1.90797 0.00987576 0
M  V30 4316 C 406.719 -3.41763 0.478747 0
M  V30 4317 C 405.832 -4.00833 1.6111 0
M  V30 4318 C 404.967 -5.19511 1.10825 0
M  V30 4319 C 404.006 -5.70639 2.21445 0
M  V30 4320 N 403.143 -6.80589 1.72461 0
M  V30 4321 H 407.983 -2.32804 1.86028 0
M  V30 4322 H 405.52 -1.14179 0.927441 0
M  V30 4323 H 407.478 -4.16736 0.196745 0
M  V30 4324 H 406.108 -3.20166 -0.411493 0
M  V30 4325 H 405.16 -3.23066 2.00829 0
M  V30 4326 H 406.472 -4.34794 2.4445 0
M  V30 4327 H 405.626 -6.01645 0.781533 0
M  V30 4328 H 404.365 -4.87086 0.244606 0
M  V30 4329 H 403.37 -4.87116 2.54947 0
M  V30 4330 H 404.595 -6.05102 3.08267 0
M  V30 4331 H 402.541 -6.50016 0.884056 0
M  V30 4332 H 402.458 -7.13681 2.49389 0
M  V30 4333 H 403.726 -7.66317 1.42755 0
M  V30 4334 N 407.956 -0.998596 -1.21925 0
M  V30 4335 C 409.202 -0.678667 -1.91107 0
M  V30 4336 C 409.535 0.78791 -1.77498 0
M  V30 4337 O 408.81 1.57043 -1.1475 0
M  V30 4338 C 409.093 -1.09245 -3.43129 0
M  V30 4339 C 408.946 -2.61801 -3.6576 0
M  V30 4340 C 410.265 -0.649984 -4.35274 0
M  V30 4341 H 407.384 -0.248025 -0.694012 0
M  V30 4342 H 410.026 -1.24314 -1.43688 0
M  V30 4343 H 408.176 -0.612171 -3.83647 0
M  V30 4344 H 409.848 -3.17543 -3.34611 0
M  V30 4345 H 408.091 -3.03609 -3.09845 0
M  V30 4346 H 408.762 -2.85804 -4.7225 0
M  V30 4347 H 411.238 -1.0626 -4.02303 0
M  V30 4348 H 410.114 -0.967743 -5.40302 0
M  V30 4349 H 410.375 0.449139 -4.39813 0
M  V30 4350 N 409.434 1.37368 -0.772513 0
M  V30 4351 C 410.344 2.34053 -0.160081 0
M  V30 4352 C 411.36 1.60216 0.678728 0
M  V30 4353 O 412.536 1.92303 0.59847 0
M  V30 4354 C 409.601 3.3939 0.708182 0
M  V30 4355 C 408.662 4.29048 -0.147172 0
M  V30 4356 C 407.895 5.29354 0.679744 0
M  V30 4357 O 408.118 5.3723 1.91678 0
M  V30 4358 O 407.052 6.01835 0.0885444 0
M  V30 4359 H 410.878 2.88159 -0.959053 0
M  V30 4360 H 408.463 1.39543 -0.533685 0
M  V30 4361 H 410.345 4.03839 1.20384 0
M  V30 4362 H 409.02 2.8761 1.48533 0
M  V30 4363 H 407.927 3.67697 -0.689205 0
M  V30 4364 H 409.26 4.84134 -0.887423 0
M  V30 4365 N 410.912 0.523116 1.48665 0
M  V30 4366 C 412.189 -0.0775449 1.95446 0
M  V30 4367 C 412.569 -1.5197 1.4652 0
M  V30 4368 O 411.917 -2.17876 0.688657 0
M  V30 4369 C 412.127 0.0326135 3.48985 0
M  V30 4370 C 413.475 -0.130141 4.24401 0
M  V30 4371 O 414.499 -0.0415142 3.56176 0
M  V30 4372 O 413.358 -0.31491 5.45592 0
M  V30 4373 H 410.452 -0.0831012 0.822814 0
M  V30 4374 H 412.998 0.587227 1.59216 0
M  V30 4375 H 411.77 1.03748 3.77296 0
M  V30 4376 H 411.393 -0.671317 3.91892 0
M  V30 4377 N 412.39 -1.55475 0.257931 0
M  V30 4378 C 413.636 -1.99502 -0.364266 0
M  V30 4379 C 413.969 -1.146 -1.56782 0
M  V30 4380 O 413.244 -0.211968 -1.93342 0
M  V30 4381 C 413.527 -3.51917 -0.763333 0
M  V30 4382 C 413.38 -4.4758 0.446371 0
M  V30 4383 C 414.699 -4.09742 -1.60623 0
M  V30 4384 H 411.818 -0.725277 -0.130929 0
M  V30 4385 H 414.46 -1.8653 0.361446 0
M  V30 4386 H 412.61 -3.63101 -1.38166 0
M  V30 4387 H 414.282 -4.48362 1.08487 0
M  V30 4388 H 412.525 -4.19947 1.08753 0
M  V30 4389 H 413.196 -5.51862 0.123645 0
M  V30 4390 H 415.672 -4.01727 -1.08418 0
M  V30 4391 H 414.548 -5.16631 -1.85429 0
M  V30 4392 H 414.809 -3.58889 -2.58169 0
M  V30 4393 N 413.868 0.0150385 -1.57593 0
M  V30 4394 C 415.096 0.714395 -1.94175 0
M  V30 4395 C 415.511 1.68135 -0.858841 0
M  V30 4396 O 414.868 1.81766 0.163567 0
M  V30 4397 C 414.919 1.45933 -3.30735 0
M  V30 4398 O 414.64 0.531167 -4.34868 0
M  V30 4399 C 416.141 2.25456 -3.81686 0
M  V30 4400 H 413.361 0.199923 -0.640525 0
M  V30 4401 H 415.905 -0.0316096 -2.04476 0
M  V30 4402 H 414.06 2.15709 -3.21789 0
M  V30 4403 H 414.474 1.05509 -5.13778 0
M  V30 4404 H 415.948 2.731 -4.79709 0
M  V30 4405 H 416.425 3.07485 -3.13607 0
M  V30 4406 H 417.031 1.60727 -3.9376 0
M  V30 4407 N 415.346 1.54954 0.287554 0
M  V30 4408 C 416.256 1.8991 1.37736 0
M  V30 4409 C 417.272 0.794701 1.54792 0
M  V30 4410 O 418.448 1.09243 1.69198 0
M  V30 4411 C 415.513 2.15108 2.71899 0
M  V30 4412 C 414.574 3.38752 2.63715 0
M  V30 4413 C 413.807 3.62739 3.91479 0
M  V30 4414 O 414.03 2.89492 4.91478 0
M  V30 4415 O 412.964 4.56267 3.92561 0
M  V30 4416 H 416.79 2.82652 1.11092 0
M  V30 4417 H 414.375 1.41315 0.484807 0
M  V30 4418 H 416.257 2.32806 3.51254 0
M  V30 4419 H 414.932 1.25551 2.9836 0
M  V30 4420 H 413.839 3.26405 1.82786 0
M  V30 4421 H 415.172 4.28483 2.42205 0
M  V30 4422 N 416.824 -0.551391 1.4764 0
M  V30 4423 C 417.734 -1.68525 1.63207 0
M  V30 4424 C 418.75 -1.6621 0.514815 0
M  V30 4425 O 419.926 -1.85551 0.783113 0
M  V30 4426 C 416.991 -3.05025 1.64805 0
M  V30 4427 C 416.052 -3.18362 2.88 0
M  V30 4428 C 415.285 -4.4835 2.89513 0
M  V30 4429 O 415.508 -5.34163 2.00065 0
M  V30 4430 O 414.442 -4.65602 3.81443 0
M  V30 4431 H 418.268 -1.58333 2.59161 0
M  V30 4432 H 415.853 -0.722063 1.30792 0
M  V30 4433 H 417.735 -3.86245 1.68502 0
M  V30 4434 H 416.41 -3.15587 0.720197 0
M  V30 4435 H 415.317 -2.36518 2.89845 0
M  V30 4436 H 416.65 -3.12707 3.80099 0
M  V30 4437 N 418.302 -1.35869 -0.798587 0
M  V30 4438 C 419.232 -1.32118 -1.92528 0
M  V30 4439 C 420.213 -0.194209 -1.68988 0
M  V30 4440 O 421.398 -0.390426 -1.90235 0
M  V30 4441 C 418.528 -1.10047 -3.29404 0
M  V30 4442 C 417.482 -2.19471 -3.67446 0
M  V30 4443 C 416.808 -1.82555 -5.02571 0
M  V30 4444 C 418.108 -3.61495 -3.76987 0
M  V30 4445 H 419.802 -2.26394 -1.95924 0
M  V30 4446 H 417.348 -1.08981 -0.94123 0
M  V30 4447 H 419.301 -1.06061 -4.07835 0
M  V30 4448 H 418.025 -0.122195 -3.26371 0
M  V30 4449 H 416.684 -2.22568 -2.91306 0
M  V30 4450 H 416.332 -0.833249 -4.9605 0
M  V30 4451 H 416.032 -2.5581 -5.28995 0
M  V30 4452 H 417.556 -1.80108 -5.83432 0
M  V30 4453 H 418.97 -3.60676 -4.4563 0
M  V30 4454 H 417.367 -4.33577 -4.14887 0
M  V30 4455 H 418.437 -3.97065 -2.78329 0
M  V30 4456 N 419.78 1.02168 -1.19998 0
M  V30 4457 C 420.69 2.14069 -0.959774 0
M  V30 4458 C 421.706 1.73804 0.082655 0
M  V30 4459 O 422.882 2.01133 -0.103633 0
M  V30 4460 C 419.947 3.42936 -0.509459 0
M  V30 4461 C 419.008 3.97474 -1.62213 0
M  V30 4462 C 418.241 5.2019 -1.19321 0
M  V30 4463 O 418.464 5.70369 -0.0597726 0
M  V30 4464 O 417.398 5.67749 -1.99863 0
M  V30 4465 H 421.224 2.37199 -1.89658 0
M  V30 4466 H 418.809 1.12469 -0.983411 0
M  V30 4467 H 420.691 4.20551 -0.267322 0
M  V30 4468 H 419.366 3.21234 0.398821 0
M  V30 4469 H 418.273 3.21161 -1.9185 0
M  V30 4470 H 419.606 4.23555 -2.50723 0
M  V30 4471 N 421.258 1.00505 1.21394 0
M  V30 4472 C 422.206 0.558623 2.25792 0
M  V30 4473 C 423.2 -0.396848 1.64686 0
M  V30 4474 O 424.406 -0.268035 1.77993 0
M  V30 4475 H 420.781 0.1623 0.734277 0
M  V30 4476 H 422.752 1.4503 2.60785 0
M  V30 4477 C 421.501 -0.0989574 3.47559 0
M  V30 4478 H 420.824 0.627225 3.94849 0
M  V30 4479 H 422.264 -0.3746 4.22342 0
M  V30 4480 C 420.723 -1.33817 3.09184 0
M  V30 4481 O 421.253 -2.43252 3.19674 0
M  V30 4482 N 419.459 -1.21793 2.63846 0
M  V30 4483 H 419.006 -0.32746 2.5551 0
M  V30 4484 H 418.964 -2.04809 2.38539 0
M  V30 4485 N 422.737 -1.36956 0.779787 0
M  V30 4486 C 423.7 -2.2851 0.177662 0
M  V30 4487 C 424.7 -1.48393 -0.619377 0
M  V30 4488 O 425.89 -1.68505 -0.441785 0
M  V30 4489 C 423.022 -3.32428 -0.755279 0
M  V30 4490 H 424.215 -2.83269 0.984823 0
M  V30 4491 H 421.768 -1.46358 0.548544 0
M  V30 4492 H 422.503 -2.82808 -1.58714 0
M  V30 4493 H 422.288 -3.91659 -0.185817 0
M  V30 4494 H 423.778 -4.00824 -1.17174 0
M  V30 4495 N 424.215 -0.530993 -1.48385 0
M  V30 4496 C 425.125 0.23503 -2.3342 0
M  V30 4497 C 426.141 0.93801 -1.46552 0
M  V30 4498 O 427.317 0.912745 -1.7953 0
M  V30 4499 C 424.382 1.26778 -3.22689 0
M  V30 4500 C 423.443 0.575038 -4.25431 0
M  V30 4501 C 422.676 1.55858 -5.10435 0
M  V30 4502 O 422.899 2.79129 -4.97437 0
M  V30 4503 O 421.833 1.09742 -5.91811 0
M  V30 4504 H 425.659 -0.461794 -3.00169 0
M  V30 4505 H 423.244 -0.291903 -1.46521 0
M  V30 4506 H 425.126 1.86457 -3.77904 0
M  V30 4507 H 423.801 1.94699 -2.586 0
M  V30 4508 H 422.708 -0.0622782 -3.74048 0
M  V30 4509 H 424.041 -0.062253 -4.92161 0
M  V30 4510 N 425.693 1.55336 -0.266172 0
M  V30 4511 C 426.64 2.22172 0.625165 0
M  V30 4512 C 427.61 1.19211 1.15663 0
M  V30 4513 O 428.795 1.47723 1.20758 0
M  V30 4514 C 425.935 2.93972 1.8076 0
M  V30 4515 C 425.048 4.11632 1.31084 0
M  V30 4516 C 424.183 4.71099 2.45436 0
M  V30 4517 C 423.222 5.8097 1.92718 0
M  V30 4518 N 422.359 6.34538 3.00509 0
M  V30 4519 H 427.199 2.9796 0.0485582 0
M  V30 4520 H 424.736 1.47095 0.0122024 0
M  V30 4521 H 426.694 3.33811 2.50251 0
M  V30 4522 H 425.324 2.20623 2.35638 0
M  V30 4523 H 424.376 3.76975 0.509326 0
M  V30 4524 H 425.688 4.90893 0.884633 0
M  V30 4525 H 424.842 5.13612 3.22936 0
M  V30 4526 H 423.581 3.91096 2.91368 0
M  V30 4527 H 422.586 5.37916 1.13695 0
M  V30 4528 H 423.811 6.62836 1.47733 0
M  V30 4529 H 421.757 5.57433 3.45839 0
M  V30 4530 H 421.674 7.09046 2.62279 0
M  V30 4531 H 422.942 6.81709 3.78011 0
M  V30 4532 N 427.171 -0.0066808 1.57599 0
M  V30 4533 C 428.118 -1.00024 2.08 0
M  V30 4534 C 429.088 -1.34549 0.973943 0
M  V30 4535 O 430.273 -1.44502 1.24595 0
M  V30 4536 C 427.413 -2.2891 2.58252 0
M  V30 4537 C 426.526 -2.00346 3.82734 0
M  V30 4538 C 425.661 -3.23265 4.21513 0
M  V30 4539 C 424.7 -2.90357 5.3885 0
M  V30 4540 N 423.837 -4.05793 5.72954 0
M  V30 4541 H 428.677 -0.563499 2.92624 0
M  V30 4542 H 426.214 -0.266592 1.44664 0
M  V30 4543 H 428.172 -3.04247 2.85464 0
M  V30 4544 H 426.802 -2.70265 1.76512 0
M  V30 4545 H 425.854 -1.15406 3.62471 0
M  V30 4546 H 427.166 -1.72086 4.68175 0
M  V30 4547 H 426.32 -4.06953 4.49971 0
M  V30 4548 H 425.059 -3.54657 3.34768 0
M  V30 4549 H 424.064 -2.05075 5.10122 0
M  V30 4550 H 425.289 -2.60219 6.27266 0
M  V30 4551 H 423.235 -4.37094 4.89167 0
M  V30 4552 H 423.152 -3.81034 6.52954 0
M  V30 4553 H 424.42 -4.90289 6.06001 0
M  V30 4554 N 428.649 -1.55105 -0.279332 0
M  V30 4555 C 429.596 -1.8755 -1.34513 0
M  V30 4556 C 430.566 -0.726384 -1.49375 0
M  V30 4557 O 431.751 -0.977063 -1.63884 0
M  V30 4558 C 428.891 -2.14738 -2.70151 0
M  V30 4559 C 428.004 -3.42285 -2.63562 0
M  V30 4560 C 427.139 -3.59206 -3.91337 0
M  V30 4561 C 426.178 -4.80467 -3.79233 0
M  V30 4562 N 425.315 -4.94079 -4.98829 0
M  V30 4563 H 430.155 -2.78456 -1.06143 0
M  V30 4564 H 427.692 -1.37867 -0.512936 0
M  V30 4565 H 429.65 -2.28501 -3.49061 0
M  V30 4566 H 428.28 -1.27075 -2.96735 0
M  V30 4567 H 427.332 -3.37029 -1.76397 0
M  V30 4568 H 428.644 -4.31328 -2.50515 0
M  V30 4569 H 427.798 -3.72751 -4.78687 0
M  V30 4570 H 426.537 -2.68337 -4.07243 0
M  V30 4571 H 425.542 -4.66932 -2.90266 0
M  V30 4572 H 426.767 -5.72765 -3.64852 0
M  V30 4573 H 424.713 -4.06139 -5.15158 0
M  V30 4574 H 424.63 -5.77156 -4.8829 0
M  V30 4575 H 425.898 -5.12003 -5.8777 0
M  V30 4576 N 430.127 0.543554 -1.4793 0
M  V30 4577 C 431.074 1.64942 -1.6144 0
M  V30 4578 C 432.044 1.59692 -0.456903 0
M  V30 4579 O 433.229 1.78321 -0.678688 0
M  V30 4580 C 430.369 3.03238 -1.64744 0
M  V30 4581 C 429.482 3.18823 -2.91506 0
M  V30 4582 C 428.617 4.47599 -2.86057 0
M  V30 4583 C 427.656 4.56664 -4.07584 0
M  V30 4584 N 426.793 5.76811 -4.00292 0
M  V30 4585 H 431.633 1.52733 -2.55884 0
M  V30 4586 H 429.17 0.7438 -1.2691 0
M  V30 4587 H 431.128 3.83339 -1.64641 0
M  V30 4588 H 429.758 3.1425 -0.738017 0
M  V30 4589 H 428.81 2.32064 -3.01414 0
M  V30 4590 H 430.122 3.21384 -3.81463 0
M  V30 4591 H 429.276 5.35975 -2.84281 0
M  V30 4592 H 428.015 4.47538 -1.93807 0
M  V30 4593 H 427.02 3.66697 -4.09651 0
M  V30 4594 H 428.245 4.58474 -5.00978 0
M  V30 4595 H 426.191 5.77673 -3.10853 0
M  V30 4596 H 426.108 5.80808 -4.8394 0
M  V30 4597 H 427.376 6.67512 -4.02553 0
M  V30 4598 N 431.605 1.3629 0.791371 0
M  V30 4599 C 432.515 1.32606 1.93527 0
M  V30 4600 C 433.531 0.228541 1.72493 0
M  V30 4601 O 434.707 0.460571 1.96063 0
M  V30 4602 C 431.772 1.11271 3.28359 0
M  V30 4603 C 430.833 2.3048 3.62185 0
M  V30 4604 C 430.066 2.10154 4.90583 0
M  V30 4605 O 430.289 1.07572 5.60165 0
M  V30 4606 O 429.223 2.97884 5.23019 0
M  V30 4607 H 433.049 2.28909 1.99585 0
M  V30 4608 H 430.634 1.16818 0.931344 0
M  V30 4609 H 432.516 1.01283 4.09047 0
M  V30 4610 H 431.191 0.180292 3.23198 0
M  V30 4611 H 430.098 2.46036 2.81811 0
M  V30 4612 H 431.431 3.22221 3.72068 0
M  V30 4613 N 433.083 -1.0153 1.20538 0
M  V30 4614 C 434.03 -2.10098 0.955383 0
M  V30 4615 C 435 -1.65702 -0.114878 0
M  V30 4616 O 436.185 -1.90776 0.0301118 0
M  V30 4617 C 433.325 -3.41236 0.514969 0
M  V30 4618 C 432.438 -3.99102 1.65353 0
M  V30 4619 C 431.573 -5.18306 1.16329 0
M  V30 4620 C 430.612 -5.68258 2.27485 0
M  V30 4621 N 429.749 -6.78722 1.7967 0
M  V30 4622 H 434.589 -2.30818 1.88486 0
M  V30 4623 H 432.126 -1.13189 0.939499 0
M  V30 4624 H 434.084 -4.16504 0.240935 0
M  V30 4625 H 432.714 -3.20585 -0.377512 0
M  V30 4626 H 431.766 -3.20918 2.04245 0
M  V30 4627 H 433.078 -4.32177 2.49047 0
M  V30 4628 H 432.232 -6.00782 0.845302 0
M  V30 4629 H 430.971 -4.86799 0.296254 0
M  V30 4630 H 429.976 -4.84385 2.60099 0
M  V30 4631 H 431.201 -6.01798 3.14667 0
M  V30 4632 H 429.147 -6.49042 0.95295 0
M  V30 4633 H 429.064 -7.10996 2.56944 0
M  V30 4634 H 430.332 -7.64759 1.50875 0
M  V30 4635 N 434.561 -1.01147 -1.20859 0
M  V30 4636 C 435.977 -0.725422 -1.42161 0
M  V30 4637 C 436.177 0.696919 -1.89064 0
M  V30 4638 O 435.233 1.46539 -2.05627 0
M  V30 4639 C 436.546 -1.74678 -2.44761 0
M  V30 4640 C 438.094 -1.76433 -2.58535 0
M  V30 4641 C 438.569 -2.77481 -3.64374 0
M  V30 4642 N 440.06 -2.76189 -3.71852 0
M  V30 4643 C 440.795 -3.51035 -4.53389 0
M  V30 4644 N 440.291 -4.35541 -5.38773 0
M  V30 4645 N 442.084 -3.39655 -4.47873 0
M  V30 4646 H 434.235 -1.92979 -0.887282 0
M  V30 4647 H 436.498 -0.833327 -0.451962 0
M  V30 4648 H 436.204 -2.76551 -2.17285 0
M  V30 4649 H 436.078 -1.55472 -3.43669 0
M  V30 4650 H 438.465 -0.75248 -2.85345 0
M  V30 4651 H 438.546 -1.99712 -1.5984 0
M  V30 4652 H 438.19 -3.78827 -3.38308 0
M  V30 4653 H 438.12 -2.51466 -4.6268 0
M  V30 4654 H 440.611 -2.14885 -3.10858 0
M  V30 4655 H 440.924 -4.89432 -5.98061 0
M  V30 4656 H 439.269 -4.39621 -5.38292 0
M  V30 4657 H 442.46 -2.73063 -3.80203 0
M  V30 4658 H 442.633 -3.9824 -5.11184 0
M  V30 4659 N 436.039 1.36541 -0.78704 0
M  V30 4660 C 436.986 2.30082 -0.181901 0
M  V30 4661 C 437.956 1.5186 0.672896 0
M  V30 4662 O 439.141 1.80374 0.622072 0
M  V30 4663 C 436.281 3.3835 0.679197 0
M  V30 4664 C 435.394 4.31565 -0.193882 0
M  V30 4665 C 434.529 5.26915 0.673364 0
M  V30 4666 C 433.568 6.11769 -0.201315 0
M  V30 4667 N 432.705 6.99315 0.624777 0
M  V30 4668 H 437.545 2.81248 -0.985064 0
M  V30 4669 H 435.082 1.38437 -0.497342 0
M  V30 4670 H 437.04 3.99767 1.19341 0
M  V30 4671 H 435.67 2.8851 1.44781 0
M  V30 4672 H 434.722 3.71323 -0.826044 0
M  V30 4673 H 436.034 4.91191 -0.867937 0
M  V30 4674 H 435.188 5.9361 1.25348 0
M  V30 4675 H 433.927 4.67737 1.38105 0
M  V30 4676 H 432.932 5.44039 -0.793849 0
M  V30 4677 H 434.157 6.73022 -0.906568 0
M  V30 4678 H 432.103 6.42648 1.3168 0
M  V30 4679 H 432.02 7.56 0.00835237 0
M  V30 4680 H 433.288 7.70382 1.18879 0
M  V30 4681 N 437.518 0.538854 1.48102 0
M  V30 4682 C 438.465 -0.219042 2.29758 0
M  V30 4683 C 439.435 -0.925562 1.37922 0
M  V30 4684 O 440.62 -0.924855 1.66886 0
M  V30 4685 C 437.76 -1.25452 3.2149 0
M  V30 4686 C 436.873 -0.555943 4.28408 0
M  V30 4687 C 436.008 -1.57512 5.0731 0
M  V30 4688 C 435.047 -0.860498 6.06021 0
M  V30 4689 N 434.184 -1.82564 6.77949 0
M  V30 4690 H 439.024 0.483449 2.94052 0
M  V30 4691 H 436.561 0.250247 1.44956 0
M  V30 4692 H 438.519 -1.86727 3.7308 0
M  V30 4693 H 437.149 -1.92528 2.591 0
M  V30 4694 H 436.201 0.170938 3.80016 0
M  V30 4695 H 437.513 0.00474616 4.988 0
M  V30 4696 H 436.667 -2.26191 5.62959 0
M  V30 4697 H 435.406 -2.16972 4.36778 0
M  V30 4698 H 434.411 -0.159686 5.49568 0
M  V30 4699 H 435.636 -0.271897 6.78555 0
M  V30 4700 H 433.582 -2.40915 6.10161 0
M  V30 4701 H 433.499 -1.31662 7.44447 0
M  V30 4702 H 434.767 -2.50414 7.38182 0
M  V30 4703 N 438.996 -1.55193 0.274407 0
M  V30 4704 C 439.943 -2.225 -0.613374 0
M  V30 4705 C 440.913 -1.19823 -1.15029 0
M  V30 4706 O 442.098 -1.48362 -1.19973 0
M  V30 4707 C 439.238 -2.94927 -1.79199 0
M  V30 4708 C 438.351 -4.12322 -1.28899 0
M  V30 4709 C 437.486 -4.72394 -2.42934 0
M  V30 4710 C 436.525 -5.81984 -1.89634 0
M  V30 4711 N 435.662 -6.36123 -2.9714 0
M  V30 4712 H 440.502 -2.97982 -0.032756 0
M  V30 4713 H 438.039 -1.47099 -0.00440146 0
M  V30 4714 H 439.997 -3.35134 -2.48478 0
M  V30 4715 H 438.627 -2.2187 -2.34465 0
M  V30 4716 H 437.679 -3.7724 -0.489327 0
M  V30 4717 H 438.991 -4.91355 -0.858587 0
M  V30 4718 H 438.145 -5.15317 -3.20208 0
M  V30 4719 H 436.884 -3.92636 -2.8929 0
M  V30 4720 H 435.889 -5.38511 -1.1084 0
M  V30 4721 H 437.114 -6.6361 -1.44215 0
M  V30 4722 H 435.06 -5.59259 -3.42878 0
M  V30 4723 H 434.977 -7.10427 -2.58515 0
M  V30 4724 H 436.245 -6.83704 -3.74391 0
M  V30 4725 N 440.474 -0.00167713 -1.576 0
M  V30 4726 C 441.723 0.682021 -1.89819 0
M  V30 4727 C 442.036 1.74844 -0.876871 0
M  V30 4728 O 443.242 2.48688 -1.08934 0
M  V30 4729 C 441.698 1.26425 -3.36964 0
M  V30 4730 C 441.306 0.232568 -4.47396 0
M  V30 4731 C 443.05 1.92604 -3.78291 0
M  V30 4732 C 440.957 0.824882 -5.85619 0
M  V30 4733 H 439.887 0.258499 -0.708304 0
M  V30 4734 H 442.538 -0.0624957 -1.83394 0
M  V30 4735 H 440.92 2.05949 -3.38232 0
M  V30 4736 H 442.094 -0.5382 -4.57646 0
M  V30 4737 H 440.409 -0.32888 -4.15099 0
M  V30 4738 H 443.006 2.37827 -4.78897 0
M  V30 4739 H 443.349 2.75732 -3.11894 0
M  V30 4740 H 443.882 1.19812 -3.79328 0
M  V30 4741 H 440.621 0.0323542 -6.55492 0
M  V30 4742 H 440.141 1.56477 -5.79029 0
M  V30 4743 H 441.82 1.32301 -6.33329 0
M  V30 4744 N 441.952 1.55251 0.271103 0
M  V30 4745 C 442.902 1.84649 1.33749 0
M  V30 4746 C 443.886 0.705529 1.44607 0
M  V30 4747 O 445.078 0.966916 1.48256 0
M  V30 4748 C 442.207 2.12354 2.69742 0
M  V30 4749 C 441.293 3.32714 2.62988 0
M  V30 4750 N 441.684 4.52575 2.25853 0
M  V30 4751 C 439.982 3.35341 2.94045 0
M  V30 4752 C 440.683 5.34669 2.29136 0
M  V30 4753 N 439.659 4.73123 2.67685 0
M  V30 4754 H 443.461 2.74865 1.0405 0
M  V30 4755 H 440.975 1.55152 0.479738 0
M  V30 4756 H 442.972 2.31572 3.4667 0
M  V30 4757 H 441.632 1.23422 3.00328 0
M  V30 4758 H 442.643 4.78639 1.978 0
M  V30 4759 H 439.32 2.56608 3.2933 0
M  V30 4760 H 440.71 6.40509 2.02971 0
M  V30 4761 N 443.43 -0.535701 1.48216 0
M  V30 4762 C 444.658 -1.31671 1.59594 0
M  V30 4763 C 445.073 -1.87083 0.254056 0
M  V30 4764 O 444.43 -1.66112 -0.755854 0
M  V30 4765 C 444.481 -2.47158 2.63809 0
M  V30 4766 O 444.202 -1.94032 3.92789 0
M  V30 4767 C 445.703 -3.39062 2.85573 0
M  V30 4768 H 442.923 -0.400623 0.538277 0
M  V30 4769 H 445.467 -0.646827 1.94001 0
M  V30 4770 H 443.622 -3.10043 2.32276 0
M  V30 4771 H 444.036 -2.69585 4.49916 0
M  V30 4772 H 445.51 -4.16459 3.62306 0
M  V30 4773 H 445.987 -3.93941 1.94184 0
M  V30 4774 H 446.593 -2.81975 3.18387 0
M  V30 4775 N 444.908 -1.36708 -0.784132 0
M  V30 4776 C 446.154 -1.31426 -1.54451 0
M  V30 4777 C 446.487 0.10476 -1.93917 0
M  V30 4778 O 445.762 1.05934 -1.6312 0
M  V30 4779 C 446.045 -2.24189 -2.818 0
M  V30 4780 C 445.898 -3.74813 -2.48667 0
M  V30 4781 C 447.217 -2.15626 -3.83658 0
M  V30 4782 H 444.336 -0.478739 -0.560337 0
M  V30 4783 H 446.978 -1.67305 -0.900498 0
M  V30 4784 H 445.128 -1.93722 -3.36755 0
M  V30 4785 H 446.8 -4.15823 -1.99722 0
M  V30 4786 H 445.043 -3.93989 -1.81535 0
M  V30 4787 H 445.714 -4.35138 -3.39646 0
M  V30 4788 H 448.19 -2.42456 -3.38163 0
M  V30 4789 H 447.066 -2.82694 -4.70506 0
M  V30 4790 H 447.327 -1.14522 -4.27009 0
M  V30 4791 N 446.386 1.0089 -1.21074 0
M  V30 4792 C 447.296 2.13039 -0.982425 0
M  V30 4793 C 448.312 1.73881 0.0642161 0
M  V30 4794 O 449.488 2.01012 -0.12496 0
M  V30 4795 C 446.553 3.42377 -0.545803 0
M  V30 4796 C 445.614 3.95731 -1.6642 0
M  V30 4797 C 444.847 5.18896 -1.24832 0
M  V30 4798 O 445.07 5.70273 -0.120265 0
M  V30 4799 O 444.004 5.65597 -2.05873 0
M  V30 4800 H 447.83 2.35175 -1.92163 0
M  V30 4801 H 445.415 1.1142 -0.995285 0
M  V30 4802 H 447.297 4.20244 -0.311912 0
M  V30 4803 H 445.972 3.21639 0.364727 0
M  V30 4804 H 444.879 3.19108 -1.95246 0
M  V30 4805 H 446.212 4.20872 -2.55201 0
M  V30 4806 N 447.864 1.01787 1.20321 0
M  V30 4807 C 448.814 0.559976 2.21016 0
M  V30 4808 C 449.798 -0.385366 1.56217 0
M  V30 4809 O 450.99 -0.208126 1.75772 0
M  V30 4810 C 448.119 -0.0990553 3.43157 0
M  V30 4811 C 447.205 0.86807 4.15121 0
M  V30 4812 N 447.596 2.0261 4.63447 0
M  V30 4813 C 445.894 0.689162 4.40643 0
M  V30 4814 C 446.595 2.63518 5.18588 0
M  V30 4815 N 445.571 1.91569 5.08726 0
M  V30 4816 H 449.373 1.44281 2.56048 0
M  V30 4817 H 446.887 0.883381 1.36272 0
M  V30 4818 H 448.884 -0.444643 4.14522 0
M  V30 4819 H 447.544 -0.977709 3.0963 0
M  V30 4820 H 448.555 2.40598 4.58621 0
M  V30 4821 H 445.232 -0.14133 4.17261 0
M  V30 4822 H 446.622 3.61527 5.66346 0
M  V30 4823 N 449.342 -1.36122 0.79427 0
M  V30 4824 C 450.252 -2.33769 0.197296 0
M  V30 4825 C 451.268 -1.61276 -0.653153 0
M  V30 4826 O 452.444 -1.9323 -0.5678 0
M  V30 4827 C 449.509 -3.40474 -0.654098 0
M  V30 4828 C 448.57 -4.28759 0.215411 0
M  V30 4829 C 447.803 -5.30368 -0.595443 0
M  V30 4830 O 448.026 -5.40211 -1.83107 0
M  V30 4831 O 446.96 -6.019 0.00721351 0
M  V30 4832 H 450.786 -2.86597 1.00478 0
M  V30 4833 H 448.371 -1.38676 0.555818 0
M  V30 4834 H 450.253 -4.05703 -1.13944 0
M  V30 4835 H 448.928 -2.89937 -1.43938 0
M  V30 4836 H 447.835 -3.66554 0.747615 0
M  V30 4837 H 449.168 -4.82661 0.964332 0
M  V30 4838 N 450.82 -0.546701 -1.47814 0
M  V30 4839 C 452.066 -0.0269594 -2.03382 0
M  V30 4840 C 452.421 1.30406 -1.41464 0
M  V30 4841 O 451.714 1.8332 -0.557151 0
M  V30 4842 C 451.908 0.134869 -3.57145 0
M  V30 4843 C 451.737 -1.17891 -4.33972 0
M  V30 4844 C 450.507 -1.74336 -4.74273 0
M  V30 4845 C 452.705 -2.09361 -4.69758 0
M  V30 4846 N 450.687 -2.99829 -5.35701 0
M  V30 4847 C 452.058 -3.19431 -5.31379 0
M  V30 4848 C 454.113 -2.09484 -4.51687 0
M  V30 4849 C 452.816 -4.2971 -5.76838 0
M  V30 4850 C 454.842 -3.18767 -4.98138 0
M  V30 4851 C 454.204 -4.27557 -5.59799 0
M  V30 4852 H 450.303 -0.0517733 -0.780284 0
M  V30 4853 H 452.887 -0.731673 -1.80429 0
M  V30 4854 H 451.058 0.80869 -3.79888 0
M  V30 4855 H 452.79 0.655726 -3.99352 0
M  V30 4856 H 449.545 -1.28265 -4.559 0
M  V30 4857 H 449.969 -3.63765 -5.70968 0
M  V30 4858 H 454.611 -1.26663 -4.03381 0
M  V30 4859 H 452.329 -5.13297 -6.24141 0
M  V30 4860 H 455.915 -3.19937 -4.85934 0
M  V30 4861 H 454.795 -5.10725 -5.95088 0
M  V30 4862 N 452.299 1.55045 -0.282633 0
M  V30 4863 C 453.209 2.26491 0.61147 0
M  V30 4864 C 454.225 1.29348 1.16384 0
M  V30 4865 O 455.401 1.62298 1.19253 0
M  V30 4866 C 452.466 2.97779 1.77563 0
M  V30 4867 C 451.527 4.10418 1.25919 0
M  V30 4868 C 450.76 4.78297 2.36786 0
M  V30 4869 O 450.983 4.45426 3.56303 0
M  V30 4870 O 449.917 5.66089 2.04517 0
M  V30 4871 H 453.743 3.03683 0.0324615 0
M  V30 4872 H 451.328 1.49317 -0.0497576 0
M  V30 4873 H 453.21 3.42554 2.45427 0
M  V30 4874 H 451.885 2.23498 2.34159 0
M  V30 4875 H 450.792 3.70082 0.546797 0
M  V30 4876 H 452.125 4.86622 0.738887 0
M  V30 4877 N 453.777 0.010035 1.57597 0
M  V30 4878 C 454.687 -0.994226 2.12491 0
M  V30 4879 C 455.703 -1.37013 1.07254 0
M  V30 4880 O 456.879 -1.45542 1.3921 0
M  V30 4881 C 453.944 -2.2642 2.62555 0
M  V30 4882 C 453.005 -1.95049 3.82432 0
M  V30 4883 C 452.238 -3.15991 4.30099 0
M  V30 4884 O 452.461 -4.28015 3.7704 0
M  V30 4885 O 451.395 -2.99403 5.22151 0
M  V30 4886 H 455.221 -0.557549 2.98538 0
M  V30 4887 H 452.806 -0.209413 1.47925 0
M  V30 4888 H 454.688 -3.01009 2.9491 0
M  V30 4889 H 453.363 -2.69306 1.796 0
M  V30 4890 H 452.27 -1.17904 3.55034 0
M  V30 4891 H 453.603 -1.56992 4.66491 0
M  V30 4892 N 455.255 -1.55392 -0.262866 0
M  V30 4893 C 456.185 -1.91978 -1.32917 0
M  V30 4894 C 457.166 -0.7828 -1.51017 0
M  V30 4895 O 458.351 -1.04178 -1.63892 0
M  V30 4896 C 455.481 -2.20055 -2.68687 0
M  V30 4897 C 454.435 -3.35854 -2.65304 0
M  V30 4898 C 453.761 -3.49435 -4.04721 0
M  V30 4899 C 455.061 -4.71977 -2.23685 0
M  V30 4900 H 456.755 -2.81292 -1.02544 0
M  V30 4901 H 454.301 -1.3534 -0.491846 0
M  V30 4902 H 456.254 -2.44237 -3.43404 0
M  V30 4903 H 454.978 -1.27551 -3.00663 0
M  V30 4904 H 453.637 -3.11655 -1.93045 0
M  V30 4905 H 453.285 -2.54379 -4.33936 0
M  V30 4906 H 452.985 -4.27297 -4.0335 0
M  V30 4907 H 454.509 -3.7592 -4.81161 0
M  V30 4908 H 455.923 -4.95637 -2.88127 0
M  V30 4909 H 454.32 -5.52828 -2.33456 0
M  V30 4910 H 455.39 -4.70115 -1.18827 0
M  V30 4911 N 456.733 0.527833 -1.48498 0
M  V30 4912 C 457.681 1.65313 -1.63628 0
M  V30 4913 C 458.675 1.6177 -0.502676 0
M  V30 4914 O 459.881 1.66601 -0.681469 0
M  V30 4915 H 456.256 0.547518 -0.515488 0
M  V30 4916 H 458.227 1.49696 -2.58135 0
M  V30 4917 C 456.976 3.03576 -1.6952 0
M  V30 4918 H 456.299 3.06997 -2.56111 0
M  V30 4919 H 457.739 3.81923 -1.84149 0
M  V30 4920 C 456.198 3.34089 -0.43432 0
M  V30 4921 O 456.728 3.99151 0.451852 0
M  V30 4922 N 454.934 2.88991 -0.305368 0
M  V30 4923 H 454.481 2.36222 -1.02747 0
M  V30 4924 H 454.439 3.09776 0.537249 0
M  V30 4925 N 458.211 1.37122 0.776871 0
M  V30 4926 C 459.158 1.3247 1.88998 0
M  V30 4927 C 460.128 0.191143 1.64997 0
M  V30 4928 O 461.313 0.379683 1.86984 0
M  V30 4929 C 458.453 1.13241 3.25992 0
M  V30 4930 C 457.566 2.35782 3.61982 0
M  V30 4931 C 456.701 2.09465 4.88158 0
M  V30 4932 C 455.74 3.279 5.16864 0
M  V30 4933 N 454.877 3.01167 6.34226 0
M  V30 4934 H 459.717 2.27642 1.9231 0
M  V30 4935 H 457.254 1.13125 0.94027 0
M  V30 4936 H 459.212 1.00115 4.0501 0
M  V30 4937 H 457.842 0.217186 3.22069 0
M  V30 4938 H 456.894 2.59666 2.77989 0
M  V30 4939 H 458.206 3.24125 3.79137 0
M  V30 4940 H 457.36 1.93341 5.75069 0
M  V30 4941 H 456.099 1.18452 4.73097 0
M  V30 4942 H 455.104 3.44569 4.2843 0
M  V30 4943 H 456.329 4.19757 5.33836 0
M  V30 4944 H 454.275 2.12779 6.20533 0
M  V30 4945 H 454.192 3.83052 6.51772 0
M  V30 4946 H 455.46 2.88649 7.24087 0
M  V30 4947 N 459.689 -1.00246 1.21608 0
M  V30 4948 C 460.621 -2.09244 0.935401 0
M  V30 4949 C 461.634 -1.62592 -0.0823594 0
M  V30 4950 O 462.823 -1.77865 0.150456 0
M  V30 4951 C 459.923 -3.36724 0.383453 0
M  V30 4952 C 459.096 -4.1245 1.45615 0
M  V30 4953 C 458.155 -5.18219 0.912991 0
M  V30 4954 O 457.181 -5.46337 1.59701 0
M  V30 4955 N 458.383 -5.7987 -0.270478 0
M  V30 4956 H 461.148 -2.33905 1.87373 0
M  V30 4957 H 458.709 -1.16748 1.12167 0
M  V30 4958 H 460.701 -4.047 0.00562157 0
M  V30 4959 H 459.271 -3.09201 -0.459758 0
M  V30 4960 H 458.491 -3.39241 2.00772 0
M  V30 4961 H 459.779 -4.59819 2.17817 0
M  V30 4962 H 459.177 -5.59381 -0.843195 0
M  V30 4963 H 457.734 -6.49126 -0.589794 0
M  V30 4964 N 461.167 -1.02423 -1.1978 0
M  V30 4965 C 462.114 -0.601023 -2.22837 0
M  V30 4966 C 463.084 0.382801 -1.61629 0
M  V30 4967 O 464.269 0.280514 -1.88727 0
M  V30 4968 C 461.409 0.0467755 -3.45068 0
M  V30 4969 C 460.522 -0.98253 -4.20678 0
M  V30 4970 C 459.657 -0.304982 -5.30324 0
M  V30 4971 C 458.696 -1.32052 -5.97686 0
M  V30 4972 N 457.833 -0.669105 -6.98904 0
M  V30 4973 H 462.673 -1.48444 -2.58396 0
M  V30 4974 H 460.21 -0.742936 -1.2696 0
M  V30 4975 H 462.168 0.439556 -4.14878 0
M  V30 4976 H 460.798 0.893796 -3.10179 0
M  V30 4977 H 459.85 -1.49341 -3.49859 0
M  V30 4978 H 461.162 -1.75455 -4.66923 0
M  V30 4979 H 460.316 0.142893 -6.06532 0
M  V30 4980 H 459.055 0.499283 -4.85138 0
M  V30 4981 H 458.06 -1.7787 -5.20233 0
M  V30 4982 H 459.285 -2.1262 -6.44957 0
M  V30 4983 H 457.231 0.115152 -6.55899 0
M  V30 4984 H 457.148 -1.37908 -7.43315 0
M  V30 4985 H 458.416 -0.245076 -7.79115 0
M  V30 4986 N 462.645 1.35699 -0.801477 0
M  V30 4987 C 464.056 1.81415 -0.441073 0
M  V30 4988 C 464.407 1.66595 1.03636 0
M  V30 4989 O 463.532 1.19369 1.80499 0
M  V30 4990 C 464.127 3.29369 -0.793819 0
M  V30 4991 C 462.686 3.73248 -0.486083 0
M  V30 4992 C 461.833 2.57775 -1.02213 0
M  V30 4993 H 464.784 1.23749 -0.993572 0
M  V30 4994 H 464.805 3.80395 -0.0894158 0
M  V30 4995 H 464.317 3.40123 -1.86917 0
M  V30 4996 H 462.418 3.68046 0.580735 0
M  V30 4997 H 462.531 4.68222 -1.01513 0
M  V30 4998 H 460.895 2.50788 -0.444712 0
M  V30 4999 H 461.678 2.71309 -2.10348 0
M  V30 5000 N 464.123 0.554532 1.47522 0
M  V30 5001 C 465.053 -0.182974 2.32782 0
M  V30 5002 C 466.034 -0.911377 1.43624 0
M  V30 5003 O 467.219 -0.892366 1.72483 0
M  V30 5004 C 464.349 -1.21513 3.25349 0
M  V30 5005 C 463.303 -0.603355 4.23726 0
M  V30 5006 C 462.629 -1.73995 5.05598 0
M  V30 5007 C 463.929 0.441121 5.20434 0
M  V30 5008 H 465.623 0.52882 2.94693 0
M  V30 5009 H 463.169 0.255759 1.41711 0
M  V30 5010 H 465.122 -1.73922 3.83835 0
M  V30 5011 H 463.846 -1.95683 2.61487 0
M  V30 5012 H 462.505 -0.10059 3.66462 0
M  V30 5013 H 462.153 -2.47063 4.38143 0
M  V30 5014 H 461.853 -1.3364 5.72201 0
M  V30 5015 H 463.377 -2.26735 5.66942 0
M  V30 5016 H 464.791 0.00319931 5.733 0
M  V30 5017 H 463.188 0.763402 5.95224 0
M  V30 5018 H 464.258 1.33799 4.66075 0
M  V30 5019 N 465.601 -1.54893 0.290851 0
M  V30 5020 C 466.847 -2.00949 -0.314784 0
M  V30 5021 C 467.202 -1.1757 -1.52299 0
M  V30 5022 O 466.495 -0.241558 -1.90071 0
M  V30 5023 C 466.689 -3.49815 -0.732397 0
M  V30 5024 C 466.518 -4.47603 0.433799 0
M  V30 5025 C 465.288 -4.96806 0.922599 0
M  V30 5026 C 467.486 -4.98233 1.27546 0
M  V30 5027 N 465.468 -5.78426 2.05662 0
M  V30 5028 C 466.839 -5.77455 2.25712 0
M  V30 5029 C 468.894 -4.80439 1.307 0
M  V30 5030 C 467.597 -6.40778 3.26796 0
M  V30 5031 C 469.623 -5.44574 2.30637 0
M  V30 5032 C 468.985 -6.23619 3.27533 0
M  V30 5033 H 465.084 -0.777905 -0.0799257 0
M  V30 5034 H 467.668 -1.9015 0.418458 0
M  V30 5035 H 465.839 -3.60925 -1.43483 0
M  V30 5036 H 467.571 -3.82681 -1.31671 0
M  V30 5037 H 464.326 -4.70961 0.49926 0
M  V30 5038 H 464.75 -6.23923 2.62772 0
M  V30 5039 H 469.392 -4.18918 0.571622 0
M  V30 5040 H 467.11 -7.01439 4.01258 0
M  V30 5041 H 470.696 -5.32739 2.33838 0
M  V30 5042 H 469.576 -6.72367 4.03599 0
M  V30 5043 N 467.08 -0.0183926 -1.57589 0
M  V30 5044 C 468.013 1.00148 -2.0505 0
M  V30 5045 C 468.991 1.32387 -0.944058 0
M  V30 5046 O 470.175 1.44237 -1.21358 0
M  V30 5047 C 467.302 2.32435 -2.46357 0
M  V30 5048 C 466.348 2.15731 -3.67916 0
M  V30 5049 S 467.181 1.46613 -5.15039 0
M  V30 5050 C 468.337 2.80293 -5.59631 0
M  V30 5051 H 468.57 0.597429 -2.91235 0
M  V30 5052 H 466.103 0.193002 -1.53189 0
M  V30 5053 H 468.061 3.0849 -2.70822 0
M  V30 5054 H 466.722 2.69975 -1.60537 0
M  V30 5055 H 465.915 3.13502 -3.9463 0
M  V30 5056 H 465.517 1.4782 -3.43548 0
M  V30 5057 H 467.809 3.76557 -5.63215 0
M  V30 5058 H 468.752 2.58256 -6.59325 0
M  V30 5059 H 469.16 2.85047 -4.87246 0
M  V30 5060 N 468.558 1.5553 0.254621 0
M  V30 5061 C 469.974 1.4778 0.602753 0
M  V30 5062 C 470.174 0.707047 1.88688 0
M  V30 5063 O 469.23 0.233288 2.5142 0
M  V30 5064 C 470.543 2.92133 0.712648 0
M  V30 5065 C 472.091 3.02458 0.805488 0
M  V30 5066 C 472.566 4.48102 0.947009 0
M  V30 5067 N 474.057 4.52008 1.01207 0
M  V30 5068 C 474.792 5.61939 1.1407 0
M  V30 5069 N 474.288 6.81697 1.23536 0
M  V30 5070 N 476.081 5.49719 1.17325 0
M  V30 5071 H 468.232 2.04085 -0.588463 0
M  V30 5072 H 470.495 0.926229 -0.202001 0
M  V30 5073 H 470.201 3.51332 -0.160766 0
M  V30 5074 H 470.075 3.42187 1.58707 0
M  V30 5075 H 472.462 2.43344 1.66936 0
M  V30 5076 H 472.543 2.55627 -0.0939266 0
M  V30 5077 H 472.187 5.07824 0.087725 0
M  V30 5078 H 472.117 4.92607 1.86135 0
M  V30 5079 H 474.608 3.65749 0.950577 0
M  V30 5080 H 474.921 7.61228 1.33236 0
M  V30 5081 H 473.266 6.84473 1.20508 0
M  V30 5082 H 476.457 4.55095 1.09573 0
M  V30 5083 H 476.63 6.35432 1.27005 0
M  V30 5084 N 470.036 -0.519951 1.48776 0
M  V30 5085 C 470.983 -1.62352 1.64044 0
M  V30 5086 C 471.953 -1.58945 0.482251 0
M  V30 5087 O 473.138 -1.77219 0.706971 0
M  V30 5088 C 470.278 -3.00579 1.69547 0
M  V30 5089 C 469.391 -3.14145 2.96541 0
M  V30 5090 C 468.526 -4.42991 2.93142 0
M  V30 5091 C 467.565 -4.50122 4.14797 0
M  V30 5092 N 466.702 -5.7037 4.09418 0
M  V30 5093 H 471.542 -1.48643 2.58281 0
M  V30 5094 H 469.079 -0.723516 1.28077 0
M  V30 5095 H 471.037 -3.80671 1.70719 0
M  V30 5096 H 469.667 -3.13036 0.787918 0
M  V30 5097 H 468.719 -2.27239 3.05068 0
M  V30 5098 H 470.031 -3.15275 3.86527 0
M  V30 5099 H 469.185 -5.31385 2.92772 0
M  V30 5100 H 467.924 -4.44398 2.00902 0
M  V30 5101 H 466.929 -3.60133 4.15433 0
M  V30 5102 H 468.154 -4.50445 5.08208 0
M  V30 5103 H 466.1 -5.72655 3.20004 0
M  V30 5104 H 466.017 -5.73036 4.93119 0
M  V30 5105 H 467.285 -6.61023 4.13121 0
M  V30 5106 N 471.514 -1.37532 -0.769588 0
M  V30 5107 C 472.925 -1.29382 -1.346 0
M  V30 5108 C 473.276 0.0576039 -1.96115 0
M  V30 5109 O 472.401 0.95947 -1.93967 0
M  V30 5110 C 472.996 -2.34298 -2.44724 0
M  V30 5111 C 471.555 -2.29776 -2.98128 0
M  V30 5112 C 470.702 -2.18013 -1.71364 0
M  V30 5113 H 473.653 -1.48123 -0.56968 0
M  V30 5114 H 473.674 -1.99089 -3.24259 0
M  V30 5115 H 473.186 -3.32645 -1.99922 0
M  V30 5116 H 471.287 -1.34959 -3.47299 0
M  V30 5117 H 471.4 -3.23276 -3.53595 0
M  V30 5118 H 469.764 -1.64595 -1.94372 0
M  V30 5119 H 470.547 -3.18278 -1.28662 0
M  V30 5120 N 472.992 0.995999 -1.22138 0
M  V30 5121 C 473.902 2.11985 -1.00496 0
M  V30 5122 C 474.918 1.7394 0.0457701 0
M  V30 5123 O 476.094 2.00868 -0.146273 0
M  V30 5124 C 473.159 3.41779 -0.582086 0
M  V30 5125 C 472.22 3.93943 -1.70608 0
M  V30 5126 C 471.453 5.17542 -1.30328 0
M  V30 5127 O 471.676 5.70114 -0.180743 0
M  V30 5128 O 470.61 5.63382 -2.11861 0
M  V30 5129 H 474.436 2.33123 -1.94647 0
M  V30 5130 H 472.021 1.10358 -1.00705 0
M  V30 5131 H 473.903 4.1989 -0.356467 0
M  V30 5132 H 472.578 3.22007 0.330592 0
M  V30 5133 H 471.485 3.17019 -1.98619 0
M  V30 5134 H 472.818 4.18141 -2.59651 0
M  V30 5135 N 474.47 1.03057 1.19235 0
M  V30 5136 C 475.38 0.622922 2.26179 0
M  V30 5137 C 476.396 -0.346113 1.70523 0
M  V30 5138 O 477.572 -0.203572 2.00369 0
M  V30 5139 C 474.637 -0.0182063 3.46695 0
M  V30 5140 C 473.698 0.998546 4.17526 0
M  V30 5141 C 472.931 0.387917 5.32288 0
M  V30 5142 O 473.154 -0.808668 5.64639 0
M  V30 5143 O 472.088 1.1116 5.91546 0
M  V30 5144 H 475.914 1.51363 2.63292 0
M  V30 5145 H 473.499 0.800856 1.26122 0
M  V30 5146 H 475.381 -0.375606 4.19723 0
M  V30 5147 H 474.056 -0.882895 3.11427 0
M  V30 5148 H 472.963 1.40756 3.4661 0
M  V30 5149 H 474.296 1.83366 4.56769 0
M  V30 5150 N 475.948 -1.35272 0.808662 0
M  V30 5151 C 477.194 -1.99003 0.390581 0
M  V30 5152 C 477.527 -1.63999 -1.0401 0
M  V30 5153 O 476.802 -0.904368 -1.72196 0
M  V30 5154 C 477.085 -3.55454 0.576566 0
M  V30 5155 C 476.938 -4.00249 2.05233 0
M  V30 5156 C 478.257 -4.401 0.00354277 0
M  V30 5157 H 475.376 -0.722917 0.143388 0
M  V30 5158 H 478.018 -1.6039 1.01858 0
M  V30 5159 H 476.168 -3.88477 0.0419766 0
M  V30 5160 H 477.84 -3.77626 2.64946 0
M  V30 5161 H 476.083 -3.51082 2.54801 0
M  V30 5162 H 476.754 -5.0911 2.13333 0
M  V30 5163 H 479.23 -4.13548 0.460117 0
M  V30 5164 H 478.106 -5.48656 0.163575 0
M  V30 5165 H 478.367 -4.28444 -1.09032 0
M  V30 5166 N 477.426 -0.562348 -1.47226 0
M  V30 5167 C 478.654 -0.0452275 -2.06851 0
M  V30 5168 C 479.069 1.25078 -1.41424 0
M  V30 5169 O 478.426 1.75156 -0.512513 0
M  V30 5170 C 478.477 0.148674 -3.61194 0
M  V30 5171 O 478.198 -1.09602 -4.24169 0
M  V30 5172 C 479.699 0.702488 -4.37699 0
M  V30 5173 H 476.919 -0.0481775 -0.669268 0
M  V30 5174 H 479.463 -0.777223 -1.89155 0
M  V30 5175 H 477.618 0.830817 -3.78386 0
M  V30 5176 H 478.032 -0.896982 -5.16773 0
M  V30 5177 H 479.506 0.78743 -5.46355 0
M  V30 5178 H 479.983 1.71493 -4.04335 0
M  V30 5179 H 480.589 0.0558772 -4.25263 0
M  V30 5180 N 478.904 1.54736 -0.299062 0
M  V30 5181 C 479.852 2.24897 0.593658 0
M  V30 5182 C 480.846 1.25429 1.13859 0
M  V30 5183 O 482.052 1.43286 1.08945 0
M  V30 5184 H 478.427 0.72207 0.210046 0
M  V30 5185 H 480.398 2.98393 -0.0206421 0
M  V30 5186 C 479.147 3.00159 1.75499 0
M  V30 5187 H 478.47 3.76501 1.34489 0
M  V30 5188 H 479.91 3.52535 2.35574 0
M  V30 5189 C 478.369 2.07015 2.65794 0
M  V30 5190 O 478.899 1.63692 3.66835 0
M  V30 5191 N 477.105 1.73012 2.33485 0
M  V30 5192 H 476.652 2.08439 1.51364 0
M  V30 5193 H 476.61 1.10965 2.94167 0
M  V30 5194 N 480.382 0.0267497 1.57577 0
M  V30 5195 C 481.292 -0.971633 2.13533 0
M  V30 5196 C 482.308 -1.35868 1.08701 0
M  V30 5197 O 483.484 -1.44058 1.40746 0
M  V30 5198 C 480.549 -2.23622 2.64941 0
M  V30 5199 C 479.61 -1.90982 3.8448 0
M  V30 5200 C 478.843 -3.11411 4.33427 0
M  V30 5201 O 479.066 -4.23992 3.81558 0
M  V30 5202 O 478 -2.93848 5.25297 0
M  V30 5203 H 481.826 -0.525853 2.99113 0
M  V30 5204 H 479.411 -0.193712 1.48139 0
M  V30 5205 H 481.293 -2.97864 2.98086 0
M  V30 5206 H 479.968 -2.67386 1.82446 0
M  V30 5207 H 478.875 -1.14132 3.56265 0
M  V30 5208 H 480.208 -1.52036 4.6813 0
M  V30 5209 N 481.861 -1.55662 -0.24637 0
M  V30 5210 C 482.771 -1.93495 -1.32653 0
M  V30 5211 C 483.787 -0.835462 -1.5263 0
M  V30 5212 O 484.963 -1.1369 -1.66242 0
M  V30 5213 C 482.028 -2.22242 -2.66101 0
M  V30 5214 C 481.089 -3.45625 -2.54641 0
M  V30 5215 C 480.322 -3.72991 -3.81724 0
M  V30 5216 O 480.545 -3.02421 -4.8363 0
M  V30 5217 O 479.479 -4.66515 -3.80325 0
M  V30 5218 H 483.305 -2.85498 -1.03559 0
M  V30 5219 H 480.89 -1.42551 -0.44717 0
M  V30 5220 H 482.772 -2.42037 -3.44958 0
M  V30 5221 H 481.447 -1.33417 -2.94926 0
M  V30 5222 H 480.354 -3.31136 -1.74067 0
M  V30 5223 H 481.687 -4.34754 -2.3076 0
M  V30 5224 N 483.339 0.512053 -1.4905 0
M  V30 5225 C 484.569 1.28928 -1.61434 0
M  V30 5226 C 484.977 1.87107 -0.280647 0
M  V30 5227 O 484.32 1.68024 0.742537 0
M  V30 5228 C 484.382 2.466 -2.61588 0
M  V30 5229 C 484.046 2.09375 -4.06216 0
M  V30 5230 C 485.043 1.63994 -4.93358 0
M  V30 5231 C 482.728 2.19348 -4.51876 0
M  V30 5232 C 484.722 1.29076 -6.24194 0
M  V30 5233 C 482.409 1.84041 -5.82728 0
M  V30 5234 C 483.407 1.38978 -6.68711 0
M  V30 5235 O 483.095 1.04144 -7.97126 0
M  V30 5236 H 482.827 0.397668 -0.546659 0
M  V30 5237 H 485.381 0.622507 -1.9574 0
M  V30 5238 H 483.611 3.16318 -2.22441 0
M  V30 5239 H 485.3 3.08642 -2.63619 0
M  V30 5240 H 486.066 1.55744 -4.59313 0
M  V30 5241 H 481.945 2.53376 -3.85125 0
M  V30 5242 H 485.489 0.938303 -6.91261 0
M  V30 5243 H 481.386 1.91938 -6.16304 0
M  V30 5244 H 482.154 1.17387 -8.10039 0
M  V30 5245 N 484.817 1.37938 0.762283 0
M  V30 5246 C 485.78 1.34279 1.85747 0
M  V30 5247 C 486.78 0.244969 1.58923 0
M  V30 5248 O 487.97 0.501365 1.66829 0
M  V30 5249 C 485.102 1.08833 3.23061 0
M  V30 5250 H 486.295 2.31705 1.90401 0
M  V30 5251 H 483.848 1.23105 0.963057 0
M  V30 5252 H 484.583 0.119767 3.24079 0
M  V30 5253 H 484.368 1.88306 3.43923 0
M  V30 5254 H 485.858 1.08946 4.03138 0
M  V30 5255 N 486.295 -0.989507 1.22664 0
M  V30 5256 C 487.52 -1.77031 1.08051 0
M  V30 5257 C 487.945 -1.84535 -0.364483 0
M  V30 5258 O 487.303 -1.3003 -1.2634 0
M  V30 5259 C 487.351 -3.18 1.70024 0
M  V30 5260 O 486.455 -4.01161 0.956216 0
M  V30 5261 H 485.796 -0.545008 0.379292 0
M  V30 5262 H 488.326 -1.24277 1.62531 0
M  V30 5263 H 488.336 -3.68616 1.74888 0
M  V30 5264 H 487.011 -3.11853 2.75174 0
M  V30 5265 H 485.588 -3.59687 0.98384 0
M  V30 5266 N 487.773 -1.03688 -1.18687 0
M  V30 5267 C 489.02 -0.73803 -1.88572 0
M  V30 5268 C 489.348 0.733973 -1.8012 0
M  V30 5269 O 488.603 1.55098 -1.19344 0
M  V30 5270 C 488.902 -1.14477 -3.3857 0
M  V30 5271 C 488.568 -2.61641 -3.67226 0
M  V30 5272 C 487.23 -3.01846 -3.74757 0
M  V30 5273 C 489.582 -3.56812 -3.79914 0
M  V30 5274 C 486.91 -4.36118 -3.92451 0
M  V30 5275 C 489.262 -4.90799 -3.99123 0
M  V30 5276 C 487.926 -5.3068 -4.04888 0
M  V30 5277 H 487.196 -0.270064 -0.690034 0
M  V30 5278 H 489.843 -1.3012 -1.40503 0
M  V30 5279 H 488.148 -0.500337 -3.88592 0
M  V30 5280 H 489.845 -0.89095 -3.90977 0
M  V30 5281 H 486.435 -2.29498 -3.61979 0
M  V30 5282 H 490.619 -3.26899 -3.73431 0
M  V30 5283 H 485.875 -4.66542 -3.95157 0
M  V30 5284 H 490.049 -5.64451 -4.07882 0
M  V30 5285 H 487.676 -6.34733 -4.18351 0
M  V30 5286 N 489.251 1.34841 -0.815825 0
M  V30 5287 C 490.481 2.02436 -0.412695 0
M  V30 5288 C 490.889 1.61604 0.983906 0
M  V30 5289 O 490.232 0.813729 1.64694 0
M  V30 5290 C 490.294 3.56953 -0.427182 0
M  V30 5291 C 489.958 4.21083 -1.77589 0
M  V30 5292 C 490.955 4.42107 -2.73564 0
M  V30 5293 C 488.64 4.58006 -2.06243 0
M  V30 5294 C 490.634 4.99169 -3.9637 0
M  V30 5295 C 488.321 5.1478 -3.2931 0
M  V30 5296 C 489.319 5.35304 -4.24191 0
M  V30 5297 O 489.007 5.90878 -5.45086 0
M  V30 5298 H 488.739 0.655631 -0.164695 0
M  V30 5299 H 491.293 1.73246 -1.1034 0
M  V30 5300 H 489.523 3.85372 0.320175 0
M  V30 5301 H 491.212 4.05875 -0.0450875 0
M  V30 5302 H 491.978 4.13953 -2.52721 0
M  V30 5303 H 487.857 4.41339 -1.33196 0
M  V30 5304 H 491.401 5.15105 -4.70439 0
M  V30 5305 H 487.298 5.42362 -3.5002 0
M  V30 5306 H 488.066 6.0932 -5.46508 0
M  V30 5307 N 490.729 0.570148 1.46925 0
M  V30 5308 C 491.676 -0.170257 2.30171 0
M  V30 5309 C 492.646 -0.896099 1.39855 0
M  V30 5310 O 493.831 -0.889248 1.68811 0
M  V30 5311 C 490.971 -1.18605 3.24079 0
M  V30 5312 C 490.084 -0.464947 4.29491 0
M  V30 5313 C 489.219 -1.46716 5.10537 0
M  V30 5314 C 488.258 -0.731758 6.0771 0
M  V30 5315 N 487.395 -1.68142 6.81669 0
M  V30 5316 H 492.235 0.545713 2.92961 0
M  V30 5317 H 489.772 0.280938 1.44392 0
M  V30 5318 H 491.73 -1.78771 3.76957 0
M  V30 5319 H 490.36 -1.86989 2.63125 0
M  V30 5320 H 489.412 0.251506 3.79568 0
M  V30 5321 H 490.724 0.110548 4.98677 0
M  V30 5322 H 489.878 -2.14199 5.6763 0
M  V30 5323 H 488.617 -2.07658 4.41282 0
M  V30 5324 H 487.622 -0.0430787 5.49783 0
M  V30 5325 H 488.847 -0.127904 6.7898 0
M  V30 5326 H 486.793 -2.27918 6.15134 0
M  V30 5327 H 486.71 -1.15841 7.47072 0
M  V30 5328 H 487.978 -2.347 7.43328 0
M  V30 5329 N 492.207 -1.54576 0.307264 0
M  V30 5330 C 493.432 -2.05139 -0.305379 0
M  V30 5331 C 493.857 -1.18278 -1.46259 0
M  V30 5332 O 493.215 -0.188243 -1.8032 0
M  V30 5333 C 493.263 -3.53066 -0.733283 0
M  V30 5334 O 492.367 -3.69206 -1.83741 0
M  V30 5335 H 491.708 -0.661444 -0.0582105 0
M  V30 5336 H 494.238 -1.99569 0.450931 0
M  V30 5337 H 494.248 -3.95034 -1.02039 0
M  V30 5338 H 492.923 -4.15746 0.113198 0
M  V30 5339 H 491.5 -3.39143 -1.55037 0
M  V30 5340 N 493.685 -0.035106 -1.57561 0
M  V30 5341 C 494.615 0.942993 -2.13612 0
M  V30 5342 C 495.596 1.33531 -1.05373 0
M  V30 5343 O 496.781 1.41287 -1.33235 0
M  V30 5344 C 493.911 2.22332 -2.66807 0
M  V30 5345 C 492.865 1.97156 -3.79886 0
M  V30 5346 C 492.191 3.31506 -4.19533 0
M  V30 5347 C 493.491 1.30596 -5.05709 0
M  V30 5348 H 495.185 0.476179 -2.95589 0
M  V30 5349 H 492.731 0.227602 -1.4219 0
M  V30 5350 H 494.684 2.91142 -3.04654 0
M  V30 5351 H 493.408 2.7119 -1.81999 0
M  V30 5352 H 492.067 1.30763 -3.42486 0
M  V30 5353 H 491.715 3.78134 -3.31698 0
M  V30 5354 H 491.415 3.15465 -4.95738 0
M  V30 5355 H 492.939 4.01574 -4.59968 0
M  V30 5356 H 494.353 1.89416 -5.41105 0
M  V30 5357 H 492.75 1.24934 -5.86951 0
M  V30 5358 H 493.82 0.279742 -4.84092 0
M  V30 5359 N 495.163 1.55791 0.238111 0
M  V30 5360 C 496.391 1.82098 0.982233 0
M  V30 5361 C 496.806 0.612025 1.78605 0
M  V30 5362 O 496.163 -0.419381 1.77616 0
M  V30 5363 C 496.214 3.0673 1.91309 0
M  V30 5364 O 495.935 4.2296 1.14179 0
M  V30 5365 C 497.436 3.45903 2.77248 0
M  V30 5366 H 494.656 0.605748 0.288635 0
M  V30 5367 H 497.2 2.02862 0.258341 0
M  V30 5368 H 495.355 2.87991 2.59114 0
M  V30 5369 H 495.769 4.93653 1.7722 0
M  V30 5370 H 497.243 4.36189 3.38295 0
M  V30 5371 H 497.72 2.66891 3.48806 0
M  V30 5372 H 498.326 3.67024 2.14881 0
M  V30 5373 N 496.642 -0.504142 1.49319 0
M  V30 5374 C 497.59 -1.62689 1.66238 0
M  V30 5375 C 498.584 -1.6095 0.528349 0
M  V30 5376 O 499.79 -1.65496 0.707887 0
M  V30 5377 H 496.165 -0.539247 0.524134 0
M  V30 5378 H 498.136 -1.45571 2.60484 0
M  V30 5379 C 496.885 -3.00841 1.74328 0
M  V30 5380 H 496.208 -3.02884 2.60963 0
M  V30 5381 H 497.648 -3.78945 1.90202 0
M  V30 5382 C 496.107 -3.33355 0.487416 0
M  V30 5383 O 496.637 -3.99819 -0.388294 0
M  V30 5384 N 494.843 -2.88469 0.351306 0
M  V30 5385 H 494.39 -2.34557 1.06492 0
M  V30 5386 H 494.348 -3.10591 -0.487899 0
M  V30 5387 N 498.12 -1.38341 -0.754957 0
M  V30 5388 C 499.397 -1.24995 -1.50451 0
M  V30 5389 C 499.777 0.149244 -2.10572 0
M  V30 5390 O 499.125 1.15861 -1.96948 0
M  V30 5391 C 499.335 -2.35904 -2.57197 0
M  V30 5392 C 500.683 -2.74262 -3.24138 0
M  V30 5393 O 501.707 -2.35205 -2.67501 0
M  V30 5394 O 500.566 -3.4161 -4.26574 0
M  V30 5395 H 497.66 -0.48872 -0.667144 0
M  V30 5396 H 500.206 -1.50165 -0.790486 0
M  V30 5397 H 498.978 -3.2953 -2.11011 0
M  V30 5398 H 498.601 -2.12291 -3.36182 0
M  V30 5399 N 499.598 0.982988 -1.23187 0
M  V30 5400 C 500.844 1.7273 -1.07405 0
M  V30 5401 C 501.199 1.885 0.385447 0
M  V30 5402 O 500.492 1.4243 1.28157 0
M  V30 5403 C 500.686 3.12736 -1.73006 0
M  V30 5404 C 500.515 3.10621 -3.25184 0
M  V30 5405 C 499.285 3.15957 -3.94334 0
M  V30 5406 C 501.483 2.93992 -4.21987 0
M  V30 5407 N 499.465 3.03701 -5.33516 0
M  V30 5408 C 500.836 2.8987 -5.48065 0
M  V30 5409 C 502.891 2.78457 -4.12754 0
M  V30 5410 C 501.594 2.71804 -6.65969 0
M  V30 5411 C 503.62 2.61754 -5.30319 0
M  V30 5412 C 502.982 2.58328 -6.55321 0
M  V30 5413 H 499.081 0.641279 -0.447533 0
M  V30 5414 H 501.665 1.16664 -1.55877 0
M  V30 5415 H 499.836 3.67026 -1.2707 0
M  V30 5416 H 501.568 3.75786 -1.50224 0
M  V30 5417 H 498.323 3.24034 -3.45397 0
M  V30 5418 H 498.747 3.00855 -6.06478 0
M  V30 5419 H 503.389 2.79898 -3.16886 0
M  V30 5420 H 501.107 2.69108 -7.61975 0
M  V30 5421 H 504.693 2.50702 -5.25014 0
M  V30 5422 H 503.573 2.45564 -7.4476 0
M  V30 5423 N 501.076 1.04316 1.18135 0
M  V30 5424 C 501.986 0.646876 2.25505 0
M  V30 5425 C 503.002 -0.328008 1.7088 0
M  V30 5426 O 504.178 -0.182309 2.00573 0
M  V30 5427 C 501.243 0.0185664 3.46695 0
M  V30 5428 C 500.304 1.04277 4.16443 0
M  V30 5429 C 499.537 0.444352 5.31847 0
M  V30 5430 O 499.76 -0.748735 5.65465 0
M  V30 5431 O 498.694 1.17428 5.90334 0
M  V30 5432 H 502.52 1.54147 2.61672 0
M  V30 5433 H 500.105 0.814188 1.25265 0
M  V30 5434 H 501.987 -0.331068 4.20097 0
M  V30 5435 H 500.662 -0.849814 3.12346 0
M  V30 5436 H 499.569 1.44425 3.45098 0
M  V30 5437 H 500.902 1.882 4.54798 0
M  V30 5438 N 502.554 -1.34406 0.822964 0
M  V30 5439 C 503.831 -1.92733 0.333641 0
M  V30 5440 C 504.211 -1.75107 -1.17901 0
M  V30 5441 O 503.559 -1.12983 -1.98613 0
M  V30 5442 C 503.769 -3.40557 0.763023 0
M  V30 5443 C 505.117 -4.17709 0.761879 0
M  V30 5444 O 506.141 -3.49141 0.705606 0
M  V30 5445 O 505 -5.40082 0.835109 0
M  V30 5446 H 502.094 -0.821964 0.0911249 0
M  V30 5447 H 504.64 -1.4338 0.907757 0
M  V30 5448 H 503.412 -3.47187 1.8049 0
M  V30 5449 H 503.035 -3.97259 0.164605 0
M  V30 5450 N 504.032 -0.577932 -1.46621 0
M  V30 5451 C 504.982 0.178869 -2.27297 0
M  V30 5452 C 505.966 0.866279 -1.35589 0
M  V30 5453 O 507.158 0.761163 -1.59798 0
M  V30 5454 C 504.287 1.19499 -3.2183 0
M  V30 5455 C 503.373 0.50994 -4.21023 0
M  V30 5456 N 503.764 -0.43177 -5.03954 0
M  V30 5457 C 502.062 0.761287 -4.39455 0
M  V30 5458 C 502.763 -0.831693 -5.75724 0
M  V30 5459 N 501.739 -0.181897 -5.43296 0
M  V30 5460 H 505.541 -0.544859 -2.88805 0
M  V30 5461 H 503.055 -0.399373 -1.57413 0
M  V30 5462 H 505.052 1.75131 -3.78332 0
M  V30 5463 H 503.712 1.91959 -2.61881 0
M  V30 5464 H 504.723 -0.807045 -5.11573 0
M  V30 5465 H 501.4 1.47282 -3.90659 0
M  V30 5466 H 502.79 -1.6067 -6.52407 0
M  V30 5467 N 505.51 1.54411 -0.315457 0
M  V30 5468 C 506.44 2.27002 0.547039 0
M  V30 5469 C 507.421 1.27492 1.12605 0
M  V30 5470 O 508.606 1.5629 1.15269 0
M  V30 5471 C 505.736 3.02171 1.71201 0
M  V30 5472 C 504.69 4.0895 1.26268 0
M  V30 5473 C 504.016 4.71915 2.51396 0
M  V30 5474 C 505.316 5.20891 0.383419 0
M  V30 5475 H 507.01 2.99343 -0.0584517 0
M  V30 5476 H 504.556 1.4397 -0.0295527 0
M  V30 5477 H 506.509 3.51681 2.32161 0
M  V30 5478 H 505.233 2.27433 2.34397 0
M  V30 5479 H 503.892 3.60312 0.676062 0
M  V30 5480 H 503.54 3.93801 3.12937 0
M  V30 5481 H 503.24 5.44039 2.22026 0
M  V30 5482 H 504.764 5.24195 3.13133 0
M  V30 5483 H 506.178 5.66206 0.899082 0
M  V30 5484 H 504.575 5.99821 0.182857 0
M  V30 5485 H 505.645 4.81324 -0.587821 0
M  V30 5486 N 506.988 0.0434614 1.5754 0
M  V30 5487 C 507.951 -0.918696 2.09982 0
M  V30 5488 C 508.951 -1.24488 1.01781 0
M  V30 5489 O 510.141 -1.18284 1.27885 0
M  V30 5490 C 507.273 -2.23093 2.57764 0
M  V30 5491 H 508.466 -0.464229 2.96285 0
M  V30 5492 H 506.019 -0.204818 1.54952 0
M  V30 5493 H 506.754 -2.73137 1.74832 0
M  V30 5494 H 506.539 -2.00724 3.36827 0
M  V30 5495 H 508.029 -2.92028 2.98512 0
M  V30 5496 N 508.466 -1.55915 -0.229846 0
M  V30 5497 C 509.712 -1.78807 -0.956868 0
M  V30 5498 C 510.045 -0.611687 -1.84315 0
M  V30 5499 O 509.32 0.389398 -1.90562 0
M  V30 5500 C 509.603 -3.11718 -1.80288 0
M  V30 5501 C 509.456 -4.3979 -0.943649 0
M  V30 5502 C 510.775 -3.40999 -2.78222 0
M  V30 5503 H 507.894 -0.6505 -0.346437 0
M  V30 5504 H 510.536 -1.88648 -0.226252 0
M  V30 5505 H 508.686 -3.03459 -2.42579 0
M  V30 5506 H 510.358 -4.60059 -0.338121 0
M  V30 5507 H 508.601 -4.33086 -0.248705 0
M  V30 5508 H 509.272 -5.29208 -1.5698 0
M  V30 5509 H 511.748 -3.49332 -2.26067 0
M  V30 5510 H 510.624 -4.35183 -3.34526 0
M  V30 5511 H 510.885 -2.62754 -3.55546 0
M  V30 5512 N 509.944 0.496216 -1.49584 0
M  V30 5513 C 510.891 1.59722 -1.66606 0
M  V30 5514 C 511.861 1.58158 -0.507477 0
M  V30 5515 O 513.046 1.76072 -0.735076 0
M  V30 5516 C 510.186 2.97844 -1.74308 0
M  V30 5517 C 509.299 3.09388 -3.01502 0
M  V30 5518 C 508.434 4.38271 -3.00153 0
M  V30 5519 C 507.473 4.43466 -4.21906 0
M  V30 5520 N 506.61 5.63784 -4.1844 0
M  V30 5521 H 511.45 1.44515 -2.60613 0
M  V30 5522 H 508.987 0.703048 -1.29212 0
M  V30 5523 H 510.945 3.77907 -1.76754 0
M  V30 5524 H 509.575 3.11743 -0.837619 0
M  V30 5525 H 508.627 2.22357 -3.08645 0
M  V30 5526 H 509.939 3.09085 -3.91494 0
M  V30 5527 H 509.093 5.2666 -3.01188 0
M  V30 5528 H 507.832 4.41146 -2.07947 0
M  V30 5529 H 506.837 3.53478 -4.21109 0
M  V30 5530 H 508.062 4.42303 -5.1531 0
M  V30 5531 H 506.008 5.67491 -3.29074 0
M  V30 5532 H 505.925 5.65118 -5.02173 0
M  V30 5533 H 507.193 6.54367 -4.23585 0
M  V30 5534 N 511.423 1.38739 0.74761 0
M  V30 5535 C 512.373 1.32948 1.85226 0
M  V30 5536 C 513.357 0.212642 1.59489 0
M  V30 5537 O 514.549 0.449121 1.71207 0
M  V30 5538 C 511.678 1.16279 3.23008 0
M  V30 5539 C 510.764 2.32611 3.54617 0
M  V30 5540 N 511.155 3.58065 3.57244 0
M  V30 5541 C 509.453 2.25293 3.84914 0
M  V30 5542 C 510.154 4.34919 3.8629 0
M  V30 5543 N 509.13 3.64348 4.03425 0
M  V30 5544 H 512.932 2.27927 1.85544 0
M  V30 5545 H 510.446 1.32056 0.945253 0
M  V30 5546 H 512.443 1.10214 4.02068 0
M  V30 5547 H 511.103 0.222394 3.23937 0
M  V30 5548 H 512.114 3.91656 3.3886 0
M  V30 5549 H 508.791 1.39446 3.93524 0
M  V30 5550 H 510.181 5.43605 3.94896 0
M  V30 5551 N 512.901 -0.976442 1.23707 0
M  V30 5552 C 514.148 -1.71827 1.07153 0
M  V30 5553 C 514.476 -1.9053 -0.390982 0
M  V30 5554 O 513.731 -1.45779 -1.30564 0
M  V30 5555 C 514.03 -3.11814 1.74662 0
M  V30 5556 C 513.696 -3.12978 3.24585 0
M  V30 5557 C 512.358 -3.13003 3.6549 0
M  V30 5558 C 514.71 -3.07986 4.20469 0
M  V30 5559 C 512.038 -3.05757 5.00729 0
M  V30 5560 C 514.39 -3.02282 5.55705 0
M  V30 5561 C 513.054 -3.00631 5.95968 0
M  V30 5562 H 512.324 -0.628758 0.392102 0
M  V30 5563 H 514.971 -1.14239 1.53693 0
M  V30 5564 H 513.276 -3.72812 1.20492 0
M  V30 5565 H 514.973 -3.67989 1.59328 0
M  V30 5566 H 511.563 -3.13718 2.92026 0
M  V30 5567 H 515.747 -3.07103 3.89874 0
M  V30 5568 H 511.003 -3.02834 5.31132 0
M  V30 5569 H 515.177 -2.97376 6.29714 0
M  V30 5570 H 512.804 -2.94771 7.00724 0
M  V30 5571 N 514.379 -1.04941 -1.1758 0
M  V30 5572 C 515.604 -0.778253 -1.92245 0
M  V30 5573 C 516.029 0.659707 -1.76152 0
M  V30 5574 O 515.387 1.45803 -1.07755 0
M  V30 5575 C 515.435 -1.16051 -3.41416 0
M  V30 5576 O 514.539 -0.291153 -4.11371 0
M  V30 5577 H 513.88 -0.285619 -0.599431 0
M  V30 5578 H 516.41 -1.40159 -1.49052 0
M  V30 5579 H 516.42 -1.12619 -3.92149 0
M  V30 5580 H 515.095 -2.208 -3.52449 0
M  V30 5581 H 513.672 -0.385851 -3.70898 0
M  V30 5582 N 515.857 1.33968 -0.830081 0
M  V30 5583 C 517.103 1.98357 -0.422191 0
M  V30 5584 C 517.436 1.65633 1.01387 0
M  V30 5585 O 516.711 0.931648 1.70735 0
M  V30 5586 C 516.994 3.54492 -0.633043 0
M  V30 5587 C 516.847 3.96934 -2.11574 0
M  V30 5588 C 518.166 4.40039 -0.0735584 0
M  V30 5589 H 515.285 0.720544 -0.154871 0
M  V30 5590 H 517.927 1.58749 -1.04397 0
M  V30 5591 H 516.077 3.88361 -0.103775 0
M  V30 5592 H 517.749 3.73363 -2.7092 0
M  V30 5593 H 515.992 3.46984 -2.60354 0
M  V30 5594 H 516.663 5.05651 -2.21406 0
M  V30 5595 H 519.139 4.12764 -0.52585 0
M  V30 5596 H 518.015 5.48327 -0.250841 0
M  V30 5597 H 518.276 4.30124 1.02202 0
M  V30 5598 N 517.335 0.585699 1.46312 0
M  V30 5599 C 518.245 -0.148236 2.34131 0
M  V30 5600 C 519.261 -0.882972 1.49932 0
M  V30 5601 O 520.437 -0.845484 1.82794 0
M  V30 5602 C 517.502 -1.14714 3.27172 0
M  V30 5603 C 516.563 -0.416746 4.27272 0
M  V30 5604 C 515.796 -1.36806 5.15868 0
M  V30 5605 O 516.019 -2.60475 5.07454 0
M  V30 5606 O 514.953 -0.877018 5.95476 0
M  V30 5607 H 518.779 0.572882 2.98248 0
M  V30 5608 H 516.364 0.346082 1.45336 0
M  V30 5609 H 518.246 -1.72303 3.84564 0
M  V30 5610 H 516.921 -1.84967 2.65648 0
M  V30 5611 H 515.828 0.201061 3.73559 0
M  V30 5612 H 517.161 0.244872 4.9159 0
M  V30 5613 N 518.813 -1.54241 0.323641 0
M  V30 5614 C 520.061 -2.00174 -0.278359 0
M  V30 5615 C 520.382 -1.2134 -1.52648 0
M  V30 5616 O 519.652 -0.315244 -1.93347 0
M  V30 5617 H 518.232 -0.739463 -0.105845 0
M  V30 5618 H 520.894 -1.89864 0.440204 0
M  V30 5619 H 519.99 -3.07486 -0.5347 0
M  V30 5620 N 520.291 -0.0518155 -1.57515 0
M  V30 5621 C 521.223 0.951542 -2.08515 0
M  V30 5622 C 522.236 1.27436 -1.01311 0
M  V30 5623 O 523.425 1.23504 -1.28876 0
M  V30 5624 C 520.525 2.27291 -2.5138 0
M  V30 5625 C 519.698 2.13191 -3.81927 0
M  V30 5626 C 518.757 3.28458 -4.11098 0
M  V30 5627 O 517.783 3.04334 -4.81009 0
M  V30 5628 N 518.985 4.52954 -3.63061 0
M  V30 5629 H 521.75 0.516242 -2.9522 0
M  V30 5630 H 519.311 0.13441 -1.61341 0
M  V30 5631 H 521.303 3.03272 -2.67971 0
M  V30 5632 H 519.873 2.62386 -1.69919 0
M  V30 5633 H 519.093 1.21798 -3.74912 0
M  V30 5634 H 520.381 2.00999 -4.67415 0
M  V30 5635 H 519.779 4.75444 -3.06545 0
M  V30 5636 H 518.336 5.26026 -3.84889 0
M  V30 5637 N 521.769 1.56035 0.221574 0
M  V30 5638 C 522.699 1.95434 1.2778 0
M  V30 5639 C 523.68 0.822564 1.48889 0
M  V30 5640 O 524.865 1.08486 1.61072 0
M  V30 5641 C 521.995 2.27102 2.62759 0
M  V30 5642 C 520.949 3.4277 2.56306 0
M  V30 5643 C 520.275 3.60043 3.95314 0
M  V30 5644 C 521.575 4.77742 2.11093 0
M  V30 5645 H 523.269 2.83912 0.950504 0
M  V30 5646 H 520.815 1.36596 0.455791 0
M  V30 5647 H 522.768 2.53256 3.36807 0
M  V30 5648 H 521.492 1.35478 2.97176 0
M  V30 5649 H 520.151 3.16664 1.84715 0
M  V30 5650 H 519.799 2.65794 4.27039 0
M  V30 5651 H 519.499 4.37841 3.91879 0
M  V30 5652 H 521.023 3.88545 4.71025 0
M  V30 5653 H 522.437 5.03102 2.74885 0
M  V30 5654 H 520.834 5.58823 2.18716 0
M  V30 5655 H 521.904 4.731 1.06321 0
M  V30 5656 N 523.247 -0.488276 1.49845 0
M  V30 5657 C 524.157 -1.61451 1.70207 0
M  V30 5658 C 525.173 -1.63877 0.584846 0
M  V30 5659 O 526.349 -1.82063 0.861107 0
M  V30 5660 C 523.414 -2.9776 1.77594 0
M  V30 5661 C 522.475 -3.05861 3.01243 0
M  V30 5662 C 521.708 -4.35668 3.08268 0
M  V30 5663 O 521.931 -5.25197 2.22541 0
M  V30 5664 O 520.865 -4.49005 4.00847 0
M  V30 5665 H 524.691 -1.47199 2.65643 0
M  V30 5666 H 522.276 -0.665939 1.33737 0
M  V30 5667 H 524.158 -3.7875 1.84732 0
M  V30 5668 H 522.833 -3.12248 0.8534 0
M  V30 5669 H 521.74 -2.24012 2.99616 0
M  V30 5670 H 523.073 -2.96304 3.9302 0
M  V30 5671 N 524.725 -1.39134 -0.740242 0
M  V30 5672 C 525.972 -1.36071 -1.49969 0
M  V30 5673 C 526.3 0.0450245 -1.94448 0
M  V30 5674 O 525.555 1.02482 -1.66721 0
M  V30 5675 C 525.854 -2.27457 -2.75678 0
M  V30 5676 C 525.52 -3.75185 -2.50094 0
M  V30 5677 C 524.182 -4.15439 -2.42825 0
M  V30 5678 C 526.534 -4.68643 -2.28086 0
M  V30 5679 C 523.862 -5.4722 -2.11584 0
M  V30 5680 C 526.214 -6.00695 -1.98363 0
M  V30 5681 C 524.878 -6.40018 -1.8956 0
M  V30 5682 H 524.148 -0.497921 -0.548777 0
M  V30 5683 H 526.795 -1.71599 -0.85007 0
M  V30 5684 H 525.1 -1.8503 -3.45356 0
M  V30 5685 H 526.797 -2.22384 -3.33686 0
M  V30 5686 H 523.387 -3.43279 -2.56627 0
M  V30 5687 H 527.571 -4.3838 -2.32672 0
M  V30 5688 H 522.827 -5.76615 -2.03287 0
M  V30 5689 H 527.001 -6.72644 -1.80341 0
M  V30 5690 H 524.628 -7.42051 -1.65117 0
M  V30 5691 N 526.204 0.969867 -1.24223 0
M  V30 5692 C 527.151 2.06407 -1.0327 0
M  V30 5693 C 528.121 1.66014 0.0533 0
M  V30 5694 O 529.306 1.90533 -0.100896 0
M  V30 5695 C 526.446 3.3909 -0.641262 0
M  V30 5696 C 525.559 3.9269 -1.80051 0
M  V30 5697 C 524.694 5.13631 -1.35486 0
M  V30 5698 C 523.733 5.59423 -2.48419 0
M  V30 5699 N 522.87 6.71586 -2.04737 0
M  V30 5700 H 527.71 2.23663 -1.96923 0
M  V30 5701 H 525.247 1.09624 -0.980862 0
M  V30 5702 H 527.205 4.15323 -0.395351 0
M  V30 5703 H 525.835 3.21765 0.258269 0
M  V30 5704 H 524.887 3.13116 -2.16014 0
M  V30 5705 H 526.199 4.22636 -2.64916 0
M  V30 5706 H 525.353 5.97231 -1.0677 0
M  V30 5707 H 524.092 4.85364 -0.476722 0
M  V30 5708 H 523.097 4.74398 -2.77897 0
M  V30 5709 H 524.322 5.89705 -3.36786 0
M  V30 5710 H 522.268 6.45058 -1.19318 0
M  V30 5711 H 522.185 7.0097 -2.83156 0
M  V30 5712 H 523.453 7.58633 -1.79154 0
M  V30 5713 N 527.682 1.05563 1.17022 0
M  V30 5714 C 528.645 0.664098 2.19368 0
M  V30 5715 C 529.645 -0.286358 1.5823 0
M  V30 5716 O 530.835 -0.069728 1.7406 0
M  V30 5717 C 527.967 -0.0239932 3.40892 0
M  V30 5718 H 529.16 1.57 2.55521 0
M  V30 5719 H 526.713 0.849964 1.31169 0
M  V30 5720 H 527.448 -0.942988 3.10287 0
M  V30 5721 H 527.233 0.659351 3.86516 0
M  V30 5722 H 528.723 -0.283909 4.16634 0
M  V30 5723 N 529.16 -1.33526 0.837174 0
M  V30 5724 C 530.09 -2.31764 0.284206 0
M  V30 5725 C 531.071 -1.58896 -0.607142 0
M  V30 5726 O 532.256 -1.86798 -0.531047 0
M  V30 5727 C 529.386 -3.43029 -0.542962 0
M  V30 5728 C 528.34 -4.27255 0.252451 0
M  V30 5729 C 527.666 -5.3012 -0.69836 0
M  V30 5730 C 528.966 -5.01229 1.46858 0
M  V30 5731 H 530.66 -2.78262 1.10502 0
M  V30 5732 H 528.206 -1.3378 0.532812 0
M  V30 5733 H 530.159 -4.1078 -0.940096 0
M  V30 5734 H 528.883 -2.95216 -1.39697 0
M  V30 5735 H 527.542 -3.61127 0.631124 0
M  V30 5736 H 527.19 -4.78564 -1.54872 0
M  V30 5737 H 526.89 -5.87353 -0.170274 0
M  V30 5738 H 528.414 -6.00737 -1.09305 0
M  V30 5739 H 529.828 -5.61756 1.14469 0
M  V30 5740 H 528.225 -5.68104 1.93333 0
M  V30 5741 H 529.295 -4.301 2.23924 0
M  V30 5742 N 530.638 -0.59345 -1.46 0
M  V30 5743 C 531.568 0.121192 -2.33185 0
M  V30 5744 C 532.549 0.872977 -1.4599 0
M  V30 5745 O 533.734 0.846321 -1.74789 0
M  V30 5746 C 530.864 1.12844 -3.28456 0
M  V30 5747 C 529.818 0.4908 -4.25177 0
M  V30 5748 C 529.144 1.60529 -5.10034 0
M  V30 5749 C 530.444 -0.578949 -5.19081 0
M  V30 5750 H 532.138 -0.606767 -2.93187 0
M  V30 5751 H 529.684 -0.293242 -1.40983 0
M  V30 5752 H 531.637 1.63684 -3.88311 0
M  V30 5753 H 530.361 1.88681 -2.66584 0
M  V30 5754 H 529.02 0.00339328 -3.666 0
M  V30 5755 H 528.668 2.35359 -4.44539 0
M  V30 5756 H 528.368 1.18422 -5.75543 0
M  V30 5757 H 529.892 2.11623 -5.72755 0
M  V30 5758 H 531.306 -0.155199 -5.7309 0
M  V30 5759 H 529.703 -0.920947 -5.92991 0
M  V30 5760 H 530.773 -1.46109 -4.62364 0
M  V30 5761 N 532.116 1.54067 -0.331816 0
M  V30 5762 C 533.363 2.00715 0.268269 0
M  V30 5763 C 533.691 1.21986 1.51491 0
M  V30 5764 O 532.946 0.292309 1.93505 0
M  V30 5765 C 533.245 3.51634 0.639392 0
M  V30 5766 C 532.911 4.48018 -0.509019 0
M  V30 5767 C 531.573 4.74089 -0.824209 0
M  V30 5768 C 533.925 5.05237 -1.28003 0
M  V30 5769 C 531.253 5.54637 -1.91298 0
M  V30 5770 C 533.605 5.86972 -2.35895 0
M  V30 5771 C 532.269 6.11342 -2.67987 0
M  V30 5772 H 531.539 0.734469 0.0981667 0
M  V30 5773 H 534.186 1.8596 -0.457304 0
M  V30 5774 H 532.491 3.6416 1.44551 0
M  V30 5775 H 534.188 3.85175 1.11539 0
M  V30 5776 H 530.778 4.27851 -0.253287 0
M  V30 5777 H 534.962 4.8507 -1.04978 0
M  V30 5778 H 530.218 5.71747 -2.16599 0
M  V30 5779 H 534.392 6.30327 -2.96076 0
M  V30 5780 H 532.019 6.73544 -3.5248 0
M  V30 5781 N 533.594 0.0601682 1.57485 0
M  V30 5782 C 534.843 -0.611101 1.9222 0
M  V30 5783 C 535.156 -1.71469 0.941159 0
M  V30 5784 O 536.362 -2.44473 1.18089 0
M  V30 5785 C 534.818 -1.13832 3.41424 0
M  V30 5786 C 534.426 -0.0663596 4.47951 0
M  V30 5787 C 536.17 -1.78432 3.85178 0
M  V30 5788 C 534.077 -0.606965 5.88277 0
M  V30 5789 H 533.007 -0.232033 0.71741 0
M  V30 5790 H 535.658 0.130518 1.83035 0
M  V30 5791 H 534.04 -1.93254 3.45643 0
M  V30 5792 H 535.214 0.707682 4.55333 0
M  V30 5793 H 533.529 0.482715 4.13593 0
M  V30 5794 H 536.126 -2.1989 4.87394 0
M  V30 5795 H 536.469 -2.63966 3.21913 0
M  V30 5796 H 537.002 -1.05651 3.83514 0
M  V30 5797 H 533.741 0.21095 6.5516 0
M  V30 5798 H 533.261 -1.34879 5.84438 0
M  V30 5799 H 534.94 -1.08704 6.37803 0
M  V30 5800 N 535.072 -1.5615 -0.213296 0
M  V30 5801 C 536.483 -1.69645 -0.779582 0
M  V30 5802 C 536.834 -0.663615 -1.84636 0
M  V30 5803 O 535.959 0.183633 -2.15619 0
M  V30 5804 C 536.554 -3.07567 -1.42084 0
M  V30 5805 C 535.113 -3.22889 -1.93442 0
M  V30 5806 C 534.26 -2.65581 -0.797612 0
M  V30 5807 H 537.211 -1.58696 0.0114951 0
M  V30 5808 H 537.232 -3.03884 -2.28986 0
M  V30 5809 H 536.744 -3.82716 -0.644187 0
M  V30 5810 H 534.845 -2.52623 -2.73884 0
M  V30 5811 H 534.958 -4.30197 -2.10872 0
M  V30 5812 H 533.322 -2.24278 -1.20712 0
M  V30 5813 H 534.105 -3.43284 -0.033494 0
M  V30 5814 N 536.55 0.480323 -1.50102 0
M  V30 5815 C 537.497 1.57946 -1.6829 0
M  V30 5816 C 538.467 1.57611 -0.524223 0
M  V30 5817 O 539.652 1.75282 -0.753709 0
M  V30 5818 C 536.792 2.95978 -1.77457 0
M  V30 5819 C 535.905 3.06173 -3.04766 0
M  V30 5820 C 535.04 4.35063 -3.04784 0
M  V30 5821 C 534.079 4.38966 -4.26586 0
M  V30 5822 N 533.216 5.59314 -4.24396 0
M  V30 5823 H 538.056 1.41743 -2.62131 0
M  V30 5824 H 535.593 0.689304 -1.2995 0
M  V30 5825 H 537.551 3.76011 -1.80752 0
M  V30 5826 H 536.181 3.10837 -0.870637 0
M  V30 5827 H 535.233 2.19071 -3.10986 0
M  V30 5828 H 536.545 3.04916 -3.9475 0
M  V30 5829 H 535.699 5.23436 -3.06757 0
M  V30 5830 H 534.438 4.38915 -2.12614 0
M  V30 5831 H 533.443 3.48992 -4.24835 0
M  V30 5832 H 534.668 4.36813 -5.19972 0
M  V30 5833 H 532.614 5.63969 -3.35074 0
M  V30 5834 H 532.531 5.5976 -5.08138 0
M  V30 5835 H 533.799 6.49837 -4.30502 0
M  V30 5836 N 538.028 1.39524 0.732853 0
M  V30 5837 C 539.444 1.21176 1.03868 0
M  V30 5838 C 539.644 0.0748448 2.01361 0
M  V30 5839 O 538.7 -0.57281 2.45917 0
M  V30 5840 C 540.013 2.54667 1.59892 0
M  V30 5841 C 541.561 2.6153 1.71962 0
M  V30 5842 C 542.036 3.95248 2.31394 0
M  V30 5843 N 543.527 3.96899 2.38801 0
M  V30 5844 C 544.262 4.97138 2.85729 0
M  V30 5845 N 543.758 6.07775 3.32537 0
M  V30 5846 N 545.551 4.84516 2.84957 0
M  V30 5847 H 537.702 2.12225 0.086304 0
M  V30 5848 H 539.965 0.942614 0.100907 0
M  V30 5849 H 539.671 3.38423 0.95721 0
M  V30 5850 H 539.545 2.74538 2.58668 0
M  V30 5851 H 541.932 1.78156 2.35254 0
M  V30 5852 H 542.013 2.45507 0.718327 0
M  V30 5853 H 541.657 4.79054 1.68729 0
M  V30 5854 H 541.587 4.08593 3.32204 0
M  V30 5855 H 544.078 3.16998 2.05719 0
M  V30 5856 H 544.391 6.8017 3.66862 0
M  V30 5857 H 542.736 6.11366 3.30541 0
M  V30 5858 H 545.927 3.97185 2.47713 0
M  V30 5859 H 546.1 5.62783 3.21215 0
M  V30 5860 N 539.506 -0.963266 1.24736 0
M  V30 5861 C 540.469 -2.04013 1.04457 0
M  V30 5862 C 541.469 -1.608 0.000335555 0
M  V30 5863 O 542.659 -1.72515 0.241719 0
M  V30 5864 C 539.791 -3.35858 0.584162 0
M  V30 5865 H 540.984 -2.23436 2.00041 0
M  V30 5866 H 538.537 -1.13914 1.07021 0
M  V30 5867 H 539.272 -3.22128 -0.374673 0
M  V30 5868 H 539.057 -3.68568 1.3379 0
M  V30 5869 H 540.547 -4.1502 0.463451 0
M  V30 5870 N 540.985 -1.06182 -1.16461 0
M  V30 5871 C 542.396 -0.802426 -1.68576 0
M  V30 5872 C 542.747 0.67412 -1.84255 0
M  V30 5873 O 541.872 1.52303 -1.5373 0
M  V30 5874 C 542.467 -1.45002 -3.06202 0
M  V30 5875 C 541.026 -1.23843 -3.55443 0
M  V30 5876 C 540.173 -1.52724 -2.31454 0
M  V30 5877 H 543.124 -1.22545 -1.00839 0
M  V30 5878 H 543.145 -0.864731 -3.70544 0
M  V30 5879 H 542.657 -2.52466 -2.94759 0
M  V30 5880 H 540.758 -0.183487 -3.72148 0
M  V30 5881 H 540.871 -1.95036 -4.37604 0
M  V30 5882 H 539.235 -0.947726 -2.36411 0
M  V30 5883 H 540.018 -2.61343 -2.22609 0
M  V30 5884 N 542.463 1.3308 -0.844243 0
M  V30 5885 C 543.71 1.97605 -0.44255 0
M  V30 5886 C 544.038 1.66856 0.999458 0
M  V30 5887 O 543.293 0.943586 1.7145 0
M  V30 5888 C 543.592 3.52045 -0.616354 0
M  V30 5889 C 543.258 4.02757 -2.02726 0
M  V30 5890 C 541.92 4.16316 -2.41317 0
M  V30 5891 C 544.272 4.29776 -2.9486 0
M  V30 5892 C 541.6 4.54232 -3.71335 0
M  V30 5893 C 543.952 4.69146 -4.24364 0
M  V30 5894 C 542.616 4.80911 -4.62904 0
M  V30 5895 H 541.886 0.723088 -0.161941 0
M  V30 5896 H 544.533 1.58663 -1.0723 0
M  V30 5897 H 542.838 3.91681 0.0966812 0
M  V30 5898 H 544.535 3.99981 -0.285756 0
M  V30 5899 H 541.125 3.9268 -1.71756 0
M  V30 5900 H 545.309 4.18818 -2.6628 0
M  V30 5901 H 540.565 4.61535 -4.00993 0
M  V30 5902 H 544.739 4.89008 -4.95827 0
M  V30 5903 H 542.366 5.10048 -5.63698 0
M  V30 5904 N 543.941 0.601185 1.45683 0
M  V30 5905 C 545.218 0.0261659 1.95582 0
M  V30 5906 C 545.598 -1.4399 1.5437 0
M  V30 5907 O 544.946 -2.13919 0.80318 0
M  V30 5908 C 545.156 0.217557 3.48321 0
M  V30 5909 C 546.504 0.0950076 4.24494 0
M  V30 5910 O 547.528 0.147345 3.55895 0
M  V30 5911 O 546.387 -0.025261 5.46494 0
M  V30 5912 H 543.481 -0.0393688 0.826062 0
M  V30 5913 H 546.027 0.670798 1.55879 0
M  V30 5914 H 544.799 1.23601 3.71266 0
M  V30 5915 H 544.422 -0.46264 3.94899 0
M  V30 5916 N 545.419 -1.53889 0.339982 0
M  V30 5917 C 546.352 -2.21187 -0.561405 0
M  V30 5918 C 547.33 -1.19463 -1.10306 0
M  V30 5919 O 548.514 -1.48268 -1.164 0
M  V30 5920 C 545.641 -2.8865 -1.77198 0
M  V30 5921 C 544.687 -4.04232 -1.3601 0
M  V30 5922 S 545.52 -5.34129 -0.382909 0
M  V30 5923 C 546.676 -6.05094 -1.60039 0
M  V30 5924 H 546.909 -2.97298 0.0102092 0
M  V30 5925 H 544.442 -1.53901 0.124056 0
M  V30 5926 H 546.4 -3.28138 -2.4665 0
M  V30 5927 H 545.061 -2.12311 -2.3148 0
M  V30 5928 H 544.254 -4.50358 -2.2626 0
M  V30 5929 H 543.856 -3.66503 -0.745098 0
M  V30 5930 H 546.148 -6.2827 -2.53541 0
M  V30 5931 H 547.091 -6.98182 -1.18099 0
M  V30 5932 H 547.499 -5.35207 -1.79483 0
M  V30 5933 N 546.897 -0.0685191 -1.57451 0
M  V30 5934 C 548.144 0.601348 -1.93365 0
M  V30 5935 C 548.472 1.69816 -0.948294 0
M  V30 5936 O 547.727 1.95666 0.0366199 0
M  V30 5937 C 548.026 1.22051 -3.35914 0
M  V30 5938 C 547.692 0.250165 -4.50205 0
M  V30 5939 C 546.354 -0.0167954 -4.81197 0
M  V30 5940 C 548.706 -0.413867 -5.19554 0
M  V30 5941 C 546.034 -0.95493 -5.78876 0
M  V30 5942 C 548.386 -1.3403 -6.18238 0
M  V30 5943 C 547.05 -1.61576 -6.47649 0
M  V30 5944 H 546.32 0.220049 -0.707573 0
M  V30 5945 H 548.967 -0.138697 -1.90997 0
M  V30 5946 H 547.272 2.03622 -3.34732 0
M  V30 5947 H 548.969 1.74605 -3.6099 0
M  V30 5948 H 545.559 0.468421 -4.26033 0
M  V30 5949 H 549.743 -0.220733 -4.95809 0
M  V30 5950 H 544.999 -1.17563 -5.99991 0
M  V30 5951 H 549.173 -1.86081 -6.71079 0
M  V30 5952 H 546.8 -2.34431 -7.2315 0
M  V30 5953 N 548.375 1.56261 0.205012 0
M  V30 5954 C 549.285 1.96944 1.27476 0
M  V30 5955 C 550.301 0.875636 1.50362 0
M  V30 5956 O 551.477 1.18058 1.6317 0
M  V30 5957 C 548.542 2.29219 2.60115 0
M  V30 5958 C 547.603 3.52255 2.45387 0
M  V30 5959 C 546.836 3.8298 3.71701 0
M  V30 5960 O 547.059 3.15138 4.75441 0
M  V30 5961 O 545.993 4.76435 3.67823 0
M  V30 5962 H 549.819 2.88144 0.959527 0
M  V30 5963 H 547.404 1.43686 0.409217 0
M  V30 5964 H 549.286 2.51098 3.3842 0
M  V30 5965 H 547.961 1.4119 2.91285 0
M  V30 5966 H 546.868 3.35635 1.65227 0
M  V30 5967 H 548.201 4.40719 2.19152 0
M  V30 5968 N 549.853 -0.472356 1.50355 0
M  V30 5969 C 550.801 -1.59126 1.69651 0
M  V30 5970 C 551.795 -1.59793 0.56237 0
M  V30 5971 O 553.001 -1.63957 0.742832 0
M  V30 5972 H 549.376 -0.528008 0.535454 0
M  V30 5973 H 551.347 -1.40013 2.63513 0
M  V30 5974 C 550.096 -2.97075 1.8067 0
M  V30 5975 H 549.419 -2.9728 2.67329 0
M  V30 5976 H 550.859 -3.74825 1.98197 0
M  V30 5977 C 549.318 -3.32247 0.558016 0
M  V30 5978 O 549.848 -4.00553 -0.303399 0
M  V30 5979 N 548.054 -2.87659 0.412415 0
M  V30 5980 H 547.601 -2.32246 1.11443 0
M  V30 5981 H 547.559 -3.11556 -0.421908 0
M  V30 5982 N 551.331 -1.39911 -0.725443 0
M  V30 5983 C 552.747 -1.21725 -1.03224 0
M  V30 5984 C 552.947 -0.0855224 -2.01318 0
M  V30 5985 O 552.003 0.55976 -2.46217 0
M  V30 5986 C 553.316 -2.55511 -1.58539 0
M  V30 5987 C 554.864 -2.62439 -1.70572 0
M  V30 5988 C 555.339 -3.9647 -2.29294 0
M  V30 5989 N 556.83 -3.98159 -2.36692 0
M  V30 5990 C 557.565 -4.98647 -2.83088 0
M  V30 5991 N 557.061 -6.0953 -3.2931 0
M  V30 5992 N 558.854 -4.8602 -2.82384 0
M  V30 5993 H 551.005 -2.12267 -0.075048 0
M  V30 5994 H 553.268 -0.943136 -0.0959066 0
M  V30 5995 H 552.974 -3.38926 -0.939249 0
M  V30 5996 H 552.848 -2.75905 -2.57208 0
M  V30 5997 H 555.235 -1.79401 -2.34306 0
M  V30 5998 H 555.316 -2.45885 -0.705297 0
M  V30 5999 H 554.96 -4.79942 -1.66186 0
M  V30 6000 H 554.89 -4.10349 -3.30032 0
M  V30 6001 H 557.381 -3.18085 -2.04035 0
M  V30 6002 H 557.694 -6.82106 -3.6325 0
M  V30 6003 H 556.039 -6.1311 -3.27294 0
M  V30 6004 H 559.23 -3.98493 -2.45603 0
M  V30 6005 H 559.403 -5.64478 -3.18226 0
M  V30 6006 N 552.809 0.956637 -1.25245 0
M  V30 6007 C 553.756 2.053 -1.05454 0
M  V30 6008 C 554.726 1.66062 0.0356889 0
M  V30 6009 O 555.911 1.90415 -0.121099 0
M  V30 6010 C 553.051 3.38391 -0.677191 0
M  V30 6011 C 552.164 3.90758 -1.84206 0
M  V30 6012 C 551.299 5.12165 -1.40926 0
M  V30 6013 C 550.338 5.56757 -2.54338 0
M  V30 6014 N 549.475 6.69376 -2.11848 0
M  V30 6015 H 554.315 2.21562 -1.99284 0
M  V30 6016 H 551.852 1.08578 -0.992434 0
M  V30 6017 H 553.81 4.1488 -0.43938 0
M  V30 6018 H 552.44 3.22021 0.224127 0
M  V30 6019 H 551.492 3.10808 -2.19323 0
M  V30 6020 H 552.804 4.19802 -2.69383 0
M  V30 6021 H 551.958 5.96065 -1.13098 0
M  V30 6022 H 550.697 4.84832 -0.528175 0
M  V30 6023 H 549.702 4.71423 -2.82913 0
M  V30 6024 H 550.927 5.861 -3.43022 0
M  V30 6025 H 548.873 6.43756 -1.26153 0
M  V30 6026 H 548.79 6.97927 -2.90574 0
M  V30 6027 H 550.058 7.5669 -1.87191 0
M  V30 6028 N 554.287 1.06798 1.15896 0
M  V30 6029 C 555.234 0.683314 2.20453 0
M  V30 6030 C 556.204 -0.32255 1.62938 0
M  V30 6031 O 557.389 -0.210276 1.89638 0
M  V30 6032 C 554.529 0.0813266 3.45004 0
M  V30 6033 C 553.642 1.13799 4.16742 0
M  V30 6034 C 552.777 0.501598 5.28826 0
M  V30 6035 C 551.816 1.54144 5.92373 0
M  V30 6036 N 550.953 0.928038 6.9594 0
M  V30 6037 H 555.793 1.57932 2.52708 0
M  V30 6038 H 553.33 0.789544 1.24115 0
M  V30 6039 H 555.288 -0.285274 4.16224 0
M  V30 6040 H 553.918 -0.77806 3.13283 0
M  V30 6041 H 552.97 1.62223 3.44075 0
M  V30 6042 H 554.282 1.92664 4.60089 0
M  V30 6043 H 553.436 0.0823162 6.06644 0
M  V30 6044 H 552.175 -0.318883 4.86656 0
M  V30 6045 H 551.18 1.97056 5.13273 0
M  V30 6046 H 552.405 2.3641 6.36621 0
M  V30 6047 H 550.351 0.12836 6.55874 0
M  V30 6048 H 550.268 1.65401 7.37685 0
M  V30 6049 H 551.536 0.534071 7.77668 0
M  V30 6050 N 555.766 -1.3263 0.851289 0
M  V30 6051 C 557.182 -1.50162 0.5407 0
M  V30 6052 C 557.382 -1.78788 -0.929369 0
M  V30 6053 O 556.438 -1.85545 -1.71258 0
M  V30 6054 C 557.751 -2.64803 1.42478 0
M  V30 6055 C 559.299 -2.78688 1.42485 0
M  V30 6056 C 559.774 -3.96405 2.29407 0
M  V30 6057 N 561.265 -4.0366 2.27184 0
M  V30 6058 C 562 -4.93971 2.9117 0
M  V30 6059 N 561.496 -5.89313 3.64256 0
M  V30 6060 N 563.289 -4.87066 2.80576 0
M  V30 6061 H 555.44 -1.12315 1.80275 0
M  V30 6062 H 557.703 -0.553266 0.769806 0
M  V30 6063 H 557.409 -2.50368 2.46999 0
M  V30 6064 H 557.283 -3.60506 1.10974 0
M  V30 6065 H 559.67 -2.92547 0.387304 0
M  V30 6066 H 559.751 -1.83708 1.78002 0
M  V30 6067 H 559.395 -3.83304 3.33228 0
M  V30 6068 H 559.325 -4.90654 1.91224 0
M  V30 6069 H 561.816 -3.35435 1.74045 0
M  V30 6070 H 562.129 -6.54913 4.10255 0
M  V30 6071 H 560.474 -5.8935 3.68364 0
M  V30 6072 H 563.665 -4.11552 2.23031 0
M  V30 6073 H 563.838 -5.57248 3.30725 0
M  V30 6074 N 557.244 -0.608902 -1.45362 0
M  V30 6075 C 558.192 0.121639 -2.32282 0
M  V30 6076 C 559.186 0.858301 -1.46046 0
M  V30 6077 O 560.392 0.773718 -1.62523 0
M  V30 6078 H 556.767 0.058086 -0.749753 0
M  V30 6079 H 558.738 -0.629866 -2.91677 0
M  V30 6080 C 557.487 1.1047 -3.29684 0
M  V30 6081 H 556.81 0.547278 -3.96036 0
M  V30 6082 H 558.25 1.58576 -3.9323 0
M  V30 6083 C 556.709 2.17891 -2.56954 0
M  V30 6084 O 557.239 3.25652 -2.35189 0
M  V30 6085 N 555.445 1.93211 -2.17066 0
M  V30 6086 H 554.992 1.05584 -2.34967 0
M  V30 6087 H 554.95 2.6529 -1.68727 0
M  V30 6088 N 558.722 1.53707 -0.348139 0
M  V30 6089 C 559.67 2.26671 0.521808 0
M  V30 6090 C 560.664 1.28988 1.09811 0
M  V30 6091 O 561.87 1.4668 1.04332 0
M  V30 6092 H 558.245 0.728387 0.186968 0
M  V30 6093 H 560.216 2.98176 -0.115563 0
M  V30 6094 C 558.965 3.05591 1.6586 0
M  V30 6095 H 558.288 3.80589 1.22443 0
M  V30 6096 H 559.728 3.59851 2.24239 0
M  V30 6097 C 558.187 2.15366 2.59073 0
M  V30 6098 O 558.717 1.7528 3.61441 0
M  V30 6099 N 556.923 1.80352 2.27863 0
M  V30 6100 H 556.47 2.13149 1.44656 0
M  V30 6101 H 556.428 1.20268 2.90488 0
M  V30 6102 N 560.2 0.0768682 1.57412 0
M  V30 6103 C 561.449 -0.590679 1.92857 0
M  V30 6104 C 561.762 -1.70461 0.959293 0
M  V30 6105 O 562.968 -2.43207 1.20675 0
M  V30 6106 C 561.424 -1.10204 3.42612 0
M  V30 6107 C 561.032 -0.0188447 4.47996 0
M  V30 6108 C 562.776 -1.74336 3.87049 0
M  V30 6109 C 560.683 -0.544536 5.88888 0
M  V30 6110 H 559.613 -0.224411 0.71983 0
M  V30 6111 H 562.264 0.149924 1.82887 0
M  V30 6112 H 560.646 -1.89577 3.47673 0
M  V30 6113 H 561.82 0.755936 4.54557 0
M  V30 6114 H 560.135 0.526555 4.13057 0
M  V30 6115 H 562.732 -2.14708 4.89699 0
M  V30 6116 H 563.075 -2.60537 3.24694 0
M  V30 6117 H 563.608 -1.01577 3.84613 0
M  V30 6118 H 560.347 0.280426 6.549 0
M  V30 6119 H 559.867 -1.28673 5.85836 0
M  V30 6120 H 561.546 -1.01933 6.3892 0
M  V30 6121 N 561.678 -1.56367 -0.196722 0
M  V30 6122 C 562.625 -1.94417 -1.24382 0
M  V30 6123 C 563.595 -0.804543 -1.45315 0
M  V30 6124 O 564.78 -1.06256 -1.58475 0
M  V30 6125 C 561.92 -2.28757 -2.58388 0
M  V30 6126 C 561.033 -3.55775 -2.45047 0
M  V30 6127 C 560.168 -3.79445 -3.71746 0
M  V30 6128 C 559.207 -4.99894 -3.53231 0
M  V30 6129 N 558.344 -5.19826 -4.71938 0
M  V30 6130 H 563.184 -2.83691 -0.912338 0
M  V30 6131 H 560.721 -1.40392 -0.439135 0
M  V30 6132 H 562.679 -2.46682 -3.36457 0
M  V30 6133 H 561.309 -1.42625 -2.89582 0
M  V30 6134 H 560.361 -3.45905 -1.58284 0
M  V30 6135 H 561.673 -4.44 -2.27299 0
M  V30 6136 H 560.827 -3.97601 -4.58256 0
M  V30 6137 H 559.566 -2.89546 -3.92446 0
M  V30 6138 H 558.571 -4.81662 -2.65107 0
M  V30 6139 H 559.796 -5.913 -3.33978 0
M  V30 6140 H 557.742 -4.32875 -4.92905 0
M  V30 6141 H 557.659 -6.02228 -4.57009 0
M  V30 6142 H 558.927 -5.42439 -5.59803 0
M  V30 6143 N 563.156 0.464375 -1.50603 0
M  V30 6144 C 564.086 1.56944 -1.72889 0
M  V30 6145 C 565.067 1.59979 -0.577997 0
M  V30 6146 O 566.252 1.76138 -0.817855 0
M  V30 6147 C 563.382 2.95225 -1.8292 0
M  V30 6148 C 562.336 3.07056 -2.98162 0
M  V30 6149 C 561.662 4.47051 -2.93343 0
M  V30 6150 C 562.962 2.83648 -4.38567 0
M  V30 6151 H 564.656 1.38547 -2.65415 0
M  V30 6152 H 562.202 0.665082 -1.27721 0
M  V30 6153 H 564.155 3.72467 -1.97095 0
M  V30 6154 H 562.879 3.14793 -0.870209 0
M  V30 6155 H 561.538 2.32248 -2.83648 0
M  V30 6156 H 561.186 4.63547 -1.95276 0
M  V30 6157 H 560.886 4.55902 -3.70712 0
M  V30 6158 H 562.41 5.26304 -3.09575 0
M  V30 6159 H 563.824 3.50636 -4.53572 0
M  V30 6160 H 562.221 3.03937 -5.17438 0
M  V30 6161 H 563.291 1.79451 -4.50472 0
M  V30 6162 N 564.634 1.40294 0.718013 0
M  V30 6163 C 565.864 1.41544 1.50495 0
M  V30 6164 C 566.272 0.0127877 1.89196 0
M  V30 6165 O 565.615 -0.97305 1.55812 0
M  V30 6166 C 565.677 2.24021 2.81167 0
M  V30 6167 C 565.341 3.72463 2.64803 0
M  V30 6168 C 566.338 4.65154 2.32223 0
M  V30 6169 C 564.023 4.1625 2.81143 0
M  V30 6170 C 566.017 5.99618 2.16189 0
M  V30 6171 C 563.704 5.50784 2.64727 0
M  V30 6172 C 564.702 6.42283 2.32297 0
M  V30 6173 O 564.39 7.74337 2.16004 0
M  V30 6174 H 564.122 0.484819 0.471091 0
M  V30 6175 H 566.676 1.84948 0.893488 0
M  V30 6176 H 564.906 1.75393 3.44636 0
M  V30 6177 H 566.595 2.17243 3.42871 0
M  V30 6178 H 567.361 4.32622 2.19234 0
M  V30 6179 H 563.24 3.45352 3.05373 0
M  V30 6180 H 566.784 6.71 1.90799 0
M  V30 6181 H 562.681 5.82902 2.773 0
M  V30 6182 H 563.449 7.85244 2.30942 0
M  V30 6183 N 566.112 -0.949982 1.2575 0
M  V30 6184 C 567.358 -1.69766 1.10938 0
M  V30 6185 C 567.691 -1.91056 -0.348028 0
M  V30 6186 O 566.966 -1.48488 -1.25625 0
M  V30 6187 C 567.249 -3.07779 1.86933 0
M  V30 6188 C 567.102 -2.9387 3.4053 0
M  V30 6189 C 568.421 -4.07749 1.65616 0
M  V30 6190 H 565.54 -0.616144 0.404396 0
M  V30 6191 H 568.182 -1.10394 1.54639 0
M  V30 6192 H 566.332 -3.58462 1.4979 0
M  V30 6193 H 568.004 -2.50476 3.87375 0
M  V30 6194 H 566.247 -2.29686 3.68004 0
M  V30 6195 H 566.918 -3.91719 3.88922 0
M  V30 6196 H 569.394 -3.65994 1.97959 0
M  V30 6197 H 568.27 -5.02348 2.21218 0
M  V30 6198 H 568.531 -4.38029 0.598595 0
M  V30 6199 N 567.59 -1.07411 -1.15328 0
M  V30 6200 C 569.006 -0.799759 -1.38116 0
M  V30 6201 C 569.206 0.59572 -1.92493 0
M  V30 6202 O 568.262 1.35433 -2.13106 0
M  V30 6203 C 569.575 -1.87407 -2.35158 0
M  V30 6204 C 571.123 -1.89889 -2.48819 0
M  V30 6205 C 571.598 -2.96406 -3.49153 0
M  V30 6206 N 573.089 -2.95512 -3.56689 0
M  V30 6207 C 573.824 -3.74575 -4.34144 0
M  V30 6208 N 573.32 -4.63488 -5.14928 0
M  V30 6209 N 575.113 -3.62919 -4.29239 0
M  V30 6210 H 567.264 -1.97411 -0.78374 0
M  V30 6211 H 569.527 -0.856113 -0.407154 0
M  V30 6212 H 569.233 -2.8768 -2.0232 0
M  V30 6213 H 569.107 -1.73471 -3.34944 0
M  V30 6214 H 571.494 -0.902677 -2.80955 0
M  V30 6215 H 571.575 -2.07904 -1.49029 0
M  V30 6216 H 571.219 -3.96227 -3.17752 0
M  V30 6217 H 571.149 -2.75638 -4.48699 0
M  V30 6218 H 573.64 -2.31061 -2.99031 0
M  V30 6219 H 573.953 -5.20445 -5.71276 0
M  V30 6220 H 572.298 -4.67537 -5.14232 0
M  V30 6221 H 575.489 -2.92833 -3.65194 0
M  V30 6222 H 575.662 -4.24777 -4.89355 0
M  V30 6223 N 569.068 1.32177 -0.85831 0
M  V30 6224 C 570.484 1.49873 -0.548656 0
M  V30 6225 C 570.684 1.79278 0.919874 0
M  V30 6226 O 569.74 1.86451 1.70271 0
M  V30 6227 C 571.053 2.64043 -1.4388 0
M  V30 6228 C 572.601 2.77928 -1.43961 0
M  V30 6229 C 573.076 3.95182 -2.31506 0
M  V30 6230 N 574.567 4.0245 -2.29321 0
M  V30 6231 C 575.302 4.9242 -2.93786 0
M  V30 6232 N 574.798 5.87373 -3.67376 0
M  V30 6233 N 576.591 4.85572 -2.83155 0
M  V30 6234 H 568.742 1.11357 -1.80868 0
M  V30 6235 H 571.005 0.549175 -0.772729 0
M  V30 6236 H 570.711 2.49055 -2.48324 0
M  V30 6237 H 570.585 3.59912 -1.12885 0
M  V30 6238 H 572.972 2.92338 -0.402813 0
M  V30 6239 H 573.053 1.82762 -1.78974 0
M  V30 6240 H 572.697 3.81531 -3.35256 0
M  V30 6241 H 572.627 4.89633 -1.93823 0
M  V30 6242 H 575.118 3.34507 -1.75822 0
M  V30 6243 H 575.431 6.52728 -4.13722 0
M  V30 6244 H 573.776 5.87388 -3.71484 0
M  V30 6245 H 576.967 4.10363 -2.25211 0
M  V30 6246 H 577.14 5.55486 -3.33676 0
M  V30 6247 N 570.547 0.616602 1.45037 0
M  V30 6248 C 571.793 0.115501 2.02471 0
M  V30 6249 C 572.126 -1.25406 1.4828 0
M  V30 6250 O 571.401 -1.82922 0.661051 0
M  V30 6251 C 571.684 0.0863588 3.59996 0
M  V30 6252 C 571.537 1.48723 4.24501 0
M  V30 6253 C 572.856 -0.596762 4.36035 0
M  V30 6254 H 569.975 0.0434461 0.735718 0
M  V30 6255 H 572.617 0.7903 1.72784 0
M  V30 6256 H 570.767 -0.488277 3.85419 0
M  V30 6257 H 572.439 2.10964 4.10234 0
M  V30 6258 H 570.682 2.04534 3.82555 0
M  V30 6259 H 571.353 1.419 5.3345 0
M  V30 6260 H 573.829 -0.10824 4.15959 0
M  V30 6261 H 572.705 -0.586289 5.4576 0
M  V30 6262 H 572.966 -1.66451 4.09569 0
M  V30 6263 N 572.025 -1.5352 0.356285 0
M  V30 6264 C 573.272 -2.01117 -0.236303 0
M  V30 6265 C 573.6 -1.24381 -1.49531 0
M  V30 6266 O 572.855 -0.323057 -1.93015 0
M  V30 6267 C 573.154 -3.52607 -0.583369 0
M  V30 6268 C 572.82 -4.47151 0.58023 0
M  V30 6269 C 571.482 -4.72718 0.899528 0
M  V30 6270 C 573.834 -5.03137 1.36024 0
M  V30 6271 C 571.162 -5.51523 2.00098 0
M  V30 6272 C 573.514 -5.83145 2.45204 0
M  V30 6273 C 572.178 -6.07001 2.77679 0
M  V30 6274 H 571.448 -0.735938 -0.0864695 0
M  V30 6275 H 574.095 -1.85209 0.48683 0
M  V30 6276 H 572.4 -3.66413 -1.38739 0
M  V30 6277 H 574.097 -3.86901 -1.05397 0
M  V30 6278 H 570.687 -4.27394 0.321322 0
M  V30 6279 H 574.871 -4.83339 1.12682 0
M  V30 6280 H 570.127 -5.68229 2.25668 0
M  V30 6281 H 574.301 -6.25537 3.06067 0
M  V30 6282 H 571.928 -6.67851 3.63151 0
M  V30 6283 N 573.503 -0.0852151 -1.57369 0
M  V30 6284 C 574.752 0.580443 -1.93168 0
M  V30 6285 C 575.065 1.6995 -0.968319 0
M  V30 6286 O 576.271 2.42564 -1.21963 0
M  V30 6287 C 574.727 1.08386 -3.43192 0
M  V30 6288 C 574.335 -0.00491388 -4.48 0
M  V30 6289 C 576.079 1.72281 -3.87968 0
M  V30 6290 C 573.986 0.513299 -5.89168 0
M  V30 6291 H 572.916 0.22059 -0.72101 0
M  V30 6292 H 575.567 -0.159621 -1.82804 0
M  V30 6293 H 573.949 1.8773 -3.48674 0
M  V30 6294 H 575.123 -0.780032 -4.5415 0
M  V30 6295 H 573.438 -0.548453 -4.12772 0
M  V30 6296 H 576.035 2.12108 -4.9083 0
M  V30 6297 H 576.378 2.58811 -3.26071 0
M  V30 6298 H 576.911 0.995359 -3.85146 0
M  V30 6299 H 573.65 -0.315153 -6.54742 0
M  V30 6300 H 573.17 1.25564 -5.8651 0
M  V30 6301 H 574.849 0.985433 -6.39451 0
M  V30 6302 N 574.981 1.5647 0.188427 0
M  V30 6303 C 575.914 1.90146 1.26173 0
M  V30 6304 C 576.892 0.762294 1.43624 0
M  V30 6305 O 578.076 1.01395 1.58907 0
M  V30 6306 C 575.203 2.13748 2.62735 0
M  V30 6307 C 574.249 3.36448 2.62116 0
M  V30 6308 S 575.082 4.91364 2.12889 0
M  V30 6309 C 576.238 5.18041 3.51261 0
M  V30 6310 H 576.471 2.80886 0.974192 0
M  V30 6311 H 574.004 1.49335 0.392226 0
M  V30 6312 H 575.962 2.28028 3.41341 0
M  V30 6313 H 574.623 1.23747 2.88696 0
M  V30 6314 H 573.816 3.50109 3.62546 0
M  V30 6315 H 573.418 3.21196 1.91596 0
M  V30 6316 H 575.71 5.0897 4.47164 0
M  V30 6317 H 576.653 6.19764 3.42489 0
M  V30 6318 H 577.061 4.45657 3.46482 0
M  V30 6319 N 576.459 -0.456382 1.50847 0
M  V30 6320 C 577.736 -1.21739 1.53098 0
M  V30 6321 C 578.116 -2.09179 0.284132 0
M  V30 6322 O 577.464 -2.16466 -0.731773 0
M  V30 6323 C 577.674 -2.03573 2.83477 0
M  V30 6324 C 579.022 -2.61264 3.34703 0
M  V30 6325 O 580.046 -2.13802 2.84898 0
M  V30 6326 O 578.905 -3.47779 4.21559 0
M  V30 6327 H 575.999 -0.553219 0.614718 0
M  V30 6328 H 578.545 -0.467003 1.63148 0
M  V30 6329 H 577.317 -1.39232 3.65691 0
M  V30 6330 H 576.94 -2.85716 2.76499 0
M  V30 6331 N 577.937 -1.40673 -0.710563 0
M  V30 6332 C 579.214 -1.29718 -1.46398 0
M  V30 6333 C 579.594 0.082177 -2.1094 0
M  V30 6334 O 578.942 1.09536 -2.00534 0
M  V30 6335 C 579.152 -2.43967 -2.49562 0
M  V30 6336 C 580.5 -2.84436 -3.15248 0
M  V30 6337 O 581.524 -2.43597 -2.59883 0
M  V30 6338 O 580.383 -3.55008 -4.1549 0
M  V30 6339 H 577.477 -0.509697 -0.651258 0
M  V30 6340 H 580.023 -1.52603 -0.742312 0
M  V30 6341 H 578.795 -3.36076 -2.0042 0
M  V30 6342 H 578.418 -2.22879 -3.29258 0
M  V30 6343 N 579.415 0.9433 -1.26252 0
M  V30 6344 C 580.655 1.70397 -1.1289 0
M  V30 6345 C 581.019 1.89268 0.322713 0
M  V30 6346 O 582.22 2.62503 0.578418 0
M  V30 6347 C 580.491 3.04296 -1.87453 0
M  V30 6348 S 582.05 3.95475 -1.90119 0
M  V30 6349 H 578.868 0.585559 -0.403289 0
M  V30 6350 H 581.47 1.12424 -1.59941 0
M  V30 6351 H 580.174 2.8824 -2.9214 0
M  V30 6352 H 579.705 3.67327 -1.40835 0
M  V30 6353 H 581.72 4.86297 -0.986373 0
M  V30 6354 N 580.893 1.08022 1.14757 0
M  V30 6355 C 581.803 0.718292 2.23333 0
M  V30 6356 C 582.819 -0.273477 1.71837 0
M  V30 6357 O 583.995 -0.118406 2.01052 0
M  V30 6358 C 581.06 0.128855 3.4646 0
M  V30 6359 C 580.121 1.17473 4.12915 0
M  V30 6360 C 579.354 0.61333 5.30164 0
M  V30 6361 O 579.577 -0.568458 5.6756 0
M  V30 6362 O 578.511 1.3615 5.86299 0
M  V30 6363 H 582.337 1.62394 2.56636 0
M  V30 6364 H 579.922 0.853628 1.22611 0
M  V30 6365 H 581.804 -0.197249 4.20938 0
M  V30 6366 H 580.479 -0.750014 3.14891 0
M  V30 6367 H 579.386 1.5533 3.40328 0
M  V30 6368 H 580.719 2.02574 4.48581 0
M  V30 6369 N 582.371 -1.3172 0.865308 0
M  V30 6370 C 583.281 -2.32394 0.320935 0
M  V30 6371 C 584.297 -1.64511 -0.566746 0
M  V30 6372 O 585.473 -1.95969 -0.464575 0
M  V30 6373 C 582.538 -3.43462 -0.472701 0
M  V30 6374 C 581.599 -4.27015 0.442385 0
M  V30 6375 C 580.832 -5.32779 -0.313469 0
M  V30 6376 O 581.055 -5.49158 -1.54214 0
M  V30 6377 O 579.989 -6.01015 0.326257 0
M  V30 6378 H 583.815 -2.80868 1.15528 0
M  V30 6379 H 581.4 -1.35535 0.628545 0
M  V30 6380 H 583.282 -4.11172 -0.922781 0
M  V30 6381 H 581.957 -2.97159 -1.28367 0
M  V30 6382 H 580.864 -3.62075 0.940866 0
M  V30 6383 H 582.197 -4.76871 1.21882 0
M  V30 6384 N 583.85 -0.624285 -1.44708 0
M  V30 6385 C 585.099 -0.123539 -2.01321 0
M  V30 6386 C 585.412 1.25966 -1.49639 0
M  V30 6387 O 586.618 1.85405 -1.98336 0
M  V30 6388 C 585.074 -0.170124 -3.59498 0
M  V30 6389 C 584.682 -1.55421 -4.20176 0
M  V30 6390 C 586.426 0.274513 -4.23611 0
M  V30 6391 C 584.332 -1.55628 -5.70556 0
M  V30 6392 H 583.263 -0.0424183 -0.752806 0
M  V30 6393 H 585.913 -0.782076 -1.65999 0
M  V30 6394 H 584.296 0.555385 -3.92086 0
M  V30 6395 H 585.47 -2.30276 -3.99136 0
M  V30 6396 H 583.784 -1.94235 -3.68323 0
M  V30 6397 H 586.382 0.292402 -5.339 0
M  V30 6398 H 586.725 1.3005 -3.95465 0
M  V30 6399 H 587.258 -0.398275 -3.95801 0
M  V30 6400 H 583.997 -2.56041 -6.03426 0
M  V30 6401 H 583.517 -0.850563 -5.93739 0
M  V30 6402 H 585.196 -1.28721 -6.34066 0
M  V30 6403 N 585.328 1.53329 -0.364422 0
M  V30 6404 C 586.577 2.00421 0.226747 0
M  V30 6405 C 586.89 1.25581 1.49963 0
M  V30 6406 O 588.096 1.63256 2.16933 0
M  V30 6407 C 586.552 3.57017 0.454618 0
M  V30 6408 C 586.16 4.40734 -0.803568 0
M  V30 6409 C 587.904 4.12468 1.00351 0
M  V30 6410 C 585.811 5.8888 -0.545345 0
M  V30 6411 H 584.741 0.748787 0.0885082 0
M  V30 6412 H 587.392 1.7703 -0.482983 0
M  V30 6413 H 585.774 3.76558 1.22558 0
M  V30 6414 H 586.948 4.32967 -1.57723 0
M  V30 6415 H 585.263 3.96381 -1.27559 0
M  V30 6416 H 587.86 5.20783 1.212 0
M  V30 6417 H 588.203 3.6699 1.9653 0
M  V30 6418 H 588.736 3.96721 0.29274 0
M  V30 6419 H 585.475 6.38633 -1.47743 0
M  V30 6420 H 584.995 5.99499 0.189842 0
M  V30 6421 H 586.674 6.46776 -0.170425 0
M  V30 6422 N 586.806 0.0935595 1.57322 0
M  V30 6423 C 588.217 -0.435807 1.81542 0
M  V30 6424 C 588.568 -1.68263 1.00907 0
M  V30 6425 O 587.693 -2.15087 0.237983 0
M  V30 6426 C 588.288 -0.797436 3.29282 0
M  V30 6427 C 586.847 -1.27155 3.54272 0
M  V30 6428 C 585.994 -0.267455 2.76007 0
M  V30 6429 H 588.945 0.31902 1.5546 0
M  V30 6430 H 588.966 -1.6571 3.42521 0
M  V30 6431 H 588.478 0.110206 3.87943 0
M  V30 6432 H 586.579 -2.19696 3.00939 0
M  V30 6433 H 586.692 -1.23445 4.62923 0
M  V30 6434 H 585.056 -0.749282 2.43429 0
M  V30 6435 H 585.839 0.632839 3.37417 0
M  V30 6436 N 588.284 -1.56567 -0.180126 0
M  V30 6437 C 589.194 -1.98947 -1.24327 0
M  V30 6438 C 590.21 -0.899446 -1.4895 0
M  V30 6439 O 591.386 -1.20639 -1.61271 0
M  V30 6440 C 588.451 -2.33328 -2.56435 0
M  V30 6441 C 587.512 -3.56114 -2.39752 0
M  V30 6442 C 586.745 -3.88845 -3.65561 0
M  V30 6443 O 586.968 -3.22662 -4.70368 0
M  V30 6444 O 585.902 -4.82226 -3.60197 0
M  V30 6445 H 589.728 -2.89634 -0.913565 0
M  V30 6446 H 587.313 -1.44319 -0.386306 0
M  V30 6447 H 589.195 -2.5645 -3.34382 0
M  V30 6448 H 587.87 -1.45806 -2.89002 0
M  V30 6449 H 586.777 -3.38221 -1.59866 0
M  V30 6450 H 588.11 -4.4415 -2.12113 0
M  V30 6451 N 589.762 0.448376 -1.51087 0
M  V30 6452 C 591.008 1.19748 -1.64414 0
M  V30 6453 C 591.363 1.89177 -0.350715 0
M  V30 6454 O 590.656 1.80135 0.652834 0
M  V30 6455 C 590.85 2.24866 -2.77795 0
M  V30 6456 C 590.679 1.65753 -4.18038 0
M  V30 6457 C 589.449 1.44728 -4.8413 0
M  V30 6458 C 591.647 1.13985 -5.0151 0
M  V30 6459 N 589.629 0.810962 -6.0852 0
M  V30 6460 C 591 0.628141 -6.1681 0
M  V30 6461 C 593.055 1.03055 -4.87118 0
M  V30 6462 C 591.758 0.0178906 -7.19298 0
M  V30 6463 C 593.784 0.434212 -5.89804 0
M  V30 6464 C 593.146 -0.0670069 -7.04368 0
M  V30 6465 H 589.245 0.426254 -0.655615 0
M  V30 6466 H 591.829 0.495806 -1.88281 0
M  V30 6467 H 590 2.92434 -2.55611 0
M  V30 6468 H 591.732 2.91857 -2.8036 0
M  V30 6469 H 588.487 1.70593 -4.41809 0
M  V30 6470 H 588.911 0.510563 -6.75072 0
M  V30 6471 H 593.553 1.40395 -3.9881 0
M  V30 6472 H 591.271 -0.367662 -8.07263 0
M  V30 6473 H 594.857 0.3517 -5.80736 0
M  V30 6474 H 593.737 -0.521209 -7.82466 0
M  V30 6475 N 591.24 1.41047 0.703093 0
M  V30 6476 C 592.17 1.45067 1.82969 0
M  V30 6477 C 593.151 0.31016 1.67248 0
M  V30 6478 O 594.336 0.520548 1.87093 0
M  V30 6479 C 591.466 1.32478 3.2104 0
M  V30 6480 C 590.42 2.44262 3.51454 0
M  V30 6481 C 589.746 2.16742 4.88801 0
M  V30 6482 C 591.046 3.86606 3.51189 0
M  V30 6483 H 592.74 2.39353 1.79863 0
M  V30 6484 H 590.286 1.15206 0.863919 0
M  V30 6485 H 592.239 1.33904 3.99559 0
M  V30 6486 H 590.963 0.346735 3.24754 0
M  V30 6487 H 589.622 2.42107 2.75282 0
M  V30 6488 H 589.27 1.17299 4.89132 0
M  V30 6489 H 588.97 2.91643 5.10116 0
M  V30 6490 H 590.494 2.19872 5.69639 0
M  V30 6491 H 591.908 3.90517 4.19725 0
M  V30 6492 H 590.305 4.61128 3.84033 0
M  V30 6493 H 591.375 4.15296 2.50315 0
M  V30 6494 N 592.718 -0.936591 1.26751 0
M  V30 6495 C 593.666 -2.0573 1.08527 0
M  V30 6496 C 594.66 -1.69397 0.0108784 0
M  V30 6497 O 595.866 -1.79215 0.167915 0
M  V30 6498 H 592.241 -0.673691 0.334133 0
M  V30 6499 H 594.212 -2.1825 2.03493 0
M  V30 6500 C 592.961 -3.39738 0.739845 0
M  V30 6501 H 592.284 -3.68174 1.55845 0
M  V30 6502 H 593.724 -4.18955 0.652149 0
M  V30 6503 C 592.183 -3.32292 -0.555288 0
M  V30 6504 O 592.713 -3.68794 -1.59229 0
M  V30 6505 N 590.919 -2.85394 -0.54762 0
M  V30 6506 H 590.466 -2.55886 0.296667 0
M  V30 6507 H 590.424 -2.80795 -1.41427 0
M  V30 6508 N 594.196 -1.08629 -1.14182 0
M  V30 6509 C 595.443 -0.817345 -1.85272 0
M  V30 6510 C 595.771 0.656917 -1.83071 0
M  V30 6511 O 595.026 1.49897 -1.25815 0
M  V30 6512 C 595.325 -1.28734 -3.3341 0
M  V30 6513 C 594.991 -2.76981 -3.55798 0
M  V30 6514 C 593.653 -3.17469 -3.61617 0
M  V30 6515 C 596.005 -3.72605 -3.64438 0
M  V30 6516 C 593.333 -4.52371 -3.736 0
M  V30 6517 C 595.685 -5.07286 -3.77947 0
M  V30 6518 C 594.349 -5.47376 -3.82016 0
M  V30 6519 H 593.619 -0.299088 -0.677958 0
M  V30 6520 H 596.266 -1.35962 -1.34857 0
M  V30 6521 H 594.571 -0.664702 -3.8612 0
M  V30 6522 H 596.268 -1.05598 -3.86846 0
M  V30 6523 H 592.858 -2.44644 -3.51919 0
M  V30 6524 H 597.042 -3.42443 -3.5923 0
M  V30 6525 H 592.298 -4.82882 -3.75013 0
M  V30 6526 H 596.472 -5.81243 -3.83575 0
M  V30 6527 H 594.099 -6.51906 -3.91054 0
M  V30 6528 N 595.674 1.31259 -0.872281 0
M  V30 6529 C 596.92 1.96913 -0.485083 0
M  V30 6530 C 597.253 1.68774 0.960667 0
M  V30 6531 O 596.528 0.985495 1.67685 0
M  V30 6532 C 596.811 3.52299 -0.745502 0
M  V30 6533 C 596.664 3.90002 -2.24095 0
M  V30 6534 C 597.983 4.39582 -0.213516 0
M  V30 6535 H 595.102 0.715252 -0.177716 0
M  V30 6536 H 597.744 1.55347 -1.09395 0
M  V30 6537 H 595.894 3.87835 -0.227276 0
M  V30 6538 H 597.566 3.64555 -2.82661 0
M  V30 6539 H 595.809 3.38526 -2.71261 0
M  V30 6540 H 596.48 4.98352 -2.37381 0
M  V30 6541 H 598.956 4.10882 -0.656902 0
M  V30 6542 H 597.832 5.47251 -0.42516 0
M  V30 6543 H 598.093 4.33158 0.884666 0
M  V30 6544 N 597.152 0.631951 1.44375 0
M  V30 6545 C 598.099 -0.0724807 2.30686 0
M  V30 6546 C 599.069 -0.835975 1.43529 0
M  V30 6547 O 600.254 -0.816849 1.7243 0
M  V30 6548 C 597.394 -1.04753 3.28817 0
M  V30 6549 C 596.507 -0.282367 4.31076 0
M  V30 6550 C 595.642 -1.2493 5.163 0
M  V30 6551 C 594.681 -0.473349 6.10267 0
M  V30 6552 N 593.818 -1.39079 6.88187 0
M  V30 6553 H 598.658 0.669477 2.90383 0
M  V30 6554 H 596.195 0.341927 1.43071 0
M  V30 6555 H 598.153 -1.62623 3.842 0
M  V30 6556 H 596.783 -1.75661 2.70819 0
M  V30 6557 H 595.835 0.412268 3.78159 0
M  V30 6558 H 597.147 0.321955 4.9776 0
M  V30 6559 H 596.301 -1.89931 5.76204 0
M  V30 6560 H 595.04 -1.88755 4.49692 0
M  V30 6561 H 594.045 0.190142 5.49471 0
M  V30 6562 H 595.27 0.16019 6.78911 0
M  V30 6563 H 593.216 -2.01623 6.24247 0
M  V30 6564 H 593.133 -0.840513 7.51313 0
M  V30 6565 H 594.401 -2.02961 7.52613 0
M  V30 6566 N 598.631 -1.53133 0.372548 0
M  V30 6567 C 599.879 -2.00958 -0.214534 0
M  V30 6568 C 600.2 -1.26135 -1.48711 0
M  V30 6569 O 599.47 -0.376597 -1.92246 0
M  V30 6570 H 598.05 -0.742456 -0.0822664 0
M  V30 6571 H 600.712 -1.88367 0.500385 0
M  V30 6572 H 599.808 -3.09031 -0.436605 0
M  V30 6573 N 600.109 -0.101901 -1.5727 0
M  V30 6574 C 601.355 0.561027 -1.94885 0
M  V30 6575 C 601.688 1.6741 -0.984258 0
M  V30 6576 O 600.963 1.94491 -0.0184767 0
M  V30 6577 C 601.246 1.10982 -3.42571 0
M  V30 6578 C 601.099 0.00133418 -4.498 0
M  V30 6579 C 602.418 2.00608 -3.9172 0
M  V30 6580 H 599.537 0.202467 -0.708644 0
M  V30 6581 H 602.179 -0.173992 -1.89202 0
M  V30 6582 H 600.329 1.73621 -3.47546 0
M  V30 6583 H 602.001 -0.63322 -4.56933 0
M  V30 6584 H 600.244 -0.664143 -4.28686 0
M  V30 6585 H 600.915 0.426253 -5.50352 0
M  V30 6586 H 603.391 1.47864 -3.88941 0
M  V30 6587 H 602.267 2.3593 -4.95609 0
M  V30 6588 H 602.528 2.92608 -3.3141 0
M  V30 6589 N 601.587 1.56661 0.17182 0
M  V30 6590 C 602.833 1.82235 0.889845 0
M  V30 6591 C 603.166 0.679673 1.81918 0
M  V30 6592 O 602.441 -0.318404 1.91876 0
M  V30 6593 C 602.724 3.18195 1.68595 0
M  V30 6594 C 602.577 4.42989 0.779773 0
M  V30 6595 C 603.896 3.5109 2.65375 0
M  V30 6596 H 601.015 0.66291 0.322056 0
M  V30 6597 H 603.657 1.89358 0.15608 0
M  V30 6598 H 601.807 3.12253 2.3115 0
M  V30 6599 H 603.479 4.60997 0.16714 0
M  V30 6600 H 601.722 4.33711 0.0877964 0
M  V30 6601 H 602.393 5.3467 1.3723 0
M  V30 6602 H 604.869 3.57482 2.12946 0
M  V30 6603 H 603.745 4.47298 3.18144 0
M  V30 6604 H 604.006 2.75768 3.45549 0
M  V30 6605 N 603.065 -0.440357 1.51323 0
M  V30 6606 C 604.342 -1.20109 1.5438 0
M  V30 6607 C 604.722 -2.08866 0.306303 0
M  V30 6608 O 604.07 -2.1723 -0.708773 0
M  V30 6609 C 604.28 -2.00555 2.8562 0
M  V30 6610 C 605.628 -2.577 3.37455 0
M  V30 6611 O 606.652 -2.10769 2.8715 0
M  V30 6612 O 605.511 -3.43289 4.25224 0
M  V30 6613 H 602.605 -0.546668 0.620551 0
M  V30 6614 H 605.151 -0.449672 1.63634 0
M  V30 6615 H 603.923 -1.35346 3.67147 0
M  V30 6616 H 603.546 -2.82768 2.79514 0
M  V30 6617 N 604.543 -1.41418 -0.695603 0
M  V30 6618 C 605.768 -1.44329 -1.48942 0
M  V30 6619 C 606.193 -0.0501579 -1.88033 0
M  V30 6620 O 605.551 0.946598 -1.54626 0
M  V30 6621 C 605.599 -2.3578 -2.72837 0
M  V30 6622 O 604.703 -1.81482 -3.70322 0
M  V30 6623 H 604.044 -0.489838 -0.44828 0
M  V30 6624 H 606.574 -1.85878 -0.855014 0
M  V30 6625 H 606.584 -2.51654 -3.21145 0
M  V30 6626 H 605.259 -3.37005 -2.43722 0
M  V30 6627 H 603.836 -1.75058 -3.29255 0
M  V30 6628 N 606.021 0.929856 -1.27246 0
M  V30 6629 C 606.931 2.0636 -1.11592 0
M  V30 6630 C 607.947 1.73938 -0.046496 0
M  V30 6631 O 609.123 1.9981 -0.252544 0
M  V30 6632 C 606.188 3.38213 -0.762437 0
M  V30 6633 C 605.249 3.84346 -1.9125 0
M  V30 6634 C 604.482 5.09906 -1.57579 0
M  V30 6635 O 604.705 5.68354 -0.482694 0
M  V30 6636 O 603.639 5.51359 -2.41426 0
M  V30 6637 H 607.465 2.22478 -2.0673 0
M  V30 6638 H 605.05 1.04865 -1.06413 0
M  V30 6639 H 606.932 4.1741 -0.57854 0
M  V30 6640 H 605.607 3.23307 0.159439 0
M  V30 6641 H 604.514 3.06045 -2.15144 0
M  V30 6642 H 605.847 4.0379 -2.81451 0
M  V30 6643 N 607.499 1.09233 1.13605 0
M  V30 6644 C 608.776 0.739633 1.81077 0
M  V30 6645 C 609.156 -0.775595 1.96336 0
M  V30 6646 O 608.504 -1.69726 1.52988 0
M  V30 6647 C 608.714 1.47636 3.16235 0
M  V30 6648 C 610.062 1.64087 3.91613 0
M  V30 6649 O 611.086 1.43871 3.25852 0
M  V30 6650 O 609.945 1.97511 5.0956 0
M  V30 6651 H 607.039 0.265464 0.783236 0
M  V30 6652 H 609.585 1.19441 1.20549 0
M  V30 6653 H 608.357 2.50818 3.00344 0
M  V30 6654 H 607.98 1.01362 3.84462 0
M  V30 6655 N 608.977 -1.30795 0.87923 0
M  V30 6656 C 609.907 -2.30742 0.357796 0
M  V30 6657 C 610.888 -1.60747 -0.556283 0
M  V30 6658 O 612.073 -1.88393 -0.47135 0
M  V30 6659 C 609.203 -3.44583 -0.433555 0
M  V30 6660 C 608.157 -4.26235 0.388251 0
M  V30 6661 C 607.483 -5.32073 -0.529352 0
M  V30 6662 C 608.783 -4.96303 1.62729 0
M  V30 6663 H 610.477 -2.74605 1.19299 0
M  V30 6664 H 608.023 -1.32017 0.575104 0
M  V30 6665 H 609.976 -4.13563 -0.808934 0
M  V30 6666 H 608.7 -2.99511 -1.30234 0
M  V30 6667 H 607.359 -3.58936 0.745695 0
M  V30 6668 H 607.007 -4.83249 -1.39569 0
M  V30 6669 H 606.707 -5.87598 0.0166741 0
M  V30 6670 H 608.231 -6.0391 -0.901373 0
M  V30 6671 H 609.645 -5.5783 1.32283 0
M  V30 6672 H 608.042 -5.61666 2.11309 0
M  V30 6673 H 609.112 -4.22758 2.37494 0
M  V30 6674 N 610.455 -0.639598 -1.44038 0
M  V30 6675 C 611.866 -0.228866 -1.85292 0
M  V30 6676 C 612.217 1.22161 -1.53529 0
M  V30 6677 O 611.342 1.93064 -0.977518 0
M  V30 6678 C 611.937 -0.408592 -3.36327 0
M  V30 6679 C 610.496 -0.0522953 -3.76364 0
M  V30 6680 C 609.643 -0.717959 -2.67844 0
M  V30 6681 H 612.594 -0.844194 -1.34384 0
M  V30 6682 H 612.615 0.349968 -3.78887 0
M  V30 6683 H 612.127 -1.46435 -3.59414 0
M  V30 6684 H 610.228 1.0014 -3.58891 0
M  V30 6685 H 610.341 -0.468261 -4.76806 0
M  V30 6686 H 608.705 -0.152459 -2.54243 0
M  V30 6687 H 609.488 -1.77648 -2.93762 0
M  V30 6688 N 611.933 1.52934 -0.380664 0
M  V30 6689 C 612.863 2.29118 0.450268 0
M  V30 6690 C 613.844 1.32153 1.07096 0
M  V30 6691 O 615.029 1.61038 1.08537 0
M  V30 6692 C 612.159 3.09161 1.58231 0
M  V30 6693 C 611.113 4.13938 1.0881 0
M  V30 6694 C 610.439 4.82153 2.31155 0
M  V30 6695 C 611.739 5.22048 0.162146 0
M  V30 6696 H 613.433 2.98826 -0.185361 0
M  V30 6697 H 610.979 1.43715 -0.0905886 0
M  V30 6698 H 612.932 3.61211 2.17036 0
M  V30 6699 H 611.656 2.3717 2.2454 0
M  V30 6700 H 610.315 3.62855 0.522633 0
M  V30 6701 H 609.963 4.06719 2.95953 0
M  V30 6702 H 609.663 5.52966 1.98752 0
M  V30 6703 H 611.187 5.37004 2.90618 0
M  V30 6704 H 612.601 5.6951 0.658126 0
M  V30 6705 H 610.998 6.00057 -0.0717122 0
M  V30 6706 H 612.068 4.78398 -0.791438 0
M  V30 6707 N 613.412 0.11024 1.57214 0
M  V30 6708 C 614.36 -0.860586 2.16094 0
M  V30 6709 C 615.354 -1.28156 1.1078 0
M  V30 6710 O 616.56 -1.25433 1.29099 0
M  V30 6711 H 612.935 -0.295606 0.691463 0
M  V30 6712 H 614.906 -0.33942 2.96463 0
M  V30 6713 C 613.655 -2.10421 2.768 0
M  V30 6714 H 612.978 -1.7892 3.5753 0
M  V30 6715 H 614.418 -2.76375 3.21547 0
M  V30 6716 C 612.877 -2.88823 1.73444 0
M  V30 6717 O 613.407 -3.839 1.18251 0
M  V30 6718 N 611.613 -2.52649 1.43586 0
M  V30 6719 H 611.16 -1.754 1.8866 0
M  V30 6720 H 611.118 -3.05403 0.746735 0
M  V30 6721 N 614.89 -1.56749 -0.16351 0
M  V30 6722 C 616.139 -1.81626 -0.877211 0
M  V30 6723 C 616.452 -0.688791 -1.83071 0
M  V30 6724 O 617.658 -0.822697 -2.58735 0
M  V30 6725 C 616.114 -3.21858 -1.61045 0
M  V30 6726 C 615.722 -4.42494 -0.700195 0
M  V30 6727 C 617.466 -3.56021 -2.31192 0
M  V30 6728 C 615.373 -5.73748 -1.43412 0
M  V30 6729 H 614.303 -0.67731 -0.331312 0
M  V30 6730 H 616.954 -1.83039 -0.13006 0
M  V30 6731 H 615.336 -3.14784 -2.40264 0
M  V30 6732 H 616.51 -4.60766 0.0555849 0
M  V30 6733 H 614.825 -4.1626 -0.10799 0
M  V30 6734 H 617.422 -4.51333 -2.8671 0
M  V30 6735 H 617.765 -2.81277 -3.06902 0
M  V30 6736 H 618.298 -3.64682 -1.58909 0
M  V30 6737 H 615.037 -6.51543 -0.719186 0
M  V30 6738 H 614.557 -5.5944 -2.16302 0
M  V30 6739 H 616.236 -6.15975 -1.9795 0
M  V30 6740 N 616.368 0.432326 -1.51554 0
M  V30 6741 C 617.593 1.20824 -1.68571 0
M  V30 6742 C 618.018 1.84126 -0.384596 0
M  V30 6743 O 617.376 1.69025 0.655751 0
M  V30 6744 C 617.424 2.26429 -2.80646 0
M  V30 6745 O 616.528 3.32032 -2.44598 0
M  V30 6746 H 615.869 0.353765 -0.561913 0
M  V30 6747 H 618.399 0.509916 -1.98144 0
M  V30 6748 H 618.409 2.71133 -3.04878 0
M  V30 6749 H 617.084 1.79733 -3.75058 0
M  V30 6750 H 615.661 2.92769 -2.30956 0
M  V30 6751 N 617.846 1.41785 0.688094 0
M  V30 6752 C 619.262 1.24419 0.999608 0
M  V30 6753 C 619.462 0.138868 2.01021 0
M  V30 6754 O 618.518 -0.494283 2.47615 0
M  V30 6755 C 619.831 2.59625 1.51709 0
M  V30 6756 C 621.379 2.66869 1.63554 0
M  V30 6757 C 621.854 4.0241 2.18702 0
M  V30 6758 N 623.345 4.04295 2.26053 0
M  V30 6759 C 624.08 5.05977 2.69768 0
M  V30 6760 N 623.576 6.18047 3.13033 0
M  V30 6761 N 625.369 4.93336 2.69398 0
M  V30 6762 H 617.52 2.12392 0.0187427 0
M  V30 6763 H 619.783 0.945347 0.0708673 0
M  V30 6764 H 619.489 3.41297 0.849059 0
M  V30 6765 H 619.363 2.82628 2.49803 0
M  V30 6766 H 621.75 1.8555 2.29467 0
M  V30 6767 H 621.831 2.47668 0.639857 0
M  V30 6768 H 621.475 4.8418 1.53402 0
M  V30 6769 H 621.405 4.18955 3.19037 0
M  V30 6770 H 623.896 3.23383 1.9553 0
M  V30 6771 H 624.209 6.91498 3.45038 0
M  V30 6772 H 622.554 6.21572 3.10923 0
M  V30 6773 H 625.745 4.04865 2.34952 0
M  V30 6774 H 625.918 5.72717 3.03148 0
M  V30 6775 N 619.324 -0.923095 1.27737 0
M  V30 6776 C 620.234 -2.05765 1.12685 0
M  V30 6777 C 621.25 -1.73911 0.0557197 0
M  V30 6778 O 622.426 -1.99674 0.263137 0
M  V30 6779 C 619.491 -3.37804 0.780363 0
M  V30 6780 C 618.552 -3.83326 1.93286 0
M  V30 6781 C 617.785 -5.09064 1.60281 0
M  V30 6782 O 618.008 -5.6809 0.512828 0
M  V30 6783 O 616.942 -5.50071 2.44347 0
M  V30 6784 H 620.768 -2.21378 2.07907 0
M  V30 6785 H 618.353 -1.04299 1.06968 0
M  V30 6786 H 620.235 -4.17097 0.600668 0
M  V30 6787 H 618.91 -3.23387 -0.142291 0
M  V30 6788 H 617.817 -3.049 2.16764 0
M  V30 6789 H 619.15 -4.02292 2.83588 0
M  V30 6790 N 620.802 -1.09834 -1.13024 0
M  V30 6791 C 622.027 -0.85909 -1.88771 0
M  V30 6792 C 622.452 0.584402 -1.78791 0
M  V30 6793 O 621.81 1.41101 -1.13842 0
M  V30 6794 C 621.858 -1.30427 -3.36186 0
M  V30 6795 O 620.962 -0.465368 -4.09766 0
M  V30 6796 H 620.303 -0.310786 -0.586778 0
M  V30 6797 H 622.833 -1.46355 -1.42973 0
M  V30 6798 H 622.843 -1.2915 -3.8702 0
M  V30 6799 H 621.518 -2.3555 -3.42767 0
M  V30 6800 H 620.095 -0.542814 -3.68928 0
M  V30 6801 N 622.28 1.30327 -0.886154 0
M  V30 6802 C 623.21 2.30549 -0.370028 0
M  V30 6803 C 624.191 1.61039 0.547751 0
M  V30 6804 O 625.376 1.8864 0.461353 0
M  V30 6805 C 622.506 3.44808 0.415275 0
M  V30 6806 C 621.46 4.26024 -0.41085 0
M  V30 6807 C 620.786 5.32347 0.501128 0
M  V30 6808 C 622.086 4.95433 -1.65359 0
M  V30 6809 H 623.78 2.73969 -1.20754 0
M  V30 6810 H 621.326 1.3171 -0.582097 0
M  V30 6811 H 623.279 4.13986 0.78699 0
M  V30 6812 H 622.003 3.00197 1.28644 0
M  V30 6813 H 620.662 3.58535 -0.764719 0
M  V30 6814 H 620.31 4.83982 1.37004 0
M  V30 6815 H 620.01 5.87581 -0.0478356 0
M  V30 6816 H 621.534 6.0438 0.869333 0
M  V30 6817 H 622.948 5.5712 -1.35239 0
M  V30 6818 H 621.345 5.60537 -2.14284 0
M  V30 6819 H 622.415 4.21493 -2.39733 0
M  V30 6820 N 623.758 0.647228 1.43697 0
M  V30 6821 C 624.69 -0.0866232 2.29036 0
M  V30 6822 C 625.703 -0.793051 1.42178 0
M  V30 6823 O 626.892 -0.651807 1.66174 0
M  V30 6824 C 623.992 -1.14552 3.18953 0
M  V30 6825 C 623.165 -0.518422 4.34317 0
M  V30 6826 C 622.224 -1.4734 5.05151 0
M  V30 6827 O 621.25 -0.984312 5.60625 0
M  V30 6828 N 622.452 -2.8075 5.08094 0
M  V30 6829 H 625.217 0.645834 2.92659 0
M  V30 6830 H 622.778 0.489567 1.54321 0
M  V30 6831 H 624.77 -1.78505 3.63205 0
M  V30 6832 H 623.34 -1.78001 2.56971 0
M  V30 6833 H 622.56 0.300079 3.93056 0
M  V30 6834 H 623.848 -0.080401 5.08736 0
M  V30 6835 H 623.246 -3.23052 4.64386 0
M  V30 6836 H 621.803 -3.40022 5.56083 0
M  V30 6837 N 625.236 -1.5273 0.388769 0
M  V30 6838 C 626.168 -2.24081 -0.481704 0
M  V30 6839 C 627.181 -1.26307 -1.02715 0
M  V30 6840 O 628.37 -1.52386 -0.929565 0
M  V30 6841 C 625.47 -2.94315 -1.68024 0
M  V30 6842 C 624.643 -4.18791 -1.26226 0
M  V30 6843 C 623.702 -4.72028 -2.32542 0
M  V30 6844 O 622.728 -5.35129 -1.93972 0
M  V30 6845 N 623.93 -4.51838 -3.64448 0
M  V30 6846 H 626.695 -2.9942 0.129591 0
M  V30 6847 H 624.256 -1.60465 0.2151 0
M  V30 6848 H 626.248 -3.26831 -2.38671 0
M  V30 6849 H 624.818 -2.22287 -2.19789 0
M  V30 6850 H 624.038 -3.92318 -0.384703 0
M  V30 6851 H 625.326 -4.99668 -0.959647 0
M  V30 6852 H 624.724 -4.01468 -3.98547 0
M  V30 6853 H 623.281 -4.88845 -4.31131 0
M  V30 6854 N 626.714 -0.118576 -1.57153 0
M  V30 6855 C 627.662 0.849114 -2.16547 0
M  V30 6856 C 628.656 1.27567 -1.11458 0
M  V30 6857 O 629.862 1.24746 -1.29763 0
M  V30 6858 H 626.237 0.291935 -0.693021 0
M  V30 6859 H 628.208 0.323693 -2.96639 0
M  V30 6860 C 626.957 2.08951 -2.77912 0
M  V30 6861 H 626.28 1.77021 -3.58474 0
M  V30 6862 H 627.72 2.74666 -3.23008 0
M  V30 6863 C 626.179 2.87899 -1.74974 0
M  V30 6864 O 626.709 3.83268 -1.20285 0
M  V30 6865 N 624.915 2.51884 -1.44924 0
M  V30 6866 H 624.462 1.74397 -1.89587 0
M  V30 6867 H 624.42 3.05003 -0.762921 0
M  V30 6868 N 628.193 1.56834 0.155195 0
M  V30 6869 C 629.14 1.97646 1.19184 0
M  V30 6870 C 630.11 0.842788 1.4313 0
M  V30 6871 O 631.295 1.1042 1.55602 0
M  V30 6872 C 628.435 2.35527 2.52232 0
M  V30 6873 C 627.548 3.62147 2.35529 0
M  V30 6874 C 626.683 3.89167 3.61555 0
M  V30 6875 C 625.722 5.09084 3.39853 0
M  V30 6876 N 624.859 5.32156 4.5799 0
M  V30 6877 H 629.699 2.8601 0.836802 0
M  V30 6878 H 627.236 1.41507 0.401758 0
M  V30 6879 H 629.194 2.55516 3.29799 0
M  V30 6880 H 627.824 1.50253 2.85699 0
M  V30 6881 H 626.876 3.4998 1.49057 0
M  V30 6882 H 628.188 4.49871 2.15448 0
M  V30 6883 H 627.342 4.09611 4.47553 0
M  V30 6884 H 626.081 2.9985 3.84632 0
M  V30 6885 H 625.086 4.88522 2.52243 0
M  V30 6886 H 626.311 5.99947 3.18183 0
M  V30 6887 H 624.257 4.45791 4.81255 0
M  V30 6888 H 624.174 6.14133 4.40882 0
M  V30 6889 H 625.442 5.57091 5.45225 0
M  V30 6890 N 629.671 -0.424282 1.51781 0
M  V30 6891 C 630.92 -1.16961 1.64326 0
M  V30 6892 C 631.233 -1.92035 0.371749 0
M  V30 6893 O 632.439 -2.68873 0.37676 0
M  V30 6894 C 630.895 -2.12782 2.90262 0
M  V30 6895 C 630.503 -1.43295 4.24465 0
M  V30 6896 C 632.247 -2.87667 3.12166 0
M  V30 6897 C 630.154 -2.37676 5.41538 0
M  V30 6898 H 629.084 -0.440293 0.612093 0
M  V30 6899 H 631.735 -0.435431 1.78259 0
M  V30 6900 H 630.117 -2.8969 2.69992 0
M  V30 6901 H 631.291 -0.718564 4.55163 0
M  V30 6902 H 629.606 -0.805118 4.08542 0
M  V30 6903 H 632.203 -3.58395 3.96808 0
M  V30 6904 H 632.546 -3.49758 2.25776 0
M  V30 6905 H 633.079 -2.17863 3.32837 0
M  V30 6906 H 629.818 -1.80255 6.30229 0
M  V30 6907 H 629.338 -3.07132 5.15199 0
M  V30 6908 H 631.017 -2.98529 5.74012 0
M  V30 6909 N 631.149 -1.42148 -0.680565 0
M  V30 6910 C 632.079 -1.4796 -1.80638 0
M  V30 6911 C 633.06 -0.336728 -1.66734 0
M  V30 6912 O 634.245 -0.550247 -1.86242 0
M  V30 6913 C 631.375 -1.37569 -3.18892 0
M  V30 6914 C 630.329 -2.49823 -3.47524 0
M  V30 6915 C 629.655 -2.24491 -4.85291 0
M  V30 6916 C 630.955 -3.92144 -3.44994 0
M  V30 6917 H 632.649 -2.42184 -1.76032 0
M  V30 6918 H 630.195 -1.16566 -0.845481 0
M  V30 6919 H 632.148 -1.40243 -3.97379 0
M  V30 6920 H 630.872 -0.398357 -3.24162 0
M  V30 6921 H 629.531 -2.46455 -2.71395 0
M  V30 6922 H 629.179 -1.25066 -4.87204 0
M  V30 6923 H 628.879 -2.99722 -5.05411 0
M  V30 6924 H 630.403 -2.28906 -5.66069 0
M  V30 6925 H 631.817 -3.97145 -4.13459 0
M  V30 6926 H 630.214 -4.67179 -3.76648 0
M  V30 6927 H 631.284 -4.19225 -2.43676 0
M  V30 6928 N 632.627 0.916307 -1.28225 0
M  V30 6929 C 633.574 2.01841 -1.11932 0
M  V30 6930 C 634.544 1.66091 -0.0171604 0
M  V30 6931 O 635.729 1.89934 -0.181617 0
M  V30 6932 C 632.869 3.36065 -0.784504 0
M  V30 6933 C 631.982 3.847 -1.96544 0
M  V30 6934 C 631.117 5.07423 -1.57149 0
M  V30 6935 C 630.156 5.48384 -2.71922 0
M  V30 6936 N 629.293 6.62298 -2.33037 0
M  V30 6937 H 634.133 2.1511 -2.06232 0
M  V30 6938 H 631.67 1.05366 -1.02647 0
M  V30 6939 H 633.628 4.13272 -0.571148 0
M  V30 6940 H 632.258 3.22571 0.121565 0
M  V30 6941 H 631.31 3.03673 -2.291 0
M  V30 6942 H 632.622 4.1102 -2.82603 0
M  V30 6943 H 631.776 5.92165 -1.32004 0
M  V30 6944 H 630.515 4.82906 -0.682153 0
M  V30 6945 H 629.52 4.62184 -2.97768 0
M  V30 6946 H 630.745 5.7489 -3.61494 0
M  V30 6947 H 628.691 6.39416 -1.4657 0
M  V30 6948 H 628.608 6.8833 -3.12631 0
M  V30 6949 H 629.876 7.50352 -2.11169 0
M  V30 6950 N 634.105 1.10431 1.1244 0
M  V30 6951 C 635.351 0.847972 1.84221 0
M  V30 6952 C 635.684 -0.624903 1.83871 0
M  V30 6953 O 634.959 -1.46074 1.28423 0
M  V30 6954 C 635.242 1.39695 3.319 0
M  V30 6955 C 635.095 2.93668 3.40704 0
M  V30 6956 C 636.414 1.03924 4.27654 0
M  V30 6957 H 633.533 0.309502 0.668863 0
M  V30 6958 H 636.175 1.36745 1.31912 0
M  V30 6959 H 634.325 0.955095 3.76577 0
M  V30 6960 H 635.997 3.46379 3.04662 0
M  V30 6961 H 634.24 3.30272 2.81252 0
M  V30 6962 H 634.911 3.27162 4.446 0
M  V30 6963 H 637.387 1.42049 3.91102 0
M  V30 6964 H 636.263 1.45027 5.29394 0
M  V30 6965 H 636.524 -0.051336 4.4207 0
M  V30 6966 N 635.583 -1.29855 0.893053 0
M  V30 6967 C 636.832 -1.95104 0.511597 0
M  V30 6968 C 637.145 -1.71226 -0.945567 0
M  V30 6969 O 638.351 -2.30525 -1.43424 0
M  V30 6970 C 636.807 -3.49374 0.864034 0
M  V30 6971 C 636.415 -3.82061 2.33952 0
M  V30 6972 C 638.159 -4.20894 0.552167 0
M  V30 6973 C 636.066 -5.29546 2.63316 0
M  V30 6974 H 634.996 -0.73029 0.187597 0
M  V30 6975 H 637.647 -1.47682 1.08914 0
M  V30 6976 H 636.029 -3.95413 0.215493 0
M  V30 6977 H 637.203 -3.46904 3.03305 0
M  V30 6978 H 635.518 -3.23665 2.61973 0
M  V30 6979 H 638.115 -5.29435 0.748489 0
M  V30 6980 H 638.458 -4.13178 -0.508924 0
M  V30 6981 H 638.991 -3.80564 1.15825 0
M  V30 6982 H 635.73 -5.4232 3.68197 0
M  V30 6983 H 635.25 -5.65974 1.9858 0
M  V30 6984 H 636.929 -5.97068 2.49236 0
M  V30 6985 N 637.061 -0.65484 -1.43351 0
M  V30 6986 C 638.008 0.0357713 -2.30772 0
M  V30 6987 C 638.978 0.813035 -1.44841 0
M  V30 6988 O 640.163 0.789314 -1.73708 0
M  V30 6989 C 637.303 0.995084 -3.30442 0
M  V30 6990 C 636.416 0.21375 -4.31471 0
M  V30 6991 C 635.551 1.16701 -5.18222 0
M  V30 6992 C 634.59 0.376201 -6.10943 0
M  V30 6993 N 633.727 1.28113 -6.90313 0
M  V30 6994 H 638.567 -0.71559 -2.89281 0
M  V30 6995 H 636.104 -0.364645 -1.42509 0
M  V30 6996 H 638.062 1.5649 -3.86739 0
M  V30 6997 H 636.692 1.7133 -2.7358 0
M  V30 6998 H 635.744 -0.472377 -3.77456 0
M  V30 6999 H 637.056 -0.401103 -4.97185 0
M  V30 7000 H 636.21 1.8074 -5.79153 0
M  V30 7001 H 634.949 1.81577 -4.52638 0
M  V30 7002 H 633.954 -0.277534 -5.49099 0
M  V30 7003 H 635.179 -0.268178 -6.7857 0
M  V30 7004 H 633.125 1.91666 -6.27376 0
M  V30 7005 H 633.042 0.720879 -7.52555 0
M  V30 7006 H 634.31 1.90962 -7.55747 0
M  V30 7007 N 638.539 1.52521 -0.396863 0
M  V30 7008 C 639.486 2.26671 0.434624 0
M  V30 7009 C 640.456 1.28584 1.05144 0
M  V30 7010 O 641.641 1.57426 1.07804 0
M  V30 7011 C 638.781 3.08234 1.55196 0
M  V30 7012 C 637.894 4.21261 0.957262 0
M  V30 7013 C 637.029 4.90205 2.04627 0
M  V30 7014 C 636.068 5.95213 1.42787 0
M  V30 7015 N 635.205 6.57723 2.45651 0
M  V30 7016 H 640.045 2.973 -0.204139 0
M  V30 7017 H 637.582 1.46669 -0.112505 0
M  V30 7018 H 639.54 3.53819 2.2106 0
M  V30 7019 H 638.17 2.398 2.16092 0
M  V30 7020 H 637.222 3.79935 0.188005 0
M  V30 7021 H 638.534 4.96624 0.465416 0
M  V30 7022 H 637.688 5.39133 2.78246 0
M  V30 7023 H 636.427 4.14383 2.57174 0
M  V30 7024 H 635.432 5.45616 0.676968 0
M  V30 7025 H 636.657 6.72972 0.910255 0
M  V30 7026 H 634.603 5.84737 2.97353 0
M  V30 7027 H 634.52 7.28723 2.01243 0
M  V30 7028 H 635.788 7.11293 3.18876 0
M  V30 7029 N 640.017 0.126909 1.57088 0
M  V30 7030 C 640.965 -0.837618 2.16995 0
M  V30 7031 C 641.959 -1.26974 1.12133 0
M  V30 7032 O 643.165 -1.24056 1.30423 0
M  V30 7033 H 639.54 -0.288256 0.694559 0
M  V30 7034 H 641.511 -0.307957 2.96807 0
M  V30 7035 C 640.26 -2.07474 2.79016 0
M  V30 7036 H 639.583 -1.75117 3.59408 0
M  V30 7037 H 641.023 -2.72949 3.24461 0
M  V30 7038 C 639.482 -2.86967 1.76498 0
M  V30 7039 O 640.012 -3.82625 1.22316 0
M  V30 7040 N 638.218 -2.51111 1.46258 0
M  V30 7041 H 637.765 -1.73389 1.90509 0
M  V30 7042 H 637.723 -3.04594 0.779085 0
M  V30 7043 N 641.495 -1.56914 -0.146875 0
M  V30 7044 C 642.425 -2.01308 -1.1831 0
M  V30 7045 C 643.406 -0.892664 -1.44795 0
M  V30 7046 O 644.591 -1.16048 -1.55713 0
M  V30 7047 C 641.721 -2.3938 -2.51624 0
M  V30 7048 C 640.675 -3.54608 -2.3966 0
M  V30 7049 C 640.001 -3.78493 -3.77686 0
M  V30 7050 C 641.301 -4.87269 -1.88058 0
M  V30 7051 H 642.995 -2.88123 -0.813964 0
M  V30 7052 H 640.541 -1.38615 -0.3901 0
M  V30 7053 H 642.494 -2.69037 -3.24341 0
M  V30 7054 H 641.218 -1.49502 -2.90373 0
M  V30 7055 H 639.877 -3.25116 -1.69396 0
M  V30 7056 H 639.525 -2.85866 -4.13871 0
M  V30 7057 H 639.225 -4.56039 -3.70543 0
M  V30 7058 H 640.749 -4.10576 -4.51951 0
M  V30 7059 H 642.163 -5.15644 -2.50568 0
M  V30 7060 H 640.56 -5.68622 -1.91805 0
M  V30 7061 H 641.63 -4.77634 -0.836277 0
M  V30 7062 N 642.974 0.416227 -1.52004 0
M  V30 7063 C 644.223 1.16088 -1.64944 0
M  V30 7064 C 644.536 1.91835 -0.381928 0
M  V30 7065 O 645.742 2.6867 -0.391013 0
M  V30 7066 C 644.198 2.1124 -2.91386 0
M  V30 7067 C 643.806 1.41042 -4.25219 0
M  V30 7068 C 645.55 2.86008 -3.13688 0
M  V30 7069 C 643.457 2.34801 -5.42791 0
M  V30 7070 H 642.387 0.437041 -0.61442 0
M  V30 7071 H 645.038 0.425971 -1.78487 0
M  V30 7072 H 643.42 2.88254 -2.71525 0
M  V30 7073 H 644.594 0.694416 -4.55538 0
M  V30 7074 H 642.909 0.78344 -4.08964 0
M  V30 7075 H 645.506 3.56286 -3.98703 0
M  V30 7076 H 645.849 3.48556 -2.27628 0
M  V30 7077 H 646.382 2.16095 -3.33988 0
M  V30 7078 H 643.121 1.7691 -6.31176 0
M  V30 7079 H 642.641 3.04395 -5.16821 0
M  V30 7080 H 644.32 2.9548 -5.75587 0
M  V30 7081 N 644.452 1.42507 0.673017 0
M  V30 7082 C 645.399 1.46124 1.78651 0
M  V30 7083 C 646.369 0.313007 1.63124 0
M  V30 7084 O 647.554 0.517337 1.83653 0
M  V30 7085 C 644.694 1.3711 3.16694 0
M  V30 7086 C 643.807 2.61983 3.43495 0
M  V30 7087 C 642.942 2.45098 4.71275 0
M  V30 7088 C 641.981 3.65336 4.91117 0
M  V30 7089 N 641.118 3.47383 6.10139 0
M  V30 7090 H 645.958 2.4128 1.74895 0
M  V30 7091 H 643.495 1.19788 0.853766 0
M  V30 7092 H 645.453 1.29881 3.96468 0
M  V30 7093 H 644.083 0.45549 3.1957 0
M  V30 7094 H 643.135 2.79571 2.57961 0
M  V30 7095 H 644.447 3.51355 3.5405 0
M  V30 7096 H 643.601 2.35466 5.59143 0
M  V30 7097 H 642.34 1.53219 4.63007 0
M  V30 7098 H 641.345 3.754 4.0169 0
M  V30 7099 H 642.57 4.58199 5.01229 0
M  V30 7100 H 640.516 2.58222 6.0304 0
M  V30 7101 H 640.433 4.30344 6.21563 0
M  V30 7102 H 641.701 3.41565 7.00681 0
M  V30 7103 N 645.93 -0.909495 1.28709 0
M  V30 7104 C 646.877 -2.01245 1.13 0
M  V30 7105 C 647.847 -1.6608 0.0259684 0
M  V30 7106 O 649.032 -1.89835 0.191687 0
M  V30 7107 C 646.172 -3.35644 0.802315 0
M  V30 7108 C 645.285 -3.83653 1.98582 0
M  V30 7109 C 644.42 -5.06582 1.59837 0
M  V30 7110 C 643.459 -5.46934 2.74827 0
M  V30 7111 N 642.596 -6.61053 2.36546 0
M  V30 7112 H 647.436 -2.14013 2.0737 0
M  V30 7113 H 644.973 -1.0482 1.03205 0
M  V30 7114 H 646.931 -4.12963 0.593057 0
M  V30 7115 H 645.561 -3.22631 -0.104457 0
M  V30 7116 H 644.613 -3.02454 2.30708 0
M  V30 7117 H 645.925 -4.09515 2.84779 0
M  V30 7118 H 645.079 -5.91457 1.35143 0
M  V30 7119 H 643.818 -4.82537 0.707753 0
M  V30 7120 H 642.823 -4.60599 3.00215 0
M  V30 7121 H 644.048 -5.72965 3.64538 0
M  V30 7122 H 641.994 -6.3863 1.49959 0
M  V30 7123 H 641.911 -6.86662 3.16277 0
M  V30 7124 H 643.179 -7.49221 2.15146 0
M  V30 7125 N 647.408 -1.11026 -1.11852 0
M  V30 7126 C 648.648 -0.866348 -1.85132 0
M  V30 7127 C 649.012 0.597236 -1.82475 0
M  V30 7128 O 650.213 0.957744 -2.51159 0
M  V30 7129 C 648.484 -1.40721 -3.28531 0
M  V30 7130 S 650.043 -1.29964 -4.19112 0
M  V30 7131 H 646.861 -0.312899 -0.638447 0
M  V30 7132 H 649.463 -1.41691 -1.34699 0
M  V30 7133 H 648.167 -2.46631 -3.28027 0
M  V30 7134 H 647.698 -0.85349 -3.8403 0
M  V30 7135 H 649.713 -0.261333 -4.95511 0
M  V30 7136 N 648.886 1.2938 -0.899927 0
M  V30 7137 C 649.816 2.30144 -0.39446 0
M  V30 7138 C 650.797 1.61611 0.530639 0
M  V30 7139 O 651.982 1.89119 0.441319 0
M  V30 7140 C 649.112 3.45229 0.37868 0
M  V30 7141 C 648.066 4.25564 -0.456012 0
M  V30 7142 C 647.392 5.32848 0.444637 0
M  V30 7143 C 648.692 4.93651 -1.70605 0
M  V30 7144 H 650.386 2.72673 -1.23653 0
M  V30 7145 H 647.932 1.31086 -0.596034 0
M  V30 7146 H 649.885 4.14797 0.743037 0
M  V30 7147 H 648.609 3.01545 1.25453 0
M  V30 7148 H 647.268 3.57704 -0.802704 0
M  V30 7149 H 646.916 4.85408 1.31863 0
M  V30 7150 H 646.616 5.87497 -0.110154 0
M  V30 7151 H 648.14 6.05268 0.805182 0
M  V30 7152 H 649.554 5.55655 -1.41141 0
M  V30 7153 H 647.951 5.58233 -2.20217 0
M  V30 7154 H 649.021 4.18926 -2.4419 0
M  V30 7155 N 650.364 0.662433 1.43002 0
M  V30 7156 C 651.641 0.109096 1.95296 0
M  V30 7157 C 652.021 -1.37313 1.60338 0
M  V30 7158 O 651.369 -2.1032 0.893187 0
M  V30 7159 C 651.579 0.365096 3.47085 0
M  V30 7160 C 652.927 0.274964 4.23709 0
M  V30 7161 O 653.951 0.29816 3.5495 0
M  V30 7162 O 652.81 0.206549 5.4611 0
M  V30 7163 H 649.904 -0.00429724 0.826989 0
M  V30 7164 H 652.45 0.736308 1.52894 0
M  V30 7165 H 651.222 1.39237 3.65689 0
M  V30 7166 H 650.845 -0.294733 3.96506 0
M  V30 7167 N 651.842 -1.52309 0.404946 0
M  V30 7168 C 652.775 -2.23369 -0.467087 0
M  V30 7169 C 653.753 -1.24034 -1.0514 0
M  V30 7170 O 654.937 -1.53071 -1.10006 0
M  V30 7171 C 652.064 -2.95906 -1.64795 0
M  V30 7172 C 651.11 -4.09637 -1.18743 0
M  V30 7173 S 651.943 -5.35273 -0.156022 0
M  V30 7174 C 653.099 -6.11337 -1.34231 0
M  V30 7175 H 653.332 -2.96987 0.136294 0
M  V30 7176 H 650.865 -1.53236 0.189219 0
M  V30 7177 H 652.823 -3.38304 -2.3251 0
M  V30 7178 H 651.484 -2.21937 -2.22267 0
M  V30 7179 H 650.677 -4.59549 -2.06955 0
M  V30 7180 H 650.279 -3.69333 -0.588981 0
M  V30 7181 H 652.571 -6.38458 -2.26665 0
M  V30 7182 H 653.514 -7.02563 -0.883804 0
M  V30 7183 H 653.922 -5.42338 -1.56621 0
M  V30 7184 N 653.32 -0.135238 -1.57019 0
M  V30 7185 C 654.567 0.518794 -1.95742 0
M  V30 7186 C 654.895 1.65642 -1.01947 0
M  V30 7187 O 654.15 1.95645 -0.0464016 0
M  V30 7188 C 654.449 1.07694 -3.40788 0
M  V30 7189 C 654.115 0.058992 -4.50861 0
M  V30 7190 C 652.777 -0.220872 -4.80693 0
M  V30 7191 C 655.129 -0.633856 -5.17331 0
M  V30 7192 C 652.457 -1.19959 -5.74305 0
M  V30 7193 C 654.809 -1.60131 -6.11997 0
M  V30 7194 C 653.473 -1.889 -6.40213 0
M  V30 7195 H 652.743 0.18984 -0.716269 0
M  V30 7196 H 655.39 -0.219581 -1.90237 0
M  V30 7197 H 653.695 1.89241 -3.43067 0
M  V30 7198 H 655.392 1.59137 -3.68071 0
M  V30 7199 H 651.982 0.287304 -4.27636 0
M  V30 7200 H 656.166 -0.430823 -4.94427 0
M  V30 7201 H 651.422 -1.42905 -5.94465 0
M  V30 7202 H 655.596 -2.14376 -6.62583 0
M  V30 7203 H 653.223 -2.64891 -7.12556 0
M  V30 7204 N 654.798 1.5699 0.138552 0
M  V30 7205 C 656.023 1.88344 0.86841 0
M  V30 7206 C 656.448 0.725159 1.7356 0
M  V30 7207 O 655.806 -0.324992 1.78363 0
M  V30 7208 C 655.854 3.18334 1.69398 0
M  V30 7209 O 654.958 3.02863 2.79907 0
M  V30 7210 H 654.299 0.618577 0.241367 0
M  V30 7211 H 656.829 2.04207 0.126826 0
M  V30 7212 H 656.839 3.50567 2.08726 0
M  V30 7213 H 655.514 4.02238 1.05725 0
M  V30 7214 H 654.091 2.82056 2.43924 0
M  V30 7215 N 656.276 -0.40816 1.52223 0
M  V30 7216 C 657.186 -1.52202 1.78526 0
M  V30 7217 C 658.202 -1.60546 0.670892 0
M  V30 7218 O 659.378 -1.77242 0.956404 0
M  V30 7219 C 656.443 -2.87928 1.93128 0
M  V30 7220 C 655.504 -2.89463 3.17033 0
M  V30 7221 C 654.737 -4.18715 3.30929 0
M  V30 7222 O 654.96 -5.12662 2.50067 0
M  V30 7223 O 653.894 -4.27125 4.24084 0
M  V30 7224 H 657.72 -1.32911 2.73072 0
M  V30 7225 H 655.305 -0.594112 1.37079 0
M  V30 7226 H 657.187 -3.68426 2.04549 0
M  V30 7227 H 655.862 -3.07285 1.01772 0
M  V30 7228 H 654.769 -2.07815 3.11069 0
M  V30 7229 H 656.102 -2.75055 4.08174 0
M  V30 7230 N 657.755 -1.42862 -0.66545 0
M  V30 7231 C 658.685 -1.49867 -1.79059 0
M  V30 7232 C 659.666 -0.354394 -1.66367 0
M  V30 7233 O 660.851 -0.569969 -1.85647 0
M  V30 7234 C 657.981 -1.40943 -3.17415 0
M  V30 7235 C 656.935 -2.53495 -3.44854 0
M  V30 7236 C 656.261 -2.29626 -4.82883 0
M  V30 7237 C 657.561 -3.95781 -3.40815 0
M  V30 7238 H 659.255 -2.44037 -1.73453 0
M  V30 7239 H 656.801 -1.17456 -0.833071 0
M  V30 7240 H 658.754 -1.4445 -3.95869 0
M  V30 7241 H 657.478 -0.432716 -3.23721 0
M  V30 7242 H 656.137 -2.4932 -2.68766 0
M  V30 7243 H 655.785 -1.30226 -4.8585 0
M  V30 7244 H 655.485 -3.05065 -5.02204 0
M  V30 7245 H 657.009 -2.34897 -5.63609 0
M  V30 7246 H 658.423 -4.01508 -4.09224 0
M  V30 7247 H 656.82 -4.71148 -3.71672 0
M  V30 7248 H 657.89 -4.21786 -2.39216 0
M  V30 7249 N 659.233 0.902656 -1.29189 0
M  V30 7250 C 660.196 1.98797 -1.14071 0
M  V30 7251 C 661.196 1.60615 -0.0770549 0
M  V30 7252 O 662.386 1.71165 -0.323753 0
M  V30 7253 C 659.518 3.32688 -0.743739 0
M  V30 7254 H 660.711 2.13637 -2.10473 0
M  V30 7255 H 658.264 1.08678 -1.12334 0
M  V30 7256 H 658.999 3.23549 0.220554 0
M  V30 7257 H 658.784 3.61765 -1.51223 0
M  V30 7258 H 660.274 4.12337 -0.660935 0
M  V30 7259 N 660.711 1.11618 1.11262 0
M  V30 7260 C 661.621 0.78898 2.20935 0
M  V30 7261 C 662.637 -0.21867 1.7262 0
M  V30 7262 O 663.813 -0.0543826 2.01327 0
M  V30 7263 C 660.878 0.239014 3.45875 0
M  V30 7264 C 659.939 1.3055 4.08968 0
M  V30 7265 C 659.172 0.781687 5.27944 0
M  V30 7266 O 659.395 -0.387605 5.69082 0
M  V30 7267 O 658.329 1.54734 5.81671 0
M  V30 7268 H 662.155 1.70477 2.51339 0
M  V30 7269 H 659.74 0.892203 1.19834 0
M  V30 7270 H 661.622 -0.0632312 4.21353 0
M  V30 7271 H 660.297 -0.649454 3.17118 0
M  V30 7272 H 659.204 1.66079 3.35214 0
M  V30 7273 H 660.537 2.16743 4.41909 0
M  V30 7274 N 662.189 -1.289 0.906776 0
M  V30 7275 C 663.137 -2.29477 0.379873 0
M  V30 7276 C 664.131 -1.61068 -0.524747 0
M  V30 7277 O 665.337 -1.75344 -0.406765 0
M  V30 7278 H 661.712 -0.744742 0.10423 0
M  V30 7279 H 663.683 -2.71353 1.24137 0
M  V30 7280 C 662.432 -3.45713 -0.371154 0
M  V30 7281 H 661.755 -3.98551 0.315716 0
M  V30 7282 H 663.195 -4.18105 -0.704581 0
M  V30 7283 C 661.654 -2.9774 -1.57646 0
M  V30 7284 O 662.184 -2.99618 -2.67567 0
M  V30 7285 N 660.39 -2.53485 -1.42105 0
M  V30 7286 H 659.937 -2.52156 -0.526783 0
M  V30 7287 H 659.895 -2.21747 -2.22881 0
M  V30 7288 N 663.667 -0.670007 -1.42649 0
M  V30 7289 C 664.614 0.0112928 -2.30797 0
M  V30 7290 C 665.584 0.797627 -1.45695 0
M  V30 7291 O 666.769 0.770845 -1.74535 0
M  V30 7292 C 663.909 0.95998 -3.31479 0
M  V30 7293 C 663.022 0.167975 -4.31673 0
M  V30 7294 C 662.157 1.11198 -5.19431 0
M  V30 7295 C 661.196 0.311381 -6.11307 0
M  V30 7296 N 660.333 1.20784 -6.91633 0
M  V30 7297 H 665.173 -0.746231 -2.88505 0
M  V30 7298 H 662.71 -0.379739 -1.42114 0
M  V30 7299 H 664.668 1.52379 -3.88377 0
M  V30 7300 H 663.298 1.68419 -2.75382 0
M  V30 7301 H 662.35 -0.512385 -3.76933 0
M  V30 7302 H 663.662 -0.453814 -4.96731 0
M  V30 7303 H 662.816 1.74587 -5.81037 0
M  V30 7304 H 661.555 1.76766 -4.54538 0
M  V30 7305 H 660.56 -0.335758 -5.48774 0
M  V30 7306 H 661.785 -0.340135 -6.78248 0
M  V30 7307 H 659.731 1.85001 -6.29373 0
M  V30 7308 H 659.648 0.64102 -7.53277 0
M  V30 7309 H 660.916 1.82936 -7.5773 0
M  V30 7310 N 665.145 1.52092 -0.413018 0
M  V30 7311 C 666.055 2.30858 0.417318 0
M  V30 7312 C 667.071 1.38746 1.05003 0
M  V30 7313 O 668.247 1.71821 1.05069 0
M  V30 7314 C 665.312 3.11756 1.51687 0
M  V30 7315 C 664.373 4.19613 0.906825 0
M  V30 7316 C 663.606 4.96644 1.95399 0
M  V30 7317 O 663.829 4.7402 3.17271 0
M  V30 7318 O 662.763 5.81385 1.55805 0
M  V30 7319 H 666.589 3.02865 -0.225028 0
M  V30 7320 H 664.174 1.48358 -0.176126 0
M  V30 7321 H 666.056 3.62122 2.15512 0
M  V30 7322 H 664.731 2.42539 2.14375 0
M  V30 7323 H 663.638 3.73385 0.231183 0
M  V30 7324 H 664.971 4.91134 0.323814 0
M  V30 7325 N 666.623 0.143563 1.56945 0
M  V30 7326 C 667.571 -0.814556 2.17871 0
M  V30 7327 C 668.565 -1.25778 1.13474 0
M  V30 7328 O 669.771 -1.22666 1.31731 0
M  V30 7329 H 666.146 -0.280873 0.697578 0
M  V30 7330 H 668.117 -0.276459 2.97117 0
M  V30 7331 C 666.866 -2.04503 2.81201 0
M  V30 7332 H 666.189 -1.71296 3.61245 0
M  V30 7333 H 667.629 -2.69493 3.27337 0
M  V30 7334 C 666.088 -2.85079 1.79532 0
M  V30 7335 O 666.618 -3.81306 1.26368 0
M  V30 7336 N 664.824 -2.49546 1.48913 0
M  V30 7337 H 664.371 -1.71359 1.92338 0
M  V30 7338 H 664.329 -3.03751 0.811348 0
M  V30 7339 N 668.101 -1.57061 -0.130224 0
M  V30 7340 C 669.331 -1.88159 -0.853217 0
M  V30 7341 C 669.739 -0.731675 -1.7448 0
M  V30 7342 O 669.082 0.307035 -1.81116 0
M  V30 7343 C 669.144 -3.1415 -1.74785 0
M  V30 7344 C 668.808 -4.45202 -1.03173 0
M  V30 7345 C 669.805 -5.18526 -0.377759 0
M  V30 7346 C 667.49 -4.91912 -1.01624 0
M  V30 7347 C 669.484 -6.36775 0.282123 0
M  V30 7348 C 667.171 -6.10082 -0.352555 0
M  V30 7349 C 668.169 -6.82361 0.295483 0
M  V30 7350 O 667.857 -7.98284 0.948606 0
M  V30 7351 H 667.589 -0.627596 -0.251197 0
M  V30 7352 H 670.143 -2.05034 -0.1226 0
M  V30 7353 H 668.373 -2.93328 -2.51983 0
M  V30 7354 H 670.062 -3.31359 -2.34427 0
M  V30 7355 H 670.828 -4.83498 -0.381417 0
M  V30 7356 H 666.707 -4.35566 -1.51007 0
M  V30 7357 H 670.251 -6.93129 0.788525 0
M  V30 7358 H 666.148 -6.44569 -0.346621 0
M  V30 7359 H 666.916 -8.14054 0.851954 0
M  V30 7360 N 669.579 0.400081 -1.52437 0
M  V30 7361 C 670.526 1.48803 -1.76426 0
M  V30 7362 C 671.496 1.5461 -0.607032 0
M  V30 7363 O 672.681 1.71041 -0.845563 0
M  V30 7364 C 669.821 2.86156 -1.92896 0
M  V30 7365 C 668.934 2.89587 -3.20567 0
M  V30 7366 C 668.069 4.18296 -3.27417 0
M  V30 7367 C 667.108 4.15736 -4.49255 0
M  V30 7368 N 666.245 5.36032 -4.53447 0
M  V30 7369 H 671.085 1.27649 -2.69276 0
M  V30 7370 H 668.622 0.619451 -1.33421 0
M  V30 7371 H 670.58 3.65901 -2.00429 0
M  V30 7372 H 669.21 3.05785 -1.03418 0
M  V30 7373 H 668.262 2.02278 -3.22161 0
M  V30 7374 H 669.574 2.83562 -4.10358 0
M  V30 7375 H 668.728 5.06439 -3.34072 0
M  V30 7376 H 667.467 4.27028 -2.35581 0
M  V30 7377 H 666.472 3.25982 -4.42737 0
M  V30 7378 H 667.697 4.08636 -5.42396 0
M  V30 7379 H 665.643 5.45415 -3.64498 0
M  V30 7380 H 665.56 5.32038 -5.37096 0
M  V30 7381 H 666.828 6.26104 -4.64343 0
M  V30 7382 N 671.057 1.43213 0.657864 0
M  V30 7383 C 672.004 1.48011 1.77092 0
M  V30 7384 C 672.974 0.330291 1.62783 0
M  V30 7385 O 674.159 0.536787 1.83094 0
M  V30 7386 C 671.299 1.40461 3.15222 0
M  V30 7387 C 670.412 2.65612 3.40697 0
M  V30 7388 C 669.547 2.50083 4.68649 0
M  V30 7389 C 668.586 3.70525 4.87214 0
M  V30 7390 N 667.723 3.53835 6.0642 0
M  V30 7391 H 672.563 2.43121 1.72326 0
M  V30 7392 H 670.1 1.20687 0.841013 0
M  V30 7393 H 672.058 1.34079 3.95068 0
M  V30 7394 H 670.688 0.489359 3.19069 0
M  V30 7395 H 669.74 2.82292 2.54982 0
M  V30 7396 H 671.052 3.5509 3.50303 0
M  V30 7397 H 670.206 2.41383 5.56614 0
M  V30 7398 H 668.945 1.58121 4.61356 0
M  V30 7399 H 667.95 3.79639 3.97686 0
M  V30 7400 H 669.175 4.63489 4.96341 0
M  V30 7401 H 667.121 2.64604 6.00267 0
M  V30 7402 H 667.038 4.36912 6.16963 0
M  V30 7403 H 668.306 3.48978 6.97019 0
M  V30 7404 N 672.536 -0.895792 1.29666 0
M  V30 7405 C 673.783 -1.64664 1.17864 0
M  V30 7406 C 674.111 -1.92631 -0.26902 0
M  V30 7407 O 673.366 -1.53787 -1.21029 0
M  V30 7408 C 673.665 -3.00075 1.94139 0
M  V30 7409 C 673.331 -2.91702 3.43833 0
M  V30 7410 C 671.993 -2.89126 3.84656 0
M  V30 7411 C 674.345 -2.80622 4.39205 0
M  V30 7412 C 671.673 -2.73293 5.1916 0
M  V30 7413 C 674.025 -2.66329 5.73805 0
M  V30 7414 C 672.689 -2.62121 6.1388 0
M  V30 7415 H 671.959 -0.602549 0.431295 0
M  V30 7416 H 674.606 -1.04234 1.60648 0
M  V30 7417 H 672.911 -3.64394 1.43958 0
M  V30 7418 H 674.608 -3.57111 1.82408 0
M  V30 7419 H 671.198 -2.94511 3.11386 0
M  V30 7420 H 675.382 -2.81686 4.08615 0
M  V30 7421 H 670.638 -2.68443 5.49316 0
M  V30 7422 H 674.812 -2.56727 6.47352 0
M  V30 7423 H 672.439 -2.49611 7.18052 0
M  V30 7424 N 674.014 -1.12206 -1.10668 0
M  V30 7425 C 675.244 -0.897332 -1.86095 0
M  V30 7426 C 675.652 0.556778 -1.80822 0
M  V30 7427 O 674.995 1.39658 -1.19337 0
M  V30 7428 C 675.057 -1.29095 -3.35522 0
M  V30 7429 C 674.721 -2.75586 -3.64556 0
M  V30 7430 C 675.718 -3.73785 -3.6136 0
M  V30 7431 C 673.403 -3.12432 -3.93309 0
M  V30 7432 C 675.397 -5.06845 -3.86506 0
M  V30 7433 C 673.084 -4.45675 -4.18111 0
M  V30 7434 C 674.082 -5.42691 -4.147 0
M  V30 7435 O 673.77 -6.73532 -4.38873 0
M  V30 7436 H 673.502 -0.320704 -0.595084 0
M  V30 7437 H 676.056 -1.49517 -1.40833 0
M  V30 7438 H 674.286 -0.636299 -3.81429 0
M  V30 7439 H 675.975 -1.04073 -3.92331 0
M  V30 7440 H 676.741 -3.46664 -3.39189 0
M  V30 7441 H 672.62 -2.3753 -3.95096 0
M  V30 7442 H 676.164 -5.82559 -3.83758 0
M  V30 7443 H 672.061 -4.72526 -4.39761 0
M  V30 7444 H 672.829 -6.79442 -4.564 0
M  V30 7445 N 675.492 1.28418 -0.913599 0
M  V30 7446 C 676.402 2.31043 -0.406965 0
M  V30 7447 C 677.418 1.66501 0.505298 0
M  V30 7448 O 678.594 1.97558 0.391522 0
M  V30 7449 C 675.659 3.4498 0.344901 0
M  V30 7450 C 674.72 4.25078 -0.600563 0
M  V30 7451 C 673.953 5.33575 0.115516 0
M  V30 7452 O 674.176 5.54503 1.33727 0
M  V30 7453 O 673.11 5.9939 -0.549095 0
M  V30 7454 H 676.936 2.76387 -1.25873 0
M  V30 7455 H 674.521 1.33109 -0.678415 0
M  V30 7456 H 676.403 4.14314 0.769542 0
M  V30 7457 H 675.078 3.01719 1.1725 0
M  V30 7458 H 673.985 3.58334 -1.0746 0
M  V30 7459 H 675.318 4.72018 -1.39497 0
M  V30 7460 N 676.97 0.677563 1.42291 0
M  V30 7461 C 677.902 -0.0380218 2.29168 0
M  V30 7462 C 678.915 -0.762714 1.43828 0
M  V30 7463 O 680.104 -0.616413 1.67519 0
M  V30 7464 C 677.204 -1.07761 3.21311 0
M  V30 7465 C 676.377 -0.42618 4.35319 0
M  V30 7466 C 675.436 -1.36592 5.08162 0
M  V30 7467 O 674.462 -0.865174 5.62586 0
M  V30 7468 N 675.664 -2.69909 5.13935 0
M  V30 7469 H 678.429 0.707766 2.91223 0
M  V30 7470 H 675.99 0.52219 1.53247 0
M  V30 7471 H 677.982 -1.70761 3.6691 0
M  V30 7472 H 676.552 -1.72511 2.60689 0
M  V30 7473 H 675.772 0.383385 3.92331 0
M  V30 7474 H 677.06 0.0275277 5.08793 0
M  V30 7475 H 676.458 -3.13129 4.71134 0
M  V30 7476 H 675.015 -3.2815 5.6317 0
M  V30 7477 N 678.448 -1.51871 0.421078 0
M  V30 7478 C 679.695 -2.01938 -0.15079 0
M  V30 7479 C 680.023 -1.30611 -1.44121 0
M  V30 7480 O 679.278 -0.404631 -1.91471 0
M  V30 7481 C 679.577 -3.54764 -0.433292 0
M  V30 7482 C 679.243 -4.44288 0.76936 0
M  V30 7483 C 677.905 -4.68477 1.09921 0
M  V30 7484 C 680.257 -4.96915 1.57242 0
M  V30 7485 C 677.585 -5.4254 2.2331 0
M  V30 7486 C 679.937 -5.7222 2.69716 0
M  V30 7487 C 678.601 -5.94678 3.03174 0
M  V30 7488 H 677.871 -0.738943 -0.0551781 0
M  V30 7489 H 680.518 -1.82977 0.564945 0
M  V30 7490 H 678.823 -3.71968 -1.23074 0
M  V30 7491 H 680.52 -3.91023 -0.888922 0
M  V30 7492 H 677.11 -4.25646 0.502305 0
M  V30 7493 H 681.294 -4.78125 1.3308 0
M  V30 7494 H 676.55 -5.58146 2.49565 0
M  V30 7495 H 680.724 -6.11992 3.32323 0
M  V30 7496 H 678.351 -6.51848 3.9115 0
M  V30 7497 N 679.926 -0.151884 -1.56866 0
M  V30 7498 C 681.151 0.508044 -2.01081 0
M  V30 7499 C 681.576 1.57306 -1.03134 0
M  V30 7500 O 680.934 1.81298 -0.0078309 0
M  V30 7501 C 680.982 1.08106 -3.44014 0
M  V30 7502 O 680.086 2.19577 -3.49084 0
M  V30 7503 H 679.427 0.123757 -0.652365 0
M  V30 7504 H 681.957 -0.250055 -2.03066 0
M  V30 7505 H 681.967 1.40851 -3.82916 0
M  V30 7506 H 680.642 0.301168 -4.14808 0
M  V30 7507 H 679.219 1.88023 -3.22027 0
M  V30 7508 N 681.404 1.57128 0.121893 0
M  V30 7509 C 682.351 2.0013 1.14964 0
M  V30 7510 C 683.321 0.872959 1.4131 0
M  V30 7511 O 684.506 1.13696 1.53225 0
M  V30 7512 C 681.646 2.40824 2.4718 0
M  V30 7513 C 680.759 3.67061 2.27794 0
M  V30 7514 C 679.894 3.96749 3.53219 0
M  V30 7515 C 678.933 5.16178 3.28978 0
M  V30 7516 N 678.07 5.41751 4.46599 0
M  V30 7517 H 682.91 2.8772 0.775947 0
M  V30 7518 H 680.447 1.42328 0.371652 0
M  V30 7519 H 682.405 2.62454 3.24305 0
M  V30 7520 H 681.035 1.56279 2.82448 0
M  V30 7521 H 680.087 3.53063 1.416 0
M  V30 7522 H 681.399 4.5434 2.05857 0
M  V30 7523 H 680.553 4.19012 4.38764 0
M  V30 7524 H 679.292 3.07941 3.78185 0
M  V30 7525 H 678.297 4.93762 2.41824 0
M  V30 7526 H 679.522 6.06561 3.05386 0
M  V30 7527 H 677.468 4.55899 4.71691 0
M  V30 7528 H 677.385 6.23347 4.27756 0
M  V30 7529 H 678.653 5.68531 5.33285 0
M  V30 7530 N 682.882 -0.391992 1.52647 0
M  V30 7531 C 683.83 -1.4991 1.77848 0
M  V30 7532 C 684.824 -1.56587 0.646282 0
M  V30 7533 O 686.03 -1.59789 0.828698 0
M  V30 7534 H 682.405 -0.498883 0.56269 0
M  V30 7535 H 684.376 -1.25847 2.70564 0
M  V30 7536 C 683.125 -2.87081 1.96163 0
M  V30 7537 H 682.448 -2.82692 2.82711 0
M  V30 7538 H 683.888 -3.63792 2.17787 0
M  V30 7539 C 682.347 -3.28822 0.733348 0
M  V30 7540 O 682.877 -4.01598 -0.0906481 0
M  V30 7541 N 681.083 -2.85068 0.564317 0
M  V30 7542 H 680.63 -2.26012 1.23598 0
M  V30 7543 H 680.588 -3.13355 -0.256166 0
M  V30 7544 N 684.36 -1.4356 -0.65026 0
M  V30 7545 C 685.29 -1.51758 -1.77459 0
M  V30 7546 C 686.271 -0.372019 -1.65982 0
M  V30 7547 O 687.456 -0.589627 -1.85033 0
M  V30 7548 C 684.586 -1.44302 -3.15902 0
M  V30 7549 C 683.54 -2.57138 -3.42146 0
M  V30 7550 C 682.866 -2.34735 -4.8042 0
M  V30 7551 C 684.166 -3.99373 -3.36598 0
M  V30 7552 H 685.86 -2.45863 -1.70855 0
M  V30 7553 H 683.406 -1.18333 -0.820566 0
M  V30 7554 H 685.359 -1.48641 -3.94314 0
M  V30 7555 H 684.083 -0.467026 -3.23244 0
M  V30 7556 H 682.742 -2.52157 -2.66106 0
M  V30 7557 H 682.39 -1.35372 -4.84441 0
M  V30 7558 H 682.09 -3.10375 -4.9894 0
M  V30 7559 H 683.614 -2.40862 -5.61086 0
M  V30 7560 H 685.028 -4.05826 -4.04942 0
M  V30 7561 H 683.425 -4.75063 -3.66654 0
M  V30 7562 H 684.495 -4.243 -2.34729 0
M  V30 7563 N 685.838 0.888903 -1.30139 0
M  V30 7564 C 686.785 1.99422 -1.16188 0
M  V30 7565 C 687.755 1.66017 -0.0523869 0
M  V30 7566 O 688.94 1.89506 -0.221864 0
M  V30 7567 C 686.08 3.34325 -0.855612 0
M  V30 7568 C 685.193 3.80445 -2.0466 0
M  V30 7569 C 684.328 5.03975 -1.67876 0
M  V30 7570 C 683.367 5.42492 -2.83493 0
M  V30 7571 N 682.504 6.57206 -2.47032 0
M  V30 7572 H 687.344 2.10687 -2.10749 0
M  V30 7573 H 684.881 1.03165 -1.04859 0
M  V30 7574 H 686.839 4.11968 -0.658681 0
M  V30 7575 H 685.469 3.22756 0.0531155 0
M  V30 7576 H 684.521 2.98745 -2.3549 0
M  V30 7577 H 685.833 4.04933 -2.91257 0
M  V30 7578 H 684.987 5.89232 -1.44535 0
M  V30 7579 H 683.726 4.8135 -0.784431 0
M  V30 7580 H 682.731 4.55764 -3.07505 0
M  V30 7581 H 683.956 5.67093 -3.73607 0
M  V30 7582 H 681.902 6.36164 -1.601 0
M  V30 7583 H 681.819 6.81543 -3.27161 0
M  V30 7584 H 683.087 7.45704 -2.27038 0
M  V30 7585 N 687.317 1.12792 1.10072 0
M  V30 7586 C 688.247 0.821688 2.18565 0
M  V30 7587 C 689.228 -0.21612 1.68721 0
M  V30 7588 O 690.413 -0.0764932 1.94049 0
M  V30 7589 C 687.543 0.279624 3.46172 0
M  V30 7590 C 686.497 1.25092 4.09312 0
M  V30 7591 C 685.823 0.568916 5.31665 0
M  V30 7592 C 687.123 2.60699 4.52585 0
M  V30 7593 H 688.817 1.72888 2.44438 0
M  V30 7594 H 686.363 0.832702 1.17482 0
M  V30 7595 H 688.316 0.053099 4.21367 0
M  V30 7596 H 687.04 -0.662929 3.19801 0
M  V30 7597 H 685.699 1.46332 3.36129 0
M  V30 7598 H 685.347 -0.378898 5.01571 0
M  V30 7599 H 685.047 1.21687 5.74862 0
M  V30 7600 H 686.571 0.351517 6.09587 0
M  V30 7601 H 687.985 2.43465 5.19035 0
M  V30 7602 H 686.382 3.21608 5.06644 0
M  V30 7603 H 687.452 3.1886 3.65317 0
M  V30 7604 N 688.795 -1.27931 0.920396 0
M  V30 7605 C 690.043 -1.94304 0.555906 0
M  V30 7606 C 690.364 -1.72753 -0.904519 0
M  V30 7607 O 689.634 -1.07104 -1.64029 0
M  V30 7608 H 688.214 -0.719001 0.202599 0
M  V30 7609 H 690.876 -1.55785 1.1712 0
M  V30 7610 H 689.972 -3.02806 0.755981 0
M  V30 7611 N 690.273 -0.685099 -1.4193 0
M  V30 7612 C 691.522 -0.208816 -2.00616 0
M  V30 7613 C 691.835 1.19506 -1.54847 0
M  V30 7614 O 693.041 1.76826 -2.06021 0
M  V30 7615 C 691.497 -0.322446 -3.58453 0
M  V30 7616 C 691.105 -1.73102 -4.13206 0
M  V30 7617 C 692.849 0.0945979 -4.24395 0
M  V30 7618 C 690.756 -1.79687 -5.63442 0
M  V30 7619 H 689.686 -0.0743092 -0.750329 0
M  V30 7620 H 692.337 -0.851778 -1.62533 0
M  V30 7621 H 690.719 0.388588 -3.94089 0
M  V30 7622 H 691.893 -2.46997 -3.8901 0
M  V30 7623 H 690.208 -2.09682 -3.59753 0
M  V30 7624 H 692.805 0.0656937 -5.3466 0
M  V30 7625 H 693.148 1.1316 -4.00625 0
M  V30 7626 H 693.681 -0.56579 -3.93756 0
M  V30 7627 H 690.42 -2.81404 -5.92024 0
M  V30 7628 H 689.94 -1.10162 -5.89597 0
M  V30 7629 H 691.619 -1.55498 -6.28036 0
M  V30 7630 N 691.751 1.51645 -0.429126 0
M  V30 7631 C 692.701 2.24388 0.404217 0
M  V30 7632 C 693.685 1.26294 0.996933 0
M  V30 7633 O 694.877 1.51428 0.916434 0
M  V30 7634 C 692.006 3.08338 1.50938 0
M  V30 7635 C 691.092 4.13857 0.926464 0
M  V30 7636 N 691.483 5.05749 0.0719732 0
M  V30 7637 C 689.781 4.29695 1.19491 0
M  V30 7638 C 690.482 5.81143 -0.254528 0
M  V30 7639 N 689.458 5.42408 0.359763 0
M  V30 7640 H 693.26 2.92794 -0.254697 0
M  V30 7641 H 690.774 1.60606 -0.240712 0
M  V30 7642 H 692.771 3.59022 2.11918 0
M  V30 7643 H 691.431 2.41475 2.17072 0
M  V30 7644 H 692.442 5.17066 -0.293854 0
M  V30 7645 H 689.119 3.74059 1.85434 0
M  V30 7646 H 690.509 6.65159 -0.949365 0
M  V30 7647 N 693.229 0.160201 1.56784 0
M  V30 7648 C 694.139 -0.787167 2.21 0
M  V30 7649 C 695.155 -1.26167 1.19825 0
M  V30 7650 O 696.331 -1.31611 1.52448 0
M  V30 7651 C 693.396 -2.00364 2.8294 0
M  V30 7652 C 692.457 -1.5771 3.99282 0
M  V30 7653 C 691.69 -2.73558 4.58259 0
M  V30 7654 O 691.913 -3.90129 4.16119 0
M  V30 7655 O 690.847 -2.48271 5.48311 0
M  V30 7656 H 694.673 -0.270462 3.02493 0
M  V30 7657 H 692.258 -0.0674666 1.49248 0
M  V30 7658 H 694.14 -2.71529 3.22257 0
M  V30 7659 H 692.815 -2.50961 2.04451 0
M  V30 7660 H 691.722 -0.835274 3.64656 0
M  V30 7661 H 693.055 -1.11815 4.79331 0
M  V30 7662 N 694.707 -1.5719 -0.113559 0
M  V30 7663 C 695.984 -1.76117 -0.850999 0
M  V30 7664 C 696.364 -0.737085 -1.97814 0
M  V30 7665 O 695.712 0.237942 -2.27258 0
M  V30 7666 C 695.922 -3.21298 -1.36266 0
M  V30 7667 C 697.27 -3.83955 -1.81283 0
M  V30 7668 O 698.294 -3.24934 -1.45933 0
M  V30 7669 O 697.153 -4.87707 -2.46585 0
M  V30 7670 H 694.247 -0.721308 -0.404529 0
M  V30 7671 H 696.793 -1.69423 -0.0968756 0
M  V30 7672 H 695.565 -3.87355 -0.554235 0
M  V30 7673 H 695.188 -3.32552 -2.17933 0
M  V30 7674 N 696.185 0.383891 -1.52853 0
M  V30 7675 C 697.133 1.48965 -1.7864 0
M  V30 7676 C 698.127 1.56242 -0.654577 0
M  V30 7677 O 699.333 1.59347 -0.83716 0
M  V30 7678 H 695.708 0.495892 -0.565328 0
M  V30 7679 H 697.679 1.24411 -2.71228 0
M  V30 7680 C 696.428 2.86036 -1.97683 0
M  V30 7681 H 695.751 2.81188 -2.84206 0
M  V30 7682 H 697.191 3.62632 -2.19713 0
M  V30 7683 C 695.65 3.28428 -0.750776 0
M  V30 7684 O 696.18 4.0164 0.0693491 0
M  V30 7685 N 694.386 2.84765 -0.579427 0
M  V30 7686 H 693.933 2.25353 -1.24795 0
M  V30 7687 H 693.891 3.13486 0.239544 0
M  V30 7688 N 697.663 1.43903 0.642637 0
M  V30 7689 C 698.626 1.49538 1.73698 0
M  V30 7690 C 699.626 0.378776 1.56275 0
M  V30 7691 O 700.816 0.64095 1.6198 0
M  V30 7692 C 697.948 1.35821 3.12675 0
M  V30 7693 H 699.141 2.47008 1.70079 0
M  V30 7694 H 696.694 1.30824 0.85526 0
M  V30 7695 H 697.429 0.393994 3.21898 0
M  V30 7696 H 697.214 2.16776 3.26727 0
M  V30 7697 H 698.704 1.4272 3.92455 0
M  V30 7698 N 699.141 -0.881989 1.30609 0
M  V30 7699 C 700.089 -2.00942 1.17155 0
M  V30 7700 C 701.083 -1.69198 0.0827154 0
M  V30 7701 O 702.289 -1.78342 0.243775 0
M  V30 7702 H 698.664 -0.658913 0.362406 0
M  V30 7703 H 700.635 -2.09423 2.12567 0
M  V30 7704 C 699.384 -3.36294 0.883273 0
M  V30 7705 H 698.707 -3.61233 1.7132 0
M  V30 7706 H 700.147 -4.15812 0.829255 0
M  V30 7707 C 698.606 -3.34348 -0.413851 0
M  V30 7708 O 699.136 -3.75216 -1.43444 0
M  V30 7709 N 697.342 -2.87459 -0.426082 0
M  V30 7710 H 696.889 -2.54397 0.40493 0
M  V30 7711 H 696.847 -2.8654 -1.29391 0
M  V30 7712 N 700.619 -1.13374 -1.09472 0
M  V30 7713 C 702.035 -0.871846 -1.33682 0
M  V30 7714 C 702.235 0.492847 -1.9538 0
M  V30 7715 O 701.291 1.23946 -2.19985 0
M  V30 7716 C 702.604 -1.99608 -2.24893 0
M  V30 7717 C 704.152 -2.02812 -2.38404 0
M  V30 7718 C 704.627 -3.14497 -3.3295 0
M  V30 7719 N 706.118 -3.14004 -3.40523 0
M  V30 7720 C 706.853 -3.97061 -4.13679 0
M  V30 7721 N 706.349 -4.90131 -4.89636 0
M  V30 7722 N 708.142 -3.85162 -4.09398 0
M  V30 7723 H 700.293 -2.01288 -0.677995 0
M  V30 7724 H 702.556 -0.876492 -0.361201 0
M  V30 7725 H 702.262 -2.98 -1.86786 0
M  V30 7726 H 702.136 -1.90981 -3.25278 0
M  V30 7727 H 704.523 -1.05034 -2.75775 0
M  V30 7728 H 704.604 -2.15511 -1.37799 0
M  V30 7729 H 704.248 -4.12514 -2.96302 0
M  V30 7730 H 704.178 -2.99035 -4.33458 0
M  V30 7731 H 706.669 -2.46587 -2.86362 0
M  V30 7732 H 706.982 -5.49996 -5.42885 0
M  V30 7733 H 705.327 -4.94138 -4.88726 0
M  V30 7734 H 708.518 -3.11779 -3.49158 0
M  V30 7735 H 708.691 -4.5012 -4.6615 0
M  V30 7736 N 702.098 1.27442 -0.927168 0
M  V30 7737 C 703.326 1.98498 -0.583622 0
M  V30 7738 C 703.741 1.69171 0.838241 0
M  V30 7739 O 703.098 0.951969 1.55704 0
M  V30 7740 C 703.149 3.52552 -0.799341 0
M  V30 7741 O 702.87 3.80851 -2.16527 0
M  V30 7742 C 704.371 4.4086 -0.464436 0
M  V30 7743 H 701.591 0.633487 -0.221213 0
M  V30 7744 H 704.135 1.62308 -1.24404 0
M  V30 7745 H 702.29 3.86955 -0.185728 0
M  V30 7746 H 702.704 4.75441 -2.21487 0
M  V30 7747 H 704.178 5.47967 -0.666075 0
M  V30 7748 H 704.655 4.35082 0.599995 0
M  V30 7749 H 705.261 4.11977 -1.05617 0
M  V30 7750 N 703.576 0.692616 1.41565 0
M  V30 7751 C 704.523 0.0254264 2.30786 0
M  V30 7752 C 705.493 -0.774347 1.46946 0
M  V30 7753 O 706.678 -0.742981 1.7574 0
M  V30 7754 C 703.818 -0.907123 3.32964 0
M  V30 7755 C 702.931 -0.0992784 4.31886 0
M  V30 7756 C 702.066 -1.0292 5.21134 0
M  V30 7757 C 701.105 -0.214088 6.11725 0
M  V30 7758 N 700.242 -1.09766 6.93467 0
M  V30 7759 H 705.082 0.792036 2.87282 0
M  V30 7760 H 702.619 0.4023 1.41492 0
M  V30 7761 H 704.577 -1.46181 3.90752 0
M  V30 7762 H 703.207 -1.64016 2.78026 0
M  V30 7763 H 702.259 0.572287 3.76071 0
M  V30 7764 H 703.571 0.532782 4.95946 0
M  V30 7765 H 702.725 -1.65321 5.83741 0
M  V30 7766 H 701.464 -1.69512 4.57293 0
M  V30 7767 H 700.469 0.42302 5.4817 0
M  V30 7768 H 701.694 0.447995 6.77621 0
M  V30 7769 H 699.64 -1.74965 6.32237 0
M  V30 7770 H 699.557 -0.521099 7.54202 0
M  V30 7771 H 700.825 -1.70858 7.60544 0
M  V30 7772 N 705.054 -1.51416 0.437162 0
M  V30 7773 C 706.303 -2.01275 -0.130865 0
M  V30 7774 C 706.616 -1.32593 -1.438 0
M  V30 7775 O 707.822 -1.7342 -2.08897 0
M  V30 7776 C 706.278 -3.5878 -0.283763 0
M  V30 7777 C 705.886 -4.36399 1.01293 0
M  V30 7778 C 707.63 -4.16786 -0.805569 0
M  V30 7779 C 705.537 -5.85608 0.825687 0
M  V30 7780 H 704.467 -0.752157 -0.0526818 0
M  V30 7781 H 707.118 -1.74524 0.566896 0
M  V30 7782 H 705.5 -3.81976 -1.04452 0
M  V30 7783 H 706.674 -4.24948 1.78201 0
M  V30 7784 H 704.989 -3.89843 1.46326 0
M  V30 7785 H 707.586 -5.25972 -0.962146 0
M  V30 7786 H 707.929 -3.75949 -1.78796 0
M  V30 7787 H 708.462 -3.97666 -0.103125 0
M  V30 7788 H 705.201 -6.30857 1.78045 0
M  V30 7789 H 704.721 -5.99723 0.0964029 0
M  V30 7790 H 706.4 -6.45226 0.478815 0
M  V30 7791 N 706.532 -0.168513 -1.56696 0
M  V30 7792 C 707.76 0.483503 -2.01171 0
M  V30 7793 C 708.175 1.56994 -1.04872 0
M  V30 7794 O 707.532 1.82434 -0.0491337 0
M  V30 7795 C 707.583 1.0644 -3.45475 0
M  V30 7796 O 707.304 0.0213375 -4.38095 0
M  V30 7797 C 708.805 1.79493 -4.05336 0
M  V30 7798 H 706.025 0.124002 -0.659443 0
M  V30 7799 H 708.569 -0.269419 -2.02717 0
M  V30 7800 H 706.724 1.76784 -3.44712 0
M  V30 7801 H 707.138 0.449837 -5.22567 0
M  V30 7802 H 708.612 2.15401 -5.08238 0
M  V30 7803 H 709.089 2.68889 -3.47269 0
M  V30 7804 H 709.695 1.13798 -4.09793 0
M  V30 7805 N 708.01 1.57248 0.105221 0
M  V30 7806 C 708.92 2.04653 1.14693 0
M  V30 7807 C 709.936 0.969488 1.44489 0
M  V30 7808 O 711.112 1.28196 1.55331 0
M  V30 7809 C 708.177 2.45297 2.45011 0
M  V30 7810 C 707.238 3.67148 2.22489 0
M  V30 7811 C 706.471 4.05844 3.46592 0
M  V30 7812 O 706.694 3.44736 4.54437 0
M  V30 7813 O 705.628 4.98862 3.36779 0
M  V30 7814 H 709.454 2.93663 0.774336 0
M  V30 7815 H 707.039 1.45998 0.31701 0
M  V30 7816 H 708.921 2.72112 3.21766 0
M  V30 7817 H 707.596 1.59429 2.81717 0
M  V30 7818 H 706.503 3.45463 1.43547 0
M  V30 7819 H 707.836 4.53764 1.9068 0
M  V30 7820 N 709.488 -0.375779 1.53054 0
M  V30 7821 C 710.418 -1.46598 1.81745 0
M  V30 7822 C 711.399 -1.56337 0.670286 0
M  V30 7823 O 712.584 -1.71071 0.919158 0
M  V30 7824 C 709.714 -2.84058 1.99821 0
M  V30 7825 C 708.668 -2.8915 3.15557 0
M  V30 7826 C 707.994 -4.29187 3.18908 0
M  V30 7827 C 709.294 -2.57595 4.54359 0
M  V30 7828 H 710.988 -1.22837 2.73041 0
M  V30 7829 H 708.534 -0.589485 1.31381 0
M  V30 7830 H 710.487 -3.60342 2.18475 0
M  V30 7831 H 709.211 -3.09184 1.05226 0
M  V30 7832 H 707.87 -2.15316 2.96706 0
M  V30 7833 H 707.518 -4.51374 2.2197 0
M  V30 7834 H 707.218 -4.33512 3.96662 0
M  V30 7835 H 708.742 -5.07359 3.39734 0
M  V30 7836 H 710.156 -3.23595 4.73243 0
M  V30 7837 H 708.553 -2.73252 5.34279 0
M  V30 7838 H 709.623 -1.52882 4.60169 0
M  V30 7839 N 710.966 -1.44241 -0.634997 0
M  V30 7840 C 711.896 -1.53632 -1.7584 0
M  V30 7841 C 712.877 -0.389603 -1.65578 0
M  V30 7842 O 714.062 -0.609219 -1.84397 0
M  V30 7843 C 711.192 -1.47644 -3.14354 0
M  V30 7844 C 710.146 -2.60752 -3.394 0
M  V30 7845 C 709.472 -2.39817 -4.77904 0
M  V30 7846 C 710.772 -4.02921 -3.32343 0
M  V30 7847 H 712.466 -2.47662 -1.68238 0
M  V30 7848 H 710.012 -1.19197 -0.807969 0
M  V30 7849 H 711.965 -1.52815 -3.92716 0
M  V30 7850 H 710.689 -0.501284 -3.2273 0
M  V30 7851 H 709.348 -2.54965 -2.63417 0
M  V30 7852 H 708.996 -1.40502 -4.82978 0
M  V30 7853 H 708.696 -3.15649 -4.9562 0
M  V30 7854 H 710.22 -2.46799 -5.585 0
M  V30 7855 H 711.634 -4.10098 -4.00615 0
M  V30 7856 H 710.031 -4.78925 -3.61595 0
M  V30 7857 H 711.101 -4.26766 -2.30215 0
M  V30 7858 N 712.444 0.87505 -1.31075 0
M  V30 7859 C 713.86 1.15997 -1.09622 0
M  V30 7860 C 714.06 2.01036 0.136611 0
M  V30 7861 O 713.116 2.38559 0.827397 0
M  V30 7862 C 714.429 1.85702 -2.36506 0
M  V30 7863 C 715.977 1.98425 -2.42067 0
M  V30 7864 C 716.452 2.71544 -3.68819 0
M  V30 7865 N 717.943 2.79084 -3.69684 0
M  V30 7866 C 718.678 3.36259 -4.64454 0
M  V30 7867 N 718.174 3.94406 -5.69575 0
M  V30 7868 N 719.967 3.34169 -4.51982 0
M  V30 7869 H 712.118 0.308258 -2.10151 0
M  V30 7870 H 714.381 0.199145 -0.926847 0
M  V30 7871 H 714.087 1.30663 -3.26527 0
M  V30 7872 H 713.961 2.86017 -2.45915 0
M  V30 7873 H 716.348 2.5263 -1.52518 0
M  V30 7874 H 716.429 0.971682 -2.36626 0
M  V30 7875 H 716.073 2.18008 -4.58732 0
M  V30 7876 H 716.003 3.73198 -3.71525 0
M  V30 7877 H 718.494 2.3781 -2.93691 0
M  V30 7878 H 718.807 4.36129 -6.37974 0
M  V30 7879 H 717.152 3.92797 -5.73355 0
M  V30 7880 H 720.343 2.87977 -3.69035 0
M  V30 7881 H 720.516 3.78431 -5.26017 0
M  V30 7882 N 713.922 1.13953 1.08869 0
M  V30 7883 C 715.169 0.90481 1.81161 0
M  V30 7884 C 715.497 -0.568824 1.85996 0
M  V30 7885 O 714.752 -1.43723 1.32823 0
M  V30 7886 C 715.051 1.44495 3.26888 0
M  V30 7887 C 714.717 2.93641 3.42178 0
M  V30 7888 C 713.379 3.34361 3.46059 0
M  V30 7889 C 715.731 3.89568 3.46246 0
M  V30 7890 C 713.059 4.69681 3.51592 0
M  V30 7891 C 715.411 5.2474 3.53314 0
M  V30 7892 C 714.075 5.64979 3.55465 0
M  V30 7893 H 713.345 0.331094 0.662916 0
M  V30 7894 H 715.992 1.42242 1.28217 0
M  V30 7895 H 714.297 0.848169 3.82509 0
M  V30 7896 H 715.994 1.23934 3.81368 0
M  V30 7897 H 712.584 2.61156 3.39846 0
M  V30 7898 H 716.768 3.59192 3.42483 0
M  V30 7899 H 712.024 5.00224 3.51547 0
M  V30 7900 H 716.198 5.98882 3.55406 0
M  V30 7901 H 713.825 6.69821 3.59505 0
M  V30 7902 N 715.4 -1.26948 0.933913 0
M  V30 7903 C 716.332 -2.25768 0.395137 0
M  V30 7904 C 717.345 -1.55637 -0.477585 0
M  V30 7905 O 718.534 -1.76142 -0.289204 0
M  V30 7906 C 715.634 -3.35874 -0.451882 0
M  V30 7907 C 714.807 -4.3554 0.40299 0
M  V30 7908 C 713.866 -5.24809 -0.3824 0
M  V30 7909 O 712.892 -5.68805 0.212057 0
M  V30 7910 N 714.094 -5.55636 -1.68072 0
M  V30 7911 H 716.859 -2.72634 1.24463 0
M  V30 7912 H 714.42 -1.40639 0.802008 0
M  V30 7913 H 716.412 -3.92542 -0.984516 0
M  V30 7914 H 714.982 -2.8856 -1.20215 0
M  V30 7915 H 714.202 -3.78047 1.11688 0
M  V30 7916 H 715.49 -4.99131 0.987201 0
M  V30 7917 H 714.888 -5.2176 -2.18592 0
M  V30 7918 H 713.445 -6.14978 -2.15975 0
M  V30 7919 N 716.879 -0.700114 -1.41195 0
M  V30 7920 C 718.107 -0.242179 -2.05478 0
M  V30 7921 C 718.522 1.11029 -1.52702 0
M  V30 7922 O 717.879 1.69473 -0.677127 0
M  V30 7923 C 717.93 -0.196271 -3.60967 0
M  V30 7924 O 717.651 -1.49532 -4.11791 0
M  V30 7925 C 719.152 0.282102 -4.42401 0
M  V30 7926 H 716.372 -0.111749 -0.661629 0
M  V30 7927 H 718.916 -0.953975 -1.80885 0
M  V30 7928 H 717.071 0.46638 -3.84582 0
M  V30 7929 H 717.485 -1.38545 -5.05871 0
M  V30 7930 H 718.959 0.263093 -5.51373 0
M  V30 7931 H 719.436 1.32174 -4.1884 0
M  V30 7932 H 720.042 -0.349712 -4.2386 0
M  V30 7933 N 718.357 1.51182 -0.445186 0
M  V30 7934 C 719.582 2.07056 0.119445 0
M  V30 7935 C 720.007 1.30966 1.35016 0
M  V30 7936 O 719.365 0.349827 1.77893 0
M  V30 7937 C 719.413 3.58234 0.412428 0
M  V30 7938 O 718.517 3.84249 1.49754 0
M  V30 7939 H 717.858 0.663998 -0.00157797 0
M  V30 7940 H 720.388 1.94699 -0.628779 0
M  V30 7941 H 720.398 4.02617 0.660583 0
M  V30 7942 H 719.073 4.13038 -0.487049 0
M  V30 7943 H 717.65 3.51724 1.23873 0
M  V30 7944 N 719.835 0.176821 1.56605 0
M  V30 7945 C 720.782 -0.751312 2.18229 0
M  V30 7946 C 721.752 -1.22297 1.12395 0
M  V30 7947 O 722.937 -1.29015 1.40569 0
M  V30 7948 C 720.077 -1.97291 2.83143 0
M  V30 7949 C 719.19 -1.54431 4.03454 0
M  V30 7950 C 718.325 -2.72 4.56278 0
M  V30 7951 C 717.364 -2.25657 5.68986 0
M  V30 7952 N 716.501 -3.36338 6.16296 0
M  V30 7953 H 721.341 -0.219033 2.97194 0
M  V30 7954 H 718.878 -0.0963803 1.46784 0
M  V30 7955 H 720.836 -2.68949 3.1894 0
M  V30 7956 H 719.466 -2.4788 2.06773 0
M  V30 7957 H 718.518 -0.724273 3.73441 0
M  V30 7958 H 719.83 -1.16417 4.85024 0
M  V30 7959 H 718.984 -3.51806 4.94285 0
M  V30 7960 H 717.723 -3.13277 3.73777 0
M  V30 7961 H 716.728 -1.44299 5.30526 0
M  V30 7962 H 717.953 -1.85432 6.53293 0
M  V30 7963 H 715.899 -3.7718 5.36723 0
M  V30 7964 H 715.816 -3.02435 6.9287 0
M  V30 7965 H 717.084 -4.16413 6.58954 0
M  V30 7966 N 721.313 -1.57302 -0.09688 0
M  V30 7967 C 722.538 -1.9058 -0.818169 0
M  V30 7968 C 722.963 -0.770921 -1.71576 0
M  V30 7969 O 722.321 0.277588 -1.79162 0
M  V30 7970 C 722.369 -3.22714 -1.60898 0
M  V30 7971 O 721.473 -3.10178 -2.71779 0
M  V30 7972 H 720.814 -0.624759 -0.224882 0
M  V30 7973 H 723.344 -2.04471 -0.07264 0
M  V30 7974 H 723.354 -3.55978 -1.99358 0
M  V30 7975 H 722.029 -4.04899 -0.950227 0
M  V30 7976 H 720.606 -2.88424 -2.3636 0
M  V30 7977 N 722.791 0.367657 -1.53252 0
M  V30 7978 C 724.039 1.10832 -1.68999 0
M  V30 7979 C 724.36 1.89894 -0.443306 0
M  V30 7980 O 723.63 1.88235 0.54262 0
M  V30 7981 H 722.21 0.412153 -0.623008 0
M  V30 7982 H 724.872 0.414775 -1.90435 0
M  V30 7983 H 723.968 1.7993 -2.55013 0
M  V30 7984 N 724.269 1.44576 0.627338 0
M  V30 7985 C 725.546 1.38033 1.38586 0
M  V30 7986 C 725.926 0.0409468 2.1106 0
M  V30 7987 O 725.274 -0.976582 2.0658 0
M  V30 7988 C 725.484 2.58102 2.34913 0
M  V30 7989 C 726.832 3.02332 2.98129 0
M  V30 7990 O 727.856 2.58334 2.45238 0
M  V30 7991 O 726.715 3.78628 3.94085 0
M  V30 7992 H 723.809 0.546801 0.620434 0
M  V30 7993 H 726.355 1.56672 0.652077 0
M  V30 7994 H 725.127 3.4719 1.80485 0
M  V30 7995 H 724.75 2.41696 3.15703 0
M  V30 7996 N 725.747 -0.868086 1.31537 0
M  V30 7997 C 726.657 -2.00801 1.21311 0
M  V30 7998 C 727.673 -1.73518 0.129431 0
M  V30 7999 O 728.849 -1.98378 0.347588 0
M  V30 8000 C 725.914 -3.3419 0.922935 0
M  V30 8001 C 724.975 -3.74783 2.0937 0
M  V30 8002 C 724.208 -5.01807 1.81728 0
M  V30 8003 O 724.431 -5.65404 0.753313 0
M  V30 8004 O 723.365 -5.39213 2.67457 0
M  V30 8005 H 727.191 -2.12361 2.17109 0
M  V30 8006 H 724.776 -0.996684 1.11295 0
M  V30 8007 H 726.658 -4.14174 0.777033 0
M  V30 8008 H 725.333 -3.237 -0.00500301 0
M  V30 8009 H 724.24 -2.95432 2.29501 0
M  V30 8010 H 725.573 -3.89902 3.00396 0
M  V30 8011 N 727.225 -1.14528 -1.08264 0
M  V30 8012 C 728.158 -0.777154 -2.14559 0
M  V30 8013 C 729.136 0.242165 -1.60787 0
M  V30 8014 O 730.32 0.130882 -1.88045 0
M  V30 8015 C 727.447 -0.154092 -3.38349 0
M  V30 8016 C 726.493 -1.14382 -4.10876 0
M  V30 8017 S 727.326 -2.68173 -4.63512 0
M  V30 8018 C 728.482 -2.0726 -5.90588 0
M  V30 8019 H 728.715 -1.67748 -2.45454 0
M  V30 8020 H 726.248 -0.966661 -1.20395 0
M  V30 8021 H 728.206 0.19897 -4.10018 0
M  V30 8022 H 726.867 0.723688 -3.05649 0
M  V30 8023 H 726.06 -0.655908 -4.99714 0
M  V30 8024 H 725.662 -1.44095 -3.45127 0
M  V30 8025 H 727.954 -1.42895 -6.62259 0
M  V30 8026 H 728.897 -2.94227 -6.44078 0
M  V30 8027 H 729.305 -1.51935 -5.43669 0
M  V30 8028 N 728.703 1.26451 -0.940633 0
M  V30 8029 C 729.952 1.93071 -0.583656 0
M  V30 8030 C 730.265 1.74618 0.881366 0
M  V30 8031 O 731.471 2.35689 1.34769 0
M  V30 8032 C 729.927 3.45927 -0.993106 0
M  V30 8033 C 729.535 3.73115 -2.4797 0
M  V30 8034 C 731.279 4.18554 -0.707998 0
M  V30 8035 C 729.186 5.19408 -2.82788 0
M  V30 8036 H 728.116 0.722824 -0.214572 0
M  V30 8037 H 730.767 1.43538 -1.1432 0
M  V30 8038 H 729.149 3.94341 -0.362099 0
M  V30 8039 H 730.323 3.35408 -3.15971 0
M  V30 8040 H 728.638 3.13719 -2.73805 0
M  V30 8041 H 731.235 5.26293 -0.94447 0
M  V30 8042 H 731.578 4.14782 0.355225 0
M  V30 8043 H 732.111 3.76003 -1.2987 0
M  V30 8044 H 728.85 5.28281 -3.88071 0
M  V30 8045 H 728.37 5.58214 -2.19449 0
M  V30 8046 H 730.049 5.87407 -2.71224 0
M  V30 8047 N 730.181 0.707592 1.40822 0
M  V30 8048 C 731.429 0.243189 2.00632 0
M  V30 8049 C 731.75 -1.16512 1.56365 0
M  V30 8050 O 731.02 -1.78841 0.799553 0
M  V30 8051 H 729.6 0.0869203 0.741926 0
M  V30 8052 H 732.262 0.911438 1.72275 0
M  V30 8053 H 731.358 0.270014 3.1093 0
M  V30 8054 N 731.66 -1.50943 0.453197 0
M  V30 8055 C 732.59 -2.31005 -0.34044 0
M  V30 8056 C 733.571 -1.37112 -1.00669 0
M  V30 8057 O 734.756 -1.66033 -1.0073 0
M  V30 8058 C 731.886 -3.16358 -1.433 0
M  V30 8059 C 730.84 -4.18658 -0.889363 0
M  V30 8060 C 730.166 -4.92633 -2.07887 0
M  V30 8061 C 731.466 -5.22227 0.0871142 0
M  V30 8062 H 733.16 -2.97601 0.327723 0
M  V30 8063 H 730.706 -1.43119 0.159054 0
M  V30 8064 H 732.659 -3.71155 -1.99555 0
M  V30 8065 H 731.383 -2.47613 -2.12968 0
M  V30 8066 H 730.042 -3.64936 -0.348915 0
M  V30 8067 H 729.69 -4.20376 -2.76211 0
M  V30 8068 H 729.39 -5.61819 -1.72143 0
M  V30 8069 H 730.914 -5.50258 -2.64666 0
M  V30 8070 H 732.328 -5.72001 -0.385656 0
M  V30 8071 H 730.725 -5.99032 0.357926 0
M  V30 8072 H 731.795 -4.74077 1.01879 0
M  V30 8073 N 733.138 -0.185124 -1.56509 0
M  V30 8074 C 734.085 0.739729 -2.18624 0
M  V30 8075 C 735.055 1.217 -1.13042 0
M  V30 8076 O 736.24 1.28268 -1.41251 0
M  V30 8077 C 733.38 1.95787 -2.84186 0
M  V30 8078 C 732.493 1.52289 -4.04267 0
M  V30 8079 C 731.628 2.69576 -4.57714 0
M  V30 8080 C 730.667 2.22636 -5.70175 0
M  V30 8081 N 729.804 3.33065 -6.18071 0
M  V30 8082 H 734.644 0.203269 -2.97306 0
M  V30 8083 H 732.181 0.0885946 -1.46833 0
M  V30 8084 H 734.139 2.67253 -3.20361 0
M  V30 8085 H 732.769 2.4678 -2.08085 0
M  V30 8086 H 731.821 0.704458 -3.7382 0
M  V30 8087 H 733.133 1.13843 -4.85635 0
M  V30 8088 H 732.287 3.4918 -4.96143 0
M  V30 8089 H 731.026 3.1129 -3.75433 0
M  V30 8090 H 730.031 1.41483 -5.31284 0
M  V30 8091 H 731.256 1.81964 -6.54267 0
M  V30 8092 H 729.202 3.74328 -5.38715 0
M  V30 8093 H 729.119 2.98756 -6.94464 0
M  V30 8094 H 730.387 4.12912 -6.61153 0
M  V30 8095 N 734.616 1.57351 0.0885366 0
M  V30 8096 C 735.526 2.05858 1.12516 0
M  V30 8097 C 736.542 0.984758 1.43452 0
M  V30 8098 O 737.718 1.29836 1.53963 0
M  V30 8099 C 734.783 2.47882 2.42395 0
M  V30 8100 C 733.844 3.69487 2.18582 0
M  V30 8101 C 733.077 4.09497 3.42268 0
M  V30 8102 O 733.3 3.49536 4.50755 0
M  V30 8103 O 732.234 5.02406 3.31469 0
M  V30 8104 H 736.06 2.94467 0.743146 0
M  V30 8105 H 733.645 1.46326 0.301507 0
M  V30 8106 H 735.527 2.75509 3.18862 0
M  V30 8107 H 734.202 1.62408 2.8001 0
M  V30 8108 H 733.109 3.46967 1.39875 0
M  V30 8109 H 734.442 4.55761 1.85857 0
M  V30 8110 N 736.094 -0.359525 1.53444 0
M  V30 8111 C 737.324 -1.12036 1.73585 0
M  V30 8112 C 737.732 -1.83335 0.467438 0
M  V30 8113 O 737.075 -1.74641 -0.569753 0
M  V30 8114 C 737.137 -2.19036 2.85068 0
M  V30 8115 C 736.801 -1.67451 4.25217 0
M  V30 8116 C 737.798 -1.13534 5.07352 0
M  V30 8117 C 735.483 -1.72781 4.71648 0
M  V30 8118 C 737.477 -0.656321 6.34012 0
M  V30 8119 C 735.164 -1.2449 5.98285 0
M  V30 8120 C 736.162 -0.710068 6.79299 0
M  V30 8121 O 735.85 -0.234314 8.03558 0
M  V30 8122 H 735.582 -0.340662 0.583888 0
M  V30 8123 H 738.136 -0.422452 2.01009 0
M  V30 8124 H 736.366 -2.92338 2.53131 0
M  V30 8125 H 738.055 -2.80559 2.93328 0
M  V30 8126 H 738.821 -1.08751 4.7265 0
M  V30 8127 H 734.7 -2.13351 4.08659 0
M  V30 8128 H 738.244 -0.238193 6.97193 0
M  V30 8129 H 734.141 -1.28969 6.32485 0
M  V30 8130 H 734.909 -0.353084 8.17738 0
M  V30 8131 N 737.572 -1.44907 -0.619662 0
M  V30 8132 C 738.818 -1.48512 -1.38102 0
M  V30 8133 C 739.151 -0.121686 -1.93818 0
M  V30 8134 O 738.426 0.862256 -1.74343 0
M  V30 8135 C 738.709 -2.55469 -2.53787 0
M  V30 8136 C 738.562 -4.01212 -2.03345 0
M  V30 8137 C 739.881 -2.58821 -3.55949 0
M  V30 8138 H 737 -0.540712 -0.500799 0
M  V30 8139 H 739.642 -1.7665 -0.69962 0
M  V30 8140 H 737.792 -2.31606 -3.11915 0
M  V30 8141 H 739.464 -4.36245 -1.49959 0
M  V30 8142 H 737.707 -4.12443 -1.34438 0
M  V30 8143 H 738.378 -4.71717 -2.86683 0
M  V30 8144 H 740.854 -2.80172 -3.07641 0
M  V30 8145 H 739.73 -3.35542 -4.34399 0
M  V30 8146 H 739.991 -1.63451 -4.10775 0
M  V30 8147 N 739.05 0.861098 -1.31996 0
M  V30 8148 C 740.327 1.59788 -1.12814 0
M  V30 8149 C 740.707 2.08753 0.313882 0
M  V30 8150 O 740.055 1.87258 1.30946 0
M  V30 8151 C 740.265 2.74901 -2.15012 0
M  V30 8152 C 741.613 3.44643 -2.48004 0
M  V30 8153 O 742.637 2.85119 -2.13508 0
M  V30 8154 O 741.496 4.52044 -3.07113 0
M  V30 8155 H 738.59 0.703408 -0.434909 0
M  V30 8156 H 741.136 0.905788 -1.43505 0
M  V30 8157 H 739.908 2.36198 -3.11971 0
M  V30 8158 H 739.531 3.51792 -1.85279 0
M  V30 8159 N 740.528 1.15101 1.07655 0
M  V30 8160 C 741.944 0.893004 1.32279 0
M  V30 8161 C 742.144 -0.461701 1.96139 0
M  V30 8162 O 741.2 -1.20431 2.21929 0
M  V30 8163 C 742.513 2.03161 2.21689 0
M  V30 8164 C 744.061 2.06579 2.35147 0
M  V30 8165 C 744.536 3.19754 3.27905 0
M  V30 8166 N 746.027 3.19382 3.35484 0
M  V30 8167 C 746.762 4.03592 4.07309 0
M  V30 8168 N 746.258 4.97859 4.81776 0
M  V30 8169 N 748.051 3.91626 4.03219 0
M  V30 8170 H 740.202 2.02341 0.645886 0
M  V30 8171 H 742.465 0.882127 0.347211 0
M  V30 8172 H 742.171 3.00934 1.82021 0
M  V30 8173 H 742.045 1.96132 3.22199 0
M  V30 8174 H 744.432 1.09408 2.74069 0
M  V30 8175 H 744.513 2.17676 1.34353 0
M  V30 8176 H 744.157 4.17175 2.89702 0
M  V30 8177 H 744.087 3.05893 4.28645 0
M  V30 8178 H 746.578 2.51112 2.82403 0
M  V30 8179 H 746.891 5.58563 5.34067 0
M  V30 8180 H 745.236 5.0185 4.80803 0
M  V30 8181 H 748.427 3.17295 3.44154 0
M  V30 8182 H 748.6 4.57479 4.5893 0
M  V30 8183 N 742.006 -1.2595 0.947325 0
M  V30 8184 C 742.939 -2.24559 0.406009 0
M  V30 8185 C 743.917 -1.54441 -0.508598 0
M  V30 8186 O 745.101 -1.83181 -0.444644 0
M  V30 8187 C 742.228 -3.36136 -0.415987 0
M  V30 8188 C 741.274 -4.24245 0.437969 0
M  V30 8189 S 742.107 -5.01948 1.86572 0
M  V30 8190 C 743.263 -6.16997 1.05194 0
M  V30 8191 H 743.496 -2.70128 1.24171 0
M  V30 8192 H 741.029 -1.34912 0.750874 0
M  V30 8193 H 742.987 -4.00861 -0.88433 0
M  V30 8194 H 741.648 -2.89167 -1.22643 0
M  V30 8195 H 740.841 -5.03634 -0.192127 0
M  V30 8196 H 740.443 -3.64416 0.841235 0
M  V30 8197 H 742.735 -6.76848 0.297126 0
M  V30 8198 H 743.678 -6.84324 1.8195 0
M  V30 8199 H 744.086 -5.61458 0.585294 0
M  V30 8200 N 743.484 -0.715051 -1.40445 0
M  V30 8201 C 744.431 -0.0621393 -2.30716 0
M  V30 8202 C 745.401 0.750871 -1.48159 0
M  V30 8203 O 746.586 0.714928 -1.76899 0
M  V30 8204 C 743.726 0.854036 -3.34365 0
M  V30 8205 C 742.839 0.0305565 -4.31989 0
M  V30 8206 C 741.974 0.946162 -5.22706 0
M  V30 8207 C 741.013 0.116741 -6.11989 0
M  V30 8208 N 740.15 0.987194 -6.95125 0
M  V30 8209 H 744.99 -0.83764 -2.85985 0
M  V30 8210 H 742.527 -0.424759 -1.40834 0
M  V30 8211 H 744.485 1.39946 -3.93028 0
M  V30 8212 H 743.115 1.59572 -2.806 0
M  V30 8213 H 742.167 -0.632044 -3.75112 0
M  V30 8214 H 743.479 -0.611615 -4.95036 0
M  V30 8215 H 742.633 1.56014 -5.86297 0
M  V30 8216 H 741.372 1.62216 -4.59932 0
M  V30 8217 H 740.377 -0.510176 -5.47428 0
M  V30 8218 H 741.602 -0.555742 -6.76822 0
M  V30 8219 H 739.548 1.64885 -6.3494 0
M  V30 8220 H 739.465 0.401046 -7.54936 0
M  V30 8221 H 740.733 1.58737 -7.63166 0
M  V30 8222 N 744.962 1.50701 -0.461195 0
M  V30 8223 C 745.872 2.32069 0.343661 0
M  V30 8224 C 746.888 1.42016 1.00535 0
M  V30 8225 O 748.064 1.75077 0.995498 0
M  V30 8226 C 745.129 3.16424 1.41692 0
M  V30 8227 C 744.19 4.22286 0.772869 0
M  V30 8228 C 743.423 5.02609 1.79499 0
M  V30 8229 O 743.646 4.83874 3.0203 0
M  V30 8230 O 742.58 5.86047 1.3723 0
M  V30 8231 H 746.406 3.01996 -0.321268 0
M  V30 8232 H 743.991 1.47723 -0.223235 0
M  V30 8233 H 745.873 3.68795 2.03883 0
M  V30 8234 H 744.548 2.49236 2.0655 0
M  V30 8235 H 743.455 3.73931 0.112277 0
M  V30 8236 H 744.788 4.91915 0.167399 0
M  V30 8237 N 746.441 0.193421 1.56409 0
M  V30 8238 C 747.389 -0.744829 2.20352 0
M  V30 8239 C 748.383 -1.22104 1.17418 0
M  V30 8240 O 749.589 -1.18413 1.35567 0
M  V30 8241 H 745.964 -0.258538 0.70616 0
M  V30 8242 H 747.935 -0.181794 2.97846 0
M  V30 8243 C 746.684 -1.95453 2.87565 0
M  V30 8244 H 746.007 -1.59716 3.66512 0
M  V30 8245 H 747.447 -2.58942 3.35745 0
M  V30 8246 C 745.906 -2.79223 1.8851 0
M  V30 8247 O 746.436 -3.77093 1.38434 0
M  V30 8248 N 744.642 -2.44682 1.56777 0
M  V30 8249 H 744.189 -1.65153 1.97692 0
M  V30 8250 H 744.147 -3.01016 0.907573 0
M  V30 8251 N 747.919 -1.57396 -0.0801906 0
M  V30 8252 C 748.851 -1.9982 -1.12271 0
M  V30 8253 C 749.864 -0.902902 -1.35468 0
M  V30 8254 O 751.053 -1.18088 -1.33856 0
M  V30 8255 C 748.153 -2.31476 -2.47532 0
M  V30 8256 C 747.326 -3.62745 -2.44407 0
M  V30 8257 C 746.385 -3.82168 -3.6171 0
M  V30 8258 O 745.411 -4.53852 -3.43522 0
M  V30 8259 N 746.613 -3.2388 -4.81749 0
M  V30 8260 H 749.378 -2.89864 -0.761501 0
M  V30 8261 H 746.939 -1.5965 -0.268965 0
M  V30 8262 H 748.931 -2.4165 -3.24634 0
M  V30 8263 H 747.501 -1.47364 -2.75686 0
M  V30 8264 H 746.721 -3.63403 -1.52747 0
M  V30 8265 H 748.009 -4.48954 -2.39412 0
M  V30 8266 H 747.407 -2.6568 -4.9943 0
M  V30 8267 H 745.964 -3.39515 -5.56392 0
M  V30 8268 N 749.397 0.351382 -1.53633 0
M  V30 8269 C 750.344 1.43115 -1.81071 0
M  V30 8270 C 751.314 1.52601 -0.655913 0
M  V30 8271 O 752.499 1.68264 -0.89955 0
M  V30 8272 C 749.639 2.79874 -2.01903 0
M  V30 8273 C 748.752 2.79242 -3.29618 0
M  V30 8274 C 747.887 4.07667 -3.40559 0
M  V30 8275 C 746.926 4.01233 -4.62254 0
M  V30 8276 N 746.063 5.21334 -4.70271 0
M  V30 8277 H 750.903 1.19017 -2.73201 0
M  V30 8278 H 748.44 0.576691 -1.35324 0
M  V30 8279 H 750.398 3.5934 -2.11969 0
M  V30 8280 H 749.028 3.0234 -1.13094 0
M  V30 8281 H 748.08 1.91927 -3.28433 0
M  V30 8282 H 749.392 2.70363 -4.19172 0
M  V30 8283 H 748.546 4.95555 -3.50015 0
M  V30 8284 H 747.285 4.19317 -2.49047 0
M  V30 8285 H 746.29 3.11732 -4.52884 0
M  V30 8286 H 747.515 3.91173 -5.55122 0
M  V30 8287 H 745.461 5.33543 -3.81665 0
M  V30 8288 H 745.378 5.14681 -5.5375 0
M  V30 8289 H 746.646 6.11014 -4.84027 0
M  V30 8290 N 750.875 1.45233 0.611969 0
M  V30 8291 C 752.152 1.39495 1.37115 0
M  V30 8292 C 752.532 0.0633303 2.11005 0
M  V30 8293 O 751.88 -0.954617 2.07604 0
M  V30 8294 C 752.09 2.60579 2.32163 0
M  V30 8295 C 753.438 3.05477 2.94905 0
M  V30 8296 O 754.462 2.60921 2.42485 0
M  V30 8297 O 753.321 3.82787 3.90047 0
M  V30 8298 H 750.415 0.55335 0.614599 0
M  V30 8299 H 752.961 1.57355 0.635423 0
M  V30 8300 H 751.733 3.49085 1.76793 0
M  V30 8301 H 751.356 2.45031 3.13122 0
M  V30 8302 N 752.353 -0.854086 1.3245 0
M  V30 8303 C 753.602 -1.60318 1.22397 0
M  V30 8304 C 753.915 -1.9444 -0.212664 0
M  V30 8305 O 755.121 -2.67991 -0.435066 0
M  V30 8306 C 753.577 -2.8909 2.1437 0
M  V30 8307 C 753.185 -2.62391 3.63119 0
M  V30 8308 C 754.929 -3.67104 2.13155 0
M  V30 8309 C 752.836 -3.87167 4.47052 0
M  V30 8310 H 751.766 -0.601586 0.454544 0
M  V30 8311 H 754.417 -0.943023 1.57415 0
M  V30 8312 H 752.799 -3.56567 1.72268 0
M  V30 8313 H 753.973 -2.03222 4.13567 0
M  V30 8314 H 752.288 -1.97706 3.66471 0
M  V30 8315 H 754.885 -4.59696 2.731 0
M  V30 8316 H 755.228 -4.00876 1.12268 0
M  V30 8317 H 755.761 -3.06533 2.5354 0
M  V30 8318 H 752.5 -3.58536 5.48755 0
M  V30 8319 H 752.02 -4.45729 4.01355 0
M  V30 8320 H 753.699 -4.549 4.60081 0
M  V30 8321 N 753.831 -1.1567 -1.07043 0
M  V30 8322 C 755.061 -0.956083 -1.83146 0
M  V30 8323 C 755.469 0.498969 -1.82502 0
M  V30 8324 O 754.812 1.35791 -1.23719 0
M  V30 8325 C 754.874 -1.39704 -3.31245 0
M  V30 8326 C 754.538 -2.87045 -3.55604 0
M  V30 8327 C 755.535 -3.85092 -3.49285 0
M  V30 8328 C 753.22 -3.24787 -3.8317 0
M  V30 8329 C 755.214 -5.18885 -3.70185 0
M  V30 8330 C 752.901 -4.58751 -4.03721 0
M  V30 8331 C 753.899 -5.55609 -3.97224 0
M  V30 8332 O 753.587 -6.87154 -4.17223 0
M  V30 8333 H 753.319 -0.339473 -0.58458 0
M  V30 8334 H 755.873 -1.53922 -1.36005 0
M  V30 8335 H 754.103 -0.757326 -3.79212 0
M  V30 8336 H 755.792 -1.16503 -3.88821 0
M  V30 8337 H 756.558 -3.5728 -3.27988 0
M  V30 8338 H 752.437 -2.49979 -3.87339 0
M  V30 8339 H 755.981 -5.94473 -3.6503 0
M  V30 8340 H 751.878 -4.86277 -4.24505 0
M  V30 8341 H 752.646 -6.93618 -4.34553 0
M  V30 8342 N 755.309 1.25446 -0.953992 0
M  V30 8343 C 756.539 1.96929 -0.624688 0
M  V30 8344 C 756.947 1.71112 0.807292 0
M  V30 8345 O 756.29 0.983512 1.55154 0
M  V30 8346 C 756.352 3.50425 -0.802676 0
M  V30 8347 C 756.016 3.99916 -2.21169 0
M  V30 8348 C 757.013 4.10662 -3.18831 0
M  V30 8349 C 754.698 4.33598 -2.53571 0
M  V30 8350 C 756.692 4.54401 -4.46988 0
M  V30 8351 C 754.379 4.77024 -3.81958 0
M  V30 8352 C 755.377 4.87388 -4.78478 0
M  V30 8353 O 755.065 5.29851 -6.04577 0
M  V30 8354 H 754.797 0.634511 -0.233179 0
M  V30 8355 H 757.351 1.60591 -1.28061 0
M  V30 8356 H 755.581 3.86596 -0.0896044 0
M  V30 8357 H 757.27 4.03117 -0.47452 0
M  V30 8358 H 758.036 3.84872 -2.95124 0
M  V30 8359 H 753.915 4.24757 -1.79171 0
M  V30 8360 H 757.459 4.62406 -5.22328 0
M  V30 8361 H 753.356 5.02258 -4.05471 0
M  V30 8362 H 754.124 5.48039 -6.07944 0
M  V30 8363 N 756.787 0.722489 1.40064 0
M  V30 8364 C 758.036 0.261932 1.99992 0
M  V30 8365 C 758.349 -1.15358 1.57961 0
M  V30 8366 O 759.555 -1.71301 2.10637 0
M  V30 8367 C 758.011 0.41737 3.57472 0
M  V30 8368 C 757.619 1.83997 4.08472 0
M  V30 8369 C 759.363 0.0179561 4.24496 0
M  V30 8370 C 757.27 1.94563 5.5848 0
M  V30 8371 H 756.2 0.0941768 0.748095 0
M  V30 8372 H 758.851 0.894572 1.60218 0
M  V30 8373 H 757.233 -0.283965 3.94981 0
M  V30 8374 H 758.407 2.57224 3.82325 0
M  V30 8375 H 756.722 2.19147 3.54067 0
M  V30 8376 H 759.319 0.076085 5.34646 0
M  V30 8377 H 759.662 -1.02498 4.03485 0
M  V30 8378 H 760.195 0.669988 3.92117 0
M  V30 8379 H 756.934 2.97001 5.84355 0
M  V30 8380 H 756.454 1.25756 5.86469 0
M  V30 8381 H 758.133 1.72095 6.23692 0
M  V30 8382 N 758.265 -1.50454 0.469181 0
M  V30 8383 C 759.493 -2.06729 -0.0842134 0
M  V30 8384 C 759.908 -1.33326 -1.33677 0
M  V30 8385 O 759.265 -0.401977 -1.78018 0
M  V30 8386 C 759.316 -3.59557 -0.374253 0
M  V30 8387 O 759.037 -4.30192 0.828622 0
M  V30 8388 C 760.538 -4.32449 -0.974824 0
M  V30 8389 H 757.758 -0.670971 0.006231 0
M  V30 8390 H 760.302 -1.93645 0.657415 0
M  V30 8391 H 758.457 -3.7245 -1.06581 0
M  V30 8392 H 758.871 -5.21371 0.572066 0
M  V30 8393 H 760.345 -5.40361 -1.12755 0
M  V30 8394 H 760.822 -3.92819 -1.96442 0
M  V30 8395 H 761.428 -4.24082 -0.321703 0
M  V30 8396 N 759.743 -0.201713 -1.56304 0
M  V30 8397 C 760.991 0.434447 -1.97375 0
M  V30 8398 C 761.312 1.61692 -1.08998 0
M  V30 8399 O 760.582 1.95223 -0.162682 0
M  V30 8400 H 759.162 0.163497 -0.728888 0
M  V30 8401 H 761.824 -0.289988 -1.92731 0
M  V30 8402 H 760.92 0.774136 -3.02347 0
M  V30 8403 N 761.222 1.57436 0.0718424 0
M  V30 8404 C 762.132 2.07039 1.10326 0
M  V30 8405 C 763.148 0.999918 1.424 0
M  V30 8406 O 764.324 1.31462 1.52577 0
M  V30 8407 C 761.389 2.50439 2.39752 0
M  V30 8408 C 760.45 3.71784 2.14651 0
M  V30 8409 C 759.683 4.13104 3.37906 0
M  V30 8410 O 759.906 3.54298 4.47023 0
M  V30 8411 O 758.84 5.05894 3.26121 0
M  V30 8412 H 762.666 2.95239 0.711872 0
M  V30 8413 H 760.251 1.46638 0.28597 0
M  V30 8414 H 762.133 2.78876 3.15921 0
M  V30 8415 H 760.808 1.65368 2.78271 0
M  V30 8416 H 759.715 3.48431 1.36187 0
M  V30 8417 H 761.048 4.57707 1.81012 0
M  V30 8418 N 762.7 -0.34323 1.53817 0
M  V30 8419 C 763.925 -1.1079 1.75329 0
M  V30 8420 C 764.35 -1.81571 0.491293 0
M  V30 8421 O 763.708 -1.72561 -0.556089 0
M  V30 8422 C 763.756 -2.09681 2.9337 0
M  V30 8423 O 762.86 -3.17207 2.63541 0
M  V30 8424 H 762.201 -0.320402 0.581583 0
M  V30 8425 H 764.731 -0.393525 2.0078 0
M  V30 8426 H 764.741 -2.52897 3.20168 0
M  V30 8427 H 763.416 -1.5756 3.84899 0
M  V30 8428 H 761.993 -2.78806 2.47632 0
M  V30 8429 N 764.178 -1.45556 -0.604258 0
M  V30 8430 C 765.427 -1.49019 -1.35928 0
M  V30 8431 C 765.74 -0.137409 -1.95117 0
M  V30 8432 O 766.946 -0.0497032 -2.71455 0
M  V30 8433 C 765.402 -2.62477 -2.46239 0
M  V30 8434 C 765.01 -4.04082 -1.93447 0
M  V30 8435 C 766.754 -2.7519 -3.23219 0
M  V30 8436 C 764.661 -5.08917 -3.0126 0
M  V30 8437 H 763.591 -0.554518 -0.510907 0
M  V30 8438 H 766.242 -1.71705 -0.647262 0
M  V30 8439 H 764.624 -2.3308 -3.2014 0
M  V30 8440 H 765.798 -4.43173 -1.26232 0
M  V30 8441 H 764.113 -3.95849 -1.29201 0
M  V30 8442 H 766.71 -3.50683 -4.0364 0
M  V30 8443 H 767.053 -1.81941 -3.74437 0
M  V30 8444 H 767.586 -3.04129 -2.56418 0
M  V30 8445 H 764.325 -6.03886 -2.54955 0
M  V30 8446 H 763.845 -4.74393 -3.67031 0
M  V30 8447 H 765.524 -5.33814 -3.65584 0
M  V30 8448 N 765.656 0.84705 -1.32902 0
M  V30 8449 C 766.604 1.97765 -1.22441 0
M  V30 8450 C 767.598 1.68919 -0.127546 0
M  V30 8451 O 768.804 1.77633 -0.290973 0
M  V30 8452 H 765.179 0.649072 -0.379748 0
M  V30 8453 H 767.15 2.03713 -2.18044 0
M  V30 8454 C 765.899 3.33834 -0.972125 0
M  V30 8455 H 765.222 3.56564 -1.80837 0
M  V30 8456 H 766.662 4.13467 -0.939209 0
M  V30 8457 C 765.121 3.35328 0.325059 0
M  V30 8458 O 765.651 3.78887 1.33445 0
M  V30 8459 N 763.857 2.88488 0.349718 0
M  V30 8460 H 763.404 2.53234 -0.472236 0
M  V30 8461 H 763.362 2.8987 1.21748 0
M  V30 8462 N 767.134 1.16236 1.06428 0
M  V30 8463 C 768.097 0.870163 2.1204 0
M  V30 8464 C 769.097 -0.134239 1.60239 0
M  V30 8465 O 770.287 0.0964932 1.73933 0
M  V30 8466 C 767.419 0.301033 3.39568 0
M  V30 8467 H 768.612 1.8064 2.39394 0
M  V30 8468 H 766.165 0.971116 1.2247 0
M  V30 8469 H 766.9 -0.642948 3.17863 0
M  V30 8470 H 766.685 1.02475 3.78472 0
M  V30 8471 H 768.175 0.114494 4.17443 0
M  V30 8472 N 768.612 -1.24939 0.960631 0
M  V30 8473 C 769.858 -1.93104 0.61958 0
M  V30 8474 C 770.191 -1.74991 -0.84212 0
M  V30 8475 O 769.466 -1.09867 -1.60498 0
M  V30 8476 C 769.749 -3.46326 0.986422 0
M  V30 8477 C 769.602 -3.73638 2.50429 0
M  V30 8478 C 770.921 -4.37067 0.515827 0
M  V30 8479 H 768.04 -0.701311 0.226566 0
M  V30 8480 H 770.682 -1.47442 1.19836 0
M  V30 8481 H 768.832 -3.85348 0.493907 0
M  V30 8482 H 770.504 -3.44217 3.07103 0
M  V30 8483 H 768.747 -3.19035 2.93937 0
M  V30 8484 H 769.418 -4.80815 2.71147 0
M  V30 8485 H 771.894 -4.05381 0.938389 0
M  V30 8486 H 770.77 -5.43022 0.80114 0
M  V30 8487 H 771.031 -4.38224 -0.584171 0
M  V30 8488 N 770.09 -0.729906 -1.39679 0
M  V30 8489 C 771.315 -0.284345 -2.05442 0
M  V30 8490 C 771.74 1.07056 -1.54663 0
M  V30 8491 O 771.098 1.67732 -0.688157 0
M  V30 8492 C 771.146 -0.290089 -3.59431 0
M  V30 8493 O 770.25 0.723978 -4.05995 0
M  V30 8494 H 769.591 -0.130311 -0.651088 0
M  V30 8495 H 772.121 -0.994403 -1.78809 0
M  V30 8496 H 772.131 -0.132712 -4.07784 0
M  V30 8497 H 770.806 -1.27877 -3.95753 0
M  V30 8498 H 769.383 0.533154 -3.69069 0
M  V30 8499 N 771.568 1.50203 -0.477153 0
M  V30 8500 C 772.516 2.30278 0.327826 0
M  V30 8501 C 773.51 1.37831 0.984839 0
M  V30 8502 O 774.716 1.54994 0.915251 0
M  V30 8503 H 771.091 0.741612 0.124564 0
M  V30 8504 H 773.062 2.96124 -0.367853 0
M  V30 8505 C 771.811 3.18548 1.39365 0
M  V30 8506 H 771.134 3.89596 0.897475 0
M  V30 8507 H 772.574 3.77561 1.92934 0
M  V30 8508 C 771.033 2.36548 2.39889 0
M  V30 8509 O 771.563 2.05282 3.45286 0
M  V30 8510 N 769.769 1.99015 2.11758 0
M  V30 8511 H 769.316 2.24641 1.26071 0
M  V30 8512 H 769.274 1.44454 2.7925 0
M  V30 8513 N 773.046 0.209999 1.56195 0
M  V30 8514 C 774.271 -0.433064 2.02828 0
M  V30 8515 C 774.696 -1.5337 1.08901 0
M  V30 8516 O 774.054 -1.81144 0.0751132 0
M  V30 8517 C 774.102 -0.952635 3.47789 0
M  V30 8518 O 773.206 -2.0647 3.56993 0
M  V30 8519 H 772.547 -0.0994594 0.656509 0
M  V30 8520 H 775.077 0.32525 2.01998 0
M  V30 8521 H 775.087 -1.26542 3.8788 0
M  V30 8522 H 773.762 -0.147007 4.1564 0
M  V30 8523 H 772.339 -1.75942 3.28784 0
M  V30 8524 N 774.524 -1.57472 -0.0634922 0
M  V30 8525 C 775.935 -1.76303 -0.614337 0
M  V30 8526 C 776.286 -0.836578 -1.77471 0
M  V30 8527 O 775.411 -0.0227184 -2.16388 0
M  V30 8528 C 776.006 -3.19709 -1.12122 0
M  V30 8529 C 774.565 -3.39856 -1.61786 0
M  V30 8530 C 773.712 -2.71975 -0.540845 0
M  V30 8531 H 776.663 -1.57864 0.162702 0
M  V30 8532 H 776.684 -3.24326 -1.98979 0
M  V30 8533 H 776.196 -3.87114 -0.276472 0
M  V30 8534 H 774.297 -2.77578 -2.48558 0
M  V30 8535 H 774.41 -4.48338 -1.68908 0
M  V30 8536 H 772.774 -2.34763 -0.987854 0
M  V30 8537 H 773.557 -3.4204 0.293856 0
M  V30 8538 N 776.003 0.335068 -1.53997 0
M  V30 8539 C 777.25 1.07435 -1.71651 0
M  V30 8540 C 777.578 1.88378 -0.48413 0
M  V30 8541 O 776.833 1.8827 0.534139 0
M  V30 8542 C 777.132 2.0364 -2.9371 0
M  V30 8543 C 776.798 1.38942 -4.28959 0
M  V30 8544 C 775.46 1.21027 -4.65732 0
M  V30 8545 C 777.812 0.924083 -5.12943 0
M  V30 8546 C 775.14 0.552097 -5.84097 0
M  V30 8547 C 777.492 0.27978 -6.31981 0
M  V30 8548 C 776.156 0.0883843 -6.67441 0
M  V30 8549 H 775.426 0.393133 -0.628114 0
M  V30 8550 H 778.073 0.352712 -1.88224 0
M  V30 8551 H 776.378 2.82215 -2.71775 0
M  V30 8552 H 778.075 2.6085 -3.04562 0
M  V30 8553 H 774.665 1.53885 -4.00022 0
M  V30 8554 H 778.849 1.05032 -4.85059 0
M  V30 8555 H 774.105 0.392502 -6.10139 0
M  V30 8556 H 778.279 -0.0888479 -6.96343 0
M  V30 8557 H 775.906 -0.423657 -7.59019 0
M  V30 8558 N 777.481 1.45874 0.596531 0
M  V30 8559 C 778.411 1.5824 1.71705 0
M  V30 8560 C 779.392 0.433366 1.64487 0
M  V30 8561 O 780.577 0.657895 1.82717 0
M  V30 8562 C 777.707 1.55927 3.10329 0
M  V30 8563 C 776.661 2.69659 3.32367 0
M  V30 8564 C 775.987 2.52403 4.71377 0
M  V30 8565 C 777.287 4.11591 3.21544 0
M  V30 8566 H 778.981 2.52035 1.61613 0
M  V30 8567 H 776.527 1.21297 0.776082 0
M  V30 8568 H 778.48 1.63173 3.88526 0
M  V30 8569 H 777.204 0.586674 3.21288 0
M  V30 8570 H 775.863 2.61859 2.56564 0
M  V30 8571 H 775.511 1.53258 4.79083 0
M  V30 8572 H 775.211 3.28679 4.87077 0
M  V30 8573 H 776.735 2.6152 5.5176 0
M  V30 8574 H 778.149 4.20576 3.89601 0
M  V30 8575 H 776.546 4.88344 3.4877 0
M  V30 8576 H 777.616 4.32719 2.1882 0
M  V30 8577 N 778.959 -0.83999 1.33349 0
M  V30 8578 C 779.869 -1.98182 1.25543 0
M  V30 8579 C 780.885 -1.73204 0.166208 0
M  V30 8580 O 782.061 -1.97596 0.389589 0
M  V30 8581 C 779.126 -3.32157 0.993614 0
M  V30 8582 C 778.187 -3.70258 2.17273 0
M  V30 8583 C 777.42 -4.9784 1.92331 0
M  V30 8584 O 777.643 -5.63679 0.873074 0
M  V30 8585 O 776.577 -5.33418 2.78835 0
M  V30 8586 H 780.403 -2.07708 2.21565 0
M  V30 8587 H 777.988 -0.972852 1.13384 0
M  V30 8588 H 779.87 -4.12433 0.864711 0
M  V30 8589 H 778.545 -3.23637 0.0636596 0
M  V30 8590 H 777.452 -2.90497 2.35716 0
M  V30 8591 H 778.785 -3.83442 3.08598 0
M  V30 8592 N 780.437 -1.16799 -1.0581 0
M  V30 8593 C 781.4 -0.881396 -2.11575 0
M  V30 8594 C 782.4 0.12574 -1.60308 0
M  V30 8595 O 783.59 -0.105716 -1.73879 0
M  V30 8596 C 780.722 -0.319037 -3.39404 0
M  V30 8597 H 781.915 -1.81907 -2.38432 0
M  V30 8598 H 779.468 -0.977597 -1.21954 0
M  V30 8599 H 780.203 0.626082 -3.18199 0
M  V30 8600 H 779.988 -1.04481 -3.77923 0
M  V30 8601 H 781.478 -0.13663 -4.17376 0
M  V30 8602 N 781.915 1.24427 -0.967243 0
M  V30 8603 C 782.845 2.2773 -0.515899 0
M  V30 8604 C 783.826 1.64197 0.444227 0
M  V30 8605 O 785.011 1.91193 0.340451 0
M  V30 8606 C 782.141 3.46751 0.195149 0
M  V30 8607 C 781.095 4.22548 -0.680953 0
M  V30 8608 C 780.421 5.34456 0.161561 0
M  V30 8609 C 781.721 4.83914 -1.96532 0
M  V30 8610 H 783.415 2.65735 -1.37933 0
M  V30 8611 H 780.961 1.27742 -0.664681 0
M  V30 8612 H 782.914 4.18153 0.522117 0
M  V30 8613 H 781.638 3.07771 1.09292 0
M  V30 8614 H 780.297 3.52946 -0.991186 0
M  V30 8615 H 779.945 4.91716 1.05947 0
M  V30 8616 H 779.645 5.86087 -0.421418 0
M  V30 8617 H 781.169 6.08685 0.483211 0
M  V30 8618 H 782.583 5.47392 -1.70396 0
M  V30 8619 H 780.98 5.45775 -2.49499 0
M  V30 8620 H 782.05 4.05393 -2.66053 0
M  V30 8621 N 783.393 0.737304 1.3929 0
M  V30 8622 C 784.621 0.296573 2.04763 0
M  V30 8623 C 785.036 -1.06941 1.55592 0
M  V30 8624 O 784.393 -1.67619 0.721822 0
M  V30 8625 C 784.444 0.291906 3.6032 0
M  V30 8626 O 784.165 1.60397 4.07682 0
M  V30 8627 C 785.666 -0.164708 4.42994 0
M  V30 8628 H 782.886 0.129251 0.658434 0
M  V30 8629 H 785.43 1.0016 1.78293 0
M  V30 8630 H 783.585 -0.364251 3.85684 0
M  V30 8631 H 783.999 1.51909 5.0202 0
M  V30 8632 H 785.473 -0.116814 5.51876 0
M  V30 8633 H 785.95 -1.21022 4.22197 0
M  V30 8634 H 786.556 0.461968 4.22784 0
M  V30 8635 N 784.871 -1.49948 0.485112 0
M  V30 8636 C 785.818 -2.28819 -0.301729 0
M  V30 8637 C 786.788 -1.34496 -0.974683 0
M  V30 8638 O 787.973 -1.63444 -0.984418 0
M  V30 8639 C 785.113 -3.16758 -1.36961 0
M  V30 8640 C 784.226 -4.26125 -0.710027 0
M  V30 8641 C 783.361 -5.01302 -1.75699 0
M  V30 8642 C 782.4 -6.02525 -1.07841 0
M  V30 8643 N 781.537 -6.70927 -2.06886 0
M  V30 8644 H 786.377 -2.95604 0.377127 0
M  V30 8645 H 783.914 -1.45764 0.197826 0
M  V30 8646 H 785.872 -3.66106 -2.00056 0
M  V30 8647 H 784.502 -2.51991 -2.01744 0
M  V30 8648 H 783.554 -3.80385 0.0338278 0
M  V30 8649 H 784.866 -4.98493 -0.175079 0
M  V30 8650 H 784.02 -5.54438 -2.46339 0
M  V30 8651 H 782.759 -4.28672 -2.32577 0
M  V30 8652 H 781.764 -5.48635 -0.357706 0
M  V30 8653 H 782.989 -6.77134 -0.516345 0
M  V30 8654 H 780.935 -6.01079 -2.62755 0
M  V30 8655 H 780.852 -7.39216 -1.58414 0
M  V30 8656 H 782.12 -7.28675 -2.76863 0
M  V30 8657 N 786.349 -0.21828 -1.56081 0
M  V30 8658 C 787.296 0.693189 -2.20144 0
M  V30 8659 C 788.266 1.19274 -1.15598 0
M  V30 8660 O 789.451 1.25243 -1.4394 0
M  V30 8661 C 786.591 1.89715 -2.88275 0
M  V30 8662 C 785.704 1.4368 -4.07407 0
M  V30 8663 C 784.839 2.59807 -4.63329 0
M  V30 8664 C 783.878 2.10492 -5.74769 0
M  V30 8665 N 783.015 3.1988 -6.24997 0
M  V30 8666 H 787.855 0.14016 -2.9767 0
M  V30 8667 H 785.392 0.0574292 -1.46988 0
M  V30 8668 H 787.35 2.60398 -3.25958 0
M  V30 8669 H 785.98 2.42311 -2.13273 0
M  V30 8670 H 785.032 0.625007 -3.7523 0
M  V30 8671 H 786.344 1.03517 -4.8794 0
M  V30 8672 H 785.498 3.38577 -5.03438 0
M  V30 8673 H 784.237 3.03256 -3.81951 0
M  V30 8674 H 783.242 1.30182 -5.34165 0
M  V30 8675 H 784.467 1.68045 -6.5798 0
M  V30 8676 H 782.413 3.62817 -5.46534 0
M  V30 8677 H 782.33 2.83958 -7.00645 0
M  V30 8678 H 783.598 3.98796 -6.69763 0
M  V30 8679 N 787.827 1.57504 0.0551401 0
M  V30 8680 C 789.075 1.87684 0.74962 0
M  V30 8681 C 789.396 0.812547 1.77264 0
M  V30 8682 O 788.666 -0.15694 1.9527 0
M  V30 8683 H 787.246 0.6926 0.279846 0
M  V30 8684 H 789.908 1.94881 0.0272745 0
M  V30 8685 H 789.004 2.85734 1.25548 0
M  V30 8686 N 789.305 -0.326896 1.54172 0
M  V30 8687 C 790.552 -1.06523 1.72218 0
M  V30 8688 C 790.88 -1.88119 0.494114 0
M  V30 8689 O 790.135 -1.8855 -0.524147 0
M  V30 8690 C 790.434 -2.0208 2.94785 0
M  V30 8691 C 790.1 -1.36665 4.2969 0
M  V30 8692 C 788.762 -1.18556 4.66367 0
M  V30 8693 C 791.114 -0.896868 5.13425 0
M  V30 8694 C 788.442 -0.521113 5.84381 0
M  V30 8695 C 790.794 -0.246261 6.3212 0
M  V30 8696 C 789.458 -0.052987 6.67479 0
M  V30 8697 H 788.728 -0.389796 0.63019 0
M  V30 8698 H 791.375 -0.342725 1.88408 0
M  V30 8699 H 789.68 -2.8077 2.73268 0
M  V30 8700 H 791.377 -2.59231 3.05941 0
M  V30 8701 H 787.967 -1.51762 4.00832 0
M  V30 8702 H 792.151 -1.02458 4.85609 0
M  V30 8703 H 787.407 -0.36014 6.10338 0
M  V30 8704 H 791.581 0.125775 6.96286 0
M  V30 8705 H 789.208 0.463903 7.58783 0
M  V30 8706 N 790.784 -1.46188 -0.588786 0
M  V30 8707 C 791.694 -1.58865 -1.72624 0
M  V30 8708 C 792.71 -0.472348 -1.67466 0
M  V30 8709 O 793.886 -0.735638 -1.87484 0
M  V30 8710 C 790.951 -1.56989 -3.0912 0
M  V30 8711 C 790.012 -2.79804 -3.25589 0
M  V30 8712 C 789.245 -2.78009 -4.55573 0
M  V30 8713 O 789.468 -1.86406 -5.39082 0
M  V30 8714 O 788.402 -3.6947 -4.75159 0
M  V30 8715 H 792.228 -2.55047 -1.64878 0
M  V30 8716 H 789.813 -1.28912 -0.755115 0
M  V30 8717 H 791.695 -1.58618 -3.90408 0
M  V30 8718 H 790.37 -0.639648 -3.17317 0
M  V30 8719 H 789.277 -2.83732 -2.43818 0
M  V30 8720 H 790.61 -3.72017 -3.22279 0
M  V30 8721 N 792.262 0.832906 -1.33792 0
M  V30 8722 C 793.508 1.59089 -1.25772 0
M  V30 8723 C 793.841 1.93414 0.174601 0
M  V30 8724 O 793.116 1.59195 1.11746 0
M  V30 8725 C 793.399 2.89699 -2.13885 0
M  V30 8726 C 793.252 2.62017 -3.65605 0
M  V30 8727 C 794.571 3.91182 -2.01654 0
M  V30 8728 H 791.69 0.577232 -0.458227 0
M  V30 8729 H 794.332 0.960227 -1.6395 0
M  V30 8730 H 792.482 3.4352 -1.81456 0
M  V30 8731 H 794.154 2.14582 -4.08353 0
M  V30 8732 H 792.397 1.95621 -3.87189 0
M  V30 8733 H 793.068 3.55112 -4.2261 0
M  V30 8734 H 795.544 3.46684 -2.30107 0
M  V30 8735 H 794.42 4.80391 -2.65548 0
M  V30 8736 H 794.681 4.30861 -0.990536 0
M  V30 8737 N 793.74 1.17359 1.05189 0
M  V30 8738 C 794.989 0.956412 1.77583 0
M  V30 8739 C 795.302 -0.516018 1.88671 0
M  V30 8740 O 796.508 -0.851401 2.57805 0
M  V30 8741 C 794.964 1.66203 3.19225 0
M  V30 8742 C 794.572 3.17299 3.16267 0
M  V30 8743 C 796.316 1.52725 3.96075 0
M  V30 8744 C 794.223 3.8055 4.52698 0
M  V30 8745 H 793.153 0.354204 0.665624 0
M  V30 8746 H 795.804 1.40612 1.17901 0
M  V30 8747 H 794.186 1.14006 3.79234 0
M  V30 8748 H 795.36 3.76431 2.65776 0
M  V30 8749 H 793.675 3.3079 2.52917 0
M  V30 8750 H 796.272 1.97351 4.96947 0
M  V30 8751 H 796.615 0.477803 4.13549 0
M  V30 8752 H 797.148 2.02139 3.42614 0
M  V30 8753 H 793.887 4.85492 4.4043 0
M  V30 8754 H 793.407 3.26206 5.03339 0
M  V30 8755 H 795.086 3.82757 5.21638 0
M  V30 8756 N 795.218 -1.23913 0.973828 0
M  V30 8757 C 796.448 -1.95911 0.655938 0
M  V30 8758 C 796.856 -1.72375 -0.779967 0
M  V30 8759 O 796.199 -1.00807 -1.5357 0
M  V30 8760 C 796.261 -3.49103 0.858324 0
M  V30 8761 C 795.925 -3.96347 2.27504 0
M  V30 8762 C 796.922 -4.05537 3.25324 0
M  V30 8763 C 794.607 -4.29509 2.60437 0
M  V30 8764 C 796.601 -4.47233 4.5416 0
M  V30 8765 C 794.288 -4.70887 3.89498 0
M  V30 8766 C 795.286 -4.79714 4.86172 0
M  V30 8767 O 794.974 -5.20166 6.1293 0
M  V30 8768 H 794.706 -0.630721 0.243244 0
M  V30 8769 H 797.26 -1.58534 1.30599 0
M  V30 8770 H 795.49 -3.86405 0.151097 0
M  V30 8771 H 797.179 -4.02311 0.538592 0
M  V30 8772 H 797.945 -3.80128 3.0121 0
M  V30 8773 H 793.824 -4.21853 1.85906 0
M  V30 8774 H 797.368 -4.54038 5.29618 0
M  V30 8775 H 793.265 -4.95744 4.1341 0
M  V30 8776 H 794.033 -5.38298 6.16586 0
M  V30 8777 N 796.696 -0.74468 -1.38897 0
M  V30 8778 C 797.629 -0.0596441 -2.28122 0
M  V30 8779 C 798.607 0.73764 -1.44906 0
M  V30 8780 O 799.791 0.718155 -1.74284 0
M  V30 8781 C 796.918 0.922533 -3.25894 0
M  V30 8782 C 795.964 0.212566 -4.2597 0
M  V30 8783 S 796.797 -1.08035 -5.24489 0
M  V30 8784 C 797.953 -0.101014 -6.25818 0
M  V30 8785 H 798.186 -0.816289 -2.85874 0
M  V30 8786 H 795.719 -0.536882 -1.44765 0
M  V30 8787 H 797.677 1.4839 -3.82741 0
M  V30 8788 H 796.338 1.65209 -2.67142 0
M  V30 8789 H 795.531 0.956106 -4.94848 0
M  V30 8790 H 795.133 -0.277029 -3.72973 0
M  V30 8791 H 797.425 0.736072 -6.7349 0
M  V30 8792 H 798.368 -0.757206 -7.0404 0
M  V30 8793 H 798.776 0.275706 -5.63826 0
M  V30 8794 N 798.174 1.49689 -0.493057 0
M  V30 8795 C 799.42 2.02727 0.0543518 0
M  V30 8796 C 799.753 1.37264 1.37376 0
M  V30 8797 O 799.028 0.505644 1.87812 0
M  V30 8798 C 799.311 3.59456 0.215226 0
M  V30 8799 C 799.164 4.35459 -1.12675 0
M  V30 8800 C 800.483 4.29511 0.959586 0
M  V30 8801 H 797.602 0.736773 0.0182786 0
M  V30 8802 H 800.244 1.78792 -0.642924 0
M  V30 8803 H 798.394 3.79981 0.809122 0
M  V30 8804 H 800.066 4.2645 -1.75891 0
M  V30 8805 H 798.309 3.9833 -1.71801 0
M  V30 8806 H 798.98 5.43454 -0.967578 0
M  V30 8807 H 801.456 4.13594 0.455977 0
M  V30 8808 H 800.332 5.38939 1.04098 0
M  V30 8809 H 800.593 3.94202 2.00144 0
M  V30 8810 N 799.652 0.226554 1.55963 0
M  V30 8811 C 800.929 -0.453058 1.90281 0
M  V30 8812 C 801.309 -1.77377 1.14458 0
M  V30 8813 O 800.657 -2.27067 0.255496 0
M  V30 8814 C 800.867 -0.641108 3.43061 0
M  V30 8815 C 802.215 -0.946265 4.13921 0
M  V30 8816 O 803.239 -0.727713 3.48687 0
M  V30 8817 O 802.098 -1.36131 5.29274 0
M  V30 8818 H 799.192 -0.240242 0.791336 0
M  V30 8819 H 801.738 0.26911 1.67553 0
M  V30 8820 H 800.51 0.290283 3.90222 0
M  V30 8821 H 800.133 -1.41458 3.71585 0
M  V30 8822 N 801.13 -1.57531 -0.0467866 0
M  V30 8823 C 802.541 -1.76945 -0.595603 0
M  V30 8824 C 802.892 -0.855354 -1.76573 0
M  V30 8825 O 802.017 -0.045668 -2.16352 0
M  V30 8826 C 802.612 -3.20881 -1.08725 0
M  V30 8827 C 801.171 -3.41553 -1.58172 0
M  V30 8828 C 800.318 -2.72533 -0.511968 0
M  V30 8829 H 803.269 -1.57682 0.179436 0
M  V30 8830 H 803.29 -3.26419 -1.95528 0
M  V30 8831 H 802.802 -3.87385 -0.235398 0
M  V30 8832 H 800.903 -2.80199 -2.456 0
M  V30 8833 H 801.016 -4.50104 -1.64143 0
M  V30 8834 H 799.38 -2.35797 -0.962899 0
M  V30 8835 H 800.163 -3.41709 0.330117 0
M  V30 8836 N 802.608 0.318715 -1.54344 0
M  V30 8837 C 803.857 1.05363 -1.71993 0
M  V30 8838 C 804.17 1.89018 -0.503155 0
M  V30 8839 O 805.376 2.65639 -0.561085 0
M  V30 8840 C 803.832 1.92281 -3.0423 0
M  V30 8841 C 803.44 1.13715 -4.33328 0
M  V30 8842 C 805.184 2.65479 -3.31242 0
M  V30 8843 C 803.091 1.99806 -5.56625 0
M  V30 8844 H 802.021 0.397081 -0.64097 0
M  V30 8845 H 804.672 0.311598 -1.80835 0
M  V30 8846 H 803.054 2.70402 -2.89307 0
M  V30 8847 H 804.228 0.403305 -4.59032 0
M  V30 8848 H 802.543 0.521769 -4.13118 0
M  V30 8849 H 805.14 3.30209 -4.20555 0
M  V30 8850 H 805.483 3.33374 -2.49334 0
M  V30 8851 H 806.016 1.94417 -3.47054 0
M  V30 8852 H 802.755 1.36411 -6.41149 0
M  V30 8853 H 802.275 2.70911 -5.35133 0
M  V30 8854 H 803.954 2.58277 -5.93213 0
M  V30 8855 N 804.086 1.46499 0.581025 0
M  V30 8856 C 805.363 1.42372 1.34125 0
M  V30 8857 C 805.743 0.108073 2.10823 0
M  V30 8858 O 805.091 -0.910366 2.09582 0
M  V30 8859 C 805.301 2.65445 2.26583 0
M  V30 8860 C 806.649 3.11664 2.88359 0
M  V30 8861 O 807.673 2.66006 2.36896 0
M  V30 8862 O 806.532 3.90974 3.81839 0
M  V30 8863 H 803.626 0.566262 0.602724 0
M  V30 8864 H 806.172 1.58667 0.601903 0
M  V30 8865 H 804.944 3.52756 1.69348 0
M  V30 8866 H 804.567 2.51618 3.07854 0
M  V30 8867 N 805.565 -0.825799 1.34232 0
M  V30 8868 C 806.475 -1.9684 1.27638 0
M  V30 8869 C 807.491 -1.73018 0.184569 0
M  V30 8870 O 808.667 -1.97172 0.410525 0
M  V30 8871 C 805.732 -3.31084 1.02879 0
M  V30 8872 C 804.793 -3.67933 2.21188 0
M  V30 8873 C 804.026 -4.95772 1.976 0
M  V30 8874 O 804.249 -5.62721 0.93281 0
M  V30 8875 O 803.183 -5.30431 2.84477 0
M  V30 8876 H 807.009 -2.05346 2.23756 0
M  V30 8877 H 804.594 -0.960772 1.1441 0
M  V30 8878 H 806.476 -4.11492 0.908406 0
M  V30 8879 H 805.151 -3.23552 0.0979821 0
M  V30 8880 H 804.058 -2.87981 2.38784 0
M  V30 8881 H 805.391 -3.80147 3.12648 0
M  V30 8882 N 807.043 -1.17915 -1.04565 0
M  V30 8883 C 808.273 -0.994716 -1.81077 0
M  V30 8884 C 808.681 0.460146 -1.83519 0
M  V30 8885 O 808.024 1.33136 -1.26572 0
M  V30 8886 C 808.086 -1.46698 -3.28207 0
M  V30 8887 C 807.75 -2.94523 -3.49436 0
M  V30 8888 C 808.747 -3.92414 -3.41038 0
M  V30 8889 C 806.432 -3.32841 -3.76194 0
M  V30 8890 C 808.426 -5.2662 -3.59096 0
M  V30 8891 C 806.113 -4.67212 -3.93899 0
M  V30 8892 C 807.111 -5.6391 -3.8535 0
M  V30 8893 O 806.799 -6.95849 -4.02554 0
M  V30 8894 H 806.531 -0.351797 -0.577248 0
M  V30 8895 H 809.085 -1.56772 -1.32709 0
M  V30 8896 H 807.315 -0.837592 -3.7752 0
M  V30 8897 H 809.004 -1.24724 -3.86263 0
M  V30 8898 H 809.77 -3.64157 -3.20336 0
M  V30 8899 H 805.649 -2.58139 -3.81949 0
M  V30 8900 H 809.193 -6.02082 -3.52339 0
M  V30 8901 H 805.09 -4.95172 -4.14095 0
M  V30 8902 H 805.858 -7.02679 -4.19743 0
M  V30 8903 N 808.521 1.23394 -0.980386 0
M  V30 8904 C 809.484 2.23092 -0.525619 0
M  V30 8905 C 810.484 1.56129 0.384745 0
M  V30 8906 O 811.674 1.73284 0.178439 0
M  V30 8907 C 808.806 3.40074 0.23712 0
M  V30 8908 H 809.999 2.64839 -1.40714 0
M  V30 8909 H 807.552 1.36227 -0.766275 0
M  V30 8910 H 808.287 3.03783 1.13518 0
M  V30 8911 H 808.072 3.89883 -0.416356 0
M  V30 8912 H 809.562 4.14043 0.543892 0
M  V30 8913 N 809.999 0.752036 1.385 0
M  V30 8914 C 811.245 0.307958 2.00448 0
M  V30 8915 C 811.578 -1.10702 1.59558 0
M  V30 8916 O 810.853 -1.75788 0.832391 0
M  V30 8917 C 811.136 0.429092 3.57534 0
M  V30 8918 C 810.989 1.88507 4.08393 0
M  V30 8919 C 812.308 -0.178442 4.39738 0
M  V30 8920 H 809.427 0.113373 0.728228 0
M  V30 8921 H 812.069 0.951389 1.64465 0
M  V30 8922 H 810.219 -0.118695 3.88319 0
M  V30 8923 H 811.891 2.49104 3.88259 0
M  V30 8924 H 810.134 2.40066 3.61318 0
M  V30 8925 H 810.805 1.92099 5.17496 0
M  V30 8926 H 813.281 0.28872 4.15097 0
M  V30 8927 H 812.157 -0.0634349 5.48863 0
M  V30 8928 H 812.418 -1.26655 4.23569 0
M  V30 8929 N 811.477 -1.49425 0.500989 0
M  V30 8930 C 812.409 -2.27037 -0.314159 0
M  V30 8931 C 813.422 -1.33578 -0.930626 0
M  V30 8932 O 814.611 -1.58861 -0.813968 0
M  V30 8933 C 811.711 -3.05968 -1.45729 0
M  V30 8934 C 810.884 -4.27 -0.948135 0
M  V30 8935 C 809.943 -4.87977 -1.96888 0
M  V30 8936 O 808.969 -5.48044 -1.53743 0
M  V30 8937 N 810.171 -4.77627 -3.29928 0
M  V30 8938 H 812.936 -2.97634 0.351336 0
M  V30 8939 H 810.497 -1.58427 0.333536 0
M  V30 8940 H 812.489 -3.43634 -2.1377 0
M  V30 8941 H 811.059 -2.37978 -2.02695 0
M  V30 8942 H 810.279 -3.94091 -0.0926311 0
M  V30 8943 H 811.567 -5.0541 -0.586362 0
M  V30 8944 H 810.965 -4.29926 -3.67669 0
M  V30 8945 H 809.522 -5.19478 -3.93682 0
M  V30 8946 N 812.955 -0.234822 -1.55841 0
M  V30 8947 C 813.887 0.702346 -2.18174 0
M  V30 8948 C 814.9 1.14776 -1.15457 0
M  V30 8949 O 816.089 1.07662 -1.42377 0
M  V30 8950 C 813.189 1.96483 -2.76129 0
M  V30 8951 C 812.362 1.67283 -4.04148 0
M  V30 8952 C 811.421 2.7837 -4.46539 0
M  V30 8953 O 810.447 2.46272 -5.13166 0
M  V30 8954 N 811.649 4.07611 -4.1332 0
M  V30 8955 H 814.414 0.169074 -2.99223 0
M  V30 8956 H 811.975 -0.0543164 -1.61809 0
M  V30 8957 H 813.967 2.70016 -3.01452 0
M  V30 8958 H 812.537 2.40822 -1.99307 0
M  V30 8959 H 811.757 0.773278 -3.86541 0
M  V30 8960 H 813.045 1.45222 -4.87635 0
M  V30 8961 H 812.443 4.36527 -3.59806 0
M  V30 8962 H 811 4.77646 -4.43506 0
M  V30 8963 N 814.433 1.57553 0.0384317 0
M  V30 8964 C 815.363 2.0898 1.04161 0
M  V30 8965 C 816.344 0.99029 1.38301 0
M  V30 8966 O 817.529 1.26499 1.47349 0
M  V30 8967 C 814.659 2.56145 2.34536 0
M  V30 8968 C 813.613 3.70275 2.14663 0
M  V30 8969 C 812.939 4.03612 3.50715 0
M  V30 8970 C 814.239 4.99067 1.54045 0
M  V30 8971 H 815.933 2.93046 0.613548 0
M  V30 8972 H 813.479 1.40973 0.293684 0
M  V30 8973 H 815.432 2.90741 3.05037 0
M  V30 8974 H 814.156 1.6915 2.79385 0
M  V30 8975 H 812.815 3.36013 1.46597 0
M  V30 8976 H 812.463 3.13698 3.93195 0
M  V30 8977 H 812.163 4.80482 3.38247 0
M  V30 8978 H 813.687 4.40735 4.22593 0
M  V30 8979 H 815.101 5.3168 2.14451 0
M  V30 8980 H 813.498 5.80484 1.52178 0
M  V30 8981 H 814.568 4.8226 0.505259 0
M  V30 8982 N 815.911 -0.310526 1.54511 0
M  V30 8983 C 816.858 -1.38264 1.84802 0
M  V30 8984 C 817.828 -1.50808 0.696141 0
M  V30 8985 O 819.013 -1.6582 0.943846 0
M  V30 8986 C 816.153 -2.74422 2.09252 0
M  V30 8987 C 815.266 -2.70405 3.36906 0
M  V30 8988 C 814.401 -3.98495 3.51248 0
M  V30 8989 C 813.44 -3.88836 4.72729 0
M  V30 8990 N 812.577 -5.08683 4.83928 0
M  V30 8991 H 817.417 -1.11732 2.76261 0
M  V30 8992 H 814.954 -0.540609 1.36806 0
M  V30 8993 H 816.912 -3.53593 2.21422 0
M  V30 8994 H 815.542 -2.99235 1.2107 0
M  V30 8995 H 814.594 -1.83151 3.33406 0
M  V30 8996 H 815.906 -2.59155 4.26193 0
M  V30 8997 H 815.06 -4.861 3.63031 0
M  V30 8998 H 813.799 -4.12567 2.60077 0
M  V30 8999 H 812.804 -2.99615 4.60989 0
M  V30 9000 H 814.029 -3.76318 5.65298 0
M  V30 9001 H 811.975 -5.23236 3.95677 0
M  V30 9002 H 811.892 -4.99819 5.67201 0
M  V30 9003 H 813.16 -5.97966 5.00057 0
M  V30 9004 N 817.389 -1.46805 -0.573248 0
M  V30 9005 C 818.666 -1.43082 -1.33368 0
M  V30 9006 C 819.046 -0.119252 -2.10763 0
M  V30 9007 O 818.394 0.899239 -2.10062 0
M  V30 9008 C 818.604 -2.66643 -2.25172 0
M  V30 9009 C 819.952 -3.13188 -2.86702 0
M  V30 9010 O 820.976 -2.67258 -2.35482 0
M  V30 9011 O 819.835 -3.92994 -3.79761 0
M  V30 9012 H 816.929 -0.569451 -0.599712 0
M  V30 9013 H 819.475 -1.58984 -0.59348 0
M  V30 9014 H 818.247 -3.53649 -1.67475 0
M  V30 9015 H 817.87 -2.53247 -3.06516 0
M  V30 9016 N 818.867 0.818669 -1.34668 0
M  V30 9017 C 820.114 1.57512 -1.27264 0
M  V30 9018 C 820.442 1.93871 0.156254 0
M  V30 9019 O 819.697 1.60582 1.11857 0
M  V30 9020 C 819.996 2.88245 -2.11304 0
M  V30 9021 C 819.662 2.71159 -3.60255 0
M  V30 9022 C 818.324 2.66207 -4.00858 0
M  V30 9023 C 820.676 2.54538 -4.54819 0
M  V30 9024 C 818.004 2.4256 -5.34211 0
M  V30 9025 C 820.356 2.32421 -5.88356 0
M  V30 9026 C 819.02 2.25884 -6.28118 0
M  V30 9027 H 818.29 0.576378 -0.465692 0
M  V30 9028 H 820.937 0.9469 -1.66451 0
M  V30 9029 H 819.242 3.55381 -1.64958 0
M  V30 9030 H 820.939 3.45869 -2.02919 0
M  V30 9031 H 817.529 2.75856 -3.28027 0
M  V30 9032 H 821.713 2.57384 -4.24343 0
M  V30 9033 H 816.969 2.35959 -5.64033 0
M  V30 9034 H 821.143 2.18548 -6.61218 0
M  V30 9035 H 818.77 2.07322 -7.31383 0
M  V30 9036 N 820.346 1.18468 1.03938 0
M  V30 9037 C 821.623 0.890435 1.74157 0
M  V30 9038 C 822.003 -0.606409 2.02203 0
M  V30 9039 O 821.351 -1.5615 1.66822 0
M  V30 9040 C 821.561 1.73906 3.02585 0
M  V30 9041 C 822.909 1.96686 3.76297 0
M  V30 9042 O 823.933 1.70969 3.12487 0
M  V30 9043 O 822.792 2.39986 4.90988 0
M  V30 9044 H 819.886 0.330889 0.757919 0
M  V30 9045 H 822.432 1.29228 1.09992 0
M  V30 9046 H 821.204 2.75369 2.78006 0
M  V30 9047 H 820.827 1.33581 3.74489 0
M  V30 9048 N 821.824 -1.22873 0.986916 0
M  V30 9049 C 823.072 -1.91084 0.658121 0
M  V30 9050 C 823.393 -1.77304 -0.811675 0
M  V30 9051 O 822.663 -1.15649 -1.58121 0
M  V30 9052 H 821.243 -0.707251 0.240427 0
M  V30 9053 H 823.905 -1.49357 1.25213 0
M  V30 9054 H 823.001 -2.98373 0.915428 0
M  V30 9055 N 823.302 -0.75937 -1.38099 0
M  V30 9056 C 824.249 -0.135508 -2.30402 0
M  V30 9057 C 825.219 0.703356 -1.50473 0
M  V30 9058 O 826.404 0.658287 -1.79084 0
M  V30 9059 C 823.544 0.747228 -3.36913 0
M  V30 9060 C 822.657 -0.106893 -4.31868 0
M  V30 9061 C 821.792 0.779388 -5.25451 0
M  V30 9062 C 820.831 -0.0780179 -6.1205 0
M  V30 9063 N 819.968 0.765545 -6.97914 0
M  V30 9064 H 824.808 -0.9282 -2.83176 0
M  V30 9065 H 822.345 -0.46935 -1.39411 0
M  V30 9066 H 824.303 1.27371 -3.97281 0
M  V30 9067 H 822.933 1.50565 -2.85535 0
M  V30 9068 H 821.985 -0.751063 -3.72912 0
M  V30 9069 H 823.297 -0.768798 -4.9284 0
M  V30 9070 H 822.451 1.37282 -5.90964 0
M  V30 9071 H 821.19 1.47501 -4.6486 0
M  V30 9072 H 820.195 -0.684078 -5.45528 0
M  V30 9073 H 821.42 -0.770786 -6.74712 0
M  V30 9074 H 819.366 1.44601 -6.39864 0
M  V30 9075 H 819.283 0.160666 -7.55829 0
M  V30 9076 H 820.551 1.34377 -7.6783 0
M  V30 9077 N 824.78 1.49157 -0.508906 0
M  V30 9078 C 825.727 2.2927 0.265288 0
M  V30 9079 C 826.697 1.3603 0.953162 0
M  V30 9080 O 827.882 1.64989 0.958291 0
M  V30 9081 C 825.022 3.18897 1.31904 0
M  V30 9082 C 824.135 4.27201 0.642144 0
M  V30 9083 C 823.27 5.04033 1.67701 0
M  V30 9084 C 822.309 6.04165 0.982422 0
M  V30 9085 N 821.446 6.74133 1.96186 0
M  V30 9086 H 826.286 2.94967 -0.424107 0
M  V30 9087 H 823.823 1.45431 -0.220991 0
M  V30 9088 H 825.781 3.69242 1.94206 0
M  V30 9089 H 824.411 2.55168 1.97709 0
M  V30 9090 H 823.463 3.80283 -0.0943395 0
M  V30 9091 H 824.775 4.98708 0.0957507 0
M  V30 9092 H 823.929 5.58287 2.37487 0
M  V30 9093 H 822.668 4.32317 2.25728 0
M  V30 9094 H 821.673 5.49135 0.270378 0
M  V30 9095 H 822.898 6.7787 0.408554 0
M  V30 9096 H 820.844 6.05183 2.53159 0
M  V30 9097 H 820.761 7.41643 1.46634 0
M  V30 9098 H 822.029 7.32987 2.65236 0
M  V30 9099 N 826.258 0.243083 1.55714 0
M  V30 9100 C 827.188 -0.652336 2.24203 0
M  V30 9101 C 828.169 -1.1843 1.221 0
M  V30 9102 O 829.354 -1.22435 1.50743 0
M  V30 9103 C 826.484 -1.85111 2.93856 0
M  V30 9104 C 825.438 -1.45208 4.02615 0
M  V30 9105 C 824.764 -2.73137 4.59674 0
M  V30 9106 C 826.064 -0.625988 5.18535 0
M  V30 9107 H 827.758 -0.0812504 2.9929 0
M  V30 9108 H 825.304 -0.0376388 1.43951 0
M  V30 9109 H 827.257 -2.48314 3.40468 0
M  V30 9110 H 825.981 -2.44751 2.16251 0
M  V30 9111 H 824.64 -0.843406 3.56766 0
M  V30 9112 H 824.288 -3.30967 3.78774 0
M  V30 9113 H 823.988 -2.47163 5.33089 0
M  V30 9114 H 825.512 -3.37245 5.09017 0
M  V30 9115 H 826.926 -1.16223 5.61396 0
M  V30 9116 H 825.323 -0.462465 5.98315 0
M  V30 9117 H 826.393 0.362652 4.83542 0
M  V30 9118 N 827.736 -1.57571 -0.0300757 0
M  V30 9119 C 828.683 -2.06492 -1.03101 0
M  V30 9120 C 829.653 -0.953862 -1.3598 0
M  V30 9121 O 830.838 -1.22436 -1.46335 0
M  V30 9122 C 827.978 -2.54826 -2.32718 0
M  V30 9123 C 827.091 -3.79718 -2.06006 0
M  V30 9124 C 826.226 -4.16668 -3.29487 0
M  V30 9125 C 825.265 -5.3448 -2.98324 0
M  V30 9126 N 824.402 -5.66867 -4.14254 0
M  V30 9127 H 829.242 -2.91755 -0.606877 0
M  V30 9128 H 826.779 -1.44252 -0.288038 0
M  V30 9129 H 828.737 -2.80916 -3.08451 0
M  V30 9130 H 827.367 -1.72481 -2.72856 0
M  V30 9131 H 826.419 -3.60718 -1.20774 0
M  V30 9132 H 827.731 -4.65569 -1.79017 0
M  V30 9133 H 826.885 -4.43881 -4.13588 0
M  V30 9134 H 825.624 -3.29466 -3.59588 0
M  V30 9135 H 824.629 -5.07021 -2.12625 0
M  V30 9136 H 825.854 -6.23334 -2.69502 0
M  V30 9137 H 823.8 -4.82625 -4.44308 0
M  V30 9138 H 823.717 -6.47226 -3.90685 0
M  V30 9139 H 824.985 -5.98656 -4.99231 0
M  V30 9140 N 829.214 0.302327 -1.54673 0
M  V30 9141 C 830.454 1.04568 -1.75627 0
M  V30 9142 C 830.818 1.84535 -0.530175 0
M  V30 9143 O 832.019 2.61613 -0.61743 0
M  V30 9144 C 830.29 1.92873 -3.0089 0
M  V30 9145 S 831.849 2.73872 -3.4284 0
M  V30 9146 H 828.667 0.352682 -0.617362 0
M  V30 9147 H 831.269 0.319239 -1.92876 0
M  V30 9148 H 829.973 1.32998 -3.88252 0
M  V30 9149 H 829.504 2.69887 -2.86225 0
M  V30 9150 H 831.519 3.95386 -2.99807 0
M  V30 9151 N 830.692 1.47107 0.565454 0
M  V30 9152 C 831.932 1.5488 1.33385 0
M  V30 9153 C 832.296 0.202804 1.90926 0
M  V30 9154 O 833.497 0.155345 2.68351 0
M  V30 9155 C 831.768 2.62969 2.42037 0
M  V30 9156 S 833.327 2.90269 3.29074 0
M  V30 9157 H 830.145 0.547008 0.454206 0
M  V30 9158 H 832.747 1.8444 0.648228 0
M  V30 9159 H 831.451 3.59376 1.98185 0
M  V30 9160 H 830.982 2.35197 3.15351 0
M  V30 9161 H 832.997 2.26854 4.41307 0
M  V30 9162 N 832.17 -0.811516 1.35101 0
M  V30 9163 C 833.398 -1.59981 1.31201 0
M  V30 9164 C 833.813 -1.8847 -0.111552 0
M  V30 9165 O 833.17 -1.48414 -1.06205 0
M  V30 9166 C 833.221 -2.934 2.11184 0
M  V30 9167 O 832.942 -2.66148 3.4799 0
M  V30 9168 C 834.443 -3.87776 2.14813 0
M  V30 9169 H 831.663 -0.496921 0.450899 0
M  V30 9170 H 834.207 -1.00886 1.77883 0
M  V30 9171 H 832.362 -3.49022 1.68115 0
M  V30 9172 H 832.776 -3.51301 3.89471 0
M  V30 9173 H 834.25 -4.7852 2.75178 0
M  V30 9174 H 834.727 -4.23997 1.14556 0
M  V30 9175 H 835.333 -3.3809 2.58022 0
M  V30 9176 N 833.648 -1.19017 -1.03309 0
M  V30 9177 C 834.595 -0.924088 -2.11493 0
M  V30 9178 C 835.565 0.139464 -1.65513 0
M  V30 9179 O 836.75 -0.00178761 -1.908 0
M  V30 9180 C 833.89 -0.464255 -3.41963 0
M  V30 9181 C 833.003 -1.5941 -4.01513 0
M  V30 9182 C 832.138 -1.08622 -5.19976 0
M  V30 9183 C 831.177 -2.19024 -5.71572 0
M  V30 9184 N 830.314 -1.69575 -6.81314 0
M  V30 9185 H 835.154 -1.85039 -2.33591 0
M  V30 9186 H 832.691 -0.922593 -1.14572 0
M  V30 9187 H 834.649 -0.179078 -4.16815 0
M  V30 9188 H 833.279 0.425062 -3.19989 0
M  V30 9189 H 832.331 -1.99458 -3.23915 0
M  V30 9190 H 833.643 -2.42604 -4.35826 0
M  V30 9191 H 832.797 -0.756022 -6.01971 0
M  V30 9192 H 831.536 -0.223955 -4.87186 0
M  V30 9193 H 830.541 -2.5288 -4.88193 0
M  V30 9194 H 831.766 -3.05699 -6.06403 0
M  V30 9195 H 829.712 -0.856494 -6.50385 0
M  V30 9196 H 829.629 -2.46361 -7.14732 0
M  V30 9197 H 830.897 -1.39505 -7.66915 0
M  V30 9198 N 835.127 1.22348 -0.993418 0
M  V30 9199 C 836.037 2.27987 -0.553076 0
M  V30 9200 C 837.053 1.69378 0.398386 0
M  V30 9201 O 838.229 1.99648 0.26509 0
M  V30 9202 C 835.294 3.46475 0.124809 0
M  V30 9203 C 834.355 4.20399 -0.869682 0
M  V30 9204 C 833.588 5.33229 -0.224052 0
M  V30 9205 O 833.811 5.61885 0.981915 0
M  V30 9206 O 832.745 5.94685 -0.929174 0
M  V30 9207 H 836.571 2.67822 -1.43195 0
M  V30 9208 H 834.156 1.28525 -0.761694 0
M  V30 9209 H 836.038 4.18369 0.504496 0
M  V30 9210 H 834.713 3.08565 0.978243 0
M  V30 9211 H 833.62 3.50774 -1.30031 0
M  V30 9212 H 834.953 4.62191 -1.69233 0
M  V30 9213 N 836.605 0.766683 1.37694 0
M  V30 9214 C 837.853 0.328065 1.9942 0
M  V30 9215 C 838.174 -1.09775 1.61166 0
M  V30 9216 O 837.444 -1.75288 0.874686 0
M  V30 9217 H 836.024 0.11831 0.737572 0
M  V30 9218 H 838.686 0.983686 1.68255 0
M  V30 9219 H 837.782 0.401647 3.09505 0
M  V30 9220 N 838.083 -1.48885 0.516809 0
M  V30 9221 C 839.013 -2.32241 -0.242157 0
M  V30 9222 C 839.994 -1.41258 -0.947633 0
M  V30 9223 O 841.179 -1.70156 -0.935973 0
M  V30 9224 C 838.309 -3.22151 -1.29754 0
M  V30 9225 C 837.263 -4.22053 -0.710995 0
M  V30 9226 C 836.589 -5.01007 -1.86806 0
M  V30 9227 C 837.889 -5.21388 0.30853 0
M  V30 9228 H 839.583 -2.95943 0.453651 0
M  V30 9229 H 837.129 -1.42316 0.219612 0
M  V30 9230 H 839.082 -3.79284 -1.83634 0
M  V30 9231 H 837.806 -2.56423 -2.02274 0
M  V30 9232 H 836.465 -3.66087 -0.193819 0
M  V30 9233 H 836.113 -4.31713 -2.58133 0
M  V30 9234 H 835.813 -5.68615 -1.48159 0
M  V30 9235 H 837.337 -5.60989 -2.4109 0
M  V30 9236 H 838.751 -5.73122 -0.142703 0
M  V30 9237 H 837.148 -5.96975 0.611673 0
M  V30 9238 H 838.218 -4.69329 1.21894 0
M  V30 9239 N 839.561 -0.251338 -1.55583 0
M  V30 9240 C 840.838 0.422729 -1.90977 0
M  V30 9241 C 841.218 1.75534 -1.17265 0
M  V30 9242 O 840.566 2.26632 -0.291588 0
M  V30 9243 C 840.776 0.586448 -3.44037 0
M  V30 9244 C 842.124 0.880294 -4.15375 0
M  V30 9245 O 843.148 0.672148 -3.49801 0
M  V30 9246 O 842.007 1.27694 -5.31372 0
M  V30 9247 H 839.101 0.227622 -0.795058 0
M  V30 9248 H 841.647 -0.295733 -1.67103 0
M  V30 9249 H 840.419 -0.352327 -3.89711 0
M  V30 9250 H 840.042 1.35528 -3.73789 0
M  V30 9251 N 841.039 1.57585 0.0217189 0
M  V30 9252 C 842.288 1.88786 0.710125 0
M  V30 9253 C 842.601 0.850819 1.76126 0
M  V30 9254 O 843.807 1.0523 2.50277 0
M  V30 9255 C 842.263 3.3505 1.31413 0
M  V30 9256 C 841.871 4.47001 0.298959 0
M  V30 9257 C 843.615 3.7539 1.98199 0
M  V30 9258 C 841.522 5.8433 0.911727 0
M  V30 9259 H 840.452 0.704388 0.268986 0
M  V30 9260 H 843.103 1.83466 -0.0352638 0
M  V30 9261 H 841.485 3.35138 2.10947 0
M  V30 9262 H 842.659 4.58395 -0.470203 0
M  V30 9263 H 840.974 4.15542 -0.267222 0
M  V30 9264 H 843.571 4.75314 2.4491 0
M  V30 9265 H 843.914 3.07766 2.80331 0
M  V30 9266 H 844.447 3.77508 1.2543 0
M  V30 9267 H 841.186 6.55372 0.129659 0
M  V30 9268 H 840.706 5.76643 1.65056 0
M  V30 9269 H 842.385 6.31295 1.41688 0
M  V30 9270 N 842.517 -0.29412 1.54831 0
M  V30 9271 C 843.794 -1.04847 1.65126 0
M  V30 9272 C 844.174 -2.04996 0.503986 0
M  V30 9273 O 843.522 -2.22996 -0.498496 0
M  V30 9274 C 843.732 -1.72418 3.03435 0
M  V30 9275 C 845.08 -2.24362 3.60481 0
M  V30 9276 O 846.104 -1.8244 3.05932 0
M  V30 9277 O 844.963 -3.01196 4.56008 0
M  V30 9278 H 842.057 -0.485032 0.669831 0
M  V30 9279 H 844.603 -0.291659 1.67175 0
M  V30 9280 H 843.375 -0.997351 3.78376 0
M  V30 9281 H 842.998 -2.54839 3.05193 0
M  V30 9282 N 843.995 -1.47404 -0.557645 0
M  V30 9283 C 845.272 -1.44488 -1.31843 0
M  V30 9284 C 845.652 -0.1416 -2.10625 0
M  V30 9285 O 845 0.876908 -2.11004 0
M  V30 9286 C 845.21 -2.69016 -2.22331 0
M  V30 9287 C 846.558 -3.16212 -2.83364 0
M  V30 9288 O 847.582 -2.69741 -2.32634 0
M  V30 9289 O 846.441 -3.96999 -3.75571 0
M  V30 9290 H 843.535 -0.57578 -0.593639 0
M  V30 9291 H 846.081 -1.59605 -0.576584 0
M  V30 9292 H 844.853 -3.55406 -1.63715 0
M  V30 9293 H 844.476 -2.56484 -3.03812 0
M  V30 9294 N 845.473 0.80434 -1.35529 0
M  V30 9295 C 846.698 1.598 -1.32207 0
M  V30 9296 C 847.123 1.87848 0.0974226 0
M  V30 9297 O 846.481 1.46728 1.06492 0
M  V30 9298 C 846.529 2.90483 -2.13663 0
M  V30 9299 O 845.633 3.83411 -1.51888 0
M  V30 9300 H 844.974 0.485305 -0.453183 0
M  V30 9301 H 847.504 0.998119 -1.78602 0
M  V30 9302 H 847.514 3.39888 -2.257 0
M  V30 9303 H 846.189 2.69395 -3.16859 0
M  V30 9304 H 844.766 3.41967 -1.48704 0
M  V30 9305 N 846.951 1.19563 1.02676 0
M  V30 9306 C 847.861 0.950691 2.14474 0
M  V30 9307 C 848.877 -0.0900219 1.73767 0
M  V30 9308 O 850.053 0.0951063 2.01175 0
M  V30 9309 C 847.118 0.494917 3.43149 0
M  V30 9310 C 846.179 1.60527 3.98158 0
M  V30 9311 C 845.412 1.17115 5.20692 0
M  V30 9312 O 845.635 0.0355937 5.70389 0
M  V30 9313 O 844.569 1.97454 5.68591 0
M  V30 9314 H 848.395 1.88651 2.38001 0
M  V30 9315 H 845.98 0.978635 1.12885 0
M  V30 9316 H 847.862 0.249492 4.20661 0
M  V30 9317 H 846.537 -0.412434 3.21062 0
M  V30 9318 H 845.444 1.90487 3.21971 0
M  V30 9319 H 846.777 2.48925 4.24614 0
M  V30 9320 N 848.429 -1.21819 0.999893 0
M  V30 9321 C 849.339 -2.27691 0.565159 0
M  V30 9322 C 850.355 -1.69587 -0.389398 0
M  V30 9323 O 851.531 -1.99786 -0.254499 0
M  V30 9324 C 848.596 -3.46537 -0.106432 0
M  V30 9325 C 847.657 -4.19932 0.891964 0
M  V30 9326 C 846.89 -5.33103 0.252327 0
M  V30 9327 O 847.113 -5.62398 -0.952103 0
M  V30 9328 O 846.047 -5.94184 0.960698 0
M  V30 9329 H 849.873 -2.67059 1.44613 0
M  V30 9330 H 847.458 -1.28119 0.768499 0
M  V30 9331 H 849.34 -4.18631 -0.482301 0
M  V30 9332 H 848.015 -3.09079 -0.961865 0
M  V30 9333 H 846.922 -3.5008 1.3189 0
M  V30 9334 H 848.255 -4.61287 1.71682 0
M  V30 9335 N 849.908 -0.773975 -1.37286 0
M  V30 9336 C 850.871 -0.167974 -2.28584 0
M  V30 9337 C 851.871 0.625662 -1.48129 0
M  V30 9338 O 853.061 0.448924 -1.68316 0
M  V30 9339 C 850.193 0.769364 -3.32105 0
M  V30 9340 H 851.386 -0.972806 -2.83684 0
M  V30 9341 H 848.939 -0.542335 -1.46589 0
M  V30 9342 H 849.674 1.59912 -2.82132 0
M  V30 9343 H 849.459 0.202419 -3.91577 0
M  V30 9344 H 850.949 1.18872 -4.00324 0
M  V30 9345 N 851.386 1.48609 -0.524698 0
M  V30 9346 C 852.333 2.29539 0.240956 0
M  V30 9347 C 853.303 1.37033 0.938681 0
M  V30 9348 O 854.488 1.65996 0.940737 0
M  V30 9349 C 851.628 3.20278 1.28514 0
M  V30 9350 C 850.741 4.27858 0.596798 0
M  V30 9351 C 849.876 5.05784 1.62346 0
M  V30 9352 C 848.915 6.05173 0.918287 0
M  V30 9353 N 848.052 6.76176 1.89025 0
M  V30 9354 H 852.892 2.945 -0.455368 0
M  V30 9355 H 850.429 1.45188 -0.236403 0
M  V30 9356 H 852.387 3.71281 1.90279 0
M  V30 9357 H 851.017 2.57251 1.94992 0
M  V30 9358 H 850.069 3.80162 -0.134668 0
M  V30 9359 H 851.381 4.98782 0.0428506 0
M  V30 9360 H 850.535 5.60775 2.31553 0
M  V30 9361 H 849.274 4.34687 2.2113 0
M  V30 9362 H 848.279 5.49391 0.21212 0
M  V30 9363 H 849.504 6.78265 0.336633 0
M  V30 9364 H 847.45 6.07834 2.46726 0
M  V30 9365 H 847.367 7.43157 1.3876 0
M  V30 9366 H 848.635 7.35759 2.57446 0
M  V30 9367 N 852.864 0.259585 1.55447 0
M  V30 9368 C 853.811 -0.634578 2.21905 0
M  V30 9369 C 854.781 -1.16168 1.18719 0
M  V30 9370 O 855.966 -1.21383 1.4721 0
M  V30 9371 C 853.106 -1.82005 2.93203 0
M  V30 9372 C 852.219 -1.32828 4.11073 0
M  V30 9373 C 851.354 -2.47431 4.70055 0
M  V30 9374 C 850.393 -1.95179 5.80148 0
M  V30 9375 N 849.53 -3.03197 6.33258 0
M  V30 9376 H 854.37 -0.0611886 2.97937 0
M  V30 9377 H 851.907 -0.0184378 1.47088 0
M  V30 9378 H 853.865 -2.51664 3.32748 0
M  V30 9379 H 852.495 -2.36571 2.19622 0
M  V30 9380 H 851.547 -0.525301 3.76756 0
M  V30 9381 H 852.859 -0.905435 4.90513 0
M  V30 9382 H 852.013 -3.25111 5.12238 0
M  V30 9383 H 850.752 -2.93023 3.89857 0
M  V30 9384 H 849.757 -1.15974 5.37429 0
M  V30 9385 H 850.982 -1.50541 6.62204 0
M  V30 9386 H 848.928 -3.48199 5.55961 0
M  V30 9387 H 848.845 -2.65282 7.07928 0
M  V30 9388 H 850.113 -3.80898 6.80101 0
M  V30 9389 N 854.342 -1.57594 -0.0133615 0
M  V30 9390 C 855.619 -1.81173 -0.737273 0
M  V30 9391 C 855.999 -0.861395 -1.92726 0
M  V30 9392 O 855.347 0.0929324 -2.28311 0
M  V30 9393 C 855.557 -3.29314 -1.15557 0
M  V30 9394 C 856.905 -3.94707 -1.56498 0
M  V30 9395 O 857.929 -3.33557 -1.24973 0
M  V30 9396 O 856.788 -5.02402 -2.15069 0
M  V30 9397 H 853.882 -0.745575 -0.357837 0
M  V30 9398 H 856.428 -1.69696 0.0110674 0
M  V30 9399 H 855.2 -3.90096 -0.30677 0
M  V30 9400 H 854.823 -3.45739 -1.96343 0
M  V30 9401 N 855.82 0.285905 -1.54985 0
M  V30 9402 C 857.067 1.0192 -1.74982 0
M  V30 9403 C 857.395 1.86743 -0.543816 0
M  V30 9404 O 856.65 1.89874 0.473972 0
M  V30 9405 C 856.949 1.94193 -3.0004 0
M  V30 9406 C 856.615 1.25225 -4.33162 0
M  V30 9407 C 855.277 1.06149 -4.69346 0
M  V30 9408 C 857.629 0.760427 -5.15623 0
M  V30 9409 C 854.957 0.365991 -5.85557 0
M  V30 9410 C 857.309 0.0785787 -6.32551 0
M  V30 9411 C 855.973 -0.124002 -6.67385 0
M  V30 9412 H 855.243 0.372951 -0.640304 0
M  V30 9413 H 857.89 0.292652 -1.89251 0
M  V30 9414 H 856.195 2.73426 -2.80616 0
M  V30 9415 H 857.892 2.51029 -3.12707 0
M  V30 9416 H 854.482 1.41081 -4.04715 0
M  V30 9417 H 858.666 0.895466 -4.88155 0
M  V30 9418 H 853.922 0.198193 -6.11079 0
M  V30 9419 H 858.096 -0.310339 -6.95708 0
M  V30 9420 H 855.723 -0.664918 -7.57287 0
M  V30 9421 N 857.298 1.47698 0.54982 0
M  V30 9422 C 858.208 1.63386 1.68351 0
M  V30 9423 C 859.224 0.516583 1.66155 0
M  V30 9424 O 860.4 0.785088 1.85468 0
M  V30 9425 C 857.465 1.6513 3.04849 0
M  V30 9426 C 856.526 2.88338 3.18056 0
M  V30 9427 C 855.759 2.8999 4.48042 0
M  V30 9428 O 855.982 2.00633 5.3395 0
M  V30 9429 O 854.916 3.81938 4.65196 0
M  V30 9430 H 858.742 2.59329 1.58057 0
M  V30 9431 H 856.327 1.30869 0.72067 0
M  V30 9432 H 858.209 1.68913 3.86065 0
M  V30 9433 H 856.884 0.723555 3.1551 0
M  V30 9434 H 855.791 2.90097 2.36209 0
M  V30 9435 H 857.124 3.80431 3.12302 0
M  V30 9436 N 858.776 -0.797141 1.35954 0
M  V30 9437 C 860.004 -1.5858 1.32891 0
M  V30 9438 C 860.419 -1.88578 -0.0915564 0
M  V30 9439 O 859.776 -1.49532 -1.04625 0
M  V30 9440 C 859.827 -2.91143 2.14284 0
M  V30 9441 O 859.548 -2.62442 3.50793 0
M  V30 9442 C 861.049 -3.85476 2.18914 0
M  V30 9443 H 858.269 -0.492111 0.456144 0
M  V30 9444 H 860.813 -0.98994 1.78943 0
M  V30 9445 H 858.968 -3.47219 1.71807 0
M  V30 9446 H 859.382 -3.4715 3.93175 0
M  V30 9447 H 860.856 -4.75574 2.80238 0
M  V30 9448 H 861.333 -4.22758 1.19047 0
M  V30 9449 H 861.939 -3.35334 2.61593 0
M  V30 9450 N 860.254 -1.20106 -1.0204 0
M  V30 9451 C 861.184 -0.970301 -2.12385 0
M  V30 9452 C 862.165 0.099378 -1.69809 0
M  V30 9453 O 863.35 -0.057365 -1.94115 0
M  V30 9454 C 860.48 -0.517431 -3.43424 0
M  V30 9455 C 859.434 -1.52992 -3.99722 0
M  V30 9456 C 858.76 -0.933817 -5.26483 0
M  V30 9457 C 860.06 -2.91257 -4.33551 0
M  V30 9458 H 861.754 -1.89316 -2.31948 0
M  V30 9459 H 859.3 -0.911655 -1.11467 0
M  V30 9460 H 861.253 -0.343243 -4.2 0
M  V30 9461 H 859.977 0.441049 -3.23608 0
M  V30 9462 H 858.636 -1.6914 -3.2525 0
M  V30 9463 H 858.284 0.0324763 -5.0299 0
M  V30 9464 H 857.984 -1.60999 -5.65113 0
M  V30 9465 H 859.508 -0.770614 -6.05718 0
M  V30 9466 H 860.922 -2.78642 -5.0103 0
M  V30 9467 H 859.319 -3.55745 -4.83286 0
M  V30 9468 H 860.389 -3.43269 -3.42483 0
M  V30 9469 N 861.732 1.21287 -1.00634 0
M  V30 9470 C 862.679 2.23705 -0.567876 0
M  V30 9471 C 863.649 1.61043 0.406753 0
M  V30 9472 O 864.834 1.88289 0.308499 0
M  V30 9473 C 861.974 3.44961 0.097996 0
M  V30 9474 C 861.087 4.22091 -0.919972 0
M  V30 9475 C 860.222 5.30718 -0.226222 0
M  V30 9476 C 859.261 5.99581 -1.23165 0
M  V30 9477 N 858.398 6.99821 -0.565278 0
M  V30 9478 H 863.238 2.60571 -1.44592 0
M  V30 9479 H 860.775 1.28049 -0.724006 0
M  V30 9480 H 862.733 4.1418 0.501097 0
M  V30 9481 H 861.363 3.08818 0.939744 0
M  V30 9482 H 860.415 3.52038 -1.44131 0
M  V30 9483 H 861.727 4.69476 -1.68505 0
M  V30 9484 H 860.881 6.06253 0.232917 0
M  V30 9485 H 859.62 4.84343 0.571247 0
M  V30 9486 H 858.625 5.22816 -1.70128 0
M  V30 9487 H 859.85 6.48042 -2.03022 0
M  V30 9488 H 857.796 6.55656 0.212508 0
M  V30 9489 H 857.713 7.4528 -1.26858 0
M  V30 9490 H 858.981 7.79393 -0.129389 0
M  V30 9491 N 863.21 0.781244 1.36873 0
M  V30 9492 C 864.173 0.180094 2.28491 0
M  V30 9493 C 865.173 -0.617798 1.48458 0
M  V30 9494 O 866.363 -0.439991 1.68552 0
M  V30 9495 C 863.495 -0.751741 3.32508 0
M  V30 9496 H 864.688 0.987837 2.83164 0
M  V30 9497 H 862.241 0.550102 1.463 0
M  V30 9498 H 862.976 -1.58413 2.82977 0
M  V30 9499 H 862.761 -0.181649 3.91679 0
M  V30 9500 H 864.251 -1.16748 4.00949 0
M  V30 9501 N 864.689 -1.48329 0.532571 0
M  V30 9502 C 865.599 -2.33445 -0.232546 0
M  V30 9503 C 866.615 -1.46651 -0.93645 0
M  V30 9504 O 867.791 -1.79627 -0.910834 0
M  V30 9505 C 864.856 -3.22824 -1.26434 0
M  V30 9506 C 863.917 -4.25492 -0.570511 0
M  V30 9507 C 863.15 -5.10601 -1.55315 0
M  V30 9508 O 863.373 -4.97733 -2.78599 0
M  V30 9509 O 862.307 -5.91927 -1.09112 0
M  V30 9510 H 866.133 -3.00119 0.464988 0
M  V30 9511 H 863.718 -1.46489 0.293462 0
M  V30 9512 H 865.6 -3.78103 -1.86055 0
M  V30 9513 H 864.275 -2.58807 -1.94424 0
M  V30 9514 H 863.182 -3.74041 0.0662587 0
M  V30 9515 H 864.515 -4.92154 0.0674904 0
M  V30 9516 N 866.167 -0.267825 -1.55308 0
M  V30 9517 C 867.397 0.354073 -2.03543 0
M  V30 9518 C 867.805 1.50554 -1.14586 0
M  V30 9519 O 867.148 1.83028 -0.156991 0
M  V30 9520 C 867.21 0.904148 -3.47945 0
M  V30 9521 C 866.874 -0.11775 -4.56848 0
M  V30 9522 C 867.871 -0.934707 -5.11429 0
M  V30 9523 C 865.556 -0.249885 -5.01678 0
M  V30 9524 C 867.55 -1.87005 -6.0935 0
M  V30 9525 C 865.237 -1.18872 -5.99427 0
M  V30 9526 C 866.235 -1.99731 -6.53144 0
M  V30 9527 O 865.923 -2.92028 -7.48983 0
M  V30 9528 H 865.655 0.0857765 -0.670536 0
M  V30 9529 H 868.209 -0.395515 -2.01556 0
M  V30 9530 H 866.439 1.70368 -3.47148 0
M  V30 9531 H 868.128 1.43835 -3.79561 0
M  V30 9532 H 868.894 -0.84332 -4.77612 0
M  V30 9533 H 864.773 0.369469 -4.59517 0
M  V30 9534 H 868.317 -2.5016 -6.51203 0
M  V30 9535 H 864.214 -1.28095 -6.32663 0
M  V30 9536 H 864.982 -2.86627 -7.66673 0
M  V30 9537 N 867.645 1.57599 0.00500368 0
M  V30 9538 C 868.555 2.11532 1.01446 0
M  V30 9539 C 869.571 1.05941 1.3803 0
M  V30 9540 O 870.747 1.37815 1.46864 0
M  V30 9541 C 867.812 2.60382 2.28915 0
M  V30 9542 C 866.873 3.80554 1.98689 0
M  V30 9543 C 866.106 4.27064 3.20081 0
M  V30 9544 O 866.329 3.72939 4.31593 0
M  V30 9545 O 865.263 5.1927 3.04371 0
M  V30 9546 H 869.089 2.97993 0.586011 0
M  V30 9547 H 866.674 1.47718 0.223519 0
M  V30 9548 H 868.556 2.92024 3.03809 0
M  V30 9549 H 867.231 1.77022 2.71007 0
M  V30 9550 H 866.138 3.53893 1.21286 0
M  V30 9551 H 867.471 4.64972 1.61437 0
M  V30 9552 N 869.123 -0.277682 1.55134 0
M  V30 9553 C 870.371 -1.00791 1.75173 0
M  V30 9554 C 870.692 -1.86987 0.553266 0
M  V30 9555 O 869.962 -1.91079 -0.43195 0
M  V30 9556 H 868.542 -0.375129 0.645978 0
M  V30 9557 H 871.204 -0.303041 1.9253 0
M  V30 9558 H 870.3 -1.64756 2.6507 0
M  V30 9559 N 870.601 -1.47988 -0.541979 0
M  V30 9560 C 871.531 -1.64503 -1.65713 0
M  V30 9561 C 872.512 -0.494116 -1.62765 0
M  V30 9562 O 873.697 -0.725256 -1.80149 0
M  V30 9563 C 870.827 -1.67337 -3.04328 0
M  V30 9564 C 869.781 -2.81809 -3.2213 0
M  V30 9565 C 869.107 -2.69724 -4.61685 0
M  V30 9566 C 870.407 -4.23241 -3.06046 0
M  V30 9567 H 872.101 -2.5786 -1.52147 0
M  V30 9568 H 869.647 -1.24094 -0.730529 0
M  V30 9569 H 871.6 -1.77481 -3.82202 0
M  V30 9570 H 870.324 -0.705514 -3.18889 0
M  V30 9571 H 868.983 -2.71201 -2.46669 0
M  V30 9572 H 868.631 -1.70934 -4.73065 0
M  V30 9573 H 868.331 -3.4653 -4.74543 0
M  V30 9574 H 869.855 -2.81818 -5.41674 0
M  V30 9575 H 871.269 -4.34746 -3.73723 0
M  V30 9576 H 869.666 -5.00952 -3.30405 0
M  V30 9577 H 870.736 -4.40543 -2.02609 0
M  V30 9578 N 872.079 0.78992 -1.36375 0
M  V30 9579 C 873.319 1.56098 -1.31958 0
M  V30 9580 C 873.683 1.91738 0.100197 0
M  V30 9581 O 874.884 2.67451 0.268913 0
M  V30 9582 C 873.155 2.80406 -2.21601 0
M  V30 9583 S 874.714 3.70655 -2.34863 0
M  V30 9584 H 871.532 0.534632 -0.46871 0
M  V30 9585 H 874.134 0.930417 -1.7194 0
M  V30 9586 H 872.838 2.52273 -3.23707 0
M  V30 9587 H 872.369 3.48436 -1.82637 0
M  V30 9588 H 874.384 4.71509 -1.54575 0
M  V30 9589 N 873.557 1.20646 1.01402 0
M  V30 9590 C 874.504 0.957618 2.09996 0
M  V30 9591 C 875.474 -0.113115 1.65714 0
M  V30 9592 O 876.659 0.032142 1.90773 0
M  V30 9593 C 873.799 0.5186 3.41181 0
M  V30 9594 C 872.912 1.65777 3.98926 0
M  V30 9595 C 872.047 1.16881 5.18182 0
M  V30 9596 C 871.086 2.2809 5.68015 0
M  V30 9597 N 870.223 1.80392 6.7853 0
M  V30 9598 H 875.063 1.88732 2.30617 0
M  V30 9599 H 872.6 0.940703 1.13089 0
M  V30 9600 H 874.558 0.245367 4.16478 0
M  V30 9601 H 873.188 -0.3741 3.20625 0
M  V30 9602 H 872.24 2.04586 3.207 0
M  V30 9603 H 873.552 2.49507 4.31912 0
M  V30 9604 H 872.706 0.851694 6.00692 0
M  V30 9605 H 871.445 0.301434 4.86768 0
M  V30 9606 H 870.45 2.60614 4.84108 0
M  V30 9607 H 871.675 3.15308 6.01463 0
M  V30 9608 H 869.621 0.959856 6.4894 0
M  V30 9609 H 869.538 2.57701 7.10722 0
M  V30 9610 H 870.806 1.51688 7.64598 0
M  V30 9611 N 875.035 -1.20752 1.01276 0
M  V30 9612 C 876.281 -1.90302 0.700924 0
M  V30 9613 C 876.614 -1.78406 -0.767142 0
M  V30 9614 O 875.889 -1.16575 -1.55694 0
M  V30 9615 C 876.172 -3.41831 1.13242 0
M  V30 9616 C 876.025 -3.6268 2.66051 0
M  V30 9617 C 877.344 -4.34486 0.700738 0
M  V30 9618 H 874.463 -0.69107 0.256107 0
M  V30 9619 H 877.105 -1.42227 1.25982 0
M  V30 9620 H 875.255 -3.82906 0.656902 0
M  V30 9621 H 876.927 -3.30882 3.21426 0
M  V30 9622 H 875.17 -3.06281 3.07204 0
M  V30 9623 H 875.841 -4.68882 2.91296 0
M  V30 9624 H 878.317 -4.01036 1.10948 0
M  V30 9625 H 877.193 -5.39136 1.03073 0
M  V30 9626 H 877.454 -4.40307 -0.39778 0
M  V30 9627 N 876.513 -0.788492 -1.36457 0
M  V30 9628 C 877.762 -0.357052 -1.98515 0
M  V30 9629 C 878.075 1.0769 -1.63285 0
M  V30 9630 O 879.281 1.61057 -2.1857 0
M  V30 9631 C 877.737 -0.587449 -3.55073 0
M  V30 9632 C 877.345 -2.03276 -3.99228 0
M  V30 9633 C 879.089 -0.220468 -4.23927 0
M  V30 9634 C 876.996 -2.20987 -5.48561 0
M  V30 9635 H 875.926 -0.129762 -0.74275 0
M  V30 9636 H 878.577 -0.969995 -1.55767 0
M  V30 9637 H 876.959 0.0951918 -3.95886 0
M  V30 9638 H 878.133 -2.75173 -3.69617 0
M  V30 9639 H 876.448 -2.3579 -3.43208 0
M  V30 9640 H 879.045 -0.331085 -5.33674 0
M  V30 9641 H 879.388 0.831306 -4.07915 0
M  V30 9642 H 879.921 -0.856309 -3.88474 0
M  V30 9643 H 876.66 -3.24543 -5.69519 0
M  V30 9644 H 876.18 -1.53594 -5.79801 0
M  V30 9645 H 877.859 -2.01656 -6.14771 0
M  V30 9646 N 877.991 1.48044 -0.54043 0
M  V30 9647 C 878.938 2.29781 0.216597 0
M  V30 9648 C 879.908 1.38021 0.924094 0
M  V30 9649 O 881.093 1.66985 0.923078 0
M  V30 9650 C 878.233 3.21623 1.2511 0
M  V30 9651 C 877.346 4.28467 0.551384 0
M  V30 9652 C 876.481 5.07477 1.56972 0
M  V30 9653 C 875.52 6.06113 0.854048 0
M  V30 9654 N 874.657 6.78143 1.81842 0
M  V30 9655 H 879.497 2.94001 -0.486578 0
M  V30 9656 H 877.034 1.44929 -0.251789 0
M  V30 9657 H 878.992 3.73279 1.8633 0
M  V30 9658 H 877.622 2.59305 1.92252 0
M  V30 9659 H 876.674 3.79997 -0.174982 0
M  V30 9660 H 877.986 4.98799 -0.0100542 0
M  V30 9661 H 877.14 5.63199 2.25592 0
M  V30 9662 H 875.879 4.37008 2.16507 0
M  V30 9663 H 874.884 5.49585 0.153838 0
M  V30 9664 H 876.109 6.78584 0.264675 0
M  V30 9665 H 874.055 6.10417 2.40265 0
M  V30 9666 H 873.972 7.44587 1.3087 0
M  V30 9667 H 875.24 7.38448 2.49628 0
M  V30 9668 N 879.47 0.276058 1.55163 0
M  V30 9669 C 880.747 -0.392292 1.91626 0
M  V30 9670 C 881.127 -1.73646 1.20043 0
M  V30 9671 O 880.475 -2.26139 0.327606 0
M  V30 9672 C 880.685 -0.531641 3.44927 0
M  V30 9673 C 882.033 -0.8141 4.16722 0
M  V30 9674 O 883.057 -0.616413 3.50826 0
M  V30 9675 O 881.916 -1.19224 5.33337 0
M  V30 9676 H 879.01 -0.214945 0.798579 0
M  V30 9677 H 881.556 0.32228 1.66612 0
M  V30 9678 H 880.328 0.414282 3.89101 0
M  V30 9679 H 879.951 -1.29564 3.75897 0
M  V30 9680 N 880.948 -1.576 0.00335426 0
M  V30 9681 C 882.194 -1.90996 -0.681799 0
M  V30 9682 C 882.527 -0.877643 -1.73237 0
M  V30 9683 O 881.802 0.103183 -1.94226 0
M  V30 9684 C 882.085 -3.34961 -1.32187 0
M  V30 9685 C 881.938 -4.48911 -0.28261 0
M  V30 9686 C 883.257 -3.78408 -2.24711 0
M  V30 9687 H 880.376 -0.694596 -0.246386 0
M  V30 9688 H 883.018 -1.89919 0.055336 0
M  V30 9689 H 881.168 -3.36008 -1.95014 0
M  V30 9690 H 882.84 -4.59999 0.346241 0
M  V30 9691 H 881.083 -4.32 0.394768 0
M  V30 9692 H 881.754 -5.46609 -0.769576 0
M  V30 9693 H 884.23 -3.78934 -1.71897 0
M  V30 9694 H 883.106 -4.79885 -2.66461 0
M  V30 9695 H 883.367 -3.12464 -3.1276 0
M  V30 9696 N 882.426 0.269451 -1.5528 0
M  V30 9697 C 883.356 1.33729 -1.91413 0
M  V30 9698 C 884.337 1.51348 -0.776391 0
M  V30 9699 O 885.522 1.64332 -1.03482 0
M  V30 9700 C 882.652 2.69618 -2.18914 0
M  V30 9701 C 881.606 2.66725 -3.34726 0
M  V30 9702 C 880.932 4.06199 -3.47716 0
M  V30 9703 C 882.232 2.25684 -4.71025 0
M  V30 9704 H 883.926 1.03736 -2.80854 0
M  V30 9705 H 881.472 0.497579 -1.3513 0
M  V30 9706 H 883.425 3.44436 -2.42779 0
M  V30 9707 H 882.149 3.01201 -1.26275 0
M  V30 9708 H 880.808 1.94365 -3.10834 0
M  V30 9709 H 880.456 4.3501 -2.52537 0
M  V30 9710 H 880.156 4.05157 -4.25583 0
M  V30 9711 H 881.68 4.8275 -3.73877 0
M  V30 9712 H 883.094 2.90225 -4.94411 0
M  V30 9713 H 881.491 2.35797 -5.51833 0
M  V30 9714 H 882.561 1.20819 -4.69607 0
M  V30 9715 N 883.904 1.48273 0.534124 0
M  V30 9716 C 884.854 1.58889 1.63519 0
M  V30 9717 C 885.838 0.44626 1.54588 0
M  V30 9718 O 887.03 0.697474 1.62679 0
M  V30 9719 C 884.159 1.62787 3.0225 0
M  V30 9720 C 883.245 2.82515 3.16301 0
M  V30 9721 N 883.636 4.06977 3.00338 0
M  V30 9722 C 881.934 2.7976 3.47347 0
M  V30 9723 C 882.635 4.87283 3.17694 0
M  V30 9724 N 881.611 4.20024 3.45081 0
M  V30 9725 H 885.413 2.52869 1.49781 0
M  V30 9726 H 882.927 1.44587 0.739479 0
M  V30 9727 H 884.924 1.68486 3.81337 0
M  V30 9728 H 883.584 0.699201 3.17082 0
M  V30 9729 H 884.595 4.37479 2.77186 0
M  V30 9730 H 881.272 1.96132 3.68563 0
M  V30 9731 H 882.662 5.96047 3.10126 0
M  V30 9732 N 885.382 -0.782676 1.36792 0
M  V30 9733 C 886.292 -1.92679 1.33835 0
M  V30 9734 C 887.308 -1.72344 0.23952 0
M  V30 9735 O 888.484 -1.95766 0.473045 0
M  V30 9736 C 885.549 -3.27644 1.1336 0
M  V30 9737 C 884.61 -3.6071 2.32781 0
M  V30 9738 C 883.843 -4.89234 2.13273 0
M  V30 9739 O 884.066 -5.59468 1.11136 0
M  V30 9740 O 883 -5.21112 3.01208 0
M  V30 9741 H 886.826 -1.98124 2.30175 0
M  V30 9742 H 884.411 -0.923887 1.17408 0
M  V30 9743 H 886.293 -4.08394 1.03886 0
M  V30 9744 H 884.968 -3.23076 0.200868 0
M  V30 9745 H 883.875 -2.80238 2.47825 0
M  V30 9746 H 885.208 -3.70008 3.24584 0
M  V30 9747 N 886.86 -1.21182 -1.00761 0
M  V30 9748 C 887.807 -0.968741 -2.09485 0
M  V30 9749 C 888.777 0.104325 -1.65772 0
M  V30 9750 O 889.962 -0.0422587 -1.90753 0
M  V30 9751 C 887.102 -0.536686 -3.40901 0
M  V30 9752 C 886.215 -1.6789 -3.98041 0
M  V30 9753 C 885.35 -1.19627 -5.17555 0
M  V30 9754 C 884.389 -2.31099 -5.66798 0
M  V30 9755 N 883.526 -1.83988 -6.77564 0
M  V30 9756 H 888.366 -1.89952 -2.29613 0
M  V30 9757 H 885.903 -0.946688 -1.12589 0
M  V30 9758 H 887.861 -0.26745 -4.16342 0
M  V30 9759 H 886.491 0.357092 -3.20819 0
M  V30 9760 H 885.543 -2.06284 -3.19611 0
M  V30 9761 H 886.855 -2.51794 -4.30582 0
M  V30 9762 H 886.009 -0.883539 -6.00232 0
M  V30 9763 H 884.748 -0.327244 -4.86601 0
M  V30 9764 H 883.753 -2.63178 -4.82719 0
M  V30 9765 H 884.978 -3.18493 -5.99782 0
M  V30 9766 H 882.924 -0.994257 -6.48422 0
M  V30 9767 H 882.841 -2.61466 -7.09346 0
M  V30 9768 H 884.109 -1.55741 -7.63783 0
M  V30 9769 N 888.338 1.20213 -1.01915 0
M  V30 9770 C 889.584 1.89928 -0.711007 0
M  V30 9771 C 889.917 1.7881 0.75767 0
M  V30 9772 O 889.192 1.17399 1.55073 0
M  V30 9773 C 889.475 3.41225 -1.15053 0
M  V30 9774 C 889.328 3.61264 -2.67971 0
M  V30 9775 C 890.647 4.34108 -0.72377 0
M  V30 9776 H 887.766 0.689702 -0.259768 0
M  V30 9777 H 890.408 1.41557 -1.26734 0
M  V30 9778 H 888.558 3.82552 -0.677199 0
M  V30 9779 H 890.23 3.29173 -3.23176 0
M  V30 9780 H 888.473 3.04647 -3.08824 0
M  V30 9781 H 889.144 4.67331 -2.93779 0
M  V30 9782 H 891.62 4.00442 -1.13073 0
M  V30 9783 H 890.496 5.38581 -1.05931 0
M  V30 9784 H 890.757 4.40512 0.374424 0
M  V30 9785 N 889.816 0.795718 1.36037 0
M  V30 9786 C 890.726 0.199784 2.33748 0
M  V30 9787 C 891.742 -0.651436 1.61345 0
M  V30 9788 O 892.918 -0.565743 1.93291 0
M  V30 9789 C 889.983 -0.650475 3.40543 0
M  V30 9790 C 889.044 0.219974 4.28736 0
M  V30 9791 C 888.277 -0.589798 5.30431 0
M  V30 9792 O 888.5 -1.82532 5.40406 0
M  V30 9793 O 887.434 0.0136187 6.01898 0
M  V30 9794 H 891.26 1.00782 2.8649 0
M  V30 9795 H 888.845 0.557293 1.38617 0
M  V30 9796 H 890.727 -1.13512 4.05824 0
M  V30 9797 H 889.402 -1.4363 2.9009 0
M  V30 9798 H 888.309 0.751516 3.66474 0
M  V30 9799 H 889.642 0.969468 4.82558 0
M  V30 9800 N 891.294 -1.47756 0.548274 0
M  V30 9801 C 892.241 -2.29893 -0.204408 0
M  V30 9802 C 893.211 -1.38509 -0.916761 0
M  V30 9803 O 894.396 -1.67472 -0.91421 0
M  V30 9804 C 891.536 -3.22282 -1.23403 0
M  V30 9805 C 890.649 -4.28753 -0.528654 0
M  V30 9806 C 889.784 -5.08303 -1.54279 0
M  V30 9807 C 888.823 -6.06557 -0.821893 0
M  V30 9808 N 887.96 -6.79098 -1.78243 0
M  V30 9809 H 892.8 -2.93739 0.502163 0
M  V30 9810 H 890.337 -1.44793 0.259471 0
M  V30 9811 H 892.295 -3.74262 -1.84348 0
M  V30 9812 H 890.925 -2.6032 -1.90875 0
M  V30 9813 H 889.977 -3.79899 0.195132 0
M  V30 9814 H 891.289 -4.98787 0.0365066 0
M  V30 9815 H 890.443 -5.64388 -2.22602 0
M  V30 9816 H 889.182 -4.3815 -2.14186 0
M  V30 9817 H 888.187 -5.49659 -0.12469 0
M  V30 9818 H 889.412 -6.78715 -0.228685 0
M  V30 9819 H 887.358 -6.11682 -2.37025 0
M  V30 9820 H 887.275 -7.4527 -1.26919 0
M  V30 9821 H 888.543 -7.39762 -2.45709 0
M  V30 9822 N 892.772 -0.284283 -1.55015 0
M  V30 9823 C 894.018 0.330352 -2.00091 0
M  V30 9824 C 894.351 1.54814 -1.17244 0
M  V30 9825 O 893.626 1.92954 -0.244753 0
M  V30 9826 C 893.909 0.703492 -3.53161 0
M  V30 9827 C 893.762 -0.522275 -4.46758 0
M  V30 9828 C 895.081 1.53645 -4.12409 0
M  V30 9829 H 892.2 0.118599 -0.727395 0
M  V30 9830 H 894.842 -0.393054 -1.8589 0
M  V30 9831 H 892.992 1.31983 -3.65394 0
M  V30 9832 H 894.664 -1.16082 -4.46456 0
M  V30 9833 H 892.907 -1.15865 -4.1804 0
M  V30 9834 H 893.578 -0.217295 -5.51572 0
M  V30 9835 H 896.054 1.01583 -4.0351 0
M  V30 9836 H 894.93 1.76633 -5.19704 0
M  V30 9837 H 895.191 2.5204 -3.63219 0
M  V30 9838 N 894.251 1.57596 -0.0117121 0
M  V30 9839 C 895.497 1.91355 0.671661 0
M  V30 9840 C 895.83 0.886818 1.72769 0
M  V30 9841 O 895.105 -0.0928813 1.94278 0
M  V30 9842 C 895.388 3.35657 1.30409 0
M  V30 9843 C 895.241 4.49055 0.2588 0
M  V30 9844 C 896.56 3.79595 2.22701 0
M  V30 9845 H 893.679 0.695893 0.242698 0
M  V30 9846 H 896.321 1.89887 -0.0654071 0
M  V30 9847 H 894.471 3.37038 1.9323 0
M  V30 9848 H 896.143 4.59809 -0.370631 0
M  V30 9849 H 894.386 4.31785 -0.417672 0
M  V30 9850 H 895.057 5.4701 0.740578 0
M  V30 9851 H 897.533 3.7984 1.69885 0
M  V30 9852 H 896.409 4.81292 2.63912 0
M  V30 9853 H 896.67 3.14118 3.11098 0
M  V30 9854 N 895.729 -0.261212 1.5542 0
M  V30 9855 C 896.975 -0.992699 1.76843 0
M  V30 9856 C 897.308 -1.8551 0.574428 0
M  V30 9857 O 896.583 -1.89739 -0.427713 0
M  V30 9858 C 896.866 -1.86532 3.08022 0
M  V30 9859 C 896.719 -1.03206 4.378 0
M  V30 9860 C 898.038 -2.85036 3.35324 0
M  V30 9861 H 895.157 -0.359473 0.643388 0
M  V30 9862 H 897.799 -0.264214 1.88154 0
M  V30 9863 H 895.949 -2.48644 2.9851 0
M  V30 9864 H 897.621 -0.430743 4.59285 0
M  V30 9865 H 895.864 -0.335911 4.32497 0
M  V30 9866 H 896.535 -1.6761 5.25938 0
M  V30 9867 H 899.011 -2.3306 3.44706 0
M  V30 9868 H 897.887 -3.43226 4.28354 0
M  V30 9869 H 898.148 -3.60768 2.55537 0
M  V30 9870 N 897.207 -1.48554 -0.526253 0
M  V30 9871 C 898.455 -1.56452 -1.27935 0
M  V30 9872 C 898.776 -0.24184 -1.93495 0
M  V30 9873 O 898.046 0.736917 -1.81511 0
M  V30 9874 H 896.626 -0.576379 -0.47518 0
M  V30 9875 H 899.288 -1.85039 -0.612083 0
M  V30 9876 H 898.384 -2.34751 -2.05666 0
M  V30 9877 N 898.685 0.775411 -1.37205 0
M  V30 9878 C 899.617 1.89761 -1.28544 0
M  V30 9879 C 900.63 1.61542 -0.201996 0
M  V30 9880 O 901.819 1.72528 -0.457848 0
M  V30 9881 C 898.919 3.24904 -0.963885 0
M  V30 9882 C 898.092 3.80796 -2.15205 0
M  V30 9883 C 897.151 4.94407 -1.80135 0
M  V30 9884 O 896.177 5.10185 -2.52388 0
M  V30 9885 N 897.379 5.75722 -0.743298 0
M  V30 9886 H 900.144 1.97708 -2.25237 0
M  V30 9887 H 897.705 0.954348 -1.30782 0
M  V30 9888 H 899.697 3.9842 -0.710182 0
M  V30 9889 H 898.267 3.12483 -0.085632 0
M  V30 9890 H 897.487 2.99101 -2.56773 0
M  V30 9891 H 898.775 4.1487 -2.94552 0
M  V30 9892 H 898.173 5.65518 -0.143655 0
M  V30 9893 H 896.73 6.4948 -0.549446 0
M  V30 9894 N 900.163 1.21714 1.00117 0
M  V30 9895 C 901.579 0.97532 1.26332 0
M  V30 9896 C 901.779 -0.336029 1.98678 0
M  V30 9897 O 900.835 -1.06073 2.29139 0
M  V30 9898 C 902.148 2.16848 2.0832 0
M  V30 9899 C 903.696 2.21115 2.21533 0
M  V30 9900 C 904.171 3.3996 3.06906 0
M  V30 9901 N 905.662 3.40071 3.14494 0
M  V30 9902 C 906.397 4.28678 3.80818 0
M  V30 9903 N 905.893 5.2749 4.49139 0
M  V30 9904 N 907.686 4.16476 3.77497 0
M  V30 9905 H 899.837 2.06039 0.515897 0
M  V30 9906 H 902.1 0.902423 0.290408 0
M  V30 9907 H 901.806 3.119 1.62515 0
M  V30 9908 H 901.68 2.16226 3.09073 0
M  V30 9909 H 904.067 1.26616 2.66557 0
M  V30 9910 H 904.148 2.2578 1.20238 0
M  V30 9911 H 903.792 4.34755 2.62585 0
M  V30 9912 H 903.722 3.32534 4.08324 0
M  V30 9913 H 906.213 2.68563 2.65861 0
M  V30 9914 H 906.526 5.91397 4.97463 0
M  V30 9915 H 904.871 5.31412 4.47914 0
M  V30 9916 H 908.062 3.38539 3.23278 0
M  V30 9917 H 908.235 4.85739 4.28908 0
M  V30 9918 N 901.641 -1.19671 1.02551 0
M  V30 9919 C 902.89 -1.88591 0.715272 0
M  V30 9920 C 903.203 -1.80274 -0.758982 0
M  V30 9921 O 904.409 -2.44413 -1.18213 0
M  V30 9922 C 902.865 -3.38264 1.22905 0
M  V30 9923 C 902.473 -3.55146 2.73084 0
M  V30 9924 C 904.217 -4.12683 0.994649 0
M  V30 9925 C 902.124 -4.98693 3.17897 0
M  V30 9926 H 901.054 -0.706326 0.263857 0
M  V30 9927 H 903.705 -1.35322 1.23936 0
M  V30 9928 H 902.087 -3.9091 0.632892 0
M  V30 9929 H 903.261 -3.12845 3.38326 0
M  V30 9930 H 901.576 -2.94112 2.94766 0
M  V30 9931 H 904.173 -5.18536 1.30478 0
M  V30 9932 H 904.516 -4.16243 -0.0686466 0
M  V30 9933 H 905.049 -3.66164 1.55464 0
M  V30 9934 H 901.788 -5.00293 4.23542 0
M  V30 9935 H 901.308 -5.4177 2.57381 0
M  V30 9936 H 902.987 -5.67327 3.11045 0
M  V30 9937 N 903.119 -0.802921 -1.35613 0
M  V30 9938 C 904.347 -0.39393 -2.03115 0
M  V30 9939 C 904.762 0.993961 -1.60517 0
M  V30 9940 O 904.119 1.63984 -0.800973 0
M  V30 9941 C 904.17 -0.463486 -3.58516 0
M  V30 9942 O 903.891 -1.79666 -3.99565 0
M  V30 9943 C 905.392 -0.0468377 -4.43275 0
M  V30 9944 H 902.612 -0.160519 -0.651517 0
M  V30 9945 H 905.156 -1.08552 -1.73311 0
M  V30 9946 H 903.311 0.179821 -3.86982 0
M  V30 9947 H 903.725 -1.75688 -4.942 0
M  V30 9948 H 905.199 -0.146626 -5.51805 0
M  V30 9949 H 905.676 1.00741 -4.2749 0
M  V30 9950 H 906.282 -0.663158 -4.20098 0
M  V30 9951 N 904.597 1.47463 -0.556102 0
M  V30 9952 C 905.874 1.9557 0.0339892 0
M  V30 9953 C 906.254 1.49869 1.48669 0
M  V30 9954 O 905.602 0.737019 2.16288 0
M  V30 9955 C 905.812 3.48826 -0.110343 0
M  V30 9956 C 907.16 4.24585 0.0355716 0
M  V30 9957 O 908.184 3.5618 -0.0378356 0
M  V30 9958 O 907.043 5.46158 0.193299 0
M  V30 9959 H 904.137 0.824461 0.0647521 0
M  V30 9960 H 906.683 1.57868 -0.622547 0
M  V30 9961 H 905.455 3.74891 -1.12126 0
M  V30 9962 H 905.078 3.9329 0.583855 0
M  V30 9963 N 906.075 0.2925 1.54862 0
M  V30 9964 C 907.3 -0.32494 2.04839 0
M  V30 9965 C 907.725 -1.47381 1.16877 0
M  V30 9966 O 907.083 -1.80492 0.171028 0
M  V30 9967 C 907.131 -0.76694 3.5235 0
M  V30 9968 O 906.235 -1.87256 3.67436 0
M  V30 9969 H 905.576 -0.0645195 0.660858 0
M  V30 9970 H 908.106 0.431867 1.9999 0
M  V30 9971 H 908.116 -1.05804 3.94043 0
M  V30 9972 H 906.791 0.0735212 4.15835 0
M  V30 9973 H 905.368 -1.58266 3.37648 0
M  V30 9974 N 907.553 -1.57587 0.0200696 0
M  V30 9975 C 908.964 -1.79312 -0.520019 0
M  V30 9976 C 909.315 -0.929475 -1.72787 0
M  V30 9977 O 908.44 -0.137389 -2.15963 0
M  V30 9978 C 909.035 -3.25203 -0.950172 0
M  V30 9979 C 907.594 -3.47954 -1.43543 0
M  V30 9980 C 906.741 -2.74459 -0.395917 0
M  V30 9981 H 909.692 -1.56779 0.246153 0
M  V30 9982 H 909.713 -3.34418 -1.81508 0
M  V30 9983 H 909.225 -3.88035 -0.070883 0
M  V30 9984 H 907.326 -2.90363 -2.33495 0
M  V30 9985 H 907.439 -4.56661 -1.44905 0
M  V30 9986 H 905.803 -2.39669 -0.862022 0
M  V30 9987 H 906.586 -3.40001 0.47475 0
M  V30 9988 N 909.032 0.252966 -1.55557 0
M  V30 9989 C 910.272 0.989276 -1.78865 0
M  V30 9990 C 910.636 1.82755 -0.588615 0
M  V30 9991 O 911.837 2.59516 -0.700347 0
M  V30 9992 C 910.108 1.83203 -3.06874 0
M  V30 9993 S 911.667 2.62826 -3.5138 0
M  V30 9994 H 908.485 0.332863 -0.62827 0
M  V30 9995 H 911.087 0.257716 -1.93794 0
M  V30 9996 H 909.791 1.20579 -3.92287 0
M  V30 9997 H 909.322 2.60644 -2.94666 0
M  V30 9998 H 911.337 3.85648 -3.12234 0
M  V30 9999 N 910.51 1.48831 0.518367 0
M  V30 10000 C 911.756 1.57672 1.27543 0
M  V30 10001 C 912.089 0.254915 1.9252 0
M  V30 10002 O 911.364 -0.740107 1.79868 0
M  V30 10003 C 911.647 2.72345 2.35585 0
M  V30 10004 C 911.5 4.14267 1.75224 0
M  V30 10005 C 912.819 2.82726 3.37274 0
M  V30 10006 H 909.938 0.573926 0.462361 0
M  V30 10007 H 912.58 1.8105 0.576267 0
M  V30 10008 H 910.73 2.52543 2.95219 0
M  V30 10009 H 912.402 4.45539 1.19551 0
M  V30 10010 H 910.645 4.20724 1.05706 0
M  V30 10011 H 911.316 4.90345 2.53507 0
M  V30 10012 H 913.792 3.00699 2.8761 0
M  V30 10013 H 912.668 3.6467 4.10252 0
M  V30 10014 H 912.929 1.9136 3.9854 0
M  V30 10015 N 911.988 -0.768124 1.37614 0
M  V30 10016 C 912.918 -1.89537 1.36374 0
M  V30 10017 C 913.899 -1.68513 0.231803 0
M  V30 10018 O 915.084 -1.89318 0.432705 0
M  V30 10019 C 912.214 -3.26871 1.17358 0
M  V30 10020 C 911.168 -3.62466 2.27602 0
M  V30 10021 C 910.494 -4.9838 1.93705 0
M  V30 10022 C 911.794 -3.68841 3.69802 0
M  V30 10023 H 913.488 -1.90832 2.30702 0
M  V30 10024 H 911.034 -0.91672 1.11051 0
M  V30 10025 H 912.987 -4.05371 1.15119 0
M  V30 10026 H 911.711 -3.26018 0.194865 0
M  V30 10027 H 910.37 -2.86276 2.29002 0
M  V30 10028 H 910.018 -4.94071 0.943539 0
M  V30 10029 H 909.718 -5.23165 2.6753 0
M  V30 10030 H 911.242 -5.79276 1.93059 0
M  V30 10031 H 912.656 -4.37485 3.70513 0
M  V30 10032 H 911.053 -4.05126 4.42711 0
M  V30 10033 H 912.123 -2.69415 4.03167 0
M  V30 10034 N 913.466 -1.22244 -0.994698 0
M  V30 10035 C 914.712 -1.04746 -1.73655 0
M  V30 10036 C 915.045 0.41668 -1.89677 0
M  V30 10037 O 914.32 1.30897 -1.43862 0
M  V30 10038 C 914.603 -1.75716 -3.14318 0
M  V30 10039 C 914.456 -3.29714 -3.05955 0
M  V30 10040 C 915.775 -1.50809 -4.13455 0
M  V30 10041 H 912.894 -0.381921 -0.630322 0
M  V30 10042 H 915.536 -1.50559 -1.15897 0
M  V30 10043 H 913.686 -1.3677 -3.63629 0
M  V30 10044 H 915.358 -3.78093 -2.64279 0
M  V30 10045 H 913.601 -3.59484 -2.42804 0
M  V30 10046 H 914.272 -3.74547 -4.05485 0
M  V30 10047 H 916.748 -1.84636 -3.72892 0
M  V30 10048 H 915.624 -2.02964 -5.09997 0
M  V30 10049 H 915.885 -0.440292 -4.39902 0
M  V30 10050 N 914.944 1.19125 -1.03184 0
M  V30 10051 C 916.172 1.92838 -0.74975 0
M  V30 10052 C 916.587 1.75667 0.691851 0
M  V30 10053 O 915.944 1.0805 1.47076 0
M  V30 10054 C 915.995 3.44509 -1.09525 0
M  V30 10055 O 915.716 3.6113 -2.48025 0
M  V30 10056 C 917.217 4.35338 -0.836397 0
M  V30 10057 H 914.437 0.61246 -0.274105 0
M  V30 10058 H 916.981 1.5118 -1.37712 0
M  V30 10059 H 915.136 3.83988 -0.513006 0
M  V30 10060 H 915.55 4.54959 -2.60984 0
M  V30 10061 H 917.024 5.4035 -1.12808 0
M  V30 10062 H 917.501 4.38602 0.229102 0
M  V30 10063 H 918.107 4.01544 -1.40152 0
M  V30 10064 N 916.422 0.810101 1.35185 0
M  V30 10065 C 917.647 0.40364 2.03434 0
M  V30 10066 C 918.072 -0.97857 1.60641 0
M  V30 10067 O 917.43 -1.63435 0.784779 0
M  V30 10068 C 917.478 0.499154 3.57129 0
M  V30 10069 O 916.582 -0.486039 4.09526 0
M  V30 10070 H 915.923 0.168049 0.642383 0
M  V30 10071 H 918.453 1.09696 1.72708 0
M  V30 10072 H 918.463 0.370236 4.06317 0
M  V30 10073 H 917.138 1.50733 3.87624 0
M  V30 10074 H 915.715 -0.31707 3.7155 0
M  V30 10075 N 917.9 -1.47166 0.563914 0
M  V30 10076 C 918.81 -2.33885 -0.182977 0
M  V30 10077 C 919.826 -1.48605 -0.905132 0
M  V30 10078 O 921.002 -1.81518 -0.872527 0
M  V30 10079 C 918.067 -3.25433 -1.19558 0
M  V30 10080 C 917.128 -4.26607 -0.480129 0
M  V30 10081 C 916.361 -5.1378 -1.44449 0
M  V30 10082 O 916.584 -5.03531 -2.67979 0
M  V30 10083 O 915.518 -5.94109 -0.965321 0
M  V30 10084 H 919.344 -2.99065 0.528544 0
M  V30 10085 H 916.929 -1.45834 0.324468 0
M  V30 10086 H 918.811 -3.81964 -1.77993 0
M  V30 10087 H 917.486 -2.62873 -1.8889 0
M  V30 10088 H 916.393 -3.73817 0.145583 0
M  V30 10089 H 917.726 -4.919 0.171868 0
M  V30 10090 N 919.378 -0.300708 -1.54705 0
M  V30 10091 C 920.625 0.308654 -2.00134 0
M  V30 10092 C 920.953 1.53918 -1.1891 0
M  V30 10093 O 920.208 1.94054 -0.253263 0
M  V30 10094 C 920.507 0.710108 -3.50275 0
M  V30 10095 C 920.173 -0.418651 -4.48952 0
M  V30 10096 C 918.835 -0.728524 -4.75653 0
M  V30 10097 C 921.187 -1.17797 -5.07714 0
M  V30 10098 C 918.515 -1.80085 -5.58378 0
M  V30 10099 C 920.867 -2.24022 -5.91606 0
M  V30 10100 C 919.531 -2.55616 -6.16617 0
M  V30 10101 H 918.801 0.112945 -0.732342 0
M  V30 10102 H 921.448 -0.419744 -1.86843 0
M  V30 10103 H 919.753 1.51859 -3.61173 0
M  V30 10104 H 921.45 1.19277 -3.8285 0
M  V30 10105 H 918.04 -0.167034 -4.28274 0
M  V30 10106 H 922.224 -0.951835 -4.87087 0
M  V30 10107 H 917.48 -2.05036 -5.75995 0
M  V30 10108 H 921.654 -2.83317 -6.36164 0
M  V30 10109 H 919.281 -3.38839 -6.80509 0
M  V30 10110 N 920.856 1.57574 -0.0284266 0
M  V30 10111 C 922.104 1.91393 0.649079 0
M  V30 10112 C 922.425 0.905368 1.72708 0
M  V30 10113 O 921.695 -0.0532107 1.95828 0
M  V30 10114 H 920.275 0.70646 0.24274 0
M  V30 10115 H 922.937 1.94752 -0.076066 0
M  V30 10116 H 922.033 2.91988 1.10226 0
M  V30 10117 N 922.334 -0.244713 1.55689 0
M  V30 10118 C 923.58 -0.969623 1.78801 0
M  V30 10119 C 923.935 -1.8288 0.597716 0
M  V30 10120 O 923.228 -1.87184 -0.408978 0
M  V30 10121 C 923.422 -1.8617 3.05083 0
M  V30 10122 C 923.251 -1.09036 4.36281 0
M  V30 10123 C 922.021 -0.794585 4.99013 0
M  V30 10124 C 924.219 -0.466883 5.12176 0
M  V30 10125 N 922.201 0.000579944 6.139 0
M  V30 10126 C 923.572 0.192755 6.197 0
M  V30 10127 C 925.627 -0.377571 4.96466 0
M  V30 10128 C 924.33 0.933132 7.13222 0
M  V30 10129 C 926.356 0.349281 5.90368 0
M  V30 10130 C 925.718 0.997549 6.97301 0
M  V30 10131 H 921.817 -0.335845 0.70621 0
M  V30 10132 H 924.401 -0.242559 1.93183 0
M  V30 10133 H 922.572 -2.56077 2.92026 0
M  V30 10134 H 924.304 -2.52234 3.16481 0
M  V30 10135 H 921.059 -1.10691 4.60483 0
M  V30 10136 H 921.483 0.38632 6.75897 0
M  V30 10137 H 926.125 -0.86443 4.13869 0
M  V30 10138 H 923.843 1.43159 7.95318 0
M  V30 10139 H 927.429 0.419082 5.80289 0
M  V30 10140 H 926.309 1.551 7.68709 0
M  V30 10141 N 923.813 -1.49104 -0.510467 0
M  V30 10142 C 925.038 -1.62068 -1.29417 0
M  V30 10143 C 925.463 -0.288432 -1.85875 0
M  V30 10144 O 924.821 0.742667 -1.65391 0
M  V30 10145 C 924.869 -2.68506 -2.40701 0
M  V30 10146 O 923.973 -2.27021 -3.4429 0
M  V30 10147 H 923.314 -0.542778 -0.382476 0
M  V30 10148 H 925.844 -1.95228 -0.612154 0
M  V30 10149 H 925.854 -2.90383 -2.86604 0
M  V30 10150 H 924.529 -3.65216 -1.98973 0
M  V30 10151 H 923.106 -2.15436 -3.04371 0
M  V30 10152 N 925.291 0.760815 -1.38019 0
M  V30 10153 C 926.254 1.85604 -1.34476 0
M  V30 10154 C 927.254 1.58897 -0.24666 0
M  V30 10155 O 928.444 1.66776 -0.50314 0
M  V30 10156 C 925.576 3.22945 -1.09176 0
M  V30 10157 H 926.769 1.90155 -2.31908 0
M  V30 10158 H 924.322 0.961746 -1.23208 0
M  V30 10159 H 925.057 3.24066 -0.123216 0
M  V30 10160 H 924.842 3.43723 -1.88672 0
M  V30 10161 H 926.332 4.03022 -1.09375 0
M  V30 10162 N 926.769 1.22769 0.988202 0
M  V30 10163 C 927.717 0.999271 2.10041 0
M  V30 10164 C 928.711 -0.0591767 1.69297 0
M  V30 10165 O 929.917 0.0936653 1.79756 0
M  V30 10166 H 926.292 0.30599 0.686931 0
M  V30 10167 H 928.263 1.94294 2.26478 0
M  V30 10168 C 927.012 0.59873 3.42506 0
M  V30 10169 H 926.335 1.40487 3.74304 0
M  V30 10170 H 927.775 0.478353 4.21293 0
M  V30 10171 C 926.234 -0.692216 3.29712 0
M  V30 10172 O 926.764 -1.74342 3.61895 0
M  V30 10173 N 924.97 -0.665163 2.82885 0
M  V30 10174 H 924.517 0.190604 2.56894 0
M  V30 10175 H 924.475 -1.52917 2.74706 0
M  V30 10176 N 928.247 -1.18576 1.03814 0
M  V30 10177 C 929.18 -2.20929 0.571463 0
M  V30 10178 C 930.158 -1.57788 -0.392636 0
M  V30 10179 O 931.342 -1.85974 -0.30754 0
M  V30 10180 C 928.469 -3.38295 -0.165504 0
M  V30 10181 C 927.515 -4.19828 0.751457 0
M  V30 10182 S 928.348 -4.86725 2.23291 0
M  V30 10183 C 929.504 -6.07494 1.50672 0
M  V30 10184 H 929.737 -2.60173 1.43866 0
M  V30 10185 H 927.27 -1.2897 0.84888 0
M  V30 10186 H 929.228 -4.06317 -0.584545 0
M  V30 10187 H 927.889 -2.97468 -1.00855 0
M  V30 10188 H 927.082 -5.03671 0.181986 0
M  V30 10189 H 926.684 -3.57172 1.10923 0
M  V30 10190 H 928.976 -6.72779 0.798377 0
M  V30 10191 H 929.919 -6.68942 2.3221 0
M  V30 10192 H 930.327 -5.55569 1.00016 0
M  V30 10193 N 929.725 -0.817259 -1.34754 0
M  V30 10194 C 930.635 -0.236946 -2.334 0
M  V30 10195 C 931.651 0.625685 -1.62361 0
M  V30 10196 O 932.827 0.534921 -1.94166 0
M  V30 10197 C 929.892 0.596215 -3.41535 0
M  V30 10198 C 928.953 -0.288154 -4.28332 0
M  V30 10199 C 928.186 0.505337 -5.31302 0
M  V30 10200 O 928.409 1.73912 -5.43241 0
M  V30 10201 O 927.343 -0.109374 -6.01801 0
M  V30 10202 H 931.169 -1.05327 -2.84851 0
M  V30 10203 H 928.754 -0.579275 -1.37713 0
M  V30 10204 H 930.636 1.07041 -4.07578 0
M  V30 10205 H 929.311 1.38997 -2.92338 0
M  V30 10206 H 928.218 -0.809724 -3.65232 0
M  V30 10207 H 929.551 -1.04612 -4.80955 0
M  V30 10208 N 931.203 1.46865 -0.571711 0
M  V30 10209 C 932.619 1.57897 -0.23255 0
M  V30 10210 C 932.819 1.56836 1.26509 0
M  V30 10211 O 931.875 1.47947 2.04617 0
M  V30 10212 C 933.188 2.87778 -0.872036 0
M  V30 10213 C 934.736 3.01389 -0.844605 0
M  V30 10214 C 935.211 4.33991 -1.46343 0
M  V30 10215 N 936.702 4.40662 -1.42727 0
M  V30 10216 C 937.437 5.41858 -1.87557 0
M  V30 10217 N 936.933 6.49787 -2.4031 0
M  V30 10218 N 938.726 5.32992 -1.7854 0
M  V30 10219 H 930.877 1.45798 -1.54457 0
M  V30 10220 H 933.14 0.694785 -0.644964 0
M  V30 10221 H 932.846 2.94332 -1.92513 0
M  V30 10222 H 932.72 3.75345 -0.373677 0
M  V30 10223 H 935.107 2.94423 0.19984 0
M  V30 10224 H 935.188 2.15327 -1.38087 0
M  V30 10225 H 934.832 4.41714 -2.50701 0
M  V30 10226 H 934.762 5.18809 -0.902479 0
M  V30 10227 H 937.253 3.63263 -1.04155 0
M  V30 10228 H 937.566 7.23199 -2.72403 0
M  V30 10229 H 935.911 6.50637 -2.44329 0
M  V30 10230 H 939.102 4.47575 -1.37093 0
M  V30 10231 H 939.275 6.11716 -2.13794 0
M  V30 10232 N 932.681 0.308908 1.54543 0
M  V30 10233 C 933.93 -0.298854 1.99474 0
M  V30 10234 C 934.243 -1.54393 1.20093 0
M  V30 10235 O 935.449 -2.22677 1.55329 0
M  V30 10236 C 933.905 -0.58303 3.55146 0
M  V30 10237 C 933.513 0.644157 4.43345 0
M  V30 10238 C 935.257 -1.15155 4.08582 0
M  V30 10239 C 933.164 0.332694 5.90463 0
M  V30 10240 H 932.094 -0.115445 0.74511 0
M  V30 10241 H 934.745 0.418848 1.78656 0
M  V30 10242 H 933.127 -1.36053 3.71894 0
M  V30 10243 H 934.301 1.42012 4.38371 0
M  V30 10244 H 932.616 1.13186 4.00722 0
M  V30 10245 H 935.213 -1.39896 5.16075 0
M  V30 10246 H 935.556 -2.09632 3.59667 0
M  V30 10247 H 936.089 -0.435571 3.95408 0
M  V30 10248 H 932.828 1.24624 6.43544 0
M  V30 10249 H 932.348 -0.405844 5.98425 0
M  V30 10250 H 934.027 -0.0628545 6.46969 0
M  V30 10251 N 934.159 -1.57557 0.0367827 0
M  V30 10252 C 935.092 -2.06205 -0.977479 0
M  V30 10253 C 936.07 -0.959444 -1.31276 0
M  V30 10254 O 937.254 -1.23033 -1.42811 0
M  V30 10255 C 934.381 -2.49053 -2.29544 0
M  V30 10256 C 933.427 -3.70409 -2.11423 0
M  V30 10257 S 934.26 -5.16715 -1.40593 0
M  V30 10258 C 935.416 -5.62864 -2.73742 0
M  V30 10259 H 935.649 -2.91913 -0.5634 0
M  V30 10260 H 933.182 -1.53404 -0.175111 0
M  V30 10261 H 935.14 -2.74403 -3.05308 0
M  V30 10262 H 933.801 -1.63677 -2.68083 0
M  V30 10263 H 932.994 -3.98262 -3.08875 0
M  V30 10264 H 932.596 -3.4525 -1.438 0
M  V30 10265 H 934.888 -5.67571 -3.69958 0
M  V30 10266 H 935.831 -6.62294 -2.50544 0
M  V30 10267 H 936.239 -4.90539 -2.79341 0
M  V30 10268 N 935.637 0.236453 -1.55816 0
M  V30 10269 C 936.584 1.29289 -1.91188 0
M  V30 10270 C 937.554 1.47315 -0.767301 0
M  V30 10271 O 938.739 1.61128 -1.02189 0
M  V30 10272 C 935.879 2.64126 -2.22107 0
M  V30 10273 C 934.992 2.54022 -3.49423 0
M  V30 10274 C 934.127 3.81282 -3.69861 0
M  V30 10275 C 933.166 3.65839 -4.90743 0
M  V30 10276 N 932.303 4.85014 -5.07647 0
M  V30 10277 H 937.143 0.98424 -2.81277 0
M  V30 10278 H 934.68 0.474722 -1.39229 0
M  V30 10279 H 936.638 3.42626 -2.3804 0
M  V30 10280 H 935.268 2.93118 -1.35209 0
M  V30 10281 H 934.32 1.67036 -3.41765 0
M  V30 10282 H 935.632 2.38525 -4.38072 0
M  V30 10283 H 934.786 4.68226 -3.8581 0
M  V30 10284 H 933.525 3.99688 -2.79465 0
M  V30 10285 H 932.53 2.77279 -4.74759 0
M  V30 10286 H 933.755 3.48918 -5.82609 0
M  V30 10287 H 931.701 5.03762 -4.20191 0
M  V30 10288 H 931.618 4.72188 -5.90402 0
M  V30 10289 H 932.886 5.73427 -5.28017 0
M  V30 10290 N 937.115 1.49373 0.502552 0
M  V30 10291 C 938.078 1.65413 1.58654 0
M  V30 10292 C 939.078 0.526003 1.51953 0
M  V30 10293 O 940.268 0.792421 1.55133 0
M  V30 10294 C 937.4 1.65005 2.98306 0
M  V30 10295 H 938.593 2.62095 1.45762 0
M  V30 10296 H 936.146 1.38381 0.726672 0
M  V30 10297 H 936.881 0.699014 3.16677 0
M  V30 10298 H 936.666 2.46931 3.04578 0
M  V30 10299 H 938.156 1.79477 3.77065 0
M  V30 10300 N 938.594 -0.753485 1.38421 0
M  V30 10301 C 939.526 -1.87692 1.31547 0
M  V30 10302 C 940.539 -1.612 0.227671 0
M  V30 10303 O 941.728 -1.71778 0.485238 0
M  V30 10304 C 938.828 -3.23329 1.01545 0
M  V30 10305 C 938.001 -3.77324 2.21236 0
M  V30 10306 C 937.06 -4.91478 1.87977 0
M  V30 10307 O 936.086 -5.06106 2.60472 0
M  V30 10308 N 937.288 -5.74466 0.834796 0
M  V30 10309 H 940.053 -1.94099 2.28354 0
M  V30 10310 H 937.614 -0.933421 1.32283 0
M  V30 10311 H 939.606 -3.9724 0.773477 0
M  V30 10312 H 938.176 -3.12307 0.135334 0
M  V30 10313 H 937.396 -2.94978 2.61498 0
M  V30 10314 H 938.684 -4.10131 3.01115 0
M  V30 10315 H 938.082 -5.65217 0.233606 0
M  V30 10316 H 936.639 -6.48524 0.652703 0
M  V30 10317 N 940.072 -1.23292 -0.981677 0
M  V30 10318 C 941.035 -1.01417 -2.05542 0
M  V30 10319 C 942.035 0.0235354 -1.60783 0
M  V30 10320 O 943.225 -0.216082 -1.72855 0
M  V30 10321 C 940.357 -0.534239 -3.36688 0
M  V30 10322 H 941.55 -1.96702 -2.26381 0
M  V30 10323 H 939.103 -1.05318 -1.1549 0
M  V30 10324 H 939.838 0.422452 -3.21537 0
M  V30 10325 H 939.623 -1.28304 -3.70514 0
M  V30 10326 H 941.113 -0.40179 -4.15663 0
M  V30 10327 N 941.55 1.18024 -1.04442 0
M  V30 10328 C 942.48 2.23988 -0.659683 0
M  V30 10329 C 943.461 1.6669 0.338904 0
M  V30 10330 O 944.646 1.92971 0.21817 0
M  V30 10331 C 941.776 3.4729 -0.0257672 0
M  V30 10332 C 940.73 4.17362 -0.948299 0
M  V30 10333 C 940.056 5.34401 -0.17866 0
M  V30 10334 C 941.356 4.70435 -2.26909 0
M  V30 10335 H 943.05 2.56425 -1.54553 0
M  V30 10336 H 940.596 1.23256 -0.744575 0
M  V30 10337 H 942.549 4.20627 0.255131 0
M  V30 10338 H 941.273 3.14098 0.894981 0
M  V30 10339 H 939.932 3.45928 -1.21364 0
M  V30 10340 H 939.58 4.97458 0.744614 0
M  V30 10341 H 939.28 5.8222 -0.793294 0
M  V30 10342 H 940.804 6.10526 0.0951315 0
M  V30 10343 H 942.218 5.35447 -2.04864 0
M  V30 10344 H 940.615 5.28803 -2.83703 0
M  V30 10345 H 941.685 3.87653 -2.91296 0
M  V30 10346 N 943.028 0.824394 1.34319 0
M  V30 10347 C 944.444 0.510336 1.51221 0
M  V30 10348 C 944.644 -0.965201 1.76879 0
M  V30 10349 O 943.7 -1.74961 1.82057 0
M  V30 10350 C 945.013 1.37114 2.6762 0
M  V30 10351 C 946.561 1.36842 2.81502 0
M  V30 10352 C 947.036 2.21374 4.00946 0
M  V30 10353 N 948.527 2.19005 4.08156 0
M  V30 10354 C 949.262 2.81159 4.99737 0
M  V30 10355 N 948.758 3.52309 5.96532 0
M  V30 10356 N 950.551 2.70706 4.9262 0
M  V30 10357 H 942.702 1.77976 1.15924 0
M  V30 10358 H 944.965 0.758503 0.568663 0
M  V30 10359 H 944.671 2.41905 2.55294 0
M  V30 10360 H 944.545 1.03689 3.62669 0
M  V30 10361 H 946.932 0.328284 2.93268 0
M  V30 10362 H 947.013 1.74265 1.87257 0
M  V30 10363 H 946.657 3.25437 3.8994 0
M  V30 10364 H 946.587 1.813 4.94407 0
M  V30 10365 H 949.078 1.67252 3.38874 0
M  V30 10366 H 949.391 3.96977 6.63045 0
M  V30 10367 H 947.736 3.56415 5.96652 0
M  V30 10368 H 950.927 2.14694 4.15962 0
M  V30 10369 H 951.1 3.19431 5.63798 0
M  V30 10370 N 944.506 -1.46559 0.579492 0
M  V30 10371 C 945.783 -1.956 -0.00287136 0
M  V30 10372 C 946.163 -1.52215 -1.46266 0
M  V30 10373 O 945.511 -0.771335 -2.15088 0
M  V30 10374 C 945.721 -3.48606 0.165824 0
M  V30 10375 C 947.069 -4.24588 0.0319807 0
M  V30 10376 O 948.093 -3.56075 0.094496 0
M  V30 10377 O 946.952 -5.46396 -0.106386 0
M  V30 10378 H 944.046 -0.825387 -0.0516274 0
M  V30 10379 H 946.592 -1.56858 0.647584 0
M  V30 10380 H 945.364 -3.7306 1.18076 0
M  V30 10381 H 944.987 -3.94169 -0.521212 0
M  V30 10382 N 945.984 -0.3171 -1.54377 0
M  V30 10383 C 946.932 0.567371 -2.25574 0
M  V30 10384 C 947.926 1.12387 -1.2675 0
M  V30 10385 O 949.132 1.07266 -1.44548 0
M  V30 10386 H 945.507 0.201605 -0.724472 0
M  V30 10387 H 947.478 -0.0554644 -2.98348 0
M  V30 10388 C 946.227 1.71984 -3.02187 0
M  V30 10389 H 945.55 1.30086 -3.78044 0
M  V30 10390 H 946.99 2.31443 -3.5526 0
M  V30 10391 C 945.449 2.6336 -2.10103 0
M  V30 10392 O 945.979 3.64899 -1.67962 0
M  V30 10393 N 944.185 2.3145 -1.75725 0
M  V30 10394 H 943.732 1.48921 -2.10191 0
M  V30 10395 H 943.69 2.92852 -1.14391 0
M  V30 10396 N 947.462 1.57535 -0.0451378 0
M  V30 10397 C 948.687 1.97172 0.64326 0
M  V30 10398 C 949.112 0.922266 1.63939 0
M  V30 10399 O 948.47 -0.115155 1.80934 0
M  V30 10400 C 948.518 3.35889 1.3119 0
M  V30 10401 O 947.622 3.33387 2.42748 0
M  V30 10402 H 946.963 0.642469 0.167719 0
M  V30 10403 H 949.493 2.04295 -0.111747 0
M  V30 10404 H 949.503 3.72481 1.66499 0
M  V30 10405 H 948.178 4.1181 0.581823 0
M  V30 10406 H 946.755 3.08533 2.09432 0
M  V30 10407 N 948.94 -0.228186 1.55939 0
M  V30 10408 C 949.873 -1.30971 1.86874 0
M  V30 10409 C 950.851 -1.45517 0.725496 0
M  V30 10410 O 952.035 -1.61436 0.973181 0
M  V30 10411 C 949.162 -2.68089 2.06992 0
M  V30 10412 C 948.208 -2.70594 3.29669 0
M  V30 10413 S 949.041 -2.25325 4.85787 0
M  V30 10414 C 950.197 -3.64331 5.08934 0
M  V30 10415 H 950.43 -1.04536 2.78315 0
M  V30 10416 H 947.963 -0.430103 1.48288 0
M  V30 10417 H 949.921 -3.47033 2.19267 0
M  V30 10418 H 948.582 -2.91752 1.16359 0
M  V30 10419 H 947.775 -3.71338 3.4077 0
M  V30 10420 H 947.377 -1.99708 3.16216 0
M  V30 10421 H 949.669 -4.59972 4.97425 0
M  V30 10422 H 950.612 -3.58151 6.10847 0
M  V30 10423 H 951.02 -3.57711 4.36695 0
M  V30 10424 N 950.418 -1.49637 -0.494624 0
M  V30 10425 C 951.646 -1.63164 -1.2722 0
M  V30 10426 C 952.061 -0.305552 -1.86311 0
M  V30 10427 O 951.418 0.709758 -1.68133 0
M  V30 10428 C 951.469 -2.70524 -2.39789 0
M  V30 10429 O 951.19 -3.97991 -1.83126 0
M  V30 10430 C 952.691 -2.94814 -3.31058 0
M  V30 10431 H 949.911 -0.54912 -0.385627 0
M  V30 10432 H 952.455 -1.95711 -0.593081 0
M  V30 10433 H 950.61 -2.40738 -3.03519 0
M  V30 10434 H 951.024 -4.57179 -2.57075 0
M  V30 10435 H 952.498 -3.73653 -4.06309 0
M  V30 10436 H 952.975 -2.04974 -3.88436 0
M  V30 10437 H 953.581 -3.26042 -2.73088 0
M  V30 10438 N 951.896 0.746133 -1.38819 0
M  V30 10439 C 953.121 1.54049 -1.38866 0
M  V30 10440 C 953.546 1.88092 0.0176624 0
M  V30 10441 O 952.904 1.51113 1.00173 0
M  V30 10442 C 952.952 2.8116 -2.25791 0
M  V30 10443 O 952.056 3.76623 -1.68014 0
M  V30 10444 H 951.397 0.465648 -0.473359 0
M  V30 10445 H 953.927 0.921469 -1.82675 0
M  V30 10446 H 953.937 3.30009 -2.39913 0
M  V30 10447 H 952.612 2.55713 -3.27999 0
M  V30 10448 H 951.189 3.35352 -1.63074 0
M  V30 10449 N 953.375 1.23811 0.975125 0
M  V30 10450 C 954.605 1.0986 1.7497 0
M  V30 10451 C 955.013 -0.352366 1.8589 0
M  V30 10452 O 954.356 -1.2553 1.34119 0
M  V30 10453 C 954.418 1.65584 3.19096 0
M  V30 10454 C 954.082 3.14395 3.3167 0
M  V30 10455 C 955.079 4.1163 3.17579 0
M  V30 10456 C 952.764 3.54208 3.56149 0
M  V30 10457 C 954.758 5.46661 3.27781 0
M  V30 10458 C 952.445 4.89382 3.65989 0
M  V30 10459 C 953.443 5.85418 3.51817 0
M  V30 10460 O 953.131 7.18135 3.61299 0
M  V30 10461 H 952.863 0.384854 0.555755 0
M  V30 10462 H 955.417 1.64242 1.23343 0
M  V30 10463 H 953.647 1.05627 3.71994 0
M  V30 10464 H 955.336 1.47032 3.78334 0
M  V30 10465 H 956.102 3.82214 2.98559 0
M  V30 10466 H 951.981 2.79968 3.66249 0
M  V30 10467 H 955.525 6.21601 3.16636 0
M  V30 10468 H 951.422 5.18473 3.84521 0
M  V30 10469 H 952.19 7.25956 3.78061 0
M  V30 10470 N 954.853 -1.17469 1.05066 0
M  V30 10471 C 955.786 -2.2031 0.594863 0
M  V30 10472 C 956.764 -1.58196 -0.375878 0
M  V30 10473 O 957.948 -1.8629 -0.287798 0
M  V30 10474 C 955.075 -3.38452 -0.129614 0
M  V30 10475 C 954.121 -4.19007 0.795943 0
M  V30 10476 S 954.954 -4.8433 2.28441 0
M  V30 10477 C 956.11 -6.05862 1.57107 0
M  V30 10478 H 956.343 -2.58632 1.46618 0
M  V30 10479 H 953.876 -1.28063 0.862511 0
M  V30 10480 H 955.834 -4.06914 -0.541416 0
M  V30 10481 H 954.495 -2.98521 -0.976948 0
M  V30 10482 H 953.688 -5.0345 0.235396 0
M  V30 10483 H 953.29 -3.55976 1.14705 0
M  V30 10484 H 955.582 -6.71895 0.86969 0
M  V30 10485 H 956.525 -6.66442 2.39292 0
M  V30 10486 H 956.933 -5.54477 1.05903 0
M  V30 10487 N 956.331 -0.831506 -1.3388 0
M  V30 10488 C 957.261 -0.274378 -2.31882 0
M  V30 10489 C 958.242 0.613872 -1.58637 0
M  V30 10490 O 959.427 0.538961 -1.86571 0
M  V30 10491 C 956.557 0.557498 -3.42796 0
M  V30 10492 C 955.511 -0.234337 -4.27358 0
M  V30 10493 C 954.837 0.720825 -5.29819 0
M  V30 10494 C 956.137 -1.44732 -5.01847 0
M  V30 10495 H 957.831 -1.09322 -2.78728 0
M  V30 10496 H 955.377 -0.527136 -1.34005 0
M  V30 10497 H 957.33 0.957501 -4.10378 0
M  V30 10498 H 956.054 1.40947 -2.94621 0
M  V30 10499 H 954.713 -0.61581 -3.61391 0
M  V30 10500 H 954.361 1.569 -4.77903 0
M  V30 10501 H 954.061 0.195171 -5.87276 0
M  V30 10502 H 955.585 1.1185 -6.00268 0
M  V30 10503 H 956.999 -1.12087 -5.62236 0
M  V30 10504 H 955.396 -1.90923 -5.68919 0
M  V30 10505 H 956.466 -2.22099 -4.31045 0
M  V30 10506 N 957.809 1.4625 -0.587256 0
M  V30 10507 C 959.034 2.07252 -0.0784517 0
M  V30 10508 C 959.459 1.43239 1.21919 0
M  V30 10509 O 958.817 0.517791 1.73749 0
M  V30 10510 C 958.865 3.60534 0.0691037 0
M  V30 10511 O 957.969 3.96773 1.12448 0
M  V30 10512 H 957.31 0.660825 -0.064859 0
M  V30 10513 H 959.84 1.87819 -0.811491 0
M  V30 10514 H 959.85 4.0708 0.273826 0
M  V30 10515 H 958.525 4.06516 -0.878514 0
M  V30 10516 H 957.102 3.6193 0.897852 0
M  V30 10517 N 959.287 0.325282 1.54207 0
M  V30 10518 C 960.234 -0.539889 2.24397 0
M  V30 10519 C 961.204 -1.11028 1.2354 0
M  V30 10520 O 962.389 -1.1503 1.52226 0
M  V30 10521 C 959.529 -1.69405 3.00659 0
M  V30 10522 C 958.642 -1.15273 4.16337 0
M  V30 10523 C 957.777 -2.27272 4.80126 0
M  V30 10524 C 956.816 -1.70397 5.87904 0
M  V30 10525 N 955.953 -2.76065 6.45548 0
M  V30 10526 H 960.793 0.0652318 2.97929 0
M  V30 10527 H 958.33 0.043964 1.47034 0
M  V30 10528 H 960.288 -2.37325 3.43122 0
M  V30 10529 H 958.918 -2.27043 2.29458 0
M  V30 10530 H 957.97 -0.365034 3.78645 0
M  V30 10531 H 959.282 -0.696576 4.93912 0
M  V30 10532 H 958.436 -3.03092 5.25566 0
M  V30 10533 H 957.175 -2.76224 4.01935 0
M  V30 10534 H 956.18 -0.930752 5.41864 0
M  V30 10535 H 957.405 -1.22319 6.67993 0
M  V30 10536 H 955.351 -3.24306 5.7023 0
M  V30 10537 H 955.268 -2.35018 7.18542 0
M  V30 10538 H 956.536 -3.5171 6.95644 0
M  V30 10539 N 960.765 -1.57509 0.0534917 0
M  V30 10540 C 961.712 -2.11667 -0.920101 0
M  V30 10541 C 962.682 -1.0246 -1.30733 0
M  V30 10542 O 963.867 -1.30021 -1.39639 0
M  V30 10543 C 961.007 -2.66803 -2.18883 0
M  V30 10544 C 960.12 -3.90104 -1.85588 0
M  V30 10545 C 959.255 -4.33547 -3.06937 0
M  V30 10546 C 958.294 -5.49542 -2.69573 0
M  V30 10547 N 957.431 -5.88029 -3.83623 0
M  V30 10548 H 962.271 -2.94562 -0.451371 0
M  V30 10549 H 959.808 -1.45576 -0.211168 0
M  V30 10550 H 961.766 -2.96871 -2.93127 0
M  V30 10551 H 960.396 -1.86702 -2.63329 0
M  V30 10552 H 959.448 -3.66613 -1.01484 0
M  V30 10553 H 960.76 -4.74404 -1.54087 0
M  V30 10554 H 959.914 -4.6518 -3.89477 0
M  V30 10555 H 958.653 -3.48064 -3.41618 0
M  V30 10556 H 957.658 -5.17579 -1.8545 0
M  V30 10557 H 958.883 -6.36743 -2.36082 0
M  V30 10558 H 956.829 -5.05498 -4.181 0
M  V30 10559 H 956.746 -6.67025 -3.55828 0
M  V30 10560 H 958.014 -6.24277 -4.66796 0
M  V30 10561 N 962.243 0.219913 -1.56058 0
M  V30 10562 C 963.492 0.942119 -1.78345 0
M  V30 10563 C 963.805 1.85435 -0.622344 0
M  V30 10564 O 965.011 2.61533 -0.728886 0
M  V30 10565 C 963.467 1.72544 -3.15843 0
M  V30 10566 C 963.075 0.859263 -4.39682 0
M  V30 10567 C 964.819 2.43876 -3.47455 0
M  V30 10568 C 962.726 1.64003 -5.68205 0
M  V30 10569 H 961.656 0.355514 -0.664925 0
M  V30 10570 H 964.307 0.195963 -1.82451 0
M  V30 10571 H 962.689 2.51456 -3.05918 0
M  V30 10572 H 963.863 0.110562 -4.60667 0
M  V30 10573 H 962.178 0.257985 -4.156 0
M  V30 10574 H 964.775 3.02794 -4.40704 0
M  V30 10575 H 965.118 3.16843 -2.7003 0
M  V30 10576 H 965.651 1.71952 -3.58716 0
M  V30 10577 H 962.39 0.953606 -6.48526 0
M  V30 10578 H 961.91 2.3633 -5.51279 0
M  V30 10579 H 963.589 2.20028 -6.08438 0
M  V30 10580 N 963.721 1.49897 0.486681 0
M  V30 10581 C 964.654 1.6224 1.60479 0
M  V30 10582 C 965.632 0.470964 1.5563 0
M  V30 10583 O 966.816 0.688418 1.75479 0
M  V30 10584 C 963.943 1.59059 2.99028 0
M  V30 10585 C 962.989 2.79575 3.22087 0
M  V30 10586 S 963.822 4.41077 3.03664 0
M  V30 10587 C 964.978 4.40564 4.44583 0
M  V30 10588 H 965.211 2.56822 1.49766 0
M  V30 10589 H 962.744 1.38966 0.672893 0
M  V30 10590 H 964.702 1.5791 3.78913 0
M  V30 10591 H 963.363 0.657405 3.07143 0
M  V30 10592 H 962.556 2.73609 4.23266 0
M  V30 10593 H 962.158 2.78211 2.49949 0
M  V30 10594 H 964.45 4.13166 5.36936 0
M  V30 10595 H 965.393 5.42068 4.55596 0
M  V30 10596 H 965.801 3.70461 4.25933 0
M  V30 10597 N 965.199 -0.738761 1.39212 0
M  V30 10598 C 966.109 -1.88324 1.39897 0
M  V30 10599 C 967.125 -1.71494 0.294229 0
M  V30 10600 O 968.301 -1.94162 0.535087 0
M  V30 10601 C 965.366 -3.23871 1.23726 0
M  V30 10602 C 964.427 -3.53121 2.44139 0
M  V30 10603 C 963.66 -4.82202 2.2873 0
M  V30 10604 O 963.883 -5.55649 1.28879 0
M  V30 10605 O 962.817 -5.11265 3.17634 0
M  V30 10606 H 966.643 -1.90701 2.36362 0
M  V30 10607 H 964.228 -0.886067 1.20288 0
M  V30 10608 H 966.11 -4.04882 1.16826 0
M  V30 10609 H 964.785 -3.22274 0.303551 0
M  V30 10610 H 963.692 -2.72212 2.56615 0
M  V30 10611 H 965.025 -3.59495 3.36191 0
M  V30 10612 N 966.677 -1.24326 -0.968545 0
M  V30 10613 C 967.926 -1.07647 -1.70572 0
M  V30 10614 C 968.239 0.384821 -1.91777 0
M  V30 10615 O 969.445 0.671782 -2.63058 0
M  V30 10616 C 967.901 -1.87799 -3.07017 0
M  V30 10617 C 967.509 -3.38333 -2.93658 0
M  V30 10618 C 969.253 -1.79647 -3.84613 0
M  V30 10619 C 967.16 -4.10831 -4.25407 0
M  V30 10620 H 966.09 -0.399216 -0.639642 0
M  V30 10621 H 968.741 -1.484 -1.07934 0
M  V30 10622 H 967.123 -1.3986 -3.7048 0
M  V30 10623 H 968.297 -3.93845 -2.39213 0
M  V30 10624 H 966.612 -3.47427 -2.29528 0
M  V30 10625 H 969.209 -2.31116 -4.82172 0
M  V30 10626 H 969.552 -0.761553 -4.09275 0
M  V30 10627 H 970.085 -2.25261 -3.27875 0
M  V30 10628 H 966.824 -5.14679 -4.05939 0
M  V30 10629 H 966.344 -3.60105 -4.79671 0
M  V30 10630 H 968.023 -4.17783 -4.94031 0
M  V30 10631 N 968.156 1.1691 -1.05688 0
M  V30 10632 C 969.104 2.2315 -0.656262 0
M  V30 10633 C 970.098 1.66256 0.324873 0
M  V30 10634 O 971.304 1.7899 0.190397 0
M  V30 10635 H 967.679 0.726527 -0.19407 0
M  V30 10636 H 969.65 2.54233 -1.56231 0
M  V30 10637 C 968.399 3.47661 -0.0522431 0
M  V30 10638 H 967.722 3.91749 -0.798299 0
M  V30 10639 H 969.162 4.23571 0.190626 0
M  V30 10640 C 967.621 3.14709 1.20248 0
M  V30 10641 O 968.151 3.29947 2.29124 0
M  V30 10642 N 966.357 2.68892 1.10207 0
M  V30 10643 H 965.904 2.56692 0.216063 0
M  V30 10644 H 965.862 2.47218 1.94244 0
M  V30 10645 N 969.634 0.838594 1.33437 0
M  V30 10646 C 970.597 0.276843 2.27522 0
M  V30 10647 C 971.597 -0.554275 1.50945 0
M  V30 10648 O 972.787 -0.368107 1.70266 0
M  V30 10649 C 969.919 -0.610036 3.35397 0
M  V30 10650 H 971.112 1.10705 2.78719 0
M  V30 10651 H 968.665 0.611657 1.43835 0
M  V30 10652 H 969.4 -1.46269 2.89441 0
M  V30 10653 H 969.185 -0.0153615 3.92097 0
M  V30 10654 H 970.675 -0.996368 4.05539 0
M  V30 10655 N 971.112 -1.45937 0.595003 0
M  V30 10656 C 972.528 -1.57507 0.257641 0
M  V30 10657 C 972.728 -1.58829 -1.23998 0
M  V30 10658 O 971.784 -1.51183 -2.02237 0
M  V30 10659 C 973.097 -2.86354 0.917708 0
M  V30 10660 C 974.645 -3.00007 0.892446 0
M  V30 10661 C 975.12 -4.31607 1.53229 0
M  V30 10662 N 976.611 -4.38336 1.49719 0
M  V30 10663 C 977.346 -5.38805 1.96154 0
M  V30 10664 N 976.842 -6.45882 2.50617 0
M  V30 10665 N 978.635 -5.30084 1.86997 0
M  V30 10666 H 970.786 -1.43322 1.56756 0
M  V30 10667 H 973.049 -0.684436 0.655936 0
M  V30 10668 H 972.755 -2.91233 1.97171 0
M  V30 10669 H 972.629 -3.74703 0.433344 0
M  V30 10670 H 975.016 -2.94703 -0.152975 0
M  V30 10671 H 975.097 -2.13103 1.41495 0
M  V30 10672 H 974.741 -4.3767 2.57697 0
M  V30 10673 H 974.671 -5.17308 0.984903 0
M  V30 10674 H 977.162 -3.6156 1.09921 0
M  V30 10675 H 977.475 -7.18774 2.83874 0
M  V30 10676 H 975.82 -6.46668 2.54649 0
M  V30 10677 H 979.011 -4.45337 1.44196 0
M  V30 10678 H 979.184 -6.08237 2.23499 0
M  V30 10679 N 972.59 -0.333456 -1.54032 0
M  V30 10680 C 973.54 0.543745 -2.21421 0
M  V30 10681 C 974.524 1.07396 -1.19812 0
M  V30 10682 O 975.716 1.00934 -1.45401 0
M  V30 10683 C 972.845 1.69925 -2.98296 0
M  V30 10684 C 971.931 1.18345 -4.07253 0
M  V30 10685 N 972.322 0.388098 -5.04309 0
M  V30 10686 C 970.62 1.46128 -4.21382 0
M  V30 10687 C 971.321 0.109383 -5.81597 0
M  V30 10688 N 970.297 0.69825 -5.39097 0
M  V30 10689 H 974.099 -0.0711018 -2.93814 0
M  V30 10690 H 971.613 -0.139807 -1.61797 0
M  V30 10691 H 973.61 2.33954 -3.45067 0
M  V30 10692 H 972.27 2.31747 -2.27428 0
M  V30 10693 H 973.281 0.0300645 -5.17891 0
M  V30 10694 H 969.958 2.08463 -3.61731 0
M  V30 10695 H 971.348 -0.531554 -6.69794 0
M  V30 10696 N 974.068 1.57479 -0.061844 0
M  V30 10697 C 975.479 1.80627 0.472295 0
M  V30 10698 C 975.83 0.97496 1.70261 0
M  V30 10699 O 974.955 0.1946 2.15523 0
M  V30 10700 C 975.55 3.27608 0.863616 0
M  V30 10701 C 974.109 3.51638 1.34267 0
M  V30 10702 C 973.256 2.75412 0.323009 0
M  V30 10703 H 976.207 1.56072 -0.287634 0
M  V30 10704 H 976.228 3.39113 1.72577 0
M  V30 10705 H 975.74 3.88087 -0.0320226 0
M  V30 10706 H 973.841 2.96452 2.25714 0
M  V30 10707 H 973.954 4.60342 1.32747 0
M  V30 10708 H 972.318 2.4187 0.798175 0
M  V30 10709 H 973.101 3.38623 -0.564729 0
M  V30 10710 N 975.546 -0.211634 1.56173 0
M  V30 10711 C 976.795 -0.932647 1.78842 0
M  V30 10712 C 977.108 -1.85103 0.63217 0
M  V30 10713 O 978.314 -2.61143 0.742746 0
M  V30 10714 C 976.77 -1.70866 3.16753 0
M  V30 10715 C 976.378 -0.835934 4.40132 0
M  V30 10716 C 978.122 -2.4203 3.48743 0
M  V30 10717 C 976.029 -1.60987 5.69067 0
M  V30 10718 H 974.959 -0.351983 0.666801 0
M  V30 10719 H 977.61 -0.186284 1.82552 0
M  V30 10720 H 975.992 -2.4983 3.07247 0
M  V30 10721 H 977.166 -0.0861298 4.60719 0
M  V30 10722 H 975.481 -0.235941 4.15731 0
M  V30 10723 H 978.078 -3.00453 4.42303 0
M  V30 10724 H 978.421 -3.15406 2.71707 0
M  V30 10725 H 978.954 -1.70048 3.59623 0
M  V30 10726 H 975.693 -0.9192 6.49023 0
M  V30 10727 H 975.213 -2.33403 5.52524 0
M  V30 10728 H 976.892 -2.16798 6.09596 0
M  V30 10729 N 977.024 -1.50153 -0.478725 0
M  V30 10730 C 978.273 -1.60002 -1.22809 0
M  V30 10731 C 978.586 -0.302277 -1.9325 0
M  V30 10732 O 979.792 -0.279583 -2.70057 0
M  V30 10733 C 978.248 -2.82402 -2.23108 0
M  V30 10734 C 977.856 -4.19023 -1.58505 0
M  V30 10735 C 979.6 -3.01593 -2.98734 0
M  V30 10736 C 977.507 -5.32618 -2.57045 0
M  V30 10737 H 976.437 -0.595822 -0.462073 0
M  V30 10738 H 979.088 -1.76573 -0.499412 0
M  V30 10739 H 977.47 -2.59373 -2.99235 0
M  V30 10740 H 978.644 -4.52277 -0.882187 0
M  V30 10741 H 976.959 -4.05374 -0.951877 0
M  V30 10742 H 979.556 -3.8363 -3.72468 0
M  V30 10743 H 979.899 -2.1302 -3.57671 0
M  V30 10744 H 980.432 -3.24766 -2.29721 0
M  V30 10745 H 977.171 -6.23321 -2.02858 0
M  V30 10746 H 976.691 -5.03792 -3.25505 0
M  V30 10747 H 978.37 -5.62877 -3.19028 0
M  V30 10748 N 978.502 0.731368 -1.39602 0
M  V30 10749 C 979.727 1.52567 -1.40492 0
M  V30 10750 C 980.152 1.881 -0.00228828 0
M  V30 10751 O 979.51 1.52167 0.985643 0
M  V30 10752 C 979.558 2.78749 -2.2876 0
M  V30 10753 O 978.662 3.7482 -1.71999 0
M  V30 10754 H 978.003 0.460601 -0.478271 0
M  V30 10755 H 980.533 0.902042 -1.83642 0
M  V30 10756 H 980.543 3.27446 -2.43399 0
M  V30 10757 H 979.218 2.5222 -3.30693 0
M  V30 10758 H 977.795 3.33604 -1.66622 0
M  V30 10759 N 979.98 1.24838 0.961938 0
M  V30 10760 C 980.943 1.04674 2.03902 0
M  V30 10761 C 981.943 0.00204674 1.608 0
M  V30 10762 O 983.133 0.243555 1.72489 0
M  V30 10763 C 980.265 0.587736 3.35795 0
M  V30 10764 H 981.458 2.00278 2.23223 0
M  V30 10765 H 979.011 1.07142 1.138 0
M  V30 10766 H 979.746 -0.371244 3.22168 0
M  V30 10767 H 979.531 1.34182 3.68426 0
M  V30 10768 H 981.021 0.467867 4.14971 0
M  V30 10769 N 981.458 -1.16348 1.06306 0
M  V30 10770 C 982.388 -2.2291 0.695234 0
M  V30 10771 C 983.369 -1.67208 -0.312343 0
M  V30 10772 O 984.554 -1.93293 -0.187442 0
M  V30 10773 C 981.684 -3.47205 0.0810149 0
M  V30 10774 C 980.638 -4.15801 1.01458 0
M  V30 10775 C 979.964 -5.3405 0.263656 0
M  V30 10776 C 981.264 -4.66766 2.34365 0
M  V30 10777 H 982.958 -2.53934 1.58613 0
M  V30 10778 H 980.504 -1.22056 0.76409 0
M  V30 10779 H 982.457 -4.2098 -0.18818 0
M  V30 10780 H 981.181 -3.15482 -0.844897 0
M  V30 10781 H 979.84 -3.43954 1.26852 0
M  V30 10782 H 979.488 -4.9858 -0.665378 0
M  V30 10783 H 979.188 -5.80885 0.88582 0
M  V30 10784 H 980.712 -6.106 0.00200994 0
M  V30 10785 H 982.126 -5.3212 2.13356 0
M  V30 10786 H 980.523 -5.24223 2.9208 0
M  V30 10787 H 981.593 -3.82969 2.97426 0
M  V30 10788 N 982.937 -0.845659 -1.3299 0
M  V30 10789 C 983.884 -0.281761 -2.29074 0
M  V30 10790 C 984.854 0.606237 -1.54641 0
M  V30 10791 O 986.039 0.543063 -1.82908 0
M  V30 10792 C 983.179 0.531451 -3.40983 0
M  V30 10793 C 982.292 -0.381328 -4.30314 0
M  V30 10794 C 981.427 0.443643 -5.29344 0
M  V30 10795 C 980.466 -0.467101 -6.10315 0
M  V30 10796 N 979.603 0.320148 -7.0137 0
M  V30 10797 H 984.443 -1.10641 -2.76699 0
M  V30 10798 H 981.98 -0.55706 -1.36144 0
M  V30 10799 H 983.938 1.01848 -4.04577 0
M  V30 10800 H 982.568 1.32101 -2.94532 0
M  V30 10801 H 981.62 -0.986701 -3.6738 0
M  V30 10802 H 982.932 -1.08067 -4.86953 0
M  V30 10803 H 982.086 0.994212 -5.98498 0
M  V30 10804 H 980.825 1.17639 -4.73299 0
M  V30 10805 H 979.83 -1.02963 -5.40073 0
M  V30 10806 H 981.055 -1.19832 -6.68444 0
M  V30 10807 H 979.001 1.03615 -6.47765 0
M  V30 10808 H 978.918 -0.320338 -7.55321 0
M  V30 10809 H 980.186 0.852735 -7.74822 0
M  V30 10810 N 984.415 1.45619 -0.602734 0
M  V30 10811 C 985.347 2.28662 0.157012 0
M  V30 10812 C 986.36 1.39672 0.836396 0
M  V30 10813 O 987.549 1.64091 0.702599 0
M  V30 10814 C 984.649 3.1528 1.24306 0
M  V30 10815 C 983.822 4.32517 0.651731 0
M  V30 10816 C 982.881 5.00381 1.62804 0
M  V30 10817 O 981.907 5.57333 1.15624 0
M  V30 10818 N 983.109 4.99221 2.96241 0
M  V30 10819 H 985.874 2.94506 -0.555535 0
M  V30 10820 H 983.435 1.55753 -0.441881 0
M  V30 10821 H 985.427 3.57544 1.8959 0
M  V30 10822 H 983.997 2.51376 1.85819 0
M  V30 10823 H 983.217 3.93793 -0.17907 0
M  V30 10824 H 984.505 5.08249 0.236802 0
M  V30 10825 H 983.903 4.54232 3.37179 0
M  V30 10826 H 982.46 5.45364 3.56961 0
M  V30 10827 N 985.893 0.34162 1.53853 0
M  V30 10828 C 986.84 -0.516058 2.24957 0
M  V30 10829 C 987.81 -1.09711 1.2471 0
M  V30 10830 O 988.995 -1.13409 1.53438 0
M  V30 10831 C 986.135 -1.66207 3.02439 0
M  V30 10832 C 985.248 -1.10851 4.17536 0
M  V30 10833 C 984.383 -2.22167 4.82509 0
M  V30 10834 C 983.422 -1.64152 5.89678 0
M  V30 10835 N 982.559 -2.69203 6.4844 0
M  V30 10836 H 987.399 0.0968275 2.97843 0
M  V30 10837 H 984.936 0.0595565 1.46979 0
M  V30 10838 H 986.894 -2.33672 3.4562 0
M  V30 10839 H 985.524 -2.24597 2.31853 0
M  V30 10840 H 984.576 -0.324853 3.7901 0
M  V30 10841 H 985.888 -0.644151 4.94623 0
M  V30 10842 H 985.042 -2.97501 5.28751 0
M  V30 10843 H 983.781 -2.71946 4.04842 0
M  V30 10844 H 982.786 -0.873228 5.42821 0
M  V30 10845 H 984.011 -1.15228 6.69253 0
M  V30 10846 H 981.957 -3.1824 5.73637 0
M  V30 10847 H 981.874 -2.27383 7.20994 0
M  V30 10848 H 983.142 -3.44312 6.99335 0
M  V30 10849 N 987.371 -1.57444 0.0701946 0
M  V30 10850 C 988.334 -2.11511 -0.882923 0
M  V30 10851 C 989.334 -1.03879 -1.22743 0
M  V30 10852 O 990.524 -1.29874 -1.16097 0
M  V30 10853 C 987.656 -2.61514 -2.18686 0
M  V30 10854 H 988.849 -2.9703 -0.413873 0
M  V30 10855 H 986.402 -1.55278 -0.178488 0
M  V30 10856 H 987.137 -1.79443 -2.70131 0
M  V30 10857 H 986.922 -3.40185 -1.94978 0
M  V30 10858 H 988.412 -3.03425 -2.86919 0
M  V30 10859 N 988.849 0.203349 -1.56283 0
M  V30 10860 C 990.126 0.950415 -1.70958 0
M  V30 10861 C 990.506 2.01708 -0.622647 0
M  V30 10862 O 989.854 2.25523 0.367635 0
M  V30 10863 C 990.064 1.54434 -3.12971 0
M  V30 10864 C 991.412 2.02964 -3.72949 0
M  V30 10865 O 992.436 1.64293 -3.16048 0
M  V30 10866 O 991.295 2.74097 -4.72793 0
M  V30 10867 H 988.389 0.445154 -0.69697 0
M  V30 10868 H 990.935 0.193695 -1.68591 0
M  V30 10869 H 989.707 0.77505 -3.83547 0
M  V30 10870 H 989.33 2.36611 -3.19532 0
M  V30 10871 N 990.327 1.50405 0.470755 0
M  V30 10872 C 991.29 1.68741 1.5511 0
M  V30 10873 C 992.29 0.558116 1.50804 0
M  V30 10874 O 993.48 0.825149 1.53418 0
M  V30 10875 C 990.612 1.71295 2.94739 0
M  V30 10876 H 991.805 2.65127 1.40169 0
M  V30 10877 H 989.358 1.39891 0.697156 0
M  V30 10878 H 990.093 0.766029 3.15123 0
M  V30 10879 H 989.878 2.53336 2.99271 0
M  V30 10880 H 991.368 1.87434 3.73173 0
M  V30 10881 N 991.805 -0.723954 1.39988 0
M  V30 10882 C 993.082 -1.4763 1.28316 0
M  V30 10883 C 993.462 -2.10852 -0.102302 0
M  V30 10884 O 992.81 -1.9948 -1.11445 0
M  V30 10885 C 993.02 -2.51878 2.41574 0
M  V30 10886 C 994.368 -3.17948 2.81415 0
M  V30 10887 O 995.392 -2.62195 2.41106 0
M  V30 10888 O 994.251 -4.18858 3.51027 0
M  V30 10889 H 991.345 -0.656092 0.50346 0
M  V30 10890 H 993.891 -0.75684 1.51888 0
M  V30 10891 H 992.663 -2.03618 3.34149 0
M  V30 10892 H 992.286 -3.3137 2.19727 0
M  V30 10893 N 993.283 -1.25346 -0.955304 0
M  V30 10894 C 994.23 -1.05672 -2.05188 0
M  V30 10895 C 995.2 0.0339217 -1.66065 0
M  V30 10896 O 996.385 -0.123126 -1.90402 0
M  V30 10897 C 993.525 -0.680791 -3.38318 0
M  V30 10898 C 992.638 -1.84622 -3.90562 0
M  V30 10899 C 991.773 -1.41471 -5.12015 0
M  V30 10900 C 990.812 -2.54931 -5.56486 0
M  V30 10901 N 989.949 -2.1256 -6.69151 0
M  V30 10902 H 994.789 -1.9952 -2.2135 0
M  V30 10903 H 992.326 -0.993588 -1.08472 0
M  V30 10904 H 994.284 -0.443794 -4.14833 0
M  V30 10905 H 992.914 0.2207 -3.22045 0
M  V30 10906 H 991.966 -2.19654 -3.10574 0
M  V30 10907 H 993.278 -2.6983 -4.19515 0
M  V30 10908 H 992.432 -1.13732 -5.95945 0
M  V30 10909 H 991.171 -0.533334 -4.84775 0
M  V30 10910 H 990.176 -2.83415 -4.71122 0
M  V30 10911 H 991.401 -3.43645 -5.85734 0
M  V30 10912 H 989.347 -1.26838 -6.43621 0
M  V30 10913 H 989.264 -2.91317 -6.97618 0
M  V30 10914 H 990.532 -1.87996 -7.5649 0
M  V30 10915 N 994.761 1.15782 -1.06922 0
M  V30 10916 C 995.986 1.90896 -0.810771 0
M  V30 10917 C 996.411 1.77246 0.629714 0
M  V30 10918 O 995.769 1.10215 1.43953 0
M  V30 10919 C 995.817 3.39397 -1.21829 0
M  V30 10920 O 994.921 4.10818 -0.360934 0
M  V30 10921 H 994.262 0.594497 -0.295752 0
M  V30 10922 H 996.792 1.46652 -1.42669 0
M  V30 10923 H 996.802 3.90181 -1.19259 0
M  V30 10924 H 995.477 3.4865 -2.2675 0
M  V30 10925 H 994.054 3.7019 -0.448748 0
M  V30 10926 N 996.239 0.8527 1.3254 0
M  V30 10927 C 997.516 0.376491 1.91942 0
M  V30 10928 C 997.896 -1.13972 1.7769 0
M  V30 10929 O 997.244 -1.96047 1.17379 0
M  V30 10930 C 997.454 0.838694 3.38773 0
M  V30 10931 C 998.802 0.854736 4.15908 0
M  V30 10932 O 999.826 0.783203 3.47483 0
M  V30 10933 O 998.685 0.955207 5.38087 0
M  V30 10934 H 995.779 0.109412 0.81973 0
M  V30 10935 H 998.325 0.93947 1.41322 0
M  V30 10936 H 997.097 1.88179 3.43081 0
M  V30 10937 H 996.72 0.253055 3.96794 0
M  V30 10938 N 997.718 -1.45297 0.610449 0
M  V30 10939 C 998.665 -2.30553 -0.106718 0
M  V30 10940 C 999.635 -1.42272 -0.85719 0
M  V30 10941 O 1000.82 -1.71199 -0.842357 0
M  V30 10942 C 997.96 -3.27226 -1.09623 0
M  V30 10943 C 997.073 -4.3061 -0.346329 0
M  V30 10944 C 996.208 -5.14389 -1.32581 0
M  V30 10945 C 995.247 -6.09497 -0.563892 0
M  V30 10946 N 994.384 -6.86047 -1.4928 0
M  V30 10947 H 999.224 -2.91344 0.626296 0
M  V30 10948 H 996.761 -1.43563 0.32065 0
M  V30 10949 H 998.719 -3.81744 -1.68308 0
M  V30 10950 H 997.349 -2.68182 -1.79662 0
M  V30 10951 H 996.401 -3.7873 0.356084 0
M  V30 10952 H 997.713 -4.98183 0.248026 0
M  V30 10953 H 996.867 -5.73321 -1.98464 0
M  V30 10954 H 995.606 -4.4684 -1.9541 0
M  V30 10955 H 994.611 -5.49693 0.108551 0
M  V30 10956 H 995.836 -6.79074 0.0593872 0
M  V30 10957 H 993.782 -6.21185 -2.10868 0
M  V30 10958 H 993.699 -7.49983 -0.951953 0
M  V30 10959 H 994.967 -7.49518 -2.14112 0
M  V30 10960 N 999.196 -0.349774 -1.5367 0
M  V30 10961 C 1000.42 0.246038 -2.05432 0
M  V30 10962 C 1000.84 1.43719 -1.22435 0
M  V30 10963 O 1000.2 1.80622 -0.261166 0
M  V30 10964 C 1000.25 0.65501 -3.55516 0
M  V30 10965 O 999.968 -0.488782 -4.35365 0
M  V30 10966 C 1001.47 1.31088 -4.23475 0
M  V30 10967 H 998.689 0.0463952 -0.669394 0
M  V30 10968 H 1001.23 -0.503566 -1.98203 0
M  V30 10969 H 999.388 1.35455 -3.62947 0
M  V30 10970 H 999.802 -0.161528 -5.24251 0
M  V30 10971 H 1001.28 1.54774 -5.29857 0
M  V30 10972 H 1001.75 2.26636 -3.76208 0
M  V30 10973 H 1002.36 0.653211 -4.20254 0
M  V30 10974 N 1000.67 1.57404 -0.0785433 0
M  V30 10975 C 1001.92 1.94031 0.589896 0
M  V30 10976 C 1002.25 0.959297 1.68852 0
M  V30 10977 O 1001.53 -0.0103978 1.94497 0
M  V30 10978 C 1001.81 3.40886 1.16055 0
M  V30 10979 C 1001.66 4.49748 0.0681072 0
M  V30 10980 C 1002.98 3.88699 2.06401 0
M  V30 10981 H 1000.1 0.70556 0.212965 0
M  V30 10982 H 1002.74 1.89439 -0.145886 0
M  V30 10983 H 1000.89 3.4493 1.78761 0
M  V30 10984 H 1002.57 4.57823 -0.565318 0
M  V30 10985 H 1000.81 4.29625 -0.600431 0
M  V30 10986 H 1001.48 5.49658 0.507906 0
M  V30 10987 H 1003.96 3.86703 1.53622 0
M  V30 10988 H 1002.83 4.92052 2.43261 0
M  V30 10989 H 1003.09 3.2703 2.97496 0
M  V30 10990 N 1002.15 -0.195058 1.56388 0
M  V30 10991 C 1003.1 -1.24175 1.94549 0
M  V30 10992 C 1004.07 -1.45229 0.806089 0
M  V30 10993 O 1005.25 -1.58362 1.06425 0
M  V30 10994 C 1002.39 -2.58145 2.29031 0
M  V30 10995 C 1001.51 -2.44669 3.56035 0
M  V30 10996 C 1000.64 -3.71342 3.7984 0
M  V30 10997 C 999.681 -3.52699 5.0027 0
M  V30 10998 N 998.818 -4.71385 5.20328 0
M  V30 10999 H 1003.66 -0.909319 2.83788 0
M  V30 11000 H 1001.19 -0.437641 1.40439 0
M  V30 11001 H 1003.15 -3.36195 2.4704 0
M  V30 11002 H 1001.78 -2.8943 1.42933 0
M  V30 11003 H 1000.83 -1.57916 3.46073 0
M  V30 11004 H 1002.15 -2.26827 4.44242 0
M  V30 11005 H 1001.3 -4.57832 3.98088 0
M  V30 11006 H 1000.04 -3.92138 2.89964 0
M  V30 11007 H 999.045 -2.64594 4.81944 0
M  V30 11008 H 1000.27 -3.33349 5.91655 0
M  V30 11009 H 998.216 -4.92444 4.33399 0
M  V30 11010 H 998.133 -4.56368 6.02714 0
M  V30 11011 H 999.401 -5.59226 5.43035 0
M  V30 11012 N 1003.63 -1.50653 -0.462772 0
M  V30 11013 C 1004.91 -1.5258 -1.22387 0
M  V30 11014 C 1005.29 -0.275263 -2.09298 0
M  V30 11015 O 1004.63 0.740943 -2.16153 0
M  V30 11016 C 1004.84 -2.82611 -2.04773 0
M  V30 11017 C 1006.19 -3.33592 -2.62681 0
M  V30 11018 O 1007.22 -2.83989 -2.15008 0
M  V30 11019 O 1006.08 -4.20081 -3.49563 0
M  V30 11020 H 1003.17 -0.612367 -0.55582 0
M  V30 11021 H 1005.72 -1.62948 -0.473914 0
M  V30 11022 H 1004.49 -3.65098 -1.40781 0
M  V30 11023 H 1004.11 -2.75286 -2.86886 0
M  V30 11024 N 1005.11 0.71652 -1.4037 0
M  V30 11025 C 1006.04 1.84345 -1.43315 0
M  V30 11026 C 1007.02 1.67537 -0.294186 0
M  V30 11027 O 1008.2 1.87582 -0.502671 0
M  V30 11028 C 1005.33 3.2229 -1.29408 0
M  V30 11029 C 1004.29 3.53769 -2.40897 0
M  V30 11030 C 1003.61 4.90847 -2.12068 0
M  V30 11031 C 1004.91 3.54862 -3.83237 0
M  V30 11032 H 1006.61 1.82138 -2.37626 0
M  V30 11033 H 1004.15 0.874873 -1.14376 0
M  V30 11034 H 1006.11 4.00819 -1.30085 0
M  V30 11035 H 1004.83 3.2507 -0.31573 0
M  V30 11036 H 1003.49 2.77579 -2.39469 0
M  V30 11037 H 1003.14 4.90229 -1.12626 0
M  V30 11038 H 1002.84 5.12875 -2.86762 0
M  V30 11039 H 1004.36 5.71711 -2.14426 0
M  V30 11040 H 1005.78 4.23432 -3.86494 0
M  V30 11041 H 1004.17 3.88416 -4.57442 0
M  V30 11042 H 1005.24 2.54266 -4.12888 0
M  V30 11043 N 1006.59 1.25851 0.948643 0
M  V30 11044 C 1007.84 1.10347 1.68838 0
M  V30 11045 C 1008.15 -0.354262 1.92365 0
M  V30 11046 O 1009.35 -0.629847 2.64093 0
M  V30 11047 C 1007.81 1.92659 3.03991 0
M  V30 11048 C 1007.42 3.42962 2.88238 0
M  V30 11049 C 1009.16 1.85743 3.81707 0
M  V30 11050 C 1007.07 4.17547 4.18818 0
M  V30 11051 H 1006 0.409342 0.63321 0
M  V30 11052 H 1008.65 1.50098 1.05559 0
M  V30 11053 H 1007.03 1.45736 3.68208 0
M  V30 11054 H 1008.21 3.97601 2.32917 0
M  V30 11055 H 1006.52 3.51035 2.23972 0
M  V30 11056 H 1009.12 2.38758 4.78434 0
M  V30 11057 H 1009.46 0.826568 4.08012 0
M  V30 11058 H 1009.99 2.30449 3.2425 0
M  V30 11059 H 1006.73 5.21072 3.97699 0
M  V30 11060 H 1006.25 3.6769 4.73882 0
M  V30 11061 H 1007.93 4.25589 4.87322 0
M  V30 11062 N 1008.06 -1.15214 1.07534 0
M  V30 11063 C 1009.31 -1.86548 0.810651 0
M  V30 11064 C 1009.67 -1.80863 -0.656236 0
M  V30 11065 O 1008.96 -1.22216 -1.47559 0
M  V30 11066 C 1009.15 -3.34623 1.25547 0
M  V30 11067 C 1008.98 -3.54725 2.76406 0
M  V30 11068 C 1007.75 -3.70089 3.44038 0
M  V30 11069 C 1009.95 -3.52392 3.74599 0
M  V30 11070 N 1007.93 -3.78262 4.8352 0
M  V30 11071 C 1009.3 -3.66701 4.9993 0
M  V30 11072 C 1011.36 -3.35677 3.6773 0
M  V30 11073 C 1010.06 -3.66023 6.19209 0
M  V30 11074 C 1012.09 -3.36298 4.86475 0
M  V30 11075 C 1011.45 -3.51139 6.1064 0
M  V30 11076 H 1007.55 -0.699691 0.349223 0
M  V30 11077 H 1010.13 -1.3815 1.37196 0
M  V30 11078 H 1008.3 -3.81633 0.721837 0
M  V30 11079 H 1010.03 -3.93677 0.938126 0
M  V30 11080 H 1006.79 -3.70943 2.94446 0
M  V30 11081 H 1007.21 -3.86087 5.56117 0
M  V30 11082 H 1011.86 -3.2312 2.72678 0
M  V30 11083 H 1009.57 -3.77358 7.14581 0
M  V30 11084 H 1013.16 -3.2459 4.82838 0
M  V30 11085 H 1012.04 -3.51555 7.00984 0
M  V30 11086 N 1009.54 -0.859717 -1.32086 0
M  V30 11087 C 1010.47 -0.323502 -2.31248 0
M  V30 11088 C 1011.45 0.580085 -1.59903 0
M  V30 11089 O 1012.64 0.499265 -1.87673 0
M  V30 11090 C 1009.77 0.484661 -3.43902 0
M  V30 11091 C 1008.72 -0.324933 -4.26765 0
M  V30 11092 C 1008.05 0.608281 -5.31229 0
M  V30 11093 C 1009.35 -1.55344 -4.98664 0
M  V30 11094 H 1011.04 -1.15209 -2.76346 0
M  V30 11095 H 1008.59 -0.555442 -1.32856 0
M  V30 11096 H 1010.54 0.870238 -4.12316 0
M  V30 11097 H 1009.27 1.34666 -2.97544 0
M  V30 11098 H 1007.92 -0.692328 -3.60003 0
M  V30 11099 H 1007.57 1.46727 -4.81124 0
M  V30 11100 H 1007.27 0.0705571 -5.87558 0
M  V30 11101 H 1008.8 0.990925 -6.02506 0
M  V30 11102 H 1010.21 -1.23987 -5.59732 0
M  V30 11103 H 1008.61 -2.02947 -5.64741 0
M  V30 11104 H 1009.68 -2.31192 -4.26237 0
M  V30 11105 N 1011.02 1.44971 -0.618145 0
M  V30 11106 C 1011.95 2.33357 0.0815955 0
M  V30 11107 C 1012.93 1.47451 0.848072 0
M  V30 11108 O 1014.12 1.762 0.816532 0
M  V30 11109 C 1011.25 3.30324 1.07253 0
M  V30 11110 C 1010.2 4.25948 0.418563 0
M  V30 11111 C 1009.53 5.12685 1.51849 0
M  V30 11112 C 1010.83 5.18024 -0.66697 0
M  V30 11113 H 1012.52 2.92115 -0.656442 0
M  V30 11114 H 1010.07 1.40465 -0.317129 0
M  V30 11115 H 1012.02 3.91033 1.57069 0
M  V30 11116 H 1010.74 2.69748 1.8413 0
M  V30 11117 H 1009.4 3.66553 -0.0588308 0
M  V30 11118 H 1009.05 4.4847 2.2778 0
M  V30 11119 H 1008.75 5.7747 1.08637 0
M  V30 11120 H 1010.27 5.76264 2.01871 0
M  V30 11121 H 1011.69 5.72744 -0.252448 0
M  V30 11122 H 1010.09 5.91343 -1.02146 0
M  V30 11123 H 1011.16 4.59817 -1.53936 0
M  V30 11124 N 1012.5 0.357919 1.53482 0
M  V30 11125 C 1013.75 -0.234163 2.01142 0
M  V30 11126 C 1014.07 -1.49399 1.2454 0
M  V30 11127 O 1013.33 -1.92981 0.325111 0
M  V30 11128 C 1013.63 -0.579617 3.52669 0
M  V30 11129 C 1013.29 0.584988 4.47089 0
M  V30 11130 C 1011.96 0.904558 4.72622 0
M  V30 11131 C 1014.31 1.3656 5.02992 0
M  V30 11132 C 1011.64 2.00685 5.5131 0
M  V30 11133 C 1013.99 2.45824 5.82884 0
M  V30 11134 C 1012.65 2.78325 6.06706 0
M  V30 11135 H 1011.92 -0.0856863 0.736029 0
M  V30 11136 H 1014.57 0.488801 1.85157 0
M  V30 11137 H 1012.87 -1.38349 3.66561 0
M  V30 11138 H 1014.57 -1.04985 3.87013 0
M  V30 11139 H 1011.16 0.32587 4.27359 0
M  V30 11140 H 1015.34 1.13196 4.83219 0
M  V30 11141 H 1010.6 2.26272 5.67988 0
M  V30 11142 H 1014.77 3.06732 6.25211 0
M  V30 11143 H 1012.4 3.63862 6.67464 0
M  V30 11144 N 1013.98 -1.5736 0.0868897 0
M  V30 11145 C 1015.25 -1.85495 -0.620561 0
M  V30 11146 C 1015.63 -0.982218 -1.86857 0
M  V30 11147 O 1014.98 -0.0524529 -2.2844 0
M  V30 11148 C 1015.19 -3.35996 -0.943798 0
M  V30 11149 C 1016.54 -4.03861 -1.31079 0
M  V30 11150 O 1017.56 -3.4083 -1.03507 0
M  V30 11151 O 1016.42 -5.15062 -1.82683 0
M  V30 11152 H 1013.52 -0.766822 -0.309697 0
M  V30 11153 H 1016.06 -1.69282 0.118966 0
M  V30 11154 H 1014.83 -3.91257 -0.0580628 0
M  V30 11155 H 1014.46 -3.57525 -1.73958 0
M  V30 11156 N 1015.45 0.186762 -1.56489 0
M  V30 11157 C 1016.68 0.921832 -1.85229 0
M  V30 11158 C 1017.1 1.76496 -0.670416 0
M  V30 11159 O 1016.45 1.78899 0.360758 0
M  V30 11160 C 1016.51 1.81121 -3.12854 0
M  V30 11161 O 1016.23 1.00211 -4.26485 0
M  V30 11162 C 1017.73 2.65725 -3.54831 0
M  V30 11163 H 1014.95 0.268563 -0.61491 0
M  V30 11164 H 1017.49 0.191505 -2.03601 0
M  V30 11165 H 1015.65 2.49506 -2.96354 0
M  V30 11166 H 1016.06 1.60893 -4.99213 0
M  V30 11167 H 1017.53 3.23771 -4.47075 0
M  V30 11168 H 1018.01 3.39843 -2.78215 0
M  V30 11169 H 1018.62 2.02698 -3.7389 0
M  V30 11170 N 1016.93 1.50896 0.454776 0
M  V30 11171 C 1018.16 1.66759 1.23313 0
M  V30 11172 C 1018.58 0.35722 1.84677 0
M  V30 11173 O 1017.94 -0.680771 1.68033 0
M  V30 11174 C 1017.99 2.77254 2.3057 0
M  V30 11175 O 1017.09 2.39642 3.35627 0
M  V30 11176 H 1016.43 0.556599 0.362068 0
M  V30 11177 H 1018.96 1.97365 0.539274 0
M  V30 11178 H 1018.97 3.0082 2.75629 0
M  V30 11179 H 1017.65 3.72349 1.85281 0
M  V30 11180 H 1016.23 2.26584 2.96165 0
M  V30 11181 N 1018.41 -0.709066 1.40748 0
M  V30 11182 C 1019.34 -1.83583 1.4429 0
M  V30 11183 C 1020.32 -1.67378 0.303067 0
M  V30 11184 O 1021.51 -1.87312 0.512612 0
M  V30 11185 C 1018.64 -3.21599 1.31116 0
M  V30 11186 C 1017.59 -3.52486 2.4277 0
M  V30 11187 C 1016.92 -4.89716 2.14668 0
M  V30 11188 C 1018.22 -3.52824 3.85113 0
M  V30 11189 H 1019.91 -1.80876 2.38588 0
M  V30 11190 H 1017.46 -0.868795 1.14839 0
M  V30 11191 H 1019.41 -4.00123 1.32209 0
M  V30 11192 H 1018.13 -3.24898 0.332965 0
M  V30 11193 H 1016.79 -2.76305 2.40937 0
M  V30 11194 H 1016.44 -4.89625 1.15224 0
M  V30 11195 H 1016.14 -5.11347 2.89478 0
M  V30 11196 H 1017.66 -5.70566 2.17455 0
M  V30 11197 H 1019.08 -4.21377 3.88734 0
M  V30 11198 H 1017.48 -3.85984 4.59496 0
M  V30 11199 H 1018.55 -2.52073 4.14231 0
M  V30 11200 N 1019.89 -1.26353 -0.941956 0
M  V30 11201 C 1020.82 -1.10341 -2.05784 0
M  V30 11202 C 1021.8 -0.00881565 -1.70098 0
M  V30 11203 O 1022.99 -0.180699 -1.93357 0
M  V30 11204 C 1020.12 -0.734788 -3.39438 0
M  V30 11205 C 1019.07 -1.78103 -3.89183 0
M  V30 11206 C 1018.4 -1.26675 -5.19478 0
M  V30 11207 C 1019.7 -3.1824 -4.14151 0
M  V30 11208 H 1021.39 -2.03684 -2.19438 0
M  V30 11209 H 1018.94 -0.980698 -1.05443 0
M  V30 11210 H 1020.89 -0.609653 -4.16967 0
M  V30 11211 H 1019.61 0.234354 -3.25758 0
M  V30 11212 H 1018.27 -1.89482 -3.13835 0
M  V30 11213 H 1017.92 -0.287472 -5.02178 0
M  V30 11214 H 1017.62 -1.96612 -5.53731 0
M  V30 11215 H 1019.14 -1.15427 -5.99591 0
M  V30 11216 H 1020.56 -3.09942 -4.82296 0
M  V30 11217 H 1018.95 -3.8576 -4.59684 0
M  V30 11218 H 1020.02 -3.64354 -3.19959 0
M  V30 11219 N 1021.37 1.14642 -1.08144 0
M  V30 11220 C 1022.6 1.89484 -0.830864 0
M  V30 11221 C 1023.01 1.78443 0.616722 0
M  V30 11222 O 1022.37 1.14191 1.42361 0
M  V30 11223 C 1022.42 3.39554 -1.24039 0
M  V30 11224 O 1022.14 3.50286 -2.63119 0
M  V30 11225 C 1023.64 4.31399 -1.02029 0
M  V30 11226 H 1020.86 0.600283 -0.299835 0
M  V30 11227 H 1023.4 1.45204 -1.44001 0
M  V30 11228 H 1021.56 3.81467 -0.675407 0
M  V30 11229 H 1021.97 4.43481 -2.80045 0
M  V30 11230 H 1023.45 5.35079 -1.35625 0
M  V30 11231 H 1023.92 4.39179 0.0428697 0
M  V30 11232 H 1024.53 3.95238 -1.57057 0
M  V30 11233 N 1022.85 0.866709 1.31628 0
M  V30 11234 C 1024.07 0.48956 2.01539 0
M  V30 11235 C 1024.5 -0.909556 1.64647 0
M  V30 11236 O 1023.85 -1.59959 0.853391 0
M  V30 11237 C 1023.9 0.650176 3.5469 0
M  V30 11238 O 1023.01 -0.311908 4.11219 0
M  V30 11239 H 1022.35 0.195144 0.634677 0
M  V30 11240 H 1024.88 1.16923 1.679 0
M  V30 11241 H 1024.89 0.542236 4.04381 0
M  V30 11242 H 1023.56 1.67038 3.80882 0
M  V30 11243 H 1022.14 -0.159197 3.7256 0
M  V30 11244 N 1024.32 -1.44642 0.625825 0
M  V30 11245 C 1025.57 -2.01695 0.127948 0
M  V30 11246 C 1025.89 -1.49439 -1.25271 0
M  V30 11247 O 1025.16 -0.695873 -1.83124 0
M  V30 11248 H 1023.74 -0.745685 0.0443096 0
M  V30 11249 H 1026.4 -1.7721 0.811332 0
M  V30 11250 H 1025.5 -3.11966 0.0915933 0
M  V30 11251 N 1025.8 -0.366053 -1.5329 0
M  V30 11252 C 1027.05 0.223493 -2.01263 0
M  V30 11253 C 1027.38 1.48736 -1.25331 0
M  V30 11254 O 1026.63 1.92805 -0.335341 0
M  V30 11255 C 1026.93 0.560906 -3.52971 0
M  V30 11256 C 1026.6 -0.60869 -4.46773 0
M  V30 11257 C 1025.26 -0.929609 -4.72135 0
M  V30 11258 C 1027.61 -1.39225 -5.02261 0
M  V30 11259 C 1024.94 -2.03606 -5.50238 0
M  V30 11260 C 1027.29 -2.48912 -5.81572 0
M  V30 11261 C 1025.95 -2.81538 -6.05221 0
M  V30 11262 H 1025.22 0.0817818 -0.736473 0
M  V30 11263 H 1027.87 -0.498613 -1.84895 0
M  V30 11264 H 1026.18 1.36403 -3.67289 0
M  V30 11265 H 1027.87 1.02931 -3.87564 0
M  V30 11266 H 1024.46 -0.348529 -4.27181 0
M  V30 11267 H 1028.65 -1.15757 -4.82612 0
M  V30 11268 H 1023.9 -2.29281 -5.6678 0
M  V30 11269 H 1028.08 -3.10044 -6.23575 0
M  V30 11270 H 1025.7 -3.67396 -6.65525 0
M  V30 11271 N 1027.28 1.57312 -0.0952337 0
M  V30 11272 C 1028.24 2.12889 0.849161 0
M  V30 11273 C 1029.24 1.05819 1.21075 0
M  V30 11274 O 1030.43 1.31704 1.14016 0
M  V30 11275 C 1027.56 2.6496 2.14498 0
M  V30 11276 H 1028.76 2.97651 0.366566 0
M  V30 11277 H 1026.31 1.55542 0.153762 0
M  V30 11278 H 1027.05 1.83718 2.67242 0
M  V30 11279 H 1026.83 3.43244 1.89542 0
M  V30 11280 H 1028.32 3.07952 2.82056 0
M  V30 11281 N 1028.76 -0.17846 1.56586 0
M  V30 11282 C 1029.69 -1.22342 1.98884 0
M  V30 11283 C 1030.67 -1.46564 0.86331 0
M  V30 11284 O 1031.85 -1.58019 1.12887 0
M  V30 11285 C 1028.98 -2.56396 2.34261 0
M  V30 11286 C 1027.94 -2.46756 3.49708 0
M  V30 11287 C 1027.26 -3.85235 3.70807 0
M  V30 11288 C 1028.56 -1.97838 4.83381 0
M  V30 11289 H 1030.26 -0.871848 2.86425 0
M  V30 11290 H 1027.8 -0.417948 1.37801 0
M  V30 11291 H 1029.76 -3.29695 2.62448 0
M  V30 11292 H 1028.48 -2.93327 1.43621 0
M  V30 11293 H 1027.14 -1.75912 3.21637 0
M  V30 11294 H 1026.79 -4.19547 2.7747 0
M  V30 11295 H 1026.49 -3.79655 4.48481 0
M  V30 11296 H 1028.01 -4.60131 4.01387 0
M  V30 11297 H 1029.43 -2.60906 5.10491 0
M  V30 11298 H 1027.82 -2.03223 5.64642 0
M  V30 11299 H 1028.89 -0.932339 4.75852 0
M  V30 11300 N 1030.24 -1.51135 -0.446768 0
M  V30 11301 C 1031.15 -1.74595 -1.56696 0
M  V30 11302 C 1032.16 -0.629816 -1.62201 0
M  V30 11303 O 1033.34 -0.910987 -1.79619 0
M  V30 11304 C 1030.4 -1.85738 -2.9275 0
M  V30 11305 C 1029.46 -3.09564 -2.97437 0
M  V30 11306 C 1028.7 -3.20165 -4.27001 0
M  V30 11307 O 1028.92 -2.36939 -5.1886 0
M  V30 11308 O 1027.85 -4.13077 -4.3778 0
M  V30 11309 H 1031.68 -2.69601 -1.39817 0
M  V30 11310 H 1029.26 -1.35523 -0.628805 0
M  V30 11311 H 1031.15 -1.95107 -3.73512 0
M  V30 11312 H 1029.82 -0.939184 -3.09776 0
M  V30 11313 H 1028.73 -3.05679 -2.15664 0
M  V30 11314 H 1030.06 -4.01041 -2.85353 0
M  V30 11315 N 1031.71 0.701592 -1.41122 0
M  V30 11316 C 1032.62 1.84548 -1.44841 0
M  V30 11317 C 1033.64 1.70654 -0.339594 0
M  V30 11318 O 1034.82 1.92675 -0.586378 0
M  V30 11319 C 1031.88 3.20477 -1.3227 0
M  V30 11320 C 1030.94 3.46524 -2.53415 0
M  V30 11321 C 1030.17 4.75968 -2.41434 0
M  V30 11322 O 1030.4 5.52037 -1.43566 0
M  V30 11323 O 1029.33 5.02664 -3.31078 0
M  V30 11324 H 1033.16 1.84367 -2.41335 0
M  V30 11325 H 1030.74 0.853863 -1.22595 0
M  V30 11326 H 1032.62 4.01642 -1.2752 0
M  V30 11327 H 1031.3 3.21355 -0.388889 0
M  V30 11328 H 1030.21 2.65313 -2.63742 0
M  V30 11329 H 1031.54 3.50455 -3.45604 0
M  V30 11330 N 1033.19 1.2685 0.935242 0
M  V30 11331 C 1034.6 1.11569 1.49697 0
M  V30 11332 C 1034.95 -0.301952 1.93863 0
M  V30 11333 O 1034.08 -1.19408 1.80473 0
M  V30 11334 C 1034.67 2.01918 2.72056 0
M  V30 11335 C 1033.23 1.90765 3.24477 0
M  V30 11336 C 1032.38 1.94918 1.97237 0
M  V30 11337 H 1035.33 1.39853 0.750116 0
M  V30 11338 H 1035.35 1.57056 3.46574 0
M  V30 11339 H 1034.86 3.05088 2.39881 0
M  V30 11340 H 1032.96 0.905521 3.61429 0
M  V30 11341 H 1033.08 2.76611 3.91182 0
M  V30 11342 H 1031.44 1.39046 2.13397 0
M  V30 11343 H 1032.22 2.99729 1.67385 0
M  V30 11344 N 1034.67 -1.14067 1.0875 0
M  V30 11345 C 1035.9 -1.89041 0.840902 0
M  V30 11346 C 1036.31 -1.78768 -0.60725 0
M  V30 11347 O 1035.67 -1.14945 -1.41753 0
M  V30 11348 C 1035.72 -3.38891 1.25838 0
M  V30 11349 O 1035.44 -3.48886 2.64972 0
M  V30 11350 C 1036.94 -4.30852 1.04315 0
M  V30 11351 H 1034.16 -0.598685 0.303014 0
M  V30 11352 H 1036.71 -1.44438 1.44769 0
M  V30 11353 H 1034.86 -3.81103 0.695627 0
M  V30 11354 H 1035.28 -4.41989 2.82393 0
M  V30 11355 H 1036.75 -5.34353 1.38461 0
M  V30 11356 H 1037.23 -4.39196 -0.0195784 0
M  V30 11357 H 1037.83 -3.944 1.59151 0
M  V30 11358 N 1036.15 -0.873678 -1.31166 0
M  V30 11359 C 1037.38 -0.501043 -2.00742 0
M  V30 11360 C 1037.79 0.907477 -1.65561 0
M  V30 11361 O 1037.15 1.59507 -0.886771 0
M  V30 11362 C 1037.2 -0.652877 -3.55556 0
M  V30 11363 O 1036.92 -2.00593 -3.89479 0
M  V30 11364 C 1038.42 -0.281742 -4.42404 0
M  V30 11365 H 1035.64 -0.194829 -0.642092 0
M  V30 11366 H 1038.19 -1.17587 -1.67313 0
M  V30 11367 H 1036.34 -0.0255627 -3.87392 0
M  V30 11368 H 1036.75 -2.01638 -4.84193 0
M  V30 11369 H 1038.23 -0.43892 -5.50252 0
M  V30 11370 H 1038.71 0.779389 -4.32229 0
M  V30 11371 H 1039.31 -0.88491 -4.15992 0
M  V30 11372 N 1037.63 1.44308 -0.633487 0
M  V30 11373 C 1038.87 2.02023 -0.138917 0
M  V30 11374 C 1039.2 1.49841 1.24008 0
M  V30 11375 O 1038.46 0.673718 1.83738 0
M  V30 11376 C 1038.76 3.57316 -0.0773886 0
M  V30 11377 C 1038.42 4.28762 -1.39548 0
M  V30 11378 C 1037.08 4.47997 -1.75648 0
M  V30 11379 C 1039.44 4.69391 -2.26542 0
M  V30 11380 C 1036.76 5.05121 -2.98445 0
M  V30 11381 C 1039.12 5.27876 -3.48612 0
M  V30 11382 C 1037.78 5.45329 -3.84932 0
M  V30 11383 H 1037.05 0.739254 -0.0508333 0
M  V30 11384 H 1039.7 1.73043 -0.820271 0
M  V30 11385 H 1038 3.85724 0.687345 0
M  V30 11386 H 1039.7 3.99706 0.321837 0
M  V30 11387 H 1036.29 4.14122 -1.10456 0
M  V30 11388 H 1040.47 4.54241 -1.99946 0
M  V30 11389 H 1035.73 5.16821 -3.26658 0
M  V30 11390 H 1039.9 5.58307 -4.16253 0
M  V30 11391 H 1037.53 5.8936 -4.80166 0
M  V30 11392 N 1039.1 0.374177 1.53094 0
M  V30 11393 C 1040.33 -0.215903 2.06273 0
M  V30 11394 C 1040.75 -1.40979 1.24526 0
M  V30 11395 O 1040.11 -1.79331 0.266462 0
M  V30 11396 C 1040.16 -0.579089 3.5592 0
M  V30 11397 O 1039.26 -1.67516 3.76845 0
M  V30 11398 H 1038.61 -0.0293981 0.663349 0
M  V30 11399 H 1041.14 0.537271 1.9742 0
M  V30 11400 H 1041.15 -0.847678 3.99097 0
M  V30 11401 H 1039.82 0.293843 4.14861 0
M  V30 11402 H 1038.4 -1.40146 3.45563 0
M  V30 11403 N 1040.58 -1.57259 0.103575 0
M  V30 11404 C 1041.53 -2.14487 -0.852295 0
M  V30 11405 C 1042.5 -1.06567 -1.27407 0
M  V30 11406 O 1043.68 -1.34398 -1.35432 0
M  V30 11407 C 1040.82 -2.73632 -2.10284 0
M  V30 11408 C 1039.94 -3.95811 -1.73083 0
M  V30 11409 C 1039.07 -4.43093 -2.92988 0
M  V30 11410 C 1038.11 -5.5784 -2.51953 0
M  V30 11411 N 1037.25 -5.99936 -3.64721 0
M  V30 11412 H 1042.09 -2.95849 -0.35743 0
M  V30 11413 H 1039.63 -1.46175 -0.164748 0
M  V30 11414 H 1041.58 -3.06046 -2.83534 0
M  V30 11415 H 1040.21 -1.94985 -2.57256 0
M  V30 11416 H 1039.27 -3.69656 -0.897688 0
M  V30 11417 H 1040.58 -4.79066 -1.38916 0
M  V30 11418 H 1039.73 -4.77335 -3.74481 0
M  V30 11419 H 1038.47 -3.58756 -3.30372 0
M  V30 11420 H 1037.48 -5.23217 -1.6889 0
M  V30 11421 H 1038.7 -6.43932 -2.15705 0
M  V30 11422 H 1036.65 -5.18543 -4.01807 0
M  V30 11423 H 1036.56 -6.78008 -3.34427 0
M  V30 11424 H 1037.83 -6.38812 -4.46699 0
M  V30 11425 N 1042.06 0.170153 -1.56679 0
M  V30 11426 C 1043.48 0.521966 -1.50823 0
M  V30 11427 C 1043.68 1.84589 -0.808037 0
M  V30 11428 O 1042.73 2.49791 -0.368891 0
M  V30 11429 C 1044.05 0.553648 -2.95559 0
M  V30 11430 C 1045.59 0.640769 -3.06371 0
M  V30 11431 C 1046.07 0.703332 -4.52567 0
M  V30 11432 N 1047.56 0.76619 -4.56819 0
M  V30 11433 C 1048.29 0.835192 -5.67285 0
M  V30 11434 N 1047.79 0.864957 -6.87379 0
M  V30 11435 N 1049.58 0.874302 -5.55259 0
M  V30 11436 H 1041.73 -0.697952 -2.00605 0
M  V30 11437 H 1044 -0.251787 -0.913952 0
M  V30 11438 H 1043.7 -0.350498 -3.49949 0
M  V30 11439 H 1043.58 1.39973 -3.50268 0
M  V30 11440 H 1045.96 1.53534 -2.52015 0
M  V30 11441 H 1046.05 -0.232008 -2.54746 0
M  V30 11442 H 1045.69 -0.186986 -5.07556 0
M  V30 11443 H 1045.62 1.59227 -5.0195 0
M  V30 11444 H 1048.11 0.751424 -3.70354 0
M  V30 11445 H 1048.42 0.918814 -7.67318 0
M  V30 11446 H 1046.77 0.833215 -6.89987 0
M  V30 11447 H 1049.96 0.848057 -4.60354 0
M  V30 11448 H 1050.13 0.924615 -6.4137 0
M  V30 11449 N 1043.54 1.5137 0.438746 0
M  V30 11450 C 1044.79 1.63202 1.18524 0
M  V30 11451 C 1045.1 0.353408 1.92381 0
M  V30 11452 O 1046.31 0.351086 2.6922 0
M  V30 11453 C 1044.76 2.88218 2.15542 0
M  V30 11454 C 1044.37 4.23078 1.47339 0
M  V30 11455 C 1046.11 3.09407 2.90633 0
M  V30 11456 C 1044.02 5.39246 2.42833 0
M  V30 11457 H 1042.95 0.607864 0.446114 0
M  V30 11458 H 1045.6 1.77835 0.452421 0
M  V30 11459 H 1043.98 2.67216 2.92253 0
M  V30 11460 H 1045.16 4.54457 0.761964 0
M  V30 11461 H 1043.47 4.07755 0.844065 0
M  V30 11462 H 1046.07 3.9337 3.62165 0
M  V30 11463 H 1046.41 2.22428 3.51897 0
M  V30 11464 H 1046.95 3.30743 2.21029 0
M  V30 11465 H 1043.69 6.2848 1.8626 0
M  V30 11466 H 1043.21 5.12245 3.12034 0
M  V30 11467 H 1044.88 5.71137 3.03992 0
M  V30 11468 N 1045.02 -0.694098 1.41492 0
M  V30 11469 C 1045.97 -1.80016 1.39923 0
M  V30 11470 C 1046.95 -1.58561 0.273377 0
M  V30 11471 O 1048.14 -1.69368 0.514157 0
M  V30 11472 C 1045.27 -3.18333 1.28526 0
M  V30 11473 C 1044.36 -3.45478 2.45979 0
M  V30 11474 N 1044.75 -3.43313 3.71443 0
M  V30 11475 C 1043.05 -3.76033 2.39824 0
M  V30 11476 C 1043.75 -3.69404 4.4935 0
M  V30 11477 N 1042.72 -3.89221 3.79484 0
M  V30 11478 H 1046.53 -1.76707 2.34844 0
M  V30 11479 H 1044.04 -0.894148 1.35568 0
M  V30 11480 H 1046.04 -3.97567 1.25484 0
M  V30 11481 H 1044.7 -3.22852 0.345904 0
M  V30 11482 H 1045.71 -3.2366 4.04308 0
M  V30 11483 H 1042.38 -3.87913 1.54368 0
M  V30 11484 H 1043.77 -3.73854 5.58285 0
M  V30 11485 N 1046.49 -1.27344 -0.928501 0
M  V30 11486 C 1047.91 -1.04732 -1.2043 0
M  V30 11487 C 1048.11 0.219623 -2.003 0
M  V30 11488 O 1047.17 0.925333 -2.34934 0
M  V30 11489 C 1048.48 -2.28625 -1.95323 0
M  V30 11490 C 1050.03 -2.33655 -2.08265 0
M  V30 11491 C 1050.5 -3.57275 -2.86563 0
M  V30 11492 N 1051.99 -3.57828 -2.94132 0
M  V30 11493 C 1052.73 -4.50152 -3.55177 0
M  V30 11494 N 1052.22 -5.52779 -4.17621 0
M  V30 11495 N 1054.02 -4.37777 -3.52573 0
M  V30 11496 H 1046.17 -2.08697 -0.394892 0
M  V30 11497 H 1048.43 -0.91782 -0.2373 0
M  V30 11498 H 1048.14 -3.20845 -1.44054 0
M  V30 11499 H 1048.01 -2.33878 -2.95941 0
M  V30 11500 H 1050.4 -1.41942 -2.58721 0
M  V30 11501 H 1050.48 -2.32406 -1.0687 0
M  V30 11502 H 1050.12 -4.49325 -2.3679 0
M  V30 11503 H 1050.05 -3.55775 -3.88242 0
M  V30 11504 H 1052.54 -2.83607 -2.49751 0
M  V30 11505 H 1052.86 -6.19394 -4.62137 0
M  V30 11506 H 1051.2 -5.56622 -4.16169 0
M  V30 11507 H 1054.39 -3.56811 -3.02991 0
M  V30 11508 H 1054.57 -5.09919 -3.99858 0
M  V30 11509 N 1047.97 1.13488 -1.09353 0
M  V30 11510 C 1048.91 2.17951 -0.67622 0
M  V30 11511 C 1049.88 1.59482 0.316906 0
M  V30 11512 O 1051.07 1.8723 0.218459 0
M  V30 11513 C 1048.19 3.387 0.00391024 0
M  V30 11514 C 1047.24 4.15764 -0.950906 0
M  V30 11515 S 1048.07 4.75517 -2.46259 0
M  V30 11516 C 1049.23 5.99613 -1.79485 0
M  V30 11517 H 1049.46 2.53012 -1.56115 0
M  V30 11518 H 1047 1.24773 -0.909447 0
M  V30 11519 H 1048.95 4.08643 0.39002 0
M  V30 11520 H 1047.61 3.01941 0.86548 0
M  V30 11521 H 1046.81 5.02229 -0.422086 0
M  V30 11522 H 1046.41 3.51473 -1.27838 0
M  V30 11523 H 1048.7 6.68204 -1.11846 0
M  V30 11524 H 1049.64 6.57102 -2.63862 0
M  V30 11525 H 1050.05 5.50165 -1.26409 0
M  V30 11526 N 1049.45 0.880621 1.30701 0
M  V30 11527 C 1050.7 0.492957 1.95583 0
M  V30 11528 C 1051.01 -0.961863 1.70316 0
M  V30 11529 O 1052.22 -1.45617 2.29146 0
M  V30 11530 C 1050.68 0.830656 3.50183 0
M  V30 11531 C 1050.28 2.30295 3.84276 0
M  V30 11532 C 1052.03 0.511979 4.21401 0
M  V30 11533 C 1049.93 2.58251 5.32034 0
M  V30 11534 H 1048.86 0.18062 0.732047 0
M  V30 11535 H 1051.52 1.075 1.48715 0
M  V30 11536 H 1049.9 0.177752 3.95601 0
M  V30 11537 H 1051.07 2.99981 3.49783 0
M  V30 11538 H 1049.39 2.58873 3.2615 0
M  V30 11539 H 1051.98 0.697935 5.30125 0
M  V30 11540 H 1052.33 -0.548327 4.12673 0
M  V30 11541 H 1052.86 1.12189 3.81652 0
M  V30 11542 H 1049.6 3.63005 5.45809 0
M  V30 11543 H 1049.12 1.9317 5.67843 0
M  V30 11544 H 1050.8 2.43527 5.99419 0
M  V30 11545 N 1050.93 -1.4397 0.641131 0
M  V30 11546 C 1051.88 -2.30728 -0.0577905 0
M  V30 11547 C 1052.85 -1.44059 -0.826819 0
M  V30 11548 O 1054.03 -1.72947 -0.805853 0
M  V30 11549 C 1051.17 -3.29478 -1.02657 0
M  V30 11550 C 1050.28 -4.31247 -0.254913 0
M  V30 11551 C 1049.42 -5.17085 -1.2164 0
M  V30 11552 C 1048.46 -6.10556 -0.434481 0
M  V30 11553 N 1047.6 -6.89059 -1.34694 0
M  V30 11554 H 1052.44 -2.8995 0.687953 0
M  V30 11555 H 1049.97 -1.4285 0.351029 0
M  V30 11556 H 1051.93 -3.85228 -1.60173 0
M  V30 11557 H 1050.56 -2.71932 -1.73933 0
M  V30 11558 H 1049.61 -3.77889 0.436338 0
M  V30 11559 H 1050.92 -4.97545 0.353642 0
M  V30 11560 H 1050.08 -5.77402 -1.86258 0
M  V30 11561 H 1048.82 -4.50885 -1.85888 0
M  V30 11562 H 1047.82 -5.49339 0.225125 0
M  V30 11563 H 1049.05 -6.78795 0.203415 0
M  V30 11564 H 1046.99 -6.25518 -1.97644 0
M  V30 11565 H 1046.91 -7.51833 -0.792657 0
M  V30 11566 H 1048.18 -7.5389 -1.98165 0
M  V30 11567 N 1052.41 -0.382291 -1.52893 0
M  V30 11568 C 1053.34 0.447829 -2.29165 0
M  V30 11569 C 1054.32 1.06956 -1.32267 0
M  V30 11570 O 1055.5 1.08365 -1.61154 0
M  V30 11571 C 1052.63 1.57902 -3.09329 0
M  V30 11572 C 1051.59 1.08369 -4.14053 0
M  V30 11573 C 1050.91 2.30641 -4.82399 0
M  V30 11574 C 1052.21 0.156591 -5.22065 0
M  V30 11575 H 1053.91 -0.188541 -2.98806 0
M  V30 11576 H 1051.45 -0.0921179 -1.43705 0
M  V30 11577 H 1053.41 2.16652 -3.61442 0
M  V30 11578 H 1052.13 2.24287 -2.37409 0
M  V30 11579 H 1050.79 0.518772 -3.62911 0
M  V30 11580 H 1050.44 2.9552 -4.07034 0
M  V30 11581 H 1050.14 1.98163 -5.53177 0
M  V30 11582 H 1051.66 2.90047 -5.37313 0
M  V30 11583 H 1053.08 0.652065 -5.6958 0
M  V30 11584 H 1051.47 -0.0780978 -6.00049 0
M  V30 11585 H 1052.54 -0.796529 -4.78313 0
M  V30 11586 N 1053.89 1.57202 -0.111913 0
M  V30 11587 C 1055.13 1.94565 0.546713 0
M  V30 11588 C 1055.45 0.995644 1.67666 0
M  V30 11589 O 1054.72 0.0506681 1.95834 0
M  V30 11590 H 1053.3 0.718334 0.204951 0
M  V30 11591 H 1055.97 1.94074 -0.179193 0
M  V30 11592 H 1055.06 2.9742 0.945931 0
M  V30 11593 N 1055.36 -0.161842 1.56767 0
M  V30 11594 C 1056.29 -1.20226 2.0017 0
M  V30 11595 C 1057.27 -1.4564 0.878807 0
M  V30 11596 O 1058.46 -1.56813 1.14557 0
M  V30 11597 C 1055.59 -2.53897 2.36968 0
M  V30 11598 C 1054.54 -2.43033 3.52305 0
M  V30 11599 C 1053.87 -3.81281 3.74872 0
M  V30 11600 C 1055.17 -1.927 4.85453 0
M  V30 11601 H 1056.86 -0.84142 2.87333 0
M  V30 11602 H 1054.41 -0.403309 1.38237 0
M  V30 11603 H 1056.36 -3.26893 2.6593 0
M  V30 11604 H 1055.09 -2.91787 1.46724 0
M  V30 11605 H 1053.75 -1.7249 3.23485 0
M  V30 11606 H 1053.39 -4.1658 2.81904 0
M  V30 11607 H 1053.09 -3.74877 4.52483 0
M  V30 11608 H 1054.62 -4.55848 4.06245 0
M  V30 11609 H 1056.03 -2.55477 5.13229 0
M  V30 11610 H 1054.43 -1.97222 5.66766 0
M  V30 11611 H 1055.5 -0.881816 4.76814 0
M  V30 11612 N 1056.84 -1.516 -0.430713 0
M  V30 11613 C 1058.07 -1.687 -1.20644 0
M  V30 11614 C 1058.49 -0.386555 -1.84085 0
M  V30 11615 O 1057.85 0.653952 -1.69095 0
M  V30 11616 C 1057.9 -2.80887 -2.2613 0
M  V30 11617 O 1057 -2.44952 -3.31772 0
M  V30 11618 H 1056.34 -0.562289 -0.353167 0
M  V30 11619 H 1058.87 -1.98198 -0.507807 0
M  V30 11620 H 1058.88 -3.05167 -2.70809 0
M  V30 11621 H 1057.56 -3.75249 -1.79334 0
M  V30 11622 H 1056.13 -2.31267 -2.92523 0
M  V30 11623 N 1058.32 0.686584 -1.41858 0
M  V30 11624 C 1059.57 1.44235 -1.40994 0
M  V30 11625 C 1059.88 1.95583 -0.0254979 0
M  V30 11626 O 1061.09 2.71294 0.10576 0
M  V30 11627 C 1059.54 2.6086 -2.47952 0
M  V30 11628 C 1059.15 2.16259 -3.92347 0
M  V30 11629 C 1060.9 3.38441 -2.56237 0
M  V30 11630 C 1058.8 3.29896 -4.90838 0
M  V30 11631 H 1057.73 0.54181 -0.524364 0
M  V30 11632 H 1060.38 0.744486 -1.67719 0
M  V30 11633 H 1058.77 3.32957 -2.14373 0
M  V30 11634 H 1059.94 1.51392 -4.35221 0
M  V30 11635 H 1058.25 1.51648 -3.87804 0
M  V30 11636 H 1060.85 4.23052 -3.27003 0
M  V30 11637 H 1061.19 3.84238 -1.6021 0
M  V30 11638 H 1061.73 2.73406 -2.88953 0
M  V30 11639 H 1058.47 2.89104 -5.88302 0
M  V30 11640 H 1057.99 3.93584 -4.52606 0
M  V30 11641 H 1059.67 3.95541 -5.12012 0
M  V30 11642 N 1059.8 1.27835 0.921735 0
M  V30 11643 C 1061.07 1.05238 1.64877 0
M  V30 11644 C 1061.45 -0.410921 2.07062 0
M  V30 11645 O 1060.8 -1.39538 1.80946 0
M  V30 11646 C 1061.01 2.01955 2.84632 0
M  V30 11647 C 1062.36 2.31657 3.55837 0
M  V30 11648 O 1063.38 1.99975 2.94768 0
M  V30 11649 O 1062.24 2.85692 4.65878 0
M  V30 11650 H 1059.34 0.401622 0.72293 0
M  V30 11651 H 1061.88 1.39123 0.971744 0
M  V30 11652 H 1060.66 3.00614 2.50494 0
M  V30 11653 H 1060.28 1.68667 3.60052 0
M  V30 11654 N 1061.28 -1.12907 1.09954 0
M  V30 11655 C 1062.19 -2.22082 0.756095 0
M  V30 11656 C 1063.2 -1.72277 -0.244272 0
M  V30 11657 O 1064.38 -2.01224 -0.0842637 0
M  V30 11658 C 1061.44 -3.46192 0.187642 0
M  V30 11659 C 1060.5 -4.10861 1.24465 0
M  V30 11660 C 1059.74 -5.29047 0.703227 0
M  V30 11661 O 1059.96 -5.68443 -0.472043 0
M  V30 11662 O 1058.89 -5.83904 1.46082 0
M  V30 11663 H 1062.72 -2.53842 1.66727 0
M  V30 11664 H 1060.3 -1.21145 0.874316 0
M  V30 11665 H 1062.19 -4.21212 -0.125774 0
M  V30 11666 H 1060.86 -3.16119 -0.696459 0
M  V30 11667 H 1059.77 -3.37643 1.61085 0
M  V30 11668 H 1061.1 -4.45078 2.10159 0
M  V30 11669 N 1062.75 -0.88754 -1.30232 0
M  V30 11670 C 1063.66 -0.360333 -2.31816 0
M  V30 11671 C 1064.68 0.538741 -1.6545 0
M  V30 11672 O 1065.86 0.431246 -1.96729 0
M  V30 11673 C 1062.92 0.414336 -3.44215 0
M  V30 11674 C 1061.98 -0.514799 -4.26202 0
M  V30 11675 C 1061.21 0.222994 -5.33234 0
M  V30 11676 O 1061.44 1.44871 -5.51696 0
M  V30 11677 O 1060.37 -0.428221 -6.00375 0
M  V30 11678 H 1064.2 -1.20279 -2.78867 0
M  V30 11679 H 1061.78 -0.651459 -1.34448 0
M  V30 11680 H 1063.66 0.852859 -4.12679 0
M  V30 11681 H 1062.34 1.23305 -2.99295 0
M  V30 11682 H 1061.25 -1.00219 -3.60426 0
M  V30 11683 H 1062.58 -1.29959 -4.74733 0
M  V30 11684 N 1064.23 1.43628 -0.648757 0
M  V30 11685 C 1065.14 2.34554 0.0463037 0
M  V30 11686 C 1066.16 1.53629 0.816952 0
M  V30 11687 O 1067.33 1.86297 0.765212 0
M  V30 11688 C 1064.4 3.3185 1.00381 0
M  V30 11689 C 1063.46 4.2868 0.230589 0
M  V30 11690 C 1062.69 5.21328 1.14249 0
M  V30 11691 O 1062.92 5.18298 2.38166 0
M  V30 11692 O 1061.85 5.98726 0.617296 0
M  V30 11693 H 1065.68 2.95475 -0.702008 0
M  V30 11694 H 1063.26 1.43694 -0.408942 0
M  V30 11695 H 1065.14 3.91692 1.5542 0
M  V30 11696 H 1063.82 2.73439 1.73243 0
M  V30 11697 H 1062.73 3.72332 -0.363282 0
M  V30 11698 H 1064.06 4.90061 -0.458368 0
M  V30 11699 N 1065.71 0.390394 1.52688 0
M  V30 11700 C 1066.66 -0.4591 2.28024 0
M  V30 11701 C 1067.65 -1.06212 1.31967 0
M  V30 11702 O 1068.86 -1.00247 1.49501 0
M  V30 11703 H 1065.23 -0.16681 0.733266 0
M  V30 11704 H 1067.2 0.197747 2.97744 0
M  V30 11705 C 1065.95 -1.5737 3.10048 0
M  V30 11706 H 1065.28 -1.11901 3.83821 0
M  V30 11707 H 1066.72 -2.1423 3.65898 0
M  V30 11708 C 1065.18 -2.53036 2.22429 0
M  V30 11709 O 1065.71 -3.5647 1.85181 0
M  V30 11710 N 1063.91 -2.22802 1.86567 0
M  V30 11711 H 1063.46 -1.38723 2.17057 0
M  V30 11712 H 1063.42 -2.87061 1.28233 0
M  V30 11713 N 1067.19 -1.57141 0.120249 0
M  V30 11714 C 1068.14 -2.16638 -0.846809 0
M  V30 11715 C 1069.13 -1.11594 -1.27449 0
M  V30 11716 O 1070.34 -1.29895 -1.24608 0
M  V30 11717 H 1066.71 -0.693331 -0.291197 0
M  V30 11718 H 1068.68 -2.96673 -0.320536 0
M  V30 11719 C 1067.43 -2.78134 -2.08655 0
M  V30 11720 H 1066.75 -3.58662 -1.76639 0
M  V30 11721 H 1068.19 -3.23301 -2.74322 0
M  V30 11722 C 1066.65 -1.7528 -2.87713 0
M  V30 11723 O 1067.18 -1.20693 -3.8314 0
M  V30 11724 N 1065.39 -1.45192 -2.51729 0
M  V30 11725 H 1064.94 -1.89773 -1.74195 0
M  V30 11726 H 1064.89 -0.766166 -3.04922 0
M  V30 11727 N 1068.67 0.153526 -1.5685 0
M  V30 11728 C 1069.94 0.895545 -1.73895 0
M  V30 11729 C 1070.32 1.99625 -0.686504 0
M  V30 11730 O 1069.67 2.26579 0.2957 0
M  V30 11731 C 1069.88 1.44399 -3.17726 0
M  V30 11732 C 1071.23 1.90996 -3.79217 0
M  V30 11733 O 1072.25 1.54155 -3.21115 0
M  V30 11734 O 1071.11 2.58917 -4.81274 0
M  V30 11735 H 1068.21 0.422755 -0.710779 0
M  V30 11736 H 1070.75 0.139961 -1.69122 0
M  V30 11737 H 1069.52 0.652635 -3.85819 0
M  V30 11738 H 1069.15 2.26326 -3.26898 0
M  V30 11739 N 1070.14 1.51827 0.422667 0
M  V30 11740 C 1071.39 1.6445 1.16786 0
M  V30 11741 C 1071.71 0.373792 1.91995 0
M  V30 11742 O 1072.91 0.379621 2.68833 0
M  V30 11743 C 1071.37 2.90488 2.12473 0
M  V30 11744 C 1070.98 4.24617 1.42844 0
M  V30 11745 C 1072.72 3.12472 2.87335 0
M  V30 11746 C 1070.63 5.41791 2.371 0
M  V30 11747 H 1069.56 0.612561 0.439641 0
M  V30 11748 H 1072.21 1.78305 0.433534 0
M  V30 11749 H 1070.59 2.703 2.89402 0
M  V30 11750 H 1071.76 4.55239 0.71372 0
M  V30 11751 H 1070.08 4.08628 0.800769 0
M  V30 11752 H 1072.68 3.9719 3.57973 0
M  V30 11753 H 1073.02 2.26148 3.49518 0
M  V30 11754 H 1073.55 3.33069 2.17509 0
M  V30 11755 H 1070.29 6.3042 1.79584 0
M  V30 11756 H 1069.81 5.15526 3.06583 0
M  V30 11757 H 1071.49 5.74329 2.97918 0
M  V30 11758 N 1071.62 -0.679052 1.4222 0
M  V30 11759 C 1072.9 -1.43473 1.32947 0
M  V30 11760 C 1073.28 -2.11071 -0.0351689 0
M  V30 11761 O 1072.63 -2.02925 -1.05042 0
M  V30 11762 C 1072.84 -2.44065 2.49466 0
M  V30 11763 C 1074.19 -3.08834 2.91387 0
M  V30 11764 O 1075.21 -2.54392 2.49325 0
M  V30 11765 O 1074.07 -4.07478 3.64175 0
M  V30 11766 H 1071.16 -0.639743 0.524078 0
M  V30 11767 H 1073.71 -0.708134 1.54219 0
M  V30 11768 H 1072.48 -1.92884 3.40457 0
M  V30 11769 H 1072.1 -3.24212 2.30158 0
M  V30 11770 N 1073.1 -1.28322 -0.914942 0
M  V30 11771 C 1074.03 -1.14681 -2.03398 0
M  V30 11772 C 1075.01 -0.0448939 -1.70041 0
M  V30 11773 O 1076.2 -0.221672 -1.92931 0
M  V30 11774 C 1073.33 -0.806623 -3.37803 0
M  V30 11775 C 1072.28 -1.86318 -3.85318 0
M  V30 11776 C 1071.61 -1.37665 -5.16674 0
M  V30 11777 C 1072.91 -3.26953 -4.07307 0
M  V30 11778 H 1074.6 -2.08293 -2.15068 0
M  V30 11779 H 1072.15 -1.00284 -1.03339 0
M  V30 11780 H 1074.1 -0.69796 -4.1558 0
M  V30 11781 H 1072.82 0.165203 -3.26182 0
M  V30 11782 H 1071.48 -1.96096 -3.09745 0
M  V30 11783 H 1071.13 -0.393927 -5.01455 0
M  V30 11784 H 1070.83 -2.08313 -5.49435 0
M  V30 11785 H 1072.35 -1.28119 -5.97007 0
M  V30 11786 H 1073.77 -3.20102 -4.75613 0
M  V30 11787 H 1072.17 -3.95424 -4.51398 0
M  V30 11788 H 1073.24 -3.71059 -3.12159 0
M  V30 11789 N 1074.58 1.12322 -1.10551 0
M  V30 11790 C 1075.99 1.6539 -0.8662 0
M  V30 11791 C 1076.34 1.86695 0.603284 0
M  V30 11792 O 1075.47 1.59432 1.46323 0
M  V30 11793 C 1076.06 3.00443 -1.56587 0
M  V30 11794 C 1074.62 3.50456 -1.37323 0
M  V30 11795 C 1073.77 2.25454 -1.61449 0
M  V30 11796 H 1076.72 0.960866 -1.26305 0
M  V30 11797 H 1076.74 3.66972 -1.00557 0
M  V30 11798 H 1076.25 2.84905 -2.63535 0
M  V30 11799 H 1074.35 3.71176 -0.325431 0
M  V30 11800 H 1074.46 4.29839 -2.11601 0
M  V30 11801 H 1072.83 2.32621 -1.03729 0
M  V30 11802 H 1073.61 2.12469 -2.69651 0
M  V30 11803 N 1076.06 0.894434 1.2976 0
M  V30 11804 C 1077.47 0.566892 1.77885 0
M  V30 11805 C 1077.82 -0.917289 1.73437 0
M  V30 11806 O 1076.94 -1.71707 1.31703 0
M  V30 11807 C 1077.54 1.02227 3.2301 0
M  V30 11808 C 1076.1 0.745978 3.68934 0
M  V30 11809 C 1075.24 1.19993 2.49994 0
M  V30 11810 H 1078.2 1.0777 1.16496 0
M  V30 11811 H 1078.22 0.355281 3.78838 0
M  V30 11812 H 1077.73 2.1025 3.26215 0
M  V30 11813 H 1075.83 -0.321866 3.71207 0
M  V30 11814 H 1075.94 1.34017 4.59974 0
M  V30 11815 H 1074.31 0.619047 2.47063 0
M  V30 11816 H 1075.09 2.28811 2.55931 0
M  V30 11817 N 1077.53 -1.43282 0.656365 0
M  V30 11818 C 1078.46 -2.33492 -0.0196962 0
M  V30 11819 C 1079.45 -1.49647 -0.80868 0
M  V30 11820 O 1080.63 -1.78303 -0.769529 0
M  V30 11821 C 1077.76 -3.33052 -0.984574 0
M  V30 11822 C 1076.71 -4.26908 -0.305483 0
M  V30 11823 C 1076.04 -5.16531 -1.38202 0
M  V30 11824 C 1077.34 -5.16073 0.804081 0
M  V30 11825 H 1079.03 -2.90272 0.733661 0
M  V30 11826 H 1076.58 -1.39574 0.354259 0
M  V30 11827 H 1078.53 -3.9506 -1.46647 0
M  V30 11828 H 1077.26 -2.74535 -1.76913 0
M  V30 11829 H 1075.92 -3.66268 0.155995 0
M  V30 11830 H 1075.56 -4.54351 -2.1581 0
M  V30 11831 H 1075.26 -5.80148 -0.932878 0
M  V30 11832 H 1076.79 -5.81414 -1.86522 0
M  V30 11833 H 1078.2 -5.71873 0.404212 0
M  V30 11834 H 1076.6 -5.88427 1.17789 0
M  V30 11835 H 1077.67 -4.55574 1.66073 0
M  V30 11836 N 1079.01 -0.398486 -1.52479 0
M  V30 11837 C 1079.92 0.439328 -2.3045 0
M  V30 11838 C 1080.94 1.06322 -1.37738 0
M  V30 11839 O 1082.12 1.06704 -1.7081 0
M  V30 11840 C 1079.18 1.54655 -3.10294 0
M  V30 11841 C 1078.24 0.946824 -4.18729 0
M  V30 11842 C 1077.47 2.00129 -4.94757 0
M  V30 11843 O 1077.7 3.2178 -4.70971 0
M  V30 11844 O 1076.63 1.61345 -5.79872 0
M  V30 11845 H 1080.46 -0.196118 -3.03066 0
M  V30 11846 H 1078.04 -0.161961 -1.4852 0
M  V30 11847 H 1079.92 2.18958 -3.60049 0
M  V30 11848 H 1078.6 2.1668 -2.40482 0
M  V30 11849 H 1077.51 0.266802 -3.73147 0
M  V30 11850 H 1078.84 0.370664 -4.90802 0
M  V30 11851 N 1080.49 1.57075 -0.12858 0
M  V30 11852 C 1081.4 2.19369 0.831533 0
M  V30 11853 C 1082.42 1.17258 1.28555 0
M  V30 11854 O 1083.59 1.49766 1.34656 0
M  V30 11855 C 1080.66 2.78846 2.06024 0
M  V30 11856 C 1079.72 3.96024 1.65722 0
M  V30 11857 C 1078.95 4.52655 2.82735 0
M  V30 11858 O 1079.18 4.08175 3.98434 0
M  V30 11859 O 1078.11 5.43198 2.59268 0
M  V30 11860 H 1081.94 3.01887 0.331352 0
M  V30 11861 H 1079.52 1.49081 0.0975226 0
M  V30 11862 H 1081.4 3.16721 2.77967 0
M  V30 11863 H 1080.08 1.99353 2.5503 0
M  V30 11864 H 1078.98 3.62899 0.908574 0
M  V30 11865 H 1080.32 4.76981 1.21449 0
M  V30 11866 N 1081.97 -0.145205 1.5693 0
M  V30 11867 C 1083.2 -0.872398 1.87608 0
M  V30 11868 C 1083.61 -1.74657 0.716975 0
M  V30 11869 O 1082.97 -1.79792 -0.3132 0
M  V30 11870 C 1083.02 -1.72762 3.17546 0
M  V30 11871 O 1082.74 -0.888681 4.28992 0
M  V30 11872 C 1084.24 -2.56224 3.61751 0
M  V30 11873 H 1081.46 -0.252166 0.621815 0
M  V30 11874 H 1084.01 -0.137456 2.04038 0
M  V30 11875 H 1082.16 -2.41561 3.02865 0
M  V30 11876 H 1082.58 -1.47601 5.03303 0
M  V30 11877 H 1084.05 -3.11804 4.55502 0
M  V30 11878 H 1084.53 -3.32347 2.87127 0
M  V30 11879 H 1085.13 -1.92714 3.79133 0
M  V30 11880 N 1083.45 -1.52049 -0.414609 0
M  V30 11881 C 1084.69 -1.66084 -1.16379 0
M  V30 11882 C 1085.03 -0.386932 -1.90306 0
M  V30 11883 O 1084.3 0.614441 -1.8454 0
M  V30 11884 C 1084.58 -2.87927 -2.16264 0
M  V30 11885 C 1084.44 -4.25353 -1.46269 0
M  V30 11886 C 1085.76 -3.05289 -3.16996 0
M  V30 11887 H 1082.88 -0.604414 -0.421726 0
M  V30 11888 H 1085.52 -1.8459 -0.450177 0
M  V30 11889 H 1083.67 -2.7228 -2.77121 0
M  V30 11890 H 1085.34 -4.52717 -0.885743 0
M  V30 11891 H 1083.58 -4.27006 -0.76472 0
M  V30 11892 H 1084.25 -5.06644 -2.19126 0
M  V30 11893 H 1086.73 -3.19798 -2.66212 0
M  V30 11894 H 1085.61 -3.92065 -3.84156 0
M  V30 11895 H 1085.87 -2.1836 -3.84411 0
M  V30 11896 N 1084.93 0.6715 -1.42579 0
M  V30 11897 C 1086.2 1.42766 -1.33706 0
M  V30 11898 C 1086.58 2.11086 0.0239748 0
M  V30 11899 O 1085.93 2.03479 1.03964 0
M  V30 11900 C 1086.14 2.42739 -2.50756 0
M  V30 11901 C 1087.49 3.07284 -2.93021 0
M  V30 11902 O 1088.51 2.53066 -2.50671 0
M  V30 11903 O 1087.37 4.05541 -3.66331 0
M  V30 11904 H 1084.47 0.636955 -0.527463 0
M  V30 11905 H 1087.01 0.699946 -1.54593 0
M  V30 11906 H 1085.78 1.91076 -3.41476 0
M  V30 11907 H 1085.41 3.22986 -2.31874 0
M  V30 11908 N 1086.4 1.28806 0.908124 0
M  V30 11909 C 1087.37 1.13228 1.99279 0
M  V30 11910 C 1088.37 0.0702456 1.60646 0
M  V30 11911 O 1089.56 0.316494 1.71301 0
M  V30 11912 C 1086.69 0.729629 3.33 0
M  V30 11913 H 1087.88 2.09566 2.14528 0
M  V30 11914 H 1085.43 1.11872 1.09153 0
M  V30 11915 H 1086.17 -0.234268 3.23453 0
M  V30 11916 H 1085.95 1.49688 3.62403 0
M  V30 11917 H 1087.44 0.643449 4.12613 0
M  V30 11918 N 1087.88 -1.11734 1.11145 0
M  V30 11919 C 1089.11 -1.87215 0.880811 0
M  V30 11920 C 1089.52 -1.80016 -0.569195 0
M  V30 11921 O 1088.88 -1.17926 -1.39283 0
M  V30 11922 C 1088.93 -3.36146 1.32998 0
M  V30 11923 O 1088.65 -3.43187 2.72313 0
M  V30 11924 C 1090.15 -4.28542 1.1343 0
M  V30 11925 H 1087.37 -0.592123 0.315645 0
M  V30 11926 H 1089.92 -1.41335 1.478 0
M  V30 11927 H 1088.07 -3.79542 0.776308 0
M  V30 11928 H 1088.49 -4.359 2.91705 0
M  V30 11929 H 1089.96 -5.31295 1.49764 0
M  V30 11930 H 1090.44 -4.39138 0.0735859 0
M  V30 11931 H 1091.04 -3.90935 1.67481 0
M  V30 11932 N 1089.36 -0.901303 -1.29284 0
M  V30 11933 C 1090.64 -0.44747 -1.90413 0
M  V30 11934 C 1091.02 1.07298 -1.81797 0
M  V30 11935 O 1090.36 1.91555 -1.24574 0
M  V30 11936 C 1090.57 -0.963849 -3.35427 0
M  V30 11937 C 1091.92 -1.00851 -4.12449 0
M  V30 11938 O 1092.95 -0.91163 -3.44337 0
M  V30 11939 O 1091.81 -1.15426 -5.34171 0
M  V30 11940 H 1088.9 -0.13976 -0.815105 0
M  V30 11941 H 1091.45 -0.991274 -1.37738 0
M  V30 11942 H 1090.22 -2.00782 -3.3586 0
M  V30 11943 H 1089.84 -0.400149 -3.95581 0
M  V30 11944 N 1090.84 1.42931 -0.663954 0
M  V30 11945 C 1092.06 2.06544 -0.188201 0
M  V30 11946 C 1092.49 1.495 1.14155 0
M  V30 11947 O 1091.85 0.609164 1.7076 0
M  V30 11948 C 1091.89 3.60393 -0.122105 0
M  V30 11949 O 1091 4.02176 0.91258 0
M  V30 11950 H 1090.34 0.656458 -0.0997967 0
M  V30 11951 H 1092.87 1.83253 -0.909909 0
M  V30 11952 H 1092.88 4.07959 0.0576568 0
M  V30 11953 H 1091.55 4.01287 -1.09276 0
M  V30 11954 H 1090.13 3.6618 0.704738 0
M  V30 11955 N 1092.32 0.406567 1.52266 0
M  V30 11956 C 1093.26 -0.420182 2.26943 0
M  V30 11957 C 1094.23 -1.04323 1.29251 0
M  V30 11958 O 1095.42 -1.06799 1.5811 0
M  V30 11959 C 1092.56 -1.5323 3.09216 0
M  V30 11960 C 1091.67 -0.930419 4.21862 0
M  V30 11961 C 1090.81 -2.01502 4.91498 0
M  V30 11962 C 1089.84 -1.38994 5.9611 0
M  V30 11963 N 1088.98 -2.41458 6.59274 0
M  V30 11964 H 1093.82 0.223066 2.97164 0
M  V30 11965 H 1091.36 0.121842 1.46595 0
M  V30 11966 H 1093.32 -2.18803 3.5522 0
M  V30 11967 H 1091.95 -2.14561 2.41171 0
M  V30 11968 H 1091 -0.163809 3.80047 0
M  V30 11969 H 1092.31 -0.433785 4.9691 0
M  V30 11970 H 1091.46 -2.74807 5.40894 0
M  V30 11971 H 1090.2 -2.5453 4.16012 0
M  V30 11972 H 1089.21 -0.642213 5.46036 0
M  V30 11973 H 1090.43 -0.867386 6.73538 0
M  V30 11974 H 1088.38 -2.93623 5.86619 0
M  V30 11975 H 1088.3 -1.96599 7.2999 0
M  V30 11976 H 1089.56 -3.14341 7.13309 0
M  V30 11977 N 1093.79 -1.57004 0.136909 0
M  V30 11978 C 1094.73 -2.12004 -0.844362 0
M  V30 11979 C 1095.71 -1.04099 -1.24909 0
M  V30 11980 O 1096.89 -1.31866 -1.34698 0
M  V30 11981 C 1094.02 -2.63147 -2.13241 0
M  V30 11982 C 1093.06 -3.83105 -1.87438 0
M  V30 11983 S 1093.9 -5.2461 -1.07447 0
M  V30 11984 C 1095.05 -5.79134 -2.37392 0
M  V30 11985 H 1095.28 -2.94905 -0.376614 0
M  V30 11986 H 1092.82 -1.54207 -0.0771977 0
M  V30 11987 H 1094.78 -2.93264 -2.87239 0
M  V30 11988 H 1093.44 -1.80395 -2.57131 0
M  V30 11989 H 1092.63 -4.17099 -2.82922 0
M  V30 11990 H 1092.23 -3.53696 -1.21553 0
M  V30 11991 H 1094.52 -5.8995 -3.33114 0
M  V30 11992 H 1095.47 -6.76887 -2.07918 0
M  V30 11993 H 1095.87 -5.07311 -2.47579 0
M  V30 11994 N 1095.27 0.136881 -1.57004 0
M  V30 11995 C 1096.18 1.18793 -2.023 0
M  V30 11996 C 1097.2 1.46412 -0.94018 0
M  V30 11997 O 1098.37 1.57883 -1.2504 0
M  V30 11998 C 1095.44 2.49903 -2.40311 0
M  V30 11999 C 1094.5 2.29841 -3.6259 0
M  V30 12000 C 1093.73 3.54699 -3.98779 0
M  V30 12001 O 1093.96 4.61291 -3.3551 0
M  V30 12002 O 1092.89 3.46761 -4.91976 0
M  V30 12003 H 1096.72 0.833345 -2.92043 0
M  V30 12004 H 1094.3 0.346361 -1.4533 0
M  V30 12005 H 1096.18 3.27183 -2.65574 0
M  V30 12006 H 1094.86 2.84872 -1.5372 0
M  V30 12007 H 1093.77 1.50478 -3.42501 0
M  V30 12008 H 1095.1 1.99784 -4.4983 0
M  V30 12009 N 1096.75 1.52266 0.40654 0
M  V30 12010 C 1097.66 1.78688 1.52012 0
M  V30 12011 C 1098.68 0.6726 1.60475 0
M  V30 12012 O 1099.85 0.95829 1.77141 0
M  V30 12013 C 1096.92 1.93434 2.87722 0
M  V30 12014 C 1095.98 3.17341 2.89125 0
M  V30 12015 C 1095.21 3.31374 4.18362 0
M  V30 12016 O 1095.43 2.50613 5.12396 0
M  V30 12017 O 1094.37 4.24539 4.26674 0
M  V30 12018 H 1098.19 2.73213 1.3262 0
M  V30 12019 H 1095.78 1.37142 0.592653 0
M  V30 12020 H 1097.66 2.04941 3.68208 0
M  V30 12021 H 1096.34 1.02099 3.07177 0
M  V30 12022 H 1095.24 3.1129 2.07483 0
M  V30 12023 H 1096.58 4.08466 2.7462 0
M  V30 12024 N 1098.23 -0.663929 1.42933 0
M  V30 12025 C 1099.47 -1.42603 1.44195 0
M  V30 12026 C 1099.81 -1.94101 0.0620284 0
M  V30 12027 O 1099.08 -1.71609 -0.91546 0
M  V30 12028 C 1099.37 -2.61522 2.47544 0
M  V30 12029 C 1099.22 -2.15587 3.94769 0
M  V30 12030 C 1100.54 -3.6374 2.47753 0
M  V30 12031 H 1097.66 -0.517189 0.525056 0
M  V30 12032 H 1100.3 -0.75361 1.74415 0
M  V30 12033 H 1098.45 -3.1889 2.21904 0
M  V30 12034 H 1100.12 -1.63303 4.31428 0
M  V30 12035 H 1098.36 -1.47057 4.08114 0
M  V30 12036 H 1099.03 -3.01053 4.62678 0
M  V30 12037 H 1101.51 -3.16111 2.70579 0
M  V30 12038 H 1100.39 -4.44512 3.22025 0
M  V30 12039 H 1100.65 -4.15607 1.50742 0
M  V30 12040 N 1099.71 -1.29285 -0.901281 0
M  V30 12041 C 1100.98 -1.07847 -1.63182 0
M  V30 12042 C 1101.36 0.377927 -2.07689 0
M  V30 12043 O 1100.71 1.36642 -1.83143 0
M  V30 12044 C 1100.92 -2.06457 -2.81383 0
M  V30 12045 C 1102.27 -2.37289 -3.52107 0
M  V30 12046 O 1103.29 -2.0464 -2.91549 0
M  V30 12047 O 1102.15 -2.93067 -4.61274 0
M  V30 12048 H 1099.25 -0.413073 -0.71645 0
M  V30 12049 H 1101.79 -1.40651 -0.949488 0
M  V30 12050 H 1100.56 -3.04561 -2.4568 0
M  V30 12051 H 1100.19 -1.74374 -3.57323 0
M  V30 12052 O 1101.22 1.0367 -1.23834 0
M  V30 12053 H 1101.91 1.65154 -1.01211 0
M  V30 END ATOM
M  V30 BEGIN BOND
M  V30 END BOND
M  V30 END CTAB
M  END
$$$$
