drugbank_target|P9WP23 4-hydroxy-tetrahydrodipicolinate reductase (DB04267)
 OpenBabel12092120033D

  0  0  0     0  0            999 V3000
M  V30 BEGIN CTAB
M  V30 COUNTS 3645 3680 0 0 0
M  V30 BEGIN ATOM
M  V30 1 H -0.908 1.98254 -0.117106 0
M  V30 2 N 0 1.576 0 0
M  V30 3 C 0.933 2.03868 1.02534 0
M  V30 4 C 1.911 0.928543 1.3348 0
M  V30 5 O 3.095 1.19667 1.45644 0
M  V30 6 C 0.222 2.43627 2.35294 0
M  V30 7 C -0.732 3.65373 2.2001 0
M  V30 8 S 0.101 5.13292 1.52614 0
M  V30 9 C 1.257 5.56322 2.86805 0
M  V30 10 H 1.49 2.90518 0.631377 0
M  V30 11 H -0.977 1.52953 0.210867 0
M  V30 12 H 0.981 2.67203 3.11629 0
M  V30 13 H -0.358 1.57376 2.7183 0
M  V30 14 H -1.165 3.90944 3.18086 0
M  V30 15 H -1.563 3.418 1.51819 0
M  V30 16 H 0.729 5.58782 3.83104 0
M  V30 17 H 1.672 6.56266 2.65933 0
M  V30 18 H 2.08 4.83886 2.90714 0
M  V30 19 N 1.4781 -0.272755 1.55222 0
M  V30 20 C 2.8941 -0.619959 1.47067 0
M  V30 21 C 3.0941 -1.895 0.684978 0
M  V30 22 O 2.1501 -2.51675 0.203931 0
M  V30 23 C 3.4631 -0.746693 2.91282 0
M  V30 24 C 5.0111 -0.840731 3.01497 0
M  V30 25 C 5.4861 -0.99924 4.46967 0
M  V30 26 N 6.9771 -1.06476 4.50796 0
M  V30 27 C 7.7121 -1.20621 5.6057 0
M  V30 28 N 7.2081 -1.31483 6.80209 0
M  V30 29 N 9.0011 -1.23733 5.48312 0
M  V30 30 H 1.1521 0.564606 2.04758 0
M  V30 31 H 3.4151 0.191177 0.928523 0
M  V30 32 H 3.1211 0.119753 3.51496 0
M  V30 33 H 2.9951 -1.6269 3.40311 0
M  V30 34 H 5.3821 -1.69764 2.41379 0
M  V30 35 H 5.4631 0.0640874 2.5572 0
M  V30 36 H 5.1071 -0.146984 5.07687 0
M  V30 37 H 5.0371 -1.91871 4.90401 0
M  V30 38 H 7.5281 -0.993196 3.64615 0
M  V30 39 H 7.8411 -1.42111 7.59621 0
M  V30 40 H 6.1861 -1.28487 6.8302 0
M  V30 41 H 9.3771 -1.14877 4.53785 0
M  V30 42 H 9.5501 -1.34412 6.33906 0
M  V30 43 N 2.9562 -1.48159 -0.537278 0
M  V30 44 C 4.2022 -1.56035 -1.29541 0
M  V30 45 C 4.5352 -0.230377 -1.92829 0
M  V30 46 O 3.8102 0.762952 -1.78911 0
M  V30 47 C 4.0932 -2.69323 -2.39034 0
M  V30 48 C 3.9462 -4.12002 -1.80485 0
M  V30 49 C 5.2652 -2.78408 -3.40847 0
M  V30 50 H 2.3842 -0.567992 -0.469632 0
M  V30 51 H 5.0262 -1.80302 -0.599277 0
M  V30 52 H 3.1762 -2.48763 -2.98412 0
M  V30 53 H 4.8482 -4.43981 -1.25215 0
M  V30 54 H 3.0912 -4.19344 -1.11055 0
M  V30 55 H 3.7622 -4.87077 -2.59731 0
M  V30 56 H 6.2382 -2.97012 -2.91416 0
M  V30 57 H 5.1142 -3.59416 -4.14863 0
M  V30 58 H 5.3752 -1.86269 -4.00944 0
M  V30 59 N 4.4343 0.785586 -1.36625 0
M  V30 60 C 5.6823 1.54057 -1.30808 0
M  V30 61 C 6.0033 1.94683 0.111157 0
M  V30 62 O 5.2733 1.65241 1.05224 0
M  V30 63 H 3.8533 0.571354 -0.481211 0
M  V30 64 H 6.5153 0.935821 -1.70963 0
M  V30 65 H 5.6113 2.44637 -1.93801 0
M  V30 66 N 5.9124 1.20967 1.01018 0
M  V30 67 C 7.1584 1.02526 1.74975 0
M  V30 68 C 7.4914 -0.4408 1.89131 0
M  V30 69 O 6.7664 -1.32718 1.42184 0
M  V30 70 C 7.0494 1.71699 3.1653 0
M  V30 71 C 6.9024 3.25791 3.10129 0
M  V30 72 C 8.2214 1.45531 4.15342 0
M  V30 73 H 5.3404 0.373863 0.635134 0
M  V30 74 H 7.9824 1.49071 1.17805 0
M  V30 75 H 6.1324 1.32128 3.65341 0
M  V30 76 H 7.8044 3.74697 2.69072 0
M  V30 77 H 6.0474 3.56363 2.47362 0
M  V30 78 H 6.7184 3.69353 4.10222 0
M  V30 79 H 9.1944 1.79872 3.75213 0
M  V30 80 H 8.0704 1.96453 5.1254 0
M  V30 81 H 8.3314 0.384237 4.40427 0
M  V30 82 N 7.3905 -1.2043 1.01659 0
M  V30 83 C 8.3205 -2.25466 0.607226 0
M  V30 84 C 9.3015 -1.65853 -0.377716 0
M  V30 85 O 10.4865 -1.92409 -0.263149 0
M  V30 86 C 7.6165 -3.47256 -0.0552949 0
M  V30 87 C 6.5705 -4.19462 0.850632 0
M  V30 88 C 5.8965 -5.34673 0.0538859 0
M  V30 89 C 7.1965 -4.75603 2.15868 0
M  V30 90 H 8.8905 -2.59962 1.48526 0
M  V30 91 H 6.4365 -1.2496 0.715605 0
M  V30 92 H 8.3895 -4.19917 -0.353233 0
M  V30 93 H 7.1135 -3.11924 -0.968045 0
M  V30 94 H 5.7725 -3.48667 1.13257 0
M  V30 95 H 5.4205 -4.95585 -0.860514 0
M  V30 96 H 5.1205 -5.83913 0.657192 0
M  V30 97 H 6.6445 -6.10138 -0.237598 0
M  V30 98 H 8.0585 -5.40083 1.92311 0
M  V30 99 H 6.4555 -5.3528 2.71284 0
M  V30 100 H 7.5255 -3.94346 2.82169 0
M  V30 101 N 8.8686 -0.792821 -1.36206 0
M  V30 102 C 10.1166 -0.366062 -1.98757 0
M  V30 103 C 10.4376 1.0668 -1.63231 0
M  V30 104 O 9.7076 1.73587 -0.907978 0
M  V30 105 H 8.2876 -0.132364 -0.735179 0
M  V30 106 H 10.9496 -1.01562 -1.66347 0
M  V30 107 H 10.0456 -0.460638 -3.08682 0
M  V30 108 N 10.3467 1.47872 -0.545128 0
M  V30 109 C 11.3097 2.28337 0.198717 0
M  V30 110 C 12.3097 1.36255 0.853888 0
M  V30 111 O 13.4997 1.59003 0.711606 0
M  V30 112 C 10.6317 3.15585 1.28915 0
M  V30 113 H 11.8247 2.95567 -0.507941 0
M  V30 114 H 9.3777 1.53362 -0.301616 0
M  V30 115 H 10.1127 2.53019 2.02859 0
M  V30 116 H 9.8977 3.83337 0.824309 0
M  V30 117 H 11.3877 3.76243 1.81194 0
M  V30 118 N 11.8248 0.280983 1.55075 0
M  V30 119 C 12.7718 -0.603937 2.22758 0
M  V30 120 C 13.7418 -1.1452 1.20309 0
M  V30 121 O 14.9268 -1.19343 1.48869 0
M  V30 122 C 12.0668 -1.77947 2.95684 0
M  V30 123 C 11.1798 -1.2715 4.12864 0
M  V30 124 C 10.3148 -2.4093 4.7342 0
M  V30 125 C 9.3538 -1.87165 5.82783 0
M  V30 126 N 8.4908 -2.94441 6.37377 0
M  V30 127 H 13.3308 -0.020124 2.97993 0
M  V30 128 H 10.8678 0.00183425 1.471 0
M  V30 129 H 12.8258 -2.47055 3.36184 0
M  V30 130 H 11.4558 -2.33522 2.22861 0
M  V30 131 H 10.5078 -0.473331 3.77444 0
M  V30 132 H 11.8198 -0.837751 4.91715 0
M  V30 133 H 10.9738 -3.18021 5.1667 0
M  V30 134 H 9.7128 -2.87623 3.93859 0
M  V30 135 H 8.7178 -1.08556 5.38976 0
M  V30 136 H 9.9428 -1.41401 6.64216 0
M  V30 137 H 7.8888 -3.40505 5.60707 0
M  V30 138 H 7.8058 -2.55501 7.11516 0
M  V30 139 H 9.0738 -3.71489 6.85285 0
M  V30 140 N 13.3029 -1.57598 0.00835791 0
M  V30 141 C 14.5509 -1.90551 -0.6734 0
M  V30 142 C 14.8719 -0.883301 -1.73847 0
M  V30 143 O 14.1419 0.0781442 -1.95744 0
M  V30 144 H 12.7219 -0.703312 -0.251717 0
M  V30 145 H 15.3839 -1.94833 0.0512592 0
M  V30 146 H 14.4799 -2.9056 -1.13935 0
M  V30 147 N 14.781 0.264519 -1.55364 0
M  V30 148 C 15.728 1.32717 -1.88825 0
M  V30 149 C 16.698 1.48675 -0.740605 0
M  V30 150 O 17.883 1.62945 -0.992657 0
M  V30 151 C 15.023 2.68089 -2.17307 0
M  V30 152 C 14.136 2.60284 -3.44785 0
M  V30 153 C 13.271 3.87892 -3.62924 0
M  V30 154 C 12.31 3.74631 -4.84064 0
M  V30 155 N 11.447 4.94092 -4.98816 0
M  V30 156 H 16.287 1.03481 -2.79456 0
M  V30 157 H 13.824 0.499757 -1.3835 0
M  V30 158 H 15.782 3.46864 -2.31821 0
M  V30 159 H 14.412 2.95509 -1.299 0
M  V30 160 H 13.464 1.73173 -3.38697 0
M  V30 161 H 14.776 2.46388 -4.33698 0
M  V30 162 H 13.93 4.75109 -3.77302 0
M  V30 163 H 12.669 4.04664 -2.7221 0
M  V30 164 H 11.674 2.85797 -4.69681 0
M  V30 165 H 12.899 3.5937 -5.76221 0
M  V30 166 H 10.845 5.11259 -4.11036 0
M  V30 167 H 10.762 4.8276 -5.81789 0
M  V30 168 H 12.03 5.82857 -5.17588 0
M  V30 169 N 16.2591 1.48442 0.529413 0
M  V30 170 C 17.5051 1.5672 1.28711 0
M  V30 171 C 17.8381 0.2406 1.92704 0
M  V30 172 O 17.1131 -0.753454 1.79313 0
M  V30 173 C 17.3961 2.70587 2.37603 0
M  V30 174 C 17.2491 4.12953 1.78297 0
M  V30 175 C 18.5681 2.80212 3.39366 0
M  V30 176 H 15.6871 0.570474 0.466613 0
M  V30 177 H 18.3291 1.80617 0.589706 0
M  V30 178 H 16.4791 2.50342 2.97088 0
M  V30 179 H 18.1511 4.44639 1.22858 0
M  V30 180 H 16.3941 4.19927 1.0883 0
M  V30 181 H 17.0651 4.88448 2.57144 0
M  V30 182 H 19.5411 2.98553 2.89836 0
M  V30 183 H 18.4171 3.61611 4.12951 0
M  V30 184 H 18.6781 1.88393 3.99951 0
M  V30 185 N 17.7372 -0.778329 1.37039 0
M  V30 186 C 18.9852 -1.53361 1.31623 0
M  V30 187 C 19.3062 -1.94739 -0.100831 0
M  V30 188 O 18.5762 -1.65797 -1.04347 0
M  V30 189 H 17.1562 -0.568794 0.484234 0
M  V30 190 H 19.8182 -0.926742 1.71457 0
M  V30 191 H 18.9142 -2.43606 1.95096 0
M  V30 192 N 19.2153 -1.21501 -1.00376 0
M  V30 193 C 20.1783 -0.976927 -2.07337 0
M  V30 194 C 21.1783 0.0525322 -1.60714 0
M  V30 195 O 22.3683 -0.184869 -1.73216 0
M  V30 196 C 19.5003 -0.473423 -3.37597 0
M  V30 197 H 20.6933 -1.92587 -2.29892 0
M  V30 198 H 18.2463 -1.03217 -1.17371 0
M  V30 199 H 18.9813 0.480379 -3.20722 0
M  V30 200 H 18.7663 -1.216 -3.72768 0
M  V30 201 H 20.2563 -0.32675 -4.1632 0
M  V30 202 N 20.6934 1.19889 -1.02296 0
M  V30 203 C 21.9214 1.9339 -0.735399 0
M  V30 204 C 22.3364 1.75148 0.704887 0
M  V30 205 O 21.6934 1.06954 1.47875 0
M  V30 206 C 21.7444 3.45313 -1.06962 0
M  V30 207 O 21.4654 3.62964 -2.45334 0
M  V30 208 C 22.9664 4.35948 -0.804021 0
M  V30 209 H 20.1864 0.61448 -0.269546 0
M  V30 210 H 22.7304 1.522 -1.36585 0
M  V30 211 H 20.8854 3.84359 -0.484455 0
M  V30 212 H 21.2994 4.56886 -2.57595 0
M  V30 213 H 22.7734 5.41174 -1.0879 0
M  V30 214 H 23.2504 4.3842 0.261691 0
M  V30 215 H 23.8564 4.02574 -1.37164 0
M  V30 216 N 22.1715 0.800033 1.35784 0
M  V30 217 C 23.1045 0.151499 2.27697 0
M  V30 218 C 24.0825 -0.678663 1.4776 0
M  V30 219 O 25.2665 -0.647358 1.77035 0
M  V30 220 C 22.3935 -0.790492 3.29346 0
M  V30 221 C 21.4395 -0.0407832 4.26481 0
M  V30 222 S 22.2725 1.29077 5.19711 0
M  V30 223 C 23.4285 0.353055 6.24903 0
M  V30 224 H 23.6615 0.930796 2.82353 0
M  V30 225 H 21.1945 0.594767 1.42485 0
M  V30 226 H 23.1525 -1.3285 3.88409 0
M  V30 227 H 21.8135 -1.54312 2.73581 0
M  V30 228 H 21.0065 -0.755971 4.98298 0
M  V30 229 H 20.6085 0.427063 3.71554 0
M  V30 230 H 22.9005 -0.464147 6.75908 0
M  V30 231 H 23.8435 1.04023 7.00418 0
M  V30 232 H 24.2515 -0.0483344 5.64479 0
M  V30 233 N 23.6496 -1.47581 0.552962 0
M  V30 234 C 24.8956 -2.02782 0.0273648 0
M  V30 235 C 25.2286 -1.42687 -1.31734 0
M  V30 236 O 24.5036 -0.580897 -1.85623 0
M  V30 237 C 24.7866 -3.60031 -0.0702371 0
M  V30 238 C 24.6396 -4.30566 1.30126 0
M  V30 239 C 25.9586 -4.33028 -0.785771 0
M  V30 240 H 23.0776 -0.736912 0.0114185 0
M  V30 241 H 25.7196 -1.76056 0.714432 0
M  V30 242 H 23.8696 -3.82932 -0.655382 0
M  V30 243 H 25.5416 -4.19018 1.92929 0
M  V30 244 H 23.7846 -3.91086 1.87709 0
M  V30 245 H 24.4556 -5.39114 1.18573 0
M  V30 246 H 26.9316 -4.15095 -0.288982 0
M  V30 247 H 25.8076 -5.42695 -0.823013 0
M  V30 248 H 26.0686 -4.01945 -1.841 0
M  V30 249 N 25.1277 -0.289203 -1.54924 0
M  V30 250 C 26.5437 0.0645403 -1.59469 0
M  V30 251 C 26.7437 1.53419 -1.30632 0
M  V30 252 O 25.7997 2.2852 -1.074 0
M  V30 253 C 27.1127 -0.32278 -2.98963 0
M  V30 254 C 28.6607 -0.270564 -3.11828 0
M  V30 255 C 29.1357 -0.632532 -4.53611 0
M  V30 256 N 30.6267 -0.584617 -4.59496 0
M  V30 257 C 31.3617 -0.837314 -5.67254 0
M  V30 258 N 30.8577 -1.15536 -6.83098 0
M  V30 259 N 32.6507 -0.765166 -5.56868 0
M  V30 260 H 24.8017 -1.24714 -1.71931 0
M  V30 261 H 27.0647 -0.504809 -0.802416 0
M  V30 262 H 26.7707 -1.34541 -3.24948 0
M  V30 263 H 26.6447 0.32944 -3.75759 0
M  V30 264 H 29.0317 0.742805 -2.85598 0
M  V30 265 H 29.1127 -0.957242 -2.37214 0
M  V30 266 H 28.7567 -1.64365 -4.80569 0
M  V30 267 H 28.6867 0.07609 -5.26545 0
M  V30 268 H 31.1777 -0.349248 -3.76283 0
M  V30 269 H 31.4907 -1.33447 -7.61191 0
M  V30 270 H 29.8357 -1.19328 -6.84679 0
M  V30 271 H 33.0267 -0.516432 -4.65243 0
M  V30 272 H 33.1997 -0.965477 -6.40767 0
M  V30 273 N 26.6058 1.57591 -0.0167156 0
M  V30 274 C 27.5688 2.08393 0.954204 0
M  V30 275 C 28.5688 0.996531 1.26198 0
M  V30 276 O 29.7588 1.25858 1.20438 0
M  V30 277 C 26.8908 2.5394 2.27436 0
M  V30 278 H 28.0838 2.95455 0.514451 0
M  V30 279 H 25.6368 1.54582 0.231089 0
M  V30 280 H 26.3718 1.70171 2.76066 0
M  V30 281 H 26.1568 3.33371 2.06412 0
M  V30 282 H 27.6468 2.93512 2.97053 0
M  V30 283 N 28.0839 -0.256276 1.55502 0
M  V30 284 C 29.3299 -0.987079 1.77157 0
M  V30 285 C 29.6629 -1.85327 0.580315 0
M  V30 286 O 28.9379 -1.89874 -0.421686 0
M  V30 287 C 29.2209 -1.85553 3.08613 0
M  V30 288 C 29.0739 -1.01816 4.38125 0
M  V30 289 C 30.3929 -2.8397 3.36228 0
M  V30 290 H 27.5119 -0.357428 0.644526 0
M  V30 291 H 30.1539 -0.258239 1.88237 0
M  V30 292 H 28.3039 -2.47695 2.99298 0
M  V30 293 H 29.9759 -0.416159 4.59419 0
M  V30 294 H 28.2189 -0.322178 4.32602 0
M  V30 295 H 28.8899 -1.65939 5.26468 0
M  V30 296 H 31.3659 -2.31964 3.45445 0
M  V30 297 H 30.2419 -3.41864 4.29442 0
M  V30 298 H 30.5029 -3.59955 2.56681 0
M  V30 299 N 29.562 -1.4872 -0.521534 0
M  V30 300 C 30.525 -1.63379 -1.60748 0
M  V30 301 C 31.525 -0.50661 -1.52611 0
M  V30 302 O 32.715 -0.772601 -1.5613 0
M  V30 303 C 29.847 -1.61192 -3.00383 0
M  V30 304 H 31.04 -2.60217 -1.49087 0
M  V30 305 H 28.593 -1.37444 -0.744235 0
M  V30 306 H 29.328 -0.65863 -3.17541 0
M  V30 307 H 29.113 -2.43032 -3.07698 0
M  V30 308 H 30.603 -1.7466 -3.7932 0
M  V30 309 N 31.0401 0.771051 -1.3745 0
M  V30 310 C 32.0031 1.86598 -1.33093 0
M  V30 311 C 33.0031 1.59076 -0.234845 0
M  V30 312 O 34.1931 1.67145 -0.490732 0
M  V30 313 C 31.3251 3.23747 -1.06773 0
M  V30 314 H 32.5181 1.91873 -2.30488 0
M  V30 315 H 30.0711 0.970876 -1.2249 0
M  V30 316 H 30.8061 3.24148 -0.099129 0
M  V30 317 H 30.5911 3.45115 -1.86112 0
M  V30 318 H 32.0811 4.03824 -1.06377 0
M  V30 319 N 32.5182 1.22032 0.997298 0
M  V30 320 C 33.4812 0.987909 2.06816 0
M  V30 321 C 34.4812 -0.0440084 1.6074 0
M  V30 322 O 35.6712 0.194053 1.73116 0
M  V30 323 C 32.8032 0.49132 3.37341 0
M  V30 324 H 33.9962 1.93803 2.28868 0
M  V30 325 H 31.5492 1.03838 1.16822 0
M  V30 326 H 32.2842 -0.463364 3.20973 0
M  V30 327 H 32.0692 1.23575 3.72118 0
M  V30 328 H 33.5592 0.348824 4.16141 0
M  V30 329 N 33.9963 -1.19345 1.0293 0
M  V30 330 C 35.2733 -1.84811 0.640642 0
M  V30 331 C 35.6533 -1.91855 -0.88062 0
M  V30 332 O 35.0013 -1.43587 -1.7775 0
M  V30 333 C 35.2113 -3.23755 1.30321 0
M  V30 334 C 36.5593 -3.99912 1.42673 0
M  V30 335 O 37.5833 -3.33155 1.26041 0
M  V30 336 O 36.4423 -5.19494 1.6967 0
M  V30 337 H 33.5363 -0.796443 0.222726 0
M  V30 338 H 36.0823 -1.26831 1.12748 0
M  V30 339 H 34.8543 -3.13466 2.34211 0
M  V30 340 H 34.4773 -3.89381 0.804261 0
M  V30 341 N 35.4744 -0.807222 -1.35358 0
M  V30 342 C 36.7514 -0.311126 -1.9311 0
M  V30 343 C 37.1314 1.19937 -1.73719 0
M  V30 344 O 36.4794 1.99918 -1.10657 0
M  V30 345 C 36.6894 -0.723226 -3.41424 0
M  V30 346 C 38.0374 -0.713078 -4.18569 0
M  V30 347 O 39.0614 -0.664811 -3.49941 0
M  V30 348 O 37.9204 -0.772022 -5.41019 0
M  V30 349 H 35.0144 -0.081526 -0.822972 0
M  V30 350 H 37.5604 -0.890962 -1.4443 0
M  V30 351 H 36.3324 -1.76426 -3.4927 0
M  V30 352 H 35.9554 -0.118232 -3.97424 0
M  V30 353 N 36.9525 1.47285 -0.560781 0
M  V30 354 C 37.8825 2.32857 0.173105 0
M  V30 355 C 38.8635 1.44009 0.905281 0
M  V30 356 O 40.0485 1.7286 0.885046 0
M  V30 357 C 37.1785 3.25861 1.20133 0
M  V30 358 C 36.1325 4.23978 0.585388 0
M  V30 359 C 35.4585 5.06332 1.7185 0
M  V30 360 C 36.7585 5.20242 -0.463178 0
M  V30 361 H 38.4525 2.94466 -0.541307 0
M  V30 362 H 35.9985 1.41601 -0.261764 0
M  V30 363 H 37.9515 3.84569 1.72293 0
M  V30 364 H 36.6755 2.62315 1.94573 0
M  V30 365 H 35.3345 3.66501 0.085054 0
M  V30 366 H 34.9825 4.39186 2.45203 0
M  V30 367 H 34.6825 5.72762 1.31213 0
M  V30 368 H 36.2065 5.67899 2.24329 0
M  V30 369 H 37.6205 5.73293 -0.027502 0
M  V30 370 H 36.0175 5.94896 -0.788627 0
M  V30 371 H 37.0875 4.65504 -1.35773 0
M  V30 372 N 38.4306 0.297415 1.54768 0
M  V30 373 C 39.6586 -0.315623 2.04478 0
M  V30 374 C 40.0736 -1.47792 1.17486 0
M  V30 375 O 39.4306 -1.81404 0.19971 0
M  V30 376 C 39.4816 -0.7753 3.53088 0
M  V30 377 O 39.2026 0.340732 4.36773 0
M  V30 378 C 40.7036 -1.45386 4.18781 0
M  V30 379 H 37.9236 -0.0690887 0.667434 0
M  V30 380 H 40.4676 0.436003 1.99798 0
M  V30 381 H 38.6226 -1.47696 3.58141 0
M  V30 382 H 39.0366 -0.0165035 5.24497 0
M  V30 383 H 40.5106 -1.72669 5.24299 0
M  V30 384 H 40.9876 -2.39275 3.68299 0
M  V30 385 H 41.5936 -0.795475 4.17795 0
M  V30 386 N 39.9087 -1.5758 0.0250728 0
M  V30 387 C 40.8387 -2.13007 -0.956575 0
M  V30 388 C 41.8197 -1.0452 -1.342 0
M  V30 389 O 43.0047 -1.32332 -1.42133 0
M  V30 390 C 40.1347 -2.65386 -2.24026 0
M  V30 391 C 39.0887 -3.78623 -1.99571 0
M  V30 392 C 38.4147 -4.17414 -3.3417 0
M  V30 393 C 39.7147 -5.04867 -1.33814 0
M  V30 394 H 41.4087 -2.9528 -0.494991 0
M  V30 395 H 38.9547 -1.42042 -0.236651 0
M  V30 396 H 40.9077 -3.02794 -2.93076 0
M  V30 397 H 39.6317 -1.80268 -2.72343 0
M  V30 398 H 38.2907 -3.41646 -1.32941 0
M  V30 399 H 37.9387 -3.29284 -3.80238 0
M  V30 400 H 37.6387 -4.93719 -3.18615 0
M  V30 401 H 39.1627 -4.57402 -4.04495 0
M  V30 402 H 40.5767 -5.39888 -1.92857 0
M  V30 403 H 38.9737 -5.86144 -1.28669 0
M  V30 404 H 40.0437 -4.83904 -0.310561 0
M  V30 405 N 41.3868 0.248026 -1.55636 0
M  V30 406 C 42.6118 0.998028 -1.81808 0
M  V30 407 C 43.0368 1.78207 -0.601979 0
M  V30 408 O 42.3948 1.75653 0.448961 0
M  V30 409 C 42.4428 1.9125 -3.05705 0
M  V30 410 O 41.5468 3.00406 -2.82542 0
M  V30 411 H 40.8878 0.284045 -0.600179 0
M  V30 412 H 43.4178 0.269357 -2.02819 0
M  V30 413 H 43.4278 2.32737 -3.35108 0
M  V30 414 H 42.1028 1.33602 -3.93857 0
M  V30 415 H 40.6798 2.63056 -2.64303 0
M  V30 416 N 42.8649 1.48995 0.513639 0
M  V30 417 C 43.8279 1.64229 1.59879 0
M  V30 418 C 44.8279 0.514696 1.5234 0
M  V30 419 O 46.0179 0.78087 1.55718 0
M  V30 420 C 43.1499 1.62783 2.99524 0
M  V30 421 H 44.3429 2.61004 1.47705 0
M  V30 422 H 41.8959 1.37837 0.736936 0
M  V30 423 H 42.6309 0.675461 3.17188 0
M  V30 424 H 42.4159 2.4466 3.06404 0
M  V30 425 H 43.9059 1.76669 3.78388 0
M  V30 426 N 44.343 -0.763751 1.37857 0
M  V30 427 C 45.253 -1.90817 1.36478 0
M  V30 428 C 46.269 -1.71997 0.263248 0
M  V30 429 O 47.445 -1.95095 0.499979 0
M  V30 430 C 44.51 -3.2605 1.17864 0
M  V30 431 C 43.571 -3.57467 2.3773 0
M  V30 432 C 42.804 -4.86249 2.19995 0
M  V30 433 O 43.027 -5.57884 1.18836 0
M  V30 434 O 41.961 -5.16911 3.08361 0
M  V30 435 H 45.787 -1.94933 2.32884 0
M  V30 436 H 43.372 -0.907619 1.1867 0
M  V30 437 H 45.254 -4.06924 1.09504 0
M  V30 438 H 43.929 -3.22769 0.245372 0
M  V30 439 H 42.836 -2.76796 2.51664 0
M  V30 440 H 44.169 -3.655 3.29652 0
M  V30 441 N 45.8211 -1.22559 -0.990812 0
M  V30 442 C 46.7511 -1.0218 -2.09956 0
M  V30 443 C 47.7321 0.0579394 -1.70001 0
M  V30 444 O 48.9171 -0.104684 -1.93918 0
M  V30 445 C 46.0471 -0.601023 -3.4206 0
M  V30 446 C 45.0011 -1.62694 -3.95872 0
M  V30 447 C 44.3271 -1.06193 -5.24049 0
M  V30 448 C 45.6271 -3.01743 -4.2632 0
M  V30 449 H 47.3211 -1.94916 -2.27262 0
M  V30 450 H 44.8671 -0.938566 -1.09211 0
M  V30 451 H 46.8201 -0.445561 -4.19038 0
M  V30 452 H 45.5441 0.362005 -3.24588 0
M  V30 453 H 44.2031 -1.77021 -3.21028 0
M  V30 454 H 43.8511 -0.0901903 -5.02919 0
M  V30 455 H 43.5511 -1.74732 -5.61019 0
M  V30 456 H 45.0751 -0.918092 -6.03658 0
M  V30 457 H 46.4891 -2.90777 -4.94087 0
M  V30 458 H 44.8861 -3.67425 -4.74467 0
M  V30 459 H 45.9561 -3.51518 -3.34011 0
M  V30 460 N 47.2992 1.18797 -1.03562 0
M  V30 461 C 48.5762 1.84469 -0.650434 0
M  V30 462 C 48.9562 1.92319 0.870433 0
M  V30 463 O 48.3042 1.44528 1.76986 0
M  V30 464 C 48.5142 3.2306 -1.32036 0
M  V30 465 C 49.8622 3.9915 -1.44792 0
M  V30 466 O 50.8862 3.32481 -1.27806 0
M  V30 467 O 49.7452 5.18587 -1.72423 0
M  V30 468 H 46.8392 0.795251 -0.226946 0
M  V30 469 H 49.3852 1.26231 -1.13419 0
M  V30 470 H 48.1572 3.1222 -2.3587 0
M  V30 471 H 47.7802 3.88949 -0.8249 0
M  V30 472 N 48.7773 0.814389 1.34928 0
M  V30 473 C 49.7403 0.235759 2.27984 0
M  V30 474 C 50.7403 -0.581412 1.49921 0
M  V30 475 O 51.9303 -0.398758 1.69575 0
M  V30 476 C 49.0623 -0.670433 3.34242 0
M  V30 477 H 50.2553 1.05659 2.80671 0
M  V30 478 H 47.8083 0.585614 1.44915 0
M  V30 479 H 48.5433 -1.51466 2.86755 0
M  V30 480 H 48.3283 -0.0860822 3.92005 0
M  V30 481 H 49.8183 -1.06935 4.03676 0
M  V30 482 N 50.2554 -1.46986 0.568584 0
M  V30 483 C 51.5034 -2.02041 0.0487022 0
M  V30 484 C 51.8244 -1.44408 -1.31039 0
M  V30 485 O 51.0944 -0.623477 -1.85714 0
M  V30 486 H 49.6744 -0.746849 0.015014 0
M  V30 487 H 52.3364 -1.80257 0.741168 0
M  V30 488 H 51.4324 -3.12085 -0.0308961 0
M  V30 489 N 51.7335 -0.305618 -1.54608 0
M  V30 490 C 53.0105 0.355652 -1.92339 0
M  V30 491 C 53.3905 1.71324 -1.23335 0
M  V30 492 O 52.7385 2.25473 -0.370702 0
M  V30 493 C 52.9485 0.46572 -3.45879 0
M  V30 494 C 54.2965 0.734426 -4.182 0
M  V30 495 O 55.3205 0.54935 -3.51938 0
M  V30 496 O 54.1795 1.09024 -5.35515 0
M  V30 497 H 51.2735 0.199666 -0.802535 0
M  V30 498 H 53.8195 -0.354017 -1.65966 0
M  V30 499 H 52.5915 -0.488461 -3.88239 0
M  V30 500 H 52.2145 1.22367 -3.78301 0
M  V30 501 N 53.2116 1.57565 -0.0334293 0
M  V30 502 C 54.6226 1.79746 0.504798 0
M  V30 503 C 54.9736 0.944091 1.71992 0
M  V30 504 O 54.0986 0.155694 2.15839 0
M  V30 505 C 54.6936 3.25997 0.922567 0
M  V30 506 C 53.2526 3.49159 1.40588 0
M  V30 507 C 52.3996 2.74785 0.372633 0
M  V30 508 H 55.3506 1.56565 -0.259436 0
M  V30 509 H 55.3716 3.35945 1.78666 0
M  V30 510 H 54.8836 3.88081 0.0379825 0
M  V30 511 H 52.9846 2.92332 2.31025 0
M  V30 512 H 53.0976 4.57873 1.41028 0
M  V30 513 H 51.4616 2.40391 0.841672 0
M  V30 514 H 52.2446 3.39587 -0.503559 0
M  V30 515 N 54.6897 -0.239769 1.55765 0
M  V30 516 C 55.6197 -1.30052 1.9393 0
M  V30 517 C 56.6007 -1.49839 0.805132 0
M  V30 518 O 57.7857 -1.62328 1.06599 0
M  V30 519 C 54.9157 -2.65391 2.2402 0
M  V30 520 C 53.8697 -2.60289 3.39755 0
M  V30 521 C 53.1957 -3.99489 3.55405 0
M  V30 522 C 54.4957 -2.16654 4.75246 0
M  V30 523 H 56.1897 -0.983573 2.82783 0
M  V30 524 H 53.7357 -0.471701 1.36055 0
M  V30 525 H 55.6887 -3.3974 2.49308 0
M  V30 526 H 54.4127 -2.98736 1.32 0
M  V30 527 H 53.0717 -1.88398 3.14487 0
M  V30 528 H 52.7197 -4.30112 2.60793 0
M  V30 529 H 52.4197 -3.96962 4.33238 0
M  V30 530 H 53.9437 -4.75528 3.83022 0
M  V30 531 H 55.3577 -2.80737 4.99859 0
M  V30 532 H 53.7547 -2.25223 5.56232 0
M  V30 533 H 54.8247 -1.11835 4.71827 0
M  V30 534 N 56.1678 -1.49265 -0.50573 0
M  V30 535 C 57.3928 -1.62478 -1.28902 0
M  V30 536 C 57.8178 -0.294332 -1.85783 0
M  V30 537 O 57.1758 0.737412 -1.65626 0
M  V30 538 C 57.2238 -2.69268 -2.39848 0
M  V30 539 O 56.3278 -2.28113 -3.43567 0
M  V30 540 H 55.6688 -0.54399 -0.380751 0
M  V30 541 H 58.1988 -1.95421 -0.605952 0
M  V30 542 H 58.2088 -2.91291 -2.85681 0
M  V30 543 H 56.8838 -3.65846 -1.97812 0
M  V30 544 H 55.4608 -2.16401 -3.03685 0
M  V30 545 N 57.6459 0.756429 -1.3826 0
M  V30 546 C 58.5759 1.88374 -1.37976 0
M  V30 547 C 59.5569 1.68311 -0.246082 0
M  V30 548 O 60.7419 1.88944 -0.44874 0
M  V30 549 C 57.8719 3.25864 -1.20125 0
M  V30 550 C 56.8259 3.60523 -2.30666 0
M  V30 551 C 56.1519 4.9672 -1.97923 0
M  V30 552 C 57.4519 3.65692 -3.72916 0
M  V30 553 H 59.1459 1.88869 -2.32312 0
M  V30 554 H 56.6919 0.907272 -1.11824 0
M  V30 555 H 58.6449 4.0438 -1.18552 0
M  V30 556 H 57.3689 3.25841 -0.222498 0
M  V30 557 H 56.0279 2.84324 -2.3142 0
M  V30 558 H 55.6759 4.93253 -0.985393 0
M  V30 559 H 55.3759 5.20878 -2.71955 0
M  V30 560 H 56.8999 5.77618 -1.97964 0
M  V30 561 H 58.3139 4.34328 -3.74208 0
M  V30 562 H 56.7109 4.01358 -4.4613 0
M  V30 563 H 57.7809 2.65987 -4.05436 0
M  V30 564 N 59.124 1.23083 0.984299 0
M  V30 565 C 60.054 1.03292 2.09411 0
M  V30 566 C 61.035 -0.048923 1.7003 0
M  V30 567 O 62.22 0.114967 1.93859 0
M  V30 568 C 59.35 0.619155 3.41736 0
M  V30 569 C 58.304 1.64791 3.95004 0
M  V30 570 C 57.63 1.0897 5.23478 0
M  V30 571 C 58.93 3.03999 4.24714 0
M  V30 572 H 60.624 1.96119 2.26225 0
M  V30 573 H 58.17 0.944344 1.08711 0
M  V30 574 H 60.123 0.467777 4.18796 0
M  V30 575 H 58.847 -0.344786 3.24775 0
M  V30 576 H 57.506 1.78721 3.20085 0
M  V30 577 H 57.154 0.11686 5.02864 0
M  V30 578 H 56.854 1.77704 5.60085 0
M  V30 579 H 58.378 0.950093 6.03163 0
M  V30 580 H 59.792 2.93393 4.92538 0
M  V30 581 H 58.189 3.69936 4.72512 0
M  V30 582 H 59.259 3.53285 3.32142 0
M  V30 583 N 60.6021 -1.18246 1.0419 0
M  V30 584 C 61.8301 -1.92195 0.766072 0
M  V30 585 C 62.2451 -1.76247 -0.676933 0
M  V30 586 O 61.6021 -1.09293 -1.46155 0
M  V30 587 C 61.6531 -3.43568 1.12442 0
M  V30 588 O 61.3741 -3.59015 2.51078 0
M  V30 589 C 62.8751 -4.34613 0.873275 0
M  V30 590 H 60.0951 -0.610114 0.279288 0
M  V30 591 H 62.6391 -1.50007 1.38989 0
M  V30 592 H 60.7941 -3.8354 0.545542 0
M  V30 593 H 61.2081 -4.5273 2.64831 0
M  V30 594 H 62.6821 -5.39374 1.17385 0
M  V30 595 H 63.1591 -4.38781 -0.191909 0
M  V30 596 H 63.7651 -4.00341 1.43551 0
M  V30 597 N 62.0802 -0.821533 -1.34494 0
M  V30 598 C 63.3572 -0.33159 -1.92769 0
M  V30 599 C 63.7372 1.18088 -1.74981 0
M  V30 600 O 63.0852 1.98733 -1.12772 0
M  V30 601 C 63.2952 -0.759398 -3.40638 0
M  V30 602 C 64.6432 -0.757433 -4.1779 0
M  V30 603 O 65.6672 -0.70189 -3.49216 0
M  V30 604 O 64.5262 -0.829361 -5.4017 0
M  V30 605 H 61.6202 -0.0902502 -0.822061 0
M  V30 606 H 64.1662 -0.906231 -1.43477 0
M  V30 607 H 62.9382 -1.8012 -3.47379 0
M  V30 608 H 62.5612 -0.160378 -3.97276 0
M  V30 609 N 63.5583 1.46682 -0.576371 0
M  V30 610 C 64.8063 2.02013 -0.0594163 0
M  V30 611 C 65.1273 1.45101 1.30271 0
M  V30 612 O 64.3973 0.633317 1.8538 0
M  V30 613 H 62.9773 0.746759 -0.0189745 0
M  V30 614 H 65.6393 1.79862 -0.750717 0
M  V30 615 H 64.7353 3.12097 0.014345 0
M  V30 616 N 65.0364 0.313813 1.54444 0
M  V30 617 C 65.9844 -0.572171 2.25453 0
M  V30 618 C 66.9784 -1.12657 1.2651 0
M  V30 619 O 68.1844 -1.07573 1.44319 0
M  V30 620 H 64.5594 -0.203146 0.724041 0
M  V30 621 H 66.5304 0.0491145 2.9836 0
M  V30 622 C 65.2794 -1.72626 3.0182 0
M  V30 623 H 64.6024 -1.30891 3.77767 0
M  V30 624 H 66.0424 -2.32199 3.54767 0
M  V30 625 C 64.5014 -2.63806 2.09542 0
M  V30 626 O 65.0314 -3.65256 1.67185 0
M  V30 627 N 63.2374 -2.31824 1.75232 0
M  V30 628 H 62.7844 -1.49368 2.09873 0
M  V30 629 H 62.7424 -2.93095 1.13767 0
M  V30 630 N 66.5145 -1.57545 0.0417849 0
M  V30 631 C 67.7425 -1.96624 -0.643928 0
M  V30 632 C 68.1575 -0.918897 -1.64929 0
M  V30 633 O 67.5145 0.0979323 -1.82237 0
M  V30 634 C 67.5655 -3.35781 -1.33914 0
M  V30 635 O 67.2865 -4.365 -0.374048 0
M  V30 636 C 68.7875 -3.89566 -2.1155 0
M  V30 637 H 66.0075 -0.647316 -0.176702 0
M  V30 638 H 68.5515 -2.04229 0.105304 0
M  V30 639 H 66.7065 -3.29357 -2.03968 0
M  V30 640 H 67.1205 -5.17248 -0.869179 0
M  V30 641 H 68.5945 -4.89242 -2.55628 0
M  V30 642 H 69.0715 -3.24488 -2.9598 0
M  V30 643 H 69.6775 -3.99298 -1.46427 0
M  V30 644 N 67.9926 0.231505 -1.5589 0
M  V30 645 C 68.9026 1.308 -1.94752 0
M  V30 646 C 69.9186 1.51826 -0.849989 0
M  V30 647 O 71.0946 1.6515 -1.15271 0
M  V30 648 C 68.1596 2.63968 -2.24771 0
M  V30 649 C 67.2206 2.51331 -3.48039 0
M  V30 650 C 66.4536 3.78148 -3.76616 0
M  V30 651 O 66.6766 4.80722 -3.07022 0
M  V30 652 O 65.6106 3.75857 -4.70123 0
M  V30 653 H 69.4366 1.0083 -2.86474 0
M  V30 654 H 67.0216 0.433547 -1.42971 0
M  V30 655 H 68.9036 3.42633 -2.45318 0
M  V30 656 H 67.5786 2.9364 -1.36225 0
M  V30 657 H 66.4856 1.709 -3.32782 0
M  V30 658 H 67.8186 2.26601 -4.36936 0
M  V30 659 N 69.4707 1.49531 0.497807 0
M  V30 660 C 70.7167 1.59415 1.25358 0
M  V30 661 C 71.0497 0.281422 1.9215 0
M  V30 662 O 70.3247 -0.715249 1.80871 0
M  V30 663 C 70.6077 2.75566 2.3181 0
M  V30 664 C 70.4607 4.16642 1.69498 0
M  V30 665 C 71.7797 2.87347 3.33346 0
M  V30 666 H 68.8987 0.580244 0.454408 0
M  V30 667 H 71.5407 1.81827 0.551262 0
M  V30 668 H 69.6907 2.56587 2.91711 0
M  V30 669 H 71.3627 4.47145 1.13399 0
M  V30 670 H 69.6057 4.22141 0.998978 0
M  V30 671 H 70.2767 4.93792 2.46725 0
M  V30 672 H 72.7527 3.04634 2.83438 0
M  V30 673 H 71.6287 3.70289 4.05188 0
M  V30 674 H 71.8897 1.96834 3.95865 0
M  V30 675 N 70.9488 -0.749086 1.3866 0
M  V30 676 C 72.1948 -1.51056 1.35314 0
M  V30 677 C 72.5278 -1.94121 -0.0553751 0
M  V30 678 O 71.8028 -1.65763 -1.01749 0
M  V30 679 C 72.0858 -2.76003 2.31288 0
M  V30 680 C 71.9388 -2.39047 3.8102 0
M  V30 681 C 73.2578 -3.78046 2.2532 0
M  V30 682 H 70.3768 -0.547972 0.492844 0
M  V30 683 H 73.0188 -0.857628 1.69543 0
M  V30 684 H 71.1688 -3.31716 2.02229 0
M  V30 685 H 72.8408 -1.89074 4.20771 0
M  V30 686 H 71.0838 -1.71449 3.98482 0
M  V30 687 H 71.7548 -3.28462 4.4364 0
M  V30 688 H 74.2308 -3.31884 2.50983 0
M  V30 689 H 73.1068 -4.63159 2.94576 0
M  V30 690 H 73.3678 -4.23957 1.25352 0
M  V30 691 N 72.4269 -1.23603 -0.977757 0
M  V30 692 C 73.6759 -1.06377 -1.71368 0
M  V30 693 C 73.9889 0.399062 -1.91486 0
M  V30 694 O 75.1949 0.691312 -2.62551 0
M  V30 695 C 73.6509 -1.85512 -3.08404 0
M  V30 696 C 73.2589 -3.36141 -2.96164 0
M  V30 697 C 75.0029 -1.76783 -3.85938 0
M  V30 698 C 72.9099 -4.07659 -4.28449 0
M  V30 699 H 71.8399 -0.394452 -0.642591 0
M  V30 700 H 74.4909 -1.47594 -1.09034 0
M  V30 701 H 72.8729 -1.37103 -3.71509 0
M  V30 702 H 74.0469 -3.92056 -2.42133 0
M  V30 703 H 72.3619 -3.45712 -2.32104 0
M  V30 704 H 74.9589 -2.27526 -4.83876 0
M  V30 705 H 75.3019 -0.731116 -4.0983 0
M  V30 706 H 75.8349 -2.22818 -3.2954 0
M  V30 707 H 72.5739 -5.11648 -4.09752 0
M  V30 708 H 72.0939 -3.5653 -4.82334 0
M  V30 709 H 73.7729 -4.141 -4.97122 0
M  V30 710 N 73.905 1.17692 -1.04816 0
M  V30 711 C 75.182 1.83768 -0.669963 0
M  V30 712 C 75.562 1.93232 0.849986 0
M  V30 713 O 74.91 1.46397 1.75443 0
M  V30 714 C 75.12 3.21641 -1.35455 0
M  V30 715 C 76.468 3.97592 -1.49017 0
M  V30 716 O 77.492 3.31107 -1.31326 0
M  V30 717 O 76.351 5.16729 -1.77914 0
M  V30 718 H 73.445 0.792799 -0.235368 0
M  V30 719 H 75.991 1.25021 -1.14751 0
M  V30 720 H 74.763 3.097 -2.39168 0
M  V30 721 H 74.386 3.88052 -0.866107 0
M  V30 722 N 75.3831 0.828654 1.34056 0
M  V30 723 C 76.6301 0.419458 1.98108 0
M  V30 724 C 76.9581 -1.01886 1.65679 0
M  V30 725 O 76.2131 -1.72539 0.923512 0
M  V30 726 C 76.5121 0.575226 3.52741 0
M  V30 727 C 76.1781 1.98012 4.05095 0
M  V30 728 C 74.8401 2.36442 4.19104 0
M  V30 729 C 77.1921 2.89824 4.33188 0
M  V30 730 C 74.5201 3.66009 4.58535 0
M  V30 731 C 76.8721 4.1886 4.74066 0
M  V30 732 C 75.5361 4.5726 4.86281 0
M  V30 733 H 74.8061 0.153491 0.724929 0
M  V30 734 H 77.4531 1.05371 1.59904 0
M  V30 735 H 75.7581 -0.142385 3.91541 0
M  V30 736 H 77.4551 0.239057 4.00287 0
M  V30 737 H 74.0451 1.67162 3.94658 0
M  V30 738 H 78.2291 2.61375 4.21897 0
M  V30 739 H 73.4851 3.95579 4.66184 0
M  V30 740 H 77.6591 4.90086 4.94761 0
M  V30 741 H 75.2861 5.57707 5.16592 0
M  V30 742 N 76.8612 -1.46375 0.584142 0
M  V30 743 C 78.0892 -2.06761 0.0759296 0
M  V30 744 C 78.5042 -1.43266 -1.22965 0
M  V30 745 O 77.8612 -0.538458 -1.74376 0
M  V30 746 C 77.9122 -3.61375 -0.0950384 0
M  V30 747 O 77.6332 -4.22495 1.15887 0
M  V30 748 C 79.1342 -4.38693 -0.637434 0
M  V30 749 H 76.3542 -0.668479 0.0581075 0
M  V30 750 H 78.8982 -1.8798 0.805218 0
M  V30 751 H 77.0532 -3.79578 -0.774554 0
M  V30 752 H 77.4672 -5.15385 0.973598 0
M  V30 753 H 78.9412 -5.47464 -0.706237 0
M  V30 754 H 79.4182 -4.06836 -1.65472 0
M  V30 755 H 80.0242 -4.25299 0.00725967 0
M  V30 756 N 78.3393 -0.321999 -1.54275 0
M  V30 757 C 79.2893 0.560185 -2.21011 0
M  V30 758 C 80.2733 1.08283 -1.19011 0
M  V30 759 O 81.4653 1.02011 -1.44647 0
M  V30 760 C 78.5943 1.72137 -2.97025 0
M  V30 761 C 77.6803 1.21369 -4.06363 0
M  V30 762 N 78.0713 0.425566 -5.04007 0
M  V30 763 C 76.3693 1.49255 -4.20284 0
M  V30 764 C 77.0703 0.152601 -5.815 0
M  V30 765 N 76.0463 0.738294 -5.38563 0
M  V30 766 H 79.8483 -0.049265 -2.93859 0
M  V30 767 H 77.3623 -0.127779 -1.61897 0
M  V30 768 H 79.3593 2.36512 -3.43319 0
M  V30 769 H 78.0193 2.33431 -2.25699 0
M  V30 770 H 79.0303 0.068551 -5.17855 0
M  V30 771 H 75.7073 2.11145 -3.60172 0
M  V30 772 H 77.0973 -0.481764 -6.70171 0
M  V30 773 N 79.8174 1.5752 -0.0501392 0
M  V30 774 C 81.2284 1.80271 0.485705 0
M  V30 775 C 81.5794 0.96228 1.70981 0
M  V30 776 O 80.7044 0.178578 2.15662 0
M  V30 777 C 81.2994 3.26957 0.887938 0
M  V30 778 C 79.8584 3.5063 1.36877 0
M  V30 779 C 79.0054 2.75165 0.343468 0
M  V30 780 H 81.9564 1.56281 -0.276028 0
M  V30 781 H 81.9774 3.37821 1.75093 0
M  V30 782 H 81.4894 3.881 -0.0031809 0
M  V30 783 H 79.5904 2.94766 2.27911 0
M  V30 784 H 79.7034 4.59343 1.36164 0
M  V30 785 H 78.0674 2.4127 0.816128 0
M  V30 786 H 78.8504 3.39034 -0.539548 0
M  V30 787 N 81.2955 -0.223234 1.56011 0
M  V30 788 C 82.5725 -0.972108 1.69733 0
M  V30 789 C 82.9525 -2.02485 0.59691 0
M  V30 790 O 82.3005 -2.25037 -0.396324 0
M  V30 791 C 82.5105 -1.58407 3.10979 0
M  V30 792 C 83.8585 -2.07696 3.70334 0
M  V30 793 O 84.8825 -1.68304 3.1393 0
M  V30 794 O 83.7415 -2.80096 4.69264 0
M  V30 795 H 80.8355 -0.453993 0.691245 0
M  V30 796 H 83.3815 -0.215149 1.68331 0
M  V30 797 H 82.1535 -0.823831 3.82529 0
M  V30 798 H 81.7765 -2.40661 3.16493 0
M  V30 799 N 82.7736 -1.49793 -0.48987 0
M  V30 800 C 84.0196 -1.60078 -1.24511 0
M  V30 801 C 84.3526 -0.291608 -1.91998 0
M  V30 802 O 83.6276 0.705647 -1.81248 0
M  V30 803 C 83.9106 -2.76791 -2.30345 0
M  V30 804 C 83.7636 -4.17535 -1.67286 0
M  V30 805 C 85.0826 -2.89111 -3.31817 0
M  V30 806 H 82.2016 -0.582645 -0.451324 0
M  V30 807 H 84.8436 -1.82117 -0.541612 0
M  V30 808 H 82.9936 -2.5813 -2.90346 0
M  V30 809 H 84.6656 -4.4774 -1.11026 0
M  V30 810 H 82.9086 -4.22665 -0.976577 0
M  V30 811 H 83.5796 -4.95094 -2.44103 0
M  V30 812 H 86.0556 -3.06133 -2.81819 0
M  V30 813 H 84.9316 -3.72433 -4.03219 0
M  V30 814 H 85.1926 -1.9893 -3.94815 0
M  V30 815 N 84.2517 0.741722 -1.39055 0
M  V30 816 C 85.4977 1.50336 -1.36113 0
M  V30 817 C 85.8307 1.94148 0.0450796 0
M  V30 818 O 85.1057 1.66301 1.00868 0
M  V30 819 C 85.3887 2.74773 -2.32749 0
M  V30 820 C 85.2417 2.37023 -3.82283 0
M  V30 821 C 86.5607 3.76846 -2.27322 0
M  V30 822 H 83.6797 0.545351 -0.495743 0
M  V30 823 H 86.3217 0.848624 -1.69995 0
M  V30 824 H 84.4717 3.30639 -2.03986 0
M  V30 825 H 86.1437 1.8684 -4.21768 0
M  V30 826 H 84.3867 1.69334 -3.99385 0
M  V30 827 H 85.0577 3.26104 -4.45376 0
M  V30 828 H 87.5337 3.30548 -2.5274 0
M  V30 829 H 86.4097 4.6159 -2.97028 0
M  V30 830 H 86.6707 4.23286 -1.27599 0
M  V30 831 N 85.7298 1.2412 0.971189 0
M  V30 832 C 86.6628 0.97373 2.06382 0
M  V30 833 C 87.6408 -0.0912662 1.62344 0
M  V30 834 O 88.8248 0.0449365 1.88446 0
M  V30 835 C 85.9518 0.468746 3.35441 0
M  V30 836 C 84.9978 1.52176 3.98428 0
M  V30 837 S 85.8308 3.10203 4.36503 0
M  V30 838 C 86.9868 2.61398 5.68702 0
M  V30 839 H 87.2198 1.89893 2.28753 0
M  V30 840 H 84.7528 1.07466 1.10862 0
M  V30 841 H 86.7108 0.184012 4.10087 0
M  V30 842 H 85.3718 -0.435688 3.11064 0
M  V30 843 H 84.5648 1.11876 4.91426 0
M  V30 844 H 84.1668 1.75632 3.30196 0
M  V30 845 H 86.4588 2.03992 6.4606 0
M  V30 846 H 87.4018 3.52972 6.13854 0
M  V30 847 H 87.8098 2.01941 5.27143 0
M  V30 848 N 87.2079 -1.17134 1.05439 0
M  V30 849 C 88.4559 -1.87085 0.764429 0
M  V30 850 C 88.7769 -1.81584 -0.710787 0
M  V30 851 O 88.0469 -1.24349 -1.51374 0
M  V30 852 H 86.6269 -0.692627 0.279779 0
M  V30 853 H 89.2889 -1.42087 1.33406 0
M  V30 854 H 88.3849 -2.92759 1.0816 0
M  V30 855 N 88.686 -0.835752 -1.33615 0
M  V30 856 C 89.634 -0.255238 -2.31195 0
M  V30 857 C 90.628 0.61107 -1.57995 0
M  V30 858 O 91.834 0.500979 -1.72888 0
M  V30 859 H 88.209 -0.0638085 -0.749288 0
M  V30 860 H 90.18 -1.09283 -2.77669 0
M  V30 861 C 88.929 0.55754 -3.43201 0
M  V30 862 H 88.252 -0.0997553 -3.99676 0
M  V30 863 H 89.692 0.929622 -4.13683 0
M  V30 864 C 88.151 1.73515 -2.88781 0
M  V30 865 O 88.681 2.83376 -2.84712 0
M  V30 866 N 86.887 1.55603 -2.4543 0
M  V30 867 H 86.434 0.662354 -2.48939 0
M  V30 868 H 86.392 2.34545 -2.09371 0
M  V30 869 N 90.1641 1.46063 -0.591896 0
M  V30 870 C 91.0941 2.33172 0.123673 0
M  V30 871 C 92.0751 1.45897 0.87453 0
M  V30 872 O 93.2601 1.74698 0.848181 0
M  V30 873 C 90.3901 3.28336 1.13194 0
M  V30 874 C 89.3441 4.25124 0.495324 0
M  V30 875 C 88.6701 5.09863 1.61071 0
M  V30 876 C 89.9701 5.19143 -0.573425 0
M  V30 877 H 91.6641 2.93252 -0.603646 0
M  V30 878 H 89.2101 1.41014 -0.291741 0
M  V30 879 H 91.1631 3.88137 1.64097 0
M  V30 880 H 89.8871 2.66383 1.88965 0
M  V30 881 H 88.5461 3.66599 0.00729452 0
M  V30 882 H 88.1941 4.44288 2.35832 0
M  V30 883 H 87.8941 5.75417 1.19035 0
M  V30 884 H 89.4181 5.72529 2.12233 0
M  V30 885 H 90.8321 5.73106 -0.1491 0
M  V30 886 H 89.2291 5.93089 -0.914636 0
M  V30 887 H 90.2991 4.62519 -1.45617 0
M  V30 888 N 91.6422 0.330177 1.54103 0
M  V30 889 C 92.5522 -0.541534 2.28264 0
M  V30 890 C 93.5682 -1.12351 1.32866 0
M  V30 891 O 94.7442 -1.14206 1.65888 0
M  V30 892 C 91.8092 -1.68322 3.03098 0
M  V30 893 C 90.8702 -1.13238 4.14096 0
M  V30 894 C 90.1032 -2.21966 4.85352 0
M  V30 895 O 90.3262 -3.42437 4.56172 0
M  V30 896 O 89.2602 -1.87013 5.7211 0
M  V30 897 H 93.0862 0.060938 3.03639 0
M  V30 898 H 90.6712 0.09565 1.49093 0
M  V30 899 H 92.5532 -2.34777 3.49939 0
M  V30 900 H 91.2282 -2.27176 2.30593 0
M  V30 901 H 90.1352 -0.432736 3.71589 0
M  V30 902 H 91.4682 -0.588898 4.88664 0
M  V30 903 N 93.1203 -1.57491 0.0584922 0
M  V30 904 C 94.3673 -1.92978 -0.613648 0
M  V30 905 C 94.6953 -0.937461 -1.70417 0
M  V30 906 O 93.9503 0.049078 -1.95638 0
M  V30 907 C 94.2493 -3.3513 -1.24188 0
M  V30 908 C 93.9153 -4.50037 -0.278826 0
M  V30 909 C 92.5773 -4.81198 -0.0138447 0
M  V30 910 C 94.9293 -5.19807 0.380777 0
M  V30 911 C 92.2573 -5.79473 0.918052 0
M  V30 912 C 94.6093 -6.19079 1.30091 0
M  V30 913 C 93.2733 -6.48665 1.57449 0
M  V30 914 H 92.5433 -0.706157 -0.22455 0
M  V30 915 H 95.1903 -1.91082 0.126533 0
M  V30 916 H 93.4953 -3.33429 -2.05749 0
M  V30 917 H 95.1923 -3.59871 -1.769 0
M  V30 918 H 91.7823 -4.25726 -0.495539 0
M  V30 919 H 95.9663 -4.95939 0.189158 0
M  V30 920 H 91.2223 -6.00727 1.1374 0
M  V30 921 H 95.3963 -6.7225 1.81804 0
M  V30 922 H 93.0233 -7.24628 2.29822 0
M  V30 923 N 94.5984 0.214957 -1.56127 0
M  V30 924 C 95.5284 1.2695 -1.95974 0
M  V30 925 C 96.5094 1.48539 -0.828868 0
M  V30 926 O 97.6944 1.60611 -1.09168 0
M  V30 927 C 94.8244 2.61794 -2.28214 0
M  V30 928 C 93.7784 2.54851 -3.43853 0
M  V30 929 C 93.1044 3.93785 -3.61715 0
M  V30 930 C 94.4044 2.09065 -4.78632 0
M  V30 931 H 96.0984 0.93846 -2.84312 0
M  V30 932 H 93.6444 0.449996 -1.36788 0
M  V30 933 H 95.5974 3.35731 -2.54682 0
M  V30 934 H 94.3214 2.96599 -1.36736 0
M  V30 935 H 92.9804 1.8337 -3.17444 0
M  V30 936 H 92.6284 4.25908 -2.67602 0
M  V30 937 H 92.3284 3.90019 -4.39498 0
M  V30 938 H 93.8524 4.69374 -3.90539 0
M  V30 939 H 95.2664 2.7275 -5.04262 0
M  V30 940 H 93.6634 2.16346 -5.59745 0
M  V30 941 H 94.7334 1.04315 -4.73547 0
M  V30 942 N 96.0765 1.50051 0.48192 0
M  V30 943 C 97.3255 1.59741 1.23149 0
M  V30 944 C 97.6385 0.298163 1.93314 0
M  V30 945 O 98.8445 0.273835 2.70116 0
M  V30 946 C 97.3005 2.81926 2.23708 0
M  V30 947 C 96.9085 4.18685 1.59396 0
M  V30 948 C 98.6525 3.00956 2.99375 0
M  V30 949 C 96.5595 5.3207 2.58178 0
M  V30 950 H 95.4895 0.594838 0.46334 0
M  V30 951 H 98.1405 1.76467 0.503169 0
M  V30 952 H 96.5225 2.58736 2.99786 0
M  V30 953 H 97.6965 4.52088 0.891811 0
M  V30 954 H 96.0115 4.05171 0.960503 0
M  V30 955 H 98.6085 3.82836 3.73283 0
M  V30 956 H 98.9515 2.12258 3.58123 0
M  V30 957 H 99.4845 3.24277 2.30411 0
M  V30 958 H 96.2235 6.22888 2.04184 0
M  V30 959 H 95.7435 5.03098 3.26577 0
M  V30 960 H 97.4225 5.62196 3.20225 0
M  V30 961 N 97.5546 -0.734337 1.39446 0
M  V30 962 C 98.8316 -1.48579 1.27215 0
M  V30 963 C 99.2116 -2.1077 -0.117968 0
M  V30 964 O 98.5596 -1.98646 -1.12924 0
M  V30 965 C 98.7696 -2.53667 2.39696 0
M  V30 966 C 100.118 -3.20031 2.79044 0
M  V30 967 O 101.142 -2.6398 2.39151 0
M  V30 968 O 100.001 -4.21455 3.47905 0
M  V30 969 H 97.0946 -0.659816 0.49857 0
M  V30 970 H 99.6406 -0.768106 1.51322 0
M  V30 971 H 98.4126 -2.06096 3.32626 0
M  V30 972 H 98.0356 -3.32994 2.17258 0
M  V30 973 N 99.0327 -1.24633 -0.964593 0
M  V30 974 C 99.9807 -1.03917 -2.08096 0
M  V30 975 C 100.975 0.0268581 -1.69379 0
M  V30 976 O 102.181 -0.127952 -1.79545 0
M  V30 977 H 98.5557 -0.319044 -0.680966 0
M  V30 978 H 100.527 -1.98581 -2.22729 0
M  V30 979 C 99.2757 -0.663983 -3.41301 0
M  V30 980 H 98.5987 -1.47605 -3.71555 0
M  V30 981 H 100.039 -0.558663 -4.20303 0
M  V30 982 C 98.4977 0.629169 -3.30973 0
M  V30 983 O 99.0277 1.67404 -3.65156 0
M  V30 984 N 97.2337 0.611057 -2.84103 0
M  V30 985 H 96.7807 -0.239593 -2.56483 0
M  V30 986 H 96.7387 1.47647 -2.77575 0
M  V30 987 N 100.511 1.16574 -1.06058 0
M  V30 988 C 101.759 1.86677 -0.77434 0
M  V30 989 C 102.08 1.81959 0.701147 0
M  V30 990 O 101.35 1.2515 1.50713 0
M  V30 991 H 99.9298 0.691134 -0.283449 0
M  V30 992 H 102.592 1.41378 -1.34158 0
M  V30 993 H 101.688 2.92181 -1.09711 0
M  V30 994 N 101.989 0.842826 1.3317 0
M  V30 995 C 103.238 0.436738 1.96915 0
M  V30 996 C 103.551 -1.01025 1.67491 0
M  V30 997 O 104.757 -1.5212 2.24881 0
M  V30 998 C 103.213 0.730021 3.52418 0
M  V30 999 C 102.821 2.19195 3.90714 0
M  V30 1000 C 104.565 0.391076 4.22695 0
M  V30 1001 C 102.472 2.42907 5.39212 0
M  V30 1002 H 101.402 0.15958 0.736919 0
M  V30 1003 H 104.053 1.03196 1.51733 0
M  V30 1004 H 102.435 0.0643755 3.95948 0
M  V30 1005 H 103.609 2.8984 3.58231 0
M  V30 1006 H 101.924 2.49425 3.33431 0
M  V30 1007 H 104.521 0.545817 5.31907 0
M  V30 1008 H 104.864 -0.666294 4.10933 0
M  V30 1009 H 105.397 1.01212 3.84709 0
M  V30 1010 H 102.136 3.47224 5.55982 0
M  V30 1011 H 101.656 1.76827 5.73142 0
M  V30 1012 H 103.335 2.2626 6.06148 0
M  V30 1013 N 103.467 -1.45747 0.599634 0
M  V30 1014 C 104.417 -2.27538 -0.145107 0
M  V30 1015 C 105.401 -1.3686 -0.846055 0
M  V30 1016 O 106.593 -1.6091 -0.737357 0
M  V30 1017 C 103.722 -3.23569 -1.14708 0
M  V30 1018 C 102.808 -4.21734 -0.447383 0
M  V30 1019 N 103.199 -5.03257 0.506535 0
M  V30 1020 C 101.497 -4.40536 -0.695966 0
M  V30 1021 C 102.198 -5.74426 0.917068 0
M  V30 1022 N 101.174 -5.42966 0.26253 0
M  V30 1023 H 104.976 -2.87965 0.587672 0
M  V30 1024 H 102.49 -1.56803 0.422697 0
M  V30 1025 H 104.487 -3.8089 -1.69495 0
M  V30 1026 H 103.147 -2.64702 -1.8805 0
M  V30 1027 H 104.158 -5.10319 0.882899 0
M  V30 1028 H 100.835 -3.92802 -1.41467 0
M  V30 1029 H 102.225 -6.4995 1.70338 0
M  V30 1030 N 104.945 -0.338344 -1.53925 0
M  V30 1031 C 105.908 0.508299 -2.23493 0
M  V30 1032 C 106.908 1.03175 -1.23335 0
M  V30 1033 O 108.098 0.921826 -1.47811 0
M  V30 1034 C 105.23 1.70754 -2.95052 0
M  V30 1035 H 106.423 -0.100058 -2.99733 0
M  V30 1036 H 103.976 -0.0896198 -1.56043 0
M  V30 1037 H 104.711 2.35474 -2.22986 0
M  V30 1038 H 104.496 1.33946 -3.68512 0
M  V30 1039 H 105.986 2.30818 -3.48013 0
M  V30 1040 N 106.423 1.57458 -0.0668435 0
M  V30 1041 C 107.669 1.93587 0.6043 0
M  V30 1042 C 108.002 0.946722 1.69561 0
M  V30 1043 O 107.277 -0.0248516 1.94484 0
M  V30 1044 C 107.56 3.40014 1.18585 0
M  V30 1045 C 107.413 4.49685 0.101529 0
M  V30 1046 C 108.732 3.87154 2.09284 0
M  V30 1047 H 105.851 0.703958 0.218202 0
M  V30 1048 H 108.493 1.89542 -0.131804 0
M  V30 1049 H 106.643 3.43592 1.81319 0
M  V30 1050 H 108.315 4.5823 -0.531279 0
M  V30 1051 H 106.558 4.30059 -0.568487 0
M  V30 1052 H 107.229 5.49266 0.54874 0
M  V30 1053 H 109.705 3.85551 1.56491 0
M  V30 1054 H 108.581 4.90231 2.46911 0
M  V30 1055 H 108.842 3.2481 2.99918 0
M  V30 1056 N 107.901 -0.206675 1.56239 0
M  V30 1057 C 109.147 -0.930218 1.80208 0
M  V30 1058 C 109.48 -1.83387 0.638981 0
M  V30 1059 O 108.755 -1.91119 -0.361066 0
M  V30 1060 C 109.038 -1.75641 3.1436 0
M  V30 1061 C 108.891 -0.878257 4.41142 0
M  V30 1062 C 110.21 -2.73129 3.45092 0
M  V30 1063 H 107.329 -0.336742 0.655571 0
M  V30 1064 H 109.971 -0.198222 1.88963 0
M  V30 1065 H 108.121 -2.38048 3.07027 0
M  V30 1066 H 109.793 -0.269787 4.6051 0
M  V30 1067 H 108.036 -0.184385 4.33408 0
M  V30 1068 H 108.707 -1.49106 5.3148 0
M  V30 1069 H 111.183 -2.20856 3.52649 0
M  V30 1070 H 110.059 -3.28028 4.40101 0
M  V30 1071 H 110.32 -3.51606 2.68003 0
M  V30 1072 N 109.379 -1.50304 -0.473955 0
M  V30 1073 C 110.627 -1.60832 -1.22382 0
M  V30 1074 C 110.948 -0.30939 -1.9253 0
M  V30 1075 O 110.218 0.67296 -1.83978 0
M  V30 1076 H 108.798 -0.592652 -0.454723 0
M  V30 1077 H 111.46 -1.87068 -0.546968 0
M  V30 1078 H 110.556 -2.41803 -1.97327 0
M  V30 1079 N 110.857 0.726932 -1.39834 0
M  V30 1080 C 112.085 1.51613 -1.40787 0
M  V30 1081 C 112.5 1.88799 -0.00451505 0
M  V30 1082 O 111.857 1.54662 0.968809 0
M  V30 1083 C 111.908 2.79863 -2.28821 0
M  V30 1084 O 111.629 2.44253 -3.63692 0
M  V30 1085 C 113.13 3.73837 -2.38245 0
M  V30 1086 H 110.35 0.468264 -0.480593 0
M  V30 1087 H 112.894 0.897607 -1.83748 0
M  V30 1088 H 111.049 3.38027 -1.89252 0
M  V30 1089 H 111.463 3.26695 -4.1033 0
M  V30 1090 H 112.937 4.60699 -3.04073 0
M  V30 1091 H 113.414 4.16153 -1.40403 0
M  V30 1092 H 114.02 3.21589 -2.78317 0
M  V30 1093 N 112.336 1.25143 0.95797 0
M  V30 1094 C 113.564 1.12424 1.73691 0
M  V30 1095 C 113.979 -0.322304 1.86029 0
M  V30 1096 O 113.336 -1.22186 1.35561 0
M  V30 1097 C 113.387 1.76933 3.15241 0
M  V30 1098 O 113.108 3.15932 3.03511 0
M  V30 1099 C 114.609 1.6995 4.09429 0
M  V30 1100 H 111.829 0.3923 0.544373 0
M  V30 1101 H 114.373 1.6544 1.20207 0
M  V30 1102 H 112.528 1.27895 3.6568 0
M  V30 1103 H 112.942 3.47598 3.9278 0
M  V30 1104 H 114.416 2.19753 5.06372 0
M  V30 1105 H 114.893 0.662619 4.34173 0
M  V30 1106 H 115.499 2.18461 3.64904 0
M  V30 1107 N 113.814 -1.1601 1.06675 0
M  V30 1108 C 115.062 -1.86264 0.784229 0
M  V30 1109 C 115.383 -1.82328 -0.691488 0
M  V30 1110 O 114.653 -1.25947 -1.50047 0
M  V30 1111 H 113.233 -0.689621 0.28711 0
M  V30 1112 H 115.895 -1.40664 1.34906 0
M  V30 1113 H 114.991 -2.91595 1.11259 0
M  V30 1114 N 115.292 -0.849877 -1.32721 0
M  V30 1115 C 116.539 -0.450923 -1.97416 0
M  V30 1116 C 116.867 0.992376 -1.67279 0
M  V30 1117 O 116.122 1.71048 -0.950845 0
M  V30 1118 C 116.421 -0.631272 -3.51781 0
M  V30 1119 C 116.087 -2.04432 -4.01894 0
M  V30 1120 C 114.749 -2.4308 -4.1529 0
M  V30 1121 C 117.101 -2.96679 -4.28522 0
M  V30 1122 C 114.429 -3.73257 -4.52654 0
M  V30 1123 C 116.781 -4.26349 -4.67343 0
M  V30 1124 C 115.445 -4.64939 -4.78945 0
M  V30 1125 H 114.715 -0.165004 -0.722395 0
M  V30 1126 H 117.362 -1.07901 -1.58207 0
M  V30 1127 H 115.667 0.0800767 -3.91718 0
M  V30 1128 H 117.364 -0.302709 -3.99856 0
M  V30 1129 H 113.954 -1.73419 -3.91949 0
M  V30 1130 H 118.138 -2.68054 -4.17685 0
M  V30 1131 H 113.394 -4.02946 -4.59831 0
M  V30 1132 H 117.568 -4.97895 -4.86902 0
M  V30 1133 H 115.195 -5.65855 -5.07654 0
M  V30 1134 N 116.77 1.45427 -0.607355 0
M  V30 1135 C 117.998 2.06614 -0.108814 0
M  V30 1136 C 118.413 1.45204 1.2067 0
M  V30 1137 O 117.77 0.566132 1.73497 0
M  V30 1138 C 117.821 3.61481 0.0375347 0
M  V30 1139 O 117.542 4.20598 -1.22593 0
M  V30 1140 C 119.043 4.39652 0.567561 0
M  V30 1141 H 116.263 0.66747 -0.0687351 0
M  V30 1142 H 118.807 1.86675 -0.835022 0
M  V30 1143 H 116.962 3.80762 0.714068 0
M  V30 1144 H 117.376 5.1377 -1.05547 0
M  V30 1145 H 118.85 5.48518 0.61905 0
M  V30 1146 H 119.327 4.09417 1.58978 0
M  V30 1147 H 119.933 4.25234 -0.0749202 0
M  V30 1148 N 118.248 0.346503 1.53744 0
M  V30 1149 C 119.211 -0.496439 2.23759 0
M  V30 1150 C 120.211 -1.0252 1.2388 0
M  V30 1151 O 121.401 -0.913974 1.48297 0
M  V30 1152 C 118.533 -1.69187 2.95954 0
M  V30 1153 H 119.726 0.115952 2.99676 0
M  V30 1154 H 117.279 0.0978939 1.55993 0
M  V30 1155 H 118.014 -2.34288 2.24231 0
M  V30 1156 H 117.799 -1.31989 3.69217 0
M  V30 1157 H 119.289 -2.28969 3.49232 0
M  V30 1158 N 119.726 -1.57421 0.075193 0
M  V30 1159 C 120.636 -2.1642 -0.905511 0
M  V30 1160 C 121.652 -1.12828 -1.32461 0
M  V30 1161 O 122.828 -1.45109 -1.39661 0
M  V30 1162 C 119.893 -2.71693 -2.15369 0
M  V30 1163 C 118.954 -3.90171 -1.79068 0
M  V30 1164 C 118.187 -4.42798 -2.97936 0
M  V30 1165 O 118.41 -3.94416 -4.12058 0
M  V30 1166 O 117.344 -5.34085 -2.77555 0
M  V30 1167 H 121.17 -3.00588 -0.433626 0
M  V30 1168 H 118.755 -1.48664 -0.148067 0
M  V30 1169 H 120.637 -3.07104 -2.88557 0
M  V30 1170 H 119.312 -1.90582 -2.61649 0
M  V30 1171 H 118.219 -3.59606 -1.03122 0
M  V30 1172 H 119.552 -4.72584 -1.37569 0
M  V30 1173 N 121.204 0.198386 -1.56346 0
M  V30 1174 C 122.62 0.549085 -1.49857 0
M  V30 1175 C 122.82 1.86016 -0.774611 0
M  V30 1176 O 121.876 2.50416 -0.323776 0
M  V30 1177 C 123.189 0.606868 -2.94512 0
M  V30 1178 C 124.737 0.695925 -3.05165 0
M  V30 1179 C 125.212 0.784848 -4.51225 0
M  V30 1180 N 126.703 0.848463 -4.55363 0
M  V30 1181 C 127.438 0.937378 -5.65686 0
M  V30 1182 N 126.934 0.9888 -6.85707 0
M  V30 1183 N 128.727 0.974312 -5.53592 0
M  V30 1184 H 120.878 -0.661655 -2.01831 0
M  V30 1185 H 123.141 -0.235261 -0.918344 0
M  V30 1186 H 122.847 -0.28732 -3.50524 0
M  V30 1187 H 122.721 1.46268 -3.47686 0
M  V30 1188 H 125.108 1.58055 -2.49204 0
M  V30 1189 H 125.189 -0.186022 -2.55123 0
M  V30 1190 H 124.833 -0.0954072 -5.0781 0
M  V30 1191 H 124.763 1.68255 -4.98997 0
M  V30 1192 H 127.254 0.818103 -3.68938 0
M  V30 1193 H 127.567 1.05707 -7.65536 0
M  V30 1194 H 125.912 0.957534 -6.88372 0
M  V30 1195 H 129.103 0.930954 -4.58749 0
M  V30 1196 H 129.276 1.04015 -6.39597 0
M  V30 1197 N 122.682 1.50554 0.465978 0
M  V30 1198 C 123.929 1.61798 1.21768 0
M  V30 1199 C 124.257 0.320696 1.91838 0
M  V30 1200 O 123.512 -0.693724 1.82992 0
M  V30 1201 C 123.811 2.75152 2.28093 0
M  V30 1202 C 123.477 4.15454 1.75239 0
M  V30 1203 C 122.139 4.53628 1.60546 0
M  V30 1204 C 124.491 5.03121 1.36083 0
M  V30 1205 C 121.819 5.77204 1.05128 0
M  V30 1206 C 124.171 6.27249 0.821056 0
M  V30 1207 C 122.835 6.64221 0.660795 0
M  V30 1208 H 122.105 0.592063 0.445582 0
M  V30 1209 H 124.752 1.84503 0.512927 0
M  V30 1210 H 123.057 2.46556 3.04496 0
M  V30 1211 H 124.754 2.81055 2.86023 0
M  V30 1212 H 121.344 3.85341 1.87644 0
M  V30 1213 H 125.528 4.74257 1.46267 0
M  V30 1214 H 120.784 6.0452 0.91462 0
M  V30 1215 H 124.958 6.94537 0.509018 0
M  V30 1216 H 122.585 7.59854 0.229226 0
M  V30 1217 N 124.16 -0.719506 1.40217 0
M  V30 1218 C 125.092 -1.84428 1.36084 0
M  V30 1219 C 126.105 -1.60597 0.266913 0
M  V30 1220 O 127.294 -1.70544 0.526983 0
M  V30 1221 C 124.394 -3.20757 1.094 0
M  V30 1222 C 123.567 -3.71817 2.30372 0
M  V30 1223 C 122.626 -4.86748 1.99907 0
M  V30 1224 O 121.652 -4.99603 2.72737 0
M  V30 1225 N 122.854 -5.7226 0.974635 0
M  V30 1226 H 125.619 -1.88473 2.33019 0
M  V30 1227 H 123.18 -0.900885 1.3452 0
M  V30 1228 H 125.172 -3.95235 0.870116 0
M  V30 1229 H 123.742 -3.11884 0.211452 0
M  V30 1230 H 122.962 -2.88514 2.68614 0
M  V30 1231 H 124.25 -4.02666 3.11026 0
M  V30 1232 H 123.648 -5.6448 0.371368 0
M  V30 1233 H 122.205 -6.46739 0.810656 0
M  V30 1234 N 125.638 -1.25649 -0.95132 0
M  V30 1235 C 126.57 -1.02112 -2.05197 0
M  V30 1236 C 127.583 0.0150571 -1.62793 0
M  V30 1237 O 128.772 -0.223874 -1.77091 0
M  V30 1238 C 125.872 -0.522361 -3.3485 0
M  V30 1239 C 125.045 -1.62546 -4.06076 0
M  V30 1240 C 124.104 -1.12649 -5.14001 0
M  V30 1241 O 123.13 -1.82156 -5.39266 0
M  V30 1242 N 124.332 0.03047 -5.80492 0
M  V30 1243 H 127.097 -1.96885 -2.25957 0
M  V30 1244 H 124.658 -1.16899 -1.1201 0
M  V30 1245 H 126.65 -0.172961 -4.0433 0
M  V30 1246 H 125.22 0.33151 -3.10837 0
M  V30 1247 H 124.44 -2.14628 -3.30649 0
M  V30 1248 H 125.728 -2.36644 -4.50419 0
M  V30 1249 H 125.126 0.611169 -5.62389 0
M  V30 1250 H 123.683 0.320875 -6.5101 0
M  V30 1251 N 127.117 1.15442 -1.07289 0
M  V30 1252 C 128.363 1.86489 -0.796846 0
M  V30 1253 C 128.696 1.82078 0.675371 0
M  V30 1254 O 127.971 1.24346 1.4956 0
M  V30 1255 C 128.254 3.35626 -1.30489 0
M  V30 1256 C 128.107 3.48673 -2.84161 0
M  V30 1257 C 129.426 4.30357 -0.920907 0
M  V30 1258 H 126.545 0.677144 -0.290939 0
M  V30 1259 H 129.187 1.35633 -1.33056 0
M  V30 1260 H 127.337 3.79068 -0.850883 0
M  V30 1261 H 129.009 3.14099 -3.37846 0
M  V30 1262 H 127.252 2.90253 -3.22391 0
M  V30 1263 H 127.923 4.53453 -3.14777 0
M  V30 1264 H 130.399 3.94871 -1.3121 0
M  V30 1265 H 129.275 5.33193 -1.30372 0
M  V30 1266 H 129.536 4.4176 0.173226 0
M  V30 1267 N 128.595 0.856903 1.32268 0
M  V30 1268 C 129.505 0.306131 2.32594 0
M  V30 1269 C 130.521 -0.577209 1.64147 0
M  V30 1270 O 131.697 -0.477043 1.95669 0
M  V30 1271 C 128.762 -0.494561 3.43154 0
M  V30 1272 C 127.823 0.415186 4.27288 0
M  V30 1273 C 127.056 -0.347387 5.32568 0
M  V30 1274 O 127.279 -1.57708 5.48165 0
M  V30 1275 O 126.213 0.287982 6.01211 0
M  V30 1276 H 130.039 1.13737 2.81598 0
M  V30 1277 H 127.624 0.619902 1.35932 0
M  V30 1278 H 129.506 -0.948944 4.10576 0
M  V30 1279 H 128.181 -1.30257 2.96336 0
M  V30 1280 H 127.088 0.917793 3.62667 0
M  V30 1281 H 128.421 1.18844 4.77637 0
M  V30 1282 N 130.073 -1.45103 0.615059 0
M  V30 1283 C 131.298 -2.07064 0.117988 0
M  V30 1284 C 131.723 -1.4554 -1.19163 0
M  V30 1285 O 131.081 -0.550855 -1.72729 0
M  V30 1286 C 131.129 -3.606 -0.000288387 0
M  V30 1287 O 130.233 -3.98847 -1.04856 0
M  V30 1288 H 129.574 -0.659467 0.0774581 0
M  V30 1289 H 132.104 -1.86236 0.847186 0
M  V30 1290 H 132.114 -4.07529 -0.196091 0
M  V30 1291 H 130.789 -4.04765 0.955932 0
M  V30 1292 H 129.366 -3.63577 -0.828619 0
M  V30 1293 N 131.551 -0.354651 -1.53558 0
M  V30 1294 C 132.797 0.231422 -2.02079 0
M  V30 1295 C 133.152 1.47308 -1.23767 0
M  V30 1296 O 132.445 1.8891 -0.319947 0
M  V30 1297 C 132.639 0.587121 -3.52545 0
M  V30 1298 C 132.468 -0.618513 -4.45426 0
M  V30 1299 C 131.238 -1.12724 -4.92566 0
M  V30 1300 C 133.436 -1.48039 -4.92533 0
M  V30 1301 N 131.418 -2.29404 -5.69427 0
M  V30 1302 C 132.789 -2.49397 -5.67628 0
M  V30 1303 C 134.844 -1.50454 -4.74624 0
M  V30 1304 C 133.547 -3.53013 -6.26717 0
M  V30 1305 C 135.573 -2.52958 -5.34571 0
M  V30 1306 C 134.935 -3.5304 -6.09543 0
M  V30 1307 H 131.034 0.0476909 -0.780544 0
M  V30 1308 H 133.618 -0.496727 -1.88257 0
M  V30 1309 H 131.789 1.28436 -3.6655 0
M  V30 1310 H 133.521 1.15734 -3.87799 0
M  V30 1311 H 130.276 -0.693577 -4.68494 0
M  V30 1312 H 130.7 -2.88347 -6.12524 0
M  V30 1313 H 135.342 -0.744356 -4.16196 0
M  V30 1314 H 133.06 -4.2992 -6.84247 0
M  V30 1315 H 136.646 -2.55667 -5.22614 0
M  V30 1316 H 135.526 -4.31056 -6.55103 0
M  V30 1317 N 133.029 1.57378 -0.0835403 0
M  V30 1318 C 133.959 2.1641 0.87686 0
M  V30 1319 C 134.94 1.09429 1.30228 0
M  V30 1320 O 136.125 1.37516 1.37124 0
M  V30 1321 C 133.255 2.73517 2.14022 0
M  V30 1322 C 132.209 3.85769 1.85381 0
M  V30 1323 C 131.535 4.29529 3.18448 0
M  V30 1324 C 132.835 5.09486 1.14984 0
M  V30 1325 H 134.529 2.96914 0.385059 0
M  V30 1326 H 132.075 1.42823 0.18377 0
M  V30 1327 H 134.028 3.13463 2.81636 0
M  V30 1328 H 132.752 1.90252 2.65465 0
M  V30 1329 H 131.411 3.46345 1.20169 0
M  V30 1330 H 131.059 3.43169 3.67755 0
M  V30 1331 H 130.759 5.05204 3.00071 0
M  V30 1332 H 132.283 4.72099 3.8724 0
M  V30 1333 H 133.697 5.46674 1.72687 0
M  V30 1334 H 132.094 5.90515 1.06826 0
M  V30 1335 H 133.164 4.84724 0.130749 0
M  V30 1336 N 134.507 -0.190092 1.56449 0
M  V30 1337 C 135.753 -0.911052 1.81184 0
M  V30 1338 C 136.086 -1.82699 0.658396 0
M  V30 1339 O 135.361 -1.91491 -0.340775 0
M  V30 1340 C 135.644 -1.72297 3.16205 0
M  V30 1341 C 135.497 -0.831419 4.42049 0
M  V30 1342 C 136.816 -2.69454 3.47969 0
M  V30 1343 H 133.935 -0.32977 0.659106 0
M  V30 1344 H 136.577 -0.178169 1.89163 0
M  V30 1345 H 134.727 -2.34778 3.09534 0
M  V30 1346 H 136.399 -0.220929 4.60771 0
M  V30 1347 H 134.642 -0.138406 4.33579 0
M  V30 1348 H 135.313 -1.43461 5.33032 0
M  V30 1349 H 137.789 -2.17104 3.54972 0
M  V30 1350 H 136.665 -3.23342 4.43555 0
M  V30 1351 H 136.926 -3.48744 2.71717 0
M  V30 1352 N 135.985 -1.50799 -0.457987 0
M  V30 1353 C 136.948 -1.7005 -1.53674 0
M  V30 1354 C 137.948 -0.570881 -1.50325 0
M  V30 1355 O 139.138 -0.838126 -1.52712 0
M  V30 1356 C 136.27 -1.73788 -2.93276 0
M  V30 1357 H 137.463 -2.66306 -1.37917 0
M  V30 1358 H 135.016 -1.40477 -0.685271 0
M  V30 1359 H 135.751 -0.792717 -3.14462 0
M  V30 1360 H 135.536 -2.55864 -2.97113 0
M  V30 1361 H 137.026 -1.90591 -3.71571 0
M  V30 1362 N 137.463 0.71206 -1.40597 0
M  V30 1363 C 138.41 1.82613 -1.41142 0
M  V30 1364 C 139.38 1.63925 -0.267903 0
M  V30 1365 O 140.565 1.85009 -0.466495 0
M  V30 1366 C 137.705 3.20354 -1.28324 0
M  V30 1367 C 136.818 3.50589 -2.52411 0
M  V30 1368 C 135.953 4.77855 -2.32009 0
M  V30 1369 C 134.992 5.01005 -3.51654 0
M  V30 1370 N 134.129 6.19487 -3.30425 0
M  V30 1371 H 138.969 1.81482 -2.36365 0
M  V30 1372 H 136.506 0.886475 -1.17388 0
M  V30 1373 H 138.464 3.99899 -1.18899 0
M  V30 1374 H 137.094 3.20705 -0.367189 0
M  V30 1375 H 136.146 2.65573 -2.72351 0
M  V30 1376 H 137.458 3.63604 -3.41458 0
M  V30 1377 H 136.612 5.65424 -2.19956 0
M  V30 1378 H 135.351 4.67056 -1.40392 0
M  V30 1379 H 134.356 4.1189 -3.64179 0
M  V30 1380 H 135.581 5.13674 -4.44202 0
M  V30 1381 H 133.527 6.09932 -2.41494 0
M  V30 1382 H 133.444 6.33194 -4.13039 0
M  V30 1383 H 134.712 7.09834 -3.22113 0
M  V30 1384 N 138.941 1.26152 0.944643 0
M  V30 1385 C 140.352 1.10454 1.50522 0
M  V30 1386 C 140.703 -0.31635 1.93633 0
M  V30 1387 O 139.828 -1.20746 1.79581 0
M  V30 1388 C 140.423 1.99891 2.73549 0
M  V30 1389 C 138.982 1.88348 3.25886 0
M  V30 1390 C 138.129 1.93447 1.9868 0
M  V30 1391 H 141.08 1.39292 0.760489 0
M  V30 1392 H 141.101 1.54477 3.47732 0
M  V30 1393 H 140.613 3.03297 2.42141 0
M  V30 1394 H 138.714 0.878636 3.62092 0
M  V30 1395 H 138.827 2.73696 3.93227 0
M  V30 1396 H 137.191 1.37456 2.14425 0
M  V30 1397 H 137.974 2.98476 1.69607 0
M  V30 1398 N 140.419 -1.14872 1.07899 0
M  V30 1399 C 141.367 -2.21857 0.698727 0
M  V30 1400 C 142.361 -1.66845 -0.293086 0
M  V30 1401 O 143.567 -1.79321 -0.156204 0
M  V30 1402 H 139.942 -0.722691 0.207899 0
M  V30 1403 H 141.913 -2.51205 1.61054 0
M  V30 1404 C 140.662 -3.47498 0.11858 0
M  V30 1405 H 139.985 -3.90154 0.872914 0
M  V30 1406 H 141.425 -4.23858 -0.109759 0
M  V30 1407 C 139.884 -3.16947 -1.1422 0
M  V30 1408 O 140.414 -3.3426 -2.22785 0
M  V30 1409 N 138.62 -2.70946 -1.05055 0
M  V30 1410 H 138.167 -2.57058 -0.167038 0
M  V30 1411 H 138.125 -2.50879 -1.89491 0
M  V30 1412 N 141.898 -0.863906 -1.31812 0
M  V30 1413 C 143.126 -0.486111 -2.01108 0
M  V30 1414 C 143.541 0.919755 -1.64882 0
M  V30 1415 O 142.898 1.60162 -0.874893 0
M  V30 1416 C 142.949 -0.626435 -3.56031 0
M  V30 1417 O 142.67 -1.97693 -3.90959 0
M  V30 1418 C 144.171 -0.248857 -4.42601 0
M  V30 1419 H 141.391 -0.190052 -0.643523 0
M  V30 1420 H 143.935 -1.1634 -1.68182 0
M  V30 1421 H 142.09 0.00322717 -3.874 0
M  V30 1422 H 142.504 -1.98034 -4.85678 0
M  V30 1423 H 143.978 -0.398016 -5.50563 0
M  V30 1424 H 144.455 0.811489 -4.31638 0
M  V30 1425 H 145.061 -0.853971 -4.16638 0
M  V30 1426 N 143.376 1.44774 -0.622745 0
M  V30 1427 C 144.601 2.06999 -0.128968 0
M  V30 1428 C 145.026 1.4617 1.1839 0
M  V30 1429 O 144.384 0.560007 1.72434 0
M  V30 1430 C 144.432 3.60595 -0.0188351 0
M  V30 1431 O 143.536 3.99398 1.02739 0
M  V30 1432 H 142.877 0.659047 -0.0809544 0
M  V30 1433 H 145.407 1.85784 -0.85705 0
M  V30 1434 H 145.417 4.07627 0.174476 0
M  V30 1435 H 144.092 4.04252 -0.977384 0
M  V30 1436 H 142.669 3.64011 0.809326 0
M  V30 1437 N 144.854 0.36279 1.53368 0
M  V30 1438 C 146.1 -0.228113 2.01513 0
M  V30 1439 C 146.433 -1.48648 1.2497 0
M  V30 1440 O 145.708 -1.91459 0.342616 0
M  V30 1441 C 145.991 -0.522884 3.56284 0
M  V30 1442 C 145.844 0.74892 4.43521 0
M  V30 1443 C 147.163 -1.32461 4.19693 0
M  V30 1444 H 144.282 -0.0814343 0.732487 0
M  V30 1445 H 146.924 0.48713 1.83649 0
M  V30 1446 H 145.074 -1.1322 3.71636 0
M  V30 1447 H 146.746 1.38648 4.39971 0
M  V30 1448 H 144.989 1.36986 4.11603 0
M  V30 1449 H 145.66 0.497667 5.49752 0
M  V30 1450 H 148.136 -0.809203 4.08156 0
M  V30 1451 H 147.012 -1.49961 5.28018 0
M  V30 1452 H 147.273 -2.33232 3.75573 0
M  V30 1453 N 146.332 -1.57332 0.0918853 0
M  V30 1454 C 147.262 -2.16872 -0.865371 0
M  V30 1455 C 148.243 -1.10118 -1.29646 0
M  V30 1456 O 149.428 -1.38242 -1.36392 0
M  V30 1457 C 146.558 -2.74649 -2.12569 0
M  V30 1458 C 145.512 -3.86747 -1.83333 0
M  V30 1459 C 144.838 -4.31212 -3.16166 0
M  V30 1460 C 146.138 -5.10089 -1.1228 0
M  V30 1461 H 147.832 -2.97114 -0.369307 0
M  V30 1462 H 145.378 -1.42918 -0.176194 0
M  V30 1463 H 147.331 -3.14952 -2.7997 0
M  V30 1464 H 146.055 -1.91657 -2.64452 0
M  V30 1465 H 144.714 -3.46978 -1.18331 0
M  V30 1466 H 144.362 -3.45115 -3.6593 0
M  V30 1467 H 144.062 -5.06788 -2.97388 0
M  V30 1468 H 145.586 -4.74146 -3.84731 0
M  V30 1469 H 147 -5.47582 -1.69785 0
M  V30 1470 H 145.397 -5.91073 -1.03693 0
M  V30 1471 H 146.467 -4.84786 -0.105041 0
M  V30 1472 N 147.81 0.181792 -1.56548 0
M  V30 1473 C 149.059 0.898348 -1.8059 0
M  V30 1474 C 149.372 1.83862 -0.667379 0
M  V30 1475 O 150.578 2.59678 -0.792446 0
M  V30 1476 C 149.034 1.64791 -3.19956 0
M  V30 1477 C 148.642 0.751789 -4.41647 0
M  V30 1478 C 150.386 2.35331 -3.53298 0
M  V30 1479 C 148.293 1.50098 -5.72035 0
M  V30 1480 H 147.223 0.339194 -0.673397 0
M  V30 1481 H 149.874 0.151413 -1.82874 0
M  V30 1482 H 148.256 2.43921 -3.11959 0
M  V30 1483 H 149.43 -0.0018076 -4.608 0
M  V30 1484 H 147.745 0.156562 -4.16106 0
M  V30 1485 H 150.342 2.91958 -4.47956 0
M  V30 1486 H 150.685 3.10164 -2.77676 0
M  V30 1487 H 151.218 1.63154 -3.62803 0
M  V30 1488 H 147.957 0.795175 -6.50659 0
M  V30 1489 H 147.477 2.22817 -5.56878 0
M  V30 1490 H 149.156 2.05125 -6.13622 0
M  V30 1491 N 149.288 1.51039 0.449983 0
M  V30 1492 C 150.251 1.70863 1.5277 0
M  V30 1493 C 151.251 0.578846 1.5002 0
M  V30 1494 O 152.441 0.846213 1.52266 0
M  V30 1495 C 149.573 1.75341 2.9235 0
M  V30 1496 H 150.766 2.67034 1.36502 0
M  V30 1497 H 148.319 1.40838 0.677812 0
M  V30 1498 H 149.054 0.809383 3.14037 0
M  V30 1499 H 148.839 2.57436 2.95752 0
M  V30 1500 H 150.329 1.92559 3.70555 0
M  V30 1501 N 150.766 -0.704594 1.40972 0
M  V30 1502 C 152.177 -1.28418 1.3552 0
M  V30 1503 C 152.528 -1.96171 0.0339434 0
M  V30 1504 O 151.653 -1.98231 -0.867944 0
M  V30 1505 C 152.248 -2.33528 2.45459 0
M  V30 1506 C 150.807 -2.87085 2.43433 0
M  V30 1507 C 149.954 -1.61007 2.2577 0
M  V30 1508 H 152.905 -0.499963 1.50619 0
M  V30 1509 H 152.926 -3.14619 2.13998 0
M  V30 1510 H 152.438 -1.84187 3.41609 0
M  V30 1511 H 150.539 -3.40626 1.51013 0
M  V30 1512 H 150.652 -3.3813 3.39419 0
M  V30 1513 H 149.016 -1.86482 1.73483 0
M  V30 1514 H 149.799 -1.13675 3.23933 0
M  V30 1515 N 152.244 -1.26651 -0.937939 0
M  V30 1516 C 153.192 -1.08308 -2.05845 0
M  V30 1517 C 154.186 -0.0090757 -1.69398 0
M  V30 1518 O 155.392 -0.166007 -1.79233 0
M  V30 1519 H 151.767 -0.333416 -0.674046 0
M  V30 1520 H 153.738 -2.03261 -2.18467 0
M  V30 1521 C 152.487 -0.736229 -3.39816 0
M  V30 1522 H 151.81 -1.55453 -3.6834 0
M  V30 1523 H 153.25 -0.64769 -4.19024 0
M  V30 1524 C 151.709 0.558824 -3.32233 0
M  V30 1525 O 152.239 1.59621 -3.68624 0
M  V30 1526 N 150.445 0.550657 -2.85335 0
M  V30 1527 H 149.992 -0.293943 -2.55917 0
M  V30 1528 H 149.95 1.41726 -2.80644 0
M  V30 1529 N 153.722 1.14298 -1.08507 0
M  V30 1530 C 154.969 1.85359 -0.815373 0
M  V30 1531 C 155.297 1.83001 0.658865 0
M  V30 1532 O 154.552 1.25655 1.50031 0
M  V30 1533 C 154.851 3.33547 -1.28379 0
M  V30 1534 C 154.517 3.56093 -2.76602 0
M  V30 1535 C 153.179 3.61955 -3.17084 0
M  V30 1536 C 155.531 3.64834 -3.72217 0
M  V30 1537 C 152.859 3.74082 -4.51973 0
M  V30 1538 C 155.211 3.78487 -5.06883 0
M  V30 1539 C 153.875 3.82598 -5.46969 0
M  V30 1540 H 153.145 0.678276 -0.298366 0
M  V30 1541 H 155.792 1.35002 -1.35819 0
M  V30 1542 H 154.097 3.86191 -0.660593 0
M  V30 1543 H 155.794 3.86959 -1.05186 0
M  V30 1544 H 152.384 3.52179 -2.4427 0
M  V30 1545 H 156.568 3.59595 -3.42061 0
M  V30 1546 H 151.824 3.75527 -4.82483 0
M  V30 1547 H 155.998 3.84193 -5.80834 0
M  V30 1548 H 153.625 3.91747 -6.51489 0
M  V30 1549 N 155.201 0.870884 1.31352 0
M  V30 1550 C 156.164 0.332243 2.26779 0
M  V30 1551 C 157.164 -0.517302 1.52252 0
M  V30 1552 O 158.354 -0.326477 1.71113 0
M  V30 1553 C 155.486 -0.528066 3.36785 0
M  V30 1554 H 156.679 1.17469 2.75937 0
M  V30 1555 H 154.232 0.64655 1.423 0
M  V30 1556 H 154.967 -1.39167 2.92922 0
M  V30 1557 H 154.752 0.0802582 3.92018 0
M  V30 1558 H 156.242 -0.897179 4.07849 0
M  V30 1559 N 156.679 -1.44442 0.630414 0
M  V30 1560 C 157.928 -2.01267 0.132073 0
M  V30 1561 C 158.241 -1.50172 -1.25331 0
M  V30 1562 O 159.447 -1.9912 -1.84562 0
M  V30 1563 C 157.903 -3.59422 0.185362 0
M  V30 1564 C 157.511 -4.19514 1.57201 0
M  V30 1565 C 159.255 -4.23724 -0.256553 0
M  V30 1566 C 157.162 -5.69891 1.58045 0
M  V30 1567 H 156.092 -0.752619 0.0456092 0
M  V30 1568 H 158.743 -1.65666 0.789106 0
M  V30 1569 H 157.125 -3.92318 -0.538759 0
M  V30 1570 H 158.299 -3.98156 2.31966 0
M  V30 1571 H 156.614 -3.67496 1.95795 0
M  V30 1572 H 159.211 -5.34019 -0.269767 0
M  V30 1573 H 159.554 -3.96013 -1.28372 0
M  V30 1574 H 160.087 -3.95629 0.41505 0
M  V30 1575 H 156.826 -6.02336 2.58597 0
M  V30 1576 H 156.346 -5.93373 0.875725 0
M  V30 1577 H 158.025 -6.33515 1.31408 0
M  V30 1578 N 158.157 -0.370918 -1.53173 0
M  V30 1579 C 159.405 0.216673 -2.00935 0
M  V30 1580 C 159.726 1.48845 -1.25977 0
M  V30 1581 O 158.996 1.92286 -0.374551 0
M  V30 1582 H 157.576 0.0830565 -0.742368 0
M  V30 1583 H 160.238 -0.49838 -1.8842 0
M  V30 1584 H 159.334 0.439893 -3.08984 0
M  V30 1585 N 159.635 1.57281 -0.100228 0
M  V30 1586 C 160.598 2.13158 0.842398 0
M  V30 1587 C 161.598 1.06202 1.20738 0
M  V30 1588 O 162.788 1.32066 1.13597 0
M  V30 1589 C 159.92 2.65639 2.13655 0
M  V30 1590 H 161.113 2.97766 0.357114 0
M  V30 1591 H 158.666 1.5559 0.148823 0
M  V30 1592 H 159.401 1.84566 2.66657 0
M  V30 1593 H 159.186 3.43844 1.88451 0
M  V30 1594 H 160.676 3.08846 2.81077 0
M  V30 1595 N 161.113 -0.173488 1.56642 0
M  V30 1596 C 162.359 -0.891784 1.8214 0
M  V30 1597 C 162.692 -1.8199 0.677736 0
M  V30 1598 O 161.967 -1.91842 -0.320446 0
M  V30 1599 C 162.25 -1.68933 3.18015 0
M  V30 1600 C 162.103 -0.784487 4.42906 0
M  V30 1601 C 163.422 -2.65748 3.50808 0
M  V30 1602 H 160.541 -0.322761 0.662567 0
M  V30 1603 H 163.183 -0.158095 1.89341 0
M  V30 1604 H 161.333 -2.31482 3.12007 0
M  V30 1605 H 163.005 -0.172046 4.60979 0
M  V30 1606 H 161.248 -0.0924117 4.33702 0
M  V30 1607 H 161.919 -1.37799 5.34524 0
M  V30 1608 H 164.395 -2.13327 3.57255 0
M  V30 1609 H 163.271 -3.18619 4.4696 0
M  V30 1610 H 163.532 -3.45842 2.75401 0
M  V30 1611 N 162.591 -1.51276 -0.441967 0
M  V30 1612 C 163.521 -1.752 -1.54361 0
M  V30 1613 C 164.502 -0.601682 -1.59103 0
M  V30 1614 O 165.687 -0.843913 -1.74905 0
M  V30 1615 C 162.817 -1.87282 -2.92477 0
M  V30 1616 C 161.771 -3.02687 -3.02596 0
M  V30 1617 C 161.097 -2.99947 -4.42647 0
M  V30 1618 C 162.397 -4.4273 -2.77106 0
M  V30 1619 H 164.091 -2.67442 -1.34592 0
M  V30 1620 H 161.637 -1.28694 -0.646048 0
M  V30 1621 H 163.59 -2.02602 -3.695 0
M  V30 1622 H 162.314 -0.916844 -3.13467 0
M  V30 1623 H 160.973 -2.87065 -2.28012 0
M  V30 1624 H 160.621 -2.02136 -4.60597 0
M  V30 1625 H 160.321 -3.77439 -4.50348 0
M  V30 1626 H 161.845 -3.17354 -5.2165 0
M  V30 1627 H 163.259 -4.58727 -3.43864 0
M  V30 1628 H 161.656 -5.21893 -2.96222 0
M  V30 1629 H 162.726 -4.53087 -1.72744 0
M  V30 1630 N 164.069 0.697108 -1.41344 0
M  V30 1631 C 165.294 1.49096 -1.44171 0
M  V30 1632 C 165.719 1.88038 -0.0481568 0
M  V30 1633 O 165.077 1.54525 0.948243 0
M  V30 1634 C 165.125 2.73088 -2.3549 0
M  V30 1635 O 164.229 3.70514 -1.81088 0
M  V30 1636 H 163.57 0.448801 -0.489361 0
M  V30 1637 H 166.1 0.856992 -1.85787 0
M  V30 1638 H 166.11 3.21413 -2.51312 0
M  V30 1639 H 164.785 2.44081 -3.36745 0
M  V30 1640 H 163.362 3.29441 -1.74708 0
M  V30 1641 N 165.547 1.27147 0.931209 0
M  V30 1642 C 166.48 1.0389 2.0318 0
M  V30 1643 C 167.458 -0.0395716 1.62552 0
M  V30 1644 O 168.642 0.104867 1.88208 0
M  V30 1645 C 165.769 0.575227 3.3378 0
M  V30 1646 C 164.815 1.64774 3.93385 0
M  V30 1647 S 165.648 3.23933 4.26413 0
M  V30 1648 C 166.804 2.79358 5.60098 0
M  V30 1649 H 167.037 1.97075 2.22596 0
M  V30 1650 H 164.57 1.10938 1.07387 0
M  V30 1651 H 166.528 0.314385 4.09294 0
M  V30 1652 H 165.189 -0.336505 3.12292 0
M  V30 1653 H 164.382 1.27454 4.87618 0
M  V30 1654 H 163.984 1.86048 3.24441 0
M  V30 1655 H 166.276 2.24443 6.39243 0
M  V30 1656 H 167.219 3.72322 6.02314 0
M  V30 1657 H 167.627 2.1861 5.20452 0
M  V30 1658 N 167.025 -1.13721 1.09112 0
M  V30 1659 C 167.975 -2.17082 0.697091 0
M  V30 1660 C 168.959 -1.58321 -0.286923 0
M  V30 1661 O 170.151 -1.7673 -0.0978008 0
M  V30 1662 C 167.28 -3.43105 0.115729 0
M  V30 1663 C 166.366 -4.0888 1.12596 0
M  V30 1664 N 166.757 -4.4987 2.31195 0
M  V30 1665 C 165.055 -4.35471 0.963366 0
M  V30 1666 C 165.756 -5.01094 2.95431 0
M  V30 1667 N 164.732 -4.95751 2.23006 0
M  V30 1668 H 168.534 -2.46524 1.6001 0
M  V30 1669 H 166.048 -1.30481 0.966869 0
M  V30 1670 H 168.045 -4.16491 -0.184555 0
M  V30 1671 H 166.705 -3.15138 -0.78217 0
M  V30 1672 H 167.716 -4.42678 2.68806 0
M  V30 1673 H 164.393 -4.17328 0.119878 0
M  V30 1674 H 165.783 -5.4263 3.96236 0
M  V30 1675 N 168.503 -0.877838 -1.30888 0
M  V30 1676 C 169.75 -0.492696 -1.96415 0
M  V30 1677 C 170.078 0.956671 -1.69346 0
M  V30 1678 O 169.333 1.68993 -0.986913 0
M  V30 1679 C 169.632 -0.705748 -3.50363 0
M  V30 1680 C 169.298 -2.1291 -3.97467 0
M  V30 1681 C 167.96 -2.51834 -4.1004 0
M  V30 1682 C 170.312 -3.05702 -4.22132 0
M  V30 1683 C 167.64 -3.82775 -4.44635 0
M  V30 1684 C 169.992 -4.36166 -4.58194 0
M  V30 1685 C 168.656 -4.74993 -4.68975 0
M  V30 1686 H 167.926 -0.18029 -0.718733 0
M  V30 1687 H 170.573 -1.11233 -1.55883 0
M  V30 1688 H 168.878 -0.00303058 -3.918 0
M  V30 1689 H 170.575 -0.387456 -3.99124 0
M  V30 1690 H 167.165 -1.81694 -3.88182 0
M  V30 1691 H 171.349 -2.76853 -4.11906 0
M  V30 1692 H 166.605 -4.12609 -4.51181 0
M  V30 1693 H 170.779 -5.08111 -4.76231 0
M  V30 1694 H 168.406 -5.76495 -4.95537 0
M  V30 1695 N 169.982 1.44106 -0.638065 0
M  V30 1696 C 170.945 2.29138 0.0531013 0
M  V30 1697 C 171.945 1.41409 0.765506 0
M  V30 1698 O 173.135 1.63206 0.609046 0
M  V30 1699 C 170.267 3.23144 1.08584 0
M  V30 1700 H 171.46 2.91739 -0.694883 0
M  V30 1701 H 169.013 1.51134 -0.398538 0
M  V30 1702 H 169.748 2.65408 1.86357 0
M  V30 1703 H 169.533 3.87804 0.578852 0
M  V30 1704 H 171.023 3.87004 1.56899 0
M  V30 1705 N 171.46 0.379036 1.52974 0
M  V30 1706 C 172.407 -0.461048 2.26148 0
M  V30 1707 C 173.377 -1.06637 1.27349 0
M  V30 1708 O 174.562 -1.09633 1.56157 0
M  V30 1709 C 171.702 -1.58782 3.06402 0
M  V30 1710 C 170.815 -1.00636 4.20115 0
M  V30 1711 C 169.95 -2.10334 4.87784 0
M  V30 1712 C 168.989 -1.49724 5.93506 0
M  V30 1713 N 168.126 -2.5331 6.54812 0
M  V30 1714 H 172.966 0.169429 2.97518 0
M  V30 1715 H 170.503 0.0953806 1.4679 0
M  V30 1716 H 172.461 -2.25174 3.51215 0
M  V30 1717 H 171.091 -2.18876 2.37261 0
M  V30 1718 H 170.143 -0.232332 3.7969 0
M  V30 1719 H 171.455 -0.523343 4.96047 0
M  V30 1720 H 170.609 -2.84519 5.35849 0
M  V30 1721 H 169.348 -2.61992 4.11353 0
M  V30 1722 H 168.353 -0.740598 5.44789 0
M  V30 1723 H 169.578 -0.988732 6.71864 0
M  V30 1724 H 167.524 -3.04156 5.81227 0
M  V30 1725 H 167.441 -2.09734 7.26325 0
M  V30 1726 H 168.709 -3.27155 7.07524 0
M  V30 1727 N 172.938 -1.57226 0.108567 0
M  V30 1728 C 173.87 -2.11809 -0.875752 0
M  V30 1729 C 174.883 -1.05839 -1.23701 0
M  V30 1730 O 176.072 -1.33245 -1.18778 0
M  V30 1731 C 173.172 -2.59411 -2.18081 0
M  V30 1732 C 172.345 -3.89364 -1.99284 0
M  V30 1733 C 171.404 -4.22672 -3.13424 0
M  V30 1734 O 170.43 -4.91668 -2.86795 0
M  V30 1735 N 171.632 -3.79154 -4.3957 0
M  V30 1736 H 174.397 -2.9689 -0.409477 0
M  V30 1737 H 171.958 -1.61721 -0.076158 0
M  V30 1738 H 173.95 -2.7873 -2.93414 0
M  V30 1739 H 172.52 -1.79268 -2.5609 0
M  V30 1740 H 171.74 -3.79059 -1.08203 0
M  V30 1741 H 173.028 -4.74358 -1.84017 0
M  V30 1742 H 172.426 -3.23486 -4.64083 0
M  V30 1743 H 170.983 -4.03602 -5.11809 0
M  V30 1744 N 174.416 0.165178 -1.56732 0
M  V30 1745 C 175.379 1.18822 -1.95995 0
M  V30 1746 C 176.379 1.3685 -0.84431 0
M  V30 1747 O 177.569 1.34152 -1.11126 0
M  V30 1748 C 174.701 2.5521 -2.26011 0
M  V30 1749 H 175.894 0.851825 -2.87548 0
M  V30 1750 H 173.447 0.407857 -1.50885 0
M  V30 1751 H 174.182 2.93852 -1.37191 0
M  V30 1752 H 173.967 2.43489 -3.07336 0
M  V30 1753 H 175.457 3.28927 -2.57288 0
M  V30 1754 N 175.894 1.51508 0.433938 0
M  V30 1755 C 176.857 1.72473 1.50949 0
M  V30 1756 C 177.857 0.594725 1.49398 0
M  V30 1757 O 179.047 0.862315 1.5136 0
M  V30 1758 C 176.179 1.78431 2.90474 0
M  V30 1759 H 177.372 2.68467 1.33662 0
M  V30 1760 H 174.925 1.41549 0.662836 0
M  V30 1761 H 175.66 0.842645 3.13161 0
M  V30 1762 H 175.445 2.60558 2.93005 0
M  V30 1763 H 176.935 1.96479 3.68491 0
M  V30 1764 N 177.372 -0.689602 1.41712 0
M  V30 1765 C 178.788 -1.00093 1.24312 0
M  V30 1766 C 178.988 -2.01036 0.136729 0
M  V30 1767 O 178.044 -2.47562 -0.496918 0
M  V30 1768 C 179.357 -1.51985 2.59463 0
M  V30 1769 C 180.905 -1.63838 2.66695 0
M  V30 1770 C 181.38 -2.1913 4.02177 0
M  V30 1771 N 182.871 -2.26483 4.04054 0
M  V30 1772 C 183.606 -2.70306 5.0569 0
M  V30 1773 N 183.102 -3.13691 6.17713 0
M  V30 1774 N 184.895 -2.69923 4.9305 0
M  V30 1775 H 177.046 -0.0210029 2.1239 0
M  V30 1776 H 179.309 -0.0718733 0.945272 0
M  V30 1777 H 179.015 -0.85269 3.41207 0
M  V30 1778 H 178.889 -2.50103 2.82362 0
M  V30 1779 H 181.276 -2.29664 1.85306 0
M  V30 1780 H 181.357 -0.642492 2.476 0
M  V30 1781 H 181.001 -1.53918 4.84016 0
M  V30 1782 H 180.931 -3.19482 4.18615 0
M  V30 1783 H 183.422 -1.95874 3.23174 0
M  V30 1784 H 183.735 -3.45773 6.9113 0
M  V30 1785 H 182.08 -3.11585 6.21241 0
M  V30 1786 H 185.271 -2.35382 4.04614 0
M  V30 1787 H 185.444 -3.03758 5.72394 0
M  V30 1788 N 178.85 -1.27639 -0.924453 0
M  V30 1789 C 180.097 -1.14167 -1.67249 0
M  V30 1790 C 180.425 0.311863 -1.91984 0
M  V30 1791 O 179.68 1.24425 -1.51053 0
M  V30 1792 C 179.979 -1.87407 -3.04325 0
M  V30 1793 C 179.645 -3.37249 -2.99289 0
M  V30 1794 C 178.307 -3.7812 -2.97622 0
M  V30 1795 C 180.659 -4.32845 -2.90336 0
M  V30 1796 C 177.987 -5.12944 -2.8479 0
M  V30 1797 C 180.339 -5.6773 -2.79045 0
M  V30 1798 C 179.003 -6.07889 -2.7573 0
M  V30 1799 H 178.273 -0.417766 -0.612007 0
M  V30 1800 H 180.92 -1.58286 -1.07786 0
M  V30 1801 H 179.225 -1.35805 -3.67511 0
M  V30 1802 H 180.922 -1.74408 -3.61086 0
M  V30 1803 H 177.512 -3.04748 -3.01374 0
M  V30 1804 H 181.696 -4.02239 -2.90719 0
M  V30 1805 H 176.952 -5.432 -2.80612 0
M  V30 1806 H 181.126 -6.41472 -2.71083 0
M  V30 1807 H 178.753 -7.12314 -2.65544 0
M  V30 1808 N 180.328 1.1314 -1.09713 0
M  V30 1809 C 181.575 1.84484 -0.834987 0
M  V30 1810 C 181.903 1.83689 0.639418 0
M  V30 1811 O 181.158 1.2724 1.4869 0
M  V30 1812 C 181.457 3.32167 -1.3191 0
M  V30 1813 C 181.123 3.53139 -2.80363 0
M  V30 1814 C 179.785 3.58571 -3.20905 0
M  V30 1815 C 182.137 3.60866 -3.76065 0
M  V30 1816 C 179.465 3.69267 -4.55916 0
M  V30 1817 C 181.817 3.73089 -5.10869 0
M  V30 1818 C 180.481 3.76775 -5.50996 0
M  V30 1819 H 179.751 0.675073 -0.305544 0
M  V30 1820 H 182.398 1.33554 -1.37243 0
M  V30 1821 H 180.703 3.85469 -0.701517 0
M  V30 1822 H 182.4 3.85821 -1.09284 0
M  V30 1823 H 178.99 3.49569 -2.47991 0
M  V30 1824 H 183.174 3.55946 -3.45855 0
M  V30 1825 H 178.43 3.70388 -4.86438 0
M  V30 1826 H 182.604 3.78011 -5.84877 0
M  V30 1827 H 180.231 3.84815 -6.55608 0
M  V30 1828 N 181.806 0.884767 1.30421 0
M  V30 1829 C 183.083 0.423185 1.90967 0
M  V30 1830 C 183.463 -1.09605 1.80416 0
M  V30 1831 O 182.811 -1.93126 1.22125 0
M  V30 1832 C 183.021 0.921056 3.36627 0
M  V30 1833 C 184.369 0.955903 4.137 0
M  V30 1834 O 185.393 0.867706 3.4547 0
M  V30 1835 O 184.252 1.08614 5.35598 0
M  V30 1836 H 181.346 0.129369 0.816819 0
M  V30 1837 H 183.892 0.973653 1.3899 0
M  V30 1838 H 182.664 1.96489 3.3839 0
M  V30 1839 H 182.287 0.349741 3.96059 0
M  V30 1840 N 183.284 -1.43765 0.645699 0
M  V30 1841 C 184.509 -2.06767 0.161883 0
M  V30 1842 C 184.934 -1.48034 -1.16049 0
M  V30 1843 O 184.292 -0.587369 -1.71522 0
M  V30 1844 C 184.34 -3.60519 0.0762003 0
M  V30 1845 O 183.444 -4.00982 -0.963721 0
M  V30 1846 H 182.785 -0.657675 0.091429 0
M  V30 1847 H 185.315 -1.84397 0.886499 0
M  V30 1848 H 185.325 -4.07853 -0.109604 0
M  V30 1849 H 184 -4.02646 1.04157 0
M  V30 1850 H 182.577 -3.65253 -0.751312 0
M  V30 1851 N 184.763 -0.387143 -1.52771 0
M  V30 1852 C 185.726 0.436939 -2.24997 0
M  V30 1853 C 186.726 0.991991 -1.26555 0
M  V30 1854 O 187.916 0.874335 -1.50669 0
M  V30 1855 C 185.048 1.61281 -3.00335 0
M  V30 1856 H 186.241 -0.195365 -2.99263 0
M  V30 1857 H 183.794 -0.139218 -1.55679 0
M  V30 1858 H 184.529 2.2826 -2.30364 0
M  V30 1859 H 184.314 1.22154 -3.72587 0
M  V30 1860 H 185.804 2.19629 -3.5518 0
M  V30 1861 N 186.241 1.57166 -0.116904 0
M  V30 1862 C 187.151 2.18745 0.847812 0
M  V30 1863 C 188.167 1.163 1.29423 0
M  V30 1864 O 189.343 1.48761 1.35765 0
M  V30 1865 C 186.408 2.77307 2.0809 0
M  V30 1866 C 185.469 3.94781 1.68661 0
M  V30 1867 C 184.702 4.50541 2.86091 0
M  V30 1868 O 184.925 4.05202 4.01456 0
M  V30 1869 O 183.859 5.41256 2.63298 0
M  V30 1870 H 187.685 3.01632 0.353778 0
M  V30 1871 H 185.27 1.49005 0.108599 0
M  V30 1872 H 187.152 3.14647 2.80313 0
M  V30 1873 H 185.827 1.97452 2.56504 0
M  V30 1874 H 184.734 3.62214 0.935518 0
M  V30 1875 H 186.067 4.76065 1.24991 0
M  V30 1876 N 187.719 -0.156864 1.56817 0
M  V30 1877 C 188.965 -0.872416 1.83076 0
M  V30 1878 C 189.298 -1.81261 0.697001 0
M  V30 1879 O 188.573 -1.92171 -0.30008 0
M  V30 1880 C 188.856 -1.65551 3.19789 0
M  V30 1881 C 188.709 -0.737467 4.43713 0
M  V30 1882 C 190.028 -2.62012 3.53606 0
M  V30 1883 H 187.147 -0.315715 0.665953 0
M  V30 1884 H 189.789 -0.138004 1.89498 0
M  V30 1885 H 187.939 -2.28159 3.14445 0
M  V30 1886 H 189.611 -0.123143 4.61136 0
M  V30 1887 H 187.854 -0.0464067 4.33775 0
M  V30 1888 H 188.525 -1.32122 5.35955 0
M  V30 1889 H 191.001 -2.09525 3.59497 0
M  V30 1890 H 189.877 -3.13861 4.50314 0
M  V30 1891 H 190.138 -3.42902 2.79053 0
M  V30 1892 N 189.197 -1.51736 -0.425897 0
M  V30 1893 C 190.446 -1.64201 -1.17136 0
M  V30 1894 C 190.759 -0.369705 -1.92074 0
M  V30 1895 O 191.965 -0.373898 -2.68913 0
M  V30 1896 C 190.421 -2.90035 -2.13091 0
M  V30 1897 C 190.029 -4.24312 -1.43747 0
M  V30 1898 C 191.773 -3.1186 -2.87999 0
M  V30 1899 C 189.68 -5.41285 -2.38253 0
M  V30 1900 H 188.61 -0.611624 -0.440944 0
M  V30 1901 H 191.261 -1.78212 -0.437328 0
M  V30 1902 H 189.643 -2.69684 -2.89977 0
M  V30 1903 H 190.817 -4.55086 -0.723408 0
M  V30 1904 H 189.132 -4.08456 -0.809465 0
M  V30 1905 H 191.729 -3.96427 -3.58817 0
M  V30 1906 H 192.072 -2.25403 -3.49999 0
M  V30 1907 H 192.605 -3.32605 -2.18217 0
M  V30 1908 H 189.344 -6.30037 -1.80925 0
M  V30 1909 H 188.864 -5.14872 -3.0768 0
M  V30 1910 H 190.543 -5.73694 -2.99139 0
M  V30 1911 N 190.675 0.682077 -1.42076 0
M  V30 1912 C 191.585 1.82535 -1.47371 0
M  V30 1913 C 192.601 1.7017 -0.363079 0
M  V30 1914 O 193.777 1.91848 -0.612875 0
M  V30 1915 C 190.842 3.18624 -1.36674 0
M  V30 1916 C 189.903 3.42999 -2.58167 0
M  V30 1917 C 189.136 4.72595 -2.4797 0
M  V30 1918 O 189.359 5.50006 -1.5116 0
M  V30 1919 O 188.293 4.98054 -3.37974 0
M  V30 1920 H 192.119 1.81023 -2.43853 0
M  V30 1921 H 189.704 0.836887 -1.2376 0
M  V30 1922 H 191.586 3.99847 -1.33043 0
M  V30 1923 H 190.261 3.20789 -0.433138 0
M  V30 1924 H 189.168 2.61653 -2.67373 0
M  V30 1925 H 190.501 3.45659 -3.50401 0
M  V30 1926 N 192.153 1.28127 0.917671 0
M  V30 1927 C 193.083 1.14248 2.03641 0
M  V30 1928 C 194.064 0.0412748 1.7005 0
M  V30 1929 O 195.249 0.217566 1.92977 0
M  V30 1930 C 192.379 0.799431 3.37974 0
M  V30 1931 C 191.333 1.85497 3.85713 0
M  V30 1932 C 190.659 1.36565 5.16966 0
M  V30 1933 C 191.959 3.26085 4.08002 0
M  V30 1934 H 193.653 2.07835 2.15511 0
M  V30 1935 H 191.199 1.00064 1.03553 0
M  V30 1936 H 193.152 0.689114 4.15727 0
M  V30 1937 H 191.876 -0.172145 3.26146 0
M  V30 1938 H 190.535 1.95437 3.10161 0
M  V30 1939 H 190.183 0.383253 5.01538 0
M  V30 1940 H 189.883 2.07143 5.49878 0
M  V30 1941 H 191.407 1.26848 5.97279 0
M  V30 1942 H 192.821 3.19089 4.76293 0
M  V30 1943 H 191.218 3.94462 4.52238 0
M  V30 1944 H 192.288 3.70394 3.12948 0
M  V30 1945 N 193.631 -1.12557 1.10312 0
M  V30 1946 C 194.581 -2.16331 0.720076 0
M  V30 1947 C 195.565 -1.58616 -0.270115 0
M  V30 1948 O 196.757 -1.76823 -0.0790507 0
M  V30 1949 C 193.886 -3.42963 0.152113 0
M  V30 1950 C 192.972 -4.07663 1.16927 0
M  V30 1951 N 193.363 -4.47392 2.35953 0
M  V30 1952 C 191.661 -4.34425 1.0095 0
M  V30 1953 C 192.362 -4.97932 3.0073 0
M  V30 1954 N 191.338 -4.93358 2.28252 0
M  V30 1955 H 195.14 -2.44813 1.62616 0
M  V30 1956 H 192.654 -1.29449 0.980654 0
M  V30 1957 H 194.651 -4.16664 -0.14037 0
M  V30 1958 H 193.311 -3.1595 -0.748701 0
M  V30 1959 H 194.322 -4.39802 2.73486 0
M  V30 1960 H 190.999 -4.17177 0.164134 0
M  V30 1961 H 192.389 -5.38397 4.01969 0
M  V30 1962 N 195.109 -0.891671 -1.2995 0
M  V30 1963 C 196.059 -0.334811 -2.25528 0
M  V30 1964 C 197.043 0.540553 -1.51548 0
M  V30 1965 O 198.235 0.383882 -1.72787 0
M  V30 1966 C 195.364 0.44374 -3.4042 0
M  V30 1967 C 194.45 -0.44609 -4.21747 0
M  V30 1968 N 194.841 -1.54963 -4.81477 0
M  V30 1969 C 193.139 -0.242415 -4.45341 0
M  V30 1970 C 193.84 -2.10015 -5.42465 0
M  V30 1971 N 192.816 -1.39423 -5.25416 0
M  V30 1972 H 196.618 -1.17792 -2.69262 0
M  V30 1973 H 194.132 -0.741822 -1.44467 0
M  V30 1974 H 196.129 0.859362 -4.07947 0
M  V30 1975 H 194.789 1.28421 -2.98225 0
M  V30 1976 H 195.8 -1.93244 -4.80497 0
M  V30 1977 H 192.477 0.560342 -4.13723 0
M  V30 1978 H 193.867 -3.02724 -5.9984 0
M  V30 1979 N 196.587 1.43421 -0.653314 0
M  V30 1980 C 197.998 1.85065 -0.246537 0
M  V30 1981 C 198.349 1.54688 1.2069 0
M  V30 1982 O 197.474 0.995896 1.92122 0
M  V30 1983 C 198.069 3.35922 -0.440666 0
M  V30 1984 C 196.628 3.76297 -0.0882064 0
M  V30 1985 C 195.775 2.67147 -0.743484 0
M  V30 1986 H 198.726 1.33572 -0.856979 0
M  V30 1987 H 198.747 3.79204 0.313798 0
M  V30 1988 H 198.259 3.58 -1.49858 0
M  V30 1989 H 196.36 3.5983 0.96711 0
M  V30 1990 H 196.473 4.76338 -0.513738 0
M  V30 1991 H 194.837 2.54086 -0.176712 0
M  V30 1992 H 195.62 2.92053 -1.80443 0
M  V30 1993 N 198.065 0.39524 1.52563 0
M  V30 1994 C 199.015 -0.4541 2.23432 0
M  V30 1995 C 199.999 -1.02482 1.24042 0
M  V30 1996 O 201.191 -0.949938 1.49349 0
M  V30 1997 C 198.32 -1.57769 3.049 0
M  V30 1998 C 197.406 -1.01842 4.1169 0
M  V30 1999 N 197.797 -0.184613 5.05463 0
M  V30 2000 C 196.095 -1.29033 4.26927 0
M  V30 2001 C 196.796 0.125013 5.81566 0
M  V30 2002 N 195.772 -0.480498 5.41472 0
M  V30 2003 H 199.574 0.189413 2.93289 0
M  V30 2004 H 197.088 0.204877 1.61102 0
M  V30 2005 H 199.085 -2.19862 3.54212 0
M  V30 2006 H 197.745 -2.22397 2.36579 0
M  V30 2007 H 198.756 0.178602 5.17592 0
M  V30 2008 H 195.433 -1.93721 3.69836 0
M  V30 2009 H 196.823 0.800962 6.67109 0
M  V30 2010 N 199.544 -1.57102 0.125237 0
M  V30 2011 C 200.491 -2.15641 -0.822655 0
M  V30 2012 C 201.461 -1.08313 -1.25927 0
M  V30 2013 O 202.646 -1.36251 -1.33567 0
M  V30 2014 C 199.786 -2.76504 -2.06494 0
M  V30 2015 C 198.899 -3.98158 -1.67612 0
M  V30 2016 C 198.034 -4.47088 -2.86854 0
M  V30 2017 C 197.073 -5.6126 -2.44242 0
M  V30 2018 N 196.21 -6.04905 -3.56419 0
M  V30 2019 H 201.05 -2.96313 -0.316625 0
M  V30 2020 H 198.587 -1.46388 -0.144588 0
M  V30 2021 H 200.545 -3.09925 -2.79289 0
M  V30 2022 H 199.175 -1.98512 -2.54545 0
M  V30 2023 H 198.227 -3.70858 -0.846661 0
M  V30 2024 H 199.539 -4.80934 -1.32301 0
M  V30 2025 H 198.693 -4.82451 -3.67867 0
M  V30 2026 H 197.432 -3.63275 -3.25396 0
M  V30 2027 H 196.437 -5.25495 -1.61663 0
M  V30 2028 H 197.662 -6.46843 -2.0681 0
M  V30 2029 H 195.608 -5.24032 -3.94623 0
M  V30 2030 H 195.525 -6.82552 -3.25051 0
M  V30 2031 H 196.793 -6.44907 -4.37853 0
M  V30 2032 N 201.022 0.148545 -1.56898 0
M  V30 2033 C 201.985 1.16736 -1.97244 0
M  V30 2034 C 202.985 1.35947 -0.858777 0
M  V30 2035 O 204.175 1.32966 -1.12542 0
M  V30 2036 C 201.307 2.52798 -2.28705 0
M  V30 2037 H 202.5 0.821279 -2.88435 0
M  V30 2038 H 200.053 0.391831 -1.51309 0
M  V30 2039 H 200.788 2.92381 -1.403 0
M  V30 2040 H 200.573 2.40216 -3.09901 0
M  V30 2041 H 202.063 3.26179 -2.60762 0
M  V30 2042 N 202.5 1.5196 0.417844 0
M  V30 2043 C 203.777 1.56146 1.17803 0
M  V30 2044 C 204.157 0.337275 2.08388 0
M  V30 2045 O 203.505 -0.676447 2.18258 0
M  V30 2046 C 203.715 2.88566 1.96293 0
M  V30 2047 C 205.063 3.41244 2.52662 0
M  V30 2048 O 206.087 2.90247 2.06483 0
M  V30 2049 O 204.946 4.30273 3.36938 0
M  V30 2050 H 202.04 0.628598 0.537395 0
M  V30 2051 H 204.586 1.64283 0.425331 0
M  V30 2052 H 203.358 3.69116 1.2988 0
M  V30 2053 H 202.981 2.83681 2.78587 0
M  V30 2054 N 203.978 -0.674533 1.42435 0
M  V30 2055 C 204.941 -1.76986 1.45632 0
M  V30 2056 C 205.941 -1.5708 0.343871 0
M  V30 2057 O 207.131 -1.63367 0.604709 0
M  V30 2058 C 204.263 -3.15623 1.28822 0
M  V30 2059 H 205.456 -1.75539 2.43158 0
M  V30 2060 H 203.009 -0.884189 1.28887 0
M  V30 2061 H 203.744 -3.22696 0.322193 0
M  V30 2062 H 203.529 -3.31475 2.09444 0
M  V30 2063 H 205.019 -3.95537 1.33942 0
M  V30 2064 N 205.456 -1.28612 -0.910864 0
M  V30 2065 C 206.867 -1.14406 -1.47541 0
M  V30 2066 C 207.218 0.264901 -1.94403 0
M  V30 2067 O 206.343 1.15942 -1.82719 0
M  V30 2068 C 206.938 -2.07073 -2.68153 0
M  V30 2069 C 205.497 -1.96923 -3.20778 0
M  V30 2070 C 204.644 -1.98646 -1.93481 0
M  V30 2071 H 207.595 -1.41259 -0.723291 0
M  V30 2072 H 207.616 -1.63642 -3.43514 0
M  V30 2073 H 207.128 -3.09611 -2.34015 0
M  V30 2074 H 205.229 -0.97433 -3.59635 0
M  V30 2075 H 205.342 -2.84026 -3.85832 0
M  V30 2076 H 203.706 -1.43093 -2.10705 0
M  V30 2077 H 204.489 -3.02868 -1.61634 0
M  V30 2078 N 206.934 1.1197 -1.10907 0
M  V30 2079 C 208.159 1.87942 -0.877064 0
M  V30 2080 C 208.584 1.79341 0.567314 0
M  V30 2081 O 207.942 1.15184 1.40009 0
M  V30 2082 C 207.99 3.34926 -1.33629 0
M  V30 2083 O 207.094 4.09303 -0.504447 0
M  V30 2084 H 206.435 0.583785 -0.316371 0
M  V30 2085 H 208.965 1.4157 -1.47712 0
M  V30 2086 H 208.975 3.8577 -1.32837 0
M  V30 2087 H 207.65 3.40504 -2.3881 0
M  V30 2088 H 206.227 3.68393 -0.577993 0
M  V30 2089 N 208.412 0.89855 1.29475 0
M  V30 2090 C 209.66 0.522847 1.9522 0
M  V30 2091 C 209.981 -0.93371 1.71192 0
M  V30 2092 O 209.251 -1.65823 1.04305 0
M  V30 2093 H 207.831 0.190366 0.722336 0
M  V30 2094 H 210.493 1.14459 1.5775 0
M  V30 2095 H 209.589 0.704476 3.04045 0
M  V30 2096 N 209.89 -1.43072 0.660911 0
M  V30 2097 C 211.118 -2.06067 0.185422 0
M  V30 2098 C 211.533 -1.49582 -1.15198 0
M  V30 2099 O 210.89 -0.630134 -1.71276 0
M  V30 2100 C 210.941 -3.61371 0.0966523 0
M  V30 2101 O 210.662 -4.15758 1.38119 0
M  V30 2102 C 212.163 -4.41455 -0.403996 0
M  V30 2103 H 209.383 -0.664459 0.0934604 0
M  V30 2104 H 211.927 -1.83447 0.90373 0
M  V30 2105 H 210.082 -3.8315 -0.572259 0
M  V30 2106 H 210.496 -5.09499 1.24542 0
M  V30 2107 H 211.97 -5.50437 -0.415045 0
M  V30 2108 H 212.447 -4.15036 -1.43674 0
M  V30 2109 H 213.053 -4.24663 0.232691 0
M  V30 2110 N 211.368 -0.403325 -1.52352 0
M  V30 2111 C 212.331 0.413051 -2.25447 0
M  V30 2112 C 213.331 0.978513 -1.276 0
M  V30 2113 O 214.521 0.858305 -1.51587 0
M  V30 2114 C 211.653 1.58087 -3.02029 0
M  V30 2115 H 212.846 -0.227094 -2.99039 0
M  V30 2116 H 210.399 -0.155722 -1.55522 0
M  V30 2117 H 211.134 2.25804 -2.32772 0
M  V30 2118 H 210.919 1.18195 -3.73861 0
M  V30 2119 H 212.409 2.1585 -3.57489 0
M  V30 2120 N 212.846 1.57033 -0.133567 0
M  V30 2121 C 213.809 2.14897 0.796995 0
M  V30 2122 C 214.809 1.0874 1.18458 0
M  V30 2123 O 215.999 1.34446 1.1077 0
M  V30 2124 C 213.131 2.70112 2.07973 0
M  V30 2125 H 214.324 2.98457 0.293873 0
M  V30 2126 H 211.877 1.55871 0.115787 0
M  V30 2127 H 212.612 1.9018 2.62682 0
M  V30 2128 H 212.397 3.47764 1.81115 0
M  V30 2129 H 213.887 3.14738 2.74462 0
M  V30 2130 N 214.325 -0.140222 1.56975 0
M  V30 2131 C 215.741 -0.493088 1.51792 0
M  V30 2132 C 215.941 -1.83013 0.843116 0
M  V30 2133 O 214.997 -2.49041 0.416493 0
M  V30 2134 C 216.31 -0.497144 2.96562 0
M  V30 2135 C 217.858 -0.582186 3.07538 0
M  V30 2136 C 218.333 -0.616838 4.53827 0
M  V30 2137 N 219.824 -0.678873 4.58198 0
M  V30 2138 C 220.559 -0.726782 5.68775 0
M  V30 2139 N 220.055 -0.733623 6.88905 0
M  V30 2140 N 221.848 -0.768179 5.56826 0
M  V30 2141 H 213.999 0.736108 1.99237 0
M  V30 2142 H 216.262 0.269182 0.90898 0
M  V30 2143 H 215.968 0.417217 3.49217 0
M  V30 2144 H 215.842 -1.33263 3.52875 0
M  V30 2145 H 218.229 -1.48697 2.54899 0
M  V30 2146 H 218.31 0.280581 2.54257 0
M  V30 2147 H 217.954 0.283812 5.07106 0
M  V30 2148 H 217.884 -1.49619 5.04898 0
M  V30 2149 H 220.375 -0.68061 3.7172 0
M  V30 2150 H 220.688 -0.772215 7.68932 0
M  V30 2151 H 219.033 -0.701389 6.91452 0
M  V30 2152 H 222.224 -0.760051 4.61888 0
M  V30 2153 H 222.397 -0.80205 6.43017 0
M  V30 2154 N 215.803 -1.52179 -0.40978 0
M  V30 2155 C 217.031 -1.70054 -1.17853 0
M  V30 2156 C 217.446 -0.409735 -1.843 0
M  V30 2157 O 216.803 0.614183 -1.71855 0
M  V30 2158 C 216.854 -2.83568 -2.24213 0
M  V30 2159 O 216.575 -4.0765 -1.60478 0
M  V30 2160 C 218.076 -3.12947 -3.13973 0
M  V30 2161 H 215.296 -0.569917 -0.354169 0
M  V30 2162 H 217.84 -1.98734 -0.482198 0
M  V30 2163 H 215.995 -2.57409 -2.89516 0
M  V30 2164 H 216.409 -4.70899 -2.30986 0
M  V30 2165 H 217.883 -3.95889 -3.84677 0
M  V30 2166 H 218.36 -2.26472 -3.76307 0
M  V30 2167 H 218.966 -3.40868 -2.5434 0
M  V30 2168 N 217.281 0.66697 -1.42791 0
M  V30 2169 C 218.244 1.76211 -1.46568 0
M  V30 2170 C 219.244 1.56896 -0.352196 0
M  V30 2171 O 220.434 1.63044 -0.613364 0
M  V30 2172 C 217.566 3.14935 -1.30494 0
M  V30 2173 H 218.759 1.74247 -2.44086 0
M  V30 2174 H 216.312 0.877342 -1.29354 0
M  V30 2175 H 217.047 3.2252 -0.339301 0
M  V30 2176 H 216.832 3.30359 -2.11199 0
M  V30 2177 H 218.322 3.94821 -1.36038 0
M  V30 2178 N 218.759 1.29093 0.90403 0
M  V30 2179 C 219.706 1.13853 2.00764 0
M  V30 2180 C 220.676 0.0330084 1.66067 0
M  V30 2181 O 221.861 0.199733 1.89752 0
M  V30 2182 C 219.001 0.816537 3.35301 0
M  V30 2183 C 218.114 2.00206 3.82807 0
M  V30 2184 C 217.249 1.61983 5.059 0
M  V30 2185 C 216.288 2.77143 5.45764 0
M  V30 2186 N 215.425 2.39346 6.60044 0
M  V30 2187 H 220.265 2.08276 2.13132 0
M  V30 2188 H 217.802 1.03648 1.04381 0
M  V30 2189 H 219.76 0.610557 4.12708 0
M  V30 2190 H 218.39 -0.090779 3.22672 0
M  V30 2191 H 217.442 2.31988 3.01473 0
M  V30 2192 H 218.754 2.86512 4.08304 0
M  V30 2193 H 217.908 1.37649 5.90879 0
M  V30 2194 H 216.647 0.728202 4.82233 0
M  V30 2195 H 215.652 3.02165 4.59322 0
M  V30 2196 H 216.877 3.66964 5.71414 0
M  V30 2197 H 214.823 1.52665 6.37989 0
M  V30 2198 H 214.74 3.19185 6.85315 0
M  V30 2199 H 216.008 2.1832 7.48303 0
M  V30 2200 N 220.237 -1.11381 1.11499 0
M  V30 2201 C 221.167 -2.19509 0.796125 0
M  V30 2202 C 222.148 -1.68458 -0.235796 0
M  V30 2203 O 223.333 -1.93947 -0.0991344 0
M  V30 2204 C 220.463 -3.46475 0.239205 0
M  V30 2205 C 219.417 -4.10744 1.20307 0
M  V30 2206 C 218.743 -5.32293 0.50683 0
M  V30 2207 C 220.043 -4.55597 2.55399 0
M  V30 2208 H 221.737 -2.46439 1.70024 0
M  V30 2209 H 219.283 -1.18446 0.818935 0
M  V30 2210 H 221.236 -4.214 0.00392006 0
M  V30 2211 H 219.96 -3.19006 -0.700206 0
M  V30 2212 H 218.619 -3.37813 1.42399 0
M  V30 2213 H 218.267 -5.01095 -0.437408 0
M  V30 2214 H 217.967 -5.76243 1.1497 0
M  V30 2215 H 219.491 -6.09956 0.280351 0
M  V30 2216 H 220.905 -5.21841 2.37391 0
M  V30 2217 H 219.302 -5.10363 3.15673 0
M  V30 2218 H 220.372 -3.69013 3.14575 0
M  V30 2219 N 221.715 -0.905404 -1.28997 0
M  V30 2220 C 222.964 -0.530191 -1.94607 0
M  V30 2221 C 223.277 0.929185 -1.72121 0
M  V30 2222 O 224.483 1.41218 -2.31883 0
M  V30 2223 C 222.939 -0.897333 -3.48534 0
M  V30 2224 C 222.547 -2.37587 -3.79811 0
M  V30 2225 C 224.291 -0.592304 -4.20347 0
M  V30 2226 C 222.198 -2.68357 -5.27009 0
M  V30 2227 H 221.128 -0.194558 -0.728466 0
M  V30 2228 H 223.779 -1.10318 -1.46636 0
M  V30 2229 H 222.161 -0.253214 -3.9519 0
M  V30 2230 H 223.335 -3.06602 -3.43994 0
M  V30 2231 H 221.65 -2.6505 -3.2115 0
M  V30 2232 H 224.247 -0.798975 -5.28697 0
M  V30 2233 H 224.59 0.469474 -4.13644 0
M  V30 2234 H 225.123 -1.19452 -3.79442 0
M  V30 2235 H 221.862 -3.73355 -5.38782 0
M  V30 2236 H 221.382 -2.03971 -5.64053 0
M  V30 2237 H 223.061 -2.54922 -5.94663 0
M  V30 2238 N 223.193 1.4272 -0.668489 0
M  V30 2239 C 224.156 2.292 0.00448567 0
M  V30 2240 C 225.156 1.43001 0.735339 0
M  V30 2241 O 226.346 1.64461 0.57429 0
M  V30 2242 C 223.478 3.25375 1.01705 0
M  V30 2243 H 224.671 2.90199 -0.756608 0
M  V30 2244 H 222.224 1.50254 -0.430506 0
M  V30 2245 H 222.959 2.69301 1.80686 0
M  V30 2246 H 222.744 3.88944 0.496463 0
M  V30 2247 H 224.234 3.90245 1.48655 0
M  V30 2248 N 224.671 0.411399 1.52136 0
M  V30 2249 C 225.581 -0.419774 2.30814 0
M  V30 2250 C 226.597 -1.0515 1.38634 0
M  V30 2251 O 227.773 -1.05252 1.71709 0
M  V30 2252 C 224.838 -1.52019 3.11594 0
M  V30 2253 C 223.899 -0.91129 4.19516 0
M  V30 2254 C 223.132 -1.95927 4.96436 0
M  V30 2255 O 223.355 -3.17775 4.73683 0
M  V30 2256 O 222.289 -1.56423 5.81219 0
M  V30 2257 H 226.115 0.221805 3.02889 0
M  V30 2258 H 223.7 0.174547 1.48377 0
M  V30 2259 H 225.582 -2.15898 3.61892 0
M  V30 2260 H 224.257 -2.14633 2.42311 0
M  V30 2261 H 223.164 -0.235157 3.7336 0
M  V30 2262 H 224.497 -0.32904 4.91099 0
M  V30 2263 N 226.149 -1.5696 0.141893 0
M  V30 2264 C 227.112 -2.15316 -0.785587 0
M  V30 2265 C 228.112 -1.09366 -1.1788 0
M  V30 2266 O 229.302 -1.35031 -1.10056 0
M  V30 2267 C 226.434 -2.71211 -2.06537 0
M  V30 2268 H 227.627 -2.98608 -0.278041 0
M  V30 2269 H 225.18 -1.5593 -0.107519 0
M  V30 2270 H 225.915 -1.91571 -2.6167 0
M  V30 2271 H 225.7 -3.4872 -1.79268 0
M  V30 2272 H 227.19 -3.16189 -2.72789 0
M  V30 2273 N 227.627 0.131896 -1.57047 0
M  V30 2274 C 229.043 0.485031 -1.52051 0
M  V30 2275 C 229.243 1.82563 -0.85281 0
M  V30 2276 O 228.299 2.48817 -0.429694 0
M  V30 2277 C 229.612 0.481409 -2.96821 0
M  V30 2278 C 231.16 0.565868 -3.07842 0
M  V30 2279 C 231.635 0.592762 -4.54148 0
M  V30 2280 N 233.126 0.654564 -4.58552 0
M  V30 2281 C 233.861 0.696608 -5.69153 0
M  V30 2282 N 233.357 0.697078 -6.89284 0
M  V30 2283 N 235.15 0.738639 -5.57226 0
M  V30 2284 H 227.301 -0.746664 -1.98843 0
M  V30 2285 H 229.564 -0.273999 -0.90754 0
M  V30 2286 H 229.27 -0.435731 -3.4899 0
M  V30 2287 H 229.144 1.3139 -3.53577 0
M  V30 2288 H 231.531 1.47343 -2.55684 0
M  V30 2289 H 231.612 -0.29406 -2.54104 0
M  V30 2290 H 231.256 -0.310701 -5.06949 0
M  V30 2291 H 231.186 1.46939 -5.05684 0
M  V30 2292 H 233.677 0.660887 -3.72076 0
M  V30 2293 H 233.99 0.731426 -7.69331 0
M  V30 2294 H 232.335 0.66471 -6.91814 0
M  V30 2295 H 235.526 0.735545 -4.62285 0
M  V30 2296 H 235.699 0.767938 -6.43434 0
M  V30 2297 N 229.106 1.52395 0.401703 0
M  V30 2298 C 230.053 1.76268 1.48991 0
M  V30 2299 C 231.023 0.605386 1.54675 0
M  V30 2300 O 232.208 0.843742 1.7113 0
M  V30 2301 C 229.348 1.92592 2.86361 0
M  V30 2302 C 228.461 3.20259 2.89928 0
M  V30 2303 C 227.596 3.26972 4.18644 0
M  V30 2304 C 226.635 4.48812 4.16214 0
M  V30 2305 N 225.772 4.52877 5.36514 0
M  V30 2306 H 230.612 2.6914 1.27935 0
M  V30 2307 H 228.149 1.33355 0.620871 0
M  V30 2308 H 230.107 2.0004 3.66115 0
M  V30 2309 H 228.737 1.03093 3.05895 0
M  V30 2310 H 227.789 3.21945 2.02621 0
M  V30 2311 H 229.101 4.10056 2.83999 0
M  V30 2312 H 228.255 3.33533 5.06794 0
M  V30 2313 H 226.994 2.35126 4.27278 0
M  V30 2314 H 225.999 4.4239 3.26453 0
M  V30 2315 H 227.224 5.41961 4.09213 0
M  V30 2316 H 225.17 3.63917 5.45802 0
M  V30 2317 H 225.087 5.36529 5.32609 0
M  V30 2318 H 226.355 4.63676 6.26597 0
M  V30 2319 N 230.584 -0.659388 1.43143 0
M  V30 2320 C 231.832 -1.41654 1.44147 0
M  V30 2321 C 232.153 -1.94893 0.0645739 0
M  V30 2322 O 231.423 -1.74044 -0.899198 0
M  V30 2323 H 230.003 -0.525708 0.530697 0
M  V30 2324 H 232.665 -0.778097 1.78694 0
M  V30 2325 H 231.761 -2.26195 2.1504 0
M  V30 2326 N 232.062 -1.29571 -0.897171 0
M  V30 2327 C 232.992 -1.17473 -2.01798 0
M  V30 2328 C 233.973 -0.068323 -1.69963 0
M  V30 2329 O 235.158 -0.248239 -1.92607 0
M  V30 2330 C 232.288 -0.853099 -3.36659 0
M  V30 2331 C 231.242 -1.9161 -3.82713 0
M  V30 2332 C 230.568 -1.44773 -5.14728 0
M  V30 2333 C 231.868 -3.32535 -4.02763 0
M  V30 2334 H 233.562 -2.11237 -2.12177 0
M  V30 2335 H 231.108 -1.01699 -1.01948 0
M  V30 2336 H 233.061 -0.755165 -4.14578 0
M  V30 2337 H 231.785 0.120236 -3.26379 0
M  V30 2338 H 230.444 -2.00346 -3.07013 0
M  V30 2339 H 230.092 -0.462995 -5.00865 0
M  V30 2340 H 229.792 -2.15865 -5.46513 0
M  V30 2341 H 231.316 -1.36334 -5.95185 0
M  V30 2342 H 232.73 -3.26626 -4.71156 0
M  V30 2343 H 231.127 -4.01607 -4.45905 0
M  V30 2344 H 232.197 -3.75326 -3.07016 0
M  V30 2345 N 233.54 1.10788 -1.12088 0
M  V30 2346 C 234.951 1.64181 -0.88891 0
M  V30 2347 C 235.302 1.87508 0.577498 0
M  V30 2348 O 234.427 1.61434 1.44112 0
M  V30 2349 C 235.022 2.98257 -1.60712 0
M  V30 2350 C 233.581 3.4853 -1.42139 0
M  V30 2351 C 232.728 2.23208 -1.6454 0
M  V30 2352 H 235.679 0.943368 -1.27618 0
M  V30 2353 H 235.7 3.65552 -1.05604 0
M  V30 2354 H 235.212 2.81246 -2.67436 0
M  V30 2355 H 233.313 3.70692 -0.376552 0
M  V30 2356 H 233.426 4.26882 -2.17505 0
M  V30 2357 H 231.79 2.31169 -1.06925 0
M  V30 2358 H 232.573 2.08733 -2.72554 0
M  V30 2359 N 235.018 0.912232 1.28515 0
M  V30 2360 C 236.429 0.591352 1.77087 0
M  V30 2361 C 236.78 -0.8933 1.74684 0
M  V30 2362 O 235.905 -1.69876 1.34056 0
M  V30 2363 C 236.5 1.06668 3.2157 0
M  V30 2364 C 235.059 0.79675 3.67871 0
M  V30 2365 C 234.206 1.23427 2.48316 0
M  V30 2366 H 237.157 1.09365 1.15 0
M  V30 2367 H 237.178 0.407455 3.78312 0
M  V30 2368 H 236.69 2.14726 3.23287 0
M  V30 2369 H 234.791 -0.270679 3.71616 0
M  V30 2370 H 234.904 1.40343 4.58084 0
M  V30 2371 H 233.268 0.653036 2.46186 0
M  V30 2372 H 234.051 2.32316 2.52753 0
M  V30 2373 N 236.496 -1.42363 0.676048 0
M  V30 2374 C 237.444 -2.32596 -0.0131507 0
M  V30 2375 C 238.438 -1.49891 -0.789238 0
M  V30 2376 O 239.644 -1.65955 -0.697061 0
M  V30 2377 H 236.019 -0.751647 -0.0230481 0
M  V30 2378 H 237.99 -2.88421 0.765243 0
M  V30 2379 C 236.739 -3.34479 -0.949702 0
M  V30 2380 H 236.062 -3.98158 -0.361938 0
M  V30 2381 H 237.502 -4.00199 -1.4006 0
M  V30 2382 C 235.961 -2.66838 -2.05667 0
M  V30 2383 O 236.491 -2.50124 -3.14326 0
M  V30 2384 N 234.697 -2.25843 -1.82875 0
M  V30 2385 H 234.244 -2.39637 -0.945085 0
M  V30 2386 H 234.202 -1.80918 -2.5713 0
M  V30 2387 N 237.974 -0.419461 -1.51915 0
M  V30 2388 C 239.385 0.0477853 -1.86639 0
M  V30 2389 C 239.736 1.43531 -1.33766 0
M  V30 2390 O 238.861 2.05401 -0.68113 0
M  V30 2391 C 239.456 0.0934885 -3.38671 0
M  V30 2392 C 238.015 0.505097 -3.72996 0
M  V30 2393 C 237.162 -0.313792 -2.75519 0
M  V30 2394 H 240.113 -0.636088 -1.45395 0
M  V30 2395 H 240.134 0.906667 -3.6954 0
M  V30 2396 H 239.646 -0.916501 -3.77123 0
M  V30 2397 H 237.747 1.52135 -3.40126 0
M  V30 2398 H 237.86 0.242309 -4.78487 0
M  V30 2399 H 236.224 0.225363 -2.53701 0
M  V30 2400 H 237.007 -1.32232 -3.16812 0
M  V30 2401 N 239.452 1.56882 -0.150215 0
M  V30 2402 C 240.729 1.87844 0.545327 0
M  V30 2403 C 241.109 1.0567 1.82749 0
M  V30 2404 O 240.457 0.144442 2.28043 0
M  V30 2405 C 240.667 3.39526 0.80767 0
M  V30 2406 C 242.015 4.08814 1.14703 0
M  V30 2407 O 243.039 3.44723 0.896917 0
M  V30 2408 O 241.898 5.22004 1.61784 0
M  V30 2409 H 238.992 0.778677 0.278553 0
M  V30 2410 H 241.538 1.68666 -0.187068 0
M  V30 2411 H 240.31 3.91173 -0.0996096 0
M  V30 2412 H 239.933 3.64243 1.59413 0
M  V30 2413 N 240.93 -0.123565 1.57115 0
M  V30 2414 C 241.893 -1.13583 1.99076 0
M  V30 2415 C 242.893 -1.34564 0.880296 0
M  V30 2416 O 244.083 -1.31158 1.14644 0
M  V30 2417 C 241.215 -2.49128 2.32698 0
M  V30 2418 H 242.408 -0.775287 2.89706 0
M  V30 2419 H 239.961 -0.36771 1.51913 0
M  V30 2420 H 240.696 -2.90111 1.44934 0
M  V30 2421 H 240.481 -2.35255 3.13684 0
M  V30 2422 H 241.971 -3.2199 2.65918 0
M  V30 2423 N 242.408 -1.52605 -0.393616 0
M  V30 2424 C 243.636 -1.71294 -1.16043 0
M  V30 2425 C 244.051 -0.429259 -1.83855 0
M  V30 2426 O 243.408 0.595921 -1.72496 0
M  V30 2427 C 243.459 -2.8593 -2.21193 0
M  V30 2428 O 243.18 -4.09329 -1.56146 0
M  V30 2429 C 244.681 -3.16259 -3.10636 0
M  V30 2430 H 241.901 -0.573641 -0.348104 0
M  V30 2431 H 244.445 -1.99234 -0.461092 0
M  V30 2432 H 242.6 -2.60465 -2.86769 0
M  V30 2433 H 243.014 -4.73323 -2.25978 0
M  V30 2434 H 244.488 -3.99946 -3.80456 0
M  V30 2435 H 244.965 -2.3045 -3.73884 0
M  V30 2436 H 245.571 -3.43547 -2.50711 0
M  V30 2437 N 243.887 0.651787 -1.4349 0
M  V30 2438 C 245.112 1.44434 -1.48841 0
M  V30 2439 C 245.537 1.8779 -0.107955 0
M  V30 2440 O 244.895 1.57464 0.898602 0
M  V30 2441 C 244.943 2.65458 -2.44059 0
M  V30 2442 O 244.047 3.64566 -1.92784 0
M  V30 2443 H 243.388 0.433005 -0.503391 0
M  V30 2444 H 245.918 0.797451 -1.88419 0
M  V30 2445 H 245.928 3.13255 -2.6141 0
M  V30 2446 H 244.603 2.33244 -3.4434 0
M  V30 2447 H 243.18 3.23716 -1.851 0
M  V30 2448 N 245.365 1.30045 0.890287 0
M  V30 2449 C 246.593 1.21472 1.67487 0
M  V30 2450 C 247.008 -0.223241 1.87476 0
M  V30 2451 O 246.365 -1.14828 1.41847 0
M  V30 2452 C 246.416 1.93394 3.05419 0
M  V30 2453 O 246.137 3.31576 2.86337 0
M  V30 2454 C 247.638 1.91414 3.99844 0
M  V30 2455 H 244.858 0.420604 0.522813 0
M  V30 2456 H 247.402 1.7158 1.11268 0
M  V30 2457 H 245.557 1.47099 3.58386 0
M  V30 2458 H 245.971 3.67929 3.73802 0
M  V30 2459 H 247.445 2.46285 4.94012 0
M  V30 2460 H 247.922 0.891833 4.3005 0
M  V30 2461 H 248.528 2.37496 3.52811 0
M  V30 2462 N 246.843 -1.10192 1.12674 0
M  V30 2463 C 248.068 -1.86523 0.906853 0
M  V30 2464 C 248.493 -1.80221 -0.538711 0
M  V30 2465 O 247.851 -1.17396 -1.38158 0
M  V30 2466 C 247.899 -3.32758 1.3894 0
M  V30 2467 O 247.003 -4.08449 0.5695 0
M  V30 2468 H 246.344 -0.578678 0.325619 0
M  V30 2469 H 248.874 -1.39203 1.49946 0
M  V30 2470 H 248.884 -3.83608 1.38958 0
M  V30 2471 H 247.559 -3.36661 2.44197 0
M  V30 2472 H 246.136 -3.67427 0.636528 0
M  V30 2473 N 248.321 -0.919034 -1.28029 0
M  V30 2474 C 249.251 -0.428581 -2.29533 0
M  V30 2475 C 250.232 0.50659 -1.62381 0
M  V30 2476 O 251.417 0.413195 -1.89753 0
M  V30 2477 C 248.547 0.327388 -3.45753 0
M  V30 2478 C 247.501 -0.519137 -4.2484 0
M  V30 2479 C 246.827 0.365486 -5.33449 0
M  V30 2480 C 248.127 -1.77914 -4.91064 0
M  V30 2481 H 249.821 -1.27687 -2.70807 0
M  V30 2482 H 247.367 -0.615428 -1.30186 0
M  V30 2483 H 249.32 0.681378 -4.15855 0
M  V30 2484 H 248.044 1.20963 -3.03374 0
M  V30 2485 H 246.703 -0.855717 -3.56473 0
M  V30 2486 H 246.351 1.24642 -4.87312 0
M  V30 2487 H 246.051 -0.197356 -5.87268 0
M  V30 2488 H 247.575 0.715241 -6.06396 0
M  V30 2489 H 248.989 -1.49374 -5.53498 0
M  V30 2490 H 247.386 -2.2848 -5.54903 0
M  V30 2491 H 248.456 -2.50382 -4.15255 0
M  V30 2492 N 249.799 1.42003 -0.683588 0
M  V30 2493 C 251.21 1.84501 -0.285736 0
M  V30 2494 C 251.561 1.57213 1.17382 0
M  V30 2495 O 250.686 1.03642 1.89966 0
M  V30 2496 C 251.281 3.34912 -0.511821 0
M  V30 2497 C 249.84 3.76025 -0.168005 0
M  V30 2498 C 248.987 2.6551 -0.799983 0
M  V30 2499 H 251.938 1.31724 -0.885119 0
M  V30 2500 H 251.959 3.79784 0.233292 0
M  V30 2501 H 251.471 3.54741 -1.57418 0
M  V30 2502 H 249.572 3.61801 0.890567 0
M  V30 2503 H 249.685 4.75141 -0.614661 0
M  V30 2504 H 248.049 2.53654 -0.230568 0
M  V30 2505 H 248.832 2.8816 -1.86597 0
M  V30 2506 N 251.277 0.427512 1.51691 0
M  V30 2507 C 252.525 -0.141948 2.01601 0
M  V30 2508 C 252.846 -1.44067 1.31414 0
M  V30 2509 O 252.116 -1.90763 0.445658 0
M  V30 2510 H 250.696 -0.0554468 0.744939 0
M  V30 2511 H 253.358 0.567968 1.86441 0
M  V30 2512 H 252.454 -0.324913 3.10404 0
M  V30 2513 N 252.755 -1.56801 0.158532 0
M  V30 2514 C 253.718 -2.16138 -0.762705 0
M  V30 2515 C 254.718 -1.1061 -1.16713 0
M  V30 2516 O 255.908 -1.36191 -1.08617 0
M  V30 2517 C 253.04 -2.73386 -2.03649 0
M  V30 2518 H 254.233 -2.98886 -0.246354 0
M  V30 2519 H 251.786 -1.56035 -0.0909744 0
M  V30 2520 H 252.521 -1.94335 -2.59623 0
M  V30 2521 H 252.306 -3.50601 -1.75559 0
M  V30 2522 H 253.796 -3.19065 -2.6942 0
M  V30 2523 N 254.233 0.115231 -1.57178 0
M  V30 2524 C 255.649 0.468877 -1.52557 0
M  V30 2525 C 255.849 1.81649 -0.872125 0
M  V30 2526 O 254.905 2.48347 -0.45606 0
M  V30 2527 C 256.218 0.4499 -2.97315 0
M  V30 2528 C 257.766 0.533185 -3.08425 0
M  V30 2529 C 258.241 0.54456 -4.54751 0
M  V30 2530 N 259.732 0.605892 -4.5922 0
M  V30 2531 C 260.467 0.636203 -5.6986 0
M  V30 2532 N 259.963 0.623931 -6.89985 0
M  V30 2533 N 261.756 0.679496 -5.57978 0
M  V30 2534 H 253.907 -0.767712 -1.9804 0
M  V30 2535 H 256.17 -0.283609 -0.904583 0
M  V30 2536 H 255.876 -0.472721 -3.48509 0
M  V30 2537 H 255.75 1.27632 -3.5495 0
M  V30 2538 H 258.137 1.44623 -2.57232 0
M  V30 2539 H 258.218 -0.320995 -2.53778 0
M  V30 2540 H 257.862 -0.364452 -5.06591 0
M  V30 2541 H 257.792 1.41568 -5.07214 0
M  V30 2542 H 260.283 0.621386 -3.72756 0
M  V30 2543 H 260.596 0.649787 -7.70063 0
M  V30 2544 H 258.941 0.591296 -6.9248 0
M  V30 2545 H 262.132 0.686472 -4.63039 0
M  V30 2546 H 262.305 0.69965 -6.44212 0
M  V30 2547 N 255.711 1.52812 0.385517 0
M  V30 2548 C 256.959 1.67694 1.12797 0
M  V30 2549 C 257.28 0.421115 1.90399 0
M  V30 2550 O 256.55 -0.564551 1.87589 0
M  V30 2551 H 255.13 0.618155 0.419396 0
M  V30 2552 H 257.792 1.89938 0.436972 0
M  V30 2553 H 256.888 2.52896 1.82894 0
M  V30 2554 N 257.189 -0.644168 1.43834 0
M  V30 2555 C 258.152 -1.73857 1.49353 0
M  V30 2556 C 259.152 -1.56315 0.377112 0
M  V30 2557 O 260.342 -1.62048 0.639226 0
M  V30 2558 C 257.474 -3.12819 1.35488 0
M  V30 2559 H 258.667 -1.70342 2.46827 0
M  V30 2560 H 256.22 -0.856652 1.30733 0
M  V30 2561 H 256.955 -3.2194 0.390569 0
M  V30 2562 H 256.74 -3.26958 2.16428 0
M  V30 2563 H 258.23 -3.92606 1.42302 0
M  V30 2564 N 258.668 -1.30515 -0.883378 0
M  V30 2565 C 259.945 -1.10086 -1.6168 0
M  V30 2566 C 260.325 0.349269 -2.08191 0
M  V30 2567 O 259.673 1.34105 -1.85008 0
M  V30 2568 C 259.883 -2.10315 -2.78511 0
M  V30 2569 C 261.231 -2.42119 -3.48803 0
M  V30 2570 O 262.255 -2.08638 -2.88702 0
M  V30 2571 O 261.114 -2.99396 -4.57192 0
M  V30 2572 H 258.208 -0.422907 -0.710689 0
M  V30 2573 H 260.754 -1.41947 -0.930015 0
M  V30 2574 H 259.526 -3.07917 -2.41459 0
M  V30 2575 H 259.149 -1.79282 -3.54886 0
M  V30 2576 N 260.146 1.09593 -1.13257 0
M  V30 2577 C 261.392 1.82003 -0.89458 0
M  V30 2578 C 261.725 1.85402 0.577906 0
M  V30 2579 O 261 1.32099 1.42759 0
M  V30 2580 C 261.283 3.28237 -1.48096 0
M  V30 2581 C 261.136 3.3312 -3.02244 0
M  V30 2582 C 262.455 4.24871 -1.14774 0
M  V30 2583 H 259.574 0.66077 -0.326424 0
M  V30 2584 H 262.216 1.28389 -1.40058 0
M  V30 2585 H 260.366 3.74024 -1.05062 0
M  V30 2586 H 262.038 2.95748 -3.54021 0
M  V30 2587 H 260.281 2.72756 -3.37323 0
M  V30 2588 H 260.952 4.3613 -3.38371 0
M  V30 2589 H 263.428 3.87361 -1.51957 0
M  V30 2590 H 262.304 5.25532 -1.58452 0
M  V30 2591 H 262.565 4.42058 -0.0611849 0
M  V30 2592 N 261.624 0.925811 1.2754 0
M  V30 2593 C 262.901 0.483726 1.89524 0
M  V30 2594 C 263.281 -1.03809 1.83812 0
M  V30 2595 O 262.629 -1.89143 1.28207 0
M  V30 2596 C 262.839 1.02769 3.33526 0
M  V30 2597 C 264.187 1.08703 4.10449 0
M  V30 2598 O 265.211 0.977175 3.42534 0
M  V30 2599 O 264.07 1.25599 5.31871 0
M  V30 2600 H 261.164 0.15529 0.812289 0
M  V30 2601 H 263.71 1.01738 1.35822 0
M  V30 2602 H 262.482 2.07155 3.31967 0
M  V30 2603 H 262.105 0.475567 3.94746 0
M  V30 2604 N 263.102 -1.41638 0.69111 0
M  V30 2605 C 264.35 -2.00902 0.219758 0
M  V30 2606 C 264.671 -1.54994 -1.18329 0
M  V30 2607 O 263.941 -0.778628 -1.79762 0
M  V30 2608 H 262.521 -0.74289 0.0782558 0
M  V30 2609 H 265.183 -1.73327 0.891271 0
M  V30 2610 H 264.279 -3.11224 0.233708 0
M  V30 2611 N 264.58 -0.43555 -1.51462 0
M  V30 2612 C 265.829 0.133007 -2.01261 0
M  V30 2613 C 266.142 1.43942 -1.32439 0
M  V30 2614 O 267.348 2.09081 -1.73198 0
M  V30 2615 C 265.804 0.287581 -3.58749 0
M  V30 2616 C 265.412 -1.00829 -4.36506 0
M  V30 2617 C 267.156 0.810004 -4.167 0
M  V30 2618 C 265.063 -0.819454 -5.85695 0
M  V30 2619 H 263.993 0.0534822 -0.752101 0
M  V30 2620 H 266.644 -0.565038 -1.74584 0
M  V30 2621 H 265.026 1.04859 -3.81865 0
M  V30 2622 H 266.2 -1.77749 -4.25138 0
M  V30 2623 H 264.515 -1.45911 -3.89999 0
M  V30 2624 H 267.112 0.967743 -5.2587 0
M  V30 2625 H 267.455 1.79196 -3.75758 0
M  V30 2626 H 267.988 0.107357 -3.97655 0
M  V30 2627 H 264.727 -1.77374 -6.31046 0
M  V30 2628 H 264.247 -0.0900208 -5.99732 0
M  V30 2629 H 265.926 -0.471949 -6.45276 0
M  V30 2630 N 266.058 1.56714 -0.166846 0
M  V30 2631 C 267.469 1.83378 0.350646 0
M  V30 2632 C 267.82 1.08646 1.63372 0
M  V30 2633 O 266.945 0.338058 2.13743 0
M  V30 2634 C 267.54 3.32643 0.642963 0
M  V30 2635 C 266.099 3.59818 1.10491 0
M  V30 2636 C 265.246 2.76954 0.138411 0
M  V30 2637 H 268.197 1.53803 -0.391193 0
M  V30 2638 H 268.218 3.49878 1.49551 0
M  V30 2639 H 267.73 3.87007 -0.291055 0
M  V30 2640 H 265.831 3.1086 2.05418 0
M  V30 2641 H 265.944 4.68178 1.01716 0
M  V30 2642 H 264.308 2.4666 0.634911 0
M  V30 2643 H 265.091 3.34097 -0.789549 0
M  V30 2644 N 267.536 -0.106894 1.57237 0
M  V30 2645 C 268.782 -0.81373 1.85759 0
M  V30 2646 C 269.115 -1.78952 0.754315 0
M  V30 2647 O 268.39 -1.93029 -0.23879 0
M  V30 2648 C 268.673 -1.55293 3.24894 0
M  V30 2649 C 268.526 -0.595929 4.45835 0
M  V30 2650 C 269.845 -2.5063 3.61763 0
M  V30 2651 H 266.964 -0.294369 0.67566 0
M  V30 2652 H 269.606 -0.0776472 1.89841 0
M  V30 2653 H 267.756 -2.1804 3.21544 0
M  V30 2654 H 269.428 0.0236262 4.61294 0
M  V30 2655 H 267.671 0.0916191 4.33703 0
M  V30 2656 H 268.342 -1.15004 5.39887 0
M  V30 2657 H 270.818 -1.97982 3.65981 0
M  V30 2658 H 269.694 -2.99376 4.60071 0
M  V30 2659 H 269.955 -3.3385 2.89821 0
M  V30 2660 N 269.014 -1.53014 -0.377408 0
M  V30 2661 C 269.964 -1.74996 -1.46152 0
M  V30 2662 C 270.948 -0.604236 -1.49123 0
M  V30 2663 O 272.14 -0.862489 -1.54564 0
M  V30 2664 C 269.269 -1.93267 -2.8373 0
M  V30 2665 C 268.355 -3.13807 -2.85283 0
M  V30 2666 N 268.746 -4.35941 -2.56493 0
M  V30 2667 C 267.044 -3.14288 -3.16448 0
M  V30 2668 C 267.745 -5.17615 -2.65424 0
M  V30 2669 N 266.721 -4.53559 -2.99641 0
M  V30 2670 H 270.523 -2.67044 -1.22738 0
M  V30 2671 H 268.037 -1.51479 -0.585479 0
M  V30 2672 H 270.034 -2.0714 -3.61799 0
M  V30 2673 H 268.694 -1.0244 -3.08117 0
M  V30 2674 H 269.705 -4.63876 -2.30302 0
M  V30 2675 H 266.382 -2.33312 -3.46225 0
M  V30 2676 H 267.772 -6.25006 -2.46612 0
M  V30 2677 N 270.492 0.636531 -1.44174 0
M  V30 2678 C 271.455 1.73063 -1.50273 0
M  V30 2679 C 272.455 1.56113 -0.385397 0
M  V30 2680 O 273.645 1.61707 -0.64781 0
M  V30 2681 C 270.777 3.12096 -1.37145 0
M  V30 2682 H 271.97 1.69031 -2.47727 0
M  V30 2683 H 269.523 0.849706 -1.31186 0
M  V30 2684 H 270.258 3.21728 -0.407636 0
M  V30 2685 H 270.043 3.25805 -2.18159 0
M  V30 2686 H 271.533 3.91846 -1.44382 0
M  V30 2687 N 271.97 1.30982 0.876444 0
M  V30 2688 C 273.216 1.20474 1.63138 0
M  V30 2689 C 273.549 -0.238096 1.92735 0
M  V30 2690 O 272.824 -1.1692 1.55435 0
M  V30 2691 C 273.107 2.04244 2.96574 0
M  V30 2692 C 272.96 3.56793 2.73896 0
M  V30 2693 C 274.279 1.88684 3.97601 0
M  V30 2694 H 271.398 0.439001 0.591985 0
M  V30 2695 H 274.04 1.60704 1.01361 0
M  V30 2696 H 272.19 1.70063 3.493 0
M  V30 2697 H 273.862 4.01077 2.27892 0
M  V30 2698 H 272.105 3.80548 2.08245 0
M  V30 2699 H 272.776 4.10706 3.68815 0
M  V30 2700 H 275.252 2.18584 3.54062 0
M  V30 2701 H 274.128 2.4961 4.88862 0
M  V30 2702 H 274.389 0.848343 4.33884 0
M  V30 2703 N 273.449 -1.08991 1.13837 0
M  V30 2704 C 274.865 -1.33312 0.877506 0
M  V30 2705 C 275.065 -1.95587 -0.48456 0
M  V30 2706 O 274.121 -2.20509 -1.23013 0
M  V30 2707 C 275.434 -2.24045 2.0056 0
M  V30 2708 C 276.982 -2.37542 2.03821 0
M  V30 2709 C 277.457 -3.31614 3.15905 0
M  V30 2710 N 278.948 -3.39189 3.15445 0
M  V30 2711 C 279.683 -4.11992 3.98811 0
M  V30 2712 N 279.179 -4.87553 4.92203 0
M  V30 2713 N 280.972 -4.07762 3.86894 0
M  V30 2714 H 273.123 -0.669456 2.01574 0
M  V30 2715 H 275.386 -0.357482 0.878015 0
M  V30 2716 H 275.092 -1.85521 2.98789 0
M  V30 2717 H 274.966 -3.24466 1.92359 0
M  V30 2718 H 277.353 -2.75327 1.06202 0
M  V30 2719 H 277.434 -1.36884 2.16093 0
M  V30 2720 H 277.078 -2.94551 4.13766 0
M  V30 2721 H 277.008 -4.32186 3.0087 0
M  V30 2722 H 279.499 -2.85314 2.47799 0
M  V30 2723 H 279.812 -5.40549 5.52292 0
M  V30 2724 H 278.157 -4.86627 4.96205 0
M  V30 2725 H 281.348 -3.47833 3.13257 0
M  V30 2726 H 281.521 -4.64238 4.52092 0
M  V30 2727 N 274.927 -0.932562 -1.27047 0
M  V30 2728 C 275.857 -0.452902 -2.29066 0
M  V30 2729 C 276.838 0.489338 -1.62909 0
M  V30 2730 O 278.023 0.393046 -1.90181 0
M  V30 2731 C 275.153 0.290698 -3.46081 0
M  V30 2732 C 274.107 -0.564168 -4.24265 0
M  V30 2733 C 273.433 0.308886 -5.33807 0
M  V30 2734 C 274.733 -1.83112 -4.89149 0
M  V30 2735 H 276.427 -1.30552 -2.69437 0
M  V30 2736 H 273.973 -0.629201 -1.29526 0
M  V30 2737 H 275.926 0.637233 -4.16554 0
M  V30 2738 H 274.65 1.17738 -3.0464 0
M  V30 2739 H 273.309 -0.893477 -3.55545 0
M  V30 2740 H 272.957 1.19467 -4.88607 0
M  V30 2741 H 272.657 -0.259633 -5.87026 0
M  V30 2742 H 274.181 0.650884 -6.07121 0
M  V30 2743 H 275.595 -1.55236 -5.51883 0
M  V30 2744 H 273.992 -2.34353 -5.52448 0
M  V30 2745 H 275.062 -2.54772 -4.12576 0
M  V30 2746 N 276.405 1.4127 -0.698611 0
M  V30 2747 C 277.368 2.29158 -0.044132 0
M  V30 2748 C 278.368 1.44529 0.704841 0
M  V30 2749 O 279.558 1.65643 0.539276 0
M  V30 2750 C 276.69 3.27459 0.947809 0
M  V30 2751 H 277.883 2.88529 -0.817994 0
M  V30 2752 H 275.436 1.49307 -0.46228 0
M  V30 2753 H 276.171 2.73073 1.74933 0
M  V30 2754 H 275.956 3.8991 0.41385 0
M  V30 2755 H 277.446 3.93311 1.40344 0
M  V30 2756 N 277.883 0.443576 1.51229 0
M  V30 2757 C 279.131 -0.120557 2.0174 0
M  V30 2758 C 279.452 -1.42665 1.32935 0
M  V30 2759 O 278.722 -1.9028 0.465866 0
M  V30 2760 H 277.302 -0.0475426 0.745486 0
M  V30 2761 H 279.964 0.587711 1.85828 0
M  V30 2762 H 279.06 -0.291972 3.10731 0
M  V30 2763 N 279.361 -1.56624 0.175154 0
M  V30 2764 C 280.291 -2.21155 -0.749195 0
M  V30 2765 C 281.272 -1.16836 -1.23626 0
M  V30 2766 O 282.457 -1.45277 -1.28873 0
M  V30 2767 C 279.587 -2.8553 -1.97711 0
M  V30 2768 C 278.541 -3.95921 -1.62575 0
M  V30 2769 C 277.867 -4.47365 -2.92864 0
M  V30 2770 C 279.167 -5.15323 -0.850838 0
M  V30 2771 H 280.861 -2.98653 -0.211295 0
M  V30 2772 H 278.407 -1.43651 -0.100188 0
M  V30 2773 H 280.36 -3.2935 -2.62881 0
M  V30 2774 H 279.084 -2.05406 -2.53921 0
M  V30 2775 H 277.743 -3.52762 -0.997719 0
M  V30 2776 H 277.391 -3.64027 -3.47122 0
M  V30 2777 H 277.091 -5.21839 -2.70106 0
M  V30 2778 H 278.615 -4.93873 -3.59056 0
M  V30 2779 H 280.029 -5.55812 -1.40521 0
M  V30 2780 H 278.426 -5.95739 -0.722154 0
M  V30 2781 H 279.496 -4.84661 0.152082 0
M  V30 2782 N 280.839 0.0985539 -1.57292 0
M  V30 2783 C 282.085 0.803867 -1.86188 0
M  V30 2784 C 282.418 1.78549 -0.763794 0
M  V30 2785 O 281.693 1.93153 0.22855 0
M  V30 2786 C 281.976 1.53568 -3.25713 0
M  V30 2787 C 281.829 0.572277 -4.46145 0
M  V30 2788 C 283.148 2.48708 -3.63087 0
M  V30 2789 H 280.267 0.290781 -0.677211 0
M  V30 2790 H 282.909 0.0675783 -1.8988 0
M  V30 2791 H 281.059 2.16332 -3.22696 0
M  V30 2792 H 282.731 -0.0480894 -4.61275 0
M  V30 2793 H 280.974 -0.114618 -4.33649 0
M  V30 2794 H 281.645 1.12139 -5.40489 0
M  V30 2795 H 284.121 1.96039 -3.67026 0
M  V30 2796 H 282.997 2.96932 -4.61652 0
M  V30 2797 H 283.258 3.32309 -2.91588 0
M  V30 2798 N 282.317 1.53212 0.369288 0
M  V30 2799 C 283.28 1.7872 1.43498 0
M  V30 2800 C 284.28 0.657554 1.46741 0
M  V30 2801 O 285.47 0.925736 1.47566 0
M  V30 2802 C 282.602 1.90591 2.82645 0
M  V30 2803 H 283.795 2.73894 1.22156 0
M  V30 2804 H 281.348 1.44233 0.602203 0
M  V30 2805 H 282.083 0.974709 3.09306 0
M  V30 2806 H 281.868 2.72751 2.8169 0
M  V30 2807 H 283.358 2.11931 3.59826 0
M  V30 2808 N 283.795 -0.628877 1.44509 0
M  V30 2809 C 284.745 -1.7345 1.47983 0
M  V30 2810 C 285.729 -1.5715 0.345373 0
M  V30 2811 O 286.921 -1.66848 0.590829 0
M  V30 2812 C 284.05 -3.12143 1.42904 0
M  V30 2813 C 283.136 -3.33906 2.61472 0
M  V30 2814 N 283.527 -3.26024 3.86706 0
M  V30 2815 C 281.825 -3.64709 2.56716 0
M  V30 2816 C 282.526 -3.48536 4.65722 0
M  V30 2817 N 281.502 -3.71517 3.96832 0
M  V30 2818 H 285.304 -1.65818 2.42655 0
M  V30 2819 H 282.818 -0.831419 1.39503 0
M  V30 2820 H 284.815 -3.91433 1.43476 0
M  V30 2821 H 283.475 -3.2094 0.492717 0
M  V30 2822 H 284.486 -3.04893 4.18641 0
M  V30 2823 H 281.163 -3.80473 1.71891 0
M  V30 2824 H 282.553 -3.48016 5.74747 0
M  V30 2825 N 285.273 -1.31445 -0.869486 0
M  V30 2826 C 286.205 -1.14955 -1.98287 0
M  V30 2827 C 287.218 -0.0885037 -1.62559 0
M  V30 2828 O 288.407 -0.336044 -1.75308 0
M  V30 2829 C 285.507 -0.734255 -3.3085 0
M  V30 2830 C 284.68 -1.88042 -3.94917 0
M  V30 2831 C 283.739 -1.4511 -5.05796 0
M  V30 2832 O 282.765 -2.16082 -5.2659 0
M  V30 2833 N 283.967 -0.338763 -5.79511 0
M  V30 2834 H 286.732 -2.10856 -2.12979 0
M  V30 2835 H 284.293 -1.23786 -1.04349 0
M  V30 2836 H 286.285 -0.42975 -4.02412 0
M  V30 2837 H 284.855 0.133158 -3.12316 0
M  V30 2838 H 284.075 -2.35222 -3.1633 0
M  V30 2839 H 285.363 -2.6481 -4.34457 0
M  V30 2840 H 284.761 0.252274 -5.65137 0
M  V30 2841 H 283.318 -0.0937925 -6.51733 0
M  V30 2842 N 286.751 1.08385 -1.14413 0
M  V30 2843 C 287.661 2.18856 -0.844951 0
M  V30 2844 C 288.677 1.73121 0.174668 0
M  V30 2845 O 289.853 2.014 0.00312857 0
M  V30 2846 C 286.918 3.45155 -0.32696 0
M  V30 2847 C 285.979 4.05513 -1.40916 0
M  V30 2848 C 285.212 5.25784 -0.915793 0
M  V30 2849 O 285.435 5.69884 0.242651 0
M  V30 2850 O 284.369 5.77545 -1.69487 0
M  V30 2851 H 288.195 2.46919 -1.76818 0
M  V30 2852 H 285.78 1.17524 -0.922411 0
M  V30 2853 H 287.662 4.21377 -0.0440211 0
M  V30 2854 H 286.337 3.18668 0.568539 0
M  V30 2855 H 285.244 3.30879 -1.74556 0
M  V30 2856 H 286.577 4.3625 -2.27919 0
M  V30 2857 N 288.23 0.939286 1.26551 0
M  V30 2858 C 289.476 0.586715 1.94128 0
M  V30 2859 C 289.809 -0.8717 1.73537 0
M  V30 2860 O 289.084 -1.62339 1.07127 0
M  V30 2861 C 289.367 0.927497 3.4795 0
M  V30 2862 C 289.22 2.44052 3.77834 0
M  V30 2863 C 290.539 0.441569 4.37879 0
M  V30 2864 H 287.658 0.21463 0.705055 0
M  V30 2865 H 290.3 1.17316 1.49455 0
M  V30 2866 H 288.45 0.428431 3.8613 0
M  V30 2867 H 290.122 3.01216 3.4938 0
M  V30 2868 H 288.365 2.8848 3.23978 0
M  V30 2869 H 289.036 2.62947 4.85348 0
M  V30 2870 H 291.512 0.869448 4.06915 0
M  V30 2871 H 290.388 0.708856 5.44304 0
M  V30 2872 H 290.649 -0.658467 4.37169 0
M  V30 2873 N 289.708 -1.40897 0.706093 0
M  V30 2874 C 290.638 -2.33418 0.0620085 0
M  V30 2875 C 291.619 -1.52385 -0.755827 0
M  V30 2876 O 292.804 -1.80886 -0.706674 0
M  V30 2877 C 289.934 -3.36293 -0.867445 0
M  V30 2878 C 288.888 -4.27716 -0.155932 0
M  V30 2879 C 288.214 -5.2105 -1.20046 0
M  V30 2880 C 289.514 -5.12944 0.984149 0
M  V30 2881 H 291.208 -2.87527 0.83477 0
M  V30 2882 H 288.754 -1.38249 0.402875 0
M  V30 2883 H 290.707 -3.99949 -1.32735 0
M  V30 2884 H 289.431 -2.80556 -1.67199 0
M  V30 2885 H 288.09 -3.65498 0.284047 0
M  V30 2886 H 287.738 -4.61624 -1.99781 0
M  V30 2887 H 287.438 -5.83056 -0.729328 0
M  V30 2888 H 288.962 -5.87584 -1.66066 0
M  V30 2889 H 290.376 -5.70109 0.604048 0
M  V30 2890 H 288.773 -5.83945 1.38304 0
M  V30 2891 H 289.843 -4.49485 1.81911 0
M  V30 2892 N 291.186 -0.45159 -1.50991 0
M  V30 2893 C 292.433 0.110074 -2.02201 0
M  V30 2894 C 292.761 1.4146 -1.33489 0
M  V30 2895 O 292.016 1.90617 -0.443125 0
M  V30 2896 C 292.315 0.361728 -3.55565 0
M  V30 2897 C 291.981 -0.858717 -4.42648 0
M  V30 2898 C 290.643 -1.19338 -4.66167 0
M  V30 2899 C 292.995 -1.67221 -4.93646 0
M  V30 2900 C 290.323 -2.34195 -5.37931 0
M  V30 2901 C 292.675 -2.8119 -5.6667 0
M  V30 2902 C 291.339 -3.15094 -5.88449 0
M  V30 2903 H 290.609 0.040279 -0.739904 0
M  V30 2904 H 293.256 -0.601696 -1.81802 0
M  V30 2905 H 291.561 1.15554 -3.74372 0
M  V30 2906 H 293.258 0.80996 -3.92735 0
M  V30 2907 H 289.848 -0.58796 -4.24548 0
M  V30 2908 H 294.032 -1.42686 -4.75347 0
M  V30 2909 H 289.288 -2.6076 -5.53005 0
M  V30 2910 H 293.462 -3.44585 -6.05173 0
M  V30 2911 H 291.089 -4.04204 -6.43835 0
M  V30 2912 N 292.664 1.56529 -0.183458 0
M  V30 2913 C 293.912 1.96855 0.457452 0
M  V30 2914 C 294.233 1.07104 1.62953 0
M  V30 2915 O 293.503 0.139887 1.954 0
M  V30 2916 H 292.083 0.72693 0.171992 0
M  V30 2917 H 294.745 1.93056 -0.267476 0
M  V30 2918 H 293.841 3.01423 0.809368 0
M  V30 2919 N 294.142 -0.090211 1.57342 0
M  V30 2920 C 295.37 -0.806224 1.90546 0
M  V30 2921 C 295.785 -1.72041 0.777644 0
M  V30 2922 O 295.142 -1.80778 -0.250103 0
M  V30 2923 C 295.193 -1.61546 3.23396 0
M  V30 2924 O 294.914 -0.738043 4.31839 0
M  V30 2925 C 296.415 -2.4341 3.70495 0
M  V30 2926 H 293.635 -0.230256 0.630257 0
M  V30 2927 H 296.179 -0.0659843 2.04394 0
M  V30 2928 H 294.334 -2.30816 3.11131 0
M  V30 2929 H 294.748 -1.29901 5.08159 0
M  V30 2930 H 296.222 -2.95676 4.66133 0
M  V30 2931 H 296.699 -3.22098 2.98579 0
M  V30 2932 H 297.305 -1.79331 3.85643 0
M  V30 2933 N 295.62 -1.53406 -0.361157 0
M  V30 2934 C 296.53 -1.83122 -1.4664 0
M  V30 2935 C 297.546 -0.719943 -1.58407 0
M  V30 2936 O 298.722 -1.01046 -1.74218 0
M  V30 2937 C 295.787 -2.01891 -2.81853 0
M  V30 2938 C 294.848 -3.25784 -2.79577 0
M  V30 2939 C 294.081 -3.43648 -4.0834 0
M  V30 2940 O 294.304 -2.65714 -5.0473 0
M  V30 2941 O 293.238 -4.37018 -4.13883 0
M  V30 2942 H 297.064 -2.7703 -1.24451 0
M  V30 2943 H 294.649 -1.38841 -0.551678 0
M  V30 2944 H 296.531 -2.15782 -3.61962 0
M  V30 2945 H 295.206 -1.11173 -3.0401 0
M  V30 2946 H 294.113 -3.17312 -1.98151 0
M  V30 2947 H 295.446 -4.16439 -2.62373 0
M  V30 2948 N 297.098 0.621204 -1.44841 0
M  V30 2949 C 298.346 1.37783 -1.47852 0
M  V30 2950 C 298.667 1.94653 -0.116224 0
M  V30 2951 O 297.937 1.76367 0.852737 0
M  V30 2952 H 296.517 0.511453 -0.544449 0
M  V30 2953 H 299.179 0.730446 -1.80694 0
M  V30 2954 H 298.275 2.20414 -2.20961 0
M  V30 2955 N 298.576 1.31904 0.862503 0
M  V30 2956 C 299.486 1.22161 2.00285 0
M  V30 2957 C 300.502 0.136785 1.73462 0
M  V30 2958 O 301.678 0.355994 1.98229 0
M  V30 2959 C 298.743 0.937093 3.33796 0
M  V30 2960 C 297.804 2.10957 3.73893 0
M  V30 2961 C 297.037 1.83853 5.01033 0
M  V30 2962 O 297.26 0.777274 5.65079 0
M  V30 2963 O 296.194 2.69741 5.38074 0
M  V30 2964 H 300.02 2.18008 2.11439 0
M  V30 2965 H 297.605 1.11716 0.991957 0
M  V30 2966 H 299.487 0.794583 4.13841 0
M  V30 2967 H 298.162 0.00871894 3.23699 0
M  V30 2968 H 297.069 2.30752 2.94456 0
M  V30 2969 H 298.402 3.02046 3.88625 0
M  V30 2970 N 300.054 -1.07777 1.14986 0
M  V30 2971 C 301.282 -1.84018 0.945773 0
M  V30 2972 C 301.697 -1.81897 -0.505863 0
M  V30 2973 O 301.054 -1.22726 -1.35072 0
M  V30 2974 C 301.105 -3.31287 1.44677 0
M  V30 2975 O 300.826 -3.33449 2.84154 0
M  V30 2976 C 302.327 -4.24311 1.28355 0
M  V30 2977 H 299.547 -0.580716 0.336169 0
M  V30 2978 H 302.091 -1.36077 1.52654 0
M  V30 2979 H 300.246 -3.76594 0.908625 0
M  V30 2980 H 300.66 -4.25427 3.06777 0
M  V30 2981 H 302.134 -5.2573 1.68261 0
M  V30 2982 H 302.611 -4.38612 0.227184 0
M  V30 2983 H 303.217 -3.84836 1.81056 0
M  V30 2984 N 301.532 -0.945985 -1.26051 0
M  V30 2985 C 302.462 -0.477172 -2.28572 0
M  V30 2986 C 303.443 0.472032 -1.63419 0
M  V30 2987 O 304.628 0.372853 -1.90587 0
M  V30 2988 C 301.758 0.253975 -3.4637 0
M  V30 2989 C 300.712 -0.609135 -4.23643 0
M  V30 2990 C 300.038 0.252252 -5.34105 0
M  V30 2991 C 301.338 -1.8829 -4.8718 0
M  V30 2992 H 303.032 -1.33402 -2.68038 0
M  V30 2993 H 300.578 -0.642904 -1.28852 0
M  V30 2994 H 302.531 0.593016 -4.17207 0
M  V30 2995 H 301.255 1.145 -3.05871 0
M  V30 2996 H 299.914 -0.931138 -3.54578 0
M  V30 2997 H 299.562 1.14278 -4.89846 0
M  V30 2998 H 299.262 -0.32188 -5.86718 0
M  V30 2999 H 300.786 0.586454 -6.07777 0
M  V30 3000 H 302.2 -1.61081 -5.50205 0
M  V30 3001 H 300.597 -2.40199 -5.49931 0
M  V30 3002 H 301.667 -2.59134 -4.09851 0
M  V30 3003 N 303.011 1.40521 -0.713556 0
M  V30 3004 C 304.239 2.05237 -0.261775 0
M  V30 3005 C 304.654 1.53755 1.09567 0
M  V30 3006 O 304.011 0.693268 1.6882 0
M  V30 3007 C 304.062 3.60763 -0.230706 0
M  V30 3008 O 303.783 4.10345 -1.53455 0
M  V30 3009 C 305.284 4.42651 0.239874 0
M  V30 3010 H 302.504 0.660533 -0.118057 0
M  V30 3011 H 305.048 1.79967 -0.971192 0
M  V30 3012 H 303.203 3.8501 0.429661 0
M  V30 3013 H 303.617 5.04526 -1.43366 0
M  V30 3014 H 305.091 5.51599 0.210468 0
M  V30 3015 H 305.568 4.20082 1.28171 0
M  V30 3016 H 306.174 4.23507 -0.390142 0
M  V30 3017 N 304.489 0.459591 1.5075 0
M  V30 3018 C 305.738 -0.100971 2.01447 0
M  V30 3019 C 306.051 -1.41816 1.34713 0
M  V30 3020 O 307.257 -2.06299 1.76502 0
M  V30 3021 C 305.713 -0.23047 3.59161 0
M  V30 3022 C 305.321 1.0776 4.34847 0
M  V30 3023 C 307.065 -0.743608 4.17936 0
M  V30 3024 C 304.972 0.91253 5.84317 0
M  V30 3025 H 303.902 -0.0415102 0.752856 0
M  V30 3026 H 306.553 0.592742 1.73663 0
M  V30 3027 H 304.935 -0.987703 3.83485 0
M  V30 3028 H 306.109 1.8449 4.22256 0
M  V30 3029 H 304.424 1.52097 3.87628 0
M  V30 3030 H 307.021 -0.883959 5.27343 0
M  V30 3031 H 307.364 -1.73196 3.78562 0
M  V30 3032 H 307.897 -0.04408 3.97776 0
M  V30 3033 H 304.636 1.87391 6.28144 0
M  V30 3034 H 304.156 0.185422 5.99513 0
M  V30 3035 H 305.835 0.574547 6.44444 0
M  V30 3036 N 305.967 -1.56429 0.191757 0
M  V30 3037 C 307.383 -1.58754 -0.164137 0
M  V30 3038 C 307.583 -1.20782 -1.61288 0
M  V30 3039 O 306.639 -0.928999 -2.34789 0
M  V30 3040 C 307.952 -3.00396 0.135195 0
M  V30 3041 C 309.5 -3.1291 0.0750351 0
M  V30 3042 C 309.975 -4.56679 0.347632 0
M  V30 3043 N 311.466 -4.62252 0.296131 0
M  V30 3044 C 312.201 -5.71379 0.480948 0
M  V30 3045 N 311.697 -6.88986 0.725933 0
M  V30 3046 N 313.49 -5.60563 0.415435 0
M  V30 3047 H 305.641 -1.79393 1.13718 0
M  V30 3048 H 307.904 -0.832414 0.453643 0
M  V30 3049 H 307.61 -3.32726 1.13958 0
M  V30 3050 H 307.484 -3.72963 -0.563773 0
M  V30 3051 H 309.871 -2.80394 -0.919948 0
M  V30 3052 H 309.952 -2.42736 0.807029 0
M  V30 3053 H 309.596 -4.89907 1.33992 0
M  V30 3054 H 309.526 -5.25039 -0.405212 0
M  V30 3055 H 312.017 -3.7773 0.113259 0
M  V30 3056 H 312.33 -7.68046 0.855857 0
M  V30 3057 H 310.675 -6.90801 0.762788 0
M  V30 3058 H 313.866 -4.67561 0.224486 0
M  V30 3059 H 314.039 -6.45551 0.562889 0
M  V30 3060 N 307.445 0.0818655 -1.57387 0
M  V30 3061 C 308.395 1.10501 -1.99433 0
M  V30 3062 C 309.379 1.35041 -0.874798 0
M  V30 3063 O 310.571 1.35511 -1.13868 0
M  V30 3064 C 307.7 2.42159 -2.43339 0
M  V30 3065 C 306.786 2.20937 -3.62005 0
M  V30 3066 N 307.177 1.69616 -4.76512 0
M  V30 3067 C 305.475 2.51451 -3.68359 0
M  V30 3068 C 306.176 1.62973 -5.58404 0
M  V30 3069 N 305.152 2.08664 -5.01956 0
M  V30 3070 H 308.954 0.701373 -2.85408 0
M  V30 3071 H 306.468 0.289096 -1.59806 0
M  V30 3072 H 308.465 3.16208 -2.71695 0
M  V30 3073 H 307.125 2.83249 -1.58746 0
M  V30 3074 H 308.136 1.38624 -4.99003 0
M  V30 3075 H 304.813 2.95975 -2.94457 0
M  V30 3076 H 306.203 1.24233 -6.60315 0
M  V30 3077 N 308.923 1.53595 0.353017 0
M  V30 3078 C 310.2 1.61002 1.11075 0
M  V30 3079 C 310.58 0.425356 2.0677 0
M  V30 3080 O 309.928 -0.583267 2.2093 0
M  V30 3081 C 310.138 2.96631 1.83877 0
M  V30 3082 C 311.486 3.51653 2.37961 0
M  V30 3083 O 312.51 2.98743 1.93987 0
M  V30 3084 O 311.369 4.44177 3.18386 0
M  V30 3085 H 308.463 0.650825 0.510251 0
M  V30 3086 H 311.009 1.6594 0.35527 0
M  V30 3087 H 309.781 3.74293 1.14108 0
M  V30 3088 H 309.404 2.95242 2.66304 0
M  V30 3089 N 310.401 -0.613514 1.45168 0
M  V30 3090 C 311.626 -1.40437 1.52618 0
M  V30 3091 C 312.051 -1.87438 0.157707 0
M  V30 3092 O 311.409 -1.59791 -0.856537 0
M  V30 3093 C 311.457 -2.58894 2.51011 0
M  V30 3094 O 310.561 -3.59326 2.02382 0
M  V30 3095 H 309.902 -0.419506 0.514695 0
M  V30 3096 H 312.432 -0.747215 1.90467 0
M  V30 3097 H 312.442 -3.06214 2.69624 0
M  V30 3098 H 311.117 -2.24032 3.50403 0
M  V30 3099 H 309.694 -3.18695 1.93618 0
M  V30 3100 N 311.879 -1.3236 -0.855495 0
M  V30 3101 C 312.809 -1.23833 -1.97958 0
M  V30 3102 C 313.79 -0.122361 -1.69659 0
M  V30 3103 O 314.975 -0.30939 -1.9172 0
M  V30 3104 C 312.105 -0.959772 -3.33775 0
M  V30 3105 C 311.059 -2.03689 -3.76424 0
M  V30 3106 C 310.385 -1.61075 -5.09862 0
M  V30 3107 C 311.685 -3.4518 -3.9198 0
M  V30 3108 H 313.379 -2.1788 -2.0535 0
M  V30 3109 H 310.925 -1.04891 -0.986605 0
M  V30 3110 H 312.878 -0.886678 -4.11966 0
M  V30 3111 H 311.602 0.0163404 -3.26596 0
M  V30 3112 H 310.261 -2.10012 -3.00484 0
M  V30 3113 H 309.909 -0.622107 -4.99138 0
M  V30 3114 H 309.609 -2.33143 -5.39368 0
M  V30 3115 H 311.133 -1.55201 -5.90546 0
M  V30 3116 H 312.547 -3.4145 -4.60526 0
M  V30 3117 H 310.944 -4.1559 -4.32903 0
M  V30 3118 H 312.014 -3.84903 -2.94919 0
M  V30 3119 N 313.357 1.07166 -1.15556 0
M  V30 3120 C 314.634 1.76546 -0.842069 0
M  V30 3121 C 315.014 2.00453 0.661939 0
M  V30 3122 O 314.362 1.62452 1.60691 0
M  V30 3123 C 314.572 3.07266 -1.65495 0
M  V30 3124 C 315.92 3.81578 -1.86234 0
M  V30 3125 O 316.944 3.17083 -1.62287 0
M  V30 3126 O 315.803 4.97419 -2.26355 0
M  V30 3127 H 312.897 0.766756 -0.309862 0
M  V30 3128 H 315.443 1.13514 -1.26145 0
M  V30 3129 H 314.215 2.85494 -2.67598 0
M  V30 3130 H 313.838 3.7803 -1.23203 0
M  V30 3131 N 314.835 0.952656 1.25548 0
M  V30 3132 C 316.251 0.656769 1.4546 0
M  V30 3133 C 316.451 -0.78633 1.85524 0
M  V30 3134 O 315.507 -1.56183 1.98402 0
M  V30 3135 C 316.82 1.62801 2.52817 0
M  V30 3136 C 318.368 1.63897 2.66659 0
M  V30 3137 C 318.843 2.5978 3.77198 0
M  V30 3138 N 320.334 2.58133 3.84606 0
M  V30 3139 C 321.069 3.29003 4.69621 0
M  V30 3140 N 320.565 4.09339 5.58939 0
M  V30 3141 N 322.358 3.179 4.63569 0
M  V30 3142 H 314.509 1.88526 0.978344 0
M  V30 3143 H 316.772 0.810815 0.491206 0
M  V30 3144 H 316.478 2.65869 2.30232 0
M  V30 3145 H 316.352 1.38898 3.50695 0
M  V30 3146 H 318.739 0.615481 2.8861 0
M  V30 3147 H 318.82 1.91858 1.69187 0
M  V30 3148 H 318.464 3.62254 3.55997 0
M  V30 3149 H 318.394 2.29105 4.7415 0
M  V30 3150 H 320.885 1.99809 3.20757 0
M  V30 3151 H 321.198 4.6034 6.20731 0
M  V30 3152 H 319.543 4.13438 5.58654 0
M  V30 3153 H 322.734 2.54612 3.92798 0
M  V30 3154 H 322.907 3.73398 5.29602 0
M  V30 3155 N 316.313 -1.40141 0.720998 0
M  V30 3156 C 317.541 -2.05096 0.272656 0
M  V30 3157 C 317.956 -1.54334 -1.0875 0
M  V30 3158 O 317.313 -0.702211 -1.6845 0
M  V30 3159 C 317.364 -3.60636 0.249835 0
M  V30 3160 O 317.085 -4.09526 1.55629 0
M  V30 3161 C 318.586 -4.42772 -0.216396 0
M  V30 3162 H 315.806 -0.659897 0.121558 0
M  V30 3163 H 318.35 -1.79449 0.980723 0
M  V30 3164 H 316.505 -3.85232 -0.409237 0
M  V30 3165 H 316.919 -5.03758 1.4604 0
M  V30 3166 H 318.393 -5.51702 -0.181212 0
M  V30 3167 H 318.87 -4.20756 -1.25941 0
M  V30 3168 H 319.476 -4.23294 0.412596 0
M  V30 3169 N 317.792 -0.46758 -1.50504 0
M  V30 3170 C 319.017 0.0886943 -2.0721 0
M  V30 3171 C 319.442 1.33057 -1.32956 0
M  V30 3172 O 318.8 1.77354 -0.376197 0
M  V30 3173 C 318.848 0.359202 -3.58806 0
M  V30 3174 O 317.952 1.44034 -3.8643 0
M  V30 3175 H 317.293 -0.0114349 -0.663902 0
M  V30 3176 H 319.823 -0.657613 -1.93744 0
M  V30 3177 H 319.833 0.600742 -4.03553 0
M  V30 3178 H 318.508 -0.548311 -4.1227 0
M  V30 3179 H 317.085 1.18638 -3.53524 0
M  V30 3180 N 319.27 1.56325 -0.20005 0
M  V30 3181 C 320.517 1.97719 0.437411 0
M  V30 3182 C 320.845 1.08709 1.61284 0
M  V30 3183 O 320.1 0.127261 1.95286 0
M  V30 3184 C 320.399 3.4495 0.935103 0
M  V30 3185 C 320.065 4.5072 -0.12749 0
M  V30 3186 C 318.727 4.79368 -0.419451 0
M  V30 3187 C 321.079 5.14268 -0.847231 0
M  V30 3188 C 318.407 5.68854 -1.43604 0
M  V30 3189 C 320.759 6.04852 -1.85301 0
M  V30 3190 C 319.423 6.31855 -2.15211 0
M  V30 3191 H 318.693 0.723507 0.16006 0
M  V30 3192 H 321.34 1.89166 -0.298056 0
M  V30 3193 H 319.645 3.50599 1.74894 0
M  V30 3194 H 321.342 3.74337 1.43781 0
M  V30 3195 H 317.932 4.28458 0.11023 0
M  V30 3196 H 322.116 4.92222 -0.634901 0
M  V30 3197 H 317.372 5.88047 -1.67364 0
M  V30 3198 H 321.546 6.53152 -2.41591 0
M  V30 3199 H 319.173 7.00994 -2.94129 0
M  V30 3200 N 320.748 -0.0735177 1.57428 0
M  V30 3201 C 321.994 -0.774145 1.87443 0
M  V30 3202 C 322.327 -1.77311 0.792103 0
M  V30 3203 O 321.602 -1.93492 -0.197793 0
M  V30 3204 C 321.885 -1.48367 3.28115 0
M  V30 3205 C 321.738 -0.501227 4.46999 0
M  V30 3206 C 323.057 -2.429 3.66998 0
M  V30 3207 H 320.176 -0.279971 0.681752 0
M  V30 3208 H 322.818 -0.0373616 1.89963 0
M  V30 3209 H 320.968 -2.11171 3.26097 0
M  V30 3210 H 322.64 0.121468 4.6114 0
M  V30 3211 H 320.883 0.183593 4.33411 0
M  V30 3212 H 321.554 -1.03526 5.42205 0
M  V30 3213 H 324.03 -1.90175 3.70098 0
M  V30 3214 H 322.906 -2.89549 4.66318 0
M  V30 3215 H 323.167 -3.27628 2.96837 0
M  V30 3216 N 322.226 -1.5378 -0.344866 0
M  V30 3217 C 323.637 -1.62428 -0.920552 0
M  V30 3218 C 323.988 -0.504747 -1.89596 0
M  V30 3219 O 323.113 0.365711 -2.13287 0
M  V30 3220 C 323.708 -2.94419 -1.67639 0
M  V30 3221 C 322.267 -3.05333 -2.20111 0
M  V30 3222 C 321.414 -2.57866 -1.01982 0
M  V30 3223 H 324.365 -1.58222 -0.123042 0
M  V30 3224 H 324.386 -2.83384 -2.53917 0
M  V30 3225 H 323.898 -3.7588 -0.966224 0
M  V30 3226 H 321.999 -2.28502 -2.94308 0
M  V30 3227 H 322.112 -4.10778 -2.46573 0
M  V30 3228 H 320.476 -2.13241 -1.39285 0
M  V30 3229 H 321.259 -3.41765 -0.324308 0
M  V30 3230 N 323.704 0.605807 -1.45491 0
M  V30 3231 C 324.952 1.36207 -1.49305 0
M  V30 3232 C 325.273 1.94519 -0.136863 0
M  V30 3233 O 324.543 1.77261 0.833983 0
M  V30 3234 H 323.123 0.50565 -0.549843 0
M  V30 3235 H 325.785 0.711239 -1.81459 0
M  V30 3236 H 324.881 2.18058 -2.23287 0
M  V30 3237 N 325.182 1.32811 0.848464 0
M  V30 3238 C 326.428 1.23907 1.60546 0
M  V30 3239 C 326.761 -0.197161 1.93197 0
M  V30 3240 O 326.036 -1.13596 1.5788 0
M  V30 3241 C 326.319 2.10489 2.92175 0
M  V30 3242 C 326.172 3.62522 2.66266 0
M  V30 3243 C 327.491 1.97075 3.93509 0
M  V30 3244 H 324.61 0.451459 0.58254 0
M  V30 3245 H 327.252 1.62818 0.979296 0
M  V30 3246 H 325.402 1.77434 3.45614 0
M  V30 3247 H 327.074 4.05821 2.19334 0
M  V30 3248 H 325.317 3.84879 2.00126 0
M  V30 3249 H 325.988 4.18437 3.6002 0
M  V30 3250 H 328.464 2.26045 3.49346 0
M  V30 3251 H 327.34 2.59923 4.83457 0
M  V30 3252 H 327.601 0.940186 4.31987 0
M  V30 3253 N 326.66 -1.06551 1.16123 0
M  V30 3254 C 327.59 -2.15935 0.88851 0
M  V30 3255 C 328.571 -1.69306 -0.164135 0
M  V30 3256 O 329.756 -1.94193 -0.0167857 0
M  V30 3257 C 326.886 -3.45149 0.385942 0
M  V30 3258 C 325.84 -4.05271 1.3762 0
M  V30 3259 C 325.166 -5.29664 0.732137 0
M  V30 3260 C 326.466 -4.44355 2.74493 0
M  V30 3261 H 328.16 -2.39006 1.80323 0
M  V30 3262 H 325.706 -1.14866 0.868435 0
M  V30 3263 H 327.659 -4.21004 0.182647 0
M  V30 3264 H 326.383 -3.21689 -0.564274 0
M  V30 3265 H 325.042 -3.3147 1.56599 0
M  V30 3266 H 324.69 -5.02499 -0.224483 0
M  V30 3267 H 324.39 -5.70848 1.39307 0
M  V30 3268 H 325.914 -6.08218 0.538802 0
M  V30 3269 H 327.328 -5.11303 2.59311 0
M  V30 3270 H 325.725 -4.96515 3.37035 0
M  V30 3271 H 326.795 -3.55339 3.29943 0
M  V30 3272 N 328.138 -0.959301 -1.25041 0
M  V30 3273 C 329.068 -0.501388 -2.28053 0
M  V30 3274 C 330.049 0.454673 -1.63911 0
M  V30 3275 O 331.234 0.352618 -1.90972 0
M  V30 3276 C 328.364 0.217224 -3.4662 0
M  V30 3277 C 327.318 -0.654034 -4.22973 0
M  V30 3278 C 326.644 0.195589 -5.34342 0
M  V30 3279 C 327.944 -1.93447 -4.85155 0
M  V30 3280 H 329.638 -1.36238 -2.66608 0
M  V30 3281 H 327.184 -0.656534 -1.28163 0
M  V30 3282 H 329.137 0.548732 -4.17812 0
M  V30 3283 H 327.861 1.1125 -3.07068 0
M  V30 3284 H 326.52 -0.968693 -3.5357 0
M  V30 3285 H 326.168 1.09076 -4.91031 0
M  V30 3286 H 325.868 -0.384091 -5.86343 0
M  V30 3287 H 327.392 0.521958 -6.08365 0
M  V30 3288 H 328.806 -1.66908 -5.48466 0
M  V30 3289 H 327.203 -2.46018 -5.47353 0
M  V30 3290 H 328.273 -2.63466 -4.07079 0
M  V30 3291 N 329.616 1.39756 -0.72842 0
M  V30 3292 C 330.579 2.29012 -0.0927297 0
M  V30 3293 C 331.579 1.45992 0.674025 0
M  V30 3294 O 332.769 1.66749 0.50402 0
M  V30 3295 C 329.901 3.29396 0.878137 0
M  V30 3296 H 331.094 2.86729 -0.879011 0
M  V30 3297 H 328.647 1.48293 -0.493847 0
M  V30 3298 H 329.382 2.76722 1.69101 0
M  V30 3299 H 329.167 3.907 0.331051 0
M  V30 3300 H 330.657 3.96199 1.3197 0
M  V30 3301 N 331.094 0.475555 1.50254 0
M  V30 3302 C 332.34 -0.0780073 2.0265 0
M  V30 3303 C 332.673 -1.38968 1.35652 0
M  V30 3304 O 331.948 -1.8839 0.483691 0
M  V30 3305 C 332.231 -0.257161 3.59181 0
M  V30 3306 C 332.084 1.07585 4.36744 0
M  V30 3307 C 333.403 -1.00965 4.28362 0
M  V30 3308 H 330.522 -0.0268758 0.73651 0
M  V30 3309 H 333.164 0.622015 1.7953 0
M  V30 3310 H 331.314 -0.853412 3.79011 0
M  V30 3311 H 332.986 1.70902 4.28474 0
M  V30 3312 H 331.229 1.6714 4.00308 0
M  V30 3313 H 331.9 0.904088 5.44546 0
M  V30 3314 H 334.376 -0.504214 4.13034 0
M  V30 3315 H 333.252 -1.10381 5.37687 0
M  V30 3316 H 333.513 -2.04731 3.91839 0
M  V30 3317 N 332.573 -1.56217 0.208337 0
M  V30 3318 C 333.989 -1.58919 -0.14729 0
M  V30 3319 C 334.189 -1.22486 -1.59998 0
M  V30 3320 O 333.245 -0.953849 -2.3379 0
M  V30 3321 C 334.558 -3.00236 0.167048 0
M  V30 3322 C 336.106 -3.12813 0.108219 0
M  V30 3323 C 336.581 -4.56284 0.396049 0
M  V30 3324 N 338.072 -4.61912 0.345142 0
M  V30 3325 C 338.807 -5.70837 0.541523 0
M  V30 3326 N 338.303 -6.88178 0.798968 0
M  V30 3327 N 340.096 -5.60091 0.474867 0
M  V30 3328 H 332.247 -1.78177 1.15614 0
M  V30 3329 H 334.51 -0.827555 0.462446 0
M  V30 3330 H 334.216 -3.31499 1.1748 0
M  V30 3331 H 334.09 -3.7354 -0.524184 0
M  V30 3332 H 336.477 -2.81354 -0.890157 0
M  V30 3333 H 336.558 -2.41866 0.832729 0
M  V30 3334 H 336.202 -4.88458 1.3918 0
M  V30 3335 H 336.132 -5.25439 -0.349502 0
M  V30 3336 H 338.623 -3.77589 0.153316 0
M  V30 3337 H 338.936 -7.67095 0.93727 0
M  V30 3338 H 337.281 -6.89953 0.836013 0
M  V30 3339 H 340.472 -4.67297 0.274064 0
M  V30 3340 H 340.645 -6.44917 0.631326 0
M  V30 3341 N 334.051 0.0651679 -1.57465 0
M  V30 3342 C 335.467 0.420105 -1.53972 0
M  V30 3343 C 335.667 1.78782 -0.929474 0
M  V30 3344 O 334.723 2.46771 -0.534839 0
M  V30 3345 C 336.036 0.355084 -2.98596 0
M  V30 3346 C 337.584 0.434792 -3.09965 0
M  V30 3347 C 338.059 0.399609 -4.56253 0
M  V30 3348 N 339.55 0.459488 -4.60915 0
M  V30 3349 C 340.285 0.454584 -5.71595 0
M  V30 3350 N 339.781 0.404102 -6.9162 0
M  V30 3351 N 341.574 0.501635 -5.59857 0
M  V30 3352 H 333.725 -0.830328 -1.95498 0
M  V30 3353 H 335.988 -0.312244 -0.895102 0
M  V30 3354 H 335.694 -0.583357 -3.46828 0
M  V30 3355 H 335.568 1.16275 -3.58831 0
M  V30 3356 H 337.955 1.36366 -2.61703 0
M  V30 3357 H 338.036 -0.40157 -2.52628 0
M  V30 3358 H 337.68 -0.525436 -5.05175 0
M  V30 3359 H 337.61 1.25359 -5.11461 0
M  V30 3360 H 340.101 0.502482 -3.74544 0
M  V30 3361 H 340.414 0.404468 -7.71741 0
M  V30 3362 H 338.759 0.37069 -6.94011 0
M  V30 3363 H 341.95 0.538812 -4.64989 0
M  V30 3364 H 342.123 0.494345 -6.46112 0
M  V30 3365 N 335.529 1.53961 0.336706 0
M  V30 3366 C 336.778 1.70751 1.07363 0
M  V30 3367 C 337.091 0.481061 1.89592 0
M  V30 3368 O 338.297 0.530046 2.66276 0
M  V30 3369 C 336.753 3.01965 1.95818 0
M  V30 3370 C 336.361 4.31971 1.18764 0
M  V30 3371 C 338.105 3.28121 2.69327 0
M  V30 3372 C 336.012 5.54255 2.06289 0
M  V30 3373 H 334.942 0.636292 0.404535 0
M  V30 3374 H 337.593 1.80459 0.332681 0
M  V30 3375 H 335.975 2.86132 2.7376 0
M  V30 3376 H 337.149 4.5853 0.456849 0
M  V30 3377 H 335.464 4.12481 0.569946 0
M  V30 3378 H 338.061 4.16673 3.35094 0
M  V30 3379 H 338.404 2.45426 3.36261 0
M  V30 3380 H 338.937 3.44762 1.98454 0
M  V30 3381 H 335.676 6.39513 1.43885 0
M  V30 3382 H 335.196 5.31935 2.77138 0
M  V30 3383 H 336.875 5.90159 2.65182 0
M  V30 3384 N 337.007 -0.598083 1.45811 0
M  V30 3385 C 337.97 -1.69018 1.54808 0
M  V30 3386 C 338.97 -1.55037 0.426652 0
M  V30 3387 O 340.16 -1.59932 0.690456 0
M  V30 3388 C 337.292 -3.0835 1.45371 0
M  V30 3389 H 338.485 -1.62403 2.52121 0
M  V30 3390 H 336.038 -0.814626 1.33392 0
M  V30 3391 H 336.773 -3.20534 0.492793 0
M  V30 3392 H 336.558 -3.19907 2.26721 0
M  V30 3393 H 338.048 -3.8788 1.54721 0
M  V30 3394 N 338.485 -1.33259 -0.841409 0
M  V30 3395 C 339.395 -1.25332 -1.98316 0
M  V30 3396 C 340.411 -0.164364 -1.73222 0
M  V30 3397 O 341.587 -0.387486 -1.97637 0
M  V30 3398 C 338.652 -0.990078 -3.32262 0
M  V30 3399 C 337.713 -2.16879 -3.70489 0
M  V30 3400 C 336.946 -1.91801 -4.98044 0
M  V30 3401 O 337.169 -0.867075 -5.63771 0
M  V30 3402 O 336.103 -2.78267 -5.33714 0
M  V30 3403 H 339.929 -2.21344 -2.07944 0
M  V30 3404 H 337.514 -1.1328 -0.974058 0
M  V30 3405 H 339.396 -0.860321 -4.12524 0
M  V30 3406 H 338.071 -0.0602155 -3.23644 0
M  V30 3407 H 336.978 -2.35407 -2.90748 0
M  V30 3408 H 338.311 -3.0819 -3.8377 0
M  V30 3409 N 339.963 1.05934 -1.16686 0
M  V30 3410 C 341.379 1.30938 -0.912542 0
M  V30 3411 C 341.579 1.96803 0.432533 0
M  V30 3412 O 340.635 2.23693 1.17123 0
M  V30 3413 C 341.948 2.18649 -2.06429 0
M  V30 3414 C 343.496 2.32055 -2.10047 0
M  V30 3415 C 343.971 3.23122 -3.24586 0
M  V30 3416 N 345.462 3.30706 -3.24327 0
M  V30 3417 C 346.197 4.01273 -4.09594 0
M  V30 3418 N 345.693 4.74332 -5.04956 0
M  V30 3419 N 347.486 3.97361 -3.97569 0
M  V30 3420 H 339.637 0.615777 -2.03278 0
M  V30 3421 H 341.9 0.334077 -0.887185 0
M  V30 3422 H 341.606 1.77534 -3.03603 0
M  V30 3423 H 341.48 3.19252 -2.00894 0
M  V30 3424 H 343.867 2.72415 -1.13464 0
M  V30 3425 H 343.948 1.31107 -2.19647 0
M  V30 3426 H 343.592 2.83477 -4.2143 0
M  V30 3427 H 343.522 4.24057 -3.12223 0
M  V30 3428 H 346.013 2.78644 -2.55276 0
M  V30 3429 H 346.326 5.25716 -5.6643 0
M  V30 3430 H 344.671 4.733 -5.08933 0
M  V30 3431 H 347.862 3.39405 -3.22369 0
M  V30 3432 H 348.035 4.52089 -4.64241 0
M  V30 3433 N 341.441 0.965919 1.2453 0
M  V30 3434 C 342.852 0.665929 1.7442 0
M  V30 3435 C 343.203 -0.818407 1.78316 0
M  V30 3436 O 342.328 -1.64037 1.41141 0
M  V30 3437 C 342.923 1.20211 3.16757 0
M  V30 3438 C 341.482 0.952059 3.6416 0
M  V30 3439 C 340.629 1.33848 2.42858 0
M  V30 3440 H 343.58 1.14144 1.10258 0
M  V30 3441 H 343.601 0.567544 3.76244 0
M  V30 3442 H 343.113 2.28244 3.13889 0
M  V30 3443 H 341.214 -0.112821 3.72429 0
M  V30 3444 H 341.327 1.59645 4.51719 0
M  V30 3445 H 339.691 0.756864 2.43195 0
M  V30 3446 H 340.474 2.42827 2.42673 0
M  V30 3447 N 342.919 -1.39368 0.735821 0
M  V30 3448 C 344.167 -2.00101 0.283562 0
M  V30 3449 C 344.488 -1.5868 -1.13338 0
M  V30 3450 O 343.758 -0.835423 -1.77193 0
M  V30 3451 H 342.338 -0.740024 0.101851 0
M  V30 3452 H 345 -1.70404 0.945962 0
M  V30 3453 H 344.096 -3.10323 0.332604 0
M  V30 3454 N 344.397 -0.483516 -1.5 0
M  V30 3455 C 345.327 0.293829 -2.31644 0
M  V30 3456 C 346.308 0.978864 -1.39112 0
M  V30 3457 O 347.493 0.973644 -1.68029 0
M  V30 3458 C 344.623 1.36897 -3.19181 0
M  V30 3459 C 343.577 0.804833 -4.20365 0
M  V30 3460 C 342.903 1.9792 -4.96721 0
M  V30 3461 C 344.203 -0.192313 -5.21946 0
M  V30 3462 H 345.897 -0.387616 -2.9688 0
M  V30 3463 H 343.443 -0.187856 -1.42769 0
M  V30 3464 H 345.396 1.92037 -3.751 0
M  V30 3465 H 344.12 2.07936 -2.51853 0
M  V30 3466 H 342.779 0.275319 -3.65565 0
M  V30 3467 H 342.427 2.67686 -4.25856 0
M  V30 3468 H 342.127 1.60789 -5.65173 0
M  V30 3469 H 343.651 2.53526 -5.55479 0
M  V30 3470 H 345.065 0.270333 -5.72662 0
M  V30 3471 H 343.462 -0.478543 -5.98189 0
M  V30 3472 H 344.532 -1.11409 -4.71928 0
M  V30 3473 N 345.875 1.56104 -0.216619 0
M  V30 3474 C 347.103 2.02563 0.421413 0
M  V30 3475 C 347.518 1.0965 1.53695 0
M  V30 3476 O 346.875 0.10521 1.82196 0
M  V30 3477 C 346.926 3.48584 0.957665 0
M  V30 3478 O 346.647 4.37953 -0.113389 0
M  V30 3479 C 348.148 4.10664 1.66943 0
M  V30 3480 H 345.368 0.662944 0.103665 0
M  V30 3481 H 347.912 2.01793 -0.331629 0
M  V30 3482 H 346.067 3.49985 1.661 0
M  V30 3483 H 346.481 5.23704 0.288932 0
M  V30 3484 H 347.955 5.14622 1.99671 0
M  V30 3485 H 348.432 3.55373 2.58083 0
M  V30 3486 H 349.038 4.13098 1.01142 0
M  V30 3487 N 347.353 -0.0568162 1.57498 0
M  V30 3488 C 348.599 -0.75422 1.88253 0
M  V30 3489 C 348.932 -1.76461 0.810865 0
M  V30 3490 O 348.207 -1.93691 -0.177259 0
M  V30 3491 C 348.49 -1.44878 3.2967 0
M  V30 3492 C 348.343 -0.453789 4.47505 0
M  V30 3493 C 349.662 -2.38994 3.69554 0
M  V30 3494 H 346.781 -0.272724 0.684683 0
M  V30 3495 H 349.423 -0.0172113 1.89992 0
M  V30 3496 H 347.573 -2.077 3.28318 0
M  V30 3497 H 349.245 0.170371 4.60985 0
M  V30 3498 H 347.488 0.229552 4.33192 0
M  V30 3499 H 348.159 -0.977699 5.43273 0
M  V30 3500 H 350.635 -1.86239 3.72095 0
M  V30 3501 H 349.511 -2.84587 4.69363 0
M  V30 3502 H 349.772 -3.24461 3.00296 0
M  V30 3503 N 348.832 -1.54138 -0.328536 0
M  V30 3504 C 350.08 -1.71765 -1.06496 0
M  V30 3505 C 350.401 -0.49149 -1.88704 0
M  V30 3506 O 349.671 0.494539 -1.89555 0
M  V30 3507 H 348.251 -0.633295 -0.396164 0
M  V30 3508 H 350.913 -1.91429 -0.366176 0
M  V30 3509 H 350.009 -2.5951 -1.73381 0
M  V30 3510 N 350.31 0.590341 -1.46126 0
M  V30 3511 C 351.24 1.71032 -1.58966 0
M  V30 3512 C 352.221 1.64302 -0.440335 0
M  V30 3513 O 353.406 1.82436 -0.665634 0
M  V30 3514 C 350.536 3.09665 -1.57241 0
M  V30 3515 C 349.49 3.31221 -2.71066 0
M  V30 3516 C 348.816 4.70303 -2.54399 0
M  V30 3517 C 350.116 3.19796 -4.1295 0
M  V30 3518 H 351.81 1.60543 -2.52718 0
M  V30 3519 H 349.356 0.770933 -1.21625 0
M  V30 3520 H 351.309 3.87831 -1.64819 0
M  V30 3521 H 350.033 3.21036 -0.600289 0
M  V30 3522 H 348.692 2.55452 -2.62944 0
M  V30 3523 H 348.34 4.78429 -1.55288 0
M  V30 3524 H 348.04 4.85679 -3.30741 0
M  V30 3525 H 349.564 5.50647 -2.63857 0
M  V30 3526 H 350.978 3.87815 -4.22223 0
M  V30 3527 H 349.375 3.46696 -4.89818 0
M  V30 3528 H 350.445 2.16983 -4.33643 0
M  V30 3529 N 351.788 1.33704 0.83433 0
M  V30 3530 C 352.698 1.26382 1.97648 0
M  V30 3531 C 353.714 0.173548 1.73132 0
M  V30 3532 O 354.89 0.397962 1.97429 0
M  V30 3533 C 351.955 1.00769 3.31733 0
M  V30 3534 C 351.016 2.1884 3.69334 0
M  V30 3535 C 350.249 1.9444 4.9702 0
M  V30 3536 O 350.472 0.896961 5.63303 0
M  V30 3537 O 349.406 2.81093 5.32231 0
M  V30 3538 H 353.232 2.22444 2.06767 0
M  V30 3539 H 350.817 1.13795 0.968037 0
M  V30 3540 H 352.699 0.882186 4.12062 0
M  V30 3541 H 351.374 0.0773783 3.23608 0
M  V30 3542 H 350.281 2.36946 2.89495 0
M  V30 3543 H 351.614 3.10221 3.82131 0
M  V30 3544 N 353.266 -1.05314 1.17247 0
M  V30 3545 C 354.677 -1.59753 0.96623 0
M  V30 3546 C 355.028 -1.9005 -0.487378 0
M  V30 3547 O 354.153 -1.68126 -1.36245 0
M  V30 3548 C 354.748 -2.90249 1.74759 0
M  V30 3549 C 353.307 -3.41352 1.58606 0
M  V30 3550 C 352.454 -2.15103 1.75002 0
M  V30 3551 H 355.405 -0.881406 1.31973 0
M  V30 3552 H 355.426 -3.60097 1.22925 0
M  V30 3553 H 354.938 -2.68166 2.8055 0
M  V30 3554 H 353.039 -3.68474 0.552985 0
M  V30 3555 H 353.152 -4.16019 2.37624 0
M  V30 3556 H 351.516 -2.25804 1.17833 0
M  V30 3557 H 352.299 -1.95491 2.82202 0
M  V30 3558 N 354.744 -0.972509 -1.24016 0
M  V30 3559 C 355.674 -0.525548 -2.27509 0
M  V30 3560 C 356.655 0.437262 -1.64384 0
M  V30 3561 O 357.84 0.332343 -1.91335 0
M  V30 3562 C 354.97 0.180448 -3.46831 0
M  V30 3563 C 353.924 -0.698859 -4.22256 0
M  V30 3564 C 353.25 0.138903 -5.3452 0
M  V30 3565 C 354.55 -1.98582 -4.83076 0
M  V30 3566 H 356.244 -1.39058 -2.65148 0
M  V30 3567 H 353.79 -0.67009 -1.27459 0
M  V30 3568 H 355.743 0.504387 -4.18371 0
M  V30 3569 H 354.467 1.07987 -3.08231 0
M  V30 3570 H 353.126 -1.00614 -3.52523 0
M  V30 3571 H 352.774 1.03862 -4.9216 0
M  V30 3572 H 352.474 -0.446259 -5.85903 0
M  V30 3573 H 353.998 0.457404 -6.08884 0
M  V30 3574 H 355.412 -1.72715 -5.46665 0
M  V30 3575 H 353.809 -2.5181 -5.44713 0
M  V30 3576 H 354.879 -2.67769 -4.04262 0
M  V30 3577 N 356.222 1.38976 -0.743202 0
M  V30 3578 C 357.152 2.33171 -0.123873 0
M  V30 3579 C 358.133 1.54336 0.71516 0
M  V30 3580 O 359.318 1.82696 0.658467 0
M  V30 3581 C 356.448 3.38474 0.777978 0
M  V30 3582 C 355.402 4.27979 0.0424758 0
M  V30 3583 C 354.728 5.2405 1.06189 0
M  V30 3584 C 356.028 5.10155 -1.1198 0
M  V30 3585 H 357.722 2.85213 -0.910709 0
M  V30 3586 H 355.268 1.37133 -0.439388 0
M  V30 3587 H 357.221 4.03328 1.22084 0
M  V30 3588 H 355.945 2.84891 1.59702 0
M  V30 3589 H 354.604 3.64616 -0.380853 0
M  V30 3590 H 354.252 4.66758 1.87472 0
M  V30 3591 H 353.952 5.84785 0.574485 0
M  V30 3592 H 355.476 5.9178 1.50428 0
M  V30 3593 H 356.89 5.68307 -0.75499 0
M  V30 3594 H 355.287 5.80073 -1.53738 0
M  V30 3595 H 356.357 4.44504 -1.93764 0
M  V30 3596 N 357.7 0.491464 1.49741 0
M  V30 3597 C 358.977 -0.118984 1.95238 0
M  V30 3598 C 359.357 -1.55044 1.43264 0
M  V30 3599 O 358.705 -2.19287 0.642287 0
M  V30 3600 C 358.915 -0.0414187 3.48975 0
M  V30 3601 C 360.263 -0.220133 4.24029 0
M  V30 3602 O 361.287 -0.117055 3.56008 0
M  V30 3603 O 360.146 -0.430567 5.44801 0
M  V30 3604 H 357.24 -0.100536 0.820866 0
M  V30 3605 H 359.786 0.553322 1.60426 0
M  V30 3606 H 358.558 0.957214 3.79412 0
M  V30 3607 H 358.181 -0.754292 3.9038 0
M  V30 3608 N 359.178 -1.55987 0.224894 0
M  V30 3609 C 360.108 -2.23426 -0.678457 0
M  V30 3610 C 361.089 -1.20709 -1.19847 0
M  V30 3611 O 362.274 -1.49304 -1.24186 0
M  V30 3612 C 359.404 -2.91676 -1.88527 0
M  V30 3613 C 358.358 -4.00893 -1.49896 0
M  V30 3614 C 357.684 -4.56455 -2.78483 0
M  V30 3615 C 358.984 -5.17769 -0.686461 0
M  V30 3616 H 360.678 -2.99175 -0.116173 0
M  V30 3617 H 358.224 -1.43897 -0.054436 0
M  V30 3618 H 360.177 -3.37547 -2.5227 0
M  V30 3619 H 358.901 -2.1338 -2.47258 0
M  V30 3620 H 357.56 -3.55758 -0.884985 0
M  V30 3621 H 357.208 -3.74886 -3.35365 0
M  V30 3622 H 356.908 -5.30169 -2.53368 0
M  V30 3623 H 358.432 -5.05047 -3.43162 0
M  V30 3624 H 359.846 -5.60001 -1.22767 0
M  V30 3625 H 358.243 -5.97735 -0.532259 0
M  V30 3626 H 359.313 -4.83932 0.306196 0
M  V30 3627 N 360.656 0.0484629 -1.57525 0
M  V30 3628 C 361.606 1.06246 -2.01732 0
M  V30 3629 C 362.59 1.33155 -0.903245 0
M  V30 3630 O 363.782 1.33065 -1.16717 0
M  V30 3631 C 360.911 2.36943 -2.48421 0
M  V30 3632 C 359.997 2.13208 -3.6661 0
M  V30 3633 N 360.388 1.5947 -4.80003 0
M  V30 3634 C 358.686 2.43581 -3.7361 0
M  V30 3635 C 359.387 1.51092 -5.61735 0
M  V30 3636 N 358.363 1.9797 -5.0627 0
M  V30 3637 H 362.165 0.640675 -2.86832 0
M  V30 3638 H 359.679 0.255134 -1.60383 0
M  V30 3639 H 361.676 3.10374 -2.78341 0
M  V30 3640 H 360.336 2.79818 -1.64718 0
M  V30 3641 H 361.347 1.28008 -5.01831 0
M  V30 3642 H 358.024 2.89662 -3.00669 0
M  V30 3643 H 359.414 1.10199 -6.62801 0
M  V30 3644 O 362.173 1.60359 0.191666 0
M  V30 3645 H 362.864 1.75005 0.830227 0
M  V30 END ATOM
M  V30 BEGIN BOND
M  V30 END BOND
M  V30 END CTAB
M  END
$$$$
