drugbank_target|Q13547 Histone deacetylase 1 (DB01169; DB01593; DB02546; DB05223; DB06176; DB08868; DB11830; DB12565; DB14487; DB14533; DB14548)
 OpenBabel12092120103D

  0  0  0     0  0            999 V3000
M  V30 BEGIN CTAB
M  V30 COUNTS 7594 7680 0 0 0
M  V30 BEGIN ATOM
M  V30 1 H -0.908 1.98254 -0.117106 0
M  V30 2 N 0 1.576 0 0
M  V30 3 C 0.933 2.03868 1.02534 0
M  V30 4 C 1.911 0.928543 1.3348 0
M  V30 5 O 3.095 1.19667 1.45644 0
M  V30 6 C 0.222 2.43627 2.35294 0
M  V30 7 C -0.732 3.65373 2.2001 0
M  V30 8 S 0.101 5.13292 1.52614 0
M  V30 9 C 1.257 5.56322 2.86805 0
M  V30 10 H 1.49 2.90518 0.631377 0
M  V30 11 H -0.977 1.52953 0.210867 0
M  V30 12 H 0.981 2.67203 3.11629 0
M  V30 13 H -0.358 1.57376 2.7183 0
M  V30 14 H -1.165 3.90944 3.18086 0
M  V30 15 H -1.563 3.418 1.51819 0
M  V30 16 H 0.729 5.58782 3.83104 0
M  V30 17 H 1.672 6.56266 2.65933 0
M  V30 18 H 2.08 4.83886 2.90714 0
M  V30 19 N 1.4781 -0.272755 1.55222 0
M  V30 20 C 2.4411 -1.32041 1.87344 0
M  V30 21 C 3.4411 -1.42342 0.74803 0
M  V30 22 O 4.6311 -1.41488 1.0162 0
M  V30 23 C 1.7631 -2.70173 2.07893 0
M  V30 24 H 2.9561 -1.04789 2.80997 0
M  V30 25 H 0.5091 -0.51083 1.47717 0
M  V30 26 H 1.2441 -3.02605 1.16622 0
M  V30 27 H 1.0291 -2.64082 2.89833 0
M  V30 28 H 2.5191 -3.45869 2.34017 0
M  V30 29 N 2.9562 -1.48159 -0.537278 0
M  V30 30 C 3.8882 -1.58218 -1.65831 0
M  V30 31 C 4.9012 -0.466948 -1.5596 0
M  V30 32 O 6.0902 -0.73747 -1.62553 0
M  V30 33 C 3.1902 -1.48906 -3.04434 0
M  V30 34 C 2.3632 -2.75343 -3.3986 0
M  V30 35 C 1.4222 -2.59588 -4.57712 0
M  V30 36 O 0.4482 -3.33457 -4.61297 0
M  V30 37 N 1.6502 -1.68724 -5.55439 0
M  V30 38 H 4.4152 -2.54891 -1.57641 0
M  V30 39 H 1.9762 -1.4479 -0.724386 0
M  V30 40 H 3.9682 -1.36072 -3.81139 0
M  V30 41 H 2.5382 -0.602368 -3.06741 0
M  V30 42 H 1.7582 -3.02795 -2.52406 0
M  V30 43 H 3.0462 -3.5924 -3.60311 0
M  V30 44 H 2.4442 -1.07898 -5.55315 0
M  V30 45 H 1.0012 -1.61832 -6.3139 0
M  V30 46 N 4.4343 0.785586 -1.36625 0
M  V30 47 C 5.6623 1.57448 -1.3423 0
M  V30 48 C 6.0773 1.88649 0.0755653 0
M  V30 49 O 5.4343 1.50414 1.03354 0
M  V30 50 C 5.4853 2.89316 -2.16745 0
M  V30 51 O 5.2063 2.59459 -3.53005 0
M  V30 52 C 6.7073 3.83606 -2.22174 0
M  V30 53 H 3.9273 0.488226 -0.4603 0
M  V30 54 H 6.4713 0.974733 -1.79775 0
M  V30 55 H 4.6263 3.4575 -1.74745 0
M  V30 56 H 5.0403 3.43804 -3.96105 0
M  V30 57 H 6.5143 4.73181 -2.8426 0
M  V30 58 H 6.9913 4.21734 -1.22627 0
M  V30 59 H 7.5973 3.33104 -2.64427 0
M  V30 60 N 5.9124 1.20967 1.01018 0
M  V30 61 C 6.8444 0.922059 2.09835 0
M  V30 62 C 7.8574 -0.0927106 1.62536 0
M  V30 63 O 9.0464 0.139127 1.77957 0
M  V30 64 C 6.1464 0.362004 3.36961 0
M  V30 65 C 5.3194 1.42986 4.13369 0
M  V30 66 C 4.3784 0.879976 5.1879 0
M  V30 67 O 3.4044 1.56219 5.47343 0
M  V30 68 N 4.6064 -0.307396 5.79686 0
M  V30 69 H 7.3714 1.8588 2.35093 0
M  V30 70 H 4.9324 1.11422 1.1746 0
M  V30 71 H 6.9244 -0.0201474 4.04695 0
M  V30 72 H 5.4944 -0.479437 3.08902 0
M  V30 73 H 4.7144 1.98608 3.40512 0
M  V30 74 H 6.0024 2.14885 4.61196 0
M  V30 75 H 5.4004 -0.878796 5.58832 0
M  V30 76 H 3.9574 -0.631115 6.48737 0
M  V30 77 N 7.3905 -1.2043 1.01659 0
M  V30 78 C 8.6385 -1.89423 0.704522 0
M  V30 79 C 8.9595 -1.79231 -0.768197 0
M  V30 80 O 8.2295 -1.1947 -1.55254 0
M  V30 81 H 6.8095 -0.701178 0.257602 0
M  V30 82 H 9.4715 -1.4626 1.28818 0
M  V30 83 H 8.5675 -2.96052 0.987916 0
M  V30 84 N 8.8686 -0.792821 -1.36206 0
M  V30 85 C 10.0966 -0.378825 -2.03402 0
M  V30 86 C 10.5116 1.00586 -1.59774 0
M  V30 87 O 9.8686 1.64574 -0.788764 0
M  V30 88 C 9.9196 -0.43683 -3.58851 0
M  V30 89 O 9.6406 -1.76691 -4.00889 0
M  V30 90 C 11.1416 -0.0138943 -4.43298 0
M  V30 91 H 8.3616 -0.155673 -0.652692 0
M  V30 92 H 10.9056 -1.07261 -1.74113 0
M  V30 93 H 9.0606 0.208575 -3.86838 0
M  V30 94 H 9.4746 -1.72011 -4.95492 0
M  V30 95 H 10.9486 -0.105615 -5.51899 0
M  V30 96 H 11.4256 1.03915 -4.2673 0
M  V30 97 H 12.0316 -0.63192 -4.20579 0
M  V30 98 N 10.3467 1.47872 -0.545128 0
M  V30 99 C 11.7627 1.5829 -0.204032 0
M  V30 100 C 11.9627 1.54529 1.29317 0
M  V30 101 O 11.0187 1.44232 2.07252 0
M  V30 102 C 12.3317 2.89304 -0.819987 0
M  V30 103 C 13.8797 3.02864 -0.790105 0
M  V30 104 C 14.3547 4.3656 -1.38491 0
M  V30 105 N 15.8457 4.43165 -1.34755 0
M  V30 106 C 16.5807 5.45153 -1.77753 0
M  V30 107 N 16.0767 6.54016 -2.2855 0
M  V30 108 N 17.8697 5.36125 -1.68897 0
M  V30 109 H 10.0207 1.4856 -1.51802 0
M  V30 110 H 12.2837 0.706305 -0.632327 0
M  V30 111 H 11.9897 2.97757 -1.87173 0
M  V30 112 H 11.8637 3.75957 -0.305915 0
M  V30 113 H 14.2507 2.94014 0.252913 0
M  V30 114 H 14.3317 2.17782 -1.34181 0
M  V30 115 H 13.9757 4.46164 -2.42693 0
M  V30 116 H 13.9057 5.20353 -0.808754 0
M  V30 117 H 16.3967 3.65083 -0.975855 0
M  V30 118 H 16.7097 7.27994 -2.59314 0
M  V30 119 H 15.0547 6.54938 -2.32553 0
M  V30 120 H 18.2457 4.49975 -1.28998 0
M  V30 121 H 18.4187 6.15472 -2.02726 0
M  V30 122 N 11.8248 0.280983 1.55075 0
M  V30 123 C 13.2408 -0.0729964 1.59433 0
M  V30 124 C 13.4408 -1.5411 1.29817 0
M  V30 125 O 12.4968 -2.29086 1.06187 0
M  V30 126 C 13.8098 0.306921 2.9913 0
M  V30 127 C 15.3578 0.254023 3.11968 0
M  V30 128 C 15.8328 0.608467 4.5394 0
M  V30 129 N 17.3238 0.560241 4.59799 0
M  V30 130 C 18.0588 0.80722 5.6769 0
M  V30 131 N 17.5548 1.11912 6.83701 0
M  V30 132 N 19.3478 0.735623 5.57266 0
M  V30 133 H 11.4988 1.238 1.7259 0
M  V30 134 H 13.7618 0.500547 0.805082 0
M  V30 135 H 13.4678 1.32816 3.25657 0
M  V30 136 H 13.3418 -0.349363 3.75579 0
M  V30 137 H 15.7288 -0.75794 2.852 0
M  V30 138 H 15.8098 0.944649 2.37718 0
M  V30 139 H 15.4538 1.61814 4.81434 0
M  V30 140 H 15.3838 -0.104013 5.26497 0
M  V30 141 H 17.8748 0.329288 3.76463 0
M  V30 142 H 18.1878 1.29409 7.61888 0
M  V30 143 H 16.5328 1.15695 6.85303 0
M  V30 144 H 19.7238 0.491752 4.6551 0
M  V30 145 H 19.8968 0.931482 6.4127 0
M  V30 146 N 13.3029 -1.57598 0.00835791 0
M  V30 147 C 14.2499 -2.08945 -0.980346 0
M  V30 148 C 15.2199 -0.986738 -1.33614 0
M  V30 149 O 16.4049 -1.25968 -1.43306 0
M  V30 150 C 13.5449 -2.60425 -2.26435 0
M  V30 151 C 12.6579 -3.84628 -1.96685 0
M  V30 152 C 11.7929 -4.24579 -3.19228 0
M  V30 153 C 10.8319 -5.41596 -2.85202 0
M  V30 154 N 9.9689 -5.768 -4.00307 0
M  V30 155 H 14.8089 -2.93148 -0.535551 0
M  V30 156 H 12.3459 -1.44912 -0.252776 0
M  V30 157 H 14.3039 -2.88354 -3.01509 0
M  V30 158 H 12.9339 -1.79083 -2.68568 0
M  V30 159 H 11.9859 -3.63556 -1.11942 0
M  V30 160 H 13.2979 -4.69796 -1.67611 0
M  V30 161 H 12.4519 -4.53834 -4.02641 0
M  V30 162 H 11.1909 -3.38137 -3.51447 0
M  V30 163 H 10.1959 -5.12056 -2.00198 0
M  V30 164 H 11.4209 -6.29721 -2.54222 0
M  V30 165 H 9.3669 -4.93316 -4.32407 0
M  V30 166 H 9.2839 -6.5656 -3.74786 0
M  V30 167 H 10.5519 -6.10652 -4.84484 0
M  V30 168 N 14.781 0.264519 -1.55364 0
M  V30 169 C 16.027 0.99646 -1.76631 0
M  V30 170 C 16.36 1.85632 -0.570478 0
M  V30 171 O 15.635 1.89647 0.43175 0
M  V30 172 C 15.918 1.87187 -3.07625 0
M  V30 173 C 15.771 1.04138 -4.37579 0
M  V30 174 C 17.09 2.85749 -3.34717 0
M  V30 175 H 14.209 0.360841 -0.642622 0
M  V30 176 H 16.851 0.268218 -1.88097 0
M  V30 177 H 15.001 2.49279 -2.9798 0
M  V30 178 H 16.673 0.440517 -4.59192 0
M  V30 179 H 14.916 0.345115 -4.32425 0
M  V30 180 H 15.587 1.68729 -5.2558 0
M  V30 181 H 18.063 2.33793 -3.4421 0
M  V30 182 H 16.939 3.44136 -4.27623 0
M  V30 183 H 17.2 3.61311 -2.54768 0
M  V30 184 N 16.2591 1.48442 0.529413 0
M  V30 185 C 17.4991 1.58086 1.29569 0
M  V30 186 C 17.8631 0.249302 1.90375 0
M  V30 187 O 19.0641 0.220738 2.67892 0
M  V30 188 C 17.3351 2.68793 2.35552 0
M  V30 189 S 18.8941 2.98207 3.21898 0
M  V30 190 H 15.7121 0.557922 0.440732 0
M  V30 191 H 18.3141 1.85966 0.603059 0
M  V30 192 H 17.0181 3.64102 1.89363 0
M  V30 193 H 16.5491 2.42817 3.09522 0
M  V30 194 H 18.5641 2.37548 4.35644 0
M  V30 195 N 17.7372 -0.778329 1.37039 0
M  V30 196 C 18.9672 -1.56507 1.34868 0
M  V30 197 C 19.3752 -1.89072 -0.0694802 0
M  V30 198 O 18.7182 -1.51434 -1.03987 0
M  V30 199 C 18.7802 -2.90641 2.11585 0
M  V30 200 C 18.4442 -2.80746 3.60598 0
M  V30 201 C 19.4412 -2.52226 4.54618 0
M  V30 202 C 17.1262 -2.98974 4.03633 0
M  V30 203 C 19.1202 -2.42054 5.89651 0
M  V30 204 C 16.8072 -2.88423 5.38754 0
M  V30 205 C 17.8052 -2.60002 6.31576 0
M  V30 206 O 17.4932 -2.49465 7.64214 0
M  V30 207 H 17.2252 -0.491723 0.463879 0
M  V30 208 H 19.7792 -0.973053 1.80889 0
M  V30 209 H 18.0092 -3.51936 1.60243 0
M  V30 210 H 19.6982 -3.51992 2.0213 0
M  V30 211 H 20.4642 -2.37835 4.22681 0
M  V30 212 H 16.3432 -3.20099 3.31749 0
M  V30 213 H 19.8872 -2.19791 6.62071 0
M  V30 214 H 15.7842 -3.0238 5.70295 0
M  V30 215 H 16.5522 -2.64864 7.74461 0
M  V30 216 N 19.2153 -1.21501 -1.00376 0
M  V30 217 C 20.4453 -1.05746 -1.77486 0
M  V30 218 C 20.8533 0.395655 -1.85017 0
M  V30 219 O 20.1963 1.28626 -1.31152 0
M  V30 220 C 20.2583 -1.58092 -3.22873 0
M  V30 221 C 19.9223 -3.06568 -3.38917 0
M  V30 222 C 20.9193 -4.04106 -3.271 0
M  V30 223 C 18.6043 -3.45799 -3.64319 0
M  V30 224 C 20.5983 -5.38862 -3.40451 0
M  V30 225 C 18.2853 -4.80707 -3.77311 0
M  V30 226 C 19.2833 -5.77047 -3.65384 0
M  V30 227 O 18.9713 -7.09507 -3.77961 0
M  V30 228 H 18.7033 -0.371778 -0.564586 0
M  V30 229 H 21.2573 -1.61319 -1.27143 0
M  V30 230 H 19.4873 -0.969163 -3.74358 0
M  V30 231 H 21.1763 -1.38162 -3.81662 0
M  V30 232 H 21.9423 -3.75141 -3.07399 0
M  V30 233 H 17.8213 -2.71344 -3.72684 0
M  V30 234 H 21.3653 -6.14041 -3.31058 0
M  V30 235 H 17.2623 -5.09357 -3.96517 0
M  V30 236 H 18.0303 -7.16935 -3.94901 0
M  V30 237 N 20.6934 1.19889 -1.02296 0
M  V30 238 C 21.9234 1.93109 -0.734332 0
M  V30 239 C 22.3314 1.75377 0.709889 0
M  V30 240 O 21.6744 1.06912 1.49384 0
M  V30 241 C 21.7364 3.45362 -0.99827 0
M  V30 242 C 21.4004 3.8686 -2.43287 0
M  V30 243 C 22.3974 3.92102 -3.41397 0
M  V30 244 C 20.0824 4.18668 -2.77529 0
M  V30 245 C 22.0764 4.28573 -4.71809 0
M  V30 246 C 19.7634 4.54813 -4.08153 0
M  V30 247 C 20.7614 4.59739 -5.05103 0
M  V30 248 O 20.4494 4.95051 -6.33388 0
M  V30 249 H 20.1814 0.620409 -0.268456 0
M  V30 250 H 22.7354 1.53144 -1.3688 0
M  V30 251 H 20.9654 3.85482 -0.306645 0
M  V30 252 H 22.6544 3.99814 -0.700234 0
M  V30 253 H 23.4204 3.67685 -3.1628 0
M  V30 254 H 19.2994 4.14021 -2.0275 0
M  V30 255 H 22.8434 4.32333 -5.4748 0
M  V30 256 H 18.7404 4.78687 -4.33047 0
M  V30 257 H 19.5084 5.1302 -6.37772 0
M  V30 258 N 22.1715 0.800033 1.35784 0
M  V30 259 C 23.4485 0.30088 1.93272 0
M  V30 260 C 23.8285 -1.20857 1.73081 0
M  V30 261 O 23.1765 -2.00502 1.09596 0
M  V30 262 C 23.3865 0.70511 3.41803 0
M  V30 263 C 24.7345 0.690871 4.18942 0
M  V30 264 O 25.7585 0.646244 3.50289 0
M  V30 265 O 24.6175 0.74332 5.41421 0
M  V30 266 H 21.7115 0.0771605 0.823393 0
M  V30 267 H 24.2575 0.88329 1.449 0
M  V30 268 H 23.0295 1.74571 3.50201 0
M  V30 269 H 22.6525 0.0971541 3.97481 0
M  V30 270 N 23.6496 -1.47581 0.552962 0
M  V30 271 C 24.8976 -2.02082 0.0272703 0
M  V30 272 C 25.2186 -1.4301 -1.32563 0
M  V30 273 O 24.4886 -0.603745 -1.86365 0
M  V30 274 H 23.0686 -0.746966 0.00709182 0
M  V30 275 H 25.7306 -1.81033 0.722008 0
M  V30 276 H 24.8266 -3.12034 -0.0639951 0
M  V30 277 N 25.1277 -0.289203 -1.54924 0
M  V30 278 C 26.4047 0.376032 -1.91951 0
M  V30 279 C 26.7847 1.72622 -1.21511 0
M  V30 280 O 26.1327 2.25853 -0.346767 0
M  V30 281 C 26.3427 0.502378 -3.45365 0
M  V30 282 C 27.6907 0.778741 -4.17398 0
M  V30 283 O 28.7147 0.586647 -3.51336 0
M  V30 284 O 27.5737 1.14698 -5.34328 0
M  V30 285 H 24.6677 0.208167 -0.800372 0
M  V30 286 H 27.2137 -0.336394 -1.66332 0
M  V30 287 H 25.9857 -0.447255 -3.88736 0
M  V30 288 H 25.6087 1.26373 -3.76982 0
M  V30 289 N 26.6058 1.57591 -0.0167156 0
M  V30 290 C 27.8518 1.91567 0.665582 0
M  V30 291 C 28.1848 0.892298 1.72487 0
M  V30 292 O 27.4598 -0.0867127 1.94307 0
M  V30 293 C 27.7428 3.36069 1.29342 0
M  V30 294 C 27.5958 4.49135 0.244541 0
M  V30 295 C 28.9148 3.803 2.21495 0
M  V30 296 H 26.0338 0.69666 0.240488 0
M  V30 297 H 28.6758 1.89866 -0.0714356 0
M  V30 298 H 26.8258 3.3765 1.92158 0
M  V30 299 H 28.4978 4.59689 -0.385228 0
M  V30 300 H 26.7408 4.3165 -0.431379 0
M  V30 301 H 27.4118 5.47242 0.723207 0
M  V30 302 H 29.8878 3.80377 1.68678 0
M  V30 303 H 28.7638 4.82127 2.62382 0
M  V30 304 H 29.0248 3.15104 3.101 0
M  V30 305 N 28.0839 -0.256276 1.55502 0
M  V30 306 C 29.3319 -0.983672 1.76545 0
M  V30 307 C 29.6529 -1.86206 0.578982 0
M  V30 308 O 28.9229 -1.91656 -0.405577 0
M  V30 309 H 27.5029 -0.366191 0.651086 0
M  V30 310 H 30.1649 -0.276479 1.92929 0
M  V30 311 H 29.2609 -1.61087 2.67315 0
M  V30 312 N 29.562 -1.4872 -0.521534 0
M  V30 313 C 30.51 -1.64328 -1.64618 0
M  V30 314 C 31.504 -0.50953 -1.61555 0
M  V30 315 O 32.71 -0.688525 -1.66311 0
M  V30 316 H 29.085 -0.517805 -0.545328 0
M  V30 317 H 31.056 -2.58767 -1.48601 0
M  V30 318 C 29.805 -1.70805 -3.02855 0
M  V30 319 H 29.128 -2.5741 -3.05909 0
M  V30 320 H 30.568 -1.85766 -3.81139 0
M  V30 321 C 29.027 -0.448479 -3.33902 0
M  V30 322 O 29.557 0.434928 -3.99339 0
M  V30 323 N 27.763 -0.317616 -2.88859 0
M  V30 324 H 27.31 -1.03748 -2.35784 0
M  V30 325 H 27.268 0.524113 -3.10001 0
M  V30 326 N 31.0401 0.771051 -1.3745 0
M  V30 327 C 32.2701 1.55789 -1.35696 0
M  V30 328 C 32.6781 1.89107 0.0594523 0
M  V30 329 O 32.0211 1.51984 1.03183 0
M  V30 330 C 32.0831 2.89515 -2.13123 0
M  V30 331 C 31.7471 2.78829 -3.62082 0
M  V30 332 C 32.7441 2.49812 -4.5595 0
M  V30 333 C 30.4291 2.9683 -4.05213 0
M  V30 334 C 32.4231 2.38923 -5.90927 0
M  V30 335 C 30.1101 2.85562 -5.40276 0
M  V30 336 C 31.1081 2.56649 -6.32946 0
M  V30 337 O 30.7961 2.45408 -7.65526 0
M  V30 338 H 30.5281 0.489257 -0.466481 0
M  V30 339 H 33.0821 0.963446 -1.81403 0
M  V30 340 H 31.3121 3.51081 -1.62107 0
M  V30 341 H 33.0011 3.50915 -2.03994 0
M  V30 342 H 33.7671 2.3559 -4.23937 0
M  V30 343 H 29.6461 3.18335 -3.33442 0
M  V30 344 H 33.1901 2.16277 -6.63227 0
M  V30 345 H 29.0871 2.99351 -5.71891 0
M  V30 346 H 29.8551 2.60753 -7.75855 0
M  V30 347 N 32.5182 1.22032 0.997298 0
M  V30 348 C 33.7482 1.06686 1.76923 0
M  V30 349 C 34.1562 -0.385838 1.85224 0
M  V30 350 O 33.4992 -1.27929 1.31833 0
M  V30 351 C 33.5612 1.59802 3.22031 0
M  V30 352 C 33.2252 3.08362 3.37286 0
M  V30 353 C 34.2222 4.05835 3.24952 0
M  V30 354 C 31.9072 3.47727 3.6248 0
M  V30 355 C 33.9012 5.4066 3.37588 0
M  V30 356 C 31.5882 4.82701 3.74757 0
M  V30 357 C 32.5862 5.78977 3.62319 0
M  V30 358 O 32.2742 7.11502 3.74193 0
M  V30 359 H 32.0062 0.374767 0.562606 0
M  V30 360 H 34.5602 1.61991 1.26286 0
M  V30 361 H 32.7902 0.989003 3.73839 0
M  V30 362 H 34.4792 1.40184 3.80924 0
M  V30 363 H 35.2452 3.76766 3.05405 0
M  V30 364 H 31.1242 2.73317 3.7124 0
M  V30 365 H 34.6682 6.15788 3.27796 0
M  V30 366 H 30.5652 5.11453 3.9381 0
M  V30 367 H 31.3332 7.19019 3.91093 0
M  V30 368 N 33.9963 -1.19345 1.0293 0
M  V30 369 C 35.2263 -1.92717 0.744563 0
M  V30 370 C 35.6343 -1.75751 -0.700579 0
M  V30 371 O 34.9773 -1.07703 -1.48815 0
M  V30 372 C 35.0393 -3.44828 1.01657 0
M  V30 373 C 34.7033 -3.85564 2.45335 0
M  V30 374 C 35.7003 -3.90286 3.43472 0
M  V30 375 C 33.3853 -4.1719 2.79746 0
M  V30 376 C 35.3793 -4.26065 4.74075 0
M  V30 377 C 33.0663 -4.52642 4.10559 0
M  V30 378 C 34.0643 -4.57054 5.07534 0
M  V30 379 O 33.7523 -4.91685 6.36004 0
M  V30 380 H 33.4843 -0.618977 0.271742 0
M  V30 381 H 36.0383 -1.52415 1.37691 0
M  V30 382 H 34.2683 -3.85314 0.327084 0
M  V30 383 H 35.9573 -3.99437 0.721427 0
M  V30 384 H 36.7233 -3.66002 3.18225 0
M  V30 385 H 32.6023 -4.1294 2.04943 0
M  V30 386 H 36.1463 -4.29423 5.49765 0
M  V30 387 H 32.0433 -4.76383 4.35579 0
M  V30 388 H 32.8113 -5.09631 6.40483 0
M  V30 389 N 35.4744 -0.807222 -1.35358 0
M  V30 390 C 36.7224 -0.387122 -1.98358 0
M  V30 391 C 37.0434 1.04942 -1.64354 0
M  V30 392 O 36.3134 1.72615 -0.926339 0
M  V30 393 H 34.8934 -0.140154 -0.733734 0
M  V30 394 H 37.5554 -1.0332 -1.6526 0
M  V30 395 H 36.6514 -0.493352 -3.08176 0
M  V30 396 N 36.9525 1.47285 -0.560781 0
M  V30 397 C 37.8845 2.28118 0.222438 0
M  V30 398 C 38.8975 1.37219 0.876056 0
M  V30 399 O 40.0865 1.62011 0.749307 0
M  V30 400 C 37.1865 3.1159 1.33285 0
M  V30 401 C 36.3595 4.30473 0.77534 0
M  V30 402 C 35.4185 4.95513 1.77069 0
M  V30 403 O 34.4445 5.53792 1.31539 0
M  V30 404 N 35.6465 4.90531 3.10418 0
M  V30 405 H 38.4115 2.95976 -0.470958 0
M  V30 406 H 35.9725 1.56955 -0.39709 0
M  V30 407 H 37.9645 3.51967 1.99752 0
M  V30 408 H 36.5345 2.45951 1.92943 0
M  V30 409 H 35.7545 3.94144 -0.0662113 0
M  V30 410 H 37.0425 5.07362 0.382272 0
M  V30 411 H 36.4405 4.44389 3.5005 0
M  V30 412 H 34.9975 5.34917 3.72434 0
M  V30 413 N 38.4306 0.297415 1.54768 0
M  V30 414 C 39.6786 -0.312295 1.99673 0
M  V30 415 C 39.9996 -1.54686 1.18732 0
M  V30 416 O 39.2696 -1.93854 0.282382 0
M  V30 417 H 37.8496 -0.118381 0.73756 0
M  V30 418 H 40.5116 0.407915 1.90583 0
M  V30 419 H 39.6076 -0.586813 3.06534 0
M  V30 420 N 39.9087 -1.5758 0.0250728 0
M  V30 421 C 40.8587 -2.06468 -0.967201 0
M  V30 422 C 41.8427 -0.964376 -1.28797 0
M  V30 423 O 43.0347 -1.22797 -1.27475 0
M  V30 424 C 40.1637 -2.59203 -2.25097 0
M  V30 425 C 39.2497 -3.76157 -1.95874 0
M  V30 426 N 39.6407 -4.86919 -1.36905 0
M  V30 427 C 37.9387 -3.84566 -2.25887 0
M  V30 428 C 38.6397 -5.68172 -1.24724 0
M  V30 429 N 37.6157 -5.14953 -1.74138 0
M  V30 430 H 41.4177 -2.89508 -0.506176 0
M  V30 431 H 38.9317 -1.61399 -0.18004 0
M  V30 432 H 40.9287 -2.92517 -2.97052 0
M  V30 433 H 39.5887 -1.77592 -2.71829 0
M  V30 434 H 40.5997 -5.07256 -1.04459 0
M  V30 435 H 37.2767 -3.13854 -2.75321 0
M  V30 436 H 38.6667 -6.67221 -0.791605 0
M  V30 437 N 41.3868 0.248026 -1.55636 0
M  V30 438 C 42.7978 0.817177 -1.67866 0
M  V30 439 C 43.1488 1.86069 -0.622322 0
M  V30 440 O 42.2738 2.15157 0.231618 0
M  V30 441 C 42.8688 1.489 -3.04326 0
M  V30 442 C 41.4278 2.00587 -3.185 0
M  V30 443 C 40.5748 0.856573 -2.63739 0
M  V30 444 H 43.5258 0.0238579 -1.58682 0
M  V30 445 H 43.5468 2.35698 -2.98708 0
M  V30 446 H 43.0588 0.729279 -3.81186 0
M  V30 447 H 41.1598 2.79443 -2.4646 0
M  V30 448 H 41.2728 2.20402 -4.25393 0
M  V30 449 H 39.6368 1.25678 -2.21534 0
M  V30 450 H 40.4198 0.109953 -3.43124 0
M  V30 451 N 42.8649 1.48995 0.513639 0
M  V30 452 C 43.7979 1.59319 1.63379 0
M  V30 453 C 44.7759 0.442816 1.56454 0
M  V30 454 O 45.9599 0.656655 1.76693 0
M  V30 455 C 43.0869 1.5364 3.01848 0
M  V30 456 C 42.1329 2.7372 3.27078 0
M  V30 457 S 42.9659 4.35528 3.1157 0
M  V30 458 C 44.1219 4.32473 4.52458 0
M  V30 459 H 44.3549 2.54079 1.54374 0
M  V30 460 H 41.8879 1.3773 0.697849 0
M  V30 461 H 43.8459 1.51049 3.81699 0
M  V30 462 H 42.5069 0.601898 3.08279 0
M  V30 463 H 41.6999 2.6593 4.28132 0
M  V30 464 H 41.3019 2.73657 2.54927 0
M  V30 465 H 43.5939 4.03414 5.44301 0
M  V30 466 H 44.5369 5.33762 4.65299 0
M  V30 467 H 44.9449 3.62718 4.32546 0
M  V30 468 N 44.343 -0.763751 1.37857 0
M  V30 469 C 45.29 -1.87726 1.34267 0
M  V30 470 C 46.26 -1.64807 0.206879 0
M  V30 471 O 47.445 -1.86613 0.397508 0
M  V30 472 C 44.585 -3.24896 1.16346 0
M  V30 473 C 43.698 -3.59716 2.39225 0
M  V30 474 C 42.833 -4.86137 2.14114 0
M  V30 475 C 41.872 -5.13711 3.32817 0
M  V30 476 N 41.009 -6.31323 3.07206 0
M  V30 477 H 45.849 -1.90129 2.29466 0
M  V30 478 H 43.386 -0.929433 1.14017 0
M  V30 479 H 45.344 -4.04036 1.03975 0
M  V30 480 H 43.974 -3.21847 0.247909 0
M  V30 481 H 43.026 -2.75498 2.62307 0
M  V30 482 H 44.338 -3.76027 3.27728 0
M  V30 483 H 43.492 -5.73198 1.9882 0
M  V30 484 H 42.231 -4.71945 1.22961 0
M  V30 485 H 41.236 -4.25123 3.48641 0
M  V30 486 H 42.461 -5.29807 4.24832 0
M  V30 487 H 40.407 -6.18474 2.1869 0
M  V30 488 H 40.324 -6.48087 3.89254 0
M  V30 489 H 41.592 -7.213 2.95546 0
M  V30 490 N 45.8211 -1.22559 -0.990812 0
M  V30 491 C 47.2321 -1.04791 -1.54518 0
M  V30 492 C 47.5831 0.387998 -1.92325 0
M  V30 493 O 46.7081 1.27328 -1.74976 0
M  V30 494 C 47.3031 -1.896 -2.80779 0
M  V30 495 C 45.8621 -1.76124 -3.32652 0
M  V30 496 C 45.0091 -1.8594 -2.05722 0
M  V30 497 H 47.9601 -1.36374 -0.811662 0
M  V30 498 H 47.9811 -1.41464 -3.53225 0
M  V30 499 H 47.4931 -2.94101 -2.53231 0
M  V30 500 H 45.5941 -0.743643 -3.65104 0
M  V30 501 H 45.7071 -2.58913 -4.03114 0
M  V30 502 H 44.0711 -1.29403 -2.19379 0
M  V30 503 H 44.8541 -2.91976 -1.80568 0
M  V30 504 N 47.2992 1.18797 -1.03562 0
M  V30 505 C 48.2492 2.20161 -0.592724 0
M  V30 506 C 49.2332 1.56772 0.362133 0
M  V30 507 O 50.4252 1.76062 0.182009 0
M  V30 508 C 47.5542 3.43266 0.0481024 0
M  V30 509 C 46.6402 4.13786 -0.9296 0
M  V30 510 N 47.0312 4.60388 -2.09467 0
M  V30 511 C 45.3292 4.39572 -0.754499 0
M  V30 512 C 46.0302 5.14619 -2.71187 0
M  V30 513 N 45.0062 5.05826 -1.991 0
M  V30 514 H 48.8082 2.53877 -1.48066 0
M  V30 515 H 46.3222 1.34946 -0.903514 0
M  V30 516 H 48.3192 4.15136 0.383058 0
M  V30 517 H 46.9792 3.11048 0.931636 0
M  V30 518 H 47.9902 4.54999 -2.47379 0
M  V30 519 H 44.6672 4.17425 0.0793713 0
M  V30 520 H 46.0572 5.60917 -3.69895 0
M  V30 521 N 48.7773 0.814389 1.34928 0
M  V30 522 C 50.1933 0.499084 1.51596 0
M  V30 523 C 50.3933 -0.978319 1.76157 0
M  V30 524 O 49.4493 -1.76309 1.80752 0
M  V30 525 C 50.7623 1.35121 2.68631 0
M  V30 526 C 52.3103 1.34746 2.82511 0
M  V30 527 C 52.7853 2.18388 4.0258 0
M  V30 528 N 54.2763 2.15966 4.09772 0
M  V30 529 C 55.0113 2.77437 5.01813 0
M  V30 530 N 54.5073 3.47866 5.99134 0
M  V30 531 N 56.3003 2.67037 4.94619 0
M  V30 532 H 48.4513 1.7711 1.17243 0
M  V30 533 H 50.7143 0.754256 0.574284 0
M  V30 534 H 50.4203 2.40001 2.57085 0
M  V30 535 H 50.2943 1.00991 3.63429 0
M  V30 536 H 52.6813 0.30648 2.93504 0
M  V30 537 H 52.7623 1.72869 1.88547 0
M  V30 538 H 52.4063 3.2253 3.92347 0
M  V30 539 H 52.3363 1.77621 4.9574 0
M  V30 540 H 54.8273 1.64729 3.40107 0
M  V30 541 H 55.1403 3.92038 6.65977 0
M  V30 542 H 53.4853 3.51972 5.99284 0
M  V30 543 H 56.6763 2.11597 4.17546 0
M  V30 544 H 56.8493 3.15232 5.66156 0
M  V30 545 N 50.2554 -1.46986 0.568584 0
M  V30 546 C 51.5044 -2.01646 0.0465894 0
M  V30 547 C 51.8174 -1.44721 -1.31587 0
M  V30 548 O 53.0234 -1.91113 -1.92842 0
M  V30 549 C 51.4794 -3.59885 0.032752 0
M  V30 550 C 51.0874 -4.25804 1.39266 0
M  V30 551 C 52.8314 -4.22255 -0.436038 0
M  V30 552 C 50.7384 -5.76081 1.33732 0
M  V30 553 H 49.6684 -0.753876 0.013647 0
M  V30 554 H 52.3194 -1.68864 0.718131 0
M  V30 555 H 50.7014 -3.8968 -0.704669 0
M  V30 556 H 51.8754 -4.07637 2.1487 0
M  V30 557 H 50.1904 -3.7547 1.80032 0
M  V30 558 H 52.7874 -5.32394 -0.49602 0
M  V30 559 H 53.1304 -3.90212 -1.45053 0
M  V30 560 H 53.6634 -3.97033 0.246877 0
M  V30 561 H 50.4024 -6.12761 2.32817 0
M  V30 562 H 49.9224 -5.96553 0.623267 0
M  V30 563 H 51.6014 -6.38518 1.0442 0
M  V30 564 N 51.7335 -0.305618 -1.54608 0
M  V30 565 C 53.1495 0.0476228 -1.59529 0
M  V30 566 C 53.3495 1.52025 -1.32252 0
M  V30 567 O 52.4055 2.27368 -1.09818 0
M  V30 568 C 53.7185 -0.354471 -2.98603 0
M  V30 569 C 55.2665 -0.303622 -3.11524 0
M  V30 570 C 55.7415 -0.680608 -4.52915 0
M  V30 571 N 57.2325 -0.63332 -4.5885 0
M  V30 572 C 57.9675 -0.897432 -5.66334 0
M  V30 573 N 57.4635 -1.22775 -6.81834 0
M  V30 574 N 59.2565 -0.824186 -5.56025 0
M  V30 575 H 51.4075 -1.2653 -1.70599 0
M  V30 576 H 53.6705 -0.513291 -0.797017 0
M  V30 577 H 53.3765 -1.3798 -3.23503 0
M  V30 578 H 53.2505 0.289568 -3.76087 0
M  V30 579 H 55.6375 0.712472 -2.8637 0
M  V30 580 H 55.7185 -0.982348 -2.36185 0
M  V30 581 H 55.3625 -1.69453 -4.78799 0
M  V30 582 H 55.2925 0.0202385 -5.26596 0
M  V30 583 H 57.7835 -0.389138 -3.75891 0
M  V30 584 H 58.0965 -1.41513 -7.59733 0
M  V30 585 H 56.4415 -1.26583 -6.83375 0
M  V30 586 H 59.6325 -0.565748 -4.64669 0
M  V30 587 H 59.8055 -1.03338 -6.39707 0
M  V30 588 N 53.2116 1.57565 -0.0334293 0
M  V30 589 C 54.1446 2.05997 0.981866 0
M  V30 590 C 55.1226 0.956647 1.3148 0
M  V30 591 O 56.3066 1.22729 1.43073 0
M  V30 592 C 53.4336 2.48564 2.30074 0
M  V30 593 C 52.4796 3.69958 2.12211 0
M  V30 594 S 53.3126 5.16414 1.41692 0
M  V30 595 C 54.4686 5.6228 2.7494 0
M  V30 596 H 54.7016 2.91792 0.569612 0
M  V30 597 H 52.2346 1.53366 0.178376 0
M  V30 598 H 54.1926 2.73753 3.05892 0
M  V30 599 H 52.8536 1.63106 2.68431 0
M  V30 600 H 52.0466 3.97603 3.09722 0
M  V30 601 H 51.6486 3.44943 1.44535 0
M  V30 602 H 53.9406 5.66783 3.71165 0
M  V30 603 H 54.8836 6.61759 2.51953 0
M  V30 604 H 55.2916 4.89944 2.80384 0
M  V30 605 N 54.6897 -0.239769 1.55765 0
M  V30 606 C 55.9177 -0.98417 1.81994 0
M  V30 607 C 56.3327 -1.7867 0.610124 0
M  V30 608 O 55.6897 -1.77571 -0.421271 0
M  V30 609 C 55.7407 -1.91635 3.06526 0
M  V30 610 O 55.4617 -1.14629 4.22838 0
M  V30 611 C 56.9627 -2.77616 3.45607 0
M  V30 612 H 54.1827 -0.28928 0.605441 0
M  V30 613 H 56.7267 -0.260499 2.02834 0
M  V30 614 H 54.8817 -2.5942 2.87715 0
M  V30 615 H 55.2957 -1.77745 4.93464 0
M  V30 616 H 56.7697 -3.38759 4.35828 0
M  V30 617 H 57.2467 -3.4909 2.6652 0
M  V30 618 H 57.8527 -2.15271 3.66795 0
M  V30 619 N 56.1678 -1.49265 -0.50573 0
M  V30 620 C 57.1178 -1.6198 -1.60457 0
M  V30 621 C 58.1018 -0.47568 -1.53708 0
M  V30 622 O 59.2938 -0.728392 -1.61318 0
M  V30 623 C 56.4228 -1.68526 -2.99089 0
M  V30 624 C 55.5088 -2.885 -3.10852 0
M  V30 625 N 55.8998 -4.12635 -2.92517 0
M  V30 626 C 54.1978 -2.86338 -3.41945 0
M  V30 627 C 54.8988 -4.93258 -3.08337 0
M  V30 628 N 53.8748 -4.26533 -3.37003 0
M  V30 629 H 57.6768 -2.55681 -1.44928 0
M  V30 630 H 55.1908 -1.45972 -0.711752 0
M  V30 631 H 57.1878 -1.75732 -3.78053 0
M  V30 632 H 55.8478 -0.759584 -3.1569 0
M  V30 633 H 56.8588 -4.42689 -2.68787 0
M  V30 634 H 53.5358 -2.03129 -3.64753 0
M  V30 635 H 54.9258 -6.01856 -2.98695 0
M  V30 636 N 57.6459 0.756429 -1.3826 0
M  V30 637 C 58.5939 1.89149 -1.35372 0
M  V30 638 C 59.5879 1.67691 -0.24004 0
M  V30 639 O 60.7939 1.75294 -0.408919 0
M  V30 640 H 57.1689 0.622271 -0.422236 0
M  V30 641 H 59.1399 1.88701 -2.31159 0
M  V30 642 C 57.8889 3.26599 -1.19284 0
M  V30 643 H 57.2119 3.43695 -2.0424 0
M  V30 644 H 58.6519 4.06274 -1.21316 0
M  V30 645 C 57.1109 3.3675 0.100454 0
M  V30 646 O 57.6409 3.86951 1.07851 0
M  V30 647 N 55.8469 2.90179 0.15633 0
M  V30 648 H 55.3939 2.49517 -0.640253 0
M  V30 649 H 55.3519 2.97352 1.02123 0
M  V30 650 N 59.124 1.23083 0.984299 0
M  V30 651 C 60.054 1.03292 2.09411 0
M  V30 652 C 61.035 -0.048923 1.7003 0
M  V30 653 O 62.22 0.114967 1.93859 0
M  V30 654 C 59.35 0.619155 3.41736 0
M  V30 655 C 58.304 1.64791 3.95004 0
M  V30 656 C 57.63 1.0897 5.23478 0
M  V30 657 C 58.93 3.03999 4.24714 0
M  V30 658 H 60.624 1.96119 2.26225 0
M  V30 659 H 58.17 0.944344 1.08711 0
M  V30 660 H 60.123 0.467777 4.18796 0
M  V30 661 H 58.847 -0.344786 3.24775 0
M  V30 662 H 57.506 1.78721 3.20085 0
M  V30 663 H 57.154 0.11686 5.02864 0
M  V30 664 H 56.854 1.77704 5.60085 0
M  V30 665 H 58.378 0.950093 6.03163 0
M  V30 666 H 59.792 2.93393 4.92538 0
M  V30 667 H 58.189 3.69936 4.72512 0
M  V30 668 H 59.259 3.53285 3.32142 0
M  V30 669 N 60.6021 -1.18246 1.0419 0
M  V30 670 C 61.5321 -2.24127 0.654914 0
M  V30 671 C 62.5131 -1.66617 -0.342451 0
M  V30 672 O 63.6981 -1.92924 -0.222277 0
M  V30 673 C 60.8281 -3.47295 0.0183757 0
M  V30 674 C 59.7821 -4.17563 0.939414 0
M  V30 675 C 59.1081 -5.34438 0.167286 0
M  V30 676 C 60.4081 -4.70917 2.25908 0
M  V30 677 H 62.1021 -2.56753 1.54007 0
M  V30 678 H 59.6481 -1.23414 0.74195 0
M  V30 679 H 61.6011 -4.20572 -0.264082 0
M  V30 680 H 60.3251 -3.13907 -0.901664 0
M  V30 681 H 58.9841 -3.46186 1.20628 0
M  V30 682 H 58.6321 -4.97298 -0.7552 0
M  V30 683 H 58.3321 -5.82388 0.780901 0
M  V30 684 H 59.8561 -6.10504 -0.108125 0
M  V30 685 H 61.2701 -5.35882 2.03724 0
M  V30 686 H 59.6671 -5.29406 2.82577 0
M  V30 687 H 60.7371 -3.88272 2.9047 0
M  V30 688 N 62.0802 -0.821533 -1.34494 0
M  V30 689 C 63.0102 -0.257138 -2.3208 0
M  V30 690 C 63.9912 0.625645 -1.58176 0
M  V30 691 O 65.1762 0.552811 -1.86166 0
M  V30 692 C 62.3062 0.582958 -3.42372 0
M  V30 693 C 61.2602 -0.202571 -4.2752 0
M  V30 694 C 60.5862 0.760179 -5.29269 0
M  V30 695 C 61.8862 -1.40998 -5.02908 0
M  V30 696 H 63.5802 -1.07247 -2.79532 0
M  V30 697 H 61.1262 -0.517163 -1.34393 0
M  V30 698 H 63.0792 0.987972 -4.09655 0
M  V30 699 H 61.8032 1.43133 -2.93565 0
M  V30 700 H 60.4622 -0.588936 -3.61838 0
M  V30 701 H 60.1102 1.60447 -4.76724 0
M  V30 702 H 59.8102 0.238809 -5.87115 0
M  V30 703 H 61.3342 1.16308 -5.9942 0
M  V30 704 H 62.7482 -1.07905 -5.63054 0
M  V30 705 H 61.1452 -1.86689 -5.70322 0
M  V30 706 H 62.2152 -2.1889 -4.32684 0
M  V30 707 N 63.5583 1.46682 -0.576371 0
M  V30 708 C 64.5063 2.31953 0.17335 0
M  V30 709 C 65.5003 1.44098 0.89062 0
M  V30 710 O 66.7063 1.60759 0.809728 0
M  V30 711 H 63.0813 0.748273 0.0747727 0
M  V30 712 H 65.0523 2.93007 -0.564738 0
M  V30 713 C 63.8013 3.27142 1.17786 0
M  V30 714 H 63.1243 3.94719 0.635361 0
M  V30 715 H 64.5643 3.896 1.67296 0
M  V30 716 C 63.0233 2.52036 2.23561 0
M  V30 717 O 63.5533 2.27877 3.3081 0
M  V30 718 N 61.7593 2.12709 1.97998 0
M  V30 719 H 61.3063 2.32557 1.10792 0
M  V30 720 H 61.2643 1.62776 2.68982 0
M  V30 721 N 65.0364 0.313813 1.54444 0
M  V30 722 C 66.2664 -0.293491 2.04505 0
M  V30 723 C 66.6744 -1.47086 1.19005 0
M  V30 724 O 66.0174 -1.82481 0.211257 0
M  V30 725 C 66.0794 -0.800455 3.50475 0
M  V30 726 C 65.7434 0.253322 4.56297 0
M  V30 727 C 66.7404 1.08612 5.08428 0
M  V30 728 C 64.4254 0.398708 5.00715 0
M  V30 729 C 66.4194 2.05013 6.0353 0
M  V30 730 C 64.1064 1.36614 5.95634 0
M  V30 731 C 65.1044 2.19033 6.46926 0
M  V30 732 O 64.7924 3.14134 7.39983 0
M  V30 733 H 64.5244 -0.0658325 0.672787 0
M  V30 734 H 67.0784 0.455177 2.00293 0
M  V30 735 H 65.3084 -1.59987 3.52053 0
M  V30 736 H 66.9974 -1.32504 3.83663 0
M  V30 737 H 67.7634 0.984736 4.74898 0
M  V30 738 H 63.6424 -0.23289 4.60411 0
M  V30 739 H 67.1864 2.69382 6.4349 0
M  V30 740 H 63.0834 1.4682 6.28581 0
M  V30 741 H 63.8514 3.0926 7.57826 0
M  V30 742 N 66.5145 -1.57545 0.0417849 0
M  V30 743 C 67.7625 -1.91937 -0.632829 0
M  V30 744 C 68.0835 -0.919978 -1.71934 0
M  V30 745 O 67.3535 0.0366064 -1.95866 0
M  V30 746 H 65.9335 -0.708493 -0.236742 0
M  V30 747 H 68.5955 -1.9468 0.0925745 0
M  V30 748 H 67.6915 -2.92912 -1.07746 0
M  V30 749 N 67.9926 0.231505 -1.5589 0
M  V30 750 C 68.9226 1.29022 -1.94617 0
M  V30 751 C 69.9036 1.4941 -0.813067 0
M  V30 752 O 71.0886 1.6176 -1.07459 0
M  V30 753 C 68.2186 2.64199 -2.25424 0
M  V30 754 C 67.1726 2.58484 -3.41131 0
M  V30 755 C 66.4986 3.97599 -3.57518 0
M  V30 756 C 67.7986 2.1413 -4.76388 0
M  V30 757 H 69.4926 0.968563 -2.83301 0
M  V30 758 H 67.0386 0.464479 -1.36303 0
M  V30 759 H 68.9916 3.38413 -2.51107 0
M  V30 760 H 67.7156 2.98032 -1.33583 0
M  V30 761 H 66.3746 1.86727 -3.15481 0
M  V30 762 H 66.0226 4.28723 -2.6307 0
M  V30 763 H 65.7226 3.94659 -4.35337 0
M  V30 764 H 67.2466 4.7349 -3.85538 0
M  V30 765 H 68.6606 2.78083 -5.01341 0
M  V30 766 H 67.0576 2.2227 -5.57419 0
M  V30 767 H 68.1276 1.09331 -4.72414 0
M  V30 768 N 69.4707 1.49531 0.497807 0
M  V30 769 C 70.7007 1.62657 1.27382 0
M  V30 770 C 71.1087 0.298488 1.86831 0
M  V30 771 O 70.4517 -0.72647 1.68725 0
M  V30 772 C 70.5137 2.6393 2.44093 0
M  V30 773 C 70.1777 4.08195 2.05489 0
M  V30 774 C 71.1747 4.949 1.59279 0
M  V30 775 C 68.8597 4.53948 2.15026 0
M  V30 776 C 70.8537 6.25397 1.23113 0
M  V30 777 C 68.5407 5.84458 1.78473 0
M  V30 778 C 69.5387 6.70006 1.32591 0
M  V30 779 O 69.2267 7.98083 0.965327 0
M  V30 780 H 68.9587 0.550429 0.392434 0
M  V30 781 H 71.5127 1.96325 0.603801 0
M  V30 782 H 69.7427 2.25449 3.14181 0
M  V30 783 H 71.4317 2.66552 3.06113 0
M  V30 784 H 72.1977 4.60779 1.51354 0
M  V30 785 H 68.0767 3.87525 2.4969 0
M  V30 786 H 71.6207 6.92125 0.872299 0
M  V30 787 H 67.5177 6.18107 1.86048 0
M  V30 788 H 68.2857 8.11122 1.09652 0
M  V30 789 N 70.9488 -0.749086 1.3866 0
M  V30 790 C 72.3648 -1.05276 1.19955 0
M  V30 791 C 72.5648 -2.01435 0.05134 0
M  V30 792 O 71.6208 -2.45232 -0.60147 0
M  V30 793 C 72.9338 -1.62853 2.52783 0
M  V30 794 C 74.4818 -1.75002 2.59506 0
M  V30 795 C 74.9568 -2.35991 3.92521 0
M  V30 796 N 76.4478 -2.43416 3.94085 0
M  V30 797 C 77.1828 -2.91511 4.9377 0
M  V30 798 N 76.6788 -3.39608 6.03853 0
M  V30 799 N 78.4718 -2.90592 4.81157 0
M  V30 800 H 70.6228 -0.111066 2.12109 0
M  V30 801 H 72.8858 -0.111901 0.941373 0
M  V30 802 H 72.5918 -0.99664 3.37283 0
M  V30 803 H 72.4658 -2.61854 2.715 0
M  V30 804 H 74.8528 -2.37317 1.75398 0
M  V30 805 H 74.9338 -0.74693 2.44652 0
M  V30 806 H 74.5778 -1.74308 4.77053 0
M  V30 807 H 74.5078 -3.3695 4.04688 0
M  V30 808 H 76.9988 -2.09405 3.14576 0
M  V30 809 H 77.3118 -3.74775 6.75843 0
M  V30 810 H 75.6568 -3.37653 6.07466 0
M  V30 811 H 78.8478 -2.52332 3.94267 0
M  V30 812 H 79.0208 -3.27762 5.58996 0
M  V30 813 N 72.4269 -1.23603 -0.977757 0
M  V30 814 C 73.3739 -1.01954 -2.07061 0
M  V30 815 C 74.3439 0.0638697 -1.65977 0
M  V30 816 O 75.5289 -0.0887624 -1.90593 0
M  V30 817 C 72.6689 -0.619658 -3.39491 0
M  V30 818 C 71.7819 -1.77547 -3.93829 0
M  V30 819 C 70.9169 -1.32212 -5.14484 0
M  V30 820 C 69.9559 -2.44852 -5.60994 0
M  V30 821 N 69.0929 -2.00456 -6.72876 0
M  V30 822 H 73.9329 -1.95495 -2.24913 0
M  V30 823 H 71.4699 -0.973861 -1.10247 0
M  V30 824 H 73.4279 -0.368898 -4.15566 0
M  V30 825 H 72.0579 0.278752 -3.21594 0
M  V30 826 H 71.1099 -2.14016 -3.14486 0
M  V30 827 H 72.4219 -2.62219 -4.24314 0
M  V30 828 H 71.5759 -1.02965 -5.97899 0
M  V30 829 H 70.3149 -0.445808 -4.85658 0
M  V30 830 H 69.3199 -2.74871 -4.76157 0
M  V30 831 H 70.5449 -3.33024 -5.91837 0
M  V30 832 H 68.4909 -1.15208 -6.45804 0
M  V30 833 H 68.4079 -2.78687 -7.02759 0
M  V30 834 H 69.6759 -1.7432 -7.59758 0
M  V30 835 N 73.905 1.17692 -1.04816 0
M  V30 836 C 74.838 2.20436 -0.590173 0
M  V30 837 C 75.816 1.58115 0.379244 0
M  V30 838 O 77 1.86228 0.291762 0
M  V30 839 C 74.127 3.38424 0.136817 0
M  V30 840 C 73.173 4.19176 -0.787023 0
M  V30 841 S 74.006 4.84815 -2.27409 0
M  V30 842 C 75.162 6.06195 -1.55817 0
M  V30 843 H 75.395 2.58944 -1.46067 0
M  V30 844 H 72.928 1.28246 -0.859784 0
M  V30 845 H 74.886 4.06798 0.550076 0
M  V30 846 H 73.547 2.98312 0.983299 0
M  V30 847 H 72.74 5.03499 -0.224681 0
M  V30 848 H 72.342 3.56219 -1.13947 0
M  V30 849 H 74.634 6.72078 -0.855387 0
M  V30 850 H 75.577 6.6695 -2.37873 0
M  V30 851 H 75.985 5.54701 -1.04722 0
M  V30 852 N 75.3831 0.828654 1.34056 0
M  V30 853 C 76.2931 0.256725 2.33191 0
M  V30 854 C 77.3091 -0.611898 1.62886 0
M  V30 855 O 78.4851 -0.51844 1.94613 0
M  V30 856 C 75.5501 -0.567238 3.42028 0
M  V30 857 C 74.6111 0.324458 4.28072 0
M  V30 858 C 73.8441 -0.460274 5.31712 0
M  V30 859 O 74.0671 -1.693 5.44696 0
M  V30 860 O 73.0011 0.160391 6.01686 0
M  V30 861 H 76.8271 1.07739 2.83947 0
M  V30 862 H 74.4121 0.59093 1.37217 0
M  V30 863 H 76.2941 -1.03582 4.08471 0
M  V30 864 H 74.9691 -1.36513 2.93506 0
M  V30 865 H 73.8761 0.840659 3.64532 0
M  V30 866 H 75.2091 1.08685 4.8005 0
M  V30 867 N 76.8612 -1.46375 0.584142 0
M  V30 868 C 78.1102 -2.01585 0.0679741 0
M  V30 869 C 78.4232 -1.46109 -1.30045 0
M  V30 870 O 79.6292 -1.93148 -1.90804 0
M  V30 871 C 78.0852 -3.5983 0.0709207 0
M  V30 872 C 77.6932 -4.24303 1.43775 0
M  V30 873 C 79.4372 -4.22693 -0.391228 0
M  V30 874 C 77.3442 -5.74631 1.39834 0
M  V30 875 H 76.2742 -0.753689 0.0216421 0
M  V30 876 H 78.9252 -1.68093 0.736001 0
M  V30 877 H 77.3072 -3.90405 -0.663299 0
M  V30 878 H 78.4812 -4.05335 2.19181 0
M  V30 879 H 76.7962 -3.73539 1.84004 0
M  V30 880 H 79.3932 -5.3289 -0.439524 0
M  V30 881 H 79.7362 -3.91728 -1.40906 0
M  V30 882 H 80.2692 -3.96749 0.288974 0
M  V30 883 H 77.0082 -6.10258 2.39303 0
M  V30 884 H 76.5282 -5.95858 0.686505 0
M  V30 885 H 78.2072 -6.37375 1.11187 0
M  V30 886 N 78.3393 -0.321999 -1.54275 0
M  V30 887 C 79.5693 0.282642 -2.04658 0
M  V30 888 C 79.9773 1.46453 -1.19784 0
M  V30 889 O 79.3203 1.82367 -0.220932 0
M  V30 890 C 79.3823 0.781857 -3.50895 0
M  V30 891 C 79.0463 -0.277517 -4.56157 0
M  V30 892 C 80.0433 -1.11307 -5.07845 0
M  V30 893 C 77.7283 -0.425256 -5.00497 0
M  V30 894 C 79.7223 -2.08211 -6.02434 0
M  V30 895 C 77.4093 -1.39771 -5.94901 0
M  V30 896 C 78.4073 -2.2246 -6.45756 0
M  V30 897 O 78.0953 -3.18054 -7.38307 0
M  V30 898 H 77.8273 0.0622636 -0.673126 0
M  V30 899 H 80.3813 -0.465792 -2.00049 0
M  V30 900 H 78.6113 1.58118 -3.52896 0
M  V30 901 H 80.3003 1.30467 -3.84361 0
M  V30 902 H 81.0663 -1.00991 -4.74369 0
M  V30 903 H 76.9453 0.20847 -4.60528 0
M  V30 904 H 80.4893 -2.72791 -6.42052 0
M  V30 905 H 76.3863 -1.50152 -6.27794 0
M  V30 906 H 77.1543 -3.13275 -7.56175 0
M  V30 907 N 79.8174 1.5752 -0.0501392 0
M  V30 908 C 81.2334 1.56631 0.306402 0
M  V30 909 C 81.4334 1.0577 1.71508 0
M  V30 910 O 80.4894 0.713837 2.422 0
M  V30 911 C 81.8024 3.00393 0.135811 0
M  V30 912 C 83.3504 3.12315 0.206993 0
M  V30 913 C 83.8254 4.57954 0.064944 0
M  V30 914 N 85.3164 4.63041 0.121254 0
M  V30 915 C 86.0514 5.73389 0.0354381 0
M  V30 916 N 85.5474 6.92724 -0.102666 0
M  V30 917 N 87.3404 5.62026 0.090946 0
M  V30 918 H 79.4914 1.88903 -0.971046 0
M  V30 919 H 81.7544 0.869876 -0.376855 0
M  V30 920 H 81.4604 3.41635 -0.835384 0
M  V30 921 H 81.3344 3.66373 0.897275 0
M  V30 922 H 83.7214 2.70973 1.16866 0
M  V30 923 H 83.8024 2.49016 -0.585208 0
M  V30 924 H 83.4464 4.99981 -0.893394 0
M  V30 925 H 83.3764 5.19258 0.876277 0
M  V30 926 H 85.8674 3.77216 0.227284 0
M  V30 927 H 86.1804 7.72633 -0.160882 0
M  V30 928 H 84.5254 6.94864 -0.137737 0
M  V30 929 H 87.7164 4.67684 0.197388 0
M  V30 930 H 87.8894 6.47997 0.0206089 0
M  V30 931 N 81.2955 -0.223234 1.56011 0
M  V30 932 C 82.7065 -0.790368 1.69145 0
M  V30 933 C 83.0575 -1.85055 0.651845 0
M  V30 934 O 82.1825 -2.15498 -0.197359 0
M  V30 935 C 82.7775 -1.4404 3.06656 0
M  V30 936 C 81.3365 -1.95494 3.2165 0
M  V30 937 C 80.4835 -0.814506 2.65068 0
M  V30 938 H 83.4345 0.00139011 1.587 0
M  V30 939 H 83.4555 -2.30916 3.0242 0
M  V30 940 H 82.9675 -0.668543 3.82298 0
M  V30 941 H 81.0685 -2.75487 2.50874 0
M  V30 942 H 81.1815 -2.13607 4.28846 0
M  V30 943 H 79.5455 -1.22137 2.23505 0
M  V30 944 H 80.3285 -0.0553515 3.43255 0
M  V30 945 N 82.7736 -1.49793 -0.48987 0
M  V30 946 C 83.7236 -1.63673 -1.5873 0
M  V30 947 C 84.7076 -0.491956 -1.53195 0
M  V30 948 O 85.8996 -0.745461 -1.60536 0
M  V30 949 C 83.0286 -1.71689 -2.97284 0
M  V30 950 C 82.1146 -2.91781 -3.07774 0
M  V30 951 N 82.5056 -4.15714 -2.88124 0
M  V30 952 C 80.8036 -2.89949 -3.38889 0
M  V30 953 C 81.5046 -4.965 -3.03088 0
M  V30 954 N 80.4806 -4.30083 -3.3246 0
M  V30 955 H 84.2826 -2.57204 -1.42208 0
M  V30 956 H 81.7966 -1.46719 -0.69623 0
M  V30 957 H 83.7936 -1.79732 -3.76168 0
M  V30 958 H 82.4536 -0.793024 -3.14867 0
M  V30 959 H 83.4646 -4.45515 -2.64077 0
M  V30 960 H 80.1416 -2.06987 -3.62578 0
M  V30 961 H 81.5316 -6.04991 -2.92294 0
M  V30 962 N 84.2517 0.741722 -1.39055 0
M  V30 963 C 85.1987 1.85566 -1.37237 0
M  V30 964 C 86.1687 1.64457 -0.233072 0
M  V30 965 O 87.3537 1.85957 -0.427147 0
M  V30 966 C 84.4937 3.23004 -1.215 0
M  V30 967 C 83.6067 3.55864 -2.44918 0
M  V30 968 C 82.7417 4.82669 -2.21821 0
M  V30 969 C 81.7807 5.08351 -3.40948 0
M  V30 970 N 80.9177 6.26356 -3.17211 0
M  V30 971 H 85.7577 1.86455 -2.32462 0
M  V30 972 H 83.2947 0.911176 -1.15482 0
M  V30 973 H 85.2527 4.02331 -1.10389 0
M  V30 974 H 83.8827 3.21411 -0.29908 0
M  V30 975 H 82.9347 2.7129 -2.66657 0
M  V30 976 H 84.2467 3.70765 -3.33668 0
M  V30 977 H 83.4007 5.69962 -2.07914 0
M  V30 978 H 82.1397 4.69929 -1.30454 0
M  V30 979 H 81.1447 4.19522 -3.55361 0
M  V30 980 H 82.3697 5.22981 -4.33207 0
M  V30 981 H 80.3157 6.14917 -2.28502 0
M  V30 982 H 80.2327 6.41813 -3.99515 0
M  V30 983 H 81.5007 7.16506 -3.06984 0
M  V30 984 N 85.7298 1.2412 0.971189 0
M  V30 985 C 86.6928 1.03156 2.04674 0
M  V30 986 C 87.6928 -0.00990322 1.60797 0
M  V30 987 O 88.8828 0.230729 1.72665 0
M  V30 988 C 86.0148 0.562765 3.36223 0
M  V30 989 H 87.2078 1.98614 2.24705 0
M  V30 990 H 84.7608 1.06293 1.14593 0
M  V30 991 H 85.4958 -0.395176 3.21883 0
M  V30 992 H 85.2808 1.31441 3.69413 0
M  V30 993 H 86.7708 0.437015 4.15307 0
M  V30 994 N 87.2079 -1.17134 1.05439 0
M  V30 995 C 88.1559 -2.23289 0.651511 0
M  V30 996 C 89.1499 -1.66186 -0.328411 0
M  V30 997 O 90.3559 -1.78949 -0.194206 0
M  V30 998 H 86.7309 -0.726938 0.192523 0
M  V30 999 H 88.7019 -2.54565 1.55689 0
M  V30 1000 C 87.4509 -3.47671 0.0448436 0
M  V30 1001 H 86.7739 -3.91918 0.78996 0
M  V30 1002 H 88.2139 -4.2353 -0.19964 0
M  V30 1003 C 86.6729 -3.14453 -1.20918 0
M  V30 1004 O 87.2029 -3.29459 -2.29825 0
M  V30 1005 N 85.4089 -2.68657 -1.10779 0
M  V30 1006 H 84.9559 -2.56646 -0.221526 0
M  V30 1007 H 84.9139 -2.46804 -1.9477 0
M  V30 1008 N 88.686 -0.835752 -1.33615 0
M  V30 1009 C 89.649 -0.272 -2.2758 0
M  V30 1010 C 90.649 0.557487 -1.50827 0
M  V30 1011 O 91.839 0.37173 -1.70188 0
M  V30 1012 C 88.971 0.617173 -3.35267 0
M  V30 1013 H 90.164 -1.10111 -2.78954 0
M  V30 1014 H 87.717 -0.608594 -1.43965 0
M  V30 1015 H 88.452 1.46884 -2.89129 0
M  V30 1016 H 88.237 0.0237066 -3.92093 0
M  V30 1017 H 89.727 1.005 -4.05326 0
M  V30 1018 N 90.1641 1.46063 -0.591896 0
M  V30 1019 C 91.0741 2.34192 0.13831 0
M  V30 1020 C 92.0901 1.50305 0.876608 0
M  V30 1021 O 93.2661 1.8315 0.837728 0
M  V30 1022 C 90.3311 3.27656 1.13326 0
M  V30 1023 C 89.3921 4.27445 0.39863 0
M  V30 1024 C 88.6251 5.16443 1.34618 0
M  V30 1025 O 88.8481 5.08553 2.58321 0
M  V30 1026 O 87.7821 5.95843 0.851768 0
M  V30 1027 H 91.6081 2.98002 -0.58552 0
M  V30 1028 H 89.1931 1.45188 -0.352239 0
M  V30 1029 H 91.0751 3.85291 1.70671 0
M  V30 1030 H 89.7501 2.6643 1.83839 0
M  V30 1031 H 88.6571 3.73471 -0.216895 0
M  V30 1032 H 89.9901 4.91482 -0.265709 0
M  V30 1033 N 91.6422 0.330177 1.54103 0
M  V30 1034 C 92.5522 -0.541534 2.28264 0
M  V30 1035 C 93.5682 -1.12351 1.32866 0
M  V30 1036 O 94.7442 -1.14206 1.65888 0
M  V30 1037 C 91.8092 -1.68322 3.03098 0
M  V30 1038 C 90.8702 -1.13238 4.14096 0
M  V30 1039 C 90.1032 -2.21966 4.85352 0
M  V30 1040 O 90.3262 -3.42437 4.56172 0
M  V30 1041 O 89.2602 -1.87013 5.7211 0
M  V30 1042 H 93.0862 0.060938 3.03639 0
M  V30 1043 H 90.6712 0.09565 1.49093 0
M  V30 1044 H 92.5532 -2.34777 3.49939 0
M  V30 1045 H 91.2282 -2.27176 2.30593 0
M  V30 1046 H 90.1352 -0.432736 3.71589 0
M  V30 1047 H 91.4682 -0.588898 4.88664 0
M  V30 1048 N 93.1203 -1.57491 0.0584922 0
M  V30 1049 C 94.0533 -2.07533 -0.948969 0
M  V30 1050 C 95.0313 -0.977444 -1.29942 0
M  V30 1051 O 96.2153 -1.2499 -1.41102 0
M  V30 1052 C 93.3423 -2.52192 -2.2609 0
M  V30 1053 C 92.3883 -3.73287 -2.06298 0
M  V30 1054 S 93.2213 -5.18603 -1.33459 0
M  V30 1055 C 94.3773 -5.66583 -2.65959 0
M  V30 1056 H 94.6103 -2.92662 -0.523118 0
M  V30 1057 H 92.1433 -1.53631 -0.153954 0
M  V30 1058 H 94.1013 -2.78585 -3.01498 0
M  V30 1059 H 92.7623 -1.67356 -2.65802 0
M  V30 1060 H 91.9553 -4.0248 -3.03357 0
M  V30 1061 H 91.5573 -3.47199 -1.39029 0
M  V30 1062 H 93.8493 -5.72616 -3.62101 0
M  V30 1063 H 94.7923 -6.65684 -2.41393 0
M  V30 1064 H 95.2003 -4.94342 -2.72554 0
M  V30 1065 N 94.5984 0.214957 -1.56127 0
M  V30 1066 C 95.8264 0.955092 -1.83536 0
M  V30 1067 C 96.2414 1.77677 -0.638472 0
M  V30 1068 O 95.5984 1.78219 0.392968 0
M  V30 1069 C 95.6494 1.86734 -3.09536 0
M  V30 1070 O 95.3704 1.07887 -4.24608 0
M  V30 1071 C 96.8714 2.72082 -3.4998 0
M  V30 1072 H 94.0914 0.279611 -0.609966 0
M  V30 1073 H 96.6354 0.228197 -2.03223 0
M  V30 1074 H 94.7904 2.5481 -2.91806 0
M  V30 1075 H 95.2044 1.69872 -4.9623 0
M  V30 1076 H 96.6784 3.31782 -4.41163 0
M  V30 1077 H 97.1554 3.44806 -2.7204 0
M  V30 1078 H 97.7614 2.09409 -3.70173 0
M  V30 1079 N 96.0765 1.50051 0.48192 0
M  V30 1080 C 97.0235 1.68122 1.58125 0
M  V30 1081 C 97.9935 0.522545 1.57666 0
M  V30 1082 O 99.1785 0.751844 1.75362 0
M  V30 1083 C 96.3185 1.77142 2.96167 0
M  V30 1084 C 95.4315 3.0444 3.06497 0
M  V30 1085 C 94.5665 3.04321 4.35387 0
M  V30 1086 C 93.6055 4.26118 4.3942 0
M  V30 1087 N 92.7425 4.238 5.59766 0
M  V30 1088 H 97.5825 2.6198 1.42022 0
M  V30 1089 H 95.1195 1.29877 0.690687 0
M  V30 1090 H 97.0775 1.80352 3.76203 0
M  V30 1091 H 95.7075 0.867329 3.1093 0
M  V30 1092 H 94.7595 3.10752 2.19402 0
M  V30 1093 H 96.0715 3.94426 3.05336 0
M  V30 1094 H 95.2255 3.062 5.23762 0
M  V30 1095 H 93.9645 2.12147 4.39141 0
M  V30 1096 H 92.9695 4.24463 3.49444 0
M  V30 1097 H 94.1945 5.19507 4.37366 0
M  V30 1098 H 92.1405 3.34474 5.64326 0
M  V30 1099 H 92.0575 5.07542 5.60301 0
M  V30 1100 H 93.3255 4.2981 6.50295 0
M  V30 1101 N 97.5546 -0.734337 1.39446 0
M  V30 1102 C 98.7846 -1.52137 1.39778 0
M  V30 1103 C 99.1926 -1.89198 -0.00929312 0
M  V30 1104 O 98.5356 -1.54666 -0.991168 0
M  V30 1105 C 98.5976 -2.83762 2.20724 0
M  V30 1106 C 98.2616 -2.69131 3.69347 0
M  V30 1107 C 99.2586 -2.37635 4.62413 0
M  V30 1108 C 96.9436 -2.85982 4.1294 0
M  V30 1109 C 98.9376 -2.23172 5.97054 0
M  V30 1110 C 96.6246 -2.71137 5.47657 0
M  V30 1111 C 97.6226 -2.39777 6.39528 0
M  V30 1112 O 97.3106 -2.25026 7.71763 0
M  V30 1113 H 97.0426 -0.476717 0.479288 0
M  V30 1114 H 99.5966 -0.915012 1.83893 0
M  V30 1115 H 97.8266 -3.4666 1.71359 0
M  V30 1116 H 99.5156 -3.45383 2.13226 0
M  V30 1117 H 100.282 -2.24267 4.30034 0
M  V30 1118 H 96.1606 -3.09383 3.41765 0
M  V30 1119 H 99.7046 -1.98617 6.68728 0
M  V30 1120 H 95.6016 -2.84083 5.79626 0
M  V30 1121 H 96.3696 -2.40091 7.82495 0
M  V30 1122 N 99.0327 -1.24633 -0.964593 0
M  V30 1123 C 99.9827 -1.00841 -2.04487 0
M  V30 1124 C 100.967 0.0512468 -1.60818 0
M  V30 1125 O 102.159 -0.162865 -1.76249 0
M  V30 1126 C 99.2877 -0.618474 -3.37683 0
M  V30 1127 C 98.3737 -1.71437 -3.87905 0
M  V30 1128 N 98.7647 -2.9477 -4.11029 0
M  V30 1129 C 97.0627 -1.5926 -4.16596 0
M  V30 1130 C 97.7637 -3.65834 -4.52261 0
M  V30 1131 N 96.7397 -2.9341 -4.57615 0
M  V30 1132 H 100.542 -1.94487 -2.20345 0
M  V30 1133 H 98.0557 -1.14805 -1.14863 0
M  V30 1134 H 100.053 -0.429247 -4.14684 0
M  V30 1135 H 98.7127 0.310766 -3.23209 0
M  V30 1136 H 99.7237 -3.30917 -3.9839 0
M  V30 1137 H 96.4007 -0.731606 -4.1104 0
M  V30 1138 H 97.7907 -4.71646 -4.78539 0
M  V30 1139 N 100.511 1.16574 -1.06058 0
M  V30 1140 C 101.736 1.91493 -0.796562 0
M  V30 1141 C 102.161 1.76773 0.642868 0
M  V30 1142 O 101.519 1.09142 1.44768 0
M  V30 1143 C 101.567 3.40293 -1.19303 0
M  V30 1144 O 100.671 4.11074 -0.330394 0
M  V30 1145 H 100.012 0.596678 -0.291326 0
M  V30 1146 H 102.542 1.47708 -1.41575 0
M  V30 1147 H 102.552 3.91057 -1.16356 0
M  V30 1148 H 101.227 3.50326 -2.24153 0
M  V30 1149 H 99.8038 3.70513 -0.421225 0
M  V30 1150 N 101.989 0.842826 1.3317 0
M  V30 1151 C 103.266 0.362216 1.92217 0
M  V30 1152 C 103.646 -1.15289 1.76838 0
M  V30 1153 O 102.994 -1.96914 1.15919 0
M  V30 1154 C 103.204 0.813495 3.39387 0
M  V30 1155 C 104.552 0.823804 4.16532 0
M  V30 1156 O 105.576 0.757358 3.48055 0
M  V30 1157 O 104.435 0.915193 5.38782 0
M  V30 1158 H 101.529 0.103317 0.820521 0
M  V30 1159 H 104.075 0.928942 1.42017 0
M  V30 1160 H 102.847 1.85624 3.4447 0
M  V30 1161 H 102.47 0.223561 3.96971 0
M  V30 1162 N 103.467 -1.45747 0.599634 0
M  V30 1163 C 104.744 -1.95585 0.0240846 0
M  V30 1164 C 105.124 -1.54217 -1.44154 0
M  V30 1165 O 104.472 -0.800903 -2.14004 0
M  V30 1166 C 104.682 -3.48344 0.21385 0
M  V30 1167 C 106.03 -4.24504 0.0904902 0
M  V30 1168 O 107.054 -3.55911 0.143558 0
M  V30 1169 O 105.913 -5.46491 -0.0310766 0
M  V30 1170 H 103.007 -0.82602 -0.0402478 0
M  V30 1171 H 105.553 -1.55951 0.669139 0
M  V30 1172 H 104.325 -3.71397 1.23206 0
M  V30 1173 H 103.948 -3.9485 -0.466842 0
M  V30 1174 N 104.945 -0.338344 -1.53925 0
M  V30 1175 C 106.175 0.260919 -2.04946 0
M  V30 1176 C 106.583 1.45174 -1.2133 0
M  V30 1177 O 105.926 1.82122 -0.240262 0
M  V30 1178 C 105.988 0.744596 -3.51704 0
M  V30 1179 C 105.652 -0.325883 -4.55837 0
M  V30 1180 C 106.649 -1.16687 -5.06636 0
M  V30 1181 C 104.334 -0.478317 -5.00017 0
M  V30 1182 C 106.328 -2.14588 -6.00192 0
M  V30 1183 C 104.015 -1.46073 -5.93385 0
M  V30 1184 C 105.013 -2.29297 -6.4336 0
M  V30 1185 O 104.701 -3.25867 -7.34892 0
M  V30 1186 H 104.433 0.0551207 -0.673749 0
M  V30 1187 H 106.987 -0.486984 -1.99544 0
M  V30 1188 H 105.217 1.54366 -3.54553 0
M  V30 1189 H 106.906 1.26383 -3.85723 0
M  V30 1190 H 107.672 -1.06016 -4.73271 0
M  V30 1191 H 103.551 0.159613 -4.60724 0
M  V30 1192 H 107.095 -2.79585 -6.39123 0
M  V30 1193 H 102.992 -1.56802 -6.26166 0
M  V30 1194 H 103.76 -3.21278 -7.5281 0
M  V30 1195 N 106.423 1.57458 -0.0668435 0
M  V30 1196 C 107.672 1.92477 0.602947 0
M  V30 1197 C 107.985 0.948419 1.71068 0
M  V30 1198 O 109.191 1.19124 2.43971 0
M  V30 1199 C 107.647 3.41903 1.12383 0
M  V30 1200 C 107.255 4.47975 0.04737 0
M  V30 1201 C 108.999 3.85931 1.76797 0
M  V30 1202 C 106.906 5.88529 0.582022 0
M  V30 1203 H 105.836 0.718387 0.22899 0
M  V30 1204 H 108.487 1.82978 -0.138276 0
M  V30 1205 H 106.869 3.46459 1.91787 0
M  V30 1206 H 108.043 4.55029 -0.726978 0
M  V30 1207 H 106.358 4.13384 -0.500243 0
M  V30 1208 H 108.955 4.88322 2.17821 0
M  V30 1209 H 109.298 3.23029 2.62599 0
M  V30 1210 H 109.831 3.83958 1.04024 0
M  V30 1211 H 106.57 6.55065 -0.238721 0
M  V30 1212 H 106.09 5.85004 1.324 0
M  V30 1213 H 107.769 6.38258 1.05999 0
M  V30 1214 N 107.901 -0.206675 1.56239 0
M  V30 1215 C 108.848 -1.25617 1.93621 0
M  V30 1216 C 109.818 -1.45824 0.795274 0
M  V30 1217 O 111.003 -1.59148 1.05245 0
M  V30 1218 C 108.143 -2.59839 2.27107 0
M  V30 1219 C 107.256 -2.47308 3.54207 0
M  V30 1220 C 106.391 -3.74155 3.7707 0
M  V30 1221 C 105.43 -3.56407 4.97635 0
M  V30 1222 N 104.567 -4.75238 5.1681 0
M  V30 1223 H 109.407 -0.930383 2.83104 0
M  V30 1224 H 106.944 -0.448065 1.4011 0
M  V30 1225 H 108.902 -3.38021 2.44535 0
M  V30 1226 H 107.532 -2.90485 1.40778 0
M  V30 1227 H 106.584 -1.60483 3.4489 0
M  V30 1228 H 107.896 -2.30122 4.42544 0
M  V30 1229 H 107.05 -4.60778 3.94675 0
M  V30 1230 H 105.789 -3.94282 2.87042 0
M  V30 1231 H 104.794 -2.68168 4.79964 0
M  V30 1232 H 106.019 -3.37736 5.89161 0
M  V30 1233 H 103.965 -4.95651 4.29728 0
M  V30 1234 H 103.882 -4.60835 5.99306 0
M  V30 1235 H 105.15 -5.63246 5.38864 0
M  V30 1236 N 109.379 -1.50304 -0.473955 0
M  V30 1237 C 110.626 -1.6115 -1.22625 0
M  V30 1238 C 110.954 -0.310517 -1.92005 0
M  V30 1239 O 110.209 0.703419 -1.82621 0
M  V30 1240 C 110.508 -2.73938 -2.29549 0
M  V30 1241 C 110.174 -4.14519 -1.7744 0
M  V30 1242 C 108.836 -4.5277 -1.62949 0
M  V30 1243 C 111.188 -5.02392 -1.3875 0
M  V30 1244 C 108.516 -5.76639 -1.08187 0
M  V30 1245 C 110.868 -6.26805 -0.854309 0
M  V30 1246 C 109.532 -6.63861 -0.696011 0
M  V30 1247 H 108.802 -0.589691 -0.448715 0
M  V30 1248 H 111.449 -1.84228 -0.522705 0
M  V30 1249 H 109.754 -2.44937 -3.05799 0
M  V30 1250 H 111.451 -2.79534 -2.87509 0
M  V30 1251 H 108.041 -3.8434 -1.89685 0
M  V30 1252 H 112.225 -4.73474 -1.4878 0
M  V30 1253 H 107.481 -6.04027 -0.946666 0
M  V30 1254 H 111.655 -6.94258 -0.545843 0
M  V30 1255 H 109.282 -7.59722 -0.26952 0
M  V30 1256 N 110.857 0.726932 -1.39834 0
M  V30 1257 C 111.787 1.85405 -1.41941 0
M  V30 1258 C 112.768 1.67751 -0.281728 0
M  V30 1259 O 113.953 1.8795 -0.488717 0
M  V30 1260 C 111.083 3.23243 -1.2701 0
M  V30 1261 C 110.037 3.55549 -2.38262 0
M  V30 1262 C 109.363 4.9241 -2.08415 0
M  V30 1263 C 110.663 3.577 -3.80589 0
M  V30 1264 H 112.357 1.83899 -2.36266 0
M  V30 1265 H 109.903 0.883349 -1.13723 0
M  V30 1266 H 111.856 4.01775 -1.27103 0
M  V30 1267 H 110.58 3.25296 -0.291564 0
M  V30 1268 H 109.239 2.79351 -2.37399 0
M  V30 1269 H 108.887 4.91052 -1.0898 0
M  V30 1270 H 108.587 5.14992 -2.82943 0
M  V30 1271 H 110.111 5.73289 -2.10171 0
M  V30 1272 H 111.525 4.26293 -3.83337 0
M  V30 1273 H 109.922 3.91804 -4.54543 0
M  V30 1274 H 110.992 2.57328 -4.10987 0
M  V30 1275 N 112.336 1.25143 0.95797 0
M  V30 1276 C 113.752 1.01892 1.22842 0
M  V30 1277 C 113.952 -0.266311 1.99732 0
M  V30 1278 O 113.008 -0.979913 2.3271 0
M  V30 1279 C 114.321 2.24004 2.00606 0
M  V30 1280 C 115.869 2.28731 2.13662 0
M  V30 1281 C 116.344 3.5049 2.94823 0
M  V30 1282 N 117.835 3.50866 3.02403 0
M  V30 1283 C 118.57 4.4174 3.65586 0
M  V30 1284 N 118.066 5.42882 4.30408 0
M  V30 1285 N 119.859 4.29429 3.62694 0
M  V30 1286 H 112.01 2.07718 0.443493 0
M  V30 1287 H 114.273 0.912031 0.258657 0
M  V30 1288 H 113.979 3.17395 1.51503 0
M  V30 1289 H 113.853 2.26907 3.01319 0
M  V30 1290 H 116.24 1.35865 2.61963 0
M  V30 1291 H 116.321 2.29848 1.12265 0
M  V30 1292 H 115.965 4.43676 2.47213 0
M  V30 1293 H 115.895 3.46617 3.96439 0
M  V30 1294 H 118.386 2.777 2.56302 0
M  V30 1295 H 118.699 6.0844 4.76467 0
M  V30 1296 H 117.044 5.46758 4.29047 0
M  V30 1297 H 120.235 3.49643 3.11236 0
M  V30 1298 H 120.408 5.00448 4.1165 0
M  V30 1299 N 113.814 -1.1601 1.06675 0
M  V30 1300 C 115.039 -1.91068 0.806706 0
M  V30 1301 C 115.464 -1.77112 -0.633485 0
M  V30 1302 O 114.822 -1.09908 -1.44187 0
M  V30 1303 C 114.87 -3.39655 1.21106 0
M  V30 1304 O 113.974 -4.10893 0.352189 0
M  V30 1305 H 113.315 -0.595125 0.294486 0
M  V30 1306 H 115.845 -1.46955 1.42356 0
M  V30 1307 H 115.855 -3.90434 1.18428 0
M  V30 1308 H 114.53 -3.49132 2.26008 0
M  V30 1309 H 113.107 -3.70285 0.440868 0
M  V30 1310 N 115.292 -0.849877 -1.32721 0
M  V30 1311 C 116.541 -0.447175 -1.96681 0
M  V30 1312 C 116.854 1.00135 -1.68025 0
M  V30 1313 O 118.06 1.50926 -2.25685 0
M  V30 1314 C 116.516 -0.7487 -3.52026 0
M  V30 1315 C 116.124 -2.21264 -3.89546 0
M  V30 1316 C 117.868 -0.413487 -4.22481 0
M  V30 1317 C 115.775 -2.45763 -5.37917 0
M  V30 1318 H 114.705 -0.163486 -0.736063 0
M  V30 1319 H 117.356 -1.03999 -1.51183 0
M  V30 1320 H 115.738 -0.0853727 -3.95908 0
M  V30 1321 H 116.912 -2.91736 -3.56689 0
M  V30 1322 H 115.227 -2.5119 -3.32103 0
M  V30 1323 H 117.824 -0.574017 -5.3161 0
M  V30 1324 H 118.167 0.644492 -4.11281 0
M  V30 1325 H 118.7 -1.03251 -3.84167 0
M  V30 1326 H 115.439 -3.50168 -5.54132 0
M  V30 1327 H 114.959 -1.79864 -5.72197 0
M  V30 1328 H 116.638 -2.29471 -6.0494 0
M  V30 1329 N 116.77 1.45427 -0.607355 0
M  V30 1330 C 118.186 1.57283 -0.270985 0
M  V30 1331 C 118.386 1.59875 1.22647 0
M  V30 1332 O 117.442 1.52893 2.00948 0
M  V30 1333 C 118.755 2.85566 -0.941952 0
M  V30 1334 C 120.303 2.9924 -0.917849 0
M  V30 1335 C 120.778 4.30293 -1.56882 0
M  V30 1336 N 122.269 4.37051 -1.5343 0
M  V30 1337 C 123.004 5.37123 -2.00715 0
M  V30 1338 N 122.5 6.43734 -2.56084 0
M  V30 1339 N 124.293 5.28479 -1.91484 0
M  V30 1340 H 116.444 1.41988 -1.57966 0
M  V30 1341 H 118.707 0.67885 -0.661715 0
M  V30 1342 H 118.413 2.8955 -1.99633 0
M  V30 1343 H 118.287 3.74322 -0.465096 0
M  V30 1344 H 120.674 2.94822 0.127984 0
M  V30 1345 H 120.755 2.11895 -1.43297 0
M  V30 1346 H 120.399 4.35469 -2.61398 0
M  V30 1347 H 120.329 5.16454 -1.02873 0
M  V30 1348 H 122.82 3.60615 -1.12982 0
M  V30 1349 H 123.133 7.16341 -2.89958 0
M  V30 1350 H 121.478 6.44485 -2.60122 0
M  V30 1351 H 124.669 4.44098 -1.47967 0
M  V30 1352 H 124.842 6.0632 -2.28648 0
M  V30 1353 N 118.248 0.346503 1.53744 0
M  V30 1354 C 119.659 -0.136779 1.86198 0
M  V30 1355 C 120.01 -1.49749 1.26766 0
M  V30 1356 O 119.135 -2.08417 0.582355 0
M  V30 1357 C 119.73 -0.254966 3.37839 0
M  V30 1358 C 118.289 -0.682482 3.70161 0
M  V30 1359 C 117.436 0.181981 2.76702 0
M  V30 1360 H 120.387 0.565994 1.48264 0
M  V30 1361 H 120.408 -1.08195 3.64793 0
M  V30 1362 H 119.92 0.735526 3.81066 0
M  V30 1363 H 118.021 -1.68189 3.3248 0
M  V30 1364 H 118.134 -0.470326 4.76786 0
M  V30 1365 H 116.498 -0.34615 2.52337 0
M  V30 1366 H 117.281 1.16966 3.2276 0
M  V30 1367 N 119.726 -1.57421 0.075193 0
M  V30 1368 C 121.003 -1.85029 -0.634329 0
M  V30 1369 C 121.383 -0.968305 -1.87582 0
M  V30 1370 O 120.731 -0.0354749 -2.28472 0
M  V30 1371 C 120.941 -3.35286 -0.968742 0
M  V30 1372 C 122.289 -4.02875 -1.34077 0
M  V30 1373 O 123.313 -3.40051 -1.06037 0
M  V30 1374 O 122.172 -5.13691 -1.86506 0
M  V30 1375 H 119.266 -0.7645 -0.315387 0
M  V30 1376 H 121.812 -1.69366 0.106382 0
M  V30 1377 H 120.584 -3.91203 -0.0871376 0
M  V30 1378 H 120.207 -3.56223 -1.7661 0
M  V30 1379 N 121.204 0.198386 -1.56346 0
M  V30 1380 C 122.152 1.26538 -1.95169 0
M  V30 1381 C 123.146 1.47295 -0.836685 0
M  V30 1382 O 124.352 1.48195 -1.02167 0
M  V30 1383 H 120.727 0.424744 -0.620561 0
M  V30 1384 H 122.698 0.910904 -2.84157 0
M  V30 1385 C 121.447 2.6035 -2.30463 0
M  V30 1386 H 120.77 2.45192 -3.15786 0
M  V30 1387 H 122.21 3.33762 -2.61494 0
M  V30 1388 C 120.669 3.17096 -1.13806 0
M  V30 1389 O 121.199 3.99588 -0.41135 0
M  V30 1390 N 119.405 2.75795 -0.915736 0
M  V30 1391 H 118.952 2.08816 -1.50843 0
M  V30 1392 H 118.91 3.14101 -0.136979 0
M  V30 1393 N 122.682 1.50554 0.465978 0
M  V30 1394 C 123.615 1.64436 1.58227 0
M  V30 1395 C 124.593 0.492367 1.54966 0
M  V30 1396 O 125.777 0.712536 1.74514 0
M  V30 1397 C 122.904 1.63165 2.96808 0
M  V30 1398 C 121.95 2.83987 3.18204 0
M  V30 1399 S 122.783 4.45219 2.97557 0
M  V30 1400 C 123.939 4.46649 4.3847 0
M  V30 1401 H 124.172 2.58861 1.46213 0
M  V30 1402 H 121.705 1.3988 0.653678 0
M  V30 1403 H 123.663 1.63116 3.76701 0
M  V30 1404 H 122.324 0.69967 3.06208 0
M  V30 1405 H 121.517 2.79416 4.19455 0
M  V30 1406 H 121.119 2.81629 2.46092 0
M  V30 1407 H 123.411 4.20526 5.31191 0
M  V30 1408 H 124.354 5.48295 4.48082 0
M  V30 1409 H 124.762 3.76296 4.20787 0
M  V30 1410 N 124.16 -0.719506 1.40217 0
M  V30 1411 C 125.385 -1.51371 1.4178 0
M  V30 1412 C 125.81 -1.88091 0.0182355 0
M  V30 1413 O 125.168 -1.52997 -0.972707 0
M  V30 1414 C 125.216 -2.768 2.31115 0
M  V30 1415 O 124.32 -3.73349 1.7517 0
M  V30 1416 H 123.661 -0.456529 0.482159 0
M  V30 1417 H 126.191 -0.88644 1.844 0
M  V30 1418 H 126.201 -3.25371 2.46167 0
M  V30 1419 H 124.876 -2.49407 3.3282 0
M  V30 1420 H 123.453 -3.32179 1.69444 0
M  V30 1421 N 125.638 -1.25649 -0.95132 0
M  V30 1422 C 126.548 -1.08073 -2.08224 0
M  V30 1423 C 127.564 -0.0169666 -1.73992 0
M  V30 1424 O 128.74 -0.218593 -2.0021 0
M  V30 1425 C 125.805 -0.704922 -3.39458 0
M  V30 1426 C 124.866 -1.84699 -3.87537 0
M  V30 1427 C 124.099 -1.48902 -5.12508 0
M  V30 1428 O 124.322 -0.386156 -5.69091 0
M  V30 1429 O 123.256 -2.32033 -5.55378 0
M  V30 1430 H 127.082 -2.02924 -2.25954 0
M  V30 1431 H 124.667 -1.04618 -1.06656 0
M  V30 1432 H 126.549 -0.507609 -4.18332 0
M  V30 1433 H 125.224 0.214291 -3.2299 0
M  V30 1434 H 124.131 -2.09919 -3.09653 0
M  V30 1435 H 125.464 -2.74557 -4.08509 0
M  V30 1436 N 127.117 1.15442 -1.07289 0
M  V30 1437 C 128.347 1.89821 -0.815576 0
M  V30 1438 C 128.755 1.7823 0.634867 0
M  V30 1439 O 128.098 1.13152 1.44715 0
M  V30 1440 C 128.16 3.40817 -1.14385 0
M  V30 1441 C 127.824 3.76193 -2.59476 0
M  V30 1442 C 128.821 3.77269 -3.57721 0
M  V30 1443 C 126.506 4.0652 -2.95037 0
M  V30 1444 C 128.5 4.08176 -4.89562 0
M  V30 1445 C 126.187 4.37092 -4.27076 0
M  V30 1446 C 127.185 4.37902 -5.24148 0
M  V30 1447 O 126.873 4.67741 -6.53815 0
M  V30 1448 H 126.605 0.608465 -0.294528 0
M  V30 1449 H 129.159 1.472 -1.43252 0
M  V30 1450 H 127.389 3.83835 -0.469865 0
M  V30 1451 H 129.078 3.96485 -0.869179 0
M  V30 1452 H 129.844 3.5394 -3.3159 0
M  V30 1453 H 125.723 4.05049 -2.20128 0
M  V30 1454 H 129.267 4.08723 -5.65324 0
M  V30 1455 H 125.164 4.59889 -4.5296 0
M  V30 1456 H 125.932 4.85509 -6.58957 0
M  V30 1457 N 128.595 0.856903 1.32268 0
M  V30 1458 C 129.82 0.474569 2.01897 0
M  V30 1459 C 130.245 -0.921766 1.63967 0
M  V30 1460 O 129.603 -1.60589 0.84148 0
M  V30 1461 C 129.651 0.623799 3.55164 0
M  V30 1462 O 128.755 -0.342459 4.10976 0
M  V30 1463 H 128.096 0.190422 0.63611 0
M  V30 1464 H 130.626 1.15672 1.68764 0
M  V30 1465 H 130.636 0.512169 4.04773 0
M  V30 1466 H 129.311 1.64202 3.82113 0
M  V30 1467 H 127.888 -0.18688 3.72431 0
M  V30 1468 N 130.073 -1.45103 0.615059 0
M  V30 1469 C 131.02 -2.30586 -0.0993978 0
M  V30 1470 C 131.99 -1.42544 -0.852669 0
M  V30 1471 O 133.175 -1.71465 -0.836917 0
M  V30 1472 C 130.315 -3.27572 -1.08583 0
M  V30 1473 C 129.428 -4.30717 -0.332656 0
M  V30 1474 C 128.563 -5.14807 -1.30947 0
M  V30 1475 C 127.602 -6.09673 -0.544538 0
M  V30 1476 N 126.739 -6.86517 -1.47101 0
M  V30 1477 H 131.579 -2.91144 0.635542 0
M  V30 1478 H 129.116 -1.4346 0.325206 0
M  V30 1479 H 131.074 -3.82276 -1.67095 0
M  V30 1480 H 129.704 -2.68751 -1.78809 0
M  V30 1481 H 128.756 -3.78615 0.368107 0
M  V30 1482 H 130.068 -4.98102 0.263842 0
M  V30 1483 H 129.222 -5.73948 -1.96643 0
M  V30 1484 H 127.961 -4.47458 -1.9399 0
M  V30 1485 H 126.966 -5.49656 0.126003 0
M  V30 1486 H 128.191 -6.79052 0.080947 0
M  V30 1487 H 126.137 -6.21851 -2.08895 0
M  V30 1488 H 126.054 -7.50281 -0.928137 0
M  V30 1489 H 127.322 -7.50194 -2.11731 0
M  V30 1490 N 131.551 -0.354651 -1.53558 0
M  V30 1491 C 132.483 0.5315 -2.22952 0
M  V30 1492 C 133.496 1.05503 -1.23988 0
M  V30 1493 O 134.685 0.963279 -1.50277 0
M  V30 1494 C 131.785 1.74538 -2.90499 0
M  V30 1495 C 130.958 1.35524 -4.15875 0
M  V30 1496 C 130.017 2.42999 -4.66731 0
M  V30 1497 O 129.043 2.05844 -5.30676 0
M  V30 1498 N 130.245 3.74423 -4.43608 0
M  V30 1499 H 133.01 -0.0628615 -2.99634 0
M  V30 1500 H 130.571 -0.179302 -1.60904 0
M  V30 1501 H 132.563 2.45892 -3.21433 0
M  V30 1502 H 131.133 2.24686 -2.17336 0
M  V30 1503 H 130.353 0.471998 -3.91364 0
M  V30 1504 H 131.641 1.07071 -4.97406 0
M  V30 1505 H 131.039 4.07391 -3.92491 0
M  V30 1506 H 129.596 4.41913 -4.7912 0
M  V30 1507 N 133.029 1.57378 -0.0835403 0
M  V30 1508 C 133.962 2.09016 0.915833 0
M  V30 1509 C 134.94 0.997993 1.2837 0
M  V30 1510 O 136.124 1.27219 1.39096 0
M  V30 1511 C 133.251 2.55757 2.22049 0
M  V30 1512 C 132.297 3.76522 2.00333 0
M  V30 1513 S 133.13 5.20661 1.25191 0
M  V30 1514 C 134.286 5.70743 2.56912 0
M  V30 1515 H 134.519 2.93457 0.476492 0
M  V30 1516 H 132.052 1.53856 0.129493 0
M  V30 1517 H 134.01 2.83346 2.97027 0
M  V30 1518 H 132.671 1.71564 2.63106 0
M  V30 1519 H 131.864 4.07256 2.96916 0
M  V30 1520 H 131.466 3.49367 1.33488 0
M  V30 1521 H 133.758 5.78304 3.52946 0
M  V30 1522 H 134.701 6.6944 2.30772 0
M  V30 1523 H 135.109 4.98616 2.64655 0
M  V30 1524 N 134.507 -0.190092 1.56449 0
M  V30 1525 C 135.439 -1.25973 1.91477 0
M  V30 1526 C 136.452 -1.41452 0.805931 0
M  V30 1527 O 137.641 -1.41789 1.08435 0
M  V30 1528 C 134.741 -2.63117 2.13594 0
M  V30 1529 C 133.914 -2.69182 3.4476 0
M  V30 1530 C 132.973 -3.87557 3.5593 0
M  V30 1531 O 131.999 -3.74427 4.28711 0
M  V30 1532 N 133.201 -5.03224 2.89388 0
M  V30 1533 H 135.966 -0.962394 2.83828 0
M  V30 1534 H 133.527 -0.379981 1.57378 0
M  V30 1535 H 135.519 -3.40742 2.1835 0
M  V30 1536 H 134.089 -2.85319 1.27719 0
M  V30 1537 H 133.309 -1.77793 3.51828 0
M  V30 1538 H 134.597 -2.70229 4.31107 0
M  V30 1539 H 133.995 -5.16791 2.30094 0
M  V30 1540 H 132.552 -5.78778 2.99764 0
M  V30 1541 N 135.985 -1.50799 -0.457987 0
M  V30 1542 C 137.401 -1.38515 -0.792819 0
M  V30 1543 C 137.601 -0.451409 -1.96379 0
M  V30 1544 O 136.657 0.10112 -2.52297 0
M  V30 1545 C 137.97 -2.80149 -1.09258 0
M  V30 1546 C 139.518 -2.89156 -1.19825 0
M  V30 1547 C 139.993 -4.31651 -1.53106 0
M  V30 1548 N 141.484 -4.34662 -1.60072 0
M  V30 1549 C 142.219 -5.41928 -1.87354 0
M  V30 1550 N 141.715 -6.59384 -2.12568 0
M  V30 1551 N 143.508 -5.29385 -1.88965 0
M  V30 1552 H 135.659 -2.10073 0.313511 0
M  V30 1553 H 137.922 -0.944803 0.0777862 0
M  V30 1554 H 137.628 -3.50374 -0.305084 0
M  V30 1555 H 137.502 -3.18204 -2.02549 0
M  V30 1556 H 139.889 -2.19141 -1.97639 0
M  V30 1557 H 139.97 -2.54626 -0.244821 0
M  V30 1558 H 139.614 -5.02208 -0.758266 0
M  V30 1559 H 139.544 -4.63678 -2.49621 0
M  V30 1560 H 142.035 -3.49973 -1.42573 0
M  V30 1561 H 142.348 -7.36934 -2.32696 0
M  V30 1562 H 140.693 -6.62535 -2.09933 0
M  V30 1563 H 143.884 -4.36616 -1.68772 0
M  V30 1564 H 144.057 -6.13066 -2.09891 0
M  V30 1565 N 137.463 0.71206 -1.40597 0
M  V30 1566 C 138.71 1.47197 -1.39065 0
M  V30 1567 C 139.038 1.94499 0.00583891 0
M  V30 1568 O 138.293 1.68752 0.99102 0
M  V30 1569 C 138.592 2.71039 -2.32965 0
M  V30 1570 C 138.258 2.42484 -3.80148 0
M  V30 1571 C 136.92 2.34406 -4.20247 0
M  V30 1572 C 139.272 2.18598 -4.73143 0
M  V30 1573 C 136.6 2.00516 -5.51371 0
M  V30 1574 C 138.952 1.8622 -6.0457 0
M  V30 1575 C 137.616 1.76626 -6.43708 0
M  V30 1576 H 136.886 0.538634 -0.508876 0
M  V30 1577 H 139.533 0.815325 -1.73276 0
M  V30 1578 H 137.838 3.41558 -1.91951 0
M  V30 1579 H 139.535 3.29138 -2.29061 0
M  V30 1580 H 136.125 2.49659 -3.4838 0
M  V30 1581 H 140.309 2.23793 -4.42979 0
M  V30 1582 H 135.565 1.91628 -5.80593 0
M  V30 1583 H 139.739 1.66752 -6.76141 0
M  V30 1584 H 137.366 1.50133 -7.45228 0
M  V30 1585 N 138.941 1.26152 0.944643 0
M  V30 1586 C 139.889 1.07215 2.06417 0
M  V30 1587 C 140.883 9.2007e-05 1.694 0
M  V30 1588 O 142.089 0.1565 1.79318 0
M  V30 1589 H 138.464 0.329837 0.675805 0
M  V30 1590 H 140.435 2.02099 2.19541 0
M  V30 1591 C 139.184 0.718197 3.40202 0
M  V30 1592 H 138.507 1.53497 3.69159 0
M  V30 1593 H 139.947 0.625459 4.19361 0
M  V30 1594 C 138.406 -0.576435 3.31932 0
M  V30 1595 O 138.936 -1.61574 3.67773 0
M  V30 1596 N 137.142 -0.565781 2.85039 0
M  V30 1597 H 136.689 0.280367 2.5607 0
M  V30 1598 H 136.647 -1.43213 2.79888 0
M  V30 1599 N 140.419 -1.14872 1.07899 0
M  V30 1600 C 141.665 -1.86064 0.806725 0
M  V30 1601 C 141.998 -1.82434 -0.665706 0
M  V30 1602 O 141.273 -1.25138 -1.48899 0
M  V30 1603 C 141.556 -3.34929 1.32267 0
M  V30 1604 C 141.409 -3.47161 2.86006 0
M  V30 1605 C 142.728 -4.29863 0.943717 0
M  V30 1606 H 139.847 -0.675591 0.294526 0
M  V30 1607 H 142.489 -1.34925 1.33773 0
M  V30 1608 H 140.639 -3.78611 0.870974 0
M  V30 1609 H 142.311 -3.12302 3.39507 0
M  V30 1610 H 140.554 -2.88539 3.23925 0
M  V30 1611 H 141.225 -4.51777 3.17177 0
M  V30 1612 H 143.701 -3.9417 1.33302 0
M  V30 1613 H 142.577 -5.32494 1.33198 0
M  V30 1614 H 142.838 -4.41846 -0.149796 0
M  V30 1615 N 141.898 -0.863906 -1.31812 0
M  V30 1616 C 143.146 -0.470904 -1.96537 0
M  V30 1617 C 143.467 0.978771 -1.68657 0
M  V30 1618 O 142.737 1.6853 -0.998717 0
M  V30 1619 H 141.317 -0.171148 -0.72713 0
M  V30 1620 H 143.979 -1.10236 -1.60729 0
M  V30 1621 H 143.075 -0.623616 -3.05806 0
M  V30 1622 N 143.376 1.44774 -0.622745 0
M  V30 1623 C 144.286 2.34433 0.0886031 0
M  V30 1624 C 145.302 1.52131 0.844529 0
M  V30 1625 O 146.478 1.84886 0.798691 0
M  V30 1626 C 143.543 3.29986 1.0635 0
M  V30 1627 C 142.604 4.28195 0.307873 0
M  V30 1628 C 141.837 5.19183 1.23633 0
M  V30 1629 O 142.06 5.13918 2.47476 0
M  V30 1630 O 140.994 5.97515 0.725189 0
M  V30 1631 H 144.82 2.96693 -0.648599 0
M  V30 1632 H 142.405 1.44408 -0.382957 0
M  V30 1633 H 144.287 3.88825 1.6246 0
M  V30 1634 H 142.962 2.70269 1.78146 0
M  V30 1635 H 141.869 3.72927 -0.296064 0
M  V30 1636 H 143.202 4.90808 -0.3699 0
M  V30 1637 N 144.854 0.36279 1.53368 0
M  V30 1638 C 146.131 -0.284021 1.93527 0
M  V30 1639 C 146.511 -1.66628 1.29608 0
M  V30 1640 O 145.859 -2.23942 0.45413 0
M  V30 1641 C 146.069 -0.337028 3.47369 0
M  V30 1642 C 147.417 -0.578708 4.20638 0
M  V30 1643 O 148.441 -0.418352 3.53735 0
M  V30 1644 O 147.3 -0.89074 5.39192 0
M  V30 1645 H 144.394 -0.169743 0.809393 0
M  V30 1646 H 146.94 0.41537 1.64538 0
M  V30 1647 H 145.712 0.632217 3.86159 0
M  V30 1648 H 145.335 -1.08243 3.82582 0
M  V30 1649 N 146.332 -1.57332 0.0918853 0
M  V30 1650 C 147.572 -1.96117 -0.575988 0
M  V30 1651 C 147.936 -0.972499 -1.65549 0
M  V30 1652 O 149.137 -1.24872 -2.38034 0
M  V30 1653 C 147.408 -3.39407 -1.11973 0
M  V30 1654 S 148.967 -4.00185 -1.79992 0
M  V30 1655 H 145.785 -0.685682 -0.188045 0
M  V30 1656 H 148.387 -1.94755 0.170525 0
M  V30 1657 H 147.091 -4.09131 -0.322504 0
M  V30 1658 H 146.622 -3.44358 -1.90214 0
M  V30 1659 H 148.637 -3.88728 -3.08391 0
M  V30 1660 N 147.81 0.181792 -1.56548 0
M  V30 1661 C 149.221 0.745244 -1.71181 0
M  V30 1662 C 149.572 1.83262 -0.70068 0
M  V30 1663 O 148.697 2.15946 0.140154 0
M  V30 1664 C 149.292 1.35859 -3.10367 0
M  V30 1665 C 147.851 1.86898 -3.2672 0
M  V30 1666 C 146.998 0.743942 -2.67134 0
M  V30 1667 H 149.949 -0.0434661 -1.5864 0
M  V30 1668 H 149.97 2.22817 -3.08436 0
M  V30 1669 H 149.482 0.566948 -3.83937 0
M  V30 1670 H 147.583 2.68738 -2.5809 0
M  V30 1671 H 147.696 2.02162 -4.34359 0
M  V30 1672 H 146.06 1.16169 -2.26665 0
M  V30 1673 H 146.843 -0.035676 -3.43281 0
M  V30 1674 N 149.288 1.51039 0.449983 0
M  V30 1675 C 150.534 1.63322 1.20223 0
M  V30 1676 C 150.867 0.34241 1.91158 0
M  V30 1677 O 150.142 -0.657344 1.83055 0
M  V30 1678 C 150.425 2.82801 2.22925 0
M  V30 1679 C 150.278 4.21823 1.56157 0
M  V30 1680 C 151.597 2.97807 3.24035 0
M  V30 1681 H 148.716 0.594407 0.435718 0
M  V30 1682 H 151.358 1.83489 0.493136 0
M  V30 1683 H 149.508 2.65738 2.834 0
M  V30 1684 H 151.18 4.50526 0.991162 0
M  V30 1685 H 149.423 4.25105 0.864172 0
M  V30 1686 H 150.094 5.01391 2.30891 0
M  V30 1687 H 152.57 3.13497 2.73603 0
M  V30 1688 H 151.446 3.82992 3.93202 0
M  V30 1689 H 151.707 2.09328 3.89402 0
M  V30 1690 N 150.766 -0.704594 1.40972 0
M  V30 1691 C 152.013 -1.46458 1.39844 0
M  V30 1692 C 152.341 -1.94499 0.00447594 0
M  V30 1693 O 151.596 -1.69275 -0.982057 0
M  V30 1694 C 151.895 -2.698 2.34399 0
M  V30 1695 C 151.561 -2.40464 3.81429 0
M  V30 1696 C 150.223 -2.32174 4.21484 0
M  V30 1697 C 152.575 -2.16086 4.74296 0
M  V30 1698 C 149.903 -1.97589 5.52427 0
M  V30 1699 C 152.255 -1.83011 6.05549 0
M  V30 1700 C 150.919 -1.7321 6.44635 0
M  V30 1701 H 150.189 -0.535927 0.511725 0
M  V30 1702 H 152.836 -0.806124 1.73706 0
M  V30 1703 H 151.141 -3.40536 1.93759 0
M  V30 1704 H 152.838 -3.27919 2.30804 0
M  V30 1705 H 149.428 -2.47808 3.49699 0
M  V30 1706 H 153.612 -2.2144 4.4416 0
M  V30 1707 H 148.868 -1.88547 5.81601 0
M  V30 1708 H 153.042 -1.63164 6.77016 0
M  V30 1709 H 150.669 -1.46179 7.46013 0
M  V30 1710 N 152.244 -1.26651 -0.937939 0
M  V30 1711 C 153.521 -1.0313 -1.66204 0
M  V30 1712 C 153.901 0.437256 -2.06522 0
M  V30 1713 O 153.249 1.41831 -1.79154 0
M  V30 1714 C 153.459 -1.98314 -2.87181 0
M  V30 1715 C 154.807 -2.27107 -3.58758 0
M  V30 1716 O 155.831 -1.96205 -2.97291 0
M  V30 1717 O 154.69 -2.79736 -4.69479 0
M  V30 1718 H 151.784 -0.392384 -0.727986 0
M  V30 1719 H 154.33 -1.37874 -0.989382 0
M  V30 1720 H 153.102 -2.97399 -2.54302 0
M  V30 1721 H 152.725 -1.64068 -3.6217 0
M  V30 1722 N 153.722 1.14298 -1.08507 0
M  V30 1723 C 154.97 1.84993 -0.813763 0
M  V30 1724 C 155.291 1.83405 0.662393 0
M  V30 1725 O 154.561 1.28319 1.48024 0
M  V30 1726 H 153.141 0.684966 -0.298045 0
M  V30 1727 H 155.803 1.385 -1.37126 0
M  V30 1728 H 154.899 2.89788 -1.15884 0
M  V30 1729 N 155.201 0.870884 1.31352 0
M  V30 1730 C 156.131 0.343096 2.30966 0
M  V30 1731 C 157.112 -0.566507 1.60389 0
M  V30 1732 O 158.297 -0.483336 1.88089 0
M  V30 1733 C 155.427 -0.455487 3.443 0
M  V30 1734 C 154.381 0.361103 4.26474 0
M  V30 1735 C 153.707 -0.563221 5.31725 0
M  V30 1736 C 155.007 1.59566 4.97329 0
M  V30 1737 H 156.701 1.17548 2.75359 0
M  V30 1738 H 154.247 0.566686 1.32381 0
M  V30 1739 H 156.2 -0.83525 4.13039 0
M  V30 1740 H 154.924 -1.32139 2.98675 0
M  V30 1741 H 153.583 0.722825 3.59403 0
M  V30 1742 H 153.231 -1.42643 4.82351 0
M  V30 1743 H 152.931 -0.0207409 5.87596 0
M  V30 1744 H 154.455 -0.939808 6.03324 0
M  V30 1745 H 155.869 1.28728 5.58661 0
M  V30 1746 H 154.266 2.07728 5.63 0
M  V30 1747 H 155.336 2.34798 4.24262 0
M  V30 1748 N 156.679 -1.44442 0.630414 0
M  V30 1749 C 157.926 -2.02052 0.134617 0
M  V30 1750 C 158.254 -1.49576 -1.24327 0
M  V30 1751 O 157.509 -0.669806 -1.83881 0
M  V30 1752 C 157.808 -3.57332 0.0697835 0
M  V30 1753 C 157.474 -4.29058 1.38635 0
M  V30 1754 C 156.136 -4.4837 1.74694 0
M  V30 1755 C 158.488 -4.69872 2.25543 0
M  V30 1756 C 155.816 -5.05756 2.97369 0
M  V30 1757 C 158.168 -5.28616 3.47487 0
M  V30 1758 C 156.832 -5.46147 3.8377 0
M  V30 1759 H 156.102 -0.739361 0.0492598 0
M  V30 1760 H 158.749 -1.73217 0.816586 0
M  V30 1761 H 157.054 -3.85577 -0.695553 0
M  V30 1762 H 158.751 -3.99637 -0.330344 0
M  V30 1763 H 155.341 -4.14357 1.09574 0
M  V30 1764 H 159.525 -4.54666 1.98979 0
M  V30 1765 H 154.781 -5.17515 3.25558 0
M  V30 1766 H 158.955 -5.59192 4.15063 0
M  V30 1767 H 156.582 -5.9038 4.7891 0
M  V30 1768 N 158.157 -0.370918 -1.53173 0
M  V30 1769 C 159.067 0.480823 -2.2962 0
M  V30 1770 C 160.083 1.08789 -1.35798 0
M  V30 1771 O 161.259 1.09768 -1.68858 0
M  V30 1772 C 158.324 1.60227 -3.07454 0
M  V30 1773 C 157.385 1.0222 -4.16953 0
M  V30 1774 C 156.618 2.0902 -4.91066 0
M  V30 1775 O 156.841 3.30222 -4.65091 0
M  V30 1776 O 155.775 1.71778 -5.76867 0
M  V30 1777 H 159.601 -0.141421 -3.03371 0
M  V30 1778 H 157.186 -0.135146 -1.48787 0
M  V30 1779 H 159.068 2.25417 -3.56041 0
M  V30 1780 H 157.743 2.20982 -2.36535 0
M  V30 1781 H 156.65 0.334064 -3.72605 0
M  V30 1782 H 157.983 0.459131 -4.90054 0
M  V30 1783 N 159.635 1.57281 -0.100228 0
M  V30 1784 C 160.882 1.94537 0.562268 0
M  V30 1785 C 161.21 0.982315 1.67871 0
M  V30 1786 O 160.465 0.00280936 1.957 0
M  V30 1787 C 160.764 3.38305 1.15259 0
M  V30 1788 C 160.43 4.50618 0.159409 0
M  V30 1789 C 159.092 4.81066 -0.113741 0
M  V30 1790 C 161.444 5.18615 -0.518461 0
M  V30 1791 C 158.772 5.76835 -1.07137 0
M  V30 1792 C 161.124 6.15412 -1.46459 0
M  V30 1793 C 159.788 6.44262 -1.74592 0
M  V30 1794 H 159.058 0.711863 0.205748 0
M  V30 1795 H 161.705 1.90679 -0.17715 0
M  V30 1796 H 160.01 3.38766 1.96836 0
M  V30 1797 H 161.707 3.64435 1.67297 0
M  V30 1798 H 158.297 4.2689 0.382491 0
M  V30 1799 H 162.481 4.95264 -0.320581 0
M  V30 1800 H 157.737 5.975 -1.29628 0
M  V30 1801 H 161.911 6.67194 -1.99564 0
M  V30 1802 H 159.538 7.1828 -2.48953 0
M  V30 1803 N 161.113 -0.173488 1.56642 0
M  V30 1804 C 162.353 -0.896984 1.83667 0
M  V30 1805 C 162.717 -1.79523 0.680842 0
M  V30 1806 O 163.918 -2.55616 0.831488 0
M  V30 1807 C 162.189 -1.67351 3.15798 0
M  V30 1808 S 163.748 -2.44607 3.64298 0
M  V30 1809 H 160.566 -0.300464 0.644393 0
M  V30 1810 H 163.168 -0.158775 1.94854 0
M  V30 1811 H 161.872 -1.00462 3.97914 0
M  V30 1812 H 161.403 -2.45313 3.07546 0
M  V30 1813 H 163.418 -3.69261 3.31452 0
M  V30 1814 N 162.591 -1.51276 -0.441967 0
M  V30 1815 C 163.523 -1.68444 -1.55433 0
M  V30 1816 C 164.536 -0.565187 -1.52674 0
M  V30 1817 O 165.725 -0.839356 -1.57534 0
M  V30 1818 C 162.825 -1.67966 -2.94348 0
M  V30 1819 C 161.998 -2.964 -3.21661 0
M  V30 1820 C 161.057 -2.88171 -4.40277 0
M  V30 1821 O 160.083 -3.62119 -4.39157 0
M  V30 1822 N 161.285 -2.03706 -5.43584 0
M  V30 1823 H 164.05 -2.644 -1.41112 0
M  V30 1824 H 161.611 -1.49104 -0.630838 0
M  V30 1825 H 163.603 -1.60035 -3.71713 0
M  V30 1826 H 162.173 -0.796225 -3.0229 0
M  V30 1827 H 161.393 -3.18234 -2.32638 0
M  V30 1828 H 162.681 -3.81427 -3.36736 0
M  V30 1829 H 162.079 -1.42995 -5.47329 0
M  V30 1830 H 160.636 -2.01658 -6.1982 0
M  V30 1831 N 164.069 0.697108 -1.41344 0
M  V30 1832 C 164.999 1.82353 -1.45841 0
M  V30 1833 C 165.98 1.67115 -0.317247 0
M  V30 1834 O 167.165 1.86871 -0.528474 0
M  V30 1835 C 164.295 3.20476 -1.33838 0
M  V30 1836 C 163.249 3.50415 -2.4575 0
M  V30 1837 C 162.575 4.87878 -2.18813 0
M  V30 1838 C 163.875 3.49546 -3.88091 0
M  V30 1839 H 165.569 1.78846 -2.40113 0
M  V30 1840 H 163.115 0.859028 -1.15571 0
M  V30 1841 H 165.068 3.98988 -1.35596 0
M  V30 1842 H 163.792 3.24604 -0.360498 0
M  V30 1843 H 162.451 2.74253 -2.43271 0
M  V30 1844 H 162.099 4.8863 -1.19371 0
M  V30 1845 H 161.799 5.08875 -2.93803 0
M  V30 1846 H 163.323 5.68702 -2.22284 0
M  V30 1847 H 164.737 4.18066 -3.92293 0
M  V30 1848 H 163.134 3.82075 -4.62751 0
M  V30 1849 H 164.204 2.48552 -4.16353 0
M  V30 1850 N 165.547 1.27147 0.931209 0
M  V30 1851 C 166.772 1.16191 1.71797 0
M  V30 1852 C 167.197 -0.278004 1.86034 0
M  V30 1853 O 166.555 -1.20137 1.35782 0
M  V30 1854 C 166.603 1.84673 3.09723 0
M  V30 1855 O 165.707 1.14231 3.96264 0
M  V30 1856 H 165.048 0.404303 0.526721 0
M  V30 1857 H 167.578 1.68152 1.1656 0
M  V30 1858 H 167.588 1.91893 3.60057 0
M  V30 1859 H 166.263 2.89421 2.98677 0
M  V30 1860 H 164.84 1.15056 3.54706 0
M  V30 1861 N 167.025 -1.13721 1.09112 0
M  V30 1862 C 168.253 -1.88773 0.846899 0
M  V30 1863 C 168.668 -1.7896 -0.601572 0
M  V30 1864 O 168.025 -1.15394 -1.41388 0
M  V30 1865 C 168.076 -3.3849 1.26913 0
M  V30 1866 O 167.797 -3.48043 2.66079 0
M  V30 1867 C 169.298 -4.30518 1.05682 0
M  V30 1868 H 166.518 -0.59772 0.304914 0
M  V30 1869 H 169.062 -1.43977 1.45227 0
M  V30 1870 H 167.217 -3.80881 0.707723 0
M  V30 1871 H 167.631 -4.4109 2.83795 0
M  V30 1872 H 169.105 -5.3391 1.40156 0
M  V30 1873 H 169.582 -4.392 -0.00563416 0
M  V30 1874 H 170.188 -3.93893 1.60402 0
M  V30 1875 N 168.503 -0.877838 -1.30888 0
M  V30 1876 C 169.751 -0.491723 -1.96027 0
M  V30 1877 C 170.072 0.960827 -1.69685 0
M  V30 1878 O 169.342 1.67462 -1.01654 0
M  V30 1879 H 167.922 -0.17885 -0.725273 0
M  V30 1880 H 170.584 -1.11935 -1.59551 0
M  V30 1881 H 169.68 -0.656016 -3.05128 0
M  V30 1882 N 169.982 1.44106 -0.638065 0
M  V30 1883 C 171.23 2.01579 -0.145043 0
M  V30 1884 C 171.551 1.50496 1.24 0
M  V30 1885 O 170.821 0.711374 1.82527 0
M  V30 1886 H 169.401 0.745282 -0.05063 0
M  V30 1887 H 172.063 1.76516 -0.826327 0
M  V30 1888 H 171.159 3.11877 -0.118039 0
M  V30 1889 N 171.46 0.379036 1.52974 0
M  V30 1890 C 172.685 -0.209353 2.06341 0
M  V30 1891 C 173.11 -1.40583 1.24972 0
M  V30 1892 O 172.468 -1.79246 0.272155 0
M  V30 1893 C 172.516 -0.567786 3.56102 0
M  V30 1894 O 171.62 -1.66318 3.77375 0
M  V30 1895 H 170.961 -0.0272919 0.663439 0
M  V30 1896 H 173.491 0.543536 1.97248 0
M  V30 1897 H 173.501 -0.835003 3.99364 0
M  V30 1898 H 172.176 0.307013 4.14765 0
M  V30 1899 H 170.753 -1.39048 3.46006 0
M  V30 1900 N 172.938 -1.57226 0.108567 0
M  V30 1901 C 174.184 -1.95121 -0.552761 0
M  V30 1902 C 174.517 -0.991345 -1.66991 0
M  V30 1903 O 173.792 -0.0267211 -1.94482 0
M  V30 1904 C 174.075 -3.43039 -1.09528 0
M  V30 1905 C 173.928 -4.49797 0.0177332 0
M  V30 1906 C 175.247 -3.92567 -1.98945 0
M  V30 1907 H 172.366 -0.709496 -0.199461 0
M  V30 1908 H 175.008 -1.89126 0.182011 0
M  V30 1909 H 173.158 -3.48279 -1.72146 0
M  V30 1910 H 174.83 -4.56661 0.652584 0
M  V30 1911 H 173.073 -4.284 0.682309 0
M  V30 1912 H 173.744 -5.50528 -0.402919 0
M  V30 1913 H 176.22 -3.89565 -1.46214 0
M  V30 1914 H 175.096 -4.96605 -2.33827 0
M  V30 1915 H 175.357 -3.32648 -2.91201 0
M  V30 1916 N 174.416 0.165178 -1.56732 0
M  V30 1917 C 175.379 1.18822 -1.95995 0
M  V30 1918 C 176.379 1.3685 -0.84431 0
M  V30 1919 O 177.569 1.34152 -1.11126 0
M  V30 1920 C 174.701 2.5521 -2.26011 0
M  V30 1921 H 175.894 0.851825 -2.87548 0
M  V30 1922 H 173.447 0.407857 -1.50885 0
M  V30 1923 H 174.182 2.93852 -1.37191 0
M  V30 1924 H 173.967 2.43489 -3.07336 0
M  V30 1925 H 175.457 3.28927 -2.57288 0
M  V30 1926 N 175.894 1.51508 0.433938 0
M  V30 1927 C 177.119 1.68443 1.21003 0
M  V30 1928 C 177.544 0.382636 1.84167 0
M  V30 1929 O 176.902 -0.65755 1.68956 0
M  V30 1930 C 176.95 2.80405 2.26727 0
M  V30 1931 O 176.054 2.44245 3.32292 0
M  V30 1932 H 175.395 0.561536 0.354363 0
M  V30 1933 H 177.925 1.9809 0.512024 0
M  V30 1934 H 177.935 3.0459 2.71457 0
M  V30 1935 H 176.61 3.74867 1.80132 0
M  V30 1936 H 175.187 2.30644 2.93015 0
M  V30 1937 N 177.372 -0.689602 1.41712 0
M  V30 1938 C 178.335 -1.78521 1.43746 0
M  V30 1939 C 179.335 -1.57436 0.327191 0
M  V30 1940 O 180.525 -1.64 0.587348 0
M  V30 1941 C 177.657 -3.16971 1.25467 0
M  V30 1942 H 178.85 -1.78108 2.41283 0
M  V30 1943 H 176.403 -0.89781 1.27942 0
M  V30 1944 H 177.138 -3.23019 0.287948 0
M  V30 1945 H 176.923 -3.33678 2.05917 0
M  V30 1946 H 178.413 -3.96935 1.2974 0
M  V30 1947 N 178.85 -1.27639 -0.924453 0
M  V30 1948 C 180.096 -1.14336 -1.67497 0
M  V30 1949 C 180.429 0.309465 -1.91718 0
M  V30 1950 O 179.704 1.22608 -1.50989 0
M  V30 1951 C 179.987 -1.93096 -3.0395 0
M  V30 1952 C 179.84 -3.46381 -2.8695 0
M  V30 1953 C 181.159 -1.73798 -4.0433 0
M  V30 1954 H 178.278 -0.416728 -0.607871 0
M  V30 1955 H 180.92 -1.56832 -1.07256 0
M  V30 1956 H 179.07 -1.56982 -3.55372 0
M  V30 1957 H 180.742 -3.92343 -2.42621 0
M  V30 1958 H 178.985 -3.72557 -2.22225 0
M  V30 1959 H 179.656 -3.96735 -3.83804 0
M  V30 1960 H 182.132 -2.05293 -3.61931 0
M  V30 1961 H 181.008 -2.31294 -4.97789 0
M  V30 1962 H 181.269 -0.686725 -4.36734 0
M  V30 1963 N 180.328 1.1314 -1.09713 0
M  V30 1964 C 181.275 2.18642 -0.739196 0
M  V30 1965 C 182.245 1.63706 0.280978 0
M  V30 1966 O 183.43 1.90111 0.161946 0
M  V30 1967 C 180.57 3.44685 -0.169102 0
M  V30 1968 C 179.683 4.13711 -1.24367 0
M  V30 1969 C 178.818 5.27379 -0.636019 0
M  V30 1970 C 177.857 5.88259 -1.69169 0
M  V30 1971 N 176.994 6.93352 -1.10485 0
M  V30 1972 H 181.834 2.48607 -1.64312 0
M  V30 1973 H 179.371 1.22066 -0.820875 0
M  V30 1974 H 181.329 4.16815 0.179256 0
M  V30 1975 H 179.959 3.15161 0.698079 0
M  V30 1976 H 179.011 3.39835 -1.70927 0
M  V30 1977 H 180.323 4.55037 -2.04311 0
M  V30 1978 H 179.477 6.06238 -0.236677 0
M  V30 1979 H 178.216 4.8731 0.194928 0
M  V30 1980 H 177.221 5.08092 -2.10055 0
M  V30 1981 H 178.446 6.30399 -2.52536 0
M  V30 1982 H 176.392 6.55335 -0.295234 0
M  V30 1983 H 176.309 7.33236 -1.84121 0
M  V30 1984 H 177.577 7.76057 -0.73181 0
M  V30 1985 N 181.806 0.884767 1.30421 0
M  V30 1986 C 182.736 0.367574 2.30589 0
M  V30 1987 C 183.717 -0.549464 1.60981 0
M  V30 1988 O 184.902 -0.46336 1.88591 0
M  V30 1989 C 182.032 -0.418944 3.44764 0
M  V30 1990 C 180.986 0.406316 4.26067 0
M  V30 1991 C 180.312 -0.506793 5.32293 0
M  V30 1992 C 181.612 1.64832 4.95608 0
M  V30 1993 H 183.306 1.20462 2.74097 0
M  V30 1994 H 180.852 0.580695 1.31772 0
M  V30 1995 H 182.805 -0.791395 4.13902 0
M  V30 1996 H 181.529 -1.28964 3.0006 0
M  V30 1997 H 180.188 0.760903 3.58617 0
M  V30 1998 H 179.836 -1.37519 4.83836 0
M  V30 1999 H 179.536 0.0415828 5.87585 0
M  V30 2000 H 181.06 -0.875764 6.04287 0
M  V30 2001 H 182.474 1.34646 5.57264 0
M  V30 2002 H 180.871 2.13688 5.60765 0
M  V30 2003 H 181.941 2.39284 4.21748 0
M  V30 2004 N 183.284 -1.43765 0.645699 0
M  V30 2005 C 184.232 -2.32516 -0.0624849 0
M  V30 2006 C 185.226 -1.48183 -0.820855 0
M  V30 2007 O 186.432 -1.64439 -0.732106 0
M  V30 2008 H 182.807 -0.750989 -0.0389864 0
M  V30 2009 H 184.778 -2.89979 0.703892 0
M  V30 2010 C 183.527 -3.32389 -1.02044 0
M  V30 2011 H 182.85 -3.97301 -0.446312 0
M  V30 2012 H 184.29 -3.97138 -1.48517 0
M  V30 2013 C 182.749 -2.62416 -2.11281 0
M  V30 2014 O 183.279 -2.434 -3.19561 0
M  V30 2015 N 181.485 -2.21913 -1.87624 0
M  V30 2016 H 181.032 -2.37578 -0.995703 0
M  V30 2017 H 180.99 -1.75424 -2.6091 0
M  V30 2018 N 184.763 -0.387143 -1.52771 0
M  V30 2019 C 185.71 0.449048 -2.26389 0
M  V30 2020 C 186.68 1.05961 -1.27912 0
M  V30 2021 O 187.865 1.08804 -1.56737 0
M  V30 2022 C 185.005 1.57155 -3.0724 0
M  V30 2023 C 184.118 0.984066 -4.20643 0
M  V30 2024 C 183.253 2.07745 -4.88892 0
M  V30 2025 C 182.292 1.46574 -5.94292 0
M  V30 2026 N 181.429 2.49834 -6.56146 0
M  V30 2027 H 186.269 -0.185205 -2.97424 0
M  V30 2028 H 183.806 -0.103164 -1.46738 0
M  V30 2029 H 185.764 2.23309 -3.52405 0
M  V30 2030 H 184.394 2.17615 -2.38419 0
M  V30 2031 H 183.446 0.212193 -3.79808 0
M  V30 2032 H 184.758 0.497029 -4.96318 0
M  V30 2033 H 183.912 2.81673 -5.3735 0
M  V30 2034 H 182.651 2.59807 -4.12737 0
M  V30 2035 H 181.656 0.711696 -5.45174 0
M  V30 2036 H 182.881 0.953088 -6.72379 0
M  V30 2037 H 180.827 3.0107 -5.82832 0
M  V30 2038 H 180.744 2.05879 -7.27427 0
M  V30 2039 H 182.012 3.23399 -7.09249 0
M  V30 2040 N 186.241 1.57166 -0.116904 0
M  V30 2041 C 187.173 2.12271 0.864507 0
M  V30 2042 C 188.186 1.06494 1.23138 0
M  V30 2043 O 189.375 1.33873 1.18069 0
M  V30 2044 C 186.475 2.60564 2.16702 0
M  V30 2045 C 185.648 3.90416 1.97216 0
M  V30 2046 C 184.707 4.24329 3.11178 0
M  V30 2047 O 183.733 4.93182 2.84184 0
M  V30 2048 N 184.935 3.8148 4.37554 0
M  V30 2049 H 187.7 2.97102 0.393726 0
M  V30 2050 H 185.261 1.61759 0.0675805 0
M  V30 2051 H 187.253 2.80282 2.91932 0
M  V30 2052 H 185.823 1.80623 2.55135 0
M  V30 2053 H 185.043 3.79627 1.06192 0
M  V30 2054 H 186.331 4.75327 1.81499 0
M  V30 2055 H 185.729 3.25943 4.62361 0
M  V30 2056 H 184.286 4.06311 5.09661 0
M  V30 2057 N 187.719 -0.156864 1.56817 0
M  V30 2058 C 188.651 -1.21883 1.94106 0
M  V30 2059 C 189.664 -1.3971 0.835754 0
M  V30 2060 O 190.853 -1.39457 1.11418 0
M  V30 2061 C 187.953 -2.58527 2.19127 0
M  V30 2062 C 187.126 -2.61809 3.50393 0
M  V30 2063 C 186.185 -3.7992 3.64071 0
M  V30 2064 O 185.211 -3.65249 4.36557 0
M  V30 2065 N 186.413 -4.96973 2.99997 0
M  V30 2066 H 189.178 -0.901974 2.85805 0
M  V30 2067 H 186.739 -0.346513 1.58148 0
M  V30 2068 H 188.731 -3.36034 2.25529 0
M  V30 2069 H 187.301 -2.82545 1.33742 0
M  V30 2070 H 186.521 -1.7029 3.5552 0
M  V30 2071 H 187.809 -2.61024 4.36742 0
M  V30 2072 H 187.207 -5.11794 2.41004 0
M  V30 2073 H 185.764 -5.7229 3.11974 0
M  V30 2074 N 189.197 -1.51736 -0.425897 0
M  V30 2075 C 190.425 -1.68794 -1.1965 0
M  V30 2076 C 190.84 -0.390164 -1.84725 0
M  V30 2077 O 190.197 0.632376 -1.71194 0
M  V30 2078 C 190.248 -2.81174 -2.27208 0
M  V30 2079 O 189.969 -4.05925 -1.64793 0
M  V30 2080 C 191.47 -3.09599 -3.17275 0
M  V30 2081 H 188.69 -0.566128 -0.360194 0
M  V30 2082 H 191.234 -1.98211 -0.503249 0
M  V30 2083 H 189.389 -2.54324 -2.9223 0
M  V30 2084 H 189.803 -4.68423 -2.35967 0
M  V30 2085 H 191.277 -3.91786 -3.88854 0
M  V30 2086 H 191.754 -2.22468 -3.78688 0
M  V30 2087 H 192.36 -3.38151 -2.57941 0
M  V30 2088 N 190.675 0.682077 -1.42076 0
M  V30 2089 C 191.952 1.43755 -1.32642 0
M  V30 2090 C 192.332 2.11063 0.0396611 0
M  V30 2091 O 191.68 2.02701 1.05474 0
M  V30 2092 C 191.89 2.44596 -2.48946 0
M  V30 2093 C 193.238 3.09454 -2.9073 0
M  V30 2094 O 194.262 2.54922 -2.48783 0
M  V30 2095 O 193.121 4.08253 -3.63307 0
M  V30 2096 H 190.215 0.640857 -0.522715 0
M  V30 2097 H 192.761 0.711415 -1.54068 0
M  V30 2098 H 191.533 1.93609 -3.40046 0
M  V30 2099 H 191.156 3.24701 -2.29467 0
M  V30 2100 N 192.153 1.28127 0.917671 0
M  V30 2101 C 193.402 1.14432 1.66097 0
M  V30 2102 C 193.715 -0.307247 1.93172 0
M  V30 2103 O 194.921 -0.565259 2.65551 0
M  V30 2104 C 193.377 2.00015 2.99202 0
M  V30 2105 C 192.985 3.49889 2.79789 0
M  V30 2106 C 194.729 1.94996 3.77064 0
M  V30 2107 C 192.636 4.27636 4.08511 0
M  V30 2108 H 191.566 0.424662 0.62304 0
M  V30 2109 H 194.217 1.52628 1.01868 0
M  V30 2110 H 192.599 1.54672 3.64544 0
M  V30 2111 H 193.773 4.03162 2.23152 0
M  V30 2112 H 192.088 3.56392 2.15345 0
M  V30 2113 H 194.685 2.50354 4.72469 0
M  V30 2114 H 195.028 0.925819 4.05875 0
M  V30 2115 H 195.561 2.38287 3.18534 0
M  V30 2116 H 192.3 5.30615 3.84874 0
M  V30 2117 H 191.82 3.79137 4.64774 0
M  V30 2118 H 193.499 4.37346 4.76799 0
M  V30 2119 N 193.631 -1.12557 1.10312 0
M  V30 2120 C 194.594 -2.16434 0.75424 0
M  V30 2121 C 195.594 -1.59278 -0.220685 0
M  V30 2122 O 196.784 -1.742 0.00230591 0
M  V30 2123 C 193.916 -3.40699 0.116987 0
M  V30 2124 H 195.109 -2.48811 1.67431 0
M  V30 2125 H 192.662 -1.27542 0.903475 0
M  V30 2126 H 193.397 -3.13921 -0.813877 0
M  V30 2127 H 193.182 -3.83459 0.818613 0
M  V30 2128 H 194.672 -4.17451 -0.111387 0
M  V30 2129 N 195.109 -0.891671 -1.2995 0
M  V30 2130 C 196.355 -0.514261 -1.96171 0
M  V30 2131 C 196.688 0.935506 -1.70182 0
M  V30 2132 O 195.963 1.66204 -1.01028 0
M  V30 2133 C 196.246 -0.797719 -3.51153 0
M  V30 2134 C 196.099 -2.2986 -3.86632 0
M  V30 2135 C 197.418 -0.278749 -4.39216 0
M  V30 2136 H 194.537 -0.188314 -0.712535 0
M  V30 2137 H 197.179 -1.11689 -1.53706 0
M  V30 2138 H 195.329 -0.284826 -3.87455 0
M  V30 2139 H 197.001 -2.88042 -3.60319 0
M  V30 2140 H 195.244 -2.76257 -3.34462 0
M  V30 2141 H 195.915 -2.44753 -4.94773 0
M  V30 2142 H 198.391 -0.717825 -4.09862 0
M  V30 2143 H 197.267 -0.506353 -5.46559 0
M  V30 2144 H 197.528 0.820266 -4.34424 0
M  V30 2145 N 196.587 1.43421 -0.653314 0
M  V30 2146 C 197.535 2.32546 0.0501531 0
M  V30 2147 C 198.529 1.48617 0.812985 0
M  V30 2148 O 199.735 1.64825 0.723375 0
M  V30 2149 H 196.11 0.751185 0.0350032 0
M  V30 2150 H 198.081 2.89602 -0.719261 0
M  V30 2151 C 196.83 3.32925 1.00279 0
M  V30 2152 H 196.153 3.97532 0.425236 0
M  V30 2153 H 197.593 3.9792 1.46409 0
M  V30 2154 C 196.052 2.63532 2.09886 0
M  V30 2155 O 196.582 2.45092 3.18265 0
M  V30 2156 N 194.788 2.22905 1.86445 0
M  V30 2157 H 194.335 2.38103 0.98309 0
M  V30 2158 H 194.293 1.76805 2.59976 0
M  V30 2159 N 198.065 0.39524 1.52563 0
M  V30 2160 C 199.311 -0.177763 2.02622 0
M  V30 2161 C 199.666 -1.43974 1.27629 0
M  V30 2162 O 198.959 -1.87995 0.36992 0
M  V30 2163 C 199.153 -0.493444 3.53977 0
M  V30 2164 C 198.982 0.736392 4.4363 0
M  V30 2165 C 197.752 1.25744 4.89404 0
M  V30 2166 C 199.95 1.61046 4.88435 0
M  V30 2167 N 197.932 2.44421 5.63145 0
M  V30 2168 C 199.303 2.64359 5.60816 0
M  V30 2169 C 201.358 1.62985 4.70468 0
M  V30 2170 C 200.061 3.69505 6.17137 0
M  V30 2171 C 202.087 2.67042 5.27677 0
M  V30 2172 C 201.449 3.69077 5.99968 0
M  V30 2173 H 197.548 -0.0269794 0.781534 0
M  V30 2174 H 200.132 0.546466 1.86874 0
M  V30 2175 H 198.303 -1.18672 3.69826 0
M  V30 2176 H 200.035 -1.05412 3.90731 0
M  V30 2177 H 196.79 0.817546 4.6649 0
M  V30 2178 H 197.214 3.04485 6.04663 0
M  V30 2179 H 201.856 0.854442 4.14076 0
M  V30 2180 H 199.574 4.4791 6.72608 0
M  V30 2181 H 203.16 2.69433 5.15652 0
M  V30 2182 H 202.04 4.48273 6.43444 0
M  V30 2183 N 199.544 -1.57102 0.125237 0
M  V30 2184 C 200.507 -2.14471 -0.80838 0
M  V30 2185 C 201.507 -1.0811 -1.19033 0
M  V30 2186 O 202.697 -1.33856 -1.11482 0
M  V30 2187 C 199.829 -2.69005 -2.09402 0
M  V30 2188 H 201.022 -2.98297 -0.309696 0
M  V30 2189 H 198.575 -1.55807 -0.124051 0
M  V30 2190 H 199.31 -1.88785 -2.63687 0
M  V30 2191 H 199.095 -3.46799 -1.82957 0
M  V30 2192 H 200.585 -3.13278 -2.76128 0
M  V30 2193 N 201.022 0.148545 -1.56898 0
M  V30 2194 C 202.27 0.859717 -1.82902 0
M  V30 2195 C 202.591 1.81775 -0.70588 0
M  V30 2196 O 201.861 1.93994 0.272586 0
M  V30 2197 H 200.441 0.320469 -0.674766 0
M  V30 2198 H 203.103 0.142918 -1.94375 0
M  V30 2199 H 202.199 1.4229 -2.77777 0
M  V30 2200 N 202.5 1.5196 0.417844 0
M  V30 2201 C 203.748 1.65263 1.16329 0
M  V30 2202 C 204.069 0.380634 1.91249 0
M  V30 2203 O 203.339 -0.604214 1.86349 0
M  V30 2204 H 201.919 0.60912 0.432414 0
M  V30 2205 H 204.581 1.88969 0.477162 0
M  V30 2206 H 203.677 2.4896 1.88217 0
M  V30 2207 N 203.978 -0.674533 1.42435 0
M  V30 2208 C 204.908 -1.80009 1.48724 0
M  V30 2209 C 205.889 -1.6659 0.343793 0
M  V30 2210 O 207.074 -1.86007 0.558137 0
M  V30 2211 C 204.204 -3.18306 1.38919 0
M  V30 2212 C 203.158 -3.46461 2.51294 0
M  V30 2213 C 202.484 -4.84335 2.26547 0
M  V30 2214 C 203.784 -3.43328 3.93603 0
M  V30 2215 H 205.478 -1.75004 2.42928 0
M  V30 2216 H 203.024 -0.840533 1.16923 0
M  V30 2217 H 204.977 -3.9678 1.41927 0
M  V30 2218 H 203.701 -3.2399 0.412094 0
M  V30 2219 H 202.36 -2.70348 2.47604 0
M  V30 2220 H 202.008 -4.86669 1.2713 0
M  V30 2221 H 201.708 -5.04136 3.01861 0
M  V30 2222 H 203.232 -5.65094 2.31304 0
M  V30 2223 H 204.646 -4.11772 3.98894 0
M  V30 2224 H 203.043 -3.74664 4.68771 0
M  V30 2225 H 204.113 -2.41897 4.20255 0
M  V30 2226 N 205.456 -1.28612 -0.910864 0
M  V30 2227 C 206.406 -1.09423 -2.00026 0
M  V30 2228 C 207.39 -0.0170079 -1.60891 0
M  V30 2229 O 208.582 -0.237472 -1.754 0
M  V30 2230 C 205.711 -0.76114 -3.34756 0
M  V30 2231 C 204.797 -1.87735 -3.80285 0
M  V30 2232 N 205.188 -3.11938 -3.98156 0
M  V30 2233 C 203.486 -1.76786 -4.09467 0
M  V30 2234 C 204.187 -3.84687 -4.36338 0
M  V30 2235 N 203.163 -3.12555 -4.44759 0
M  V30 2236 H 206.965 -2.03658 -2.11898 0
M  V30 2237 H 204.479 -1.19573 -1.09891 0
M  V30 2238 H 206.476 -0.604743 -4.12491 0
M  V30 2239 H 205.136 0.173403 -3.24237 0
M  V30 2240 H 206.147 -3.47516 -3.83996 0
M  V30 2241 H 202.824 -0.905284 -4.07567 0
M  V30 2242 H 204.214 -4.91518 -4.58104 0
M  V30 2243 N 206.934 1.1197 -1.10907 0
M  V30 2244 C 207.884 2.15946 -0.731538 0
M  V30 2245 C 208.868 1.58758 0.261699 0
M  V30 2246 O 210.06 1.76863 0.0696722 0
M  V30 2247 C 207.189 3.42877 -0.170299 0
M  V30 2248 C 206.275 4.07037 -1.19087 0
M  V30 2249 N 206.666 4.46135 -2.38322 0
M  V30 2250 C 204.964 4.33884 -1.03252 0
M  V30 2251 C 205.665 4.96331 -3.03366 0
M  V30 2252 N 204.641 4.9214 -2.30865 0
M  V30 2253 H 208.443 2.43947 -1.63912 0
M  V30 2254 H 205.957 1.28927 -0.987505 0
M  V30 2255 H 207.954 4.16732 0.118271 0
M  V30 2256 H 206.614 3.16343 0.731935 0
M  V30 2257 H 207.625 4.38345 -2.75815 0
M  V30 2258 H 204.302 4.17084 -0.186256 0
M  V30 2259 H 205.692 5.36257 -4.04818 0
M  V30 2260 N 208.412 0.89855 1.29475 0
M  V30 2261 C 209.375 0.380272 2.26023 0
M  V30 2262 C 210.375 -0.484891 1.53315 0
M  V30 2263 O 211.565 -0.290108 1.71767 0
M  V30 2264 C 208.697 -0.45651 3.3783 0
M  V30 2265 H 209.89 1.23295 2.73383 0
M  V30 2266 H 207.443 0.676589 1.40897 0
M  V30 2267 H 208.178 -1.32922 2.95808 0
M  V30 2268 H 207.963 0.163393 3.91759 0
M  V30 2269 H 209.453 -0.810466 4.0966 0
M  V30 2270 N 209.89 -1.43072 0.660911 0
M  V30 2271 C 210.837 -2.30785 -0.0259884 0
M  V30 2272 C 211.807 -1.45184 -0.806888 0
M  V30 2273 O 212.992 -1.74041 -0.781943 0
M  V30 2274 C 210.132 -3.30861 -0.981067 0
M  V30 2275 C 209.245 -4.31558 -0.195458 0
M  V30 2276 C 208.38 -5.18712 -1.14503 0
M  V30 2277 C 207.419 -6.11097 -0.350299 0
M  V30 2278 N 206.556 -6.90849 -1.25186 0
M  V30 2279 H 211.396 -2.88975 0.727846 0
M  V30 2280 H 208.933 -1.42353 0.370682 0
M  V30 2281 H 210.891 -3.87399 -1.54849 0
M  V30 2282 H 209.521 -2.74304 -1.70169 0
M  V30 2283 H 208.573 -3.77252 0.488374 0
M  V30 2284 H 209.885 -4.9701 0.422176 0
M  V30 2285 H 209.039 -5.79914 -1.78284 0
M  V30 2286 H 207.778 -4.53404 -1.79656 0
M  V30 2287 H 206.783 -5.48976 0.300808 0
M  V30 2288 H 208.008 -6.7845 0.296941 0
M  V30 2289 H 205.954 -6.28182 -1.89005 0
M  V30 2290 H 205.871 -7.52854 -0.688971 0
M  V30 2291 H 207.139 -7.5655 -1.87757 0
M  V30 2292 N 211.368 -0.403325 -1.52352 0
M  V30 2293 C 212.315 0.425011 -2.26853 0
M  V30 2294 C 213.285 1.04598 -1.29029 0
M  V30 2295 O 214.47 1.07135 -1.57882 0
M  V30 2296 C 211.61 1.53888 -3.08889 0
M  V30 2297 C 210.723 0.939396 -4.21663 0
M  V30 2298 C 209.858 2.02547 -4.91068 0
M  V30 2299 C 208.897 1.40263 -5.95813 0
M  V30 2300 N 208.034 2.4286 -6.58759 0
M  V30 2301 H 212.874 -0.21674 -2.97211 0
M  V30 2302 H 210.411 -0.118722 -1.4662 0
M  V30 2303 H 212.369 2.19558 -3.54753 0
M  V30 2304 H 210.999 2.15074 -2.40714 0
M  V30 2305 H 210.051 0.171898 -3.80011 0
M  V30 2306 H 211.363 0.44436 -4.96817 0
M  V30 2307 H 210.517 2.75958 -5.40308 0
M  V30 2308 H 209.256 2.55415 -4.15469 0
M  V30 2309 H 208.261 0.653833 -5.45898 0
M  V30 2310 H 209.486 0.881719 -6.73352 0
M  V30 2311 H 207.432 2.94871 -5.85992 0
M  V30 2312 H 207.349 1.98152 -7.2957 0
M  V30 2313 H 208.617 3.15858 -7.12639 0
M  V30 2314 N 212.846 1.57033 -0.133567 0
M  V30 2315 C 214.071 2.00475 0.531477 0
M  V30 2316 C 214.496 1.01291 1.58499 0
M  V30 2317 O 213.854 -0.0133279 1.81295 0
M  V30 2318 C 213.902 3.42729 1.12113 0
M  V30 2319 O 213.006 3.46498 2.23636 0
M  V30 2320 H 212.347 0.650876 0.131362 0
M  V30 2321 H 214.877 2.03344 -0.22634 0
M  V30 2322 H 214.887 3.81246 1.4531 0
M  V30 2323 H 213.562 4.14428 0.349557 0
M  V30 2324 H 212.139 3.19811 1.91769 0
M  V30 2325 N 214.325 -0.140222 1.56975 0
M  V30 2326 C 215.235 -1.19223 2.02047 0
M  V30 2327 C 216.251 -1.46612 0.937062 0
M  V30 2328 O 217.427 -1.58148 1.24704 0
M  V30 2329 C 214.492 -2.50414 2.39778 0
M  V30 2330 C 213.553 -2.30612 3.621 0
M  V30 2331 C 212.786 -3.55547 3.98023 0
M  V30 2332 O 213.009 -4.62004 3.34528 0
M  V30 2333 O 211.943 -3.47808 4.91237 0
M  V30 2334 H 215.769 -0.839559 2.91865 0
M  V30 2335 H 213.354 -0.349453 1.45256 0
M  V30 2336 H 215.236 -3.27747 2.64877 0
M  V30 2337 H 213.911 -2.85198 1.53114 0
M  V30 2338 H 212.818 -1.51207 3.4218 0
M  V30 2339 H 214.151 -2.00741 4.49404 0
M  V30 2340 N 215.803 -1.52179 -0.40978 0
M  V30 2341 C 216.766 -1.74853 -1.48186 0
M  V30 2342 C 217.766 -0.618417 -1.48433 0
M  V30 2343 O 218.956 -0.886286 -1.49969 0
M  V30 2344 C 216.088 -1.8303 -2.87598 0
M  V30 2345 H 217.281 -2.70559 -1.29374 0
M  V30 2346 H 214.834 -1.42586 -0.640233 0
M  V30 2347 H 215.569 -0.89236 -3.11781 0
M  V30 2348 H 215.354 -2.65187 -2.88822 0
M  V30 2349 H 216.844 -2.02316 -3.65319 0
M  V30 2350 N 217.281 0.66697 -1.42791 0
M  V30 2351 C 218.506 1.46004 -1.47301 0
M  V30 2352 C 218.931 1.87894 -0.0880317 0
M  V30 2353 O 218.289 1.56502 0.915253 0
M  V30 2354 C 218.337 2.68031 -2.41229 0
M  V30 2355 O 217.441 3.6659 -1.88906 0
M  V30 2356 H 216.782 0.43832 -0.49877 0
M  V30 2357 H 219.312 0.817391 -1.87563 0
M  V30 2358 H 219.322 3.1601 -2.58073 0
M  V30 2359 H 217.997 2.36883 -3.41847 0
M  V30 2360 H 216.574 3.25661 -1.81656 0
M  V30 2361 N 218.759 1.29093 0.90403 0
M  V30 2362 C 220.007 1.16583 1.65085 0
M  V30 2363 C 220.328 -0.283933 1.92922 0
M  V30 2364 O 219.598 -1.19509 1.55224 0
M  V30 2365 H 218.178 0.428467 0.611903 0
M  V30 2366 H 220.84 1.61959 1.08422 0
M  V30 2367 H 219.936 1.71266 2.6091 0
M  V30 2368 N 220.237 -1.11381 1.11499 0
M  V30 2369 C 221.484 -1.83132 0.864231 0
M  V30 2370 C 221.812 -1.84683 -0.610114 0
M  V30 2371 O 221.067 -1.29589 -1.46646 0
M  V30 2372 C 221.366 -3.30026 1.37177 0
M  V30 2373 C 221.032 -3.48634 2.85946 0
M  V30 2374 C 219.694 -3.53421 3.26569 0
M  V30 2375 C 222.046 -3.54837 3.81759 0
M  V30 2376 C 219.374 -3.61967 4.61733 0
M  V30 2377 C 221.726 -3.64915 5.1674 0
M  V30 2378 C 220.39 -3.67962 5.5692 0
M  V30 2379 H 219.66 -0.670127 0.316245 0
M  V30 2380 H 222.307 -1.31354 1.3935 0
M  V30 2381 H 220.612 -3.84304 0.762753 0
M  V30 2382 H 222.309 -3.84034 1.15408 0
M  V30 2383 H 218.899 -3.45579 2.53521 0
M  V30 2384 H 223.083 -3.50399 3.51474 0
M  V30 2385 H 218.339 -3.62603 4.92269 0
M  V30 2386 H 222.513 -3.68658 5.90816 0
M  V30 2387 H 220.14 -3.74336 6.61647 0
M  V30 2388 N 221.715 -0.905404 -1.28997 0
M  V30 2389 C 222.955 -0.541232 -1.97104 0
M  V30 2390 C 223.319 0.896841 -1.69767 0
M  V30 2391 O 224.52 1.36817 -2.31375 0
M  V30 2392 C 222.791 -0.832134 -3.47578 0
M  V30 2393 S 224.35 -0.573127 -4.35041 0
M  V30 2394 H 221.168 -0.200576 -0.682122 0
M  V30 2395 H 223.77 -1.16906 -1.56694 0
M  V30 2396 H 222.474 -1.87687 -3.64968 0
M  V30 2397 H 222.005 -0.192636 -3.92928 0
M  V30 2398 H 224.02 0.579297 -4.92807 0
M  V30 2399 N 223.193 1.4272 -0.668489 0
M  V30 2400 C 224.423 2.05668 -0.196063 0
M  V30 2401 C 224.831 1.5028 1.14946 0
M  V30 2402 O 224.174 0.6348 1.72383 0
M  V30 2403 C 224.236 3.59469 -0.0468879 0
M  V30 2404 C 223.9 4.37518 -1.32012 0
M  V30 2405 C 224.897 4.68584 -2.25222 0
M  V30 2406 C 222.582 4.77266 -1.56596 0
M  V30 2407 C 224.576 5.38326 -3.41297 0
M  V30 2408 C 222.263 5.4675 -2.72962 0
M  V30 2409 C 223.261 5.77204 -3.65137 0
M  V30 2410 O 222.949 6.45264 -4.79468 0
M  V30 2411 H 222.681 0.669382 -0.0943599 0
M  V30 2412 H 225.235 1.83954 -0.913788 0
M  V30 2413 H 223.465 3.79817 0.726357 0
M  V30 2414 H 225.154 4.04071 0.384852 0
M  V30 2415 H 225.92 4.38382 -2.07477 0
M  V30 2416 H 221.799 4.52959 -0.857249 0
M  V30 2417 H 225.343 5.62014 -4.13263 0
M  V30 2418 H 221.24 5.76369 -2.90635 0
M  V30 2419 H 222.008 6.63753 -4.78931 0
M  V30 2420 N 224.671 0.411399 1.52136 0
M  V30 2421 C 225.917 -0.163888 2.02137 0
M  V30 2422 C 226.25 -1.44597 1.29636 0
M  V30 2423 O 225.525 -1.90272 0.403353 0
M  V30 2424 C 225.808 -0.40927 3.57767 0
M  V30 2425 C 225.661 0.889643 4.40914 0
M  V30 2426 C 226.98 -1.19042 4.23694 0
M  V30 2427 H 224.099 -0.0580896 0.734707 0
M  V30 2428 H 226.741 0.54531 1.82007 0
M  V30 2429 H 224.891 -1.0134 3.7505 0
M  V30 2430 H 226.563 1.52575 4.35337 0
M  V30 2431 H 224.806 1.50011 4.07037 0
M  V30 2432 H 225.477 0.672314 5.4789 0
M  V30 2433 H 227.953 -0.678942 4.10524 0
M  V30 2434 H 226.829 -1.33086 5.32522 0
M  V30 2435 H 227.09 -2.21166 3.82803 0
M  V30 2436 N 226.149 -1.5696 0.141893 0
M  V30 2437 C 227.097 -2.17784 -0.816874 0
M  V30 2438 C 228.091 -1.1334 -1.25899 0
M  V30 2439 O 229.297 -1.316 -1.22806 0
M  V30 2440 H 225.672 -0.697278 -0.281615 0
M  V30 2441 H 227.643 -2.97087 -0.279621 0
M  V30 2442 C 226.392 -2.80983 -2.04802 0
M  V30 2443 H 225.715 -3.61062 -1.7168 0
M  V30 2444 H 227.155 -3.2705 -2.69841 0
M  V30 2445 C 225.614 -1.79228 -2.8527 0
M  V30 2446 O 226.144 -1.25962 -3.8144 0
M  V30 2447 N 224.35 -1.48647 -2.49704 0
M  V30 2448 H 223.897 -1.92155 -1.71564 0
M  V30 2449 H 223.855 -0.808115 -3.03837 0
M  V30 2450 N 227.627 0.131896 -1.57047 0
M  V30 2451 C 228.904 0.871495 -1.75112 0
M  V30 2452 C 229.284 1.9866 -0.713949 0
M  V30 2453 O 228.632 2.26965 0.264447 0
M  V30 2454 C 228.842 1.40007 -3.19686 0
M  V30 2455 C 230.19 1.85752 -3.81813 0
M  V30 2456 O 231.214 1.49715 -3.23209 0
M  V30 2457 O 230.073 2.5226 -4.84796 0
M  V30 2458 H 227.167 0.412919 -0.716538 0
M  V30 2459 H 229.713 0.116641 -1.69299 0
M  V30 2460 H 228.485 0.599404 -3.86682 0
M  V30 2461 H 228.108 2.218 -3.29986 0
M  V30 2462 N 229.106 1.52395 0.401703 0
M  V30 2463 C 230.355 1.66044 1.14509 0
M  V30 2464 C 230.668 0.400216 1.91462 0
M  V30 2465 O 231.874 0.416632 2.68284 0
M  V30 2466 C 230.33 2.93388 2.0845 0
M  V30 2467 C 229.938 4.26545 1.36978 0
M  V30 2468 C 231.682 3.16402 2.83001 0
M  V30 2469 C 229.589 5.45007 2.29611 0
M  V30 2470 H 228.519 0.618562 0.431158 0
M  V30 2471 H 231.17 1.78886 0.40892 0
M  V30 2472 H 229.552 2.74263 2.8565 0
M  V30 2473 H 230.726 4.56179 0.650916 0
M  V30 2474 H 229.041 4.09692 0.74438 0
M  V30 2475 H 231.638 4.02085 3.52465 0
M  V30 2476 H 231.981 2.30943 3.46368 0
M  V30 2477 H 232.514 3.36034 2.12898 0
M  V30 2478 H 229.253 6.32835 1.70879 0
M  V30 2479 H 228.773 5.19702 2.9945 0
M  V30 2480 H 230.452 5.7838 2.89974 0
M  V30 2481 N 230.584 -0.659388 1.43143 0
M  V30 2482 C 231.83 -1.42145 1.44647 0
M  V30 2483 C 232.163 -1.9408 0.0681907 0
M  V30 2484 O 231.438 -1.71899 -0.910007 0
M  V30 2485 C 231.721 -2.60735 2.48373 0
M  V30 2486 C 231.574 -2.14332 3.95451 0
M  V30 2487 C 232.893 -3.62951 2.48906 0
M  V30 2488 H 230.012 -0.51552 0.526696 0
M  V30 2489 H 232.654 -0.748069 1.74654 0
M  V30 2490 H 230.804 -3.18184 2.22916 0
M  V30 2491 H 232.476 -1.61932 4.31944 0
M  V30 2492 H 230.719 -1.4576 4.08578 0
M  V30 2493 H 231.39 -2.99583 4.63631 0
M  V30 2494 H 233.866 -3.1525 2.71582 0
M  V30 2495 H 232.742 -4.43487 3.23435 0
M  V30 2496 H 233.003 -4.15126 1.52061 0
M  V30 2497 N 232.062 -1.29571 -0.897171 0
M  V30 2498 C 232.992 -1.17473 -2.01798 0
M  V30 2499 C 233.973 -0.068323 -1.69963 0
M  V30 2500 O 235.158 -0.248239 -1.92607 0
M  V30 2501 C 232.288 -0.853099 -3.36659 0
M  V30 2502 C 231.242 -1.9161 -3.82713 0
M  V30 2503 C 230.568 -1.44773 -5.14728 0
M  V30 2504 C 231.868 -3.32535 -4.02763 0
M  V30 2505 H 233.562 -2.11237 -2.12177 0
M  V30 2506 H 231.108 -1.01699 -1.01948 0
M  V30 2507 H 233.061 -0.755165 -4.14578 0
M  V30 2508 H 231.785 0.120236 -3.26379 0
M  V30 2509 H 230.444 -2.00346 -3.07013 0
M  V30 2510 H 230.092 -0.462995 -5.00865 0
M  V30 2511 H 229.792 -2.15865 -5.46513 0
M  V30 2512 H 231.316 -1.36334 -5.95185 0
M  V30 2513 H 232.73 -3.26626 -4.71156 0
M  V30 2514 H 231.127 -4.01607 -4.45905 0
M  V30 2515 H 232.197 -3.75326 -3.07016 0
M  V30 2516 N 233.54 1.10788 -1.12088 0
M  V30 2517 C 234.503 2.15207 -0.788577 0
M  V30 2518 C 235.503 1.59609 0.195317 0
M  V30 2519 O 236.693 1.74174 -0.0300193 0
M  V30 2520 C 233.825 3.4047 -0.171174 0
M  V30 2521 H 235.018 2.46116 -1.71368 0
M  V30 2522 H 232.571 1.26089 -0.923652 0
M  V30 2523 H 233.306 3.15176 0.763832 0
M  V30 2524 H 233.091 3.82109 -0.879514 0
M  V30 2525 H 234.581 4.17576 0.04496 0
M  V30 2526 N 235.018 0.912232 1.28515 0
M  V30 2527 C 236.267 0.540504 1.94323 0
M  V30 2528 C 236.58 -0.920044 1.72611 0
M  V30 2529 O 237.786 -1.39986 2.32629 0
M  V30 2530 C 236.242 0.915803 3.48053 0
M  V30 2531 C 235.85 2.39598 3.78546 0
M  V30 2532 C 237.594 0.614588 4.20027 0
M  V30 2533 C 235.501 2.71148 5.25578 0
M  V30 2534 H 234.431 0.198418 0.727424 0
M  V30 2535 H 237.082 1.11094 1.46049 0
M  V30 2536 H 235.464 0.274168 3.9505 0
M  V30 2537 H 236.638 3.08422 3.42364 0
M  V30 2538 H 234.953 2.66749 3.1974 0
M  V30 2539 H 237.55 0.827002 5.28266 0
M  V30 2540 H 237.893 -0.447531 4.13887 0
M  V30 2541 H 238.426 1.21462 3.78803 0
M  V30 2542 H 235.165 3.76207 5.36794 0
M  V30 2543 H 234.685 2.0696 5.62963 0
M  V30 2544 H 236.364 2.58072 5.93302 0
M  V30 2545 N 236.496 -1.42363 0.676048 0
M  V30 2546 C 237.426 -2.33497 0.0124832 0
M  V30 2547 C 238.407 -1.50748 -0.787981 0
M  V30 2548 O 239.592 -1.79346 -0.744884 0
M  V30 2549 C 236.722 -3.34377 -0.938582 0
M  V30 2550 C 235.676 -4.27289 -0.246622 0
M  V30 2551 C 235.002 -5.18386 -1.31071 0
M  V30 2552 C 236.302 -5.14916 0.875125 0
M  V30 2553 H 237.996 -2.89233 0.773593 0
M  V30 2554 H 235.542 -1.39073 0.37346 0
M  V30 2555 H 237.495 -3.97044 -1.41188 0
M  V30 2556 H 236.219 -2.76947 -1.73113 0
M  V30 2557 H 234.878 -3.66018 0.206456 0
M  V30 2558 H 234.526 -4.57282 -2.09528 0
M  V30 2559 H 234.226 -5.81378 -0.852839 0
M  V30 2560 H 235.75 -5.83929 -1.78492 0
M  V30 2561 H 237.164 -5.71262 0.482983 0
M  V30 2562 H 235.561 -5.86747 1.25887 0
M  V30 2563 H 236.631 -4.53242 1.72335 0
M  V30 2564 N 237.974 -0.419461 -1.51915 0
M  V30 2565 C 238.884 0.407528 -2.31033 0
M  V30 2566 C 239.9 1.04413 -1.3919 0
M  V30 2567 O 241.076 1.0434 -1.72265 0
M  V30 2568 C 238.141 1.50365 -3.12396 0
M  V30 2569 C 237.202 0.889029 -4.19994 0
M  V30 2570 C 236.435 1.93291 -4.97468 0
M  V30 2571 O 236.658 3.15259 -4.75361 0
M  V30 2572 O 235.592 1.53339 -5.8204 0
M  V30 2573 H 239.418 -0.237865 -3.02767 0
M  V30 2574 H 237.003 -0.182413 -1.48282 0
M  V30 2575 H 238.885 2.13975 -3.63032 0
M  V30 2576 H 237.56 2.13345 -2.43445 0
M  V30 2577 H 236.467 0.215353 -3.7348 0
M  V30 2578 H 237.8 0.302991 -4.91267 0
M  V30 2579 N 239.452 1.56882 -0.150215 0
M  V30 2580 C 240.382 2.19935 0.784284 0
M  V30 2581 C 241.363 1.14854 1.25469 0
M  V30 2582 O 242.548 1.43209 1.31168 0
M  V30 2583 C 239.678 2.82349 2.02229 0
M  V30 2584 C 238.632 3.93285 1.68853 0
M  V30 2585 C 237.958 4.42649 2.99944 0
M  V30 2586 C 239.258 5.13904 0.932714 0
M  V30 2587 H 240.952 2.9828 0.258781 0
M  V30 2588 H 238.498 1.43473 0.123029 0
M  V30 2589 H 240.451 3.25126 2.68088 0
M  V30 2590 H 239.175 2.0134 2.57157 0
M  V30 2591 H 237.834 3.5113 1.05371 0
M  V30 2592 H 237.482 3.58458 3.52869 0
M  V30 2593 H 237.182 5.17476 2.78374 0
M  V30 2594 H 238.706 4.88099 3.66868 0
M  V30 2595 H 240.12 5.53506 1.49345 0
M  V30 2596 H 238.517 5.94515 0.81684 0
M  V30 2597 H 239.587 4.84842 -0.0749568 0
M  V30 2598 N 240.93 -0.123565 1.57115 0
M  V30 2599 C 241.86 -1.15309 2.03042 0
M  V30 2600 C 242.841 -1.43454 0.914061 0
M  V30 2601 O 244.026 -1.53973 1.18347 0
M  V30 2602 C 241.156 -2.48043 2.43089 0
M  V30 2603 C 240.11 -2.3437 3.58127 0
M  V30 2604 C 239.436 -3.72026 3.84059 0
M  V30 2605 C 240.736 -1.80804 4.90007 0
M  V30 2606 H 242.43 -0.771102 2.893 0
M  V30 2607 H 239.976 -0.369479 1.39179 0
M  V30 2608 H 241.929 -3.20311 2.73823 0
M  V30 2609 H 240.653 -2.88122 1.53796 0
M  V30 2610 H 239.312 -1.64551 3.27595 0
M  V30 2611 H 238.96 -4.09582 2.91979 0
M  V30 2612 H 238.66 -3.63732 4.6149 0
M  V30 2613 H 240.184 -4.45806 4.1724 0
M  V30 2614 H 241.598 -2.42886 5.19307 0
M  V30 2615 H 239.995 -1.83343 5.71407 0
M  V30 2616 H 241.065 -0.76528 4.78823 0
M  V30 2617 N 242.408 -1.52605 -0.393616 0
M  V30 2618 C 243.355 -1.77055 -1.48054 0
M  V30 2619 C 244.325 -0.61358 -1.54352 0
M  V30 2620 O 245.51 -0.852806 -1.70681 0
M  V30 2621 C 242.65 -1.94108 -2.85335 0
M  V30 2622 C 241.763 -3.21792 -2.88226 0
M  V30 2623 C 240.898 -3.29188 -4.16904 0
M  V30 2624 C 239.937 -4.51013 -4.13828 0
M  V30 2625 N 239.074 -4.55716 -5.34105 0
M  V30 2626 H 243.914 -2.69815 -1.26506 0
M  V30 2627 H 241.451 -1.33683 -0.61379 0
M  V30 2628 H 243.409 -2.01979 -3.65049 0
M  V30 2629 H 242.039 -1.04713 -3.05344 0
M  V30 2630 H 241.091 -3.23015 -2.00911 0
M  V30 2631 H 242.403 -4.11557 -2.8182 0
M  V30 2632 H 241.557 -3.36216 -5.05018 0
M  V30 2633 H 240.296 -2.37389 -4.26026 0
M  V30 2634 H 239.301 -4.44115 -3.24102 0
M  V30 2635 H 240.526 -5.44123 -4.06333 0
M  V30 2636 H 238.472 -3.66807 -5.43865 0
M  V30 2637 H 238.389 -5.39346 -5.29756 0
M  V30 2638 H 239.657 -4.66993 -6.2413 0
M  V30 2639 N 243.887 0.651787 -1.4349 0
M  V30 2640 C 245.117 1.43728 -1.48411 0
M  V30 2641 C 245.525 1.8893 -0.10103 0
M  V30 2642 O 244.868 1.60182 0.899307 0
M  V30 2643 C 244.93 2.70411 -2.36893 0
M  V30 2644 C 244.594 2.4714 -3.8441 0
M  V30 2645 C 245.591 2.10271 -4.75481 0
M  V30 2646 C 243.276 2.6142 -4.28912 0
M  V30 2647 C 245.27 1.87982 -6.0905 0
M  V30 2648 C 242.957 2.38746 -5.62533 0
M  V30 2649 C 243.955 2.02083 -6.5242 0
M  V30 2650 O 243.643 1.79647 -7.8357 0
M  V30 2651 H 243.375 0.447962 -0.506267 0
M  V30 2652 H 245.929 0.80624 -1.88915 0
M  V30 2653 H 244.159 3.36079 -1.91278 0
M  V30 2654 H 245.848 3.32364 -2.33 0
M  V30 2655 H 246.614 1.98814 -4.42378 0
M  V30 2656 H 242.493 2.88931 -3.59222 0
M  V30 2657 H 246.037 1.5929 -6.7917 0
M  V30 2658 H 241.934 2.49806 -5.95203 0
M  V30 2659 H 242.702 1.9406 -7.95162 0
M  V30 2660 N 245.365 1.30045 0.890287 0
M  V30 2661 C 246.315 1.12592 1.9826 0
M  V30 2662 C 247.299 0.0426021 1.60844 0
M  V30 2663 O 248.491 0.265346 1.75 0
M  V30 2664 C 245.62 0.814301 3.33503 0
M  V30 2665 C 244.706 1.93761 3.7725 0
M  V30 2666 N 245.097 3.18232 3.93143 0
M  V30 2667 C 243.395 1.83277 4.06602 0
M  V30 2668 C 244.096 3.9158 4.30163 0
M  V30 2669 N 243.072 3.19591 4.3973 0
M  V30 2670 H 246.874 2.07003 2.08631 0
M  V30 2671 H 244.388 1.21307 1.07974 0
M  V30 2672 H 246.385 0.67029 4.11476 0
M  V30 2673 H 245.045 -0.121797 3.24471 0
M  V30 2674 H 246.056 3.53581 3.78419 0
M  V30 2675 H 242.733 0.97001 4.06075 0
M  V30 2676 H 244.123 4.98744 4.50226 0
M  V30 2677 N 246.843 -1.10192 1.12674 0
M  V30 2678 C 247.775 -2.16418 0.754701 0
M  V30 2679 C 248.788 -1.61309 -0.21986 0
M  V30 2680 O 249.977 -1.785 -0.000826841 0
M  V30 2681 C 247.077 -3.38762 0.096698 0
M  V30 2682 C 246.25 -4.23307 1.10136 0
M  V30 2683 C 245.309 -5.24092 0.470513 0
M  V30 2684 O 244.335 -5.57906 1.12824 0
M  V30 2685 N 245.537 -5.75491 -0.760948 0
M  V30 2686 H 248.302 -2.48943 1.66875 0
M  V30 2687 H 245.863 -1.25834 1.01869 0
M  V30 2688 H 247.855 -4.03291 -0.337384 0
M  V30 2689 H 246.425 -3.04192 -0.720153 0
M  V30 2690 H 245.645 -3.55036 1.71299 0
M  V30 2691 H 246.933 -4.76624 1.78064 0
M  V30 2692 H 246.331 -5.50222 -1.31424 0
M  V30 2693 H 244.888 -6.41792 -1.13781 0
M  V30 2694 N 248.321 -0.919034 -1.28029 0
M  V30 2695 C 249.737 -0.617972 -1.4715 0
M  V30 2696 C 249.937 0.835242 -1.83374 0
M  V30 2697 O 248.993 1.61388 -1.94191 0
M  V30 2698 C 250.306 -1.56041 -2.57044 0
M  V30 2699 C 251.854 -1.56769 -2.7091 0
M  V30 2700 C 252.329 -2.49688 -3.83953 0
M  V30 2701 N 253.82 -2.47845 -3.91314 0
M  V30 2702 C 254.555 -3.16437 -4.78179 0
M  V30 2703 N 254.051 -3.94376 -5.69596 0
M  V30 2704 N 255.844 -3.05498 -4.71834 0
M  V30 2705 H 247.995 -1.85866 -1.02798 0
M  V30 2706 H 250.258 -0.797506 -0.512531 0
M  V30 2707 H 249.964 -2.59671 -2.372 0
M  V30 2708 H 249.838 -1.29551 -3.54255 0
M  V30 2709 H 252.225 -0.538745 -2.90141 0
M  V30 2710 H 252.306 -1.87305 -1.74214 0
M  V30 2711 H 251.95 -3.52688 -3.65477 0
M  V30 2712 H 251.88 -2.16453 -4.80058 0
M  V30 2713 H 254.371 -1.91234 -3.25941 0
M  V30 2714 H 254.684 -4.43721 -6.32718 0
M  V30 2715 H 253.029 -3.98481 -5.69419 0
M  V30 2716 H 256.22 -2.44108 -3.99411 0
M  V30 2717 H 256.393 -3.59225 -5.39316 0
M  V30 2718 N 249.799 1.42003 -0.683588 0
M  V30 2719 C 251.045 2.01712 -0.209825 0
M  V30 2720 C 251.378 1.53968 1.18353 0
M  V30 2721 O 250.653 0.745661 1.79639 0
M  V30 2722 C 250.936 3.59202 -0.254197 0
M  V30 2723 C 250.789 4.17102 -1.68363 0
M  V30 2724 C 252.108 4.38344 0.392709 0
M  V30 2725 H 249.227 0.732891 -0.0777189 0
M  V30 2726 H 251.869 1.68909 -0.87004 0
M  V30 2727 H 250.019 3.87278 0.307954 0
M  V30 2728 H 251.691 3.99946 -2.29871 0
M  V30 2729 H 249.934 3.72597 -2.22157 0
M  V30 2730 H 250.605 5.26249 -1.6663 0
M  V30 2731 H 253.081 4.16011 -0.0859162 0
M  V30 2732 H 251.957 5.47901 0.331063 0
M  V30 2733 H 252.218 4.16887 1.47164 0
M  V30 2734 N 251.277 0.427512 1.51691 0
M  V30 2735 C 252.207 -0.3796 2.30394 0
M  V30 2736 C 253.188 -1.02982 1.35384 0
M  V30 2737 O 254.373 -1.03534 1.643 0
M  V30 2738 C 251.503 -1.48649 3.1388 0
M  V30 2739 C 250.457 -0.960294 4.17088 0
M  V30 2740 C 249.783 -2.16219 4.89033 0
M  V30 2741 C 251.083 -0.00153679 5.223 0
M  V30 2742 H 252.777 0.277164 2.98114 0
M  V30 2743 H 250.323 0.134739 1.43368 0
M  V30 2744 H 252.276 -2.05826 3.67714 0
M  V30 2745 H 251 -2.1714 2.43962 0
M  V30 2746 H 249.659 -0.410806 3.64291 0
M  V30 2747 H 249.307 -2.83307 4.15628 0
M  V30 2748 H 249.007 -1.81654 5.58816 0
M  V30 2749 H 250.531 -2.73968 5.45687 0
M  V30 2750 H 251.945 -0.482687 5.71264 0
M  V30 2751 H 250.342 0.256199 5.99553 0
M  V30 2752 H 251.412 0.938174 4.75738 0
M  V30 2753 N 252.755 -1.56801 0.158532 0
M  V30 2754 C 253.985 -2.00568 -0.495583 0
M  V30 2755 C 254.393 -1.03774 -1.58201 0
M  V30 2756 O 253.736 -0.0285797 -1.83678 0
M  V30 2757 C 253.798 -3.40768 -1.14532 0
M  V30 2758 C 253.462 -4.56553 -0.202101 0
M  V30 2759 C 254.459 -5.16714 0.574675 0
M  V30 2760 C 252.144 -5.02197 -0.101648 0
M  V30 2761 C 254.138 -6.20939 1.43924 0
M  V30 2762 C 251.825 -6.06274 0.766508 0
M  V30 2763 C 252.823 -6.65515 1.53555 0
M  V30 2764 O 252.511 -7.67575 2.38922 0
M  V30 2765 H 252.243 -0.662893 -0.13247 0
M  V30 2766 H 254.797 -2.03829 0.253559 0
M  V30 2767 H 253.027 -3.34381 -1.94233 0
M  V30 2768 H 254.716 -3.6857 -1.70033 0
M  V30 2769 H 255.482 -4.82341 0.507167 0
M  V30 2770 H 251.361 -4.55807 -0.689994 0
M  V30 2771 H 254.905 -6.67107 2.03996 0
M  V30 2772 H 250.802 -6.40073 0.835266 0
M  V30 2773 H 251.57 -7.84844 2.32296 0
M  V30 2774 N 254.233 0.115231 -1.57178 0
M  V30 2775 C 255.482 0.820945 -1.84237 0
M  V30 2776 C 255.795 1.80866 -0.744761 0
M  V30 2777 O 257.001 2.56083 -0.901871 0
M  V30 2778 C 255.457 1.51072 -3.26658 0
M  V30 2779 C 255.065 0.563795 -4.44438 0
M  V30 2780 C 256.809 2.20134 -3.62962 0
M  V30 2781 C 254.716 1.25701 -5.77887 0
M  V30 2782 H 253.646 0.310328 -0.687177 0
M  V30 2783 H 256.297 0.0737134 -1.83352 0
M  V30 2784 H 254.679 2.30471 -3.22024 0
M  V30 2785 H 255.853 -0.197247 -4.60378 0
M  V30 2786 H 254.168 -0.0200638 -4.16395 0
M  V30 2787 H 256.765 2.72696 -4.59936 0
M  V30 2788 H 257.108 2.98107 -2.90582 0
M  V30 2789 H 257.641 1.47619 -3.69396 0
M  V30 2790 H 254.38 0.518493 -6.53446 0
M  V30 2791 H 253.9 1.98997 -5.65827 0
M  V30 2792 H 255.579 1.78915 -6.2177 0
M  V30 2793 N 255.711 1.52812 0.385517 0
M  V30 2794 C 256.988 1.5861 1.14465 0
M  V30 2795 C 257.368 0.381402 2.07626 0
M  V30 2796 O 256.716 -0.629999 2.19643 0
M  V30 2797 C 256.926 2.92664 1.90128 0
M  V30 2798 C 258.274 3.46526 2.45367 0
M  V30 2799 O 259.298 2.94562 2.0028 0
M  V30 2800 O 258.157 4.37323 3.27736 0
M  V30 2801 H 255.251 0.639855 0.523941 0
M  V30 2802 H 257.797 1.65149 0.390389 0
M  V30 2803 H 256.569 3.71788 1.22022 0
M  V30 2804 H 256.192 2.89527 2.72507 0
M  V30 2805 N 257.189 -0.644168 1.43834 0
M  V30 2806 C 258.438 -1.39985 1.45214 0
M  V30 2807 C 258.751 -1.95421 0.0835494 0
M  V30 2808 O 259.957 -2.71488 -0.0251748 0
M  V30 2809 C 258.413 -2.53384 2.55587 0
M  V30 2810 C 258.021 -2.04517 3.98594 0
M  V30 2811 C 259.765 -3.30685 2.66172 0
M  V30 2812 C 257.672 -3.1518 5.00416 0
M  V30 2813 H 256.602 -0.526005 0.540218 0
M  V30 2814 H 259.253 -0.694367 1.69855 0
M  V30 2815 H 257.635 -3.26446 2.24163 0
M  V30 2816 H 258.809 -1.38405 4.39523 0
M  V30 2817 H 257.124 -1.40068 3.92135 0
M  V30 2818 H 259.721 -4.13158 3.39418 0
M  V30 2819 H 260.064 -3.79312 1.71546 0
M  V30 2820 H 260.597 -2.64708 2.96942 0
M  V30 2821 H 257.336 -2.71511 5.96625 0
M  V30 2822 H 256.856 -3.79974 4.64091 0
M  V30 2823 H 258.535 -3.80166 5.23529 0
M  V30 2824 N 258.668 -1.30515 -0.883378 0
M  V30 2825 C 259.945 -1.10086 -1.6168 0
M  V30 2826 C 260.325 0.349269 -2.08191 0
M  V30 2827 O 259.673 1.34105 -1.85008 0
M  V30 2828 C 259.883 -2.10315 -2.78511 0
M  V30 2829 C 261.231 -2.42119 -3.48803 0
M  V30 2830 O 262.255 -2.08638 -2.88702 0
M  V30 2831 O 261.114 -2.99396 -4.57192 0
M  V30 2832 H 258.208 -0.422907 -0.710689 0
M  V30 2833 H 260.754 -1.41947 -0.930015 0
M  V30 2834 H 259.526 -3.07917 -2.41459 0
M  V30 2835 H 259.149 -1.79282 -3.54886 0
M  V30 2836 N 260.146 1.09593 -1.13257 0
M  V30 2837 C 261.395 1.81105 -0.887917 0
M  V30 2838 C 261.708 1.86563 0.587672 0
M  V30 2839 O 262.914 2.54367 0.949204 0
M  V30 2840 C 261.37 3.25338 -1.53895 0
M  V30 2841 C 260.978 3.28151 -3.04994 0
M  V30 2842 C 262.722 4.01617 -1.37492 0
M  V30 2843 C 260.629 4.66897 -3.6299 0
M  V30 2844 H 259.559 0.678661 -0.328534 0
M  V30 2845 H 262.21 1.23183 -1.36008 0
M  V30 2846 H 260.592 3.8331 -0.994446 0
M  V30 2847 H 261.766 2.79953 -3.66009 0
M  V30 2848 H 260.081 2.65361 -3.20893 0
M  V30 2849 H 262.678 5.04119 -1.78235 0
M  V30 2850 H 263.021 4.15072 -0.31957 0
M  V30 2851 H 263.554 3.50082 -1.88912 0
M  V30 2852 H 260.293 4.58643 -4.68323 0
M  V30 2853 H 259.813 5.15426 -3.06752 0
M  V30 2854 H 261.492 5.3587 -3.62563 0
M  V30 2855 N 261.624 0.925811 1.2754 0
M  V30 2856 C 262.574 0.394488 2.24561 0
M  V30 2857 C 263.558 -0.500183 1.52928 0
M  V30 2858 O 264.75 -0.337936 1.73744 0
M  V30 2859 C 261.879 -0.353328 3.41477 0
M  V30 2860 C 260.965 0.557752 4.20416 0
M  V30 2861 N 261.356 1.67674 4.77199 0
M  V30 2862 C 259.654 0.360404 4.44541 0
M  V30 2863 C 260.355 2.24324 5.36706 0
M  V30 2864 N 259.331 1.53305 5.21535 0
M  V30 2865 H 263.133 1.2489 2.66045 0
M  V30 2866 H 260.647 0.779864 1.4245 0
M  V30 2867 H 262.644 -0.7509 4.10082 0
M  V30 2868 H 261.304 -1.20469 3.01525 0
M  V30 2869 H 262.315 2.05915 4.75204 0
M  V30 2870 H 258.992 -0.450454 4.15063 0
M  V30 2871 H 260.382 3.18521 5.91603 0
M  V30 2872 N 263.102 -1.41638 0.69111 0
M  V30 2873 C 264.052 -2.28 -0.000107832 0
M  V30 2874 C 265.036 -1.41964 -0.757304 0
M  V30 2875 O 266.228 -1.65274 -0.633532 0
M  V30 2876 C 263.357 -3.30209 -0.938983 0
M  V30 2877 C 262.443 -4.23725 -0.17827 0
M  V30 2878 N 262.834 -4.99017 0.825563 0
M  V30 2879 C 261.132 -4.44071 -0.414392 0
M  V30 2880 C 261.833 -5.67431 1.28052 0
M  V30 2881 N 260.809 -5.40197 0.607304 0
M  V30 2882 H 264.611 -2.83644 0.769617 0
M  V30 2883 H 262.125 -1.53797 0.521562 0
M  V30 2884 H 264.122 -3.90898 -1.44929 0
M  V30 2885 H 262.782 -2.76126 -1.70836 0
M  V30 2886 H 263.793 -5.03671 1.20566 0
M  V30 2887 H 260.47 -4.01004 -1.162 0
M  V30 2888 H 261.86 -6.37801 2.11327 0
M  V30 2889 N 264.58 -0.43555 -1.51462 0
M  V30 2890 C 265.828 0.131254 -2.01673 0
M  V30 2891 C 266.149 1.43368 -1.32177 0
M  V30 2892 O 265.419 1.90524 -0.455769 0
M  V30 2893 H 263.999 0.0514954 -0.745223 0
M  V30 2894 H 266.661 -0.577847 -1.86137 0
M  V30 2895 H 265.757 0.308446 -3.10572 0
M  V30 2896 N 266.058 1.56714 -0.166846 0
M  V30 2897 C 267.335 1.88412 0.525373 0
M  V30 2898 C 267.715 1.07602 1.81618 0
M  V30 2899 O 267.063 0.168621 2.27877 0
M  V30 2900 C 267.273 3.40363 0.771613 0
M  V30 2901 C 268.621 4.10007 1.1036 0
M  V30 2902 O 269.645 3.45655 0.860304 0
M  V30 2903 O 268.504 5.2369 1.56239 0
M  V30 2904 H 265.598 0.781587 0.270278 0
M  V30 2905 H 268.144 1.68458 -0.204946 0
M  V30 2906 H 266.916 3.91046 -0.141093 0
M  V30 2907 H 266.539 3.65914 1.55541 0
M  V30 2908 N 267.536 -0.106894 1.57237 0
M  V30 2909 C 268.784 -0.810921 1.85117 0
M  V30 2910 C 269.105 -1.7984 0.753827 0
M  V30 2911 O 268.375 -1.94649 -0.221056 0
M  V30 2912 H 266.955 -0.302466 0.683025 0
M  V30 2913 H 269.617 -0.0913324 1.94686 0
M  V30 2914 H 268.713 -1.34875 2.81452 0
M  V30 2915 N 269.014 -1.53014 -0.377408 0
M  V30 2916 C 270.26 -1.68872 -1.12294 0
M  V30 2917 C 270.593 -0.433224 -1.89306 0
M  V30 2918 O 269.868 0.569258 -1.85983 0
M  V30 2919 C 270.151 -2.93115 -2.09179 0
M  V30 2920 C 270.004 -4.28794 -1.35853 0
M  V30 2921 C 271.323 -3.12928 -3.09458 0
M  V30 2922 H 268.442 -0.614518 -0.406862 0
M  V30 2923 H 271.084 -1.85633 -0.40503 0
M  V30 2924 H 269.234 -2.78956 -2.70399 0
M  V30 2925 H 270.906 -4.54742 -0.775082 0
M  V30 2926 H 269.149 -4.28744 -0.660364 0
M  V30 2927 H 269.82 -5.11837 -2.06706 0
M  V30 2928 H 272.296 -3.26194 -2.58334 0
M  V30 2929 H 271.172 -4.01316 -3.74482 0
M  V30 2930 H 271.433 -2.27669 -3.78971 0
M  V30 2931 N 270.492 0.636531 -1.44174 0
M  V30 2932 C 271.402 1.77754 -1.53103 0
M  V30 2933 C 272.418 1.68928 -0.417034 0
M  V30 2934 O 273.594 1.89801 -0.6736 0
M  V30 2935 C 270.659 3.14115 -1.46741 0
M  V30 2936 C 269.72 3.34612 -2.68948 0
M  V30 2937 C 268.953 4.64467 -2.6288 0
M  V30 2938 O 269.176 5.44919 -1.68581 0
M  V30 2939 O 268.11 4.87049 -3.53648 0
M  V30 2940 H 271.936 1.73174 -2.49489 0
M  V30 2941 H 269.521 0.79709 -1.2636 0
M  V30 2942 H 271.403 3.95412 -1.45696 0
M  V30 2943 H 270.078 3.19249 -0.534975 0
M  V30 2944 H 268.985 2.53014 -2.75562 0
M  V30 2945 H 270.318 3.34336 -3.61221 0
M  V30 2946 N 271.97 1.30982 0.876444 0
M  V30 2947 C 272.88 1.2003 2.01569 0
M  V30 2948 C 273.896 0.11838 1.73597 0
M  V30 2949 O 275.072 0.33495 1.98595 0
M  V30 2950 C 272.137 0.901637 3.34771 0
M  V30 2951 C 271.198 2.06979 3.76109 0
M  V30 2952 C 270.431 1.78529 5.02954 0
M  V30 2953 O 270.654 0.717296 5.65872 0
M  V30 2954 O 269.588 2.64019 5.40905 0
M  V30 2955 H 273.414 2.15753 2.13739 0
M  V30 2956 H 270.999 1.10658 1.00375 0
M  V30 2957 H 272.881 0.750645 4.1466 0
M  V30 2958 H 271.556 -0.0256141 3.2369 0
M  V30 2959 H 270.463 2.27616 2.96887 0
M  V30 2960 H 271.796 2.97907 3.91807 0
M  V30 2961 N 273.449 -1.08991 1.13837 0
M  V30 2962 C 274.412 -2.13925 0.822715 0
M  V30 2963 C 275.412 -1.599 -0.1699 0
M  V30 2964 O 276.602 -1.74104 0.0577251 0
M  V30 2965 C 273.734 -3.40155 0.225318 0
M  V30 2966 H 274.927 -2.43358 1.75262 0
M  V30 2967 H 272.48 -1.24603 0.943594 0
M  V30 2968 H 273.215 -3.16352 -0.713594 0
M  V30 2969 H 273 -3.80661 0.940193 0
M  V30 2970 H 274.49 -4.17594 0.0214784 0
M  V30 2971 N 274.927 -0.932562 -1.27047 0
M  V30 2972 C 276.174 -0.575559 -1.94148 0
M  V30 2973 C 276.502 0.883984 -1.73251 0
M  V30 2974 O 275.757 1.64655 -1.0577 0
M  V30 2975 C 276.056 -0.853713 -3.47054 0
M  V30 2976 C 275.722 -2.29577 -3.88079 0
M  V30 2977 C 274.384 -2.68999 -3.9899 0
M  V30 2978 C 276.736 -3.23331 -4.08787 0
M  V30 2979 C 274.064 -4.01289 -4.28 0
M  V30 2980 C 276.416 -4.55207 -4.39282 0
M  V30 2981 C 275.08 -4.94457 -4.48407 0
M  V30 2982 H 274.35 -0.210612 -0.710439 0
M  V30 2983 H 276.997 -1.17744 -1.51025 0
M  V30 2984 H 275.302 -0.169204 -3.91434 0
M  V30 2985 H 276.999 -0.55639 -3.97121 0
M  V30 2986 H 273.589 -1.97994 -3.80127 0
M  V30 2987 H 277.773 -2.94074 -3.99793 0
M  V30 2988 H 273.029 -4.31374 -4.33275 0
M  V30 2989 H 277.203 -5.27852 -4.54252 0
M  V30 2990 H 274.83 -5.96994 -4.7064 0
M  V30 2991 N 276.405 1.4127 -0.698611 0
M  V30 2992 C 277.635 2.05205 -0.239644 0
M  V30 2993 C 278.043 1.52684 1.11733 0
M  V30 2994 O 277.386 0.671222 1.70998 0
M  V30 2995 C 277.448 3.59289 -0.123126 0
M  V30 2996 C 277.112 4.34619 -1.41263 0
M  V30 2997 C 278.109 4.63701 -2.35111 0
M  V30 2998 C 275.794 4.73837 -1.66684 0
M  V30 2999 C 277.788 5.30966 -3.52639 0
M  V30 3000 C 275.475 5.40837 -2.84498 0
M  V30 3001 C 276.473 5.69329 -3.77298 0
M  V30 3002 O 276.161 6.34949 -4.93047 0
M  V30 3003 H 275.893 0.66723 -0.108537 0
M  V30 3004 H 278.447 1.81974 -0.952602 0
M  V30 3005 H 276.677 3.81272 0.645628 0
M  V30 3006 H 278.366 4.04797 0.299056 0
M  V30 3007 H 279.132 4.33882 -2.16729 0
M  V30 3008 H 275.011 4.51039 -0.953135 0
M  V30 3009 H 278.555 5.53121 -4.25091 0
M  V30 3010 H 274.452 5.70075 -3.02795 0
M  V30 3011 H 275.22 6.53445 -4.92902 0
M  V30 3012 N 277.883 0.443576 1.51229 0
M  V30 3013 C 279.111 -0.11929 2.06556 0
M  V30 3014 C 279.526 -1.35921 1.31038 0
M  V30 3015 O 278.883 -1.78675 0.371704 0
M  V30 3016 C 278.934 -0.435228 3.5887 0
M  V30 3017 O 278.655 0.755486 4.31537 0
M  V30 3018 C 280.156 -1.04808 4.30732 0
M  V30 3019 H 277.376 -0.0051584 0.67098 0
M  V30 3020 H 279.92 0.624453 1.94733 0
M  V30 3021 H 278.075 -1.12887 3.70588 0
M  V30 3022 H 278.489 0.483491 5.22267 0
M  V30 3023 H 279.963 -1.2191 5.3837 0
M  V30 3024 H 280.44 -2.03081 3.89429 0
M  V30 3025 H 281.046 -0.393637 4.23474 0
M  V30 3026 N 279.361 -1.56624 0.175154 0
M  V30 3027 C 280.589 -2.01374 -0.474971 0
M  V30 3028 C 281.004 -1.05537 -1.56548 0
M  V30 3029 O 280.361 -0.0568668 -1.82411 0
M  V30 3030 C 280.412 -3.45923 -1.04975 0
M  V30 3031 O 280.133 -4.381 -0.00276605 0
M  V30 3032 C 281.634 -4.06093 -1.77773 0
M  V30 3033 H 278.854 -0.659962 -0.121206 0
M  V30 3034 H 281.398 -2.02601 0.27801 0
M  V30 3035 H 279.553 -3.45458 -1.75321 0
M  V30 3036 H 279.967 -5.22753 -0.427681 0
M  V30 3037 H 281.441 -5.09147 -2.13245 0
M  V30 3038 H 281.918 -3.48405 -2.67414 0
M  V30 3039 H 282.524 -4.10272 -1.12059 0
M  V30 3040 N 280.839 0.0985539 -1.57292 0
M  V30 3041 C 282.116 0.834155 -1.76921 0
M  V30 3042 C 282.496 1.97101 -0.755928 0
M  V30 3043 O 281.844 2.27474 0.216245 0
M  V30 3044 C 282.054 1.33194 -3.22584 0
M  V30 3045 C 283.402 1.77611 -3.85668 0
M  V30 3046 O 284.426 1.42825 -3.26312 0
M  V30 3047 O 283.285 2.4192 -4.90038 0
M  V30 3048 H 280.379 0.397628 -0.725135 0
M  V30 3049 H 282.925 0.0807044 -1.69508 0
M  V30 3050 H 281.697 0.517248 -3.87866 0
M  V30 3051 H 281.32 2.1475 -3.34616 0
M  V30 3052 N 282.317 1.53212 0.369288 0
M  V30 3053 C 283.733 1.42902 0.710712 0
M  V30 3054 C 283.933 0.565135 1.93413 0
M  V30 3055 O 282.989 0.0461484 2.52458 0
M  V30 3056 C 284.302 2.86042 0.927382 0
M  V30 3057 C 285.85 2.9565 1.02762 0
M  V30 3058 C 286.325 4.39843 1.27679 0
M  V30 3059 N 287.816 4.43256 1.34457 0
M  V30 3060 C 288.551 5.51929 1.55439 0
M  V30 3061 N 288.047 6.70655 1.73762 0
M  V30 3062 N 289.84 5.39502 1.57779 0
M  V30 3063 H 281.991 2.07888 -0.435457 0
M  V30 3064 H 284.254 0.938661 -0.132739 0
M  V30 3065 H 283.96 3.51557 0.100287 0
M  V30 3066 H 283.834 3.29472 1.83653 0
M  V30 3067 H 286.221 2.30291 1.84527 0
M  V30 3068 H 286.302 2.5562 0.0959504 0
M  V30 3069 H 285.946 5.05774 0.464175 0
M  V30 3070 H 285.876 4.77443 2.22162 0
M  V30 3071 H 288.367 3.5769 1.21926 0
M  V30 3072 H 288.68 7.49248 1.89335 0
M  V30 3073 H 287.025 6.73648 1.70948 0
M  V30 3074 H 290.216 4.45713 1.43029 0
M  V30 3075 H 290.389 6.2426 1.7379 0
M  V30 3076 N 283.795 -0.628877 1.44509 0
M  V30 3077 C 285.041 -1.39045 1.47629 0
M  V30 3078 C 285.374 -1.93892 0.109343 0
M  V30 3079 O 284.649 -1.7379 -0.87334 0
M  V30 3080 C 284.932 -2.55408 2.53848 0
M  V30 3081 C 284.785 -2.05896 3.99909 0
M  V30 3082 C 286.104 -3.5759 2.56549 0
M  V30 3083 H 283.223 -0.504232 0.537512 0
M  V30 3084 H 285.865 -0.710854 1.76201 0
M  V30 3085 H 284.015 -3.13384 2.29615 0
M  V30 3086 H 285.687 -1.52734 4.35282 0
M  V30 3087 H 283.93 -1.37061 4.11578 0
M  V30 3088 H 284.601 -2.89681 4.69882 0
M  V30 3089 H 287.077 -3.09419 2.78207 0
M  V30 3090 H 285.953 -4.36527 3.32769 0
M  V30 3091 H 286.214 -4.11808 1.60832 0
M  V30 3092 N 285.273 -1.31445 -0.869486 0
M  V30 3093 C 286.206 -1.13465 -1.97992 0
M  V30 3094 C 287.184 -0.0380291 -1.62556 0
M  V30 3095 O 288.368 -0.194544 -1.87493 0
M  V30 3096 C 285.495 -0.733822 -3.30655 0
M  V30 3097 C 284.541 -1.83356 -3.85075 0
M  V30 3098 S 285.374 -3.43909 -4.10472 0
M  V30 3099 C 286.53 -3.05763 -5.46132 0
M  V30 3100 H 286.763 -2.07471 -2.1294 0
M  V30 3101 H 284.296 -1.15936 -1.01972 0
M  V30 3102 H 286.254 -0.509306 -4.07328 0
M  V30 3103 H 284.915 0.187123 -3.13542 0
M  V30 3104 H 284.108 -1.50574 -4.80982 0
M  V30 3105 H 283.71 -2.01315 -3.15195 0
M  V30 3106 H 286.002 -2.54686 -6.27807 0
M  V30 3107 H 286.945 -4.00635 -5.83864 0
M  V30 3108 H 287.353 -2.43192 -5.09429 0
M  V30 3109 N 286.751 1.08385 -1.14413 0
M  V30 3110 C 287.979 1.84517 -0.936001 0
M  V30 3111 C 288.394 1.81626 0.515503 0
M  V30 3112 O 287.751 1.22008 1.35721 0
M  V30 3113 C 287.802 3.32049 -1.42918 0
M  V30 3114 O 287.523 3.34951 -2.82381 0
M  V30 3115 C 289.024 4.24986 -1.26103 0
M  V30 3116 H 286.244 0.582491 -0.333084 0
M  V30 3117 H 288.788 1.36885 -1.5193 0
M  V30 3118 H 286.943 3.7707 -0.888641 0
M  V30 3119 H 287.357 4.27048 -3.04517 0
M  V30 3120 H 288.831 5.26615 -1.6547 0
M  V30 3121 H 289.308 4.38726 -0.20392 0
M  V30 3122 H 289.914 3.85791 -1.79012 0
M  V30 3123 N 288.23 0.939286 1.26551 0
M  V30 3124 C 289.476 0.586715 1.94128 0
M  V30 3125 C 289.809 -0.8717 1.73537 0
M  V30 3126 O 289.084 -1.62339 1.07127 0
M  V30 3127 C 289.367 0.927497 3.4795 0
M  V30 3128 C 289.22 2.44052 3.77834 0
M  V30 3129 C 290.539 0.441569 4.37879 0
M  V30 3130 H 287.658 0.21463 0.705055 0
M  V30 3131 H 290.3 1.17316 1.49455 0
M  V30 3132 H 288.45 0.428431 3.8613 0
M  V30 3133 H 290.122 3.01216 3.4938 0
M  V30 3134 H 288.365 2.8848 3.23978 0
M  V30 3135 H 289.036 2.62947 4.85348 0
M  V30 3136 H 291.512 0.869448 4.06915 0
M  V30 3137 H 290.388 0.708856 5.44304 0
M  V30 3138 H 290.649 -0.658467 4.37169 0
M  V30 3139 N 289.708 -1.40897 0.706093 0
M  V30 3140 C 290.933 -2.05895 0.249435 0
M  V30 3141 C 291.358 -1.52823 -1.09666 0
M  V30 3142 O 290.716 -0.659589 -1.68876 0
M  V30 3143 C 290.764 -3.59872 0.22904 0
M  V30 3144 O 289.868 -4.04708 -0.792784 0
M  V30 3145 H 289.209 -0.653206 0.119241 0
M  V30 3146 H 291.739 -1.80471 0.96391 0
M  V30 3147 H 291.749 -4.07951 0.0634791 0
M  V30 3148 H 290.424 -3.97866 1.21141 0
M  V30 3149 H 289.001 -3.68111 -0.59572 0
M  V30 3150 N 291.186 -0.45159 -1.50991 0
M  V30 3151 C 292.433 0.110074 -2.02201 0
M  V30 3152 C 292.761 1.4146 -1.33489 0
M  V30 3153 O 292.016 1.90617 -0.443125 0
M  V30 3154 C 292.315 0.361728 -3.55565 0
M  V30 3155 C 291.981 -0.858717 -4.42648 0
M  V30 3156 C 290.643 -1.19338 -4.66167 0
M  V30 3157 C 292.995 -1.67221 -4.93646 0
M  V30 3158 C 290.323 -2.34195 -5.37931 0
M  V30 3159 C 292.675 -2.8119 -5.6667 0
M  V30 3160 C 291.339 -3.15094 -5.88449 0
M  V30 3161 H 290.609 0.040279 -0.739904 0
M  V30 3162 H 293.256 -0.601696 -1.81802 0
M  V30 3163 H 291.561 1.15554 -3.74372 0
M  V30 3164 H 293.258 0.80996 -3.92735 0
M  V30 3165 H 289.848 -0.58796 -4.24548 0
M  V30 3166 H 294.032 -1.42686 -4.75347 0
M  V30 3167 H 289.288 -2.6076 -5.53005 0
M  V30 3168 H 293.462 -3.44585 -6.05173 0
M  V30 3169 H 291.089 -4.04204 -6.43835 0
M  V30 3170 N 292.664 1.56529 -0.183458 0
M  V30 3171 C 293.614 2.1515 0.754605 0
M  V30 3172 C 294.598 1.08904 1.18443 0
M  V30 3173 O 295.79 1.34997 1.14476 0
M  V30 3174 C 292.919 2.80531 1.97881 0
M  V30 3175 C 292.005 3.93952 1.57043 0
M  V30 3176 N 292.396 4.98221 0.87231 0
M  V30 3177 C 290.694 4.05338 1.86057 0
M  V30 3178 C 291.395 5.77836 0.669377 0
M  V30 3179 N 290.371 5.29858 1.21454 0
M  V30 3180 H 294.173 2.93132 0.212387 0
M  V30 3181 H 291.687 1.62391 0.0167725 0
M  V30 3182 H 293.684 3.20914 2.6612 0
M  V30 3183 H 292.344 2.04035 2.52586 0
M  V30 3184 H 293.355 5.15191 0.529033 0
M  V30 3185 H 290.032 3.39957 2.42354 0
M  V30 3186 H 291.422 6.71799 0.116422 0
M  V30 3187 N 294.142 -0.090211 1.57342 0
M  V30 3188 C 295.089 -1.10909 2.02405 0
M  V30 3189 C 296.059 -1.39523 0.901252 0
M  V30 3190 O 297.244 -1.50903 1.1676 0
M  V30 3191 C 294.384 -2.42277 2.45755 0
M  V30 3192 C 293.497 -2.20352 3.71576 0
M  V30 3193 C 292.632 -3.45154 4.03785 0
M  V30 3194 C 291.671 -3.18512 5.22701 0
M  V30 3195 N 290.808 -4.35593 5.50639 0
M  V30 3196 H 295.648 -0.71782 2.89225 0
M  V30 3197 H 293.185 -0.342901 1.43048 0
M  V30 3198 H 295.143 -3.18951 2.68935 0
M  V30 3199 H 293.773 -2.79242 1.61938 0
M  V30 3200 H 292.825 -1.34458 3.55844 0
M  V30 3201 H 294.137 -1.96661 4.58395 0
M  V30 3202 H 293.291 -4.30233 4.27767 0
M  V30 3203 H 292.03 -3.71904 3.15498 0
M  V30 3204 H 291.035 -2.31827 4.98534 0
M  V30 3205 H 292.26 -2.93103 6.12591 0
M  V30 3206 H 290.206 -4.6241 4.6531 0
M  V30 3207 H 290.123 -4.1511 6.31838 0
M  V30 3208 H 291.391 -5.21723 5.7916 0
M  V30 3209 N 295.62 -1.53406 -0.361157 0
M  V30 3210 C 296.85 -1.73465 -1.1222 0
M  V30 3211 C 297.258 -0.465486 -1.83384 0
M  V30 3212 O 296.601 0.571611 -1.7458 0
M  V30 3213 C 296.663 -2.84834 -2.19339 0
M  V30 3214 C 296.327 -4.25038 -1.67903 0
M  V30 3215 C 297.324 -5.07231 -1.14074 0
M  V30 3216 C 295.009 -4.71464 -1.73282 0
M  V30 3217 C 297.003 -6.33942 -0.663068 0
M  V30 3218 C 294.69 -5.98153 -1.25127 0
M  V30 3219 C 295.688 -6.79223 -0.717296 0
M  V30 3220 O 295.376 -8.03533 -0.242865 0
M  V30 3221 H 295.108 -0.583526 -0.341283 0
M  V30 3222 H 297.662 -2.00964 -0.424591 0
M  V30 3223 H 295.892 -2.5282 -2.92607 0
M  V30 3224 H 297.581 -2.9303 -2.80871 0
M  V30 3225 H 298.347 -4.72534 -1.09254 0
M  V30 3226 H 294.226 -4.08432 -2.13786 0
M  V30 3227 H 297.77 -6.97167 -0.245612 0
M  V30 3228 H 293.667 -6.32347 -1.29642 0
M  V30 3229 H 294.435 -8.177 -0.361786 0
M  V30 3230 N 297.098 0.621204 -1.44841 0
M  V30 3231 C 298.346 1.37783 -1.47852 0
M  V30 3232 C 298.667 1.94653 -0.116224 0
M  V30 3233 O 297.937 1.76367 0.852737 0
M  V30 3234 H 296.517 0.511453 -0.544449 0
M  V30 3235 H 299.179 0.730446 -1.80694 0
M  V30 3236 H 298.275 2.20414 -2.20961 0
M  V30 3237 N 298.576 1.31904 0.862503 0
M  V30 3238 C 299.486 1.22161 2.00285 0
M  V30 3239 C 300.502 0.136785 1.73462 0
M  V30 3240 O 301.678 0.355994 1.98229 0
M  V30 3241 C 298.743 0.937093 3.33796 0
M  V30 3242 C 297.804 2.10957 3.73893 0
M  V30 3243 C 297.037 1.83853 5.01033 0
M  V30 3244 O 297.26 0.777274 5.65079 0
M  V30 3245 O 296.194 2.69741 5.38074 0
M  V30 3246 H 300.02 2.18008 2.11439 0
M  V30 3247 H 297.605 1.11716 0.991957 0
M  V30 3248 H 299.487 0.794583 4.13841 0
M  V30 3249 H 298.162 0.00871894 3.23699 0
M  V30 3250 H 297.069 2.30752 2.94456 0
M  V30 3251 H 298.402 3.02046 3.88625 0
M  V30 3252 N 300.054 -1.07777 1.14986 0
M  V30 3253 C 301.284 -1.83752 0.944402 0
M  V30 3254 C 301.692 -1.8218 -0.51058 0
M  V30 3255 O 301.035 -1.22852 -1.36576 0
M  V30 3256 C 301.097 -3.32128 1.37592 0
M  V30 3257 C 300.761 -3.57425 2.84775 0
M  V30 3258 C 301.758 -3.5173 3.8286 0
M  V30 3259 C 299.443 -3.8523 3.2234 0
M  V30 3260 C 301.437 -3.73482 5.16517 0
M  V30 3261 C 299.124 -4.06634 4.56171 0
M  V30 3262 C 300.122 -4.00754 5.53069 0
M  V30 3263 O 299.81 -4.2159 6.84483 0
M  V30 3264 H 299.542 -0.58673 0.335744 0
M  V30 3265 H 302.096 -1.36982 1.53052 0
M  V30 3266 H 300.326 -3.79686 0.733165 0
M  V30 3267 H 302.015 -3.89555 1.14024 0
M  V30 3268 H 302.781 -3.30256 3.55184 0
M  V30 3269 H 298.66 -3.88923 2.47508 0
M  V30 3270 H 302.204 -3.68808 5.92137 0
M  V30 3271 H 298.101 -4.27593 4.83564 0
M  V30 3272 H 298.869 -4.38961 6.90837 0
M  V30 3273 N 301.532 -0.945985 -1.26051 0
M  V30 3274 C 302.779 -0.596118 -1.93527 0
M  V30 3275 C 303.107 0.865559 -1.74179 0
M  V30 3276 O 302.362 1.63524 -1.0751 0
M  V30 3277 C 302.661 -0.890475 -3.46129 0
M  V30 3278 C 302.327 -2.3368 -3.85622 0
M  V30 3279 C 300.989 -2.73216 -3.96114 0
M  V30 3280 C 303.341 -3.27648 -4.05334 0
M  V30 3281 C 300.669 -4.05806 -4.2372 0
M  V30 3282 C 303.021 -4.59841 -4.3443 0
M  V30 3283 C 301.685 -4.99185 -4.43137 0
M  V30 3284 H 300.955 -0.218135 -0.708165 0
M  V30 3285 H 303.602 -1.1934 -1.49768 0
M  V30 3286 H 301.907 -0.210711 -3.91233 0
M  V30 3287 H 303.604 -0.598478 -3.96509 0
M  V30 3288 H 300.194 -2.02015 -3.78005 0
M  V30 3289 H 304.378 -2.98298 -3.96651 0
M  V30 3290 H 299.634 -4.35945 -4.28675 0
M  V30 3291 H 303.808 -5.32641 -4.48628 0
M  V30 3292 H 301.435 -6.01952 -4.64282 0
M  V30 3293 N 303.011 1.40521 -0.713556 0
M  V30 3294 C 304.422 1.83853 -0.324807 0
M  V30 3295 C 304.773 1.59667 1.14021 0
M  V30 3296 O 303.898 1.07649 1.87725 0
M  V30 3297 C 304.493 3.33751 -0.582746 0
M  V30 3298 C 303.052 3.75584 -0.247727 0
M  V30 3299 C 302.199 2.63753 -0.856121 0
M  V30 3300 H 305.15 1.29817 -0.91286 0
M  V30 3301 H 305.171 3.80194 0.152682 0
M  V30 3302 H 304.683 3.51322 -1.64908 0
M  V30 3303 H 302.784 3.63608 0.813624 0
M  V30 3304 H 302.897 4.7373 -0.715307 0
M  V30 3305 H 301.261 2.53108 -0.28432 0
M  V30 3306 H 302.044 2.84137 -1.92668 0
M  V30 3307 N 304.489 0.459591 1.5075 0
M  V30 3308 C 305.737 -0.0991532 2.01857 0
M  V30 3309 C 306.058 -1.41247 1.34441 0
M  V30 3310 O 305.328 -1.89775 0.486022 0
M  V30 3311 H 303.908 -0.039633 0.745948 0
M  V30 3312 H 306.57 0.607387 1.85194 0
M  V30 3313 H 305.666 -0.258998 3.11023 0
M  V30 3314 N 305.967 -1.56429 0.191757 0
M  V30 3315 C 307.195 -2.01867 -0.453586 0
M  V30 3316 C 307.61 -1.07191 -1.5542 0
M  V30 3317 O 306.967 -0.0762108 -1.82341 0
M  V30 3318 C 307.018 -3.47017 -1.013 0
M  V30 3319 O 306.739 -4.38078 0.0437005 0
M  V30 3320 C 308.24 -4.07956 -1.73456 0
M  V30 3321 H 305.46 -0.661211 -0.114199 0
M  V30 3322 H 308.004 -2.02295 0.299483 0
M  V30 3323 H 306.159 -3.47298 -1.71647 0
M  V30 3324 H 306.573 -5.23178 -0.372212 0
M  V30 3325 H 308.047 -5.1138 -2.07833 0
M  V30 3326 H 308.524 -3.51222 -2.63704 0
M  V30 3327 H 309.13 -4.11437 -1.07702 0
M  V30 3328 N 307.445 0.0818655 -1.57387 0
M  V30 3329 C 308.693 0.781368 -1.86384 0
M  V30 3330 C 309.014 1.78618 -0.782342 0
M  V30 3331 O 308.284 1.94976 0.190061 0
M  V30 3332 H 306.864 0.291562 -0.687751 0
M  V30 3333 H 309.526 0.060348 -1.94807 0
M  V30 3334 H 308.622 1.3038 -2.83562 0
M  V30 3335 N 308.923 1.53595 0.353017 0
M  V30 3336 C 310.2 1.61002 1.11075 0
M  V30 3337 C 310.58 0.425356 2.0677 0
M  V30 3338 O 309.928 -0.583267 2.2093 0
M  V30 3339 C 310.138 2.96631 1.83877 0
M  V30 3340 C 311.486 3.51653 2.37961 0
M  V30 3341 O 312.51 2.98743 1.93987 0
M  V30 3342 O 311.369 4.44177 3.18386 0
M  V30 3343 H 308.463 0.650825 0.510251 0
M  V30 3344 H 311.009 1.6594 0.35527 0
M  V30 3345 H 309.781 3.74293 1.14108 0
M  V30 3346 H 309.404 2.95242 2.66304 0
M  V30 3347 N 310.401 -0.613514 1.45168 0
M  V30 3348 C 311.331 -1.7354 1.56225 0
M  V30 3349 C 312.312 -1.64981 0.41414 0
M  V30 3350 O 313.497 -1.83472 0.636526 0
M  V30 3351 C 310.627 -3.12128 1.52295 0
M  V30 3352 C 309.581 -3.35491 2.65762 0
M  V30 3353 C 308.907 -4.74291 2.46885 0
M  V30 3354 C 310.207 -3.26325 4.0781 0
M  V30 3355 H 311.901 -1.64543 2.50132 0
M  V30 3356 H 309.447 -0.790185 1.20383 0
M  V30 3357 H 311.4 -3.90404 1.58628 0
M  V30 3358 H 310.124 -3.2195 0.549139 0
M  V30 3359 H 308.783 -2.59603 2.58847 0
M  V30 3360 H 308.431 -4.80839 1.47657 0
M  V30 3361 H 308.131 -4.9088 3.22972 0
M  V30 3362 H 309.655 -5.54775 2.55063 0
M  V30 3363 H 311.069 -3.94483 4.16 0
M  V30 3364 H 309.466 -3.54445 4.8424 0
M  V30 3365 H 310.536 -2.23855 4.30136 0
M  V30 3366 N 311.879 -1.3236 -0.855495 0
M  V30 3367 C 313.295 -1.11332 -1.14356 0
M  V30 3368 C 313.495 0.106751 -2.01217 0
M  V30 3369 O 312.551 0.791891 -2.39761 0
M  V30 3370 C 313.864 -2.39237 -1.82171 0
M  V30 3371 C 315.412 -2.44986 -1.9481 0
M  V30 3372 C 315.887 -3.7281 -2.66039 0
M  V30 3373 N 317.378 -3.73787 -2.73565 0
M  V30 3374 C 318.113 -4.69394 -3.29327 0
M  V30 3375 N 317.609 -5.75367 -3.85907 0
M  V30 3376 N 319.402 -4.56893 -3.27423 0
M  V30 3377 H 311.553 -2.10586 -0.277027 0
M  V30 3378 H 313.816 -0.929701 -0.185364 0
M  V30 3379 H 313.522 -3.28431 -1.25802 0
M  V30 3380 H 313.396 -2.50134 -2.82335 0
M  V30 3381 H 315.783 -1.56252 -2.50338 0
M  V30 3382 H 315.864 -2.38043 -0.936448 0
M  V30 3383 H 315.508 -4.61918 -2.11174 0
M  V30 3384 H 315.438 -3.77024 -3.67642 0
M  V30 3385 H 317.929 -2.97189 -2.33424 0
M  V30 3386 H 318.242 -6.44378 -4.26611 0
M  V30 3387 H 316.587 -5.79123 -3.84242 0
M  V30 3388 H 319.778 -3.73269 -2.82467 0
M  V30 3389 H 319.951 -5.31577 -3.7058 0
M  V30 3390 N 313.357 1.07166 -1.15556 0
M  V30 3391 C 314.634 1.76546 -0.842069 0
M  V30 3392 C 315.014 2.00453 0.661939 0
M  V30 3393 O 314.362 1.62452 1.60691 0
M  V30 3394 C 314.572 3.07266 -1.65495 0
M  V30 3395 C 315.92 3.81578 -1.86234 0
M  V30 3396 O 316.944 3.17083 -1.62287 0
M  V30 3397 O 315.803 4.97419 -2.26355 0
M  V30 3398 H 312.897 0.766756 -0.309862 0
M  V30 3399 H 315.443 1.13514 -1.26145 0
M  V30 3400 H 314.215 2.85494 -2.67598 0
M  V30 3401 H 313.838 3.7803 -1.23203 0
M  V30 3402 N 314.835 0.952656 1.25548 0
M  V30 3403 C 316.084 0.602053 1.92505 0
M  V30 3404 C 316.397 -0.864663 1.75451 0
M  V30 3405 O 317.603 -1.32514 2.36965 0
M  V30 3406 C 316.059 1.02607 3.44963 0
M  V30 3407 C 315.667 2.51519 3.70732 0
M  V30 3408 C 317.411 0.747905 4.1786 0
M  V30 3409 C 315.318 2.87732 5.16686 0
M  V30 3410 H 314.248 0.22146 0.720744 0
M  V30 3411 H 316.899 1.15684 1.42441 0
M  V30 3412 H 315.281 0.399712 3.93978 0
M  V30 3413 H 316.455 3.19157 3.32378 0
M  V30 3414 H 314.77 2.76786 3.11092 0
M  V30 3415 H 317.367 0.994647 5.25367 0
M  V30 3416 H 317.71 -0.315629 4.15102 0
M  V30 3417 H 318.243 1.33452 3.74747 0
M  V30 3418 H 314.982 3.93095 5.24554 0
M  V30 3419 H 314.502 2.24765 5.56094 0
M  V30 3420 H 316.181 2.76817 5.84792 0
M  V30 3421 N 316.313 -1.40141 0.720998 0
M  V30 3422 C 317.561 -2.0039 0.262323 0
M  V30 3423 C 317.882 -1.57469 -1.15015 0
M  V30 3424 O 317.152 -0.816582 -1.78069 0
M  V30 3425 H 315.732 -0.741063 0.093996 0
M  V30 3426 H 318.394 -1.71398 0.927835 0
M  V30 3427 H 317.49 -3.10658 0.299671 0
M  V30 3428 N 317.792 -0.46758 -1.50504 0
M  V30 3429 C 318.755 0.317059 -2.26996 0
M  V30 3430 C 319.755 0.923513 -1.31635 0
M  V30 3431 O 320.945 0.793239 -1.55091 0
M  V30 3432 C 318.077 1.45134 -3.08462 0
M  V30 3433 H 319.27 -0.353723 -2.97807 0
M  V30 3434 H 316.823 -0.221545 -1.54722 0
M  V30 3435 H 317.558 2.15728 -2.4214 0
M  V30 3436 H 317.343 1.02232 -3.78538 0
M  V30 3437 H 318.833 2.00493 -3.66323 0
M  V30 3438 N 319.27 1.56325 -0.20005 0
M  V30 3439 C 320.518 1.97329 0.436547 0
M  V30 3440 C 320.839 1.08826 1.61808 0
M  V30 3441 O 320.109 0.160604 1.95241 0
M  V30 3442 H 318.689 0.728714 0.164272 0
M  V30 3443 H 321.351 1.92761 -0.287937 0
M  V30 3444 H 320.447 3.02264 0.777353 0
M  V30 3445 N 320.748 -0.0735177 1.57428 0
M  V30 3446 C 321.695 -1.08756 2.0357 0
M  V30 3447 C 322.665 -1.38559 0.916 0
M  V30 3448 O 323.85 -1.49656 1.18354 0
M  V30 3449 C 320.99 -2.39657 2.48311 0
M  V30 3450 C 320.103 -2.16399 3.73892 0
M  V30 3451 C 319.238 -3.40852 4.07423 0
M  V30 3452 C 318.277 -3.1295 5.2605 0
M  V30 3453 N 317.414 -4.29729 5.55228 0
M  V30 3454 H 322.254 -0.687104 2.8997 0
M  V30 3455 H 319.791 -0.327709 1.43403 0
M  V30 3456 H 321.749 -3.16081 2.72303 0
M  V30 3457 H 320.379 -2.77508 1.64891 0
M  V30 3458 H 319.431 -1.30676 3.57251 0
M  V30 3459 H 320.743 -1.91788 4.60455 0
M  V30 3460 H 319.897 -4.25671 4.32306 0
M  V30 3461 H 318.636 -3.68537 3.19425 0
M  V30 3462 H 317.641 -2.26526 5.00965 0
M  V30 3463 H 318.866 -2.86589 6.15665 0
M  V30 3464 H 316.812 -4.57448 4.70188 0
M  V30 3465 H 316.729 -4.08385 6.36206 0
M  V30 3466 H 317.997 -5.1555 5.84661 0
M  V30 3467 N 322.226 -1.5378 -0.344866 0
M  V30 3468 C 323.474 -1.70625 -1.08311 0
M  V30 3469 C 323.795 -0.471447 -1.89215 0
M  V30 3470 O 323.065 0.514616 -1.8902 0
M  V30 3471 H 321.645 -0.629058 -0.402859 0
M  V30 3472 H 324.307 -1.9103 -0.386459 0
M  V30 3473 H 323.403 -2.57656 -1.76124 0
M  V30 3474 N 323.704 0.605807 -1.45491 0
M  V30 3475 C 324.651 1.7164 -1.54299 0
M  V30 3476 C 325.621 1.61486 -0.388761 0
M  V30 3477 O 326.806 1.81039 -0.602445 0
M  V30 3478 C 323.946 3.09953 -1.51734 0
M  V30 3479 C 323.059 3.309 -2.77721 0
M  V30 3480 C 322.194 4.59329 -2.66816 0
M  V30 3481 C 321.233 4.7354 -3.87848 0
M  V30 3482 N 320.37 5.9327 -3.75467 0
M  V30 3483 H 325.21 1.63449 -2.49176 0
M  V30 3484 H 322.747 0.796957 -1.23641 0
M  V30 3485 H 324.705 3.89977 -1.48235 0
M  V30 3486 H 323.335 3.17098 -0.604068 0
M  V30 3487 H 322.387 2.44639 -2.913 0
M  V30 3488 H 323.699 3.37274 -3.67488 0
M  V30 3489 H 322.853 5.4755 -2.61292 0
M  V30 3490 H 321.592 4.55355 -1.74651 0
M  V30 3491 H 320.597 3.83741 -3.93729 0
M  V30 3492 H 321.822 4.79309 -4.81082 0
M  V30 3493 H 319.768 5.90338 -2.86072 0
M  V30 3494 H 319.685 6.00811 -4.5887 0
M  V30 3495 H 320.953 6.83984 -3.73879 0
M  V30 3496 N 325.182 1.32811 0.848464 0
M  V30 3497 C 326.412 1.26556 1.63301 0
M  V30 3498 C 326.82 -0.1676 1.88456 0
M  V30 3499 O 326.163 -1.11713 1.45828 0
M  V30 3500 C 326.225 1.96202 3.01239 0
M  V30 3501 C 325.889 3.45528 2.99098 0
M  V30 3502 C 326.886 4.40903 2.75501 0
M  V30 3503 C 324.571 3.87558 3.19537 0
M  V30 3504 C 326.565 5.76282 2.72356 0
M  V30 3505 C 324.252 5.23044 3.16019 0
M  V30 3506 C 325.25 6.17217 2.92458 0
M  V30 3507 O 324.938 7.50223 2.88825 0
M  V30 3508 H 324.67 0.43771 0.515156 0
M  V30 3509 H 327.224 1.7559 1.0657 0
M  V30 3510 H 325.454 1.41746 3.59785 0
M  V30 3511 H 327.143 1.83573 3.62016 0
M  V30 3512 H 327.909 4.09756 2.5947 0
M  V30 3513 H 323.788 3.14674 3.369 0
M  V30 3514 H 327.332 6.4976 2.53886 0
M  V30 3515 H 323.229 5.53818 3.31596 0
M  V30 3516 H 323.997 7.59657 3.04735 0
M  V30 3517 N 326.66 -1.06551 1.16123 0
M  V30 3518 C 327.89 -1.8274 0.963838 0
M  V30 3519 C 328.298 -1.82712 -0.491228 0
M  V30 3520 O 327.641 -1.24294 -1.35265 0
M  V30 3521 C 327.703 -3.3065 1.41106 0
M  V30 3522 C 327.367 -3.54384 2.88549 0
M  V30 3523 C 328.364 -3.4765 3.86569 0
M  V30 3524 C 326.049 -3.81789 3.26408 0
M  V30 3525 C 328.043 -3.67982 5.2045 0
M  V30 3526 C 325.73 -4.01772 4.60459 0
M  V30 3527 C 326.728 -3.94866 5.57288 0
M  V30 3528 O 326.416 -4.14306 6.88916 0
M  V30 3529 H 326.148 -0.583136 0.341948 0
M  V30 3530 H 328.702 -1.35351 1.54497 0
M  V30 3531 H 326.932 -3.78887 0.773394 0
M  V30 3532 H 328.621 -3.88324 1.1815 0
M  V30 3533 H 329.387 -3.2647 3.58667 0
M  V30 3534 H 325.266 -3.86276 2.51619 0
M  V30 3535 H 328.81 -3.62507 5.96015 0
M  V30 3536 H 324.707 -4.2244 4.88072 0
M  V30 3537 H 325.475 -4.31609 6.95454 0
M  V30 3538 N 328.138 -0.959301 -1.25041 0
M  V30 3539 C 329.101 -0.487677 -2.23952 0
M  V30 3540 C 330.101 0.41119 -1.55454 0
M  V30 3541 O 331.291 0.207825 -1.72956 0
M  V30 3542 C 328.423 0.294807 -3.39623 0
M  V30 3543 H 329.616 -1.36198 -2.67189 0
M  V30 3544 H 327.169 -0.743042 -1.37508 0
M  V30 3545 H 327.904 1.18658 -3.01813 0
M  V30 3546 H 327.689 -0.35012 -3.90534 0
M  V30 3547 H 329.179 0.614089 -4.1306 0
M  V30 3548 N 329.616 1.39756 -0.72842 0
M  V30 3549 C 330.862 2.00942 -0.273892 0
M  V30 3550 C 331.195 1.57656 1.13394 0
M  V30 3551 O 330.47 0.802434 1.77176 0
M  V30 3552 C 330.753 3.58211 -0.368346 0
M  V30 3553 C 330.606 4.11534 -1.81548 0
M  V30 3554 C 331.925 4.39372 0.253054 0
M  V30 3555 H 329.044 0.730047 -0.100996 0
M  V30 3556 H 331.686 1.66056 -0.923337 0
M  V30 3557 H 329.836 3.88061 0.184588 0
M  V30 3558 H 331.508 3.92431 -2.42478 0
M  V30 3559 H 329.751 3.65341 -2.33898 0
M  V30 3560 H 330.422 5.20682 -1.83288 0
M  V30 3561 H 332.898 4.15527 -0.218224 0
M  V30 3562 H 331.774 5.48677 0.156585 0
M  V30 3563 H 332.035 4.21358 1.33826 0
M  V30 3564 N 331.094 0.475555 1.50254 0
M  V30 3565 C 332.042 -0.330276 2.30243 0
M  V30 3566 C 333.036 -0.986306 1.37726 0
M  V30 3567 O 334.242 -0.9169 1.54897 0
M  V30 3568 H 330.617 -0.125353 0.741479 0
M  V30 3569 H 332.588 0.364702 2.96163 0
M  V30 3570 C 331.337 -1.39704 3.18399 0
M  V30 3571 H 330.66 -0.901621 3.89501 0
M  V30 3572 H 332.1 -1.93336 3.77355 0
M  V30 3573 C 330.559 -2.4014 2.36293 0
M  V30 3574 O 331.089 -3.45504 2.04914 0
M  V30 3575 N 329.295 -2.1197 1.98789 0
M  V30 3576 H 328.842 -1.2631 2.24507 0
M  V30 3577 H 328.8 -2.79403 1.44157 0
M  V30 3578 N 332.573 -1.56217 0.208337 0
M  V30 3579 C 333.803 -2.02043 -0.431523 0
M  V30 3580 C 334.211 -1.08755 -1.54819 0
M  V30 3581 O 333.554 -0.0870009 -1.83494 0
M  V30 3582 C 333.616 -3.44239 -1.03633 0
M  V30 3583 C 333.28 -4.56965 -0.0567502 0
M  V30 3584 C 334.277 -5.14624 0.738773 0
M  V30 3585 C 331.962 -5.02266 0.0581736 0
M  V30 3586 C 333.956 -6.16045 1.63605 0
M  V30 3587 C 331.643 -6.03528 0.959001 0
M  V30 3588 C 332.641 -6.60293 1.7465 0
M  V30 3589 O 332.329 -7.59586 2.6322 0
M  V30 3590 H 332.061 -0.666772 -0.111313 0
M  V30 3591 H 334.615 -2.02919 0.318277 0
M  V30 3592 H 332.845 -3.40391 -1.83497 0
M  V30 3593 H 334.534 -3.73793 -1.58221 0
M  V30 3594 H 335.3 -4.80483 0.660364 0
M  V30 3595 H 331.179 -4.57771 -0.544633 0
M  V30 3596 H 334.723 -6.60279 2.25116 0
M  V30 3597 H 330.62 -6.37092 1.03848 0
M  V30 3598 H 331.388 -7.77057 2.57148 0
M  V30 3599 N 334.051 0.0651679 -1.57465 0
M  V30 3600 C 335.462 0.616213 -1.76238 0
M  V30 3601 C 335.813 1.7756 -0.834689 0
M  V30 3602 O 334.938 2.1639 -0.0204156 0
M  V30 3603 C 335.533 1.12462 -3.1959 0
M  V30 3604 C 334.092 1.62147 -3.39684 0
M  V30 3605 C 333.239 0.543739 -2.71917 0
M  V30 3606 H 336.19 -0.161022 -1.57881 0
M  V30 3607 H 336.211 1.99324 -3.24114 0
M  V30 3608 H 335.723 0.280592 -3.87084 0
M  V30 3609 H 333.824 2.48854 -2.77313 0
M  V30 3610 H 333.937 1.69385 -4.48158 0
M  V30 3611 H 332.301 0.990352 -2.34657 0
M  V30 3612 H 333.084 -0.290216 -3.42071 0
M  V30 3613 N 335.529 1.53961 0.336706 0
M  V30 3614 C 336.459 1.85417 1.41925 0
M  V30 3615 C 337.44 0.709856 1.5458 0
M  V30 3616 O 338.625 0.962396 1.68676 0
M  V30 3617 C 335.755 2.06985 2.78881 0
M  V30 3618 C 334.709 3.22813 2.81026 0
M  V30 3619 C 334.035 3.29727 4.20932 0
M  V30 3620 C 335.335 4.60767 2.45949 0
M  V30 3621 H 337.029 2.76079 1.15848 0
M  V30 3622 H 334.575 1.32839 0.555859 0
M  V30 3623 H 336.528 2.27575 3.54665 0
M  V30 3624 H 335.252 1.13061 3.06406 0
M  V30 3625 H 333.911 3.0209 2.07695 0
M  V30 3626 H 333.559 2.33385 4.45579 0
M  V30 3627 H 333.259 4.07566 4.23277 0
M  V30 3628 H 334.783 3.52536 4.98549 0
M  V30 3629 H 336.197 4.81325 3.11446 0
M  V30 3630 H 334.594 5.4106 2.59566 0
M  V30 3631 H 335.664 4.6391 1.41122 0
M  V30 3632 N 337.007 -0.598083 1.45811 0
M  V30 3633 C 338.423 -0.919847 1.30426 0
M  V30 3634 C 338.623 -1.99759 0.264303 0
M  V30 3635 O 337.679 -2.50221 -0.338472 0
M  V30 3636 C 338.992 -1.35176 2.68603 0
M  V30 3637 C 340.54 -1.46546 2.76574 0
M  V30 3638 C 341.015 -1.9311 4.15298 0
M  V30 3639 N 342.506 -2.00328 4.1764 0
M  V30 3640 C 343.241 -2.37599 5.21856 0
M  V30 3641 N 342.737 -2.73771 6.36413 0
M  V30 3642 N 344.53 -2.38021 5.09218 0
M  V30 3643 H 336.681 0.114111 2.12093 0
M  V30 3644 H 338.944 -0.0116121 0.947929 0
M  V30 3645 H 338.65 -0.633969 3.45939 0
M  V30 3646 H 338.524 -2.3164 2.97696 0
M  V30 3647 H 340.911 -2.17415 1.99537 0
M  V30 3648 H 340.992 -0.483727 2.51185 0
M  V30 3649 H 340.636 -1.22824 4.92825 0
M  V30 3650 H 340.566 -2.92213 4.38086 0
M  V30 3651 H 343.057 -1.74925 3.34977 0
M  V30 3652 H 343.37 -3.0112 7.11721 0
M  V30 3653 H 341.715 -2.71445 6.39799 0
M  V30 3654 H 344.906 -2.09174 4.18765 0
M  V30 3655 H 345.079 -2.66741 5.90554 0
M  V30 3656 N 338.485 -1.33259 -0.841409 0
M  V30 3657 C 339.762 -1.15174 -1.58096 0
M  V30 3658 C 340.142 0.282858 -2.09196 0
M  V30 3659 O 339.49 1.28151 -1.89181 0
M  V30 3660 C 339.7 -2.1907 -2.71679 0
M  V30 3661 C 341.048 -2.53093 -3.40924 0
M  V30 3662 O 342.072 -2.17717 -2.81918 0
M  V30 3663 O 340.931 -3.1379 -4.47435 0
M  V30 3664 H 338.025 -0.445303 -0.696875 0
M  V30 3665 H 340.571 -1.44833 -0.884385 0
M  V30 3666 H 339.343 -3.15443 -2.31541 0
M  V30 3667 H 338.966 -1.90481 -3.49002 0
M  V30 3668 N 339.963 1.05934 -1.16686 0
M  V30 3669 C 341.211 1.78447 -0.948744 0
M  V30 3670 C 341.532 1.87813 0.524523 0
M  V30 3671 O 340.802 1.38945 1.38098 0
M  V30 3672 H 339.382 0.660971 -0.348033 0
M  V30 3673 H 342.044 1.27947 -1.47022 0
M  V30 3674 H 341.14 2.80394 -1.37061 0
M  V30 3675 N 341.441 0.965919 1.2453 0
M  V30 3676 C 342.69 0.622437 1.91856 0
M  V30 3677 C 343.003 -0.846006 1.76358 0
M  V30 3678 O 344.209 -1.29993 2.38357 0
M  V30 3679 C 342.665 1.0626 3.43856 0
M  V30 3680 C 342.273 2.55437 3.68043 0
M  V30 3681 C 344.017 0.792183 4.17043 0
M  V30 3682 C 341.924 2.93196 5.13605 0
M  V30 3683 H 340.854 0.229092 0.718354 0
M  V30 3684 H 343.505 1.17189 1.41206 0
M  V30 3685 H 341.887 0.441476 3.93531 0
M  V30 3686 H 343.061 3.22665 3.28974 0
M  V30 3687 H 341.376 2.8007 3.08139 0
M  V30 3688 H 343.973 1.05031 5.24283 0
M  V30 3689 H 344.316 -0.271584 4.15413 0
M  V30 3690 H 344.849 1.37419 3.73311 0
M  V30 3691 H 341.588 3.98636 5.20355 0
M  V30 3692 H 341.108 2.30651 5.53679 0
M  V30 3693 H 342.787 2.83004 5.81823 0
M  V30 3694 N 342.919 -1.39368 0.735821 0
M  V30 3695 C 344.196 -1.94465 0.210395 0
M  V30 3696 C 344.576 -1.67254 -1.28799 0
M  V30 3697 O 343.924 -1.00123 -2.05396 0
M  V30 3698 C 344.134 -3.4472 0.544897 0
M  V30 3699 C 345.482 -4.21708 0.494689 0
M  V30 3700 O 346.506 -3.52922 0.482136 0
M  V30 3701 O 345.365 -5.44299 0.489947 0
M  V30 3702 H 342.459 -0.826096 0.0386666 0
M  V30 3703 H 345.005 -1.48863 0.814735 0
M  V30 3704 H 343.777 -3.57963 1.58045 0
M  V30 3705 H 343.4 -3.97502 -0.08837 0
M  V30 3706 N 344.397 -0.483516 -1.5 0
M  V30 3707 C 345.674 0.129337 -1.95172 0
M  V30 3708 C 346.054 1.55802 -1.4244 0
M  V30 3709 O 345.402 2.19625 -0.630649 0
M  V30 3710 C 345.612 0.0599251 -3.48949 0
M  V30 3711 C 346.96 0.242617 -4.23906 0
M  V30 3712 O 347.984 0.135933 -3.55941 0
M  V30 3713 O 346.843 0.459454 -5.44565 0
M  V30 3714 H 343.937 0.104887 -0.820322 0
M  V30 3715 H 346.483 -0.544807 -1.60717 0
M  V30 3716 H 345.255 -0.937079 -3.79914 0
M  V30 3717 H 344.878 0.774984 -3.89974 0
M  V30 3718 N 345.875 1.56104 -0.216619 0
M  V30 3719 C 346.785 2.23694 0.706982 0
M  V30 3720 C 347.801 1.24295 1.21765 0
M  V30 3721 O 348.977 1.57094 1.2603 0
M  V30 3722 C 346.042 2.8998 1.90033 0
M  V30 3723 C 345.103 4.04708 1.43213 0
M  V30 3724 C 344.336 4.67824 2.56859 0
M  V30 3725 O 344.559 4.29913 3.74874 0
M  V30 3726 O 343.493 5.56905 2.28343 0
M  V30 3727 H 347.319 3.03272 0.161235 0
M  V30 3728 H 344.904 1.49394 0.0136177 0
M  V30 3729 H 346.786 3.31837 2.59735 0
M  V30 3730 H 345.461 2.13365 2.43428 0
M  V30 3731 H 344.368 3.6743 0.70327 0
M  V30 3732 H 345.701 4.83051 0.944615 0
M  V30 3733 N 347.353 -0.0568162 1.57498 0
M  V30 3734 C 348.578 -0.769402 1.92601 0
M  V30 3735 C 349.003 -1.69559 0.814336 0
M  V30 3736 O 348.361 -1.79811 -0.231903 0
M  V30 3737 C 348.409 -1.52634 3.26704 0
M  V30 3738 O 347.513 -2.63797 3.16994 0
M  V30 3739 H 346.854 -0.208909 0.63028 0
M  V30 3740 H 349.384 -0.0205798 2.0459 0
M  V30 3741 H 349.394 -1.90234 3.60936 0
M  V30 3742 H 348.069 -0.846875 4.07186 0
M  V30 3743 H 346.646 -2.28943 2.94346 0
M  V30 3744 N 348.832 -1.54138 -0.328536 0
M  V30 3745 C 350.062 -1.75807 -1.08516 0
M  V30 3746 C 350.47 -0.50428 -1.82356 0
M  V30 3747 O 349.813 0.534451 -1.75754 0
M  V30 3748 C 349.875 -2.89423 -2.13248 0
M  V30 3749 C 349.539 -4.28504 -1.5885 0
M  V30 3750 C 350.536 -5.09536 -1.03289 0
M  V30 3751 C 348.221 -4.75034 -1.63243 0
M  V30 3752 C 350.215 -6.35206 -0.52845 0
M  V30 3753 C 347.902 -6.00672 -1.12411 0
M  V30 3754 C 348.9 -6.80592 -0.573062 0
M  V30 3755 O 348.588 -8.03867 -0.0723692 0
M  V30 3756 H 348.32 -0.590633 -0.328829 0
M  V30 3757 H 350.874 -2.01819 -0.381868 0
M  V30 3758 H 349.104 -2.5897 -2.87178 0
M  V30 3759 H 350.793 -2.98921 -2.74592 0
M  V30 3760 H 351.559 -4.74745 -0.99206 0
M  V30 3761 H 347.438 -4.12875 -2.05074 0
M  V30 3762 H 350.982 -6.97532 -0.0976774 0
M  V30 3763 H 346.879 -6.34955 -1.162 0
M  V30 3764 H 347.647 -8.18283 -0.188258 0
M  V30 3765 N 350.31 0.590341 -1.46126 0
M  V30 3766 C 351.22 1.72793 -1.58681 0
M  V30 3767 C 352.236 1.67516 -0.470566 0
M  V30 3768 O 353.412 1.87562 -0.733642 0
M  V30 3769 C 350.477 3.09287 -1.5666 0
M  V30 3770 C 349.538 3.25886 -2.79458 0
M  V30 3771 C 348.771 4.55869 -2.77524 0
M  V30 3772 O 348.994 5.3928 -1.85832 0
M  V30 3773 O 347.928 4.75552 -3.68964 0
M  V30 3774 H 351.754 1.65149 -2.54872 0
M  V30 3775 H 349.339 0.756486 -1.28832 0
M  V30 3776 H 351.221 3.90577 -1.58202 0
M  V30 3777 H 349.896 3.17385 -0.636271 0
M  V30 3778 H 348.803 2.44119 -2.83472 0
M  V30 3779 H 350.136 3.22675 -3.71674 0
M  V30 3780 N 351.788 1.33704 0.83433 0
M  V30 3781 C 352.751 1.24244 1.92603 0
M  V30 3782 C 353.751 0.160383 1.59998 0
M  V30 3783 O 354.941 0.412228 1.69252 0
M  V30 3784 C 352.073 0.91555 3.28376 0
M  V30 3785 H 353.266 2.21287 2.02416 0
M  V30 3786 H 350.819 1.17827 1.02696 0
M  V30 3787 H 351.554 -0.0521886 3.24258 0
M  V30 3788 H 351.339 1.69811 3.53422 0
M  V30 3789 H 352.829 0.874231 4.08347 0
M  V30 3790 N 353.266 -1.05314 1.17247 0
M  V30 3791 C 354.515 -1.77685 0.954521 0
M  V30 3792 C 354.828 -1.88616 -0.518025 0
M  V30 3793 O 356.034 -2.57714 -0.854144 0
M  V30 3794 C 354.49 -3.19402 1.65863 0
M  V30 3795 C 354.098 -3.16605 3.16963 0
M  V30 3796 C 355.842 -3.96237 1.52303 0
M  V30 3797 C 353.749 -4.53103 3.80068 0
M  V30 3798 H 352.679 -0.666 0.353496 0
M  V30 3799 H 355.33 -1.1805 1.40486 0
M  V30 3800 H 353.712 -3.79355 1.13602 0
M  V30 3801 H 354.886 -2.66176 3.76148 0
M  V30 3802 H 353.201 -2.53268 3.30521 0
M  V30 3803 H 355.798 -4.97157 1.96822 0
M  V30 3804 H 356.141 -4.136 0.473401 0
M  V30 3805 H 356.674 -3.42829 2.01775 0
M  V30 3806 H 353.413 -4.40946 4.85023 0
M  V30 3807 H 352.933 -5.03686 3.2567 0
M  V30 3808 H 354.612 -5.22045 3.82202 0
M  V30 3809 N 354.744 -0.972509 -1.24016 0
M  V30 3810 C 355.991 -0.637034 -1.92219 0
M  V30 3811 C 356.319 0.828418 -1.75976 0
M  V30 3812 O 355.574 1.61206 -1.10955 0
M  V30 3813 C 355.873 -0.963694 -3.44162 0
M  V30 3814 C 355.539 -2.41807 -3.80579 0
M  V30 3815 C 354.201 -2.81556 -3.9023 0
M  V30 3816 C 356.553 -3.36172 -3.98293 0
M  V30 3817 C 353.881 -4.14702 -4.15017 0
M  V30 3818 C 356.233 -4.68952 -4.24578 0
M  V30 3819 C 354.897 -5.08472 -4.32449 0
M  V30 3820 H 354.167 -0.233107 -0.703379 0
M  V30 3821 H 356.814 -1.2249 -1.47202 0
M  V30 3822 H 355.119 -0.29365 -3.90698 0
M  V30 3823 H 356.816 -0.682449 -3.9515 0
M  V30 3824 H 353.406 -2.09988 -3.73635 0
M  V30 3825 H 357.59 -3.06644 -3.90234 0
M  V30 3826 H 352.846 -4.4494 -4.19331 0
M  V30 3827 H 357.02 -5.42037 -4.37229 0
M  V30 3828 H 354.647 -6.11665 -4.51409 0
M  V30 3829 N 356.222 1.38976 -0.743202 0
M  V30 3830 C 357.169 2.30544 -0.10861 0
M  V30 3831 C 358.139 1.49642 0.720869 0
M  V30 3832 O 359.324 1.78304 0.679142 0
M  V30 3833 C 356.464 3.36018 0.786496 0
M  V30 3834 C 355.577 4.31963 -0.0564849 0
M  V30 3835 C 354.712 5.24506 0.840657 0
M  V30 3836 C 353.751 6.121 -0.00658363 0
M  V30 3837 N 352.888 6.96973 0.846943 0
M  V30 3838 H 357.728 2.8424 -0.895088 0
M  V30 3839 H 355.265 1.3995 -0.453048 0
M  V30 3840 H 357.223 3.95768 1.31999 0
M  V30 3841 H 355.853 2.83758 1.53887 0
M  V30 3842 H 354.905 3.73763 -0.707492 0
M  V30 3843 H 356.217 4.93703 -0.711229 0
M  V30 3844 H 355.371 5.89322 1.4417 0
M  V30 3845 H 354.11 4.63107 1.52916 0
M  V30 3846 H 353.115 5.46289 -0.620366 0
M  V30 3847 H 354.34 6.75565 -0.691992 0
M  V30 3848 H 352.286 6.38133 1.52059 0
M  V30 3849 H 352.203 7.5559 0.248864 0
M  V30 3850 H 353.471 7.6621 1.43328 0
M  V30 3851 N 357.7 0.491464 1.49741 0
M  V30 3852 C 359.111 0.0413169 1.86654 0
M  V30 3853 C 359.462 -1.36985 1.40462 0
M  V30 3854 O 358.587 -2.01917 0.778354 0
M  V30 3855 C 359.182 0.0682023 3.38731 0
M  V30 3856 C 357.741 -0.32656 3.74981 0
M  V30 3857 C 356.888 0.444888 2.73708 0
M  V30 3858 H 359.839 0.704733 1.42194 0
M  V30 3859 H 359.86 -0.729322 3.73445 0
M  V30 3860 H 359.372 1.09539 3.72321 0
M  V30 3861 H 357.473 -1.35734 3.46997 0
M  V30 3862 H 357.586 -0.013741 4.79098 0
M  V30 3863 H 355.95 -0.104062 2.54487 0
M  V30 3864 H 356.733 1.47197 3.10142 0
M  V30 3865 N 359.178 -1.55987 0.224894 0
M  V30 3866 C 360.424 -1.98684 -0.406502 0
M  V30 3867 C 360.757 -1.11248 -1.59177 0
M  V30 3868 O 360.032 -0.170909 -1.93748 0
M  V30 3869 C 360.315 -3.50218 -0.837808 0
M  V30 3870 C 360.168 -4.48426 0.351332 0
M  V30 3871 C 361.487 -4.06243 -1.69278 0
M  V30 3872 H 358.606 -0.722337 -0.146283 0
M  V30 3873 H 361.248 -1.87255 0.321799 0
M  V30 3874 H 359.398 -3.60089 -1.45837 0
M  V30 3875 H 361.07 -4.50562 0.989526 0
M  V30 3876 H 359.313 -4.22159 0.998207 0
M  V30 3877 H 359.984 -5.52 0.00655905 0
M  V30 3878 H 362.46 -3.99337 -1.16914 0
M  V30 3879 H 361.336 -5.12581 -1.96346 0
M  V30 3880 H 361.597 -3.53332 -2.65723 0
M  V30 3881 N 360.656 0.0484629 -1.57525 0
M  V30 3882 C 361.589 1.08755 -2.00618 0
M  V30 3883 C 362.567 1.36272 -0.887058 0
M  V30 3884 O 363.751 1.49255 -1.15131 0
M  V30 3885 C 360.878 2.42675 -2.36277 0
M  V30 3886 C 359.924 2.31142 -3.58435 0
M  V30 3887 S 360.757 1.68326 -5.08357 0
M  V30 3888 C 361.913 3.03776 -5.47239 0
M  V30 3889 H 362.146 0.720415 -2.88439 0
M  V30 3890 H 359.679 0.257801 -1.52233 0
M  V30 3891 H 361.637 3.19699 -2.57494 0
M  V30 3892 H 360.298 2.76541 -1.48942 0
M  V30 3893 H 359.491 3.29957 -3.80978 0
M  V30 3894 H 359.093 1.62258 -3.36969 0
M  V30 3895 H 361.385 4.00106 -5.46737 0
M  V30 3896 H 362.328 2.85988 -6.47778 0
M  V30 3897 H 362.736 3.05456 -4.74718 0
M  V30 3898 N 362.134 1.5431 0.320358 0
M  V30 3899 C 363.359 1.76954 1.08175 0
M  V30 3900 C 363.784 0.518193 1.80821 0
M  V30 3901 O 363.142 -0.530411 1.73368 0
M  V30 3902 C 363.19 2.96451 2.05303 0
M  V30 3903 O 362.294 2.68221 3.13259 0
M  V30 3904 H 361.635 0.586275 0.311733 0
M  V30 3905 H 364.165 2.01342 0.363676 0
M  V30 3906 H 364.175 3.23887 2.48116 0
M  V30 3907 H 362.85 3.87196 1.51829 0
M  V30 3908 H 361.427 2.51744 2.75099 0
M  V30 3909 N 363.613 -0.582584 1.46437 0
M  V30 3910 C 364.56 -1.69164 1.5701 0
M  V30 3911 C 365.53 -1.60847 0.414403 0
M  V30 3912 O 366.715 -1.80058 0.631171 0
M  V30 3913 C 363.855 -3.075 1.56646 0
M  V30 3914 C 362.968 -3.2644 2.82951 0
M  V30 3915 C 362.103 -4.55026 2.7409 0
M  V30 3916 C 361.142 -4.6731 3.95333 0
M  V30 3917 N 360.279 -5.87221 3.84858 0
M  V30 3918 H 365.119 -1.59464 2.51744 0
M  V30 3919 H 362.656 -0.777186 1.24893 0
M  V30 3920 H 364.614 -3.8757 1.5442 0
M  V30 3921 H 363.244 -3.16096 0.654439 0
M  V30 3922 H 362.296 -2.39974 2.95155 0
M  V30 3923 H 363.608 -3.31385 3.72808 0
M  V30 3924 H 362.762 -5.43324 2.6997 0
M  V30 3925 H 361.501 -4.52519 1.81873 0
M  V30 3926 H 360.506 -3.77429 3.99784 0
M  V30 3927 H 361.731 -4.71595 4.88646 0
M  V30 3928 H 359.677 -5.85712 2.95427 0
M  V30 3929 H 359.594 -5.93435 4.6837 0
M  V30 3930 H 360.862 -6.7795 3.84713 0
M  V30 3931 N 365.091 -1.34144 -0.827227 0
M  V30 3932 C 366.337 -1.26446 -1.58554 0
M  V30 3933 C 366.67 0.1664 -1.93486 0
M  V30 3934 O 365.945 1.1107 -1.59667 0
M  V30 3935 C 366.228 -2.15111 -2.8879 0
M  V30 3936 C 366.081 -3.66712 -2.60465 0
M  V30 3937 C 367.4 -2.03311 -3.90324 0
M  V30 3938 H 364.519 -0.46067 -0.575284 0
M  V30 3939 H 367.161 -1.64356 -0.953269 0
M  V30 3940 H 365.311 -1.8291 -3.42748 0
M  V30 3941 H 366.983 -4.09259 -2.1285 0
M  V30 3942 H 365.226 -3.88014 -1.93978 0
M  V30 3943 H 365.897 -4.24112 -3.53317 0
M  V30 3944 H 368.373 -2.31574 -3.45706 0
M  V30 3945 H 367.249 -2.67582 -4.79261 0
M  V30 3946 H 367.51 -1.00879 -4.30437 0
M  V30 3947 N 366.569 1.04691 -1.17803 0
M  V30 3948 C 367.502 2.12068 -0.842765 0
M  V30 3949 C 368.48 1.61455 0.192608 0
M  V30 3950 O 369.664 1.88359 0.072995 0
M  V30 3951 C 366.791 3.37715 -0.258063 0
M  V30 3952 C 365.837 4.07164 -1.26962 0
M  V30 3953 S 366.67 4.55047 -2.82299 0
M  V30 3954 C 367.826 5.83935 -2.25323 0
M  V30 3955 H 368.059 2.4018 -1.75217 0
M  V30 3956 H 365.592 1.17366 -1.00323 0
M  V30 3957 H 367.55 4.10435 0.0727935 0
M  V30 3958 H 366.211 3.0773 0.629357 0
M  V30 3959 H 365.404 4.9746 -0.809263 0
M  V30 3960 H 365.006 3.40533 -1.54639 0
M  V30 3961 H 367.298 6.57552 -1.63192 0
M  V30 3962 H 368.241 6.34725 -3.13894 0
M  V30 3963 H 368.649 5.3874 -1.68582 0
M  V30 3964 N 368.047 0.979072 1.23499 0
M  V30 3965 C 368.957 0.526431 2.28617 0
M  V30 3966 C 369.973 -0.418126 1.68901 0
M  V30 3967 O 371.149 -0.288372 1.99325 0
M  V30 3968 C 368.214 -0.165235 3.46306 0
M  V30 3969 C 367.275 0.82056 4.21385 0
M  V30 3970 C 366.508 0.161807 5.33455 0
M  V30 3971 O 366.731 -1.04742 5.60701 0
M  V30 3972 O 365.665 0.859708 5.95729 0
M  V30 3973 H 369.491 1.4006 2.69475 0
M  V30 3974 H 367.076 0.746643 1.29405 0
M  V30 3975 H 368.958 -0.553287 4.17752 0
M  V30 3976 H 367.633 -1.01419 3.07402 0
M  V30 3977 H 366.54 1.25929 3.52268 0
M  V30 3978 H 367.873 1.63828 4.64135 0
M  V30 3979 N 369.525 -1.3858 0.750561 0
M  V30 3980 C 370.458 -2.28095 0.0693139 0
M  V30 3981 C 371.436 -1.45217 -0.731491 0
M  V30 3982 O 372.62 -1.74587 -0.71076 0
M  V30 3983 C 369.747 -3.26282 -0.90871 0
M  V30 3984 C 368.793 -4.26056 -0.194507 0
M  V30 3985 S 369.626 -5.24026 1.10257 0
M  V30 3986 C 370.782 -6.2577 0.127542 0
M  V30 3987 H 371.015 -2.85526 0.8284 0
M  V30 3988 H 368.548 -1.44536 0.543014 0
M  V30 3989 H 370.506 -3.83367 -1.46766 0
M  V30 3990 H 369.167 -2.6784 -1.64075 0
M  V30 3991 H 368.36 -4.95249 -0.93512 0
M  V30 3992 H 367.962 -3.72852 0.292837 0
M  V30 3993 H 370.254 -6.73796 -0.707516 0
M  V30 3994 H 371.197 -7.03712 0.787044 0
M  V30 3995 H 371.605 -5.63938 -0.251803 0
M  V30 3996 N 371.003 -0.499398 -1.49478 0
M  V30 3997 C 372.25 0.0456899 -2.02448 0
M  V30 3998 C 372.578 1.37142 -1.37921 0
M  V30 3999 O 371.833 1.89111 -0.503544 0
M  V30 4000 C 372.132 0.248424 -3.56536 0
M  V30 4001 C 371.798 -0.999107 -4.39692 0
M  V30 4002 C 370.46 -1.34108 -4.62135 0
M  V30 4003 C 372.812 -1.82842 -4.88076 0
M  V30 4004 C 370.14 -2.51191 -5.30208 0
M  V30 4005 C 372.492 -2.99076 -5.57437 0
M  V30 4006 C 371.156 -3.33655 -5.78127 0
M  V30 4007 H 370.426 0.0167191 -0.740811 0
M  V30 4008 H 373.073 -0.65923 -1.79795 0
M  V30 4009 H 371.378 1.03586 -3.77859 0
M  V30 4010 H 373.075 0.684605 -3.95113 0
M  V30 4011 H 369.665 -0.722729 -4.22463 0
M  V30 4012 H 373.849 -1.57737 -4.70566 0
M  V30 4013 H 369.105 -2.78221 -5.44429 0
M  V30 4014 H 373.279 -3.63664 -5.93904 0
M  V30 4015 H 370.906 -4.24483 -6.30649 0
M  V30 4016 N 372.481 1.55866 -0.233164 0
M  V30 4017 C 373.413 2.18099 0.704668 0
M  V30 4018 C 374.426 1.15334 1.14899 0
M  V30 4019 O 375.615 1.42262 1.07814 0
M  V30 4020 C 372.715 2.7592 1.96777 0
M  V30 4021 C 371.888 4.03969 1.67713 0
M  V30 4022 C 370.947 4.46242 2.78845 0
M  V30 4023 O 369.973 5.12903 2.46818 0
M  V30 4024 N 371.175 4.12886 4.08051 0
M  V30 4025 H 373.94 2.99205 0.172258 0
M  V30 4026 H 371.501 1.61815 -0.0525945 0
M  V30 4027 H 373.493 3.01165 2.70337 0
M  V30 4028 H 372.063 1.99051 2.41034 0
M  V30 4029 H 371.283 3.86459 0.777391 0
M  V30 4030 H 372.571 4.8748 1.4574 0
M  V30 4031 H 371.969 3.59342 4.3691 0
M  V30 4032 H 370.526 4.42997 4.78118 0
M  V30 4033 N 373.959 -0.0401083 1.57549 0
M  V30 4034 C 375.37 -0.588097 1.77196 0
M  V30 4035 C 375.721 -1.76209 0.862832 0
M  V30 4036 O 374.846 -2.16331 0.0548389 0
M  V30 4037 C 375.441 -1.07363 3.21339 0
M  V30 4038 C 374 -1.56723 3.42221 0
M  V30 4039 C 373.147 -0.50041 2.72747 0
M  V30 4040 H 376.098 0.186119 1.57605 0
M  V30 4041 H 376.119 -1.94143 3.27244 0
M  V30 4042 H 375.631 -0.218975 3.87482 0
M  V30 4043 H 373.732 -2.4441 2.81237 0
M  V30 4044 H 373.845 -1.62234 4.50796 0
M  V30 4045 H 372.209 -0.952894 2.36203 0
M  V30 4046 H 372.992 0.344599 3.41566 0
M  V30 4047 N 375.437 -1.54477 -0.31217 0
M  V30 4048 C 376.662 -1.77526 -1.07235 0
M  V30 4049 C 377.087 -0.527775 -1.80544 0
M  V30 4050 O 376.445 0.52121 -1.73646 0
M  V30 4051 C 376.493 -2.97535 -2.03728 0
M  V30 4052 O 375.597 -2.69878 -3.11833 0
M  V30 4053 H 374.938 -0.58792 -0.30862 0
M  V30 4054 H 377.468 -2.01532 -0.352993 0
M  V30 4055 H 377.478 -3.25198 -2.46395 0
M  V30 4056 H 376.153 -3.87996 -1.49774 0
M  V30 4057 H 374.73 -2.53199 -2.7376 0
M  V30 4058 N 376.915 0.57481 -1.46744 0
M  V30 4059 C 377.878 1.66533 -1.57478 0
M  V30 4060 C 378.878 1.54338 -0.451263 0
M  V30 4061 O 380.068 1.58814 -0.715813 0
M  V30 4062 C 377.2 3.05999 -1.50259 0
M  V30 4063 H 378.393 1.58372 -2.54673 0
M  V30 4064 H 375.946 0.793301 -1.34672 0
M  V30 4065 H 376.681 3.19709 -0.543725 0
M  V30 4066 H 376.466 3.16259 -2.31781 0
M  V30 4067 H 377.956 3.8537 -1.60872 0
M  V30 4068 N 378.394 1.34581 0.820102 0
M  V30 4069 C 379.64 1.27285 1.57881 0
M  V30 4070 C 379.973 -0.156137 1.93571 0
M  V30 4071 O 379.248 -1.10222 1.60254 0
M  V30 4072 C 379.531 2.16639 2.87645 0
M  V30 4073 C 379.384 3.68088 2.58517 0
M  V30 4074 C 380.703 2.05378 3.8924 0
M  V30 4075 H 377.822 0.463714 0.572833 0
M  V30 4076 H 380.464 1.64859 0.944539 0
M  V30 4077 H 378.614 1.84725 3.41773 0
M  V30 4078 H 380.286 4.10382 2.10676 0
M  V30 4079 H 378.529 3.89038 1.91917 0
M  V30 4080 H 379.2 4.2598 3.51063 0
M  V30 4081 H 381.676 2.33404 3.44473 0
M  V30 4082 H 380.552 2.7012 4.77835 0
M  V30 4083 H 380.813 1.0316 4.29896 0
M  V30 4084 N 379.872 -1.04064 1.18357 0
M  V30 4085 C 381.118 -1.77528 0.980397 0
M  V30 4086 C 381.451 -1.87948 -0.48879 0
M  V30 4087 O 380.726 -1.3876 -1.36293 0
M  V30 4088 C 381.009 -3.20797 1.63588 0
M  V30 4089 C 380.862 -3.1832 3.17793 0
M  V30 4090 C 382.181 -4.18911 1.34914 0
M  V30 4091 H 379.3 -0.644443 0.357578 0
M  V30 4092 H 381.942 -1.2156 1.46024 0
M  V30 4093 H 380.092 -3.68586 1.22788 0
M  V30 4094 H 381.764 -2.78521 3.67728 0
M  V30 4095 H 380.007 -2.56351 3.49952 0
M  V30 4096 H 380.678 -4.19489 3.58794 0
M  V30 4097 H 383.154 -3.7967 1.70265 0
M  V30 4098 H 382.03 -5.17374 1.83346 0
M  V30 4099 H 382.291 -4.41262 0.272027 0
M  V30 4100 N 381.35 -0.985608 -1.22978 0
M  V30 4101 C 382.28 -0.549649 -2.26939 0
M  V30 4102 C 383.261 0.419803 -1.64838 0
M  V30 4103 O 384.446 0.31203 -1.91677 0
M  V30 4104 C 381.576 0.143652 -3.47003 0
M  V30 4105 C 380.53 -0.743606 -4.21491 0
M  V30 4106 C 379.856 0.0822027 -5.34637 0
M  V30 4107 C 381.156 -2.03694 -4.80943 0
M  V30 4108 H 382.85 -1.41862 -2.63658 0
M  V30 4109 H 380.396 -0.683571 -1.26741 0
M  V30 4110 H 382.349 0.459985 -4.18882 0
M  V30 4111 H 381.073 1.04711 -3.09359 0
M  V30 4112 H 379.732 -1.04347 -3.51436 0
M  V30 4113 H 379.38 0.986359 -4.93234 0
M  V30 4114 H 379.08 -0.508377 -5.85397 0
M  V30 4115 H 380.604 0.392797 -6.09335 0
M  V30 4116 H 382.018 -1.78504 -5.44802 0
M  V30 4117 H 380.415 -2.57573 -5.42011 0
M  V30 4118 H 381.485 -2.72042 -4.01399 0
M  V30 4119 N 382.828 1.3818 -0.7579 0
M  V30 4120 C 383.76 2.2901 -0.0932177 0
M  V30 4121 C 384.773 1.47958 0.679136 0
M  V30 4122 O 385.962 1.70773 0.519514 0
M  V30 4123 C 383.062 3.26953 0.89192 0
M  V30 4124 C 382.235 4.37045 0.176303 0
M  V30 4125 C 381.294 5.15148 1.07281 0
M  V30 4126 O 380.32 5.66616 0.541728 0
M  V30 4127 N 381.522 5.28542 2.40049 0
M  V30 4128 H 384.287 2.86694 -0.873303 0
M  V30 4129 H 381.848 1.50007 -0.609054 0
M  V30 4130 H 383.84 3.76083 1.49479 0
M  V30 4131 H 382.41 2.70136 1.57306 0
M  V30 4132 H 381.63 3.89493 -0.607328 0
M  V30 4133 H 382.918 5.07801 -0.318718 0
M  V30 4134 H 382.316 4.88285 2.85647 0
M  V30 4135 H 380.873 5.8103 2.95376 0
M  V30 4136 N 384.306 0.507319 1.49211 0
M  V30 4137 C 385.546 -0.0332372 2.04373 0
M  V30 4138 C 385.91 -1.33694 1.37804 0
M  V30 4139 O 387.111 -1.96213 1.83722 0
M  V30 4140 C 385.382 -0.17599 3.56966 0
M  V30 4141 S 386.941 -0.669882 4.33657 0
M  V30 4142 H 383.759 0.00123603 0.710999 0
M  V30 4143 H 386.361 0.682725 1.83191 0
M  V30 4144 H 385.065 0.778053 4.02957 0
M  V30 4145 H 384.596 -0.917005 3.82563 0
M  V30 4146 H 386.611 -1.93806 4.56786 0
M  V30 4147 N 385.784 -1.5574 0.241426 0
M  V30 4148 C 387.032 -1.98417 -0.384075 0
M  V30 4149 C 387.353 -1.13078 -1.58866 0
M  V30 4150 O 386.623 -0.212312 -1.94746 0
M  V30 4151 H 385.203 -0.732813 -0.144894 0
M  V30 4152 H 387.865 -1.9193 0.338943 0
M  V30 4153 H 386.961 -3.04219 -0.696939 0
M  V30 4154 N 387.262 0.0317525 -1.57568 0
M  V30 4155 C 388.487 0.738664 -1.938 0
M  V30 4156 C 388.912 1.68242 -0.841208 0
M  V30 4157 O 388.27 1.80157 0.203267 0
M  V30 4158 C 388.318 1.47417 -3.29091 0
M  V30 4159 O 387.422 2.5872 -3.2115 0
M  V30 4160 H 386.763 0.198856 -0.633524 0
M  V30 4161 H 389.293 -0.0119713 -2.04596 0
M  V30 4162 H 389.303 1.84468 -3.63917 0
M  V30 4163 H 387.978 0.781988 -4.08482 0
M  V30 4164 H 386.555 2.24231 -2.97951 0
M  V30 4165 N 388.74 1.54641 0.303973 0
M  V30 4166 C 390.017 1.64455 1.05896 0
M  V30 4167 C 390.397 0.490923 2.05312 0
M  V30 4168 O 389.745 -0.512685 2.22674 0
M  V30 4169 C 389.955 3.02331 1.74347 0
M  V30 4170 C 391.303 3.59045 2.26653 0
M  V30 4171 O 392.327 3.04764 1.84384 0
M  V30 4172 O 391.186 4.54081 3.04093 0
M  V30 4173 H 388.28 0.666729 0.489287 0
M  V30 4174 H 390.826 1.66986 0.302298 0
M  V30 4175 H 389.598 3.77734 1.02142 0
M  V30 4176 H 389.221 3.03565 2.56777 0
M  V30 4177 N 390.218 -0.567019 1.47046 0
M  V30 4178 C 391.443 -1.3551 1.57009 0
M  V30 4179 C 391.868 -1.86841 0.217259 0
M  V30 4180 O 391.226 -1.62435 -0.805268 0
M  V30 4181 C 391.274 -2.50777 2.5912 0
M  V30 4182 O 390.378 -3.52706 2.13711 0
M  V30 4183 H 389.719 -0.402919 0.52778 0
M  V30 4184 H 392.249 -0.686241 1.92748 0
M  V30 4185 H 392.259 -2.97481 2.79229 0
M  V30 4186 H 390.934 -2.12771 3.57353 0
M  V30 4187 H 389.511 -3.12374 2.03659 0
M  V30 4188 N 391.696 -1.35014 -0.812953 0
M  V30 4189 C 392.626 -1.30069 -1.93919 0
M  V30 4190 C 393.607 -0.176275 -1.69184 0
M  V30 4191 O 394.792 -0.370227 -1.90638 0
M  V30 4192 C 391.922 -1.06547 -3.30552 0
M  V30 4193 C 390.876 -2.15561 -3.69753 0
M  V30 4194 C 390.202 -1.77214 -5.04479 0
M  V30 4195 C 391.502 -3.57476 -3.808 0
M  V30 4196 H 393.196 -2.24303 -1.98314 0
M  V30 4197 H 390.742 -1.07977 -0.952736 0
M  V30 4198 H 392.695 -1.01729 -4.08937 0
M  V30 4199 H 391.419 -0.0875719 -3.26483 0
M  V30 4200 H 390.078 -2.19466 -2.9365 0
M  V30 4201 H 389.726 -0.780589 -4.96906 0
M  V30 4202 H 389.426 -2.50184 -5.31678 0
M  V30 4203 H 390.95 -1.7391 -5.8531 0
M  V30 4204 H 392.364 -3.55929 -4.4943 0
M  V30 4205 H 390.761 -4.29152 -4.19462 0
M  V30 4206 H 391.831 -3.94091 -2.82525 0
M  V30 4207 N 393.175 1.03435 -1.18907 0
M  V30 4208 C 394.4 1.80919 -1.01406 0
M  V30 4209 C 394.825 1.83055 0.432721 0
M  V30 4210 O 394.183 1.25252 1.31079 0
M  V30 4211 C 394.231 3.24091 -1.58105 0
M  V30 4212 O 393.335 4.04434 -0.806669 0
M  V30 4213 H 392.676 0.558709 -0.358803 0
M  V30 4214 H 395.206 1.30223 -1.57807 0
M  V30 4215 H 395.216 3.74853 -1.61087 0
M  V30 4216 H 393.891 3.21851 -2.6341 0
M  V30 4217 H 392.468 3.63091 -0.849666 0
M  V30 4218 N 394.653 0.992116 1.22453 0
M  V30 4219 C 395.901 0.666215 1.90804 0
M  V30 4220 C 396.222 -0.804152 1.77647 0
M  V30 4221 O 395.492 -1.57629 1.16318 0
M  V30 4222 H 394.072 0.243423 0.706225 0
M  V30 4223 H 396.734 1.25845 1.48825 0
M  V30 4224 H 395.83 0.928069 2.97982 0
M  V30 4225 N 396.131 -1.37776 0.765217 0
M  V30 4226 C 397.408 -1.93975 0.251596 0
M  V30 4227 C 397.788 -1.69949 -1.25222 0
M  V30 4228 O 397.136 -1.04457 -2.03226 0
M  V30 4229 C 397.346 -3.43487 0.617895 0
M  V30 4230 C 398.694 -4.20564 0.584029 0
M  V30 4231 O 399.718 -3.5182 0.556888 0
M  V30 4232 O 398.577 -5.43138 0.605291 0
M  V30 4233 H 395.671 -0.82509 0.0561806 0
M  V30 4234 H 398.217 -1.47101 0.846128 0
M  V30 4235 H 396.989 -3.5453 1.65602 0
M  V30 4236 H 396.612 -3.976 -0.00403411 0
M  V30 4237 N 397.609 -0.515225 -1.4894 0
M  V30 4238 C 399.025 -0.172099 -1.58669 0
M  V30 4239 C 399.225 1.32405 -1.51892 0
M  V30 4240 O 398.281 2.10116 -1.40027 0
M  V30 4241 C 399.594 -0.761533 -2.90897 0
M  V30 4242 C 401.142 -0.728926 -3.04394 0
M  V30 4243 C 401.617 -1.29667 -4.39261 0
M  V30 4244 N 403.108 -1.25799 -4.4579 0
M  V30 4245 C 403.843 -1.66733 -5.48623 0
M  V30 4246 N 403.339 -2.15327 -6.58488 0
M  V30 4247 N 405.132 -1.58061 -5.39419 0
M  V30 4248 H 397.283 -1.48778 -1.51588 0
M  V30 4249 H 399.546 -0.617968 -0.718901 0
M  V30 4250 H 399.252 -1.81136 -3.01468 0
M  V30 4251 H 399.126 -0.230106 -3.76497 0
M  V30 4252 H 401.513 0.312098 -2.93445 0
M  V30 4253 H 401.594 -1.29766 -2.20442 0
M  V30 4254 H 401.238 -2.33655 -4.50963 0
M  V30 4255 H 401.168 -0.703752 -5.21876 0
M  V30 4256 H 403.659 -0.902102 -3.66975 0
M  V30 4257 H 403.972 -2.44594 -7.33071 0
M  V30 4258 H 402.317 -2.19311 -6.59491 0
M  V30 4259 H 405.508 -1.19906 -4.52482 0
M  V30 4260 H 405.681 -1.90284 -6.19432 0
M  V30 4261 N 399.087 1.5561 -0.249682 0
M  V30 4262 C 400.017 2.24477 0.642826 0
M  V30 4263 C 400.998 1.22601 1.17911 0
M  V30 4264 O 402.183 1.5126 1.21795 0
M  V30 4265 C 399.313 2.94638 1.83863 0
M  V30 4266 C 398.267 4.03227 1.435 0
M  V30 4267 C 397.593 4.60828 2.71186 0
M  V30 4268 C 398.893 5.18796 0.604002 0
M  V30 4269 H 400.587 2.99321 0.0685625 0
M  V30 4270 H 398.133 1.43965 0.0315363 0
M  V30 4271 H 400.086 3.41517 2.46868 0
M  V30 4272 H 398.81 2.17287 2.43832 0
M  V30 4273 H 397.469 3.57121 0.828275 0
M  V30 4274 H 397.117 3.80174 3.29358 0
M  V30 4275 H 396.817 5.34132 2.44901 0
M  V30 4276 H 398.341 5.10442 3.35084 0
M  V30 4277 H 399.755 5.61883 1.13842 0
M  V30 4278 H 398.152 5.98506 0.437097 0
M  V30 4279 H 399.222 4.83384 -0.383147 0
M  V30 4280 N 400.565 -0.0233959 1.57583 0
M  V30 4281 C 401.813 -0.711654 1.89156 0
M  V30 4282 C 402.134 -1.75591 0.848096 0
M  V30 4283 O 401.404 -1.95547 -0.117566 0
M  V30 4284 H 399.984 -0.265835 0.698098 0
M  V30 4285 H 402.646 0.0119948 1.94896 0
M  V30 4286 H 401.742 -1.19766 2.88206 0
M  V30 4287 N 402.043 -1.548 -0.295768 0
M  V30 4288 C 403.283 -1.76069 -1.03823 0
M  V30 4289 C 403.647 -0.537992 -1.84309 0
M  V30 4290 O 404.848 -0.628514 -2.61349 0
M  V30 4291 C 403.119 -3.01705 -1.91596 0
M  V30 4292 S 404.678 -3.43998 -2.72416 0
M  V30 4293 H 401.496 -0.618852 -0.350062 0
M  V30 4294 H 404.098 -1.93009 -0.31106 0
M  V30 4295 H 402.802 -3.88812 -1.31351 0
M  V30 4296 H 402.333 -2.87366 -2.68671 0
M  V30 4297 H 404.348 -3.0148 -3.94112 0
M  V30 4298 N 403.521 0.559213 -1.47345 0
M  V30 4299 C 404.768 1.31648 -1.53867 0
M  V30 4300 C 405.096 1.93468 -0.200104 0
M  V30 4301 O 404.351 1.78295 0.806799 0
M  V30 4302 C 404.65 2.44853 -2.6035 0
M  V30 4303 C 404.316 2.00876 -4.03683 0
M  V30 4304 C 402.978 1.88599 -4.42701 0
M  V30 4305 C 405.33 1.67279 -4.93626 0
M  V30 4306 C 402.658 1.41017 -5.69501 0
M  V30 4307 C 405.01 1.21169 -6.20887 0
M  V30 4308 C 403.674 1.07487 -6.58789 0
M  V30 4309 H 402.944 0.481734 -0.56304 0
M  V30 4310 H 405.591 0.627301 -1.80934 0
M  V30 4311 H 403.896 3.19318 -2.27032 0
M  V30 4312 H 405.593 3.03039 -2.62619 0
M  V30 4313 H 402.183 2.11374 -3.72853 0
M  V30 4314 H 406.367 1.75638 -4.64182 0
M  V30 4315 H 401.623 1.29086 -5.97618 0
M  V30 4316 H 405.797 0.942345 -6.89995 0
M  V30 4317 H 403.424 0.703946 -7.56934 0
M  V30 4318 N 404.999 1.35443 0.805782 0
M  V30 4319 C 405.947 1.28465 1.93906 0
M  V30 4320 C 406.941 0.17943 1.68447 0
M  V30 4321 O 408.147 0.345459 1.76654 0
M  V30 4322 H 404.522 0.399528 0.637088 0
M  V30 4323 H 406.493 2.24206 1.96912 0
M  V30 4324 C 405.242 1.07432 3.30687 0
M  V30 4325 H 404.565 1.91716 3.50835 0
M  V30 4326 H 406.005 1.06591 4.10383 0
M  V30 4327 C 404.464 -0.22179 3.36169 0
M  V30 4328 O 404.994 -1.21731 3.82811 0
M  V30 4329 N 403.2 -0.260841 2.89427 0
M  V30 4330 H 402.747 0.549884 2.51663 0
M  V30 4331 H 402.705 -1.12777 2.93477 0
M  V30 4332 N 406.477 -1.02803 1.19454 0
M  V30 4333 C 407.407 -2.12999 0.956758 0
M  V30 4334 C 408.388 -1.69743 -0.110188 0
M  V30 4335 O 409.573 -1.94148 0.0450038 0
M  V30 4336 C 406.703 -3.43746 0.495553 0
M  V30 4337 C 405.657 -4.00688 1.50443 0
M  V30 4338 C 404.983 -5.27067 0.900275 0
M  V30 4339 C 406.283 -4.35397 2.8849 0
M  V30 4340 H 407.977 -2.33148 1.87836 0
M  V30 4341 H 405.523 -1.12045 0.904539 0
M  V30 4342 H 407.476 -4.2021 0.316493 0
M  V30 4343 H 406.2 -3.23321 -0.461646 0
M  V30 4344 H 404.859 -3.2632 1.67065 0
M  V30 4345 H 404.507 -5.02959 -0.064503 0
M  V30 4346 H 404.207 -5.66127 1.57397 0
M  V30 4347 H 405.731 -6.06196 0.73203 0
M  V30 4348 H 407.145 -5.02795 2.75446 0
M  V30 4349 H 405.542 -4.85541 3.52661 0
M  V30 4350 H 406.612 -3.44662 3.41081 0
M  V30 4351 N 407.956 -0.998596 -1.21925 0
M  V30 4352 C 409.184 -0.696286 -1.94832 0
M  V30 4353 C 409.599 0.740032 -1.73692 0
M  V30 4354 O 408.956 1.5 -1.03953 0
M  V30 4355 C 409.007 -0.999833 -3.47398 0
M  V30 4356 O 408.728 -2.37972 -3.67833 0
M  V30 4357 C 410.229 -0.716025 -4.37479 0
M  V30 4358 H 407.449 -0.257111 -0.619786 0
M  V30 4359 H 409.993 -1.33491 -1.54921 0
M  V30 4360 H 408.148 -0.406918 -3.85257 0
M  V30 4361 H 408.562 -2.48338 -4.61983 0
M  V30 4362 H 410.036 -0.978642 -5.43256 0
M  V30 4363 H 410.513 0.349968 -4.37803 0
M  V30 4364 H 411.119 -1.29025 -4.05256 0
M  V30 4365 N 409.434 1.37368 -0.772513 0
M  V30 4366 C 410.683 1.98918 -0.333861 0
M  V30 4367 C 410.996 1.62017 1.09589 0
M  V30 4368 O 412.202 2.16676 1.63596 0
M  V30 4369 C 410.658 3.55735 -0.545971 0
M  V30 4370 C 410.266 4.01573 -1.98603 0
M  V30 4371 C 412.01 4.24156 -0.170979 0
M  V30 4372 C 409.917 5.51102 -2.1457 0
M  V30 4373 H 408.847 0.744214 -0.121085 0
M  V30 4374 H 411.498 1.56888 -0.95175 0
M  V30 4375 H 409.88 3.95748 0.141387 0
M  V30 4376 H 411.054 3.72803 -2.7084 0
M  V30 4377 H 409.369 3.45937 -2.31769 0
M  V30 4378 H 411.966 5.34024 -0.26878 0
M  V30 4379 H 412.309 4.06917 0.878855 0
M  V30 4380 H 412.842 3.89447 -0.810914 0
M  V30 4381 H 409.581 5.73268 -3.17875 0
M  V30 4382 H 409.101 5.81554 -1.46817 0
M  V30 4383 H 410.78 6.17083 -1.94468 0
M  V30 4384 N 410.912 0.523116 1.48665 0
M  V30 4385 C 411.859 -0.243398 2.29513 0
M  V30 4386 C 412.829 -0.940139 1.36933 0
M  V30 4387 O 414.014 -0.942503 1.65896 0
M  V30 4388 C 411.154 -1.28855 3.20141 0
M  V30 4389 C 410.267 -0.60135 4.27794 0
M  V30 4390 C 409.402 -1.62884 5.05611 0
M  V30 4391 C 408.441 -0.924726 6.05075 0
M  V30 4392 N 407.578 -1.89744 6.75975 0
M  V30 4393 H 412.418 0.452234 2.94549 0
M  V30 4394 H 409.955 0.234858 1.45213 0
M  V30 4395 H 411.913 -1.90674 3.71079 0
M  V30 4396 H 410.543 -1.95266 2.57043 0
M  V30 4397 H 409.595 0.130623 3.80176 0
M  V30 4398 H 410.907 -0.0481585 4.98777 0
M  V30 4399 H 410.061 -2.32149 5.60528 0
M  V30 4400 H 408.8 -2.21592 4.34452 0
M  V30 4401 H 407.805 -0.217966 5.49368 0
M  V30 4402 H 409.03 -0.343851 6.78229 0
M  V30 4403 H 406.976 -2.47373 6.07571 0
M  V30 4404 H 406.893 -1.3955 7.43009 0
M  V30 4405 H 408.161 -2.58229 7.35485 0
M  V30 4406 N 412.39 -1.55475 0.257931 0
M  V30 4407 C 413.638 -1.98813 -0.363009 0
M  V30 4408 C 413.959 -1.14757 -1.57657 0
M  V30 4409 O 413.229 -0.232956 -1.9451 0
M  V30 4410 H 411.809 -0.734308 -0.137113 0
M  V30 4411 H 414.471 -1.9156 0.359281 0
M  V30 4412 H 413.567 -3.04941 -0.664634 0
M  V30 4413 N 413.868 0.0150385 -1.57593 0
M  V30 4414 C 414.818 1.01943 -2.0394 0
M  V30 4415 C 415.802 1.31209 -0.931286 0
M  V30 4416 O 416.994 1.30559 -1.19513 0
M  V30 4417 C 414.123 2.31621 -2.53391 0
M  V30 4418 C 413.209 2.05384 -3.7105 0
M  V30 4419 N 413.6 1.49253 -4.83278 0
M  V30 4420 C 411.898 2.35601 -3.78693 0
M  V30 4421 C 412.599 1.39143 -5.64813 0
M  V30 4422 N 411.575 1.87187 -5.10355 0
M  V30 4423 H 415.377 0.57969 -2.88126 0
M  V30 4424 H 412.891 0.221056 -1.60888 0
M  V30 4425 H 414.888 3.044 -2.84862 0
M  V30 4426 H 413.548 2.76261 -1.70616 0
M  V30 4427 H 414.559 1.17334 -5.04433 0
M  V30 4428 H 411.236 2.8322 -3.06746 0
M  V30 4429 H 412.626 0.961153 -6.6499 0
M  V30 4430 N 415.346 1.54954 0.287554 0
M  V30 4431 C 416.309 1.86076 1.33823 0
M  V30 4432 C 417.309 0.734414 1.43049 0
M  V30 4433 O 418.499 1.00266 1.42452 0
M  V30 4434 C 415.631 2.05305 2.72144 0
M  V30 4435 H 416.824 2.79984 1.07465 0
M  V30 4436 H 414.377 1.47223 0.524902 0
M  V30 4437 H 415.112 1.1373 3.03704 0
M  V30 4438 H 414.897 2.873 2.66836 0
M  V30 4439 H 416.387 2.30706 3.48087 0
M  V30 4440 N 416.824 -0.551391 1.4764 0
M  V30 4441 C 417.771 -1.65796 1.60563 0
M  V30 4442 C 418.741 -1.59932 0.448428 0
M  V30 4443 O 419.926 -1.78679 0.669222 0
M  V30 4444 C 417.066 -3.04108 1.63133 0
M  V30 4445 C 416.179 -3.20365 2.89811 0
M  V30 4446 C 415.314 -4.49109 2.8368 0
M  V30 4447 C 414.353 -4.58819 4.05156 0
M  V30 4448 N 413.49 -5.78926 3.97227 0
M  V30 4449 H 418.33 -1.54088 2.5507 0
M  V30 4450 H 415.867 -0.75052 1.26513 0
M  V30 4451 H 417.825 -3.84207 1.62606 0
M  V30 4452 H 416.455 -3.14637 0.721341 0
M  V30 4453 H 415.507 -2.33659 3.00179 0
M  V30 4454 H 416.819 -3.23402 3.79753 0
M  V30 4455 H 415.973 -5.37475 2.81434 0
M  V30 4456 H 414.712 -4.4856 1.91431 0
M  V30 4457 H 413.717 -3.68864 4.077 0
M  V30 4458 H 414.942 -4.61124 4.98539 0
M  V30 4459 H 412.888 -5.79314 3.07785 0
M  V30 4460 H 412.805 -5.83367 4.80853 0
M  V30 4461 H 414.073 -6.69637 3.99007 0
M  V30 4462 N 418.302 -1.35869 -0.798587 0
M  V30 4463 C 419.542 -1.30961 -1.56935 0
M  V30 4464 C 419.906 0.112404 -1.91671 0
M  V30 4465 O 421.107 0.285937 -2.67275 0
M  V30 4466 C 419.378 -2.19811 -2.81811 0
M  V30 4467 S 420.937 -2.32498 -3.72143 0
M  V30 4468 H 417.755 -0.465297 -0.537606 0
M  V30 4469 H 420.357 -1.71344 -0.941346 0
M  V30 4470 H 419.061 -3.22095 -2.54329 0
M  V30 4471 H 418.592 -1.80415 -3.49591 0
M  V30 4472 H 420.607 -1.5157 -4.72484 0
M  V30 4473 N 419.78 1.02168 -1.19998 0
M  V30 4474 C 421.026 1.75945 -1.00852 0
M  V30 4475 C 421.359 1.88702 0.458828 0
M  V30 4476 O 420.634 1.40911 1.34069 0
M  V30 4477 C 420.917 3.18154 -1.68671 0
M  V30 4478 C 420.77 3.13224 -3.22817 0
M  V30 4479 C 422.089 4.16711 -1.41561 0
M  V30 4480 H 419.208 0.638673 -0.367785 0
M  V30 4481 H 421.85 1.19222 -1.4794 0
M  V30 4482 H 420 3.66586 -1.28636 0
M  V30 4483 H 421.672 2.72635 -3.72112 0
M  V30 4484 H 419.915 2.50751 -3.53986 0
M  V30 4485 H 420.586 4.13728 -3.65422 0
M  V30 4486 H 423.062 3.76913 -1.76284 0
M  V30 4487 H 421.938 5.14391 -1.91553 0
M  V30 4488 H 422.199 4.40774 -0.342193 0
M  V30 4489 N 421.258 1.00505 1.21394 0
M  V30 4490 C 422.168 0.574806 2.27449 0
M  V30 4491 C 423.184 -0.382206 1.6975 0
M  V30 4492 O 424.36 -0.246027 1.99892 0
M  V30 4493 C 421.425 -0.0917414 3.46579 0
M  V30 4494 C 420.486 0.909758 4.1955 0
M  V30 4495 C 419.719 0.274924 5.32991 0
M  V30 4496 O 419.942 -0.928254 5.62796 0
M  V30 4497 O 418.876 0.985877 5.93771 0
M  V30 4498 H 422.702 1.45744 2.66444 0
M  V30 4499 H 420.287 0.773923 1.27792 0
M  V30 4500 H 422.169 -0.464551 4.18832 0
M  V30 4501 H 420.844 -0.948755 3.09484 0
M  V30 4502 H 419.751 1.33372 3.49518 0
M  V30 4503 H 421.084 1.73636 4.60555 0
M  V30 4504 N 422.737 -1.36956 0.779787 0
M  V30 4505 C 423.984 -1.99491 0.347766 0
M  V30 4506 C 424.312 -1.61898 -1.07793 0
M  V30 4507 O 423.567 -0.86071 -1.75756 0
M  V30 4508 C 423.866 -3.54585 0.447686 0
M  V30 4509 C 423.532 -4.1197 1.83279 0
M  V30 4510 C 422.194 -4.27356 2.2118 0
M  V30 4511 C 424.546 -4.43354 2.74019 0
M  V30 4512 C 421.874 -4.71432 3.4924 0
M  V30 4513 C 424.226 -4.88858 4.01497 0
M  V30 4514 C 422.89 -5.0245 4.39432 0
M  V30 4515 H 422.16 -0.729991 0.127257 0
M  V30 4516 H 424.807 -1.63599 0.995376 0
M  V30 4517 H 423.112 -3.90773 -0.283447 0
M  V30 4518 H 424.809 -4.00888 0.0945948 0
M  V30 4519 H 421.399 -4.00428 1.52825 0
M  V30 4520 H 425.583 -4.31045 2.45995 0
M  V30 4521 H 420.839 -4.80141 3.78516 0
M  V30 4522 H 425.013 -5.12108 4.71931 0
M  V30 4523 H 422.64 -5.36362 5.38721 0
M  V30 4524 N 424.215 -0.530993 -1.48385 0
M  V30 4525 C 425.461 0.00274135 -2.028 0
M  V30 4526 C 425.794 1.33838 -1.40716 0
M  V30 4527 O 425.069 1.86465 -0.553277 0
M  V30 4528 C 425.352 0.123676 -3.59888 0
M  V30 4529 C 425.205 -1.2372 -4.3245 0
M  V30 4530 C 426.524 0.849967 -4.31814 0
M  V30 4531 H 423.643 -0.000477758 -0.737 0
M  V30 4532 H 426.285 -0.688217 -1.77098 0
M  V30 4533 H 424.435 0.712157 -3.81917 0
M  V30 4534 H 426.107 -1.86687 -4.21836 0
M  V30 4535 H 424.35 -1.81882 -3.93829 0
M  V30 4536 H 425.021 -1.10557 -5.40815 0
M  V30 4537 H 427.497 0.350572 -4.14621 0
M  V30 4538 H 426.373 0.903486 -5.41413 0
M  V30 4539 H 426.634 1.90047 -3.99167 0
M  V30 4540 N 425.693 1.55336 -0.266172 0
M  V30 4541 C 426.64 2.22172 0.625165 0
M  V30 4542 C 427.61 1.19211 1.15663 0
M  V30 4543 O 428.795 1.47723 1.20758 0
M  V30 4544 C 425.935 2.93972 1.8076 0
M  V30 4545 C 425.048 4.11632 1.31084 0
M  V30 4546 C 424.183 4.71099 2.45436 0
M  V30 4547 C 423.222 5.8097 1.92718 0
M  V30 4548 N 422.359 6.34538 3.00509 0
M  V30 4549 H 427.199 2.9796 0.0485582 0
M  V30 4550 H 424.736 1.47095 0.0122024 0
M  V30 4551 H 426.694 3.33811 2.50251 0
M  V30 4552 H 425.324 2.20623 2.35638 0
M  V30 4553 H 424.376 3.76975 0.509326 0
M  V30 4554 H 425.688 4.90893 0.884633 0
M  V30 4555 H 424.842 5.13612 3.22936 0
M  V30 4556 H 423.581 3.91096 2.91368 0
M  V30 4557 H 422.586 5.37916 1.13695 0
M  V30 4558 H 423.811 6.62836 1.47733 0
M  V30 4559 H 421.757 5.57433 3.45839 0
M  V30 4560 H 421.674 7.09046 2.62279 0
M  V30 4561 H 422.942 6.81709 3.78011 0
M  V30 4562 N 427.171 -0.0066808 1.57599 0
M  V30 4563 C 428.396 -0.707738 1.94951 0
M  V30 4564 C 428.821 -1.66882 0.867868 0
M  V30 4565 O 428.179 -1.80457 -0.17458 0
M  V30 4566 C 428.227 -1.42162 3.31394 0
M  V30 4567 O 427.331 -2.53578 3.25226 0
M  V30 4568 H 426.672 -0.188752 0.636607 0
M  V30 4569 H 429.202 0.0445193 2.04552 0
M  V30 4570 H 429.212 -1.78655 3.66806 0
M  V30 4571 H 427.887 -0.716903 4.09675 0
M  V30 4572 H 426.464 -2.19463 3.01481 0
M  V30 4573 N 428.649 -1.55105 -0.279332 0
M  V30 4574 C 429.896 -1.75412 -1.01177 0
M  V30 4575 C 430.224 -0.551728 -1.86511 0
M  V30 4576 O 429.479 0.465919 -1.90073 0
M  V30 4577 C 429.778 -3.0086 -1.92919 0
M  V30 4578 C 429.444 -4.33689 -1.23387 0
M  V30 4579 C 428.106 -4.69792 -1.04159 0
M  V30 4580 C 430.458 -5.15941 -0.738562 0
M  V30 4581 C 427.786 -5.85707 -0.341166 0
M  V30 4582 C 430.138 -6.32579 -0.0517636 0
M  V30 4583 C 428.802 -6.67326 0.152292 0
M  V30 4584 H 428.072 -0.641879 -0.370233 0
M  V30 4585 H 430.719 -1.89373 -0.284627 0
M  V30 4586 H 429.024 -2.81773 -2.72234 0
M  V30 4587 H 430.721 -3.13768 -2.49701 0
M  V30 4588 H 427.311 -4.05309 -1.39364 0
M  V30 4589 H 431.495 -4.8853 -0.874764 0
M  V30 4590 H 426.751 -6.11157 -0.172287 0
M  V30 4591 H 430.925 -6.9557 0.339828 0
M  V30 4592 H 428.552 -7.56998 0.697014 0
M  V30 4593 N 430.127 0.543554 -1.4793 0
M  V30 4594 C 431.075 1.67039 -1.61866 0
M  V30 4595 C 432.069 1.62294 -0.48549 0
M  V30 4596 O 433.275 1.67315 -0.66376 0
M  V30 4597 H 429.65 0.552954 -0.509652 0
M  V30 4598 H 431.621 1.52426 -2.56533 0
M  V30 4599 C 430.37 3.05357 -1.6629 0
M  V30 4600 H 429.693 3.09696 -2.5284 0
M  V30 4601 H 431.133 3.83855 -1.80088 0
M  V30 4602 C 429.592 3.34531 -0.398861 0
M  V30 4603 O 430.122 3.98649 0.494162 0
M  V30 4604 N 428.328 2.89299 -0.2747 0
M  V30 4605 H 427.875 2.37298 -1.00236 0
M  V30 4606 H 427.833 3.09188 0.570075 0
M  V30 4607 N 431.605 1.3629 0.791371 0
M  V30 4608 C 432.535 1.33137 1.91825 0
M  V30 4609 C 433.516 0.203168 1.68882 0
M  V30 4610 O 434.701 0.400509 1.90025 0
M  V30 4611 C 431.831 1.11793 3.28816 0
M  V30 4612 C 430.785 2.21417 3.66277 0
M  V30 4613 C 430.111 1.85218 5.01596 0
M  V30 4614 C 431.411 3.63489 3.75064 0
M  V30 4615 H 433.105 2.2743 1.9472 0
M  V30 4616 H 430.651 1.09479 0.935437 0
M  V30 4617 H 432.604 1.08222 4.07266 0
M  V30 4618 H 431.328 0.139501 3.26302 0
M  V30 4619 H 429.987 2.2411 2.90121 0
M  V30 4620 H 429.635 0.859544 4.95602 0
M  V30 4621 H 429.335 2.58611 5.27631 0
M  V30 4622 H 430.859 1.832 5.82469 0
M  V30 4623 H 432.273 3.63034 4.43711 0
M  V30 4624 H 430.67 4.35771 4.12582 0
M  V30 4625 H 431.74 3.98536 2.76219 0
M  V30 4626 N 433.083 -1.0153 1.20538 0
M  V30 4627 C 434.494 -1.56598 1.01657 0
M  V30 4628 C 434.845 -1.91505 -0.426668 0
M  V30 4629 O 433.97 -1.72375 -1.30827 0
M  V30 4630 C 434.565 -2.84542 1.83905 0
M  V30 4631 C 433.124 -3.36133 1.69386 0
M  V30 4632 C 432.271 -2.09427 1.81757 0
M  V30 4633 H 435.222 -0.838974 1.34711 0
M  V30 4634 H 435.243 -3.56004 1.34319 0
M  V30 4635 H 434.755 -2.59105 2.8894 0
M  V30 4636 H 432.856 -3.66528 0.669933 0
M  V30 4637 H 432.969 -4.08248 2.50739 0
M  V30 4638 H 431.333 -2.21941 1.24957 0
M  V30 4639 H 432.116 -1.86414 2.88279 0
M  V30 4640 N 434.561 -1.01147 -1.20859 0
M  V30 4641 C 435.494 -0.522108 -2.22147 0
M  V30 4642 C 436.472 0.427686 -1.56874 0
M  V30 4643 O 437.656 0.34889 -1.85243 0
M  V30 4644 C 434.783 0.240819 -3.37843 0
M  V30 4645 C 433.829 -0.657752 -4.21398 0
M  V30 4646 S 434.662 -2.12393 -4.91578 0
M  V30 4647 C 435.818 -1.37102 -6.10699 0
M  V30 4648 H 436.051 -1.38035 -2.63313 0
M  V30 4649 H 433.584 -0.819941 -1.30829 0
M  V30 4650 H 435.542 0.674908 -4.04914 0
M  V30 4651 H 434.203 1.07457 -2.95147 0
M  V30 4652 H 433.396 -0.0697456 -5.03952 0
M  V30 4653 H 432.998 -1.0294 -3.59555 0
M  V30 4654 H 435.29 -0.648315 -6.74391 0
M  V30 4655 H 436.233 -2.17252 -6.73949 0
M  V30 4656 H 436.641 -0.876154 -5.57659 0
M  V30 4657 N 436.039 1.36541 -0.78704 0
M  V30 4658 C 436.969 2.32659 -0.197992 0
M  V30 4659 C 437.95 1.56533 0.665697 0
M  V30 4660 O 439.135 1.84698 0.60001 0
M  V30 4661 C 436.265 3.40778 0.669901 0
M  V30 4662 C 435.219 4.27897 -0.0937039 0
M  V30 4663 C 434.545 5.27163 0.894629 0
M  V30 4664 C 435.845 5.06334 -1.28154 0
M  V30 4665 H 437.539 2.82171 -1.00099 0
M  V30 4666 H 435.085 1.35665 -0.482793 0
M  V30 4667 H 437.038 4.07008 1.09191 0
M  V30 4668 H 435.762 2.89827 1.50558 0
M  V30 4669 H 434.421 3.6322 -0.49666 0
M  V30 4670 H 434.069 4.72486 1.72527 0
M  V30 4671 H 433.769 5.86317 0.388149 0
M  V30 4672 H 435.293 5.96266 1.31525 0
M  V30 4673 H 436.707 5.65617 -0.93541 0
M  V30 4674 H 435.104 5.74888 -1.72115 0
M  V30 4675 H 436.174 4.38114 -2.07807 0
M  V30 4676 N 437.518 0.538854 1.48102 0
M  V30 4677 C 438.451 -0.266495 2.26639 0
M  V30 4678 C 439.429 -0.93687 1.32897 0
M  V30 4679 O 440.613 -0.959507 1.62252 0
M  V30 4680 C 437.74 -1.37814 3.09394 0
M  V30 4681 C 436.786 -0.818247 4.18577 0
M  V30 4682 S 437.619 0.320848 5.34538 0
M  V30 4683 C 438.775 -0.793059 6.20855 0
M  V30 4684 H 439.008 0.399994 2.94597 0
M  V30 4685 H 436.541 0.324808 1.50945 0
M  V30 4686 H 438.499 -2.01488 3.57649 0
M  V30 4687 H 437.16 -2.01639 2.40833 0
M  V30 4688 H 436.353 -1.65247 4.7614 0
M  V30 4689 H 435.955 -0.258036 3.73109 0
M  V30 4690 H 438.247 -1.68961 6.56093 0
M  V30 4691 H 439.19 -0.255204 7.0764 0
M  V30 4692 H 439.598 -1.07746 5.54122 0
M  V30 4693 N 438.996 -1.55193 0.274407 0
M  V30 4694 C 439.926 -2.25471 -0.607032 0
M  V30 4695 C 440.907 -1.24461 -1.15946 0
M  V30 4696 O 442.092 -1.53179 -1.19373 0
M  V30 4697 C 439.222 -2.97526 -1.79153 0
M  V30 4698 C 438.176 -4.05459 -1.37067 0
M  V30 4699 C 437.502 -4.65084 -2.6382 0
M  V30 4700 C 438.802 -5.19691 -0.521389 0
M  V30 4701 H 440.496 -2.99393 -0.0209343 0
M  V30 4702 H 438.042 -1.43997 -0.00862866 0
M  V30 4703 H 439.995 -3.45402 -2.41404 0
M  V30 4704 H 438.719 -2.21138 -2.40344 0
M  V30 4705 H 437.378 -3.58393 -0.771355 0
M  V30 4706 H 437.026 -3.85365 -3.23268 0
M  V30 4707 H 436.726 -5.37961 -2.36372 0
M  V30 4708 H 438.25 -5.15708 -3.26921 0
M  V30 4709 H 439.664 -5.63623 -1.04889 0
M  V30 4710 H 438.061 -5.99126 -0.341825 0
M  V30 4711 H 439.131 -4.82713 0.46 0
M  V30 4712 N 440.474 -0.00167713 -1.576 0
M  V30 4713 C 441.722 0.681471 -1.90264 0
M  V30 4714 C 442.043 1.7422 -0.875924 0
M  V30 4715 O 441.313 1.95709 0.0864412 0
M  V30 4716 H 439.893 0.254696 -0.702239 0
M  V30 4717 H 442.555 -0.0429996 -1.94853 0
M  V30 4718 H 441.651 1.15166 -2.90075 0
M  V30 4719 N 441.952 1.55251 0.271103 0
M  V30 4720 C 443.2 1.75599 1.00047 0
M  V30 4721 C 443.521 0.561188 1.8675 0
M  V30 4722 O 442.791 -0.423846 1.9126 0
M  V30 4723 H 441.371 0.647562 0.372387 0
M  V30 4724 H 444.033 1.92656 0.294876 0
M  V30 4725 H 443.129 2.65766 1.6363 0
M  V30 4726 N 443.43 -0.535701 1.48216 0
M  V30 4727 C 444.678 -1.28928 1.55634 0
M  V30 4728 C 444.999 -1.93645 0.229514 0
M  V30 4729 O 444.269 -1.81038 -0.74846 0
M  V30 4730 H 442.849 -0.47884 0.573342 0
M  V30 4731 H 445.511 -0.623853 1.84646 0
M  V30 4732 H 444.607 -2.07157 2.33436 0
M  V30 4733 N 444.908 -1.36708 -0.784132 0
M  V30 4734 C 446.156 -1.30972 -1.53918 0
M  V30 4735 C 446.477 0.109086 -1.94695 0
M  V30 4736 O 445.747 1.05048 -1.65353 0
M  V30 4737 H 444.327 -0.481819 -0.570841 0
M  V30 4738 H 446.989 -1.71063 -0.934002 0
M  V30 4739 H 446.085 -1.94061 -2.44431 0
M  V30 4740 N 446.386 1.0089 -1.21074 0
M  V30 4741 C 447.616 1.77933 -1.04993 0
M  V30 4742 C 448.024 1.84847 0.403495 0
M  V30 4743 O 447.367 1.30606 1.29181 0
M  V30 4744 C 447.429 3.23541 -1.56722 0
M  V30 4745 C 447.093 3.40214 -3.05129 0
M  V30 4746 C 448.09 3.2881 -4.02716 0
M  V30 4747 C 445.775 3.65781 -3.44252 0
M  V30 4748 C 447.769 3.42732 -5.37414 0
M  V30 4749 C 445.456 3.79346 -4.79103 0
M  V30 4750 C 446.454 3.67827 -5.75493 0
M  V30 4751 O 446.142 3.80965 -7.07899 0
M  V30 4752 H 445.874 0.566157 -0.369381 0
M  V30 4753 H 448.428 1.27826 -1.60779 0
M  V30 4754 H 446.658 3.74766 -0.953285 0
M  V30 4755 H 448.347 3.82245 -1.36543 0
M  V30 4756 H 449.113 3.08986 -3.73835 0
M  V30 4757 H 444.992 3.73831 -2.69762 0
M  V30 4758 H 448.536 3.33658 -6.12632 0
M  V30 4759 H 444.433 3.98672 -5.07672 0
M  V30 4760 H 445.201 3.97937 -7.15254 0
M  V30 4761 N 447.864 1.01787 1.20321 0
M  V30 4762 C 449.092 0.727194 1.937 0
M  V30 4763 C 449.507 -0.712305 1.74848 0
M  V30 4764 O 448.864 -1.48327 1.06327 0
M  V30 4765 C 448.915 1.05497 3.45764 0
M  V30 4766 O 448.636 2.43794 3.64 0
M  V30 4767 C 450.137 0.785534 4.36285 0
M  V30 4768 H 447.357 0.266939 0.615617 0
M  V30 4769 H 449.901 1.35939 1.52777 0
M  V30 4770 H 448.056 0.468158 3.84561 0
M  V30 4771 H 448.47 2.55656 4.57974 0
M  V30 4772 H 449.944 1.06495 5.4163 0
M  V30 4773 H 450.421 -0.280273 4.38305 0
M  V30 4774 H 451.027 1.35456 4.03152 0
M  V30 4775 N 449.342 -1.36122 0.79427 0
M  V30 4776 C 450.591 -1.98361 0.365464 0
M  V30 4777 C 450.904 -1.6374 -1.06997 0
M  V30 4778 O 452.11 -2.19251 -1.60129 0
M  V30 4779 C 450.566 -3.54821 0.602496 0
M  V30 4780 C 450.174 -3.98362 2.04967 0
M  V30 4781 C 451.918 -4.2383 0.238437 0
M  V30 4782 C 449.825 -5.47619 2.2331 0
M  V30 4783 H 448.755 -0.742193 0.13291 0
M  V30 4784 H 451.406 -1.55354 0.976589 0
M  V30 4785 H 449.788 -3.95922 -0.078409 0
M  V30 4786 H 450.962 -3.68447 2.76737 0
M  V30 4787 H 449.277 -3.42206 2.37243 0
M  V30 4788 H 451.874 -5.33529 0.353705 0
M  V30 4789 H 452.217 -4.08264 -0.814006 0
M  V30 4790 H 452.75 -3.88108 0.872769 0
M  V30 4791 H 449.489 -5.68138 3.26955 0
M  V30 4792 H 449.009 -5.79145 1.5605 0
M  V30 4793 H 450.688 -6.13911 2.0426 0
M  V30 4794 N 450.82 -0.546701 -1.47814 0
M  V30 4795 C 452.236 -0.205717 -1.58269 0
M  V30 4796 C 452.436 1.29153 -1.54667 0
M  V30 4797 O 451.492 2.07098 -1.44453 0
M  V30 4798 C 452.805 -0.823065 -2.89216 0
M  V30 4799 C 454.353 -0.793328 -3.02779 0
M  V30 4800 C 454.828 -1.38955 -4.36412 0
M  V30 4801 N 456.319 -1.35227 -4.43021 0
M  V30 4802 C 457.054 -1.78333 -5.44963 0
M  V30 4803 N 456.55 -2.29246 -6.53772 0
M  V30 4804 N 458.343 -1.69467 -5.35945 0
M  V30 4805 H 450.494 -1.5196 -1.48398 0
M  V30 4806 H 452.757 -0.633078 -0.705632 0
M  V30 4807 H 452.463 -1.8749 -2.97558 0
M  V30 4808 H 452.337 -0.309915 -3.75925 0
M  V30 4809 H 454.724 0.249784 -2.94041 0
M  V30 4810 H 454.805 -1.34412 -2.17639 0
M  V30 4811 H 454.449 -2.43168 -4.45906 0
M  V30 4812 H 454.379 -0.814291 -5.20266 0
M  V30 4813 H 456.87 -0.979739 -3.64979 0
M  V30 4814 H 457.183 -2.60089 -7.27718 0
M  V30 4815 H 455.528 -2.3325 -6.5469 0
M  V30 4816 H 458.719 -1.29477 -4.49837 0
M  V30 4817 H 458.892 -2.03381 -6.15256 0
M  V30 4818 N 452.299 1.55045 -0.282633 0
M  V30 4819 C 453.247 2.24254 0.617478 0
M  V30 4820 C 454.241 1.24215 1.15183 0
M  V30 4821 O 455.447 1.42123 1.10459 0
M  V30 4822 H 451.822 0.719801 0.217693 0
M  V30 4823 H 453.793 2.98398 0.0110076 0
M  V30 4824 C 452.542 2.98281 1.78672 0
M  V30 4825 H 451.865 3.75053 1.38475 0
M  V30 4826 H 453.305 3.50017 2.393 0
M  V30 4827 C 451.764 2.04184 2.67975 0
M  V30 4828 O 452.294 1.59792 3.6855 0
M  V30 4829 N 450.5 1.70526 2.35307 0
M  V30 4830 H 450.047 2.06821 1.53567 0
M  V30 4831 H 450.005 1.07839 2.95327 0
M  V30 4832 N 453.777 0.010035 1.57597 0
M  V30 4833 C 455.023 -0.673697 1.91283 0
M  V30 4834 C 455.356 -1.72863 0.884979 0
M  V30 4835 O 454.631 -1.94268 -0.0949487 0
M  V30 4836 C 454.914 -1.30766 3.35518 0
M  V30 4837 C 454.767 -0.263578 4.49027 0
M  V30 4838 C 456.086 -2.23105 3.79358 0
M  V30 4839 H 453.205 -0.243439 0.695634 0
M  V30 4840 H 455.847 0.0633864 1.89894 0
M  V30 4841 H 453.997 -1.93588 3.36832 0
M  V30 4842 H 455.669 0.365738 4.59848 0
M  V30 4843 H 453.912 0.413077 4.31829 0
M  V30 4844 H 454.583 -0.746398 5.4693 0
M  V30 4845 H 457.059 -1.70289 3.79659 0
M  V30 4846 H 455.935 -2.64424 4.81011 0
M  V30 4847 H 456.196 -3.11433 3.13787 0
M  V30 4848 N 455.255 -1.55392 -0.262866 0
M  V30 4849 C 456.218 -1.88181 -1.30846 0
M  V30 4850 C 457.218 -0.757079 -1.41862 0
M  V30 4851 O 458.408 -1.02519 -1.40838 0
M  V30 4852 C 455.54 -2.09609 -2.68844 0
M  V30 4853 H 456.733 -2.81659 -1.02997 0
M  V30 4854 H 454.286 -1.48039 -0.501414 0
M  V30 4855 H 455.021 -1.18547 -3.01856 0
M  V30 4856 H 454.806 -2.91508 -2.62231 0
M  V30 4857 H 456.296 -2.36215 -3.44372 0
M  V30 4858 N 456.733 0.527833 -1.48498 0
M  V30 4859 C 458.149 0.856571 -1.34666 0
M  V30 4860 C 458.349 1.98271 -0.35931 0
M  V30 4861 O 457.405 2.51551 0.218703 0
M  V30 4862 C 458.718 1.22207 -2.74747 0
M  V30 4863 C 460.266 1.33183 -2.83251 0
M  V30 4864 C 460.741 1.73075 -4.24039 0
M  V30 4865 N 462.232 1.80174 -4.26722 0
M  V30 4866 C 462.967 2.1243 -5.32598 0
M  V30 4867 N 462.463 2.43096 -6.4875 0
M  V30 4868 N 464.256 2.13454 -5.19994 0
M  V30 4869 H 456.407 -0.215174 -2.11307 0
M  V30 4870 H 458.67 -0.0336281 -0.947403 0
M  V30 4871 H 458.376 0.468195 -3.4857 0
M  V30 4872 H 458.25 2.17173 -3.08409 0
M  V30 4873 H 460.637 2.07647 -2.09683 0
M  V30 4874 H 460.718 0.363333 -2.53206 0
M  V30 4875 H 460.362 0.991712 -4.98124 0
M  V30 4876 H 460.292 2.70979 -4.51529 0
M  V30 4877 H 462.783 1.58744 -3.42942 0
M  V30 4878 H 463.096 2.6682 -7.25277 0
M  V30 4879 H 461.441 2.40611 -6.52021 0
M  V30 4880 H 464.632 1.88956 -4.28268 0
M  V30 4881 H 464.805 2.38261 -6.02608 0
M  V30 4882 N 458.211 1.37122 0.776871 0
M  V30 4883 C 459.451 1.33441 1.54831 0
M  V30 4884 C 459.815 -0.0818963 1.91825 0
M  V30 4885 O 461.016 -0.24338 2.67696 0
M  V30 4886 C 459.287 2.24267 2.78279 0
M  V30 4887 S 460.846 2.38389 3.68397 0
M  V30 4888 H 457.664 0.473791 0.530135 0
M  V30 4889 H 460.266 1.7282 0.913968 0
M  V30 4890 H 458.97 3.261 2.49173 0
M  V30 4891 H 458.501 1.85953 3.46677 0
M  V30 4892 H 460.516 1.59068 4.70013 0
M  V30 4893 N 459.689 -1.00246 1.21608 0
M  V30 4894 C 460.935 -1.74417 1.04643 0
M  V30 4895 C 461.29 -1.87862 -0.415387 0
M  V30 4896 O 460.583 -1.40373 -1.30407 0
M  V30 4897 C 460.777 -3.15448 1.68009 0
M  V30 4898 C 460.606 -3.15755 3.20201 0
M  V30 4899 C 459.376 -3.2219 3.89258 0
M  V30 4900 C 461.574 -3.00668 4.17257 0
M  V30 4901 N 459.556 -3.1215 5.28617 0
M  V30 4902 C 460.927 -2.98553 5.43384 0
M  V30 4903 C 462.982 -2.84989 4.08272 0
M  V30 4904 C 461.685 -2.82364 6.61561 0
M  V30 4905 C 463.711 -2.70158 5.26088 0
M  V30 4906 C 463.073 -2.68721 6.51128 0
M  V30 4907 H 459.172 -0.648317 0.437274 0
M  V30 4908 H 461.756 -1.19129 1.54001 0
M  V30 4909 H 459.927 -3.69001 1.21215 0
M  V30 4910 H 461.659 -3.78128 1.44226 0
M  V30 4911 H 458.414 -3.29488 3.40198 0
M  V30 4912 H 458.838 -3.10465 6.01615 0
M  V30 4913 H 463.48 -2.84904 3.12393 0
M  V30 4914 H 461.198 -2.81196 7.57598 0
M  V30 4915 H 464.784 -2.59022 5.20959 0
M  V30 4916 H 463.664 -2.57382 7.40759 0
M  V30 4917 N 461.167 -1.02423 -1.1978 0
M  V30 4918 C 462.395 -0.737456 -1.93311 0
M  V30 4919 C 462.81 0.703023 -1.75223 0
M  V30 4920 O 462.167 1.47761 -1.07112 0
M  V30 4921 C 462.218 -1.0733 -3.45199 0
M  V30 4922 O 461.939 -2.4572 -3.62702 0
M  V30 4923 C 463.44 -0.80866 -4.35862 0
M  V30 4924 H 460.66 -0.2702 -0.614193 0
M  V30 4925 H 463.204 -1.36747 -1.52054 0
M  V30 4926 H 461.359 -0.488545 -3.84307 0
M  V30 4927 H 461.773 -2.58081 -4.56612 0
M  V30 4928 H 463.247 -1.09365 -5.41057 0
M  V30 4929 H 463.724 0.257025 -4.38447 0
M  V30 4930 H 464.33 -1.37592 -4.02428 0
M  V30 4931 N 462.645 1.35699 -0.801477 0
M  V30 4932 C 463.875 2.02862 -0.3912 0
M  V30 4933 C 464.283 1.60552 1.00099 0
M  V30 4934 O 463.626 0.796215 1.65548 0
M  V30 4935 C 463.688 3.57386 -0.389299 0
M  V30 4936 C 463.352 4.22943 -1.73113 0
M  V30 4937 C 464.349 4.44984 -2.68859 0
M  V30 4938 C 462.034 4.60167 -2.01373 0
M  V30 4939 C 464.028 5.03345 -3.91053 0
M  V30 4940 C 461.715 5.18243 -3.23832 0
M  V30 4941 C 462.713 5.39773 -4.1849 0
M  V30 4942 O 462.401 5.96626 -5.38788 0
M  V30 4943 H 462.133 0.657341 -0.157732 0
M  V30 4944 H 464.687 1.74407 -1.08496 0
M  V30 4945 H 462.917 3.85011 0.361031 0
M  V30 4946 H 464.606 4.059 -0.0020365 0
M  V30 4947 H 465.372 4.1661 -2.48316 0
M  V30 4948 H 461.251 4.42726 -1.28508 0
M  V30 4949 H 464.795 5.20065 -4.64949 0
M  V30 4950 H 460.692 5.46044 -3.44248 0
M  V30 4951 H 461.46 6.15082 -5.40015 0
M  V30 4952 N 464.123 0.554532 1.47522 0
M  V30 4953 C 465.033 -0.197865 2.33764 0
M  V30 4954 C 466.049 -0.914576 1.48025 0
M  V30 4955 O 467.225 -0.884067 1.80959 0
M  V30 4956 C 464.29 -1.21628 3.24665 0
M  V30 4957 C 463.351 -0.507283 4.26292 0
M  V30 4958 C 462.584 -1.47718 5.1285 0
M  V30 4959 O 462.807 -2.7118 5.01814 0
M  V30 4960 O 461.741 -1.00313 5.93482 0
M  V30 4961 H 465.567 0.50949 2.99396 0
M  V30 4962 H 463.152 0.315176 1.46038 0
M  V30 4963 H 465.034 -1.80421 3.80823 0
M  V30 4964 H 463.709 -1.9056 2.61665 0
M  V30 4965 H 462.616 0.121778 3.73902 0
M  V30 4966 H 463.949 0.140544 4.91999 0
M  V30 4967 N 465.601 -1.54893 0.290851 0
M  V30 4968 C 466.829 -2.04343 -0.324288 0
M  V30 4969 C 467.244 -1.16859 -1.48289 0
M  V30 4970 O 466.601 -0.192018 -1.81487 0
M  V30 4971 C 466.652 -3.52756 -0.79026 0
M  V30 4972 O 466.373 -4.36913 0.322213 0
M  V30 4973 C 467.874 -4.18161 -1.4716 0
M  V30 4974 H 465.094 -0.667135 -0.0719173 0
M  V30 4975 H 467.638 -1.99981 0.427529 0
M  V30 4976 H 465.793 -3.57511 -1.49213 0
M  V30 4977 H 466.207 -5.24486 -0.0387372 0
M  V30 4978 H 467.681 -5.23562 -1.7489 0
M  V30 4979 H 468.158 -3.67282 -2.40834 0
M  V30 4980 H 468.764 -4.17454 -0.813178 0
M  V30 4981 N 467.08 -0.0183926 -1.57589 0
M  V30 4982 C 468.043 0.951986 -2.08494 0
M  V30 4983 C 469.043 1.26092 -0.997874 0
M  V30 4984 O 470.233 1.20304 -1.25987 0
M  V30 4985 C 467.365 2.27165 -2.54182 0
M  V30 4986 H 468.558 0.511307 -2.95509 0
M  V30 4987 H 466.111 0.229444 -1.54607 0
M  V30 4988 H 466.846 2.75884 -1.70465 0
M  V30 4989 H 466.631 2.06057 -3.33591 0
M  V30 4990 H 468.121 2.9674 -2.93828 0
M  V30 4991 N 468.558 1.5553 0.254621 0
M  V30 4992 C 469.804 1.77262 0.985193 0
M  V30 4993 C 470.137 0.582286 1.85265 0
M  V30 4994 O 469.412 -0.419666 1.89919 0
M  V30 4995 C 469.695 3.0881 1.85225 0
M  V30 4996 C 469.548 4.38233 1.0135 0
M  V30 4997 C 470.867 3.3653 2.83612 0
M  V30 4998 H 467.986 0.644906 0.356742 0
M  V30 4999 H 470.628 1.88264 0.256236 0
M  V30 5000 H 468.778 2.99562 2.47376 0
M  V30 5001 H 470.45 4.59463 0.411269 0
M  V30 5002 H 468.693 4.32636 0.317574 0
M  V30 5003 H 469.364 5.26644 1.65379 0
M  V30 5004 H 471.84 3.45691 2.31596 0
M  V30 5005 H 470.716 4.29805 3.41407 0
M  V30 5006 H 470.977 2.57064 3.59681 0
M  V30 5007 N 470.036 -0.519951 1.48776 0
M  V30 5008 C 470.999 -1.60574 1.6355 0
M  V30 5009 C 471.999 -1.52557 0.508234 0
M  V30 5010 O 473.189 -1.56047 0.774262 0
M  V30 5011 C 470.321 -3.00211 1.61512 0
M  V30 5012 H 471.514 -1.4881 2.60376 0
M  V30 5013 H 469.067 -0.742772 1.37523 0
M  V30 5014 H 469.802 -3.17471 0.662009 0
M  V30 5015 H 469.587 -3.07439 2.43359 0
M  V30 5016 H 471.077 -3.79134 1.75064 0
M  V30 5017 N 471.514 -1.37532 -0.769588 0
M  V30 5018 C 472.444 -1.36172 -1.89682 0
M  V30 5019 C 473.425 -0.23001 -1.68538 0
M  V30 5020 O 474.61 -0.43069 -1.89364 0
M  V30 5021 C 471.74 -1.1701 -3.26995 0
M  V30 5022 C 470.694 -2.27216 -3.62708 0
M  V30 5023 C 470.02 -1.93174 -4.98586 0
M  V30 5024 C 471.32 -3.6941 -3.69234 0
M  V30 5025 H 473.014 -2.30499 -1.91078 0
M  V30 5026 H 470.56 -1.10953 -0.917902 0
M  V30 5027 H 472.513 -1.14688 -4.05493 0
M  V30 5028 H 471.237 -0.191395 -3.26039 0
M  V30 5029 H 469.896 -2.28697 -2.86519 0
M  V30 5030 H 469.544 -0.938281 -4.94171 0
M  V30 5031 H 469.244 -2.66973 -5.23449 0
M  V30 5032 H 470.768 -1.92443 -5.79481 0
M  V30 5033 H 472.182 -3.70047 -4.37879 0
M  V30 5034 H 470.579 -4.4228 -4.05597 0
M  V30 5035 H 471.649 -4.0288 -2.69844 0
M  V30 5036 N 472.992 0.995999 -1.22138 0
M  V30 5037 C 474.269 1.70834 -0.952642 0
M  V30 5038 C 474.649 2.04257 0.533119 0
M  V30 5039 O 473.997 1.72343 1.50034 0
M  V30 5040 C 474.207 2.96119 -1.84701 0
M  V30 5041 C 475.555 3.68962 -2.10124 0
M  V30 5042 O 476.579 3.0612 -1.82124 0
M  V30 5043 O 475.438 4.82017 -2.57531 0
M  V30 5044 H 472.532 0.745498 -0.357997 0
M  V30 5045 H 475.078 1.05262 -1.33109 0
M  V30 5046 H 473.85 2.67898 -2.85213 0
M  V30 5047 H 473.473 3.6943 -1.46995 0
M  V30 5048 N 474.47 1.03057 1.19235 0
M  V30 5049 C 475.698 0.747697 1.92917 0
M  V30 5050 C 476.113 -0.69372 1.75593 0
M  V30 5051 O 475.47 -1.47191 1.07894 0
M  V30 5052 C 475.521 1.09159 3.44625 0
M  V30 5053 O 475.242 2.47641 3.61394 0
M  V30 5054 C 476.743 0.831763 4.35427 0
M  V30 5055 H 473.963 0.273453 0.612751 0
M  V30 5056 H 476.507 1.37552 1.51327 0
M  V30 5057 H 474.662 0.508919 3.84043 0
M  V30 5058 H 475.076 2.60499 4.55237 0
M  V30 5059 H 476.55 1.12233 5.4047 0
M  V30 5060 H 477.027 -0.233769 4.38577 0
M  V30 5061 H 477.633 1.39725 4.01693 0
M  V30 5062 N 475.948 -1.35272 0.808662 0
M  V30 5063 C 476.858 -2.33546 0.222079 0
M  V30 5064 C 477.874 -1.6196 -0.636011 0
M  V30 5065 O 479.05 -1.93822 -0.547274 0
M  V30 5066 C 476.115 -3.41148 -0.61795 0
M  V30 5067 C 475.176 -4.28507 0.260875 0
M  V30 5068 C 474.409 -5.3097 -0.539156 0
M  V30 5069 O 474.632 -5.42123 -1.77367 0
M  V30 5070 O 473.566 -6.01858 0.0710526 0
M  V30 5071 H 477.392 -2.85515 1.03512 0
M  V30 5072 H 474.977 -1.38079 0.570495 0
M  V30 5073 H 476.859 -4.06889 -1.09634 0
M  V30 5074 H 475.534 -2.91447 -1.40855 0
M  V30 5075 H 474.441 -3.6574 0.786451 0
M  V30 5076 H 475.774 -4.81611 1.01547 0
M  V30 5077 N 477.426 -0.562348 -1.47226 0
M  V30 5078 C 478.675 -0.038041 -2.01664 0
M  V30 5079 C 478.988 1.32199 -1.44162 0
M  V30 5080 O 480.194 1.9365 -1.90294 0
M  V30 5081 C 478.65 -0.0174958 -3.59896 0
M  V30 5082 C 478.258 -1.3746 -4.2639 0
M  V30 5083 C 480.002 0.453934 -4.22066 0
M  V30 5084 C 477.909 -1.31289 -5.76643 0
M  V30 5085 H 476.839 -0.0104511 -0.753928 0
M  V30 5086 H 479.49 -0.710966 -1.69167 0
M  V30 5087 H 477.872 0.721182 -3.89378 0
M  V30 5088 H 479.046 -2.1314 -4.08544 0
M  V30 5089 H 477.361 -1.78438 -3.7623 0
M  V30 5090 H 479.958 0.518584 -5.32179 0
M  V30 5091 H 480.301 1.46706 -3.89594 0
M  V30 5092 H 480.834 -0.230044 -3.97134 0
M  V30 5093 H 477.573 -2.30217 -6.13743 0
M  V30 5094 H 477.093 -0.597973 -5.96812 0
M  V30 5095 H 478.772 -1.01713 -6.38955 0
M  V30 5096 N 478.904 1.54736 -0.299062 0
M  V30 5097 C 480.315 1.8569 0.193971 0
M  V30 5098 C 480.666 1.22101 1.53577 0
M  V30 5099 O 479.791 0.51799 2.10109 0
M  V30 5100 C 480.386 3.36895 0.358733 0
M  V30 5101 C 478.945 3.67887 0.795986 0
M  V30 5102 C 478.092 2.77131 -0.096807 0
M  V30 5103 H 481.043 1.49934 -0.520134 0
M  V30 5104 H 481.064 3.61294 1.19361 0
M  V30 5105 H 480.576 3.83148 -0.617998 0
M  V30 5106 H 478.677 3.27151 1.78334 0
M  V30 5107 H 478.79 4.75114 0.616718 0
M  V30 5108 H 477.154 2.51153 0.423581 0
M  V30 5109 H 477.937 3.26204 -1.06986 0
M  V30 5110 N 480.382 0.0267497 1.57577 0
M  V30 5111 C 481.33 -0.973923 2.11229 0
M  V30 5112 C 482.324 -1.33849 1.03831 0
M  V30 5113 O 483.53 -1.321 1.22269 0
M  V30 5114 H 479.905 -0.331844 0.674821 0
M  V30 5115 H 481.876 -0.496092 2.94247 0
M  V30 5116 C 480.625 -2.24798 2.65257 0
M  V30 5117 H 479.948 -1.9762 3.47543 0
M  V30 5118 H 481.388 -2.93031 3.06445 0
M  V30 5119 C 479.847 -2.97611 1.57891 0
M  V30 5120 O 480.377 -3.89629 0.97735 0
M  V30 5121 N 478.583 -2.59905 1.29992 0
M  V30 5122 H 478.13 -1.85154 1.79097 0
M  V30 5123 H 478.088 -3.08932 0.583798 0
M  V30 5124 N 481.861 -1.55662 -0.24637 0
M  V30 5125 C 482.771 -1.93495 -1.32653 0
M  V30 5126 C 483.787 -0.835462 -1.5263 0
M  V30 5127 O 484.963 -1.1369 -1.66242 0
M  V30 5128 C 482.028 -2.22242 -2.66101 0
M  V30 5129 C 481.089 -3.45625 -2.54641 0
M  V30 5130 C 480.322 -3.72991 -3.81724 0
M  V30 5131 O 480.545 -3.02421 -4.8363 0
M  V30 5132 O 479.479 -4.66515 -3.80325 0
M  V30 5133 H 483.305 -2.85498 -1.03559 0
M  V30 5134 H 480.89 -1.42551 -0.44717 0
M  V30 5135 H 482.772 -2.42037 -3.44958 0
M  V30 5136 H 481.447 -1.33417 -2.94926 0
M  V30 5137 H 480.354 -3.31136 -1.74067 0
M  V30 5138 H 481.687 -4.34754 -2.3076 0
M  V30 5139 N 483.339 0.512053 -1.4905 0
M  V30 5140 C 484.269 1.62365 -1.67809 0
M  V30 5141 C 485.25 1.61737 -0.526809 0
M  V30 5142 O 486.435 1.78651 -0.761404 0
M  V30 5143 C 483.565 3.00895 -1.73435 0
M  V30 5144 C 482.519 3.16387 -2.88242 0
M  V30 5145 C 481.845 4.56157 -2.78971 0
M  V30 5146 C 483.145 2.97457 -4.29321 0
M  V30 5147 H 484.839 1.46921 -2.60873 0
M  V30 5148 H 482.385 0.705379 -1.2554 0
M  V30 5149 H 484.338 3.78549 -1.85145 0
M  V30 5150 H 483.062 3.17403 -0.769619 0
M  V30 5151 H 481.721 2.41155 -2.76116 0
M  V30 5152 H 481.369 4.69525 -1.8043 0
M  V30 5153 H 481.069 4.67465 -3.5602 0
M  V30 5154 H 482.593 5.35886 -2.92675 0
M  V30 5155 H 484.007 3.64888 -4.42187 0
M  V30 5156 H 482.404 3.20245 -5.07507 0
M  V30 5157 H 483.474 1.93692 -4.44535 0
M  V30 5158 N 484.817 1.37938 0.762283 0
M  V30 5159 C 486.228 1.30094 1.33912 0
M  V30 5160 C 486.579 -0.0472026 1.96143 0
M  V30 5161 O 485.704 -0.94917 1.94473 0
M  V30 5162 C 486.299 2.35592 2.43478 0
M  V30 5163 C 484.858 2.31353 2.96905 0
M  V30 5164 C 484.005 2.18919 1.70205 0
M  V30 5165 H 486.956 1.48423 0.561816 0
M  V30 5166 H 486.977 2.00806 3.23199 0
M  V30 5167 H 486.489 3.33701 1.98155 0
M  V30 5168 H 484.59 1.36799 3.46579 0
M  V30 5169 H 484.703 3.25147 3.51875 0
M  V30 5170 H 483.067 1.65624 1.93496 0
M  V30 5171 H 483.85 3.18956 1.26973 0
M  V30 5172 N 486.295 -0.989507 1.22664 0
M  V30 5173 C 487.525 -1.7624 1.0781 0
M  V30 5174 C 487.933 -1.85466 -0.374036 0
M  V30 5175 O 487.276 -1.32645 -1.27087 0
M  V30 5176 C 487.338 -3.21007 1.61849 0
M  V30 5177 C 487.002 -3.35316 3.10503 0
M  V30 5178 C 487.999 -3.22362 4.07896 0
M  V30 5179 C 485.684 -3.60258 3.50028 0
M  V30 5180 C 487.678 -3.34139 5.42798 0
M  V30 5181 C 485.365 -3.71676 4.85078 0
M  V30 5182 C 486.363 -3.58625 5.81272 0
M  V30 5183 O 486.051 -3.69655 7.1387 0
M  V30 5184 H 485.783 -0.560209 0.378341 0
M  V30 5185 H 488.337 -1.25252 1.62792 0
M  V30 5186 H 486.567 -3.73202 1.01279 0
M  V30 5187 H 488.256 -3.80024 1.42606 0
M  V30 5188 H 489.022 -3.03 3.78703 0
M  V30 5189 H 484.901 -3.69492 2.75675 0
M  V30 5190 H 488.445 -3.23869 6.17863 0
M  V30 5191 H 484.342 -3.90545 5.1395 0
M  V30 5192 H 485.11 -3.86507 7.21495 0
M  V30 5193 N 487.773 -1.03688 -1.18687 0
M  V30 5194 C 488.721 -0.618292 -2.24232 0
M  V30 5195 C 489.715 0.353045 -1.6568 0
M  V30 5196 O 490.921 0.220749 -1.78641 0
M  V30 5197 H 487.296 -0.181711 -0.729716 0
M  V30 5198 H 489.267 -1.51893 -2.56848 0
M  V30 5199 C 488.016 0.00677342 -3.47699 0
M  V30 5200 H 487.339 -0.731692 -3.93047 0
M  V30 5201 H 488.779 0.262492 -4.23187 0
M  V30 5202 C 487.238 1.25572 -3.12623 0
M  V30 5203 O 487.768 2.34691 -3.26011 0
M  V30 5204 N 485.974 1.14755 -2.66982 0
M  V30 5205 H 485.521 0.259601 -2.56289 0
M  V30 5206 H 485.479 1.98412 -2.43885 0
M  V30 5207 N 489.251 1.34841 -0.815825 0
M  V30 5208 C 490.528 1.92908 -0.323416 0
M  V30 5209 C 490.908 1.74479 1.18828 0
M  V30 5210 O 490.256 1.11928 1.99209 0
M  V30 5211 C 490.466 3.40957 -0.744952 0
M  V30 5212 C 491.814 4.18107 -0.739716 0
M  V30 5213 O 492.838 3.49511 -0.68708 0
M  V30 5214 O 491.697 5.40517 -0.806456 0
M  V30 5215 H 488.791 0.822436 -0.0867646 0
M  V30 5216 H 491.337 1.4386 -0.90014 0
M  V30 5217 H 490.109 3.4814 -1.78646 0
M  V30 5218 H 489.732 3.97341 -0.143535 0
M  V30 5219 N 490.729 0.570148 1.46925 0
M  V30 5220 C 491.959 0.0561151 2.06524 0
M  V30 5221 C 492.367 -1.24874 1.42137 0
M  V30 5222 O 491.71 -1.76292 0.516417 0
M  V30 5223 C 491.772 -0.197035 3.5896 0
M  V30 5224 C 491.436 1.02033 4.45464 0
M  V30 5225 C 492.433 1.92921 4.82781 0
M  V30 5226 C 490.118 1.23864 4.86788 0
M  V30 5227 C 492.112 3.03999 5.60235 0
M  V30 5228 C 489.799 2.35249 5.64004 0
M  V30 5229 C 490.797 3.25146 6.0064 0
M  V30 5230 O 490.485 4.34598 6.76299 0
M  V30 5231 H 490.217 0.0487409 0.674241 0
M  V30 5232 H 492.771 0.786915 1.89728 0
M  V30 5233 H 491.001 -0.982299 3.74016 0
M  V30 5234 H 492.69 -0.658032 4.00531 0
M  V30 5235 H 493.456 1.77265 4.51444 0
M  V30 5236 H 489.335 0.54805 4.57731 0
M  V30 5237 H 492.879 3.74192 5.8875 0
M  V30 5238 H 488.776 2.50873 5.94755 0
M  V30 5239 H 489.544 4.32808 6.94708 0
M  V30 5240 N 492.207 -1.54576 0.307264 0
M  V30 5241 C 493.454 -2.00263 -0.300167 0
M  V30 5242 C 493.782 -1.19561 -1.53413 0
M  V30 5243 O 493.037 -0.261487 -1.93945 0
M  V30 5244 C 493.336 -3.50572 -0.695253 0
M  V30 5245 C 493.002 -4.48771 0.437679 0
M  V30 5246 C 491.664 -4.7534 0.748681 0
M  V30 5247 C 494.016 -5.0721 1.19949 0
M  V30 5248 C 491.344 -5.5761 1.8245 0
M  V30 5249 C 493.696 -5.90651 2.26527 0
M  V30 5250 C 492.36 -6.15528 2.58227 0
M  V30 5251 H 491.63 -0.732814 -0.109839 0
M  V30 5252 H 494.277 -1.86664 0.427661 0
M  V30 5253 H 492.582 -3.61814 -1.50326 0
M  V30 5254 H 494.279 -3.83352 -1.17653 0
M  V30 5255 H 490.869 -4.282 0.185187 0
M  V30 5256 H 495.053 -4.86679 0.972474 0
M  V30 5257 H 490.309 -5.75121 2.07476 0
M  V30 5258 H 494.483 -6.34957 2.86011 0
M  V30 5259 H 492.11 -6.79066 3.4172 0
M  V30 5260 N 493.685 -0.035106 -1.57561 0
M  V30 5261 C 494.595 0.960295 -2.14046 0
M  V30 5262 C 495.611 1.3529 -1.0942 0
M  V30 5263 O 496.787 1.43309 -1.41508 0
M  V30 5264 C 493.852 2.22214 -2.66124 0
M  V30 5265 C 492.913 1.8894 -3.85487 0
M  V30 5266 C 492.146 3.09109 -4.35072 0
M  V30 5267 O 492.369 4.21963 -3.83802 0
M  V30 5268 O 491.303 2.91058 -5.26848 0
M  V30 5269 H 495.129 0.509983 -2.99387 0
M  V30 5270 H 492.714 0.185853 -1.48239 0
M  V30 5271 H 494.596 2.96279 -2.99661 0
M  V30 5272 H 493.271 2.66414 -1.83862 0
M  V30 5273 H 492.178 1.12241 -3.56865 0
M  V30 5274 H 493.511 1.49551 -4.6893 0
M  V30 5275 N 495.163 1.55791 0.238111 0
M  V30 5276 C 496.393 1.81834 0.980809 0
M  V30 5277 C 496.801 0.609741 1.79106 0
M  V30 5278 O 496.144 -0.431073 1.78571 0
M  V30 5279 C 496.206 3.01363 1.96011 0
M  V30 5280 C 495.87 4.37037 1.33597 0
M  V30 5281 C 496.867 5.14692 0.734063 0
M  V30 5282 C 494.552 4.83743 1.3527 0
M  V30 5283 C 496.546 6.37206 0.157208 0
M  V30 5284 C 494.233 6.06204 0.77199 0
M  V30 5285 C 495.231 6.82775 0.175282 0
M  V30 5286 O 494.919 8.02922 -0.396432 0
M  V30 5287 H 494.651 0.6088 0.293834 0
M  V30 5288 H 497.205 2.03702 0.263552 0
M  V30 5289 H 495.435 2.75273 2.71591 0
M  V30 5290 H 497.124 3.14422 2.56697 0
M  V30 5291 H 497.89 4.79722 0.713582 0
M  V30 5292 H 493.769 4.24129 1.80653 0
M  V30 5293 H 497.313 6.96915 -0.30917 0
M  V30 5294 H 493.21 6.4065 0.789828 0
M  V30 5295 H 493.978 8.17989 -0.289145 0
M  V30 5296 N 496.642 -0.504142 1.49319 0
M  V30 5297 C 497.889 -1.25846 1.58647 0
M  V30 5298 C 498.217 -1.92592 0.27177 0
M  V30 5299 O 497.472 -1.81167 -0.74007 0
M  V30 5300 C 497.771 -2.35021 2.69258 0
M  V30 5301 C 497.437 -1.85755 4.1086 0
M  V30 5302 C 496.099 -1.72038 4.49395 0
M  V30 5303 C 498.451 -1.48844 4.99495 0
M  V30 5304 C 495.779 -1.19783 5.74342 0
M  V30 5305 C 498.131 -0.980422 6.24956 0
M  V30 5306 C 496.795 -0.829622 6.62324 0
M  V30 5307 H 496.065 -0.460505 0.580531 0
M  V30 5308 H 498.712 -0.559716 1.83138 0
M  V30 5309 H 497.017 -3.10672 2.38726 0
M  V30 5310 H 498.714 -2.93083 2.73685 0
M  V30 5311 H 495.304 -1.9739 3.80441 0
M  V30 5312 H 499.488 -1.5829 4.70381 0
M  V30 5313 H 494.744 -1.06817 6.01997 0
M  V30 5314 H 498.918 -0.685608 6.93017 0
M  V30 5315 H 496.545 -0.42253 7.59025 0
M  V30 5316 N 498.12 -1.38341 -0.754957 0
M  V30 5317 C 499.368 -1.34208 -1.51105 0
M  V30 5318 C 499.689 0.0677634 -1.94882 0
M  V30 5319 O 498.959 1.01517 -1.67544 0
M  V30 5320 H 497.539 -0.493819 -0.560493 0
M  V30 5321 H 500.201 -1.73005 -0.897507 0
M  V30 5322 H 499.297 -1.99203 -2.4026 0
M  V30 5323 N 499.598 0.982988 -1.23187 0
M  V30 5324 C 501.009 1.53847 -1.05773 0
M  V30 5325 C 501.36 1.92568 0.375744 0
M  V30 5326 O 500.485 1.75783 1.26211 0
M  V30 5327 C 501.08 2.79567 -1.91384 0
M  V30 5328 C 499.639 3.31524 -1.78238 0
M  V30 5329 C 498.786 2.04534 -1.87246 0
M  V30 5330 H 501.737 0.802962 -1.36888 0
M  V30 5331 H 501.758 3.52317 -1.43711 0
M  V30 5332 H 501.27 2.51353 -2.95708 0
M  V30 5333 H 499.371 3.64623 -0.766875 0
M  V30 5334 H 499.484 4.01457 -2.61475 0
M  V30 5335 H 497.848 2.1855 -1.30797 0
M  V30 5336 H 498.631 1.78706 -2.9312 0
M  V30 5337 N 501.076 1.04316 1.18135 0
M  V30 5338 C 502.353 0.662166 1.84051 0
M  V30 5339 C 502.733 -0.858169 1.9287 0
M  V30 5340 O 502.081 -1.76062 1.45652 0
M  V30 5341 C 502.291 1.3409 3.22212 0
M  V30 5342 C 503.639 1.4733 3.9822 0
M  V30 5343 O 504.663 1.29921 3.31661 0
M  V30 5344 O 503.522 1.75722 5.17479 0
M  V30 5345 H 500.616 0.232005 0.79379 0
M  V30 5346 H 503.162 1.1422 1.25506 0
M  V30 5347 H 501.934 2.37853 3.10711 0
M  V30 5348 H 501.557 0.849649 3.88416 0
M  V30 5349 N 502.554 -1.34406 0.822964 0
M  V30 5350 C 503.801 -1.98284 0.411057 0
M  V30 5351 C 504.129 -1.65245 -1.02588 0
M  V30 5352 O 503.384 -0.91619 -1.72929 0
M  V30 5353 C 503.683 -3.52981 0.560268 0
M  V30 5354 C 503.349 -4.05931 1.96293 0
M  V30 5355 C 502.011 -4.20103 2.34664 0
M  V30 5356 C 504.363 -4.34412 2.87985 0
M  V30 5357 C 501.691 -4.60082 3.64062 0
M  V30 5358 C 504.043 -4.75838 4.16847 0
M  V30 5359 C 502.707 -4.88215 4.55195 0
M  V30 5360 H 501.977 -0.725573 0.150416 0
M  V30 5361 H 504.624 -1.60349 1.04692 0
M  V30 5362 H 502.929 -3.91477 -0.158982 0
M  V30 5363 H 504.626 -4.00385 0.222087 0
M  V30 5364 H 501.216 -3.95363 1.65487 0
M  V30 5365 H 505.4 -4.23001 2.59584 0
M  V30 5366 H 500.656 -4.67856 3.93599 0
M  V30 5367 H 504.83 -4.96834 4.87984 0
M  V30 5368 H 502.457 -5.18952 5.55512 0
M  V30 5369 N 504.032 -0.577932 -1.46621 0
M  V30 5370 C 504.979 0.158048 -2.30258 0
M  V30 5371 C 505.949 0.888669 -1.40328 0
M  V30 5372 O 507.134 0.880283 -1.6928 0
M  V30 5373 C 504.274 1.16884 -3.24703 0
M  V30 5374 C 503.387 0.442163 -4.29731 0
M  V30 5375 C 502.522 1.44007 -5.11308 0
M  V30 5376 C 501.561 0.69952 -6.0809 0
M  V30 5377 N 500.698 1.64525 -6.82551 0
M  V30 5378 H 505.538 -0.561242 -2.92667 0
M  V30 5379 H 503.075 -0.288591 -1.44241 0
M  V30 5380 H 505.033 1.7677 -3.779 0
M  V30 5381 H 503.663 1.85591 -2.64113 0
M  V30 5382 H 502.715 -0.271632 -3.79429 0
M  V30 5383 H 504.027 -0.136992 -4.98612 0
M  V30 5384 H 503.181 2.11186 -5.68758 0
M  V30 5385 H 501.92 2.05315 -4.42377 0
M  V30 5386 H 500.925 0.0139217 -5.49798 0
M  V30 5387 H 502.15 0.091894 -6.79038 0
M  V30 5388 H 500.096 2.24653 -6.16334 0
M  V30 5389 H 500.013 1.11878 -7.47676 0
M  V30 5390 H 501.281 2.30754 -7.44562 0
M  V30 5391 N 505.51 1.54411 -0.315457 0
M  V30 5392 C 506.44 2.27002 0.547039 0
M  V30 5393 C 507.421 1.27492 1.12605 0
M  V30 5394 O 508.606 1.5629 1.15269 0
M  V30 5395 C 505.736 3.02171 1.71201 0
M  V30 5396 C 504.69 4.0895 1.26268 0
M  V30 5397 C 504.016 4.71915 2.51396 0
M  V30 5398 C 505.316 5.20891 0.383419 0
M  V30 5399 H 507.01 2.99343 -0.0584517 0
M  V30 5400 H 504.556 1.4397 -0.0295527 0
M  V30 5401 H 506.509 3.51681 2.32161 0
M  V30 5402 H 505.233 2.27433 2.34397 0
M  V30 5403 H 503.892 3.60312 0.676062 0
M  V30 5404 H 503.54 3.93801 3.12937 0
M  V30 5405 H 503.24 5.44039 2.22026 0
M  V30 5406 H 504.764 5.24195 3.13133 0
M  V30 5407 H 506.178 5.66206 0.899082 0
M  V30 5408 H 504.575 5.99821 0.182857 0
M  V30 5409 H 505.645 4.81324 -0.587821 0
M  V30 5410 N 506.988 0.0434614 1.5754 0
M  V30 5411 C 507.938 -0.943039 2.07583 0
M  V30 5412 C 508.922 -1.27662 0.979342 0
M  V30 5413 O 510.114 -1.26034 1.24276 0
M  V30 5414 C 507.243 -2.22056 2.61813 0
M  V30 5415 C 506.329 -1.91471 3.78417 0
M  V30 5416 N 506.72 -1.31214 4.88484 0
M  V30 5417 C 505.018 -2.21384 3.87176 0
M  V30 5418 C 505.719 -1.18084 5.69588 0
M  V30 5419 N 504.695 -1.68116 5.16951 0
M  V30 5420 H 508.497 -0.472354 2.90079 0
M  V30 5421 H 506.011 -0.161191 1.61598 0
M  V30 5422 H 508.008 -2.93618 2.95963 0
M  V30 5423 H 506.668 -2.69738 1.80752 0
M  V30 5424 H 507.679 -0.985318 5.08441 0
M  V30 5425 H 504.356 -2.7164 3.17046 0
M  V30 5426 H 505.746 -0.713684 6.68099 0
M  V30 5427 N 508.466 -1.55915 -0.229846 0
M  V30 5428 C 509.715 -1.77742 -0.953455 0
M  V30 5429 C 510.028 -0.610524 -1.85828 0
M  V30 5430 O 511.234 -0.712219 -2.61992 0
M  V30 5431 C 509.69 -3.14738 -1.74551 0
M  V30 5432 C 509.298 -4.39126 -0.887242 0
M  V30 5433 C 511.042 -3.45895 -2.46084 0
M  V30 5434 C 508.949 -5.67149 -1.67617 0
M  V30 5435 H 507.879 -0.662648 -0.359741 0
M  V30 5436 H 510.53 -1.82322 -0.207576 0
M  V30 5437 H 508.912 -3.04311 -2.53399 0
M  V30 5438 H 510.086 -4.60588 -0.139892 0
M  V30 5439 H 508.401 -4.15427 -0.284443 0
M  V30 5440 H 510.998 -4.38767 -3.05594 0
M  V30 5441 H 511.341 -2.68007 -3.18556 0
M  V30 5442 H 511.874 -3.57614 -1.74233 0
M  V30 5443 H 508.613 -6.47906 -0.994881 0
M  V30 5444 H 508.133 -5.49763 -2.39836 0
M  V30 5445 H 509.812 -6.07025 -2.23898 0
M  V30 5446 N 509.944 0.496216 -1.49584 0
M  V30 5447 C 511.169 1.27865 -1.63295 0
M  V30 5448 C 511.594 1.85592 -0.306156 0
M  V30 5449 O 510.952 1.66092 0.726851 0
M  V30 5450 C 511 2.38128 -2.7079 0
M  V30 5451 O 510.104 3.42108 -2.30296 0
M  V30 5452 H 509.445 0.377279 -0.546403 0
M  V30 5453 H 511.975 0.593497 -1.95803 0
M  V30 5454 H 511.985 2.8382 -2.93104 0
M  V30 5455 H 510.66 1.95479 -3.67098 0
M  V30 5456 H 509.237 3.02301 -2.18331 0
M  V30 5457 N 511.423 1.38739 0.74761 0
M  V30 5458 C 512.834 1.31507 1.32524 0
M  V30 5459 C 513.185 -0.0263963 1.96182 0
M  V30 5460 O 512.31 -0.92849 1.95469 0
M  V30 5461 C 512.905 2.38162 2.40966 0
M  V30 5462 C 511.464 2.34489 2.94434 0
M  V30 5463 C 510.611 2.20712 1.67873 0
M  V30 5464 H 513.562 1.4901 0.546043 0
M  V30 5465 H 513.583 2.04222 3.21051 0
M  V30 5466 H 513.095 3.35783 1.94605 0
M  V30 5467 H 511.196 1.40467 3.45108 0
M  V30 5468 H 511.309 3.28861 3.48407 0
M  V30 5469 H 509.673 1.67667 1.91729 0
M  V30 5470 H 510.456 3.20285 1.23582 0
M  V30 5471 N 512.901 -0.976442 1.23707 0
M  V30 5472 C 514.126 -1.75875 1.09922 0
M  V30 5473 C 514.551 -1.84911 -0.34489 0
M  V30 5474 O 513.909 -1.31363 -1.24954 0
M  V30 5475 C 513.957 -3.16179 1.73388 0
M  V30 5476 O 513.061 -4.00124 0.99871 0
M  V30 5477 H 512.402 -0.540954 0.385052 0
M  V30 5478 H 514.932 -1.22546 1.6384 0
M  V30 5479 H 514.942 -3.66741 1.78788 0
M  V30 5480 H 513.617 -3.08917 2.78466 0
M  V30 5481 H 512.194 -3.58624 1.02193 0
M  V30 5482 N 514.379 -1.04941 -1.1758 0
M  V30 5483 C 515.327 -0.64204 -2.23563 0
M  V30 5484 C 516.321 0.335453 -1.66045 0
M  V30 5485 O 517.527 0.20179 -1.78865 0
M  V30 5486 H 513.902 -0.18944 -0.727748 0
M  V30 5487 H 515.873 -1.54609 -2.55223 0
M  V30 5488 C 514.622 -0.0301051 -3.47687 0
M  V30 5489 H 513.945 -0.773339 -3.92249 0
M  V30 5490 H 515.385 0.217592 -4.23441 0
M  V30 5491 C 513.844 1.2225 -3.13937 0
M  V30 5492 O 514.374 2.3122 -3.28482 0
M  V30 5493 N 512.58 1.11917 -2.68185 0
M  V30 5494 H 512.127 0.232403 -2.5655 0
M  V30 5495 H 512.085 1.95814 -2.45976 0
M  V30 5496 N 515.857 1.33968 -0.830081 0
M  V30 5497 C 516.79 2.27303 -0.202182 0
M  V30 5498 C 517.768 1.49235 0.645581 0
M  V30 5499 O 518.952 1.78433 0.607762 0
M  V30 5500 C 516.079 3.31025 0.716932 0
M  V30 5501 C 515.125 4.26466 -0.0542271 0
M  V30 5502 S 515.958 5.16707 -1.40622 0
M  V30 5503 C 517.114 6.23962 -0.492167 0
M  V30 5504 H 517.347 2.8021 -0.99346 0
M  V30 5505 H 514.88 1.41124 -0.626359 0
M  V30 5506 H 516.838 3.91271 1.24165 0
M  V30 5507 H 515.499 2.76951 1.4818 0
M  V30 5508 H 514.692 4.99858 0.644785 0
M  V30 5509 H 514.294 3.7051 -0.509722 0
M  V30 5510 H 516.586 6.76774 0.31347 0
M  V30 5511 H 517.529 6.97927 -1.19599 0
M  V30 5512 H 517.937 5.64447 -0.0774176 0
M  V30 5513 N 517.335 0.585699 1.46312 0
M  V30 5514 C 518.563 0.0781299 2.06752 0
M  V30 5515 C 518.978 -1.22812 1.43396 0
M  V30 5516 O 518.335 -1.74318 0.540314 0
M  V30 5517 C 518.386 -0.0911927 3.61385 0
M  V30 5518 O 518.107 1.16336 4.22371 0
M  V30 5519 C 519.608 -0.632765 4.38761 0
M  V30 5520 H 516.828 0.0588188 0.668417 0
M  V30 5521 H 519.372 0.807218 1.87894 0
M  V30 5522 H 517.527 -0.770514 3.7966 0
M  V30 5523 H 517.941 0.979082 5.15281 0
M  V30 5524 H 519.415 -0.70041 5.47538 0
M  V30 5525 H 519.892 -1.65039 4.07012 0
M  V30 5526 H 520.498 0.0117856 4.25298 0
M  V30 5527 N 518.813 -1.54241 0.323641 0
M  V30 5528 C 519.761 -2.25813 -0.557804 0
M  V30 5529 C 520.755 -1.27225 -1.11849 0
M  V30 5530 O 521.961 -1.45001 -1.06652 0
M  V30 5531 H 518.336 -0.72532 -0.198532 0
M  V30 5532 H 520.307 -2.98322 0.0681112 0
M  V30 5533 C 519.056 -3.02913 -1.70701 0
M  V30 5534 H 518.379 -3.78593 -1.28482 0
M  V30 5535 H 519.819 -3.56238 -2.29935 0
M  V30 5536 C 518.278 -2.11217 -2.62467 0
M  V30 5537 O 518.808 -1.69508 -3.64184 0
M  V30 5538 N 517.014 -1.76704 -2.30703 0
M  V30 5539 H 516.561 -2.1082 -1.48029 0
M  V30 5540 H 516.519 -1.15631 -2.92364 0
M  V30 5541 N 520.291 -0.0518155 -1.57515 0
M  V30 5542 C 521.223 0.951542 -2.08515 0
M  V30 5543 C 522.236 1.27436 -1.01311 0
M  V30 5544 O 523.425 1.23504 -1.28876 0
M  V30 5545 C 520.525 2.27291 -2.5138 0
M  V30 5546 C 519.698 2.13191 -3.81927 0
M  V30 5547 C 518.757 3.28458 -4.11098 0
M  V30 5548 O 517.783 3.04334 -4.81009 0
M  V30 5549 N 518.985 4.52954 -3.63061 0
M  V30 5550 H 521.75 0.516242 -2.9522 0
M  V30 5551 H 519.311 0.13441 -1.61341 0
M  V30 5552 H 521.303 3.03272 -2.67971 0
M  V30 5553 H 519.873 2.62386 -1.69919 0
M  V30 5554 H 519.093 1.21798 -3.74912 0
M  V30 5555 H 520.381 2.00999 -4.67415 0
M  V30 5556 H 519.779 4.75444 -3.06545 0
M  V30 5557 H 518.336 5.26026 -3.84889 0
M  V30 5558 N 521.769 1.56035 0.221574 0
M  V30 5559 C 522.717 1.93269 1.29421 0
M  V30 5560 C 523.711 0.814727 1.48521 0
M  V30 5561 O 524.917 0.999559 1.49696 0
M  V30 5562 H 521.292 0.614188 0.43391 0
M  V30 5563 H 523.263 2.82773 0.952987 0
M  V30 5564 C 522.012 2.26573 2.63742 0
M  V30 5565 H 521.335 3.12112 2.49853 0
M  V30 5566 H 522.775 2.5651 3.37607 0
M  V30 5567 C 521.234 1.09086 3.1875 0
M  V30 5568 O 521.764 0.351985 4.00155 0
M  V30 5569 N 519.97 0.874693 2.77124 0
M  V30 5570 H 519.517 1.47726 2.11033 0
M  V30 5571 H 519.475 0.0903349 3.1427 0
M  V30 5572 N 523.247 -0.488276 1.49845 0
M  V30 5573 C 524.475 -1.26527 1.63702 0
M  V30 5574 C 524.89 -1.8618 0.313447 0
M  V30 5575 O 524.247 -1.68432 -0.702624 0
M  V30 5576 C 524.298 -2.3864 2.71538 0
M  V30 5577 O 524.019 -1.81437 3.98763 0
M  V30 5578 C 525.52 -3.29805 2.96215 0
M  V30 5579 H 522.74 -0.383295 0.55075 0
M  V30 5580 H 525.284 -0.584779 1.95961 0
M  V30 5581 H 523.439 -3.02496 2.42023 0
M  V30 5582 H 523.853 -2.55135 4.58265 0
M  V30 5583 H 525.327 -4.04722 3.75372 0
M  V30 5584 H 525.804 -3.87563 2.06619 0
M  V30 5585 H 526.41 -2.71703 3.27196 0
M  V30 5586 N 524.725 -1.39134 -0.740242 0
M  V30 5587 C 525.673 -1.3757 -1.87556 0
M  V30 5588 C 526.667 -0.259593 -1.67399 0
M  V30 5589 O 527.873 -0.429349 -1.74804 0
M  V30 5590 H 524.248 -0.42947 -0.6173 0
M  V30 5591 H 526.219 -2.33345 -1.85991 0
M  V30 5592 C 524.968 -1.23087 -3.25184 0
M  V30 5593 H 524.291 -2.08237 -3.41288 0
M  V30 5594 H 525.731 -1.26049 -4.0483 0
M  V30 5595 C 524.19 0.0611471 -3.36845 0
M  V30 5596 O 524.72 1.03328 -3.88183 0
M  V30 5597 N 522.926 0.122454 -2.90342 0
M  V30 5598 H 522.473 -0.669329 -2.48752 0
M  V30 5599 H 522.431 0.986463 -2.98523 0
M  V30 5600 N 526.204 0.969867 -1.24223 0
M  V30 5601 C 527.114 2.09806 -1.0497 0
M  V30 5602 C 528.13 1.73998 0.00886455 0
M  V30 5603 O 529.306 2.00513 -0.188848 0
M  V30 5604 C 526.371 3.40467 -0.654452 0
M  V30 5605 C 525.432 3.90236 -1.78926 0
M  V30 5606 C 524.665 5.14662 -1.41277 0
M  V30 5607 O 524.888 5.69602 -0.301632 0
M  V30 5608 O 523.822 5.58761 -2.23763 0
M  V30 5609 H 527.648 2.28942 -1.99548 0
M  V30 5610 H 525.233 1.08197 -1.03023 0
M  V30 5611 H 527.115 4.19039 -0.445452 0
M  V30 5612 H 525.79 3.22636 0.262216 0
M  V30 5613 H 524.697 3.12735 -2.05299 0
M  V30 5614 H 526.03 4.1254 -2.68462 0
M  V30 5615 N 527.682 1.05563 1.17022 0
M  V30 5616 C 528.912 0.787307 1.91011 0
M  V30 5617 C 529.32 -0.661256 1.77268 0
M  V30 5618 O 528.663 -1.46379 1.10991 0
M  V30 5619 C 528.725 1.09313 3.42478 0
M  V30 5620 C 528.389 2.53863 3.80004 0
M  V30 5621 C 529.386 3.52081 3.82538 0
M  V30 5622 C 527.071 2.88969 4.10855 0
M  V30 5623 C 529.065 4.83449 4.15399 0
M  V30 5624 C 526.752 4.2054 4.43384 0
M  V30 5625 C 527.75 5.17589 4.45635 0
M  V30 5626 O 527.438 6.46799 4.77395 0
M  V30 5627 H 527.17 0.285463 0.61277 0
M  V30 5628 H 529.724 1.41051 1.49311 0
M  V30 5629 H 527.954 0.412833 3.8449 0
M  V30 5630 H 529.643 0.810224 3.97731 0
M  V30 5631 H 530.409 3.26299 3.58823 0
M  V30 5632 H 526.288 2.1409 4.08272 0
M  V30 5633 H 529.832 5.59194 4.1707 0
M  V30 5634 H 525.729 4.46083 4.66563 0
M  V30 5635 H 526.497 6.51677 4.95237 0
M  V30 5636 N 529.16 -1.33526 0.837174 0
M  V30 5637 C 530.09 -2.31764 0.284206 0
M  V30 5638 C 531.071 -1.58896 -0.607142 0
M  V30 5639 O 532.256 -1.86798 -0.531047 0
M  V30 5640 C 529.386 -3.43029 -0.542962 0
M  V30 5641 C 528.34 -4.27255 0.252451 0
M  V30 5642 C 527.666 -5.3012 -0.69836 0
M  V30 5643 C 528.966 -5.01229 1.46858 0
M  V30 5644 H 530.66 -2.78262 1.10502 0
M  V30 5645 H 528.206 -1.3378 0.532812 0
M  V30 5646 H 530.159 -4.1078 -0.940096 0
M  V30 5647 H 528.883 -2.95216 -1.39697 0
M  V30 5648 H 527.542 -3.61127 0.631124 0
M  V30 5649 H 527.19 -4.78564 -1.54872 0
M  V30 5650 H 526.89 -5.87353 -0.170274 0
M  V30 5651 H 528.414 -6.00737 -1.09305 0
M  V30 5652 H 529.828 -5.61756 1.14469 0
M  V30 5653 H 528.225 -5.68104 1.93333 0
M  V30 5654 H 529.295 -4.301 2.23924 0
M  V30 5655 N 530.638 -0.59345 -1.46 0
M  V30 5656 C 531.548 0.135817 -2.34207 0
M  V30 5657 C 532.564 0.875008 -1.50398 0
M  V30 5658 O 533.74 0.835778 -1.83239 0
M  V30 5659 C 530.805 1.12977 -3.27776 0
M  V30 5660 C 529.866 0.394081 -4.27487 0
M  V30 5661 C 529.099 1.34068 -5.16586 0
M  V30 5662 O 529.322 2.5778 -5.08828 0
M  V30 5663 O 528.256 0.845426 -5.95933 0
M  V30 5664 H 532.082 -0.588691 -2.9794 0
M  V30 5665 H 529.667 -0.353784 -1.45151 0
M  V30 5666 H 531.549 1.70261 -3.85473 0
M  V30 5667 H 530.224 1.83556 -2.66625 0
M  V30 5668 H 529.131 -0.220869 -3.73447 0
M  V30 5669 H 530.464 -0.270939 -4.91454 0
M  V30 5670 N 532.116 1.54067 -0.331816 0
M  V30 5671 C 533.063 2.24623 0.530372 0
M  V30 5672 C 534.033 1.24009 1.10503 0
M  V30 5673 O 535.218 1.52712 1.14384 0
M  V30 5674 C 532.358 3.01374 1.68129 0
M  V30 5675 C 531.471 4.16821 1.13507 0
M  V30 5676 C 530.606 4.81085 2.25234 0
M  V30 5677 C 529.645 5.88621 1.67903 0
M  V30 5678 N 528.782 6.46713 2.73326 0
M  V30 5679 H 533.622 2.97898 -0.0778607 0
M  V30 5680 H 531.159 1.47014 -0.0501965 0
M  V30 5681 H 533.117 3.44125 2.35868 0
M  V30 5682 H 531.747 2.30419 2.26069 0
M  V30 5683 H 530.799 3.78796 0.348979 0
M  V30 5684 H 532.111 4.94203 0.675633 0
M  V30 5685 H 531.265 5.26846 3.00862 0
M  V30 5686 H 530.004 4.03102 2.74518 0
M  V30 5687 H 529.009 5.42254 0.907773 0
M  V30 5688 H 530.234 6.68506 1.19487 0
M  V30 5689 H 528.18 5.71599 3.21886 0
M  V30 5690 H 528.097 7.19532 2.3197 0
M  V30 5691 H 529.365 6.97129 3.48758 0
M  V30 5692 N 533.594 0.0601682 1.57485 0
M  V30 5693 C 534.843 -0.611101 1.9222 0
M  V30 5694 C 535.156 -1.71469 0.941159 0
M  V30 5695 O 536.362 -2.44473 1.18089 0
M  V30 5696 C 534.818 -1.13832 3.41424 0
M  V30 5697 C 534.426 -0.0663596 4.47951 0
M  V30 5698 C 536.17 -1.78432 3.85178 0
M  V30 5699 C 534.077 -0.606965 5.88277 0
M  V30 5700 H 533.007 -0.232033 0.71741 0
M  V30 5701 H 535.658 0.130518 1.83035 0
M  V30 5702 H 534.04 -1.93254 3.45643 0
M  V30 5703 H 535.214 0.707682 4.55333 0
M  V30 5704 H 533.529 0.482715 4.13593 0
M  V30 5705 H 536.126 -2.1989 4.87394 0
M  V30 5706 H 536.469 -2.63966 3.21913 0
M  V30 5707 H 537.002 -1.05651 3.83514 0
M  V30 5708 H 533.741 0.21095 6.5516 0
M  V30 5709 H 533.261 -1.34879 5.84438 0
M  V30 5710 H 534.94 -1.08704 6.37803 0
M  V30 5711 N 535.072 -1.5615 -0.213296 0
M  V30 5712 C 536.019 -1.93086 -1.26437 0
M  V30 5713 C 536.989 -0.789086 -1.4616 0
M  V30 5714 O 538.174 -1.04569 -1.59593 0
M  V30 5715 C 535.314 -2.26003 -2.608 0
M  V30 5716 C 534.427 -3.53156 -2.48807 0
M  V30 5717 C 533.562 -3.7548 -3.7575 0
M  V30 5718 C 532.601 -4.96119 -3.58514 0
M  V30 5719 N 531.738 -5.14791 -4.77425 0
M  V30 5720 H 536.578 -2.82707 -0.942376 0
M  V30 5721 H 534.115 -1.39919 -0.454001 0
M  V30 5722 H 536.073 -2.431 -3.39055 0
M  V30 5723 H 534.703 -1.39546 -2.91079 0
M  V30 5724 H 533.755 -3.44207 -1.61944 0
M  V30 5725 H 535.067 -4.41565 -2.31996 0
M  V30 5726 H 534.221 -3.92718 -4.62447 0
M  V30 5727 H 532.96 -2.85368 -3.95495 0
M  V30 5728 H 531.965 -4.78823 -2.70201 0
M  V30 5729 H 533.19 -5.87724 -3.40231 0
M  V30 5730 H 531.136 -4.27623 -4.97468 0
M  V30 5731 H 531.053 -5.97347 -4.63371 0
M  V30 5732 H 532.321 -5.36471 -5.65525 0
M  V30 5733 N 536.55 0.480323 -1.50102 0
M  V30 5734 C 537.482 1.59669 -1.64433 0
M  V30 5735 C 538.495 1.54063 -0.52615 0
M  V30 5736 O 539.684 1.59619 -0.798992 0
M  V30 5737 C 536.784 2.98527 -1.6042 0
M  V30 5738 C 535.957 3.291 -2.88117 0
M  V30 5739 C 535.016 4.47468 -2.76873 0
M  V30 5740 O 534.042 4.4823 -3.50825 0
M  V30 5741 N 535.244 5.48593 -1.89806 0
M  V30 5742 H 538.009 1.47795 -2.60723 0
M  V30 5743 H 535.57 0.66858 -1.4745 0
M  V30 5744 H 537.562 3.75666 -1.50523 0
M  V30 5745 H 536.132 3.04218 -0.719036 0
M  V30 5746 H 535.352 2.40662 -3.12211 0
M  V30 5747 H 536.64 3.46334 -3.72734 0
M  V30 5748 H 536.038 5.50791 -1.2902 0
M  V30 5749 H 534.595 6.24752 -1.85819 0
M  V30 5750 N 538.028 1.39524 0.732853 0
M  V30 5751 C 539.444 1.21176 1.03868 0
M  V30 5752 C 539.644 0.0748448 2.01361 0
M  V30 5753 O 538.7 -0.57281 2.45917 0
M  V30 5754 C 540.013 2.54667 1.59892 0
M  V30 5755 C 541.561 2.6153 1.71962 0
M  V30 5756 C 542.036 3.95248 2.31394 0
M  V30 5757 N 543.527 3.96899 2.38801 0
M  V30 5758 C 544.262 4.97138 2.85729 0
M  V30 5759 N 543.758 6.07775 3.32537 0
M  V30 5760 N 545.551 4.84516 2.84957 0
M  V30 5761 H 537.702 2.12225 0.086304 0
M  V30 5762 H 539.965 0.942614 0.100907 0
M  V30 5763 H 539.671 3.38423 0.95721 0
M  V30 5764 H 539.545 2.74538 2.58668 0
M  V30 5765 H 541.932 1.78156 2.35254 0
M  V30 5766 H 542.013 2.45507 0.718327 0
M  V30 5767 H 541.657 4.79054 1.68729 0
M  V30 5768 H 541.587 4.08593 3.32204 0
M  V30 5769 H 544.078 3.16998 2.05719 0
M  V30 5770 H 544.391 6.8017 3.66862 0
M  V30 5771 H 542.736 6.11366 3.30541 0
M  V30 5772 H 545.927 3.97185 2.47713 0
M  V30 5773 H 546.1 5.62783 3.21215 0
M  V30 5774 N 539.506 -0.963266 1.24736 0
M  V30 5775 C 540.436 -2.07628 1.06832 0
M  V30 5776 C 541.417 -1.70088 -0.0200566 0
M  V30 5777 O 542.602 -1.93636 0.147854 0
M  V30 5778 C 539.732 -3.40636 0.677069 0
M  V30 5779 C 538.686 -3.9215 1.71471 0
M  V30 5780 C 538.012 -5.21553 1.1784 0
M  V30 5781 C 539.312 -4.19493 3.11164 0
M  V30 5782 H 541.006 -2.22864 1.9993 0
M  V30 5783 H 538.552 -1.07093 0.96266 0
M  V30 5784 H 540.505 -4.17941 0.538792 0
M  V30 5785 H 539.229 -3.25313 -0.289612 0
M  V30 5786 H 537.888 -3.17005 1.84128 0
M  V30 5787 H 537.536 -5.02593 0.202195 0
M  V30 5788 H 537.236 -5.56988 1.87185 0
M  V30 5789 H 538.76 -6.01463 1.05233 0
M  V30 5790 H 540.174 -4.87487 3.01711 0
M  V30 5791 H 538.571 -4.66165 3.77902 0
M  V30 5792 H 539.641 -3.26097 3.58871 0
M  V30 5793 N 540.985 -1.06182 -1.16461 0
M  V30 5794 C 542.232 -0.777863 -1.86964 0
M  V30 5795 C 542.56 0.695602 -1.81636 0
M  V30 5796 O 541.815 1.52532 -1.22607 0
M  V30 5797 C 542.114 -1.21633 -3.36066 0
M  V30 5798 C 541.78 -2.69371 -3.61594 0
M  V30 5799 C 540.442 -3.09727 -3.6827 0
M  V30 5800 C 542.794 -3.64791 -3.7226 0
M  V30 5801 C 540.122 -4.44345 -3.83112 0
M  V30 5802 C 542.474 -4.99155 -3.88623 0
M  V30 5803 C 541.138 -5.39149 -3.93541 0
M  V30 5804 H 540.408 -0.28464 -0.68415 0
M  V30 5805 H 543.055 -1.33071 -1.37711 0
M  V30 5806 H 541.36 -0.582651 -3.87443 0
M  V30 5807 H 543.057 -0.973682 -3.88999 0
M  V30 5808 H 539.647 -2.37124 -3.57029 0
M  V30 5809 H 543.831 -3.34746 -3.66413 0
M  V30 5810 H 539.087 -4.74819 -3.85172 0
M  V30 5811 H 543.261 -5.72976 -3.95817 0
M  V30 5812 H 540.888 -6.43464 -4.04794 0
M  V30 5813 N 542.463 1.3308 -0.844243 0
M  V30 5814 C 543.373 2.32876 -0.283922 0
M  V30 5815 C 544.389 1.63589 0.592846 0
M  V30 5816 O 545.565 1.95205 0.495693 0
M  V30 5817 C 542.63 3.42667 0.527283 0
M  V30 5818 C 541.691 4.27664 -0.374394 0
M  V30 5819 C 540.924 5.32212 0.39819 0
M  V30 5820 O 541.147 5.46635 1.62932 0
M  V30 5821 O 540.081 6.01458 -0.2306 0
M  V30 5822 H 543.907 2.82671 -1.11045 0
M  V30 5823 H 541.492 1.36518 -0.606903 0
M  V30 5824 H 543.374 4.09652 0.988078 0
M  V30 5825 H 542.049 2.95079 1.33078 0
M  V30 5826 H 540.956 3.63526 -0.883144 0
M  V30 5827 H 542.289 4.78749 -1.1428 0
M  V30 5828 N 543.941 0.601185 1.45683 0
M  V30 5829 C 544.889 -0.133955 2.32214 0
M  V30 5830 C 545.883 -0.866034 1.45589 0
M  V30 5831 O 547.089 -0.782326 1.6211 0
M  V30 5832 H 543.464 -0.0620613 0.749435 0
M  V30 5833 H 545.435 0.614389 2.92007 0
M  V30 5834 C 544.184 -1.12216 3.29094 0
M  V30 5835 H 543.507 -0.568273 3.95741 0
M  V30 5836 H 544.947 -1.60659 3.92383 0
M  V30 5837 C 543.406 -2.19251 2.55794 0
M  V30 5838 O 543.936 -3.26894 2.33459 0
M  V30 5839 N 542.142 -1.9436 2.16039 0
M  V30 5840 H 541.689 -1.06829 2.34404 0
M  V30 5841 H 541.647 -2.66181 1.67318 0
M  V30 5842 N 545.419 -1.53889 0.339982 0
M  V30 5843 C 546.349 -2.27843 -0.510856 0
M  V30 5844 C 547.33 -1.29267 -1.10563 0
M  V30 5845 O 548.515 -1.58104 -1.12768 0
M  V30 5846 C 545.645 -3.04857 -1.66372 0
M  V30 5847 C 544.599 -4.10907 -1.19746 0
M  V30 5848 C 543.925 -4.75855 -2.43857 0
M  V30 5849 C 545.225 -5.21435 -0.300501 0
M  V30 5850 H 546.919 -2.99212 0.106067 0
M  V30 5851 H 544.465 -1.43904 0.0524533 0
M  V30 5852 H 546.418 -3.5533 -2.26537 0
M  V30 5853 H 545.142 -2.31133 -2.30749 0
M  V30 5854 H 543.801 -3.61342 -0.618654 0
M  V30 5855 H 543.449 -3.9873 -3.06633 0
M  V30 5856 H 543.149 -5.47502 -2.13343 0
M  V30 5857 H 544.673 -5.2911 -3.04754 0
M  V30 5858 H 546.087 -5.67565 -0.80889 0
M  V30 5859 H 544.484 -6.00036 -0.0874076 0
M  V30 5860 H 545.554 -4.80328 0.664321 0
M  V30 5861 N 546.897 -0.0685191 -1.57451 0
M  V30 5862 C 548.313 0.288101 -1.56978 0
M  V30 5863 C 548.513 1.70262 -1.07765 0
M  V30 5864 O 547.569 2.4135 -0.742054 0
M  V30 5865 C 548.882 0.100745 -3.00531 0
M  V30 5866 C 550.43 0.170531 -3.12535 0
M  V30 5867 C 550.905 0.0114944 -4.57999 0
M  V30 5868 N 552.396 0.0672065 -4.63151 0
M  V30 5869 C 553.131 -0.0314813 -5.73391 0
M  V30 5870 N 552.627 -0.183503 -6.92557 0
M  V30 5871 N 554.42 0.0253489 -5.62094 0
M  V30 5872 H 546.571 -0.993026 -1.87757 0
M  V30 5873 H 548.834 -0.386981 -0.865419 0
M  V30 5874 H 548.54 -0.875197 -3.40636 0
M  V30 5875 H 548.414 0.854457 -3.67395 0
M  V30 5876 H 550.801 1.13696 -2.72318 0
M  V30 5877 H 550.882 -0.614229 -2.48316 0
M  V30 5878 H 550.526 -0.951684 -4.98904 0
M  V30 5879 H 550.456 0.815617 -5.20245 0
M  V30 5880 H 552.947 0.183246 -3.77455 0
M  V30 5881 H 553.26 -0.251041 -7.72392 0
M  V30 5882 H 551.605 -0.218822 -6.94655 0
M  V30 5883 H 554.796 0.142794 -4.67882 0
M  V30 5884 H 554.969 -0.0550166 -6.47977 0
M  V30 5885 N 548.375 1.56261 0.205012 0
M  V30 5886 C 549.308 1.88797 1.28183 0
M  V30 5887 C 550.286 0.747018 1.44424 0
M  V30 5888 O 551.47 0.997039 1.59973 0
M  V30 5889 C 548.597 2.10949 2.64987 0
M  V30 5890 C 547.643 3.33649 2.6567 0
M  V30 5891 S 548.476 4.89078 2.18088 0
M  V30 5892 C 549.632 5.14286 3.56736 0
M  V30 5893 H 549.865 2.79837 1.00393 0
M  V30 5894 H 547.398 1.48911 0.408042 0
M  V30 5895 H 549.356 2.24395 3.4374 0
M  V30 5896 H 548.017 1.20678 2.89993 0
M  V30 5897 H 547.21 3.46245 3.66239 0
M  V30 5898 H 546.812 3.19146 1.94992 0
M  V30 5899 H 549.104 5.04198 4.52537 0
M  V30 5900 H 550.047 6.16096 3.49043 0
M  V30 5901 H 550.455 4.41957 3.51189 0
M  V30 5902 N 549.853 -0.472356 1.50355 0
M  V30 5903 C 550.783 -1.57859 1.72055 0
M  V30 5904 C 551.764 -1.60283 0.569505 0
M  V30 5905 O 552.949 -1.7657 0.808503 0
M  V30 5906 C 550.079 -2.96191 1.81351 0
M  V30 5907 C 549.033 -3.08633 2.96529 0
M  V30 5908 C 548.359 -4.486 2.90968 0
M  V30 5909 C 549.659 -2.85969 4.37057 0
M  V30 5910 H 551.353 -1.39953 2.64676 0
M  V30 5911 H 548.899 -0.671846 1.27367 0
M  V30 5912 H 550.852 -3.73507 1.95117 0
M  V30 5913 H 549.576 -3.15251 0.853502 0
M  V30 5914 H 548.235 -2.33749 2.82413 0
M  V30 5915 H 547.883 -4.64577 1.92815 0
M  V30 5916 H 547.583 -4.57861 3.68289 0
M  V30 5917 H 549.107 -5.27938 3.0678 0
M  V30 5918 H 550.521 -3.53036 4.51706 0
M  V30 5919 H 548.918 -3.06677 5.15819 0
M  V30 5920 H 549.988 -1.81838 4.49514 0
M  V30 5921 N 551.331 -1.39911 -0.725443 0
M  V30 5922 C 552.742 -1.33599 -1.30415 0
M  V30 5923 C 553.093 -0.00481792 -1.96199 0
M  V30 5924 O 552.218 0.897275 -1.96921 0
M  V30 5925 C 552.813 -2.41965 -2.37146 0
M  V30 5926 C 551.372 -2.39144 -2.90667 0
M  V30 5927 C 550.519 -2.23355 -1.64341 0
M  V30 5928 H 553.47 -1.4986 -0.522267 0
M  V30 5929 H 553.491 -2.09304 -3.17761 0
M  V30 5930 H 553.003 -3.38837 -1.89238 0
M  V30 5931 H 551.104 -1.4594 -3.4283 0
M  V30 5932 H 551.217 -3.34362 -3.43131 0
M  V30 5933 H 549.581 -1.70696 -1.89037 0
M  V30 5934 H 550.364 -3.2221 -1.18471 0
M  V30 5935 N 552.809 0.956637 -1.25245 0
M  V30 5936 C 553.759 2.03841 -1.02141 0
M  V30 5937 C 554.743 1.60848 0.0410058 0
M  V30 5938 O 555.935 1.76142 -0.174084 0
M  V30 5939 C 553.064 3.37282 -0.639963 0
M  V30 5940 C 552.15 3.86805 -1.73903 0
M  V30 5941 N 552.541 4.09143 -2.97381 0
M  V30 5942 C 550.839 4.15574 -1.61909 0
M  V30 5943 C 551.54 4.49923 -3.68707 0
M  V30 5944 N 550.516 4.55737 -2.96318 0
M  V30 5945 H 554.318 2.19102 -1.95886 0
M  V30 5946 H 551.832 1.1413 -1.15534 0
M  V30 5947 H 553.829 4.14403 -0.455643 0
M  V30 5948 H 552.489 3.23401 0.29018 0
M  V30 5949 H 553.5 3.96275 -3.33447 0
M  V30 5950 H 550.177 4.10566 -0.757764 0
M  V30 5951 H 551.567 4.75526 -4.74684 0
M  V30 5952 N 554.287 1.06798 1.15896 0
M  V30 5953 C 555.25 0.687328 2.18651 0
M  V30 5954 C 556.25 -0.269559 1.58524 0
M  V30 5955 O 557.44 -0.0512627 1.74125 0
M  V30 5956 C 554.572 0.0121642 3.40898 0
M  V30 5957 H 555.765 1.59701 2.53842 0
M  V30 5958 H 553.318 0.863828 1.3026 0
M  V30 5959 H 554.053 -0.910025 3.1127 0
M  V30 5960 H 553.838 0.700309 3.85795 0
M  V30 5961 H 555.328 -0.239703 4.16911 0
M  V30 5962 N 555.766 -1.3263 0.851289 0
M  V30 5963 C 557.177 -1.79653 0.5081 0
M  V30 5964 C 557.528 -1.70327 -0.973815 0
M  V30 5965 O 556.653 -1.25986 -1.75944 0
M  V30 5966 C 557.248 -3.26196 0.915515 0
M  V30 5967 C 555.807 -3.71187 0.624277 0
M  V30 5968 C 554.954 -2.53804 1.11709 0
M  V30 5969 H 557.905 -1.19976 1.03882 0
M  V30 5970 H 557.926 -3.79801 0.230535 0
M  V30 5971 H 557.438 -3.32952 1.99411 0
M  V30 5972 H 555.539 -3.69948 -0.443737 0
M  V30 5973 H 555.652 -4.64132 1.18821 0
M  V30 5974 H 554.016 -2.48964 0.537484 0
M  V30 5975 H 554.799 -2.63315 2.20272 0
M  V30 5976 N 557.244 -0.608902 -1.45362 0
M  V30 5977 C 558.492 -0.104401 -2.0183 0
M  V30 5978 C 558.813 1.27007 -1.47967 0
M  V30 5979 O 558.083 1.83924 -0.674455 0
M  V30 5980 H 556.663 -0.0356042 -0.746151 0
M  V30 5981 H 559.325 -0.790596 -1.78145 0
M  V30 5982 H 558.421 -0.0551793 -3.12051 0
M  V30 5983 N 558.722 1.53707 -0.348139 0
M  V30 5984 C 559.968 2.01286 0.247332 0
M  V30 5985 C 560.301 1.23546 1.49834 0
M  V30 5986 O 559.576 0.324331 1.91777 0
M  V30 5987 C 559.859 3.55768 0.556858 0
M  V30 5988 C 559.712 4.44216 -0.706564 0
M  V30 5989 C 561.031 4.1841 1.3646 0
M  V30 5990 H 558.15 0.731677 0.0884201 0
M  V30 5991 H 560.792 1.84106 -0.469584 0
M  V30 5992 H 558.942 3.70539 1.16761 0
M  V30 5993 H 560.614 4.41274 -1.34444 0
M  V30 5994 H 558.857 4.12892 -1.33052 0
M  V30 5995 H 559.528 5.50202 -0.445186 0
M  V30 5996 H 562.004 4.07365 0.848113 0
M  V30 5997 H 560.88 5.26563 1.54992 0
M  V30 5998 H 561.141 3.7333 2.36805 0
M  V30 5999 N 560.2 0.0768682 1.57412 0
M  V30 6000 C 561.132 -0.918248 2.10002 0
M  V30 6001 C 562.145 -1.25808 1.03325 0
M  V30 6002 O 563.334 -1.21438 1.30824 0
M  V30 6003 C 560.434 -2.23263 2.54964 0
M  V30 6004 C 559.607 -2.07088 3.8527 0
M  V30 6005 C 558.666 -3.21876 4.16272 0
M  V30 6006 O 557.692 -2.96643 4.8579 0
M  V30 6007 N 558.894 -4.4712 3.70221 0
M  V30 6008 H 561.659 -0.469209 2.96004 0
M  V30 6009 H 559.22 -0.108725 1.61535 0
M  V30 6010 H 561.212 -2.9897 2.72762 0
M  V30 6011 H 559.782 -2.59649 1.74072 0
M  V30 6012 H 559.002 -1.15818 3.76802 0
M  V30 6013 H 560.29 -1.93537 4.70554 0
M  V30 6014 H 559.688 -4.70506 3.1407 0
M  V30 6015 H 558.245 -5.19837 3.93209 0
M  V30 6016 N 561.678 -1.56367 -0.196722 0
M  V30 6017 C 562.611 -1.89475 -1.2718 0
M  V30 6018 C 563.589 -0.754667 -1.44026 0
M  V30 6019 O 564.773 -1.00551 -1.59442 0
M  V30 6020 C 561.9 -2.12352 -2.63864 0
M  V30 6021 C 560.946 -3.35053 -2.63897 0
M  V30 6022 S 561.779 -4.90228 -2.15492 0
M  V30 6023 C 562.935 -5.16171 -3.54004 0
M  V30 6024 H 563.168 -2.80365 -0.989075 0
M  V30 6025 H 560.701 -1.49125 -0.40014 0
M  V30 6026 H 562.659 -2.26214 -3.42545 0
M  V30 6027 H 561.32 -1.22214 -2.89349 0
M  V30 6028 H 560.513 -3.48182 -3.64397 0
M  V30 6029 H 560.115 -3.20176 -1.93296 0
M  V30 6030 H 562.407 -5.06591 -4.49857 0
M  V30 6031 H 563.35 -6.17938 -3.45771 0
M  V30 6032 H 563.758 -4.43814 -3.48841 0
M  V30 6033 N 563.156 0.464375 -1.50603 0
M  V30 6034 C 564.088 1.57916 -1.66118 0
M  V30 6035 C 565.101 1.53497 -0.54246 0
M  V30 6036 O 566.29 1.58763 -0.815877 0
M  V30 6037 C 563.39 2.96809 -1.63577 0
M  V30 6038 C 562.563 3.26026 -2.91592 0
M  V30 6039 C 561.622 4.44506 -2.81604 0
M  V30 6040 O 560.648 4.44484 -3.55559 0
M  V30 6041 N 561.85 5.46549 -1.95614 0
M  V30 6042 H 564.615 1.45022 -2.62276 0
M  V30 6043 H 562.176 0.652903 -1.48151 0
M  V30 6044 H 564.168 3.74048 -1.54499 0
M  V30 6045 H 562.738 3.03438 -0.751262 0
M  V30 6046 H 561.958 2.37337 -3.14746 0
M  V30 6047 H 563.246 3.42361 -3.76386 0
M  V30 6048 H 562.644 5.49391 -1.34854 0
M  V30 6049 H 561.201 6.22746 -1.92435 0
M  V30 6050 N 564.634 1.40294 0.718013 0
M  V30 6051 C 565.597 1.4012 1.81381 0
M  V30 6052 C 566.597 0.295405 1.58063 0
M  V30 6053 O 567.787 0.554187 1.6515 0
M  V30 6054 C 564.919 1.19056 3.19435 0
M  V30 6055 H 566.112 2.37645 1.82933 0
M  V30 6056 H 563.665 1.26107 0.923405 0
M  V30 6057 H 564.4 0.222809 3.23534 0
M  V30 6058 H 564.185 1.99152 3.37758 0
M  V30 6059 H 565.675 1.21716 3.99468 0
M  V30 6060 N 566.112 -0.949982 1.2575 0
M  V30 6061 C 567.361 -1.68956 1.10168 0
M  V30 6062 C 567.674 -1.92327 -0.356309 0
M  V30 6063 O 568.88 -2.64026 -0.632657 0
M  V30 6064 C 567.336 -3.04196 1.92336 0
M  V30 6065 C 566.944 -2.88603 3.42655 0
M  V30 6066 C 568.688 -3.81904 1.85336 0
M  V30 6067 C 566.595 -4.19262 4.17101 0
M  V30 6068 H 565.525 -0.633645 0.408668 0
M  V30 6069 H 568.176 -1.05719 1.49986 0
M  V30 6070 H 566.558 -3.68363 1.45344 0
M  V30 6071 H 567.732 -2.3334 3.97353 0
M  V30 6072 H 566.047 -2.24345 3.50796 0
M  V30 6073 H 568.644 -4.78688 2.38248 0
M  V30 6074 H 568.987 -4.08099 0.822226 0
M  V30 6075 H 569.52 -3.24495 2.30104 0
M  V30 6076 H 566.259 -3.98254 5.20648 0
M  V30 6077 H 565.779 -4.74273 3.67186 0
M  V30 6078 H 567.458 -4.87775 4.25071 0
M  V30 6079 N 567.59 -1.07411 -1.15328 0
M  V30 6080 C 569.001 -0.820261 -1.67716 0
M  V30 6081 C 569.352 0.654539 -1.8496 0
M  V30 6082 O 568.477 1.50664 -1.55337 0
M  V30 6083 C 569.072 -1.48242 -3.04647 0
M  V30 6084 C 567.631 -1.27606 -3.5411 0
M  V30 6085 C 566.778 -1.5517 -2.29821 0
M  V30 6086 H 569.729 -1.23608 -0.995332 0
M  V30 6087 H 569.75 -0.903984 -3.69606 0
M  V30 6088 H 569.262 -2.55578 -2.92064 0
M  V30 6089 H 567.363 -0.222948 -3.71932 0
M  V30 6090 H 567.476 -1.99667 -4.35511 0
M  V30 6091 H 565.84 -0.972747 -2.35393 0
M  V30 6092 H 566.623 -2.63689 -2.19824 0
M  V30 6093 N 569.068 1.32177 -0.85831 0
M  V30 6094 C 569.978 2.32561 -0.308606 0
M  V30 6095 C 570.994 1.64209 0.575462 0
M  V30 6096 O 572.17 1.95719 0.474961 0
M  V30 6097 C 569.235 3.43207 0.490909 0
M  V30 6098 C 568.296 4.27243 -0.419733 0
M  V30 6099 C 567.529 5.32605 0.341719 0
M  V30 6100 O 567.752 5.48332 1.57125 0
M  V30 6101 O 566.686 6.0118 -0.294379 0
M  V30 6102 H 570.512 2.81477 -1.14037 0
M  V30 6103 H 568.097 1.35866 -0.621349 0
M  V30 6104 H 569.979 4.10677 0.944574 0
M  V30 6105 H 568.654 2.96474 1.29941 0
M  V30 6106 H 567.561 3.62569 -0.921652 0
M  V30 6107 H 568.894 4.7751 -1.19352 0
M  V30 6108 N 570.547 0.616602 1.45037 0
M  V30 6109 C 571.824 0.0469086 1.95544 0
M  V30 6110 C 572.204 -1.42345 1.55888 0
M  V30 6111 O 571.552 -2.13055 0.825824 0
M  V30 6112 C 571.762 0.254489 3.48071 0
M  V30 6113 C 573.11 0.140025 4.24369 0
M  V30 6114 O 574.134 0.185084 3.55719 0
M  V30 6115 O 572.993 0.0327034 5.4649 0
M  V30 6116 H 570.087 -0.0306051 0.826433 0
M  V30 6117 H 572.633 0.687293 1.55159 0
M  V30 6118 H 571.405 1.27532 3.69934 0
M  V30 6119 H 571.028 -0.42073 3.95368 0
M  V30 6120 N 572.025 -1.5352 0.356285 0
M  V30 6121 C 572.988 -2.24071 -0.482182 0
M  V30 6122 C 573.988 -1.24531 -1.01729 0
M  V30 6123 O 575.178 -1.48876 -0.904513 0
M  V30 6124 C 572.31 -2.97025 -1.67299 0
M  V30 6125 H 573.503 -2.99596 0.135031 0
M  V30 6126 H 571.056 -1.55928 0.107825 0
M  V30 6127 H 571.791 -2.25719 -2.32855 0
M  V30 6128 H 571.576 -3.7005 -1.29636 0
M  V30 6129 H 573.066 -3.50683 -2.26741 0
M  V30 6130 N 573.503 -0.0852151 -1.57369 0
M  V30 6131 C 574.752 0.580443 -1.93168 0
M  V30 6132 C 575.065 1.6995 -0.968319 0
M  V30 6133 O 576.271 2.42564 -1.21963 0
M  V30 6134 C 574.727 1.08386 -3.43192 0
M  V30 6135 C 574.335 -0.00491388 -4.48 0
M  V30 6136 C 576.079 1.72281 -3.87968 0
M  V30 6137 C 573.986 0.513299 -5.89168 0
M  V30 6138 H 572.916 0.22059 -0.72101 0
M  V30 6139 H 575.567 -0.159621 -1.82804 0
M  V30 6140 H 573.949 1.8773 -3.48674 0
M  V30 6141 H 575.123 -0.780032 -4.5415 0
M  V30 6142 H 573.438 -0.548453 -4.12772 0
M  V30 6143 H 576.035 2.12108 -4.9083 0
M  V30 6144 H 576.378 2.58811 -3.26071 0
M  V30 6145 H 576.911 0.995359 -3.85146 0
M  V30 6146 H 573.65 -0.315153 -6.54742 0
M  V30 6147 H 573.17 1.25564 -5.8651 0
M  V30 6148 H 574.849 0.985433 -6.39451 0
M  V30 6149 N 574.981 1.5647 0.188427 0
M  V30 6150 C 576.392 1.70864 0.752494 0
M  V30 6151 C 576.743 0.692905 1.83557 0
M  V30 6152 O 575.868 -0.149307 2.15884 0
M  V30 6153 C 576.463 3.09789 1.37173 0
M  V30 6154 C 575.022 3.25925 1.88281 0
M  V30 6155 C 574.169 2.66817 0.755259 0
M  V30 6156 H 577.12 1.58657 -0.0367408 0
M  V30 6157 H 577.141 3.07489 2.24122 0
M  V30 6158 H 576.653 3.83693 0.583219 0
M  V30 6159 H 574.754 2.56948 2.6983 0
M  V30 6160 H 574.867 4.33498 2.04001 0
M  V30 6161 H 573.231 2.2617 1.17128 0
M  V30 6162 H 574.014 3.43294 -0.0211237 0
M  V30 6163 N 576.459 -0.456382 1.50847 0
M  V30 6164 C 577.369 -1.57805 1.73594 0
M  V30 6165 C 578.385 -1.62599 0.619476 0
M  V30 6166 O 579.561 -1.80195 0.899532 0
M  V30 6167 C 576.626 -2.93926 1.8387 0
M  V30 6168 C 575.687 -2.99402 3.07663 0
M  V30 6169 C 574.92 -4.29031 3.1744 0
M  V30 6170 O 575.143 -5.20358 2.33631 0
M  V30 6171 O 574.077 -4.40401 4.10281 0
M  V30 6172 H 577.903 -1.41531 2.68705 0
M  V30 6173 H 575.488 -0.637422 1.3512 0
M  V30 6174 H 577.37 -3.74747 1.92725 0
M  V30 6175 H 576.045 -3.10368 0.91944 0
M  V30 6176 H 574.952 -2.17606 3.043 0
M  V30 6177 H 576.285 -2.87901 3.99216 0
M  V30 6178 N 577.937 -1.40673 -0.710563 0
M  V30 6179 C 578.847 -1.43663 -1.85467 0
M  V30 6180 C 579.863 -0.328721 -1.70867 0
M  V30 6181 O 581.039 -0.574098 -1.93044 0
M  V30 6182 C 578.104 -1.30226 -3.21313 0
M  V30 6183 C 577.165 -2.51204 -3.48131 0
M  V30 6184 C 576.398 -2.38398 -4.77495 0
M  V30 6185 O 576.621 -1.40048 -5.5294 0
M  V30 6186 O 575.555 -3.2787 -5.04762 0
M  V30 6187 H 579.381 -2.40156 -1.859 0
M  V30 6188 H 576.966 -1.22049 -0.861652 0
M  V30 6189 H 578.848 -1.2496 -4.02446 0
M  V30 6190 H 577.523 -0.368419 -3.21597 0
M  V30 6191 H 576.43 -2.62048 -2.66987 0
M  V30 6192 H 577.763 -3.43366 -3.52648 0
M  V30 6193 N 579.415 0.9433 -1.26252 0
M  V30 6194 C 580.64 1.72898 -1.14547 0
M  V30 6195 C 581.065 1.85761 0.295743 0
M  V30 6196 O 580.423 1.3463 1.21427 0
M  V30 6197 C 580.471 3.11471 -1.8171 0
M  V30 6198 O 579.575 3.97336 -1.10445 0
M  V30 6199 H 578.916 0.530555 -0.399259 0
M  V30 6200 H 581.446 1.18159 -1.67032 0
M  V30 6201 H 581.456 3.61872 -1.88449 0
M  V30 6202 H 580.131 3.01425 -2.86558 0
M  V30 6203 H 578.708 3.55788 -1.11666 0
M  V30 6204 N 580.893 1.08022 1.14757 0
M  V30 6205 C 582.141 0.805913 1.85336 0
M  V30 6206 C 582.462 -0.670162 1.83122 0
M  V30 6207 O 581.732 -1.48567 1.2769 0
M  V30 6208 H 580.312 0.295138 0.686223 0
M  V30 6209 H 582.974 1.36538 1.3908 0
M  V30 6210 H 582.07 1.14655 2.90277 0
M  V30 6211 N 582.371 -1.3172 0.865308 0
M  V30 6212 C 583.648 -1.91574 0.394789 0
M  V30 6213 C 584.028 -1.78769 -1.12271 0
M  V30 6214 O 583.376 -1.19245 -1.94918 0
M  V30 6215 C 583.586 -3.37957 0.870982 0
M  V30 6216 C 584.934 -4.15073 0.894384 0
M  V30 6217 O 585.958 -3.4672 0.816325 0
M  V30 6218 O 584.817 -5.37151 1.00651 0
M  V30 6219 H 581.911 -0.818649 0.117229 0
M  V30 6220 H 584.457 -1.4042 0.952913 0
M  V30 6221 H 583.229 -3.41269 1.91444 0
M  V30 6222 H 582.852 -3.96534 0.290907 0
M  V30 6223 N 583.85 -0.624285 -1.44708 0
M  V30 6224 C 584.76 0.0861083 -2.34442 0
M  V30 6225 C 585.776 0.84291 -1.5222 0
M  V30 6226 O 586.952 0.796723 -1.84971 0
M  V30 6227 C 584.017 1.05999 -3.30099 0
M  V30 6228 C 583.077 0.303316 -4.28227 0
M  V30 6229 C 582.311 1.23081 -5.19314 0
M  V30 6230 O 582.534 2.46929 -5.14181 0
M  V30 6231 O 581.468 0.71883 -5.97592 0
M  V30 6232 H 585.293 -0.651756 -2.96624 0
M  V30 6233 H 582.879 -0.384493 -1.44368 0
M  V30 6234 H 584.76 1.62046 -3.88997 0
M  V30 6235 H 583.436 1.77859 -2.70459 0
M  V30 6236 H 582.343 -0.300033 -3.72895 0
M  V30 6237 H 583.676 -0.375123 -4.90768 0
M  V30 6238 N 585.328 1.53329 -0.364422 0
M  V30 6239 C 586.605 1.93557 0.281962 0
M  V30 6240 C 586.985 1.29786 1.6649 0
M  V30 6241 O 586.333 0.456512 2.23893 0
M  V30 6242 C 586.543 3.47405 0.333331 0
M  V30 6243 C 587.891 4.20699 0.574231 0
M  V30 6244 O 588.915 3.53779 0.414588 0
M  V30 6245 O 587.774 5.39287 0.885002 0
M  V30 6246 H 584.868 0.809573 0.168881 0
M  V30 6247 H 587.414 1.64494 -0.417121 0
M  V30 6248 H 586.186 3.86091 -0.636326 0
M  V30 6249 H 585.809 3.82697 1.07836 0
M  V30 6250 N 586.806 0.0935595 1.57322 0
M  V30 6251 C 587.716 -0.880192 2.17462 0
M  V30 6252 C 588.732 -1.31135 1.14366 0
M  V30 6253 O 589.908 -1.37958 1.46729 0
M  V30 6254 C 586.973 -2.12184 2.74188 0
M  V30 6255 C 586.034 -1.74503 3.92234 0
M  V30 6256 C 585.267 -2.92748 4.46245 0
M  V30 6257 O 585.49 -4.07427 3.99198 0
M  V30 6258 O 584.424 -2.71303 5.37288 0
M  V30 6259 H 588.25 -0.398516 3.01074 0
M  V30 6260 H 585.835 -0.130707 1.48827 0
M  V30 6261 H 587.717 -2.84953 3.10451 0
M  V30 6262 H 586.392 -2.59407 1.93623 0
M  V30 6263 H 585.299 -0.989186 3.60785 0
M  V30 6264 H 586.632 -1.32044 4.74157 0
M  V30 6265 N 588.284 -1.56567 -0.180126 0
M  V30 6266 C 589.561 -1.7235 -0.924931 0
M  V30 6267 C 589.941 -0.652523 -2.00762 0
M  V30 6268 O 589.289 0.334115 -2.26044 0
M  V30 6269 C 589.499 -3.1523 -1.49771 0
M  V30 6270 C 590.847 -3.75921 -1.97405 0
M  V30 6271 O 591.871 -3.18452 -1.59583 0
M  V30 6272 O 590.73 -4.7681 -2.67048 0
M  V30 6273 H 587.824 -0.703502 -0.434758 0
M  V30 6274 H 590.37 -1.6886 -0.168647 0
M  V30 6275 H 589.142 -3.84656 -0.718027 0
M  V30 6276 H 588.765 -3.23009 -2.31842 0
M  V30 6277 N 589.762 0.448376 -1.51087 0
M  V30 6278 C 591.039 1.20926 -1.53741 0
M  V30 6279 C 591.419 2.09025 -0.295222 0
M  V30 6280 O 590.767 2.16851 0.720283 0
M  V30 6281 C 590.977 2.02067 -2.84552 0
M  V30 6282 C 592.325 2.59486 -3.36084 0
M  V30 6283 O 593.349 2.12289 -2.86028 0
M  V30 6284 O 592.208 3.45539 -4.23397 0
M  V30 6285 H 589.302 0.549951 -0.617643 0
M  V30 6286 H 591.848 0.458344 -1.63393 0
M  V30 6287 H 590.62 1.37291 -3.66425 0
M  V30 6288 H 590.243 2.84246 -2.78011 0
M  V30 6289 N 591.24 1.41047 0.703093 0
M  V30 6290 C 592.651 1.35657 1.28274 0
M  V30 6291 C 593.002 0.0360309 1.96167 0
M  V30 6292 O 592.127 -0.865833 1.98324 0
M  V30 6293 C 592.722 2.45707 2.33267 0
M  V30 6294 C 591.281 2.43738 2.86825 0
M  V30 6295 C 590.428 2.25941 1.60767 0
M  V30 6296 H 593.379 1.50672 0.49836 0
M  V30 6297 H 593.4 2.14333 3.14391 0
M  V30 6298 H 592.912 3.41805 1.83824 0
M  V30 6299 H 591.013 1.51375 3.40465 0
M  V30 6300 H 591.126 3.39779 3.37768 0
M  V30 6301 H 589.49 1.73681 1.86298 0
M  V30 6302 H 590.273 3.24054 1.1333 0
M  V30 6303 N 592.718 -0.936591 1.26751 0
M  V30 6304 C 593.995 -1.66094 1.03306 0
M  V30 6305 C 594.375 -2.06568 -0.435058 0
M  V30 6306 O 593.723 -1.79305 -1.41641 0
M  V30 6307 C 593.933 -2.86969 1.98619 0
M  V30 6308 C 595.281 -3.58516 2.27489 0
M  V30 6309 O 596.305 -2.97082 1.96522 0
M  V30 6310 O 595.164 -4.69181 2.80235 0
M  V30 6311 H 592.258 -0.727568 0.393158 0
M  V30 6312 H 594.804 -0.987914 1.3798 0
M  V30 6313 H 593.576 -2.53985 2.9767 0
M  V30 6314 H 593.199 -3.61996 1.64454 0
M  V30 6315 N 594.196 -1.08629 -1.14182 0
M  V30 6316 C 595.143 -0.718299 -2.19338 0
M  V30 6317 C 596.113 0.296587 -1.63431 0
M  V30 6318 O 597.298 0.180079 -1.89948 0
M  V30 6319 C 594.438 -0.136203 -3.44831 0
M  V30 6320 C 593.551 -1.20414 -4.14879 0
M  V30 6321 C 592.686 -0.585666 -5.27962 0
M  V30 6322 C 591.725 -1.63548 -5.89846 0
M  V30 6323 N 590.862 -1.03864 -6.94375 0
M  V30 6324 H 595.702 -1.61932 -2.50164 0
M  V30 6325 H 593.239 -0.80919 -1.22844 0
M  V30 6326 H 595.197 0.219021 -4.16625 0
M  V30 6327 H 593.827 0.728121 -3.14481 0
M  V30 6328 H 592.879 -1.67676 -3.41451 0
M  V30 6329 H 594.191 -1.99959 -4.56966 0
M  V30 6330 H 593.345 -0.178818 -6.06436 0
M  V30 6331 H 592.084 0.24142 -4.87102 0
M  V30 6332 H 591.089 -2.05197 -5.10073 0
M  V30 6333 H 592.314 -2.46509 -6.3278 0
M  V30 6334 H 590.26 -0.232687 -6.55587 0
M  V30 6335 H 590.177 -1.77116 -7.3496 0
M  V30 6336 H 591.445 -0.657724 -7.7672 0
M  V30 6337 N 595.674 1.31259 -0.872281 0
M  V30 6338 C 597.09 1.49283 -0.564521 0
M  V30 6339 C 597.29 1.80243 0.900807 0
M  V30 6340 O 596.346 1.88246 1.68284 0
M  V30 6341 C 597.659 2.62503 -1.46673 0
M  V30 6342 C 599.207 2.76386 -1.46901 0
M  V30 6343 C 599.682 3.92705 -2.35684 0
M  V30 6344 N 601.173 3.99995 -2.33577 0
M  V30 6345 C 601.908 4.89276 -2.98992 0
M  V30 6346 N 601.404 5.83443 -3.73585 0
M  V30 6347 N 603.197 4.82541 -2.88289 0
M  V30 6348 H 595.348 1.09432 -1.82039 0
M  V30 6349 H 597.611 0.540949 -0.77851 0
M  V30 6350 H 597.317 2.46407 -2.50951 0
M  V30 6351 H 597.191 3.58695 -1.16696 0
M  V30 6352 H 599.578 2.91894 -0.433796 0
M  V30 6353 H 599.659 1.80853 -1.80903 0
M  V30 6354 H 599.303 3.77954 -3.39283 0
M  V30 6355 H 599.233 4.87549 -1.99006 0
M  V30 6356 H 601.724 3.32624 -1.7936 0
M  V30 6357 H 602.037 6.48303 -4.20622 0
M  V30 6358 H 600.382 5.83415 -3.77694 0
M  V30 6359 H 603.573 4.07951 -2.2955 0
M  V30 6360 H 603.746 5.51916 -3.39549 0
M  V30 6361 N 597.152 0.631951 1.44375 0
M  V30 6362 C 598.401 0.134214 2.01253 0
M  V30 6363 C 598.714 -1.25171 1.50305 0
M  V30 6364 O 599.92 -1.8435 1.99317 0
M  V30 6365 C 598.376 0.189187 3.59402 0
M  V30 6366 C 597.984 1.57647 4.19346 0
M  V30 6367 C 599.728 -0.252044 4.23751 0
M  V30 6368 C 597.635 1.58651 5.69722 0
M  V30 6369 H 596.565 0.0464101 0.75257 0
M  V30 6370 H 599.216 0.790868 1.65582 0
M  V30 6371 H 597.598 -0.534584 3.92375 0
M  V30 6372 H 598.772 2.32389 3.97909 0
M  V30 6373 H 597.087 1.96186 3.67288 0
M  V30 6374 H 599.684 -0.264084 5.34047 0
M  V30 6375 H 600.027 -1.27951 3.96149 0
M  V30 6376 H 600.56 0.41926 3.95584 0
M  V30 6377 H 597.299 2.59237 6.0206 0
M  V30 6378 H 596.819 0.882039 5.93279 0
M  V30 6379 H 598.498 1.32082 6.33375 0
M  V30 6380 N 598.631 -1.53133 0.372548 0
M  V30 6381 C 599.856 -2.0625 -0.218098 0
M  V30 6382 C 600.281 -1.24375 -1.41111 0
M  V30 6383 O 599.639 -0.264554 -1.79359 0
M  V30 6384 C 599.687 -3.55858 -0.582876 0
M  V30 6385 O 598.791 -3.76667 -1.67917 0
M  V30 6386 H 598.132 -0.663317 -0.030104 0
M  V30 6387 H 600.662 -1.97477 0.535169 0
M  V30 6388 H 600.672 -3.99007 -0.851925 0
M  V30 6389 H 599.347 -4.14892 0.289428 0
M  V30 6390 H 597.924 -3.45413 -1.40513 0
M  V30 6391 N 600.109 -0.101901 -1.5727 0
M  V30 6392 C 601.358 0.559922 -1.93772 0
M  V30 6393 C 601.671 1.68913 -0.98629 0
M  V30 6394 O 602.877 2.41256 -1.24529 0
M  V30 6395 C 601.333 1.04739 -3.44322 0
M  V30 6396 C 600.941 -0.05243 -4.47969 0
M  V30 6397 C 602.685 1.68157 -3.89774 0
M  V30 6398 C 600.592 0.450781 -5.8968 0
M  V30 6399 H 599.522 0.212931 -0.723309 0
M  V30 6400 H 602.173 -0.179001 -1.82625 0
M  V30 6401 H 600.555 1.84021 -3.50645 0
M  V30 6402 H 601.729 -0.828157 -4.53297 0
M  V30 6403 H 600.044 -0.592202 -4.12167 0
M  V30 6404 H 602.641 2.0689 -4.93052 0
M  V30 6405 H 602.984 2.55338 -3.28798 0
M  V30 6406 H 603.517 0.954453 -3.8618 0
M  V30 6407 H 600.256 -0.38458 -6.54371 0
M  V30 6408 H 599.776 1.19336 -5.87809 0
M  V30 6409 H 601.455 0.917555 -6.40461 0
M  V30 6410 N 601.587 1.56661 0.17182 0
M  V30 6411 C 602.827 1.83762 0.895029 0
M  V30 6412 C 603.191 0.682752 1.79451 0
M  V30 6413 O 604.392 0.834208 2.55528 0
M  V30 6414 C 602.663 3.15976 1.67015 0
M  V30 6415 S 604.222 3.64558 2.44219 0
M  V30 6416 H 601.04 0.644713 0.299778 0
M  V30 6417 H 603.642 1.94871 0.156701 0
M  V30 6418 H 602.346 3.98021 1.00039 0
M  V30 6419 H 601.877 3.07807 2.44986 0
M  V30 6420 H 603.892 3.31845 3.68909 0
M  V30 6421 N 603.065 -0.440357 1.51323 0
M  V30 6422 C 604.29 -1.21716 1.67928 0
M  V30 6423 C 604.715 -1.84328 0.374826 0
M  V30 6424 O 604.073 -1.68675 -0.664706 0
M  V30 6425 C 604.121 -2.27914 2.79442 0
M  V30 6426 O 603.225 -3.33325 2.42834 0
M  V30 6427 H 602.566 -0.35674 0.560029 0
M  V30 6428 H 605.096 -0.520417 1.97871 0
M  V30 6429 H 605.106 -2.72746 3.03436 0
M  V30 6430 H 603.781 -1.8172 3.741 0
M  V30 6431 H 602.358 -2.9399 2.294 0
M  V30 6432 N 604.543 -1.41418 -0.695603 0
M  V30 6433 C 605.768 -1.44329 -1.48942 0
M  V30 6434 C 606.193 -0.0501579 -1.88033 0
M  V30 6435 O 605.551 0.946598 -1.54626 0
M  V30 6436 C 605.599 -2.3578 -2.72837 0
M  V30 6437 O 604.703 -1.81482 -3.70322 0
M  V30 6438 H 604.044 -0.489838 -0.44828 0
M  V30 6439 H 606.574 -1.85878 -0.855014 0
M  V30 6440 H 606.584 -2.51654 -3.21145 0
M  V30 6441 H 605.259 -3.37005 -2.43722 0
M  V30 6442 H 603.836 -1.75058 -3.29255 0
M  V30 6443 N 606.021 0.929856 -1.27246 0
M  V30 6444 C 607.298 1.65544 -1.04186 0
M  V30 6445 C 607.678 2.06796 0.424097 0
M  V30 6446 O 607.026 1.80053 1.40688 0
M  V30 6447 C 607.236 2.85912 -2.00138 0
M  V30 6448 C 608.584 3.57305 -2.29387 0
M  V30 6449 O 609.608 2.96036 -1.98094 0
M  V30 6450 O 608.467 4.67688 -2.82719 0
M  V30 6451 H 605.561 0.725473 -0.397011 0
M  V30 6452 H 608.107 0.980583 -1.38501 0
M  V30 6453 H 606.879 2.52403 -2.99013 0
M  V30 6454 H 606.502 3.61118 -1.66371 0
M  V30 6455 N 607.499 1.09233 1.13605 0
M  V30 6456 C 608.446 0.729921 2.18954 0
M  V30 6457 C 609.416 -0.287916 1.63586 0
M  V30 6458 O 610.601 -0.170003 1.90041 0
M  V30 6459 C 607.741 0.154489 3.44754 0
M  V30 6460 C 606.854 1.22613 4.14234 0
M  V30 6461 C 605.989 0.613657 5.27644 0
M  V30 6462 C 605.028 1.66674 5.8897 0
M  V30 6463 N 604.165 1.07545 6.93814 0
M  V30 6464 H 609.005 1.63257 2.49302 0
M  V30 6465 H 606.542 0.815693 1.22413 0
M  V30 6466 H 608.5 -0.196923 4.16735 0
M  V30 6467 H 607.13 -0.711433 3.14863 0
M  V30 6468 H 606.182 1.69485 3.40557 0
M  V30 6469 H 607.494 2.0238 4.55899 0
M  V30 6470 H 606.648 0.210976 6.06333 0
M  V30 6471 H 605.387 -0.215584 4.87223 0
M  V30 6472 H 604.392 2.07899 5.08978 0
M  V30 6473 H 605.617 2.49861 6.31464 0
M  V30 6474 H 603.563 0.267451 6.55455 0
M  V30 6475 H 603.48 1.81011 7.3401 0
M  V30 6476 H 604.748 0.698906 7.7636 0
M  V30 6477 N 608.977 -1.30795 0.87923 0
M  V30 6478 C 610.393 -1.48981 0.57243 0
M  V30 6479 C 610.593 -1.80719 -0.891236 0
M  V30 6480 O 609.649 -1.89136 -1.67283 0
M  V30 6481 C 610.962 -2.61721 1.48063 0
M  V30 6482 C 612.51 -2.75603 1.48365 0
M  V30 6483 C 612.985 -3.91449 2.37763 0
M  V30 6484 N 614.476 -3.98751 2.35695 0
M  V30 6485 C 615.211 -4.87684 3.01583 0
M  V30 6486 N 614.707 -5.81454 3.76674 0
M  V30 6487 N 616.5 -4.81005 2.90844 0
M  V30 6488 H 608.651 -1.08465 1.82617 0
M  V30 6489 H 610.914 -0.536813 0.781368 0
M  V30 6490 H 610.62 -2.45073 2.52254 0
M  V30 6491 H 610.494 -3.58071 1.18596 0
M  V30 6492 H 612.881 -2.9166 0.44927 0
M  V30 6493 H 612.962 -1.79891 1.81859 0
M  V30 6494 H 612.606 -3.76149 3.41283 0
M  V30 6495 H 612.536 -4.86487 2.01589 0
M  V30 6496 H 615.027 -3.31668 1.81121 0
M  V30 6497 H 615.34 -6.46063 4.24054 0
M  V30 6498 H 613.685 -5.81403 3.80782 0
M  V30 6499 H 616.876 -4.06728 2.31711 0
M  V30 6500 H 617.049 -5.50107 3.42471 0
M  V30 6501 N 610.455 -0.639598 -1.44038 0
M  V30 6502 C 611.704 -0.144885 -2.01179 0
M  V30 6503 C 612.017 1.24372 -1.50967 0
M  V30 6504 O 613.223 1.83291 -2.00292 0
M  V30 6505 C 611.679 -0.208244 -3.59297 0
M  V30 6506 C 611.287 -1.59869 -4.18504 0
M  V30 6507 C 613.031 0.229568 -4.23879 0
M  V30 6508 C 610.938 -1.61671 -5.68873 0
M  V30 6509 H 609.868 -0.0504005 -0.752314 0
M  V30 6510 H 612.519 -0.799639 -1.65161 0
M  V30 6511 H 610.901 0.513767 -3.92653 0
M  V30 6512 H 612.075 -2.34496 -3.96671 0
M  V30 6513 H 610.39 -1.98131 -3.66242 0
M  V30 6514 H 612.987 0.235758 -5.3418 0
M  V30 6515 H 613.33 1.25848 -3.96822 0
M  V30 6516 H 613.863 -0.440233 -3.95357 0
M  V30 6517 H 610.602 -2.62427 -6.00677 0
M  V30 6518 H 610.122 -0.913489 -5.92803 0
M  V30 6519 H 611.801 -1.35439 -6.32665 0
M  V30 6520 N 611.933 1.52934 -0.380664 0
M  V30 6521 C 612.896 2.24809 0.446473 0
M  V30 6522 C 613.896 1.26133 0.997347 0
M  V30 6523 O 615.086 1.50297 0.880714 0
M  V30 6524 C 612.218 2.99649 1.62553 0
M  V30 6525 H 613.411 2.99343 -0.182677 0
M  V30 6526 H 610.964 1.55736 -0.132618 0
M  V30 6527 H 611.699 2.29395 2.29235 0
M  V30 6528 H 611.484 3.72066 1.23732 0
M  V30 6529 H 612.974 3.54246 2.21133 0
M  V30 6530 N 613.412 0.11024 1.57214 0
M  V30 6531 C 614.652 -0.553061 1.96775 0
M  V30 6532 C 615.016 -1.64403 0.991753 0
M  V30 6533 O 616.217 -2.36561 1.27642 0
M  V30 6534 C 614.488 -1.08004 3.4069 0
M  V30 6535 S 616.047 -1.75309 4.02259 0
M  V30 6536 H 612.865 -0.18003 0.68783 0
M  V30 6537 H 615.467 0.193242 1.94543 0
M  V30 6538 H 614.171 -0.274735 4.09479 0
M  V30 6539 H 613.702 -1.86182 3.46554 0
M  V30 6540 H 615.717 -3.03834 3.923 0
M  V30 6541 N 614.89 -1.56749 -0.16351 0
M  V30 6542 C 615.8 -2.00255 -1.2221 0
M  V30 6543 C 616.816 -0.915194 -1.47987 0
M  V30 6544 O 617.992 -1.22342 -1.59982 0
M  V30 6545 C 615.057 -2.36035 -2.53946 0
M  V30 6546 C 614.118 -3.58637 -2.35962 0
M  V30 6547 C 613.351 -3.92701 -3.61416 0
M  V30 6548 O 613.574 -3.27632 -4.66919 0
M  V30 6549 O 612.508 -4.86019 -3.55062 0
M  V30 6550 H 616.334 -2.90586 -0.882794 0
M  V30 6551 H 613.919 -1.44721 -0.370978 0
M  V30 6552 H 615.801 -2.59982 -3.31643 0
M  V30 6553 H 614.476 -1.48863 -2.8744 0
M  V30 6554 H 613.383 -3.39898 -1.5627 0
M  V30 6555 H 614.716 -4.46374 -2.0739 0
M  V30 6556 N 616.368 0.432326 -1.51554 0
M  V30 6557 C 617.278 1.55023 -1.76082 0
M  V30 6558 C 618.294 1.61593 -0.645265 0
M  V30 6559 O 619.47 1.78742 -0.928086 0
M  V30 6560 C 616.535 2.90964 -1.88523 0
M  V30 6561 C 615.596 2.9447 -3.12388 0
M  V30 6562 C 614.829 4.23926 -3.24225 0
M  V30 6563 O 615.052 5.16576 -2.4188 0
M  V30 6564 O 613.986 4.33818 -4.17235 0
M  V30 6565 H 617.812 1.37238 -2.70923 0
M  V30 6566 H 615.397 0.615845 -1.36117 0
M  V30 6567 H 617.279 3.71633 -1.98662 0
M  V30 6568 H 615.954 3.08865 -0.9687 0
M  V30 6569 H 614.861 2.12737 -3.07723 0
M  V30 6570 H 616.194 2.81514 -4.03746 0
M  V30 6571 N 617.846 1.41785 0.688094 0
M  V30 6572 C 618.756 1.46596 1.83158 0
M  V30 6573 C 619.772 0.355862 1.70322 0
M  V30 6574 O 620.948 0.604737 1.92106 0
M  V30 6575 C 618.013 1.35322 3.192 0
M  V30 6576 C 617.074 2.56711 3.4409 0
M  V30 6577 C 616.307 2.45965 4.73642 0
M  V30 6578 O 616.53 1.48827 5.50642 0
M  V30 6579 O 615.464 3.35859 4.99482 0
M  V30 6580 H 619.29 2.43083 1.82056 0
M  V30 6581 H 616.875 1.23404 0.842126 0
M  V30 6582 H 618.757 1.31347 4.00407 0
M  V30 6583 H 617.432 0.419536 3.2097 0
M  V30 6584 H 616.339 2.66262 2.62784 0
M  V30 6585 H 617.672 3.48933 3.47141 0
M  V30 6586 N 619.324 -0.923095 1.27737 0
M  V30 6587 C 620.571 -1.67127 1.14345 0
M  V30 6588 C 620.899 -1.92017 -0.30982 0
M  V30 6589 O 620.154 -1.51185 -1.24264 0
M  V30 6590 C 620.453 -3.04125 1.8773 0
M  V30 6591 C 620.119 -2.98929 3.37568 0
M  V30 6592 C 618.781 -2.9722 3.78436 0
M  V30 6593 C 621.133 -2.89875 4.33154 0
M  V30 6594 C 618.461 -2.84244 5.13247 0
M  V30 6595 C 620.813 -2.7844 5.68026 0
M  V30 6596 C 619.477 -2.75083 6.08182 0
M  V30 6597 H 618.747 -0.611562 0.418417 0
M  V30 6598 H 621.394 -1.07618 1.584 0
M  V30 6599 H 619.699 -3.67366 1.36196 0
M  V30 6600 H 621.396 -3.609 1.74792 0
M  V30 6601 H 617.986 -3.0105 3.05069 0
M  V30 6602 H 622.17 -2.9029 4.02548 0
M  V30 6603 H 617.426 -2.80034 5.43499 0
M  V30 6604 H 621.6 -2.70401 6.4176 0
M  V30 6605 H 619.227 -2.64786 7.12596 0
M  V30 6606 N 620.802 -1.09834 -1.13024 0
M  V30 6607 C 622.027 -0.85909 -1.88771 0
M  V30 6608 C 622.452 0.584402 -1.78791 0
M  V30 6609 O 621.81 1.41101 -1.13842 0
M  V30 6610 C 621.858 -1.30427 -3.36186 0
M  V30 6611 O 620.962 -0.465368 -4.09766 0
M  V30 6612 H 620.303 -0.310786 -0.586778 0
M  V30 6613 H 622.833 -1.46355 -1.42973 0
M  V30 6614 H 622.843 -1.2915 -3.8702 0
M  V30 6615 H 621.518 -2.3555 -3.42767 0
M  V30 6616 H 620.095 -0.542814 -3.68928 0
M  V30 6617 N 622.28 1.30327 -0.886154 0
M  V30 6618 C 623.557 1.90922 -0.425217 0
M  V30 6619 C 623.937 1.80533 1.09413 0
M  V30 6620 O 623.285 1.2233 1.92996 0
M  V30 6621 C 623.495 3.36529 -0.924638 0
M  V30 6622 C 624.843 4.13598 -0.960305 0
M  V30 6623 O 625.867 3.45377 -0.871382 0
M  V30 6624 O 624.726 5.35482 -1.09184 0
M  V30 6625 H 621.82 0.81668 -0.130238 0
M  V30 6626 H 624.366 1.38886 -0.975132 0
M  V30 6627 H 623.138 3.38181 -1.96849 0
M  V30 6628 H 622.761 3.96021 -0.353955 0
M  V30 6629 N 623.758 0.647228 1.43697 0
M  V30 6630 C 624.983 0.164083 2.0675 0
M  V30 6631 C 625.408 -1.15892 1.48158 0
M  V30 6632 O 624.766 -1.71459 0.589194 0
M  V30 6633 C 624.814 0.0800368 3.60511 0
M  V30 6634 O 623.918 -0.959453 4.01084 0
M  V30 6635 H 623.259 0.0921288 0.657578 0
M  V30 6636 H 625.789 0.88846 1.84303 0
M  V30 6637 H 625.799 -0.105263 4.07864 0
M  V30 6638 H 624.474 1.04586 4.02535 0
M  V30 6639 H 623.051 -0.747425 3.65333 0
M  V30 6640 N 625.236 -1.5273 0.388769 0
M  V30 6641 C 626.146 -2.30165 -0.453993 0
M  V30 6642 C 627.162 -1.37058 -1.07197 0
M  V30 6643 O 628.338 -1.70127 -1.0779 0
M  V30 6644 C 625.403 -3.09303 -1.56628 0
M  V30 6645 C 624.464 -4.18117 -0.973467 0
M  V30 6646 C 623.697 -4.93472 -2.03275 0
M  V30 6647 O 623.92 -4.68913 -3.24772 0
M  V30 6648 O 622.854 -5.78833 -1.65034 0
M  V30 6649 H 626.68 -3.03185 0.176816 0
M  V30 6650 H 624.265 -1.4862 0.152501 0
M  V30 6651 H 626.147 -3.58648 -2.21246 0
M  V30 6652 H 624.822 -2.39098 -2.18206 0
M  V30 6653 H 623.729 -3.7297 -0.290556 0
M  V30 6654 H 625.062 -4.90556 -0.401908 0
M  V30 6655 N 626.714 -0.118576 -1.57153 0
M  V30 6656 C 627.624 0.845484 -2.18835 0
M  V30 6657 C 628.64 1.29299 -1.16438 0
M  V30 6658 O 629.816 1.35607 -1.48905 0
M  V30 6659 C 626.881 2.07795 -2.77529 0
M  V30 6660 C 625.942 1.6824 -3.9496 0
M  V30 6661 C 625.175 2.85612 -4.50845 0
M  V30 6662 O 625.398 4.01025 -4.05629 0
M  V30 6663 O 624.332 2.62721 -5.41536 0
M  V30 6664 H 628.158 0.350568 -3.0167 0
M  V30 6665 H 625.743 0.107013 -1.49016 0
M  V30 6666 H 627.625 2.79978 -3.14945 0
M  V30 6667 H 626.3 2.56294 -1.97725 0
M  V30 6668 H 625.207 0.931663 -3.62313 0
M  V30 6669 H 626.54 1.24484 -4.76198 0
M  V30 6670 N 628.193 1.56834 0.155195 0
M  V30 6671 C 629.103 2.009 1.21146 0
M  V30 6672 C 630.119 0.923029 1.475 0
M  V30 6673 O 631.295 1.23189 1.59331 0
M  V30 6674 C 628.36 2.37378 2.52691 0
M  V30 6675 C 627.421 3.59883 2.34057 0
M  V30 6676 C 626.654 3.94612 3.59329 0
M  V30 6677 O 626.877 3.30104 4.65175 0
M  V30 6678 O 625.811 4.87895 3.52479 0
M  V30 6679 H 629.637 2.9105 0.867371 0
M  V30 6680 H 627.222 1.44916 0.363298 0
M  V30 6681 H 629.104 2.61737 3.3026 0
M  V30 6682 H 627.779 1.50385 2.86646 0
M  V30 6683 H 626.686 3.40722 1.54465 0
M  V30 6684 H 628.019 4.47468 2.0502 0
M  V30 6685 N 629.671 -0.424282 1.51781 0
M  V30 6686 C 630.919 -1.17028 1.64769 0
M  V30 6687 C 631.24 -1.91409 0.372523 0
M  V30 6688 O 630.51 -1.86091 -0.612108 0
M  V30 6689 H 629.09 -0.434992 0.607282 0
M  V30 6690 H 631.752 -0.485169 1.88765 0
M  V30 6691 H 630.848 -1.8927 2.4816 0
M  V30 6692 N 631.149 -1.42148 -0.680565 0
M  V30 6693 C 632.059 -1.47565 -1.82378 0
M  V30 6694 C 633.075 -0.36489 -1.70131 0
M  V30 6695 O 634.251 -0.614916 -1.91783 0
M  V30 6696 C 631.316 -1.37013 -3.18478 0
M  V30 6697 C 630.377 -2.58532 -3.42724 0
M  V30 6698 C 629.61 -2.48473 -4.72331 0
M  V30 6699 O 629.833 -1.51745 -5.49845 0
M  V30 6700 O 628.767 -3.38503 -4.97694 0
M  V30 6701 H 632.593 -2.44045 -1.80764 0
M  V30 6702 H 630.178 -1.23849 -0.835569 0
M  V30 6703 H 632.06 -1.33468 -3.99705 0
M  V30 6704 H 630.735 -0.436552 -3.20743 0
M  V30 6705 H 629.642 -2.67652 -2.61368 0
M  V30 6706 H 630.975 -3.50769 -3.45286 0
M  V30 6707 N 632.627 0.916307 -1.28225 0
M  V30 6708 C 633.875 1.6619 -1.15002 0
M  V30 6709 C 634.196 1.92642 0.302329 0
M  V30 6710 O 633.466 1.54076 1.20985 0
M  V30 6711 H 632.046 0.615964 -0.422608 0
M  V30 6712 H 634.708 1.09963 -1.60917 0
M  V30 6713 H 633.804 2.62533 -1.68769 0
M  V30 6714 N 634.105 1.10431 1.1244 0
M  V30 6715 C 635.353 0.845045 1.83585 0
M  V30 6716 C 635.674 -0.631168 1.84503 0
M  V30 6717 O 634.944 -1.45825 1.30813 0
M  V30 6718 H 633.524 0.309628 0.679809 0
M  V30 6719 H 636.186 1.39458 1.36153 0
M  V30 6720 H 635.282 1.20786 2.8778 0
M  V30 6721 N 635.583 -1.29855 0.893053 0
M  V30 6722 C 636.999 -1.48366 0.588199 0
M  V30 6723 C 637.199 -1.81654 -0.872018 0
M  V30 6724 O 636.255 -1.909 -1.65268 0
M  V30 6725 C 637.568 -2.60136 1.5083 0
M  V30 6726 C 639.116 -2.74014 1.51279 0
M  V30 6727 C 639.591 -3.88905 2.41902 0
M  V30 6728 N 641.082 -3.96228 2.39911 0
M  V30 6729 C 641.817 -4.84458 3.06738 0
M  V30 6730 N 641.313 -5.77426 3.8282 0
M  V30 6731 N 643.106 -4.77894 2.95929 0
M  V30 6732 H 635.257 -1.06522 1.83757 0
M  V30 6733 H 637.52 -0.528495 0.787018 0
M  V30 6734 H 637.226 -2.42383 2.54839 0
M  V30 6735 H 637.1 -3.56793 1.22388 0
M  V30 6736 H 639.487 -2.91167 0.480179 0
M  V30 6737 H 639.568 -1.77952 1.83757 0
M  V30 6738 H 639.212 -3.72508 3.45253 0
M  V30 6739 H 639.142 -4.84322 2.06737 0
M  V30 6740 H 641.633 -3.29728 1.84629 0
M  V30 6741 H 641.946 -6.41529 4.30883 0
M  V30 6742 H 640.291 -5.77332 3.86927 0
M  V30 6743 H 643.482 -4.04248 2.36012 0
M  V30 6744 H 643.655 -5.46444 3.48286 0
M  V30 6745 N 637.061 -0.65484 -1.43351 0
M  V30 6746 C 638.008 0.0357713 -2.30772 0
M  V30 6747 C 638.978 0.813035 -1.44841 0
M  V30 6748 O 640.163 0.789314 -1.73708 0
M  V30 6749 C 637.303 0.995084 -3.30442 0
M  V30 6750 C 636.416 0.21375 -4.31471 0
M  V30 6751 C 635.551 1.16701 -5.18222 0
M  V30 6752 C 634.59 0.376201 -6.10943 0
M  V30 6753 N 633.727 1.28113 -6.90313 0
M  V30 6754 H 638.567 -0.71559 -2.89281 0
M  V30 6755 H 636.104 -0.364645 -1.42509 0
M  V30 6756 H 638.062 1.5649 -3.86739 0
M  V30 6757 H 636.692 1.7133 -2.7358 0
M  V30 6758 H 635.744 -0.472377 -3.77456 0
M  V30 6759 H 637.056 -0.401103 -4.97185 0
M  V30 6760 H 636.21 1.8074 -5.79153 0
M  V30 6761 H 634.949 1.81577 -4.52638 0
M  V30 6762 H 633.954 -0.277534 -5.49099 0
M  V30 6763 H 635.179 -0.268178 -6.7857 0
M  V30 6764 H 633.125 1.91666 -6.27376 0
M  V30 6765 H 633.042 0.720879 -7.52555 0
M  V30 6766 H 634.31 1.90962 -7.55747 0
M  V30 6767 N 638.539 1.52521 -0.396863 0
M  V30 6768 C 639.487 2.28217 0.44943 0
M  V30 6769 C 640.481 1.32416 1.05652 0
M  V30 6770 O 641.687 1.49925 0.996124 0
M  V30 6771 H 638.062 0.733966 0.1637 0
M  V30 6772 H 640.033 2.97658 -0.210367 0
M  V30 6773 C 638.782 3.10713 1.56054 0
M  V30 6774 H 638.105 3.84291 1.10273 0
M  V30 6775 H 639.545 3.66803 2.12677 0
M  V30 6776 C 638.004 2.23499 2.52091 0
M  V30 6777 O 638.534 1.8669 3.55682 0
M  V30 6778 N 636.74 1.8751 2.2201 0
M  V30 6779 H 636.287 2.17643 1.37802 0
M  V30 6780 H 636.245 1.29448 2.86514 0
M  V30 6781 N 640.017 0.126909 1.57088 0
M  V30 6782 C 641.242 -0.53997 2.00248 0
M  V30 6783 C 641.667 -1.58927 1.00618 0
M  V30 6784 O 641.025 -1.81288 -0.0210131 0
M  V30 6785 C 641.073 -1.13565 3.4225 0
M  V30 6786 O 640.177 -2.25103 3.45547 0
M  V30 6787 H 639.518 -0.13412 0.650314 0
M  V30 6788 H 642.048 0.217718 2.03438 0
M  V30 6789 H 642.058 -1.46925 3.80627 0
M  V30 6790 H 640.733 -0.367122 4.14277 0
M  V30 6791 H 639.31 -1.93123 3.18995 0
M  V30 6792 N 641.495 -1.56914 -0.146875 0
M  V30 6793 C 642.72 -1.87881 -0.878386 0
M  V30 6794 C 643.145 -0.715945 -1.73942 0
M  V30 6795 O 642.503 0.334447 -1.78189 0
M  V30 6796 C 642.551 -3.17431 -1.71084 0
M  V30 6797 O 641.655 -3.01374 -2.81509 0
M  V30 6798 H 640.996 -0.617289 -0.244644 0
M  V30 6799 H 643.526 -2.04136 -0.137654 0
M  V30 6800 H 643.536 -3.49455 -2.10582 0
M  V30 6801 H 642.211 -4.01671 -1.07856 0
M  V30 6802 H 640.788 -2.80758 -2.45416 0
M  V30 6803 N 642.974 0.416227 -1.52004 0
M  V30 6804 C 643.922 1.5272 -1.7544 0
M  V30 6805 C 644.916 1.57596 -0.621289 0
M  V30 6806 O 646.122 1.61087 -0.803172 0
M  V30 6807 H 642.497 0.507772 -0.554682 0
M  V30 6808 H 644.468 1.30136 -2.68528 0
M  V30 6809 C 643.217 2.90165 -1.91571 0
M  V30 6810 H 642.54 2.87154 -2.78178 0
M  V30 6811 H 643.98 3.67211 -2.11972 0
M  V30 6812 C 642.439 3.29947 -0.680942 0
M  V30 6813 O 642.969 4.01403 0.154527 0
M  V30 6814 N 641.175 2.8593 -0.518894 0
M  V30 6815 H 640.722 2.2795 -1.19986 0
M  V30 6816 H 640.68 3.12907 0.305985 0
M  V30 6817 N 644.452 1.42507 0.673017 0
M  V30 6818 C 645.699 1.43072 1.43306 0
M  V30 6819 C 646.027 0.0478004 1.94441 0
M  V30 6820 O 645.282 -0.944106 1.71421 0
M  V30 6821 C 645.581 2.40351 2.64511 0
M  V30 6822 C 645.247 3.8669 2.31908 0
M  V30 6823 C 643.909 4.26551 2.22728 0
M  V30 6824 C 646.261 4.78991 2.05467 0
M  V30 6825 C 643.589 5.56691 1.85234 0
M  V30 6826 C 645.941 6.09476 1.69477 0
M  V30 6827 C 644.605 6.48334 1.58808 0
M  V30 6828 H 643.875 0.523536 0.524395 0
M  V30 6829 H 646.522 1.75459 0.76723 0
M  V30 6830 H 644.827 2.01297 3.36135 0
M  V30 6831 H 646.524 2.38051 3.22696 0
M  V30 6832 H 643.114 3.55132 2.39956 0
M  V30 6833 H 647.298 4.48982 2.11492 0
M  V30 6834 H 642.554 5.85657 1.75545 0
M  V30 6835 H 646.728 6.80482 1.48043 0
M  V30 6836 H 644.355 7.49084 1.29525 0
M  V30 6837 N 645.93 -0.909495 1.28709 0
M  V30 6838 C 646.877 -2.01245 1.13 0
M  V30 6839 C 647.847 -1.6608 0.0259684 0
M  V30 6840 O 649.032 -1.89835 0.191687 0
M  V30 6841 C 646.172 -3.35644 0.802315 0
M  V30 6842 C 645.285 -3.83653 1.98582 0
M  V30 6843 C 644.42 -5.06582 1.59837 0
M  V30 6844 C 643.459 -5.46934 2.74827 0
M  V30 6845 N 642.596 -6.61053 2.36546 0
M  V30 6846 H 647.436 -2.14013 2.0737 0
M  V30 6847 H 644.973 -1.0482 1.03205 0
M  V30 6848 H 646.931 -4.12963 0.593057 0
M  V30 6849 H 645.561 -3.22631 -0.104457 0
M  V30 6850 H 644.613 -3.02454 2.30708 0
M  V30 6851 H 645.925 -4.09515 2.84779 0
M  V30 6852 H 645.079 -5.91457 1.35143 0
M  V30 6853 H 643.818 -4.82537 0.707753 0
M  V30 6854 H 642.823 -4.60599 3.00215 0
M  V30 6855 H 644.048 -5.72965 3.64538 0
M  V30 6856 H 641.994 -6.3863 1.49959 0
M  V30 6857 H 641.911 -6.86662 3.16277 0
M  V30 6858 H 643.179 -7.49221 2.15146 0
M  V30 6859 N 647.408 -1.11026 -1.11852 0
M  V30 6860 C 648.355 -0.764662 -2.17765 0
M  V30 6861 C 649.325 0.261854 -1.64023 0
M  V30 6862 O 650.51 0.139748 -1.90288 0
M  V30 6863 C 647.65 -0.209317 -3.44465 0
M  V30 6864 C 646.763 -1.29187 -4.12231 0
M  V30 6865 C 645.898 -0.697523 -5.266 0
M  V30 6866 C 644.937 -1.76023 -5.86244 0
M  V30 6867 N 644.074 -1.18569 -6.92016 0
M  V30 6868 H 648.914 -1.67202 -2.46673 0
M  V30 6869 H 646.451 -0.835065 -1.21099 0
M  V30 6870 H 648.409 0.130599 -4.16996 0
M  V30 6871 H 647.039 0.661251 -3.15955 0
M  V30 6872 H 646.091 -1.74881 -3.37818 0
M  V30 6873 H 647.403 -2.09607 -4.52622 0
M  V30 6874 H 646.557 -0.307412 -6.05921 0
M  V30 6875 H 645.296 0.138044 -4.87505 0
M  V30 6876 H 644.301 -2.1597 -5.05606 0
M  V30 6877 H 645.526 -2.59875 -6.27409 0
M  V30 6878 H 643.472 -0.371695 -6.54946 0
M  V30 6879 H 643.389 -1.92666 -7.31038 0
M  V30 6880 H 644.657 -0.82233 -7.7515 0
M  V30 6881 N 648.886 1.2938 -0.899927 0
M  V30 6882 C 649.849 2.25983 -0.382677 0
M  V30 6883 C 650.849 1.53366 0.483259 0
M  V30 6884 O 652.039 1.71798 0.28828 0
M  V30 6885 C 649.171 3.37878 0.452915 0
M  V30 6886 H 650.364 2.73252 -1.23586 0
M  V30 6887 H 647.917 1.40825 -0.678088 0
M  V30 6888 H 648.652 2.95949 1.32608 0
M  V30 6889 H 648.437 3.91742 -0.167562 0
M  V30 6890 H 649.927 4.09746 0.806107 0
M  V30 6891 N 650.364 0.662433 1.43002 0
M  V30 6892 C 651.311 -0.0235324 2.30788 0
M  V30 6893 C 652.281 -0.805342 1.4527 0
M  V30 6894 O 653.466 -0.78009 1.74124 0
M  V30 6895 C 650.606 -0.977545 3.30965 0
M  V30 6896 C 649.719 -0.190865 4.31578 0
M  V30 6897 C 648.854 -1.13951 5.18834 0
M  V30 6898 C 647.893 -0.343796 6.11134 0
M  V30 6899 N 647.03 -1.2445 6.90982 0
M  V30 6900 H 651.87 0.730921 2.88897 0
M  V30 6901 H 649.407 0.372197 1.42313 0
M  V30 6902 H 651.365 -1.54437 3.87563 0
M  V30 6903 H 649.995 -1.69877 2.74484 0
M  V30 6904 H 649.047 0.492388 3.772 0
M  V30 6905 H 650.359 0.427464 4.96965 0
M  V30 6906 H 649.513 -1.77666 5.80103 0
M  V30 6907 H 648.252 -1.79174 4.53595 0
M  V30 6908 H 647.257 0.30665 5.48944 0
M  V30 6909 H 648.482 0.304161 6.78419 0
M  V30 6910 H 646.428 -1.88336 6.28383 0
M  V30 6911 H 646.345 -0.680959 7.52927 0
M  V30 6912 H 647.613 -1.86952 7.56749 0
M  V30 6913 N 651.842 -1.52309 0.404946 0
M  V30 6914 C 653.258 -1.59503 0.0556255 0
M  V30 6915 C 653.458 -1.41805 -1.43156 0
M  V30 6916 O 652.514 -1.2429 -2.19792 0
M  V30 6917 C 653.827 -2.95687 0.546801 0
M  V30 6918 C 655.375 -3.08909 0.504413 0
M  V30 6919 C 655.85 -4.47566 0.97203 0
M  V30 6920 N 657.341 -4.53795 0.928679 0
M  V30 6921 C 658.076 -5.59346 1.26174 0
M  V30 6922 N 657.572 -6.72469 1.66604 0
M  V30 6923 N 659.365 -5.49532 1.18198 0
M  V30 6924 H 651.516 -1.6206 1.37296 0
M  V30 6925 H 653.779 -0.762161 0.563751 0
M  V30 6926 H 653.485 -3.13905 1.58609 0
M  V30 6927 H 653.359 -3.77172 -0.0457905 0
M  V30 6928 H 655.746 -2.90378 -0.525819 0
M  V30 6929 H 655.827 -2.2934 1.13301 0
M  V30 6930 H 655.471 -4.6684 2.00057 0
M  V30 6931 H 655.401 -5.25625 0.320292 0
M  V30 6932 H 657.892 -3.72588 0.631369 0
M  V30 6933 H 658.205 -7.48993 1.9034 0
M  V30 6934 H 656.55 -6.73761 1.70504 0
M  V30 6935 H 659.741 -4.60038 0.865011 0
M  V30 6936 H 659.914 -6.31687 1.44485 0
M  V30 6937 N 653.32 -0.135238 -1.57019 0
M  V30 6938 C 654.566 0.519563 -1.96032 0
M  V30 6939 C 654.899 1.65284 -1.01955 0
M  V30 6940 O 654.174 1.94408 -0.059727 0
M  V30 6941 C 654.457 1.0369 -3.44848 0
M  V30 6942 C 654.31 -0.0940754 -4.49702 0
M  V30 6943 C 655.629 1.92254 -3.95887 0
M  V30 6944 H 652.748 0.18739 -0.712779 0
M  V30 6945 H 655.39 -0.214086 -1.8879 0
M  V30 6946 H 653.54 1.66209 -3.5115 0
M  V30 6947 H 655.212 -0.73 -4.55487 0
M  V30 6948 H 653.455 -0.754924 -4.27181 0
M  V30 6949 H 654.126 0.309419 -5.51132 0
M  V30 6950 H 656.602 1.39581 -3.9199 0
M  V30 6951 H 655.478 2.25364 -5.00502 0
M  V30 6952 H 655.739 2.85513 -3.37543 0
M  V30 6953 N 654.798 1.5699 0.138552 0
M  V30 6954 C 655.745 1.98899 1.17081 0
M  V30 6955 C 656.715 0.857922 1.42228 0
M  V30 6956 O 657.9 1.12065 1.54422 0
M  V30 6957 C 655.04 2.38189 2.4972 0
M  V30 6958 C 654.153 3.64624 2.31674 0
M  V30 6959 C 653.288 3.9298 3.57407 0
M  V30 6960 C 652.327 5.1266 3.34435 0
M  V30 6961 N 651.464 5.36983 4.5232 0
M  V30 6962 H 656.304 2.86881 0.80642 0
M  V30 6963 H 653.841 1.41925 0.386727 0
M  V30 6964 H 655.799 2.59 3.2707 0
M  V30 6965 H 654.429 1.53275 2.84089 0
M  V30 6966 H 653.481 3.51542 1.45337 0
M  V30 6967 H 654.793 4.52131 2.10664 0
M  V30 6968 H 653.947 4.14335 4.43183 0
M  V30 6969 H 652.686 3.03912 3.8143 0
M  V30 6970 H 651.691 4.9117 2.47048 0
M  V30 6971 H 652.916 6.03288 3.11802 0
M  V30 6972 H 650.862 4.50871 4.76499 0
M  V30 6973 H 650.779 6.18775 4.34343 0
M  V30 6974 H 652.047 5.62842 5.39285 0
M  V30 6975 N 656.276 -0.40816 1.52223 0
M  V30 6976 C 657.504 -1.17672 1.70179 0
M  V30 6977 C 657.919 -1.84257 0.411696 0
M  V30 6978 O 657.276 -1.7192 -0.612354 0
M  V30 6979 C 657.327 -2.23911 2.83806 0
M  V30 6980 O 657.048 -1.60044 4.0782 0
M  V30 6981 C 658.549 -3.1364 3.13281 0
M  V30 6982 H 655.769 -0.353562 0.570293 0
M  V30 6983 H 658.313 -0.480083 1.98785 0
M  V30 6984 H 656.468 -2.89242 2.57717 0
M  V30 6985 H 656.882 -2.30484 4.71145 0
M  V30 6986 H 658.356 -3.84255 3.96298 0
M  V30 6987 H 658.833 -3.76066 2.26872 0
M  V30 6988 H 659.439 -2.53977 3.41139 0
M  V30 6989 N 657.755 -1.42862 -0.66545 0
M  V30 6990 C 658.665 -1.49491 -1.80803 0
M  V30 6991 C 659.681 -0.382914 -1.69734 0
M  V30 6992 O 660.857 -0.635223 -1.9112 0
M  V30 6993 C 657.922 -1.40383 -3.17007 0
M  V30 6994 C 656.983 -2.62152 -3.39963 0
M  V30 6995 C 656.216 -2.53469 -4.69669 0
M  V30 6996 O 656.439 -1.57568 -5.48205 0
M  V30 6997 O 655.373 -3.43763 -4.94075 0
M  V30 6998 H 659.199 -2.45949 -1.78165 0
M  V30 6999 H 656.784 -1.24728 -0.822387 0
M  V30 7000 H 658.666 -1.377 -3.98267 0
M  V30 7001 H 657.341 -0.470546 -3.20262 0
M  V30 7002 H 656.248 -2.70409 -2.58515 0
M  V30 7003 H 657.581 -3.54411 -3.41546 0
M  V30 7004 N 659.233 0.902656 -1.29189 0
M  V30 7005 C 660.51 1.63296 -1.07674 0
M  V30 7006 C 660.89 2.07649 0.380137 0
M  V30 7007 O 660.238 1.82997 1.36837 0
M  V30 7008 C 660.448 2.81603 -2.06158 0
M  V30 7009 C 661.796 3.52359 -2.36914 0
M  V30 7010 O 662.82 2.91767 -2.04329 0
M  V30 7011 O 661.679 4.61586 -2.92576 0
M  V30 7012 H 658.773 0.716889 -0.41231 0
M  V30 7013 H 661.319 0.950984 -1.4055 0
M  V30 7014 H 660.091 2.46004 -3.04299 0
M  V30 7015 H 659.714 3.57508 -1.73993 0
M  V30 7016 N 660.711 1.11618 1.11262 0
M  V30 7017 C 661.621 0.78898 2.20935 0
M  V30 7018 C 662.637 -0.21867 1.7262 0
M  V30 7019 O 663.813 -0.0543826 2.01327 0
M  V30 7020 C 660.878 0.239014 3.45875 0
M  V30 7021 C 659.939 1.3055 4.08968 0
M  V30 7022 C 659.172 0.781687 5.27944 0
M  V30 7023 O 659.395 -0.387605 5.69082 0
M  V30 7024 O 658.329 1.54734 5.81671 0
M  V30 7025 H 662.155 1.70477 2.51339 0
M  V30 7026 H 659.74 0.892203 1.19834 0
M  V30 7027 H 661.622 -0.0632312 4.21353 0
M  V30 7028 H 660.297 -0.649454 3.17118 0
M  V30 7029 H 659.204 1.66079 3.35214 0
M  V30 7030 H 660.537 2.16743 4.41909 0
M  V30 7031 N 662.189 -1.289 0.906776 0
M  V30 7032 C 663.136 -2.2751 0.388313 0
M  V30 7033 C 664.106 -1.57301 -0.533439 0
M  V30 7034 O 665.291 -1.85243 -0.457148 0
M  V30 7035 C 662.431 -3.43091 -0.37181 0
M  V30 7036 C 661.544 -4.28066 0.581647 0
M  V30 7037 C 660.679 -5.30837 -0.19623 0
M  V30 7038 C 659.718 -6.07472 0.751294 0
M  V30 7039 N 658.855 -7.021 0.00737727 0
M  V30 7040 H 663.695 -2.71237 1.23428 0
M  V30 7041 H 661.232 -1.33397 0.619962 0
M  V30 7042 H 663.19 -4.08888 -0.828641 0
M  V30 7043 H 661.82 -3.00374 -1.18218 0
M  V30 7044 H 660.872 -3.62378 1.157 0
M  V30 7045 H 662.184 -4.81382 1.30665 0
M  V30 7046 H 661.338 -6.02485 -0.71394 0
M  V30 7047 H 660.077 -4.78272 -0.954324 0
M  V30 7048 H 659.082 -5.34682 1.28044 0
M  V30 7049 H 660.307 -6.62126 1.50883 0
M  V30 7050 H 658.253 -6.51894 -0.732854 0
M  V30 7051 H 658.17 -7.53004 0.672334 0
M  V30 7052 H 659.438 -7.77956 -0.490365 0
M  V30 7053 N 663.667 -0.670007 -1.42649 0
M  V30 7054 C 664.577 0.0114788 -2.34597 0
M  V30 7055 C 665.593 0.794055 -1.54825 0
M  V30 7056 O 666.769 0.737472 -1.87412 0
M  V30 7057 C 663.834 0.954436 -3.33304 0
M  V30 7058 C 662.895 0.166925 -4.28975 0
M  V30 7059 C 662.128 1.06497 -5.22967 0
M  V30 7060 O 662.351 2.30446 -5.21777 0
M  V30 7061 O 661.285 0.528347 -5.99577 0
M  V30 7062 H 665.111 -0.745794 -2.944 0
M  V30 7063 H 662.696 -0.430228 -1.43071 0
M  V30 7064 H 664.578 1.49589 -3.93956 0
M  V30 7065 H 663.253 1.69164 -2.7598 0
M  V30 7066 H 662.16 -0.418515 -3.71752 0
M  V30 7067 H 663.493 -0.531067 -4.89327 0
M  V30 7068 N 665.145 1.52092 -0.413018 0
M  V30 7069 C 666.092 2.27119 0.410558 0
M  V30 7070 C 667.062 1.29692 1.03774 0
M  V30 7071 O 668.247 1.58561 1.06128 0
M  V30 7072 C 665.387 3.09863 1.51918 0
M  V30 7073 C 664.5 4.22252 0.912528 0
M  V30 7074 C 663.635 4.92348 1.99417 0
M  V30 7075 C 662.674 5.96694 1.36466 0
M  V30 7076 N 661.811 6.60292 2.38661 0
M  V30 7077 H 666.651 2.97067 -0.235661 0
M  V30 7078 H 664.188 1.46542 -0.128055 0
M  V30 7079 H 666.146 3.56144 2.17295 0
M  V30 7080 H 664.776 2.42078 2.13537 0
M  V30 7081 H 663.828 3.80113 0.147697 0
M  V30 7082 H 665.14 4.9709 0.412717 0
M  V30 7083 H 664.294 5.42054 2.72512 0
M  V30 7084 H 663.033 4.17087 2.52764 0
M  V30 7085 H 662.038 5.46304 0.61906 0
M  V30 7086 H 663.263 6.73899 0.838827 0
M  V30 7087 H 661.209 5.87858 2.91134 0
M  V30 7088 H 661.126 7.30816 1.93503 0
M  V30 7089 H 662.394 7.14635 3.11314 0
M  V30 7090 N 666.623 0.143563 1.56945 0
M  V30 7091 C 667.9 -0.553285 1.87612 0
M  V30 7092 C 668.28 -1.83195 1.04894 0
M  V30 7093 O 667.628 -2.28102 0.134773 0
M  V30 7094 C 667.838 -0.822055 3.3918 0
M  V30 7095 C 669.186 -1.16435 4.08324 0
M  V30 7096 O 670.21 -0.911522 3.4434 0
M  V30 7097 O 669.069 -1.63996 5.21313 0
M  V30 7098 H 666.163 -0.281851 0.777489 0
M  V30 7099 H 668.709 0.179916 1.68744 0
M  V30 7100 H 667.481 0.0830265 3.91212 0
M  V30 7101 H 667.104 -1.60956 3.63564 0
M  V30 7102 N 668.101 -1.57061 -0.130224 0
M  V30 7103 C 669.512 -1.73539 -0.68856 0
M  V30 7104 C 669.863 -0.760554 -1.80859 0
M  V30 7105 O 668.988 0.0690796 -2.1629 0
M  V30 7106 C 669.583 -3.14666 -1.25581 0
M  V30 7107 C 668.142 -3.32689 -1.76055 0
M  V30 7108 C 667.289 -2.69436 -0.655712 0
M  V30 7109 H 670.24 -1.58412 0.0956002 0
M  V30 7110 H 670.261 -3.15595 -2.12556 0
M  V30 7111 H 669.773 -3.85593 -0.440412 0
M  V30 7112 H 667.874 -2.66786 -2.60108 0
M  V30 7113 H 667.987 -4.4077 -1.87772 0
M  V30 7114 H 666.351 -2.30362 -1.08654 0
M  V30 7115 H 667.134 -3.42979 0.14852 0
M  V30 7116 N 669.579 0.400081 -1.52437 0
M  V30 7117 C 670.489 1.51253 -1.79331 0
M  V30 7118 C 671.505 1.60188 -0.679396 0
M  V30 7119 O 672.681 1.76733 -0.965791 0
M  V30 7120 C 669.746 2.869 -1.94652 0
M  V30 7121 C 668.807 2.87777 -3.18564 0
M  V30 7122 C 668.04 4.16954 -3.33145 0
M  V30 7123 O 668.263 5.11329 -2.52783 0
M  V30 7124 O 667.197 4.2487 -4.26343 0
M  V30 7125 H 671.023 1.31461 -2.73773 0
M  V30 7126 H 668.608 0.586834 -1.37392 0
M  V30 7127 H 670.49 3.67336 -2.065 0
M  V30 7128 H 669.165 3.06741 -1.034 0
M  V30 7129 H 668.072 2.06162 -3.12167 0
M  V30 7130 H 669.405 2.72886 -4.09627 0
M  V30 7131 N 671.057 1.43213 0.657864 0
M  V30 7132 C 671.967 1.50448 1.80007 0
M  V30 7133 C 672.983 0.39191 1.69529 0
M  V30 7134 O 674.159 0.645349 1.90781 0
M  V30 7135 C 671.224 1.42062 3.16258 0
M  V30 7136 C 670.285 2.63951 3.38568 0
M  V30 7137 C 669.518 2.55956 4.68318 0
M  V30 7138 O 669.741 1.60473 5.47361 0
M  V30 7139 O 668.675 3.46378 4.92245 0
M  V30 7140 H 672.501 2.4689 1.76858 0
M  V30 7141 H 670.086 1.25163 0.81576 0
M  V30 7142 H 671.968 1.3981 3.97531 0
M  V30 7143 H 670.643 0.487524 3.20008 0
M  V30 7144 H 669.55 2.71776 2.57077 0
M  V30 7145 H 670.883 3.56217 3.39662 0
M  V30 7146 N 672.536 -0.895792 1.29666 0
M  V30 7147 C 673.483 -2.00035 1.15129 0
M  V30 7148 C 674.453 -1.66043 0.0435819 0
M  V30 7149 O 675.638 -1.89621 0.211811 0
M  V30 7150 C 672.778 -3.34774 0.83787 0
M  V30 7151 C 671.891 -3.81525 2.0264 0
M  V30 7152 C 671.026 -5.04858 1.65201 0
M  V30 7153 C 670.065 -5.43988 2.80612 0
M  V30 7154 N 669.202 -6.58507 2.43544 0
M  V30 7155 H 674.042 -2.11802 2.09628 0
M  V30 7156 H 671.579 -1.03719 1.04311 0
M  V30 7157 H 673.537 -4.12311 0.636824 0
M  V30 7158 H 672.167 -3.22724 -0.0702314 0
M  V30 7159 H 671.219 -2.9999 2.33903 0
M  V30 7160 H 672.531 -4.06472 2.89106 0
M  V30 7161 H 671.685 -5.8999 1.41408 0
M  V30 7162 H 670.424 -4.81759 0.758893 0
M  V30 7163 H 669.429 -4.57388 3.05083 0
M  V30 7164 H 670.654 -5.69066 3.70595 0
M  V30 7165 H 668.6 -6.37004 1.56724 0
M  V30 7166 H 668.517 -6.83269 3.23542 0
M  V30 7167 H 669.785 -7.46897 2.2308 0
M  V30 7168 N 674.014 -1.12206 -1.10668 0
M  V30 7169 C 674.961 -0.787716 -2.16942 0
M  V30 7170 C 675.931 0.244442 -1.64291 0
M  V30 7171 O 677.116 0.119558 -1.90425 0
M  V30 7172 C 674.256 -0.24584 -3.44223 0
M  V30 7173 C 673.369 -1.33552 -4.10838 0
M  V30 7174 C 672.504 -0.753337 -5.25831 0
M  V30 7175 C 671.543 -1.82231 -5.84344 0
M  V30 7176 N 670.68 -1.25902 -6.90719 0
M  V30 7177 H 675.52 -1.69809 -2.44885 0
M  V30 7178 H 673.057 -0.847862 -1.20207 0
M  V30 7179 H 675.015 0.0863639 -4.17111 0
M  V30 7180 H 673.645 0.627702 -3.16638 0
M  V30 7181 H 672.697 -1.78454 -3.35944 0
M  V30 7182 H 674.009 -2.14396 -4.50373 0
M  V30 7183 H 673.163 -0.37166 -6.05561 0
M  V30 7184 H 671.902 0.0863297 -4.87624 0
M  V30 7185 H 670.907 -2.2132 -5.03287 0
M  V30 7186 H 672.132 -2.66515 -6.24617 0
M  V30 7187 H 670.078 -0.44114 -6.54515 0
M  V30 7188 H 669.995 -2.00408 -7.28953 0
M  V30 7189 H 671.263 -0.904498 -7.74235 0
M  V30 7190 N 675.492 1.28418 -0.913599 0
M  V30 7191 C 676.402 2.31043 -0.406965 0
M  V30 7192 C 677.418 1.66501 0.505298 0
M  V30 7193 O 678.594 1.97558 0.391522 0
M  V30 7194 C 675.659 3.4498 0.344901 0
M  V30 7195 C 674.72 4.25078 -0.600563 0
M  V30 7196 C 673.953 5.33575 0.115516 0
M  V30 7197 O 674.176 5.54503 1.33727 0
M  V30 7198 O 673.11 5.9939 -0.549095 0
M  V30 7199 H 676.936 2.76387 -1.25873 0
M  V30 7200 H 674.521 1.33109 -0.678415 0
M  V30 7201 H 676.403 4.14314 0.769542 0
M  V30 7202 H 675.078 3.01719 1.1725 0
M  V30 7203 H 673.985 3.58334 -1.0746 0
M  V30 7204 H 675.318 4.72018 -1.39497 0
M  V30 7205 N 676.97 0.677563 1.42291 0
M  V30 7206 C 678.216 0.201272 2.01799 0
M  V30 7207 C 678.549 -1.19004 1.53465 0
M  V30 7208 O 677.824 -1.79953 0.738039 0
M  V30 7209 C 678.107 0.238968 3.59306 0
M  V30 7210 C 677.96 1.66594 4.17812 0
M  V30 7211 C 679.279 -0.411287 4.38174 0
M  V30 7212 H 676.398 0.0746114 0.733214 0
M  V30 7213 H 679.04 0.862872 1.69276 0
M  V30 7214 H 677.19 -0.324368 3.87144 0
M  V30 7215 H 678.862 2.28173 4.00917 0
M  V30 7216 H 677.105 2.20576 3.73536 0
M  V30 7217 H 677.776 1.64398 5.26951 0
M  V30 7218 H 680.252 0.0682804 4.16044 0
M  V30 7219 H 679.128 -0.354286 5.47755 0
M  V30 7220 H 679.389 -1.4893 4.1626 0
M  V30 7221 N 678.448 -1.51871 0.421078 0
M  V30 7222 C 679.676 -2.06356 -0.14994 0
M  V30 7223 C 680.091 -1.29006 -1.37851 0
M  V30 7224 O 679.448 -0.345139 -1.79207 0
M  V30 7225 C 679.499 -3.58185 -0.488454 0
M  V30 7226 O 679.22 -4.32611 0.691341 0
M  V30 7227 C 680.721 -4.29129 -1.11191 0
M  V30 7228 H 677.941 -0.67083 -0.0151186 0
M  V30 7229 H 680.485 -1.95638 0.595476 0
M  V30 7230 H 678.64 -3.68871 -1.18376 0
M  V30 7231 H 679.054 -5.22927 0.405906 0
M  V30 7232 H 680.528 -5.36501 -1.29889 0
M  V30 7233 H 681.005 -3.86371 -2.0884 0
M  V30 7234 H 681.611 -4.22843 -0.456458 0
M  V30 7235 N 679.926 -0.151884 -1.56866 0
M  V30 7236 C 680.836 0.798876 -2.20579 0
M  V30 7237 C 681.852 1.268 -1.19154 0
M  V30 7238 O 683.028 1.32418 -1.51748 0
M  V30 7239 C 680.093 2.01861 -2.81874 0
M  V30 7240 C 679.154 1.59825 -3.9844 0
M  V30 7241 C 678.387 2.75984 -4.56802 0
M  V30 7242 O 678.61 3.92331 -4.14044 0
M  V30 7243 O 677.544 2.51175 -5.46987 0
M  V30 7244 H 681.37 0.2865 -3.02346 0
M  V30 7245 H 678.955 0.0753806 -1.4921 0
M  V30 7246 H 680.837 2.73235 -3.20813 0
M  V30 7247 H 679.512 2.52042 -2.03117 0
M  V30 7248 H 678.419 0.854601 -3.64208 0
M  V30 7249 H 679.752 1.14355 -4.78731 0
M  V30 7250 N 681.404 1.57128 0.121893 0
M  V30 7251 C 682.314 2.03425 1.16857 0
M  V30 7252 C 683.33 0.954108 1.45509 0
M  V30 7253 O 684.506 1.26541 1.56682 0
M  V30 7254 C 681.571 2.42685 2.47599 0
M  V30 7255 C 680.632 3.64767 2.2637 0
M  V30 7256 C 679.865 4.02145 3.50878 0
M  V30 7257 O 680.088 3.39897 4.58068 0
M  V30 7258 O 679.022 4.95262 3.42051 0
M  V30 7259 H 682.848 2.92825 0.80544 0
M  V30 7260 H 680.433 1.45654 0.332477 0
M  V30 7261 H 682.315 2.68684 3.24634 0
M  V30 7262 H 680.99 1.56432 2.83392 0
M  V30 7263 H 679.897 3.43922 1.47203 0
M  V30 7264 H 681.23 4.51716 1.95482 0
M  V30 7265 N 682.882 -0.391992 1.52647 0
M  V30 7266 C 683.792 -1.503 1.80131 0
M  V30 7267 C 684.808 -1.59825 0.687882 0
M  V30 7268 O 685.984 -1.76218 0.975149 0
M  V30 7269 C 683.049 -2.85863 1.96171 0
M  V30 7270 C 682.11 -2.86084 3.20085 0
M  V30 7271 C 681.343 -4.15181 3.35351 0
M  V30 7272 O 681.566 -5.09981 2.55491 0
M  V30 7273 O 680.5 -4.22603 4.28591 0
M  V30 7274 H 684.326 -1.30007 2.74466 0
M  V30 7275 H 681.911 -0.579539 1.37701 0
M  V30 7276 H 683.793 -3.66236 2.08445 0
M  V30 7277 H 682.468 -3.06189 1.05025 0
M  V30 7278 H 681.375 -2.04504 3.13256 0
M  V30 7279 H 682.708 -2.7071 4.11068 0
M  V30 7280 N 684.36 -1.4356 -0.65026 0
M  V30 7281 C 685.307 -1.48948 -1.76304 0
M  V30 7282 C 686.277 -0.338919 -1.62605 0
M  V30 7283 O 687.462 -0.54649 -1.82806 0
M  V30 7284 C 684.602 -1.42131 -3.14472 0
M  V30 7285 C 683.715 -2.67415 -3.39284 0
M  V30 7286 C 682.85 -2.52565 -4.67316 0
M  V30 7287 C 681.889 -3.73103 -4.85243 0
M  V30 7288 N 681.026 -3.57046 -6.04535 0
M  V30 7289 H 685.866 -2.44032 -1.71034 0
M  V30 7290 H 683.403 -1.21131 -0.834601 0
M  V30 7291 H 685.361 -1.36172 -3.94351 0
M  V30 7292 H 683.991 -0.506273 -3.18805 0
M  V30 7293 H 683.043 -2.8364 -2.53481 0
M  V30 7294 H 684.355 -3.56943 -3.48415 0
M  V30 7295 H 683.509 -2.44331 -5.55326 0
M  V30 7296 H 682.248 -1.60566 -4.60511 0
M  V30 7297 H 681.253 -3.81743 -3.95667 0
M  V30 7298 H 682.478 -4.66115 -4.93876 0
M  V30 7299 H 680.424 -2.67783 -5.98856 0
M  V30 7300 H 680.341 -4.40178 -6.14638 0
M  V30 7301 H 681.609 -3.52669 -6.95158 0
M  V30 7302 N 685.838 0.888903 -1.30139 0
M  V30 7303 C 687.066 1.67358 -1.21651 0
M  V30 7304 C 687.481 1.87499 0.221246 0
M  V30 7305 O 686.838 1.41969 1.14677 0
M  V30 7306 C 686.889 3.05213 -1.93719 0
M  V30 7307 O 686.61 2.85984 -3.31881 0
M  V30 7308 C 688.111 3.9964 -1.9184 0
M  V30 7309 H 685.331 0.522365 -0.42116 0
M  V30 7310 H 687.875 1.11086 -1.71698 0
M  V30 7311 H 686.03 3.5823 -1.4748 0
M  V30 7312 H 686.444 3.73411 -3.68327 0
M  V30 7313 H 687.918 4.93749 -2.46811 0
M  V30 7314 H 688.395 4.29955 -0.896409 0
M  V30 7315 H 689.001 3.52558 -2.37872 0
M  V30 7316 N 687.317 1.12792 1.10072 0
M  V30 7317 C 688.264 0.79921 2.16521 0
M  V30 7318 C 689.234 -0.235726 1.64419 0
M  V30 7319 O 690.419 -0.109457 1.90486 0
M  V30 7320 C 687.559 0.264091 3.44088 0
M  V30 7321 C 686.672 1.35729 4.10124 0
M  V30 7322 C 685.807 0.781212 5.25424 0
M  V30 7323 C 684.846 1.85327 5.8337 0
M  V30 7324 N 683.983 1.29564 6.90042 0
M  V30 7325 H 688.823 1.71105 2.43981 0
M  V30 7326 H 686.36 0.854225 1.19756 0
M  V30 7327 H 688.318 -0.0642423 4.17151 0
M  V30 7328 H 686.948 -0.610901 3.16967 0
M  V30 7329 H 686 1.80234 3.34993 0
M  V30 7330 H 687.312 2.16782 4.4923 0
M  V30 7331 H 686.466 0.403769 6.05355 0
M  V30 7332 H 685.205 -0.0604686 4.87663 0
M  V30 7333 H 684.21 2.23986 5.02106 0
M  V30 7334 H 685.435 2.69824 6.23195 0
M  V30 7335 H 683.381 0.475844 6.54272 0
M  V30 7336 H 683.298 2.04271 7.2788 0
M  V30 7337 H 684.566 0.945545 7.73744 0
M  V30 7338 N 688.795 -1.27931 0.920396 0
M  V30 7339 C 689.705 -2.30824 0.419212 0
M  V30 7340 C 690.721 -1.66767 -0.496461 0
M  V30 7341 O 691.897 -1.97763 -0.38104 0
M  V30 7342 C 688.962 -3.45158 -0.326601 0
M  V30 7343 C 688.023 -4.24754 0.623098 0
M  V30 7344 C 687.256 -5.33629 -0.0872172 0
M  V30 7345 O 687.479 -5.55204 -1.30784 0
M  V30 7346 O 686.413 -5.99091 0.580875 0
M  V30 7347 H 690.239 -2.75716 1.27337 0
M  V30 7348 H 687.824 -1.32747 0.685465 0
M  V30 7349 H 689.706 -4.14716 -0.747559 0
M  V30 7350 H 688.381 -3.02336 -1.15648 0
M  V30 7351 H 687.288 -3.57759 1.09359 0
M  V30 7352 H 688.621 -4.71272 1.41998 0
M  V30 7353 N 690.273 -0.685099 -1.4193 0
M  V30 7354 C 691.183 -0.013404 -2.34596 0
M  V30 7355 C 692.199 0.777589 -1.55658 0
M  V30 7356 O 693.375 0.717553 -1.88184 0
M  V30 7357 C 690.44 0.919031 -3.34297 0
M  V30 7358 C 689.501 0.121417 -4.29128 0
M  V30 7359 C 688.734 1.00944 -5.24067 0
M  V30 7360 O 688.957 2.24898 -5.24192 0
M  V30 7361 O 687.891 0.464724 -6.00103 0
M  V30 7362 H 691.717 -0.776978 -2.93593 0
M  V30 7363 H 689.302 -0.445379 -1.42607 0
M  V30 7364 H 691.184 1.45402 -3.9552 0
M  V30 7365 H 689.859 1.66228 -2.77759 0
M  V30 7366 H 688.766 -0.45792 -3.71287 0
M  V30 7367 H 690.099 -0.582937 -4.88736 0
M  V30 7368 N 691.751 1.51645 -0.429126 0
M  V30 7369 C 692.698 2.27542 0.386446 0
M  V30 7370 C 693.668 1.30786 1.02393 0
M  V30 7371 O 694.853 1.59678 1.0444 0
M  V30 7372 C 691.993 3.11457 1.48623 0
M  V30 7373 C 691.106 4.23196 0.867691 0
M  V30 7374 C 690.241 4.94435 1.94183 0
M  V30 7375 C 689.28 5.98108 1.30129 0
M  V30 7376 N 688.417 6.62786 2.31644 0
M  V30 7377 H 693.257 2.968 -0.267155 0
M  V30 7378 H 690.794 1.46397 -0.143591 0
M  V30 7379 H 692.752 3.58429 2.13506 0
M  V30 7380 H 691.382 2.44329 2.10957 0
M  V30 7381 H 690.434 3.80248 0.107373 0
M  V30 7382 H 691.746 4.97499 0.35997 0
M  V30 7383 H 690.9 5.44914 2.66747 0
M  V30 7384 H 689.639 4.19744 2.48326 0
M  V30 7385 H 688.644 5.4693 0.561082 0
M  V30 7386 H 689.869 6.74751 0.767303 0
M  V30 7387 H 687.815 5.90913 2.84883 0
M  V30 7388 H 687.732 7.32828 1.85741 0
M  V30 7389 H 689 7.17897 3.03717 0
M  V30 7390 N 693.229 0.160201 1.56784 0
M  V30 7391 C 694.64 -0.358417 1.83227 0
M  V30 7392 C 694.991 -1.63831 1.07952 0
M  V30 7393 O 694.116 -2.13885 0.328995 0
M  V30 7394 C 694.711 -0.657058 3.32368 0
M  V30 7395 C 693.27 -1.12015 3.59346 0
M  V30 7396 C 692.417 -0.15015 2.76893 0
M  V30 7397 H 695.368 0.384669 1.53967 0
M  V30 7398 H 695.389 -1.51033 3.49241 0
M  V30 7399 H 694.901 0.274647 3.87127 0
M  V30 7400 H 693.002 -2.06734 3.09987 0
M  V30 7401 H 693.115 -1.037 4.67743 0
M  V30 7402 H 691.479 -0.645361 2.46388 0
M  V30 7403 H 692.262 0.775379 3.34429 0
M  V30 7404 N 694.707 -1.5719 -0.113559 0
M  V30 7405 C 695.617 -2.04041 -1.15777 0
M  V30 7406 C 696.633 -0.961812 -1.45001 0
M  V30 7407 O 697.809 -1.2737 -1.56009 0
M  V30 7408 C 694.874 -2.43994 -2.46308 0
M  V30 7409 C 693.935 -3.65962 -2.24433 0
M  V30 7410 C 693.168 -4.04 -3.4874 0
M  V30 7411 O 693.391 -3.42321 -4.56259 0
M  V30 7412 O 692.325 -4.97069 -3.3942 0
M  V30 7413 H 696.151 -2.93248 -0.789899 0
M  V30 7414 H 693.736 -1.45828 -0.324748 0
M  V30 7415 H 695.618 -2.70401 -3.23204 0
M  V30 7416 H 694.293 -1.57932 -2.82558 0
M  V30 7417 H 693.2 -3.44697 -1.45377 0
M  V30 7418 H 694.533 -4.52746 -1.93084 0
M  V30 7419 N 696.185 0.383891 -1.52853 0
M  V30 7420 C 697.148 1.45197 -1.77343 0
M  V30 7421 C 698.148 1.47362 -0.643522 0
M  V30 7422 O 699.338 1.48443 -0.911613 0
M  V30 7423 C 696.47 2.8445 -1.87885 0
M  V30 7424 H 697.663 1.24764 -2.72716 0
M  V30 7425 H 695.216 0.615939 -1.43652 0
M  V30 7426 H 695.951 3.10222 -0.94515 0
M  V30 7427 H 695.736 2.8428 -2.70051 0
M  V30 7428 H 697.226 3.61832 -2.08488 0
M  V30 7429 N 697.663 1.43903 0.642637 0
M  V30 7430 C 698.61 1.49881 1.75512 0
M  V30 7431 C 699.58 0.347538 1.62423 0
M  V30 7432 O 700.765 0.556177 1.82514 0
M  V30 7433 C 697.905 1.43797 3.13714 0
M  V30 7434 C 697.018 2.6921 3.37861 0
M  V30 7435 C 696.153 2.5504 4.6597 0
M  V30 7436 C 695.192 3.75671 4.83257 0
M  V30 7437 N 694.329 3.60247 6.02633 0
M  V30 7438 H 699.169 2.44935 1.69737 0
M  V30 7439 H 696.706 1.21572 0.828165 0
M  V30 7440 H 698.664 1.38262 3.93624 0
M  V30 7441 H 697.294 0.523173 3.18532 0
M  V30 7442 H 696.346 2.8498 2.51973 0
M  V30 7443 H 697.658 3.58786 3.46517 0
M  V30 7444 H 696.812 2.47273 5.54023 0
M  V30 7445 H 695.551 1.63006 4.59653 0
M  V30 7446 H 694.556 3.83836 3.93637 0
M  V30 7447 H 695.781 4.68728 4.91397 0
M  V30 7448 H 693.727 2.70955 5.97427 0
M  V30 7449 H 693.644 4.43431 6.12295 0
M  V30 7450 H 694.912 3.56351 6.93278 0
M  V30 7451 N 699.141 -0.881989 1.30609 0
M  V30 7452 C 700.389 -1.63082 1.19368 0
M  V30 7453 C 700.71 -1.93376 -0.251147 0
M  V30 7454 O 699.98 -1.5723 -1.16857 0
M  V30 7455 H 698.56 -0.604542 0.438791 0
M  V30 7456 H 701.222 -1.05658 1.63776 0
M  V30 7457 H 700.318 -2.57966 1.7567 0
M  V30 7458 N 700.619 -1.13374 -1.09472 0
M  V30 7459 C 701.865 -0.896516 -1.81908 0
M  V30 7460 C 702.198 0.575933 -1.85463 0
M  V30 7461 O 701.473 1.42618 -1.32251 0
M  V30 7462 C 701.756 -1.48445 -3.28079 0
M  V30 7463 C 701.609 -3.02598 -3.32798 0
M  V30 7464 C 702.928 -1.15226 -4.24748 0
M  V30 7465 H 700.047 -0.327127 -0.660422 0
M  V30 7466 H 702.689 -1.40195 -1.2824 0
M  V30 7467 H 700.839 -1.0546 -3.73912 0
M  V30 7468 H 702.511 -3.54335 -2.95372 0
M  V30 7469 H 700.754 -3.37613 -2.72397 0
M  V30 7470 H 701.425 -3.38835 -4.3577 0
M  V30 7471 H 703.901 -1.52369 -3.87199 0
M  V30 7472 H 702.777 -1.59012 -5.25363 0
M  V30 7473 H 703.038 -0.0658891 -4.42051 0
M  V30 7474 N 702.098 1.27442 -0.927168 0
M  V30 7475 C 703.045 2.26863 -0.424459 0
M  V30 7476 C 704.015 1.5813 0.508346 0
M  V30 7477 O 705.2 1.85946 0.42762 0
M  V30 7478 C 702.34 3.43639 0.31718 0
M  V30 7479 C 701.453 4.27087 -0.649675 0
M  V30 7480 C 700.588 5.31082 0.111753 0
M  V30 7481 C 699.627 6.062 -0.847843 0
M  V30 7482 N 698.764 7.01999 -0.119074 0
M  V30 7483 H 703.604 2.69239 -1.27728 0
M  V30 7484 H 701.141 1.32394 -0.641106 0
M  V30 7485 H 703.099 4.10155 0.763486 0
M  V30 7486 H 701.729 3.02217 1.13424 0
M  V30 7487 H 700.781 3.60491 -1.21451 0
M  V30 7488 H 702.093 4.79242 -1.38307 0
M  V30 7489 H 701.247 6.03544 0.618 0
M  V30 7490 H 699.986 4.7973 0.878114 0
M  V30 7491 H 698.991 5.32577 -1.36534 0
M  V30 7492 H 700.216 6.59642 -1.61398 0
M  V30 7493 H 698.162 6.52977 0.629051 0
M  V30 7494 H 698.079 7.5184 -0.792046 0
M  V30 7495 H 699.347 7.78638 0.366537 0
M  V30 7496 N 703.576 0.692616 1.41565 0
M  V30 7497 C 704.486 0.0258451 2.34586 0
M  V30 7498 C 705.502 -0.769324 1.56069 0
M  V30 7499 O 706.678 -0.707563 1.88562 0
M  V30 7500 C 703.743 -0.901289 3.3478 0
M  V30 7501 C 702.804 -0.0986579 4.29187 0
M  V30 7502 C 702.037 -0.981634 5.24595 0
M  V30 7503 O 702.26 -2.22115 5.25377 0
M  V30 7504 O 701.194 -0.432892 6.00341 0
M  V30 7505 H 705.02 0.792537 2.93177 0
M  V30 7506 H 702.605 0.452935 1.42369 0
M  V30 7507 H 704.487 -1.43302 3.96286 0
M  V30 7508 H 703.162 -1.64752 2.78637 0
M  V30 7509 H 702.069 0.477604 3.71039 0
M  V30 7510 H 703.402 0.608848 4.8842 0
M  V30 7511 N 705.054 -1.51416 0.437162 0
M  V30 7512 C 705.964 -2.31493 -0.380537 0
M  V30 7513 C 706.98 -1.40399 -1.02782 0
M  V30 7514 O 708.156 -1.73471 -1.02323 0
M  V30 7515 C 705.221 -3.1413 -1.46709 0
M  V30 7516 C 704.282 -4.21003 -0.839953 0
M  V30 7517 C 703.515 -4.9969 -1.87473 0
M  V30 7518 O 703.738 -4.79008 -3.09689 0
M  V30 7519 O 702.672 -5.8379 -1.46536 0
M  V30 7520 H 706.498 -3.02469 0.273183 0
M  V30 7521 H 704.083 -1.48059 0.199706 0
M  V30 7522 H 705.965 -3.65505 -2.09724 0
M  V30 7523 H 704.64 -2.45919 -2.10489 0
M  V30 7524 H 703.547 -3.73706 -0.171752 0
M  V30 7525 H 704.88 -4.91587 -0.245638 0
M  V30 7526 N 706.532 -0.168513 -1.56696 0
M  V30 7527 C 707.778 0.477865 -1.9709 0
M  V30 7528 C 708.111 1.63084 -1.05438 0
M  V30 7529 O 707.386 1.94238 -0.10095 0
M  V30 7530 C 707.669 0.963521 -3.4697 0
M  V30 7531 C 707.522 -0.189443 -4.49401 0
M  V30 7532 C 708.841 1.83813 -3.99876 0
M  V30 7533 H 705.96 0.172229 -0.716593 0
M  V30 7534 H 708.602 -0.254083 -1.88293 0
M  V30 7535 H 706.752 1.58724 -3.54597 0
M  V30 7536 H 708.424 -0.826451 -4.53836 0
M  V30 7537 H 706.667 -0.845366 -4.25483 0
M  V30 7538 H 707.338 0.192446 -5.51664 0
M  V30 7539 H 709.814 1.31235 -3.94863 0
M  V30 7540 H 708.69 2.14697 -5.0517 0
M  V30 7541 H 708.951 2.78289 -3.43523 0
M  V30 7542 N 708.01 1.57248 0.105221 0
M  V30 7543 C 708.957 2.01338 1.12835 0
M  V30 7544 C 709.927 0.887897 1.40377 0
M  V30 7545 O 711.112 1.15315 1.5201 0
M  V30 7546 C 708.252 2.43432 2.44611 0
M  V30 7547 C 707.365 3.69457 2.23888 0
M  V30 7548 C 706.5 4.00473 3.48991 0
M  V30 7549 C 705.539 5.19638 3.23485 0
M  V30 7550 N 704.676 5.46457 4.40828 0
M  V30 7551 H 709.516 2.88527 0.745386 0
M  V30 7552 H 707.053 1.42714 0.356535 0
M  V30 7553 H 709.011 2.65879 3.21503 0
M  V30 7554 H 707.641 1.59266 2.80774 0
M  V30 7555 H 706.693 3.54545 1.37847 0
M  V30 7556 H 708.005 4.56497 2.01026 0
M  V30 7557 H 707.159 4.23642 4.34295 0
M  V30 7558 H 705.898 3.11935 3.74897 0
M  V30 7559 H 704.903 4.96299 2.36574 0
M  V30 7560 H 706.128 6.09766 2.98935 0
M  V30 7561 H 704.074 4.60876 4.66829 0
M  V30 7562 H 703.991 6.27849 4.2112 0
M  V30 7563 H 705.259 5.74155 5.27225 0
M  V30 7564 N 709.488 -0.375779 1.53054 0
M  V30 7565 C 710.418 -1.46598 1.81745 0
M  V30 7566 C 711.399 -1.56337 0.670286 0
M  V30 7567 O 712.584 -1.71071 0.919158 0
M  V30 7568 C 709.714 -2.84058 1.99821 0
M  V30 7569 C 708.668 -2.8915 3.15557 0
M  V30 7570 C 707.994 -4.29187 3.18908 0
M  V30 7571 C 709.294 -2.57595 4.54359 0
M  V30 7572 H 710.988 -1.22837 2.73041 0
M  V30 7573 H 708.534 -0.589485 1.31381 0
M  V30 7574 H 710.487 -3.60342 2.18475 0
M  V30 7575 H 709.211 -3.09184 1.05226 0
M  V30 7576 H 707.87 -2.15316 2.96706 0
M  V30 7577 H 707.518 -4.51374 2.2197 0
M  V30 7578 H 707.218 -4.33512 3.96662 0
M  V30 7579 H 708.742 -5.07359 3.39734 0
M  V30 7580 H 710.156 -3.23595 4.73243 0
M  V30 7581 H 708.553 -2.73252 5.34279 0
M  V30 7582 H 709.623 -1.52882 4.60169 0
M  V30 7583 N 710.966 -1.44241 -0.634997 0
M  V30 7584 C 711.929 -1.50457 -1.72903 0
M  V30 7585 C 712.929 -0.387058 -1.56072 0
M  V30 7586 O 714.119 -0.649531 -1.61638 0
M  V30 7587 C 711.251 -1.37477 -3.1195 0
M  V30 7588 H 712.444 -2.47907 -1.68767 0
M  V30 7589 H 709.997 -1.31276 -0.84831 0
M  V30 7590 H 710.732 -0.41106 -3.21684 0
M  V30 7591 H 710.517 -2.18506 -3.25573 0
M  V30 7592 H 712.007 -1.44799 -3.91692 0
M  V30 7593 O 712.483 0.778386 -1.41504 0
M  V30 7594 H 713.174 1.42532 -1.31165 0
M  V30 END ATOM
M  V30 BEGIN BOND
M  V30 END BOND
M  V30 END CTAB
M  END
$$$$
