drugbank_drug|DB13133 von Willebrand factor<<<
 OpenBabel12092119113D

  0  0  0     0  0            999 V3000
M  V30 BEGIN CTAB
M  V30 COUNTS 42325 42788 0 0 0
M  V30 BEGIN ATOM
M  V30 1 H -0.908 1.98254 -0.117106 0
M  V30 2 N 0 1.576 0 0
M  V30 3 C 0.933 2.03868 1.02534 0
M  V30 4 C 1.911 0.928543 1.3348 0
M  V30 5 O 3.095 1.19667 1.45644 0
M  V30 6 C 0.222 2.43627 2.35294 0
M  V30 7 C -0.732 3.65373 2.2001 0
M  V30 8 S 0.101 5.13292 1.52614 0
M  V30 9 C 1.257 5.56322 2.86805 0
M  V30 10 H 1.49 2.90518 0.631377 0
M  V30 11 H -0.977 1.52953 0.210867 0
M  V30 12 H 0.981 2.67203 3.11629 0
M  V30 13 H -0.358 1.57376 2.7183 0
M  V30 14 H -1.165 3.90944 3.18086 0
M  V30 15 H -1.563 3.418 1.51819 0
M  V30 16 H 0.729 5.58782 3.83104 0
M  V30 17 H 1.672 6.56266 2.65933 0
M  V30 18 H 2.08 4.83886 2.90714 0
M  V30 19 N 1.4781 -0.272755 1.55222 0
M  V30 20 C 2.7271 -1.00211 1.75045 0
M  V30 21 C 3.0401 -1.87441 0.559046 0
M  V30 22 O 4.2461 -2.63856 0.639698 0
M  V30 23 C 2.7021 -1.83165 3.09804 0
M  V30 24 C 2.3101 -1.008 4.36513 0
M  V30 25 C 4.0541 -2.55529 3.38977 0
M  V30 26 C 1.9611 -1.83194 5.62311 0
M  V30 27 H 0.8911 -0.377878 0.652476 0
M  V30 28 H 3.5421 -0.257776 1.8168 0
M  V30 29 H 1.9241 -2.61694 2.97207 0
M  V30 30 H 3.0981 -0.266855 4.60027 0
M  V30 31 H 1.4131 -0.398897 4.14485 0
M  V30 32 H 4.0101 -3.17578 4.30172 0
M  V30 33 H 4.3531 -3.25825 2.59121 0
M  V30 34 H 4.8861 -1.84029 3.52673 0
M  V30 35 H 1.6251 -1.17318 6.44916 0
M  V30 36 H 1.1451 -2.54905 5.4294 0
M  V30 37 H 2.8241 -2.40552 6.00619 0
M  V30 38 N 2.9562 -1.48159 -0.537278 0
M  V30 39 C 4.3672 -1.49429 -1.11928 0
M  V30 40 C 4.7182 -0.26 -1.9447 0
M  V30 41 O 3.8432 0.633489 -2.0692 0
M  V30 42 C 4.4382 -2.70758 -2.03656 0
M  V30 43 C 2.9972 -2.74923 -2.57088 0
M  V30 44 C 2.1442 -2.42835 -1.3389 0
M  V30 45 H 5.0952 -1.55381 -0.322886 0
M  V30 46 H 5.1162 -2.48861 -2.87834 0
M  V30 47 H 4.6282 -3.60575 -1.43553 0
M  V30 48 H 2.7292 -1.89296 -3.20933 0
M  V30 49 H 2.8422 -3.76157 -2.9672 0
M  V30 50 H 1.2062 -1.93836 -1.65226 0
M  V30 51 H 1.9892 -3.34884 -0.755504 0
M  V30 52 N 4.4343 0.785586 -1.36625 0
M  V30 53 C 5.3973 1.87999 -1.31107 0
M  V30 54 C 6.3973 1.59316 -0.217959 0
M  V30 55 O 7.5873 1.67656 -0.472977 0
M  V30 56 C 4.7193 3.24861 -1.03334 0
M  V30 57 H 5.9123 1.94307 -2.2844 0
M  V30 58 H 3.4653 0.983813 -1.21453 0
M  V30 59 H 4.2003 3.24235 -0.0647432 0
M  V30 60 H 3.9853 3.4707 -1.82441 0
M  V30 61 H 5.4753 4.04929 -1.02088 0
M  V30 62 N 5.9124 1.20967 1.01018 0
M  V30 63 C 7.3284 0.965905 1.27053 0
M  V30 64 C 7.5284 -0.350785 1.98423 0
M  V30 65 O 6.5844 -1.07773 2.28344 0
M  V30 66 C 7.8974 2.15294 2.09926 0
M  V30 67 C 9.4454 2.19463 2.23171 0
M  V30 68 C 9.9204 3.3767 3.09424 0
M  V30 69 N 11.4114 3.37724 3.17012 0
M  V30 70 C 12.1464 4.25837 3.83993 0
M  V30 71 N 11.6424 5.24138 4.53047 0
M  V30 72 N 13.4354 4.1366 3.80581 0
M  V30 73 H 5.5864 2.0565 0.531194 0
M  V30 74 H 7.8494 0.90024 0.297106 0
M  V30 75 H 7.5554 3.10684 1.64828 0
M  V30 76 H 7.4294 2.13923 3.10672 0
M  V30 77 H 9.8164 1.24632 2.6749 0
M  V30 78 H 9.8974 2.2488 1.21912 0
M  V30 79 H 9.5414 4.32791 2.65808 0
M  V30 80 H 9.4714 3.29491 4.10784 0
M  V30 81 H 11.9624 2.6658 2.6785 0
M  V30 82 H 12.2754 5.87684 5.01844 0
M  V30 83 H 10.6204 5.28068 4.5185 0
M  V30 84 H 13.8114 3.36127 3.25785 0
M  V30 85 H 13.9844 4.82538 4.32505 0
M  V30 86 N 7.3905 -1.2043 1.01659 0
M  V30 87 C 8.6375 -1.89797 0.705917 0
M  V30 88 C 8.9655 -1.78848 -0.764439 0
M  V30 89 O 8.2205 -1.16694 -1.57102 0
M  V30 90 C 8.5195 -3.40464 1.08714 0
M  V30 91 C 8.1855 -3.71614 2.5537 0
M  V30 92 C 6.8475 -3.79826 2.95441 0
M  V30 93 C 9.1995 -3.85915 3.50313 0
M  V30 94 C 6.5275 -3.99797 4.29394 0
M  V30 95 C 8.8795 -4.07396 4.83954 0
M  V30 96 C 7.5435 -4.13837 5.23732 0
M  V30 97 H 6.8135 -0.694518 0.258313 0
M  V30 98 H 9.4605 -1.42691 1.27717 0
M  V30 99 H 7.7655 -3.89385 0.434309 0
M  V30 100 H 9.4625 -3.92433 0.824461 0
M  V30 101 H 6.0525 -3.65822 2.23321 0
M  V30 102 H 10.2365 -3.78926 3.20513 0
M  V30 103 H 5.4925 -4.03018 4.59768 0
M  V30 104 H 9.6665 -4.17404 5.57447 0
M  V30 105 H 7.2935 -4.29064 6.27541 0
M  V30 106 N 8.8686 -0.792821 -1.36206 0
M  V30 107 C 9.8316 -0.199459 -2.2833 0
M  V30 108 C 10.8316 0.605189 -1.48977 0
M  V30 109 O 12.0216 0.425685 -1.68919 0
M  V30 110 C 9.1536 0.723523 -3.33134 0
M  V30 111 H 10.3466 -1.01181 -2.82316 0
M  V30 112 H 7.8996 -0.562485 -1.45828 0
M  V30 113 H 8.6346 1.56008 -2.84309 0
M  V30 114 H 8.4196 0.148436 -3.91819 0
M  V30 115 H 9.9096 1.13344 -4.01924 0
M  V30 116 N 10.3467 1.47872 -0.545128 0
M  V30 117 C 11.5947 2.02093 -0.016553 0
M  V30 118 C 11.9157 1.42305 1.3332 0
M  V30 119 O 11.1857 0.593853 1.86682 0
M  V30 120 H 9.7657 0.746993 -0.00313038 0
M  V30 121 H 12.4277 1.81414 -0.712397 0
M  V30 122 H 11.5237 3.11996 0.0805422 0
M  V30 123 N 11.8248 0.280983 1.55075 0
M  V30 124 C 13.0708 -0.33461 2.00021 0
M  V30 125 C 13.4038 -1.55063 1.16915 0
M  V30 126 O 12.6788 -1.93006 0.240646 0
M  V30 127 C 12.9618 -0.711007 3.53011 0
M  V30 128 C 12.8148 0.512766 4.46868 0
M  V30 129 C 14.1338 -1.54522 4.12081 0
M  V30 130 H 11.2528 -0.120147 0.727141 0
M  V30 131 H 13.8948 0.389097 1.85973 0
M  V30 132 H 12.0448 -1.32761 3.65112 0
M  V30 133 H 13.7168 1.15131 4.46702 0
M  V30 134 H 11.9598 1.14975 4.18286 0
M  V30 135 H 12.6308 0.205556 5.51617 0
M  V30 136 H 15.1068 -1.02442 4.03293 0
M  V30 137 H 13.9828 -1.77739 5.19327 0
M  V30 138 H 14.2438 -2.52813 3.62682 0
M  V30 139 N 13.3029 -1.57598 0.00835791 0
M  V30 140 C 14.2329 -2.1198 -0.979113 0
M  V30 141 C 15.2139 -1.03091 -1.35301 0
M  V30 142 O 16.3989 -1.30818 -1.43528 0
M  V30 143 C 13.5289 -2.62995 -2.26828 0
M  V30 144 C 12.4829 -3.76485 -2.03576 0
M  V30 145 C 11.8089 -4.13846 -3.38579 0
M  V30 146 C 13.1089 -5.0342 -1.39161 0
M  V30 147 H 14.8029 -2.94738 -0.526281 0
M  V30 148 H 12.3489 -1.41783 -0.251704 0
M  V30 149 H 14.3019 -2.99669 -2.96271 0
M  V30 150 H 13.0259 -1.7737 -2.7424 0
M  V30 151 H 11.6849 -3.40217 -1.36557 0
M  V30 152 H 11.3329 -3.25232 -3.83709 0
M  V30 153 H 11.0329 -4.90312 -3.23834 0
M  V30 154 H 12.5569 -4.53086 -4.09323 0
M  V30 155 H 13.9709 -5.37812 -1.98573 0
M  V30 156 H 12.3679 -5.84746 -1.34878 0
M  V30 157 H 13.4379 -4.83548 -0.361868 0
M  V30 158 N 14.781 0.264519 -1.55364 0
M  V30 159 C 15.711 1.33121 -1.91836 0
M  V30 160 C 16.692 1.51101 -0.781192 0
M  V30 161 O 17.877 1.64003 -1.04003 0
M  V30 162 C 15.007 2.68921 -2.19769 0
M  V30 163 C 13.961 2.65661 -3.35571 0
M  V30 164 C 13.287 4.05093 -3.49004 0
M  V30 165 C 14.587 2.24187 -4.71739 0
M  V30 166 H 16.281 1.02844 -2.81182 0
M  V30 167 H 13.827 0.493286 -1.35287 0
M  V30 168 H 15.78 3.43663 -2.43872 0
M  V30 169 H 14.504 3.00799 -1.27231 0
M  V30 170 H 13.163 1.93377 -3.1145 0
M  V30 171 H 12.811 4.34206 -2.53917 0
M  V30 172 H 12.511 4.03804 -4.26868 0
M  V30 173 H 14.035 4.81561 -3.75408 0
M  V30 174 H 15.449 2.88654 -4.9533 0
M  V30 175 H 13.846 2.34044 -5.52579 0
M  V30 176 H 14.916 1.19327 -4.69988 0
M  V30 177 N 16.2591 1.48442 0.529413 0
M  V30 178 C 17.2221 1.62524 1.61612 0
M  V30 179 C 18.2221 0.498509 1.52877 0
M  V30 180 O 19.4121 0.76431 1.56537 0
M  V30 181 C 16.5441 1.59597 3.01233 0
M  V30 182 H 17.7371 2.59423 1.50465 0
M  V30 183 H 15.2901 1.37047 0.751514 0
M  V30 184 H 16.0251 0.641781 3.17886 0
M  V30 185 H 15.8101 2.41397 3.08982 0
M  V30 186 H 17.3001 1.72646 3.80241 0
M  V30 187 N 17.7372 -0.778329 1.37039 0
M  V30 188 C 18.6672 -1.90546 1.34962 0
M  V30 189 C 19.6482 -1.68681 0.219274 0
M  V30 190 O 20.8332 -1.89634 0.418624 0
M  V30 191 C 17.9632 -3.27734 1.14925 0
M  V30 192 C 16.9172 -3.64147 2.24902 0
M  V30 193 C 16.2432 -4.99806 1.89996 0
M  V30 194 C 17.5432 -3.71579 3.67051 0
M  V30 195 H 19.2372 -1.92541 2.29277 0
M  V30 196 H 16.7832 -0.924948 1.10366 0
M  V30 197 H 18.7362 -4.06215 1.12104 0
M  V30 198 H 17.4602 -3.26154 0.170631 0
M  V30 199 H 16.1192 -2.8797 2.26868 0
M  V30 200 H 15.7672 -4.94759 0.906796 0
M  V30 201 H 15.4672 -5.25139 2.63634 0
M  V30 202 H 16.9912 -5.80694 1.88749 0
M  V30 203 H 18.4052 -4.40227 3.67251 0
M  V30 204 H 16.8022 -4.08405 4.39688 0
M  V30 205 H 17.8722 -2.72404 4.01154 0
M  V30 206 N 19.2153 -1.21501 -1.00376 0
M  V30 207 C 20.1783 -0.976927 -2.07337 0
M  V30 208 C 21.1783 0.0525322 -1.60714 0
M  V30 209 O 22.3683 -0.184869 -1.73216 0
M  V30 210 C 19.5003 -0.473423 -3.37597 0
M  V30 211 H 20.6933 -1.92587 -2.29892 0
M  V30 212 H 18.2463 -1.03217 -1.17371 0
M  V30 213 H 18.9813 0.480379 -3.20722 0
M  V30 214 H 18.7663 -1.216 -3.72768 0
M  V30 215 H 20.2563 -0.32675 -4.1632 0
M  V30 216 N 20.6934 1.19889 -1.02296 0
M  V30 217 C 21.6234 2.25141 -0.619174 0
M  V30 218 C 22.6044 1.66051 0.368915 0
M  V30 219 O 23.7894 1.92546 0.252941 0
M  V30 220 C 20.9194 3.4728 0.0368783 0
M  V30 221 C 19.8734 4.19005 -0.872865 0
M  V30 222 C 19.1994 5.34637 -0.0822402 0
M  V30 223 C 20.4994 4.74452 -2.18387 0
M  V30 224 H 22.1934 2.59171 -1.49903 0
M  V30 225 H 19.7394 1.24579 -0.722222 0
M  V30 226 H 21.6924 4.20098 0.330958 0
M  V30 227 H 20.4164 3.12433 0.95149 0
M  V30 228 H 19.0754 3.48061 -1.15105 0
M  V30 229 H 18.7234 4.96034 0.83422 0
M  V30 230 H 18.4234 5.83557 -0.688149 0
M  V30 231 H 19.9474 6.10255 0.205238 0
M  V30 232 H 21.3614 5.39055 -1.95172 0
M  V30 233 H 19.7584 5.33834 -2.74119 0
M  V30 234 H 20.8284 3.92844 -2.84257 0
M  V30 235 N 22.1715 0.800033 1.35784 0
M  V30 236 C 23.4205 0.37387 1.98205 0
M  V30 237 C 23.7335 -1.06302 1.64193 0
M  V30 238 O 24.9395 -1.59198 2.19928 0
M  V30 239 C 23.3955 0.617532 3.54562 0
M  V30 240 C 23.0035 2.06654 3.9749 0
M  V30 241 C 24.7475 0.256401 4.23725 0
M  V30 242 C 22.6545 2.2563 5.46667 0
M  V30 243 H 21.5845 0.136055 0.741623 0
M  V30 244 H 24.2355 0.983166 1.54939 0
M  V30 245 H 22.6175 -0.0616248 3.95952 0
M  V30 246 H 23.7915 2.78296 3.67271 0
M  V30 247 H 22.1065 2.38691 3.41197 0
M  V30 248 H 24.7035 0.376318 5.33374 0
M  V30 249 H 25.0465 -0.796692 4.08606 0
M  V30 250 H 25.5795 0.889214 3.87734 0
M  V30 251 H 22.3185 3.2936 5.66747 0
M  V30 252 H 21.8385 1.58504 5.78478 0
M  V30 253 H 23.5175 2.06861 6.1304 0
M  V30 254 N 23.6496 -1.47581 0.552962 0
M  V30 255 C 24.5796 -2.32762 -0.185451 0
M  V30 256 C 25.5606 -1.43527 -0.912905 0
M  V30 257 O 26.7456 -1.72388 -0.894201 0
M  V30 258 C 23.8756 -3.25219 -1.21859 0
M  V30 259 C 22.8296 -4.23661 -0.607864 0
M  V30 260 C 22.1556 -5.05413 -1.74533 0
M  V30 261 C 23.4556 -5.20481 0.435582 0
M  V30 262 H 25.1496 -2.94749 0.525684 0
M  V30 263 H 22.6956 -1.41738 0.254251 0
M  V30 264 H 24.6486 -3.8365 -1.7433 0
M  V30 265 H 23.3726 -2.61279 -1.95961 0
M  V30 266 H 22.0316 -3.66451 -0.104489 0
M  V30 267 H 21.6796 -4.3788 -2.47529 0
M  V30 268 H 21.3796 -5.72059 -1.34249 0
M  V30 269 H 22.9036 -5.66701 -2.27338 0
M  V30 270 H 24.3176 -5.733 -0.00290157 0
M  V30 271 H 22.7146 -5.95305 0.757067 0
M  V30 272 H 23.7846 -4.66217 1.33303 0
M  V30 273 N 25.1277 -0.289203 -1.54924 0
M  V30 274 C 26.5387 0.205791 -1.85562 0
M  V30 275 C 26.8897 1.54351 -1.2112 0
M  V30 276 O 26.0147 2.10435 -0.504601 0
M  V30 277 C 26.6097 0.380177 -3.3666 0
M  V30 278 C 25.1687 0.819395 -3.67373 0
M  V30 279 C 24.3157 -0.079159 -2.77187 0
M  V30 280 H 27.2667 -0.510577 -1.50262 0
M  V30 281 H 27.2877 1.21659 -3.60526 0
M  V30 282 H 26.7997 -0.593589 -3.83534 0
M  V30 283 H 24.9007 1.80413 -3.26009 0
M  V30 284 H 25.0137 0.646957 -4.74712 0
M  V30 285 H 23.3777 0.439565 -2.50878 0
M  V30 286 H 24.1607 -1.04906 -3.26878 0
M  V30 287 N 26.6058 1.57591 -0.0167156 0
M  V30 288 C 27.8538 1.90906 0.663285 0
M  V30 289 C 28.1748 0.892509 1.73376 0
M  V30 290 O 27.4448 -0.0677623 1.95783 0
M  V30 291 H 26.0248 0.704637 0.247983 0
M  V30 292 H 28.6868 1.94803 -0.0615909 0
M  V30 293 H 27.7828 2.9116 1.12393 0
M  V30 294 N 28.0839 -0.256276 1.55502 0
M  V30 295 C 29.3119 -1.00342 1.8094 0
M  V30 296 C 29.7269 -1.79307 0.59114 0
M  V30 297 O 29.0839 -1.77114 -0.440081 0
M  V30 298 C 29.1349 -1.94875 3.04476 0
M  V30 299 O 28.8559 -1.19107 4.21598 0
M  V30 300 C 30.3569 -2.81266 3.42644 0
M  V30 301 H 27.5769 -0.295685 0.602338 0
M  V30 302 H 30.1209 -0.281998 2.02546 0
M  V30 303 H 28.2759 -2.62457 2.84947 0
M  V30 304 H 28.6899 -1.82969 4.91551 0
M  V30 305 H 30.1639 -3.43362 4.32211 0
M  V30 306 H 30.6409 -3.51897 2.62802 0
M  V30 307 H 31.2469 -2.1915 3.64491 0
M  V30 308 N 29.562 -1.4872 -0.521534 0
M  V30 309 C 30.492 -1.66771 -1.63431 0
M  V30 310 C 31.473 -0.516499 -1.62069 0
M  V30 311 O 32.658 -0.750013 -1.79132 0
M  V30 312 C 29.788 -1.71515 -3.01993 0
M  V30 313 C 28.742 -2.86222 -3.18216 0
M  V30 314 C 28.068 -2.76061 -4.57924 0
M  V30 315 C 29.368 -4.27419 -3.00184 0
M  V30 316 H 31.062 -2.59932 -1.48579 0
M  V30 317 H 28.608 -1.25089 -0.713358 0
M  V30 318 H 30.561 -1.82731 -3.7972 0
M  V30 319 H 29.285 -0.749393 -3.17886 0
M  V30 320 H 27.944 -2.74575 -2.42908 0
M  V30 321 H 27.592 -1.77437 -4.70665 0
M  V30 322 H 27.292 -3.53037 -4.69722 0
M  V30 323 H 28.816 -2.89256 -5.37739 0
M  V30 324 H 30.23 -4.39855 -3.67697 0
M  V30 325 H 28.627 -5.05458 -3.2347 0
M  V30 326 H 29.697 -4.43293 -1.96518 0
M  V30 327 N 31.0401 0.771051 -1.3745 0
M  V30 328 C 32.2801 1.54264 -1.34096 0
M  V30 329 C 32.6441 1.91858 0.0737639 0
M  V30 330 O 33.8451 2.67797 0.23203 0
M  V30 331 C 32.1161 2.77326 -2.25445 0
M  V30 332 S 33.6751 3.67383 -2.39948 0
M  V30 333 H 30.4931 0.528122 -0.476034 0
M  V30 334 H 33.0951 0.906633 -1.73206 0
M  V30 335 H 31.7991 2.47788 -3.27153 0
M  V30 336 H 31.3301 3.45886 -1.87421 0
M  V30 337 H 33.3451 4.69334 -1.61059 0
M  V30 338 N 32.5182 1.22032 0.997298 0
M  V30 339 C 33.4812 0.987909 2.06816 0
M  V30 340 C 34.4812 -0.0440084 1.6074 0
M  V30 341 O 35.6712 0.194053 1.73116 0
M  V30 342 C 32.8032 0.49132 3.37341 0
M  V30 343 H 33.9962 1.93803 2.28868 0
M  V30 344 H 31.5492 1.03838 1.16822 0
M  V30 345 H 32.2842 -0.463364 3.20973 0
M  V30 346 H 32.0692 1.23575 3.72118 0
M  V30 347 H 33.5592 0.348824 4.16141 0
M  V30 348 N 33.9963 -1.19345 1.0293 0
M  V30 349 C 34.9063 -2.26245 0.620515 0
M  V30 350 C 35.9223 -1.70486 -0.347928 0
M  V30 351 O 37.0983 -2.00347 -0.205704 0
M  V30 352 C 34.1633 -3.46693 -0.0218957 0
M  V30 353 C 33.2243 -4.17632 0.994102 0
M  V30 354 C 32.4573 -5.32329 0.382253 0
M  V30 355 O 32.6803 -5.64552 -0.814676 0
M  V30 356 O 31.6143 -5.91664 1.10531 0
M  V30 357 H 35.4403 -2.63453 1.51083 0
M  V30 358 H 33.0253 -1.26207 0.799513 0
M  V30 359 H 34.9073 -4.19683 -0.380072 0
M  V30 360 H 33.5823 -3.11333 -0.886209 0
M  V30 361 H 32.4893 -3.4676 1.40387 0
M  V30 362 H 33.8223 -4.56964 1.8288 0
M  V30 363 N 35.4744 -0.807222 -1.35358 0
M  V30 364 C 36.7224 -0.387122 -1.98358 0
M  V30 365 C 37.0434 1.04942 -1.64354 0
M  V30 366 O 36.3134 1.72615 -0.926339 0
M  V30 367 H 34.8934 -0.140154 -0.733734 0
M  V30 368 H 37.5554 -1.0332 -1.6526 0
M  V30 369 H 36.6514 -0.493352 -3.08176 0
M  V30 370 N 36.9525 1.47285 -0.560781 0
M  V30 371 C 38.1805 2.06855 -0.0430262 0
M  V30 372 C 38.5955 1.41291 1.25229 0
M  V30 373 O 37.9525 0.510648 1.7521 0
M  V30 374 C 38.0035 3.61178 0.152518 0
M  V30 375 O 37.7245 4.24285 -1.0915 0
M  V30 376 C 39.2255 4.37624 0.707145 0
M  V30 377 H 36.4455 0.669319 -0.0474652 0
M  V30 378 H 38.9895 1.89237 -0.77521 0
M  V30 379 H 37.1445 3.78298 0.834843 0
M  V30 380 H 37.5585 5.16868 -0.891482 0
M  V30 381 H 39.0325 5.46271 0.793244 0
M  V30 382 H 39.5095 4.04152 1.71923 0
M  V30 383 H 40.1155 4.25257 0.0604027 0
M  V30 384 N 38.4306 0.297415 1.54768 0
M  V30 385 C 39.8466 -0.0560823 1.59501 0
M  V30 386 C 40.0466 -1.52725 1.31444 0
M  V30 387 O 39.1026 -2.27947 1.08611 0
M  V30 388 C 40.4156 0.338631 2.98787 0
M  V30 389 C 41.9636 0.287097 3.11681 0
M  V30 390 C 42.4386 0.656579 4.53269 0
M  V30 391 N 43.9296 0.608977 4.59179 0
M  V30 392 C 44.6646 0.867385 5.66802 0
M  V30 393 N 44.1606 1.19157 6.82476 0
M  V30 394 N 45.9536 0.794687 5.56454 0
M  V30 395 H 38.1046 1.25624 1.71267 0
M  V30 396 H 40.3676 0.509057 0.799728 0
M  V30 397 H 40.0736 1.36263 3.2423 0
M  V30 398 H 39.9476 -0.309508 3.75928 0
M  V30 399 H 42.3346 -0.727649 2.85988 0
M  V30 400 H 42.4156 0.969809 2.36703 0
M  V30 401 H 42.0596 1.66912 4.7969 0
M  V30 402 H 41.9896 -0.0481649 5.26578 0
M  V30 403 H 44.4806 0.369198 3.76092 0
M  V30 404 H 44.7936 1.37482 7.60473 0
M  V30 405 H 43.1386 1.22958 6.84037 0
M  V30 406 H 46.3296 0.541098 4.64962 0
M  V30 407 H 46.5026 0.999445 6.40246 0
M  V30 408 N 39.9087 -1.5758 0.0250728 0
M  V30 409 C 41.1567 -1.91255 -0.653151 0
M  V30 410 C 41.4777 -0.901691 -1.729 0
M  V30 411 O 40.7477 0.0573785 -1.95816 0
M  V30 412 H 39.3277 -0.705942 -0.244243 0
M  V30 413 H 41.9897 -1.94767 0.0719209 0
M  V30 414 H 41.0857 -2.91752 -1.10847 0
M  V30 415 N 41.3868 0.248026 -1.55636 0
M  V30 416 C 42.8028 0.596483 -1.48035 0
M  V30 417 C 43.0028 1.88386 -0.715039 0
M  V30 418 O 42.0588 2.51319 -0.243944 0
M  V30 419 C 43.3718 0.700258 -2.92433 0
M  V30 420 C 44.9198 0.792659 -3.02797 0
M  V30 421 C 45.3948 0.928005 -4.485 0
M  V30 422 N 46.8858 0.992903 -4.52433 0
M  V30 423 C 47.6208 1.11687 -5.62418 0
M  V30 424 N 47.1168 1.20645 -6.82214 0
M  V30 425 N 48.9098 1.14994 -5.50212 0
M  V30 426 H 41.0608 -0.597109 -2.03834 0
M  V30 427 H 43.3238 -0.205925 -0.925364 0
M  V30 428 H 43.0298 -0.175658 -3.51261 0
M  V30 429 H 42.9038 1.57255 -3.42857 0
M  V30 430 H 45.2908 1.65903 -2.4405 0
M  V30 431 H 45.3718 -0.104762 -2.55585 0
M  V30 432 H 45.0158 0.0661971 -5.07857 0
M  V30 433 H 44.9458 1.84045 -4.93391 0
M  V30 434 H 47.4368 0.935064 -3.66149 0
M  V30 435 H 47.7498 1.30008 -7.61786 0
M  V30 436 H 46.0948 1.17605 -6.84977 0
M  V30 437 H 49.2858 1.07643 -4.55555 0
M  V30 438 H 49.4588 1.24311 -6.35965 0
M  V30 439 N 42.8649 1.48995 0.513639 0
M  V30 440 C 44.0899 1.61792 1.29762 0
M  V30 441 C 44.5149 0.284475 1.85936 0
M  V30 442 O 43.8729 -0.746185 1.65232 0
M  V30 443 C 43.9209 2.67993 2.41272 0
M  V30 444 O 43.0249 2.26287 3.44772 0
M  V30 445 H 42.3659 0.541963 0.38363 0
M  V30 446 H 44.8959 1.95097 0.616307 0
M  V30 447 H 44.9059 2.89772 2.87221 0
M  V30 448 H 43.5809 3.64791 1.9975 0
M  V30 449 H 42.1579 2.14788 3.04829 0
M  V30 450 N 44.343 -0.763751 1.37857 0
M  V30 451 C 45.568 -1.55805 1.36893 0
M  V30 452 C 45.993 -1.88054 -0.0416135 0
M  V30 453 O 45.351 -1.49825 -1.02089 0
M  V30 454 C 45.399 -2.84012 2.22192 0
M  V30 455 O 44.503 -3.78732 1.63204 0
M  V30 456 H 43.844 -0.471638 0.46739 0
M  V30 457 H 46.374 -0.944657 1.81487 0
M  V30 458 H 46.384 -3.33037 2.35691 0
M  V30 459 H 45.059 -2.59869 3.24716 0
M  V30 460 H 43.636 -3.37402 1.58791 0
M  V30 461 N 45.8211 -1.22559 -0.990812 0
M  V30 462 C 47.0491 -1.07779 -1.76611 0
M  V30 463 C 47.4641 0.371513 -1.85109 0
M  V30 464 O 46.8211 1.25737 -1.32274 0
M  V30 465 C 46.8721 -1.68512 -3.19822 0
M  V30 466 O 46.5931 -3.07774 -3.1178 0
M  V30 467 C 48.0941 -1.59035 -4.13791 0
M  V30 468 H 45.3141 -0.377729 -0.554583 0
M  V30 469 H 47.8581 -1.62195 -1.24551 0
M  V30 470 H 46.0131 -1.18154 -3.68942 0
M  V30 471 H 46.4271 -3.37062 -4.01858 0
M  V30 472 H 47.9011 -2.0625 -5.1202 0
M  V30 473 H 48.3781 -0.547273 -4.35777 0
M  V30 474 H 48.9841 -2.08709 -3.70568 0
M  V30 475 N 47.2992 1.18797 -1.03562 0
M  V30 476 C 48.2622 2.20464 -0.626769 0
M  V30 477 C 49.2622 1.57721 0.313173 0
M  V30 478 O 50.4522 1.73917 0.0992615 0
M  V30 479 C 47.5842 3.40802 0.0818498 0
M  V30 480 H 48.7772 2.58149 -1.5264 0
M  V30 481 H 46.3302 1.32593 -0.827578 0
M  V30 482 H 47.0652 3.08642 0.995518 0
M  V30 483 H 46.8502 3.8758 -0.593652 0
M  V30 484 H 48.3402 4.16092 0.354584 0
M  V30 485 N 48.7773 0.814389 1.34928 0
M  V30 486 C 50.1933 0.499084 1.51596 0
M  V30 487 C 50.3933 -0.978319 1.76157 0
M  V30 488 O 49.4493 -1.76309 1.80752 0
M  V30 489 C 50.7623 1.35121 2.68631 0
M  V30 490 C 52.3103 1.34746 2.82511 0
M  V30 491 C 52.7853 2.18388 4.0258 0
M  V30 492 N 54.2763 2.15966 4.09772 0
M  V30 493 C 55.0113 2.77437 5.01813 0
M  V30 494 N 54.5073 3.47866 5.99134 0
M  V30 495 N 56.3003 2.67037 4.94619 0
M  V30 496 H 48.4513 1.7711 1.17243 0
M  V30 497 H 50.7143 0.754256 0.574284 0
M  V30 498 H 50.4203 2.40001 2.57085 0
M  V30 499 H 50.2943 1.00991 3.63429 0
M  V30 500 H 52.6813 0.30648 2.93504 0
M  V30 501 H 52.7623 1.72869 1.88547 0
M  V30 502 H 52.4063 3.2253 3.92347 0
M  V30 503 H 52.3363 1.77621 4.9574 0
M  V30 504 H 54.8273 1.64729 3.40107 0
M  V30 505 H 55.1403 3.92038 6.65977 0
M  V30 506 H 53.4853 3.51972 5.99284 0
M  V30 507 H 56.6763 2.11597 4.17546 0
M  V30 508 H 56.8493 3.15232 5.66156 0
M  V30 509 N 50.2554 -1.46986 0.568584 0
M  V30 510 C 51.4954 -2.04336 0.0512999 0
M  V30 511 C 51.8594 -1.43214 -1.27881 0
M  V30 512 O 53.0604 -1.91679 -1.88448 0
M  V30 513 C 51.3314 -3.57389 -0.0282328 0
M  V30 514 S 52.8904 -4.36056 -0.489991 0
M  V30 515 H 49.7084 -0.71034 0.0306349 0
M  V30 516 H 52.3104 -1.80212 0.757891 0
M  V30 517 H 51.0144 -3.99395 0.944011 0
M  V30 518 H 50.5454 -3.86028 -0.75803 0
M  V30 519 H 52.5604 -4.6441 -1.74752 0
M  V30 520 N 51.7335 -0.305618 -1.54608 0
M  V30 521 C 52.9585 0.307562 -2.05107 0
M  V30 522 C 53.3835 1.46385 -1.18123 0
M  V30 523 O 52.7415 1.8034 -0.186324 0
M  V30 524 C 52.7895 0.73704 -3.52987 0
M  V30 525 O 51.8935 1.84134 -3.6901 0
M  V30 526 H 51.2345 0.0589143 -0.661381 0
M  V30 527 H 53.7645 -0.448807 -1.99617 0
M  V30 528 H 53.7745 1.02459 -3.94925 0
M  V30 529 H 52.4495 -0.108773 -4.15758 0
M  V30 530 H 51.0265 1.55398 -3.38978 0
M  V30 531 N 53.2116 1.57565 -0.0334293 0
M  V30 532 C 54.1416 2.13511 0.945265 0
M  V30 533 C 55.1226 1.05231 1.33643 0
M  V30 534 O 56.3076 1.33084 1.41429 0
M  V30 535 C 53.4376 2.6657 2.22616 0
M  V30 536 C 52.3916 3.79676 1.97561 0
M  V30 537 C 51.7176 4.1918 3.31952 0
M  V30 538 C 53.0176 5.0557 1.31135 0
M  V30 539 H 54.7116 2.95538 0.479325 0
M  V30 540 H 52.2576 1.42166 0.229115 0
M  V30 541 H 54.2106 3.04344 2.91466 0
M  V30 542 H 52.9346 1.8171 2.71384 0
M  V30 543 H 51.5936 3.42347 1.31127 0
M  V30 544 H 51.2416 3.31296 3.78487 0
M  V30 545 H 50.9416 4.95402 3.15992 0
M  V30 546 H 52.4656 4.59541 4.02063 0
M  V30 547 H 53.8796 5.40903 1.89992 0
M  V30 548 H 52.2766 5.86818 1.25559 0
M  V30 549 H 53.3466 4.84062 0.284894 0
M  V30 550 N 54.6897 -0.239769 1.55765 0
M  V30 551 C 55.9367 -0.966801 1.7793 0
M  V30 552 C 56.2647 -1.85046 0.599015 0
M  V30 553 O 55.5197 -1.91197 -0.417395 0
M  V30 554 C 55.8187 -1.852 3.05672 0
M  V30 555 C 55.4847 -1.1231 4.36689 0
M  V30 556 C 54.1467 -0.921689 4.72291 0
M  V30 557 C 56.4987 -0.607019 5.17653 0
M  V30 558 C 53.8267 -0.191996 5.86386 0
M  V30 559 C 56.1787 0.109241 6.32506 0
M  V30 560 C 54.8427 0.322073 6.66723 0
M  V30 561 H 54.1127 -0.353778 0.651093 0
M  V30 562 H 56.7597 -0.23634 1.90036 0
M  V30 563 H 55.0647 -2.64975 2.8861 0
M  V30 564 H 56.7617 -2.41635 3.20021 0
M  V30 565 H 53.3517 -1.29004 4.08725 0
M  V30 566 H 57.5357 -0.750153 4.90598 0
M  V30 567 H 52.7917 -0.0166949 6.11398 0
M  V30 568 H 56.9657 0.516737 6.9448 0
M  V30 569 H 54.5927 0.88944 7.54979 0
M  V30 570 N 56.1678 -1.49265 -0.50573 0
M  V30 571 C 57.4158 -1.582 -1.25766 0
M  V30 572 C 57.7368 -0.268482 -1.93143 0
M  V30 573 O 57.0068 0.711833 -1.8251 0
M  V30 574 H 55.5868 -0.582873 -0.467191 0
M  V30 575 H 58.2488 -1.85865 -0.586525 0
M  V30 576 H 57.3448 -2.37563 -2.02412 0
M  V30 577 N 57.6459 0.756429 -1.3826 0
M  V30 578 C 58.8709 1.55077 -1.37717 0
M  V30 579 C 59.2959 1.88073 0.03164 0
M  V30 580 O 58.6539 1.50364 1.01293 0
M  V30 581 C 58.7019 2.8283 -2.23695 0
M  V30 582 O 57.8059 3.77862 -1.6521 0
M  V30 583 H 57.1469 0.469152 -0.469885 0
M  V30 584 H 59.6769 0.935019 -1.81985 0
M  V30 585 H 59.6869 3.31783 -2.37453 0
M  V30 586 H 58.3619 2.58144 -3.2609 0
M  V30 587 H 56.9389 3.36555 -1.60578 0
M  V30 588 N 59.124 1.23083 0.984299 0
M  V30 589 C 60.401 0.9689 1.69917 0
M  V30 590 C 60.781 -0.513604 2.04757 0
M  V30 591 O 60.129 -1.48383 1.73767 0
M  V30 592 C 60.339 1.87518 2.94343 0
M  V30 593 C 61.687 2.13636 3.6694 0
M  V30 594 O 62.711 1.85036 3.04368 0
M  V30 595 O 61.57 2.62119 4.79537 0
M  V30 596 H 58.664 0.365095 0.742048 0
M  V30 597 H 61.21 1.34107 1.03987 0
M  V30 598 H 59.982 2.87756 2.65164 0
M  V30 599 H 59.605 1.50514 3.6801 0
M  V30 600 N 60.6021 -1.18246 1.0419 0
M  V30 601 C 61.8491 -1.88257 0.746017 0
M  V30 602 C 62.1771 -1.80429 -0.726331 0
M  V30 603 O 61.4321 -1.2 -1.54591 0
M  V30 604 C 61.7311 -3.38082 1.15911 0
M  V30 605 C 61.3971 -3.66114 2.63195 0
M  V30 606 C 60.0591 -3.73474 3.03432 0
M  V30 607 C 62.4111 -3.78398 3.5842 0
M  V30 608 C 59.7391 -3.90599 4.37778 0
M  V30 609 C 62.0911 -3.97039 4.92487 0
M  V30 610 C 60.7551 -4.02635 5.32392 0
M  V30 611 H 60.0251 -0.688883 0.272987 0
M  V30 612 H 62.6721 -1.3995 1.30715 0
M  V30 613 H 60.9771 -3.88377 0.516806 0
M  V30 614 H 62.6741 -3.90596 0.907516 0
M  V30 615 H 59.2641 -3.61003 2.3103 0
M  V30 616 H 63.4481 -3.72042 3.28479 0
M  V30 617 H 58.7041 -3.93175 4.68213 0
M  V30 618 H 62.8781 -4.05486 5.66175 0
M  V30 619 H 60.5051 -4.15657 6.36501 0
M  V30 620 N 62.0802 -0.821533 -1.34494 0
M  V30 621 C 63.3262 -0.409552 -1.98622 0
M  V30 622 C 63.6592 1.0244 -1.64984 0
M  V30 623 O 62.9342 1.71325 -0.920758 0
M  V30 624 C 63.2172 -0.610458 -3.54888 0
M  V30 625 C 63.0702 -2.09043 -3.98273 0
M  V30 626 C 64.3892 -0.0455379 -4.40076 0
M  V30 627 H 61.5082 -0.15028 -0.721516 0
M  V30 628 H 64.1502 -1.03384 -1.59411 0
M  V30 629 H 62.3002 -0.079044 -3.8842 0
M  V30 630 H 63.9722 -2.68537 -3.75081 0
M  V30 631 H 62.2152 -2.58139 -3.48635 0
M  V30 632 H 62.8862 -2.18182 -5.07051 0
M  V30 633 H 65.3622 -0.499557 -4.1309 0
M  V30 634 H 64.2382 -0.215922 -5.48475 0
M  V30 635 H 64.4992 1.04939 -4.29465 0
M  V30 636 N 63.5583 1.46682 -0.576371 0
M  V30 637 C 64.5063 2.31953 0.17335 0
M  V30 638 C 65.5003 1.44098 0.89062 0
M  V30 639 O 66.7063 1.60759 0.809728 0
M  V30 640 H 63.0813 0.748273 0.0747727 0
M  V30 641 H 65.0523 2.93007 -0.564738 0
M  V30 642 C 63.8013 3.27142 1.17786 0
M  V30 643 H 63.1243 3.94719 0.635361 0
M  V30 644 H 64.5643 3.896 1.67296 0
M  V30 645 C 63.0233 2.52036 2.23561 0
M  V30 646 O 63.5533 2.27877 3.3081 0
M  V30 647 N 61.7593 2.12709 1.97998 0
M  V30 648 H 61.3063 2.32557 1.10792 0
M  V30 649 H 61.2643 1.62776 2.68982 0
M  V30 650 N 65.0364 0.313813 1.54444 0
M  V30 651 C 66.2644 -0.293918 2.04802 0
M  V30 652 C 66.6794 -1.46537 1.19047 0
M  V30 653 O 66.0364 -1.81182 0.218939 0
M  V30 654 C 66.0874 -0.737806 3.53891 0
M  V30 655 O 65.8084 0.387038 4.36387 0
M  V30 656 C 67.3094 -1.40936 4.203 0
M  V30 657 H 64.5294 -0.0620057 0.668129 0
M  V30 658 H 67.0734 0.457169 1.99324 0
M  V30 659 H 65.2284 -1.43889 3.59687 0
M  V30 660 H 65.6424 0.0391274 5.24485 0
M  V30 661 H 67.1164 -1.67099 5.26101 0
M  V30 662 H 67.5934 -2.35355 3.70816 0
M  V30 663 H 68.1994 -0.751117 4.18615 0
M  V30 664 N 66.5145 -1.57545 0.0417849 0
M  V30 665 C 67.7615 -1.92317 -0.634082 0
M  V30 666 C 68.0895 -0.919334 -1.71402 0
M  V30 667 O 67.3445 0.0698253 -1.95575 0
M  V30 668 C 67.6435 -3.33794 -1.27735 0
M  V30 669 C 67.3095 -4.49716 -0.326543 0
M  V30 670 C 65.9715 -4.81156 -0.0648814 0
M  V30 671 C 68.3235 -5.20182 0.325623 0
M  V30 672 C 65.6515 -5.80414 0.856539 0
M  V30 673 C 68.0035 -6.20424 1.23518 0
M  V30 674 C 66.6675 -6.50298 1.5056 0
M  V30 675 H 65.9375 -0.703736 -0.232027 0
M  V30 676 H 68.5845 -1.91205 0.106259 0
M  V30 677 H 66.8895 -3.31228 -2.09274 0
M  V30 678 H 68.5865 -3.57975 -1.80707 0
M  V30 679 H 65.1765 -4.25176 -0.540665 0
M  V30 680 H 69.3605 -4.96112 0.136546 0
M  V30 681 H 64.6165 -6.019 1.07363 0
M  V30 682 H 68.7905 -6.74141 1.74664 0
M  V30 683 H 66.4175 -7.27025 2.22123 0
M  V30 684 N 67.9926 0.231505 -1.5589 0
M  V30 685 C 69.2696 0.981096 -1.69215 0
M  V30 686 C 69.6496 2.02799 -0.586164 0
M  V30 687 O 68.9976 2.24823 0.408253 0
M  V30 688 C 69.2076 1.60054 -3.10135 0
M  V30 689 C 70.5556 2.09658 -3.69227 0
M  V30 690 O 71.5796 1.69967 -3.13033 0
M  V30 691 O 70.4386 2.8258 -4.67772 0
M  V30 692 H 67.5326 0.457653 -0.688827 0
M  V30 693 H 70.0786 0.224073 -1.68214 0
M  V30 694 H 68.8506 0.844105 -3.82087 0
M  V30 695 H 68.4736 2.42336 -3.15212 0
M  V30 696 N 69.4707 1.49531 0.497807 0
M  V30 697 C 70.7187 1.58865 1.24926 0
M  V30 698 C 71.0397 0.278721 1.92998 0
M  V30 699 O 70.3097 -0.702144 1.82885 0
M  V30 700 H 68.8897 0.585343 0.464094 0
M  V30 701 H 71.5517 1.86174 0.57666 0
M  V30 702 H 70.6477 2.38633 2.01149 0
M  V30 703 N 70.9488 -0.749086 1.3866 0
M  V30 704 C 72.1738 -1.54344 1.38538 0
M  V30 705 C 72.5988 -1.88088 -0.0216655 0
M  V30 706 O 71.9568 -1.50899 -1.00494 0
M  V30 707 C 72.0048 -2.8164 2.25192 0
M  V30 708 O 71.1088 -3.7698 1.67212 0
M  V30 709 H 70.4498 -0.466654 0.472367 0
M  V30 710 H 72.9798 -0.925355 1.82478 0
M  V30 711 H 72.9898 -3.30519 2.3921 0
M  V30 712 H 71.6648 -2.56411 3.27454 0
M  V30 713 H 70.2418 -3.35699 1.6236 0
M  V30 714 N 72.4269 -1.23603 -0.977757 0
M  V30 715 C 73.3599 -0.962772 -2.06896 0
M  V30 716 C 74.3379 0.0998743 -1.62293 0
M  V30 717 O 75.5219 -0.0349421 -1.88468 0
M  V30 718 C 72.6489 -0.45095 -3.35685 0
M  V30 719 C 71.6949 -1.50061 -3.99229 0
M  V30 720 S 72.5279 -3.07884 -4.38142 0
M  V30 721 C 73.6839 -2.58378 -5.7008 0
M  V30 722 H 73.9169 -1.88677 -2.29757 0
M  V30 723 H 71.4499 -1.06876 -1.11431 0
M  V30 724 H 73.4079 -0.162261 -4.10179 0
M  V30 725 H 72.0689 0.452179 -3.10828 0
M  V30 726 H 71.2619 -1.09269 -4.92013 0
M  V30 727 H 70.8639 -1.73878 -3.31123 0
M  V30 728 H 73.1559 -2.00563 -6.47133 0
M  V30 729 H 74.0989 -3.49711 -6.15717 0
M  V30 730 H 74.5069 -1.99143 -5.28207 0
M  V30 731 N 73.905 1.17692 -1.04816 0
M  V30 732 C 75.135 1.91508 -0.775128 0
M  V30 733 C 75.543 1.76844 0.67253 0
M  V30 734 O 74.886 1.10057 1.47082 0
M  V30 735 C 74.948 3.43167 -1.0713 0
M  V30 736 C 74.612 3.81612 -2.51438 0
M  V30 737 C 75.609 3.84772 -3.49638 0
M  V30 738 C 73.294 4.12687 -2.86348 0
M  V30 739 C 75.288 4.18469 -4.80794 0
M  V30 740 C 72.975 4.46053 -4.17708 0
M  V30 741 C 73.973 4.48921 -5.14741 0
M  V30 742 O 73.661 4.81504 -6.43746 0
M  V30 743 H 73.393 0.614575 -0.281555 0
M  V30 744 H 75.947 1.50206 -1.40098 0
M  V30 745 H 74.177 3.84745 -0.388342 0
M  V30 746 H 75.866 3.98239 -0.784883 0
M  V30 747 H 76.632 3.60893 -3.24008 0
M  V30 748 H 72.511 4.09627 -2.11486 0
M  V30 749 H 76.055 4.20623 -5.56527 0
M  V30 750 H 71.952 4.69393 -4.43103 0
M  V30 751 H 72.72 4.99377 -6.4851 0
M  V30 752 N 75.3831 0.828654 1.34056 0
M  V30 753 C 76.6081 0.431637 2.02859 0
M  V30 754 C 77.0331 -0.956339 1.61975 0
M  V30 755 O 76.3911 -1.62338 0.807228 0
M  V30 756 C 76.4391 0.548323 3.56407 0
M  V30 757 O 75.5431 -0.429556 4.10157 0
M  V30 758 H 74.8841 0.176886 0.640006 0
M  V30 759 H 77.4141 1.12066 1.71179 0
M  V30 760 H 77.4241 0.426196 4.05768 0
M  V30 761 H 76.0991 1.5606 3.8551 0
M  V30 762 H 74.6761 -0.265836 3.71951 0
M  V30 763 N 76.8612 -1.46375 0.584142 0
M  V30 764 C 78.1082 -2.02378 0.0702675 0
M  V30 765 C 78.4362 -1.45545 -1.29023 0
M  V30 766 O 77.6912 -0.610967 -1.85918 0
M  V30 767 C 77.9902 -3.57373 -0.0439342 0
M  V30 768 C 77.6562 -4.33252 1.24915 0
M  V30 769 C 76.3182 -4.53701 1.60341 0
M  V30 770 C 78.6702 -4.7681 2.1048 0
M  V30 771 C 75.9982 -5.1496 2.81128 0
M  V30 772 C 78.3502 -5.39404 3.30494 0
M  V30 773 C 77.0142 -5.5808 3.66201 0
M  V30 774 H 76.2842 -0.740554 0.0257127 0
M  V30 775 H 78.9312 -1.75727 0.761065 0
M  V30 776 H 77.2362 -3.83169 -0.817869 0
M  V30 777 H 78.9332 -3.98384 -0.457318 0
M  V30 778 H 75.5232 -4.17633 0.963364 0
M  V30 779 H 79.7072 -4.60766 1.84414 0
M  V30 780 H 74.9632 -5.27611 3.08928 0
M  V30 781 H 79.1372 -5.72114 3.97063 0
M  V30 782 H 76.7642 -6.05318 4.59885 0
M  V30 783 N 78.3393 -0.321999 -1.54275 0
M  V30 784 C 79.3023 0.531975 -2.22941 0
M  V30 785 C 80.3023 1.04478 -1.22234 0
M  V30 786 O 81.4923 0.937452 -1.46825 0
M  V30 787 C 78.6243 1.73874 -2.93224 0
M  V30 788 H 79.8173 -0.0682612 -2.99822 0
M  V30 789 H 77.3703 -0.0730644 -1.56129 0
M  V30 790 H 78.1053 2.37825 -2.20476 0
M  V30 791 H 77.8903 1.37847 -3.6707 0
M  V30 792 H 79.3803 2.34496 -3.45545 0
M  V30 793 N 79.8174 1.5752 -0.0501392 0
M  V30 794 C 81.0654 1.9227 0.622642 0
M  V30 795 C 81.3864 0.929083 1.71444 0
M  V30 796 O 80.6564 -0.0262186 1.95882 0
M  V30 797 H 79.2364 0.709739 0.232981 0
M  V30 798 H 81.8984 1.94628 -0.102898 0
M  V30 799 H 80.9944 2.93479 1.06191 0
M  V30 800 N 81.2955 -0.223234 1.56011 0
M  V30 801 C 82.5255 -0.963413 1.82762 0
M  V30 802 C 82.9335 -1.78516 0.626804 0
M  V30 803 O 82.2765 -1.78974 -0.414014 0
M  V30 804 C 82.3385 -1.93126 3.0322 0
M  V30 805 C 82.0025 -1.2942 4.38291 0
M  V30 806 C 82.9995 -0.684916 5.15369 0
M  V30 807 C 80.6845 -1.30647 4.85012 0
M  V30 808 C 82.6785 -0.0963971 6.37327 0
M  V30 809 C 80.3655 -0.71411 6.06913 0
M  V30 810 C 81.3635 -0.110123 6.82911 0
M  V30 811 O 81.0515 0.47303 8.02507 0
M  V30 812 H 80.7835 -0.288011 0.611576 0
M  V30 813 H 83.3375 -0.244103 2.03944 0
M  V30 814 H 81.5675 -2.68952 2.77852 0
M  V30 815 H 83.2565 -2.53685 3.16857 0
M  V30 816 H 84.0225 -0.667774 4.80381 0
M  V30 817 H 79.9015 -1.76598 4.25833 0
M  V30 818 H 83.4455 0.375657 6.96588 0
M  V30 819 H 79.3425 -0.728659 6.41374 0
M  V30 820 H 80.1105 0.367186 8.17676 0
M  V30 821 N 82.7736 -1.49793 -0.48987 0
M  V30 822 C 84.0136 -1.61466 -1.25332 0
M  V30 823 C 84.3776 -0.299688 -1.89647 0
M  V30 824 O 85.5786 -0.291687 -2.67213 0
M  V30 825 C 83.8496 -2.74944 -2.28343 0
M  V30 826 S 85.4086 -3.06637 -3.13878 0
M  V30 827 H 82.2266 -0.569411 -0.425784 0
M  V30 828 H 84.8286 -1.875 -0.553541 0
M  V30 829 H 83.5326 -3.68994 -1.79643 0
M  V30 830 H 83.0636 -2.50938 -3.02975 0
M  V30 831 H 85.0786 -2.49015 -4.29192 0
M  V30 832 N 84.2517 0.741722 -1.39055 0
M  V30 833 C 85.4767 1.53607 -1.39354 0
M  V30 834 C 85.9017 1.88096 0.0116905 0
M  V30 835 O 85.2597 1.5143 0.996924 0
M  V30 836 C 85.3077 2.80441 -2.26682 0
M  V30 837 O 84.4117 3.76088 -1.69208 0
M  V30 838 H 83.7527 0.464142 -0.474835 0
M  V30 839 H 86.2827 0.915665 -1.82967 0
M  V30 840 H 86.2927 3.29246 -2.40959 0
M  V30 841 H 84.9677 2.5467 -3.2881 0
M  V30 842 H 83.5447 3.34833 -1.64138 0
M  V30 843 N 85.7298 1.2412 0.971189 0
M  V30 844 C 86.9598 1.10415 1.7462 0
M  V30 845 C 87.3678 -0.346462 1.86001 0
M  V30 846 O 86.7108 -1.25104 1.34517 0
M  V30 847 C 86.7728 1.66596 3.18568 0
M  V30 848 C 86.4368 3.15446 3.3067 0
M  V30 849 C 87.4338 4.12636 3.16271 0
M  V30 850 C 85.1188 3.55337 3.55022 0
M  V30 851 C 87.1128 5.47699 3.26044 0
M  V30 852 C 84.7998 4.90542 3.64434 0
M  V30 853 C 85.7978 5.86532 3.49956 0
M  V30 854 O 85.4858 7.19279 3.59017 0
M  V30 855 H 85.2178 0.386616 0.55453 0
M  V30 856 H 87.7718 1.64633 1.22821 0
M  V30 857 H 86.0018 1.06808 3.71657 0
M  V30 858 H 87.6908 1.48232 3.77865 0
M  V30 859 H 88.4568 3.8316 2.97344 0
M  V30 860 H 84.3358 2.8113 3.65359 0
M  V30 861 H 87.8798 6.22603 3.14661 0
M  V30 862 H 83.7768 5.19691 3.82873 0
M  V30 863 H 84.5448 7.27153 3.75754 0
M  V30 864 N 87.2079 -1.17134 1.05439 0
M  V30 865 C 88.1379 -2.2342 0.678649 0
M  V30 866 C 89.1189 -1.66971 -0.32476 0
M  V30 867 O 90.3039 -1.93149 -0.201802 0
M  V30 868 C 87.4339 -3.47256 0.0552099 0
M  V30 869 C 86.3879 -4.16543 0.98365 0
M  V30 870 C 85.7139 -5.34231 0.223961 0
M  V30 871 C 87.0139 -4.68495 2.3089 0
M  V30 872 H 88.7079 -2.55105 1.56722 0
M  V30 873 H 86.2539 -1.2262 0.754998 0
M  V30 874 H 88.2069 -4.20828 -0.21946 0
M  V30 875 H 86.9309 -3.14846 -0.868319 0
M  V30 876 H 85.5899 -3.44887 1.24293 0
M  V30 877 H 85.2379 -4.98071 -0.702412 0
M  V30 878 H 84.9379 -5.81527 0.842627 0
M  V30 879 H 86.4619 -6.10585 -0.0433671 0
M  V30 880 H 87.8759 -5.33691 2.09396 0
M  V30 881 H 86.2729 -5.26379 2.88176 0
M  V30 882 H 87.3429 -3.85169 2.94572 0
M  V30 883 N 88.686 -0.835752 -1.33615 0
M  V30 884 C 89.649 -0.272 -2.2758 0
M  V30 885 C 90.649 0.557487 -1.50827 0
M  V30 886 O 91.839 0.37173 -1.70188 0
M  V30 887 C 88.971 0.617173 -3.35267 0
M  V30 888 H 90.164 -1.10111 -2.78954 0
M  V30 889 H 87.717 -0.608594 -1.43965 0
M  V30 890 H 88.452 1.46884 -2.89129 0
M  V30 891 H 88.237 0.0237066 -3.92093 0
M  V30 892 H 89.727 1.005 -4.05326 0
M  V30 893 N 90.1641 1.46063 -0.591896 0
M  V30 894 C 91.4121 2.01938 -0.0808391 0
M  V30 895 C 91.7331 1.46475 1.28725 0
M  V30 896 O 91.0031 0.652944 1.84698 0
M  V30 897 H 89.5831 0.746516 -0.0268938 0
M  V30 898 H 92.2451 1.79055 -0.769752 0
M  V30 899 H 91.3411 3.12094 -0.0187578 0
M  V30 900 N 91.6422 0.330177 1.54103 0
M  V30 901 C 92.8902 -0.269871 2.0029 0
M  V30 902 C 93.2112 -1.52133 1.21986 0
M  V30 903 O 92.4812 -1.93212 0.323438 0
M  V30 904 H 91.0612 -0.10271 0.739905 0
M  V30 905 H 93.7232 0.448249 1.89675 0
M  V30 906 H 92.8192 -0.52166 3.07709 0
M  V30 907 N 93.1203 -1.57491 0.0584922 0
M  V30 908 C 94.3603 -1.94851 -0.617458 0
M  V30 909 C 94.7243 -0.937165 -1.67575 0
M  V30 910 O 95.9253 -1.19795 -2.40629 0
M  V30 911 C 94.1963 -3.36955 -1.19147 0
M  V30 912 S 95.7553 -3.96277 -1.8844 0
M  V30 913 H 92.5733 -0.681539 -0.202547 0
M  V30 914 H 95.1753 -1.95073 0.129176 0
M  V30 915 H 93.8793 -4.08355 -0.409215 0
M  V30 916 H 93.4103 -3.40245 -1.97476 0
M  V30 917 H 95.4253 -3.82099 -3.16568 0
M  V30 918 N 94.5984 0.214957 -1.56127 0
M  V30 919 C 95.5304 1.29004 -1.89448 0
M  V30 920 C 96.5434 1.42716 -0.783326 0
M  V30 921 O 97.7324 1.43496 -1.06166 0
M  V30 922 C 94.8324 2.66482 -2.09381 0
M  V30 923 C 94.0054 2.74633 -3.40434 0
M  V30 924 C 93.0644 3.9317 -3.49719 0
M  V30 925 O 92.0904 3.812 -4.227 0
M  V30 926 N 93.2924 5.07765 -2.81346 0
M  V30 927 H 96.0574 1.00743 -2.82261 0
M  V30 928 H 93.6184 0.40497 -1.56753 0
M  V30 929 H 95.6104 3.44173 -2.12901 0
M  V30 930 H 94.1804 2.87314 -1.23163 0
M  V30 931 H 93.4004 1.83368 -3.48955 0
M  V30 932 H 94.6884 2.77054 -4.26754 0
M  V30 933 H 94.0864 5.20386 -2.21843 0
M  V30 934 H 92.6434 5.83474 -2.90519 0
M  V30 935 N 96.0765 1.50051 0.48192 0
M  V30 936 C 97.0235 1.68122 1.58125 0
M  V30 937 C 97.9935 0.522545 1.57666 0
M  V30 938 O 99.1785 0.751844 1.75362 0
M  V30 939 C 96.3185 1.77142 2.96167 0
M  V30 940 C 95.4315 3.0444 3.06497 0
M  V30 941 C 94.5665 3.04321 4.35387 0
M  V30 942 C 93.6055 4.26118 4.3942 0
M  V30 943 N 92.7425 4.238 5.59766 0
M  V30 944 H 97.5825 2.6198 1.42022 0
M  V30 945 H 95.1195 1.29877 0.690687 0
M  V30 946 H 97.0775 1.80352 3.76203 0
M  V30 947 H 95.7075 0.867329 3.1093 0
M  V30 948 H 94.7595 3.10752 2.19402 0
M  V30 949 H 96.0715 3.94426 3.05336 0
M  V30 950 H 95.2255 3.062 5.23762 0
M  V30 951 H 93.9645 2.12147 4.39141 0
M  V30 952 H 92.9695 4.24463 3.49444 0
M  V30 953 H 94.1945 5.19507 4.37366 0
M  V30 954 H 92.1405 3.34474 5.64326 0
M  V30 955 H 92.0575 5.07542 5.60301 0
M  V30 956 H 93.3255 4.2981 6.50295 0
M  V30 957 N 97.5546 -0.734337 1.39446 0
M  V30 958 C 98.9706 -1.03997 1.21065 0
M  V30 959 C 99.1706 -2.01369 0.0727019 0
M  V30 960 O 98.2266 -2.45856 -0.575426 0
M  V30 961 C 99.5396 -1.60163 2.54496 0
M  V30 962 C 101.088 -1.7224 2.61347 0
M  V30 963 C 101.563 -2.31814 3.95002 0
M  V30 964 N 103.054 -2.39223 3.96644 0
M  V30 965 C 103.789 -2.86258 4.96834 0
M  V30 966 N 103.285 -3.33184 6.07421 0
M  V30 967 N 105.078 -2.85473 4.84213 0
M  V30 968 H 97.2286 -0.0885624 2.12215 0
M  V30 969 H 99.4916 -0.10191 0.942506 0
M  V30 970 H 99.1976 -0.960811 3.38321 0
M  V30 971 H 99.0716 -2.5896 2.74262 0
M  V30 972 H 101.459 -2.35443 1.77906 0
M  V30 973 H 101.54 -0.720939 2.4543 0
M  V30 974 H 101.184 -1.69238 4.78875 0
M  V30 975 H 101.114 -3.32638 4.08239 0
M  V30 976 H 103.605 -2.06057 3.16779 0
M  V30 977 H 103.918 -3.67586 6.7978 0
M  V30 978 H 102.263 -3.31191 6.11013 0
M  V30 979 H 105.454 -2.48136 3.96921 0
M  V30 980 H 105.627 -3.21814 5.62441 0
M  V30 981 N 99.0327 -1.24633 -0.964593 0
M  V30 982 C 100.258 -1.11596 -1.74818 0
M  V30 983 C 100.683 0.32723 -1.85232 0
M  V30 984 O 100.041 1.23695 -1.32549 0
M  V30 985 C 100.089 -1.76397 -3.1451 0
M  V30 986 O 99.1927 -1.03685 -3.99153 0
M  V30 987 H 98.5337 -0.390196 -0.537255 0
M  V30 988 H 101.064 -1.65002 -1.20977 0
M  V30 989 H 101.074 -1.8228 -3.65018 0
M  V30 990 H 99.7487 -2.81401 -3.06246 0
M  V30 991 H 98.3257 -1.05611 -3.57632 0
M  V30 992 N 100.511 1.16574 -1.06058 0
M  V30 993 C 101.758 1.87047 -0.775873 0
M  V30 994 C 102.086 1.81562 0.697534 0
M  V30 995 O 101.341 1.22445 1.52662 0
M  V30 996 C 101.64 3.36195 -1.21275 0
M  V30 997 C 101.306 3.6188 -2.68986 0
M  V30 998 C 99.9678 3.68599 -3.09335 0
M  V30 999 C 102.32 3.72648 -3.64394 0
M  V30 1000 C 99.6478 3.83584 -4.43937 0
M  V30 1001 C 102 3.89154 -4.98741 0
M  V30 1002 C 100.664 3.94114 -5.3873 0
M  V30 1003 H 99.9338 0.684452 -0.283912 0
M  V30 1004 H 102.581 1.37853 -1.32925 0
M  V30 1005 H 100.886 3.87505 -0.578528 0
M  V30 1006 H 102.583 3.89103 -0.969542 0
M  V30 1007 H 99.1728 3.57281 -2.36744 0
M  V30 1008 H 103.357 3.66769 -3.34356 0
M  V30 1009 H 98.6128 3.85677 -4.74409 0
M  V30 1010 H 102.787 3.96427 -5.72554 0
M  V30 1011 H 100.414 4.05478 -6.43033 0
M  V30 1012 N 101.989 0.842826 1.3317 0
M  V30 1013 C 103.214 0.453129 2.02389 0
M  V30 1014 C 103.639 -0.939105 1.6298 0
M  V30 1015 O 102.997 -1.61472 0.8244 0
M  V30 1016 C 103.045 0.586094 3.55805 0
M  V30 1017 O 102.149 -0.386029 4.10589 0
M  V30 1018 H 101.49 0.183664 0.638094 0
M  V30 1019 H 104.02 1.13875 1.69981 0
M  V30 1020 H 104.03 0.469209 4.05293 0
M  V30 1021 H 102.705 1.6014 3.83833 0
M  V30 1022 H 101.282 -0.226371 3.72212 0
M  V30 1023 N 103.467 -1.45747 0.599634 0
M  V30 1024 C 104.716 -2.01502 0.0893511 0
M  V30 1025 C 105.029 -1.4748 -1.28488 0
M  V30 1026 O 106.235 -1.95161 -1.88745 0
M  V30 1027 C 104.691 -3.59735 0.109082 0
M  V30 1028 C 104.299 -4.22754 1.48267 0
M  V30 1029 C 106.043 -4.23085 -0.346374 0
M  V30 1030 C 103.95 -5.73115 1.45921 0
M  V30 1031 H 102.88 -0.753417 0.0296347 0
M  V30 1032 H 105.531 -1.67303 0.753788 0
M  V30 1033 H 103.913 -3.91087 -0.621854 0
M  V30 1034 H 105.087 -4.02987 2.23468 0
M  V30 1035 H 103.402 -3.71567 1.87955 0
M  V30 1036 H 105.999 -5.33327 -0.38298 0
M  V30 1037 H 106.342 -3.93201 -1.36743 0
M  V30 1038 H 106.875 -3.9642 0.331038 0
M  V30 1039 H 103.614 -6.07685 2.45762 0
M  V30 1040 H 103.134 -5.95097 0.749665 0
M  V30 1041 H 104.813 -6.3616 1.17941 0
M  V30 1042 N 104.945 -0.338344 -1.53925 0
M  V30 1043 C 106.194 0.260732 -2.00008 0
M  V30 1044 C 106.507 1.52073 -1.23017 0
M  V30 1045 O 107.713 2.19672 -1.5955 0
M  V30 1046 C 106.169 0.51515 -3.56194 0
M  V30 1047 C 105.777 -0.728645 -4.42035 0
M  V30 1048 C 107.521 1.07337 -4.10706 0
M  V30 1049 C 105.428 -0.445315 -5.89721 0
M  V30 1050 H 104.358 0.101205 -0.747177 0
M  V30 1051 H 107.009 -0.452866 -1.77824 0
M  V30 1052 H 105.391 1.28932 -3.74423 0
M  V30 1053 H 106.565 -1.50352 -4.35581 0
M  V30 1054 H 104.88 -1.20813 -3.98489 0
M  V30 1055 H 107.477 1.30022 -5.18651 0
M  V30 1056 H 107.82 2.0273 -3.63602 0
M  V30 1057 H 108.353 0.360034 -3.96167 0
M  V30 1058 H 105.092 -1.36883 -6.41049 0
M  V30 1059 H 104.612 0.291569 -5.99091 0
M  V30 1060 H 106.291 -0.0606218 -6.46972 0
M  V30 1061 N 106.423 1.57458 -0.0668435 0
M  V30 1062 C 107.671 1.92919 0.602214 0
M  V30 1063 C 107.992 0.947215 1.70449 0
M  V30 1064 O 107.262 -0.00544117 1.95899 0
M  V30 1065 H 105.842 0.71217 0.22544 0
M  V30 1066 H 108.504 1.94508 -0.123535 0
M  V30 1067 H 107.6 2.94589 1.03073 0
M  V30 1068 N 107.901 -0.206675 1.56239 0
M  V30 1069 C 109.178 -0.954051 1.70755 0
M  V30 1070 C 109.558 -2.01841 0.618353 0
M  V30 1071 O 108.906 -2.25444 -0.372434 0
M  V30 1072 C 109.116 -1.551 3.12642 0
M  V30 1073 C 110.464 -2.03757 3.72516 0
M  V30 1074 O 111.488 -1.64965 3.15698 0
M  V30 1075 O 110.347 -2.75103 4.72208 0
M  V30 1076 H 107.441 -0.446636 0.696021 0
M  V30 1077 H 109.987 -0.197283 1.68549 0
M  V30 1078 H 108.759 -0.783212 3.83382 0
M  V30 1079 H 108.382 -2.37291 3.19028 0
M  V30 1080 N 109.379 -1.50304 -0.473955 0
M  V30 1081 C 110.626 -1.6115 -1.22625 0
M  V30 1082 C 110.954 -0.310517 -1.92005 0
M  V30 1083 O 110.209 0.703419 -1.82621 0
M  V30 1084 C 110.508 -2.73938 -2.29549 0
M  V30 1085 C 110.174 -4.14519 -1.7744 0
M  V30 1086 C 108.836 -4.5277 -1.62949 0
M  V30 1087 C 111.188 -5.02392 -1.3875 0
M  V30 1088 C 108.516 -5.76639 -1.08187 0
M  V30 1089 C 110.868 -6.26805 -0.854309 0
M  V30 1090 C 109.532 -6.63861 -0.696011 0
M  V30 1091 H 108.802 -0.589691 -0.448715 0
M  V30 1092 H 111.449 -1.84228 -0.522705 0
M  V30 1093 H 109.754 -2.44937 -3.05799 0
M  V30 1094 H 111.451 -2.79534 -2.87509 0
M  V30 1095 H 108.041 -3.8434 -1.89685 0
M  V30 1096 H 112.225 -4.73474 -1.4878 0
M  V30 1097 H 107.481 -6.04027 -0.946666 0
M  V30 1098 H 111.655 -6.94258 -0.545843 0
M  V30 1099 H 109.282 -7.59722 -0.26952 0
M  V30 1100 N 110.857 0.726932 -1.39834 0
M  V30 1101 C 111.789 1.85147 -1.35104 0
M  V30 1102 C 112.802 1.60736 -0.258392 0
M  V30 1103 O 113.991 1.70821 -0.517931 0
M  V30 1104 C 111.091 3.21332 -1.07697 0
M  V30 1105 C 110.264 3.73033 -2.28396 0
M  V30 1106 C 109.323 4.87802 -1.97322 0
M  V30 1107 O 108.349 5.01043 -2.70083 0
M  V30 1108 N 109.551 5.72768 -0.944273 0
M  V30 1109 H 112.316 1.89706 -2.32017 0
M  V30 1110 H 109.877 0.908006 -1.3404 0
M  V30 1111 H 111.869 3.95691 -0.849144 0
M  V30 1112 H 110.439 3.11992 -0.194909 0
M  V30 1113 H 109.659 2.89934 -2.6708 0
M  V30 1114 H 110.947 4.0431 -3.08887 0
M  V30 1115 H 110.345 5.64669 -0.341427 0
M  V30 1116 H 108.902 6.4716 -0.776346 0
M  V30 1117 N 112.336 1.25143 0.95797 0
M  V30 1118 C 113.284 1.05019 2.07542 0
M  V30 1119 C 114.278 -0.0178751 1.69391 0
M  V30 1120 O 115.484 0.137472 1.79474 0
M  V30 1121 H 111.859 0.32265 0.679265 0
M  V30 1122 H 113.83 1.99759 2.21673 0
M  V30 1123 C 112.579 0.682074 3.40944 0
M  V30 1124 H 111.902 1.49573 3.70767 0
M  V30 1125 H 113.342 0.580945 4.20001 0
M  V30 1126 C 111.801 -0.611608 3.31302 0
M  V30 1127 O 112.331 -1.65465 3.66038 0
M  V30 1128 N 110.537 -0.595982 2.84423 0
M  V30 1129 H 110.084 0.253192 2.56353 0
M  V30 1130 H 110.042 -1.46173 2.78354 0
M  V30 1131 N 113.814 -1.1601 1.06675 0
M  V30 1132 C 115.062 -1.86264 0.784229 0
M  V30 1133 C 115.383 -1.82328 -0.691488 0
M  V30 1134 O 114.653 -1.25947 -1.50047 0
M  V30 1135 H 113.233 -0.689621 0.28711 0
M  V30 1136 H 115.895 -1.40664 1.34906 0
M  V30 1137 H 114.991 -2.91595 1.11259 0
M  V30 1138 N 115.292 -0.849877 -1.32721 0
M  V30 1139 C 116.239 -0.289033 -2.28983 0
M  V30 1140 C 117.209 0.601324 -1.54833 0
M  V30 1141 O 118.394 0.537253 -1.8308 0
M  V30 1142 C 115.534 0.520623 -3.4115 0
M  V30 1143 C 114.647 -0.394989 -4.3019 0
M  V30 1144 C 113.782 0.426834 -5.29482 0
M  V30 1145 C 112.821 -0.486476 -6.10164 0
M  V30 1146 N 111.958 0.297879 -7.01468 0
M  V30 1147 H 116.798 -1.11519 -2.76347 0
M  V30 1148 H 114.335 -0.56138 -1.35967 0
M  V30 1149 H 116.293 1.00563 -4.04899 0
M  V30 1150 H 114.923 1.31165 -2.9495 0
M  V30 1151 H 113.975 -0.99836 -3.67065 0
M  V30 1152 H 115.287 -1.09612 -4.86607 0
M  V30 1153 H 114.441 0.975205 -5.98811 0
M  V30 1154 H 113.18 1.16136 -4.73671 0
M  V30 1155 H 112.185 -1.04677 -5.39743 0
M  V30 1156 H 113.41 -1.21953 -6.6806 0
M  V30 1157 H 111.356 1.01558 -6.48091 0
M  V30 1158 H 111.273 -0.344318 -7.55216 0
M  V30 1159 H 112.541 0.828131 -7.75089 0
M  V30 1160 N 116.77 1.45427 -0.607355 0
M  V30 1161 C 118.186 1.57283 -0.270985 0
M  V30 1162 C 118.386 1.59875 1.22647 0
M  V30 1163 O 117.442 1.52893 2.00948 0
M  V30 1164 C 118.755 2.85566 -0.941952 0
M  V30 1165 C 120.303 2.9924 -0.917849 0
M  V30 1166 C 120.778 4.30293 -1.56882 0
M  V30 1167 N 122.269 4.37051 -1.5343 0
M  V30 1168 C 123.004 5.37123 -2.00715 0
M  V30 1169 N 122.5 6.43734 -2.56084 0
M  V30 1170 N 124.293 5.28479 -1.91484 0
M  V30 1171 H 116.444 1.41988 -1.57966 0
M  V30 1172 H 118.707 0.67885 -0.661715 0
M  V30 1173 H 118.413 2.8955 -1.99633 0
M  V30 1174 H 118.287 3.74322 -0.465096 0
M  V30 1175 H 120.674 2.94822 0.127984 0
M  V30 1176 H 120.755 2.11895 -1.43297 0
M  V30 1177 H 120.399 4.35469 -2.61398 0
M  V30 1178 H 120.329 5.16454 -1.02873 0
M  V30 1179 H 122.82 3.60615 -1.12982 0
M  V30 1180 H 123.133 7.16341 -2.89958 0
M  V30 1181 H 121.478 6.44485 -2.60122 0
M  V30 1182 H 124.669 4.44098 -1.47967 0
M  V30 1183 H 124.842 6.0632 -2.28648 0
M  V30 1184 N 118.248 0.346503 1.53744 0
M  V30 1185 C 119.494 -0.249473 2.0126 0
M  V30 1186 C 119.827 -1.49965 1.23386 0
M  V30 1187 O 119.102 -1.91811 0.32229 0
M  V30 1188 C 119.385 -0.560643 3.55709 0
M  V30 1189 C 119.238 0.701836 4.44291 0
M  V30 1190 C 120.557 -1.36905 4.18264 0
M  V30 1191 H 117.676 -0.0891987 0.731582 0
M  V30 1192 H 120.318 0.467624 1.84156 0
M  V30 1193 H 118.468 -1.17156 3.70414 0
M  V30 1194 H 120.14 1.33974 4.41417 0
M  V30 1195 H 118.383 1.32612 4.13033 0
M  V30 1196 H 119.054 0.43933 5.50249 0
M  V30 1197 H 121.53 -0.852448 4.07275 0
M  V30 1198 H 120.406 -1.55553 5.26398 0
M  V30 1199 H 120.667 -2.37203 3.73078 0
M  V30 1200 N 119.726 -1.57421 0.075193 0
M  V30 1201 C 120.951 -1.98364 -0.605515 0
M  V30 1202 C 121.376 -0.953383 -1.62149 0
M  V30 1203 O 120.734 0.0806053 -1.81121 0
M  V30 1204 C 120.782 -3.38332 -1.24756 0
M  V30 1205 O 119.886 -3.37959 -2.36342 0
M  V30 1206 H 119.227 -0.645553 -0.155428 0
M  V30 1207 H 121.757 -2.04044 0.150714 0
M  V30 1208 H 121.767 -3.75591 -1.5936 0
M  V30 1209 H 120.442 -4.12846 -0.503129 0
M  V30 1210 H 119.019 -3.12474 -2.03506 0
M  V30 1211 N 121.204 0.198386 -1.56346 0
M  V30 1212 C 122.134 1.24865 -1.9731 0
M  V30 1213 C 123.115 1.47651 -0.844576 0
M  V30 1214 O 124.3 1.59444 -1.10866 0
M  V30 1215 C 121.43 2.59358 -2.30977 0
M  V30 1216 C 120.384 2.5119 -3.46537 0
M  V30 1217 C 119.71 3.89926 -3.65871 0
M  V30 1218 C 121.01 2.03977 -4.80823 0
M  V30 1219 H 122.704 0.908252 -2.85291 0
M  V30 1220 H 120.25 0.435462 -1.37258 0
M  V30 1221 H 122.203 3.33011 -2.58228 0
M  V30 1222 H 120.927 2.95132 -1.39874 0
M  V30 1223 H 119.586 1.79993 -3.19371 0
M  V30 1224 H 119.234 4.23046 -2.72105 0
M  V30 1225 H 118.934 3.85336 -4.4361 0
M  V30 1226 H 120.458 4.65205 -3.95495 0
M  V30 1227 H 121.872 2.67386 -5.07127 0
M  V30 1228 H 120.269 2.10397 -5.62008 0
M  V30 1229 H 121.339 0.992861 -4.74626 0
M  V30 1230 N 122.682 1.50554 0.465978 0
M  V30 1231 C 123.907 1.65838 1.24549 0
M  V30 1232 C 124.332 0.343486 1.84937 0
M  V30 1233 O 123.69 -0.69324 1.67523 0
M  V30 1234 C 123.738 2.75533 2.32624 0
M  V30 1235 O 122.842 2.37142 3.37398 0
M  V30 1236 H 122.183 0.553893 0.366194 0
M  V30 1237 H 124.713 1.96959 0.553927 0
M  V30 1238 H 124.723 2.98763 2.77857 0
M  V30 1239 H 123.398 3.70962 1.88043 0
M  V30 1240 H 121.975 2.24377 2.97841 0
M  V30 1241 N 124.16 -0.719506 1.40217 0
M  V30 1242 C 125.406 -1.48152 1.38488 0
M  V30 1243 C 125.739 -1.94195 -0.0141867 0
M  V30 1244 O 125.014 -1.67884 -0.982096 0
M  V30 1245 C 125.297 -2.71035 2.37091 0
M  V30 1246 C 125.15 -2.30912 3.86005 0
M  V30 1247 C 126.469 -3.73182 2.33288 0
M  V30 1248 H 123.588 -0.537395 0.504357 0
M  V30 1249 H 126.23 -0.821472 1.71324 0
M  V30 1250 H 124.38 -3.27352 2.0922 0
M  V30 1251 H 126.052 -1.80107 4.24687 0
M  V30 1252 H 124.295 -1.62958 4.02029 0
M  V30 1253 H 124.966 -3.18978 4.50508 0
M  V30 1254 H 127.442 -3.26485 2.57966 0
M  V30 1255 H 126.318 -4.56806 3.04334 0
M  V30 1256 H 126.579 -4.21202 1.34317 0
M  V30 1257 N 125.638 -1.25649 -0.95132 0
M  V30 1258 C 126.868 -1.13179 -1.72841 0
M  V30 1259 C 127.276 0.316827 -1.86528 0
M  V30 1260 O 126.619 1.22948 -1.3649 0
M  V30 1261 C 126.681 -1.71644 -3.15878 0
M  V30 1262 C 126.345 -3.20667 -3.25609 0
M  V30 1263 C 127.342 -4.17616 -3.09666 0
M  V30 1264 C 125.027 -3.6094 -3.49324 0
M  V30 1265 C 127.021 -5.52817 -3.17289 0
M  V30 1266 C 124.708 -4.96278 -3.56584 0
M  V30 1267 C 125.706 -5.92025 -3.40581 0
M  V30 1268 O 125.394 -7.24899 -3.47528 0
M  V30 1269 H 125.126 -0.395389 -0.54831 0
M  V30 1270 H 127.68 -1.66566 -1.20187 0
M  V30 1271 H 125.91 -1.12707 -3.69911 0
M  V30 1272 H 127.599 -1.54225 -3.75459 0
M  V30 1273 H 128.365 -3.87842 -2.91211 0
M  V30 1274 H 124.244 -2.86907 -3.6084 0
M  V30 1275 H 127.788 -6.2753 -3.04716 0
M  V30 1276 H 123.685 -5.25716 -3.74556 0
M  V30 1277 H 124.453 -7.33039 -3.64138 0
M  V30 1278 N 127.117 1.15442 -1.07289 0
M  V30 1279 C 128.047 2.22312 -0.714107 0
M  V30 1280 C 129.028 1.67467 0.298155 0
M  V30 1281 O 130.213 1.93445 0.171048 0
M  V30 1282 C 127.343 3.47124 -0.110448 0
M  V30 1283 C 126.297 4.14926 -1.04979 0
M  V30 1284 C 125.623 5.33807 -0.308924 0
M  V30 1285 C 126.923 4.64762 -2.38314 0
M  V30 1286 H 128.617 2.5258 -1.6076 0
M  V30 1287 H 126.163 1.21404 -0.77441 0
M  V30 1288 H 128.116 4.21124 0.152482 0
M  V30 1289 H 126.84 3.16187 0.81812 0
M  V30 1290 H 125.499 3.42866 -1.29764 0
M  V30 1291 H 125.147 4.99126 0.623084 0
M  V30 1292 H 124.847 5.80113 -0.935036 0
M  V30 1293 H 126.371 6.10576 -0.0537771 0
M  V30 1294 H 127.785 5.30292 -2.1786 0
M  V30 1295 H 126.182 5.21728 -2.96514 0
M  V30 1296 H 127.252 3.80434 -3.00663 0
M  V30 1297 N 128.595 0.856903 1.32268 0
M  V30 1298 C 129.843 0.460474 1.96784 0
M  V30 1299 C 130.164 -0.987701 1.68135 0
M  V30 1300 O 129.434 -1.69058 0.989765 0
M  V30 1301 H 128.014 0.167289 0.728027 0
M  V30 1302 H 130.676 1.09383 1.61312 0
M  V30 1303 H 129.772 0.60739 3.06133 0
M  V30 1304 N 130.073 -1.45103 0.615059 0
M  V30 1305 C 130.983 -2.34382 -0.101034 0
M  V30 1306 C 131.999 -1.51681 -0.852585 0
M  V30 1307 O 133.175 -1.8446 -0.808484 0
M  V30 1308 C 130.24 -3.29417 -1.08099 0
M  V30 1309 C 129.301 -4.28025 -0.330577 0
M  V30 1310 C 128.534 -5.1852 -1.26385 0
M  V30 1311 O 128.757 -5.12598 -2.50198 0
M  V30 1312 O 127.691 -5.97122 -0.756866 0
M  V30 1313 H 131.517 -2.97033 0.632855 0
M  V30 1314 H 129.102 -1.4461 0.375293 0
M  V30 1315 H 130.984 -3.87958 -1.6452 0
M  V30 1316 H 129.659 -2.69321 -1.79577 0
M  V30 1317 H 128.566 -3.73078 0.276283 0
M  V30 1318 H 129.899 -4.90997 0.343866 0
M  V30 1319 N 131.551 -0.354651 -1.53558 0
M  V30 1320 C 132.798 0.238443 -2.01091 0
M  V30 1321 C 133.126 1.49663 -1.24222 0
M  V30 1322 O 132.381 1.93049 -0.321003 0
M  V30 1323 C 132.68 0.587121 -3.52545 0
M  V30 1324 C 132.346 -0.575472 -4.47213 0
M  V30 1325 C 131.008 -0.894497 -4.72813 0
M  V30 1326 C 133.36 -1.35489 -5.03281 0
M  V30 1327 C 130.688 -1.99511 -5.51736 0
M  V30 1328 C 133.04 -2.44583 -5.83405 0
M  V30 1329 C 131.704 -2.77033 -6.07296 0
M  V30 1330 H 130.974 0.0872526 -0.735845 0
M  V30 1331 H 133.621 -0.484859 -1.8526 0
M  V30 1332 H 131.926 1.39129 -3.66265 0
M  V30 1333 H 133.623 1.05809 -3.86789 0
M  V30 1334 H 130.213 -0.316774 -4.27428 0
M  V30 1335 H 134.397 -1.12167 -4.83459 0
M  V30 1336 H 129.653 -2.25063 -5.68469 0
M  V30 1337 H 133.827 -3.05401 -6.25862 0
M  V30 1338 H 131.454 -3.6244 -6.68237 0
M  V30 1339 N 133.029 1.57378 -0.0835403 0
M  V30 1340 C 134.276 1.9393 0.58287 0
M  V30 1341 C 134.604 0.964455 1.68904 0
M  V30 1342 O 133.859 -0.0179474 1.95692 0
M  V30 1343 C 134.158 3.37063 1.1884 0
M  V30 1344 C 133.824 4.50424 0.207194 0
M  V30 1345 C 132.486 4.81159 -0.0627115 0
M  V30 1346 C 134.838 5.19136 -0.463426 0
M  V30 1347 C 132.166 5.77939 -1.01012 0
M  V30 1348 C 134.518 6.16931 -1.39924 0
M  V30 1349 C 133.182 6.46078 -1.67749 0
M  V30 1350 H 132.452 0.70964 0.213287 0
M  V30 1351 H 135.099 1.90856 -0.156916 0
M  V30 1352 H 133.404 3.3666 2.00418 0
M  V30 1353 H 135.101 3.6264 1.71153 0
M  V30 1354 H 131.691 4.2646 0.427747 0
M  V30 1355 H 135.875 4.95576 -0.268034 0
M  V30 1356 H 131.131 5.98842 -1.23283 0
M  V30 1357 H 135.305 6.69273 -1.92476 0
M  V30 1358 H 132.932 7.2088 -2.41321 0
M  V30 1359 N 134.507 -0.190092 1.56449 0
M  V30 1360 C 135.784 -0.935886 1.71757 0
M  V30 1361 C 136.164 -2.01173 0.639726 0
M  V30 1362 O 135.512 -2.25827 -0.348502 0
M  V30 1363 C 135.722 -1.51775 3.1427 0
M  V30 1364 C 137.07 -1.99794 3.74656 0
M  V30 1365 O 138.094 -1.61607 3.1743 0
M  V30 1366 O 136.953 -2.70079 4.751 0
M  V30 1367 H 134.047 -0.439229 0.700719 0
M  V30 1368 H 136.593 -0.179395 1.68749 0
M  V30 1369 H 135.365 -0.742505 3.84191 0
M  V30 1370 H 134.988 -2.33894 3.21527 0
M  V30 1371 N 135.985 -1.50799 -0.457987 0
M  V30 1372 C 137.234 -1.6168 -1.20593 0
M  V30 1373 C 137.547 -0.32888 -1.92815 0
M  V30 1374 O 138.753 -0.316773 -2.69646 0
M  V30 1375 C 137.209 -2.8545 -2.19195 0
M  V30 1376 C 136.817 -4.21168 -1.52715 0
M  V30 1377 C 138.561 -3.05681 -2.94549 0
M  V30 1378 C 136.468 -5.3611 -2.4968 0
M  V30 1379 H 135.398 -0.602134 -0.453818 0
M  V30 1380 H 138.049 -1.77245 -0.475031 0
M  V30 1381 H 136.431 -2.63472 -2.95632 0
M  V30 1382 H 137.605 -4.53449 -0.819775 0
M  V30 1383 H 135.92 -4.06648 -0.895922 0
M  V30 1384 H 138.517 -3.88727 -3.67145 0
M  V30 1385 H 138.86 -2.17929 -3.54701 0
M  V30 1386 H 139.393 -3.27901 -2.25223 0
M  V30 1387 H 136.132 -6.26057 -1.94249 0
M  V30 1388 H 135.652 -5.0823 -3.18532 0
M  V30 1389 H 137.331 -5.6722 -3.11241 0
M  V30 1390 N 137.463 0.71206 -1.40597 0
M  V30 1391 C 138.413 1.81783 -1.37619 0
M  V30 1392 C 139.397 1.58896 -0.253162 0
M  V30 1393 O 140.589 1.70009 -0.492547 0
M  V30 1394 C 137.718 3.19944 -1.24462 0
M  V30 1395 C 136.804 3.48582 -2.4156 0
M  V30 1396 N 137.195 3.48016 -3.67041 0
M  V30 1397 C 135.493 3.79056 -2.35016 0
M  V30 1398 C 136.194 3.75096 -4.44609 0
M  V30 1399 N 135.17 3.94022 -3.74497 0
M  V30 1400 H 138.972 1.79683 -2.32575 0
M  V30 1401 H 136.486 0.91134 -1.34419 0
M  V30 1402 H 138.483 3.99133 -1.20411 0
M  V30 1403 H 137.143 3.23267 -0.304762 0
M  V30 1404 H 138.154 3.28782 -4.00153 0
M  V30 1405 H 134.831 3.89848 -1.49415 0
M  V30 1406 H 136.221 3.80934 -5.53479 0
M  V30 1407 N 138.941 1.26152 0.944643 0
M  V30 1408 C 139.871 1.09902 2.06019 0
M  V30 1409 C 140.852 0.00519538 1.70099 0
M  V30 1410 O 142.037 0.176583 1.93396 0
M  V30 1411 C 139.167 0.727562 3.39594 0
M  V30 1412 C 138.121 1.77274 3.89561 0
M  V30 1413 C 137.447 1.25569 5.19747 0
M  V30 1414 C 138.747 3.17357 4.14827 0
M  V30 1415 H 140.441 2.03217 2.19871 0
M  V30 1416 H 137.987 0.978452 1.05652 0
M  V30 1417 H 139.94 0.600777 4.17095 0
M  V30 1418 H 138.664 -0.241287 3.25707 0
M  V30 1419 H 137.323 1.88814 3.14237 0
M  V30 1420 H 136.971 0.276783 5.02238 0
M  V30 1421 H 136.671 1.95433 5.54148 0
M  V30 1422 H 138.195 1.1415 5.99835 0
M  V30 1423 H 139.609 3.08914 4.82954 0
M  V30 1424 H 138.006 3.84781 4.60504 0
M  V30 1425 H 139.076 3.63673 3.20734 0
M  V30 1426 N 140.419 -1.14872 1.07899 0
M  V30 1427 C 141.666 -1.85789 0.805532 0
M  V30 1428 C 141.994 -1.82649 -0.668561 0
M  V30 1429 O 141.249 -1.24858 -1.50695 0
M  V30 1430 C 141.548 -3.34223 1.26609 0
M  V30 1431 C 141.214 -3.57555 2.74709 0
M  V30 1432 C 139.876 -3.63631 3.1516 0
M  V30 1433 C 142.228 -3.66803 3.70277 0
M  V30 1434 C 139.556 -3.76473 4.49983 0
M  V30 1435 C 141.908 -3.8117 5.04869 0
M  V30 1436 C 140.572 -3.85494 5.44932 0
M  V30 1437 H 139.842 -0.679849 0.294765 0
M  V30 1438 H 142.489 -1.3572 1.35101 0
M  V30 1439 H 140.794 -3.86536 0.640103 0
M  V30 1440 H 142.491 -3.87511 1.03132 0
M  V30 1441 H 139.081 -3.5347 2.42398 0
M  V30 1442 H 143.265 -3.61404 3.40149 0
M  V30 1443 H 138.521 -3.7808 4.80484 0
M  V30 1444 H 142.695 -3.87268 5.78789 0
M  V30 1445 H 140.322 -3.95197 6.49403 0
M  V30 1446 N 141.898 -0.863906 -1.31812 0
M  V30 1447 C 143.144 -0.472535 -1.97218 0
M  V30 1448 C 143.477 0.971394 -1.68159 0
M  V30 1449 O 142.752 1.68309 -0.974798 0
M  V30 1450 C 143.035 -0.723054 -3.52766 0
M  V30 1451 C 142.888 -2.21608 -3.91421 0
M  V30 1452 C 144.207 -0.185522 -4.39709 0
M  V30 1453 H 141.326 -0.173158 -0.71637 0
M  V30 1454 H 143.968 -1.08403 -1.56041 0
M  V30 1455 H 142.118 -0.202577 -3.87971 0
M  V30 1456 H 143.79 -2.80334 -3.66347 0
M  V30 1457 H 142.033 -2.691 -3.40246 0
M  V30 1458 H 142.704 -2.34203 -4.99853 0
M  V30 1459 H 145.18 -0.630726 -4.11292 0
M  V30 1460 H 144.056 -0.390306 -5.47511 0
M  V30 1461 H 144.317 0.912229 -4.32586 0
M  V30 1462 N 143.376 1.44774 -0.622745 0
M  V30 1463 C 144.324 2.32387 0.0994683 0
M  V30 1464 C 145.318 1.46859 0.844326 0
M  V30 1465 O 146.524 1.63254 0.758174 0
M  V30 1466 H 142.899 0.750273 0.0509291 0
M  V30 1467 H 144.87 2.91062 -0.65767 0
M  V30 1468 C 143.619 3.30723 1.07319 0
M  V30 1469 H 142.942 3.96541 0.509462 0
M  V30 1470 H 144.382 3.94725 1.54817 0
M  V30 1471 C 142.841 2.59021 2.15429 0
M  V30 1472 O 143.371 2.38286 3.23393 0
M  V30 1473 N 141.577 2.189 1.91131 0
M  V30 1474 H 141.124 2.35964 1.03337 0
M  V30 1475 H 141.082 1.71251 2.63668 0
M  V30 1476 N 144.854 0.36279 1.53368 0
M  V30 1477 C 146.102 -0.227326 2.00817 0
M  V30 1478 C 146.423 -1.49511 1.25186 0
M  V30 1479 O 145.693 -1.92482 0.364348 0
M  V30 1480 H 144.273 -0.0869923 0.741917 0
M  V30 1481 H 146.935 0.488381 1.88682 0
M  V30 1482 H 146.031 -0.456273 3.08747 0
M  V30 1483 N 146.332 -1.57332 0.0918853 0
M  V30 1484 C 147.56 -1.98574 -0.581048 0
M  V30 1485 C 147.975 -0.970903 -1.61923 0
M  V30 1486 O 147.332 0.0399054 -1.82456 0
M  V30 1487 C 147.383 -3.39872 -1.23164 0
M  V30 1488 O 147.104 -4.37469 -0.234989 0
M  V30 1489 C 148.605 -3.96099 -1.99049 0
M  V30 1490 H 145.825 -0.65261 -0.156018 0
M  V30 1491 H 148.369 -2.0379 0.170225 0
M  V30 1492 H 146.524 -3.35679 -1.93386 0
M  V30 1493 H 146.938 -5.19751 -0.70418 0
M  V30 1494 H 148.412 -4.97127 -2.39934 0
M  V30 1495 H 148.889 -3.3374 -2.85507 0
M  V30 1496 H 149.495 -4.03755 -1.3365 0
M  V30 1497 N 147.81 0.181792 -1.56548 0
M  V30 1498 C 149.056 0.901431 -1.81665 0
M  V30 1499 C 149.389 1.82347 -0.668075 0
M  V30 1500 O 148.664 1.91669 0.330615 0
M  V30 1501 C 148.947 1.70618 -3.17115 0
M  V30 1502 C 148.8 0.807964 -4.42484 0
M  V30 1503 C 150.119 2.67605 -3.49393 0
M  V30 1504 H 147.238 0.32627 -0.660846 0
M  V30 1505 H 149.88 0.168134 -1.89255 0
M  V30 1506 H 148.03 2.33133 -3.10775 0
M  V30 1507 H 149.702 0.19649 -4.60881 0
M  V30 1508 H 147.945 0.115411 -4.33646 0
M  V30 1509 H 148.616 1.40632 -5.33785 0
M  V30 1510 H 151.092 2.15218 -3.56118 0
M  V30 1511 H 149.968 3.20985 -4.45264 0
M  V30 1512 H 150.229 3.47298 -2.73563 0
M  V30 1513 N 149.288 1.51039 0.449983 0
M  V30 1514 C 150.516 1.66869 1.2232 0
M  V30 1515 C 150.931 0.360727 1.85322 0
M  V30 1516 O 150.288 -0.659531 1.70166 0
M  V30 1517 C 150.339 2.77524 2.31652 0
M  V30 1518 O 150.06 4.03252 1.7123 0
M  V30 1519 C 151.561 3.04512 3.2216 0
M  V30 1520 H 148.781 0.560326 0.369155 0
M  V30 1521 H 151.325 1.97385 0.534719 0
M  V30 1522 H 149.48 2.49642 2.96239 0
M  V30 1523 H 149.894 4.64609 2.43389 0
M  V30 1524 H 151.368 3.85551 3.95038 0
M  V30 1525 H 151.845 2.16415 3.8218 0
M  V30 1526 H 152.451 3.34005 2.63288 0
M  V30 1527 N 150.766 -0.704594 1.40972 0
M  V30 1528 C 151.698 -1.82974 1.38033 0
M  V30 1529 C 152.711 -1.60305 0.283931 0
M  V30 1530 O 153.9 -1.69975 0.545042 0
M  V30 1531 C 151 -3.19578 1.12795 0
M  V30 1532 C 150.173 -3.69352 2.34302 0
M  V30 1533 C 149.232 -4.84601 2.05058 0
M  V30 1534 O 148.258 -4.96682 2.7802 0
M  V30 1535 N 149.46 -5.71194 1.03528 0
M  V30 1536 H 152.225 -1.85991 2.35005 0
M  V30 1537 H 149.786 -0.886567 1.35468 0
M  V30 1538 H 151.778 -3.9429 0.911987 0
M  V30 1539 H 150.348 -3.11642 0.24452 0
M  V30 1540 H 149.568 -2.85649 2.71659 0
M  V30 1541 H 150.856 -3.99345 3.1528 0
M  V30 1542 H 150.254 -5.64054 0.431217 0
M  V30 1543 H 148.811 -6.45843 0.879205 0
M  V30 1544 N 152.244 -1.26651 -0.937939 0
M  V30 1545 C 153.492 -1.12165 -1.68118 0
M  V30 1546 C 153.813 0.334983 -1.92101 0
M  V30 1547 O 153.083 1.23583 -1.52 0
M  V30 1548 H 151.663 -0.412093 -0.623048 0
M  V30 1549 H 154.325 -1.59027 -1.12678 0
M  V30 1550 H 153.421 -1.64289 -2.6536 0
M  V30 1551 N 153.722 1.14298 -1.08507 0
M  V30 1552 C 154.999 1.81544 -0.728088 0
M  V30 1553 C 155.379 1.95838 0.78808 0
M  V30 1554 O 154.727 1.51904 1.70697 0
M  V30 1555 C 154.937 3.17169 -1.45619 0
M  V30 1556 C 156.285 3.9265 -1.61591 0
M  V30 1557 O 157.309 3.26762 -1.41793 0
M  V30 1558 O 156.168 5.10807 -1.94263 0
M  V30 1559 H 153.262 0.78491 -0.260471 0
M  V30 1560 H 155.808 1.21307 -1.18671 0
M  V30 1561 H 154.58 3.01934 -2.489 0
M  V30 1562 H 154.203 3.851 -0.989124 0
M  V30 1563 N 155.201 0.870884 1.31352 0
M  V30 1564 C 156.133 0.28455 2.27427 0
M  V30 1565 C 157.146 -0.552927 1.53123 0
M  V30 1566 O 158.335 -0.374771 1.74521 0
M  V30 1567 C 155.435 -0.615164 3.3327 0
M  V30 1568 C 154.608 0.190079 4.36987 0
M  V30 1569 C 153.667 -0.637917 5.22319 0
M  V30 1570 O 152.693 -0.065626 5.69162 0
M  V30 1571 N 153.895 -1.94973 5.46778 0
M  V30 1572 H 156.66 1.11017 2.7838 0
M  V30 1573 H 154.221 0.732458 1.44384 0
M  V30 1574 H 156.213 -1.1748 3.87273 0
M  V30 1575 H 154.783 -1.34146 2.82354 0
M  V30 1576 H 154.003 0.931165 3.83044 0
M  V30 1577 H 155.291 0.742579 5.03352 0
M  V30 1578 H 154.689 -2.4378 5.10478 0
M  V30 1579 H 153.246 -2.45713 6.03712 0
M  V30 1580 N 156.679 -1.44442 0.630414 0
M  V30 1581 C 158.095 -1.56832 0.295973 0
M  V30 1582 C 158.295 -1.61806 -1.20088 0
M  V30 1583 O 157.351 -1.5607 -1.9849 0
M  V30 1584 C 158.664 -2.84031 0.987264 0
M  V30 1585 C 160.212 -2.97742 0.96534 0
M  V30 1586 C 160.687 -4.27743 1.63708 0
M  V30 1587 N 162.178 -4.34555 1.60364 0
M  V30 1588 C 162.913 -5.33862 2.09234 0
M  V30 1589 N 162.409 -6.39578 2.66292 0
M  V30 1590 N 164.202 -5.25366 1.99867 0
M  V30 1591 H 156.353 -1.39457 1.60205 0
M  V30 1592 H 158.616 -0.668237 0.672431 0
M  V30 1593 H 158.322 -2.86338 2.04215 0
M  V30 1594 H 158.196 -3.73534 0.524588 0
M  V30 1595 H 160.583 -2.94989 -0.0810639 0
M  V30 1596 H 160.664 -2.09589 1.4665 0
M  V30 1597 H 160.308 -4.31255 2.68293 0
M  V30 1598 H 160.238 -5.14752 1.11076 0
M  V30 1599 H 162.729 -3.58772 1.18705 0
M  V30 1600 H 163.042 -7.11637 3.01317 0
M  V30 1601 H 161.387 -6.40265 2.70343 0
M  V30 1602 H 164.578 -4.41688 1.55013 0
M  V30 1603 H 164.751 -6.02606 2.38265 0
M  V30 1604 N 158.157 -0.370918 -1.53173 0
M  V30 1605 C 159.403 0.217423 -2.01631 0
M  V30 1606 C 159.736 1.47983 -1.25756 0
M  V30 1607 O 159.011 1.91274 -0.352764 0
M  V30 1608 C 159.294 0.503982 -3.56556 0
M  V30 1609 C 159.147 -0.77243 -4.43118 0
M  V30 1610 C 160.466 1.30234 -4.20389 0
M  V30 1611 H 157.585 0.0775486 -0.732909 0
M  V30 1612 H 160.227 -0.496863 -1.83388 0
M  V30 1613 H 158.377 1.11248 -3.72231 0
M  V30 1614 H 160.049 -1.4098 -4.39229 0
M  V30 1615 H 158.292 -1.39167 -4.10871 0
M  V30 1616 H 158.963 -0.526815 -5.4948 0
M  V30 1617 H 161.439 0.787546 -4.08579 0
M  V30 1618 H 160.315 1.47158 -5.28806 0
M  V30 1619 H 160.576 2.31237 -3.76805 0
M  V30 1620 N 159.635 1.57281 -0.100228 0
M  V30 1621 C 160.86 1.99302 0.573881 0
M  V30 1622 C 161.285 0.979059 1.60611 0
M  V30 1623 O 160.643 -0.0517803 1.81226 0
M  V30 1624 C 160.691 3.40274 1.19358 0
M  V30 1625 O 159.795 3.41676 2.30935 0
M  V30 1626 H 159.136 0.647944 0.145138 0
M  V30 1627 H 161.666 2.03779 -0.183156 0
M  V30 1628 H 161.676 3.78078 1.53365 0
M  V30 1629 H 160.351 4.13594 0.437385 0
M  V30 1630 H 158.928 3.15672 1.98509 0
M  V30 1631 N 161.113 -0.173488 1.56642 0
M  V30 1632 C 162.046 -1.24353 1.91342 0
M  V30 1633 C 163.024 -1.4289 0.775965 0
M  V30 1634 O 164.208 -1.57932 1.02907 0
M  V30 1635 C 161.335 -2.60683 2.16245 0
M  V30 1636 C 160.381 -2.58894 3.38934 0
M  V30 1637 S 161.214 -2.0819 4.93373 0
M  V30 1638 C 162.37 -3.46302 5.21369 0
M  V30 1639 H 162.603 -0.947345 2.81803 0
M  V30 1640 H 160.136 -0.377958 1.49703 0
M  V30 1641 H 162.094 -3.39149 2.31275 0
M  V30 1642 H 160.755 -2.87502 1.26496 0
M  V30 1643 H 159.948 -3.59188 3.53553 0
M  V30 1644 H 159.55 -1.88522 3.2301 0
M  V30 1645 H 161.842 -4.42287 5.13214 0
M  V30 1646 H 162.785 -3.3656 6.23003 0
M  V30 1647 H 163.193 -3.42214 4.48943 0
M  V30 1648 N 162.591 -1.51276 -0.441967 0
M  V30 1649 C 164.002 -1.56244 -1.02199 0
M  V30 1650 C 164.353 -0.383149 -1.92422 0
M  V30 1651 O 163.478 0.500613 -2.1053 0
M  V30 1652 C 164.073 -2.83162 -1.86024 0
M  V30 1653 C 162.632 -2.90716 -2.39084 0
M  V30 1654 C 161.779 -2.50858 -1.18175 0
M  V30 1655 H 164.73 -1.5712 -0.223416 0
M  V30 1656 H 164.751 -2.66663 -2.71425 0
M  V30 1657 H 164.263 -3.68974 -1.20331 0
M  V30 1658 H 162.364 -2.09323 -3.08244 0
M  V30 1659 H 162.477 -3.94266 -2.72198 0
M  V30 1660 H 160.841 -2.03951 -1.52565 0
M  V30 1661 H 161.624 -3.3901 -0.541001 0
M  V30 1662 N 164.069 0.697108 -1.41344 0
M  V30 1663 C 165.299 1.48377 -1.43763 0
M  V30 1664 C 165.707 1.89156 -0.0408726 0
M  V30 1665 O 165.05 1.57239 0.949812 0
M  V30 1666 C 165.112 2.7781 -2.2817 0
M  V30 1667 C 164.776 2.59244 -3.76353 0
M  V30 1668 C 165.773 2.25292 -4.68551 0
M  V30 1669 C 163.458 2.74933 -4.20378 0
M  V30 1670 C 165.452 2.07264 -6.02761 0
M  V30 1671 C 163.139 2.56521 -5.54653 0
M  V30 1672 C 164.137 2.22737 -6.4566 0
M  V30 1673 O 163.825 2.04485 -7.77458 0
M  V30 1674 H 163.557 0.463842 -0.491759 0
M  V30 1675 H 166.111 0.865934 -1.86255 0
M  V30 1676 H 164.341 3.41995 -1.8049 0
M  V30 1677 H 166.03 3.39608 -2.22309 0
M  V30 1678 H 166.796 2.12787 -4.35829 0
M  V30 1679 H 162.675 3.00213 -3.49848 0
M  V30 1680 H 166.219 1.80817 -6.73759 0
M  V30 1681 H 162.116 2.68616 -5.86955 0
M  V30 1682 H 162.884 2.1926 -7.88586 0
M  V30 1683 N 165.547 1.27147 0.931209 0
M  V30 1684 C 166.51 1.09615 2.01289 0
M  V30 1685 C 167.51 0.0412581 1.60747 0
M  V30 1686 O 168.7 0.285545 1.71844 0
M  V30 1687 C 165.832 0.669447 3.34262 0
M  V30 1688 H 167.025 2.05662 2.18273 0
M  V30 1689 H 164.578 1.09885 1.11153 0
M  V30 1690 H 165.313 -0.292572 3.22978 0
M  V30 1691 H 165.098 1.43127 3.65044 0
M  V30 1692 H 166.588 0.568921 4.13706 0
M  V30 1693 N 167.025 -1.13721 1.09112 0
M  V30 1694 C 168.25 -1.89314 0.847053 0
M  V30 1695 C 168.675 -1.78416 -0.595774 0
M  V30 1696 O 168.033 -1.12942 -1.41823 0
M  V30 1697 C 168.081 -3.3701 1.28284 0
M  V30 1698 O 167.185 -4.10054 0.439267 0
M  V30 1699 H 166.526 -0.588745 0.307044 0
M  V30 1700 H 169.056 -1.43902 1.45442 0
M  V30 1701 H 169.066 -3.87834 1.26683 0
M  V30 1702 H 167.741 -3.4426 2.33363 0
M  V30 1703 H 166.318 -3.69266 0.519312 0
M  V30 1704 N 168.503 -0.877838 -1.30888 0
M  V30 1705 C 169.45 -0.337538 -2.28318 0
M  V30 1706 C 170.42 0.568346 -1.56074 0
M  V30 1707 O 171.605 0.498298 -1.84178 0
M  V30 1708 C 168.745 0.448142 -3.42178 0
M  V30 1709 C 167.858 -0.48615 -4.29256 0
M  V30 1710 C 166.993 0.314427 -5.30269 0
M  V30 1711 C 166.032 -0.615791 -6.08995 0
M  V30 1712 N 165.169 0.14902 -7.01942 0
M  V30 1713 H 170.009 -1.17356 -2.73919 0
M  V30 1714 H 167.546 -0.590094 -1.34745 0
M  V30 1715 H 169.504 0.919517 -4.06941 0
M  V30 1716 H 168.134 1.24879 -2.97666 0
M  V30 1717 H 167.186 -1.076 -3.64865 0
M  V30 1718 H 168.498 -1.19909 -4.84173 0
M  V30 1719 H 167.652 0.847969 -6.00745 0
M  V30 1720 H 166.391 1.06062 -4.76027 0
M  V30 1721 H 165.396 -1.16102 -5.37401 0
M  V30 1722 H 166.621 -1.36097 -6.65323 0
M  V30 1723 H 164.567 0.877884 -6.50099 0
M  V30 1724 H 164.484 -0.504433 -7.54315 0
M  V30 1725 H 165.752 0.663537 -7.76671 0
M  V30 1726 N 169.982 1.44106 -0.638065 0
M  V30 1727 C 171.23 2.01579 -0.145043 0
M  V30 1728 C 171.551 1.50496 1.24 0
M  V30 1729 O 170.821 0.711374 1.82527 0
M  V30 1730 H 169.401 0.745282 -0.05063 0
M  V30 1731 H 172.063 1.76516 -0.826327 0
M  V30 1732 H 171.159 3.11877 -0.118039 0
M  V30 1733 N 171.46 0.379036 1.52974 0
M  V30 1734 C 172.39 -0.452706 2.29069 0
M  V30 1735 C 173.371 -1.07237 1.32039 0
M  V30 1736 O 174.556 -1.08708 1.60923 0
M  V30 1737 C 171.686 -1.5856 3.08992 0
M  V30 1738 C 170.64 -1.0925 4.13822 0
M  V30 1739 C 169.966 -2.31668 4.81907 0
M  V30 1740 C 171.266 -0.167702 5.22031 0
M  V30 1741 H 172.96 0.182181 2.98845 0
M  V30 1742 H 170.506 0.0890592 1.43724 0
M  V30 1743 H 172.459 -2.1742 3.6098 0
M  V30 1744 H 171.183 -2.24792 2.36931 0
M  V30 1745 H 169.842 -0.526494 3.628 0
M  V30 1746 H 169.49 -2.96386 4.06404 0
M  V30 1747 H 169.19 -1.9934 5.52754 0
M  V30 1748 H 170.714 -2.91189 5.36695 0
M  V30 1749 H 172.128 -0.664186 5.6944 0
M  V30 1750 H 170.525 0.0653265 6.00064 0
M  V30 1751 H 171.595 0.786347 4.78482 0
M  V30 1752 N 172.938 -1.57226 0.108567 0
M  V30 1753 C 174.168 -1.9889 -0.559142 0
M  V30 1754 C 174.576 -0.986889 -1.61422 0
M  V30 1755 O 173.919 0.0298705 -1.83676 0
M  V30 1756 C 173.981 -3.36952 -1.25315 0
M  V30 1757 C 173.645 -4.55679 -0.347248 0
M  V30 1758 C 174.642 -5.18281 0.409996 0
M  V30 1759 C 172.327 -5.0162 -0.261367 0
M  V30 1760 C 174.321 -6.25203 1.24096 0
M  V30 1761 C 172.008 -6.08405 0.573238 0
M  V30 1762 C 173.006 -6.70063 1.32304 0
M  V30 1763 O 172.694 -7.74788 2.14381 0
M  V30 1764 H 172.426 -0.658343 -0.153492 0
M  V30 1765 H 174.98 -2.04532 0.188584 0
M  V30 1766 H 173.21 -3.28032 -2.04773 0
M  V30 1767 H 174.899 -3.62974 -1.81673 0
M  V30 1768 H 175.665 -4.8371 0.353457 0
M  V30 1769 H 171.544 -4.53381 -0.834656 0
M  V30 1770 H 175.088 -6.73259 1.82669 0
M  V30 1771 H 170.985 -6.42406 0.631208 0
M  V30 1772 H 171.753 -7.91837 2.07209 0
M  V30 1773 N 174.416 0.165178 -1.56732 0
M  V30 1774 C 175.346 1.20651 -1.99914 0
M  V30 1775 C 176.327 1.45827 -0.875705 0
M  V30 1776 O 177.512 1.57057 -1.14223 0
M  V30 1777 C 174.642 2.54401 -2.36427 0
M  V30 1778 C 173.596 2.43782 -3.51787 0
M  V30 1779 C 172.922 3.82078 -3.7406 0
M  V30 1780 C 174.222 1.93732 -4.85041 0
M  V30 1781 H 175.916 0.847534 -2.87154 0
M  V30 1782 H 173.462 0.40625 -1.38151 0
M  V30 1783 H 175.415 3.27458 -2.65234 0
M  V30 1784 H 174.139 2.92098 -1.46103 0
M  V30 1785 H 172.798 1.73178 -3.23117 0
M  V30 1786 H 172.446 4.17179 -2.81017 0
M  V30 1787 H 172.146 3.7584 -4.51684 0
M  V30 1788 H 173.67 4.56712 -4.05274 0
M  V30 1789 H 175.084 2.56569 -5.12684 0
M  V30 1790 H 173.481 1.98428 -5.66345 0
M  V30 1791 H 174.551 0.891962 -4.76626 0
M  V30 1792 N 175.894 1.51508 0.433938 0
M  V30 1793 C 176.804 1.75917 1.5521 0
M  V30 1794 C 177.82 0.643545 1.61662 0
M  V30 1795 O 178.996 0.926183 1.7884 0
M  V30 1796 C 176.061 1.88213 2.91164 0
M  V30 1797 C 175.122 3.12074 2.94802 0
M  V30 1798 C 174.355 3.23774 4.24271 0
M  V30 1799 O 174.578 2.4133 5.16833 0
M  V30 1800 O 173.512 4.16774 4.34262 0
M  V30 1801 H 177.338 2.70777 1.37527 0
M  V30 1802 H 174.923 1.36051 0.617293 0
M  V30 1803 H 176.805 1.98267 3.71845 0
M  V30 1804 H 175.48 0.965413 3.08968 0
M  V30 1805 H 174.387 3.07497 2.13065 0
M  V30 1806 H 175.72 4.03446 2.81943 0
M  V30 1807 N 177.372 -0.689602 1.41712 0
M  V30 1808 C 178.6 -1.47827 1.44758 0
M  V30 1809 C 179.015 -1.88721 0.0545703 0
M  V30 1810 O 178.372 -1.57176 -0.927463 0
M  V30 1811 C 178.423 -2.73698 2.3616 0
M  V30 1812 O 178.144 -2.34524 3.7004 0
M  V30 1813 C 179.645 -3.67389 2.48072 0
M  V30 1814 H 176.865 -0.455357 0.49284 0
M  V30 1815 H 179.409 -0.848574 1.86063 0
M  V30 1816 H 177.564 -3.32891 1.98148 0
M  V30 1817 H 177.978 -3.15701 4.18847 0
M  V30 1818 H 179.452 -4.52475 3.16181 0
M  V30 1819 H 179.929 -4.12284 1.51388 0
M  V30 1820 H 180.535 -3.14097 2.86746 0
M  V30 1821 N 178.85 -1.27639 -0.924453 0
M  V30 1822 C 179.76 -1.12466 -2.05885 0
M  V30 1823 C 180.776 -0.053869 -1.73917 0
M  V30 1824 O 181.952 -0.261012 -1.99702 0
M  V30 1825 C 179.017 -0.776768 -3.37886 0
M  V30 1826 C 178.078 -1.92878 -3.83532 0
M  V30 1827 C 177.311 -1.59739 -5.09234 0
M  V30 1828 O 177.534 -0.506782 -5.68144 0
M  V30 1829 O 176.468 -2.43761 -5.50331 0
M  V30 1830 H 180.294 -2.07671 -2.21599 0
M  V30 1831 H 177.879 -1.06857 -1.04413 0
M  V30 1832 H 179.761 -0.596229 -4.17161 0
M  V30 1833 H 178.436 0.145732 -3.23372 0
M  V30 1834 H 177.343 -2.1644 -3.0513 0
M  V30 1835 H 178.676 -2.8316 -4.02593 0
M  V30 1836 N 180.328 1.1314 -1.09713 0
M  V30 1837 C 181.291 2.16831 -0.742751 0
M  V30 1838 C 182.291 1.59159 0.229129 0
M  V30 1839 O 183.481 1.74199 0.00693237 0
M  V30 1840 C 180.613 3.40756 -0.0989168 0
M  V30 1841 H 181.806 2.49695 -1.66109 0
M  V30 1842 H 179.359 1.2802 -0.896699 0
M  V30 1843 H 180.094 3.13485 0.830514 0
M  V30 1844 H 179.879 3.83888 -0.798265 0
M  V30 1845 H 181.369 4.17386 0.133524 0
M  V30 1846 N 181.806 0.884767 1.30421 0
M  V30 1847 C 183.054 0.502112 1.95763 0
M  V30 1848 C 183.375 -0.951815 1.70192 0
M  V30 1849 O 182.645 -1.6692 1.0254 0
M  V30 1850 H 181.225 0.182694 0.724315 0
M  V30 1851 H 183.887 1.1278 1.58955 0
M  V30 1852 H 182.983 0.672188 3.04775 0
M  V30 1853 N 183.284 -1.43765 0.645699 0
M  V30 1854 C 184.514 -2.05953 0.163318 0
M  V30 1855 C 184.922 -1.48432 -1.17322 0
M  V30 1856 O 184.265 -0.607295 -1.73371 0
M  V30 1857 C 184.327 -3.59499 -0.0103065 0
M  V30 1858 C 183.991 -4.39563 1.25035 0
M  V30 1859 C 184.988 -4.72108 2.17739 0
M  V30 1860 C 182.673 -4.79697 1.48983 0
M  V30 1861 C 184.667 -5.43688 3.3269 0
M  V30 1862 C 182.354 -5.51023 2.64229 0
M  V30 1863 C 183.352 -5.8294 3.55908 0
M  V30 1864 O 183.04 -6.5281 4.69142 0
M  V30 1865 H 182.772 -0.670798 0.0836986 0
M  V30 1866 H 185.326 -1.85384 0.884407 0
M  V30 1867 H 183.556 -3.78613 -0.78669 0
M  V30 1868 H 185.245 -4.03408 -0.449087 0
M  V30 1869 H 186.011 -4.41627 2.00476 0
M  V30 1870 H 181.89 -4.54266 0.785078 0
M  V30 1871 H 185.434 -5.68517 4.04269 0
M  V30 1872 H 181.331 -5.8092 2.81429 0
M  V30 1873 H 182.099 -6.71288 4.6831 0
M  V30 1874 N 184.763 -0.387143 -1.52771 0
M  V30 1875 C 185.993 0.195585 -2.05672 0
M  V30 1876 C 186.401 1.41241 -1.25887 0
M  V30 1877 O 185.744 1.81265 -0.298081 0
M  V30 1878 C 185.806 0.632327 -3.53895 0
M  V30 1879 C 185.47 -0.470739 -4.54569 0
M  V30 1880 C 186.467 -1.32746 -5.02667 0
M  V30 1881 C 184.152 -0.637151 -4.98243 0
M  V30 1882 C 186.146 -2.33574 -5.93061 0
M  V30 1883 C 183.833 -1.64877 -5.88438 0
M  V30 1884 C 184.831 -2.49649 -6.35739 0
M  V30 1885 O 184.519 -3.49082 -7.24153 0
M  V30 1886 H 184.251 0.033658 -0.675162 0
M  V30 1887 H 186.805 -0.550221 -1.97893 0
M  V30 1888 H 185.035 1.43008 -3.59285 0
M  V30 1889 H 186.724 1.14048 -3.89548 0
M  V30 1890 H 187.49 -1.21019 -4.69659 0
M  V30 1891 H 183.369 0.0129567 -4.60998 0
M  V30 1892 H 186.913 -2.99777 -6.29904 0
M  V30 1893 H 182.81 -1.76643 -6.2086 0
M  V30 1894 H 183.578 -3.45065 -7.42208 0
M  V30 1895 N 186.241 1.57166 -0.116904 0
M  V30 1896 C 187.188 2.15202 0.83408 0
M  V30 1897 C 188.158 1.07644 1.26499 0
M  V30 1898 O 189.343 1.35541 1.34288 0
M  V30 1899 C 186.483 2.75405 2.07957 0
M  V30 1900 C 185.596 3.97264 1.69721 0
M  V30 1901 C 184.731 4.45561 2.89221 0
M  V30 1902 C 183.77 5.59956 2.47215 0
M  V30 1903 N 182.907 6.03006 3.59622 0
M  V30 1904 H 187.747 2.96141 0.332335 0
M  V30 1905 H 185.284 1.46309 0.152349 0
M  V30 1906 H 187.242 3.08439 2.80929 0
M  V30 1907 H 185.872 1.97159 2.55594 0
M  V30 1908 H 184.924 3.70404 0.866316 0
M  V30 1909 H 186.236 4.80226 1.34849 0
M  V30 1910 H 185.39 4.80493 3.7042 0
M  V30 1911 H 184.129 3.61544 3.27318 0
M  V30 1912 H 183.134 5.2463 1.64448 0
M  V30 1913 H 184.359 6.45738 2.10238 0
M  V30 1914 H 182.305 5.21931 3.97396 0
M  V30 1915 H 182.222 6.80819 3.28667 0
M  V30 1916 H 183.49 6.42576 4.41267 0
M  V30 1917 N 187.719 -0.156864 1.56817 0
M  V30 1918 C 188.649 -1.19589 2.00551 0
M  V30 1919 C 189.63 -1.4536 0.883426 0
M  V30 1920 O 190.815 -1.56449 1.15054 0
M  V30 1921 C 187.945 -2.53143 2.37773 0
M  V30 1922 C 186.899 -2.41913 3.53075 0
M  V30 1923 C 186.225 -3.80088 3.76081 0
M  V30 1924 C 187.525 -1.91157 4.86062 0
M  V30 1925 H 189.219 -0.832293 2.87599 0
M  V30 1926 H 186.765 -0.398918 1.38364 0
M  V30 1927 H 188.718 -3.26047 2.66967 0
M  V30 1928 H 187.442 -2.91319 1.4765 0
M  V30 1929 H 186.101 -1.71462 3.24031 0
M  V30 1930 H 185.749 -4.15683 2.83225 0
M  V30 1931 H 185.449 -3.73439 4.53671 0
M  V30 1932 H 186.973 -4.54556 4.0769 0
M  V30 1933 H 188.387 -2.53846 5.14038 0
M  V30 1934 H 186.784 -1.95422 5.67389 0
M  V30 1935 H 187.854 -0.866673 4.77092 0
M  V30 1936 N 189.197 -1.51736 -0.425897 0
M  V30 1937 C 190.422 -1.69082 -1.20108 0
M  V30 1938 C 190.847 -0.392398 -1.83962 0
M  V30 1939 O 190.205 0.64858 -1.69302 0
M  V30 1940 C 190.253 -2.81604 -2.25237 0
M  V30 1941 O 189.357 -2.46004 -3.30992 0
M  V30 1942 H 188.698 -0.563408 -0.35138 0
M  V30 1943 H 191.228 -1.98358 -0.501512 0
M  V30 1944 H 191.238 -3.06025 -2.69838 0
M  V30 1945 H 189.913 -3.75817 -1.78142 0
M  V30 1946 H 188.49 -2.32195 -2.91787 0
M  V30 1947 N 190.675 0.682077 -1.42076 0
M  V30 1948 C 191.923 1.4393 -1.41876 0
M  V30 1949 C 192.244 1.94971 -0.0335599 0
M  V30 1950 O 191.514 1.72591 0.926773 0
M  V30 1951 H 190.094 0.534085 -0.522267 0
M  V30 1952 H 192.756 0.806427 -1.77434 0
M  V30 1953 H 191.852 2.29588 -2.11414 0
M  V30 1954 N 192.153 1.28127 0.917671 0
M  V30 1955 C 193.063 1.13556 2.05286 0
M  V30 1956 C 194.079 0.0630914 1.73886 0
M  V30 1957 O 195.255 0.271598 1.9956 0
M  V30 1958 C 192.32 0.794676 3.3747 0
M  V30 1959 C 191.381 1.94909 3.82504 0
M  V30 1960 C 190.614 1.62437 5.0838 0
M  V30 1961 O 190.837 0.536905 5.67867 0
M  V30 1962 O 189.771 2.46677 5.4903 0
M  V30 1963 H 193.597 2.08844 2.20495 0
M  V30 1964 H 191.182 1.07409 1.03845 0
M  V30 1965 H 193.064 0.618344 4.16839 0
M  V30 1966 H 191.739 -0.128581 3.23445 0
M  V30 1967 H 190.646 2.18055 3.03978 0
M  V30 1968 H 191.979 2.85291 4.01086 0
M  V30 1969 N 193.631 -1.12557 1.10312 0
M  V30 1970 C 194.594 -2.16434 0.75424 0
M  V30 1971 C 195.594 -1.59278 -0.220685 0
M  V30 1972 O 196.784 -1.742 0.00230591 0
M  V30 1973 C 193.916 -3.40699 0.116987 0
M  V30 1974 H 195.109 -2.48811 1.67431 0
M  V30 1975 H 192.662 -1.27542 0.903475 0
M  V30 1976 H 193.397 -3.13921 -0.813877 0
M  V30 1977 H 193.182 -3.83459 0.818613 0
M  V30 1978 H 194.672 -4.17451 -0.111387 0
M  V30 1979 N 195.109 -0.891671 -1.2995 0
M  V30 1980 C 196.339 -0.527893 -1.99742 0
M  V30 1981 C 196.747 0.88979 -1.66971 0
M  V30 1982 O 196.09 1.59766 -0.906667 0
M  V30 1983 C 196.152 -0.630804 -3.53922 0
M  V30 1984 C 195.816 -2.01401 -4.10228 0
M  V30 1985 C 196.813 -2.98422 -4.25724 0
M  V30 1986 C 194.498 -2.32121 -4.45449 0
M  V30 1987 C 196.492 -4.24293 -4.75662 0
M  V30 1988 C 194.179 -3.58237 -4.95086 0
M  V30 1989 C 195.177 -4.54137 -5.10146 0
M  V30 1990 O 194.865 -5.78014 -5.58708 0
M  V30 1991 H 194.597 -0.201953 -0.645129 0
M  V30 1992 H 197.151 -1.20076 -1.66646 0
M  V30 1993 H 195.381 0.0990616 -3.86573 0
M  V30 1994 H 197.07 -0.277338 -4.04951 0
M  V30 1995 H 197.836 -2.76001 -3.98809 0
M  V30 1996 H 193.715 -1.5824 -4.32991 0
M  V30 1997 H 197.259 -4.99153 -4.87332 0
M  V30 1998 H 193.156 -3.80491 -5.21437 0
M  V30 1999 H 193.924 -5.8049 -5.77039 0
M  V30 2000 N 196.587 1.43421 -0.653314 0
M  V30 2001 C 197.835 2.01414 -0.166415 0
M  V30 2002 C 198.156 1.51803 1.22397 0
M  V30 2003 O 197.426 0.730693 1.81763 0
M  V30 2004 H 196.006 0.744703 -0.0585319 0
M  V30 2005 H 198.668 1.75629 -0.845003 0
M  V30 2006 H 197.764 3.11734 -0.151111 0
M  V30 2007 N 198.065 0.39524 1.52563 0
M  V30 2008 C 199.312 -0.185044 2.01653 0
M  V30 2009 C 199.64 -1.46317 1.28146 0
M  V30 2010 O 198.895 -1.9213 0.372074 0
M  V30 2011 C 199.194 -0.493444 3.53977 0
M  V30 2012 C 198.86 0.69384 4.4553 0
M  V30 2013 C 197.522 1.01954 4.70275 0
M  V30 2014 C 199.874 1.48785 4.99512 0
M  V30 2015 C 197.202 2.14069 5.46252 0
M  V30 2016 C 199.554 2.59965 5.76716 0
M  V30 2017 C 198.218 2.93037 5.99738 0
M  V30 2018 H 197.488 -0.0677123 0.7379 0
M  V30 2019 H 200.135 0.533807 1.8391 0
M  V30 2020 H 198.44 -1.29369 3.69825 0
M  V30 2021 H 200.137 -0.955163 3.89458 0
M  V30 2022 H 196.727 0.429987 4.26438 0
M  V30 2023 H 200.911 1.24946 4.80315 0
M  V30 2024 H 196.167 2.40056 5.62302 0
M  V30 2025 H 200.341 3.21887 6.17545 0
M  V30 2026 H 197.968 3.8003 6.58393 0
M  V30 2027 N 199.544 -1.57102 0.125237 0
M  V30 2028 C 200.79 -1.95697 -0.532035 0
M  V30 2029 C 201.123 -1.009 -1.6593 0
M  V30 2030 O 200.398 -0.047347 -1.94442 0
M  V30 2031 C 200.681 -3.44181 -1.05884 0
M  V30 2032 C 200.534 -4.49752 0.0654392 0
M  V30 2033 C 201.853 -3.94655 -1.9477 0
M  V30 2034 H 198.972 -0.711571 -0.191925 0
M  V30 2035 H 201.614 -1.88923 0.20206 0
M  V30 2036 H 199.764 -3.50085 -1.68442 0
M  V30 2037 H 201.436 -4.55943 0.700982 0
M  V30 2038 H 199.679 -4.27653 0.727709 0
M  V30 2039 H 200.35 -5.50924 -0.344505 0
M  V30 2040 H 202.826 -3.91094 -1.42074 0
M  V30 2041 H 201.702 -4.99057 -2.28546 0
M  V30 2042 H 201.963 -3.35718 -2.87656 0
M  V30 2043 N 201.022 0.148545 -1.56898 0
M  V30 2044 C 201.985 1.16736 -1.97244 0
M  V30 2045 C 202.985 1.35947 -0.858777 0
M  V30 2046 O 204.175 1.32966 -1.12542 0
M  V30 2047 C 201.307 2.52798 -2.28705 0
M  V30 2048 H 202.5 0.821279 -2.88435 0
M  V30 2049 H 200.053 0.391831 -1.51309 0
M  V30 2050 H 200.788 2.92381 -1.403 0
M  V30 2051 H 200.573 2.40216 -3.09901 0
M  V30 2052 H 202.063 3.26179 -2.60762 0
M  V30 2053 N 202.5 1.5196 0.417844 0
M  V30 2054 C 203.916 1.40569 0.755816 0
M  V30 2055 C 204.116 0.503316 1.95113 0
M  V30 2056 O 203.172 -0.0341925 2.52477 0
M  V30 2057 C 204.485 2.82947 1.01791 0
M  V30 2058 C 206.033 2.92231 1.12116 0
M  V30 2059 C 206.508 4.35559 1.41608 0
M  V30 2060 N 207.999 4.38753 1.48491 0
M  V30 2061 C 208.734 5.46705 1.7292 0
M  V30 2062 N 208.23 6.64788 1.95011 0
M  V30 2063 N 210.023 5.34209 1.74863 0
M  V30 2064 H 202.174 2.09168 -0.369098 0
M  V30 2065 H 204.437 0.942409 -0.102809 0
M  V30 2066 H 204.143 3.5106 0.212081 0
M  V30 2067 H 204.017 3.23462 1.94042 0
M  V30 2068 H 206.404 2.24304 1.9176 0
M  V30 2069 H 206.485 2.55185 0.177225 0
M  V30 2070 H 206.129 5.04042 0.624848 0
M  V30 2071 H 206.059 4.70133 2.37239 0
M  V30 2072 H 208.55 3.5363 1.33244 0
M  V30 2073 H 208.863 7.42845 2.13076 0
M  V30 2074 H 207.208 6.67869 1.92293 0
M  V30 2075 H 210.399 4.40937 1.57137 0
M  V30 2076 H 210.572 6.18415 1.93563 0
M  V30 2077 N 203.978 -0.674533 1.42435 0
M  V30 2078 C 205.227 -1.43034 1.42212 0
M  V30 2079 C 205.54 -1.95555 0.0420788 0
M  V30 2080 O 206.746 -2.71374 -0.0827558 0
M  V30 2081 C 205.202 -2.58748 2.50155 0
M  V30 2082 C 204.81 -2.12925 3.94166 0
M  V30 2083 C 206.554 -3.36257 2.59098 0
M  V30 2084 C 204.461 -3.25723 4.93618 0
M  V30 2085 H 203.391 -0.537345 0.528939 0
M  V30 2086 H 206.042 -0.73024 1.68344 0
M  V30 2087 H 204.424 -3.31128 2.17188 0
M  V30 2088 H 205.598 -1.47697 4.36488 0
M  V30 2089 H 203.913 -1.48354 3.89076 0
M  V30 2090 H 206.51 -4.20264 3.30578 0
M  V30 2091 H 206.853 -3.82866 1.63461 0
M  V30 2092 H 207.386 -2.70947 2.9126 0
M  V30 2093 H 204.125 -2.84105 5.90732 0
M  V30 2094 H 203.645 -3.89732 4.55926 0
M  V30 2095 H 205.324 -3.91186 5.15347 0
M  V30 2096 N 205.456 -1.28612 -0.910864 0
M  V30 2097 C 206.733 -1.06632 -1.63979 0
M  V30 2098 C 207.113 0.393351 -2.07403 0
M  V30 2099 O 206.461 1.37999 -1.82122 0
M  V30 2100 C 206.671 -2.0436 -2.8291 0
M  V30 2101 C 208.019 -2.34666 -3.5386 0
M  V30 2102 O 209.043 -2.02467 -2.93062 0
M  V30 2103 O 207.902 -2.89631 -4.63439 0
M  V30 2104 H 204.996 -0.407737 -0.7195 0
M  V30 2105 H 207.542 -1.39942 -0.959914 0
M  V30 2106 H 206.314 -3.02727 -2.47936 0
M  V30 2107 H 205.937 -1.71714 -3.58609 0
M  V30 2108 N 206.934 1.1197 -1.10907 0
M  V30 2109 C 208.182 1.83225 -0.852819 0
M  V30 2110 C 208.503 1.84769 0.623341 0
M  V30 2111 O 207.773 1.3143 1.45269 0
M  V30 2112 H 206.353 0.67849 -0.312507 0
M  V30 2113 H 209.015 1.3556 -1.40033 0
M  V30 2114 H 208.111 2.87265 -1.22005 0
M  V30 2115 N 208.412 0.89855 1.29475 0
M  V30 2116 C 209.637 0.538561 2.00285 0
M  V30 2117 C 210.062 -0.869135 1.66816 0
M  V30 2118 O 209.42 -1.57831 0.892145 0
M  V30 2119 C 209.468 0.736475 3.52999 0
M  V30 2120 O 208.572 -0.211537 4.11857 0
M  V30 2121 H 207.913 0.210563 0.62973 0
M  V30 2122 H 210.443 1.20982 1.64998 0
M  V30 2123 H 210.453 0.640685 4.02938 0
M  V30 2124 H 209.128 1.76276 3.76696 0
M  V30 2125 H 207.705 -0.0682991 3.72837 0
M  V30 2126 N 209.89 -1.43072 0.660911 0
M  V30 2127 C 211.138 -2.01323 0.177094 0
M  V30 2128 C 211.459 -1.5245 -1.2159 0
M  V30 2129 O 210.729 -0.740322 -1.81373 0
M  V30 2130 H 209.309 -0.744382 0.0624804 0
M  V30 2131 H 211.971 -1.75179 0.854305 0
M  V30 2132 H 211.067 -3.11649 0.167641 0
M  V30 2133 N 211.368 -0.403325 -1.52352 0
M  V30 2134 C 212.316 0.439752 -2.28405 0
M  V30 2135 C 213.31 1.05089 -1.32863 0
M  V30 2136 O 214.516 0.989759 -1.50345 0
M  V30 2137 H 210.891 0.160587 -0.734653 0
M  V30 2138 H 212.862 -0.222983 -2.97566 0
M  V30 2139 C 211.611 1.54736 -3.11371 0
M  V30 2140 H 210.934 1.08643 -3.84755 0
M  V30 2141 H 212.374 2.1112 -3.67701 0
M  V30 2142 C 210.833 2.51141 -2.24566 0
M  V30 2143 O 211.363 3.54887 -1.88196 0
M  V30 2144 N 209.569 2.21213 -1.8845 0
M  V30 2145 H 209.116 1.36878 -2.18225 0
M  V30 2146 H 209.074 2.85963 -1.30662 0
M  V30 2147 N 212.846 1.57033 -0.133567 0
M  V30 2148 C 214.093 1.95686 0.520877 0
M  V30 2149 C 214.421 1.0177 1.6575 0
M  V30 2150 O 213.676 0.0443195 1.9565 0
M  V30 2151 C 213.975 3.40674 1.08057 0
M  V30 2152 C 213.641 4.50855 0.0637899 0
M  V30 2153 C 212.303 4.80716 -0.215757 0
M  V30 2154 C 214.655 5.17398 -0.62835 0
M  V30 2155 C 211.983 5.74433 -1.19348 0
M  V30 2156 C 214.335 6.12167 -1.5948 0
M  V30 2157 C 212.999 6.40414 -1.88218 0
M  V30 2158 H 212.269 0.716067 0.190602 0
M  V30 2159 H 214.916 1.9026 -0.217556 0
M  V30 2160 H 213.221 3.42865 1.89606 0
M  V30 2161 H 214.918 3.67902 1.59529 0
M  V30 2162 H 211.508 4.27605 0.291855 0
M  V30 2163 H 215.692 4.94472 -0.425562 0
M  V30 2164 H 210.948 5.94616 -1.42272 0
M  V30 2165 H 215.122 6.6281 -2.13671 0
M  V30 2166 H 212.749 7.12838 -2.64133 0
M  V30 2167 N 214.325 -0.140222 1.56975 0
M  V30 2168 C 215.257 -1.19818 1.95388 0
M  V30 2169 C 216.27 -1.38816 0.850525 0
M  V30 2170 O 217.459 -1.38267 1.12891 0
M  V30 2171 C 214.559 -2.56189 2.21857 0
M  V30 2172 C 213.732 -2.58077 3.5315 0
M  V30 2173 C 212.791 -3.76037 3.6808 0
M  V30 2174 O 211.817 -3.60598 4.40406 0
M  V30 2175 N 213.019 -4.93763 3.05251 0
M  V30 2176 H 215.784 -0.871609 2.86746 0
M  V30 2177 H 213.345 -0.32972 1.58507 0
M  V30 2178 H 215.337 -3.33623 2.2908 0
M  V30 2179 H 213.907 -2.81111 1.36731 0
M  V30 2180 H 213.127 -1.6651 3.57307 0
M  V30 2181 H 214.415 -2.56377 4.39486 0
M  V30 2182 H 213.813 -5.09209 2.46419 0
M  V30 2183 H 212.37 -5.68949 3.18026 0
M  V30 2184 N 215.803 -1.52179 -0.40978 0
M  V30 2185 C 217.049 -1.66453 -1.15851 0
M  V30 2186 C 217.382 -0.392972 -1.90182 0
M  V30 2187 O 216.657 0.608579 -1.84734 0
M  V30 2188 C 216.94 -2.88612 -2.15349 0
M  V30 2189 C 216.793 -4.25815 -1.44918 0
M  V30 2190 C 218.112 -3.06294 -3.16026 0
M  V30 2191 H 215.231 -0.60575 -0.419805 0
M  V30 2192 H 217.873 -1.84732 -0.444314 0
M  V30 2193 H 216.023 -2.73158 -2.76255 0
M  V30 2194 H 217.695 -4.52995 -0.871365 0
M  V30 2195 H 215.938 -4.27247 -0.751159 0
M  V30 2196 H 216.609 -5.07337 -2.17516 0
M  V30 2197 H 219.085 -3.20641 -2.65195 0
M  V30 2198 H 217.961 -3.93283 -3.8291 0
M  V30 2199 H 218.222 -2.19579 -3.83715 0
M  V30 2200 N 217.281 0.66697 -1.42791 0
M  V30 2201 C 218.211 1.79218 -1.49677 0
M  V30 2202 C 219.192 1.66405 -0.352623 0
M  V30 2203 O 220.377 1.85708 -0.567993 0
M  V30 2204 C 217.507 3.17565 -1.40605 0
M  V30 2205 C 216.461 3.45124 -2.53127 0
M  V30 2206 C 215.787 4.83127 -2.29112 0
M  V30 2207 C 217.087 3.41236 -3.95418 0
M  V30 2208 H 218.781 1.73713 -2.43853 0
M  V30 2209 H 216.327 0.83432 -1.17367 0
M  V30 2210 H 218.28 3.96022 -1.44029 0
M  V30 2211 H 217.004 3.23767 -0.429271 0
M  V30 2212 H 215.663 2.69031 -2.49034 0
M  V30 2213 H 215.311 4.85988 -1.29709 0
M  V30 2214 H 215.011 5.02528 -3.04531 0
M  V30 2215 H 216.535 5.63859 -2.34297 0
M  V30 2216 H 217.949 4.09651 -4.01073 0
M  V30 2217 H 216.346 3.72173 -4.70752 0
M  V30 2218 H 217.416 2.39665 -4.21532 0
M  V30 2219 N 218.759 1.29093 0.90403 0
M  V30 2220 C 219.689 1.16401 2.02418 0
M  V30 2221 C 220.67 0.0593085 1.69997 0
M  V30 2222 O 221.855 0.238021 1.92736 0
M  V30 2223 C 218.985 0.835233 3.37107 0
M  V30 2224 C 217.939 1.89578 3.83724 0
M  V30 2225 C 217.265 1.42041 5.15489 0
M  V30 2226 C 218.565 3.30394 4.04521 0
M  V30 2227 H 220.259 2.10109 2.13295 0
M  V30 2228 H 217.805 1.01157 1.02486 0
M  V30 2229 H 219.758 0.733169 4.14973 0
M  V30 2230 H 218.482 -0.137543 3.2631 0
M  V30 2231 H 217.141 1.98715 3.08071 0
M  V30 2232 H 216.789 0.436426 5.01103 0
M  V30 2233 H 216.489 2.12964 5.4765 0
M  V30 2234 H 218.013 1.33176 5.959 0
M  V30 2235 H 219.427 3.24123 4.72882 0
M  V30 2236 H 217.824 3.99237 4.48029 0
M  V30 2237 H 218.894 3.73692 3.09002 0
M  V30 2238 N 220.237 -1.11381 1.11499 0
M  V30 2239 C 221.462 -1.87475 0.887019 0
M  V30 2240 C 221.887 -1.79639 -0.557796 0
M  V30 2241 O 221.245 -1.15924 -1.39396 0
M  V30 2242 C 221.293 -3.34213 1.35403 0
M  V30 2243 O 220.397 -4.0903 0.526146 0
M  V30 2244 H 219.738 -0.582099 0.319463 0
M  V30 2245 H 222.268 -1.40785 1.48461 0
M  V30 2246 H 222.278 -3.8506 1.34881 0
M  V30 2247 H 220.953 -3.39232 2.40612 0
M  V30 2248 H 219.53 -3.68082 0.597522 0
M  V30 2249 N 221.715 -0.905404 -1.28997 0
M  V30 2250 C 222.992 -0.453513 -1.9027 0
M  V30 2251 C 223.372 1.06721 -1.82137 0
M  V30 2252 O 222.72 1.91159 -1.25182 0
M  V30 2253 C 222.93 -0.974494 -3.35119 0
M  V30 2254 C 224.278 -1.0216 -4.12127 0
M  V30 2255 O 225.302 -0.922557 -3.44046 0
M  V30 2256 O 224.161 -1.17121 -5.33802 0
M  V30 2257 H 221.255 -0.142347 -0.814657 0
M  V30 2258 H 223.801 -0.995642 -1.37423 0
M  V30 2259 H 222.573 -2.01848 -3.35221 0
M  V30 2260 H 222.196 -0.412706 -3.95452 0
M  V30 2261 N 223.193 1.4272 -0.668489 0
M  V30 2262 C 224.609 1.55992 -0.33745 0
M  V30 2263 C 224.809 1.64933 1.15756 0
M  V30 2264 O 223.865 1.61278 1.94282 0
M  V30 2265 C 225.178 2.81314 -1.06222 0
M  V30 2266 C 226.726 2.95078 -1.04394 0
M  V30 2267 C 227.201 4.23252 -1.74991 0
M  V30 2268 N 228.692 4.3015 -1.71829 0
M  V30 2269 C 229.427 5.28127 -2.23315 0
M  V30 2270 N 228.923 6.32293 -2.83156 0
M  V30 2271 N 230.716 5.19882 -2.13726 0
M  V30 2272 H 222.867 1.3516 -1.63846 0
M  V30 2273 H 225.13 0.650174 -0.689912 0
M  V30 2274 H 224.836 2.80823 -2.11734 0
M  V30 2275 H 224.71 3.72012 -0.62344 0
M  V30 2276 H 227.097 2.951 0.0028244 0
M  V30 2277 H 227.178 2.05627 -1.52155 0
M  V30 2278 H 226.822 4.2399 -2.79633 0
M  V30 2279 H 226.752 5.11626 -1.24685 0
M  V30 2280 H 229.243 3.55499 -1.28175 0
M  V30 2281 H 229.556 7.03398 -3.20079 0
M  V30 2282 H 227.901 6.32873 -2.87223 0
M  V30 2283 H 231.092 4.37423 -1.66669 0
M  V30 2284 H 231.265 5.96077 -2.54158 0
M  V30 2285 N 224.671 0.411399 1.52136 0
M  V30 2286 C 225.901 -0.16284 2.05957 0
M  V30 2287 C 226.309 -1.3922 1.28119 0
M  V30 2288 O 225.652 -1.80768 0.326881 0
M  V30 2289 C 225.714 -0.575946 3.54856 0
M  V30 2290 C 225.378 0.542998 4.53763 0
M  V30 2291 C 226.375 1.40726 5.00492 0
M  V30 2292 C 224.06 0.716337 4.97166 0
M  V30 2293 C 226.054 2.4298 5.8927 0
M  V30 2294 C 223.741 1.74218 5.8574 0
M  V30 2295 C 224.739 2.59731 6.31687 0
M  V30 2296 O 224.427 3.60558 7.18507 0
M  V30 2297 H 224.159 -0.0229125 0.675612 0
M  V30 2298 H 226.713 0.581634 1.96993 0
M  V30 2299 H 224.943 -1.37274 3.61515 0
M  V30 2300 H 226.632 -1.07836 3.91313 0
M  V30 2301 H 227.398 1.28476 4.67674 0
M  V30 2302 H 223.277 0.0603857 4.6096 0
M  V30 2303 H 226.821 3.0976 6.25055 0
M  V30 2304 H 222.718 1.86498 6.17971 0
M  V30 2305 H 223.486 3.56829 7.36624 0
M  V30 2306 N 226.149 -1.5696 0.141893 0
M  V30 2307 C 227.396 -1.9596 -0.510492 0
M  V30 2308 C 227.724 -1.02648 -1.65208 0
M  V30 2309 O 226.979 -0.0546947 -1.95624 0
M  V30 2310 C 227.278 -3.41242 -1.06249 0
M  V30 2311 C 226.944 -4.50882 -0.0398791 0
M  V30 2312 C 225.606 -4.80595 0.241247 0
M  V30 2313 C 227.958 -5.17058 0.65578 0
M  V30 2314 C 225.286 -5.73792 1.22393 0
M  V30 2315 C 227.638 -6.11313 1.62724 0
M  V30 2316 C 226.302 -6.39407 1.91612 0
M  V30 2317 H 225.572 -0.717068 -0.186802 0
M  V30 2318 H 228.219 -1.90142 0.227643 0
M  V30 2319 H 226.524 -3.43866 -1.87785 0
M  V30 2320 H 228.221 -3.68742 -1.57576 0
M  V30 2321 H 224.811 -4.27754 -0.269174 0
M  V30 2322 H 228.995 -4.94239 0.451779 0
M  V30 2323 H 224.251 -5.93853 1.45424 0
M  V30 2324 H 228.425 -6.61668 2.17183 0
M  V30 2325 H 226.052 -7.11427 2.6791 0
M  V30 2326 N 227.627 0.131896 -1.57047 0
M  V30 2327 C 228.575 1.18146 -2.0036 0
M  V30 2328 C 229.569 1.43614 -0.898406 0
M  V30 2329 O 230.775 1.43729 -1.08361 0
M  V30 2330 H 227.15 0.398042 -0.638018 0
M  V30 2331 H 229.121 0.789564 -2.87765 0
M  V30 2332 C 227.87 2.50341 -2.41298 0
M  V30 2333 H 227.193 2.31578 -3.25902 0
M  V30 2334 H 228.633 3.22371 -2.75414 0
M  V30 2335 C 227.092 3.11984 -1.27153 0
M  V30 2336 O 227.622 3.97484 -0.580459 0
M  V30 2337 N 225.828 2.71662 -1.03189 0
M  V30 2338 H 225.375 2.02231 -1.59564 0
M  V30 2339 H 225.333 3.13238 -0.270077 0
M  V30 2340 N 229.106 1.52395 0.401703 0
M  V30 2341 C 230.053 1.76268 1.48991 0
M  V30 2342 C 231.023 0.605386 1.54675 0
M  V30 2343 O 232.208 0.843742 1.7113 0
M  V30 2344 C 229.348 1.92592 2.86361 0
M  V30 2345 C 228.461 3.20259 2.89928 0
M  V30 2346 C 227.596 3.26972 4.18644 0
M  V30 2347 C 226.635 4.48812 4.16214 0
M  V30 2348 N 225.772 4.52877 5.36514 0
M  V30 2349 H 230.612 2.6914 1.27935 0
M  V30 2350 H 228.149 1.33355 0.620871 0
M  V30 2351 H 230.107 2.0004 3.66115 0
M  V30 2352 H 228.737 1.03093 3.05895 0
M  V30 2353 H 227.789 3.21945 2.02621 0
M  V30 2354 H 229.101 4.10056 2.83999 0
M  V30 2355 H 228.255 3.33533 5.06794 0
M  V30 2356 H 226.994 2.35126 4.27278 0
M  V30 2357 H 225.999 4.4239 3.26453 0
M  V30 2358 H 227.224 5.41961 4.09213 0
M  V30 2359 H 225.17 3.63917 5.45802 0
M  V30 2360 H 225.087 5.36529 5.32609 0
M  V30 2361 H 226.355 4.63676 6.26597 0
M  V30 2362 N 230.584 -0.659388 1.43143 0
M  V30 2363 C 231.812 -1.44723 1.47861 0
M  V30 2364 C 232.227 -1.88563 0.0945886 0
M  V30 2365 O 231.584 -1.59108 -0.893915 0
M  V30 2366 C 231.635 -2.68627 2.41913 0
M  V30 2367 O 231.356 -2.26623 3.74932 0
M  V30 2368 C 232.857 -3.62045 2.55809 0
M  V30 2369 H 230.077 -0.444801 0.502387 0
M  V30 2370 H 232.621 -0.808916 1.87821 0
M  V30 2371 H 230.776 -3.28613 2.05164 0
M  V30 2372 H 231.19 -3.06745 4.2545 0
M  V30 2373 H 232.664 -4.45666 3.25708 0
M  V30 2374 H 233.141 -4.08981 1.60099 0
M  V30 2375 H 233.747 -3.07944 2.93344 0
M  V30 2376 N 232.062 -1.29571 -0.897171 0
M  V30 2377 C 233.302 -1.18959 -1.66217 0
M  V30 2378 C 233.666 0.254271 -1.90309 0
M  V30 2379 O 234.867 0.483407 -2.64417 0
M  V30 2380 C 233.138 -1.98302 -2.9734 0
M  V30 2381 S 234.697 -2.04253 -3.88364 0
M  V30 2382 H 231.515 -0.424137 -0.570639 0
M  V30 2383 H 234.117 -1.6389 -1.06585 0
M  V30 2384 H 232.821 -3.02342 -2.77521 0
M  V30 2385 H 232.352 -1.53986 -3.62011 0
M  V30 2386 H 234.367 -1.16105 -4.82425 0
M  V30 2387 N 233.54 1.10788 -1.12088 0
M  V30 2388 C 234.788 1.8231 -0.872205 0
M  V30 2389 C 235.109 1.85419 0.603709 0
M  V30 2390 O 234.379 1.32963 1.43867 0
M  V30 2391 H 232.959 0.675137 -0.319686 0
M  V30 2392 H 235.621 1.34068 -1.41463 0
M  V30 2393 H 234.717 2.85955 -1.25045 0
M  V30 2394 N 235.018 0.912232 1.28515 0
M  V30 2395 C 235.948 0.416403 2.29757 0
M  V30 2396 C 236.929 -0.515194 1.6211 0
M  V30 2397 O 238.114 -0.423253 1.89532 0
M  V30 2398 C 235.244 -0.34572 3.45575 0
M  V30 2399 C 234.198 0.496599 4.25109 0
M  V30 2400 C 233.524 -0.393771 5.33248 0
M  V30 2401 C 234.824 1.75307 4.92001 0
M  V30 2402 H 236.518 1.26249 2.7148 0
M  V30 2403 H 234.064 0.608515 1.30511 0
M  V30 2404 H 236.017 -0.703422 4.15488 0
M  V30 2405 H 234.741 -1.2257 3.02728 0
M  V30 2406 H 233.4 0.8368 3.56922 0
M  V30 2407 H 233.048 -1.27225 4.86644 0
M  V30 2408 H 232.748 0.166209 5.87365 0
M  V30 2409 H 234.272 -0.747389 6.06009 0
M  V30 2410 H 235.686 1.46437 5.54283 0
M  V30 2411 H 234.083 2.25534 5.56106 0
M  V30 2412 H 235.153 2.48176 4.16577 0
M  V30 2413 N 236.496 -1.42363 0.676048 0
M  V30 2414 C 237.736 -2.03392 0.20273 0
M  V30 2415 C 238.1 -1.52306 -1.16906 0
M  V30 2416 O 239.301 -2.05129 -1.73711 0
M  V30 2417 C 237.572 -3.56614 0.236947 0
M  V30 2418 S 239.131 -4.38489 -0.165186 0
M  V30 2419 H 235.949 -0.70611 0.0832418 0
M  V30 2420 H 238.551 -1.74093 0.88948 0
M  V30 2421 H 237.255 -3.91293 1.23767 0
M  V30 2422 H 236.786 -3.90587 -0.469596 0
M  V30 2423 H 238.801 -4.76093 -1.39822 0
M  V30 2424 N 237.974 -0.419461 -1.51915 0
M  V30 2425 C 239.222 0.152637 -2.01523 0
M  V30 2426 C 239.543 1.44762 -1.30649 0
M  V30 2427 O 238.813 1.90997 -0.435535 0
M  V30 2428 H 237.393 0.0593966 -0.744635 0
M  V30 2429 H 240.055 -0.558073 -1.86739 0
M  V30 2430 H 239.151 0.341369 -3.10227 0
M  V30 2431 N 239.452 1.56882 -0.150215 0
M  V30 2432 C 240.4 2.18214 0.805313 0
M  V30 2433 C 241.394 1.14006 1.25296 0
M  V30 2434 O 242.6 1.3225 1.22107 0
M  V30 2435 H 238.975 0.698762 0.277913 0
M  V30 2436 H 240.946 2.97231 0.263862 0
M  V30 2437 C 239.695 2.82065 2.03309 0
M  V30 2438 H 239.018 3.61968 1.69763 0
M  V30 2439 H 240.458 3.28477 2.68103 0
M  V30 2440 C 238.917 1.80739 2.84315 0
M  V30 2441 O 239.447 1.27983 3.80767 0
M  V30 2442 N 237.653 1.4997 2.48913 0
M  V30 2443 H 237.2 1.93062 1.70542 0
M  V30 2444 H 237.158 0.824217 3.03404 0
M  V30 2445 N 240.93 -0.123565 1.57115 0
M  V30 2446 C 242.177 -0.832153 1.84612 0
M  V30 2447 C 242.505 -1.80093 0.734627 0
M  V30 2448 O 241.76 -1.93766 -0.27442 0
M  V30 2449 C 242.059 -1.62016 3.18568 0
M  V30 2450 C 241.725 -0.796084 4.43817 0
M  V30 2451 C 240.387 -0.568816 4.77826 0
M  V30 2452 C 242.739 -0.221364 5.2073 0
M  V30 2453 C 240.067 0.243499 5.86194 0
M  V30 2454 C 242.419 0.578117 6.29953 0
M  V30 2455 C 241.083 0.815744 6.62497 0
M  V30 2456 H 240.353 -0.304507 0.675542 0
M  V30 2457 H 243 -0.0947248 1.91266 0
M  V30 2458 H 241.305 -2.42837 3.0747 0
M  V30 2459 H 243.002 -2.17231 3.37064 0
M  V30 2460 H 239.592 -0.983307 4.17168 0
M  V30 2461 H 243.776 -0.384173 4.94811 0
M  V30 2462 H 239.032 0.436871 6.09837 0
M  V30 2463 H 243.206 1.03046 6.88734 0
M  V30 2464 H 240.833 1.44701 7.46301 0
M  V30 2465 N 242.408 -1.52605 -0.393616 0
M  V30 2466 C 243.356 -1.77688 -1.50099 0
M  V30 2467 C 244.35 -0.644615 -1.56656 0
M  V30 2468 O 245.556 -0.826997 -1.59877 0
M  V30 2469 H 241.931 -0.562159 -0.499481 0
M  V30 2470 H 243.902 -2.7043 -1.26135 0
M  V30 2471 C 242.651 -1.95858 -2.87289 0
M  V30 2472 H 241.974 -2.8241 -2.82992 0
M  V30 2473 H 243.414 -2.174 -3.64024 0
M  V30 2474 C 241.873 -0.729848 -3.28899 0
M  V30 2475 O 242.403 0.0949217 -4.01588 0
M  V30 2476 N 240.609 -0.561283 -2.85128 0
M  V30 2477 H 240.156 -1.23357 -2.26143 0
M  V30 2478 H 240.114 0.2595 -3.13327 0
M  V30 2479 N 243.887 0.651787 -1.4349 0
M  V30 2480 C 245.136 1.40754 -1.44469 0
M  V30 2481 C 245.449 1.95463 -0.0731845 0
M  V30 2482 O 246.655 2.71471 0.0395721 0
M  V30 2483 C 245.111 2.54735 -2.5424 0
M  V30 2484 C 244.719 2.06628 -3.97504 0
M  V30 2485 C 246.463 3.32092 -2.64414 0
M  V30 2486 C 244.37 3.17829 -4.98737 0
M  V30 2487 H 243.3 0.528862 -0.53742 0
M  V30 2488 H 245.951 0.703365 -1.69485 0
M  V30 2489 H 244.333 3.2763 -2.22428 0
M  V30 2490 H 245.507 1.40734 -4.38783 0
M  V30 2491 H 243.822 1.42146 -3.91387 0
M  V30 2492 H 246.419 4.14952 -3.37223 0
M  V30 2493 H 246.762 3.80217 -1.69532 0
M  V30 2494 H 247.295 2.66279 -2.95534 0
M  V30 2495 H 244.034 2.74671 -5.95177 0
M  V30 2496 H 243.554 3.82429 -4.62069 0
M  V30 2497 H 245.233 3.82937 -5.21505 0
M  V30 2498 N 245.365 1.30045 0.890287 0
M  V30 2499 C 246.612 1.18561 1.64163 0
M  V30 2500 C 246.94 -0.260852 1.92743 0
M  V30 2501 O 246.195 -1.20376 1.54299 0
M  V30 2502 C 246.494 1.95409 2.99249 0
M  V30 2503 C 246.16 3.45066 2.90242 0
M  V30 2504 C 244.822 3.85878 2.87492 0
M  V30 2505 C 247.174 4.4039 2.78758 0
M  V30 2506 C 244.502 5.20314 2.7109 0
M  V30 2507 C 246.854 5.74928 2.63894 0
M  V30 2508 C 245.518 6.14986 2.59516 0
M  V30 2509 H 244.788 0.433846 0.600715 0
M  V30 2510 H 247.435 1.61088 1.03552 0
M  V30 2511 H 245.74 1.45501 3.63781 0
M  V30 2512 H 247.437 1.8392 3.56334 0
M  V30 2513 H 244.027 3.12631 2.93189 0
M  V30 2514 H 248.211 4.09806 2.79952 0
M  V30 2515 H 243.467 5.50449 2.66112 0
M  V30 2516 H 247.641 6.48434 2.53981 0
M  V30 2517 H 245.268 7.19104 2.46565 0
M  V30 2518 N 246.843 -1.10192 1.12674 0
M  V30 2519 C 247.806 -2.14786 0.799979 0
M  V30 2520 C 248.806 -1.59711 -0.18685 0
M  V30 2521 O 249.996 -1.74156 0.0392558 0
M  V30 2522 C 247.128 -3.40374 0.189228 0
M  V30 2523 H 248.321 -2.45203 1.72671 0
M  V30 2524 H 245.874 -1.25597 0.930326 0
M  V30 2525 H 246.609 -3.15577 -0.747107 0
M  V30 2526 H 246.394 -3.81637 0.899766 0
M  V30 2527 H 247.884 -4.17594 -0.0228143 0
M  V30 2528 N 248.321 -0.919034 -1.28029 0
M  V30 2529 C 249.231 -0.416756 -2.30869 0
M  V30 2530 C 250.247 0.498235 -1.66714 0
M  V30 2531 O 251.423 0.383144 -1.97722 0
M  V30 2532 C 248.488 0.330274 -3.45123 0
M  V30 2533 C 247.549 -0.618578 -4.2482 0
M  V30 2534 C 246.782 0.0928959 -5.33619 0
M  V30 2535 O 247.005 1.31375 -5.55065 0
M  V30 2536 O 245.939 -0.574499 -5.99152 0
M  V30 2537 H 249.765 -1.27043 -2.75851 0
M  V30 2538 H 247.35 -0.684052 -1.3282 0
M  V30 2539 H 249.232 0.751972 -4.14636 0
M  V30 2540 H 247.907 1.1597 -3.02213 0
M  V30 2541 H 246.814 -1.08978 -3.57875 0
M  V30 2542 H 248.147 -1.41497 -4.71423 0
M  V30 2543 N 249.799 1.42003 -0.683588 0
M  V30 2544 C 251.076 1.95112 -0.138075 0
M  V30 2545 C 251.456 1.62359 1.34918 0
M  V30 2546 O 250.804 0.924311 2.08971 0
M  V30 2547 C 251.014 3.46505 -0.416581 0
M  V30 2548 C 252.362 4.23254 -0.337834 0
M  V30 2549 O 253.386 3.54468 -0.35082 0
M  V30 2550 O 252.245 5.45743 -0.287596 0
M  V30 2551 H 249.339 0.826961 -0.00797996 0
M  V30 2552 H 251.885 1.51784 -0.758924 0
M  V30 2553 H 250.657 3.63582 -1.4465 0
M  V30 2554 H 250.28 3.969 0.235839 0
M  V30 2555 N 251.277 0.427512 1.51691 0
M  V30 2556 C 252.554 -0.201684 1.94557 0
M  V30 2557 C 252.934 -1.60981 1.36559 0
M  V30 2558 O 252.282 -2.21814 0.548702 0
M  V30 2559 C 252.492 -0.189394 3.48486 0
M  V30 2560 C 253.84 -0.39978 4.22714 0
M  V30 2561 O 254.864 -0.267945 3.55191 0
M  V30 2562 O 253.723 -0.661249 5.42485 0
M  V30 2563 H 250.817 -0.135261 0.815864 0
M  V30 2564 H 253.363 0.484782 1.62628 0
M  V30 2565 H 252.135 0.795431 3.8313 0
M  V30 2566 H 251.758 -0.919187 3.86829 0
M  V30 2567 N 252.755 -1.56801 0.158532 0
M  V30 2568 C 254.002 -1.9649 -0.489679 0
M  V30 2569 C 254.33 -1.04394 -1.6411 0
M  V30 2570 O 253.585 -0.0754401 -1.95555 0
M  V30 2571 C 253.884 -3.4235 -1.02623 0
M  V30 2572 C 253.55 -4.50899 0.00794526 0
M  V30 2573 C 252.212 -4.80312 0.292207 0
M  V30 2574 C 254.564 -5.16333 0.710584 0
M  V30 2575 C 251.892 -5.72461 1.28472 0
M  V30 2576 C 254.244 -6.09553 1.69199 0
M  V30 2577 C 252.908 -6.37339 1.98383 0
M  V30 2578 H 252.178 -0.719009 -0.179186 0
M  V30 2579 H 254.825 -1.8989 0.247798 0
M  V30 2580 H 253.13 -3.45838 -1.84128 0
M  V30 2581 H 254.827 -3.70393 -1.53656 0
M  V30 2582 H 251.417 -4.28015 -0.22379 0
M  V30 2583 H 255.601 -4.93732 0.504174 0
M  V30 2584 H 250.857 -5.92278 1.51714 0
M  V30 2585 H 255.031 -6.59327 2.24189 0
M  V30 2586 H 252.658 -7.08546 2.7544 0
M  V30 2587 N 254.233 0.115231 -1.57178 0
M  V30 2588 C 255.166 1.17166 -1.95825 0
M  V30 2589 C 256.144 1.39912 -0.828463 0
M  V30 2590 O 257.328 1.54004 -1.08697 0
M  V30 2591 C 254.455 2.52478 -2.25771 0
M  V30 2592 C 253.501 2.46136 -3.48309 0
M  V30 2593 S 254.334 1.89736 -5.0076 0
M  V30 2594 C 255.49 3.26713 -5.33863 0
M  V30 2595 H 255.723 0.842103 -2.85124 0
M  V30 2596 H 253.256 0.322136 -1.51002 0
M  V30 2597 H 255.214 3.30332 -2.43702 0
M  V30 2598 H 253.875 2.82609 -1.37079 0
M  V30 2599 H 253.068 3.45819 -3.66641 0
M  V30 2600 H 252.67 1.76404 -3.29784 0
M  V30 2601 H 254.962 4.22935 -5.29275 0
M  V30 2602 H 255.905 3.13205 -6.35065 0
M  V30 2603 H 256.313 3.25316 -4.61335 0
M  V30 2604 N 255.711 1.52812 0.385517 0
M  V30 2605 C 256.939 1.71907 1.15133 0
M  V30 2606 C 257.354 0.439004 1.83625 0
M  V30 2607 O 256.711 -0.586765 1.7281 0
M  V30 2608 C 256.762 2.87099 2.19673 0
M  V30 2609 O 256.483 4.10151 1.53973 0
M  V30 2610 C 257.984 3.17902 3.08955 0
M  V30 2611 H 255.204 0.575479 0.345057 0
M  V30 2612 H 257.748 1.99476 0.45052 0
M  V30 2613 H 255.903 2.61982 2.85384 0
M  V30 2614 H 256.317 4.74514 2.23465 0
M  V30 2615 H 257.791 4.01959 3.7833 0
M  V30 2616 H 258.268 2.3243 3.72657 0
M  V30 2617 H 258.874 3.44871 2.48885 0
M  V30 2618 N 257.189 -0.644168 1.43834 0
M  V30 2619 C 258.121 -1.76955 1.45669 0
M  V30 2620 C 259.134 -1.58956 0.351666 0
M  V30 2621 O 260.323 -1.6751 0.616644 0
M  V30 2622 C 257.423 -3.14507 1.26248 0
M  V30 2623 C 256.596 -3.59083 2.49757 0
M  V30 2624 C 255.655 -4.75467 2.25427 0
M  V30 2625 O 254.681 -4.84444 2.98836 0
M  V30 2626 N 255.883 -5.66289 1.27661 0
M  V30 2627 H 258.648 -1.75856 2.42682 0
M  V30 2628 H 256.209 -0.828312 1.39106 0
M  V30 2629 H 258.201 -3.90067 1.0784 0
M  V30 2630 H 256.771 -3.10325 0.376478 0
M  V30 2631 H 255.991 -2.7387 2.8353 0
M  V30 2632 H 257.279 -3.85613 3.31934 0
M  V30 2633 H 256.677 -5.61718 0.670064 0
M  V30 2634 H 255.234 -6.41533 1.15234 0
M  V30 2635 N 258.668 -1.30515 -0.883378 0
M  V30 2636 C 259.578 -1.18959 -2.02203 0
M  V30 2637 C 260.594 -0.109172 -1.73657 0
M  V30 2638 O 261.77 -0.324413 -1.9877 0
M  V30 2639 C 258.835 -0.883871 -3.35244 0
M  V30 2640 C 257.896 -2.04982 -3.77201 0
M  V30 2641 C 257.129 -1.75859 -5.03894 0
M  V30 2642 O 257.352 -0.687276 -5.66244 0
M  V30 2643 O 256.286 -2.61146 -5.42297 0
M  V30 2644 H 260.112 -2.14616 -2.1488 0
M  V30 2645 H 257.697 -1.10124 -1.0096 0
M  V30 2646 H 259.579 -0.728644 -4.15053 0
M  V30 2647 H 258.254 0.0427798 -3.23672 0
M  V30 2648 H 257.161 -2.26038 -2.9809 0
M  V30 2649 H 258.494 -2.95825 -3.93381 0
M  V30 2650 N 260.146 1.09593 -1.13257 0
M  V30 2651 C 261.394 1.81375 -0.891492 0
M  V30 2652 C 261.715 1.86049 0.584009 0
M  V30 2653 O 260.985 1.34481 1.42449 0
M  V30 2654 H 259.565 0.671708 -0.326828 0
M  V30 2655 H 262.227 1.3256 -1.42877 0
M  V30 2656 H 261.323 2.84612 -1.28071 0
M  V30 2657 N 261.624 0.925811 1.2754 0
M  V30 2658 C 262.852 0.581509 1.9856 0
M  V30 2659 C 263.267 -0.840041 1.69082 0
M  V30 2660 O 262.624 -1.55805 0.950312 0
M  V30 2661 C 262.675 0.795589 3.52637 0
M  V30 2662 O 262.396 2.16121 3.81082 0
M  V30 2663 C 263.897 0.459744 4.4091 0
M  V30 2664 H 261.117 0.220538 0.633722 0
M  V30 2665 H 263.661 1.24232 1.6244 0
M  V30 2666 H 261.816 0.18161 3.86974 0
M  V30 2667 H 262.23 2.2098 4.75676 0
M  V30 2668 H 263.704 0.660244 5.48037 0
M  V30 2669 H 264.181 -0.604625 4.35018 0
M  V30 2670 H 264.787 1.05178 4.12089 0
M  V30 2671 N 263.102 -1.41638 0.69111 0
M  V30 2672 C 264.032 -2.3347 0.037248 0
M  V30 2673 C 265.013 -1.51575 -0.771947 0
M  V30 2674 O 266.198 -1.80126 -0.72582 0
M  V30 2675 C 263.328 -3.35354 -0.903064 0
M  V30 2676 C 262.282 -4.27526 -0.201288 0
M  V30 2677 C 261.608 -5.19747 -1.25565 0
M  V30 2678 C 262.908 -5.13959 0.929689 0
M  V30 2679 H 264.602 -2.88397 0.804227 0
M  V30 2680 H 262.148 -1.38669 0.388189 0
M  V30 2681 H 264.101 -3.98519 -1.36969 0
M  V30 2682 H 262.825 -2.78767 -1.70166 0
M  V30 2683 H 261.484 -3.65779 0.245265 0
M  V30 2684 H 261.132 -4.59479 -2.04666 0
M  V30 2685 H 260.832 -5.8225 -0.791128 0
M  V30 2686 H 262.356 -5.85789 -1.72288 0
M  V30 2687 H 263.77 -5.70718 0.543546 0
M  V30 2688 H 262.167 -5.85379 1.32103 0
M  V30 2689 H 263.237 -4.51389 1.77133 0
M  V30 2690 N 264.58 -0.43555 -1.51462 0
M  V30 2691 C 265.808 0.130242 -2.0649 0
M  V30 2692 C 266.223 1.36614 -1.30315 0
M  V30 2693 O 265.58 1.78869 -0.362223 0
M  V30 2694 C 265.631 0.454253 -3.58635 0
M  V30 2695 O 265.352 -0.73259 -4.31931 0
M  V30 2696 C 266.853 1.07091 -4.3017 0
M  V30 2697 H 264.073 0.00871669 -0.670943 0
M  V30 2698 H 266.617 -0.614117 -1.95061 0
M  V30 2699 H 264.772 1.14851 -3.69984 0
M  V30 2700 H 265.186 -0.455787 -5.22516 0
M  V30 2701 H 266.66 1.24764 -5.37716 0
M  V30 2702 H 267.137 2.05144 -3.88346 0
M  V30 2703 H 267.743 0.416089 -4.2326 0
M  V30 2704 N 266.058 1.56714 -0.166846 0
M  V30 2705 C 267.283 2.01557 0.488833 0
M  V30 2706 C 267.708 1.0463 1.56314 0
M  V30 2707 O 267.066 0.0251304 1.81283 0
M  V30 2708 C 267.114 3.4503 1.04818 0
M  V30 2709 O 266.218 3.51163 2.16236 0
M  V30 2710 H 265.559 0.653516 0.117526 0
M  V30 2711 H 268.089 2.02818 -0.269421 0
M  V30 2712 H 268.099 3.84243 1.37191 0
M  V30 2713 H 266.774 4.15077 0.261572 0
M  V30 2714 H 265.351 3.23807 1.84942 0
M  V30 2715 N 267.536 -0.106894 1.57237 0
M  V30 2716 C 268.813 -0.843526 1.76477 0
M  V30 2717 C 269.193 -1.97499 0.745464 0
M  V30 2718 O 268.541 -2.27357 -0.228306 0
M  V30 2719 C 268.751 -1.34903 3.21873 0
M  V30 2720 C 270.099 -1.79654 3.8472 0
M  V30 2721 O 271.123 -1.44554 3.2555 0
M  V30 2722 O 269.982 -2.44515 4.88748 0
M  V30 2723 H 267.076 -0.401468 0.723016 0
M  V30 2724 H 269.622 -0.0896927 1.69463 0
M  V30 2725 H 268.394 -0.53781 3.87586 0
M  V30 2726 H 268.017 -2.16522 3.33473 0
M  V30 2727 N 269.014 -1.53014 -0.377408 0
M  V30 2728 C 270.425 -1.60438 -0.954798 0
M  V30 2729 C 270.776 -0.464418 -1.90624 0
M  V30 2730 O 269.901 0.41087 -2.12464 0
M  V30 2731 C 270.496 -2.90797 -1.73847 0
M  V30 2732 C 269.055 -3.00595 -2.26538 0
M  V30 2733 C 268.202 -2.55645 -1.07429 0
M  V30 2734 H 271.153 -1.57926 -0.156575 0
M  V30 2735 H 271.174 -2.77935 -2.5987 0
M  V30 2736 H 270.686 -3.73746 -1.04574 0
M  V30 2737 H 268.787 -2.22208 -2.99089 0
M  V30 2738 H 268.9 -4.05456 -2.5523 0
M  V30 2739 H 267.264 -2.10239 -1.43777 0
M  V30 2740 H 268.047 -3.41 -0.396728 0
M  V30 2741 N 270.492 0.636531 -1.44174 0
M  V30 2742 C 271.722 1.42146 -1.49927 0
M  V30 2743 C 272.13 1.88812 -0.121063 0
M  V30 2744 O 271.473 1.61126 0.882267 0
M  V30 2745 C 271.535 2.67883 -2.39748 0
M  V30 2746 C 271.199 2.43048 -3.8701 0
M  V30 2747 C 272.196 2.05216 -4.77684 0
M  V30 2748 C 269.881 2.56856 -4.3166 0
M  V30 2749 C 271.875 1.81512 -6.11009 0
M  V30 2750 C 269.562 2.32766 -5.65034 0
M  V30 2751 C 270.56 1.95152 -6.54526 0
M  V30 2752 O 270.248 1.71326 -7.85431 0
M  V30 2753 H 269.98 0.442567 -0.51099 0
M  V30 2754 H 272.534 0.786158 -1.8976 0
M  V30 2755 H 270.764 3.34032 -1.94832 0
M  V30 2756 H 272.453 3.29874 -2.36513 0
M  V30 2757 H 273.219 1.94111 -4.44462 0
M  V30 2758 H 269.098 2.85104 -3.62266 0
M  V30 2759 H 272.642 1.52077 -6.80822 0
M  V30 2760 H 268.539 2.43479 -5.97819 0
M  V30 2761 H 269.307 1.85616 -7.97176 0
M  V30 2762 N 271.97 1.30982 0.876444 0
M  V30 2763 C 273.247 1.10942 1.61094 0
M  V30 2764 C 273.627 -0.338223 2.08373 0
M  V30 2765 O 272.975 -1.33122 1.85717 0
M  V30 2766 C 273.185 2.11789 2.77392 0
M  V30 2767 C 274.533 2.43965 3.47514 0
M  V30 2768 O 275.557 2.10166 2.87591 0
M  V30 2769 O 274.416 3.01817 4.55597 0
M  V30 2770 H 271.51 0.42667 0.708436 0
M  V30 2771 H 274.056 1.42438 0.922474 0
M  V30 2772 H 272.828 3.09194 2.39823 0
M  V30 2773 H 272.451 1.81161 3.5393 0
M  V30 2774 N 273.449 -1.08991 1.13837 0
M  V30 2775 C 274.696 -1.81258 0.902882 0
M  V30 2776 C 275.024 -1.85936 -0.570803 0
M  V30 2777 O 274.279 -1.3267 -1.43865 0
M  V30 2778 C 274.578 -3.27042 1.44147 0
M  V30 2779 C 274.244 -3.4249 2.93276 0
M  V30 2780 C 272.906 -3.46414 3.33992 0
M  V30 2781 C 275.258 -3.4666 3.892 0
M  V30 2782 C 272.586 -3.52091 4.69307 0
M  V30 2783 C 274.938 -3.53872 5.24364 0
M  V30 2784 C 273.602 -3.56066 5.646 0
M  V30 2785 H 272.872 -0.663268 0.330388 0
M  V30 2786 H 275.519 -1.28368 1.42105 0
M  V30 2787 H 273.824 -3.82599 0.844097 0
M  V30 2788 H 275.521 -3.81499 1.23528 0
M  V30 2789 H 272.111 -3.40124 2.60794 0
M  V30 2790 H 276.295 -3.42865 3.58828 0
M  V30 2791 H 271.551 -3.52079 4.9985 0
M  V30 2792 H 275.725 -3.56043 5.98503 0
M  V30 2793 H 273.352 -3.60218 6.69438 0
M  V30 2794 N 274.927 -0.932562 -1.27047 0
M  V30 2795 C 275.89 -0.440064 -2.24936 0
M  V30 2796 C 276.89 0.444071 -1.54547 0
M  V30 2797 O 278.08 0.244465 -1.72476 0
M  V30 2798 C 275.212 0.36678 -3.38921 0
M  V30 2799 H 276.405 -1.305 -2.70018 0
M  V30 2800 H 273.958 -0.713707 -1.39054 0
M  V30 2801 H 274.693 1.25033 -2.99228 0
M  V30 2802 H 274.478 -0.267204 -3.91188 0
M  V30 2803 H 275.968 0.701567 -4.11665 0
M  V30 2804 N 276.405 1.4127 -0.698611 0
M  V30 2805 C 277.353 2.32588 -0.023855 0
M  V30 2806 C 278.347 1.51128 0.765292 0
M  V30 2807 O 279.553 1.67043 0.670571 0
M  V30 2808 H 275.928 0.751918 0.0110871 0
M  V30 2809 H 277.899 2.87167 -0.811031 0
M  V30 2810 C 276.648 3.35947 0.896369 0
M  V30 2811 H 275.971 3.98684 0.298548 0
M  V30 2812 H 277.411 4.02376 1.33676 0
M  V30 2813 C 275.87 2.70076 2.01396 0
M  V30 2814 O 276.4 2.55093 3.10307 0
M  V30 2815 N 274.606 2.28724 1.79259 0
M  V30 2816 H 274.153 2.4111 0.906841 0
M  V30 2817 H 274.111 1.84986 2.54219 0
M  V30 2818 N 277.883 0.443576 1.51229 0
M  V30 2819 C 279.108 -0.121648 2.07043 0
M  V30 2820 C 279.533 -1.35156 1.30823 0
M  V30 2821 O 278.891 -1.7793 0.347934 0
M  V30 2822 C 278.939 -0.41624 3.5819 0
M  V30 2823 O 278.043 -1.50163 3.8409 0
M  V30 2824 H 277.384 0.000871367 0.663999 0
M  V30 2825 H 279.914 0.626706 1.94765 0
M  V30 2826 H 279.924 -0.664867 4.02546 0
M  V30 2827 H 278.599 0.482653 4.1309 0
M  V30 2828 H 277.176 -1.24248 3.51592 0
M  V30 2829 N 279.361 -1.56624 0.175154 0
M  V30 2830 C 280.607 -1.98061 -0.462976 0
M  V30 2831 C 280.962 -1.05949 -1.60601 0
M  V30 2832 O 280.255 -0.0999027 -1.91339 0
M  V30 2833 C 280.449 -3.43419 -0.989864 0
M  V30 2834 C 280.278 -4.49587 0.100583 0
M  V30 2835 C 279.048 -5.02281 0.551539 0
M  V30 2836 C 281.246 -5.06322 0.902369 0
M  V30 2837 N 279.228 -5.92088 1.62189 0
M  V30 2838 C 280.599 -5.92607 1.82256 0
M  V30 2839 C 282.654 -4.88811 0.947019 0
M  V30 2840 C 281.357 -6.63254 2.78364 0
M  V30 2841 C 283.383 -5.60182 1.89606 0
M  V30 2842 C 282.745 -6.46197 2.80372 0
M  V30 2843 H 278.844 -0.769833 -0.137409 0
M  V30 2844 H 281.428 -1.9273 0.276256 0
M  V30 2845 H 279.599 -3.49288 -1.6986 0
M  V30 2846 H 281.331 -3.7186 -1.59694 0
M  V30 2847 H 278.086 -4.73367 0.148537 0
M  V30 2848 H 278.51 -6.41696 2.15767 0
M  V30 2849 H 283.152 -4.22004 0.259304 0
M  V30 2850 H 280.87 -7.29271 3.48122 0
M  V30 2851 H 284.456 -5.48617 1.93676 0
M  V30 2852 H 283.336 -7.00453 3.52612 0
M  V30 2853 N 280.839 0.0985539 -1.57292 0
M  V30 2854 C 281.802 1.10402 -2.00858 0
M  V30 2855 C 282.802 1.33146 -0.901593 0
M  V30 2856 O 283.992 1.29318 -1.16716 0
M  V30 2857 C 281.124 2.45394 -2.36632 0
M  V30 2858 H 282.317 0.729099 -2.90902 0
M  V30 2859 H 279.87 0.343495 -1.52479 0
M  V30 2860 H 280.605 2.87769 -1.49531 0
M  V30 2861 H 280.39 2.30235 -3.17387 0
M  V30 2862 H 281.88 3.17718 -2.71007 0
M  V30 2863 N 282.317 1.53212 0.369288 0
M  V30 2864 C 283.247 1.82365 1.45826 0
M  V30 2865 C 284.228 0.676907 1.56051 0
M  V30 2866 O 285.413 0.926401 1.70679 0
M  V30 2867 C 282.543 2.01023 2.83208 0
M  V30 2868 C 281.497 3.1678 2.8781 0
M  V30 2869 C 280.823 3.20724 4.27832 0
M  V30 2870 C 282.123 4.55447 2.55667 0
M  V30 2871 H 283.817 2.73559 1.21678 0
M  V30 2872 H 281.363 1.3163 0.583911 0
M  V30 2873 H 283.316 2.20001 3.59413 0
M  V30 2874 H 282.04 1.06536 3.08736 0
M  V30 2875 H 280.699 2.97616 2.14056 0
M  V30 2876 H 280.347 2.23882 4.50429 0
M  V30 2877 H 280.047 3.98496 4.31827 0
M  V30 2878 H 281.571 3.41881 5.05915 0
M  V30 2879 H 282.985 4.74611 3.21586 0
M  V30 2880 H 281.382 5.35432 2.70984 0
M  V30 2881 H 282.452 4.60812 1.5093 0
M  V30 2882 N 283.795 -0.628877 1.44509 0
M  V30 2883 C 285.02 -1.42048 1.5112 0
M  V30 2884 C 285.445 -1.87594 0.137818 0
M  V30 2885 O 284.803 -1.58873 -0.873437 0
M  V30 2886 C 284.851 -2.61541 2.48251 0
M  V30 2887 O 283.955 -3.61453 1.98559 0
M  V30 2888 H 283.296 -0.424942 0.510216 0
M  V30 2889 H 285.826 -0.767374 1.89664 0
M  V30 2890 H 285.836 -3.09057 2.66361 0
M  V30 2891 H 284.511 -2.27736 3.48007 0
M  V30 2892 H 283.088 -3.20731 1.90227 0
M  V30 2893 N 285.273 -1.31445 -0.869486 0
M  V30 2894 C 286.498 -1.24256 -1.66058 0
M  V30 2895 C 286.923 0.188928 -1.87149 0
M  V30 2896 O 286.281 1.13522 -1.4136 0
M  V30 2897 C 286.329 -1.9924 -3.00559 0
M  V30 2898 O 285.433 -1.33007 -3.90362 0
M  V30 2899 H 284.774 -0.428973 -0.506831 0
M  V30 2900 H 287.304 -1.73521 -1.08404 0
M  V30 2901 H 287.314 -2.08854 -3.50491 0
M  V30 2902 H 285.989 -3.03342 -2.84528 0
M  V30 2903 H 284.566 -1.31848 -3.48813 0
M  V30 2904 N 286.751 1.08385 -1.14413 0
M  V30 2905 C 287.999 1.80419 -0.910679 0
M  V30 2906 C 288.32 1.86658 0.564243 0
M  V30 2907 O 287.59 1.35985 1.41014 0
M  V30 2908 H 286.17 0.668204 -0.333934 0
M  V30 2909 H 288.832 1.31037 -1.44275 0
M  V30 2910 H 287.928 2.83238 -1.31082 0
M  V30 2911 N 288.23 0.939286 1.26551 0
M  V30 2912 C 289.14 0.453432 2.30176 0
M  V30 2913 C 290.156 -0.471649 1.67486 0
M  V30 2914 O 291.332 -0.35164 1.98306 0
M  V30 2915 C 288.397 -0.275326 3.45605 0
M  V30 2916 C 287.458 0.686084 4.23782 0
M  V30 2917 C 286.691 -0.00798994 5.33699 0
M  V30 2918 O 286.914 -1.22528 5.57085 0
M  V30 2919 O 285.848 0.669746 5.98162 0
M  V30 2920 H 289.674 1.31416 2.73795 0
M  V30 2921 H 287.259 0.705095 1.31715 0
M  V30 2922 H 289.141 -0.685911 4.1578 0
M  V30 2923 H 287.816 -1.11147 3.0402 0
M  V30 2924 H 286.723 1.14658 3.56096 0
M  V30 2925 H 288.056 1.48979 4.69112 0
M  V30 2926 N 289.708 -1.40897 0.706093 0
M  V30 2927 C 290.64 -2.29199 0.00815776 0
M  V30 2928 C 291.653 -1.45336 -0.733582 0
M  V30 2929 O 292.842 -1.68727 -0.582537 0
M  V30 2930 C 289.942 -3.23417 -1.01265 0
M  V30 2931 C 289.115 -4.36089 -0.338387 0
M  V30 2932 C 288.174 -5.10811 -1.26326 0
M  V30 2933 O 287.2 -5.64215 -0.751651 0
M  V30 2934 N 288.402 -5.19269 -2.595 0
M  V30 2935 H 291.167 -2.89738 0.766297 0
M  V30 2936 H 288.728 -1.52164 0.55296 0
M  V30 2937 H 290.72 -3.70276 -1.63334 0
M  V30 2938 H 289.29 -2.64112 -1.67223 0
M  V30 2939 H 288.51 -3.91479 0.462352 0
M  V30 2940 H 289.798 -5.08634 0.130031 0
M  V30 2941 H 289.196 -4.77347 -3.03573 0
M  V30 2942 H 287.753 -5.69667 -3.16737 0
M  V30 2943 N 291.186 -0.45159 -1.50991 0
M  V30 2944 C 292.432 0.102439 -2.03142 0
M  V30 2945 C 292.787 1.39138 -1.32884 0
M  V30 2946 O 292.08 1.86493 -0.439438 0
M  V30 2947 C 292.274 0.361728 -3.55565 0
M  V30 2948 C 292.103 -0.900535 -4.40591 0
M  V30 2949 C 290.873 -1.43821 -4.844 0
M  V30 2950 C 293.071 -1.79063 -4.82121 0
M  V30 2951 N 291.053 -2.65153 -5.53685 0
M  V30 2952 C 292.424 -2.84991 -5.50618 0
M  V30 2953 C 294.479 -1.80334 -4.64095 0
M  V30 2954 C 293.182 -3.92155 -6.02998 0
M  V30 2955 C 295.208 -2.86442 -5.17402 0
M  V30 2956 C 294.57 -3.9109 -5.85857 0
M  V30 2957 H 290.669 -0.00204537 -0.781997 0
M  V30 2958 H 293.253 -0.615446 -1.84717 0
M  V30 2959 H 291.424 1.04865 -3.73976 0
M  V30 2960 H 293.156 0.908372 -3.94374 0
M  V30 2961 H 289.911 -0.990117 -4.63135 0
M  V30 2962 H 290.335 -3.26717 -5.92946 0
M  V30 2963 H 294.977 -1.00753 -4.1062 0
M  V30 2964 H 292.695 -4.72565 -6.55521 0
M  V30 2965 H 296.281 -2.88386 -5.05297 0
M  V30 2966 H 295.161 -4.71845 -6.26364 0
M  V30 2967 N 292.664 1.56529 -0.183458 0
M  V30 2968 C 293.904 1.99141 0.460667 0
M  V30 2969 C 294.268 1.06736 1.59597 0
M  V30 2970 O 295.469 1.38538 2.30349 0
M  V30 2971 C 293.74 3.45358 0.919939 0
M  V30 2972 S 295.299 4.09999 1.56354 0
M  V30 2973 H 292.117 0.695479 0.147748 0
M  V30 2974 H 294.719 1.93429 -0.283782 0
M  V30 2975 H 293.423 4.10315 0.0834208 0
M  V30 2976 H 292.954 3.54862 1.69814 0
M  V30 2977 H 294.969 4.06046 2.85203 0
M  V30 2978 N 294.142 -0.090211 1.57342 0
M  V30 2979 C 295.052 -1.12735 2.05738 0
M  V30 2980 C 296.068 -1.43557 0.983231 0
M  V30 2981 O 297.244 -1.54101 1.29672 0
M  V30 2982 C 294.309 -2.42659 2.47624 0
M  V30 2983 C 293.37 -2.18975 3.69254 0
M  V30 2984 C 292.603 -3.42704 4.09133 0
M  V30 2985 O 292.826 -4.51127 3.49057 0
M  V30 2986 O 291.76 -3.32003 5.02053 0
M  V30 2987 H 295.586 -0.746279 2.94388 0
M  V30 2988 H 293.171 -0.303064 1.46294 0
M  V30 2989 H 295.053 -3.19155 2.7517 0
M  V30 2990 H 293.728 -2.80182 1.62109 0
M  V30 2991 H 292.635 -1.40244 3.46818 0
M  V30 2992 H 293.968 -1.86342 4.55563 0
M  V30 2993 N 295.62 -1.53406 -0.361157 0
M  V30 2994 C 297.036 -1.43277 -0.703124 0
M  V30 2995 C 297.236 -0.575384 -1.9311 0
M  V30 2996 O 296.292 -0.0595362 -2.5243 0
M  V30 2997 C 297.605 -2.8653 -0.9122 0
M  V30 2998 C 299.153 -2.96191 -1.01193 0
M  V30 2999 C 299.628 -4.40514 -1.25345 0
M  V30 3000 N 301.119 -4.43962 -1.32105 0
M  V30 3001 C 301.854 -5.52746 -1.5251 0
M  V30 3002 N 301.35 -6.71567 -1.70203 0
M  V30 3003 N 303.143 -5.40331 -1.54916 0
M  V30 3004 H 295.294 -2.07654 0.446475 0
M  V30 3005 H 297.557 -0.937944 0.137715 0
M  V30 3006 H 297.263 -3.51605 -0.0816414 0
M  V30 3007 H 297.137 -3.30441 -1.81903 0
M  V30 3008 H 299.524 -2.31266 -1.83303 0
M  V30 3009 H 299.605 -2.55667 -0.0823929 0
M  V30 3010 H 299.249 -5.06014 -0.437346 0
M  V30 3011 H 299.179 -4.78614 -2.19627 0
M  V30 3012 H 301.67 -3.58332 -1.20028 0
M  V30 3013 H 301.983 -7.50241 -1.85359 0
M  V30 3014 H 300.328 -6.74545 -1.67373 0
M  V30 3015 H 303.519 -4.46465 -1.40663 0
M  V30 3016 H 303.692 -6.25173 -1.70477 0
M  V30 3017 N 297.098 0.621204 -1.44841 0
M  V30 3018 C 298.061 1.71459 -1.521 0
M  V30 3019 C 299.061 1.55696 -0.401933 0
M  V30 3020 O 300.251 1.61011 -0.664925 0
M  V30 3021 C 297.383 3.10624 -1.40447 0
M  V30 3022 H 298.576 1.66394 -2.49506 0
M  V30 3023 H 296.129 0.835745 -1.3208 0
M  V30 3024 H 296.864 3.21277 -0.441737 0
M  V30 3025 H 296.649 3.23473 -2.21602 0
M  V30 3026 H 298.139 3.90293 -1.4853 0
M  V30 3027 N 298.576 1.31904 0.862503 0
M  V30 3028 C 299.801 1.25135 1.65397 0
M  V30 3029 C 300.226 -0.179 1.87246 0
M  V30 3030 O 299.584 -1.1277 1.4196 0
M  V30 3031 C 299.632 2.00832 2.99498 0
M  V30 3032 O 298.736 1.35075 3.89652 0
M  V30 3033 H 298.077 0.431655 0.504549 0
M  V30 3034 H 300.607 1.74094 1.07483 0
M  V30 3035 H 300.617 2.10709 3.49379 0
M  V30 3036 H 299.292 3.04847 2.82916 0
M  V30 3037 H 297.869 1.33696 3.48109 0
M  V30 3038 N 300.054 -1.07777 1.14986 0
M  V30 3039 C 301.465 -1.61766 0.932127 0
M  V30 3040 C 301.816 -1.88974 -0.527581 0
M  V30 3041 O 300.941 -1.65198 -1.39781 0
M  V30 3042 C 301.536 -2.93891 1.68563 0
M  V30 3043 C 300.095 -3.44639 1.5133 0
M  V30 3044 C 299.242 -2.18767 1.704 0
M  V30 3045 H 302.193 -0.909201 1.30074 0
M  V30 3046 H 302.214 -3.62623 1.15259 0
M  V30 3047 H 301.726 -2.74057 2.74799 0
M  V30 3048 H 299.827 -3.69564 0.474702 0
M  V30 3049 H 299.94 -4.20966 2.28746 0
M  V30 3050 H 298.304 -2.28253 1.13016 0
M  V30 3051 H 299.087 -2.01433 2.77992 0
M  V30 3052 N 301.532 -0.945985 -1.26051 0
M  V30 3053 C 302.943 -0.638096 -1.75457 0
M  V30 3054 C 303.294 0.846672 -1.76991 0
M  V30 3055 O 302.419 1.66262 -1.38513 0
M  V30 3056 C 303.014 -1.15157 -3.18629 0
M  V30 3057 C 301.573 -0.894004 -3.65629 0
M  V30 3058 C 300.72 -1.29967 -2.44957 0
M  V30 3059 H 303.671 -1.12376 -1.1206 0
M  V30 3060 H 303.692 -0.507615 -3.77099 0
M  V30 3061 H 303.204 -2.23222 -3.1748 0
M  V30 3062 H 301.305 0.172057 -3.72203 0
M  V30 3063 H 301.418 -1.52439 -4.54202 0
M  V30 3064 H 299.782 -0.718078 -2.44368 0
M  V30 3065 H 300.565 -2.38935 -2.46505 0
M  V30 3066 N 303.011 1.40521 -0.713556 0
M  V30 3067 C 304.236 2.05759 -0.26035 0
M  V30 3068 C 304.661 1.53403 1.08854 0
M  V30 3069 O 304.019 0.668535 1.68524 0
M  V30 3070 C 304.067 3.59745 -0.248122 0
M  V30 3071 O 303.171 4.05123 0.77131 0
M  V30 3072 H 302.512 0.652564 -0.122703 0
M  V30 3073 H 305.042 1.79958 -0.973467 0
M  V30 3074 H 305.052 4.07911 -0.0851129 0
M  V30 3075 H 303.727 3.97218 -1.2325 0
M  V30 3076 H 302.304 3.68422 0.57619 0
M  V30 3077 N 304.489 0.459591 1.5075 0
M  V30 3078 C 305.714 -0.0996819 2.0716 0
M  V30 3079 C 306.139 -1.33761 1.32249 0
M  V30 3080 O 305.497 -1.77551 0.366786 0
M  V30 3081 C 305.545 -0.378226 3.58611 0
M  V30 3082 O 304.649 -1.46081 3.85661 0
M  V30 3083 H 303.99 0.00791392 0.663953 0
M  V30 3084 H 306.52 0.647329 1.9409 0
M  V30 3085 H 306.53 -0.622135 4.03229 0
M  V30 3086 H 305.205 0.526439 4.12555 0
M  V30 3087 H 303.782 -1.20511 3.5289 0
M  V30 3088 N 305.967 -1.56429 0.191757 0
M  V30 3089 C 307.192 -2.02309 -0.456706 0
M  V30 3090 C 307.617 -1.07103 -1.5463 0
M  V30 3091 O 306.975 -0.0539677 -1.8122 0
M  V30 3092 C 307.023 -3.46654 -0.993159 0
M  V30 3093 O 306.127 -3.54559 -2.10622 0
M  V30 3094 H 305.468 -0.655303 -0.107114 0
M  V30 3095 H 307.998 -2.02364 0.301653 0
M  V30 3096 H 308.008 -3.86377 -1.31061 0
M  V30 3097 H 306.683 -4.1544 -0.195504 0
M  V30 3098 H 305.26 -3.26708 -1.79767 0
M  V30 3099 N 307.445 0.0818655 -1.57387 0
M  V30 3100 C 308.685 0.788375 -1.88584 0
M  V30 3101 C 309.049 1.75248 -0.784351 0
M  V30 3102 O 310.25 2.50334 -0.979105 0
M  V30 3103 C 308.521 1.48654 -3.25018 0
M  V30 3104 S 310.08 2.22951 -3.7794 0
M  V30 3105 H 306.898 0.262383 -0.660815 0
M  V30 3106 H 309.5 0.0448995 -1.95448 0
M  V30 3107 H 308.204 0.770919 -4.03094 0
M  V30 3108 H 307.735 2.26965 -3.21326 0
M  V30 3109 H 309.75 3.49309 -3.52417 0
M  V30 3110 N 308.923 1.53595 0.353017 0
M  V30 3111 C 309.871 1.81605 1.45335 0
M  V30 3112 C 310.865 0.685923 1.54892 0
M  V30 3113 O 312.071 0.869095 1.57628 0
M  V30 3114 H 308.446 0.575204 0.484401 0
M  V30 3115 H 310.417 2.73679 1.18921 0
M  V30 3116 C 309.166 2.03406 2.81995 0
M  V30 3117 H 308.489 2.89814 2.75405 0
M  V30 3118 H 309.929 2.26975 3.58132 0
M  V30 3119 C 308.388 0.816794 3.26849 0
M  V30 3120 O 308.918 0.0115856 4.01698 0
M  V30 3121 N 307.124 0.636682 2.8354 0
M  V30 3122 H 306.671 1.2931 2.22793 0
M  V30 3123 H 306.629 -0.176336 3.13905 0
M  V30 3124 N 310.401 -0.613514 1.45168 0
M  V30 3125 C 311.65 -1.36874 1.4815 0
M  V30 3126 C 311.963 -1.952 0.124982 0
M  V30 3127 O 313.169 -2.71481 0.0324176 0
M  V30 3128 C 311.625 -2.47905 2.60904 0
M  V30 3129 C 311.233 -1.96016 4.02842 0
M  V30 3130 C 312.977 -3.24965 2.73126 0
M  V30 3131 C 310.884 -3.04494 5.06988 0
M  V30 3132 H 309.814 -0.514428 0.551253 0
M  V30 3133 H 312.465 -0.658182 1.7129 0
M  V30 3134 H 310.847 -3.21618 2.31037 0
M  V30 3135 H 312.021 -1.29051 4.4236 0
M  V30 3136 H 310.336 -1.31719 3.95018 0
M  V30 3137 H 312.933 -4.05865 3.48106 0
M  V30 3138 H 313.276 -3.75588 1.79553 0
M  V30 3139 H 313.809 -2.5835 3.0249 0
M  V30 3140 H 310.548 -2.58795 6.0225 0
M  V30 3141 H 310.068 -3.70044 4.72046 0
M  V30 3142 H 311.747 -3.68976 5.31475 0
M  V30 3143 N 311.879 -1.3236 -0.855495 0
M  V30 3144 C 313.104 -1.2601 -1.64731 0
M  V30 3145 C 313.529 0.169068 -1.87339 0
M  V30 3146 O 312.887 1.12016 -1.42556 0
M  V30 3147 C 312.935 -2.02417 -2.98429 0
M  V30 3148 O 312.039 -1.3714 -3.8893 0
M  V30 3149 H 311.38 -0.434325 -0.502253 0
M  V30 3150 H 313.91 -1.74661 -1.06558 0
M  V30 3151 H 313.92 -2.12559 -3.48257 0
M  V30 3152 H 312.595 -3.06343 -2.81295 0
M  V30 3153 H 311.172 -1.3554 -3.47395 0
M  V30 3154 N 313.357 1.07166 -1.15556 0
M  V30 3155 C 314.582 1.84053 -0.955988 0
M  V30 3156 C 315.007 1.81586 0.490739 0
M  V30 3157 O 314.365 1.21018 1.34997 0
M  V30 3158 C 314.413 3.28957 -1.47714 0
M  V30 3159 O 313.517 4.06795 -0.677593 0
M  V30 3160 H 312.858 0.569842 -0.340847 0
M  V30 3161 H 315.388 1.35178 -1.53584 0
M  V30 3162 H 315.398 3.79788 -1.4908 0
M  V30 3163 H 314.073 3.30068 -2.53037 0
M  V30 3164 H 312.65 3.6561 -0.733721 0
M  V30 3165 N 314.835 0.952656 1.25548 0
M  V30 3166 C 316.083 0.605176 1.92826 0
M  V30 3167 C 316.404 -0.860261 1.74999 0
M  V30 3168 O 315.674 -1.6125 1.11244 0
M  V30 3169 H 314.254 0.220832 0.713612 0
M  V30 3170 H 316.916 1.21047 1.52754 0
M  V30 3171 H 316.012 0.832798 3.00784 0
M  V30 3172 N 316.313 -1.40141 0.720998 0
M  V30 3173 C 317.223 -2.34486 0.0731031 0
M  V30 3174 C 318.239 -1.57587 -0.737723 0
M  V30 3175 O 319.415 -1.89949 -0.669429 0
M  V30 3176 C 316.48 -3.36528 -0.833656 0
M  V30 3177 C 315.541 -4.29298 -0.0121673 0
M  V30 3178 C 314.774 -5.26466 -0.875742 0
M  V30 3179 O 314.997 -5.29745 -2.11485 0
M  V30 3180 O 313.931 -6.01092 -0.31185 0
M  V30 3181 H 317.757 -2.9152 0.851444 0
M  V30 3182 H 315.342 -1.41427 0.481527 0
M  V30 3183 H 317.224 -3.99093 -1.35289 0
M  V30 3184 H 315.899 -2.81899 -1.59105 0
M  V30 3185 H 314.806 -3.70001 0.552262 0
M  V30 3186 H 316.139 -4.87094 0.707129 0
M  V30 3187 N 317.792 -0.46758 -1.50504 0
M  V30 3188 C 318.725 0.374324 -2.25109 0
M  V30 3189 C 319.703 0.99921 -1.28275 0
M  V30 3190 O 320.887 1.03583 -1.57489 0
M  V30 3191 C 318.014 1.52419 -3.02467 0
M  V30 3192 C 317.06 1.01702 -4.14197 0
M  V30 3193 S 317.893 -0.0654477 -5.3546 0
M  V30 3194 C 319.049 1.08837 -6.16365 0
M  V30 3195 H 319.282 -0.258983 -2.9617 0
M  V30 3196 H 316.815 -0.252421 -1.52323 0
M  V30 3197 H 318.773 2.18322 -3.47628 0
M  V30 3198 H 317.434 2.129 -2.30938 0
M  V30 3199 H 316.627 1.87776 -4.67714 0
M  V30 3200 H 316.229 0.435757 -3.71453 0
M  V30 3201 H 318.521 2.00071 -6.47285 0
M  V30 3202 H 319.464 0.592538 -7.05616 0
M  V30 3203 H 319.872 1.34061 -5.4835 0
M  V30 3204 N 319.27 1.56325 -0.20005 0
M  V30 3205 C 320.202 2.16555 0.750771 0
M  V30 3206 C 321.215 1.12871 1.1732 0
M  V30 3207 O 322.404 1.39943 1.10807 0
M  V30 3208 C 319.504 2.71684 2.02586 0
M  V30 3209 C 318.677 4.00321 1.76244 0
M  V30 3210 C 317.736 4.40227 2.88248 0
M  V30 3211 O 316.762 5.07552 2.57642 0
M  V30 3212 N 317.964 4.04138 4.16717 0
M  V30 3213 H 320.729 2.98772 0.235685 0
M  V30 3214 H 318.29 1.6189 -0.0182594 0
M  V30 3215 H 320.282 2.95363 2.76664 0
M  V30 3216 H 318.852 1.93893 2.45202 0
M  V30 3217 H 318.072 3.84723 0.85919 0
M  V30 3218 H 319.36 4.84279 1.56048 0
M  V30 3219 H 318.758 3.49993 4.44434 0
M  V30 3220 H 317.315 4.32756 4.87407 0
M  V30 3221 N 320.748 -0.0735177 1.57428 0
M  V30 3222 C 321.695 -1.08756 2.0357 0
M  V30 3223 C 322.665 -1.38559 0.916 0
M  V30 3224 O 323.85 -1.49656 1.18354 0
M  V30 3225 C 320.99 -2.39657 2.48311 0
M  V30 3226 C 320.103 -2.16399 3.73892 0
M  V30 3227 C 319.238 -3.40852 4.07423 0
M  V30 3228 C 318.277 -3.1295 5.2605 0
M  V30 3229 N 317.414 -4.29729 5.55228 0
M  V30 3230 H 322.254 -0.687104 2.8997 0
M  V30 3231 H 319.791 -0.327709 1.43403 0
M  V30 3232 H 321.749 -3.16081 2.72303 0
M  V30 3233 H 320.379 -2.77508 1.64891 0
M  V30 3234 H 319.431 -1.30676 3.57251 0
M  V30 3235 H 320.743 -1.91788 4.60455 0
M  V30 3236 H 319.897 -4.25671 4.32306 0
M  V30 3237 H 318.636 -3.68537 3.19425 0
M  V30 3238 H 317.641 -2.26526 5.00965 0
M  V30 3239 H 318.866 -2.86589 6.15665 0
M  V30 3240 H 316.812 -4.57448 4.70188 0
M  V30 3241 H 316.729 -4.08385 6.36206 0
M  V30 3242 H 317.997 -5.1555 5.84661 0
M  V30 3243 N 322.226 -1.5378 -0.344866 0
M  V30 3244 C 323.474 -1.70625 -1.08311 0
M  V30 3245 C 323.795 -0.471447 -1.89215 0
M  V30 3246 O 323.065 0.514616 -1.8902 0
M  V30 3247 H 321.645 -0.629058 -0.402859 0
M  V30 3248 H 324.307 -1.9103 -0.386459 0
M  V30 3249 H 323.403 -2.57656 -1.76124 0
M  V30 3250 N 323.704 0.605807 -1.45491 0
M  V30 3251 C 324.634 1.72709 -1.57143 0
M  V30 3252 C 325.615 1.6476 -0.422884 0
M  V30 3253 O 326.8 1.83132 -0.646247 0
M  V30 3254 C 323.93 3.11316 -1.53948 0
M  V30 3255 C 322.884 3.34077 -2.67537 0
M  V30 3256 C 322.21 4.72975 -2.49397 0
M  V30 3257 C 323.51 3.24158 -4.09535 0
M  V30 3258 H 325.204 1.63214 -2.51001 0
M  V30 3259 H 322.75 0.78379 -1.208 0
M  V30 3260 H 324.703 3.89557 -1.60696 0
M  V30 3261 H 323.427 3.21655 -0.566205 0
M  V30 3262 H 322.086 2.58227 -2.6022 0
M  V30 3263 H 321.734 4.8005 -1.50205 0
M  V30 3264 H 321.434 4.8916 -3.25571 0
M  V30 3265 H 322.958 5.53414 -2.58002 0
M  V30 3266 H 324.372 3.92271 -4.18086 0
M  V30 3267 H 322.769 3.51872 -4.86113 0
M  V30 3268 H 323.839 2.2157 -4.31317 0
M  V30 3269 N 325.182 1.32811 0.848464 0
M  V30 3270 C 326.428 1.24917 1.60522 0
M  V30 3271 C 326.783 -0.185761 1.91501 0
M  V30 3272 O 326.076 -1.12524 1.55077 0
M  V30 3273 C 326.27 2.04831 2.92881 0
M  V30 3274 C 326.099 3.55949 2.74828 0
M  V30 3275 C 324.869 4.25277 2.72887 0
M  V30 3276 C 327.067 4.50476 2.48145 0
M  V30 3277 N 325.049 5.62408 2.46111 0
M  V30 3278 C 326.42 5.75427 2.30832 0
M  V30 3279 C 328.475 4.39665 2.33664 0
M  V30 3280 C 327.178 6.90789 2.00508 0
M  V30 3281 C 329.204 5.54833 2.04731 0
M  V30 3282 C 328.566 6.78787 1.88223 0
M  V30 3283 H 324.665 0.512279 0.590842 0
M  V30 3284 H 327.249 1.67246 0.996839 0
M  V30 3285 H 325.42 1.64837 3.51686 0
M  V30 3286 H 327.152 1.88782 3.57971 0
M  V30 3287 H 323.907 3.77456 2.86049 0
M  V30 3288 H 324.331 6.3467 2.35634 0
M  V30 3289 H 328.973 3.44477 2.45144 0
M  V30 3290 H 326.691 7.85984 1.87765 0
M  V30 3291 H 330.277 5.48398 1.94295 0
M  V30 3292 H 329.157 7.66396 1.66155 0
M  V30 3293 N 326.66 -1.06551 1.16123 0
M  V30 3294 C 327.57 -2.17484 0.879662 0
M  V30 3295 C 328.586 -1.73377 -0.147104 0
M  V30 3296 O 329.762 -2.01379 0.0289128 0
M  V30 3297 C 326.827 -3.44591 0.381829 0
M  V30 3298 C 325.888 -4.0322 1.4735 0
M  V30 3299 C 325.121 -5.24261 0.999324 0
M  V30 3300 O 325.344 -5.70198 -0.151957 0
M  V30 3301 O 324.278 -5.74775 1.78653 0
M  V30 3302 H 328.104 -2.44075 1.80724 0
M  V30 3303 H 325.689 -1.16042 0.940992 0
M  V30 3304 H 327.571 -4.21254 0.111053 0
M  V30 3305 H 326.246 -3.19532 -0.51777 0
M  V30 3306 H 325.153 -3.2806 1.79798 0
M  V30 3307 H 326.486 -4.32568 2.34831 0
M  V30 3308 N 328.138 -0.959301 -1.25041 0
M  V30 3309 C 329.07 -0.440543 -2.24926 0
M  V30 3310 C 330.083 0.446131 -1.56568 0
M  V30 3311 O 331.272 0.253657 -1.76689 0
M  V30 3312 C 328.372 0.38412 -3.36716 0
M  V30 3313 C 327.545 -0.490658 -4.34639 0
M  V30 3314 C 326.604 0.276587 -5.25473 0
M  V30 3315 O 325.63 -0.326614 -5.68262 0
M  V30 3316 N 326.832 1.56844 -5.5891 0
M  V30 3317 H 329.597 -1.29931 -2.70071 0
M  V30 3318 H 327.158 -0.830181 -1.38995 0
M  V30 3319 H 329.15 0.905228 -3.94446 0
M  V30 3320 H 327.72 1.14377 -2.90924 0
M  V30 3321 H 326.94 -1.19282 -3.7572 0
M  V30 3322 H 328.228 -1.08756 -4.97041 0
M  V30 3323 H 327.626 2.08036 -5.26059 0
M  V30 3324 H 326.183 2.03541 -6.19205 0
M  V30 3325 N 329.616 1.39756 -0.72842 0
M  V30 3326 C 330.856 2.025 -0.278078 0
M  V30 3327 C 331.22 1.5654 1.11173 0
M  V30 3328 O 332.421 2.11435 1.65978 0
M  V30 3329 C 330.692 3.55489 -0.369139 0
M  V30 3330 S 332.251 4.388 0.00232983 0
M  V30 3331 H 329.069 0.702534 -0.109391 0
M  V30 3332 H 331.671 1.70672 -0.95348 0
M  V30 3333 H 330.375 3.86429 -1.38204 0
M  V30 3334 H 329.906 3.92061 0.324308 0
M  V30 3335 H 331.921 4.80954 1.22055 0
M  V30 3336 N 331.094 0.475555 1.50254 0
M  V30 3337 C 332.026 -0.352649 2.26471 0
M  V30 3338 C 333.039 -0.953165 1.3198 0
M  V30 3339 O 334.228 -0.840815 1.57457 0
M  V30 3340 C 331.328 -1.50902 3.0345 0
M  V30 3341 C 330.501 -1.02047 4.25329 0
M  V30 3342 C 329.56 -2.05142 4.84565 0
M  V30 3343 O 328.586 -1.63023 5.45355 0
M  V30 3344 N 329.788 -3.37987 4.71959 0
M  V30 3345 H 332.553 0.300767 2.98187 0
M  V30 3346 H 330.114 0.306598 1.5897 0
M  V30 3347 H 332.106 -2.19572 3.39956 0
M  V30 3348 H 330.676 -2.06705 2.34504 0
M  V30 3349 H 329.896 -0.159507 3.93877 0
M  V30 3350 H 331.184 -0.672061 5.04342 0
M  V30 3351 H 330.582 -3.74913 4.23623 0
M  V30 3352 H 329.139 -4.02443 5.12721 0
M  V30 3353 N 332.573 -1.56217 0.208337 0
M  V30 3354 C 333.503 -2.22694 -0.702116 0
M  V30 3355 C 334.484 -1.19432 -1.2112 0
M  V30 3356 O 335.669 -1.47978 -1.25762 0
M  V30 3357 C 332.799 -2.8966 -1.9161 0
M  V30 3358 C 331.753 -3.9928 -1.5414 0
M  V30 3359 C 331.079 -4.53476 -2.83308 0
M  V30 3360 C 332.379 -5.17012 -0.741339 0
M  V30 3361 H 334.073 -2.99034 -0.147898 0
M  V30 3362 H 331.619 -1.43831 -0.0696951 0
M  V30 3363 H 333.572 -3.34852 -2.55836 0
M  V30 3364 H 332.296 -2.10746 -2.49507 0
M  V30 3365 H 330.955 -3.54799 -0.922668 0
M  V30 3366 H 330.603 -3.71308 -3.39322 0
M  V30 3367 H 330.303 -5.27451 -2.58976 0
M  V30 3368 H 331.827 -5.01378 -3.485 0
M  V30 3369 H 333.241 -5.58667 -1.28699 0
M  V30 3370 H 331.638 -5.97137 -0.595627 0
M  V30 3371 H 332.708 -4.8423 0.254851 0
M  V30 3372 N 334.051 0.0651679 -1.57465 0
M  V30 3373 C 334.981 1.07693 -2.07182 0
M  V30 3374 C 335.962 1.39962 -0.966673 0
M  V30 3375 O 337.147 1.49475 -1.2398 0
M  V30 3376 C 334.277 2.3885 -2.52127 0
M  V30 3377 C 333.231 2.20917 -3.66579 0
M  V30 3378 C 332.557 3.57515 -3.97601 0
M  V30 3379 C 333.857 1.62493 -4.9638 0
M  V30 3380 H 335.551 0.663199 -2.91962 0
M  V30 3381 H 333.097 0.317569 -1.40455 0
M  V30 3382 H 335.05 3.09928 -2.85522 0
M  V30 3383 H 333.774 2.82215 -1.64384 0
M  V30 3384 H 332.433 1.52279 -3.33477 0
M  V30 3385 H 332.081 3.98463 -3.06979 0
M  V30 3386 H 331.781 3.46353 -4.74672 0
M  V30 3387 H 333.305 4.30013 -4.33499 0
M  V30 3388 H 334.719 2.23445 -5.27963 0
M  V30 3389 H 333.116 1.62009 -5.77818 0
M  V30 3390 H 334.186 0.587041 -4.81333 0
M  V30 3391 N 335.529 1.53961 0.336706 0
M  V30 3392 C 336.476 1.82428 1.41381 0
M  V30 3393 C 337.446 0.670444 1.51968 0
M  V30 3394 O 338.631 0.915565 1.67398 0
M  V30 3395 C 335.771 2.04564 2.77934 0
M  V30 3396 C 334.884 3.32267 2.76084 0
M  V30 3397 C 334.019 3.44434 4.04399 0
M  V30 3398 C 333.058 4.66061 3.96804 0
M  V30 3399 N 332.195 4.75224 5.16823 0
M  V30 3400 H 337.035 2.74324 1.16405 0
M  V30 3401 H 334.572 1.35869 0.563752 0
M  V30 3402 H 336.53 2.15388 3.57301 0
M  V30 3403 H 335.16 1.15974 3.01247 0
M  V30 3404 H 334.212 3.3025 1.88784 0
M  V30 3405 H 335.524 4.21733 2.66351 0
M  V30 3406 H 334.678 3.54728 4.92192 0
M  V30 3407 H 333.417 2.53037 4.16921 0
M  V30 3408 H 332.422 4.55838 3.07396 0
M  V30 3409 H 333.647 5.58829 3.85858 0
M  V30 3410 H 331.593 3.86739 5.29876 0
M  V30 3411 H 331.51 5.58636 5.09374 0
M  V30 3412 H 332.778 4.89835 6.06367 0
M  V30 3413 N 337.007 -0.598083 1.45811 0
M  V30 3414 C 338.232 -1.3881 1.54099 0
M  V30 3415 C 338.657 -1.8726 0.177578 0
M  V30 3416 O 338.015 -1.6069 -0.839541 0
M  V30 3417 C 338.063 -2.56217 2.53743 0
M  V30 3418 O 337.167 -3.5716 2.06182 0
M  V30 3419 H 336.508 -0.414024 0.519115 0
M  V30 3420 H 339.038 -0.726971 1.91249 0
M  V30 3421 H 339.048 -3.03337 2.72856 0
M  V30 3422 H 337.723 -2.20303 3.5276 0
M  V30 3423 H 336.3 -3.16624 1.96987 0
M  V30 3424 N 338.485 -1.33259 -0.841409 0
M  V30 3425 C 339.713 -1.27605 -1.62864 0
M  V30 3426 C 340.128 0.153507 -1.88175 0
M  V30 3427 O 339.485 1.09485 -1.46011 0
M  V30 3428 C 339.536 -2.04596 -2.98031 0
M  V30 3429 O 339.257 -3.41975 -2.73834 0
M  V30 3430 C 340.758 -2.06122 -3.92465 0
M  V30 3431 H 337.978 -0.439718 -0.506842 0
M  V30 3432 H 340.522 -1.75591 -1.04824 0
M  V30 3433 H 338.677 -1.60299 -3.5268 0
M  V30 3434 H 339.091 -3.81549 -3.59889 0
M  V30 3435 H 340.565 -2.64451 -4.84531 0
M  V30 3436 H 341.042 -1.05083 -4.26444 0
M  V30 3437 H 341.648 -2.50427 -3.43753 0
M  V30 3438 N 339.963 1.05934 -1.16686 0
M  V30 3439 C 341.188 1.83029 -0.975455 0
M  V30 3440 C 341.613 1.82096 0.471452 0
M  V30 3441 O 340.971 1.22443 1.33706 0
M  V30 3442 C 341.019 3.27372 -1.51195 0
M  V30 3443 O 340.123 4.06054 -0.720701 0
M  V30 3444 H 339.464 0.566194 -0.346872 0
M  V30 3445 H 341.994 1.33541 -1.55009 0
M  V30 3446 H 342.004 3.78186 -1.53099 0
M  V30 3447 H 340.679 3.27366 -2.56523 0
M  V30 3448 H 339.256 3.64812 -0.772458 0
M  V30 3449 N 341.441 0.965919 1.2453 0
M  V30 3450 C 342.687 0.62776 1.92839 0
M  V30 3451 C 343.02 -0.834694 1.75347 0
M  V30 3452 O 342.295 -1.60031 1.10546 0
M  V30 3453 C 342.578 1.00109 3.45905 0
M  V30 3454 C 342.431 2.52011 3.72573 0
M  V30 3455 C 343.75 0.53435 4.36844 0
M  V30 3456 H 340.869 0.229537 0.700344 0
M  V30 3457 H 343.511 1.2046 1.46933 0
M  V30 3458 H 341.661 0.510238 3.85135 0
M  V30 3459 H 343.333 3.08559 3.42912 0
M  V30 3460 H 341.576 2.95287 3.17786 0
M  V30 3461 H 342.247 2.73183 4.79661 0
M  V30 3462 H 344.723 0.955565 4.04979 0
M  V30 3463 H 343.599 0.824152 5.42678 0
M  V30 3464 H 343.86 -0.565589 4.38467 0
M  V30 3465 N 342.919 -1.39368 0.735821 0
M  V30 3466 C 344.166 -2.00497 0.284123 0
M  V30 3467 C 344.494 -1.58387 -1.12889 0
M  V30 3468 O 343.749 -0.804359 -1.78406 0
M  V30 3469 C 344.048 -3.5583 0.334651 0
M  V30 3470 C 343.714 -4.17593 1.7008 0
M  V30 3471 C 342.376 -4.34176 2.07472 0
M  V30 3472 C 344.728 -4.51848 2.59775 0
M  V30 3473 C 342.056 -4.82304 3.34065 0
M  V30 3474 C 344.408 -5.01384 3.85741 0
M  V30 3475 C 343.072 -5.16175 4.23225 0
M  V30 3476 H 342.342 -0.73367 0.103968 0
M  V30 3477 H 344.989 -1.66683 0.942825 0
M  V30 3478 H 343.294 -3.89674 -0.407625 0
M  V30 3479 H 344.991 -4.00986 -0.0329927 0
M  V30 3480 H 341.581 -4.05087 1.40008 0
M  V30 3481 H 345.765 -4.38653 2.32157 0
M  V30 3482 H 341.021 -4.91941 3.63049 0
M  V30 3483 H 345.195 -5.26863 4.55399 0
M  V30 3484 H 342.822 -5.5323 5.21384 0
M  V30 3485 N 344.397 -0.483516 -1.5 0
M  V30 3486 C 345.36 0.292965 -2.2732 0
M  V30 3487 C 346.36 0.909499 -1.32608 0
M  V30 3488 O 347.55 0.776745 -1.55924 0
M  V30 3489 C 344.682 1.41854 -3.09984 0
M  V30 3490 H 345.875 -0.385289 -2.97415 0
M  V30 3491 H 343.428 -0.237942 -1.54478 0
M  V30 3492 H 344.163 2.13148 -2.44414 0
M  V30 3493 H 343.948 0.982114 -3.79601 0
M  V30 3494 H 345.438 1.96597 -3.68429 0
M  V30 3495 N 345.875 1.56104 -0.216619 0
M  V30 3496 C 347.291 1.58995 0.13886 0
M  V30 3497 C 347.491 1.23333 1.59346 0
M  V30 3498 O 346.547 0.966234 2.33281 0
M  V30 3499 C 347.86 3.00143 -0.182968 0
M  V30 3500 C 349.408 3.12751 -0.124807 0
M  V30 3501 C 349.883 4.56068 -0.420241 0
M  V30 3502 N 351.374 4.61723 -0.369634 0
M  V30 3503 C 352.109 5.70542 -0.571789 0
M  V30 3504 N 351.605 6.87744 -0.835453 0
M  V30 3505 N 353.398 5.59831 -0.504563 0
M  V30 3506 H 345.549 1.77562 -1.16557 0
M  V30 3507 H 347.812 0.825091 -0.466828 0
M  V30 3508 H 347.518 3.30871 -1.19237 0
M  V30 3509 H 347.392 3.73813 0.504367 0
M  V30 3510 H 349.779 2.81822 0.875223 0
M  V30 3511 H 349.86 2.41421 -0.845544 0
M  V30 3512 H 349.504 4.87713 -1.41769 0
M  V30 3513 H 349.434 5.25617 0.321631 0
M  V30 3514 H 351.925 3.77502 -0.173338 0
M  V30 3515 H 352.238 7.66587 -0.977938 0
M  V30 3516 H 350.583 6.895 -0.872592 0
M  V30 3517 H 353.774 4.67145 -0.298842 0
M  V30 3518 H 353.947 6.44573 -0.665519 0
M  V30 3519 N 347.353 -0.0568162 1.57498 0
M  V30 3520 C 348.593 -0.758273 1.89815 0
M  V30 3521 C 348.957 -1.73978 0.812132 0
M  V30 3522 O 350.158 -2.48744 1.01881 0
M  V30 3523 C 348.429 -1.43465 3.27342 0
M  V30 3524 S 349.988 -2.1691 3.81439 0
M  V30 3525 H 346.806 -0.251836 0.664906 0
M  V30 3526 H 349.408 -0.0137997 1.95495 0
M  V30 3527 H 348.112 -0.706693 4.0427 0
M  V30 3528 H 347.643 -2.21825 3.24896 0
M  V30 3529 H 349.658 -3.43658 3.5793 0
M  V30 3530 N 348.832 -1.54138 -0.328536 0
M  V30 3531 C 349.782 -1.79557 -1.4051 0
M  V30 3532 C 350.766 -0.651373 -1.47126 0
M  V30 3533 O 351.958 -0.911226 -1.51742 0
M  V30 3534 C 349.087 -2.02196 -2.77438 0
M  V30 3535 C 348.173 -3.22724 -2.75155 0
M  V30 3536 N 348.564 -4.43881 -2.42494 0
M  V30 3537 C 346.862 -3.24196 -3.06289 0
M  V30 3538 C 347.563 -5.25797 -2.48822 0
M  V30 3539 N 346.539 -4.62862 -2.8506 0
M  V30 3540 H 350.341 -2.70814 -1.1418 0
M  V30 3541 H 347.855 -1.53265 -0.536991 0
M  V30 3542 H 349.852 -2.18546 -3.55026 0
M  V30 3543 H 348.512 -1.12191 -3.04702 0
M  V30 3544 H 349.523 -4.70969 -2.15428 0
M  V30 3545 H 346.2 -2.44208 -3.38627 0
M  V30 3546 H 347.59 -6.32535 -2.26603 0
M  V30 3547 N 350.31 0.590341 -1.46126 0
M  V30 3548 C 351.721 1.17243 -1.45296 0
M  V30 3549 C 352.072 1.95281 -0.189723 0
M  V30 3550 O 351.197 2.04502 0.707674 0
M  V30 3551 C 351.792 2.13284 -2.6324 0
M  V30 3552 C 350.351 2.66832 -2.65476 0
M  V30 3553 C 349.498 1.42557 -2.3785 0
M  V30 3554 H 352.449 0.378692 -1.54116 0
M  V30 3555 H 352.47 2.96619 -2.38323 0
M  V30 3556 H 351.982 1.56459 -3.55165 0
M  V30 3557 H 350.083 3.27548 -1.77603 0
M  V30 3558 H 350.196 3.10088 -3.65215 0
M  V30 3559 H 348.56 1.72107 -1.87753 0
M  V30 3560 H 349.343 0.875741 -3.31942 0
M  V30 3561 N 351.788 1.33704 0.83433 0
M  V30 3562 C 352.718 1.26967 1.95963 0
M  V30 3563 C 353.699 0.149337 1.69443 0
M  V30 3564 O 354.884 0.339852 1.91203 0
M  V30 3565 C 352.014 1.01275 3.32206 0
M  V30 3566 C 350.968 2.09652 3.73136 0
M  V30 3567 C 350.294 1.69166 5.07235 0
M  V30 3568 C 351.594 3.51372 3.86439 0
M  V30 3569 H 353.288 2.2112 2.01857 0
M  V30 3570 H 350.834 1.06447 0.969793 0
M  V30 3571 H 352.787 0.952106 4.10503 0
M  V30 3572 H 351.511 0.0356203 3.26581 0
M  V30 3573 H 350.17 2.14766 2.97104 0
M  V30 3574 H 349.818 0.701437 4.98085 0
M  V30 3575 H 349.518 2.41694 5.35591 0
M  V30 3576 H 351.042 1.64576 5.88003 0
M  V30 3577 H 352.456 3.48734 4.55036 0
M  V30 3578 H 350.853 4.22425 4.26236 0
M  V30 3579 H 351.923 3.89546 2.88759 0
M  V30 3580 N 353.266 -1.05314 1.17247 0
M  V30 3581 C 354.512 -1.78557 0.961513 0
M  V30 3582 C 354.845 -1.87419 -0.508697 0
M  V30 3583 O 354.12 -1.37307 -1.37757 0
M  V30 3584 C 354.403 -3.22514 1.60176 0
M  V30 3585 C 354.256 -3.21673 3.14399 0
M  V30 3586 C 355.575 -4.20318 1.30463 0
M  V30 3587 H 352.694 -0.6482 0.350723 0
M  V30 3588 H 355.336 -1.23102 1.44727 0
M  V30 3589 H 353.486 -3.69867 1.18871 0
M  V30 3590 H 355.158 -2.82405 3.64753 0
M  V30 3591 H 353.401 -2.60048 3.47214 0
M  V30 3592 H 354.072 -4.23271 3.54324 0
M  V30 3593 H 356.548 -3.81454 1.66229 0
M  V30 3594 H 355.424 -5.19289 1.77848 0
M  V30 3595 H 355.685 -4.41526 0.22521 0
M  V30 3596 N 354.744 -0.972509 -1.24016 0
M  V30 3597 C 356.021 -0.553733 -1.87598 0
M  V30 3598 C 356.401 0.969158 -1.87538 0
M  V30 3599 O 355.749 1.84255 -1.35139 0
M  V30 3600 C 355.959 -1.15076 -3.29482 0
M  V30 3601 C 357.307 -1.23862 -4.06132 0
M  V30 3602 O 358.331 -1.10363 -3.38672 0
M  V30 3603 O 357.19 -1.45252 -5.26844 0
M  V30 3604 H 354.284 -0.185331 -0.805966 0
M  V30 3605 H 356.83 -1.06709 -1.31952 0
M  V30 3606 H 355.602 -2.19333 -3.2405 0
M  V30 3607 H 355.225 -0.621746 -3.92709 0
M  V30 3608 N 356.222 1.38976 -0.743202 0
M  V30 3609 C 357.633 1.83123 -0.363732 0
M  V30 3610 C 357.984 1.6205 1.10609 0
M  V30 3611 O 357.109 1.11606 1.854 0
M  V30 3612 C 357.704 3.32439 -0.653408 0
M  V30 3613 C 356.263 3.74974 -0.327338 0
M  V30 3614 C 355.41 2.61878 -0.911875 0
M  V30 3615 H 358.361 1.27852 -0.940191 0
M  V30 3616 H 358.382 3.80432 0.0720031 0
M  V30 3617 H 357.894 3.47745 -1.72323 0
M  V30 3618 H 355.995 3.65252 0.736314 0
M  V30 3619 H 356.108 4.72106 -0.815631 0
M  V30 3620 H 354.472 2.52448 -0.337944 0
M  V30 3621 H 355.255 2.79987 -1.98651 0
M  V30 3622 N 357.7 0.491464 1.49741 0
M  V30 3623 C 358.61 -0.296835 2.32715 0
M  V30 3624 C 359.626 -0.976536 1.44013 0
M  V30 3625 O 360.802 -0.960023 1.77047 0
M  V30 3626 C 357.867 -1.35288 3.19215 0
M  V30 3627 C 356.928 -0.687632 4.23757 0
M  V30 3628 C 356.161 -1.69336 5.06123 0
M  V30 3629 O 356.384 -2.92219 4.89861 0
M  V30 3630 O 355.318 -1.25394 5.88693 0
M  V30 3631 H 359.144 0.382048 3.01287 0
M  V30 3632 H 356.729 0.252953 1.47243 0
M  V30 3633 H 358.611 -1.96411 3.72828 0
M  V30 3634 H 357.286 -2.01487 2.53347 0
M  V30 3635 H 356.193 -0.0369159 3.74082 0
M  V30 3636 H 357.526 -0.0682566 4.92153 0
M  V30 3637 N 359.178 -1.55987 0.224894 0
M  V30 3638 C 360.589 -1.84553 -0.282345 0
M  V30 3639 C 360.94 -1.14634 -1.59227 0
M  V30 3640 O 360.065 -0.417155 -2.12341 0
M  V30 3641 C 360.66 -3.348 -0.519062 0
M  V30 3642 C 359.219 -3.63671 -0.970604 0
M  V30 3643 C 358.366 -2.77277 -0.0355261 0
M  V30 3644 H 361.317 -1.52245 0.448006 0
M  V30 3645 H 361.338 -3.55187 -1.36463 0
M  V30 3646 H 360.85 -3.8566 0.43449 0
M  V30 3647 H 358.951 -3.1827 -1.9374 0
M  V30 3648 H 359.064 -4.71631 -0.842698 0
M  V30 3649 H 357.428 -2.48846 -0.542927 0
M  V30 3650 H 358.211 -3.30937 0.913003 0
M  V30 3651 N 360.656 0.0484629 -1.57525 0
M  V30 3652 C 361.903 0.743125 -1.88372 0
M  V30 3653 C 362.231 1.76383 -0.819715 0
M  V30 3654 O 361.486 1.94855 0.181659 0
M  V30 3655 C 361.785 1.46632 -3.25935 0
M  V30 3656 C 361.451 0.583427 -4.4711 0
M  V30 3657 C 360.113 0.340191 -4.79996 0
M  V30 3658 C 362.465 -0.0273345 -5.21193 0
M  V30 3659 C 359.793 -0.522903 -5.84365 0
M  V30 3660 C 362.145 -0.878017 -6.26477 0
M  V30 3661 C 360.809 -1.1309 -6.5785 0
M  V30 3662 H 360.079 0.271929 -0.689301 0
M  V30 3663 H 362.726 0.00336166 -1.915 0
M  V30 3664 H 361.031 2.2789 -3.18706 0
M  V30 3665 H 362.728 2.00902 -3.47044 0
M  V30 3666 H 359.318 0.783151 -4.21384 0
M  V30 3667 H 363.502 0.147654 -4.9608 0
M  V30 3668 H 358.758 -0.727335 -6.07058 0
M  V30 3669 H 362.932 -1.35789 -6.83033 0
M  V30 3670 H 360.559 -1.80144 -7.38547 0
M  V30 3671 N 362.134 1.5431 0.320358 0
M  V30 3672 C 363.38 1.72924 1.05949 0
M  V30 3673 C 363.713 0.503185 1.87568 0
M  V30 3674 O 362.988 -0.499839 1.87968 0
M  V30 3675 C 363.271 3.00676 1.98156 0
M  V30 3676 C 363.124 4.3354 1.19845 0
M  V30 3677 C 364.443 3.24198 2.9763 0
M  V30 3678 H 361.562 0.629195 0.383774 0
M  V30 3679 H 364.204 1.87008 0.335854 0
M  V30 3680 H 362.354 2.888 2.59859 0
M  V30 3681 H 364.026 4.57305 0.605773 0
M  V30 3682 H 362.269 4.309 0.500784 0
M  V30 3683 H 362.94 5.19156 1.87567 0
M  V30 3684 H 365.416 3.35557 2.4605 0
M  V30 3685 H 364.292 4.14938 3.59329 0
M  V30 3686 H 364.553 2.41577 3.7026 0
M  V30 3687 N 363.613 -0.582584 1.46437 0
M  V30 3688 C 364.576 -1.67366 1.56592 0
M  V30 3689 C 365.576 -1.54575 0.443072 0
M  V30 3690 O 366.766 -1.59191 0.707381 0
M  V30 3691 C 363.898 -3.06791 1.48634 0
M  V30 3692 H 365.091 -1.5972 2.5383 0
M  V30 3693 H 362.644 -0.800432 1.34249 0
M  V30 3694 H 363.379 -3.19993 0.526763 0
M  V30 3695 H 363.164 -3.17484 2.30101 0
M  V30 3696 H 364.654 -3.86218 1.58826 0
M  V30 3697 N 365.091 -1.34144 -0.827227 0
M  V30 3698 C 366.021 -1.28005 -1.95287 0
M  V30 3699 C 367.002 -0.158321 -1.69362 0
M  V30 3700 O 368.187 -0.349987 -1.9102 0
M  V30 3701 C 365.317 -1.03036 -3.31664 0
M  V30 3702 C 364.271 -2.11628 -3.72019 0
M  V30 3703 C 363.597 -1.71854 -5.0633 0
M  V30 3704 C 364.897 -3.53417 -3.8457 0
M  V30 3705 H 366.591 -2.22187 -2.00682 0
M  V30 3706 H 364.137 -1.0696 -0.964135 0
M  V30 3707 H 366.09 -0.973863 -4.09993 0
M  V30 3708 H 364.814 -0.0529391 -3.26557 0
M  V30 3709 H 363.473 -2.16339 -2.95961 0
M  V30 3710 H 363.121 -0.727841 -4.97706 0
M  V30 3711 H 362.821 -2.44531 -5.34302 0
M  V30 3712 H 364.345 -1.67692 -5.87122 0
M  V30 3713 H 365.759 -3.51142 -4.5318 0
M  V30 3714 H 364.156 -4.24679 -4.2399 0
M  V30 3715 H 365.226 -3.91072 -2.86689 0
M  V30 3716 N 366.569 1.04691 -1.17803 0
M  V30 3717 C 367.809 1.79352 -0.980423 0
M  V30 3718 C 368.173 1.85853 0.481958 0
M  V30 3719 O 369.374 2.56656 0.798809 0
M  V30 3720 C 367.645 3.19088 -1.6099 0
M  V30 3721 S 369.204 4.10164 -1.55918 0
M  V30 3722 H 366.022 0.617631 -0.352211 0
M  V30 3723 H 368.624 1.25575 -1.49837 0
M  V30 3724 H 367.328 3.11962 -2.66661 0
M  V30 3725 H 366.859 3.77941 -1.09197 0
M  V30 3726 H 368.874 4.92907 -0.570685 0
M  V30 3727 N 368.047 0.979072 1.23499 0
M  V30 3728 C 368.957 0.526431 2.28617 0
M  V30 3729 C 369.973 -0.418126 1.68901 0
M  V30 3730 O 371.149 -0.288372 1.99325 0
M  V30 3731 C 368.214 -0.165235 3.46306 0
M  V30 3732 C 367.275 0.82056 4.21385 0
M  V30 3733 C 366.508 0.161807 5.33455 0
M  V30 3734 O 366.731 -1.04742 5.60701 0
M  V30 3735 O 365.665 0.859708 5.95729 0
M  V30 3736 H 369.491 1.4006 2.69475 0
M  V30 3737 H 367.076 0.746643 1.29405 0
M  V30 3738 H 368.958 -0.553287 4.17752 0
M  V30 3739 H 367.633 -1.01419 3.07402 0
M  V30 3740 H 366.54 1.25929 3.52268 0
M  V30 3741 H 367.873 1.63828 4.64135 0
M  V30 3742 N 369.525 -1.3858 0.750561 0
M  V30 3743 C 370.472 -2.30483 0.120835 0
M  V30 3744 C 371.442 -1.50022 -0.712923 0
M  V30 3745 O 372.627 -1.78662 -0.669676 0
M  V30 3746 C 369.767 -3.36431 -0.768666 0
M  V30 3747 C 368.88 -4.31927 0.0793922 0
M  V30 3748 C 368.015 -5.24944 -0.81283 0
M  V30 3749 C 367.054 -6.12088 0.0390447 0
M  V30 3750 N 366.191 -6.97412 -0.809969 0
M  V30 3751 H 371.031 -2.83761 0.91015 0
M  V30 3752 H 368.568 -1.39707 0.460463 0
M  V30 3753 H 370.526 -3.96462 -1.29898 0
M  V30 3754 H 369.156 -2.8457 -1.5238 0
M  V30 3755 H 368.208 -3.73382 0.727303 0
M  V30 3756 H 369.52 -4.93319 0.737401 0
M  V30 3757 H 368.674 -5.90078 -1.41042 0
M  V30 3758 H 367.413 -4.63911 -1.50458 0
M  V30 3759 H 366.418 -5.45952 0.649328 0
M  V30 3760 H 367.643 -6.75189 0.727809 0
M  V30 3761 H 365.589 -6.38931 -1.48672 0
M  V30 3762 H 365.506 -7.55712 -0.208789 0
M  V30 3763 H 366.774 -7.66959 -1.39263 0
M  V30 3764 N 371.003 -0.499398 -1.49478 0
M  V30 3765 C 372.231 0.0425456 -2.06856 0
M  V30 3766 C 372.646 1.30964 -1.35992 0
M  V30 3767 O 372.003 1.77172 -0.437762 0
M  V30 3768 C 372.054 0.301735 -3.60239 0
M  V30 3769 O 371.775 -0.915127 -4.28436 0
M  V30 3770 C 373.276 0.887499 -4.34325 0
M  V30 3771 H 370.496 -0.0197482 -0.670709 0
M  V30 3772 H 373.04 -0.696297 -1.92281 0
M  V30 3773 H 371.195 0.990556 -3.74522 0
M  V30 3774 H 371.609 -0.676993 -5.20113 0
M  V30 3775 H 373.083 1.01845 -5.42523 0
M  V30 3776 H 373.56 1.88488 -3.96698 0
M  V30 3777 H 374.166 0.236196 -4.24644 0
M  V30 3778 N 372.481 1.55866 -0.233164 0
M  V30 3779 C 373.411 2.23783 0.666599 0
M  V30 3780 C 374.392 1.21343 1.19205 0
M  V30 3781 O 375.577 1.4996 1.23392 0
M  V30 3782 C 372.707 2.92671 1.86978 0
M  V30 3783 C 371.661 4.01682 1.47768 0
M  V30 3784 C 370.987 4.57926 2.76058 0
M  V30 3785 C 372.287 5.18126 0.658993 0
M  V30 3786 H 373.981 2.99232 0.100306 0
M  V30 3787 H 371.527 1.43924 0.046804 0
M  V30 3788 H 373.48 3.3888 2.50476 0
M  V30 3789 H 372.204 2.14688 2.46123 0
M  V30 3790 H 370.863 3.56222 0.866106 0
M  V30 3791 H 370.511 3.76659 3.33372 0
M  V30 3792 H 370.211 5.31505 2.50552 0
M  V30 3793 H 371.735 5.06859 3.40479 0
M  V30 3794 H 373.149 5.60644 1.19795 0
M  V30 3795 H 371.546 5.98009 0.500552 0
M  V30 3796 H 372.616 4.83763 -0.331856 0
M  V30 3797 N 373.959 -0.0401083 1.57549 0
M  V30 3798 C 375.199 -0.738098 1.90608 0
M  V30 3799 C 375.563 -1.73107 0.830539 0
M  V30 3800 O 376.764 -2.4765 1.04513 0
M  V30 3801 C 375.035 -1.39985 3.28845 0
M  V30 3802 S 376.594 -2.12852 3.83718 0
M  V30 3803 H 373.412 -0.24477 0.667539 0
M  V30 3804 H 376.014 0.00693599 1.95499 0
M  V30 3805 H 374.718 -0.663775 4.04997 0
M  V30 3806 H 374.249 -2.18366 3.2723 0
M  V30 3807 H 376.264 -3.39842 3.61555 0
M  V30 3808 N 375.437 -1.54477 -0.31217 0
M  V30 3809 C 376.347 -1.87695 -1.4074 0
M  V30 3810 C 377.363 -0.769975 -1.56036 0
M  V30 3811 O 378.539 -1.06537 -1.70915 0
M  V30 3812 C 375.604 -2.10755 -2.75287 0
M  V30 3813 C 374.665 -3.34514 -2.69071 0
M  V30 3814 C 373.898 -3.56465 -3.97201 0
M  V30 3815 O 374.121 -2.81637 -4.96021 0
M  V30 3816 O 373.055 -4.49964 -3.9977 0
M  V30 3817 H 376.881 -2.80849 -1.15574 0
M  V30 3818 H 374.466 -1.40526 -0.507228 0
M  V30 3819 H 376.348 -2.27188 -3.54913 0
M  V30 3820 H 375.023 -1.20788 -3.0032 0
M  V30 3821 H 373.93 -3.23456 -1.87955 0
M  V30 3822 H 375.263 -4.24575 -2.48992 0
M  V30 3823 N 376.915 0.57481 -1.46744 0
M  V30 3824 C 378.155 1.34369 -1.54027 0
M  V30 3825 C 378.519 1.91051 -0.190642 0
M  V30 3826 O 379.72 2.68444 -0.138255 0
M  V30 3827 C 377.991 2.43706 -2.61423 0
M  V30 3828 S 379.55 3.30915 -2.88167 0
M  V30 3829 H 376.368 0.45768 -0.544105 0
M  V30 3830 H 378.97 0.659959 -1.84024 0
M  V30 3831 H 377.674 2.0047 -3.58106 0
M  V30 3832 H 377.205 3.16842 -2.33184 0
M  V30 3833 H 379.22 4.42742 -2.24039 0
M  V30 3834 N 378.394 1.34581 0.820102 0
M  V30 3835 C 379.357 1.2628 1.91275 0
M  V30 3836 C 380.357 0.177344 1.59819 0
M  V30 3837 O 381.547 0.430156 1.68806 0
M  V30 3838 C 378.679 0.950327 3.27386 0
M  V30 3839 H 379.872 2.23421 2.00057 0
M  V30 3840 H 377.425 1.1891 1.0144 0
M  V30 3841 H 378.16 -0.0177938 3.24295 0
M  V30 3842 H 377.945 1.73549 3.51601 0
M  V30 3843 H 379.435 0.917492 4.07396 0
M  V30 3844 N 379.872 -1.04064 1.18357 0
M  V30 3845 C 381.12 -1.76915 0.977013 0
M  V30 3846 C 381.441 -1.88624 -0.494577 0
M  V30 3847 O 380.711 -1.41125 -1.3587 0
M  V30 3848 H 379.291 -0.65535 0.358504 0
M  V30 3849 H 381.953 -1.25592 1.49039 0
M  V30 3850 H 381.049 -2.78178 1.41504 0
M  V30 3851 N 381.35 -0.985608 -1.22978 0
M  V30 3852 C 382.598 -0.656087 -1.91154 0
M  V30 3853 C 382.919 0.813561 -1.77218 0
M  V30 3854 O 382.189 1.58244 -1.1548 0
M  V30 3855 H 380.769 -0.239674 -0.707506 0
M  V30 3856 H 383.431 -1.25054 -1.49491 0
M  V30 3857 H 382.527 -0.912253 -2.9847 0
M  V30 3858 N 382.828 1.3818 -0.7579 0
M  V30 3859 C 383.758 2.33027 -0.148597 0
M  V30 3860 C 384.739 1.55085 0.69875 0
M  V30 3861 O 385.924 1.83384 0.639053 0
M  V30 3862 C 383.054 3.3928 0.742034 0
M  V30 3863 C 382.008 4.28 -0.00291946 0
M  V30 3864 C 381.334 5.25146 1.00625 0
M  V30 3865 C 382.634 5.08938 -1.17385 0
M  V30 3866 H 384.328 2.84231 -0.940909 0
M  V30 3867 H 381.874 1.36659 -0.453908 0
M  V30 3868 H 383.827 4.046 1.17799 0
M  V30 3869 H 382.551 2.86569 1.56671 0
M  V30 3870 H 381.21 3.64192 -0.419504 0
M  V30 3871 H 380.858 4.68721 1.8251 0
M  V30 3872 H 380.558 5.85361 0.512428 0
M  V30 3873 H 382.082 5.93342 1.44143 0
M  V30 3874 H 383.496 5.67474 -0.815224 0
M  V30 3875 H 381.893 5.7841 -1.59882 0
M  V30 3876 H 382.963 4.42424 -1.98468 0
M  V30 3877 N 384.306 0.507319 1.49211 0
M  V30 3878 C 385.216 -0.272136 2.33016 0
M  V30 3879 C 386.232 -0.961206 1.45041 0
M  V30 3880 O 387.408 -0.941191 1.78055 0
M  V30 3881 C 384.473 -1.31895 3.20631 0
M  V30 3882 C 383.534 -0.642648 4.24463 0
M  V30 3883 C 382.767 -1.63959 5.07891 0
M  V30 3884 O 382.99 -2.87007 4.92933 0
M  V30 3885 O 381.924 -1.19143 5.8999 0
M  V30 3886 H 385.75 0.413982 3.00865 0
M  V30 3887 H 383.335 0.268556 1.46966 0
M  V30 3888 H 385.217 -1.92446 3.7489 0
M  V30 3889 H 383.892 -1.98788 2.5547 0
M  V30 3890 H 382.799 0.00276252 3.741 0
M  V30 3891 H 384.132 -0.0160534 4.92197 0
M  V30 3892 N 385.784 -1.5574 0.241426 0
M  V30 3893 C 387.024 -2.00714 -0.38644 0
M  V30 3894 C 387.388 -1.12586 -1.55526 0
M  V30 3895 O 388.589 -1.46992 -2.25048 0
M  V30 3896 C 386.86 -3.48534 -0.791128 0
M  V30 3897 S 388.419 -4.15519 -1.41029 0
M  V30 3898 H 385.237 -0.700484 -0.121834 0
M  V30 3899 H 387.839 -1.92243 0.355377 0
M  V30 3900 H 386.543 -4.10342 0.0689225 0
M  V30 3901 H 386.074 -3.6092 -1.56526 0
M  V30 3902 H 388.089 -4.16352 -2.69936 0
M  V30 3903 N 387.262 0.0317525 -1.57568 0
M  V30 3904 C 388.225 1.01783 -2.0536 0
M  V30 3905 C 389.225 1.29203 -0.957253 0
M  V30 3906 O 390.415 1.24251 -1.22095 0
M  V30 3907 C 387.547 2.35137 -2.46827 0
M  V30 3908 H 388.74 0.605062 -2.93733 0
M  V30 3909 H 386.293 0.278514 -1.53799 0
M  V30 3910 H 387.028 2.81168 -1.61602 0
M  V30 3911 H 386.813 2.16566 -3.26866 0
M  V30 3912 H 388.303 3.05938 -2.84239 0
M  V30 3913 N 388.74 1.54641 0.303973 0
M  V30 3914 C 389.98 1.75516 1.04755 0
M  V30 3915 C 390.344 0.528211 1.84591 0
M  V30 3916 O 391.545 0.614645 2.61678 0
M  V30 3917 C 389.816 3.00685 1.93193 0
M  V30 3918 S 391.375 3.42549 2.74237 0
M  V30 3919 H 388.193 0.616987 0.353339 0
M  V30 3920 H 390.795 1.92842 0.321292 0
M  V30 3921 H 389.499 3.8811 1.33411 0
M  V30 3922 H 389.03 2.85937 2.70191 0
M  V30 3923 H 391.045 2.99386 3.95705 0
M  V30 3924 N 390.218 -0.567019 1.47046 0
M  V30 3925 C 391.629 -1.14916 1.47143 0
M  V30 3926 C 391.98 -1.94954 0.220767 0
M  V30 3927 O 391.105 -2.05602 -0.67505 0
M  V30 3928 C 391.7 -2.09069 2.666 0
M  V30 3929 C 390.259 -2.62575 2.69687 0
M  V30 3930 C 389.406 -1.38755 2.40088 0
M  V30 3931 H 392.357 -0.354126 1.54699 0
M  V30 3932 H 392.378 -2.92789 2.43011 0
M  V30 3933 H 391.89 -1.50789 3.57609 0
M  V30 3934 H 389.991 -3.24681 1.82792 0
M  V30 3935 H 390.104 -3.04239 3.70102 0
M  V30 3936 H 388.468 -1.69098 1.90468 0
M  V30 3937 H 389.251 -0.822822 3.33293 0
M  V30 3938 N 391.696 -1.35014 -0.812953 0
M  V30 3939 C 392.659 -1.27292 -1.90602 0
M  V30 3940 C 393.659 -0.185817 -1.59723 0
M  V30 3941 O 394.849 -0.439102 -1.68575 0
M  V30 3942 C 391.981 -0.967676 -3.26877 0
M  V30 3943 H 393.174 -2.24479 -1.9887 0
M  V30 3944 H 390.727 -1.19446 -1.00808 0
M  V30 3945 H 391.462 0.0005954 -3.243 0
M  V30 3946 H 391.247 -1.75412 -3.50675 0
M  V30 3947 H 392.737 -0.939085 -4.06904 0
M  V30 3948 N 393.175 1.03435 -1.18907 0
M  V30 3949 C 394.105 2.13503 -0.945448 0
M  V30 3950 C 395.086 1.69682 0.119189 0
M  V30 3951 O 396.271 1.94169 -0.034707 0
M  V30 3952 C 393.401 3.44004 -0.477316 0
M  V30 3953 C 392.355 4.0148 -1.48316 0
M  V30 3954 C 391.681 5.27537 -0.872311 0
M  V30 3955 C 392.981 4.36921 -2.86177 0
M  V30 3956 H 394.675 2.34141 -1.86597 0
M  V30 3957 H 392.221 1.12523 -0.898584 0
M  V30 3958 H 394.174 4.20372 -0.294204 0
M  V30 3959 H 392.898 3.23072 0.478786 0
M  V30 3960 H 391.557 3.27201 -1.65332 0
M  V30 3961 H 391.205 5.02917 0.0911752 0
M  V30 3962 H 390.905 5.66954 -1.54393 0
M  V30 3963 H 392.429 6.06576 -0.699871 0
M  V30 3964 H 393.843 5.04248 -2.72776 0
M  V30 3965 H 392.24 4.87405 -3.50081 0
M  V30 3966 H 393.31 3.46466 -3.39248 0
M  V30 3967 N 394.653 0.992116 1.22453 0
M  V30 3968 C 395.583 0.561677 2.26644 0
M  V30 3969 C 396.564 -0.411055 1.65059 0
M  V30 3970 O 397.749 -0.301861 1.9184 0
M  V30 3971 C 394.879 -0.125247 3.47074 0
M  V30 3972 C 393.833 0.765948 4.21091 0
M  V30 3973 C 393.159 -0.0538484 5.34673 0
M  V30 3974 C 394.459 2.06242 4.79856 0
M  V30 3975 H 396.153 1.43259 2.62902 0
M  V30 3976 H 393.699 0.690283 1.26377 0
M  V30 3977 H 395.652 -0.437764 4.1912 0
M  V30 3978 H 394.376 -1.03069 3.0991 0
M  V30 3979 H 393.035 1.0621 3.50878 0
M  V30 3980 H 392.683 -0.960188 4.9375 0
M  V30 3981 H 392.383 0.539415 5.85119 0
M  V30 3982 H 393.907 -0.360477 6.09535 0
M  V30 3983 H 395.321 1.8139 5.43848 0
M  V30 3984 H 393.718 2.60444 5.40638 0
M  V30 3985 H 394.788 2.74167 3.99951 0
M  V30 3986 N 396.131 -1.37776 0.765217 0
M  V30 3987 C 397.041 -2.34135 0.147666 0
M  V30 3988 C 398.057 -1.59854 -0.687215 0
M  V30 3989 O 399.233 -1.91983 -0.608659 0
M  V30 3990 C 396.298 -3.3901 -0.72617 0
M  V30 3991 C 395.359 -4.2912 0.124417 0
M  V30 3992 C 394.592 -5.28986 -0.707807 0
M  V30 3993 O 394.815 -5.36205 -1.94525 0
M  V30 3994 O 393.749 -6.01779 -0.12046 0
M  V30 3995 H 397.575 -2.88664 0.943758 0
M  V30 3996 H 395.16 -1.39824 0.526277 0
M  V30 3997 H 397.042 -4.03195 -1.22524 0
M  V30 3998 H 395.717 -2.86819 -1.50056 0
M  V30 3999 H 394.624 -3.68057 0.669696 0
M  V30 4000 H 395.957 -4.84598 0.861736 0
M  V30 4001 N 397.609 -0.515225 -1.4894 0
M  V30 4002 C 398.839 0.0205735 -2.0659 0
M  V30 4003 C 399.247 1.30064 -1.37405 0
M  V30 4004 O 398.59 1.78087 -0.450632 0
M  V30 4005 C 398.652 0.330124 -3.57981 0
M  V30 4006 C 398.316 -0.854295 -4.48944 0
M  V30 4007 C 399.313 -1.7487 -4.89609 0
M  V30 4008 C 396.998 -1.05712 -4.9105 0
M  V30 4009 C 398.992 -2.82996 -5.71132 0
M  V30 4010 C 396.679 -2.14154 -5.72347 0
M  V30 4011 C 397.677 -3.0263 -6.12294 0
M  V30 4012 O 397.365 -4.09198 -6.91962 0
M  V30 4013 H 397.097 -0.0236833 -0.675585 0
M  V30 4014 H 399.651 -0.715956 -1.92518 0
M  V30 4015 H 397.881 1.12044 -3.70112 0
M  V30 4016 H 399.57 0.806233 -3.97812 0
M  V30 4017 H 400.336 -1.60388 -4.57712 0
M  V30 4018 H 396.215 -0.377788 -4.59449 0
M  V30 4019 H 399.759 -3.52083 -6.02232 0
M  V30 4020 H 395.656 -2.28626 -6.03656 0
M  V30 4021 H 396.424 -4.06726 -7.10293 0
M  V30 4022 N 399.087 1.5561 -0.249682 0
M  V30 4023 C 400.05 2.20217 0.635394 0
M  V30 4024 C 401.05 1.17227 1.10066 0
M  V30 4025 O 402.24 1.42292 1.00492 0
M  V30 4026 C 399.372 2.84794 1.87363 0
M  V30 4027 H 400.565 2.99814 0.0716752 0
M  V30 4028 H 398.118 1.563 -0.000153234 0
M  V30 4029 H 398.853 2.09142 2.47851 0
M  V30 4030 H 398.638 3.60241 1.5482 0
M  V30 4031 H 400.128 3.3423 2.5036 0
M  V30 4032 N 400.565 -0.0233959 1.57583 0
M  V30 4033 C 401.981 -0.379134 1.55031 0
M  V30 4034 C 402.181 -1.76255 0.976548 0
M  V30 4035 O 401.237 -2.45266 0.600078 0
M  V30 4036 C 402.55 -0.275792 2.99433 0
M  V30 4037 C 404.098 -0.352458 3.11009 0
M  V30 4038 C 404.573 -0.278501 4.57152 0
M  V30 4039 N 406.064 -0.337123 4.61972 0
M  V30 4040 C 406.799 -0.302876 5.726 0
M  V30 4041 N 406.295 -0.220589 6.92449 0
M  V30 4042 N 408.088 -0.353023 5.6099 0
M  V30 4043 H 400.239 0.881869 1.93227 0
M  V30 4044 H 402.502 0.335867 0.886509 0
M  V30 4045 H 402.208 0.675108 3.4516 0
M  V30 4046 H 402.082 -1.06721 3.61788 0
M  V30 4047 H 404.469 -1.29379 2.65226 0
M  V30 4048 H 404.55 0.468409 2.51475 0
M  V30 4049 H 404.194 0.659189 5.03604 0
M  V30 4050 H 404.124 -1.11755 5.14605 0
M  V30 4051 H 406.615 -0.403002 3.75745 0
M  V30 4052 H 406.928 -0.199713 7.72542 0
M  V30 4053 H 405.273 -0.186555 6.9475 0
M  V30 4054 H 408.464 -0.415339 4.66254 0
M  V30 4055 H 408.637 -0.322866 6.47195 0
M  V30 4056 N 402.043 -1.548 -0.295768 0
M  V30 4057 C 403.271 -1.78327 -1.04914 0
M  V30 4058 C 403.686 -0.545316 -1.80753 0
M  V30 4059 O 403.043 0.485013 -1.75937 0
M  V30 4060 C 403.094 -2.99418 -2.02561 0
M  V30 4061 O 402.815 -4.18431 -1.29798 0
M  V30 4062 C 404.316 -3.35375 -2.89895 0
M  V30 4063 H 401.536 -0.594618 -0.310918 0
M  V30 4064 H 404.08 -2.01763 -0.333454 0
M  V30 4065 H 402.235 -2.78175 -2.69624 0
M  V30 4066 H 402.649 -4.86736 -1.95419 0
M  V30 4067 H 404.123 -4.23332 -3.54251 0
M  V30 4068 H 404.6 -2.53761 -3.58472 0
M  V30 4069 H 405.206 -3.58796 -2.28355 0
M  V30 4070 N 403.521 0.559213 -1.47345 0
M  V30 4071 C 404.761 1.32728 -1.55444 0
M  V30 4072 C 405.125 1.90838 -0.210895 0
M  V30 4073 O 406.326 2.68282 -0.166719 0
M  V30 4074 C 404.597 2.4092 -2.63993 0
M  V30 4075 S 406.156 3.2784 -2.91661 0
M  V30 4076 H 402.974 0.451883 -0.548929 0
M  V30 4077 H 405.576 0.640404 -1.84714 0
M  V30 4078 H 404.28 1.9666 -3.60212 0
M  V30 4079 H 403.811 3.14351 -2.36531 0
M  V30 4080 H 405.826 4.40341 -2.28722 0
M  V30 4081 N 404.999 1.35443 0.805782 0
M  V30 4082 C 405.962 1.28301 1.89925 0
M  V30 4083 C 406.962 0.194285 1.59622 0
M  V30 4084 O 408.152 0.448036 1.6834 0
M  V30 4085 C 405.284 0.984997 3.2636 0
M  V30 4086 H 406.477 2.2553 1.97677 0
M  V30 4087 H 404.03 1.19979 1.00173 0
M  V30 4088 H 404.765 0.016603 3.24296 0
M  V30 4089 H 404.55 1.77269 3.4974 0
M  V30 4090 H 406.04 0.960651 4.064 0
M  V30 4091 N 406.477 -1.02803 1.19454 0
M  V30 4092 C 407.409 -2.11181 0.890807 0
M  V30 4093 C 408.422 -1.6238 -0.116829 0
M  V30 4094 O 409.611 -1.78144 0.112694 0
M  V30 4095 C 406.711 -3.37461 0.311942 0
M  V30 4096 C 405.884 -4.15446 1.36834 0
M  V30 4097 C 404.943 -5.20039 0.802864 0
M  V30 4098 O 403.969 -5.49602 1.48077 0
M  V30 4099 N 405.171 -5.79165 -0.393417 0
M  V30 4100 H 407.936 -2.37827 1.82369 0
M  V30 4101 H 405.497 -1.19101 1.09666 0
M  V30 4102 H 407.489 -4.0462 -0.0802225 0
M  V30 4103 H 406.059 -3.08156 -0.52524 0
M  V30 4104 H 405.279 -3.43423 1.93531 0
M  V30 4105 H 406.567 -4.64335 2.08015 0
M  V30 4106 H 405.965 -5.57466 -0.961658 0
M  V30 4107 H 404.522 -6.47729 -0.727351 0
M  V30 4108 N 407.956 -0.998596 -1.21925 0
M  V30 4109 C 408.866 -0.562736 -2.27751 0
M  V30 4110 C 409.882 0.391203 -1.69545 0
M  V30 4111 O 411.058 0.256625 -1.99758 0
M  V30 4112 C 408.123 0.11012 -3.46525 0
M  V30 4113 C 407.184 -0.887495 -4.20026 0
M  V30 4114 C 406.417 -0.246654 -5.3313 0
M  V30 4115 O 406.64 0.958088 -5.62296 0
M  V30 4116 O 405.574 -0.954374 -5.94286 0
M  V30 4117 H 409.4 -1.44329 -2.67213 0
M  V30 4118 H 406.985 -0.767135 -1.28201 0
M  V30 4119 H 408.867 0.486756 -4.18579 0
M  V30 4120 H 407.542 0.965154 -3.08976 0
M  V30 4121 H 406.449 -1.31517 -3.5022 0
M  V30 4122 H 407.782 -1.71191 -4.6147 0
M  V30 4123 N 409.434 1.37368 -0.772513 0
M  V30 4124 C 410.682 1.99279 -0.336516 0
M  V30 4125 C 411.003 1.6163 1.09091 0
M  V30 4126 O 410.273 0.882109 1.74916 0
M  V30 4127 H 408.853 0.737063 -0.121435 0
M  V30 4128 H 411.515 1.67836 -0.990809 0
M  V30 4129 H 410.611 3.09332 -0.414763 0
M  V30 4130 N 410.912 0.523116 1.48665 0
M  V30 4131 C 411.845 -0.290518 2.26343 0
M  V30 4132 C 412.823 -0.950913 1.31895 0
M  V30 4133 O 414.007 -0.976662 1.61225 0
M  V30 4134 C 411.134 -1.41088 3.07915 0
M  V30 4135 C 410.18 -0.862597 4.17686 0
M  V30 4136 S 411.013 0.264135 5.34848 0
M  V30 4137 C 412.169 -0.858864 6.19979 0
M  V30 4138 H 412.402 0.368726 2.95005 0
M  V30 4139 H 409.935 0.30878 1.51281 0
M  V30 4140 H 411.893 -2.0527 3.55492 0
M  V30 4141 H 410.554 -2.04182 2.38681 0
M  V30 4142 H 409.747 -1.70287 4.74361 0
M  V30 4143 H 409.349 -0.297595 3.72814 0
M  V30 4144 H 411.641 -1.7591 6.54264 0
M  V30 4145 H 412.584 -0.330244 7.07329 0
M  V30 4146 H 412.992 -1.13617 5.52948 0
M  V30 4147 N 412.39 -1.55475 0.257931 0
M  V30 4148 C 413.636 -1.99502 -0.364266 0
M  V30 4149 C 413.969 -1.146 -1.56782 0
M  V30 4150 O 413.244 -0.211968 -1.93342 0
M  V30 4151 C 413.527 -3.51917 -0.763333 0
M  V30 4152 C 413.38 -4.4758 0.446371 0
M  V30 4153 C 414.699 -4.09742 -1.60623 0
M  V30 4154 H 411.818 -0.725277 -0.130929 0
M  V30 4155 H 414.46 -1.8653 0.361446 0
M  V30 4156 H 412.61 -3.63101 -1.38166 0
M  V30 4157 H 414.282 -4.48362 1.08487 0
M  V30 4158 H 412.525 -4.19947 1.08753 0
M  V30 4159 H 413.196 -5.51862 0.123645 0
M  V30 4160 H 415.672 -4.01727 -1.08418 0
M  V30 4161 H 414.548 -5.16631 -1.85429 0
M  V30 4162 H 414.809 -3.58889 -2.58169 0
M  V30 4163 N 413.868 0.0150385 -1.57593 0
M  V30 4164 C 414.798 1.01047 -2.10503 0
M  V30 4165 C 415.779 1.36816 -1.01071 0
M  V30 4166 O 416.964 1.45455 -1.28672 0
M  V30 4167 C 414.094 2.30708 -2.59598 0
M  V30 4168 C 413.048 2.09142 -3.73421 0
M  V30 4169 C 412.374 3.44685 -4.08774 0
M  V30 4170 C 413.674 1.46619 -5.01298 0
M  V30 4171 H 415.368 0.569978 -2.93925 0
M  V30 4172 H 412.914 0.272724 -1.41394 0
M  V30 4173 H 414.867 3.00687 -2.95238 0
M  V30 4174 H 413.591 2.76843 -1.73279 0
M  V30 4175 H 412.25 1.41592 -3.38153 0
M  V30 4176 H 411.898 3.88495 -3.195 0
M  V30 4177 H 411.598 3.31077 -4.8545 0
M  V30 4178 H 413.122 4.16004 -4.4696 0
M  V30 4179 H 414.536 2.06535 -5.34805 0
M  V30 4180 H 412.933 1.43544 -5.82679 0
M  V30 4181 H 414.003 0.433611 -4.82957 0
M  V30 4182 N 415.346 1.54954 0.287554 0
M  V30 4183 C 416.576 1.78622 1.03816 0
M  V30 4184 C 416.984 0.552451 1.80955 0
M  V30 4185 O 416.327 -0.487665 1.77109 0
M  V30 4186 C 416.389 2.94975 2.055 0
M  V30 4187 C 416.053 4.32565 1.47433 0
M  V30 4188 C 417.05 5.12096 0.897436 0
M  V30 4189 C 414.735 4.79195 1.50591 0
M  V30 4190 C 416.729 6.36383 0.359851 0
M  V30 4191 C 414.416 6.03441 0.964459 0
M  V30 4192 C 415.414 6.81872 0.392413 0
M  V30 4193 O 415.102 8.03777 -0.140788 0
M  V30 4194 H 414.834 0.599144 0.313053 0
M  V30 4195 H 417.388 2.02761 0.328225 0
M  V30 4196 H 415.618 2.66493 2.80211 0
M  V30 4197 H 417.307 3.06097 2.6657 0
M  V30 4198 H 418.073 4.77209 0.865841 0
M  V30 4199 H 413.952 4.18167 1.94055 0
M  V30 4200 H 417.496 6.97545 -0.0872951 0
M  V30 4201 H 413.393 6.37813 0.993246 0
M  V30 4202 H 414.161 8.18495 -0.0287617 0
M  V30 4203 N 416.824 -0.551391 1.4764 0
M  V30 4204 C 418.072 -1.30572 1.54258 0
M  V30 4205 C 418.393 -1.93877 0.208963 0
M  V30 4206 O 417.663 -1.80234 -0.767619 0
M  V30 4207 H 416.243 -0.484894 0.568231 0
M  V30 4208 H 418.905 -0.643402 1.83974 0
M  V30 4209 H 418.001 -2.09621 2.31226 0
M  V30 4210 N 418.302 -1.35869 -0.798587 0
M  V30 4211 C 419.548 -1.30788 -1.55775 0
M  V30 4212 C 419.903 0.114558 -1.92059 0
M  V30 4213 O 419.196 1.06691 -1.59147 0
M  V30 4214 C 419.39 -2.1556 -2.85077 0
M  V30 4215 C 419.219 -3.65904 -2.61428 0
M  V30 4216 C 417.989 -4.35112 -2.56915 0
M  V30 4217 C 420.187 -4.59375 -2.31255 0
M  V30 4218 N 418.169 -5.71155 -2.25068 0
M  V30 4219 C 419.54 -5.83598 -2.09316 0
M  V30 4220 C 421.595 -4.48035 -2.17185 0
M  V30 4221 C 420.298 -6.97755 -1.74731 0
M  V30 4222 C 422.324 -5.62049 -1.83998 0
M  V30 4223 C 421.686 -6.85305 -1.629 0
M  V30 4224 H 417.785 -0.533855 -0.571422 0
M  V30 4225 H 420.369 -1.7083 -0.934079 0
M  V30 4226 H 418.54 -1.77776 -3.45326 0
M  V30 4227 H 420.272 -2.01938 -3.50718 0
M  V30 4228 H 417.027 -3.87812 -2.71843 0
M  V30 4229 H 417.451 -6.42978 -2.11916 0
M  V30 4230 H 422.093 -3.53338 -2.3219 0
M  V30 4231 H 419.811 -7.92411 -1.58464 0
M  V30 4232 H 423.397 -5.55232 -1.73808 0
M  V30 4233 H 422.277 -7.72034 -1.37596 0
M  V30 4234 N 419.78 1.02168 -1.19998 0
M  V30 4235 C 421.008 1.79296 -1.03249 0
M  V30 4236 C 421.423 1.84103 0.418502 0
M  V30 4237 O 420.78 1.29031 1.29063 0
M  V30 4238 C 420.831 3.24007 -1.60319 0
M  V30 4239 O 420.552 3.19512 -2.99739 0
M  V30 4240 C 422.053 4.17704 -1.48453 0
M  V30 4241 H 419.273 0.564016 -0.363493 0
M  V30 4242 H 421.817 1.28639 -1.58973 0
M  V30 4243 H 419.972 3.7183 -1.08727 0
M  V30 4244 H 420.386 4.10306 -3.26725 0
M  V30 4245 H 421.86 5.17104 -1.93153 0
M  V30 4246 H 422.337 4.37029 -0.436193 0
M  V30 4247 H 422.943 3.7576 -1.99211 0
M  V30 4248 N 421.258 1.00505 1.21394 0
M  V30 4249 C 422.535 0.603277 1.86064 0
M  V30 4250 C 422.915 -0.919095 1.90042 0
M  V30 4251 O 422.263 -1.80607 1.39977 0
M  V30 4252 C 422.473 1.23772 3.26315 0
M  V30 4253 C 423.821 1.34586 4.02705 0
M  V30 4254 O 424.845 1.19304 3.35626 0
M  V30 4255 O 423.704 1.59169 5.22807 0
M  V30 4256 H 420.798 0.206634 0.800769 0
M  V30 4257 H 423.344 1.1017 1.29076 0
M  V30 4258 H 422.116 2.27848 3.18121 0
M  V30 4259 H 421.739 0.725648 3.90922 0
M  V30 4260 N 422.737 -1.36956 0.779787 0
M  V30 4261 C 423.687 -2.27539 0.144892 0
M  V30 4262 C 424.671 -1.46493 -0.665488 0
M  V30 4263 O 425.863 -1.68968 -0.527141 0
M  V30 4264 C 422.992 -3.35512 -0.727082 0
M  V30 4265 C 422.078 -4.24001 0.0915642 0
M  V30 4266 N 422.469 -4.92757 1.14125 0
M  V30 4267 C 420.767 -4.45807 -0.131141 0
M  V30 4268 C 421.468 -5.58138 1.6388 0
M  V30 4269 N 420.444 -5.35241 0.94962 0
M  V30 4270 H 424.246 -2.78176 0.948446 0
M  V30 4271 H 421.76 -1.50169 0.618315 0
M  V30 4272 H 423.757 -3.99324 -1.19776 0
M  V30 4273 H 422.417 -2.86431 -1.52929 0
M  V30 4274 H 423.428 -4.94984 1.52353 0
M  V30 4275 H 420.105 -4.07582 -0.904621 0
M  V30 4276 H 421.495 -6.23071 2.51461 0
M  V30 4277 N 424.215 -0.530993 -1.48385 0
M  V30 4278 C 425.44 0.000729535 -2.074 0
M  V30 4279 C 425.865 1.27298 -1.3848 0
M  V30 4280 O 425.223 1.75599 -0.451081 0
M  V30 4281 C 425.271 0.206697 -3.60007 0
M  V30 4282 O 424.375 1.27514 -3.92191 0
M  V30 4283 H 423.716 -0.039583 -0.662819 0
M  V30 4284 H 426.246 -0.739194 -1.9078 0
M  V30 4285 H 426.256 0.42904 -4.05738 0
M  V30 4286 H 424.931 -0.722675 -4.09573 0
M  V30 4287 H 423.508 1.03537 -3.58238 0
M  V30 4288 N 425.693 1.55336 -0.266172 0
M  V30 4289 C 426.656 2.20878 0.612001 0
M  V30 4290 C 427.656 1.18388 1.08816 0
M  V30 4291 O 428.846 1.4335 0.989774 0
M  V30 4292 C 425.978 2.86765 1.84332 0
M  V30 4293 H 427.171 2.99873 0.0398718 0
M  V30 4294 H 424.724 1.56291 -0.0167309 0
M  V30 4295 H 425.459 2.11759 2.45619 0
M  V30 4296 H 425.244 3.61862 1.5099 0
M  V30 4297 H 426.734 3.36867 2.46801 0
M  V30 4298 N 427.171 -0.0066808 1.57599 0
M  V30 4299 C 428.411 -0.697501 1.92131 0
M  V30 4300 C 428.775 -1.71306 0.867071 0
M  V30 4301 O 429.976 -2.45377 1.09743 0
M  V30 4302 C 428.247 -1.32978 3.3174 0
M  V30 4303 S 429.806 -2.04665 3.88146 0
M  V30 4304 H 426.624 -0.230555 0.672581 0
M  V30 4305 H 429.226 0.0484026 1.9544 0
M  V30 4306 H 427.93 -0.57772 4.06313 0
M  V30 4307 H 427.461 -2.11376 3.31789 0
M  V30 4308 H 429.476 -3.32097 3.68682 0
M  V30 4309 N 428.649 -1.55105 -0.279332 0
M  V30 4310 C 429.874 -1.7976 -1.03446 0
M  V30 4311 C 430.299 -0.565952 -1.79384 0
M  V30 4312 O 429.657 0.484259 -1.74713 0
M  V30 4313 C 429.705 -3.0179 -1.97371 0
M  V30 4314 O 428.809 -2.76432 -3.06038 0
M  V30 4315 H 428.15 -0.594334 -0.29608 0
M  V30 4316 H 430.68 -2.02235 -0.310165 0
M  V30 4317 H 430.69 -3.30351 -2.39441 0
M  V30 4318 H 429.365 -3.91085 -1.4151 0
M  V30 4319 H 427.942 -2.58949 -2.68328 0
M  V30 4320 N 430.127 0.543554 -1.4793 0
M  V30 4321 C 431.538 1.12561 -1.48953 0
M  V30 4322 C 431.889 1.94578 -0.251754 0
M  V30 4323 O 431.014 2.0665 0.642255 0
M  V30 4324 C 431.609 2.04801 -2.69892 0
M  V30 4325 C 430.168 2.58251 -2.73831 0
M  V30 4326 C 429.315 1.34918 -2.42265 0
M  V30 4327 H 432.266 0.32947 -1.55242 0
M  V30 4328 H 432.287 2.88886 -2.47639 0
M  V30 4329 H 431.799 1.4508 -3.59963 0
M  V30 4330 H 429.9 3.21732 -1.87934 0
M  V30 4331 H 430.013 2.98312 -3.74895 0
M  V30 4332 H 428.377 1.66046 -1.93134 0
M  V30 4333 H 429.16 0.769693 -3.3456 0
M  V30 4334 N 431.605 1.3629 0.791371 0
M  V30 4335 C 432.851 1.30605 1.55146 0
M  V30 4336 C 433.184 -0.115042 1.93859 0
M  V30 4337 O 432.459 -1.06798 1.62556 0
M  V30 4338 C 432.742 2.22692 2.82985 0
M  V30 4339 C 432.595 3.73489 2.50651 0
M  V30 4340 C 433.914 2.13588 3.84796 0
M  V30 4341 H 431.033 0.475761 0.562868 0
M  V30 4342 H 433.675 1.66825 0.909358 0
M  V30 4343 H 431.825 1.91933 3.37778 0
M  V30 4344 H 433.497 4.14758 2.01924 0
M  V30 4345 H 431.74 3.93021 1.83622 0
M  V30 4346 H 432.411 4.3333 3.41949 0
M  V30 4347 H 434.887 2.40659 3.39445 0
M  V30 4348 H 433.763 2.80195 4.71998 0
M  V30 4349 H 434.024 1.12256 4.27611 0
M  V30 4350 N 433.083 -1.0153 1.20538 0
M  V30 4351 C 434.323 -1.76689 1.02763 0
M  V30 4352 C 434.687 -1.87065 -0.432513 0
M  V30 4353 O 435.888 -2.58684 -0.730481 0
M  V30 4354 C 434.159 -3.14707 1.69393 0
M  V30 4355 S 435.718 -4.05886 1.66738 0
M  V30 4356 H 432.536 -0.608076 0.368463 0
M  V30 4357 H 435.138 -1.21558 1.53114 0
M  V30 4358 H 433.842 -3.04782 2.74838 0
M  V30 4359 H 433.373 -3.74913 1.19179 0
M  V30 4360 H 435.388 -4.91221 0.70117 0
M  V30 4361 N 434.561 -1.01147 -1.20859 0
M  V30 4362 C 435.972 -0.730205 -1.71828 0
M  V30 4363 C 436.323 0.751662 -1.8123 0
M  V30 4364 O 435.448 1.58686 -1.47132 0
M  V30 4365 C 436.043 -1.31885 -3.12077 0
M  V30 4366 C 434.602 -1.08656 -3.60376 0
M  V30 4367 C 433.749 -1.42769 -2.37723 0
M  V30 4368 H 436.7 -1.18158 -1.05945 0
M  V30 4369 H 436.721 -0.706793 -3.73878 0
M  V30 4370 H 436.233 -2.39737 -3.05201 0
M  V30 4371 H 434.334 -0.0254814 -3.72591 0
M  V30 4372 H 434.447 -1.76301 -4.45483 0
M  V30 4373 H 432.811 -0.846603 -2.40218 0
M  V30 4374 H 433.594 -2.51666 -2.33493 0
M  V30 4375 N 436.039 1.36541 -0.78704 0
M  V30 4376 C 437.002 2.28413 -0.189778 0
M  V30 4377 C 438.002 1.48719 0.611499 0
M  V30 4378 O 439.192 1.68737 0.432842 0
M  V30 4379 C 436.324 3.32824 0.737638 0
M  V30 4380 H 437.517 2.82743 -0.999831 0
M  V30 4381 H 435.07 1.46065 -0.556298 0
M  V30 4382 H 435.805 2.83646 1.57212 0
M  V30 4383 H 435.59 3.91752 0.165044 0
M  V30 4384 H 437.08 4.0144 1.15047 0
M  V30 4385 N 437.518 0.538854 1.48102 0
M  V30 4386 C 438.766 0.00798599 2.02098 0
M  V30 4387 C 439.087 -1.33922 1.41739 0
M  V30 4388 O 438.357 -1.86932 0.585934 0
M  V30 4389 H 436.937 -3.62179e-05 0.747 0
M  V30 4390 H 439.599 0.7047 1.81714 0
M  V30 4391 H 438.695 -0.0937672 3.11959 0
M  V30 4392 N 438.996 -1.55193 0.274407 0
M  V30 4393 C 439.929 -2.18606 -0.654712 0
M  V30 4394 C 440.907 -1.14677 -1.15273 0
M  V30 4395 O 442.091 -1.43198 -1.22583 0
M  V30 4396 C 439.218 -2.80875 -1.89281 0
M  V30 4397 C 438.264 -3.981 -1.53032 0
M  V30 4398 S 439.097 -5.32025 -0.609107 0
M  V30 4399 C 440.253 -5.97761 -1.85559 0
M  V30 4400 H 440.486 -2.97074 -0.115894 0
M  V30 4401 H 438.019 -1.54288 0.05867 0
M  V30 4402 H 439.977 -3.17381 -2.60345 0
M  V30 4403 H 438.638 -2.02302 -2.40277 0
M  V30 4404 H 437.831 -4.40356 -2.45158 0
M  V30 4405 H 437.433 -3.63013 -0.899874 0
M  V30 4406 H 439.725 -6.16951 -2.7996 0
M  V30 4407 H 440.668 -6.92545 -1.47605 0
M  V30 4408 H 441.076 -5.27113 -2.02021 0
M  V30 4409 N 440.474 -0.00167713 -1.576 0
M  V30 4410 C 441.384 1.00548 -2.1196 0
M  V30 4411 C 442.4 1.3758 -1.06526 0
M  V30 4412 O 443.576 1.46278 -1.38436 0
M  V30 4413 C 440.641 2.27809 -2.6135 0
M  V30 4414 C 439.702 1.97074 -3.81393 0
M  V30 4415 C 438.935 3.18267 -4.28417 0
M  V30 4416 O 439.158 4.30009 -3.74765 0
M  V30 4417 O 438.092 3.02167 -5.20556 0
M  V30 4418 H 441.918 0.573373 -2.98238 0
M  V30 4419 H 439.503 0.217255 -1.47812 0
M  V30 4420 H 441.385 3.02568 -2.93309 0
M  V30 4421 H 440.06 2.70254 -1.78169 0
M  V30 4422 H 438.967 1.19785 -3.54404 0
M  V30 4423 H 440.3 1.59464 -4.65652 0
M  V30 4424 N 441.952 1.55251 0.271103 0
M  V30 4425 C 443.182 1.79713 1.01916 0
M  V30 4426 C 443.59 0.571613 1.80359 0
M  V30 4427 O 442.933 -0.468853 1.77616 0
M  V30 4428 C 442.995 2.97138 2.02359 0
M  V30 4429 C 442.659 4.34104 1.42837 0
M  V30 4430 C 443.656 5.13019 0.843071 0
M  V30 4431 C 441.341 4.80765 1.455 0
M  V30 4432 C 443.335 6.36729 0.292333 0
M  V30 4433 C 441.022 6.0443 0.900402 0
M  V30 4434 C 442.02 6.8225 0.32007 0
M  V30 4435 O 441.708 8.03582 -0.226031 0
M  V30 4436 H 441.44 0.602431 0.306681 0
M  V30 4437 H 443.994 2.03097 0.306701 0
M  V30 4438 H 442.224 2.6945 2.77369 0
M  V30 4439 H 443.913 3.08907 2.63309 0
M  V30 4440 H 444.679 4.781 0.815178 0
M  V30 4441 H 440.558 4.20202 1.89609 0
M  V30 4442 H 444.102 6.97414 -0.161274 0
M  V30 4443 H 439.999 6.3883 0.925541 0
M  V30 4444 H 440.767 8.18418 -0.115572 0
M  V30 4445 N 443.43 -0.535701 1.48216 0
M  V30 4446 C 444.846 -0.863701 1.3421 0
M  V30 4447 C 445.046 -1.98458 0.34879 0
M  V30 4448 O 444.102 -2.51432 -0.23204 0
M  V30 4449 C 445.415 -1.23662 2.74095 0
M  V30 4450 C 446.963 -1.34683 2.82541 0
M  V30 4451 C 447.438 -1.75322 4.23115 0
M  V30 4452 N 448.929 -1.82434 4.2576 0
M  V30 4453 C 449.664 -2.15252 5.31464 0
M  V30 4454 N 449.16 -2.46533 6.47452 0
M  V30 4455 N 450.953 -2.16209 5.18855 0
M  V30 4456 H 443.104 0.203965 2.11418 0
M  V30 4457 H 445.367 0.0286033 0.947568 0
M  V30 4458 H 445.073 -0.486674 3.48316 0
M  V30 4459 H 444.947 -2.18805 3.07253 0
M  V30 4460 H 447.334 -2.08756 2.08579 0
M  V30 4461 H 447.415 -0.376756 2.5301 0
M  V30 4462 H 447.059 -1.01812 4.97591 0
M  V30 4463 H 446.989 -2.7337 4.50085 0
M  V30 4464 H 449.48 -1.6056 3.42095 0
M  V30 4465 H 449.793 -2.70662 7.23852 0
M  V30 4466 H 448.138 -2.44065 6.50736 0
M  V30 4467 H 451.329 -1.91224 4.2726 0
M  V30 4468 H 451.502 -2.41453 6.01335 0
M  V30 4469 N 444.908 -1.36708 -0.784132 0
M  V30 4470 C 445.84 -1.27333 -1.90575 0
M  V30 4471 C 446.853 -0.191706 -1.61667 0
M  V30 4472 O 448.042 -0.446854 -1.72816 0
M  V30 4473 C 445.142 -0.943177 -3.25511 0
M  V30 4474 C 444.315 -2.12776 -3.82158 0
M  V30 4475 C 443.374 -1.76983 -4.95544 0
M  V30 4476 O 442.4 -2.49134 -5.11782 0
M  V30 4477 N 443.602 -0.706624 -5.76183 0
M  V30 4478 H 446.367 -2.23974 -1.99138 0
M  V30 4479 H 443.928 -1.30171 -0.962656 0
M  V30 4480 H 445.92 -0.684799 -3.98864 0
M  V30 4481 H 444.49 -0.0657333 -3.12531 0
M  V30 4482 H 443.71 -2.54863 -3.0073 0
M  V30 4483 H 444.998 -2.91904 -4.16737 0
M  V30 4484 H 444.396 -0.107643 -5.65598 0
M  V30 4485 H 442.953 -0.50808 -6.49817 0
M  V30 4486 N 446.386 1.0089 -1.21074 0
M  V30 4487 C 447.626 1.76142 -1.03699 0
M  V30 4488 C 447.99 1.87292 0.422587 0
M  V30 4489 O 449.191 2.59068 0.716752 0
M  V30 4490 C 447.462 3.13805 -1.7106 0
M  V30 4491 S 449.021 4.04996 -1.68889 0
M  V30 4492 H 445.839 0.606113 -0.371683 0
M  V30 4493 H 448.441 1.20744 -1.53756 0
M  V30 4494 H 447.145 3.0332 -2.76451 0
M  V30 4495 H 446.676 3.74276 -1.21166 0
M  V30 4496 H 448.691 4.90842 -0.727211 0
M  V30 4497 N 447.864 1.01787 1.20321 0
M  V30 4498 C 449.11 0.708985 1.90003 0
M  V30 4499 C 449.443 -0.759572 1.78729 0
M  V30 4500 O 448.718 -1.55198 1.17234 0
M  V30 4501 C 449.001 1.1469 3.41348 0
M  V30 4502 C 448.854 2.67586 3.61549 0
M  V30 4503 C 450.173 0.71915 4.34185 0
M  V30 4504 H 447.292 0.259034 0.689978 0
M  V30 4505 H 449.934 1.26584 1.41692 0
M  V30 4506 H 448.084 0.673128 3.82624 0
M  V30 4507 H 449.756 3.22826 3.29517 0
M  V30 4508 H 447.999 3.085 3.04976 0
M  V30 4509 H 448.67 2.93281 4.67643 0
M  V30 4510 H 451.146 1.12647 4.00562 0
M  V30 4511 H 450.022 1.05358 5.38694 0
M  V30 4512 H 450.283 -0.379111 4.40472 0
M  V30 4513 N 449.342 -1.36122 0.79427 0
M  V30 4514 C 450.567 -2.03891 0.379871 0
M  V30 4515 C 450.992 -1.59488 -0.997251 0
M  V30 4516 O 450.35 -0.765652 -1.64339 0
M  V30 4517 C 450.398 -3.57687 0.457442 0
M  V30 4518 O 449.502 -4.08931 -0.5338 0
M  V30 4519 H 448.843 -0.6443 0.160541 0
M  V30 4520 H 451.373 -1.73976 1.07673 0
M  V30 4521 H 451.383 -4.06721 0.322792 0
M  V30 4522 H 450.058 -3.89357 1.46199 0
M  V30 4523 H 448.635 -3.71154 -0.360409 0
M  V30 4524 N 450.82 -0.546701 -1.47814 0
M  V30 4525 C 452.231 -0.110564 -1.86372 0
M  V30 4526 C 452.582 1.31678 -1.45449 0
M  V30 4527 O 451.707 1.98889 -0.852758 0
M  V30 4528 C 452.302 -0.193873 -3.38245 0
M  V30 4529 C 450.861 0.187164 -3.75934 0
M  V30 4530 C 450.008 -0.546166 -2.71868 0
M  V30 4531 H 452.959 -0.757022 -1.39481 0
M  V30 4532 H 452.98 0.590218 -3.75895 0
M  V30 4533 H 452.492 -1.23282 -3.67999 0
M  V30 4534 H 450.593 1.22762 -3.51796 0
M  V30 4535 H 450.706 -0.164083 -4.78819 0
M  V30 4536 H 449.07 0.00953904 -2.54698 0
M  V30 4537 H 449.853 -1.58606 -3.04465 0
M  V30 4538 N 452.299 1.55045 -0.282633 0
M  V30 4539 C 453.539 2.01668 0.333088 0
M  V30 4540 C 453.903 1.1667 1.52486 0
M  V30 4541 O 455.104 1.52907 2.21072 0
M  V30 4542 C 453.375 3.50509 0.698442 0
M  V30 4543 S 454.934 4.19112 1.29963 0
M  V30 4544 H 451.752 0.703468 0.103219 0
M  V30 4545 H 454.354 1.91233 -0.406222 0
M  V30 4546 H 453.058 4.10015 -0.177693 0
M  V30 4547 H 452.589 3.64943 1.46902 0
M  V30 4548 H 454.604 4.23362 2.58803 0
M  V30 4549 N 453.777 0.010035 1.57597 0
M  V30 4550 C 454.74 -0.963029 2.07986 0
M  V30 4551 C 455.74 -1.26619 0.991173 0
M  V30 4552 O 456.93 -1.2097 1.25347 0
M  V30 4553 C 454.062 -2.2851 2.52974 0
M  V30 4554 H 455.255 -0.526971 2.95234 0
M  V30 4555 H 452.808 -0.237639 1.54483 0
M  V30 4556 H 453.543 -2.76784 1.69 0
M  V30 4557 H 453.328 -2.07824 3.32493 0
M  V30 4558 H 454.818 -2.98294 2.9225 0
M  V30 4559 N 455.255 -1.55392 -0.262866 0
M  V30 4560 C 456.671 -1.47459 -0.610582 0
M  V30 4561 C 456.871 -0.697031 -1.8906 0
M  V30 4562 O 455.927 -0.219952 -2.5154 0
M  V30 4563 C 457.24 -2.91751 -0.728131 0
M  V30 4564 C 458.788 -3.02027 -0.821517 0
M  V30 4565 C 459.263 -4.47594 -0.97076 0
M  V30 4566 N 460.754 -4.51465 -1.03603 0
M  V30 4567 C 461.489 -5.61326 -1.17049 0
M  V30 4568 N 460.985 -6.81032 -1.2715 0
M  V30 4569 N 462.778 -5.49089 -1.20239 0
M  V30 4570 H 454.929 -2.04395 0.577632 0
M  V30 4571 H 457.192 -0.927287 0.197086 0
M  V30 4572 H 456.898 -3.51413 0.142132 0
M  V30 4573 H 456.772 -3.4134 -1.6052 0
M  V30 4574 H 459.159 -2.42456 -1.68224 0
M  V30 4575 H 459.24 -2.55674 0.0803688 0
M  V30 4576 H 458.884 -5.07771 -0.114655 0
M  V30 4577 H 458.814 -4.91613 -1.88745 0
M  V30 4578 H 461.305 -3.6524 -0.96996 0
M  V30 4579 H 461.618 -7.60511 -1.37271 0
M  V30 4580 H 459.963 -6.83824 -1.24136 0
M  V30 4581 H 463.154 -4.54507 -1.11985 0
M  V30 4582 H 463.327 -6.34749 -1.30373 0
M  V30 4583 N 456.733 0.527833 -1.48498 0
M  V30 4584 C 457.961 1.30823 -1.6029 0
M  V30 4585 C 458.376 1.86945 -0.263974 0
M  V30 4586 O 457.733 1.6651 0.747034 0
M  V30 4587 C 457.784 2.45756 -2.65116 0
M  V30 4588 O 457.505 1.91946 -3.93813 0
M  V30 4589 C 459.006 3.37543 -2.87367 0
M  V30 4590 H 456.226 0.397763 -0.540394 0
M  V30 4591 H 458.77 0.636529 -1.94341 0
M  V30 4592 H 456.925 3.08806 -2.33917 0
M  V30 4593 H 457.339 2.67195 -4.51339 0
M  V30 4594 H 458.813 4.14532 -3.6451 0
M  V30 4595 H 459.29 3.92905 -1.9627 0
M  V30 4596 H 459.896 2.80283 -3.19878 0
M  V30 4597 N 458.211 1.37122 0.776871 0
M  V30 4598 C 459.451 1.33441 1.54831 0
M  V30 4599 C 459.815 -0.0818963 1.91825 0
M  V30 4600 O 461.016 -0.24338 2.67696 0
M  V30 4601 C 459.287 2.24267 2.78279 0
M  V30 4602 S 460.846 2.38389 3.68397 0
M  V30 4603 H 457.664 0.473791 0.530135 0
M  V30 4604 H 460.266 1.7282 0.913968 0
M  V30 4605 H 458.97 3.261 2.49173 0
M  V30 4606 H 458.501 1.85953 3.46677 0
M  V30 4607 H 460.516 1.59068 4.70013 0
M  V30 4608 N 459.689 -1.00246 1.21608 0
M  V30 4609 C 460.621 -2.09244 0.935401 0
M  V30 4610 C 461.634 -1.62592 -0.0823594 0
M  V30 4611 O 462.823 -1.77865 0.150456 0
M  V30 4612 C 459.923 -3.36724 0.383453 0
M  V30 4613 C 459.096 -4.1245 1.45615 0
M  V30 4614 C 458.155 -5.18219 0.912991 0
M  V30 4615 O 457.181 -5.46337 1.59701 0
M  V30 4616 N 458.383 -5.7987 -0.270478 0
M  V30 4617 H 461.148 -2.33905 1.87373 0
M  V30 4618 H 458.709 -1.16748 1.12167 0
M  V30 4619 H 460.701 -4.047 0.00562157 0
M  V30 4620 H 459.271 -3.09201 -0.459758 0
M  V30 4621 H 458.491 -3.39241 2.00772 0
M  V30 4622 H 459.779 -4.59819 2.17817 0
M  V30 4623 H 459.177 -5.59381 -0.843195 0
M  V30 4624 H 457.734 -6.49126 -0.589794 0
M  V30 4625 N 461.167 -1.02423 -1.1978 0
M  V30 4626 C 462.392 -0.7373 -1.93852 0
M  V30 4627 C 462.817 0.696923 -1.74713 0
M  V30 4628 O 462.175 1.48056 -1.04638 0
M  V30 4629 C 462.223 -1.08783 -3.438 0
M  V30 4630 O 461.327 -0.20383 -4.11896 0
M  V30 4631 H 460.668 -0.27284 -0.605355 0
M  V30 4632 H 463.198 -1.36966 -1.51992 0
M  V30 4633 H 463.208 -1.04276 -3.9445 0
M  V30 4634 H 461.883 -2.13274 -3.57053 0
M  V30 4635 H 460.46 -0.307091 -3.71633 0
M  V30 4636 N 462.645 1.35699 -0.801477 0
M  V30 4637 C 463.575 2.32436 -0.222658 0
M  V30 4638 C 464.556 1.5723 0.649057 0
M  V30 4639 O 465.741 1.85324 0.580387 0
M  V30 4640 C 462.871 3.41469 0.633719 0
M  V30 4641 C 461.825 4.27774 -0.139083 0
M  V30 4642 C 461.151 5.28082 0.838666 0
M  V30 4643 C 462.451 5.04946 -1.33517 0
M  V30 4644 H 464.145 2.81094 -1.03086 0
M  V30 4645 H 461.691 1.35146 -0.497155 0
M  V30 4646 H 463.644 4.08143 1.04868 0
M  V30 4647 H 462.368 2.91408 1.47475 0
M  V30 4648 H 461.027 3.62673 -0.535156 0
M  V30 4649 H 460.675 4.7429 1.67506 0
M  V30 4650 H 460.375 5.86695 0.32594 0
M  V30 4651 H 461.899 5.97628 1.25194 0
M  V30 4652 H 463.313 5.64593 -0.995349 0
M  V30 4653 H 461.71 5.7303 -1.78202 0
M  V30 4654 H 462.78 4.35886 -2.12442 0
M  V30 4655 N 464.123 0.554532 1.47522 0
M  V30 4656 C 465.073 -0.215008 2.26984 0
M  V30 4657 C 466.057 -0.88774 1.34194 0
M  V30 4658 O 467.249 -0.786489 1.58567 0
M  V30 4659 C 464.378 -1.24604 3.19889 0
M  V30 4660 C 463.464 -0.576857 4.20159 0
M  V30 4661 N 463.855 0.351541 5.04577 0
M  V30 4662 C 462.153 -0.831104 4.38188 0
M  V30 4663 C 462.854 0.739995 5.76974 0
M  V30 4664 N 461.83 0.0954407 5.43516 0
M  V30 4665 H 465.632 0.498843 2.89636 0
M  V30 4666 H 463.146 0.374279 1.58028 0
M  V30 4667 H 465.143 -1.81128 3.75498 0
M  V30 4668 H 463.803 -1.96101 2.58794 0
M  V30 4669 H 464.814 0.725556 5.12792 0
M  V30 4670 H 461.491 -1.53479 3.88266 0
M  V30 4671 H 462.881 1.50271 6.5488 0
M  V30 4672 N 465.601 -1.54893 0.290851 0
M  V30 4673 C 466.85 -1.99111 -0.322113 0
M  V30 4674 C 467.163 -1.18283 -1.55784 0
M  V30 4675 O 468.369 -1.5272 -2.24475 0
M  V30 4676 C 466.825 -3.54442 -0.624438 0
M  V30 4677 C 466.433 -4.44066 0.592373 0
M  V30 4678 C 468.177 -4.07211 -1.19916 0
M  V30 4679 C 466.084 -5.90812 0.263762 0
M  V30 4680 H 465.014 -0.743712 -0.124133 0
M  V30 4681 H 467.665 -1.79132 0.39797 0
M  V30 4682 H 466.047 -3.70281 -1.40384 0
M  V30 4683 H 467.221 -4.39999 1.36886 0
M  V30 4684 H 465.536 -4.02015 1.08502 0
M  V30 4685 H 468.133 -5.14407 -1.45909 0
M  V30 4686 H 468.476 -3.57196 -2.13815 0
M  V30 4687 H 469.009 -3.94873 -0.481687 0
M  V30 4688 H 465.748 -6.44955 1.17105 0
M  V30 4689 H 465.268 -5.97911 -0.475655 0
M  V30 4690 H 466.947 -6.46852 -0.138354 0
M  V30 4691 N 467.08 -0.0183926 -1.57589 0
M  V30 4692 C 468.028 0.985111 -2.10709 0
M  V30 4693 C 469.022 1.34397 -1.0312 0
M  V30 4694 O 470.228 1.32746 -1.21567 0
M  V30 4695 H 466.603 0.335418 -0.673052 0
M  V30 4696 H 468.574 0.511689 -2.9398 0
M  V30 4697 C 467.323 2.26202 -2.64061 0
M  V30 4698 H 466.646 1.9946 -3.4649 0
M  V30 4699 H 468.086 2.94652 -3.04887 0
M  V30 4700 C 466.545 2.98444 -1.5631 0
M  V30 4701 O 467.075 3.90142 -0.956674 0
M  V30 4702 N 465.281 2.6059 -1.28612 0
M  V30 4703 H 464.828 1.86101 -1.78112 0
M  V30 4704 H 464.786 3.09238 -0.567406 0
M  V30 4705 N 468.558 1.5553 0.254621 0
M  V30 4706 C 469.468 1.92789 1.33677 0
M  V30 4707 C 470.484 0.827356 1.53071 0
M  V30 4708 O 471.66 1.12807 1.66843 0
M  V30 4709 C 468.725 2.20827 2.67275 0
M  V30 4710 C 467.786 3.4427 2.5647 0
M  V30 4711 C 467.019 3.70961 3.83697 0
M  V30 4712 O 467.242 2.99852 4.85227 0
M  V30 4713 O 466.176 4.64491 3.82794 0
M  V30 4714 H 470.002 2.84945 1.05071 0
M  V30 4715 H 467.587 1.42312 0.454723 0
M  V30 4716 H 469.469 2.40204 3.46237 0
M  V30 4717 H 468.144 1.31851 2.9563 0
M  V30 4718 H 467.051 3.30209 1.75821 0
M  V30 4719 H 468.384 4.33524 2.33062 0
M  V30 4720 N 470.036 -0.519951 1.48776 0
M  V30 4721 C 470.969 -1.64053 1.58625 0
M  V30 4722 C 471.947 -1.5664 0.43618 0
M  V30 4723 O 473.131 -1.76969 0.649159 0
M  V30 4724 C 470.258 -3.02497 1.52359 0
M  V30 4725 C 469.304 -3.28235 2.72331 0
M  V30 4726 S 470.137 -3.13414 4.34203 0
M  V30 4727 C 471.293 -4.54287 4.30551 0
M  V30 4728 H 471.526 -1.5545 2.53422 0
M  V30 4729 H 469.059 -0.703681 1.37433 0
M  V30 4730 H 471.017 -3.82336 1.4943 0
M  V30 4731 H 469.678 -3.08531 0.588824 0
M  V30 4732 H 468.871 -4.29256 2.64113 0
M  V30 4733 H 468.473 -2.56085 2.72574 0
M  V30 4734 H 470.765 -5.46006 4.01103 0
M  V30 4735 H 471.708 -4.67558 5.31785 0
M  V30 4736 H 472.116 -4.34079 3.60881 0
M  V30 4737 N 471.514 -1.37532 -0.769588 0
M  V30 4738 C 472.754 -1.34261 -1.54122 0
M  V30 4739 C 473.118 0.0717222 -1.91866 0
M  V30 4740 O 474.319 0.22918 -2.67821 0
M  V30 4741 C 472.59 -2.2574 -2.77086 0
M  V30 4742 S 474.149 -2.40339 -3.67127 0
M  V30 4743 H 470.967 -0.476595 -0.527615 0
M  V30 4744 H 473.569 -1.73303 -0.90479 0
M  V30 4745 H 472.273 -3.27417 -2.4744 0
M  V30 4746 H 471.804 -1.87789 -3.45686 0
M  V30 4747 H 473.819 -1.61558 -4.69163 0
M  V30 4748 N 472.992 0.995999 -1.22138 0
M  V30 4749 C 473.924 2.08745 -0.946485 0
M  V30 4750 C 474.937 1.62633 0.0737356 0
M  V30 4751 O 476.126 1.77782 -0.159886 0
M  V30 4752 C 473.226 3.36516 -0.401305 0
M  V30 4753 C 472.399 4.11672 -1.47801 0
M  V30 4754 C 471.458 5.17728 -0.940461 0
M  V30 4755 O 470.484 5.45482 -1.62596 0
M  V30 4756 N 471.686 5.80005 0.239723 0
M  V30 4757 H 474.451 2.32908 -1.88611 0
M  V30 4758 H 472.012 1.16152 -1.12785 0
M  V30 4759 H 474.004 4.04691 -0.0270837 0
M  V30 4760 H 472.574 3.0944 0.443354 0
M  V30 4761 H 471.794 3.38171 -2.02568 0
M  V30 4762 H 473.082 4.58657 -2.20253 0
M  V30 4763 H 472.48 5.5982 0.813518 0
M  V30 4764 H 471.037 6.4943 0.555361 0
M  V30 4765 N 474.47 1.03057 1.19235 0
M  V30 4766 C 475.38 0.622922 2.26179 0
M  V30 4767 C 476.396 -0.346113 1.70523 0
M  V30 4768 O 477.572 -0.203572 2.00369 0
M  V30 4769 C 474.637 -0.0182063 3.46695 0
M  V30 4770 C 473.698 0.998546 4.17526 0
M  V30 4771 C 472.931 0.387917 5.32288 0
M  V30 4772 O 473.154 -0.808668 5.64639 0
M  V30 4773 O 472.088 1.1116 5.91546 0
M  V30 4774 H 475.914 1.51363 2.63292 0
M  V30 4775 H 473.499 0.800856 1.26122 0
M  V30 4776 H 475.381 -0.375606 4.19723 0
M  V30 4777 H 474.056 -0.882895 3.11427 0
M  V30 4778 H 472.963 1.40756 3.4661 0
M  V30 4779 H 474.296 1.83366 4.56769 0
M  V30 4780 N 475.948 -1.35272 0.808662 0
M  V30 4781 C 477.364 -1.51806 0.492653 0
M  V30 4782 C 477.564 -1.7574 -0.985778 0
M  V30 4783 O 476.62 -1.80003 -1.77074 0
M  V30 4784 C 477.933 -2.69202 1.33981 0
M  V30 4785 C 479.481 -2.8308 1.33547 0
M  V30 4786 C 479.956 -4.03502 2.16679 0
M  V30 4787 N 481.447 -4.10684 2.14227 0
M  V30 4788 C 482.182 -5.02984 2.75308 0
M  V30 4789 N 481.678 -6.00603 3.45323 0
M  V30 4790 N 483.471 -4.95746 2.64938 0
M  V30 4791 H 475.622 -1.17993 1.76611 0
M  V30 4792 H 477.885 -0.577476 0.751814 0
M  V30 4793 H 477.591 -2.581 2.38909 0
M  V30 4794 H 477.465 -3.63854 0.994491 0
M  V30 4795 H 479.852 -2.93631 0.294036 0
M  V30 4796 H 479.933 -1.89278 1.72068 0
M  V30 4797 H 479.577 -3.93711 3.20864 0
M  V30 4798 H 479.507 -4.96489 1.75517 0
M  V30 4799 H 481.998 -3.40802 1.63285 0
M  V30 4800 H 482.311 -6.67633 3.89212 0
M  V30 4801 H 480.656 -6.0077 3.49428 0
M  V30 4802 H 483.847 -4.18439 2.09825 0
M  V30 4803 H 484.02 -5.67487 3.12829 0
M  V30 4804 N 477.426 -0.562348 -1.47226 0
M  V30 4805 C 478.666 -0.0426374 -2.04356 0
M  V30 4806 C 479.03 1.28487 -1.42671 0
M  V30 4807 O 480.231 1.89259 -1.90878 0
M  V30 4808 C 478.502 0.0433826 -3.57374 0
M  V30 4809 S 480.061 0.508472 -4.35844 0
M  V30 4810 H 476.879 -0.0276234 -0.710463 0
M  V30 4811 H 479.481 -0.750245 -1.80531 0
M  V30 4812 H 478.185 -0.927072 -3.99792 0
M  V30 4813 H 477.716 0.774387 -3.85703 0
M  V30 4814 H 479.731 1.76719 -4.63665 0
M  V30 4815 N 478.904 1.54736 -0.299062 0
M  V30 4816 C 480.15 2.00397 0.311244 0
M  V30 4817 C 480.483 1.18716 1.53688 0
M  V30 4818 O 479.758 0.263154 1.92712 0
M  V30 4819 C 480.041 3.53817 0.669761 0
M  V30 4820 C 479.894 4.46239 -0.564882 0
M  V30 4821 C 481.213 4.13856 1.49702 0
M  V30 4822 H 478.332 0.728493 0.111653 0
M  V30 4823 H 480.974 1.85506 -0.410774 0
M  V30 4824 H 479.124 3.66637 1.28491 0
M  V30 4825 H 480.796 4.45328 -1.20337 0
M  V30 4826 H 479.039 4.16916 -1.19849 0
M  V30 4827 H 479.71 5.5134 -0.269918 0
M  V30 4828 H 482.186 4.04461 0.977284 0
M  V30 4829 H 481.062 5.21365 1.71666 0
M  V30 4830 H 481.323 3.65608 2.48563 0
M  V30 4831 N 480.382 0.0267497 1.57577 0
M  V30 4832 C 481.659 -0.690926 1.82991 0
M  V30 4833 C 482.039 -1.90471 0.910164 0
M  V30 4834 O 481.387 -2.28474 -0.0347985 0
M  V30 4835 C 481.597 -1.07139 3.32148 0
M  V30 4836 C 482.945 -1.46402 3.98562 0
M  V30 4837 O 483.969 -1.16443 3.36629 0
M  V30 4838 O 482.828 -2.02214 5.07712 0
M  V30 4839 H 479.922 -0.338747 0.75444 0
M  V30 4840 H 482.468 0.0542506 1.69613 0
M  V30 4841 H 481.24 -0.207394 3.9075 0
M  V30 4842 H 480.863 -1.87481 3.50623 0
M  V30 4843 N 481.861 -1.55662 -0.24637 0
M  V30 4844 C 483.109 -1.77168 -0.972411 0
M  V30 4845 C 483.43 -0.590827 -1.85834 0
M  V30 4846 O 482.7 0.393365 -1.9191 0
M  V30 4847 H 481.28 -0.653405 -0.362038 0
M  V30 4848 H 483.942 -1.93101 -0.264189 0
M  V30 4849 H 483.038 -2.68335 -1.59382 0
M  V30 4850 N 483.339 0.512053 -1.4905 0
M  V30 4851 C 484.579 1.27715 -1.59588 0
M  V30 4852 C 484.943 1.90071 -0.271502 0
M  V30 4853 O 486.144 2.67616 -0.251987 0
M  V30 4854 C 484.415 2.32399 -2.71524 0
M  V30 4855 S 485.974 3.18396 -3.01943 0
M  V30 4856 H 482.792 0.43419 -0.563027 0
M  V30 4857 H 485.394 0.581315 -1.86657 0
M  V30 4858 H 484.098 1.85101 -3.66287 0
M  V30 4859 H 483.629 3.06667 -2.46412 0
M  V30 4860 H 485.644 4.32842 -2.42616 0
M  V30 4861 N 484.817 1.37938 0.762283 0
M  V30 4862 C 486.042 1.37059 1.55659 0
M  V30 4863 C 486.467 -0.0396123 1.88058 0
M  V30 4864 O 485.825 -1.01929 1.49934 0
M  V30 4865 C 485.873 2.22494 2.83776 0
M  V30 4866 O 484.977 1.63607 3.78559 0
M  V30 4867 H 484.318 0.467892 0.47114 0
M  V30 4868 H 486.848 1.81587 0.942725 0
M  V30 4869 H 486.858 2.36045 3.32786 0
M  V30 4870 H 485.533 3.24993 2.59524 0
M  V30 4871 H 484.11 1.5915 3.37233 0
M  V30 4872 N 486.295 -0.989507 1.22664 0
M  V30 4873 C 487.535 -1.7447 1.06488 0
M  V30 4874 C 487.899 -1.8794 -0.392737 0
M  V30 4875 O 489.1 -2.60175 -0.675446 0
M  V30 4876 C 487.371 -3.11043 1.76031 0
M  V30 4877 S 488.93 -4.02258 1.7531 0
M  V30 4878 H 485.748 -0.600123 0.381278 0
M  V30 4879 H 488.35 -1.18283 1.55658 0
M  V30 4880 H 487.054 -2.98884 2.81241 0
M  V30 4881 H 486.585 -3.72301 1.27105 0
M  V30 4882 H 488.6 -4.89623 0.805208 0
M  V30 4883 N 487.773 -1.03688 -1.18687 0
M  V30 4884 C 489.184 -0.766488 -1.70241 0
M  V30 4885 C 489.535 0.713052 -1.82784 0
M  V30 4886 O 488.66 1.55529 -1.50465 0
M  V30 4887 C 489.255 -1.38475 -3.09209 0
M  V30 4888 C 487.814 -1.16276 -3.5799 0
M  V30 4889 C 486.961 -1.4778 -2.34641 0
M  V30 4890 H 489.912 -1.20378 -1.03415 0
M  V30 4891 H 489.933 -0.785939 -3.72295 0
M  V30 4892 H 489.445 -2.46157 -3.00048 0
M  V30 4893 H 487.546 -0.104508 -3.72453 0
M  V30 4894 H 487.659 -1.8571 -4.41643 0
M  V30 4895 H 486.023 -0.897366 -2.38368 0
M  V30 4896 H 486.806 -2.56562 -2.28102 0
M  V30 4897 N 489.251 1.34841 -0.815825 0
M  V30 4898 C 490.161 2.33425 -0.234462 0
M  V30 4899 C 491.177 1.62295 0.627413 0
M  V30 4900 O 492.353 1.94109 0.536987 0
M  V30 4901 C 489.418 3.41471 0.599849 0
M  V30 4902 C 488.479 4.28362 -0.283596 0
M  V30 4903 C 487.712 5.31248 0.51099 0
M  V30 4904 O 487.935 5.43056 1.7449 0
M  V30 4905 O 486.869 6.01812 -0.10297 0
M  V30 4906 H 490.695 2.84962 -1.05024 0
M  V30 4907 H 488.28 1.37774 -0.577809 0
M  V30 4908 H 490.162 4.07464 1.07475 0
M  V30 4909 H 488.837 2.9219 1.39308 0
M  V30 4910 H 487.744 3.65318 -0.805836 0
M  V30 4911 H 489.077 4.81066 -1.041 0
M  V30 4912 N 490.729 0.570148 1.46925 0
M  V30 4913 C 491.977 0.0508523 2.02036 0
M  V30 4914 C 492.298 -1.30885 1.44548 0
M  V30 4915 O 491.568 -1.85647 0.625453 0
M  V30 4916 H 490.148 0.0158088 0.746833 0
M  V30 4917 H 492.81 0.743086 1.80178 0
M  V30 4918 H 491.906 -0.027575 3.12088 0
M  V30 4919 N 492.207 -1.54576 0.307264 0
M  V30 4920 C 493.139 -2.21212 -0.599807 0
M  V30 4921 C 494.152 -1.20685 -1.09266 0
M  V30 4922 O 495.341 -1.47244 -1.00903 0
M  V30 4923 C 492.441 -2.84994 -1.83389 0
M  V30 4924 C 491.614 -4.11511 -1.48248 0
M  V30 4925 C 490.673 -4.59038 -2.57237 0
M  V30 4926 O 489.699 -5.24095 -2.22065 0
M  V30 4927 N 490.901 -4.31884 -3.87887 0
M  V30 4928 H 493.666 -2.99686 -0.0293075 0
M  V30 4929 H 491.227 -1.61379 0.129738 0
M  V30 4930 H 493.219 -3.1372 -2.5566 0
M  V30 4931 H 491.789 -2.10324 -2.31263 0
M  V30 4932 H 491.009 -3.89728 -0.592122 0
M  V30 4933 H 492.297 -4.93879 -1.22316 0
M  V30 4934 H 491.695 -3.79778 -4.19268 0
M  V30 4935 H 490.252 -4.65304 -4.56438 0
M  V30 4936 N 493.685 -0.035106 -1.57561 0
M  V30 4937 C 494.615 0.942993 -2.13612 0
M  V30 4938 C 495.596 1.33531 -1.05373 0
M  V30 4939 O 496.781 1.41287 -1.33235 0
M  V30 4940 C 493.911 2.22332 -2.66807 0
M  V30 4941 C 492.865 1.97156 -3.79886 0
M  V30 4942 C 492.191 3.31506 -4.19533 0
M  V30 4943 C 493.491 1.30596 -5.05709 0
M  V30 4944 H 495.185 0.476179 -2.95589 0
M  V30 4945 H 492.731 0.227602 -1.4219 0
M  V30 4946 H 494.684 2.91142 -3.04654 0
M  V30 4947 H 493.408 2.7119 -1.81999 0
M  V30 4948 H 492.067 1.30763 -3.42486 0
M  V30 4949 H 491.715 3.78134 -3.31698 0
M  V30 4950 H 491.415 3.15465 -4.95738 0
M  V30 4951 H 492.939 4.01574 -4.59968 0
M  V30 4952 H 494.353 1.89416 -5.41105 0
M  V30 4953 H 492.75 1.24934 -5.86951 0
M  V30 4954 H 493.82 0.279742 -4.84092 0
M  V30 4955 N 495.163 1.55791 0.238111 0
M  V30 4956 C 496.093 1.94068 1.29846 0
M  V30 4957 C 497.074 0.806726 1.49753 0
M  V30 4958 O 498.259 1.06772 1.62214 0
M  V30 4959 C 495.389 2.24302 2.65153 0
M  V30 4960 C 494.343 3.40032 2.59927 0
M  V30 4961 C 493.669 3.55829 3.99111 0
M  V30 4962 C 494.969 4.75476 2.16148 0
M  V30 4963 H 496.663 2.82887 0.980563 0
M  V30 4964 H 494.209 1.36105 0.470253 0
M  V30 4965 H 496.162 2.4967 3.39475 0
M  V30 4966 H 494.886 1.32318 2.98596 0
M  V30 4967 H 493.545 3.14687 1.88063 0
M  V30 4968 H 493.193 2.6125 4.29834 0
M  V30 4969 H 492.893 4.3366 3.96501 0
M  V30 4970 H 494.417 3.83528 4.7512 0
M  V30 4971 H 495.831 5.00158 2.80205 0
M  V30 4972 H 494.228 5.56472 2.24631 0
M  V30 4973 H 495.298 4.71946 1.11333 0
M  V30 4974 N 496.642 -0.504142 1.49319 0
M  V30 4975 C 497.919 -1.26548 1.49147 0
M  V30 4976 C 498.299 -2.09977 0.21744 0
M  V30 4977 O 497.647 -2.14028 -0.800269 0
M  V30 4978 C 497.857 -2.12489 2.76857 0
M  V30 4979 C 499.205 -2.7178 3.26222 0
M  V30 4980 O 500.229 -2.22758 2.77952 0
M  V30 4981 O 499.088 -3.61015 4.10281 0
M  V30 4982 H 496.182 -0.572495 0.596806 0
M  V30 4983 H 498.728 -0.51867 1.61579 0
M  V30 4984 H 497.5 -1.50796 3.61077 0
M  V30 4985 H 497.123 -2.94368 2.6727 0
M  V30 4986 N 498.12 -1.38341 -0.754957 0
M  V30 4987 C 499.03 -1.3769 -1.89944 0
M  V30 4988 C 500.046 -0.274194 -1.71826 0
M  V30 4989 O 501.222 -0.512391 -1.94773 0
M  V30 4990 C 498.287 -1.19938 -3.25293 0
M  V30 4991 C 497.348 -2.40001 -3.55946 0
M  V30 4992 C 496.581 -2.23087 -4.84838 0
M  V30 4993 O 496.804 -1.22386 -5.57116 0
M  V30 4994 O 495.738 -3.11646 -5.14937 0
M  V30 4995 H 499.564 -2.3412 -1.93446 0
M  V30 4996 H 497.149 -1.19246 -0.900044 0
M  V30 4997 H 499.031 -1.12093 -4.06218 0
M  V30 4998 H 497.706 -0.265919 -3.22606 0
M  V30 4999 H 496.613 -2.53421 -2.75188 0
M  V30 5000 H 497.946 -3.31973 -3.63394 0
M  V30 5001 N 499.598 0.982988 -1.23187 0
M  V30 5002 C 500.846 1.72052 -1.06031 0
M  V30 5003 C 501.167 1.90769 0.404019 0
M  V30 5004 O 500.437 1.47446 1.28982 0
M  V30 5005 H 499.017 0.637499 -0.389363 0
M  V30 5006 H 501.679 1.18338 -1.54862 0
M  V30 5007 H 500.775 2.7111 -1.54615 0
M  V30 5008 N 501.076 1.04316 1.18135 0
M  V30 5009 C 502.006 0.657299 2.24058 0
M  V30 5010 C 502.987 -0.340678 1.66654 0
M  V30 5011 O 504.172 -0.220223 1.92947 0
M  V30 5012 C 501.302 0.0220715 3.47293 0
M  V30 5013 C 500.256 0.943857 4.17463 0
M  V30 5014 C 499.582 0.172973 5.3442 0
M  V30 5015 C 500.882 2.26409 4.70677 0
M  V30 5016 H 502.576 1.5428 2.56589 0
M  V30 5017 H 500.122 0.743263 1.23335 0
M  V30 5018 H 502.075 -0.259607 4.206 0
M  V30 5019 H 500.799 -0.898323 3.14003 0
M  V30 5020 H 499.458 1.20996 3.46057 0
M  V30 5021 H 499.106 -0.749907 4.97379 0
M  V30 5022 H 498.806 0.787098 5.82304 0
M  V30 5023 H 500.33 -0.101628 6.10515 0
M  V30 5024 H 501.744 2.04294 5.35665 0
M  V30 5025 H 500.141 2.8314 5.29105 0
M  V30 5026 H 501.211 2.90883 3.87962 0
M  V30 5027 N 502.554 -1.34406 0.822964 0
M  V30 5028 C 503.794 -2.00103 0.416915 0
M  V30 5029 C 504.158 -1.63826 -1.00125 0
M  V30 5030 O 505.359 -2.22367 -1.51018 0
M  V30 5031 C 503.63 -3.52101 0.613151 0
M  V30 5032 S 505.189 -4.37774 0.299956 0
M  V30 5033 H 502.007 -0.69333 0.157527 0
M  V30 5034 H 504.609 -1.63698 1.06879 0
M  V30 5035 H 503.313 -3.75991 1.64496 0
M  V30 5036 H 502.844 -3.93364 -0.0534554 0
M  V30 5037 H 504.859 -4.8822 -0.886336 0
M  V30 5038 N 504.032 -0.577932 -1.46621 0
M  V30 5039 C 505.278 -0.0617793 -2.02706 0
M  V30 5040 C 505.611 1.29294 -1.44903 0
M  V30 5041 O 504.886 1.8461 -0.61232 0
M  V30 5042 C 505.169 0.00911824 -3.60099 0
M  V30 5043 C 505.022 -1.37416 -4.28295 0
M  V30 5044 C 506.341 0.712159 -4.343 0
M  V30 5045 H 503.46 -0.0239246 -0.736612 0
M  V30 5046 H 506.102 -0.744211 -1.74818 0
M  V30 5047 H 504.252 0.590292 -3.83989 0
M  V30 5048 H 505.924 -2.00013 -4.15683 0
M  V30 5049 H 504.167 -1.94319 -3.87843 0
M  V30 5050 H 504.838 -1.27707 -5.37024 0
M  V30 5051 H 507.314 0.218486 -4.15526 0
M  V30 5052 H 506.19 0.730782 -5.44014 0
M  V30 5053 H 506.451 1.77251 -4.05012 0
M  V30 5054 N 505.51 1.54411 -0.315457 0
M  V30 5055 C 506.42 2.27737 0.56329 0
M  V30 5056 C 507.436 1.31787 1.13614 0
M  V30 5057 O 508.612 1.64791 1.15784 0
M  V30 5058 C 505.677 3.01478 1.71207 0
M  V30 5059 C 504.738 4.12997 1.17185 0
M  V30 5060 C 503.971 4.83212 2.26588 0
M  V30 5061 O 504.194 4.52884 3.46775 0
M  V30 5062 O 503.128 5.70299 1.92463 0
M  V30 5063 H 506.954 3.03683 -0.0319614 0
M  V30 5064 H 504.539 1.49178 -0.0814188 0
M  V30 5065 H 506.421 3.47683 2.38106 0
M  V30 5066 H 505.096 2.28414 2.29366 0
M  V30 5067 H 504.003 3.71159 0.468174 0
M  V30 5068 H 505.336 4.8808 0.635501 0
M  V30 5069 N 506.988 0.0434614 1.5754 0
M  V30 5070 C 508.213 -0.645358 1.97104 0
M  V30 5071 C 508.638 -1.64037 0.920521 0
M  V30 5072 O 507.996 -1.80922 -0.11708 0
M  V30 5073 C 508.044 -1.31547 3.35749 0
M  V30 5074 O 507.148 -2.43103 3.33129 0
M  V30 5075 H 506.489 -0.168403 0.64229 0
M  V30 5076 H 509.019 0.109573 2.04306 0
M  V30 5077 H 509.029 -1.66895 3.72304 0
M  V30 5078 H 507.704 -0.586205 4.11748 0
M  V30 5079 H 506.281 -2.0976 3.0831 0
M  V30 5080 N 508.466 -1.55915 -0.229846 0
M  V30 5081 C 509.694 -1.82617 -0.972562 0
M  V30 5082 C 510.109 -0.621488 -1.78278 0
M  V30 5083 O 509.466 0.409956 -1.77836 0
M  V30 5084 C 509.517 -3.0774 -1.89679 0
M  V30 5085 O 509.238 -4.23559 -1.11934 0
M  V30 5086 C 510.739 -3.47368 -2.75409 0
M  V30 5087 H 507.959 -0.60727 -0.285419 0
M  V30 5088 H 510.503 -2.02996 -0.247579 0
M  V30 5089 H 508.658 -2.89361 -2.57583 0
M  V30 5090 H 509.072 -4.94586 -1.74599 0
M  V30 5091 H 510.546 -4.37977 -3.35977 0
M  V30 5092 H 511.023 -2.68737 -3.47386 0
M  V30 5093 H 511.629 -3.68158 -2.12931 0
M  V30 5094 N 509.944 0.496216 -1.49584 0
M  V30 5095 C 510.854 1.62352 -1.69349 0
M  V30 5096 C 511.87 1.64184 -0.576147 0
M  V30 5097 O 513.046 1.82517 -0.85144 0
M  V30 5098 C 510.111 2.98698 -1.76013 0
M  V30 5099 C 509.172 3.07454 -2.99617 0
M  V30 5100 C 508.405 4.37296 -3.05953 0
M  V30 5101 O 508.628 5.2637 -2.19752 0
M  V30 5102 O 507.562 4.51124 -3.9846 0
M  V30 5103 H 511.388 1.48606 -2.64859 0
M  V30 5104 H 508.973 0.673022 -1.33382 0
M  V30 5105 H 510.855 3.79725 -1.82721 0
M  V30 5106 H 509.53 3.12696 -0.836828 0
M  V30 5107 H 508.437 2.25597 -2.98424 0
M  V30 5108 H 509.77 2.98385 -3.91443 0
M  V30 5109 N 511.423 1.38739 0.74761 0
M  V30 5110 C 512.663 1.36695 1.51966 0
M  V30 5111 C 513.027 -0.0411889 1.91956 0
M  V30 5112 O 514.228 -0.186543 2.68152 0
M  V30 5113 C 512.499 2.30119 2.73459 0
M  V30 5114 S 514.058 2.4615 3.63257 0
M  V30 5115 H 510.876 0.484929 0.519966 0
M  V30 5116 H 513.478 1.7472 0.877104 0
M  V30 5117 H 512.182 3.31312 2.422 0
M  V30 5118 H 511.713 1.93265 3.42655 0
M  V30 5119 H 513.728 1.69001 4.66533 0
M  V30 5120 N 512.901 -0.976442 1.23707 0
M  V30 5121 C 514.312 -1.53284 1.06587 0
M  V30 5122 C 514.663 -1.92765 -0.365526 0
M  V30 5123 O 513.788 -1.7645 -1.25277 0
M  V30 5124 C 514.383 -2.78548 1.92864 0
M  V30 5125 C 512.942 -3.30574 1.79994 0
M  V30 5126 C 512.089 -2.03538 1.88328 0
M  V30 5127 H 515.04 -0.795692 1.37311 0
M  V30 5128 H 515.061 -3.5155 1.45577 0
M  V30 5129 H 514.573 -2.49782 2.97037 0
M  V30 5130 H 512.674 -3.64211 0.786202 0
M  V30 5131 H 512.787 -4.00065 2.636 0
M  V30 5132 H 511.151 -2.17853 1.31954 0
M  V30 5133 H 511.934 -1.77149 2.94063 0
M  V30 5134 N 514.379 -1.04941 -1.1758 0
M  V30 5135 C 515.619 -0.766996 -1.89464 0
M  V30 5136 C 515.983 0.693123 -1.79053 0
M  V30 5137 O 517.184 1.08953 -2.45729 0
M  V30 5138 C 515.455 -1.23108 -3.35528 0
M  V30 5139 S 517.014 -1.07565 -4.25412 0
M  V30 5140 H 513.832 -0.278616 -0.654136 0
M  V30 5141 H 516.434 -1.34352 -1.4202 0
M  V30 5142 H 515.138 -2.28896 -3.40639 0
M  V30 5143 H 514.669 -0.648724 -3.88014 0
M  V30 5144 H 516.684 0.00169467 -4.962 0
M  V30 5145 N 515.857 1.33968 -0.830081 0
M  V30 5146 C 517.103 1.98357 -0.422191 0
M  V30 5147 C 517.436 1.65633 1.01387 0
M  V30 5148 O 516.711 0.931648 1.70735 0
M  V30 5149 C 516.994 3.54492 -0.633043 0
M  V30 5150 C 516.847 3.96934 -2.11574 0
M  V30 5151 C 518.166 4.40039 -0.0735584 0
M  V30 5152 H 515.285 0.720544 -0.154871 0
M  V30 5153 H 517.927 1.58749 -1.04397 0
M  V30 5154 H 516.077 3.88361 -0.103775 0
M  V30 5155 H 517.749 3.73363 -2.7092 0
M  V30 5156 H 515.992 3.46984 -2.60354 0
M  V30 5157 H 516.663 5.05651 -2.21406 0
M  V30 5158 H 519.139 4.12764 -0.52585 0
M  V30 5159 H 518.015 5.48327 -0.250841 0
M  V30 5160 H 518.276 4.30124 1.02202 0
M  V30 5161 N 517.335 0.585699 1.46312 0
M  V30 5162 C 518.285 -0.166813 2.27389 0
M  V30 5163 C 519.269 -0.859076 1.36047 0
M  V30 5164 O 520.461 -0.752678 1.60199 0
M  V30 5165 C 517.59 -1.17791 3.2246 0
M  V30 5166 C 516.676 -0.487605 4.21288 0
M  V30 5167 N 517.067 0.45849 5.03718 0
M  V30 5168 C 515.365 -0.737971 4.39852 0
M  V30 5169 C 516.066 0.862213 5.75275 0
M  V30 5170 N 515.042 0.210707 5.43191 0
M  V30 5171 H 518.844 0.560167 2.88512 0
M  V30 5172 H 516.358 0.407715 1.57199 0
M  V30 5173 H 518.355 -1.73122 3.79255 0
M  V30 5174 H 517.015 -1.90568 2.62896 0
M  V30 5175 H 518.026 0.834163 5.11138 0
M  V30 5176 H 514.703 -1.45209 3.91434 0
M  V30 5177 H 516.093 1.64128 6.51546 0
M  V30 5178 N 518.813 -1.54241 0.323641 0
M  V30 5179 C 520.038 -2.05452 -0.283605 0
M  V30 5180 C 520.463 -1.19823 -1.44997 0
M  V30 5181 O 519.821 -0.207358 -1.8011 0
M  V30 5182 C 519.869 -3.53823 -0.695795 0
M  V30 5183 O 518.973 -3.71134 -1.79815 0
M  V30 5184 H 518.314 -0.662024 -0.0511917 0
M  V30 5185 H 520.844 -1.99079 0.472073 0
M  V30 5186 H 520.854 -3.96094 -0.978434 0
M  V30 5187 H 519.529 -4.15602 0.157287 0
M  V30 5188 H 518.106 -3.40768 -1.51431 0
M  V30 5189 N 520.291 -0.0518155 -1.57515 0
M  V30 5190 C 521.539 0.620595 -1.92336 0
M  V30 5191 C 521.86 1.71345 -0.930907 0
M  V30 5192 O 521.13 1.95885 0.0241341 0
M  V30 5193 H 519.71 0.232226 -0.709986 0
M  V30 5194 H 522.372 -0.104969 -1.94617 0
M  V30 5195 H 521.468 1.05879 -2.93592 0
M  V30 5196 N 521.769 1.56035 0.221574 0
M  V30 5197 C 522.716 1.92413 1.27459 0
M  V30 5198 C 523.686 0.781323 1.46576 0
M  V30 5199 O 524.871 1.03721 1.60145 0
M  V30 5200 C 522.011 2.24617 2.61995 0
M  V30 5201 C 521.124 3.51831 2.50677 0
M  V30 5202 C 520.259 3.73482 3.77736 0
M  V30 5203 C 519.298 4.94211 3.6114 0
M  V30 5204 N 518.435 5.12252 4.80148 0
M  V30 5205 H 523.275 2.82203 0.957355 0
M  V30 5206 H 520.812 1.39676 0.461415 0
M  V30 5207 H 522.77 2.41298 3.40339 0
M  V30 5208 H 521.4 1.38 2.91815 0
M  V30 5209 H 520.452 3.43343 1.63767 0
M  V30 5210 H 521.764 4.40328 2.34334 0
M  V30 5211 H 520.918 3.9026 4.64523 0
M  V30 5212 H 519.657 2.83266 3.97003 0
M  V30 5213 H 518.662 4.77384 2.72736 0
M  V30 5214 H 519.887 5.85912 3.43343 0
M  V30 5215 H 517.833 4.24978 4.99729 0
M  V30 5216 H 517.75 5.94881 4.66532 0
M  V30 5217 H 519.018 5.33465 5.68362 0
M  V30 5218 N 523.247 -0.488276 1.49845 0
M  V30 5219 C 524.663 -0.820566 1.3689 0
M  V30 5220 C 524.863 -1.97248 0.411752 0
M  V30 5221 O 523.919 -2.52042 -0.151931 0
M  V30 5222 C 525.232 -1.1488 2.77891 0
M  V30 5223 C 526.78 -1.25626 2.86683 0
M  V30 5224 C 527.255 -1.61772 4.28479 0
M  V30 5225 N 528.746 -1.68797 4.31349 0
M  V30 5226 C 529.481 -1.98235 5.38043 0
M  V30 5227 N 528.977 -2.2581 6.54967 0
M  V30 5228 N 530.77 -1.99593 5.2547 0
M  V30 5229 H 522.921 0.271123 2.10662 0
M  V30 5230 H 525.184 0.058735 0.946179 0
M  V30 5231 H 524.89 -0.375614 3.49688 0
M  V30 5232 H 524.764 -2.08919 3.14058 0
M  V30 5233 H 527.151 -2.02014 2.15114 0
M  V30 5234 H 527.232 -0.296072 2.54081 0
M  V30 5235 H 526.876 -0.859295 5.00578 0
M  V30 5236 H 526.806 -2.58912 4.58554 0
M  V30 5237 H 529.297 -1.49595 3.4703 0
M  V30 5238 H 529.61 -2.47497 7.32096 0
M  V30 5239 H 527.955 -2.23239 6.58171 0
M  V30 5240 H 531.146 -1.77535 4.33127 0
M  V30 5241 H 531.319 -2.222 6.08713 0
M  V30 5242 N 524.725 -1.39134 -0.740242 0
M  V30 5243 C 525.955 -1.39132 -1.52728 0
M  V30 5244 C 526.363 0.0173133 -1.89192 0
M  V30 5245 O 525.706 0.997715 -1.54244 0
M  V30 5246 C 525.768 -2.1952 -2.84695 0
M  V30 5247 C 525.432 -3.68203 -2.70695 0
M  V30 5248 C 526.429 -4.61401 -2.39593 0
M  V30 5249 C 524.114 -4.11724 -2.8773 0
M  V30 5250 C 526.108 -5.96102 -2.25701 0
M  V30 5251 C 523.795 -5.46503 -2.73456 0
M  V30 5252 C 524.793 -6.38506 -2.42486 0
M  V30 5253 O 524.481 -7.70803 -2.28295 0
M  V30 5254 H 524.213 -0.477263 -0.478744 0
M  V30 5255 H 526.767 -1.83504 -0.922799 0
M  V30 5256 H 524.997 -1.69888 -3.47383 0
M  V30 5257 H 526.686 -2.1176 -3.46284 0
M  V30 5258 H 527.452 -4.29079 -2.26088 0
M  V30 5259 H 523.331 -3.4045 -3.10829 0
M  V30 5260 H 526.875 -6.6788 -2.0145 0
M  V30 5261 H 522.772 -5.78417 -2.86538 0
M  V30 5262 H 523.54 -7.8147 -2.43405 0
M  V30 5263 N 526.204 0.969867 -1.24223 0
M  V30 5264 C 527.615 1.52717 -1.07399 0
M  V30 5265 C 527.966 1.92956 0.355298 0
M  V30 5266 O 527.091 1.77112 1.2434 0
M  V30 5267 C 527.686 2.77521 -1.94339 0
M  V30 5268 C 526.245 3.29615 -1.81744 0
M  V30 5269 C 525.392 2.02537 -1.89405 0
M  V30 5270 H 528.343 0.788399 -1.37732 0
M  V30 5271 H 528.364 3.50773 -1.47439 0
M  V30 5272 H 527.876 2.48203 -2.98357 0
M  V30 5273 H 525.977 3.63789 -0.805505 0
M  V30 5274 H 526.09 3.98661 -2.65718 0
M  V30 5275 H 524.454 2.17151 -1.33108 0
M  V30 5276 H 525.237 1.75587 -2.94999 0
M  V30 5277 N 527.682 1.05563 1.17022 0
M  V30 5278 C 529.093 0.793475 1.69 0
M  V30 5279 C 529.444 -0.683882 1.83895 0
M  V30 5280 O 528.569 -1.53116 1.5292 0
M  V30 5281 C 529.164 1.43376 3.06967 0
M  V30 5282 C 527.723 1.21956 3.56095 0
M  V30 5283 C 526.87 1.51494 2.3226 0
M  V30 5284 H 529.821 1.22008 1.01487 0
M  V30 5285 H 529.842 0.845068 3.70997 0
M  V30 5286 H 529.354 2.50899 2.96093 0
M  V30 5287 H 527.455 0.163749 3.7224 0
M  V30 5288 H 527.568 1.92713 4.38633 0
M  V30 5289 H 525.932 0.935175 2.3691 0
M  V30 5290 H 526.715 2.60159 2.23992 0
M  V30 5291 N 529.16 -1.33526 0.837174 0
M  V30 5292 C 530.408 -1.97446 0.431211 0
M  V30 5293 C 530.729 -1.6665 -1.01255 0
M  V30 5294 O 529.999 -0.964559 -1.70508 0
M  V30 5295 H 528.579 -0.73043 0.156463 0
M  V30 5296 H 531.241 -1.62918 1.06976 0
M  V30 5297 H 530.337 -3.07001 0.561877 0
M  V30 5298 N 530.638 -0.59345 -1.46 0
M  V30 5299 C 531.866 -0.0890934 -2.06708 0
M  V30 5300 C 532.281 1.2205 -1.44046 0
M  V30 5301 O 531.638 1.74029 -0.549551 0
M  V30 5302 C 531.689 0.0720263 -3.61428 0
M  V30 5303 O 531.41 -1.18574 -4.21748 0
M  V30 5304 C 532.911 0.609487 -4.3909 0
M  V30 5305 H 530.131 -0.0623628 -0.668096 0
M  V30 5306 H 532.675 -0.817171 -1.87464 0
M  V30 5307 H 530.83 0.750369 -3.80063 0
M  V30 5308 H 531.244 -1.0064 -5.14754 0
M  V30 5309 H 532.718 0.671363 -5.47902 0
M  V30 5310 H 533.195 1.62878 -4.07882 0
M  V30 5311 H 533.801 -0.03434 -4.25286 0
M  V30 5312 N 532.116 1.54067 -0.331816 0
M  V30 5313 C 533.341 2.05599 0.272705 0
M  V30 5314 C 533.766 1.2059 1.44359 0
M  V30 5315 O 533.124 0.216907 1.79998 0
M  V30 5316 C 533.172 3.54188 0.677021 0
M  V30 5317 O 532.276 3.72082 1.77844 0
M  V30 5318 H 531.617 0.662286 0.0476801 0
M  V30 5319 H 534.147 1.98826 -0.482624 0
M  V30 5320 H 534.157 3.96608 0.957415 0
M  V30 5321 H 532.832 4.15513 -0.179325 0
M  V30 5322 H 531.409 3.41566 1.49622 0
M  V30 5323 N 533.594 0.0601682 1.57485 0
M  V30 5324 C 534.524 -0.90889 2.15085 0
M  V30 5325 C 535.505 -1.31838 1.07484 0
M  V30 5326 O 536.69 -1.3915 1.35466 0
M  V30 5327 C 533.82 -2.18059 2.7031 0
M  V30 5328 C 532.774 -1.91088 3.82974 0
M  V30 5329 C 532.1 -3.24789 4.24754 0
M  V30 5330 C 533.4 -1.22535 5.07723 0
M  V30 5331 H 535.094 -0.429093 2.96309 0
M  V30 5332 H 532.64 -0.204952 1.42534 0
M  V30 5333 H 534.593 -2.86258 3.09248 0
M  V30 5334 H 533.317 -2.6826 1.8629 0
M  V30 5335 H 531.976 -1.25297 3.44523 0
M  V30 5336 H 531.624 -3.72809 3.37672 0
M  V30 5337 H 531.324 -3.07538 5.00694 0
M  V30 5338 H 532.848 -3.94205 4.66299 0
M  V30 5339 H 534.262 -1.80783 5.4405 0
M  V30 5340 H 532.659 -1.1558 5.88864 0
M  V30 5341 H 533.729 -0.202692 4.84476 0
M  V30 5342 N 535.072 -1.5615 -0.213296 0
M  V30 5343 C 536.297 -1.83986 -0.957282 0
M  V30 5344 C 536.722 -0.641526 -1.76822 0
M  V30 5345 O 536.08 0.409722 -1.7661 0
M  V30 5346 C 536.128 -3.09889 -1.84393 0
M  V30 5347 O 535.232 -2.89163 -2.94038 0
M  V30 5348 H 534.573 -0.606357 -0.270605 0
M  V30 5349 H 537.103 -2.03369 -0.224111 0
M  V30 5350 H 537.113 -3.40209 -2.25215 0
M  V30 5351 H 535.788 -3.96735 -1.24795 0
M  V30 5352 H 534.365 -2.70097 -2.57103 0
M  V30 5353 N 536.55 0.480323 -1.50102 0
M  V30 5354 C 537.966 0.813295 -1.37323 0
M  V30 5355 C 538.166 1.97027 -0.422206 0
M  V30 5356 O 537.222 2.5212 0.138563 0
M  V30 5357 C 538.535 1.13404 -2.78496 0
M  V30 5358 C 540.083 1.24104 -2.87345 0
M  V30 5359 C 540.558 1.59497 -4.29331 0
M  V30 5360 N 542.049 1.66507 -4.32238 0
M  V30 5361 C 542.784 1.95378 -5.39087 0
M  V30 5362 N 542.28 2.22333 -6.56155 0
M  V30 5363 N 544.073 1.96803 -5.26522 0
M  V30 5364 H 536.224 -0.282291 -2.10516 0
M  V30 5365 H 538.487 -0.063752 -0.945854 0
M  V30 5366 H 538.193 0.357064 -3.49883 0
M  V30 5367 H 538.067 2.07251 -3.15162 0
M  V30 5368 H 540.454 2.00871 -2.16183 0
M  V30 5369 H 540.535 0.282593 -2.54234 0
M  V30 5370 H 540.179 0.832736 -5.01027 0
M  V30 5371 H 540.109 2.56477 -4.59921 0
M  V30 5372 H 542.6 1.47753 -3.47818 0
M  V30 5373 H 542.913 2.43611 -7.33399 0
M  V30 5374 H 541.258 2.19745 -6.59346 0
M  V30 5375 H 544.449 1.75235 -4.34062 0
M  V30 5376 H 544.622 2.18969 -6.09883 0
M  V30 5377 N 538.028 1.39524 0.732853 0
M  V30 5378 C 539.305 1.27373 1.48444 0
M  V30 5379 C 539.685 -0.115725 2.10783 0
M  V30 5380 O 539.033 -1.12713 1.98766 0
M  V30 5381 C 539.243 2.39966 2.53412 0
M  V30 5382 C 540.591 2.79384 3.19733 0
M  V30 5383 O 541.615 2.39431 2.63725 0
M  V30 5384 O 540.474 3.48353 4.21085 0
M  V30 5385 H 537.568 0.499272 0.659285 0
M  V30 5386 H 540.114 1.51403 0.766496 0
M  V30 5387 H 538.886 3.32845 2.05742 0
M  V30 5388 H 538.509 2.17612 3.32762 0
M  V30 5389 N 539.506 -0.963266 1.24736 0
M  V30 5390 C 540.746 -1.72172 1.10165 0
M  V30 5391 C 541.11 -1.88731 -0.352784 0
M  V30 5392 O 542.311 -2.61549 -0.620107 0
M  V30 5393 C 540.582 -3.0724 1.82589 0
M  V30 5394 S 542.141 -3.98449 1.83803 0
M  V30 5395 H 538.959 -0.591901 0.393922 0
M  V30 5396 H 541.561 -1.14955 1.58132 0
M  V30 5397 H 540.265 -2.92851 2.87518 0
M  V30 5398 H 539.796 -3.69521 1.34973 0
M  V30 5399 H 541.811 -4.87805 0.908883 0
M  V30 5400 N 540.985 -1.06182 -1.16461 0
M  V30 5401 C 541.933 -0.665716 -2.2287 0
M  V30 5402 C 542.927 0.317822 -1.66392 0
M  V30 5403 O 544.133 0.182807 -1.79069 0
M  V30 5404 H 540.508 -0.197148 -0.725697 0
M  V30 5405 H 542.479 -1.57307 -2.53569 0
M  V30 5406 C 541.228 -0.0669803 -3.47635 0
M  V30 5407 H 540.551 -0.814899 -3.91407 0
M  V30 5408 H 541.991 0.172669 -4.23648 0
M  V30 5409 C 540.45 1.18913 -3.15216 0
M  V30 5410 O 540.98 2.27723 -3.30916 0
M  V30 5411 N 539.186 1.09066 -2.69357 0
M  V30 5412 H 538.733 0.20518 -2.56782 0
M  V30 5413 H 538.691 1.93195 -2.48039 0
M  V30 5414 N 542.463 1.3308 -0.844243 0
M  V30 5415 C 543.691 2.01808 -0.456203 0
M  V30 5416 C 544.106 1.63498 0.944131 0
M  V30 5417 O 543.463 0.85102 1.61443 0
M  V30 5418 C 543.514 3.56922 -0.573513 0
M  V30 5419 O 543.235 3.93851 -1.91868 0
M  V30 5420 C 544.736 4.42922 -0.183125 0
M  V30 5421 H 541.956 0.646273 -0.180477 0
M  V30 5422 H 544.5 1.69891 -1.1383 0
M  V30 5423 H 542.655 3.87352 0.0607367 0
M  V30 5424 H 543.069 4.88564 -1.90802 0
M  V30 5425 H 544.543 5.51093 -0.316241 0
M  V30 5426 H 545.02 4.30386 0.875477 0
M  V30 5427 H 545.626 4.1786 -0.792027 0
M  V30 5428 N 543.941 0.601185 1.45683 0
M  V30 5429 C 545.181 0.0968037 2.04171 0
M  V30 5430 C 545.545 -1.2466 1.46027 0
M  V30 5431 O 546.746 -1.84132 1.95829 0
M  V30 5432 C 545.017 0.051384 3.57363 0
M  V30 5433 S 546.576 -0.392737 4.37039 0
M  V30 5434 H 543.394 0.0464504 0.709481 0
M  V30 5435 H 545.996 0.797846 1.78479 0
M  V30 5436 H 544.7 1.03274 3.97193 0
M  V30 5437 H 544.231 -0.671853 3.87621 0
M  V30 5438 H 546.246 -1.64364 4.68187 0
M  V30 5439 N 545.419 -1.53889 0.339982 0
M  V30 5440 C 546.668 -2.00035 -0.258604 0
M  V30 5441 C 546.981 -1.23179 -1.51942 0
M  V30 5442 O 548.187 -1.59784 -2.19503 0
M  V30 5443 C 546.643 -3.56249 -0.511359 0
M  V30 5444 C 546.251 -4.41957 0.733349 0
M  V30 5445 C 547.995 -4.1082 -1.069 0
M  V30 5446 C 545.902 -5.89673 0.451591 0
M  V30 5447 H 544.832 -0.747284 -0.10041 0
M  V30 5448 H 547.483 -1.77776 0.454758 0
M  V30 5449 H 545.865 -3.7456 -1.28533 0
M  V30 5450 H 547.039 -4.35421 1.50815 0
M  V30 5451 H 545.354 -3.9836 1.21237 0
M  V30 5452 H 547.951 -5.18789 -1.2947 0
M  V30 5453 H 548.294 -3.63817 -2.02343 0
M  V30 5454 H 548.827 -3.96205 -0.355817 0
M  V30 5455 H 545.566 -6.40903 1.37565 0
M  V30 5456 H 545.086 -5.99122 -0.285193 0
M  V30 5457 H 546.765 -6.46965 0.0675067 0
M  V30 5458 N 546.897 -0.0685191 -1.57451 0
M  V30 5459 C 548.137 0.605038 -1.9524 0
M  V30 5460 C 548.501 1.66974 -0.947816 0
M  V30 5461 O 549.702 2.39862 -1.21325 0
M  V30 5462 C 547.973 1.16999 -3.37707 0
M  V30 5463 S 549.532 1.85913 -3.97469 0
M  V30 5464 H 546.35 0.198203 -0.682815 0
M  V30 5465 H 548.952 -0.141594 -1.94987 0
M  V30 5466 H 547.656 0.383205 -4.08607 0
M  V30 5467 H 547.187 1.95305 -3.41496 0
M  V30 5468 H 549.202 3.14128 -3.84107 0
M  V30 5469 N 548.375 1.56261 0.205012 0
M  V30 5470 C 549.791 1.49623 0.555433 0
M  V30 5471 C 549.991 0.766719 1.86343 0
M  V30 5472 O 549.047 0.313158 2.50551 0
M  V30 5473 C 550.36 2.94253 0.619347 0
M  V30 5474 C 551.908 3.04868 0.708855 0
M  V30 5475 C 552.383 4.50888 0.803969 0
M  V30 5476 N 553.874 4.54999 0.867758 0
M  V30 5477 C 554.609 5.65284 0.96135 0
M  V30 5478 N 554.105 6.85282 1.01786 0
M  V30 5479 N 555.898 5.53174 0.997771 0
M  V30 5480 H 548.049 2.0211 -0.653094 0
M  V30 5481 H 550.312 0.919333 -0.231366 0
M  V30 5482 H 550.018 3.50643 -0.272458 0
M  V30 5483 H 549.892 3.47063 1.47741 0
M  V30 5484 H 552.279 2.48532 1.5911 0
M  V30 5485 H 552.36 2.55199 -0.175205 0
M  V30 5486 H 552.004 5.07846 -0.0738798 0
M  V30 5487 H 551.934 4.98279 1.70369 0
M  V30 5488 H 554.425 3.68588 0.833735 0
M  V30 5489 H 554.738 7.65081 1.08951 0
M  V30 5490 H 553.083 6.8796 0.986706 0
M  V30 5491 H 556.274 4.5835 0.950392 0
M  V30 5492 H 556.447 6.39151 1.06725 0
M  V30 5493 N 549.853 -0.472356 1.50355 0
M  V30 5494 C 550.801 -1.59126 1.69651 0
M  V30 5495 C 551.795 -1.59793 0.56237 0
M  V30 5496 O 553.001 -1.63957 0.742832 0
M  V30 5497 H 549.376 -0.528008 0.535454 0
M  V30 5498 H 551.347 -1.40013 2.63513 0
M  V30 5499 C 550.096 -2.97075 1.8067 0
M  V30 5500 H 549.419 -2.9728 2.67329 0
M  V30 5501 H 550.859 -3.74825 1.98197 0
M  V30 5502 C 549.318 -3.32247 0.558016 0
M  V30 5503 O 549.848 -4.00553 -0.303399 0
M  V30 5504 N 548.054 -2.87659 0.412415 0
M  V30 5505 H 547.601 -2.32246 1.11443 0
M  V30 5506 H 547.559 -3.11556 -0.421908 0
M  V30 5507 N 551.331 -1.39911 -0.725443 0
M  V30 5508 C 552.556 -1.41137 -1.5197 0
M  V30 5509 C 552.981 -0.010262 -1.88097 0
M  V30 5510 O 552.339 0.979184 -1.52583 0
M  V30 5511 C 552.387 -2.2994 -2.77777 0
M  V30 5512 O 551.491 -1.73586 -3.74088 0
M  V30 5513 H 550.832 -0.480219 -0.458569 0
M  V30 5514 H 553.362 -1.84023 -0.894249 0
M  V30 5515 H 553.372 -2.44785 -3.26411 0
M  V30 5516 H 552.047 -3.31759 -2.50816 0
M  V30 5517 H 550.624 -1.68035 -3.32894 0
M  V30 5518 N 552.809 0.956637 -1.25245 0
M  V30 5519 C 553.741 2.05628 -1.01242 0
M  V30 5520 C 554.754 1.62785 0.0219579 0
M  V30 5521 O 555.943 1.77184 -0.216365 0
M  V30 5522 C 553.043 3.35069 -0.508161 0
M  V30 5523 C 552.216 4.06761 -1.60823 0
M  V30 5524 C 551.275 5.14473 -1.1047 0
M  V30 5525 O 550.301 5.40033 -1.79868 0
M  V30 5526 N 551.503 5.80474 0.0550773 0
M  V30 5527 H 554.268 2.2679 -1.95925 0
M  V30 5528 H 551.829 1.12505 -1.16423 0
M  V30 5529 H 553.821 4.044 -0.155819 0
M  V30 5530 H 552.391 3.10694 0.344683 0
M  V30 5531 H 551.611 3.31555 -2.13224 0
M  V30 5532 H 552.899 4.51418 -2.34733 0
M  V30 5533 H 552.297 5.62125 0.635004 0
M  V30 5534 H 550.854 6.50868 0.348469 0
M  V30 5535 N 554.287 1.06798 1.15896 0
M  V30 5536 C 555.533 0.798757 1.8706 0
M  V30 5537 C 555.888 -0.667739 1.80441 0
M  V30 5538 O 555.181 -1.48334 1.21274 0
M  V30 5539 C 555.375 1.23414 3.35416 0
M  V30 5540 C 555.204 2.74142 3.56478 0
M  V30 5541 C 553.974 3.41675 3.72272 0
M  V30 5542 C 556.172 3.72348 3.5477 0
M  V30 5543 N 554.154 4.81101 3.81333 0
M  V30 5544 C 555.525 4.97585 3.69877 0
M  V30 5545 C 557.58 3.65585 3.38011 0
M  V30 5546 C 556.283 6.16866 3.69959 0
M  V30 5547 C 558.309 4.84323 3.39389 0
M  V30 5548 C 557.671 6.08391 3.5502 0
M  V30 5549 H 553.77 0.344761 0.7019 0
M  V30 5550 H 556.354 1.36314 1.3902 0
M  V30 5551 H 554.525 0.697522 3.82085 0
M  V30 5552 H 556.257 0.91304 3.94266 0
M  V30 5553 H 553.012 2.92078 3.7281 0
M  V30 5554 H 553.436 5.53647 3.8962 0
M  V30 5555 H 558.078 2.70615 3.2485 0
M  V30 5556 H 555.796 7.12164 3.819 0
M  V30 5557 H 559.382 4.80762 3.27658 0
M  V30 5558 H 558.262 6.98731 3.56012 0
M  V30 5559 N 555.766 -1.3263 0.851289 0
M  V30 5560 C 557.015 -1.96633 0.449267 0
M  V30 5561 C 557.328 -1.68131 -0.999562 0
M  V30 5562 O 558.534 -2.25845 -1.50685 0
M  V30 5563 C 556.99 -3.51946 0.752446 0
M  V30 5564 C 556.598 -3.89311 2.21678 0
M  V30 5565 C 558.342 -4.22437 0.417983 0
M  V30 5566 C 556.249 -5.37655 2.46336 0
M  V30 5567 H 555.179 -0.735888 0.164269 0
M  V30 5568 H 557.83 -1.51073 1.0416 0
M  V30 5569 H 556.212 -3.95899 0.0895858 0
M  V30 5570 H 557.386 -3.56378 2.92115 0
M  V30 5571 H 555.701 -3.31836 2.51543 0
M  V30 5572 H 558.298 -5.31549 0.579674 0
M  V30 5573 H 558.641 -4.11349 -0.640115 0
M  V30 5574 H 559.174 -3.84057 1.03659 0
M  V30 5575 H 555.913 -5.5376 3.50757 0
M  V30 5576 H 555.433 -5.72005 1.80473 0
M  V30 5577 H 557.112 -6.04695 2.30115 0
M  V30 5578 N 557.244 -0.608902 -1.45362 0
M  V30 5579 C 558.484 -0.10763 -2.04116 0
M  V30 5580 C 558.848 1.23883 -1.46686 0
M  V30 5581 O 560.049 1.83091 -1.96803 0
M  V30 5582 C 558.32 -0.0703351 -3.57331 0
M  V30 5583 S 559.879 0.369554 -4.37241 0
M  V30 5584 H 556.697 -0.0502123 -0.709225 0
M  V30 5585 H 559.299 -0.8073 -1.78053 0
M  V30 5586 H 558.003 -1.05379 -3.9664 0
M  V30 5587 H 557.534 0.651287 -3.87971 0
M  V30 5588 H 559.549 1.61878 -4.69052 0
M  V30 5589 N 558.722 1.53707 -0.348139 0
M  V30 5590 C 559.947 2.05877 0.250883 0
M  V30 5591 C 560.372 1.22115 1.43072 0
M  V30 5592 O 559.73 0.235986 1.79758 0
M  V30 5593 C 559.778 3.54886 0.639416 0
M  V30 5594 O 558.882 3.73948 1.73888 0
M  V30 5595 H 558.223 0.662754 0.040653 0
M  V30 5596 H 560.753 1.98303 -0.503685 0
M  V30 5597 H 560.763 3.97601 0.915295 0
M  V30 5598 H 559.438 4.153 -0.223386 0
M  V30 5599 H 558.015 3.43134 1.45991 0
M  V30 5600 N 560.2 0.0768682 1.57412 0
M  V30 5601 C 561.148 -0.906229 2.1422 0
M  V30 5602 C 562.142 -1.30477 1.08037 0
M  V30 5603 O 563.348 -1.28143 1.2641 0
M  V30 5604 H 559.723 -0.310207 0.685037 0
M  V30 5605 H 561.694 -0.402228 2.95677 0
M  V30 5606 C 560.443 -2.16245 2.72274 0
M  V30 5607 H 559.766 -1.86463 3.53655 0
M  V30 5608 H 561.206 -2.83134 3.15613 0
M  V30 5609 C 559.665 -2.92437 1.67279 0
M  V30 5610 O 560.195 -3.86322 1.10081 0
M  V30 5611 N 558.401 -2.55637 1.38195 0
M  V30 5612 H 557.948 -1.79363 1.84897 0
M  V30 5613 H 557.906 -3.06919 0.681787 0
M  V30 5614 N 561.678 -1.56367 -0.196722 0
M  V30 5615 C 562.588 -1.97617 -1.2643 0
M  V30 5616 C 563.604 -0.883598 -1.49895 0
M  V30 5617 O 564.78 -1.18921 -1.62541 0
M  V30 5618 C 561.845 -2.30595 -2.58895 0
M  V30 5619 C 560.906 -3.53551 -2.43516 0
M  V30 5620 C 560.139 -3.84946 -3.69665 0
M  V30 5621 O 560.362 -3.17655 -4.73763 0
M  V30 5622 O 559.296 -4.78379 -3.65291 0
M  V30 5623 H 563.122 -2.88648 -0.944233 0
M  V30 5624 H 560.707 -1.43901 -0.401592 0
M  V30 5625 H 562.589 -2.52889 -3.37083 0
M  V30 5626 H 561.264 -1.42732 -2.90533 0
M  V30 5627 H 560.171 -3.36507 -1.63445 0
M  V30 5628 H 561.504 -4.41875 -2.16812 0
M  V30 5629 N 563.156 0.464375 -1.50603 0
M  V30 5630 C 564.066 1.58723 -1.72754 0
M  V30 5631 C 565.082 1.62925 -0.610844 0
M  V30 5632 O 566.258 1.8067 -0.889963 0
M  V30 5633 C 563.323 2.94897 -1.82309 0
M  V30 5634 C 562.384 3.0103 -3.06071 0
M  V30 5635 C 561.617 4.30708 -3.1516 0
M  V30 5636 O 561.84 5.2159 -2.30868 0
M  V30 5637 O 560.774 4.42571 -4.0794 0
M  V30 5638 H 564.6 1.42954 -2.67951 0
M  V30 5639 H 562.185 0.644579 -1.3478 0
M  V30 5640 H 564.067 3.75764 -1.90735 0
M  V30 5641 H 562.742 3.10851 -0.902967 0
M  V30 5642 H 561.649 2.19217 -3.03142 0
M  V30 5643 H 562.982 2.90014 -3.97684 0
M  V30 5644 N 564.634 1.40294 0.718013 0
M  V30 5645 C 565.874 1.39888 1.49032 0
M  V30 5646 C 566.238 -0.000462935 1.92 0
M  V30 5647 O 567.439 -0.129622 2.68487 0
M  V30 5648 C 565.71 2.35868 2.68516 0
M  V30 5649 S 567.269 2.53799 3.57954 0
M  V30 5650 H 564.087 0.495849 0.509563 0
M  V30 5651 H 566.689 1.76541 0.839846 0
M  V30 5652 H 565.393 3.36375 2.35117 0
M  V30 5653 H 564.924 2.0049 3.38478 0
M  V30 5654 H 566.939 1.78859 4.62843 0
M  V30 5655 N 566.112 -0.949982 1.2575 0
M  V30 5656 C 567.523 -1.50989 1.09815 0
M  V30 5657 C 567.874 -1.93497 -0.324556 0
M  V30 5658 O 566.999 -1.79068 -1.21506 0
M  V30 5659 C 567.594 -2.74394 1.98729 0
M  V30 5660 C 566.153 -3.26682 1.86965 0
M  V30 5661 C 565.3 -1.99498 1.92603 0
M  V30 5662 H 568.251 -0.766387 1.38968 0
M  V30 5663 H 568.272 -3.48383 1.53001 0
M  V30 5664 H 567.784 -2.43425 3.02268 0
M  V30 5665 H 565.885 -3.62461 0.863279 0
M  V30 5666 H 565.998 -3.94383 2.72027 0
M  V30 5667 H 564.362 -2.15005 1.36546 0
M  V30 5668 H 565.145 -1.70871 2.97755 0
M  V30 5669 N 567.59 -1.07411 -1.15328 0
M  V30 5670 C 568.838 -0.796073 -1.85761 0
M  V30 5671 C 569.159 0.679864 -1.82764 0
M  V30 5672 O 568.429 1.49242 -1.269 0
M  V30 5673 H 567.009 -0.291495 -0.687779 0
M  V30 5674 H 569.671 -1.35799 -1.39802 0
M  V30 5675 H 568.767 -1.13114 -2.90881 0
M  V30 5676 N 569.068 1.32177 -0.85831 0
M  V30 5677 C 569.978 2.32561 -0.308606 0
M  V30 5678 C 570.994 1.64209 0.575462 0
M  V30 5679 O 572.17 1.95719 0.474961 0
M  V30 5680 C 569.235 3.43207 0.490909 0
M  V30 5681 C 568.296 4.27243 -0.419733 0
M  V30 5682 C 567.529 5.32605 0.341719 0
M  V30 5683 O 567.752 5.48332 1.57125 0
M  V30 5684 O 566.686 6.0118 -0.294379 0
M  V30 5685 H 570.512 2.81477 -1.14037 0
M  V30 5686 H 568.097 1.35866 -0.621349 0
M  V30 5687 H 569.979 4.10677 0.944574 0
M  V30 5688 H 568.654 2.96474 1.29941 0
M  V30 5689 H 567.561 3.62569 -0.921652 0
M  V30 5690 H 568.894 4.7751 -1.19352 0
M  V30 5691 N 570.547 0.616602 1.45037 0
M  V30 5692 C 571.787 0.118453 2.04056 0
M  V30 5693 C 572.151 -1.23104 1.47341 0
M  V30 5694 O 573.352 -1.82044 1.97771 0
M  V30 5695 C 571.623 0.0892842 3.57288 0
M  V30 5696 S 573.182 -0.346361 4.37431 0
M  V30 5697 H 570 0.0539728 0.708948 0
M  V30 5698 H 572.602 0.816731 1.77623 0
M  V30 5699 H 571.306 1.07481 3.96076 0
M  V30 5700 H 570.837 -0.630703 3.88311 0
M  V30 5701 H 572.852 -1.59389 4.69904 0
M  V30 5702 N 572.025 -1.5352 0.356285 0
M  V30 5703 C 572.955 -2.28372 -0.486661 0
M  V30 5704 C 573.936 -1.30432 -1.09185 0
M  V30 5705 O 575.121 -1.59291 -1.11085 0
M  V30 5706 C 572.251 -3.06604 -1.63129 0
M  V30 5707 C 571.205 -4.12154 -1.15381 0
M  V30 5708 C 570.531 -4.78415 -2.38796 0
M  V30 5709 C 571.831 -5.21724 -0.245179 0
M  V30 5710 H 573.525 -2.99083 0.137797 0
M  V30 5711 H 571.071 -1.43841 0.0677134 0
M  V30 5712 H 573.024 -3.57712 -2.22755 0
M  V30 5713 H 571.748 -2.33568 -2.28284 0
M  V30 5714 H 570.407 -3.61978 -0.580294 0
M  V30 5715 H 570.055 -4.01959 -3.02387 0
M  V30 5716 H 569.755 -5.49734 -2.07524 0
M  V30 5717 H 571.279 -5.32313 -2.99125 0
M  V30 5718 H 572.693 -5.68391 -0.748646 0
M  V30 5719 H 571.09 -6.00095 -0.0237608 0
M  V30 5720 H 572.16 -4.79596 0.715229 0
M  V30 5721 N 573.503 -0.0852151 -1.57369 0
M  V30 5722 C 574.749 0.581666 -1.94279 0
M  V30 5723 C 575.082 1.68444 -0.966446 0
M  V30 5724 O 574.357 1.945 0.00215277 0
M  V30 5725 C 574.64 1.14609 -3.41375 0
M  V30 5726 C 574.493 0.0490414 -4.49773 0
M  V30 5727 C 575.812 2.04751 -3.8957 0
M  V30 5728 H 572.931 0.209972 -0.706456 0
M  V30 5729 H 575.573 -0.153915 -1.89376 0
M  V30 5730 H 573.723 1.77297 -3.45685 0
M  V30 5731 H 575.395 -0.584721 -4.57579 0
M  V30 5732 H 573.638 -0.618638 -4.29366 0
M  V30 5733 H 574.309 0.484601 -5.49869 0
M  V30 5734 H 576.785 1.51981 -3.87351 0
M  V30 5735 H 575.661 2.41173 -4.93079 0
M  V30 5736 H 575.922 2.96107 -3.28288 0
M  V30 5737 N 574.981 1.5647 0.188427 0
M  V30 5738 C 576.209 1.85131 0.923803 0
M  V30 5739 C 576.624 0.668537 1.76567 0
M  V30 5740 O 575.981 -0.362662 1.7886 0
M  V30 5741 C 576.032 3.12661 1.81453 0
M  V30 5742 O 575.753 4.26378 1.00665 0
M  V30 5743 C 577.254 3.54548 2.66103 0
M  V30 5744 H 574.474 0.614624 0.269218 0
M  V30 5745 H 577.018 2.03581 0.193671 0
M  V30 5746 H 575.173 2.96088 2.49821 0
M  V30 5747 H 575.587 4.99041 1.61425 0
M  V30 5748 H 577.061 4.4673 3.24247 0
M  V30 5749 H 577.538 2.77853 3.40139 0
M  V30 5750 H 578.144 3.73674 2.03096 0
M  V30 5751 N 576.459 -0.456382 1.50847 0
M  V30 5752 C 577.707 -1.20497 1.62249 0
M  V30 5753 C 578.028 -1.92156 0.331839 0
M  V30 5754 O 577.298 -1.84751 -0.651443 0
M  V30 5755 H 575.878 -0.447775 0.597918 0
M  V30 5756 H 578.54 -0.525099 1.87693 0
M  V30 5757 H 577.636 -1.94492 2.44089 0
M  V30 5758 N 577.937 -1.40673 -0.710563 0
M  V30 5759 C 578.869 -1.37256 -1.83558 0
M  V30 5760 C 579.882 -0.277133 -1.60424 0
M  V30 5761 O 581.071 -0.537831 -1.70205 0
M  V30 5762 C 578.171 -1.1144 -3.20054 0
M  V30 5763 C 577.344 -2.32734 -3.70342 0
M  V30 5764 C 576.403 -2.03002 -4.85465 0
M  V30 5765 O 575.429 -2.75912 -4.97857 0
M  V30 5766 N 576.631 -1.01105 -5.71627 0
M  V30 5767 H 579.396 -2.34215 -1.86985 0
M  V30 5768 H 576.957 -1.35091 -0.892301 0
M  V30 5769 H 578.949 -0.895265 -3.94673 0
M  V30 5770 H 577.519 -0.231307 -3.11743 0
M  V30 5771 H 576.739 -2.70446 -2.86798 0
M  V30 5772 H 578.027 -3.13584 -4.00678 0
M  V30 5773 H 577.425 -0.407303 -5.64232 0
M  V30 5774 H 575.982 -0.85182 -6.4621 0
M  V30 5775 N 579.415 0.9433 -1.26252 0
M  V30 5776 C 580.64 1.72898 -1.14547 0
M  V30 5777 C 581.065 1.85761 0.295743 0
M  V30 5778 O 580.423 1.3463 1.21427 0
M  V30 5779 C 580.471 3.11471 -1.8171 0
M  V30 5780 O 579.575 3.97336 -1.10445 0
M  V30 5781 H 578.916 0.530555 -0.399259 0
M  V30 5782 H 581.446 1.18159 -1.67032 0
M  V30 5783 H 581.456 3.61872 -1.88449 0
M  V30 5784 H 580.131 3.01425 -2.86558 0
M  V30 5785 H 578.708 3.55788 -1.11666 0
M  V30 5786 N 580.893 1.08022 1.14757 0
M  V30 5787 C 581.843 0.676345 2.17737 0
M  V30 5788 C 582.827 -0.302018 1.5804 0
M  V30 5789 O 584.019 -0.11466 1.76628 0
M  V30 5790 C 581.148 0.082984 3.432 0
M  V30 5791 C 580.234 1.0869 4.09936 0
M  V30 5792 N 580.625 2.26891 4.52055 0
M  V30 5793 C 578.923 0.921768 4.36371 0
M  V30 5794 C 579.624 2.90636 5.0389 0
M  V30 5795 N 578.6 2.18266 4.97856 0
M  V30 5796 H 582.402 1.5765 2.4804 0
M  V30 5797 H 579.916 0.954374 1.31398 0
M  V30 5798 H 581.913 -0.224289 4.16296 0
M  V30 5799 H 580.573 -0.812206 3.14378 0
M  V30 5800 H 581.584 2.6457 4.45223 0
M  V30 5801 H 578.261 0.0800499 4.17423 0
M  V30 5802 H 579.651 3.9104 5.46386 0
M  V30 5803 N 582.371 -1.3172 0.865308 0
M  V30 5804 C 583.618 -1.96876 0.473931 0
M  V30 5805 C 583.946 -1.68425 -0.972786 0
M  V30 5806 O 583.201 -0.970742 -1.69927 0
M  V30 5807 C 583.5 -3.5102 0.672283 0
M  V30 5808 C 583.166 -3.9948 2.09108 0
M  V30 5809 C 581.828 -4.12425 2.4791 0
M  V30 5810 C 584.18 -4.2503 3.0166 0
M  V30 5811 C 581.508 -4.48267 3.78515 0
M  V30 5812 C 583.86 -4.62335 4.31774 0
M  V30 5813 C 582.524 -4.73486 4.70497 0
M  V30 5814 H 581.794 -0.72042 0.173424 0
M  V30 5815 H 584.441 -1.56937 1.0974 0
M  V30 5816 H 582.746 -3.91785 -0.034356 0
M  V30 5817 H 584.443 -3.99475 0.349353 0
M  V30 5818 H 581.033 -3.89898 1.77981 0
M  V30 5819 H 585.217 -4.14529 2.7291 0
M  V30 5820 H 580.473 -4.55097 4.08285 0
M  V30 5821 H 584.647 -4.81058 5.03543 0
M  V30 5822 H 582.274 -5.01016 5.71741 0
M  V30 5823 N 583.85 -0.624285 -1.44708 0
M  V30 5824 C 584.797 0.0847135 -2.30644 0
M  V30 5825 C 585.767 0.843575 -1.43084 0
M  V30 5826 O 586.952 0.825982 -1.71995 0
M  V30 5827 C 584.091 1.06495 -3.28257 0
M  V30 5828 C 583.205 0.305224 -4.3092 0
M  V30 5829 C 582.34 1.27667 -5.1563 0
M  V30 5830 C 581.379 0.505706 -6.10007 0
M  V30 5831 N 580.516 1.42727 -6.8744 0
M  V30 5832 H 585.356 -0.654068 -2.90733 0
M  V30 5833 H 582.893 -0.334334 -1.4325 0
M  V30 5834 H 584.851 1.64658 -3.83332 0
M  V30 5835 H 583.481 1.77094 -2.69884 0
M  V30 5836 H 582.533 -0.392207 -3.78373 0
M  V30 5837 H 583.845 -0.295553 -4.97924 0
M  V30 5838 H 582.999 1.92984 -5.75189 0
M  V30 5839 H 581.738 1.91137 -4.48685 0
M  V30 5840 H 580.743 -0.160999 -5.49564 0
M  V30 5841 H 581.968 -0.124183 -6.78986 0
M  V30 5842 H 579.913 2.04931 -6.23169 0
M  V30 5843 H 579.831 0.880345 -7.50857 0
M  V30 5844 H 581.099 2.0695 -7.51526 0
M  V30 5845 N 585.328 1.53329 -0.364422 0
M  V30 5846 C 586.553 2.06132 0.229033 0
M  V30 5847 C 586.978 1.23625 1.41769 0
M  V30 5848 O 586.336 0.255038 1.79497 0
M  V30 5849 C 586.384 3.55544 0.60174 0
M  V30 5850 O 585.488 3.75771 1.69912 0
M  V30 5851 H 584.829 0.663148 0.0336213 0
M  V30 5852 H 587.359 1.97758 -0.524689 0
M  V30 5853 H 587.369 3.98549 0.873073 0
M  V30 5854 H 586.044 4.15039 -0.267421 0
M  V30 5855 H 584.621 3.44663 1.42343 0
M  V30 5856 N 586.806 0.0935595 1.57322 0
M  V30 5857 C 588.053 -0.570509 1.94297 0
M  V30 5858 C 588.381 -1.68286 0.97519 0
M  V30 5859 O 587.636 -1.95699 -0.00548655 0
M  V30 5860 C 587.935 -1.16692 3.37813 0
M  V30 5861 C 587.601 -0.178509 4.50547 0
M  V30 5862 C 586.263 0.0933475 4.81109 0
M  V30 5863 C 588.615 0.496472 5.1883 0
M  V30 5864 C 585.943 1.0469 5.77284 0
M  V30 5865 C 588.295 1.43849 6.16028 0
M  V30 5866 C 586.959 1.71859 6.44997 0
M  V30 5867 H 586.229 -0.208764 0.710984 0
M  V30 5868 H 588.876 0.169066 1.90752 0
M  V30 5869 H 587.181 -1.98271 3.37929 0
M  V30 5870 H 588.878 -1.6884 3.63722 0
M  V30 5871 H 585.468 -0.400584 4.26724 0
M  V30 5872 H 589.652 0.299584 4.95395 0
M  V30 5873 H 584.908 1.27094 5.98044 0
M  V30 5874 H 589.082 1.96734 6.68034 0
M  V30 5875 H 586.709 2.45906 7.19329 0
M  V30 5876 N 588.284 -1.56567 -0.180126 0
M  V30 5877 C 589.561 -1.7235 -0.924931 0
M  V30 5878 C 589.941 -0.652523 -2.00762 0
M  V30 5879 O 589.289 0.334115 -2.26044 0
M  V30 5880 C 589.499 -3.1523 -1.49771 0
M  V30 5881 C 590.847 -3.75921 -1.97405 0
M  V30 5882 O 591.871 -3.18452 -1.59583 0
M  V30 5883 O 590.73 -4.7681 -2.67048 0
M  V30 5884 H 587.824 -0.703502 -0.434758 0
M  V30 5885 H 590.37 -1.6886 -0.168647 0
M  V30 5886 H 589.142 -3.84656 -0.718027 0
M  V30 5887 H 588.765 -3.23009 -2.31842 0
M  V30 5888 N 589.762 0.448376 -1.51087 0
M  V30 5889 C 590.71 1.56407 -1.72161 0
M  V30 5890 C 591.704 1.58878 -0.587721 0
M  V30 5891 O 592.91 1.62755 -0.768822 0
M  V30 5892 H 589.285 0.519423 -0.543786 0
M  V30 5893 H 591.256 1.35803 -2.65707 0
M  V30 5894 C 590.005 2.94163 -1.85373 0
M  V30 5895 H 589.328 2.9299 -2.72024 0
M  V30 5896 H 590.768 3.71625 -2.04135 0
M  V30 5897 C 589.227 3.31317 -0.610803 0
M  V30 5898 O 589.757 4.00985 0.239636 0
M  V30 5899 N 587.963 2.86966 -0.458127 0
M  V30 5900 H 587.51 2.30443 -1.15124 0
M  V30 5901 H 587.468 3.12188 0.372289 0
M  V30 5902 N 591.24 1.41047 0.703093 0
M  V30 5903 C 592.656 1.23351 1.01275 0
M  V30 5904 C 592.856 0.11754 2.01157 0
M  V30 5905 O 591.912 -0.520518 2.47077 0
M  V30 5906 C 593.225 2.58001 1.54454 0
M  V30 5907 C 594.773 2.65119 1.66376 0
M  V30 5908 C 595.248 4.00067 2.22958 0
M  V30 5909 N 596.739 4.01875 2.30328 0
M  V30 5910 C 597.474 5.03087 2.75119 0
M  V30 5911 N 596.97 6.14692 3.19571 0
M  V30 5912 N 598.763 4.90451 2.74616 0
M  V30 5913 H 590.914 2.1236 0.0412686 0
M  V30 5914 H 593.177 0.944543 0.08089 0
M  V30 5915 H 592.883 3.40378 0.88521 0
M  V30 5916 H 592.757 2.79962 2.52786 0
M  V30 5917 H 595.144 1.83106 2.31422 0
M  V30 5918 H 595.225 2.46975 0.666089 0
M  V30 5919 H 594.869 4.82526 1.58529 0
M  V30 5920 H 594.799 4.15547 3.23462 0
M  V30 5921 H 597.29 3.21291 1.98949 0
M  V30 5922 H 597.603 6.87799 3.52352 0
M  V30 5923 H 595.948 6.18239 3.17498 0
M  V30 5924 H 599.139 4.0235 2.39233 0
M  V30 5925 H 599.312 5.6947 3.09206 0
M  V30 5926 N 592.718 -0.936591 1.26751 0
M  V30 5927 C 593.948 -1.71509 1.15188 0
M  V30 5928 C 594.356 -1.86885 -0.295037 0
M  V30 5929 O 593.699 -1.37915 -1.21347 0
M  V30 5930 C 593.761 -3.13853 1.75318 0
M  V30 5931 C 593.425 -3.21845 3.24445 0
M  V30 5932 C 594.422 -3.04771 4.21201 0
M  V30 5933 C 592.107 -3.45088 3.64992 0
M  V30 5934 C 594.101 -3.10816 5.56482 0
M  V30 5935 C 591.788 -3.50767 5.00405 0
M  V30 5936 C 592.786 -3.33648 5.9596 0
M  V30 5937 O 592.474 -3.39045 7.28906 0
M  V30 5938 H 592.206 -0.543658 0.401761 0
M  V30 5939 H 594.76 -1.18234 1.67958 0
M  V30 5940 H 592.99 -3.6857 1.17016 0
M  V30 5941 H 594.679 -3.73634 1.58596 0
M  V30 5942 H 595.445 -2.86665 3.91214 0
M  V30 5943 H 591.324 -3.57467 2.91098 0
M  V30 5944 H 594.868 -2.97372 6.31043 0
M  V30 5945 H 590.765 -3.68396 5.30052 0
M  V30 5946 H 591.533 -3.55558 7.37238 0
M  V30 5947 N 594.196 -1.08629 -1.14182 0
M  V30 5948 C 595.443 -0.817345 -1.85272 0
M  V30 5949 C 595.771 0.656917 -1.83071 0
M  V30 5950 O 595.026 1.49897 -1.25815 0
M  V30 5951 C 595.325 -1.28734 -3.3341 0
M  V30 5952 C 594.991 -2.76981 -3.55798 0
M  V30 5953 C 593.653 -3.17469 -3.61617 0
M  V30 5954 C 596.005 -3.72605 -3.64438 0
M  V30 5955 C 593.333 -4.52371 -3.736 0
M  V30 5956 C 595.685 -5.07286 -3.77947 0
M  V30 5957 C 594.349 -5.47376 -3.82016 0
M  V30 5958 H 593.619 -0.299088 -0.677958 0
M  V30 5959 H 596.266 -1.35962 -1.34857 0
M  V30 5960 H 594.571 -0.664702 -3.8612 0
M  V30 5961 H 596.268 -1.05598 -3.86846 0
M  V30 5962 H 592.858 -2.44644 -3.51919 0
M  V30 5963 H 597.042 -3.42443 -3.5923 0
M  V30 5964 H 592.298 -4.82882 -3.75013 0
M  V30 5965 H 596.472 -5.81243 -3.83575 0
M  V30 5966 H 594.099 -6.51906 -3.91054 0
M  V30 5967 N 595.674 1.31259 -0.872281 0
M  V30 5968 C 596.902 2.00795 -0.498907 0
M  V30 5969 C 597.317 1.65464 0.909238 0
M  V30 5970 O 596.674 0.885073 1.59602 0
M  V30 5971 C 596.725 3.55625 -0.649092 0
M  V30 5972 O 596.446 3.89692 -2.00179 0
M  V30 5973 C 597.947 4.42434 -0.277034 0
M  V30 5974 H 595.167 0.642299 -0.194145 0
M  V30 5975 H 597.711 1.67438 -1.17408 0
M  V30 5976 H 595.866 3.87394 -0.0214402 0
M  V30 5977 H 596.28 4.84407 -2.01122 0
M  V30 5978 H 597.754 5.50299 -0.433064 0
M  V30 5979 H 598.231 4.32146 0.783989 0
M  V30 5980 H 598.837 4.16086 -0.880483 0
M  V30 5981 N 597.152 0.631951 1.44375 0
M  V30 5982 C 598.399 0.136767 2.02038 0
M  V30 5983 C 598.727 -1.24168 1.49709 0
M  V30 5984 O 597.982 -1.83809 0.671763 0
M  V30 5985 C 598.281 0.0735861 3.57324 0
M  V30 5986 C 597.947 1.39092 4.28911 0
M  V30 5987 C 596.609 1.75171 4.48184 0
M  V30 5988 C 598.961 2.26042 4.69632 0
M  V30 5989 C 596.289 2.97907 5.05439 0
M  V30 5990 C 598.641 3.4805 5.28246 0
M  V30 5991 C 597.305 3.84351 5.45738 0
M  V30 5992 H 596.575 0.0500466 0.739308 0
M  V30 5993 H 599.222 0.818429 1.7313 0
M  V30 5994 H 597.527 -0.691449 3.8565 0
M  V30 5995 H 599.224 -0.326091 3.99672 0
M  V30 5996 H 595.814 1.10015 4.1424 0
M  V30 5997 H 599.998 1.99463 4.54454 0
M  V30 5998 H 595.254 3.26108 5.17169 0
M  V30 5999 H 599.428 4.15658 5.5875 0
M  V30 6000 H 597.055 4.79538 5.8987 0
M  V30 6001 N 598.631 -1.53133 0.372548 0
M  V30 6002 C 599.856 -2.0625 -0.218098 0
M  V30 6003 C 600.281 -1.24375 -1.41111 0
M  V30 6004 O 599.639 -0.264554 -1.79359 0
M  V30 6005 C 599.687 -3.55858 -0.582876 0
M  V30 6006 O 598.791 -3.76667 -1.67917 0
M  V30 6007 H 598.132 -0.663317 -0.030104 0
M  V30 6008 H 600.662 -1.97477 0.535169 0
M  V30 6009 H 600.672 -3.99007 -0.851925 0
M  V30 6010 H 599.347 -4.14892 0.289428 0
M  V30 6011 H 597.924 -3.45413 -1.40513 0
M  V30 6012 N 600.109 -0.101901 -1.5727 0
M  V30 6013 C 601.357 0.559091 -1.94213 0
M  V30 6014 C 601.678 1.68297 -0.984948 0
M  V30 6015 O 600.948 1.95863 -0.0381975 0
M  V30 6016 H 599.528 0.20952 -0.717015 0
M  V30 6017 H 602.19 -0.166831 -1.94185 0
M  V30 6018 H 601.286 0.96485 -2.96811 0
M  V30 6019 N 601.587 1.56661 0.17182 0
M  V30 6020 C 602.836 1.81158 0.886831 0
M  V30 6021 C 603.149 0.679072 1.83434 0
M  V30 6022 O 604.355 0.808964 2.59168 0
M  V30 6023 C 602.811 3.20999 1.6275 0
M  V30 6024 C 602.419 4.42117 0.723652 0
M  V30 6025 C 604.163 3.5479 2.33076 0
M  V30 6026 C 602.07 5.7298 1.46452 0
M  V30 6027 H 601 0.675543 0.334899 0
M  V30 6028 H 603.651 1.82967 0.139765 0
M  V30 6029 H 602.033 3.13506 2.4193 0
M  V30 6030 H 603.207 4.60789 -0.0311485 0
M  V30 6031 H 601.522 4.16197 0.130063 0
M  V30 6032 H 604.119 4.49806 2.89099 0
M  V30 6033 H 604.462 2.79646 3.08389 0
M  V30 6034 H 604.995 3.63834 1.6084 0
M  V30 6035 H 601.734 6.51152 0.753729 0
M  V30 6036 H 601.254 5.58285 2.19266 0
M  V30 6037 H 602.933 6.14916 2.01214 0
M  V30 6038 N 603.065 -0.440357 1.51323 0
M  V30 6039 C 604.305 -1.19956 1.65499 0
M  V30 6040 C 604.669 -1.88559 0.361878 0
M  V30 6041 O 605.87 -2.66109 0.379383 0
M  V30 6042 C 604.141 -2.1918 2.82303 0
M  V30 6043 S 605.7 -3.03627 3.1679 0
M  V30 6044 H 602.518 -0.406833 0.583102 0
M  V30 6045 H 605.12 -0.491596 1.89218 0
M  V30 6046 H 603.824 -1.67414 3.74701 0
M  V30 6047 H 603.355 -2.94561 2.60763 0
M  V30 6048 H 605.37 -4.20773 2.62991 0
M  V30 6049 N 604.543 -1.41418 -0.695603 0
M  V30 6050 C 605.475 -1.39195 -1.82092 0
M  V30 6051 C 606.488 -0.294132 -1.60121 0
M  V30 6052 O 607.677 -0.555854 -1.69625 0
M  V30 6053 C 604.777 -1.14828 -3.18854 0
M  V30 6054 C 603.95 -2.36649 -3.67853 0
M  V30 6055 C 603.009 -2.08139 -4.83285 0
M  V30 6056 O 602.035 -2.81177 -4.94902 0
M  V30 6057 N 603.237 -1.07162 -5.70523 0
M  V30 6058 H 606.002 -2.36185 -1.84491 0
M  V30 6059 H 603.563 -1.3603 -0.877923 0
M  V30 6060 H 605.555 -0.937075 -3.93702 0
M  V30 6061 H 604.125 -0.264358 -3.1148 0
M  V30 6062 H 603.345 -2.73472 -2.83913 0
M  V30 6063 H 604.633 -3.17816 -3.97329 0
M  V30 6064 H 604.031 -0.467124 -5.63768 0
M  V30 6065 H 602.588 -0.920311 -6.4527 0
M  V30 6066 N 606.021 0.929856 -1.27246 0
M  V30 6067 C 607.251 1.70895 -1.16096 0
M  V30 6068 C 607.659 1.87039 0.285122 0
M  V30 6069 O 607.002 1.38557 1.20614 0
M  V30 6070 C 607.064 3.12919 -1.7698 0
M  V30 6071 C 606.728 3.2012 -3.26148 0
M  V30 6072 C 607.725 3.02533 -4.22812 0
M  V30 6073 C 605.41 3.43148 -3.66817 0
M  V30 6074 C 607.404 3.07861 -5.58122 0
M  V30 6075 C 605.091 3.48109 -5.02258 0
M  V30 6076 C 606.089 3.30483 -5.97721 0
M  V30 6077 O 605.777 3.35175 -7.30694 0
M  V30 6078 H 605.509 0.54152 -0.404639 0
M  V30 6079 H 608.063 1.17342 -1.68582 0
M  V30 6080 H 606.293 3.67945 -1.18969 0
M  V30 6081 H 607.982 3.72787 -1.60576 0
M  V30 6082 H 608.748 2.84586 -3.92728 0
M  V30 6083 H 604.627 3.55918 -2.9299 0
M  V30 6084 H 608.171 2.94021 -6.32612 0
M  V30 6085 H 604.068 3.65579 -5.31998 0
M  V30 6086 H 604.836 3.51644 -7.39114 0
M  V30 6087 N 607.499 1.09233 1.13605 0
M  V30 6088 C 608.429 0.751738 2.21068 0
M  V30 6089 C 609.41 -0.269688 1.67948 0
M  V30 6090 O 610.595 -0.13819 1.93708 0
M  V30 6091 C 607.725 0.16935 3.46887 0
M  V30 6092 C 606.679 1.12007 4.13084 0
M  V30 6093 C 606.005 0.399483 5.33206 0
M  V30 6094 C 607.305 2.46168 4.6065 0
M  V30 6095 H 608.999 1.65024 2.49815 0
M  V30 6096 H 606.545 0.794905 1.20072 0
M  V30 6097 H 608.498 -0.0809824 4.21322 0
M  V30 6098 H 607.222 -0.764335 3.1753 0
M  V30 6099 H 605.881 1.35564 3.40614 0
M  V30 6100 H 605.529 -0.538277 5.00112 0
M  V30 6101 H 605.229 1.03337 5.78442 0
M  V30 6102 H 606.753 0.157403 6.10397 0
M  V30 6103 H 608.167 2.26829 5.26518 0
M  V30 6104 H 606.564 3.05326 5.1662 0
M  V30 6105 H 607.634 3.07076 3.75276 0
M  V30 6106 N 608.977 -1.30795 0.87923 0
M  V30 6107 C 609.907 -2.30742 0.357796 0
M  V30 6108 C 610.888 -1.60747 -0.556283 0
M  V30 6109 O 612.073 -1.88393 -0.47135 0
M  V30 6110 C 609.203 -3.44583 -0.433555 0
M  V30 6111 C 608.157 -4.26235 0.388251 0
M  V30 6112 C 607.483 -5.32073 -0.529352 0
M  V30 6113 C 608.783 -4.96303 1.62729 0
M  V30 6114 H 610.477 -2.74605 1.19299 0
M  V30 6115 H 608.023 -1.32017 0.575104 0
M  V30 6116 H 609.976 -4.13563 -0.808934 0
M  V30 6117 H 608.7 -2.99511 -1.30234 0
M  V30 6118 H 607.359 -3.58936 0.745695 0
M  V30 6119 H 607.007 -4.83249 -1.39569 0
M  V30 6120 H 606.707 -5.87598 0.0166741 0
M  V30 6121 H 608.231 -6.0391 -0.901373 0
M  V30 6122 H 609.645 -5.5783 1.32283 0
M  V30 6123 H 608.042 -5.61666 2.11309 0
M  V30 6124 H 609.112 -4.22758 2.37494 0
M  V30 6125 N 610.455 -0.639598 -1.44038 0
M  V30 6126 C 611.418 0.0506628 -2.29144 0
M  V30 6127 C 612.418 0.764001 -1.41491 0
M  V30 6128 O 613.608 0.607309 -1.63271 0
M  V30 6129 C 610.74 1.0824 -3.2326 0
M  V30 6130 H 611.933 -0.697987 -2.91664 0
M  V30 6131 H 609.486 -0.400146 -1.51091 0
M  V30 6132 H 610.221 1.86075 -2.65606 0
M  V30 6133 H 610.006 0.574725 -3.87865 0
M  V30 6134 H 611.496 1.56487 -3.87171 0
M  V30 6135 N 611.933 1.52934 -0.380664 0
M  V30 6136 C 613.349 1.59571 -0.0302429 0
M  V30 6137 C 613.549 1.39509 1.45394 0
M  V30 6138 O 612.605 1.20777 2.21741 0
M  V30 6139 C 613.918 2.96519 -0.499691 0
M  V30 6140 C 615.466 3.09672 -0.455204 0
M  V30 6141 C 615.941 4.49056 -0.900703 0
M  V30 6142 N 617.432 4.55215 -0.856367 0
M  V30 6143 C 618.167 5.61282 -1.17259 0
M  V30 6144 N 617.663 6.75035 -1.55885 0
M  V30 6145 N 619.456 5.51343 -1.0944 0
M  V30 6146 H 611.607 1.64224 -1.347 0
M  V30 6147 H 613.87 0.771033 -0.551554 0
M  V30 6148 H 613.576 3.16388 -1.53595 0
M  V30 6149 H 613.45 3.77052 0.105789 0
M  V30 6150 H 615.837 2.89504 0.571949 0
M  V30 6151 H 615.918 2.31113 -1.09638 0
M  V30 6152 H 615.562 4.69964 -1.92604 0
M  V30 6153 H 615.492 5.26068 -0.236629 0
M  V30 6154 H 617.983 3.73546 -0.572013 0
M  V30 6155 H 618.296 7.51926 -1.784 0
M  V30 6156 H 616.641 6.76388 -1.59764 0
M  V30 6157 H 619.832 4.61356 -0.791713 0
M  V30 6158 H 620.005 6.33905 -1.34417 0
M  V30 6159 N 613.412 0.11024 1.57214 0
M  V30 6160 C 614.689 -0.592956 1.86396 0
M  V30 6161 C 615.069 -1.85379 1.00985 0
M  V30 6162 O 614.417 -2.28337 0.0863592 0
M  V30 6163 C 614.627 -0.893816 3.3736 0
M  V30 6164 C 615.975 -1.25069 4.05762 0
M  V30 6165 O 616.999 -0.984356 3.42329 0
M  V30 6166 O 615.858 -1.75017 5.17718 0
M  V30 6167 H 612.952 -0.29828 0.771335 0
M  V30 6168 H 615.498 0.144083 1.69087 0
M  V30 6169 H 614.27 2.6031e-05 3.913 0
M  V30 6170 H 613.893 -1.68631 3.60068 0
M  V30 6171 N 614.89 -1.56749 -0.16351 0
M  V30 6172 C 616.13 -1.84234 -0.885271 0
M  V30 6173 C 616.494 -0.692259 -1.79086 0
M  V30 6174 O 617.695 -0.847747 -2.55082 0
M  V30 6175 C 615.966 -3.16857 -1.65337 0
M  V30 6176 S 617.525 -3.65848 -2.42282 0
M  V30 6177 H 614.343 -0.646293 -0.296354 0
M  V30 6178 H 616.945 -1.94951 -0.146365 0
M  V30 6179 H 615.649 -3.98546 -0.979266 0
M  V30 6180 H 615.18 -3.09102 -2.4335 0
M  V30 6181 H 617.195 -3.33796 -3.67143 0
M  V30 6182 N 616.368 0.432326 -1.51554 0
M  V30 6183 C 617.3 1.54357 -1.6943 0
M  V30 6184 C 618.313 1.52311 -0.574897 0
M  V30 6185 O 619.502 1.56997 -0.849369 0
M  V30 6186 C 616.602 2.93273 -1.69836 0
M  V30 6187 C 615.775 3.19768 -2.98442 0
M  V30 6188 C 614.834 4.38433 -2.90969 0
M  V30 6189 O 613.86 4.36842 -3.64908 0
M  V30 6190 N 615.062 5.42276 -2.07163 0
M  V30 6191 H 617.827 1.39426 -2.65293 0
M  V30 6192 H 615.388 0.621331 -1.49503 0
M  V30 6193 H 617.38 3.70687 -1.62399 0
M  V30 6194 H 615.95 3.01777 -0.815456 0
M  V30 6195 H 615.17 2.30607 -3.19709 0
M  V30 6196 H 616.458 3.343 -3.83563 0
M  V30 6197 H 615.856 5.46407 -1.46477 0
M  V30 6198 H 614.413 6.18524 -2.05601 0
M  V30 6199 N 617.846 1.41785 0.688094 0
M  V30 6200 C 619.123 1.32031 1.44316 0
M  V30 6201 C 619.503 -0.0486079 2.11044 0
M  V30 6202 O 618.851 -1.06332 2.02252 0
M  V30 6203 C 619.061 2.47906 2.45649 0
M  V30 6204 C 620.409 2.89415 3.10683 0
M  V30 6205 O 621.433 2.477 2.55975 0
M  V30 6206 O 620.292 3.61573 4.09789 0
M  V30 6207 H 617.386 0.519994 0.643067 0
M  V30 6208 H 619.932 1.53765 0.71794 0
M  V30 6209 H 618.704 3.39222 1.95048 0
M  V30 6210 H 618.327 2.28089 3.25671 0
M  V30 6211 N 619.324 -0.923095 1.27737 0
M  V30 6212 C 620.274 -2.01061 1.0751 0
M  V30 6213 C 621.258 -1.609 0.00165451 0
M  V30 6214 O 622.45 -1.75618 0.220724 0
M  V30 6215 C 619.579 -3.35467 0.729162 0
M  V30 6216 C 618.665 -3.82059 1.84098 0
M  V30 6217 N 619.056 -4.01115 3.08124 0
M  V30 6218 C 617.354 -4.11135 1.7287 0
M  V30 6219 C 618.055 -4.39989 3.80506 0
M  V30 6220 N 617.031 -4.47721 3.08297 0
M  V30 6221 H 620.833 -2.13832 2.01626 0
M  V30 6222 H 618.347 -1.11027 1.18519 0
M  V30 6223 H 620.344 -4.13049 0.565355 0
M  V30 6224 H 619.004 -3.24056 -0.204334 0
M  V30 6225 H 620.015 -3.87294 3.43836 0
M  V30 6226 H 616.692 -4.08412 0.866352 0
M  V30 6227 H 618.082 -4.62773 4.87125 0
M  V30 6228 N 620.802 -1.09834 -1.13024 0
M  V30 6229 C 622.027 -0.85909 -1.88771 0
M  V30 6230 C 622.452 0.584402 -1.78791 0
M  V30 6231 O 621.81 1.41101 -1.13842 0
M  V30 6232 C 621.858 -1.30427 -3.36186 0
M  V30 6233 O 620.962 -0.465368 -4.09766 0
M  V30 6234 H 620.303 -0.310786 -0.586778 0
M  V30 6235 H 622.833 -1.46355 -1.42973 0
M  V30 6236 H 622.843 -1.2915 -3.8702 0
M  V30 6237 H 621.518 -2.3555 -3.42767 0
M  V30 6238 H 620.095 -0.542814 -3.68928 0
M  V30 6239 N 622.28 1.30327 -0.886154 0
M  V30 6240 C 623.527 1.96097 -0.505192 0
M  V30 6241 C 623.855 1.69952 0.945868 0
M  V30 6242 O 623.11 0.997653 1.68361 0
M  V30 6243 C 623.409 3.49906 -0.728042 0
M  V30 6244 C 623.075 3.96103 -2.15437 0
M  V30 6245 C 621.737 4.08428 -2.5444 0
M  V30 6246 C 624.089 4.20177 -3.08384 0
M  V30 6247 C 621.417 4.42189 -3.85598 0
M  V30 6248 C 623.769 4.55407 -4.39075 0
M  V30 6249 C 622.433 4.65941 -4.7797 0
M  V30 6250 H 621.703 0.71757 -0.184863 0
M  V30 6251 H 624.35 1.55171 -1.12223 0
M  V30 6252 H 622.655 3.9179 -0.027978 0
M  V30 6253 H 624.352 3.98869 -0.412862 0
M  V30 6254 H 620.942 3.87017 -1.84162 0
M  V30 6255 H 625.126 4.10134 -2.7947 0
M  V30 6256 H 620.382 4.48544 -4.15473 0
M  V30 6257 H 624.556 4.72986 -5.11133 0
M  V30 6258 H 622.183 4.91856 -5.79639 0
M  V30 6259 N 623.758 0.647228 1.43697 0
M  V30 6260 C 624.983 0.164083 2.0675 0
M  V30 6261 C 625.408 -1.15892 1.48158 0
M  V30 6262 O 624.766 -1.71459 0.589194 0
M  V30 6263 C 624.814 0.0800368 3.60511 0
M  V30 6264 O 623.918 -0.959453 4.01084 0
M  V30 6265 H 623.259 0.0921288 0.657578 0
M  V30 6266 H 625.789 0.88846 1.84303 0
M  V30 6267 H 625.799 -0.105263 4.07864 0
M  V30 6268 H 624.474 1.04586 4.02535 0
M  V30 6269 H 623.051 -0.747425 3.65333 0
M  V30 6270 N 625.236 -1.5273 0.388769 0
M  V30 6271 C 626.485 -2.00757 -0.194833 0
M  V30 6272 C 626.798 -1.27951 -1.47946 0
M  V30 6273 O 628.004 -1.66686 -2.14308 0
M  V30 6274 C 626.46 -3.57695 -0.397762 0
M  V30 6275 C 626.068 -4.394 0.873583 0
M  V30 6276 C 627.812 -4.14012 -0.937759 0
M  V30 6277 C 625.719 -5.87938 0.638962 0
M  V30 6278 H 624.649 -0.750101 -0.0765845 0
M  V30 6279 H 627.3 -1.76239 0.511086 0
M  V30 6280 H 625.682 -3.7846 -1.16552 0
M  V30 6281 H 626.856 -4.30403 1.64591 0
M  V30 6282 H 625.171 -3.94301 1.33849 0
M  V30 6283 H 627.768 -5.22645 -1.12899 0
M  V30 6284 H 628.111 -3.7007 -1.90666 0
M  V30 6285 H 628.644 -3.97137 -0.229588 0
M  V30 6286 H 625.383 -6.36202 1.57885 0
M  V30 6287 H 624.903 -5.99726 -0.094443 0
M  V30 6288 H 626.582 -6.46423 0.273299 0
M  V30 6289 N 626.714 -0.118576 -1.57153 0
M  V30 6290 C 627.96 0.540326 -1.95469 0
M  V30 6291 C 628.293 1.66356 -1.00196 0
M  V30 6292 O 627.568 1.94461 -0.039104 0
M  V30 6293 C 627.851 1.07342 -3.43729 0
M  V30 6294 C 627.704 -0.0463732 -4.49776 0
M  V30 6295 C 629.023 1.96442 -3.93826 0
M  V30 6296 H 626.142 0.19494 -0.710751 0
M  V30 6297 H 628.784 -0.19405 -1.89006 0
M  V30 6298 H 626.934 1.69925 -3.49368 0
M  V30 6299 H 628.606 -0.681648 -4.56236 0
M  V30 6300 H 626.849 -0.709574 -4.27957 0
M  V30 6301 H 627.52 0.367856 -5.50773 0
M  V30 6302 H 629.996 1.43731 -3.90488 0
M  V30 6303 H 628.872 2.3066 -4.98084 0
M  V30 6304 H 629.133 2.89077 -3.34495 0
M  V30 6305 N 628.193 1.56834 0.155195 0
M  V30 6306 C 629.442 1.82088 0.867567 0
M  V30 6307 C 629.755 0.69849 1.82703 0
M  V30 6308 O 630.961 0.836407 2.58295 0
M  V30 6309 C 629.417 3.22707 1.59336 0
M  V30 6310 C 629.025 4.42859 0.676719 0
M  V30 6311 C 630.769 3.57242 2.293 0
M  V30 6312 C 628.676 5.74501 1.40367 0
M  V30 6313 H 627.606 0.679057 0.327715 0
M  V30 6314 H 630.257 1.83105 0.120351 0
M  V30 6315 H 628.639 3.16054 2.38591 0
M  V30 6316 H 629.813 4.60731 -0.0800196 0
M  V30 6317 H 628.128 4.16311 0.0859129 0
M  V30 6318 H 630.725 4.52847 2.84312 0
M  V30 6319 H 631.068 2.82901 3.05406 0
M  V30 6320 H 631.601 3.6552 1.56972 0
M  V30 6321 H 628.34 6.51915 0.684623 0
M  V30 6322 H 627.86 5.60579 2.13332 0
M  V30 6323 H 629.539 6.17016 1.94681 0
M  V30 6324 N 629.671 -0.424282 1.51781 0
M  V30 6325 C 630.581 -1.54087 1.76902 0
M  V30 6326 C 631.597 -1.61249 0.653826 0
M  V30 6327 O 632.773 -1.78247 0.937552 0
M  V30 6328 C 629.838 -2.8996 1.90063 0
M  V30 6329 C 628.899 -2.92809 3.13945 0
M  V30 6330 C 628.132 -4.22201 3.26469 0
M  V30 6331 O 628.355 -5.15286 2.44616 0
M  V30 6332 O 627.289 -4.31599 4.1953 0
M  V30 6333 H 631.115 -1.358 2.71647 0
M  V30 6334 H 628.7 -0.608618 1.36441 0
M  V30 6335 H 630.582 -3.70575 2.0063 0
M  V30 6336 H 629.257 -3.08347 0.985067 0
M  V30 6337 H 628.164 -2.11102 3.08847 0
M  V30 6338 H 629.497 -2.79369 4.05233 0
M  V30 6339 N 631.149 -1.42148 -0.680565 0
M  V30 6340 C 632.377 -1.45696 -1.46902 0
M  V30 6341 C 632.792 -0.0665858 -1.88683 0
M  V30 6342 O 632.149 0.917436 -1.57764 0
M  V30 6343 C 632.2 -2.37898 -2.72188 0
M  V30 6344 O 631.921 -3.71526 -2.32163 0
M  V30 6345 C 633.422 -2.50407 -3.65802 0
M  V30 6346 H 630.642 -0.495729 -0.45221 0
M  V30 6347 H 633.186 -1.866 -0.836709 0
M  V30 6348 H 631.341 -2.00263 -3.31622 0
M  V30 6349 H 631.755 -4.20849 -3.13027 0
M  V30 6350 H 633.229 -3.19056 -4.50452 0
M  V30 6351 H 633.706 -1.5401 -4.11312 0
M  V30 6352 H 634.312 -2.8874 -3.12265 0
M  V30 6353 N 632.627 0.916307 -1.28225 0
M  V30 6354 C 633.873 1.66765 -1.154 0
M  V30 6355 C 634.206 1.91912 0.297251 0
M  V30 6356 O 633.481 1.51766 1.21644 0
M  V30 6357 C 633.764 3.02715 -1.95028 0
M  V30 6358 C 633.617 2.84738 -3.48201 0
M  V30 6359 C 634.936 4.03215 -1.76369 0
M  V30 6360 H 632.055 0.605205 -0.42059 0
M  V30 6361 H 634.697 1.06255 -1.57512 0
M  V30 6362 H 632.847 3.54365 -1.59242 0
M  V30 6363 H 634.519 2.40118 -3.9388 0
M  V30 6364 H 632.762 2.19848 -3.73964 0
M  V30 6365 H 633.433 3.8127 -3.99171 0
M  V30 6366 H 635.909 3.60617 -2.07593 0
M  V30 6367 H 634.785 4.96306 -2.34459 0
M  V30 6368 H 635.046 4.36288 -0.71452 0
M  V30 6369 N 634.105 1.10431 1.1244 0
M  V30 6370 C 635.037 0.710945 2.17895 0
M  V30 6371 C 636.05 -0.252315 1.60833 0
M  V30 6372 O 637.239 -0.03679 1.78462 0
M  V30 6373 C 634.339 0.0284262 3.38888 0
M  V30 6374 C 633.512 1.01585 4.2544 0
M  V30 6375 C 632.571 0.364826 5.24934 0
M  V30 6376 O 631.597 1.01561 5.60066 0
M  V30 6377 N 632.799 -0.87674 5.73841 0
M  V30 6378 H 635.564 1.61826 2.52255 0
M  V30 6379 H 633.125 0.993132 1.27861 0
M  V30 6380 H 635.117 -0.418568 4.0253 0
M  V30 6381 H 633.687 -0.781294 3.02679 0
M  V30 6382 H 632.907 1.64111 3.58415 0
M  V30 6383 H 634.195 1.68425 4.80115 0
M  V30 6384 H 633.593 -1.42483 5.47462 0
M  V30 6385 H 632.15 -1.26688 6.39369 0
M  V30 6386 N 635.583 -1.29855 0.893053 0
M  V30 6387 C 636.823 -1.97612 0.522399 0
M  V30 6388 C 637.187 -1.68903 -0.913 0
M  V30 6389 O 638.388 -2.30059 -1.39019 0
M  V30 6390 C 636.659 -3.48356 0.79893 0
M  V30 6391 S 638.218 -4.35568 0.531588 0
M  V30 6392 H 635.036 -0.684005 0.194058 0
M  V30 6393 H 637.638 -1.57803 1.15406 0
M  V30 6394 H 636.342 -3.66743 1.84196 0
M  V30 6395 H 635.873 -3.93094 0.155133 0
M  V30 6396 H 637.888 -4.92232 -0.626295 0
M  V30 6397 N 637.061 -0.65484 -1.43351 0
M  V30 6398 C 638.024 0.0263562 -2.29185 0
M  V30 6399 C 639.024 0.748951 -1.42293 0
M  V30 6400 O 640.214 0.589957 -1.63906 0
M  V30 6401 C 637.346 1.04806 -3.2439 0
M  V30 6402 H 638.539 -0.728883 -2.90908 0
M  V30 6403 H 636.092 -0.416149 -1.50658 0
M  V30 6404 H 636.827 1.83247 -2.67565 0
M  V30 6405 H 636.612 0.533554 -3.88453 0
M  V30 6406 H 638.102 1.52372 -3.88809 0
M  V30 6407 N 638.539 1.52521 -0.396863 0
M  V30 6408 C 639.816 1.94112 0.240842 0
M  V30 6409 C 640.196 1.33288 1.637 0
M  V30 6410 O 639.544 0.503901 2.22875 0
M  V30 6411 C 639.754 3.48033 0.259567 0
M  V30 6412 C 641.102 4.21822 0.484866 0
M  V30 6413 O 642.126 3.54579 0.339453 0
M  V30 6414 O 640.985 5.41042 0.770412 0
M  V30 6415 H 638.079 0.812973 0.151671 0
M  V30 6416 H 640.625 1.63572 -0.451918 0
M  V30 6417 H 639.397 3.84655 -0.718078 0
M  V30 6418 H 639.02 3.84899 0.996937 0
M  V30 6419 N 640.017 0.126909 1.57088 0
M  V30 6420 C 641.294 -0.573152 1.87014 0
M  V30 6421 C 641.674 -1.84297 1.02945 0
M  V30 6422 O 641.022 -2.28232 0.110573 0
M  V30 6423 C 641.232 -0.857984 3.38289 0
M  V30 6424 C 642.58 -1.20759 4.07066 0
M  V30 6425 O 643.604 -0.947992 3.43353 0
M  V30 6426 O 642.463 -1.69516 5.19545 0
M  V30 6427 H 639.557 -0.290082 0.774456 0
M  V30 6428 H 642.103 0.162008 1.68925 0
M  V30 6429 H 640.875 0.0415286 3.91278 0
M  V30 6430 H 640.498 -1.64803 3.61837 0
M  V30 6431 N 641.495 -1.56914 -0.146875 0
M  V30 6432 C 642.911 -1.51582 -0.499518 0
M  V30 6433 C 643.111 -0.83535 -1.83369 0
M  V30 6434 O 642.167 -0.405932 -2.49216 0
M  V30 6435 C 643.48 -2.96349 -0.509711 0
M  V30 6436 C 645.028 -3.07288 -0.595217 0
M  V30 6437 C 645.503 -4.53562 -0.636071 0
M  V30 6438 N 646.994 -4.57906 -0.69829 0
M  V30 6439 C 647.729 -5.68462 -0.750886 0
M  V30 6440 N 647.225 -6.88588 -0.76282 0
M  V30 6441 N 649.018 -5.56496 -0.791777 0
M  V30 6442 H 641.169 -1.99547 0.727656 0
M  V30 6443 H 643.432 -0.910113 0.265327 0
M  V30 6444 H 643.138 -3.4939 0.402409 0
M  V30 6445 H 643.012 -3.52307 -1.34758 0
M  V30 6446 H 645.399 -2.54266 -1.49776 0
M  V30 6447 H 645.48 -2.54373 0.2698 0
M  V30 6448 H 645.124 -5.07222 0.262313 0
M  V30 6449 H 645.054 -5.04259 -1.51758 0
M  V30 6450 H 647.545 -3.71429 -0.696362 0
M  V30 6451 H 647.858 -7.68598 -0.804804 0
M  V30 6452 H 646.203 -6.91148 -0.730694 0
M  V30 6453 H 649.394 -4.61562 -0.779624 0
M  V30 6454 H 649.567 -6.42671 -0.829301 0
M  V30 6455 N 642.974 0.416227 -1.52004 0
M  V30 6456 C 644.251 1.17637 -1.56272 0
M  V30 6457 C 644.631 2.08352 -0.339493 0
M  V30 6458 O 643.979 2.1833 0.674124 0
M  V30 6459 C 644.189 1.95986 -2.88774 0
M  V30 6460 C 645.537 2.52299 -3.41512 0
M  V30 6461 O 646.561 2.06174 -2.90467 0
M  V30 6462 O 645.42 3.3648 -4.30631 0
M  V30 6463 H 642.514 0.536726 -0.629169 0
M  V30 6464 H 645.06 0.423583 -1.64329 0
M  V30 6465 H 643.832 1.29487 -3.69254 0
M  V30 6466 H 643.455 2.78285 -2.83978 0
M  V30 6467 N 644.452 1.42507 0.673017 0
M  V30 6468 C 645.415 1.4582 1.76831 0
M  V30 6469 C 646.415 0.345542 1.57043 0
M  V30 6470 O 647.605 0.606447 1.63303 0
M  V30 6471 C 644.737 1.29158 3.15485 0
M  V30 6472 H 645.93 2.43345 1.7528 0
M  V30 6473 H 643.483 1.28981 0.882817 0
M  V30 6474 H 644.218 0.325626 3.22661 0
M  V30 6475 H 644.003 2.09797 3.31252 0
M  V30 6476 H 645.493 1.34363 3.95394 0
M  V30 6477 N 645.93 -0.909495 1.28709 0
M  V30 6478 C 647.176 -1.66151 1.16283 0
M  V30 6479 C 647.509 -1.92067 -0.287069 0
M  V30 6480 O 646.784 -1.52409 -1.20837 0
M  V30 6481 C 647.067 -3.01676 1.9663 0
M  V30 6482 C 646.92 -2.82888 3.49707 0
M  V30 6483 C 648.239 -4.02274 1.78504 0
M  V30 6484 H 645.358 -0.602966 0.423793 0
M  V30 6485 H 648 -1.05418 1.58073 0
M  V30 6486 H 646.15 -3.53515 1.61119 0
M  V30 6487 H 647.822 -2.38026 3.95147 0
M  V30 6488 H 646.065 -2.17862 3.75125 0
M  V30 6489 H 646.736 -3.79147 4.01187 0
M  V30 6490 H 649.212 -3.59511 2.09503 0
M  V30 6491 H 648.088 -4.95056 2.37088 0
M  V30 6492 H 648.349 -4.35903 0.737647 0
M  V30 6493 N 647.408 -1.11026 -1.11852 0
M  V30 6494 C 648.648 -0.866348 -1.85132 0
M  V30 6495 C 649.012 0.597236 -1.82475 0
M  V30 6496 O 650.213 0.957744 -2.51159 0
M  V30 6497 C 648.484 -1.40721 -3.28531 0
M  V30 6498 S 650.043 -1.29964 -4.19112 0
M  V30 6499 H 646.861 -0.312899 -0.638447 0
M  V30 6500 H 649.463 -1.41691 -1.34699 0
M  V30 6501 H 648.167 -2.46631 -3.28027 0
M  V30 6502 H 647.698 -0.85349 -3.8403 0
M  V30 6503 H 649.713 -0.261333 -4.95511 0
M  V30 6504 N 648.886 1.2938 -0.899927 0
M  V30 6505 C 650.114 1.99691 -0.541386 0
M  V30 6506 C 650.529 1.67355 0.873936 0
M  V30 6507 O 649.886 0.918728 1.57688 0
M  V30 6508 C 649.937 3.54168 -0.72438 0
M  V30 6509 O 649.658 3.85359 -2.08399 0
M  V30 6510 C 651.159 4.41746 -0.370819 0
M  V30 6511 H 648.379 0.638037 -0.207726 0
M  V30 6512 H 650.923 1.6491 -1.20934 0
M  V30 6513 H 649.078 3.87261 -0.103607 0
M  V30 6514 H 649.492 4.80032 -2.11352 0
M  V30 6515 H 650.966 5.49256 -0.549693 0
M  V30 6516 H 651.443 4.33712 0.692148 0
M  V30 6517 H 652.049 4.14125 -0.968543 0
M  V30 6518 N 650.364 0.662433 1.43002 0
M  V30 6519 C 651.78 0.330835 1.56133 0
M  V30 6520 C 651.98 -1.16454 1.64441 0
M  V30 6521 O 651.036 -1.94964 1.60453 0
M  V30 6522 C 652.349 1.05029 2.81761 0
M  V30 6523 C 653.897 1.03142 2.95518 0
M  V30 6524 C 654.372 1.73196 4.2399 0
M  V30 6525 N 655.863 1.70004 4.30875 0
M  V30 6526 C 656.598 2.21074 5.29069 0
M  V30 6527 N 656.094 2.80473 6.33488 0
M  V30 6528 N 657.887 2.1152 5.20784 0
M  V30 6529 H 650.038 1.63272 1.35853 0
M  V30 6530 H 652.301 0.687149 0.653092 0
M  V30 6531 H 652.007 2.10542 2.81718 0
M  V30 6532 H 651.881 0.607664 3.72273 0
M  V30 6533 H 654.268 -0.0153339 2.95096 0
M  V30 6534 H 654.349 1.51282 2.0627 0
M  V30 6535 H 653.993 2.77833 4.25172 0
M  V30 6536 H 653.923 1.22515 5.1215 0
M  V30 6537 H 656.414 1.26667 3.56039 0
M  V30 6538 H 656.727 3.17094 7.04749 0
M  V30 6539 H 655.072 2.84538 6.34085 0
M  V30 6540 H 658.263 1.64814 4.38126 0
M  V30 6541 H 658.436 2.51629 5.97149 0
M  V30 6542 N 651.842 -1.52309 0.404946 0
M  V30 6543 C 653.067 -2.06666 -0.1743 0
M  V30 6544 C 653.492 -1.27341 -1.38441 0
M  V30 6545 O 652.85 -0.302539 -1.78758 0
M  V30 6546 C 652.898 -3.57014 -0.507262 0
M  V30 6547 O 652.002 -3.80144 -1.59889 0
M  V30 6548 H 651.343 -0.663807 -0.0160273 0
M  V30 6549 H 653.873 -1.96297 0.576937 0
M  V30 6550 H 653.883 -4.00724 -0.767098 0
M  V30 6551 H 652.558 -4.14184 0.377368 0
M  V30 6552 H 651.135 -3.48316 -1.33155 0
M  V30 6553 N 653.32 -0.135238 -1.57019 0
M  V30 6554 C 654.566 0.519563 -1.96032 0
M  V30 6555 C 654.899 1.65284 -1.01955 0
M  V30 6556 O 654.174 1.94408 -0.059727 0
M  V30 6557 C 654.457 1.0369 -3.44848 0
M  V30 6558 C 654.31 -0.0940754 -4.49702 0
M  V30 6559 C 655.629 1.92254 -3.95887 0
M  V30 6560 H 652.748 0.18739 -0.712779 0
M  V30 6561 H 655.39 -0.214086 -1.8879 0
M  V30 6562 H 653.54 1.66209 -3.5115 0
M  V30 6563 H 655.212 -0.73 -4.55487 0
M  V30 6564 H 653.455 -0.754924 -4.27181 0
M  V30 6565 H 654.126 0.309419 -5.51132 0
M  V30 6566 H 656.602 1.39581 -3.9199 0
M  V30 6567 H 655.478 2.25364 -5.00502 0
M  V30 6568 H 655.739 2.85513 -3.37543 0
M  V30 6569 N 654.798 1.5699 0.138552 0
M  V30 6570 C 656.026 1.87976 0.864437 0
M  V30 6571 C 656.441 0.724372 1.74351 0
M  V30 6572 O 655.798 -0.305575 1.79924 0
M  V30 6573 C 655.849 3.18276 1.71414 0
M  V30 6574 O 655.57 4.29365 0.870487 0
M  V30 6575 C 657.071 3.62834 2.54688 0
M  V30 6576 H 654.291 0.622878 0.249528 0
M  V30 6577 H 656.835 2.04094 0.128805 0
M  V30 6578 H 654.99 3.03886 2.40274 0
M  V30 6579 H 655.404 5.03924 1.45466 0
M  V30 6580 H 656.878 4.5682 3.0987 0
M  V30 6581 H 657.355 2.88533 3.31127 0
M  V30 6582 H 657.961 3.79946 1.91105 0
M  V30 6583 N 656.276 -0.40816 1.52223 0
M  V30 6584 C 657.522 -1.15673 1.66576 0
M  V30 6585 C 657.855 -1.90141 0.394996 0
M  V30 6586 O 657.13 -1.84798 -0.606613 0
M  V30 6587 C 657.413 -2.15042 2.88841 0
M  V30 6588 C 657.266 -1.44465 4.25969 0
M  V30 6589 C 658.585 -3.15699 3.0663 0
M  V30 6590 H 655.704 -0.41916 0.606196 0
M  V30 6591 H 658.346 -0.442348 1.84779 0
M  V30 6592 H 656.496 -2.75964 2.73452 0
M  V30 6593 H 658.168 -0.866544 4.53088 0
M  V30 6594 H 656.411 -0.746612 4.27327 0
M  V30 6595 H 657.082 -2.16976 5.07568 0
M  V30 6596 H 659.558 -2.64854 3.20923 0
M  V30 6597 H 658.434 -3.82491 3.9369 0
M  V30 6598 H 658.695 -3.83481 2.19987 0
M  V30 6599 N 657.755 -1.42862 -0.66545 0
M  V30 6600 C 659.171 -1.25993 -0.979687 0
M  V30 6601 C 659.371 -0.170831 -2.00775 0
M  V30 6602 O 658.427 0.454827 -2.4837 0
M  V30 6603 C 659.74 -2.62005 -1.47559 0
M  V30 6604 C 661.288 -2.69437 -1.59288 0
M  V30 6605 C 661.763 -4.05838 -2.12272 0
M  V30 6606 N 663.254 -4.0784 -2.19592 0
M  V30 6607 C 663.989 -5.10205 -2.61684 0
M  V30 6608 N 663.485 -6.22949 -3.03161 0
M  V30 6609 N 665.278 -4.9756 -2.61516 0
M  V30 6610 H 657.429 -2.12395 0.0150493 0
M  V30 6611 H 659.692 -0.946355 -0.0558187 0
M  V30 6612 H 659.398 -3.42605 -0.794654 0
M  V30 6613 H 659.272 -2.86566 -2.45275 0
M  V30 6614 H 661.659 -1.89178 -2.26486 0
M  V30 6615 H 661.74 -2.48655 -0.600374 0
M  V30 6616 H 661.384 -4.86559 -1.4568 0
M  V30 6617 H 661.314 -4.23977 -3.12331 0
M  V30 6618 H 663.805 -3.26452 -1.90361 0
M  V30 6619 H 664.118 -6.96899 -3.33993 0
M  V30 6620 H 662.463 -6.2644 -3.00995 0
M  V30 6621 H 665.654 -4.08551 -2.28481 0
M  V30 6622 H 665.827 -5.77468 -2.93999 0
M  V30 6623 N 659.233 0.902656 -1.29189 0
M  V30 6624 C 660.163 2.02294 -1.16616 0
M  V30 6625 C 661.144 1.6999 -0.0611175 0
M  V30 6626 O 662.329 1.9271 -0.240072 0
M  V30 6627 C 659.459 3.37018 -0.83882 0
M  V30 6628 C 658.413 3.83522 -1.89986 0
M  V30 6629 C 657.739 5.15337 -1.42589 0
M  V30 6630 C 659.039 4.04169 -3.30824 0
M  V30 6631 H 660.733 2.13071 -2.10336 0
M  V30 6632 H 658.279 1.02378 -1.01266 0
M  V30 6633 H 660.232 4.14895 -0.737584 0
M  V30 6634 H 658.956 3.26325 0.134071 0
M  V30 6635 H 657.615 3.07859 -1.99043 0
M  V30 6636 H 657.263 5.01056 -0.441759 0
M  V30 6637 H 656.963 5.47423 -2.13547 0
M  V30 6638 H 658.487 5.95758 -1.3381 0
M  V30 6639 H 659.901 4.72537 -3.24626 0
M  V30 6640 H 658.298 4.47604 -3.99713 0
M  V30 6641 H 659.368 3.08604 -3.74021 0
M  V30 6642 N 660.711 1.11618 1.11262 0
M  V30 6643 C 662.122 0.881942 1.64556 0
M  V30 6644 C 662.473 -0.585442 1.87262 0
M  V30 6645 O 661.598 -1.44795 1.60821 0
M  V30 6646 C 662.193 1.59446 2.98935 0
M  V30 6647 C 660.752 1.40661 3.4913 0
M  V30 6648 C 659.899 1.63593 2.23903 0
M  V30 6649 H 662.85 1.27217 0.94877 0
M  V30 6650 H 662.871 1.04054 3.65996 0
M  V30 6651 H 662.383 2.66241 2.82378 0
M  V30 6652 H 660.484 0.360835 3.70849 0
M  V30 6653 H 660.597 2.15693 4.27801 0
M  V30 6654 H 658.961 1.05944 2.3162 0
M  V30 6655 H 659.744 2.71666 2.09886 0
M  V30 6656 N 662.189 -1.289 0.906776 0
M  V30 6657 C 663.437 -1.94883 0.535266 0
M  V30 6658 C 663.758 -1.71784 -0.922791 0
M  V30 6659 O 663.028 -1.05359 -1.65156 0
M  V30 6660 H 661.608 -0.721109 0.194962 0
M  V30 6661 H 664.27 -1.57018 1.15461 0
M  V30 6662 H 663.366 -3.03591 0.723821 0
M  V30 6663 N 663.667 -0.670007 -1.42649 0
M  V30 6664 C 664.597 -0.00258501 -2.335 0
M  V30 6665 C 665.578 0.794364 -1.50412 0
M  V30 6666 O 666.763 0.75248 -1.79029 0
M  V30 6667 C 663.893 0.952748 -3.33976 0
M  V30 6668 C 662.847 0.264733 -4.2718 0
M  V30 6669 C 662.173 1.33267 -5.17826 0
M  V30 6670 C 663.473 -0.853289 -5.15283 0
M  V30 6671 H 665.167 -0.761326 -2.89559 0
M  V30 6672 H 662.713 -0.367561 -1.3923 0
M  V30 6673 H 664.666 1.4287 -3.96442 0
M  V30 6674 H 663.39 1.74285 -2.7621 0
M  V30 6675 H 662.049 -0.190938 -3.66102 0
M  V30 6676 H 661.697 2.11464 -4.5639 0
M  V30 6677 H 661.397 0.877476 -5.81011 0
M  V30 6678 H 662.921 1.80965 -5.83167 0
M  V30 6679 H 664.335 -0.458763 -5.71462 0
M  V30 6680 H 662.732 -1.23398 -5.87276 0
M  V30 6681 H 663.802 -1.70412 -4.53969 0
M  V30 6682 N 665.145 1.52092 -0.413018 0
M  V30 6683 C 666.095 2.23947 0.427993 0
M  V30 6684 C 667.079 1.25229 1.01027 0
M  V30 6685 O 668.271 1.50448 0.932444 0
M  V30 6686 C 665.4 3.0672 1.542 0
M  V30 6687 C 664.486 4.12851 0.970307 0
M  V30 6688 N 664.877 5.05644 0.125611 0
M  V30 6689 C 663.175 4.28404 1.24042 0
M  V30 6690 C 663.876 5.8138 -0.192876 0
M  V30 6691 N 662.852 5.41996 0.417273 0
M  V30 6692 H 666.654 2.93048 -0.223628 0
M  V30 6693 H 664.168 1.60852 -0.223664 0
M  V30 6694 H 666.165 3.56754 2.15714 0
M  V30 6695 H 664.825 2.39159 2.19621 0
M  V30 6696 H 665.836 5.17348 -0.238995 0
M  V30 6697 H 662.513 3.72071 1.89391 0
M  V30 6698 H 663.903 6.66129 -0.878762 0
M  V30 6699 N 666.623 0.143563 1.56945 0
M  V30 6700 C 667.571 -0.814556 2.17871 0
M  V30 6701 C 668.565 -1.25778 1.13474 0
M  V30 6702 O 669.771 -1.22666 1.31731 0
M  V30 6703 H 666.146 -0.280873 0.697578 0
M  V30 6704 H 668.117 -0.276459 2.97117 0
M  V30 6705 C 666.866 -2.04503 2.81201 0
M  V30 6706 H 666.189 -1.71296 3.61245 0
M  V30 6707 H 667.629 -2.69493 3.27337 0
M  V30 6708 C 666.088 -2.85079 1.79532 0
M  V30 6709 O 666.618 -3.81306 1.26368 0
M  V30 6710 N 664.824 -2.49546 1.48913 0
M  V30 6711 H 664.371 -1.71359 1.92338 0
M  V30 6712 H 664.329 -3.03751 0.811348 0
M  V30 6713 N 668.101 -1.57061 -0.130224 0
M  V30 6714 C 669.326 -1.88802 -0.858409 0
M  V30 6715 C 669.751 -0.734353 -1.73173 0
M  V30 6716 O 669.109 0.315529 -1.78533 0
M  V30 6717 C 669.157 -3.19228 -1.67708 0
M  V30 6718 O 668.261 -3.04343 -2.78297 0
M  V30 6719 H 667.602 -0.619849 -0.238083 0
M  V30 6720 H 670.132 -2.04271 -0.115995 0
M  V30 6721 H 670.142 -3.51669 -2.06864 0
M  V30 6722 H 668.817 -4.02793 -1.0359 0
M  V30 6723 H 667.394 -2.83346 -2.42425 0
M  V30 6724 N 669.579 0.400081 -1.52437 0
M  V30 6725 C 670.509 1.4947 -1.7939 0
M  V30 6726 C 671.49 1.57383 -0.645329 0
M  V30 6727 O 672.675 1.72511 -0.891826 0
M  V30 6728 C 669.805 2.87201 -1.95276 0
M  V30 6729 C 668.759 2.94134 -3.10917 0
M  V30 6730 C 668.085 4.34207 -3.1204 0
M  V30 6731 C 669.385 2.64791 -4.50203 0
M  V30 6732 H 671.079 1.27165 -2.71052 0
M  V30 6733 H 668.625 0.610312 -1.30427 0
M  V30 6734 H 670.578 3.63772 -2.12715 0
M  V30 6735 H 669.302 3.10819 -1.00294 0
M  V30 6736 H 667.961 2.20009 -2.93243 0
M  V30 6737 H 667.609 4.54848 -2.14761 0
M  V30 6738 H 667.309 4.39768 -3.89715 0
M  V30 6739 H 668.833 5.127 -3.31619 0
M  V30 6740 H 670.247 3.31083 -4.68035 0
M  V30 6741 H 668.644 2.81717 -5.29864 0
M  V30 6742 H 669.714 1.60184 -4.57678 0
M  V30 6743 N 671.057 1.43213 0.657864 0
M  V30 6744 C 672.303 1.44798 1.41991 0
M  V30 6745 C 672.636 0.070256 1.94073 0
M  V30 6746 O 671.911 -0.908177 1.71995 0
M  V30 6747 C 672.194 2.4865 2.60471 0
M  V30 6748 C 672.047 3.95679 2.13911 0
M  V30 6749 C 673.366 2.49292 3.62686 0
M  V30 6750 H 670.485 0.527244 0.514959 0
M  V30 6751 H 673.127 1.74733 0.74621 0
M  V30 6752 H 671.277 2.23254 3.17946 0
M  V30 6753 H 672.949 4.32116 1.61472 0
M  V30 6754 H 671.192 4.08733 1.45325 0
M  V30 6755 H 671.863 4.6395 2.99089 0
M  V30 6756 H 674.339 2.71917 3.14961 0
M  V30 6757 H 673.215 3.23907 4.43143 0
M  V30 6758 H 673.476 1.52502 4.14964 0
M  V30 6759 N 672.536 -0.895792 1.29666 0
M  V30 6760 C 673.483 -2.00035 1.15129 0
M  V30 6761 C 674.453 -1.66043 0.0435819 0
M  V30 6762 O 675.638 -1.89621 0.211811 0
M  V30 6763 C 672.778 -3.34774 0.83787 0
M  V30 6764 C 671.891 -3.81525 2.0264 0
M  V30 6765 C 671.026 -5.04858 1.65201 0
M  V30 6766 C 670.065 -5.43988 2.80612 0
M  V30 6767 N 669.202 -6.58507 2.43544 0
M  V30 6768 H 674.042 -2.11802 2.09628 0
M  V30 6769 H 671.579 -1.03719 1.04311 0
M  V30 6770 H 673.537 -4.12311 0.636824 0
M  V30 6771 H 672.167 -3.22724 -0.0702314 0
M  V30 6772 H 671.219 -2.9999 2.33903 0
M  V30 6773 H 672.531 -4.06472 2.89106 0
M  V30 6774 H 671.685 -5.8999 1.41408 0
M  V30 6775 H 670.424 -4.81759 0.758893 0
M  V30 6776 H 669.429 -4.57388 3.05083 0
M  V30 6777 H 670.654 -5.69066 3.70595 0
M  V30 6778 H 668.6 -6.37004 1.56724 0
M  V30 6779 H 668.517 -6.83269 3.23542 0
M  V30 6780 H 669.785 -7.46897 2.2308 0
M  V30 6781 N 674.014 -1.12206 -1.10668 0
M  V30 6782 C 674.944 -0.810086 -2.18997 0
M  V30 6783 C 675.925 0.225065 -1.68604 0
M  V30 6784 O 677.11 0.086783 -1.94006 0
M  V30 6785 C 674.24 -0.261262 -3.46316 0
M  V30 6786 C 673.194 -1.2292 -4.09969 0
M  V30 6787 C 672.52 -0.540713 -5.31959 0
M  V30 6788 C 673.82 -2.58295 -4.53962 0
M  V30 6789 H 675.514 -1.7159 -2.45352 0
M  V30 6790 H 673.06 -0.82646 -1.17922 0
M  V30 6791 H 675.013 -0.0307522 -4.21389 0
M  V30 6792 H 673.737 0.679879 -3.19445 0
M  V30 6793 H 672.396 -1.44548 -3.369 0
M  V30 6794 H 672.044 0.405492 -5.01363 0
M  V30 6795 H 671.744 -1.18637 -5.75499 0
M  V30 6796 H 673.268 -0.319184 -6.09765 0
M  V30 6797 H 674.682 -2.40709 -5.20319 0
M  V30 6798 H 673.079 -3.18916 -5.08343 0
M  V30 6799 H 674.149 -3.16918 -3.67002 0
M  V30 6800 N 675.492 1.28418 -0.913599 0
M  V30 6801 C 676.439 2.27301 -0.400373 0
M  V30 6802 C 677.409 1.57582 0.52509 0
M  V30 6803 O 678.594 1.85482 0.447318 0
M  V30 6804 C 675.734 3.43284 0.35361 0
M  V30 6805 C 674.847 4.27752 -0.604341 0
M  V30 6806 C 673.982 5.30934 0.168075 0
M  V30 6807 C 673.021 6.07065 -0.783499 0
M  V30 6808 N 672.158 7.02086 -0.0446112 0
M  V30 6809 H 676.998 2.70579 -1.24865 0
M  V30 6810 H 674.535 1.33067 -0.627028 0
M  V30 6811 H 676.493 4.09322 0.806945 0
M  V30 6812 H 675.123 3.00997 1.16623 0
M  V30 6813 H 674.175 3.61759 -1.17621 0
M  V30 6814 H 675.487 4.80682 -1.33216 0
M  V30 6815 H 674.641 6.02855 0.681979 0
M  V30 6816 H 673.38 4.78771 0.928947 0
M  V30 6817 H 672.385 5.33995 -1.30878 0
M  V30 6818 H 673.61 6.61317 -1.54392 0
M  V30 6819 H 671.556 6.52273 0.698272 0
M  V30 6820 H 671.473 7.52637 -0.712258 0
M  V30 6821 H 672.741 7.78205 0.449102 0
M  V30 6822 N 676.97 0.677563 1.42291 0
M  V30 6823 C 677.92 -0.0218641 2.2799 0
M  V30 6824 C 678.904 -0.770816 1.41235 0
M  V30 6825 O 680.096 -0.649273 1.64662 0
M  V30 6826 C 677.225 -0.970449 3.29298 0
M  V30 6827 C 676.311 -0.218695 4.23536 0
M  V30 6828 N 676.702 0.777908 4.99782 0
M  V30 6829 C 675 -0.456748 4.43655 0
M  V30 6830 C 675.701 1.22632 5.68627 0
M  V30 6831 N 674.677 0.55573 5.40752 0
M  V30 6832 H 678.479 0.742516 2.84366 0
M  V30 6833 H 675.993 0.506862 1.54288 0
M  V30 6834 H 677.99 -1.48652 3.89497 0
M  V30 6835 H 676.65 -1.73463 2.74483 0
M  V30 6836 H 677.661 1.15754 5.04798 0
M  V30 6837 H 674.338 -1.20021 3.99877 0
M  V30 6838 H 675.728 2.05231 6.39789 0
M  V30 6839 N 678.448 -1.51871 0.421078 0
M  V30 6840 C 679.696 -2.01539 -0.150492 0
M  V30 6841 C 680.017 -1.30803 -1.44623 0
M  V30 6842 O 679.287 -0.437568 -1.90951 0
M  V30 6843 H 677.867 -0.744698 -0.0586041 0
M  V30 6844 H 680.529 -1.8668 0.560059 0
M  V30 6845 H 679.625 -3.10264 -0.338068 0
M  V30 6846 N 679.926 -0.151884 -1.56866 0
M  V30 6847 C 680.889 0.771861 -2.15812 0
M  V30 6848 C 681.889 1.17181 -1.10115 0
M  V30 6849 O 683.079 1.09194 -1.35729 0
M  V30 6850 C 680.211 2.04806 -2.7252 0
M  V30 6851 H 681.404 0.259021 -2.98779 0
M  V30 6852 H 678.957 0.097588 -1.55995 0
M  V30 6853 H 679.692 2.60445 -1.93233 0
M  V30 6854 H 679.477 1.77044 -3.49854 0
M  V30 6855 H 680.967 2.70771 -3.1792 0
M  V30 6856 N 681.404 1.57128 0.121893 0
M  V30 6857 C 682.652 1.84335 0.828548 0
M  V30 6858 C 682.973 0.736632 1.80551 0
M  V30 6859 O 682.243 -0.23962 1.94429 0
M  V30 6860 H 680.823 0.680108 0.30897 0
M  V30 6861 H 683.485 1.9459 0.109906 0
M  V30 6862 H 682.581 2.80152 1.37554 0
M  V30 6863 N 682.882 -0.391992 1.52647 0
M  V30 6864 C 684.128 -1.139 1.67793 0
M  V30 6865 C 684.461 -1.89711 0.41514 0
M  V30 6866 O 683.736 -1.85431 -0.586979 0
M  V30 6867 C 684.019 -2.11966 2.91105 0
M  V30 6868 C 683.872 -1.39939 4.27478 0
M  V30 6869 C 685.191 -3.1243 3.09961 0
M  V30 6870 H 682.31 -0.412707 0.610608 0
M  V30 6871 H 684.952 -0.422725 1.85238 0
M  V30 6872 H 683.102 -2.73048 2.76364 0
M  V30 6873 H 684.774 -0.818439 4.53982 0
M  V30 6874 H 683.017 -0.701246 4.28095 0
M  V30 6875 H 683.688 -2.1158 5.09841 0
M  V30 6876 H 686.164 -2.61435 3.23714 0
M  V30 6877 H 685.04 -3.78294 3.97725 0
M  V30 6878 H 685.301 -3.81127 2.24042 0
M  V30 6879 N 684.36 -1.4356 -0.65026 0
M  V30 6880 C 685.323 -1.48615 -1.74489 0
M  V30 6881 C 686.323 -0.370483 -1.56474 0
M  V30 6882 O 687.513 -0.632351 -1.62317 0
M  V30 6883 C 684.645 -1.34161 -3.13391 0
M  V30 6884 H 685.838 -2.46103 -1.71387 0
M  V30 6885 H 683.391 -1.30369 -0.862186 0
M  V30 6886 H 684.126 -0.376918 -3.22102 0
M  V30 6887 H 683.911 -2.1504 -3.27872 0
M  V30 6888 H 685.401 -1.40637 -3.93206 0
M  V30 6889 N 685.838 0.888903 -1.30139 0
M  V30 6890 C 686.771 1.99655 -1.10514 0
M  V30 6891 C 687.749 1.62594 -0.0138934 0
M  V30 6892 O 688.933 1.87762 -0.166689 0
M  V30 6893 C 686.06 3.31708 -0.684655 0
M  V30 6894 C 685.106 3.87755 -1.77619 0
M  V30 6895 S 685.939 4.15532 -3.37777 0
M  V30 6896 C 687.095 5.5061 -2.97622 0
M  V30 6897 H 687.328 2.15996 -2.04287 0
M  V30 6898 H 684.861 1.03682 -1.14409 0
M  V30 6899 H 686.819 4.08039 -0.448782 0
M  V30 6900 H 685.48 3.1323 0.233648 0
M  V30 6901 H 684.673 4.83164 -1.43417 0
M  V30 6902 H 684.275 3.18149 -1.96614 0
M  V30 6903 H 686.567 6.31518 -2.45338 0
M  V30 6904 H 687.51 5.89747 -3.91924 0
M  V30 6905 H 687.918 5.12983 -2.35603 0
M  V30 6906 N 687.317 1.12792 1.10072 0
M  V30 6907 C 688.594 0.796867 1.78632 0
M  V30 6908 C 688.974 -0.712739 1.98704 0
M  V30 6909 O 688.322 -1.64773 1.5831 0
M  V30 6910 C 688.532 1.57622 3.11378 0
M  V30 6911 C 689.88 1.76463 3.86194 0
M  V30 6912 O 690.904 1.54165 3.2111 0
M  V30 6913 O 689.763 2.13623 5.03018 0
M  V30 6914 H 686.857 0.290248 0.774394 0
M  V30 6915 H 689.403 1.23215 1.16688 0
M  V30 6916 H 688.175 2.60246 2.92212 0
M  V30 6917 H 687.798 1.13543 3.81043 0
M  V30 6918 N 688.795 -1.27931 0.920396 0
M  V30 6919 C 690.043 -1.94304 0.555906 0
M  V30 6920 C 690.364 -1.72753 -0.904519 0
M  V30 6921 O 689.634 -1.07104 -1.64029 0
M  V30 6922 H 688.214 -0.719001 0.202599 0
M  V30 6923 H 690.876 -1.55785 1.1712 0
M  V30 6924 H 689.972 -3.02806 0.755981 0
M  V30 6925 N 690.273 -0.685099 -1.4193 0
M  V30 6926 C 691.205 0.0258679 -2.29185 0
M  V30 6927 C 692.218 0.755076 -1.44231 0
M  V30 6928 O 693.407 0.60752 -1.67844 0
M  V30 6929 C 690.507 1.06055 -3.21878 0
M  V30 6930 C 689.68 0.403088 -4.35539 0
M  V30 6931 C 688.739 1.33895 -5.0888 0
M  V30 6932 O 687.765 0.835326 -5.63037 0
M  V30 6933 N 688.967 2.6718 -5.15359 0
M  V30 6934 H 691.732 -0.723201 -2.90843 0
M  V30 6935 H 689.293 -0.53031 -1.52968 0
M  V30 6936 H 691.285 1.68813 -3.6781 0
M  V30 6937 H 689.855 1.71126 -2.616 0
M  V30 6938 H 689.075 -0.404185 -3.92122 0
M  V30 6939 H 690.363 -0.0545098 -5.08771 0
M  V30 6940 H 689.761 3.10626 -4.72788 0
M  V30 6941 H 688.318 3.25159 -5.64903 0
M  V30 6942 N 691.751 1.51645 -0.429126 0
M  V30 6943 C 693.028 1.94579 0.199614 0
M  V30 6944 C 693.408 1.3673 1.60836 0
M  V30 6945 O 692.756 0.551062 2.21756 0
M  V30 6946 C 692.966 3.48506 0.185685 0
M  V30 6947 C 694.314 4.22756 0.395282 0
M  V30 6948 O 695.338 3.55219 0.264165 0
M  V30 6949 O 694.197 5.42555 0.655475 0
M  V30 6950 H 691.291 0.816007 0.134393 0
M  V30 6951 H 693.837 1.62577 -0.486513 0
M  V30 6952 H 692.609 3.83045 -0.799508 0
M  V30 6953 H 692.232 3.86927 0.91507 0
M  V30 6954 N 693.229 0.160201 1.56784 0
M  V30 6955 C 694.478 -0.487619 1.95717 0
M  V30 6956 C 694.791 -1.65136 1.0483 0
M  V30 6957 O 695.997 -2.36468 1.33398 0
M  V30 6958 C 694.453 -0.91888 3.47972 0
M  V30 6959 C 694.061 0.218655 4.47466 0
M  V30 6960 C 695.805 -1.53575 3.95746 0
M  V30 6961 C 693.712 -0.231614 5.90946 0
M  V30 6962 H 692.642 -0.185939 0.730714 0
M  V30 6963 H 695.293 0.246657 1.81835 0
M  V30 6964 H 693.675 -1.70881 3.57234 0
M  V30 6965 H 694.849 0.995825 4.49911 0
M  V30 6966 H 693.164 0.744767 4.09685 0
M  V30 6967 H 695.761 -1.88448 5.00391 0
M  V30 6968 H 696.104 -2.42959 3.38048 0
M  V30 6969 H 696.637 -0.810467 3.89456 0
M  V30 6970 H 693.376 0.62718 6.52493 0
M  V30 6971 H 692.896 -0.974379 5.91833 0
M  V30 6972 H 694.575 -0.67922 6.43425 0
M  V30 6973 N 694.707 -1.5719 -0.113559 0
M  V30 6974 C 695.639 -1.97393 -1.16484 0
M  V30 6975 C 696.652 -0.873964 -1.37352 0
M  V30 6976 O 697.841 -1.15222 -1.36331 0
M  V30 6977 C 694.941 -2.26174 -2.52386 0
M  V30 6978 C 694.114 -3.57479 -2.52046 0
M  V30 6979 C 693.173 -3.74409 -3.69735 0
M  V30 6980 O 692.199 -4.46463 -3.53071 0
M  V30 6981 N 693.401 -3.13588 -4.88511 0
M  V30 6982 H 696.166 -2.88184 -0.822814 0
M  V30 6983 H 693.727 -1.59044 -0.302769 0
M  V30 6984 H 695.719 -2.3471 -3.29687 0
M  V30 6985 H 694.289 -1.41483 -2.7875 0
M  V30 6986 H 693.509 -3.60081 -1.60421 0
M  V30 6987 H 694.797 -4.43775 -2.48881 0
M  V30 6988 H 694.195 -2.55026 -5.04953 0
M  V30 6989 H 692.752 -3.27637 -5.63469 0
M  V30 6990 N 696.185 0.383891 -1.52853 0
M  V30 6991 C 697.115 1.47559 -1.80965 0
M  V30 6992 C 698.096 1.5669 -0.661986 0
M  V30 6993 O 699.281 1.71556 -0.910072 0
M  V30 6994 C 696.411 2.85114 -1.98312 0
M  V30 6995 C 695.365 2.9082 -3.14019 0
M  V30 6996 C 694.691 4.30873 -3.16627 0
M  V30 6997 C 695.991 2.60001 -4.52986 0
M  V30 6998 H 697.685 1.24283 -2.72386 0
M  V30 6999 H 695.231 0.596445 -1.31067 0
M  V30 7000 H 697.184 3.61496 -2.16561 0
M  V30 7001 H 695.908 3.09738 -1.03585 0
M  V30 7002 H 694.567 2.16886 -2.9556 0
M  V30 7003 H 694.215 4.52545 -2.19573 0
M  V30 7004 H 693.915 4.3561 -3.94357 0
M  V30 7005 H 695.439 5.09154 -3.37038 0
M  V30 7006 H 696.853 3.261 -4.71521 0
M  V30 7007 H 695.25 2.76081 -5.32822 0
M  V30 7008 H 696.32 1.5532 -4.59351 0
M  V30 7009 N 697.663 1.43903 0.642637 0
M  V30 7010 C 699.074 1.40975 1.22404 0
M  V30 7011 C 699.425 0.1192 1.95838 0
M  V30 7012 O 698.55 -0.780939 2.01818 0
M  V30 7013 C 699.145 2.5538 2.22636 0
M  V30 7014 C 697.704 2.55684 2.76229 0
M  V30 7015 C 696.851 2.32556 1.51039 0
M  V30 7016 H 699.802 1.5265 0.434006 0
M  V30 7017 H 699.823 2.27474 3.05017 0
M  V30 7018 H 699.335 3.49294 1.69161 0
M  V30 7019 H 697.436 1.65679 3.33738 0
M  V30 7020 H 697.549 3.53799 3.23053 0
M  V30 7021 H 695.913 1.81427 1.78764 0
M  V30 7022 H 696.696 3.28569 0.99484 0
M  V30 7023 N 699.141 -0.881989 1.30609 0
M  V30 7024 C 700.071 -2.00413 1.1982 0
M  V30 7025 C 701.052 -1.69871 0.0881538 0
M  V30 7026 O 702.237 -1.92304 0.2707 0
M  V30 7027 C 699.367 -3.35641 0.89233 0
M  V30 7028 C 698.321 -3.80451 1.96064 0
M  V30 7029 C 697.647 -5.13003 1.5077 0
M  V30 7030 C 698.947 -3.98855 3.37213 0
M  V30 7031 H 700.641 -2.09698 2.13699 0
M  V30 7032 H 698.187 -1.00754 1.02882 0
M  V30 7033 H 700.14 -4.13669 0.803497 0
M  V30 7034 H 698.864 -3.26497 -0.0821381 0
M  V30 7035 H 697.523 -3.04654 2.03916 0
M  V30 7036 H 697.171 -5.0029 0.521417 0
M  V30 7037 H 696.871 -5.43956 2.22229 0
M  V30 7038 H 698.395 -5.93554 1.43271 0
M  V30 7039 H 699.809 -4.67312 3.32103 0
M  V30 7040 H 698.206 -4.41188 4.06784 0
M  V30 7041 H 699.276 -3.02614 3.78883 0
M  V30 7042 N 700.619 -1.13374 -1.09472 0
M  V30 7043 C 701.549 -0.833268 -2.18126 0
M  V30 7044 C 702.53 0.207169 -1.68834 0
M  V30 7045 O 703.715 0.0662012 -1.94087 0
M  V30 7046 C 700.845 -0.297979 -3.46019 0
M  V30 7047 C 699.799 -1.27261 -4.08642 0
M  V30 7048 C 699.125 -0.597104 -5.31356 0
M  V30 7049 C 700.425 -2.63095 -4.51197 0
M  V30 7050 H 702.119 -1.74182 -2.43518 0
M  V30 7051 H 699.665 -0.838921 -1.17039 0
M  V30 7052 H 701.618 -0.0754444 -4.21332 0
M  V30 7053 H 700.342 0.645959 -3.20148 0
M  V30 7054 H 699.001 -1.48113 -3.35348 0
M  V30 7055 H 698.649 0.352293 -5.01765 0
M  V30 7056 H 698.349 -1.24734 -5.74208 0
M  V30 7057 H 699.873 -0.38384 -6.09392 0
M  V30 7058 H 701.287 -2.46214 -5.17737 0
M  V30 7059 H 699.684 -3.2429 -5.04932 0
M  V30 7060 H 700.754 -3.20793 -3.6362 0
M  V30 7061 N 702.098 1.27442 -0.927168 0
M  V30 7062 C 703.045 2.26863 -0.424459 0
M  V30 7063 C 704.015 1.5813 0.508346 0
M  V30 7064 O 705.2 1.85946 0.42762 0
M  V30 7065 C 702.34 3.43639 0.31718 0
M  V30 7066 C 701.453 4.27087 -0.649675 0
M  V30 7067 C 700.588 5.31082 0.111753 0
M  V30 7068 C 699.627 6.062 -0.847843 0
M  V30 7069 N 698.764 7.01999 -0.119074 0
M  V30 7070 H 703.604 2.69239 -1.27728 0
M  V30 7071 H 701.141 1.32394 -0.641106 0
M  V30 7072 H 703.099 4.10155 0.763486 0
M  V30 7073 H 701.729 3.02217 1.13424 0
M  V30 7074 H 700.781 3.60491 -1.21451 0
M  V30 7075 H 702.093 4.79242 -1.38307 0
M  V30 7076 H 701.247 6.03544 0.618 0
M  V30 7077 H 699.986 4.7973 0.878114 0
M  V30 7078 H 698.991 5.32577 -1.36534 0
M  V30 7079 H 700.216 6.59642 -1.61398 0
M  V30 7080 H 698.162 6.52977 0.629051 0
M  V30 7081 H 698.079 7.5184 -0.792046 0
M  V30 7082 H 699.347 7.78638 0.366537 0
M  V30 7083 N 703.576 0.692616 1.41565 0
M  V30 7084 C 704.824 0.221896 2.00878 0
M  V30 7085 C 705.145 -1.18164 1.5512 0
M  V30 7086 O 704.415 -1.79679 0.78054 0
M  V30 7087 H 702.995 0.0790463 0.742806 0
M  V30 7088 H 705.657 0.893115 1.73232 0
M  V30 7089 H 704.753 0.23702 3.11199 0
M  V30 7090 N 705.054 -1.51416 0.437162 0
M  V30 7091 C 706.331 -1.94682 -0.189292 0
M  V30 7092 C 706.711 -1.37581 -1.60108 0
M  V30 7093 O 706.059 -0.562815 -2.2146 0
M  V30 7094 C 706.269 -3.48599 -0.167201 0
M  V30 7095 C 707.617 -4.2296 -0.372856 0
M  V30 7096 O 708.641 -3.55354 -0.245323 0
M  V30 7097 O 707.5 -5.42895 -0.626693 0
M  V30 7098 H 704.594 -0.816708 -0.130063 0
M  V30 7099 H 707.14 -1.62316 0.495128 0
M  V30 7100 H 705.912 -3.82616 0.81981 0
M  V30 7101 H 705.535 -3.87406 -0.894537 0
M  V30 7102 N 706.532 -0.168513 -1.56696 0
M  V30 7103 C 707.462 0.758563 -2.20835 0
M  V30 7104 C 708.443 1.24121 -1.1631 0
M  V30 7105 O 709.628 1.29487 -1.4473 0
M  V30 7106 C 706.758 1.9892 -2.8469 0
M  V30 7107 C 705.712 1.64252 -3.95228 0
M  V30 7108 C 705.038 2.94757 -4.46119 0
M  V30 7109 C 706.338 0.872675 -5.14958 0
M  V30 7110 H 708.032 0.223953 -2.98561 0
M  V30 7111 H 705.578 0.106277 -1.43607 0
M  V30 7112 H 707.531 2.64275 -3.28233 0
M  V30 7113 H 706.255 2.5479 -2.04327 0
M  V30 7114 H 704.914 1.01266 -3.52336 0
M  V30 7115 H 704.562 3.48662 -3.62552 0
M  V30 7116 H 704.262 2.72316 -5.2069 0
M  V30 7117 H 705.786 3.61147 -4.92347 0
M  V30 7118 H 707.2 1.42875 -5.55211 0
M  V30 7119 H 705.597 0.747402 -5.95428 0
M  V30 7120 H 706.667 -0.131535 -4.84722 0
M  V30 7121 N 708.01 1.57248 0.105221 0
M  V30 7122 C 709.426 1.52853 0.459153 0
M  V30 7123 C 709.626 0.883674 1.8109 0
M  V30 7124 O 708.682 0.471864 2.48052 0
M  V30 7125 C 709.995 2.97596 0.43096 0
M  V30 7126 C 711.543 3.08758 0.513536 0
M  V30 7127 C 712.018 4.55089 0.515593 0
M  V30 7128 N 713.509 4.59597 0.576639 0
M  V30 7129 C 714.244 5.70253 0.599904 0
M  V30 7130 N 713.74 6.90368 0.579985 0
M  V30 7131 N 715.533 5.58399 0.643953 0
M  V30 7132 H 707.684 1.97547 -0.780306 0
M  V30 7133 H 709.947 0.902758 -0.289363 0
M  V30 7134 H 709.653 3.48201 -0.494903 0
M  V30 7135 H 709.527 3.55756 1.2537 0
M  V30 7136 H 711.914 2.58148 1.42982 0
M  V30 7137 H 711.995 2.53568 -0.337148 0
M  V30 7138 H 711.639 5.06348 -0.396701 0
M  V30 7139 H 711.569 5.08105 1.38335 0
M  V30 7140 H 714.06 3.73144 0.597639 0
M  V30 7141 H 714.373 7.70462 0.600741 0
M  V30 7142 H 712.718 6.92843 0.547191 0
M  V30 7143 H 715.909 4.63467 0.656975 0
M  V30 7144 H 716.082 6.44644 0.658616 0
M  V30 7145 N 709.488 -0.375779 1.53054 0
M  V30 7146 C 710.737 -1.11674 1.67964 0
M  V30 7147 C 711.05 -1.90755 0.432655 0
M  V30 7148 O 712.256 -2.67538 0.462109 0
M  V30 7149 C 710.712 -2.0344 2.96884 0
M  V30 7150 C 710.32 -1.29719 4.28809 0
M  V30 7151 C 712.064 -2.7759 3.2116 0
M  V30 7152 C 709.971 -2.20327 5.48826 0
M  V30 7153 H 708.901 -0.420597 0.625791 0
M  V30 7154 H 711.552 -0.378499 1.79554 0
M  V30 7155 H 709.934 -2.80953 2.79072 0
M  V30 7156 H 711.108 -0.573394 4.57219 0
M  V30 7157 H 709.423 -0.674735 4.10897 0
M  V30 7158 H 712.02 -3.4559 4.0801 0
M  V30 7159 H 712.363 -3.42399 2.36789 0
M  V30 7160 H 712.896 -2.07164 3.396 0
M  V30 7161 H 709.635 -1.60113 6.35645 0
M  V30 7162 H 709.155 -2.90585 5.2471 0
M  V30 7163 H 710.834 -2.80116 5.83219 0
M  V30 7164 N 710.966 -1.44241 -0.634997 0
M  V30 7165 C 711.898 -1.46793 -1.76024 0
M  V30 7166 C 712.911 -0.361781 -1.58729 0
M  V30 7167 O 714.1 -0.627297 -1.67114 0
M  V30 7168 C 711.2 -1.28248 -3.13697 0
M  V30 7169 C 710.373 -2.52038 -3.57485 0
M  V30 7170 C 709.432 -2.2845 -4.74022 0
M  V30 7171 O 708.458 -3.01915 -4.82531 0
M  V30 7172 N 709.66 -1.31264 -5.65464 0
M  V30 7173 H 712.425 -2.43797 -1.74307 0
M  V30 7174 H 709.986 -1.39631 -0.819438 0
M  V30 7175 H 711.978 -1.10321 -3.89373 0
M  V30 7176 H 710.548 -0.39623 -3.10079 0
M  V30 7177 H 709.768 -2.85268 -2.72059 0
M  V30 7178 H 711.056 -3.34382 -3.83492 0
M  V30 7179 H 710.454 -0.705817 -5.6128 0
M  V30 7180 H 709.011 -1.19316 -6.40786 0
M  V30 7181 N 712.444 0.87505 -1.31075 0
M  V30 7182 C 713.394 1.96933 -1.14898 0
M  V30 7183 C 714.378 1.60783 -0.0613703 0
M  V30 7184 O 715.57 1.74678 -0.285751 0
M  V30 7185 C 712.699 3.3253 -0.853166 0
M  V30 7186 C 711.785 3.74963 -1.98151 0
M  V30 7187 N 712.176 3.89403 -3.22799 0
M  V30 7188 C 710.474 4.04436 -1.8801 0
M  V30 7189 C 711.175 4.25563 -3.96574 0
M  V30 7190 N 710.151 4.3597 -3.24701 0
M  V30 7191 H 713.953 2.06201 -2.09424 0
M  V30 7192 H 711.467 1.06551 -1.22558 0
M  V30 7193 H 713.464 4.10666 -0.718266 0
M  V30 7194 H 712.124 3.24592 0.0839218 0
M  V30 7195 H 713.135 3.74266 -3.57974 0
M  V30 7196 H 709.812 4.04915 -1.01733 0
M  V30 7197 H 711.202 4.44375 -5.03965 0
M  V30 7198 N 713.922 1.13953 1.08869 0
M  V30 7199 C 715.15 0.92817 1.84912 0
M  V30 7200 C 715.565 -0.523197 1.81406 0
M  V30 7201 O 714.922 -1.36237 1.21432 0
M  V30 7202 C 714.973 1.41509 3.32652 0
M  V30 7203 O 714.694 2.80959 3.36145 0
M  V30 7204 C 716.195 1.243 4.25517 0
M  V30 7205 H 713.415 0.330612 0.583898 0
M  V30 7206 H 715.959 1.51349 1.37527 0
M  V30 7207 H 714.114 0.872648 3.77444 0
M  V30 7208 H 714.528 3.02704 4.28335 0
M  V30 7209 H 716.002 1.63237 5.27312 0
M  V30 7210 H 716.479 0.18532 4.38809 0
M  V30 7211 H 717.085 1.77375 3.86546 0
M  V30 7212 N 715.4 -1.26948 0.933913 0
M  V30 7213 C 716.646 -1.94374 0.57848 0
M  V30 7214 C 716.979 -1.73166 -0.879048 0
M  V30 7215 O 716.254 -1.06438 -1.62792 0
M  V30 7216 C 716.537 -3.4834 0.912739 0
M  V30 7217 C 716.39 -3.78866 2.42448 0
M  V30 7218 C 717.709 -4.38062 0.423003 0
M  V30 7219 H 714.828 -0.705959 0.211639 0
M  V30 7220 H 717.47 -1.49951 1.16682 0
M  V30 7221 H 715.62 -3.86309 0.412058 0
M  V30 7222 H 717.292 -3.50654 2.99733 0
M  V30 7223 H 715.535 -3.25198 2.87104 0
M  V30 7224 H 716.206 -4.86458 2.60887 0
M  V30 7225 H 718.682 -4.0728 0.852191 0
M  V30 7226 H 717.558 -5.44599 0.685776 0
M  V30 7227 H 717.819 -4.36886 -0.676994 0
M  V30 7228 N 716.879 -0.700114 -1.41195 0
M  V30 7229 C 718.107 -0.242179 -2.05478 0
M  V30 7230 C 718.522 1.11029 -1.52702 0
M  V30 7231 O 717.879 1.69473 -0.677127 0
M  V30 7232 C 717.93 -0.196271 -3.60967 0
M  V30 7233 O 717.651 -1.49532 -4.11791 0
M  V30 7234 C 719.152 0.282102 -4.42401 0
M  V30 7235 H 716.372 -0.111749 -0.661629 0
M  V30 7236 H 718.916 -0.953975 -1.80885 0
M  V30 7237 H 717.071 0.46638 -3.84582 0
M  V30 7238 H 717.485 -1.38545 -5.05871 0
M  V30 7239 H 718.959 0.263093 -5.51373 0
M  V30 7240 H 719.436 1.32174 -4.1884 0
M  V30 7241 H 720.042 -0.349712 -4.2386 0
M  V30 7242 N 718.357 1.51182 -0.445186 0
M  V30 7243 C 719.32 2.26501 0.350722 0
M  V30 7244 C 720.32 1.3025 0.942952 0
M  V30 7245 O 721.51 1.53897 0.816175 0
M  V30 7246 C 718.642 3.06274 1.49697 0
M  V30 7247 H 719.835 2.98299 -0.309474 0
M  V30 7248 H 717.388 1.55034 -0.198551 0
M  V30 7249 H 718.123 2.38911 2.19299 0
M  V30 7250 H 717.908 3.76979 1.0784 0
M  V30 7251 H 719.398 3.63306 2.05909 0
M  V30 7252 N 719.835 0.176821 1.56605 0
M  V30 7253 C 721.06 -0.47599 2.01864 0
M  V30 7254 C 721.485 -1.55645 1.05623 0
M  V30 7255 O 720.843 -1.81263 0.0366729 0
M  V30 7256 C 720.891 -1.02619 3.4569 0
M  V30 7257 O 719.995 -2.13996 3.52533 0
M  V30 7258 H 719.336 -0.113363 0.654251 0
M  V30 7259 H 721.866 0.28233 2.02643 0
M  V30 7260 H 721.876 -1.34742 3.85109 0
M  V30 7261 H 720.551 -0.235138 4.15235 0
M  V30 7262 H 719.128 -1.82876 3.24978 0
M  V30 7263 N 721.313 -1.57302 -0.09688 0
M  V30 7264 C 722.559 -1.86273 -0.801885 0
M  V30 7265 C 722.892 -0.765694 -1.78468 0
M  V30 7266 O 722.167 0.226495 -1.93177 0
M  V30 7267 C 722.45 -3.25876 -1.53221 0
M  V30 7268 C 722.303 -4.46205 -0.567529 0
M  V30 7269 C 723.622 -3.63352 -2.48321 0
M  V30 7270 H 720.741 -0.67752 -0.29006 0
M  V30 7271 H 723.383 -1.89887 -0.0655577 0
M  V30 7272 H 721.533 -3.22926 -2.15988 0
M  V30 7273 H 723.205 -4.6127 0.0529982 0
M  V30 7274 H 721.448 -4.33636 0.119233 0
M  V30 7275 H 722.119 -5.40608 -1.11564 0
M  V30 7276 H 724.595 -3.67234 -1.95648 0
M  V30 7277 H 723.471 -4.61968 -2.9644 0
M  V30 7278 H 723.732 -2.91941 -3.31998 0
M  V30 7279 N 722.791 0.367657 -1.53252 0
M  V30 7280 C 724.207 0.709191 -1.42978 0
M  V30 7281 C 724.407 1.93352 -0.567193 0
M  V30 7282 O 723.463 2.52453 -0.0488349 0
M  V30 7283 C 724.776 0.924338 -2.86141 0
M  V30 7284 C 726.324 1.02448 -2.95759 0
M  V30 7285 C 726.799 1.27211 -4.39979 0
M  V30 7286 N 728.29 1.33986 -4.43398 0
M  V30 7287 C 729.025 1.54852 -5.52095 0
M  V30 7288 N 728.521 1.73049 -6.7084 0
M  V30 7289 N 730.314 1.57205 -5.39669 0
M  V30 7290 H 722.465 -0.437669 -2.07842 0
M  V30 7291 H 724.728 -0.133737 -0.938519 0
M  V30 7292 H 724.434 0.0965455 -3.51567 0
M  V30 7293 H 724.308 1.83302 -3.29667 0
M  V30 7294 H 726.695 1.84282 -2.30487 0
M  V30 7295 H 726.776 0.0932301 -2.5563 0
M  V30 7296 H 726.42 0.458792 -5.05824 0
M  V30 7297 H 726.35 2.21654 -4.77679 0
M  V30 7298 H 728.841 1.21545 -3.5782 0
M  V30 7299 H 729.154 1.88538 -7.49449 0
M  V30 7300 H 727.499 1.70231 -6.7383 0
M  V30 7301 H 730.69 1.42555 -4.45865 0
M  V30 7302 H 730.863 1.73126 -6.24445 0
M  V30 7303 N 724.269 1.44576 0.627338 0
M  V30 7304 C 725.199 1.54562 1.75022 0
M  V30 7305 C 726.18 0.398378 1.65369 0
M  V30 7306 O 727.365 0.61899 1.84071 0
M  V30 7307 C 724.495 1.49309 3.13567 0
M  V30 7308 C 723.449 2.62549 3.38012 0
M  V30 7309 C 722.775 2.42348 4.76625 0
M  V30 7310 C 724.075 4.04678 3.30202 0
M  V30 7311 H 725.769 2.4855 1.66922 0
M  V30 7312 H 723.315 1.19624 0.801636 0
M  V30 7313 H 725.268 1.54895 3.919 0
M  V30 7314 H 723.992 0.518392 3.2246 0
M  V30 7315 H 722.651 2.56358 2.62061 0
M  V30 7316 H 722.299 1.43062 4.82226 0
M  V30 7317 H 721.999 3.18273 4.93939 0
M  V30 7318 H 723.523 2.49758 5.57183 0
M  V30 7319 H 724.937 4.12217 3.98435 0
M  V30 7320 H 723.334 4.80836 3.5905 0
M  V30 7321 H 724.404 4.2798 2.27949 0
M  V30 7322 N 725.747 -0.868086 1.31537 0
M  V30 7323 C 726.972 -1.65926 1.24432 0
M  V30 7324 C 727.397 -1.87169 -0.186936 0
M  V30 7325 O 726.755 -1.4148 -1.13371 0
M  V30 7326 C 726.803 -3.00347 1.9956 0
M  V30 7327 O 725.907 -3.90221 1.33422 0
M  V30 7328 H 725.248 -0.506375 0.429512 0
M  V30 7329 H 727.778 -1.0822 1.73637 0
M  V30 7330 H 727.788 -3.50269 2.09226 0
M  V30 7331 H 726.463 -2.84205 3.03645 0
M  V30 7332 H 725.04 -3.48672 1.32219 0
M  V30 7333 N 727.225 -1.14528 -1.08264 0
M  V30 7334 C 728.455 -0.936604 -1.8415 0
M  V30 7335 C 728.863 0.518298 -1.81962 0
M  V30 7336 O 728.206 1.37096 -1.22272 0
M  V30 7337 C 728.268 -1.36182 -3.32708 0
M  V30 7338 C 727.932 -2.83257 -3.58629 0
M  V30 7339 C 728.929 -3.81366 -3.5335 0
M  V30 7340 C 726.614 -3.20704 -3.86593 0
M  V30 7341 C 728.608 -5.14929 -3.75668 0
M  V30 7342 C 726.295 -4.54443 -4.08564 0
M  V30 7343 C 727.293 -5.51365 -4.03095 0
M  V30 7344 O 726.981 -6.8269 -4.24488 0
M  V30 7345 H 726.713 -0.333254 -0.588148 0
M  V30 7346 H 729.267 -1.5247 -1.3763 0
M  V30 7347 H 727.497 -0.717063 -3.79994 0
M  V30 7348 H 729.186 -1.12372 -3.90035 0
M  V30 7349 H 729.952 -3.53781 -3.31759 0
M  V30 7350 H 725.831 -2.45857 -3.89969 0
M  V30 7351 H 729.375 -5.90568 -3.71315 0
M  V30 7352 H 725.272 -4.81747 -4.29639 0
M  V30 7353 H 726.04 -6.8897 -4.41886 0
M  V30 7354 N 728.703 1.26451 -0.940633 0
M  V30 7355 C 729.951 1.93395 -0.586748 0
M  V30 7356 C 730.272 1.7417 0.876921 0
M  V30 7357 O 729.542 1.097 1.62304 0
M  V30 7358 H 728.122 0.715687 -0.214012 0
M  V30 7359 H 730.784 1.53902 -1.19584 0
M  V30 7360 H 729.88 3.01565 -0.804059 0
M  V30 7361 N 730.181 0.707592 1.40822 0
M  V30 7362 C 731.091 0.0507246 2.34545 0
M  V30 7363 C 732.107 -0.752727 1.56876 0
M  V30 7364 O 733.283 -0.687524 1.89302 0
M  V30 7365 C 730.348 -0.865731 3.35717 0
M  V30 7366 C 729.409 -0.0531313 4.29267 0
M  V30 7367 C 728.642 -0.925939 5.25606 0
M  V30 7368 O 728.865 -2.16531 5.27703 0
M  V30 7369 O 727.799 -0.369194 6.00767 0
M  V30 7370 H 731.625 0.823587 2.9232 0
M  V30 7371 H 729.21 0.46801 1.4188 0
M  V30 7372 H 731.092 -1.39091 3.97783 0
M  V30 7373 H 729.767 -1.61788 2.80368 0
M  V30 7374 H 728.674 0.516931 3.70511 0
M  V30 7375 H 730.007 0.660617 4.87747 0
M  V30 7376 N 731.66 -1.50943 0.453197 0
M  V30 7377 C 732.937 -1.94872 -0.168633 0
M  V30 7378 C 733.317 -1.39272 -1.5864 0
M  V30 7379 O 732.665 -0.586272 -2.20851 0
M  V30 7380 C 732.875 -3.48757 -0.130217 0
M  V30 7381 C 734.223 -4.23331 -0.327975 0
M  V30 7382 O 735.247 -3.55594 -0.207619 0
M  V30 7383 O 734.106 -5.43529 -0.569077 0
M  V30 7384 H 731.2 -0.818042 -0.121394 0
M  V30 7385 H 733.746 -1.61782 0.512316 0
M  V30 7386 H 732.518 -3.81725 0.860346 0
M  V30 7387 H 732.141 -3.88333 -0.853397 0
M  V30 7388 N 733.138 -0.185124 -1.56509 0
M  V30 7389 C 734.068 0.735098 -2.21627 0
M  V30 7390 C 735.049 1.2288 -1.1762 0
M  V30 7391 O 736.234 1.27945 -1.46095 0
M  V30 7392 C 733.364 1.95889 -2.86783 0
M  V30 7393 C 732.318 1.6005 -3.96948 0
M  V30 7394 C 731.644 2.90009 -4.4922 0
M  V30 7395 C 732.944 0.818008 -5.15855 0
M  V30 7396 H 734.638 0.192274 -2.98782 0
M  V30 7397 H 732.184 0.0910393 -1.43712 0
M  V30 7398 H 734.137 2.60779 -3.31017 0
M  V30 7399 H 732.861 2.52608 -2.07018 0
M  V30 7400 H 731.52 0.975237 -3.5339 0
M  V30 7401 H 731.168 3.44797 -3.6623 0
M  V30 7402 H 730.868 2.66778 -5.23549 0
M  V30 7403 H 732.392 3.55904 -4.9615 0
M  V30 7404 H 733.806 1.36979 -5.56695 0
M  V30 7405 H 732.203 0.684207 -5.96187 0
M  V30 7406 H 733.273 -0.182939 -4.84555 0
M  V30 7407 N 734.616 1.57351 0.0885366 0
M  V30 7408 C 735.548 1.99221 1.13329 0
M  V30 7409 C 736.561 0.895705 1.35945 0
M  V30 7410 O 737.75 1.17376 1.34481 0
M  V30 7411 C 734.85 2.3016 2.48756 0
M  V30 7412 C 734.023 3.61444 2.46327 0
M  V30 7413 C 733.082 3.80244 3.63732 0
M  V30 7414 O 732.108 4.52024 3.45924 0
M  V30 7415 N 733.31 3.2132 4.8346 0
M  V30 7416 H 736.075 2.89456 0.776862 0
M  V30 7417 H 733.636 1.59505 0.277428 0
M  V30 7418 H 735.628 2.39925 3.25911 0
M  V30 7419 H 734.198 1.459 2.76464 0
M  V30 7420 H 733.418 3.62588 1.54673 0
M  V30 7421 H 734.706 4.47678 2.41789 0
M  V30 7422 H 734.104 2.63028 5.00832 0
M  V30 7423 H 732.661 3.3656 5.58185 0
M  V30 7424 N 736.094 -0.359525 1.53444 0
M  V30 7425 C 737.027 -1.46338 1.75101 0
M  V30 7426 C 738.005 -1.51142 0.599559 0
M  V30 7427 O 739.189 -1.69102 0.832862 0
M  V30 7428 C 736.316 -2.84667 1.83527 0
M  V30 7429 C 735.362 -2.9756 3.05549 0
M  V30 7430 S 736.195 -2.65685 4.64943 0
M  V30 7431 C 737.351 -4.06153 4.76225 0
M  V30 7432 H 737.584 -1.27747 2.68455 0
M  V30 7433 H 735.117 -0.554231 1.4411 0
M  V30 7434 H 737.075 -3.64368 1.89067 0
M  V30 7435 H 735.736 -3.00564 0.912147 0
M  V30 7436 H 734.929 -3.98883 3.08072 0
M  V30 7437 H 734.531 -2.25789 2.98153 0
M  V30 7438 H 736.823 -5.00475 4.56652 0
M  V30 7439 H 737.766 -4.08632 5.78295 0
M  V30 7440 H 738.174 -3.93435 4.04808 0
M  V30 7441 N 737.572 -1.44907 -0.619662 0
M  V30 7442 C 738.849 -1.38766 -1.37852 0
M  V30 7443 C 739.229 -0.0521393 -2.11036 0
M  V30 7444 O 738.577 0.965613 -2.07095 0
M  V30 7445 C 738.787 -2.59344 -2.33541 0
M  V30 7446 C 740.135 -3.03909 -2.96521 0
M  V30 7447 O 741.159 -2.59631 -2.43865 0
M  V30 7448 O 740.018 -3.80713 -3.92071 0
M  V30 7449 H 737.112 -0.550083 -0.617525 0
M  V30 7450 H 739.658 -1.57015 -0.643759 0
M  V30 7451 H 738.43 -3.48142 -1.78642 0
M  V30 7452 H 738.053 -2.43367 -3.14417 0
M  V30 7453 N 739.05 0.861098 -1.31996 0
M  V30 7454 C 740.296 1.61707 -1.23379 0
M  V30 7455 C 740.651 1.91315 0.204026 0
M  V30 7456 O 739.944 1.53997 1.13998 0
M  V30 7457 C 740.138 2.94822 -2.02027 0
M  V30 7458 C 739.967 2.78212 -3.5331 0
M  V30 7459 C 738.737 2.76933 -4.22654 0
M  V30 7460 C 740.935 2.52432 -4.48088 0
M  V30 7461 N 738.917 2.51466 -5.60034 0
M  V30 7462 C 740.288 2.36312 -5.73198 0
M  V30 7463 C 742.343 2.37848 -4.37416 0
M  V30 7464 C 741.046 2.0709 -6.88844 0
M  V30 7465 C 743.072 2.10016 -5.52854 0
M  V30 7466 C 742.434 1.94691 -6.7696 0
M  V30 7467 H 738.533 0.595703 -0.506618 0
M  V30 7468 H 741.117 1.01275 -1.66287 0
M  V30 7469 H 739.288 3.53243 -1.61474 0
M  V30 7470 H 741.02 3.59756 -1.85358 0
M  V30 7471 H 737.775 2.89638 -3.74709 0
M  V30 7472 H 738.199 2.41679 -6.32392 0
M  V30 7473 H 742.841 2.4842 -3.42122 0
M  V30 7474 H 740.559 1.95256 -7.84156 0
M  V30 7475 H 744.145 1.99519 -5.46519 0
M  V30 7476 H 743.025 1.7346 -7.64775 0
M  V30 7477 N 740.528 1.15101 1.07655 0
M  V30 7478 C 741.805 0.834578 1.76902 0
M  V30 7479 C 742.185 -0.670431 2.00171 0
M  V30 7480 O 741.533 -1.61378 1.6177 0
M  V30 7481 C 741.743 1.64191 3.07965 0
M  V30 7482 C 743.091 1.84615 3.82364 0
M  V30 7483 O 744.115 1.60941 3.17768 0
M  V30 7484 O 742.974 2.24244 4.98374 0
M  V30 7485 H 740.068 0.306608 0.768063 0
M  V30 7486 H 742.614 1.25663 1.14048 0
M  V30 7487 H 741.386 2.66386 2.86626 0
M  V30 7488 H 741.009 1.216 3.78549 0
M  V30 7489 N 742.006 -1.2595 0.947325 0
M  V30 7490 C 743.254 -1.93081 0.596996 0
M  V30 7491 C 743.575 -1.74632 -0.867672 0
M  V30 7492 O 742.845 -1.1056 -1.6172 0
M  V30 7493 H 741.425 -0.714542 0.217805 0
M  V30 7494 H 744.087 -1.53265 1.20398 0
M  V30 7495 H 743.183 -3.01134 0.82004 0
M  V30 7496 N 743.484 -0.715051 -1.40445 0
M  V30 7497 C 744.9 -0.388555 -1.54798 0
M  V30 7498 C 745.1 1.10271 -1.68649 0
M  V30 7499 O 744.156 1.88875 -1.67578 0
M  V30 7500 C 745.469 -1.15414 -2.77669 0
M  V30 7501 C 747.017 -1.14039 -2.91486 0
M  V30 7502 C 747.492 -1.88812 -4.1727 0
M  V30 7503 N 748.983 -1.85878 -4.24268 0
M  V30 7504 C 749.718 -2.40558 -5.20499 0
M  V30 7505 N 749.214 -3.03791 -6.22642 0
M  V30 7506 N 751.007 -2.30703 -5.12574 0
M  V30 7507 H 743.158 -1.68201 -1.297 0
M  V30 7508 H 745.421 -0.710915 -0.627139 0
M  V30 7509 H 745.127 -2.20853 -2.7371 0
M  V30 7510 H 745.001 -0.745412 -3.69761 0
M  V30 7511 H 747.388 -0.0941996 -2.9495 0
M  V30 7512 H 747.469 -1.58834 -2.00513 0
M  V30 7513 H 747.113 -2.93422 -4.14568 0
M  V30 7514 H 747.043 -1.41438 -5.0725 0
M  V30 7515 H 749.534 -1.39794 -3.51093 0
M  V30 7516 H 749.847 -3.43032 -6.92495 0
M  V30 7517 H 748.192 -3.07875 -6.23087 0
M  V30 7518 H 751.383 -1.80961 -4.31707 0
M  V30 7519 H 751.556 -2.73618 -5.87398 0
M  V30 7520 N 744.962 1.50701 -0.461195 0
M  V30 7521 C 746.21 2.01867 0.0970051 0
M  V30 7522 C 746.531 1.34591 1.41104 0
M  V30 7523 O 745.801 0.488041 1.89723 0
M  V30 7524 H 744.381 0.74599 0.0388392 0
M  V30 7525 H 747.043 1.85129 -0.609357 0
M  V30 7526 H 746.139 3.11051 0.255688 0
M  V30 7527 N 746.441 0.193421 1.56409 0
M  V30 7528 C 747.857 -0.162447 1.58771 0
M  V30 7529 C 748.057 -1.6116 1.20954 0
M  V30 7530 O 747.113 -2.3469 0.931497 0
M  V30 7531 C 748.426 0.138391 3.00381 0
M  V30 7532 C 749.974 0.0783649 3.12902 0
M  V30 7533 C 750.449 0.352491 4.56642 0
M  V30 7534 N 751.94 0.30105 4.62221 0
M  V30 7535 C 752.675 0.487028 5.71328 0
M  V30 7536 N 752.171 0.733265 6.88909 0
M  V30 7537 N 753.964 0.4214 5.60518 0
M  V30 7538 H 746.115 1.13909 1.79272 0
M  V30 7539 H 748.378 0.454528 0.83193 0
M  V30 7540 H 748.084 1.14312 3.32604 0
M  V30 7541 H 747.958 -0.559804 3.73023 0
M  V30 7542 H 750.345 -0.916963 2.80492 0
M  V30 7543 H 750.426 0.809611 2.4265 0
M  V30 7544 H 750.07 1.34513 4.89764 0
M  V30 7545 H 750 -0.399624 5.25081 0
M  V30 7546 H 752.491 0.117279 3.77718 0
M  V30 7547 H 752.804 0.86403 7.67955 0
M  V30 7548 H 751.149 0.770138 6.9072 0
M  V30 7549 H 754.34 0.229461 4.67537 0
M  V30 7550 H 754.513 0.569758 6.4549 0
M  V30 7551 N 747.919 -1.57396 -0.0801906 0
M  V30 7552 C 748.849 -2.06145 -1.09665 0
M  V30 7553 C 749.83 -0.953273 -1.40878 0
M  V30 7554 O 751.015 -1.22548 -1.50651 0
M  V30 7555 C 748.145 -2.49836 -2.41245 0
M  V30 7556 C 747.099 -3.64454 -2.24405 0
M  V30 7557 C 746.425 -3.94172 -3.61293 0
M  V30 7558 C 747.725 -4.94807 -1.67223 0
M  V30 7559 H 749.419 -2.91316 -0.691028 0
M  V30 7560 H 746.965 -1.40145 -0.330957 0
M  V30 7561 H 748.918 -2.82552 -3.12638 0
M  V30 7562 H 747.642 -1.61683 -2.83771 0
M  V30 7563 H 746.301 -3.32008 -1.55454 0
M  V30 7564 H 745.949 -3.03163 -4.01374 0
M  V30 7565 H 745.649 -4.71345 -3.50867 0
M  V30 7566 H 747.173 -4.29376 -4.3413 0
M  V30 7567 H 748.587 -5.25807 -2.28472 0
M  V30 7568 H 746.984 -5.76245 -1.67515 0
M  V30 7569 H 748.054 -4.80751 -0.632944 0
M  V30 7570 N 749.397 0.351382 -1.53633 0
M  V30 7571 C 750.327 1.43688 -1.84055 0
M  V30 7572 C 751.308 1.55251 -0.695073 0
M  V30 7573 O 752.493 1.69587 -0.946257 0
M  V30 7574 C 749.623 2.80843 -2.04315 0
M  V30 7575 C 748.577 2.84094 -3.20117 0
M  V30 7576 C 747.903 4.2406 -3.25696 0
M  V30 7577 C 749.203 2.50334 -4.58399 0
M  V30 7578 H 750.897 1.18478 -2.74961 0
M  V30 7579 H 748.443 0.568509 -1.32303 0
M  V30 7580 H 750.396 3.56821 -2.2418 0
M  V30 7581 H 749.12 3.07471 -1.10132 0
M  V30 7582 H 747.779 2.10568 -3.00094 0
M  V30 7583 H 747.427 4.47785 -2.29123 0
M  V30 7584 H 747.127 4.27147 -4.03509 0
M  V30 7585 H 748.651 5.0189 -3.47762 0
M  V30 7586 H 750.065 3.16025 -4.78332 0
M  V30 7587 H 748.462 2.64717 -5.38558 0
M  V30 7588 H 749.532 1.45542 -4.62543 0
M  V30 7589 N 750.875 1.45233 0.611969 0
M  V30 7590 C 752.121 1.49242 1.37312 0
M  V30 7591 C 752.454 0.131963 1.93751 0
M  V30 7592 O 751.729 -0.852999 1.74798 0
M  V30 7593 C 752.012 2.56811 2.52428 0
M  V30 7594 C 751.865 4.02284 2.01215 0
M  V30 7595 C 753.184 2.60705 3.54572 0
M  V30 7596 H 750.303 0.54336 0.497925 0
M  V30 7597 H 752.945 1.77019 0.690242 0
M  V30 7598 H 751.095 2.33256 3.10683 0
M  V30 7599 H 752.767 4.37035 1.47643 0
M  V30 7600 H 751.01 4.1315 1.32248 0
M  V30 7601 H 751.681 4.7323 2.84178 0
M  V30 7602 H 754.157 2.81799 3.06151 0
M  V30 7603 H 753.033 3.37841 4.32614 0
M  V30 7604 H 753.294 1.65627 4.09903 0
M  V30 7605 N 752.353 -0.854086 1.3245 0
M  V30 7606 C 753.3 -1.96271 1.21434 0
M  V30 7607 C 754.27 -1.6582 0.0963851 0
M  V30 7608 O 755.455 -1.88851 0.27203 0
M  V30 7609 C 752.595 -3.31939 0.943952 0
M  V30 7610 C 751.708 -3.74885 2.14675 0
M  V30 7611 C 750.843 -4.99347 1.81179 0
M  V30 7612 C 749.882 -5.34785 2.97777 0
M  V30 7613 N 749.019 -6.50425 2.6437 0
M  V30 7614 H 753.859 -2.05025 2.16261 0
M  V30 7615 H 751.396 -1.00348 1.07558 0
M  V30 7616 H 753.354 -4.10076 0.767675 0
M  V30 7617 H 751.984 -3.22784 0.0324763 0
M  V30 7618 H 751.036 -2.92396 2.43328 0
M  V30 7619 H 752.348 -3.97068 3.01891 0
M  V30 7620 H 751.502 -5.85193 1.60107 0
M  V30 7621 H 750.241 -4.79101 0.911777 0
M  V30 7622 H 749.246 -4.47451 3.1948 0
M  V30 7623 H 750.471 -5.56988 3.88511 0
M  V30 7624 H 748.417 -6.31695 1.7691 0
M  V30 7625 H 748.334 -6.7263 3.45116 0
M  V30 7626 H 749.602 -7.39422 2.46729 0
M  V30 7627 N 753.831 -1.1567 -1.07043 0
M  V30 7628 C 754.761 -0.879348 -2.16309 0
M  V30 7629 C 755.742 0.171311 -1.69235 0
M  V30 7630 O 756.927 0.0250175 -1.94184 0
M  V30 7631 C 754.057 -0.371307 -3.45309 0
M  V30 7632 C 753.011 -1.359 -4.05851 0
M  V30 7633 C 752.337 -0.709678 -5.29969 0
M  V30 7634 C 753.637 -2.72606 -4.45514 0
M  V30 7635 H 755.331 -1.79308 -2.39768 0
M  V30 7636 H 752.877 -0.863558 -1.15233 0
M  V30 7637 H 754.83 -0.164798 -4.21078 0
M  V30 7638 H 753.554 0.577906 -3.21446 0
M  V30 7639 H 752.213 -1.55193 -3.32131 0
M  V30 7640 H 751.861 0.245782 -5.02399 0
M  V30 7641 H 751.561 -1.36886 -5.71433 0
M  V30 7642 H 753.085 -0.513015 -6.08441 0
M  V30 7643 H 754.499 -2.57141 -5.12398 0
M  V30 7644 H 752.896 -3.34927 -4.97939 0
M  V30 7645 H 753.966 -3.28434 -3.56734 0
M  V30 7646 N 755.309 1.25446 -0.953992 0
M  V30 7647 C 756.534 1.97755 -0.625129 0
M  V30 7648 C 756.959 1.70437 0.795787 0
M  V30 7649 O 756.317 0.95992 1.53803 0
M  V30 7650 C 756.365 3.49463 -0.889251 0
M  V30 7651 O 755.469 4.12387 0.0322757 0
M  V30 7652 H 754.81 0.61998 -0.237742 0
M  V30 7653 H 757.34 1.59582 -1.28041 0
M  V30 7654 H 757.35 3.99772 -0.815263 0
M  V30 7655 H 756.025 3.68676 -1.92487 0
M  V30 7656 H 754.602 3.72782 -0.0938625 0
M  V30 7657 N 756.787 0.722489 1.40064 0
M  V30 7658 C 758.198 0.336507 1.83642 0
M  V30 7659 C 758.549 -1.13002 1.6039 0
M  V30 7660 O 757.674 -1.87036 1.08842 0
M  V30 7661 C 758.269 0.603985 3.33373 0
M  V30 7662 C 756.828 0.271637 3.75419 0
M  V30 7663 C 755.975 0.872898 2.63203 0
M  V30 7664 H 758.926 0.921108 1.29233 0
M  V30 7665 H 758.947 -0.128471 3.80283 0
M  V30 7666 H 758.459 1.67141 3.50265 0
M  V30 7667 H 756.56 -0.790455 3.64119 0
M  V30 7668 H 756.673 0.745457 4.73265 0
M  V30 7669 H 755.037 0.300431 2.52922 0
M  V30 7670 H 755.82 1.94473 2.82905 0
M  V30 7671 N 758.265 -1.50454 0.469181 0
M  V30 7672 C 759.511 -2.02615 -0.0865971 0
M  V30 7673 C 759.844 -1.35062 -1.39542 0
M  V30 7674 O 759.119 -0.475701 -1.88593 0
M  V30 7675 C 759.402 -3.59068 -0.272385 0
M  V30 7676 C 759.255 -4.37196 1.05733 0
M  V30 7677 C 760.574 -4.2793 -1.0278 0
M  V30 7678 H 757.693 -0.736389 -0.0299977 0
M  V30 7679 H 760.335 -1.79792 0.614399 0
M  V30 7680 H 758.485 -3.78646 -0.869471 0
M  V30 7681 H 760.157 -4.29195 1.69084 0
M  V30 7682 H 758.4 -4.01013 1.65442 0
M  V30 7683 H 759.071 -5.44924 0.880997 0
M  V30 7684 H 761.547 -4.12816 -0.521718 0
M  V30 7685 H 760.423 -5.37214 -1.12659 0
M  V30 7686 H 760.684 -3.90968 -2.0639 0
M  V30 7687 N 759.743 -0.201713 -1.56304 0
M  V30 7688 C 760.973 0.440084 -2.01858 0
M  V30 7689 C 761.381 1.55279 -1.08098 0
M  V30 7690 O 760.724 1.83529 -0.0792216 0
M  V30 7691 C 760.786 1.05091 -3.43797 0
M  V30 7692 C 760.45 0.0761208 -4.56937 0
M  V30 7693 C 761.447 -0.716951 -5.14933 0
M  V30 7694 C 759.132 -0.0368815 -5.02286 0
M  V30 7695 C 761.126 -1.60993 -6.16733 0
M  V30 7696 C 758.813 -0.933409 -6.03929 0
M  V30 7697 C 759.811 -1.71849 -6.61027 0
M  V30 7698 O 759.499 -2.59998 -7.60695 0
M  V30 7699 H 759.231 0.114139 -0.666294 0
M  V30 7700 H 761.785 -0.309672 -2.03052 0
M  V30 7701 H 760.015 1.84938 -3.3961 0
M  V30 7702 H 761.704 1.59804 -3.73118 0
M  V30 7703 H 762.47 -0.63999 -4.80759 0
M  V30 7704 H 758.349 0.564034 -4.57537 0
M  V30 7705 H 761.893 -2.22315 -6.61227 0
M  V30 7706 H 757.79 -1.01146 -6.37526 0
M  V30 7707 H 758.558 -2.53851 -7.7814 0
M  V30 7708 N 761.222 1.57436 0.0718424 0
M  V30 7709 C 762.185 2.02703 1.06977 0
M  V30 7710 C 763.185 0.924062 1.31597 0
M  V30 7711 O 764.375 1.18894 1.27318 0
M  V30 7712 C 761.507 2.40763 2.41342 0
M  V30 7713 H 762.7 2.92098 0.679619 0
M  V30 7714 H 760.253 1.5304 0.317565 0
M  V30 7715 H 760.988 1.54394 2.8519 0
M  V30 7716 H 760.773 3.21249 2.24814 0
M  V30 7717 H 762.263 2.76361 3.13073 0
M  V30 7718 N 762.7 -0.34323 1.53817 0
M  V30 7719 C 763.948 -1.0813 1.70741 0
M  V30 7720 C 764.269 -1.89165 0.473461 0
M  V30 7721 O 763.539 -1.89075 -0.512605 0
M  V30 7722 H 762.119 -0.40219 0.629486 0
M  V30 7723 H 764.781 -0.384426 1.91071 0
M  V30 7724 H 763.877 -1.7585 2.57843 0
M  V30 7725 N 764.178 -1.45556 -0.604258 0
M  V30 7726 C 765.125 -1.54482 -1.71476 0
M  V30 7727 C 766.095 -0.390479 -1.61445 0
M  V30 7728 O 767.28 -0.604371 -1.80975 0
M  V30 7729 C 764.42 -1.52064 -3.09791 0
M  V30 7730 C 763.533 -2.78073 -3.30604 0
M  V30 7731 C 762.668 -2.67304 -4.59044 0
M  V30 7732 C 761.707 -3.88352 -4.73127 0
M  V30 7733 N 760.844 -3.76098 -5.9287 0
M  V30 7734 H 765.684 -2.49349 -1.63184 0
M  V30 7735 H 763.221 -1.23725 -0.795641 0
M  V30 7736 H 765.179 -1.48649 -3.89819 0
M  V30 7737 H 763.809 -0.607442 -3.17033 0
M  V30 7738 H 762.861 -2.91561 -2.44329 0
M  V30 7739 H 764.173 -3.67847 -3.36883 0
M  V30 7740 H 763.327 -2.61875 -5.47272 0
M  V30 7741 H 762.066 -1.75135 -4.55169 0
M  V30 7742 H 761.071 -3.94137 -3.83322 0
M  V30 7743 H 762.296 -4.81591 -4.78797 0
M  V30 7744 H 760.242 -2.867 -5.90033 0
M  V30 7745 H 760.159 -4.59509 -6.00323 0
M  V30 7746 H 761.427 -3.74607 -6.83586 0
M  V30 7747 N 765.656 0.84705 -1.32902 0
M  V30 7748 C 766.884 1.63403 -1.26913 0
M  V30 7749 C 767.299 1.88108 0.161483 0
M  V30 7750 O 766.656 1.45546 1.10103 0
M  V30 7751 C 766.707 2.98896 -2.03331 0
M  V30 7752 O 766.428 2.75281 -3.40811 0
M  V30 7753 C 767.929 3.93335 -2.04457 0
M  V30 7754 H 765.149 0.508701 -0.437566 0
M  V30 7755 H 767.693 1.05567 -1.75145 0
M  V30 7756 H 765.848 3.53356 -1.58802 0
M  V30 7757 H 766.262 3.61504 -3.8002 0
M  V30 7758 H 767.736 4.85647 -2.62394 0
M  V30 7759 H 768.213 4.26885 -1.03274 0
M  V30 7760 H 768.819 3.44812 -2.48967 0
M  V30 7761 N 767.134 1.16236 1.06428 0
M  V30 7762 C 768.374 0.95369 1.80787 0
M  V30 7763 C 768.738 -0.509495 1.85117 0
M  V30 7764 O 769.939 -0.836822 2.55442 0
M  V30 7765 C 768.21 1.56235 3.21443 0
M  V30 7766 S 769.769 1.49812 4.12434 0
M  V30 7767 H 766.587 0.343004 0.622792 0
M  V30 7768 H 769.189 1.47957 1.27785 0
M  V30 7769 H 767.893 2.62 3.15886 0
M  V30 7770 H 767.424 1.03574 3.79521 0
M  V30 7771 H 769.439 0.49745 4.937 0
M  V30 7772 N 768.612 -1.24939 0.960631 0
M  V30 7773 C 769.86 -1.92437 0.617441 0
M  V30 7774 C 770.181 -1.75543 -0.849101 0
M  V30 7775 O 769.451 -1.12269 -1.60538 0
M  V30 7776 H 768.031 -0.712192 0.225371 0
M  V30 7777 H 770.693 -1.5198 1.22017 0
M  V30 7778 H 769.789 -3.00247 0.851933 0
M  V30 7779 N 770.09 -0.729906 -1.39679 0
M  V30 7780 C 771.02 -0.101618 -2.33279 0
M  V30 7781 C 772.001 0.729854 -1.53646 0
M  V30 7782 O 773.186 0.67587 -1.82059 0
M  V30 7783 C 770.316 0.81024 -3.37716 0
M  V30 7784 C 769.27 0.0833126 -4.27919 0
M  V30 7785 C 768.596 1.11185 -5.23012 0
M  V30 7786 C 769.896 -1.07107 -5.112 0
M  V30 7787 H 771.59 -0.883452 -2.86069 0
M  V30 7788 H 769.136 -0.426283 -1.37546 0
M  V30 7789 H 771.089 1.25927 -4.02145 0
M  V30 7790 H 769.813 1.62413 -2.83354 0
M  V30 7791 H 768.472 -0.346043 -3.64963 0
M  V30 7792 H 768.12 1.91917 -4.64948 0
M  V30 7793 H 767.82 0.63026 -5.8421 0
M  V30 7794 H 769.344 1.56068 -5.90318 0
M  V30 7795 H 770.758 -0.700726 -5.69002 0
M  V30 7796 H 769.155 -1.48196 -5.81514 0
M  V30 7797 H 770.225 -1.89513 -4.46332 0
M  V30 7798 N 771.568 1.50203 -0.477153 0
M  V30 7799 C 772.808 2.04265 0.0744065 0
M  V30 7800 C 773.172 1.35082 1.36443 0
M  V30 7801 O 774.373 1.79732 1.99875 0
M  V30 7802 C 772.644 3.56539 0.247874 0
M  V30 7803 S 774.203 4.32219 0.757117 0
M  V30 7804 H 771.021 0.71088 0.0130891 0
M  V30 7805 H 773.623 1.8453 -0.645678 0
M  V30 7806 H 772.327 4.04443 -0.696709 0
M  V30 7807 H 771.858 3.80638 0.993896 0
M  V30 7808 H 773.873 4.52789 2.0297 0
M  V30 7809 N 773.046 0.209999 1.56195 0
M  V30 7810 C 774.294 -0.423974 1.97603 0
M  V30 7811 C 774.615 -1.61112 1.09854 0
M  V30 7812 O 773.885 -1.95134 0.173032 0
M  V30 7813 H 772.465 -0.159629 0.729745 0
M  V30 7814 H 775.127 0.300205 1.92574 0
M  V30 7815 H 774.223 -0.75809 3.02753 0
M  V30 7816 N 774.524 -1.57472 -0.0634922 0
M  V30 7817 C 775.472 -2.05307 -1.09323 0
M  V30 7818 C 776.466 -0.959995 -1.39572 0
M  V30 7819 O 777.672 -1.14507 -1.38882 0
M  V30 7820 H 774.047 -0.65472 -0.369927 0
M  V30 7821 H 776.018 -2.90925 -0.663707 0
M  V30 7822 C 774.767 -2.51954 -2.39613 0
M  V30 7823 H 774.09 -3.35662 -2.1719 0
M  V30 7824 H 775.53 -2.89169 -3.10092 0
M  V30 7825 C 773.989 -1.40596 -3.06161 0
M  V30 7826 O 774.519 -0.752722 -3.94585 0
M  V30 7827 N 772.725 -1.14902 -2.66919 0
M  V30 7828 H 772.272 -1.68205 -1.95102 0
M  V30 7829 H 772.23 -0.406006 -3.11767 0
M  V30 7830 N 776.003 0.335068 -1.53997 0
M  V30 7831 C 777.233 1.0926 -1.75345 0
M  V30 7832 C 777.641 1.82568 -0.496545 0
M  V30 7833 O 776.984 1.75525 0.541897 0
M  V30 7834 C 777.046 2.14473 -2.88516 0
M  V30 7835 C 776.71 1.60665 -4.27827 0
M  V30 7836 C 777.707 1.05448 -5.09094 0
M  V30 7837 C 775.392 1.65255 -4.74337 0
M  V30 7838 C 777.386 0.555372 -6.34976 0
M  V30 7839 C 775.073 1.14956 -6.0019 0
M  V30 7840 C 776.071 0.601907 -6.80343 0
M  V30 7841 O 775.759 0.106445 -8.0383 0
M  V30 7842 H 775.491 0.331329 -0.589234 0
M  V30 7843 H 778.045 0.39042 -2.01655 0
M  V30 7844 H 776.275 2.88274 -2.5775 0
M  V30 7845 H 777.964 2.75857 -2.97755 0
M  V30 7846 H 778.73 1.01218 -4.74321 0
M  V30 7847 H 774.609 2.06822 -4.12002 0
M  V30 7848 H 778.153 0.127245 -6.97484 0
M  V30 7849 H 774.05 1.18891 -6.34457 0
M  V30 7850 H 774.818 0.222944 -8.18196 0
M  V30 7851 N 777.481 1.45874 0.596531 0
M  V30 7852 C 778.429 1.55739 1.72766 0
M  V30 7853 C 779.423 0.426666 1.63939 0
M  V30 7854 O 780.629 0.60301 1.69599 0
M  V30 7855 H 777.004 0.489386 0.570968 0
M  V30 7856 H 778.975 2.50871 1.61575 0
M  V30 7857 C 777.724 1.55174 3.11153 0
M  V30 7858 H 777.047 2.41511 3.1861 0
M  V30 7859 H 778.487 1.66133 3.90097 0
M  V30 7860 C 776.946 0.278001 3.35751 0
M  V30 7861 O 777.476 -0.637557 3.96608 0
M  V30 7862 N 775.682 0.170227 2.90101 0
M  V30 7863 H 775.229 0.916159 2.40758 0
M  V30 7864 H 775.187 -0.68117 3.06932 0
M  V30 7865 N 778.959 -0.83999 1.33349 0
M  V30 7866 C 780.207 -1.59202 1.24496 0
M  V30 7867 C 780.528 -1.94077 -0.189499 0
M  V30 7868 O 779.798 -1.60868 -1.11796 0
M  V30 7869 H 778.378 -0.590276 0.457802 0
M  V30 7870 H 781.04 -1.00394 1.67054 0
M  V30 7871 H 780.136 -2.52247 1.83788 0
M  V30 7872 N 780.437 -1.16799 -1.0581 0
M  V30 7873 C 781.385 -0.875111 -2.1551 0
M  V30 7874 C 782.379 0.157781 -1.68664 0
M  V30 7875 O 783.585 0.011297 -1.79996 0
M  V30 7876 H 779.96 -0.26542 -0.703602 0
M  V30 7877 H 781.931 -1.8076 -2.37421 0
M  V30 7878 C 780.68 -0.39802 -3.45414 0
M  V30 7879 H 780.003 -1.18425 -3.81858 0
M  V30 7880 H 781.443 -0.231913 -4.23365 0
M  V30 7881 C 779.902 0.88327 -3.25115 0
M  V30 7882 O 780.432 1.95145 -3.51114 0
M  V30 7883 N 778.638 0.828961 -2.78526 0
M  V30 7884 H 778.185 -0.0405029 -2.57568 0
M  V30 7885 H 778.143 1.68673 -2.65324 0
M  V30 7886 N 781.915 1.24427 -0.967243 0
M  V30 7887 C 782.847 2.24641 -0.454856 0
M  V30 7888 C 783.86 1.56849 0.436152 0
M  V30 7889 O 785.049 1.76846 0.242401 0
M  V30 7890 C 782.149 3.36954 0.362672 0
M  V30 7891 C 781.322 4.34318 -0.518324 0
M  V30 7892 C 780.381 5.25638 0.243122 0
M  V30 7893 O 779.407 5.68043 -0.362791 0
M  V30 7894 N 780.609 5.59897 1.53282 0
M  V30 7895 H 783.374 2.69238 -1.31648 0
M  V30 7896 H 780.935 1.38464 -0.839015 0
M  V30 7897 H 782.927 3.95014 0.880094 0
M  V30 7898 H 781.497 2.91646 1.12522 0
M  V30 7899 H 780.717 3.74953 -1.21672 0
M  V30 7900 H 782.005 4.96338 -1.11919 0
M  V30 7901 H 781.403 5.27373 2.04682 0
M  V30 7902 H 779.96 6.20488 1.99594 0
M  V30 7903 N 783.393 0.737304 1.3929 0
M  V30 7904 C 784.641 0.285691 2.00071 0
M  V30 7905 C 784.962 -1.13169 1.58801 0
M  V30 7906 O 784.232 -1.77104 0.837308 0
M  V30 7907 H 782.812 0.102638 0.739915 0
M  V30 7908 H 785.474 0.947775 1.70303 0
M  V30 7909 H 784.57 0.335906 3.10287 0
M  V30 7910 N 784.871 -1.49948 0.485112 0
M  V30 7911 C 786.148 -1.95186 -0.12726 0
M  V30 7912 C 786.528 -1.42605 -1.5565 0
M  V30 7913 O 785.876 -0.632986 -2.19558 0
M  V30 7914 C 786.086 -3.48955 -0.0562117 0
M  V30 7915 C 787.434 -4.23932 -0.238106 0
M  V30 7916 O 788.458 -3.55955 -0.132145 0
M  V30 7917 O 787.317 -5.44614 -0.453658 0
M  V30 7918 H 784.411 -0.820433 -0.104014 0
M  V30 7919 H 786.957 -1.60659 0.546517 0
M  V30 7920 H 785.729 -3.79814 0.941122 0
M  V30 7921 H 785.352 -3.90056 -0.770834 0
M  V30 7922 N 786.349 -0.21828 -1.56081 0
M  V30 7923 C 787.626 0.463143 -1.90038 0
M  V30 7924 C 788.006 1.77982 -1.13515 0
M  V30 7925 O 787.354 2.27199 -0.24345 0
M  V30 7926 C 787.564 0.659292 -3.42716 0
M  V30 7927 C 788.912 0.968203 -4.13414 0
M  V30 7928 O 789.936 0.746195 -3.48296 0
M  V30 7929 O 788.795 1.38936 -5.28544 0
M  V30 7930 H 785.889 0.244435 -0.790051 0
M  V30 7931 H 788.435 -0.260221 -1.67693 0
M  V30 7932 H 787.207 -0.269584 -3.9037 0
M  V30 7933 H 786.83 1.43426 -3.7083 0
M  V30 7934 N 787.827 1.57504 0.0551401 0
M  V30 7935 C 789.074 1.88055 0.751104 0
M  V30 7936 C 789.402 0.812231 1.76729 0
M  V30 7937 O 788.657 -0.189918 1.94776 0
M  V30 7938 C 788.956 3.25311 1.48013 0
M  V30 7939 C 788.622 4.46858 0.602375 0
M  V30 7940 C 787.284 4.79847 0.360536 0
M  V30 7941 C 789.636 5.212 -0.00524047 0
M  V30 7942 C 786.964 5.84582 -0.498127 0
M  V30 7943 C 789.316 6.26844 -0.851453 0
M  V30 7944 C 787.98 6.58324 -1.103 0
M  V30 7945 H 787.25 0.688142 0.274848 0
M  V30 7946 H 789.897 1.91497 0.0114795 0
M  V30 7947 H 788.202 3.17737 2.29239 0
M  V30 7948 H 789.899 3.46189 2.02371 0
M  V30 7949 H 786.489 4.21049 0.801007 0
M  V30 7950 H 790.673 4.96013 0.168682 0
M  V30 7951 H 785.929 6.07361 -0.701594 0
M  V30 7952 H 790.103 6.83603 -1.32893 0
M  V30 7953 H 787.73 7.39304 -1.77011 0
M  V30 7954 N 789.305 -0.326896 1.54172 0
M  V30 7955 C 790.235 -1.40741 1.86317 0
M  V30 7956 C 791.216 -1.54125 0.719684 0
M  V30 7957 O 792.401 -1.6806 0.973117 0
M  V30 7958 C 789.531 -2.77557 2.08757 0
M  V30 7959 C 788.485 -2.78965 3.24596 0
M  V30 7960 C 787.811 -4.18824 3.32401 0
M  V30 7961 C 789.111 -2.4301 4.62324 0
M  V30 7962 H 790.805 -1.14088 2.76811 0
M  V30 7963 H 788.351 -0.547389 1.3319 0
M  V30 7964 H 790.304 -3.53209 2.29829 0
M  V30 7965 H 789.028 -3.0568 1.15009 0
M  V30 7966 H 787.687 -2.05767 3.03406 0
M  V30 7967 H 787.335 -4.44083 2.36218 0
M  V30 7968 H 787.035 -4.20673 4.10253 0
M  V30 7969 H 788.559 -4.96294 3.55703 0
M  V30 7970 H 789.973 -3.08375 4.83299 0
M  V30 7971 H 788.37 -2.56116 5.42701 0
M  V30 7972 H 789.44 -1.38165 4.64799 0
M  V30 7973 N 790.784 -1.46188 -0.588786 0
M  V30 7974 C 792.012 -1.54743 -1.37339 0
M  V30 7975 C 792.427 -0.186446 -1.87877 0
M  V30 7976 O 791.784 0.815247 -1.63279 0
M  V30 7977 C 791.835 -2.54727 -2.56508 0
M  V30 7978 O 791.556 -3.85539 -2.08066 0
M  V30 7979 C 793.057 -2.73163 -3.49137 0
M  V30 7980 H 790.277 -0.523484 -0.419768 0
M  V30 7981 H 792.821 -1.91543 -0.716345 0
M  V30 7982 H 790.976 -2.20948 -3.18215 0
M  V30 7983 H 791.39 -4.39905 -2.85629 0
M  V30 7984 H 792.864 -3.47057 -4.2925 0
M  V30 7985 H 793.341 -1.79856 -4.00685 0
M  V30 7986 H 793.947 -3.08014 -2.9327 0
M  V30 7987 N 792.262 0.832906 -1.33792 0
M  V30 7988 C 793.673 1.40489 -1.22963 0
M  V30 7989 C 794.024 1.95633 0.149026 0
M  V30 7990 O 793.149 1.8928 1.04891 0
M  V30 7991 C 793.744 2.55387 -2.22627 0
M  V30 7992 C 792.303 3.08522 -2.15618 0
M  V30 7993 C 791.45 1.81347 -2.09782 0
M  V30 7994 H 794.401 0.638156 -1.45304 0
M  V30 7995 H 794.422 3.33193 -1.83746 0
M  V30 7996 H 793.934 2.15222 -3.22957 0
M  V30 7997 H 792.035 3.53217 -1.18611 0
M  V30 7998 H 792.148 3.6829 -3.0643 0
M  V30 7999 H 790.512 2.01839 -1.55349 0
M  V30 8000 H 791.295 1.43369 -3.1193 0
M  V30 8001 N 793.74 1.17359 1.05189 0
M  V30 8002 C 794.965 0.98709 1.82404 0
M  V30 8003 C 795.39 -0.459848 1.82392 0
M  V30 8004 O 794.748 -1.32924 1.23292 0
M  V30 8005 C 794.796 1.53276 3.26403 0
M  V30 8006 O 793.9 0.746541 4.05587 0
M  V30 8007 H 793.241 0.35047 0.563974 0
M  V30 8008 H 795.771 1.55856 1.32552 0
M  V30 8009 H 795.781 1.55504 3.77203 0
M  V30 8010 H 794.456 2.58603 3.25726 0
M  V30 8011 H 793.033 0.795671 3.64312 0
M  V30 8012 N 795.218 -1.23913 0.973828 0
M  V30 8013 C 796.466 -1.91771 0.637817 0
M  V30 8014 C 796.787 -1.76434 -0.830435 0
M  V30 8015 O 796.057 -1.13965 -1.59339 0
M  V30 8016 H 794.637 -0.709761 0.232912 0
M  V30 8017 H 797.299 -1.50677 1.23622 0
M  V30 8018 H 796.395 -2.99327 0.883731 0
M  V30 8019 N 796.696 -0.74468 -1.38897 0
M  V30 8020 C 797.626 -0.126355 -2.33158 0
M  V30 8021 C 798.607 0.713517 -1.54412 0
M  V30 8022 O 799.792 0.656523 -1.82766 0
M  V30 8023 C 796.922 0.774375 -3.38557 0
M  V30 8024 C 795.876 0.0379214 -4.27983 0
M  V30 8025 C 795.202 1.05631 -5.24162 0
M  V30 8026 C 796.502 -1.12523 -5.10035 0
M  V30 8027 H 798.196 -0.913744 -2.85116 0
M  V30 8028 H 795.742 -0.440847 -1.37086 0
M  V30 8029 H 797.695 1.21655 -4.03458 0
M  V30 8030 H 796.419 1.59399 -2.85061 0
M  V30 8031 H 795.078 -0.384733 -3.64576 0
M  V30 8032 H 794.726 1.86975 -4.66958 0
M  V30 8033 H 794.426 0.568261 -5.84846 0
M  V30 8034 H 795.95 1.49799 -5.9194 0
M  V30 8035 H 797.364 -0.761037 -5.68226 0
M  V30 8036 H 795.761 -1.54355 -5.79909 0
M  V30 8037 H 796.831 -1.94237 -4.44297 0
M  V30 8038 N 798.174 1.49689 -0.493057 0
M  V30 8039 C 799.137 2.27502 0.278485 0
M  V30 8040 C 800.137 1.33184 0.901037 0
M  V30 8041 O 801.327 1.56415 0.766801 0
M  V30 8042 C 798.459 3.10881 1.39878 0
M  V30 8043 H 799.652 2.97163 -0.404219 0
M  V30 8044 H 797.205 1.54324 -0.247774 0
M  V30 8045 H 797.94 2.45767 2.11587 0
M  V30 8046 H 797.725 3.80219 0.957924 0
M  V30 8047 H 799.215 3.69673 1.94247 0
M  V30 8048 N 799.652 0.226554 1.55963 0
M  V30 8049 C 800.562 -0.692725 2.24139 0
M  V30 8050 C 801.578 -1.20971 1.25068 0
M  V30 8051 O 802.754 -1.25027 1.57893 0
M  V30 8052 C 799.819 -1.88183 2.91184 0
M  V30 8053 C 798.88 -1.40633 4.05612 0
M  V30 8054 C 798.113 -2.53875 4.6945 0
M  V30 8055 O 798.336 -3.72129 4.32292 0
M  V30 8056 O 797.27 -2.24792 5.58348 0
M  V30 8057 H 801.096 -0.141921 3.03368 0
M  V30 8058 H 798.681 -0.0041049 1.49399 0
M  V30 8059 H 800.563 -2.57617 3.33484 0
M  V30 8060 H 799.238 -2.42064 2.14911 0
M  V30 8061 H 798.145 -0.67986 3.67871 0
M  V30 8062 H 799.478 -0.913838 4.83642 0
M  V30 8063 N 801.13 -1.57531 -0.0467866 0
M  V30 8064 C 802.541 -1.76945 -0.595603 0
M  V30 8065 C 802.892 -0.855354 -1.76573 0
M  V30 8066 O 802.017 -0.045668 -2.16352 0
M  V30 8067 C 802.612 -3.20881 -1.08725 0
M  V30 8068 C 801.171 -3.41553 -1.58172 0
M  V30 8069 C 800.318 -2.72533 -0.511968 0
M  V30 8070 H 803.269 -1.57682 0.179436 0
M  V30 8071 H 803.29 -3.26419 -1.95528 0
M  V30 8072 H 802.802 -3.87385 -0.235398 0
M  V30 8073 H 800.903 -2.80199 -2.456 0
M  V30 8074 H 801.016 -4.50104 -1.64143 0
M  V30 8075 H 799.38 -2.35797 -0.962899 0
M  V30 8076 H 800.163 -3.41709 0.330117 0
M  V30 8077 N 802.608 0.318715 -1.54344 0
M  V30 8078 C 804.024 0.663345 -1.45162 0
M  V30 8079 C 804.224 1.9145 -0.62842 0
M  V30 8080 O 803.28 2.5217 -0.129126 0
M  V30 8081 C 804.593 0.832836 -2.88937 0
M  V30 8082 C 806.141 0.929866 -2.98869 0
M  V30 8083 C 806.616 1.13149 -4.43803 0
M  V30 8084 N 808.107 1.19811 -4.47437 0
M  V30 8085 C 808.842 1.37209 -5.56742 0
M  V30 8086 N 808.338 1.51619 -6.76006 0
M  V30 8087 N 810.131 1.39956 -5.44398 0
M  V30 8088 H 802.282 -0.50357 -2.06344 0
M  V30 8089 H 804.545 -0.163528 -0.933789 0
M  V30 8090 H 804.251 -0.0153519 -3.51697 0
M  V30 8091 H 804.125 1.72721 -3.35332 0
M  V30 8092 H 806.512 1.76855 -2.36233 0
M  V30 8093 H 806.593 0.0118561 -2.55797 0
M  V30 8094 H 806.237 0.297636 -5.07027 0
M  V30 8095 H 806.167 2.06345 -4.84489 0
M  V30 8096 H 808.658 1.101 -3.61506 0
M  V30 8097 H 808.971 1.64599 -7.55067 0
M  V30 8098 H 807.316 1.48708 -6.78904 0
M  V30 8099 H 810.507 1.28298 -4.50175 0
M  V30 8100 H 810.68 1.53172 -6.29637 0
M  V30 8101 N 804.086 1.46499 0.581025 0
M  V30 8102 C 805.332 1.52121 1.34116 0
M  V30 8103 C 805.665 0.173031 1.93428 0
M  V30 8104 O 804.94 -0.815729 1.76568 0
M  V30 8105 C 805.223 2.62108 2.46924 0
M  V30 8106 C 805.076 4.06462 1.92636 0
M  V30 8107 C 806.395 2.68167 3.48962 0
M  V30 8108 H 803.514 0.5538 0.486287 0
M  V30 8109 H 806.156 1.78443 0.652538 0
M  V30 8110 H 804.306 2.39794 3.05665 0
M  V30 8111 H 805.978 4.40068 1.3834 0
M  V30 8112 H 804.221 4.15862 1.23455 0
M  V30 8113 H 804.892 4.79152 2.74076 0
M  V30 8114 H 807.368 2.8823 3.00104 0
M  V30 8115 H 806.244 3.46942 4.2535 0
M  V30 8116 H 806.505 1.74284 4.06297 0
M  V30 8117 N 805.565 -0.825799 1.34232 0
M  V30 8118 C 806.475 -1.9684 1.27638 0
M  V30 8119 C 807.491 -1.73018 0.184569 0
M  V30 8120 O 808.667 -1.97172 0.410525 0
M  V30 8121 C 805.732 -3.31084 1.02879 0
M  V30 8122 C 804.793 -3.67933 2.21188 0
M  V30 8123 C 804.026 -4.95772 1.976 0
M  V30 8124 O 804.249 -5.62721 0.93281 0
M  V30 8125 O 803.183 -5.30431 2.84477 0
M  V30 8126 H 807.009 -2.05346 2.23756 0
M  V30 8127 H 804.594 -0.960772 1.1441 0
M  V30 8128 H 806.476 -4.11492 0.908406 0
M  V30 8129 H 805.151 -3.23552 0.0979821 0
M  V30 8130 H 804.058 -2.87981 2.38784 0
M  V30 8131 H 805.391 -3.80147 3.12648 0
M  V30 8132 N 807.043 -1.17915 -1.04565 0
M  V30 8133 C 808.32 -0.881187 -1.74627 0
M  V30 8134 C 808.7 0.617123 -2.01878 0
M  V30 8135 O 808.048 1.57032 -1.65991 0
M  V30 8136 C 808.258 -1.72299 -3.03503 0
M  V30 8137 C 809.606 -1.94688 -3.77335 0
M  V30 8138 O 810.63 -1.6931 -3.13389 0
M  V30 8139 O 809.489 -2.37379 -4.92253 0
M  V30 8140 H 806.583 -0.326864 -0.759664 0
M  V30 8141 H 809.129 -1.28642 -1.10676 0
M  V30 8142 H 807.901 -2.73891 -2.79462 0
M  V30 8143 H 807.524 -1.31593 -3.75192 0
M  V30 8144 N 808.521 1.23394 -0.980386 0
M  V30 8145 C 809.768 1.91809 -0.649261 0
M  V30 8146 C 810.096 1.765 0.817197 0
M  V30 8147 O 809.351 1.11979 1.60497 0
M  V30 8148 C 809.65 3.43542 -0.985588 0
M  V30 8149 C 809.316 3.79031 -2.44225 0
M  V30 8150 C 807.978 3.88429 -2.84035 0
M  V30 8151 C 810.33 3.96145 -3.38702 0
M  V30 8152 C 807.658 4.12368 -4.17336 0
M  V30 8153 C 810.01 4.21583 -4.71646 0
M  V30 8154 C 808.674 4.29203 -5.11215 0
M  V30 8155 H 807.944 0.70188 -0.237581 0
M  V30 8156 H 810.591 1.4642 -1.23424 0
M  V30 8157 H 808.896 3.90503 -0.318521 0
M  V30 8158 H 810.593 3.94708 -0.707596 0
M  V30 8159 H 807.183 3.7229 -2.12362 0
M  V30 8160 H 811.367 3.88274 -3.09123 0
M  V30 8161 H 806.623 4.1649 -4.47601 0
M  V30 8162 H 810.797 4.33769 -5.4481 0
M  V30 8163 H 808.424 4.47505 -6.14527 0
M  V30 8164 N 809.999 0.752036 1.385 0
M  V30 8165 C 811.247 0.306895 1.99756 0
M  V30 8166 C 811.568 -1.11478 1.59992 0
M  V30 8167 O 810.838 -1.76206 0.856045 0
M  V30 8168 H 809.418 0.11048 0.738785 0
M  V30 8169 H 812.08 0.965785 1.69289 0
M  V30 8170 H 811.176 0.368797 3.09913 0
M  V30 8171 N 811.477 -1.49425 0.500989 0
M  V30 8172 C 812.425 -2.30771 -0.291149 0
M  V30 8173 C 813.419 -1.3938 -0.962787 0
M  V30 8174 O 814.625 -1.56431 -0.890477 0
M  V30 8175 H 811 -0.743499 -0.11275 0
M  V30 8176 H 812.971 -2.95501 0.414917 0
M  V30 8177 C 811.72 -3.20725 -1.34279 0
M  V30 8178 H 811.043 -3.90975 -0.83538 0
M  V30 8179 H 812.483 -3.80583 -1.86903 0
M  V30 8180 C 810.942 -2.40334 -2.36095 0
M  V30 8181 O 811.472 -2.10749 -3.41976 0
M  V30 8182 N 809.678 -2.02359 -2.08565 0
M  V30 8183 H 809.225 -2.26619 -1.22482 0
M  V30 8184 H 809.183 -1.48878 -2.76916 0
M  V30 8185 N 812.955 -0.234822 -1.55841 0
M  V30 8186 C 813.918 0.656378 -2.196 0
M  V30 8187 C 814.918 1.11179 -1.16171 0
M  V30 8188 O 816.108 1.01845 -1.41326 0
M  V30 8189 C 813.24 1.90072 -2.82993 0
M  V30 8190 H 814.433 0.100281 -2.99732 0
M  V30 8191 H 811.986 0.0147613 -1.56293 0
M  V30 8192 H 812.721 2.49836 -2.06767 0
M  V30 8193 H 812.506 1.5825 -3.58747 0
M  V30 8194 H 813.996 2.53538 -3.31826 0
M  V30 8195 N 814.433 1.57553 0.0384317 0
M  V30 8196 C 815.679 1.89973 0.726772 0
M  V30 8197 C 816.034 0.832381 1.73462 0
M  V30 8198 O 815.327 -0.159975 1.90931 0
M  V30 8199 C 815.521 3.26862 1.44554 0
M  V30 8200 C 815.35 4.46812 0.508814 0
M  V30 8201 C 814.12 5.05124 0.133323 0
M  V30 8202 C 816.318 5.13876 -0.20881 0
M  V30 8203 N 814.3 6.08591 -0.805636 0
M  V30 8204 C 815.671 6.11821 -1.00376 0
M  V30 8205 C 817.726 4.9713 -0.276749 0
M  V30 8206 C 816.429 6.94825 -1.86038 0
M  V30 8207 C 818.455 5.80689 -1.12047 0
M  V30 8208 C 817.817 6.78197 -1.90337 0
M  V30 8209 H 813.916 0.744153 0.240334 0
M  V30 8210 H 816.5 1.94696 -0.0128735 0
M  V30 8211 H 814.671 3.23085 2.1557 0
M  V30 8212 H 816.403 3.46826 2.08552 0
M  V30 8213 H 813.158 4.71022 0.493484 0
M  V30 8214 H 813.582 6.64994 -1.26935 0
M  V30 8215 H 818.224 4.21631 0.314222 0
M  V30 8216 H 815.942 7.69676 -2.46219 0
M  V30 8217 H 819.528 5.69782 -1.17645 0
M  V30 8218 H 818.408 7.41731 -2.54569 0
M  V30 8219 N 815.911 -0.310526 1.54511 0
M  V30 8220 C 816.858 -1.38264 1.84802 0
M  V30 8221 C 817.828 -1.50808 0.696141 0
M  V30 8222 O 819.013 -1.6582 0.943846 0
M  V30 8223 C 816.153 -2.74422 2.09252 0
M  V30 8224 C 815.266 -2.70405 3.36906 0
M  V30 8225 C 814.401 -3.98495 3.51248 0
M  V30 8226 C 813.44 -3.88836 4.72729 0
M  V30 8227 N 812.577 -5.08683 4.83928 0
M  V30 8228 H 817.417 -1.11732 2.76261 0
M  V30 8229 H 814.954 -0.540609 1.36806 0
M  V30 8230 H 816.912 -3.53593 2.21422 0
M  V30 8231 H 815.542 -2.99235 1.2107 0
M  V30 8232 H 814.594 -1.83151 3.33406 0
M  V30 8233 H 815.906 -2.59155 4.26193 0
M  V30 8234 H 815.06 -4.861 3.63031 0
M  V30 8235 H 813.799 -4.12567 2.60077 0
M  V30 8236 H 812.804 -2.99615 4.60989 0
M  V30 8237 H 814.029 -3.76318 5.65298 0
M  V30 8238 H 811.975 -5.23236 3.95677 0
M  V30 8239 H 811.892 -4.99819 5.67201 0
M  V30 8240 H 813.16 -5.97966 5.00057 0
M  V30 8241 N 817.389 -1.46805 -0.573248 0
M  V30 8242 C 818.319 -1.60951 -1.69165 0
M  V30 8243 C 819.3 -0.45948 -1.63777 0
M  V30 8244 O 820.485 -0.68688 -1.81647 0
M  V30 8245 C 817.615 -1.60844 -3.07809 0
M  V30 8246 C 816.569 -2.74913 -3.28035 0
M  V30 8247 C 815.895 -2.59871 -4.67302 0
M  V30 8248 C 817.195 -4.16654 -3.14955 0
M  V30 8249 H 818.889 -2.54574 -1.57582 0
M  V30 8250 H 816.435 -1.22516 -0.756686 0
M  V30 8251 H 818.388 -1.69334 -3.85881 0
M  V30 8252 H 817.112 -0.637714 -3.20314 0
M  V30 8253 H 815.771 -2.65908 -2.52366 0
M  V30 8254 H 815.419 -1.60861 -4.76585 0
M  V30 8255 H 815.119 -3.36386 -4.81786 0
M  V30 8256 H 816.643 -2.70265 -5.4753 0
M  V30 8257 H 818.057 -4.26721 -3.82861 0
M  V30 8258 H 816.454 -4.93831 -3.40956 0
M  V30 8259 H 817.524 -4.36146 -2.11908 0
M  V30 8260 N 818.867 0.818669 -1.34668 0
M  V30 8261 C 819.817 1.91882 -1.23147 0
M  V30 8262 C 820.801 1.60378 -0.129509 0
M  V30 8263 O 821.993 1.73309 -0.359581 0
M  V30 8264 C 819.122 3.28612 -0.993436 0
M  V30 8265 C 818.208 3.66221 -2.13876 0
M  V30 8266 N 818.599 3.75361 -3.39024 0
M  V30 8267 C 816.897 3.96098 -2.04994 0
M  V30 8268 C 817.598 4.0836 -4.14266 0
M  V30 8269 N 816.574 4.21806 -3.429 0
M  V30 8270 H 820.376 1.97133 -2.17981 0
M  V30 8271 H 817.89 1.01257 -1.26967 0
M  V30 8272 H 819.887 4.0725 -0.891797 0
M  V30 8273 H 818.547 3.24655 -0.053824 0
M  V30 8274 H 819.558 3.58747 -3.73525 0
M  V30 8275 H 816.235 4.00236 -1.18816 0
M  V30 8276 H 817.625 4.226 -5.22359 0
M  V30 8277 N 820.346 1.18468 1.03938 0
M  V30 8278 C 821.594 0.978895 1.76811 0
M  V30 8279 C 821.915 -0.49257 1.88676 0
M  V30 8280 O 821.185 -1.3572 1.41269 0
M  V30 8281 H 819.765 0.359201 0.654968 0
M  V30 8282 H 822.427 1.49173 1.25433 0
M  V30 8283 H 821.523 1.418 2.78027 0
M  V30 8284 N 821.824 -1.22873 0.986916 0
M  V30 8285 C 823.101 -1.86939 0.575589 0
M  V30 8286 C 823.481 -1.88656 -0.947205 0
M  V30 8287 O 822.829 -1.3728 -1.82665 0
M  V30 8288 C 823.039 -3.28117 1.18914 0
M  V30 8289 C 824.387 -4.04659 1.28593 0
M  V30 8290 O 825.411 -3.3736 1.14308 0
M  V30 8291 O 824.27 -5.25112 1.51391 0
M  V30 8292 H 821.364 -0.803748 0.194724 0
M  V30 8293 H 823.91 -1.30698 1.08241 0
M  V30 8294 H 822.682 -3.21468 2.231 0
M  V30 8295 H 822.305 -3.91956 0.667535 0
M  V30 8296 N 823.302 -0.75937 -1.38099 0
M  V30 8297 C 824.542 -0.323116 -2.0183 0
M  V30 8298 C 824.906 1.07658 -1.58977 0
M  V30 8299 O 826.107 1.61227 -2.1508 0
M  V30 8300 C 824.378 -0.448234 -3.54578 0
M  V30 8301 S 825.937 -0.0954152 -4.38696 0
M  V30 8302 H 822.755 -0.125013 -0.699923 0
M  V30 8303 H 825.357 -0.991262 -1.68506 0
M  V30 8304 H 824.061 -1.46778 -3.83255 0
M  V30 8305 H 823.592 0.236895 -3.92686 0
M  V30 8306 H 825.607 1.11312 -4.83554 0
M  V30 8307 N 824.78 1.49157 -0.508906 0
M  V30 8308 C 825.712 2.272 0.302115 0
M  V30 8309 C 826.725 1.3407 0.923529 0
M  V30 8310 O 827.914 1.5929 0.805532 0
M  V30 8311 C 825.014 3.06736 1.44105 0
M  V30 8312 C 824.187 4.27497 0.925477 0
M  V30 8313 C 823.246 4.89014 1.94297 0
M  V30 8314 O 822.272 5.48851 1.50834 0
M  V30 8315 N 823.474 4.7937 3.2739 0
M  V30 8316 H 826.239 2.97443 -0.367115 0
M  V30 8317 H 823.8 1.58248 -0.341933 0
M  V30 8318 H 825.792 3.44763 2.11944 0
M  V30 8319 H 824.362 2.3905 2.0143 0
M  V30 8320 H 823.582 3.94135 0.0717301 0
M  V30 8321 H 824.87 5.05714 0.55955 0
M  V30 8322 H 824.268 4.31869 3.65384 0
M  V30 8323 H 822.825 5.21559 3.90922 0
M  V30 8324 N 826.258 0.243083 1.55714 0
M  V30 8325 C 827.535 -0.432851 1.90751 0
M  V30 8326 C 827.915 -1.76153 1.16333 0
M  V30 8327 O 827.263 -2.26783 0.279565 0
M  V30 8328 C 827.473 -0.604685 3.43722 0
M  V30 8329 C 828.821 -0.90231 4.14902 0
M  V30 8330 O 829.845 -0.690689 3.49439 0
M  V30 8331 O 828.704 -1.3051 5.30688 0
M  V30 8332 H 825.798 -0.231835 0.79384 0
M  V30 8333 H 828.344 0.286867 1.67258 0
M  V30 8334 H 827.116 0.331655 3.89892 0
M  V30 8335 H 826.739 -1.37509 3.73065 0
M  V30 8336 N 827.736 -1.57571 -0.0300757 0
M  V30 8337 C 828.666 -2.0953 -1.03051 0
M  V30 8338 C 829.647 -0.99761 -1.37774 0
M  V30 8339 O 830.832 -1.27279 -1.46676 0
M  V30 8340 C 827.962 -2.57385 -2.33174 0
M  V30 8341 C 826.916 -3.71409 -2.12696 0
M  V30 8342 C 826.242 -4.05467 -3.4857 0
M  V30 8343 C 827.542 -4.99877 -1.51396 0
M  V30 8344 H 829.236 -2.93367 -0.597999 0
M  V30 8345 H 826.782 -1.41127 -0.286203 0
M  V30 8346 H 828.735 -2.92355 -3.03491 0
M  V30 8347 H 827.459 -1.70629 -2.78484 0
M  V30 8348 H 826.118 -3.36786 -1.44813 0
M  V30 8349 H 825.766 -3.15779 -3.91526 0
M  V30 8350 H 825.466 -4.82269 -3.35694 0
M  V30 8351 H 826.99 -4.4297 -4.2025 0
M  V30 8352 H 828.404 -5.3281 -2.11629 0
M  V30 8353 H 826.801 -5.81283 -1.49098 0
M  V30 8354 H 827.871 -4.82522 -0.479676 0
M  V30 8355 N 829.214 0.302327 -1.54673 0
M  V30 8356 C 830.146 1.39443 -1.81902 0
M  V30 8357 C 831.159 1.46891 -0.701914 0
M  V30 8358 O 832.348 1.49233 -0.979369 0
M  V30 8359 C 829.448 2.77824 -1.9408 0
M  V30 8360 C 828.621 2.93324 -3.24468 0
M  V30 8361 C 827.68 4.12196 -3.27079 0
M  V30 8362 O 826.706 4.04344 -4.00617 0
M  V30 8363 N 827.908 5.22768 -2.52376 0
M  V30 8364 H 830.673 1.1644 -2.76155 0
M  V30 8365 H 828.234 0.492392 -1.54231 0
M  V30 8366 H 830.226 3.5559 -1.9323 0
M  V30 8367 H 828.796 2.9378 -1.06828 0
M  V30 8368 H 828.016 2.02682 -3.38103 0
M  V30 8369 H 829.304 3.0059 -4.10516 0
M  V30 8370 H 828.702 5.32027 -1.92259 0
M  V30 8371 H 827.259 5.98874 -2.57281 0
M  V30 8372 N 830.692 1.47107 0.565454 0
M  V30 8373 C 831.639 1.58974 1.6732 0
M  V30 8374 C 832.609 0.433146 1.60353 0
M  V30 8375 O 833.794 0.652141 1.79309 0
M  V30 8376 C 830.934 1.60224 3.05651 0
M  V30 8377 C 830.047 2.86741 3.23116 0
M  V30 8378 C 829.182 2.79381 4.51796 0
M  V30 8379 C 828.221 4.0076 4.62664 0
M  V30 8380 N 827.358 3.91685 5.8269 0
M  V30 8381 H 832.198 2.53588 1.56515 0
M  V30 8382 H 829.735 1.25791 0.762558 0
M  V30 8383 H 831.693 1.58933 3.85741 0
M  V30 8384 H 830.323 0.691285 3.15311 0
M  V30 8385 H 829.375 2.97936 2.36513 0
M  V30 8386 H 830.687 3.7665 3.27011 0
M  V30 8387 H 829.841 2.76293 5.40136 0
M  V30 8388 H 828.58 1.87142 4.50366 0
M  V30 8389 H 827.585 4.04162 3.72738 0
M  V30 8390 H 828.81 4.94117 4.6586 0
M  V30 8391 H 826.756 3.02243 5.82224 0
M  V30 8392 H 826.673 4.75264 5.87929 0
M  V30 8393 H 827.941 3.92599 6.73414 0
M  V30 8394 N 832.17 -0.811516 1.35101 0
M  V30 8395 C 833.102 -1.93102 1.23468 0
M  V30 8396 C 834.115 -1.62021 0.159095 0
M  V30 8397 O 835.304 -1.73682 0.411945 0
M  V30 8398 C 832.404 -3.27345 0.877404 0
M  V30 8399 C 831.577 -3.86368 2.05033 0
M  V30 8400 C 830.636 -4.99009 1.66963 0
M  V30 8401 O 829.662 -5.16698 2.38772 0
M  V30 8402 N 830.864 -5.7749 0.590394 0
M  V30 8403 H 833.629 -2.0361 2.19916 0
M  V30 8404 H 831.19 -0.988687 1.28205 0
M  V30 8405 H 833.182 -4.00163 0.604298 0
M  V30 8406 H 831.752 -3.126 0.00275267 0
M  V30 8407 H 830.972 -3.05804 2.48752 0
M  V30 8408 H 832.26 -4.22533 2.83449 0
M  V30 8409 H 831.658 -5.657 -0.00633259 0
M  V30 8410 H 830.215 -6.50708 0.377055 0
M  V30 8411 N 833.648 -1.19017 -1.03309 0
M  V30 8412 C 834.598 -0.89194 -2.0983 0
M  V30 8413 C 835.582 0.14151 -1.60277 0
M  V30 8414 O 836.774 -0.0635946 -1.76886 0
M  V30 8415 C 833.903 -0.427793 -3.40624 0
M  V30 8416 C 832.989 -1.49374 -3.96923 0
M  V30 8417 N 833.38 -2.71213 -4.26939 0
M  V30 8418 C 831.678 -1.35605 -4.24885 0
M  V30 8419 C 832.379 -3.39849 -4.72099 0
M  V30 8420 N 831.355 -2.67239 -4.73375 0
M  V30 8421 H 835.157 -1.81801 -2.30923 0
M  V30 8422 H 832.671 -1.08171 -1.21131 0
M  V30 8423 H 834.668 -0.195608 -4.16441 0
M  V30 8424 H 833.328 0.491848 -3.20953 0
M  V30 8425 H 834.339 -3.08014 -4.16351 0
M  V30 8426 H 831.016 -0.499537 -4.14501 0
M  V30 8427 H 832.406 -4.44018 -5.04279 0
M  V30 8428 N 835.127 1.22348 -0.993418 0
M  V30 8429 C 836.352 1.95666 -0.687727 0
M  V30 8430 C 836.777 1.72883 0.741161 0
M  V30 8431 O 836.135 1.00837 1.50671 0
M  V30 8432 C 836.183 3.46457 -0.99998 0
M  V30 8433 O 835.287 4.12281 -0.0989386 0
M  V30 8434 H 834.628 0.612102 -0.257346 0
M  V30 8435 H 837.158 1.55428 -1.33054 0
M  V30 8436 H 837.168 3.96976 -0.942035 0
M  V30 8437 H 835.843 3.62365 -2.04118 0
M  V30 8438 H 834.42 3.72295 -0.212413 0
M  V30 8439 N 836.605 0.766683 1.37694 0
M  V30 8440 C 837.882 0.25366 1.93948 0
M  V30 8441 C 838.262 -1.25041 1.70082 0
M  V30 8442 O 837.61 -2.03115 1.04674 0
M  V30 8443 C 837.82 0.621549 3.43421 0
M  V30 8444 C 839.168 0.588504 4.20502 0
M  V30 8445 O 840.192 0.560632 3.5176 0
M  V30 8446 O 839.051 0.61107 5.43073 0
M  V30 8447 H 836.145 0.0570586 0.825029 0
M  V30 8448 H 838.691 0.847693 1.47011 0
M  V30 8449 H 837.463 1.65979 3.54354 0
M  V30 8450 H 837.086 0.000197027 3.976 0
M  V30 8451 N 838.083 -1.48885 0.516809 0
M  V30 8452 C 839.494 -1.86557 0.0729921 0
M  V30 8453 C 839.845 -1.42767 -1.34581 0
M  V30 8454 O 838.97 -0.812514 -2.00567 0
M  V30 8455 C 839.565 -3.38567 0.125686 0
M  V30 8456 C 838.124 -3.75481 -0.262867 0
M  V30 8457 C 837.271 -2.72913 0.491281 0
M  V30 8458 H 840.222 -1.40978 0.728767 0
M  V30 8459 H 840.243 -3.74629 -0.665831 0
M  V30 8460 H 839.755 -3.70408 1.15842 0
M  V30 8461 H 837.856 -3.49251 -1.29824 0
M  V30 8462 H 837.969 -4.79052 0.067579 0
M  V30 8463 H 836.333 -2.54627 -0.0608525 0
M  V30 8464 H 837.116 -3.07599 1.5244 0
M  V30 8465 N 839.561 -0.251338 -1.55583 0
M  V30 8466 C 840.801 0.373651 -2.00956 0
M  V30 8467 C 841.165 1.54806 -1.13574 0
M  V30 8468 O 842.366 2.24108 -1.48422 0
M  V30 8469 C 840.637 0.768919 -3.49031 0
M  V30 8470 S 842.196 1.38381 -4.16409 0
M  V30 8471 H 839.014 0.117371 -0.701245 0
M  V30 8472 H 841.616 -0.367611 -1.92013 0
M  V30 8473 H 840.32 -0.0950492 -4.1029 0
M  V30 8474 H 839.851 1.54225 -3.61909 0
M  V30 8475 H 841.866 2.6728 -4.18062 0
M  V30 8476 N 841.039 1.57585 0.0217189 0
M  V30 8477 C 842.002 2.06004 1.00474 0
M  V30 8478 C 843.002 0.965461 1.2859 0
M  V30 8479 O 844.192 1.22884 1.23471 0
M  V30 8480 C 841.324 2.48319 2.33561 0
M  V30 8481 H 842.517 2.94112 0.586346 0
M  V30 8482 H 840.07 1.53973 0.268716 0
M  V30 8483 H 840.805 1.63389 2.80133 0
M  V30 8484 H 840.59 3.28239 2.1448 0
M  V30 8485 H 842.08 2.86181 3.04122 0
M  V30 8486 N 842.517 -0.29412 1.54831 0
M  V30 8487 C 843.447 -1.36757 1.89261 0
M  V30 8488 C 844.428 -1.52564 0.752214 0
M  V30 8489 O 845.613 -1.65958 1.00855 0
M  V30 8490 C 842.743 -2.73066 2.14597 0
M  V30 8491 C 841.697 -2.72017 3.3044 0
M  V30 8492 C 841.023 -4.11679 3.4121 0
M  V30 8493 C 842.323 -2.33149 4.67375 0
M  V30 8494 H 844.017 -1.08191 2.79169 0
M  V30 8495 H 841.563 -0.519014 1.34321 0
M  V30 8496 H 843.516 -3.48255 2.37269 0
M  V30 8497 H 842.24 -3.03172 1.21467 0
M  V30 8498 H 840.899 -1.99285 3.07703 0
M  V30 8499 H 840.547 -4.38973 2.45584 0
M  V30 8500 H 840.247 -4.11877 4.19084 0
M  V30 8501 H 841.771 -4.88637 3.6615 0
M  V30 8502 H 843.185 -2.98054 4.89731 0
M  V30 8503 H 841.582 -2.44546 5.48012 0
M  V30 8504 H 842.652 -1.28275 4.67626 0
M  V30 8505 N 843.995 -1.47404 -0.557645 0
M  V30 8506 C 844.943 -1.60265 -1.68576 0
M  V30 8507 C 845.937 -0.469982 -1.6275 0
M  V30 8508 O 847.143 -0.647764 -1.67941 0
M  V30 8509 H 843.518 -0.504353 -0.557792 0
M  V30 8510 H 845.489 -2.55066 -1.54867 0
M  V30 8511 C 844.238 -1.63369 -3.0693 0
M  V30 8512 H 843.561 -2.49874 -3.12095 0
M  V30 8513 H 845.001 -1.76417 -3.85556 0
M  V30 8514 C 843.46 -0.366921 -3.34896 0
M  V30 8515 O 843.99 0.53218 -3.98159 0
M  V30 8516 N 842.196 -0.247082 -2.89548 0
M  V30 8517 H 841.743 -0.979669 -2.38244 0
M  V30 8518 H 841.701 0.599552 -3.0863 0
M  V30 8519 N 845.473 0.80434 -1.35529 0
M  V30 8520 C 846.884 1.37849 -1.25915 0
M  V30 8521 C 847.235 1.95905 0.107495 0
M  V30 8522 O 846.36 1.91462 1.00852 0
M  V30 8523 C 846.955 2.50608 -2.27994 0
M  V30 8524 C 845.514 3.03879 -2.22114 0
M  V30 8525 C 844.661 1.76856 -2.13582 0
M  V30 8526 H 847.612 0.607192 -1.46625 0
M  V30 8527 H 847.633 3.29221 -1.90772 0
M  V30 8528 H 847.145 2.08323 -3.27449 0
M  V30 8529 H 845.246 3.50622 -1.26077 0
M  V30 8530 H 845.359 3.61707 -3.14173 0
M  V30 8531 H 843.723 1.98498 -1.59595 0
M  V30 8532 H 844.506 1.36721 -3.14901 0
M  V30 8533 N 846.951 1.19563 1.02676 0
M  V30 8534 C 848.367 0.948304 1.28372 0
M  V30 8535 C 848.567 -0.378096 1.97921 0
M  V30 8536 O 847.623 -1.1091 2.26838 0
M  V30 8537 C 848.936 2.12381 2.12873 0
M  V30 8538 C 850.484 2.16366 2.26174 0
M  V30 8539 C 850.959 3.33374 3.14048 0
M  V30 8540 N 852.45 3.33323 3.21636 0
M  V30 8541 C 853.185 4.20504 3.89825 0
M  V30 8542 N 852.681 5.17845 4.60227 0
M  V30 8543 N 854.474 4.08375 3.86246 0
M  V30 8544 H 846.625 2.04899 0.559485 0
M  V30 8545 H 848.888 0.89606 0.309484 0
M  V30 8546 H 848.594 3.08383 1.69094 0
M  V30 8547 H 848.468 2.09621 3.1359 0
M  V30 8548 H 850.855 1.20933 2.69182 0
M  V30 8549 H 850.936 2.23179 1.25 0
M  V30 8550 H 850.58 4.29087 2.71747 0
M  V30 8551 H 850.51 3.23798 4.15286 0
M  V30 8552 H 853.001 2.62863 2.71498 0
M  V30 8553 H 853.314 5.80712 5.09896 0
M  V30 8554 H 851.659 5.21791 4.59085 0
M  V30 8555 H 854.85 3.31606 3.30386 0
M  V30 8556 H 855.023 4.76532 4.39114 0
M  V30 8557 N 848.429 -1.21819 0.999893 0
M  V30 8558 C 849.362 -2.22635 0.500887 0
M  V30 8559 C 850.34 -1.56459 -0.442636 0
M  V30 8560 O 851.524 -1.84902 -0.366551 0
M  V30 8561 C 848.651 -3.37598 -0.273046 0
M  V30 8562 C 847.697 -4.22006 0.617511 0
M  V30 8563 S 848.53 -4.93583 2.07693 0
M  V30 8564 C 849.686 -6.1198 1.31269 0
M  V30 8565 H 849.919 -2.64618 1.35516 0
M  V30 8566 H 847.452 -1.31606 0.807419 0
M  V30 8567 H 849.41 -4.04251 -0.713515 0
M  V30 8568 H 848.071 -2.94108 -1.10268 0
M  V30 8569 H 847.264 -5.03995 0.0216543 0
M  V30 8570 H 846.866 -3.6052 0.99504 0
M  V30 8571 H 849.158 -6.74979 0.583933 0
M  V30 8572 H 850.101 -6.75991 2.10811 0
M  V30 8573 H 850.509 -5.5847 0.822901 0
M  V30 8574 N 849.908 -0.773975 -1.37286 0
M  V30 8575 C 851.136 -0.350758 -2.03905 0
M  V30 8576 C 851.551 1.02779 -1.58373 0
M  V30 8577 O 850.908 1.65646 -0.766009 0
M  V30 8578 C 850.959 -0.387335 -3.59419 0
M  V30 8579 O 850.68 -1.7115 -4.03286 0
M  V30 8580 C 852.181 0.047198 -4.43275 0
M  V30 8581 H 849.401 -0.146663 -0.654775 0
M  V30 8582 H 851.945 -1.04852 -1.75574 0
M  V30 8583 H 850.1 0.261865 -3.86514 0
M  V30 8584 H 850.514 -1.65166 -4.97816 0
M  V30 8585 H 851.988 -0.0295474 -5.51992 0
M  V30 8586 H 852.465 1.09786 -4.25257 0
M  V30 8587 H 853.071 -0.573899 -4.2141 0
M  V30 8588 N 851.386 1.48609 -0.524698 0
M  V30 8589 C 852.802 1.58557 -0.182199 0
M  V30 8590 C 853.002 1.52732 1.31435 0
M  V30 8591 O 852.058 1.41362 2.0922 0
M  V30 8592 C 853.371 2.90406 -0.78004 0
M  V30 8593 C 854.919 3.03924 -0.748293 0
M  V30 8594 C 855.394 4.38427 -1.32462 0
M  V30 8595 N 856.885 4.4498 -1.28635 0
M  V30 8596 C 857.62 5.47551 -1.70223 0
M  V30 8597 N 857.116 6.57103 -2.19515 0
M  V30 8598 N 858.909 5.38402 -1.61493 0
M  V30 8599 H 851.06 1.50638 -1.4974 0
M  V30 8600 H 853.323 0.714952 -0.622533 0
M  V30 8601 H 853.029 3.00308 -1.83052 0
M  V30 8602 H 852.903 3.76343 -0.254075 0
M  V30 8603 H 855.29 2.93638 0.293407 0
M  V30 8604 H 855.371 2.19611 -1.31167 0
M  V30 8605 H 855.015 4.49466 -2.36522 0
M  V30 8606 H 854.945 5.21418 -0.736967 0
M  V30 8607 H 857.436 3.66393 -0.92545 0
M  V30 8608 H 857.749 7.31499 -2.49257 0
M  V30 8609 H 856.094 6.58081 -2.23506 0
M  V30 8610 H 859.285 4.5171 -1.22785 0
M  V30 8611 H 859.458 6.18208 -1.94225 0
M  V30 8612 N 852.864 0.259585 1.55447 0
M  V30 8613 C 854.111 -0.361607 1.99245 0
M  V30 8614 C 854.439 -1.57017 1.14787 0
M  V30 8615 O 853.694 -1.94658 0.201724 0
M  V30 8616 C 853.993 -0.802727 3.48269 0
M  V30 8617 C 853.659 0.299472 4.49904 0
M  V30 8618 C 852.321 0.602157 4.77418 0
M  V30 8619 C 854.673 1.04295 5.10658 0
M  V30 8620 C 852.001 1.65217 5.62957 0
M  V30 8621 C 854.353 2.08257 5.97337 0
M  V30 8622 C 853.017 2.39177 6.23178 0
M  V30 8623 H 852.287 -0.132322 0.72909 0
M  V30 8624 H 854.934 0.370059 1.8789 0
M  V30 8625 H 853.239 -1.61381 3.5702 0
M  V30 8626 H 854.936 -1.29385 3.79553 0
M  V30 8627 H 851.526 0.0534256 4.28567 0
M  V30 8628 H 855.71 0.822358 4.89439 0
M  V30 8629 H 850.966 1.89692 5.81229 0
M  V30 8630 H 855.14 2.6635 6.43452 0
M  V30 8631 H 852.767 3.20677 6.89253 0
M  V30 8632 N 854.342 -1.57594 -0.0133615 0
M  V30 8633 C 855.567 -1.94649 -0.715996 0
M  V30 8634 C 855.992 -0.860786 -1.67249 0
M  V30 8635 O 855.35 0.182228 -1.80382 0
M  V30 8636 C 855.398 -3.30789 -1.43566 0
M  V30 8637 O 854.502 -3.24148 -2.54955 0
M  V30 8638 H 853.843 -0.635801 -0.191449 0
M  V30 8639 H 856.373 -2.04569 0.0358478 0
M  V30 8640 H 856.383 -3.66045 -1.80208 0
M  V30 8641 H 855.058 -4.09367 -0.734263 0
M  V30 8642 H 853.635 -3.00548 -2.20739 0
M  V30 8643 N 855.82 0.285905 -1.54985 0
M  V30 8644 C 856.73 1.37534 -1.90057 0
M  V30 8645 C 857.746 1.54707 -0.796348 0
M  V30 8646 O 858.922 1.69082 -1.09423 0
M  V30 8647 C 855.987 2.7167 -2.15398 0
M  V30 8648 C 855.048 2.63354 -3.39033 0
M  V30 8649 C 854.281 3.91093 -3.63155 0
M  V30 8650 O 854.504 4.91169 -2.90015 0
M  V30 8651 O 853.438 3.92075 -4.56685 0
M  V30 8652 H 857.264 1.10791 -2.8277 0
M  V30 8653 H 854.849 0.483303 -1.41367 0
M  V30 8654 H 856.731 3.51006 -2.33179 0
M  V30 8655 H 855.406 2.98226 -1.25868 0
M  V30 8656 H 854.313 1.82438 -3.26599 0
M  V30 8657 H 855.646 2.41749 -4.2874 0
M  V30 8658 N 857.298 1.47698 0.54982 0
M  V30 8659 C 858.208 1.63386 1.68351 0
M  V30 8660 C 859.224 0.516583 1.66155 0
M  V30 8661 O 860.4 0.785088 1.85468 0
M  V30 8662 C 857.465 1.6513 3.04849 0
M  V30 8663 C 856.526 2.88338 3.18056 0
M  V30 8664 C 855.759 2.8999 4.48042 0
M  V30 8665 O 855.982 2.00633 5.3395 0
M  V30 8666 O 854.916 3.81938 4.65196 0
M  V30 8667 H 858.742 2.59329 1.58057 0
M  V30 8668 H 856.327 1.30869 0.72067 0
M  V30 8669 H 858.209 1.68913 3.86065 0
M  V30 8670 H 856.884 0.723555 3.1551 0
M  V30 8671 H 855.791 2.90097 2.36209 0
M  V30 8672 H 857.124 3.80431 3.12302 0
M  V30 8673 N 858.776 -0.797141 1.35954 0
M  V30 8674 C 859.739 -1.89104 1.29508 0
M  V30 8675 C 860.739 -1.59495 0.204444 0
M  V30 8676 O 861.929 -1.68051 0.458746 0
M  V30 8677 C 859.061 -3.25726 1.00576 0
M  V30 8678 H 860.254 -1.96237 2.26785 0
M  V30 8679 H 857.807 -0.994075 1.20614 0
M  V30 8680 H 858.542 -3.24279 0.0372519 0
M  V30 8681 H 858.327 -3.48604 1.79492 0
M  V30 8682 H 859.817 -4.0578 0.986508 0
M  V30 8683 N 860.254 -1.20106 -1.0204 0
M  V30 8684 C 861.494 -1.02013 -1.77123 0
M  V30 8685 C 861.858 0.440439 -1.8688 0
M  V30 8686 O 863.059 0.74144 -2.58372 0
M  V30 8687 C 861.33 -1.68058 -3.15423 0
M  V30 8688 S 862.889 -1.65016 -4.0659 0
M  V30 8689 H 859.707 -0.365882 -0.609632 0
M  V30 8690 H 862.309 -1.52597 -1.22206 0
M  V30 8691 H 861.013 -2.73544 -3.05944 0
M  V30 8692 H 860.544 -1.17589 -3.75415 0
M  V30 8693 H 862.559 -0.680341 -4.91514 0
M  V30 8694 N 861.732 1.21287 -1.00634 0
M  V30 8695 C 862.695 2.21927 -0.572821 0
M  V30 8696 C 863.695 1.5691 0.351541 0
M  V30 8697 O 864.885 1.73623 0.141643 0
M  V30 8698 C 862.017 3.40501 0.164932 0
M  V30 8699 H 863.21 2.61795 -1.463 0
M  V30 8700 H 860.763 1.34571 -0.794998 0
M  V30 8701 H 861.498 3.06123 1.07049 0
M  V30 8702 H 861.283 3.88912 -0.498962 0
M  V30 8703 H 862.773 4.15103 0.455945 0
M  V30 8704 N 863.21 0.781244 1.36873 0
M  V30 8705 C 864.456 0.350407 1.9975 0
M  V30 8706 C 864.789 -1.07293 1.6187 0
M  V30 8707 O 864.064 -1.73983 0.869491 0
M  V30 8708 C 864.347 0.504834 3.56544 0
M  V30 8709 C 864.2 1.97127 4.04303 0
M  V30 8710 C 865.519 -0.0851272 4.40018 0
M  V30 8711 H 862.638 0.128794 0.725659 0
M  V30 8712 H 865.28 0.98606 1.6241 0
M  V30 8713 H 863.43 -0.0363006 3.88483 0
M  V30 8714 H 865.102 2.57284 3.82887 0
M  V30 8715 H 863.345 2.47676 3.56145 0
M  V30 8716 H 864.016 2.03033 5.13305 0
M  V30 8717 H 866.492 0.376704 4.14391 0
M  V30 8718 H 865.368 0.0530015 5.48874 0
M  V30 8719 H 865.629 -1.17642 4.2616 0
M  V30 8720 N 864.689 -1.48329 0.532571 0
M  V30 8721 C 865.619 -2.32485 -0.217511 0
M  V30 8722 C 866.6 -1.42255 -0.932598 0
M  V30 8723 O 867.785 -1.7114 -0.917873 0
M  V30 8724 C 864.915 -3.23509 -1.26329 0
M  V30 8725 C 863.869 -4.22784 -0.666191 0
M  V30 8726 C 863.195 -5.0296 -1.81482 0
M  V30 8727 C 864.495 -5.21031 0.363813 0
M  V30 8728 H 866.189 -2.95445 0.485014 0
M  V30 8729 H 863.735 -1.42075 0.234694 0
M  V30 8730 H 865.688 -3.81211 -1.79601 0
M  V30 8731 H 864.412 -2.58554 -1.99543 0
M  V30 8732 H 863.071 -3.66272 -0.15498 0
M  V30 8733 H 862.719 -4.34427 -2.5354 0
M  V30 8734 H 862.419 -5.70154 -1.4212 0
M  V30 8735 H 863.943 -5.63514 -2.35126 0
M  V30 8736 H 865.357 -5.73241 -0.0819079 0
M  V30 8737 H 863.754 -5.96292 0.674956 0
M  V30 8738 H 864.824 -4.6801 1.26865 0
M  V30 8739 N 866.167 -0.267825 -1.55308 0
M  V30 8740 C 867.395 0.354587 -2.03839 0
M  V30 8741 C 867.81 1.50007 -1.14644 0
M  V30 8742 O 867.167 1.81752 -0.165055 0
M  V30 8743 C 867.218 0.84254 -3.51544 0
M  V30 8744 O 866.939 -0.257318 -4.37344 0
M  V30 8745 C 868.44 1.53351 -4.15931 0
M  V30 8746 H 865.66 0.0818131 -0.665994 0
M  V30 8747 H 868.204 -0.397795 -2.00594 0
M  V30 8748 H 866.359 1.54503 -3.55257 0
M  V30 8749 H 866.773 0.116593 -5.2437 0
M  V30 8750 H 868.247 1.82643 -5.20908 0
M  V30 8751 H 868.724 2.4626 -3.63666 0
M  V30 8752 H 869.33 0.87506 -4.162 0
M  V30 8753 N 867.645 1.57599 0.00500368 0
M  V30 8754 C 868.87 1.95026 0.705663 0
M  V30 8755 C 869.295 0.869643 1.6679 0
M  V30 8756 O 868.653 -0.172659 1.80476 0
M  V30 8757 C 868.701 3.31545 1.4181 0
M  V30 8758 O 867.805 3.25495 2.53232 0
M  V30 8759 H 867.146 0.636808 0.188074 0
M  V30 8760 H 869.676 2.04547 -0.046696 0
M  V30 8761 H 869.686 3.66996 1.78265 0
M  V30 8762 H 868.361 4.09751 0.712543 0
M  V30 8763 H 866.938 3.01714 2.19142 0
M  V30 8764 N 869.123 -0.277682 1.55134 0
M  V30 8765 C 870.534 -0.849063 1.66276 0
M  V30 8766 C 870.885 -1.87223 0.5867 0
M  V30 8767 O 870.01 -2.14676 -0.272635 0
M  V30 8768 C 870.605 -1.54681 3.01429 0
M  V30 8769 C 869.164 -2.06628 3.14614 0
M  V30 8770 C 868.311 -0.906748 2.62056 0
M  V30 8771 H 871.262 -0.0541357 1.58608 0
M  V30 8772 H 871.283 -2.41356 2.94156 0
M  V30 8773 H 870.795 -0.80189 3.79725 0
M  V30 8774 H 868.896 -2.84095 2.41082 0
M  V30 8775 H 869.009 -2.2848 4.2111 0
M  V30 8776 H 867.373 -1.29882 2.19095 0
M  V30 8777 H 868.156 -0.175414 3.42852 0
M  V30 8778 N 870.601 -1.47988 -0.541979 0
M  V30 8779 C 871.829 -1.59034 -1.32347 0
M  V30 8780 C 872.244 -0.246123 -1.87189 0
M  V30 8781 O 871.601 0.762889 -1.6579 0
M  V30 8782 C 871.652 -2.62759 -2.48274 0
M  V30 8783 O 871.373 -3.91963 -1.95695 0
M  V30 8784 C 872.874 -2.84133 -3.4027 0
M  V30 8785 H 870.094 -0.536574 -0.402901 0
M  V30 8786 H 872.638 -1.93725 -0.655045 0
M  V30 8787 H 870.793 -2.3096 -3.11025 0
M  V30 8788 H 871.207 -4.48769 -2.7149 0
M  V30 8789 H 872.681 -3.60538 -4.17991 0
M  V30 8790 H 873.158 -1.92512 -3.9476 0
M  V30 8791 H 873.764 -3.17188 -2.83322 0
M  V30 8792 N 872.079 0.78992 -1.36375 0
M  V30 8793 C 873.326 1.54777 -1.30576 0
M  V30 8794 C 873.654 1.94159 0.115095 0
M  V30 8795 O 872.909 1.62918 1.08426 0
M  V30 8796 C 873.208 2.83698 -2.17371 0
M  V30 8797 C 872.874 2.63457 -3.65925 0
M  V30 8798 C 871.536 2.57645 -4.06415 0
M  V30 8799 C 873.888 2.44833 -4.60115 0
M  V30 8800 C 871.216 2.31174 -5.39236 0
M  V30 8801 C 873.568 2.19889 -5.93154 0
M  V30 8802 C 872.232 2.1251 -6.32768 0
M  V30 8803 H 871.502 0.566371 -0.477813 0
M  V30 8804 H 874.149 0.91138 -1.68422 0
M  V30 8805 H 872.454 3.51802 -1.72459 0
M  V30 8806 H 874.151 3.41487 -2.10209 0
M  V30 8807 H 870.741 2.68836 -3.33804 0
M  V30 8808 H 874.925 2.48325 -4.29707 0
M  V30 8809 H 870.181 2.23942 -5.68911 0
M  V30 8810 H 874.355 2.04473 -6.65705 0
M  V30 8811 H 871.982 1.91761 -7.35616 0
M  V30 8812 N 873.557 1.20646 1.01402 0
M  V30 8813 C 874.467 0.973385 2.13453 0
M  V30 8814 C 875.483 -0.0715865 1.73853 0
M  V30 8815 O 876.659 0.116438 2.01063 0
M  V30 8816 C 873.724 0.531285 3.42605 0
M  V30 8817 C 872.785 1.64741 3.96433 0
M  V30 8818 C 872.018 1.22631 5.1942 0
M  V30 8819 O 872.241 0.0960891 5.70319 0
M  V30 8820 O 871.175 2.03474 5.66465 0
M  V30 8821 H 875.001 1.91164 2.35987 0
M  V30 8822 H 872.586 0.990553 1.11841 0
M  V30 8823 H 874.468 0.294095 4.20373 0
M  V30 8824 H 873.143 -0.378358 3.21481 0
M  V30 8825 H 872.05 1.93891 3.19933 0
M  V30 8826 H 873.383 2.53415 4.2195 0
M  V30 8827 N 875.035 -1.20752 1.01276 0
M  V30 8828 C 875.998 -2.2162 0.584583 0
M  V30 8829 C 876.998 -1.57094 -0.343215 0
M  V30 8830 O 878.188 -1.73696 -0.132433 0
M  V30 8831 C 875.32 -3.40583 -0.146872 0
M  V30 8832 H 876.513 -2.61015 1.47686 0
M  V30 8833 H 874.066 -1.34148 0.802123 0
M  V30 8834 H 874.801 -3.06686 -1.05424 0
M  V30 8835 H 874.586 -3.88642 0.51958 0
M  V30 8836 H 876.076 -4.15339 -0.433924 0
M  V30 8837 N 876.513 -0.788492 -1.36457 0
M  V30 8838 C 877.753 -0.365855 -2.01099 0
M  V30 8839 C 878.117 1.04262 -1.61225 0
M  V30 8840 O 879.318 1.56628 -2.18451 0
M  V30 8841 C 877.589 -0.523344 -3.53548 0
M  V30 8842 S 879.148 -0.188448 -4.38395 0
M  V30 8843 H 875.966 -0.139832 -0.697114 0
M  V30 8844 H 878.568 -1.02678 -1.66365 0
M  V30 8845 H 877.272 -1.54874 -3.80055 0
M  V30 8846 H 876.803 0.153547 -3.931 0
M  V30 8847 H 878.818 1.0103 -4.85806 0
M  V30 8848 N 877.991 1.48044 -0.54043 0
M  V30 8849 C 878.941 2.26768 0.236657 0
M  V30 8850 C 879.925 1.33341 0.900505 0
M  V30 8851 O 881.117 1.57809 0.801584 0
M  V30 8852 C 878.246 3.18685 1.27651 0
M  V30 8853 C 877.332 4.19589 0.616923 0
M  V30 8854 N 877.723 5.04889 -0.303377 0
M  V30 8855 C 876.021 4.37375 0.872879 0
M  V30 8856 C 876.722 5.77654 -0.684905 0
M  V30 8857 N 875.698 5.43583 -0.0435728 0
M  V30 8858 H 879.5 2.90098 -0.471183 0
M  V30 8859 H 877.014 1.58378 -0.359183 0
M  V30 8860 H 879.011 3.73752 1.84702 0
M  V30 8861 H 877.671 2.56911 1.98562 0
M  V30 8862 H 878.682 5.13461 -0.676591 0
M  V30 8863 H 875.359 3.86784 1.57177 0
M  V30 8864 H 876.749 6.56285 -1.44015 0
M  V30 8865 N 879.47 0.276058 1.55163 0
M  V30 8866 C 880.886 -0.0780579 1.59409 0
M  V30 8867 C 881.086 -1.54521 1.29327 0
M  V30 8868 O 880.142 -2.29422 1.05459 0
M  V30 8869 C 881.455 0.297422 2.99225 0
M  V30 8870 C 883.003 0.244117 3.12047 0
M  V30 8871 C 883.478 0.594051 4.54131 0
M  V30 8872 N 884.969 0.54564 4.59975 0
M  V30 8873 C 885.704 0.789192 5.67943 0
M  V30 8874 N 885.2 1.09741 6.84053 0
M  V30 8875 N 886.993 0.717926 5.57496 0
M  V30 8876 H 879.144 1.23251 1.72982 0
M  V30 8877 H 881.407 0.497988 0.806667 0
M  V30 8878 H 881.113 1.31782 3.26077 0
M  V30 8879 H 880.987 -0.361286 3.75466 0
M  V30 8880 H 883.374 -0.766992 2.84958 0
M  V30 8881 H 883.455 0.937097 2.38017 0
M  V30 8882 H 883.099 1.60285 4.81945 0
M  V30 8883 H 883.029 -0.120728 5.26462 0
M  V30 8884 H 885.52 0.317334 3.76565 0
M  V30 8885 H 885.833 1.26989 7.62295 0
M  V30 8886 H 884.178 1.13519 6.85666 0
M  V30 8887 H 887.369 0.47697 4.65664 0
M  V30 8888 H 887.542 0.911118 6.41563 0
M  V30 8889 N 880.948 -1.576 0.00335426 0
M  V30 8890 C 881.911 -2.07576 -0.971838 0
M  V30 8891 C 882.911 -0.985796 -1.27038 0
M  V30 8892 O 884.101 -1.24833 -1.21501 0
M  V30 8893 C 881.233 -2.52003 -2.29581 0
M  V30 8894 H 882.426 -2.95008 -0.539481 0
M  V30 8895 H 879.979 -1.54381 -0.244186 0
M  V30 8896 H 880.714 -1.67825 -2.77498 0
M  V30 8897 H 880.499 -3.31609 -2.09231 0
M  V30 8898 H 881.989 -2.90983 -2.99531 0
M  V30 8899 N 882.426 0.269451 -1.5528 0
M  V30 8900 C 883.672 1.00206 -1.76314 0
M  V30 8901 C 884.005 1.85812 -0.564581 0
M  V30 8902 O 883.28 1.89509 0.437769 0
M  V30 8903 C 883.563 1.88163 -3.07029 0
M  V30 8904 C 883.416 1.05527 -4.37246 0
M  V30 8905 C 884.735 2.8681 -3.33808 0
M  V30 8906 H 881.854 0.36288 -0.641473 0
M  V30 8907 H 884.496 0.274188 -1.88011 0
M  V30 8908 H 882.646 2.50224 -2.97187 0
M  V30 8909 H 884.318 0.455094 -4.5905 0
M  V30 8910 H 882.561 0.358842 -4.32313 0
M  V30 8911 H 883.232 1.70397 -5.25042 0
M  V30 8912 H 885.708 2.34884 -3.43466 0
M  V30 8913 H 884.584 3.45492 -4.26528 0
M  V30 8914 H 884.845 3.62118 -2.5362 0
M  V30 8915 N 883.904 1.48273 0.534124 0
M  V30 8916 C 885.129 1.59988 1.31979 0
M  V30 8917 C 885.554 0.258824 1.86311 0
M  V30 8918 O 884.912 -0.768885 1.64188 0
M  V30 8919 C 884.96 2.64642 2.44943 0
M  V30 8920 O 884.064 2.21515 3.47858 0
M  V30 8921 H 883.405 0.536625 0.391063 0
M  V30 8922 H 885.935 1.94229 0.643135 0
M  V30 8923 H 885.945 2.85786 2.91187 0
M  V30 8924 H 884.62 3.62004 2.04758 0
M  V30 8925 H 883.197 2.10567 3.0776 0
M  V30 8926 N 885.382 -0.782676 1.36792 0
M  V30 8927 C 886.793 -1.35828 1.28092 0
M  V30 8928 C 887.144 -1.96052 -0.076315 0
M  V30 8929 O 886.269 -1.93042 -0.977935 0
M  V30 8930 C 886.864 -2.46949 2.31952 0
M  V30 8931 C 885.423 -3.00307 2.2692 0
M  V30 8932 C 884.57 -1.73436 2.16368 0
M  V30 8933 H 887.521 -0.583788 1.47572 0
M  V30 8934 H 887.542 -3.26144 1.95986 0
M  V30 8935 H 887.054 -2.03087 3.30722 0
M  V30 8936 H 885.155 -3.48571 1.31639 0
M  V30 8937 H 885.268 -3.56663 3.19887 0
M  V30 8938 H 883.632 -1.95934 1.62733 0
M  V30 8939 H 884.415 -1.31693 3.17036 0
M  V30 8940 N 886.86 -1.21182 -1.00761 0
M  V30 8941 C 887.79 -0.992773 -2.11344 0
M  V30 8942 C 888.771 0.0813618 -1.69905 0
M  V30 8943 O 889.956 -0.0779503 -1.94043 0
M  V30 8944 C 887.086 -0.553826 -3.42856 0
M  V30 8945 C 886.04 -1.57223 -3.98077 0
M  V30 8946 C 885.366 -0.989605 -5.25463 0
M  V30 8947 C 886.666 -2.95839 -4.30438 0
M  V30 8948 H 888.36 -1.91766 -2.29927 0
M  V30 8949 H 885.906 -0.923426 -1.10494 0
M  V30 8950 H 887.859 -0.387771 -4.19612 0
M  V30 8951 H 886.583 0.406702 -3.24058 0
M  V30 8952 H 885.242 -1.7258 -3.23437 0
M  V30 8953 H 884.89 -0.0208743 -5.02996 0
M  V30 8954 H 884.59 -1.66984 -5.63374 0
M  V30 8955 H 886.114 -0.834815 -6.04866 0
M  V30 8956 H 887.528 -2.8394 -4.98047 0
M  V30 8957 H 885.925 -3.60851 -4.79486 0
M  V30 8958 H 886.995 -3.46882 -3.38823 0
M  V30 8959 N 888.338 1.20213 -1.01915 0
M  V30 8960 C 889.749 1.7136 -0.741131 0
M  V30 8961 C 890.1 1.81705 0.740107 0
M  V30 8962 O 889.225 1.48139 1.57746 0
M  V30 8963 C 889.82 3.11231 -1.33869 0
M  V30 8964 C 888.379 3.59677 -1.10948 0
M  V30 8965 C 887.526 2.36809 -1.4428 0
M  V30 8966 H 890.477 1.05191 -1.1883 0
M  V30 8967 H 890.498 3.7342 -0.730585 0
M  V30 8968 H 890.01 3.03669 -2.41675 0
M  V30 8969 H 888.111 3.72568 -0.0492052 0
M  V30 8970 H 888.224 4.44351 -1.79134 0
M  V30 8971 H 886.588 2.39674 -0.861881 0
M  V30 8972 H 887.371 2.31886 -2.53148 0
M  V30 8973 N 889.816 0.795718 1.36037 0
M  V30 8974 C 891.046 0.382597 2.03026 0
M  V30 8975 C 891.454 -1.00779 1.60126 0
M  V30 8976 O 890.797 -1.65884 0.78919 0
M  V30 8977 C 890.859 0.374145 3.57548 0
M  V30 8978 C 890.523 1.71318 4.23673 0
M  V30 8979 C 891.52 2.6697 4.4612 0
M  V30 8980 C 889.205 1.99421 4.61017 0
M  V30 8981 C 891.199 3.88916 5.04998 0
M  V30 8982 C 888.886 3.21632 5.19611 0
M  V30 8983 C 889.884 4.16198 5.41542 0
M  V30 8984 O 889.572 5.36254 5.98905 0
M  V30 8985 H 889.304 0.154944 0.658003 0
M  V30 8986 H 891.858 1.07756 1.74865 0
M  V30 8987 H 890.088 -0.377349 3.84854 0
M  V30 8988 H 891.777 -0.01517 4.05897 0
M  V30 8989 H 892.543 2.46548 4.17659 0
M  V30 8990 H 888.422 1.2663 4.43267 0
M  V30 8991 H 891.966 4.6274 5.22032 0
M  V30 8992 H 887.863 3.4193 5.47498 0
M  V30 8993 H 888.631 5.37403 6.17366 0
M  V30 8994 N 891.294 -1.47756 0.548274 0
M  V30 8995 C 892.224 -2.32702 -0.19284 0
M  V30 8996 C 893.205 -1.43237 -0.917457 0
M  V30 8997 O 894.39 -1.72103 -0.89967 0
M  V30 8998 C 891.52 -3.24831 -1.22891 0
M  V30 8999 C 890.474 -4.23466 -0.621312 0
M  V30 9000 C 889.8 -5.04856 -1.76137 0
M  V30 9001 C 891.1 -5.20616 0.419055 0
M  V30 9002 H 892.794 -2.94914 0.516323 0
M  V30 9003 H 890.34 -1.41818 0.24975 0
M  V30 9004 H 892.293 -3.83094 -1.75547 0
M  V30 9005 H 891.017 -2.60656 -1.9679 0
M  V30 9006 H 889.676 -3.66416 -0.116123 0
M  V30 9007 H 889.324 -4.37091 -2.48918 0
M  V30 9008 H 889.024 -5.71629 -1.36065 0
M  V30 9009 H 890.548 -5.65976 -2.29136 0
M  V30 9010 H 891.962 -5.73296 -0.0211034 0
M  V30 9011 H 890.359 -5.95543 0.738163 0
M  V30 9012 H 891.429 -4.66638 1.31822 0
M  V30 9013 N 892.772 -0.284283 -1.55015 0
M  V30 9014 C 894.188 0.069603 -1.59448 0
M  V30 9015 C 894.388 1.53833 -1.30144 0
M  V30 9016 O 893.444 2.2886 -1.06674 0
M  V30 9017 C 894.757 -0.313287 -2.99064 0
M  V30 9018 C 896.305 -0.260662 -3.11913 0
M  V30 9019 C 896.78 -0.618127 -4.5381 0
M  V30 9020 N 898.271 -0.570026 -4.59679 0
M  V30 9021 C 899.006 -0.8193 -5.67517 0
M  V30 9022 N 898.502 -1.13367 -6.83462 0
M  V30 9023 N 900.295 -0.747482 -5.57108 0
M  V30 9024 H 892.446 -1.24167 -1.72326 0
M  V30 9025 H 894.709 -0.502259 -0.804015 0
M  V30 9026 H 894.415 -1.33509 -3.25374 0
M  V30 9027 H 894.289 0.341369 -3.75652 0
M  V30 9028 H 896.676 0.751869 -2.85361 0
M  V30 9029 H 896.757 -0.949706 -2.37517 0
M  V30 9030 H 896.401 -1.62839 -4.81088 0
M  V30 9031 H 896.331 0.092807 -5.26518 0
M  V30 9032 H 898.822 -0.3373 -3.76392 0
M  V30 9033 H 899.135 -1.3103 -7.61611 0
M  V30 9034 H 897.48 -1.17154 -6.85055 0
M  V30 9035 H 900.671 -0.501658 -4.65404 0
M  V30 9036 H 900.844 -0.945128 -6.4107 0
M  V30 9037 N 894.251 1.57596 -0.0117121 0
M  V30 9038 C 895.199 2.1029 0.994035 0
M  V30 9039 C 896.193 1.02549 1.34833 0
M  V30 9040 O 897.399 1.21003 1.3326 0
M  V30 9041 H 893.774 0.671624 0.338268 0
M  V30 9042 H 895.745 2.93761 0.524147 0
M  V30 9043 C 894.494 2.63099 2.27319 0
M  V30 9044 H 893.817 3.45642 2.00927 0
M  V30 9045 H 895.257 3.03635 2.95942 0
M  V30 9046 C 893.716 1.55044 2.99104 0
M  V30 9047 O 894.246 0.940127 3.90544 0
M  V30 9048 N 892.452 1.27506 2.61133 0
M  V30 9049 H 891.999 1.77322 1.86855 0
M  V30 9050 H 891.957 0.554292 3.09475 0
M  V30 9051 N 895.729 -0.261212 1.5542 0
M  V30 9052 C 896.969 -0.998748 1.78338 0
M  V30 9053 C 897.333 -1.83064 0.578914 0
M  V30 9054 O 898.534 -2.59884 0.686575 0
M  V30 9055 C 896.805 -1.84828 3.05898 0
M  V30 9056 S 898.364 -2.64686 3.49981 0
M  V30 9057 H 895.182 -0.33619 0.626496 0
M  V30 9058 H 897.784 -0.26799 1.93655 0
M  V30 9059 H 896.488 -1.22658 3.91642 0
M  V30 9060 H 896.019 -2.62203 2.9328 0
M  V30 9061 H 898.034 -3.87299 3.10184 0
M  V30 9062 N 897.207 -1.48554 -0.526253 0
M  V30 9063 C 898.623 -1.34757 -0.855138 0
M  V30 9064 C 898.823 -0.36142 -1.98232 0
M  V30 9065 O 897.879 0.216026 -2.51574 0
M  V30 9066 C 899.192 -2.74877 -1.21915 0
M  V30 9067 C 900.74 -2.83393 -1.32882 0
M  V30 9068 C 901.215 -4.24223 -1.72624 0
M  V30 9069 N 902.706 -4.26913 -1.7972 0
M  V30 9070 C 903.441 -5.32824 -2.11863 0
M  V30 9071 N 902.937 -6.49008 -2.42405 0
M  V30 9072 N 904.73 -5.20221 -2.12901 0
M  V30 9073 H 896.881 -2.11284 0.217422 0
M  V30 9074 H 899.144 -0.947367 0.0346362 0
M  V30 9075 H 898.85 -3.48619 -0.464486 0
M  V30 9076 H 898.724 -3.0864 -2.16844 0
M  V30 9077 H 901.111 -2.09904 -2.07424 0
M  V30 9078 H 901.192 -2.53245 -0.360638 0
M  V30 9079 H 900.836 -4.98229 -0.986411 0
M  V30 9080 H 900.766 -4.51817 -2.70498 0
M  V30 9081 H 903.257 -3.4311 -1.58379 0
M  V30 9082 H 903.57 -7.25561 -2.66048 0
M  V30 9083 H 901.915 -6.52277 -2.39917 0
M  V30 9084 H 905.106 -4.28469 -1.885 0
M  V30 9085 H 905.279 -6.02861 -2.37619 0
M  V30 9086 N 898.685 0.775411 -1.37205 0
M  V30 9087 C 899.915 1.56219 -1.352 0
M  V30 9088 C 900.323 1.89087 0.065456 0
M  V30 9089 O 899.666 1.51655 1.03665 0
M  V30 9090 C 899.728 2.9019 -2.12203 0
M  V30 9091 C 899.392 2.79978 -3.61195 0
M  V30 9092 C 900.389 2.51258 -4.55154 0
M  V30 9093 C 898.074 2.98115 -4.04268 0
M  V30 9094 C 900.068 2.40798 -5.90165 0
M  V30 9095 C 897.755 2.87276 -5.39366 0
M  V30 9096 C 898.753 2.58657 -6.32128 0
M  V30 9097 O 898.441 2.47838 -7.64743 0
M  V30 9098 H 898.173 0.490735 -0.464925 0
M  V30 9099 H 900.727 0.969201 -1.81096 0
M  V30 9100 H 898.957 3.51594 -1.60992 0
M  V30 9101 H 900.646 3.51561 -2.02879 0
M  V30 9102 H 901.412 2.36935 -4.23186 0
M  V30 9103 H 897.291 3.19392 -3.3243 0
M  V30 9104 H 900.835 2.18381 -6.62537 0
M  V30 9105 H 896.732 3.01166 -5.70937 0
M  V30 9106 H 897.5 2.63215 -7.75023 0
M  V30 9107 N 900.163 1.21714 1.00117 0
M  V30 9108 C 901.44 0.945391 1.71236 0
M  V30 9109 C 901.82 -0.541772 2.0403 0
M  V30 9110 O 901.168 -1.50763 1.71705 0
M  V30 9111 C 901.378 1.83444 2.96899 0
M  V30 9112 C 902.726 2.08558 3.69849 0
M  V30 9113 O 903.75 1.80824 3.06889 0
M  V30 9114 O 902.609 2.55485 4.83104 0
M  V30 9115 H 899.703 0.354834 0.747009 0
M  V30 9116 H 902.249 1.32661 1.05825 0
M  V30 9117 H 901.021 2.84075 2.69105 0
M  V30 9118 H 900.644 1.45428 3.70049 0
M  V30 9119 N 901.641 -1.19671 1.02551 0
M  V30 9120 C 902.887 -1.89548 0.721069 0
M  V30 9121 C 903.22 -1.79209 -0.748176 0
M  V30 9122 O 902.495 -1.1822 -1.54448 0
M  V30 9123 C 902.778 -3.4061 1.16861 0
M  V30 9124 C 902.631 -3.59838 2.69883 0
M  V30 9125 C 903.95 -4.33718 0.746782 0
M  V30 9126 H 901.069 -0.688315 0.263422 0
M  V30 9127 H 903.711 -1.40883 1.27483 0
M  V30 9128 H 901.861 -3.82188 0.697477 0
M  V30 9129 H 903.533 -3.27454 3.24917 0
M  V30 9130 H 901.776 -3.03005 3.10435 0
M  V30 9131 H 902.447 -4.65766 2.96253 0
M  V30 9132 H 904.923 -3.99837 1.15195 0
M  V30 9133 H 903.799 -5.38012 1.08786 0
M  V30 9134 H 904.06 -4.40704 -0.351057 0
M  V30 9135 N 903.119 -0.802921 -1.35613 0
M  V30 9136 C 904.359 -0.387163 -2.007 0
M  V30 9137 C 904.723 1.02546 -1.62322 0
M  V30 9138 O 905.924 1.54303 -2.201 0
M  V30 9139 C 904.195 -0.560813 -3.52973 0
M  V30 9140 S 905.754 -0.234935 -4.38171 0
M  V30 9141 H 902.572 -0.147218 -0.695592 0
M  V30 9142 H 905.174 -1.04437 -1.65267 0
M  V30 9143 H 903.878 -1.58897 -3.78391 0
M  V30 9144 H 903.409 0.111845 -3.93241 0
M  V30 9145 H 905.424 0.958715 -4.8685 0
M  V30 9146 N 904.597 1.47463 -0.556102 0
M  V30 9147 C 905.822 2.07371 -0.0344729 0
M  V30 9148 C 906.247 1.40621 1.2493 0
M  V30 9149 O 905.605 0.48082 1.74808 0
M  V30 9150 C 905.653 3.60306 0.145563 0
M  V30 9151 O 904.757 3.94299 1.20839 0
M  V30 9152 H 904.098 0.662052 -0.0508274 0
M  V30 9153 H 906.628 1.89498 -0.771469 0
M  V30 9154 H 906.638 4.06408 0.360112 0
M  V30 9155 H 905.313 4.08288 -0.792089 0
M  V30 9156 H 903.89 3.59944 0.97442 0
M  V30 9157 N 906.075 0.2925 1.54862 0
M  V30 9158 C 907.315 -0.32024 2.01876 0
M  V30 9159 C 907.679 -1.5174 1.17639 0
M  V30 9160 O 908.88 -2.20094 1.54312 0
M  V30 9161 C 907.151 -0.67611 3.50947 0
M  V30 9162 S 908.71 -1.27292 4.19931 0
M  V30 9163 H 905.528 -0.0987374 0.704111 0
M  V30 9164 H 908.13 0.41839 1.90971 0
M  V30 9165 H 906.834 0.203797 4.09894 0
M  V30 9166 H 906.365 -1.44575 3.65871 0
M  V30 9167 H 908.38 -2.56102 4.25002 0
M  V30 9168 N 907.553 -1.57587 0.0200696 0
M  V30 9169 C 908.778 -1.96124 -0.674547 0
M  V30 9170 C 909.203 -0.896068 -1.65385 0
M  V30 9171 O 908.561 0.143925 -1.80728 0
M  V30 9172 C 908.609 -3.3376 -1.36517 0
M  V30 9173 O 907.713 -3.29483 -2.48022 0
M  V30 9174 H 907.054 -0.639719 -0.177919 0
M  V30 9175 H 909.584 -2.04447 0.0792317 0
M  V30 9176 H 909.594 -3.69785 -1.72403 0
M  V30 9177 H 908.269 -4.10832 -0.647265 0
M  V30 9178 H 906.846 -3.05162 -2.14314 0
M  V30 9179 N 909.032 0.252966 -1.55557 0
M  V30 9180 C 910.309 1.00432 -1.67847 0
M  V30 9181 C 910.689 2.03587 -0.55816 0
M  V30 9182 O 910.037 2.24239 0.439197 0
M  V30 9183 C 910.247 1.64313 -3.079 0
M  V30 9184 C 911.595 2.14726 -3.66303 0
M  V30 9185 O 912.619 1.74264 -3.10661 0
M  V30 9186 O 911.478 2.89 -4.63833 0
M  V30 9187 H 908.572 0.467102 -0.682455 0
M  V30 9188 H 911.118 0.247233 -1.67889 0
M  V30 9189 H 909.89 0.896681 -3.80888 0
M  V30 9190 H 909.513 2.46657 -3.11843 0
M  V30 9191 N 910.51 1.48831 0.518367 0
M  V30 9192 C 911.758 1.57128 1.27103 0
M  V30 9193 C 912.079 0.252098 1.93364 0
M  V30 9194 O 911.349 -0.727281 1.819 0
M  V30 9195 H 909.929 0.578891 0.472116 0
M  V30 9196 H 912.591 1.85361 0.602262 0
M  V30 9197 H 911.687 2.35838 2.04418 0
M  V30 9198 N 911.988 -0.768124 1.37614 0
M  V30 9199 C 913.404 -1.06919 1.18493 0
M  V30 9200 C 913.604 -2.01486 0.0235753 0
M  V30 9201 O 912.66 -2.4438 -0.635209 0
M  V30 9202 C 913.973 -1.66321 2.50515 0
M  V30 9203 C 915.521 -1.78562 2.57069 0
M  V30 9204 C 915.996 -2.41377 3.89231 0
M  V30 9205 N 917.487 -2.48824 3.90693 0
M  V30 9206 C 918.222 -2.98288 4.89706 0
M  V30 9207 N 917.718 -3.47897 5.99115 0
M  V30 9208 N 919.511 -2.97196 4.77107 0
M  V30 9209 H 911.662 -0.140286 2.11936 0
M  V30 9210 H 913.925 -0.124863 0.939741 0
M  V30 9211 H 913.631 -1.04303 3.35878 0
M  V30 9212 H 913.505 -2.65571 2.67866 0
M  V30 9213 H 915.892 -2.39712 1.72111 0
M  V30 9214 H 915.973 -0.780574 2.43599 0
M  V30 9215 H 915.617 -1.80866 4.74605 0
M  V30 9216 H 915.547 -3.42495 4.00006 0
M  V30 9217 H 918.038 -2.1372 3.1166 0
M  V30 9218 H 918.351 -3.84053 6.70614 0
M  V30 9219 H 916.696 -3.45993 6.02755 0
M  V30 9220 H 919.887 -2.57741 3.90752 0
M  V30 9221 H 920.06 -3.35434 5.54426 0
M  V30 9222 N 913.466 -1.22244 -0.994698 0
M  V30 9223 C 914.376 -1.00722 -2.11878 0
M  V30 9224 C 915.392 0.043919 -1.73945 0
M  V30 9225 O 916.568 -0.148411 -2.00852 0
M  V30 9226 C 913.633 -0.585723 -3.41717 0
M  V30 9227 C 912.694 -1.71027 -3.93762 0
M  V30 9228 C 911.927 -1.30879 -5.17403 0
M  V30 9229 O 912.15 -0.18681 -5.70094 0
M  V30 9230 O 911.084 -2.1246 -5.63156 0
M  V30 9231 H 914.91 -1.94894 -2.32916 0
M  V30 9232 H 912.495 -1.00822 -1.10251 0
M  V30 9233 H 914.377 -0.360935 -4.19851 0
M  V30 9234 H 913.052 0.327166 -3.22042 0
M  V30 9235 H 911.959 -1.98956 -3.16808 0
M  V30 9236 H 913.292 -2.60096 -4.17865 0
M  V30 9237 N 914.944 1.19125 -1.03184 0
M  V30 9238 C 916.184 1.90582 -0.738785 0
M  V30 9239 C 916.548 1.78004 0.719627 0
M  V30 9240 O 917.749 2.44084 1.12589 0
M  V30 9241 C 916.02 3.37319 -1.18114 0
M  V30 9242 S 917.579 4.26962 -1.01238 0
M  V30 9243 H 914.397 0.6582 -0.268875 0
M  V30 9244 H 916.999 1.43999 -1.32229 0
M  V30 9245 H 915.703 3.43999 -2.23814 0
M  V30 9246 H 915.234 3.88935 -0.591051 0
M  V30 9247 H 917.249 4.96143 0.0753558 0
M  V30 9248 N 916.422 0.810101 1.35185 0
M  V30 9249 C 917.352 0.237453 2.32289 0
M  V30 9250 C 918.333 -0.639032 1.5764 0
M  V30 9251 O 919.518 -0.568575 1.8569 0
M  V30 9252 C 916.648 -0.611964 3.41866 0
M  V30 9253 C 915.602 0.166318 4.27677 0
M  V30 9254 C 914.928 -0.805024 5.28605 0
M  V30 9255 C 916.228 1.36729 5.04086 0
M  V30 9256 H 917.922 1.04874 2.80432 0
M  V30 9257 H 915.468 0.505751 1.34826 0
M  V30 9258 H 917.421 -1.02267 4.08802 0
M  V30 9259 H 916.145 -1.45617 2.92341 0
M  V30 9260 H 914.804 0.558238 3.62325 0
M  V30 9261 H 914.452 -1.64483 4.75347 0
M  V30 9262 H 914.152 -0.288577 5.86891 0
M  V30 9263 H 915.676 -1.21386 5.98413 0
M  V30 9264 H 917.09 1.03128 5.63948 0
M  V30 9265 H 915.487 1.81848 5.71884 0
M  V30 9266 H 916.557 2.15214 4.34524 0
M  V30 9267 N 917.9 -1.47166 0.563914 0
M  V30 9268 C 919.14 -2.04351 0.0448121 0
M  V30 9269 C 919.504 -1.42808 -1.28336 0
M  V30 9270 O 920.705 -1.91079 -1.89056 0
M  V30 9271 C 918.976 -3.57378 -0.0395795 0
M  V30 9272 S 920.535 -4.35898 -0.503833 0
M  V30 9273 H 917.353 -0.710433 0.0283795 0
M  V30 9274 H 919.955 -1.80451 0.752166 0
M  V30 9275 H 918.659 -3.99693 0.931326 0
M  V30 9276 H 918.19 -3.85785 -0.770282 0
M  V30 9277 H 920.205 -4.63852 -1.76225 0
M  V30 9278 N 919.378 -0.300708 -1.54705 0
M  V30 9279 C 920.626 0.308044 -1.99739 0
M  V30 9280 C 920.947 1.54433 -1.19061 0
M  V30 9281 O 920.217 1.93794 -0.286507 0
M  V30 9282 H 918.797 0.116811 -0.73781 0
M  V30 9283 H 921.459 -0.41197 -1.90496 0
M  V30 9284 H 920.555 0.580287 -3.06658 0
M  V30 9285 N 920.856 1.57574 -0.0284266 0
M  V30 9286 C 921.819 2.09096 0.938691 0
M  V30 9287 C 922.819 1.00588 1.25454 0
M  V30 9288 O 924.009 1.2675 1.19499 0
M  V30 9289 C 921.141 2.55624 2.25542 0
M  V30 9290 H 922.334 2.95829 0.49248 0
M  V30 9291 H 919.887 1.5475 0.219594 0
M  V30 9292 H 920.622 1.72218 2.74793 0
M  V30 9293 H 920.407 3.34896 2.03929 0
M  V30 9294 H 921.897 2.95712 2.94863 0
M  V30 9295 N 922.334 -0.244713 1.55689 0
M  V30 9296 C 923.264 -1.30667 1.93516 0
M  V30 9297 C 924.245 -1.50094 0.800371 0
M  V30 9298 O 925.43 -1.62665 1.06083 0
M  V30 9299 C 922.56 -2.66101 2.23176 0
M  V30 9300 C 921.514 -2.61366 3.38927 0
M  V30 9301 C 920.84 -4.00616 3.54134 0
M  V30 9302 C 922.14 -2.18161 4.74555 0
M  V30 9303 H 923.834 -0.992546 2.82469 0
M  V30 9304 H 921.38 -0.476018 1.35905 0
M  V30 9305 H 923.333 -3.4053 2.48228 0
M  V30 9306 H 922.057 -2.99154 1.31051 0
M  V30 9307 H 920.716 -1.89395 3.13887 0
M  V30 9308 H 920.364 -4.30938 2.59426 0
M  V30 9309 H 920.064 -3.98335 4.31975 0
M  V30 9310 H 921.588 -4.76741 3.8151 0
M  V30 9311 H 923.002 -2.82323 4.98965 0
M  V30 9312 H 921.399 -2.26988 5.55515 0
M  V30 9313 H 922.469 -1.13333 4.7147 0
M  V30 9314 N 923.813 -1.49104 -0.510467 0
M  V30 9315 C 924.776 -1.64569 -1.59529 0
M  V30 9316 C 925.776 -0.517937 -1.5223 0
M  V30 9317 O 926.966 -0.784183 -1.55551 0
M  V30 9318 C 924.098 -1.6342 -2.99177 0
M  V30 9319 H 925.291 -2.61318 -1.4715 0
M  V30 9320 H 922.844 -1.37993 -0.734001 0
M  V30 9321 H 923.579 -0.68221 -3.17043 0
M  V30 9322 H 923.364 -2.45312 -3.05883 0
M  V30 9323 H 924.854 -1.77474 -3.78011 0
M  V30 9324 N 925.291 0.760815 -1.38019 0
M  V30 9325 C 926.516 1.55513 -1.37224 0
M  V30 9326 C 926.941 1.88062 0.037611 0
M  V30 9327 O 926.299 1.50042 1.0177 0
M  V30 9328 C 926.347 2.83539 -2.22796 0
M  V30 9329 O 925.451 3.78384 -1.64009 0
M  V30 9330 H 924.792 0.470642 -0.468393 0
M  V30 9331 H 927.322 0.940792 -1.81687 0
M  V30 9332 H 927.332 3.32535 -2.36399 0
M  V30 9333 H 926.007 2.59178 -3.25269 0
M  V30 9334 H 924.584 3.37063 -1.59508 0
M  V30 9335 N 926.769 1.22769 0.988202 0
M  V30 9336 C 927.999 1.07998 1.76125 0
M  V30 9337 C 928.407 -0.372062 1.85506 0
M  V30 9338 O 927.75 -1.26946 1.3278 0
M  V30 9339 C 927.812 1.6219 3.20834 0
M  V30 9340 C 927.476 3.1086 3.34986 0
M  V30 9341 C 928.473 4.08239 3.21927 0
M  V30 9342 C 926.158 3.50411 3.59886 0
M  V30 9343 C 928.152 5.43154 3.33561 0
M  V30 9344 C 925.839 4.85473 3.71159 0
M  V30 9345 C 926.837 5.81653 3.58006 0
M  V30 9346 O 926.525 7.14263 3.68895 0
M  V30 9347 H 926.257 0.378937 0.559806 0
M  V30 9348 H 928.811 1.62925 1.25078 0
M  V30 9349 H 927.041 1.01676 3.73094 0
M  V30 9350 H 928.73 1.43011 3.79872 0
M  V30 9351 H 929.496 3.79025 3.02597 0
M  V30 9352 H 925.375 2.76068 3.69198 0
M  V30 9353 H 928.919 6.18207 3.23211 0
M  V30 9354 H 924.816 5.14365 3.89998 0
M  V30 9355 H 925.584 7.21906 3.85739 0
M  V30 9356 N 928.247 -1.18576 1.03814 0
M  V30 9357 C 929.21 -2.2033 0.63146 0
M  V30 9358 C 930.21 -1.57787 -0.309816 0
M  V30 9359 O 931.4 -1.73938 -0.0955598 0
M  V30 9360 C 928.532 -3.40818 -0.0745963 0
M  V30 9361 H 929.725 -2.57824 1.53189 0
M  V30 9362 H 927.278 -1.32416 0.830398 0
M  V30 9363 H 928.013 -3.08853 -0.988947 0
M  V30 9364 H 927.798 -3.87453 0.6019 0
M  V30 9365 H 929.288 -4.16166 -0.345727 0
M  V30 9366 N 929.725 -0.817259 -1.34754 0
M  V30 9367 C 930.688 -0.240611 -2.27934 0
M  V30 9368 C 931.688 0.578219 -1.50044 0
M  V30 9369 O 932.878 0.395148 -1.69659 0
M  V30 9370 C 930.01 0.663318 -3.34384 0
M  V30 9371 H 931.203 -1.06257 -2.80445 0
M  V30 9372 H 928.756 -0.588697 -1.4479 0
M  V30 9373 H 929.491 1.50855 -2.87077 0
M  V30 9374 H 929.276 0.0777388 -3.92023 0
M  V30 9375 H 930.766 1.06076 -4.03903 0
M  V30 9376 N 931.203 1.46865 -0.571711 0
M  V30 9377 C 932.166 2.28658 0.157499 0
M  V30 9378 C 933.166 1.37773 0.829172 0
M  V30 9379 O 934.356 1.6026 0.682811 0
M  V30 9380 C 931.488 3.17859 1.23202 0
M  V30 9381 H 932.681 2.94603 -0.561171 0
M  V30 9382 H 930.234 1.52793 -0.329229 0
M  V30 9383 H 930.969 2.56637 1.98262 0
M  V30 9384 H 930.754 3.84762 0.755031 0
M  V30 9385 H 932.244 3.7945 1.74378 0
M  V30 9386 N 932.681 0.308908 1.54543 0
M  V30 9387 C 933.921 -0.298811 2.02204 0
M  V30 9388 C 934.285 -1.50484 1.19242 0
M  V30 9389 O 935.486 -2.18445 1.56637 0
M  V30 9390 C 933.757 -0.638849 3.51644 0
M  V30 9391 S 935.316 -1.22831 4.21258 0
M  V30 9392 H 932.134 -0.0912638 0.705118 0
M  V30 9393 H 934.736 0.438622 1.90516 0
M  V30 9394 H 933.44 0.24726 4.09654 0
M  V30 9395 H 932.971 -1.40687 3.67384 0
M  V30 9396 H 934.986 -2.51579 4.27694 0
M  V30 9397 N 934.159 -1.57557 0.0367827 0
M  V30 9398 C 935.122 -2.09591 -0.927589 0
M  V30 9399 C 936.122 -1.01252 -1.24919 0
M  V30 9400 O 937.312 -1.27382 -1.18825 0
M  V30 9401 C 934.444 -2.56816 -2.24184 0
M  V30 9402 H 935.637 -2.96086 -0.476784 0
M  V30 9403 H 933.19 -1.54864 -0.211385 0
M  V30 9404 H 933.925 -1.73673 -2.73876 0
M  V30 9405 H 933.71 -3.35973 -2.0215 0
M  V30 9406 H 935.2 -2.97271 -2.93291 0
M  V30 9407 N 935.637 0.236453 -1.55816 0
M  V30 9408 C 936.885 0.96111 -1.77784 0
M  V30 9409 C 937.206 1.85454 -0.602648 0
M  V30 9410 O 936.476 1.92157 0.381137 0
M  V30 9411 H 935.056 0.35787 -0.655697 0
M  V30 9412 H 937.718 0.251888 -1.93265 0
M  V30 9413 H 936.814 1.5767 -2.69345 0
M  V30 9414 N 937.115 1.49373 0.502552 0
M  V30 9415 C 938.531 1.36101 0.833591 0
M  V30 9416 C 938.731 0.392911 1.97632 0
M  V30 9417 O 937.787 -0.175975 2.51886 0
M  V30 9418 C 939.1 2.76782 1.17526 0
M  V30 9419 C 940.648 2.85471 1.28356 0
M  V30 9420 C 941.123 4.26915 1.65853 0
M  V30 9421 N 942.614 4.29719 1.72905 0
M  V30 9422 C 943.349 5.36127 2.0336 0
M  V30 9423 N 942.845 6.52782 2.32049 0
M  V30 9424 N 944.638 5.23542 2.04598 0
M  V30 9425 H 936.789 2.10912 -0.251008 0
M  V30 9426 H 939.052 0.946696 -0.0497037 0
M  V30 9427 H 938.758 3.49314 0.408965 0
M  V30 9428 H 938.632 3.1205 2.11907 0
M  V30 9429 H 941.019 2.13177 2.04058 0
M  V30 9430 H 941.1 2.53787 0.320304 0
M  V30 9431 H 940.744 4.99735 0.907022 0
M  V30 9432 H 940.674 4.56063 2.63276 0
M  V30 9433 H 943.165 3.45586 1.529 0
M  V30 9434 H 943.478 7.29701 2.54471 0
M  V30 9435 H 941.823 6.56011 2.29509 0
M  V30 9436 H 945.014 4.31413 1.8166 0
M  V30 9437 H 945.187 6.06565 2.27998 0
M  V30 9438 N 938.594 -0.753485 1.38421 0
M  V30 9439 C 939.842 -1.50962 1.34368 0
M  V30 9440 C 940.163 -1.94889 -0.0656895 0
M  V30 9441 O 939.433 -1.67652 -1.01339 0
M  V30 9442 H 938.013 -0.559967 0.494415 0
M  V30 9443 H 940.675 -0.895665 1.73101 0
M  V30 9444 H 939.771 -2.40048 1.99458 0
M  V30 9445 N 940.072 -1.23292 -0.981677 0
M  V30 9446 C 941.318 -1.06582 -1.72535 0
M  V30 9447 C 941.651 0.396538 -1.90108 0
M  V30 9448 O 940.926 1.29363 -1.45243 0
M  V30 9449 C 941.209 -1.7904 -3.12437 0
M  V30 9450 C 941.062 -3.32941 -3.02441 0
M  V30 9451 C 942.381 -1.55185 -4.11832 0
M  V30 9452 H 939.5 -0.388585 -0.626236 0
M  V30 9453 H 942.142 -1.51779 -1.14293 0
M  V30 9454 H 940.292 -1.40619 -3.62158 0
M  V30 9455 H 941.964 -3.80875 -2.60254 0
M  V30 9456 H 940.207 -3.62039 -2.38977 0
M  V30 9457 H 940.878 -3.78827 -4.0149 0
M  V30 9458 H 943.354 -1.88581 -3.70913 0
M  V30 9459 H 942.23 -2.08362 -5.07815 0
M  V30 9460 H 942.491 -0.486925 -4.3941 0
M  V30 9461 N 941.55 1.18024 -1.04442 0
M  V30 9462 C 942.966 1.40107 -0.76435 0
M  V30 9463 C 943.166 1.90914 0.644516 0
M  V30 9464 O 942.222 2.0959 1.40813 0
M  V30 9465 C 943.535 2.39851 -1.81361 0
M  V30 9466 C 945.083 2.53571 -1.83496 0
M  V30 9467 C 945.558 3.56583 -2.87424 0
M  V30 9468 N 947.049 3.64094 -2.86339 0
M  V30 9469 C 947.784 4.43537 -3.63405 0
M  V30 9470 N 947.28 5.26557 -4.50233 0
M  V30 9471 N 949.073 4.38336 -3.51877 0
M  V30 9472 H 941.224 0.833726 -1.95353 0
M  V30 9473 H 943.487 0.42881 -0.845474 0
M  V30 9474 H 943.193 2.09576 -2.82438 0
M  V30 9475 H 943.067 3.39251 -1.6489 0
M  V30 9476 H 945.454 2.83161 -0.830883 0
M  V30 9477 H 945.535 1.54272 -2.04044 0
M  V30 9478 H 945.179 3.27733 -3.88012 0
M  V30 9479 H 945.109 4.55569 -2.6413 0
M  V30 9480 H 947.6 3.04814 -2.23376 0
M  V30 9481 H 947.913 5.84336 -5.05738 0
M  V30 9482 H 946.258 5.25964 -4.54298 0
M  V30 9483 H 949.449 3.72528 -2.83444 0
M  V30 9484 H 949.622 5.00007 -4.12186 0
M  V30 9485 N 943.028 0.824394 1.34319 0
M  V30 9486 C 944.274 0.413779 1.98534 0
M  V30 9487 C 944.607 -1.02089 1.65201 0
M  V30 9488 O 943.882 -1.71129 0.924402 0
M  V30 9489 C 944.165 0.61801 3.54757 0
M  V30 9490 C 944.018 2.0989 3.97827 0
M  V30 9491 C 945.337 0.0549041 4.40066 0
M  V30 9492 H 942.456 0.151815 0.721194 0
M  V30 9493 H 945.098 1.03723 1.5919 0
M  V30 9494 H 943.248 0.0873107 3.88402 0
M  V30 9495 H 944.92 2.69335 3.74508 0
M  V30 9496 H 943.163 2.58881 3.48085 0
M  V30 9497 H 943.834 2.1926 5.06586 0
M  V30 9498 H 946.31 0.508348 4.12983 0
M  V30 9499 H 945.186 0.227595 5.48428 0
M  V30 9500 H 945.447 -1.04025 4.29687 0
M  V30 9501 N 944.506 -1.46559 0.579492 0
M  V30 9502 C 945.469 -2.28739 -0.145371 0
M  V30 9503 C 946.469 -1.38211 -0.821854 0
M  V30 9504 O 947.659 -1.6062 -0.674302 0
M  V30 9505 C 944.791 -3.18507 -1.21515 0
M  V30 9506 H 945.984 -2.94301 0.576786 0
M  V30 9507 H 943.537 -1.52616 0.337327 0
M  V30 9508 H 944.272 -2.57685 -1.96899 0
M  V30 9509 H 944.057 -3.85157 -0.734616 0
M  V30 9510 H 945.547 -3.80369 -1.72363 0
M  V30 9511 N 945.984 -0.3171 -1.54377 0
M  V30 9512 C 947.23 0.280631 -2.01455 0
M  V30 9513 C 947.585 1.50282 -1.20138 0
M  V30 9514 O 946.878 1.89634 -0.273785 0
M  V30 9515 C 947.072 0.672917 -3.51008 0
M  V30 9516 C 946.901 -0.509709 -4.46802 0
M  V30 9517 C 945.671 -1.00679 -4.95168 0
M  V30 9518 C 947.869 -1.35984 -4.95997 0
M  V30 9519 N 945.851 -2.1545 -5.74852 0
M  V30 9520 C 947.222 -2.35481 -5.73541 0
M  V30 9521 C 949.277 -1.38836 -4.78152 0
M  V30 9522 C 947.98 -3.37625 -6.35139 0
M  V30 9523 C 950.006 -2.39847 -5.40581 0
M  V30 9524 C 949.368 -3.38071 -6.1797 0
M  V30 9525 H 945.467 0.0667107 -0.779149 0
M  V30 9526 H 948.051 -0.450672 -1.89412 0
M  V30 9527 H 946.222 1.37336 -3.63309 0
M  V30 9528 H 947.954 1.25156 -3.84861 0
M  V30 9529 H 944.709 -0.579125 -4.70046 0
M  V30 9530 H 945.133 -2.73324 -6.19373 0
M  V30 9531 H 949.775 -0.642643 -4.17887 0
M  V30 9532 H 947.493 -4.13106 -6.94528 0
M  V30 9533 H 951.079 -2.42847 -5.28693 0
M  V30 9534 H 949.959 -4.14953 -6.6542 0
M  V30 9535 N 947.462 1.57535 -0.0451378 0
M  V30 9536 C 948.878 1.56533 0.311373 0
M  V30 9537 C 949.078 1.05225 1.71843 0
M  V30 9538 O 948.134 0.706144 2.42425 0
M  V30 9539 C 949.447 3.00349 0.145348 0
M  V30 9540 C 950.995 3.12248 0.216908 0
M  V30 9541 C 951.47 4.57931 0.0794834 0
M  V30 9542 N 952.961 4.63 0.135954 0
M  V30 9543 C 953.696 5.73375 0.0536426 0
M  V30 9544 N 953.192 6.92753 -0.0806725 0
M  V30 9545 N 954.985 5.61995 0.108789 0
M  V30 9546 H 947.136 1.89211 -0.965044 0
M  V30 9547 H 949.399 0.871068 -0.374091 0
M  V30 9548 H 949.105 3.41898 -0.824533 0
M  V30 9549 H 948.979 3.66086 0.908903 0
M  V30 9550 H 951.366 2.70601 1.17726 0
M  V30 9551 H 951.447 2.49201 -0.577299 0
M  V30 9552 H 951.091 5.00262 -0.877516 0
M  V30 9553 H 951.021 5.18977 0.892758 0
M  V30 9554 H 953.512 3.77142 0.23926 0
M  V30 9555 H 953.825 7.7268 -0.136351 0
M  V30 9556 H 952.17 6.94904 -0.115675 0
M  V30 9557 H 955.361 4.67619 0.212235 0
M  V30 9558 H 955.534 6.47987 0.0411822 0
M  V30 9559 N 948.94 -0.228186 1.55939 0
M  V30 9560 C 949.85 -1.30386 1.9503 0
M  V30 9561 C 950.866 -1.51645 0.853218 0
M  V30 9562 O 952.042 -1.64904 1.15623 0
M  V30 9563 C 949.107 -2.63489 2.25332 0
M  V30 9564 C 948.168 -2.5059 3.48573 0
M  V30 9565 C 947.401 -3.77345 3.7742 0
M  V30 9566 O 947.624 -4.80067 3.08045 0
M  V30 9567 O 946.558 -3.74855 4.70922 0
M  V30 9568 H 950.384 -1.0022 2.86687 0
M  V30 9569 H 947.969 -0.430503 1.43063 0
M  V30 9570 H 949.851 -3.4211 2.46046 0
M  V30 9571 H 948.526 -2.93349 1.3685 0
M  V30 9572 H 947.433 -1.70191 3.33145 0
M  V30 9573 H 948.766 -2.2567 4.37417 0
M  V30 9574 N 950.418 -1.49637 -0.494624 0
M  V30 9575 C 951.829 -1.52573 -1.07603 0
M  V30 9576 C 952.18 -0.315591 -1.93645 0
M  V30 9577 O 951.305 0.573966 -2.08649 0
M  V30 9578 C 951.9 -2.7648 -1.95817 0
M  V30 9579 C 950.459 -2.82173 -2.49109 0
M  V30 9580 C 949.606 -2.4657 -1.2688 0
M  V30 9581 H 952.557 -1.56242 -0.278251 0
M  V30 9582 H 952.578 -2.57003 -2.80588 0
M  V30 9583 H 952.09 -3.64538 -1.33167 0
M  V30 9584 H 950.191 -1.9841 -3.15379 0
M  V30 9585 H 950.304 -3.84501 -2.85825 0
M  V30 9586 H 948.668 -1.98489 -1.59607 0
M  V30 9587 H 949.451 -3.3691 -0.659281 0
M  V30 9588 N 951.896 0.746133 -1.38819 0
M  V30 9589 C 953.144 1.50247 -1.35167 0
M  V30 9590 C 953.465 1.94921 0.0553531 0
M  V30 9591 O 952.735 1.68187 1.00449 0
M  V30 9592 H 951.315 0.557337 -0.497377 0
M  V30 9593 H 953.977 0.886472 -1.73573 0
M  V30 9594 H 953.073 2.38986 -2.00728 0
M  V30 9595 N 953.375 1.23811 0.975125 0
M  V30 9596 C 954.791 1.0019 1.24234 0
M  V30 9597 C 954.991 -0.293811 1.99346 0
M  V30 9598 O 954.047 -1.01189 2.31337 0
M  V30 9599 C 955.36 2.21218 2.03674 0
M  V30 9600 C 956.908 2.25764 2.16793 0
M  V30 9601 C 957.383 3.46394 2.99626 0
M  V30 9602 N 958.874 3.46665 3.07209 0
M  V30 9603 C 959.609 4.3666 3.71639 0
M  V30 9604 N 959.105 5.36899 4.37849 0
M  V30 9605 N 960.898 4.2439 3.68578 0
M  V30 9606 H 953.049 2.07087 0.472076 0
M  V30 9607 H 955.312 0.90838 0.271201 0
M  V30 9608 H 955.018 3.15277 1.55862 0
M  V30 9609 H 954.892 2.22733 3.04417 0
M  V30 9610 H 957.279 1.32242 2.63811 0
M  V30 9611 H 957.36 2.28279 1.15422 0
M  V30 9612 H 957.004 4.40227 2.53304 0
M  V30 9613 H 956.934 3.41121 4.01178 0
M  V30 9614 H 959.425 2.74142 2.60105 0
M  V30 9615 H 959.738 6.01816 4.84807 0
M  V30 9616 H 958.083 5.40793 4.36541 0
M  V30 9617 H 961.274 3.4532 3.16025 0
M  V30 9618 H 961.447 4.94727 4.18508 0
M  V30 9619 N 954.853 -1.17469 1.05066 0
M  V30 9620 C 956.093 -1.89382 0.769012 0
M  V30 9621 C 956.457 -1.79126 -0.691217 0
M  V30 9622 O 957.658 -2.45845 -1.08692 0
M  V30 9623 C 955.929 -3.35397 1.23465 0
M  V30 9624 S 957.488 -4.25297 1.08018 0
M  V30 9625 H 954.306 -0.653839 0.279312 0
M  V30 9626 H 956.908 -1.41877 1.34503 0
M  V30 9627 H 955.612 -3.40395 2.29258 0
M  V30 9628 H 955.143 -3.87945 0.652853 0
M  V30 9629 H 957.158 -4.962 0.00358573 0
M  V30 9630 N 956.331 -0.831506 -1.3388 0
M  V30 9631 C 957.241 -0.261688 -2.33136 0
M  V30 9632 C 958.257 0.608429 -1.63016 0
M  V30 9633 O 959.433 0.514297 -1.94723 0
M  V30 9634 C 956.498 0.559957 -3.42148 0
M  V30 9635 C 955.559 -0.333569 -4.28002 0
M  V30 9636 C 954.792 0.448956 -5.31808 0
M  V30 9637 O 955.015 1.6814 -5.45055 0
M  V30 9638 O 953.949 -0.173197 -6.01651 0
M  V30 9639 H 957.775 -1.08343 -2.83717 0
M  V30 9640 H 955.36 -0.593849 -1.3709 0
M  V30 9641 H 957.242 1.02712 -4.08691 0
M  V30 9642 H 955.917 1.35888 -2.93796 0
M  V30 9643 H 954.824 -0.848416 -3.64352 0
M  V30 9644 H 956.157 -1.09707 -4.79818 0
M  V30 9645 N 957.809 1.4625 -0.587256 0
M  V30 9646 C 958.739 2.33132 0.131076 0
M  V30 9647 C 959.72 1.45619 0.879158 0
M  V30 9648 O 960.905 1.74428 0.853723 0
M  V30 9649 C 958.035 3.27975 1.14236 0
M  V30 9650 C 956.989 4.24965 0.508819 0
M  V30 9651 C 956.315 5.09349 1.62689 0
M  V30 9652 C 957.615 5.19322 -0.55694 0
M  V30 9653 H 959.309 2.93442 -0.594333 0
M  V30 9654 H 956.855 1.41106 -0.287263 0
M  V30 9655 H 958.808 3.87614 1.65328 0
M  V30 9656 H 957.532 2.65781 1.8981 0
M  V30 9657 H 956.191 3.66595 0.0189337 0
M  V30 9658 H 955.839 4.43537 2.37242 0
M  V30 9659 H 955.539 5.75036 1.20861 0
M  V30 9660 H 957.063 5.71852 2.14049 0
M  V30 9661 H 958.477 5.73151 -0.130903 0
M  V30 9662 H 956.874 5.93376 -0.895801 0
M  V30 9663 H 957.944 4.62979 -1.44148 0
M  V30 9664 N 959.287 0.325282 1.54207 0
M  V30 9665 C 960.235 -0.5554 2.25872 0
M  V30 9666 C 961.229 -1.11714 1.27344 0
M  V30 9667 O 962.435 -1.06498 1.45115 0
M  V30 9668 H 958.81 -0.19776 0.725531 0
M  V30 9669 H 960.781 0.0712858 2.98315 0
M  V30 9670 C 959.53 -1.70379 3.03095 0
M  V30 9671 H 958.853 -1.2808 3.78729 0
M  V30 9672 H 960.293 -2.29556 3.56483 0
M  V30 9673 C 958.752 -2.62242 2.11496 0
M  V30 9674 O 959.282 -3.64003 1.69895 0
M  V30 9675 N 957.488 -2.30515 1.7695 0
M  V30 9676 H 957.035 -1.47805 2.10978 0
M  V30 9677 H 956.993 -2.92241 1.15942 0
M  V30 9678 N 960.765 -1.57509 0.0534917 0
M  V30 9679 C 962.005 -1.94654 -0.623641 0
M  V30 9680 C 962.369 -0.93184 -1.67871 0
M  V30 9681 O 963.57 -1.19031 -2.41009 0
M  V30 9682 C 961.841 -3.36575 -1.20216 0
M  V30 9683 S 963.4 -3.95677 -1.89697 0
M  V30 9684 H 960.218 -0.680893 -0.20471 0
M  V30 9685 H 962.82 -1.95113 0.122982 0
M  V30 9686 H 961.524 -4.08223 -0.422177 0
M  V30 9687 H 961.055 -3.39617 -1.98555 0
M  V30 9688 H 963.07 -3.81092 -3.17779 0
M  V30 9689 N 962.243 0.219913 -1.56058 0
M  V30 9690 C 963.654 0.786766 -1.69313 0
M  V30 9691 C 964.005 1.84916 -0.655782 0
M  V30 9692 O 963.13 2.1554 0.192772 0
M  V30 9693 C 963.725 1.43387 -3.06962 0
M  V30 9694 C 962.284 1.94809 -3.22066 0
M  V30 9695 C 961.431 0.808863 -2.65241 0
M  V30 9696 H 964.382 -0.00476777 -1.58699 0
M  V30 9697 H 964.403 2.30272 -3.02911 0
M  V30 9698 H 963.915 0.660405 -3.8244 0
M  V30 9699 H 962.016 2.74952 -2.5146 0
M  V30 9700 H 962.129 2.12694 -4.293 0
M  V30 9701 H 960.493 1.21661 -2.23765 0
M  V30 9702 H 961.276 0.0480458 -3.43266 0
M  V30 9703 N 963.721 1.49897 0.486681 0
M  V30 9704 C 964.668 1.67619 1.58658 0
M  V30 9705 C 965.638 0.517537 1.57831 0
M  V30 9706 O 966.823 0.746272 1.756 0
M  V30 9707 C 963.963 1.762 2.96728 0
M  V30 9708 C 963.076 3.03465 3.07462 0
M  V30 9709 C 962.211 3.02937 4.36351 0
M  V30 9710 C 961.25 4.24721 4.4077 0
M  V30 9711 N 960.387 4.22021 5.61108 0
M  V30 9712 H 965.227 2.61528 1.42853 0
M  V30 9713 H 962.764 1.29657 0.694807 0
M  V30 9714 H 964.722 1.79156 3.76774 0
M  V30 9715 H 963.352 0.857452 3.11203 0
M  V30 9716 H 962.404 3.10054 2.20387 0
M  V30 9717 H 963.716 3.93454 3.06586 0
M  V30 9718 H 962.87 3.04536 5.24731 0
M  V30 9719 H 961.609 2.10751 4.39813 0
M  V30 9720 H 960.614 4.23352 3.5079 0
M  V30 9721 H 961.839 5.18116 4.39013 0
M  V30 9722 H 959.785 3.3268 5.65385 0
M  V30 9723 H 959.702 5.05761 5.61909 0
M  V30 9724 H 960.97 4.27743 6.51656 0
M  V30 9725 N 965.199 -0.738761 1.39212 0
M  V30 9726 C 966.447 -1.49529 1.35962 0
M  V30 9727 C 966.768 -1.94948 -0.0450152 0
M  V30 9728 O 966.038 -1.68717 -0.995552 0
M  V30 9729 H 964.618 -0.554692 0.500326 0
M  V30 9730 H 967.28 -0.877255 1.74041 0
M  V30 9731 H 966.376 -2.37919 2.01993 0
M  V30 9732 N 966.677 -1.24326 -0.968545 0
M  V30 9733 C 967.609 -0.992749 -2.06584 0
M  V30 9734 C 968.622 0.0374902 -1.62757 0
M  V30 9735 O 969.811 -0.199448 -1.77382 0
M  V30 9736 C 966.911 -0.476165 -3.35538 0
M  V30 9737 C 966.084 -1.56934 -4.08277 0
M  V30 9738 C 965.143 -1.05555 -5.15504 0
M  V30 9739 O 964.169 -1.74707 -5.41725 0
M  V30 9740 N 965.371 0.110465 -5.80395 0
M  V30 9741 H 968.136 -1.93752 -2.28649 0
M  V30 9742 H 965.697 -1.15344 -1.13611 0
M  V30 9743 H 967.689 -0.117223 -4.0453 0
M  V30 9744 H 966.259 0.374315 -3.10351 0
M  V30 9745 H 965.479 -2.10051 -3.33575 0
M  V30 9746 H 966.767 -2.30415 -4.53637 0
M  V30 9747 H 966.165 0.688614 -5.61493 0
M  V30 9748 H 964.722 0.41056 -6.50506 0
M  V30 9749 N 968.156 1.1691 -1.05688 0
M  V30 9750 C 969.402 1.8757 -0.771071 0
M  V30 9751 C 969.735 1.8113 0.700399 0
M  V30 9752 O 969.01 1.22273 1.5126 0
M  V30 9753 C 969.293 3.37392 -1.25851 0
M  V30 9754 C 969.146 3.52556 -2.79329 0
M  V30 9755 C 970.465 4.31585 -0.861512 0
M  V30 9756 H 967.584 0.681089 -0.281579 0
M  V30 9757 H 970.226 1.37453 -1.31174 0
M  V30 9758 H 968.376 3.80204 -0.798563 0
M  V30 9759 H 970.048 3.18725 -3.33485 0
M  V30 9760 H 968.291 2.94668 -3.1836 0
M  V30 9761 H 968.962 4.57748 -3.08498 0
M  V30 9762 H 971.438 3.96642 -1.25756 0
M  V30 9763 H 970.314 5.34939 -1.23012 0
M  V30 9764 H 970.575 4.4148 0.234089 0
M  V30 9765 N 969.634 0.838594 1.33437 0
M  V30 9766 C 970.864 0.446995 2.01707 0
M  V30 9767 C 971.272 -0.956335 1.63251 0
M  V30 9768 O 970.615 -1.63289 0.841566 0
M  V30 9769 C 970.677 0.487707 3.56176 0
M  V30 9770 C 970.341 1.8471 4.18009 0
M  V30 9771 C 971.338 2.81028 4.374 0
M  V30 9772 C 969.023 2.13987 4.54439 0
M  V30 9773 C 971.017 4.04785 4.92369 0
M  V30 9774 C 968.704 3.38 5.09116 0
M  V30 9775 C 969.702 4.33216 5.28027 0
M  V30 9776 O 969.39 5.55036 5.81541 0
M  V30 9777 H 969.122 0.175799 0.652741 0
M  V30 9778 H 971.676 1.13265 1.71348 0
M  V30 9779 H 969.906 -0.254719 3.8586 0
M  V30 9780 H 971.595 0.113971 4.0574 0
M  V30 9781 H 972.361 2.5971 4.09604 0
M  V30 9782 H 968.24 1.40668 4.39014 0
M  V30 9783 H 971.784 4.79114 5.07046 0
M  V30 9784 H 967.681 3.59175 5.36343 0
M  V30 9785 H 968.449 5.56772 5.99956 0
M  V30 9786 N 971.112 -1.45937 0.595003 0
M  V30 9787 C 972.042 -2.33198 -0.11871 0
M  V30 9788 C 973.023 -1.46083 -0.871423 0
M  V30 9789 O 974.208 -1.74879 -0.844461 0
M  V30 9790 C 971.338 -3.28576 -1.12495 0
M  V30 9791 C 970.292 -4.25229 -0.486275 0
M  V30 9792 C 969.618 -5.10204 -1.59986 0
M  V30 9793 C 970.918 -5.19019 0.584473 0
M  V30 9794 H 972.612 -2.93122 0.609886 0
M  V30 9795 H 970.158 -1.40951 0.294742 0
M  V30 9796 H 972.111 -3.88485 -1.6327 0
M  V30 9797 H 970.835 -2.66784 -1.88398 0
M  V30 9798 H 969.494 -3.666 0.000507962 0
M  V30 9799 H 969.142 -4.44789 -2.34886 0
M  V30 9800 H 968.842 -5.75669 -1.1781 0
M  V30 9801 H 970.366 -5.7298 -2.11014 0
M  V30 9802 H 971.78 -5.73073 0.161297 0
M  V30 9803 H 970.177 -5.92893 0.927256 0
M  V30 9804 H 971.247 -4.62208 1.46601 0
M  V30 9805 N 972.59 -0.333456 -1.54032 0
M  V30 9806 C 973.522 0.562174 -2.22199 0
M  V30 9807 C 974.535 1.07202 -1.22522 0
M  V30 9808 O 975.724 0.983897 -1.48935 0
M  V30 9809 C 972.824 1.78525 -2.88066 0
M  V30 9810 C 971.997 1.41242 -4.13968 0
M  V30 9811 C 971.056 2.49408 -4.63338 0
M  V30 9812 O 970.082 2.13138 -5.27789 0
M  V30 9813 N 971.284 3.805 -4.38406 0
M  V30 9814 H 974.049 -0.0215629 -2.99692 0
M  V30 9815 H 971.61 -0.157111 -1.61136 0
M  V30 9816 H 973.602 2.50298 -3.18014 0
M  V30 9817 H 972.172 2.2766 -2.14219 0
M  V30 9818 H 971.392 0.525887 -3.90676 0
M  V30 9819 H 972.68 1.13916 -4.95884 0
M  V30 9820 H 972.078 4.12761 -3.86839 0
M  V30 9821 H 970.635 4.48474 -4.72984 0
M  V30 9822 N 974.068 1.57479 -0.061844 0
M  V30 9823 C 975.308 1.94982 0.613309 0
M  V30 9824 C 975.672 0.940729 1.67375 0
M  V30 9825 O 976.873 1.20307 2.40374 0
M  V30 9826 C 975.144 3.37208 1.18429 0
M  V30 9827 S 976.703 3.96678 1.87596 0
M  V30 9828 H 973.521 0.681969 0.201096 0
M  V30 9829 H 976.123 1.95045 -0.133328 0
M  V30 9830 H 974.827 4.08441 0.400522 0
M  V30 9831 H 974.358 3.40665 1.96751 0
M  V30 9832 H 976.373 3.82772 3.15754 0
M  V30 9833 N 975.546 -0.211634 1.56173 0
M  V30 9834 C 976.794 -0.932704 1.7929 0
M  V30 9835 C 977.115 -1.84472 0.632076 0
M  V30 9836 O 976.385 -1.92739 -0.350519 0
M  V30 9837 H 974.965 -0.347393 0.661307 0
M  V30 9838 H 977.627 -0.22111 1.93642 0
M  V30 9839 H 976.723 -1.53365 2.71819 0
M  V30 9840 N 977.024 -1.50153 -0.478725 0
M  V30 9841 C 978.252 -1.64505 -1.25482 0
M  V30 9842 C 978.667 -0.325295 -1.85977 0
M  V30 9843 O 978.024 0.691885 -1.68876 0
M  V30 9844 C 978.075 -2.73052 -2.36906 0
M  V30 9845 O 977.796 -3.99911 -1.78894 0
M  V30 9846 C 979.297 -2.98309 -3.27912 0
M  V30 9847 H 976.517 -0.55318 -0.379781 0
M  V30 9848 H 979.061 -1.96329 -0.57229 0
M  V30 9849 H 977.216 -2.43944 -3.00949 0
M  V30 9850 H 977.63 -4.5988 -2.52211 0
M  V30 9851 H 979.104 -3.77942 -4.02323 0
M  V30 9852 H 979.581 -2.09082 -3.8624 0
M  V30 9853 H 980.187 -3.2892 -2.69614 0
M  V30 9854 N 978.502 0.731368 -1.39602 0
M  V30 9855 C 979.913 1.30981 -1.33045 0
M  V30 9856 C 980.264 1.962 0.00349918 0
M  V30 9857 O 979.389 1.96539 0.905615 0
M  V30 9858 C 979.984 2.3817 -2.40958 0
M  V30 9859 C 978.543 2.91678 -2.3791 0
M  V30 9860 C 977.69 1.65286 -2.22656 0
M  V30 9861 H 980.641 0.528615 -1.49637 0
M  V30 9862 H 980.662 3.18645 -2.07955 0
M  V30 9863 H 980.174 1.90673 -3.38032 0
M  V30 9864 H 978.275 3.43446 -1.44485 0
M  V30 9865 H 978.388 3.44545 -3.32904 0
M  V30 9866 H 976.752 1.89759 -1.69893 0
M  V30 9867 H 977.535 1.19836 -3.21705 0
M  V30 9868 N 979.98 1.24838 0.961938 0
M  V30 9869 C 981.22 1.10348 1.72054 0
M  V30 9870 C 981.584 -0.350775 1.88769 0
M  V30 9871 O 982.785 -0.617323 2.61615 0
M  V30 9872 C 981.056 1.82916 3.07045 0
M  V30 9873 S 982.615 1.84227 3.98253 0
M  V30 9874 H 979.433 0.394552 0.591481 0
M  V30 9875 H 982.035 1.58254 1.14786 0
M  V30 9876 H 980.739 2.87829 2.92545 0
M  V30 9877 H 980.27 1.35366 3.69377 0
M  V30 9878 H 982.285 0.914073 4.87708 0
M  V30 9879 N 981.458 -1.16348 1.06306 0
M  V30 9880 C 982.406 -2.22799 0.668087 0
M  V30 9881 C 983.4 -1.66426 -0.316051 0
M  V30 9882 O 984.606 -1.79089 -0.180902 0
M  V30 9883 H 980.981 -0.725487 0.19792 0
M  V30 9884 H 982.952 -2.53401 1.57577 0
M  V30 9885 C 981.701 -3.47628 0.0706797 0
M  V30 9886 H 981.024 -3.9132 0.819064 0
M  V30 9887 H 982.464 -4.23666 -0.16816 0
M  V30 9888 C 980.923 -3.15343 -1.18577 0
M  V30 9889 O 981.453 -3.31158 -2.27371 0
M  V30 9890 N 979.659 -2.69472 -1.08779 0
M  V30 9891 H 979.206 -2.56803 -0.202447 0
M  V30 9892 H 979.164 -2.48244 -1.92931 0
M  V30 9893 N 982.937 -0.845659 -1.3299 0
M  V30 9894 C 983.867 -0.298957 -2.31578 0
M  V30 9895 C 984.848 0.597012 -1.59279 0
M  V30 9896 O 986.033 0.519142 -1.87132 0
M  V30 9897 C 983.163 0.521109 -3.43368 0
M  V30 9898 C 982.117 -0.279651 -4.27085 0
M  V30 9899 C 981.443 0.664591 -5.30554 0
M  V30 9900 C 982.743 -1.50046 -5.00283 0
M  V30 9901 H 984.437 -1.12272 -2.77552 0
M  V30 9902 H 981.983 -0.54132 -1.33438 0
M  V30 9903 H 983.936 0.913921 -4.1137 0
M  V30 9904 H 982.66 1.37815 -2.96099 0
M  V30 9905 H 981.319 -0.654106 -3.60717 0
M  V30 9906 H 980.967 1.51822 -4.79541 0
M  V30 9907 H 980.667 0.132871 -5.8745 0
M  V30 9908 H 982.191 1.05477 -6.01421 0
M  V30 9909 H 983.605 -1.18044 -5.61016 0
M  V30 9910 H 982.002 -1.96946 -5.66862 0
M  V30 9911 H 983.072 -2.26659 -4.28665 0
M  V30 9912 N 984.415 1.45619 -0.602734 0
M  V30 9913 C 985.643 2.06647 -0.102253 0
M  V30 9914 C 986.058 1.4482 1.21131 0
M  V30 9915 O 985.415 0.560621 1.73676 0
M  V30 9916 C 985.466 3.61467 0.0490113 0
M  V30 9917 O 985.187 4.20985 -1.21257 0
M  V30 9918 C 986.688 4.39469 0.581517 0
M  V30 9919 H 983.908 0.667685 -0.0666155 0
M  V30 9920 H 986.452 1.86939 -0.829091 0
M  V30 9921 H 984.607 3.80534 0.726153 0
M  V30 9922 H 985.021 5.14103 -1.03915 0
M  V30 9923 H 986.495 5.48318 0.636462 0
M  V30 9924 H 986.972 4.0891 1.60277 0
M  V30 9925 H 987.578 4.25256 -0.061419 0
M  V30 9926 N 985.893 0.34162 1.53853 0
M  V30 9927 C 987.133 -0.255853 2.02792 0
M  V30 9928 C 987.497 -1.47921 1.22407 0
M  V30 9929 O 988.698 -2.15073 1.61236 0
M  V30 9930 C 986.969 -0.564117 3.5292 0
M  V30 9931 S 988.528 -1.13868 4.23768 0
M  V30 9932 H 985.346 -0.0762867 0.706896 0
M  V30 9933 H 987.948 0.478934 1.89543 0
M  V30 9934 H 986.652 0.334098 4.09038 0
M  V30 9935 H 986.183 -1.32862 3.70285 0
M  V30 9936 H 988.198 -2.42451 4.32934 0
M  V30 9937 N 987.371 -1.57444 0.0701946 0
M  V30 9938 C 988.787 -1.57009 -0.286431 0
M  V30 9939 C 988.987 -1.07946 -1.70147 0
M  V30 9940 O 988.043 -0.744622 -2.41271 0
M  V30 9941 C 989.356 -3.00542 -0.0975466 0
M  V30 9942 C 990.904 -3.12553 -0.167205 0
M  V30 9943 C 991.379 -4.58 -0.00662047 0
M  V30 9944 N 992.87 -4.63158 -0.0622778 0
M  V30 9945 C 993.605 -5.73388 0.0375831 0
M  V30 9946 N 993.101 -6.92537 0.190873 0
M  V30 9947 N 994.894 -5.62097 -0.0193672 0
M  V30 9948 H 987.045 -1.87651 0.995023 0
M  V30 9949 H 989.308 -0.865006 0.387902 0
M  V30 9950 H 989.014 -3.40543 0.878822 0
M  V30 9951 H 988.888 -3.67485 -0.850547 0
M  V30 9952 H 991.275 -2.72439 -1.13406 0
M  V30 9953 H 991.356 -2.48251 0.616871 0
M  V30 9954 H 991 -4.98803 0.956992 0
M  V30 9955 H 990.93 -5.20332 -0.810081 0
M  V30 9956 H 993.421 -3.77475 -0.179229 0
M  V30 9957 H 993.734 -7.72365 0.25926 0
M  V30 9958 H 992.079 -6.94632 0.226214 0
M  V30 9959 H 995.27 -4.67897 -0.137815 0
M  V30 9960 H 995.443 -6.4797 0.0619121 0
M  V30 9961 N 988.849 0.203349 -1.56283 0
M  V30 9962 C 990.074 0.945548 -1.84592 0
M  V30 9963 C 990.499 1.7641 -0.652772 0
M  V30 9964 O 989.857 1.76867 0.398468 0
M  V30 9965 C 989.905 1.82416 -3.11057 0
M  V30 9966 O 989.009 2.92191 -2.9103 0
M  V30 9967 H 988.35 0.266739 -0.608068 0
M  V30 9968 H 990.88 0.211158 -2.03507 0
M  V30 9969 H 990.89 2.23044 -3.41636 0
M  V30 9970 H 989.565 1.22267 -3.97522 0
M  V30 9971 H 988.142 2.55378 -2.71728 0
M  V30 9972 N 990.327 1.50405 0.470755 0
M  V30 9973 C 991.257 1.72222 1.57676 0
M  V30 9974 C 992.238 0.57121 1.60222 0
M  V30 9975 O 993.423 0.810381 1.76484 0
M  V30 9976 C 990.553 1.81666 2.95998 0
M  V30 9977 C 989.507 2.96857 3.08318 0
M  V30 9978 C 988.833 2.91445 4.4829 0
M  V30 9979 C 990.133 4.37361 2.85504 0
M  V30 9980 H 991.827 2.64825 1.39671 0
M  V30 9981 H 989.373 1.27438 0.67049 0
M  V30 9982 H 991.326 1.95514 3.73299 0
M  V30 9983 H 990.05 0.856856 3.1516 0
M  V30 9984 H 988.709 2.82661 2.33449 0
M  V30 9985 H 988.357 1.93309 4.64371 0
M  V30 9986 H 988.057 3.68776 4.57469 0
M  V30 9987 H 989.581 3.07341 5.27611 0
M  V30 9988 H 990.995 4.52081 3.52555 0
M  V30 9989 H 989.392 5.16145 3.06127 0
M  V30 9990 H 990.462 4.49708 1.81359 0
M  V30 9991 N 991.805 -0.723954 1.39988 0
M  V30 9992 C 993.03 -1.5182 1.41299 0
M  V30 9993 C 993.455 -1.88096 0.0122636 0
M  V30 9994 O 992.813 -1.52687 -0.977559 0
M  V30 9995 C 992.861 -2.77532 2.30235 0
M  V30 9996 O 991.965 -3.73903 1.73984 0
M  V30 9997 H 991.306 -0.458058 0.480707 0
M  V30 9998 H 993.836 -0.892291 1.84118 0
M  V30 9999 H 993.846 -3.2615 2.45132 0
M  V30 10000 H 992.521 -2.50462 3.32026 0
M  V30 10001 H 991.098 -3.32715 1.68389 0
M  V30 10002 N 993.283 -1.25346 -0.955304 0
M  V30 10003 C 994.513 -1.12629 -1.732 0
M  V30 10004 C 994.921 0.322748 -1.86427 0
M  V30 10005 O 994.264 1.23381 -1.36099 0
M  V30 10006 C 994.326 -1.7064 -3.16421 0
M  V30 10007 C 993.99 -3.19632 -3.26626 0
M  V30 10008 C 994.987 -4.1663 -3.10991 0
M  V30 10009 C 992.672 -3.59829 -3.50468 0
M  V30 10010 C 994.666 -5.51806 -3.19043 0
M  V30 10011 C 992.353 -4.95143 -3.58157 0
M  V30 10012 C 993.351 -5.90941 -3.42459 0
M  V30 10013 O 993.039 -7.23792 -3.49828 0
M  V30 10014 H 992.771 -0.393646 -0.549562 0
M  V30 10015 H 995.325 -1.66184 -1.20715 0
M  V30 10016 H 993.555 -1.11532 -3.70267 0
M  V30 10017 H 995.244 -1.53032 -3.75947 0
M  V30 10018 H 996.01 -3.86915 -2.92441 0
M  V30 10019 H 991.889 -2.8576 -3.61749 0
M  V30 10020 H 995.433 -6.26559 -3.06707 0
M  V30 10021 H 991.33 -5.24525 -3.76224 0
M  V30 10022 H 992.098 -7.31879 -3.66463 0
M  V30 10023 N 994.761 1.15782 -1.06922 0
M  V30 10024 C 996.172 1.68062 -0.813144 0
M  V30 10025 C 996.523 1.84681 0.662374 0
M  V30 10026 O 995.648 1.54696 1.51321 0
M  V30 10027 C 996.243 3.05273 -1.46949 0
M  V30 10028 C 994.802 3.54647 -1.26104 0
M  V30 10029 C 993.949 2.30477 -1.54194 0
M  V30 10030 H 996.9 1.00056 -1.23185 0
M  V30 10031 H 996.921 3.69986 -0.888308 0
M  V30 10032 H 996.433 2.93145 -2.54337 0
M  V30 10033 H 994.534 3.72024 -0.20718 0
M  V30 10034 H 994.647 4.36354 -1.97819 0
M  V30 10035 H 993.011 2.35803 -0.96276 0
M  V30 10036 H 993.794 2.2094 -2.62755 0
M  V30 10037 N 996.239 0.8527 1.3254 0
M  V30 10038 C 997.516 0.376491 1.91942 0
M  V30 10039 C 997.896 -1.13972 1.7769 0
M  V30 10040 O 997.244 -1.96047 1.17379 0
M  V30 10041 C 997.454 0.838694 3.38773 0
M  V30 10042 C 998.802 0.854736 4.15908 0
M  V30 10043 O 999.826 0.783203 3.47483 0
M  V30 10044 O 998.685 0.955207 5.38087 0
M  V30 10045 H 995.779 0.109412 0.81973 0
M  V30 10046 H 998.325 0.93947 1.41322 0
M  V30 10047 H 997.097 1.88179 3.43081 0
M  V30 10048 H 996.72 0.253055 3.96794 0
M  V30 10049 N 997.718 -1.45297 0.610449 0
M  V30 10050 C 998.628 -2.34349 -0.108475 0
M  V30 10051 C 999.644 -1.51409 -0.857397 0
M  V30 10052 O 1000.82 -1.84202 -0.814337 0
M  V30 10053 C 997.885 -3.29072 -1.09144 0
M  V30 10054 C 996.946 -4.27918 -0.344165 0
M  V30 10055 C 996.179 -5.18116 -1.28031 0
M  V30 10056 O 996.402 -5.11802 -2.51824 0
M  V30 10057 O 995.336 -5.96879 -0.775821 0
M  V30 10058 H 999.162 -2.97232 0.623421 0
M  V30 10059 H 996.747 -1.44728 0.3707 0
M  V30 10060 H 998.629 -3.87433 -1.65751 0
M  V30 10061 H 997.304 -2.68749 -1.80431 0
M  V30 10062 H 996.211 -3.73164 0.264437 0
M  V30 10063 H 997.544 -4.91104 0.328275 0
M  V30 10064 N 999.196 -0.349774 -1.5367 0
M  V30 10065 C 1000.11 0.512421 -2.28935 0
M  V30 10066 C 1001.12 1.1065 -1.34286 0
M  V30 10067 O 1002.3 1.12084 -1.67329 0
M  V30 10068 C 999.363 1.64449 -3.05217 0
M  V30 10069 C 998.424 1.07956 -4.15505 0
M  V30 10070 C 997.657 2.15768 -4.88139 0
M  V30 10071 O 997.88 3.366 -4.60496 0
M  V30 10072 O 996.814 1.79712 -5.74445 0
M  V30 10073 H 1000.64 -0.0996001 -3.03537 0
M  V30 10074 H 998.225 -0.114629 -1.4896 0
M  V30 10075 H 1000.11 2.30302 -3.52901 0
M  V30 10076 H 998.782 2.24221 -2.33467 0
M  V30 10077 H 997.689 0.385381 -3.7211 0
M  V30 10078 H 999.022 0.526621 -4.89375 0
M  V30 10079 N 1000.67 1.57404 -0.0785433 0
M  V30 10080 C 1001.91 1.95621 0.592595 0
M  V30 10081 C 1002.28 0.958429 1.66367 0
M  V30 10082 O 1003.48 1.2285 2.39084 0
M  V30 10083 C 1001.75 3.38445 1.14846 0
M  V30 10084 S 1003.31 3.98645 1.83378 0
M  V30 10085 H 1000.13 0.684063 0.193851 0
M  V30 10086 H 1002.73 1.94892 -0.154007 0
M  V30 10087 H 1001.43 4.08843 0.357179 0
M  V30 10088 H 1000.96 3.42733 1.93127 0
M  V30 10089 H 1002.98 3.86099 3.11676 0
M  V30 10090 N 1002.15 -0.195058 1.56388 0
M  V30 10091 C 1003.1 -1.26122 1.95438 0
M  V30 10092 C 1004.09 -1.47117 0.839818 0
M  V30 10093 O 1005.3 -1.47978 1.02482 0
M  V30 10094 H 1001.67 -0.423422 0.621464 0
M  V30 10095 H 1003.65 -0.904854 2.8435 0
M  V30 10096 C 1002.39 -2.59858 2.31017 0
M  V30 10097 H 1001.72 -2.44519 3.16308 0
M  V30 10098 H 1003.16 -3.33205 2.62203 0
M  V30 10099 C 1001.62 -3.16853 1.14481 0
M  V30 10100 O 1002.15 -3.995 0.419853 0
M  V30 10101 N 1000.35 -2.75599 0.921604 0
M  V30 10102 H 999.9 -2.08495 1.51287 0
M  V30 10103 H 999.858 -3.14072 0.143663 0
M  V30 10104 N 1003.63 -1.50653 -0.462772 0
M  V30 10105 C 1004.54 -1.72923 -1.58539 0
M  V30 10106 C 1005.56 -0.612577 -1.6286 0
M  V30 10107 O 1006.73 -0.891885 -1.80575 0
M  V30 10108 C 1003.8 -1.82623 -2.94703 0
M  V30 10109 C 1002.86 -3.06392 -3.00704 0
M  V30 10110 C 1002.09 -3.15618 -4.30373 0
M  V30 10111 O 1002.31 -2.31423 -5.21344 0
M  V30 10112 O 1001.25 -4.0841 -4.42136 0
M  V30 10113 H 1005.07 -2.68103 -1.42669 0
M  V30 10114 H 1002.66 -1.34848 -0.643144 0
M  V30 10115 H 1004.54 -1.91134 -3.7556 0
M  V30 10116 H 1003.22 -0.906275 -3.10754 0
M  V30 10117 H 1002.12 -3.03375 -2.18894 0
M  V30 10118 H 1003.46 -3.97992 -2.89591 0
M  V30 10119 N 1005.11 0.71652 -1.4037 0
M  V30 10120 C 1006.07 1.81231 -1.40313 0
M  V30 10121 C 1007.07 1.58032 -0.297087 0
M  V30 10122 O 1008.26 1.65091 -0.555944 0
M  V30 10123 C 1005.39 3.19308 -1.19395 0
M  V30 10124 H 1006.59 1.8268 -2.3784 0
M  V30 10125 H 1004.14 0.922062 -1.26205 0
M  V30 10126 H 1004.87 3.2351 -0.226252 0
M  V30 10127 H 1004.66 3.37546 -1.99512 0
M  V30 10128 H 1006.15 3.99339 -1.22141 0
M  V30 10129 N 1006.59 1.25851 0.948643 0
M  V30 10130 C 1007.83 1.12166 1.70874 0
M  V30 10131 C 1008.19 -0.330734 1.8913 0
M  V30 10132 O 1009.39 -0.58954 2.62255 0
M  V30 10133 C 1007.66 1.86162 3.05088 0
M  V30 10134 S 1009.22 1.88441 3.96277 0
M  V30 10135 H 1006.04 0.400803 0.587263 0
M  V30 10136 H 1008.64 1.59463 1.13101 0
M  V30 10137 H 1007.35 2.90916 2.89476 0
M  V30 10138 H 1006.88 1.39276 3.67921 0
M  V30 10139 H 1008.89 0.96575 4.86711 0
M  V30 10140 N 1008.06 -1.15214 1.07534 0
M  V30 10141 C 1008.99 -2.2216 0.718837 0
M  V30 10142 C 1009.98 -1.6753 -0.29459 0
M  V30 10143 O 1011.16 -1.93481 -0.166931 0
M  V30 10144 C 1008.29 -3.471 0.117836 0
M  V30 10145 C 1007.24 -4.14701 1.05862 0
M  V30 10146 C 1006.57 -5.3374 0.320284 0
M  V30 10147 C 1007.87 -4.64254 2.39302 0
M  V30 10148 H 1009.56 -2.52237 1.61297 0
M  V30 10149 H 1007.11 -1.21239 0.776992 0
M  V30 10150 H 1009.06 -4.21156 -0.143519 0
M  V30 10151 H 1007.79 -3.16361 -0.811389 0
M  V30 10152 H 1006.45 -3.42589 1.30493 0
M  V30 10153 H 1006.09 -4.99257 -0.61246 0
M  V30 10154 H 1005.79 -5.79912 0.947381 0
M  V30 10155 H 1007.32 -6.10563 0.0667721 0
M  V30 10156 H 1008.73 -5.29827 2.18988 0
M  V30 10157 H 1007.13 -5.21095 2.97623 0
M  V30 10158 H 1008.2 -3.79793 3.01472 0
M  V30 10159 N 1009.54 -0.859717 -1.32086 0
M  V30 10160 C 1010.45 -0.31108 -2.32528 0
M  V30 10161 C 1011.47 0.573714 -1.6427 0
M  V30 10162 O 1012.64 0.472878 -1.9577 0
M  V30 10163 C 1009.71 0.487256 -3.43259 0
M  V30 10164 C 1008.77 -0.424279 -4.27198 0
M  V30 10165 C 1008 0.336051 -5.32641 0
M  V30 10166 O 1008.23 1.56541 -5.48499 0
M  V30 10167 O 1007.16 -0.300777 -6.01148 0
M  V30 10168 H 1010.99 -1.14336 -2.81355 0
M  V30 10169 H 1008.57 -0.622794 -1.358 0
M  V30 10170 H 1010.45 0.940203 -4.10777 0
M  V30 10171 H 1009.13 1.29626 -2.96612 0
M  V30 10172 H 1008.04 -0.925509 -3.62471 0
M  V30 10173 H 1009.37 -1.1986 -4.77383 0
M  V30 10174 N 1011.02 1.44971 -0.618145 0
M  V30 10175 C 1012.27 2.0176 -0.11725 0
M  V30 10176 C 1012.59 1.48773 1.26062 0
M  V30 10177 O 1011.86 0.686152 1.83491 0
M  V30 10178 H 1010.44 0.745909 -0.0403545 0
M  V30 10179 H 1013.1 1.77638 -0.801923 0
M  V30 10180 H 1012.2 3.1201 -0.0750477 0
M  V30 10181 N 1012.5 0.357919 1.53482 0
M  V30 10182 C 1013.74 -0.23433 2.03052 0
M  V30 10183 C 1014.1 -1.46614 1.23969 0
M  V30 10184 O 1015.3 -2.13351 1.63508 0
M  V30 10185 C 1013.57 -0.526653 3.53498 0
M  V30 10186 S 1015.13 -1.09366 4.24952 0
M  V30 10187 H 1011.95 -0.0687848 0.707665 0
M  V30 10188 H 1014.55 0.499011 1.89024 0
M  V30 10189 H 1013.26 0.377463 4.0866 0
M  V30 10190 H 1012.79 -1.28927 3.71674 0
M  V30 10191 H 1014.8 -2.37845 4.35481 0
M  V30 10192 N 1013.98 -1.5736 0.0868897 0
M  V30 10193 C 1015.22 -1.94054 -0.578741 0
M  V30 10194 C 1015.55 -0.968047 -1.68698 0
M  V30 10195 O 1014.81 0.0137824 -1.95695 0
M  V30 10196 C 1015.11 -3.37316 -1.18123 0
M  V30 10197 C 1014.77 -4.50467 -0.197607 0
M  V30 10198 C 1013.43 -4.81145 0.072952 0
M  V30 10199 C 1015.79 -5.19036 0.474473 0
M  V30 10200 C 1013.11 -5.77723 1.02242 0
M  V30 10201 C 1015.47 -6.16632 1.41236 0
M  V30 10202 C 1014.13 -6.45719 1.69124 0
M  V30 10203 H 1013.4 -0.710093 -0.211776 0
M  V30 10204 H 1016.05 -1.90822 0.160978 0
M  V30 10205 H 1014.35 -3.37085 -1.99701 0
M  V30 10206 H 1016.05 -3.63003 -1.7038 0
M  V30 10207 H 1012.64 -4.2655 -0.418669 0
M  V30 10208 H 1016.82 -4.95518 0.278581 0
M  V30 10209 H 1012.08 -5.98578 1.24557 0
M  V30 10210 H 1016.25 -6.68862 1.939 0
M  V30 10211 H 1013.88 -7.20365 2.42855 0
M  V30 10212 N 1015.45 0.186762 -1.56489 0
M  V30 10213 C 1016.69 0.912523 -1.829 0
M  V30 10214 C 1017.06 1.80094 -0.665598 0
M  V30 10215 O 1018.26 2.56312 -0.809787 0
M  V30 10216 C 1016.53 1.70022 -3.14368 0
M  V30 10217 S 1018.09 2.47686 -3.62211 0
M  V30 10218 H 1014.91 0.305916 -0.641823 0
M  V30 10219 H 1017.51 0.175289 -1.94713 0
M  V30 10220 H 1016.21 1.03832 -3.97048 0
M  V30 10221 H 1015.74 2.47912 -3.05456 0
M  V30 10222 H 1017.76 3.72058 -3.28309 0
M  V30 10223 N 1016.93 1.50896 0.454776 0
M  V30 10224 C 1018.34 1.55372 1.0352 0
M  V30 10225 C 1018.69 0.366822 1.9274 0
M  V30 10226 O 1017.82 -0.518444 2.10098 0
M  V30 10227 C 1018.41 2.81574 1.88418 0
M  V30 10228 C 1016.97 2.88679 2.4154 0
M  V30 10229 C 1016.12 2.49847 1.20298 0
M  V30 10230 H 1019.07 1.56924 0.236729 0
M  V30 10231 H 1019.09 2.64352 2.73676 0
M  V30 10232 H 1018.6 3.67941 1.23455 0
M  V30 10233 H 1016.71 2.06702 3.10008 0
M  V30 10234 H 1016.82 3.91944 2.7553 0
M  V30 10235 H 1015.18 2.02651 1.54288 0
M  V30 10236 H 1015.97 3.3854 0.569723 0
M  V30 10237 N 1018.41 -0.709066 1.40748 0
M  V30 10238 C 1019.82 -1.28847 1.35112 0
M  V30 10239 C 1020.17 -1.9618 0.0277149 0
M  V30 10240 O 1019.3 -1.97955 -0.874233 0
M  V30 10241 C 1019.89 -2.34306 2.44716 0
M  V30 10242 C 1018.45 -2.87856 2.4252 0
M  V30 10243 C 1017.6 -1.61723 2.25257 0
M  V30 10244 H 1020.55 -0.504742 1.50459 0
M  V30 10245 H 1020.57 -3.15297 2.12998 0
M  V30 10246 H 1020.08 -1.85271 3.41022 0
M  V30 10247 H 1018.18 -3.41103 1.49931 0
M  V30 10248 H 1018.3 -3.39205 3.38344 0
M  V30 10249 H 1016.66 -1.87032 1.7289 0
M  V30 10250 H 1017.44 -1.14703 3.23571 0
M  V30 10251 N 1019.89 -1.26353 -0.941956 0
M  V30 10252 C 1021.14 -1.1163 -1.68473 0
M  V30 10253 C 1021.46 0.34108 -1.91994 0
M  V30 10254 O 1020.73 1.24065 -1.51607 0
M  V30 10255 H 1019.31 -0.410113 -0.624353 0
M  V30 10256 H 1021.97 -1.58669 -1.13182 0
M  V30 10257 H 1021.07 -1.63445 -2.6588 0
M  V30 10258 N 1021.37 1.14642 -1.08144 0
M  V30 10259 C 1022.3 2.21775 -0.730609 0
M  V30 10260 C 1023.28 1.67683 0.285702 0
M  V30 10261 O 1024.46 1.93567 0.156667 0
M  V30 10262 C 1021.59 3.47033 -0.136242 0
M  V30 10263 C 1020.55 4.14134 -1.0806 0
M  V30 10264 C 1019.87 5.33563 -0.348585 0
M  V30 10265 C 1021.17 4.62978 -2.41761 0
M  V30 10266 H 1022.87 2.51378 -1.62633 0
M  V30 10267 H 1020.41 1.20825 -0.783411 0
M  V30 10268 H 1022.37 4.21226 0.121182 0
M  V30 10269 H 1021.09 3.16786 0.7946 0
M  V30 10270 H 1019.75 3.41892 -1.32308 0
M  V30 10271 H 1019.4 4.99575 0.585974 0
M  V30 10272 H 1019.1 5.79402 -0.978122 0
M  V30 10273 H 1020.62 6.10519 -0.0991508 0
M  V30 10274 H 1022.04 5.28659 -2.21795 0
M  V30 10275 H 1020.43 5.1951 -3.00383 0
M  V30 10276 H 1021.5 3.78189 -3.03482 0
M  V30 10277 N 1022.85 0.866709 1.31628 0
M  V30 10278 C 1024.08 0.489679 2.00713 0
M  V30 10279 C 1024.48 -0.921492 1.65243 0
M  V30 10280 O 1023.83 -1.61467 0.876012 0
M  V30 10281 C 1023.89 0.563148 3.55062 0
M  V30 10282 C 1023.55 1.93535 4.13996 0
M  V30 10283 C 1024.55 2.90243 4.31341 0
M  V30 10284 C 1022.23 2.23578 4.49798 0
M  V30 10285 C 1024.23 4.15138 4.83673 0
M  V30 10286 C 1021.92 3.48723 5.01832 0
M  V30 10287 C 1022.91 4.44319 5.18719 0
M  V30 10288 O 1022.6 5.67247 5.69637 0
M  V30 10289 H 1022.33 0.189605 0.648865 0
M  V30 10290 H 1024.89 1.16874 1.68907 0
M  V30 10291 H 1023.12 -0.172815 3.86314 0
M  V30 10292 H 1024.81 0.200009 4.05407 0
M  V30 10293 H 1025.57 2.6834 4.04003 0
M  V30 10294 H 1021.45 1.49949 4.35932 0
M  V30 10295 H 1025 4.89762 4.96769 0
M  V30 10296 H 1020.89 3.70471 5.28603 0
M  V30 10297 H 1021.66 5.69372 5.88011 0
M  V30 10298 N 1024.32 -1.44642 0.625825 0
M  V30 10299 C 1025.26 -2.27821 -0.131481 0
M  V30 10300 C 1026.23 -1.38224 -0.856324 0
M  V30 10301 O 1027.42 -1.67662 -0.861493 0
M  V30 10302 C 1024.55 -3.1703 -1.19204 0
M  V30 10303 C 1023.59 -4.22697 -0.568315 0
M  V30 10304 S 1024.42 -5.3169 0.637612 0
M  V30 10305 C 1025.58 -6.24468 -0.423088 0
M  V30 10306 H 1025.81 -2.91703 0.574177 0
M  V30 10307 H 1023.35 -1.4875 0.413844 0
M  V30 10308 H 1025.3 -3.6898 -1.79901 0
M  V30 10309 H 1023.97 -2.52379 -1.86986 0
M  V30 10310 H 1023.16 -4.8511 -1.36689 0
M  V30 10311 H 1022.76 -3.73983 -0.0360843 0
M  V30 10312 H 1025.05 -6.64967 -1.29713 0
M  V30 10313 H 1026 -7.07907 0.165338 0
M  V30 10314 H 1026.4 -5.59541 -0.746606 0
M  V30 10315 N 1025.8 -0.366053 -1.5329 0
M  V30 10316 C 1027.08 0.279902 -1.93587 0
M  V30 10317 C 1027.46 1.66352 -1.29963 0
M  V30 10318 O 1026.81 2.23845 -0.458895 0
M  V30 10319 C 1027.02 0.329634 -3.4744 0
M  V30 10320 C 1028.36 0.569754 -4.2076 0
M  V30 10321 O 1029.39 0.410823 -3.53823 0
M  V30 10322 O 1028.25 0.879262 -5.3938 0
M  V30 10323 H 1025.34 0.16802 -0.809752 0
M  V30 10324 H 1027.89 -0.418871 -1.64449 0
M  V30 10325 H 1026.66 -0.640434 -3.86023 0
M  V30 10326 H 1026.28 1.07428 -3.82812 0
M  V30 10327 N 1027.28 1.57312 -0.0952337 0
M  V30 10328 C 1028.19 2.17556 0.877877 0
M  V30 10329 C 1029.21 1.14505 1.31014 0
M  V30 10330 O 1030.38 1.46876 1.37802 0
M  V30 10331 C 1027.45 2.74413 2.11892 0
M  V30 10332 C 1026.51 3.92419 1.74085 0
M  V30 10333 C 1025.74 4.46556 2.92273 0
M  V30 10334 O 1025.96 3.99631 4.07002 0
M  V30 10335 O 1024.9 5.37576 2.70732 0
M  V30 10336 H 1028.72 3.01116 0.395312 0
M  V30 10337 H 1026.31 1.48841 0.129123 0
M  V30 10338 H 1028.19 3.10754 2.84622 0
M  V30 10339 H 1026.87 1.93899 2.59201 0
M  V30 10340 H 1025.77 3.6089 0.985346 0
M  V30 10341 H 1027.11 4.74298 1.31539 0
M  V30 10342 N 1028.76 -0.17846 1.56586 0
M  V30 10343 C 1030.17 -0.529957 1.50544 0
M  V30 10344 C 1030.37 -1.85015 0.798237 0
M  V30 10345 O 1029.43 -2.49983 0.355639 0
M  V30 10346 C 1030.74 -0.569314 2.95261 0
M  V30 10347 C 1032.29 -0.657008 3.06027 0
M  V30 10348 C 1032.77 -0.727323 4.52188 0
M  V30 10349 N 1034.26 -0.790406 4.56406 0
M  V30 10350 C 1034.99 -0.865265 5.66834 0
M  V30 10351 N 1034.49 -0.901398 6.86911 0
M  V30 10352 N 1036.28 -0.903736 5.54787 0
M  V30 10353 H 1028.43 0.687304 2.00972 0
M  V30 10354 H 1030.69 0.246936 0.915274 0
M  V30 10355 H 1030.4 0.331934 3.5013 0
M  V30 10356 H 1030.27 -1.41828 3.4952 0
M  V30 10357 H 1032.66 -1.54868 2.51197 0
M  V30 10358 H 1032.74 0.218495 2.54865 0
M  V30 10359 H 1032.39 0.160067 5.07648 0
M  V30 10360 H 1032.32 -1.61887 5.01099 0
M  V30 10361 H 1034.81 -0.771054 3.6995 0
M  V30 10362 H 1035.12 -0.959494 7.6682 0
M  V30 10363 H 1033.47 -0.869795 6.89536 0
M  V30 10364 H 1036.66 -0.872459 4.59898 0
M  V30 10365 H 1036.83 -0.958615 6.4087 0
M  V30 10366 N 1030.24 -1.51135 -0.446768 0
M  V30 10367 C 1031.48 -1.63013 -1.19461 0
M  V30 10368 C 1031.8 -0.344067 -1.91941 0
M  V30 10369 O 1031.07 0.639666 -1.85162 0
M  V30 10370 H 1029.65 -0.600757 -0.443959 0
M  V30 10371 H 1032.32 -1.88024 -0.513137 0
M  V30 10372 H 1031.41 -2.45322 -1.92933 0
M  V30 10373 N 1031.71 0.701592 -1.41122 0
M  V30 10374 C 1032.99 1.45569 -1.30648 0
M  V30 10375 C 1033.37 2.10988 0.068744 0
M  V30 10376 O 1032.72 2.01228 1.08257 0
M  V30 10377 C 1032.93 2.48003 -2.45551 0
M  V30 10378 C 1034.28 3.13431 -2.86437 0
M  V30 10379 O 1035.3 2.58327 -2.45247 0
M  V30 10380 O 1034.16 4.13221 -3.57646 0
M  V30 10381 H 1031.25 0.648 -0.513834 0
M  V30 10382 H 1033.8 0.73258 -1.53073 0
M  V30 10383 H 1032.57 1.98276 -3.37346 0
M  V30 10384 H 1032.19 3.27832 -2.24971 0
M  V30 10385 N 1033.19 1.2685 0.935242 0
M  V30 10386 C 1034.43 1.13972 1.69675 0
M  V30 10387 C 1034.8 -0.310655 1.8947 0
M  V30 10388 O 1036 -0.561692 2.62866 0
M  V30 10389 C 1034.27 1.89387 3.03096 0
M  V30 10390 S 1035.83 1.92633 3.94256 0
M  V30 10391 H 1032.64 0.407009 0.582979 0
M  V30 10392 H 1035.25 1.60653 1.11404 0
M  V30 10393 H 1033.95 2.9397 2.86374 0
M  V30 10394 H 1033.48 1.43171 3.66423 0
M  V30 10395 H 1035.5 1.01732 4.85659 0
M  V30 10396 N 1034.67 -1.14067 1.0875 0
M  V30 10397 C 1035.92 -1.85459 0.82053 0
M  V30 10398 C 1036.25 -1.82923 -0.65213 0
M  V30 10399 O 1035.52 -1.26241 -1.47965 0
M  V30 10400 C 1035.81 -3.33937 1.34752 0
M  V30 10401 C 1035.66 -3.45026 2.88578 0
M  V30 10402 C 1036.98 -4.2915 0.975636 0
M  V30 10403 H 1034.1 -0.673384 0.299538 0
M  V30 10404 H 1036.74 -1.33927 1.34772 0
M  V30 10405 H 1034.89 -3.77953 0.899086 0
M  V30 10406 H 1036.56 -3.09771 3.41818 0
M  V30 10407 H 1034.81 -2.86124 3.26061 0
M  V30 10408 H 1035.48 -4.49408 3.20526 0
M  V30 10409 H 1037.95 -3.93168 1.36228 0
M  V30 10410 H 1036.83 -5.31489 1.37152 0
M  V30 10411 H 1037.09 -4.41945 -0.116956 0
M  V30 10412 N 1036.15 -0.873678 -1.31166 0
M  V30 10413 C 1037.56 -0.53852 -1.78765 0
M  V30 10414 C 1037.91 0.944765 -1.71955 0
M  V30 10415 O 1037.04 1.73781 -1.28954 0
M  V30 10416 C 1037.63 -0.970749 -3.24595 0
M  V30 10417 C 1036.19 -0.687189 -3.70074 0
M  V30 10418 C 1035.34 -1.16001 -2.51871 0
M  V30 10419 H 1038.29 -1.05903 -1.18196 0
M  V30 10420 H 1038.31 -0.294966 -3.79355 0
M  V30 10421 H 1037.82 -2.05034 -3.29519 0
M  V30 10422 H 1035.92 0.380881 -3.70648 0
M  V30 10423 H 1036.03 -1.26682 -4.62048 0
M  V30 10424 H 1034.4 -0.579663 -2.48016 0
M  V30 10425 H 1035.18 -2.2471 -2.59539 0
M  V30 10426 N 1037.63 1.44308 -0.633487 0
M  V30 10427 C 1038.57 2.30694 0.0700257 0
M  V30 10428 C 1039.54 1.43618 0.834447 0
M  V30 10429 O 1040.73 1.72517 0.815014 0
M  V30 10430 C 1037.87 3.28929 1.04403 0
M  V30 10431 C 1036.98 4.31106 0.277779 0
M  V30 10432 C 1036.12 5.16433 1.24381 0
M  V30 10433 C 1035.16 6.10317 0.466855 0
M  V30 10434 N 1034.29 6.88335 1.38347 0
M  V30 10435 H 1039.13 2.90311 -0.672567 0
M  V30 10436 H 1036.67 1.43034 -0.343449 0
M  V30 10437 H 1038.63 3.84373 1.62214 0
M  V30 10438 H 1037.26 2.71006 1.75372 0
M  V30 10439 H 1036.31 3.78115 -0.416292 0
M  V30 10440 H 1037.62 4.97725 -0.327251 0
M  V30 10441 H 1036.78 5.76406 1.89318 0
M  V30 10442 H 1035.51 4.49893 1.88276 0
M  V30 10443 H 1034.52 5.49451 -0.195989 0
M  V30 10444 H 1035.74 6.78894 -0.167414 0
M  V30 10445 H 1033.69 6.24461 2.00959 0
M  V30 10446 H 1033.61 7.51402 0.832517 0
M  V30 10447 H 1034.88 7.52829 2.0216 0
M  V30 10448 N 1039.1 0.374177 1.53094 0
M  V30 10449 C 1040.07 -0.455999 2.24618 0
M  V30 10450 C 1041.07 -1.00269 1.25709 0
M  V30 10451 O 1042.26 -0.887077 1.49922 0
M  V30 10452 C 1039.39 -1.63822 2.98957 0
M  V30 10453 H 1040.58 0.169986 2.99418 0
M  V30 10454 H 1038.14 0.126015 1.55791 0
M  V30 10455 H 1038.87 -2.30205 2.28421 0
M  V30 10456 H 1038.66 -1.25308 3.71538 0
M  V30 10457 H 1040.15 -2.22633 3.53305 0
M  V30 10458 N 1040.58 -1.57259 0.103575 0
M  V30 10459 C 1041.51 -2.1153 -0.882472 0
M  V30 10460 C 1042.53 -1.05446 -1.24036 0
M  V30 10461 O 1043.72 -1.32867 -1.192 0
M  V30 10462 C 1040.82 -2.58717 -2.18903 0
M  V30 10463 C 1039.99 -3.8873 -2.00519 0
M  V30 10464 C 1039.05 -4.21675 -3.14764 0
M  V30 10465 O 1038.07 -4.90755 -2.88355 0
M  V30 10466 N 1039.28 -3.77757 -4.40772 0
M  V30 10467 H 1042.04 -2.96758 -0.418901 0
M  V30 10468 H 1039.6 -1.61696 -0.0812921 0
M  V30 10469 H 1041.59 -2.77797 -2.94297 0
M  V30 10470 H 1040.16 -1.78454 -2.56657 0
M  V30 10471 H 1039.38 -3.78714 -1.09406 0
M  V30 10472 H 1040.67 -4.73771 -1.85522 0
M  V30 10473 H 1040.07 -3.22011 -4.65108 0
M  V30 10474 H 1038.63 -4.01975 -5.13088 0
M  V30 10475 N 1042.06 0.170153 -1.56679 0
M  V30 10476 C 1043.3 0.893073 -1.83857 0
M  V30 10477 C 1043.66 1.79378 -0.684661 0
M  V30 10478 O 1044.87 2.55439 -0.836926 0
M  V30 10479 C 1043.14 1.66679 -3.16153 0
M  V30 10480 S 1044.7 2.43831 -3.64818 0
M  V30 10481 H 1041.51 0.299091 -0.645031 0
M  V30 10482 H 1044.12 0.154628 -1.94888 0
M  V30 10483 H 1042.82 0.996152 -3.98127 0
M  V30 10484 H 1042.35 2.44658 -3.08068 0
M  V30 10485 H 1044.37 3.68555 -3.32237 0
M  V30 10486 N 1043.54 1.5137 0.438746 0
M  V30 10487 C 1044.95 1.56462 1.01866 0
M  V30 10488 C 1045.3 0.387244 1.9234 0
M  V30 10489 O 1044.43 -0.496131 2.10636 0
M  V30 10490 C 1045.02 2.83557 1.85421 0
M  V30 10491 C 1043.58 2.91224 2.38464 0
M  V30 10492 C 1042.73 2.51109 1.17641 0
M  V30 10493 H 1045.68 1.57167 0.220072 0
M  V30 10494 H 1045.7 2.6724 2.70857 0
M  V30 10495 H 1045.21 3.69229 1.19546 0
M  V30 10496 H 1043.31 2.09979 3.07798 0
M  V30 10497 H 1043.42 3.94844 2.71358 0
M  V30 10498 H 1041.79 2.04276 1.5213 0
M  V30 10499 H 1042.57 3.39125 0.533785 0
M  V30 10500 N 1045.02 -0.694098 1.41492 0
M  V30 10501 C 1046.26 -1.46637 1.42398 0
M  V30 10502 C 1046.62 -1.91973 0.0321256 0
M  V30 10503 O 1047.82 -2.68669 -0.0840324 0
M  V30 10504 C 1046.09 -2.64474 2.40392 0
M  V30 10505 S 1047.65 -3.53595 2.59838 0
M  V30 10506 H 1044.47 -0.501074 0.504427 0
M  V30 10507 H 1047.07 -0.809761 1.77941 0
M  V30 10508 H 1045.78 -2.29374 3.40317 0
M  V30 10509 H 1045.31 -3.35026 2.06206 0
M  V30 10510 H 1047.32 -4.59741 1.86689 0
M  V30 10511 N 1046.49 -1.27344 -0.928501 0
M  V30 10512 C 1047.72 -1.16278 -1.70772 0
M  V30 10513 C 1048.13 0.283131 -1.8707 0
M  V30 10514 O 1047.48 1.20466 -1.38685 0
M  V30 10515 C 1047.54 -1.77313 -3.1273 0
M  V30 10516 C 1047.2 -3.26488 -3.19773 0
M  V30 10517 C 1048.2 -4.23133 -3.02083 0
M  V30 10518 C 1045.88 -3.67182 -3.42757 0
M  V30 10519 C 1047.88 -5.5845 -3.07267 0
M  V30 10520 C 1045.56 -5.02629 -3.47574 0
M  V30 10521 C 1046.56 -5.98072 -3.29847 0
M  V30 10522 O 1046.25 -7.3105 -3.34397 0
M  V30 10523 H 1045.98 -0.405215 -0.541089 0
M  V30 10524 H 1048.54 -1.68707 -1.17163 0
M  V30 10525 H 1046.77 -1.19361 -3.67818 0
M  V30 10526 H 1048.46 -1.60972 -3.72616 0
M  V30 10527 H 1049.22 -3.93031 -2.84168 0
M  V30 10528 H 1045.1 -2.93369 -3.55606 0
M  V30 10529 H 1048.64 -6.32924 -2.93348 0
M  V30 10530 H 1044.54 -5.32387 -3.65013 0
M  V30 10531 H 1045.31 -7.39488 -3.50857 0
M  V30 10532 N 1047.97 1.13488 -1.09353 0
M  V30 10533 C 1049.2 1.88319 -0.849681 0
M  V30 10534 C 1049.61 1.79347 0.602616 0
M  V30 10535 O 1048.95 1.15744 1.4265 0
M  V30 10536 C 1049.02 3.38698 -1.20514 0
M  V30 10537 C 1048.68 3.71452 -2.66219 0
M  V30 10538 C 1049.68 3.70755 -3.64467 0
M  V30 10539 C 1047.36 4.01132 -3.02321 0
M  V30 10540 C 1049.36 3.9928 -4.96845 0
M  V30 10541 C 1047.04 4.29318 -4.3489 0
M  V30 10542 C 1048.04 4.28376 -5.31961 0
M  V30 10543 O 1047.73 4.55872 -6.62145 0
M  V30 10544 H 1047.46 0.603053 -0.305455 0
M  V30 10545 H 1050.01 1.44592 -1.45884 0
M  V30 10546 H 1048.24 3.82925 -0.539022 0
M  V30 10547 H 1049.93 3.94852 -0.940552 0
M  V30 10548 H 1050.7 3.47901 -3.3792 0
M  V30 10549 H 1046.58 4.01013 -2.27398 0
M  V30 10550 H 1050.12 3.9846 -5.72604 0
M  V30 10551 H 1046.02 4.51644 -4.61181 0
M  V30 10552 H 1046.79 4.73544 -6.67607 0
M  V30 10553 N 1049.45 0.880621 1.30701 0
M  V30 10554 C 1050.73 0.41712 1.91101 0
M  V30 10555 C 1051.11 -1.10177 1.80067 0
M  V30 10556 O 1050.46 -1.93513 1.21511 0
M  V30 10557 C 1050.67 0.910364 3.36917 0
M  V30 10558 C 1052.01 0.942764 4.14001 0
M  V30 10559 O 1053.04 0.856733 3.45743 0
M  V30 10560 O 1051.9 1.06913 5.3594 0
M  V30 10561 H 1048.99 0.126775 0.817225 0
M  V30 10562 H 1051.54 0.969236 1.39298 0
M  V30 10563 H 1050.31 1.95414 3.39012 0
M  V30 10564 H 1049.93 0.337164 3.96168 0
M  V30 10565 N 1050.93 -1.4397 0.641131 0
M  V30 10566 C 1052.18 -2.01548 0.149333 0
M  V30 10567 C 1052.5 -1.50759 -1.23679 0
M  V30 10568 O 1051.77 -0.715257 -1.82376 0
M  V30 10569 H 1050.35 -0.745173 0.0522161 0
M  V30 10570 H 1053.01 -1.7634 0.830082 0
M  V30 10571 H 1052.11 -3.11851 0.124676 0
M  V30 10572 N 1052.41 -0.382291 -1.52893 0
M  V30 10573 C 1053.32 0.463745 -2.29971 0
M  V30 10574 C 1054.33 1.07777 -1.36602 0
M  V30 10575 O 1055.51 1.0851 -1.69669 0
M  V30 10576 C 1052.57 1.57938 -3.08637 0
M  V30 10577 C 1051.64 0.991182 -4.17701 0
M  V30 10578 C 1050.87 2.05365 -4.92606 0
M  V30 10579 O 1051.09 3.26757 -4.67532 0
M  V30 10580 O 1050.03 1.67487 -5.78128 0
M  V30 10581 H 1053.85 -0.163962 -3.03257 0
M  V30 10582 H 1051.44 -0.146199 -1.48683 0
M  V30 10583 H 1053.32 2.22765 -3.57706 0
M  V30 10584 H 1051.99 2.19218 -2.3817 0
M  V30 10585 H 1050.9 0.306364 -3.72843 0
M  V30 10586 H 1052.23 0.422699 -4.90382 0
M  V30 10587 N 1053.89 1.57202 -0.111913 0
M  V30 10588 C 1055.13 1.94125 0.547573 0
M  V30 10589 C 1055.45 0.997026 1.68282 0
M  V30 10590 O 1056.65 1.26063 2.40459 0
M  V30 10591 C 1055.11 3.44982 1.02545 0
M  V30 10592 C 1054.72 4.47927 -0.0809529 0
M  V30 10593 C 1056.46 3.90837 1.65671 0
M  V30 10594 C 1054.37 5.89955 0.413224 0
M  V30 10595 H 1053.3 0.724651 0.208321 0
M  V30 10596 H 1055.95 1.82507 -0.190625 0
M  V30 10597 H 1054.33 3.5181 1.81785 0
M  V30 10598 H 1055.51 4.52761 -0.857003 0
M  V30 10599 H 1053.82 4.11782 -0.618434 0
M  V30 10600 H 1056.42 4.9436 2.03746 0
M  V30 10601 H 1056.76 3.30417 2.53239 0
M  V30 10602 H 1057.29 3.8678 0.929844 0
M  V30 10603 H 1054.03 6.54113 -0.426238 0
M  V30 10604 H 1053.55 5.88557 1.15591 0
M  V30 10605 H 1055.23 6.41032 0.876756 0
M  V30 10606 N 1055.36 -0.161842 1.56767 0
M  V30 10607 C 1056.61 -0.876925 1.82527 0
M  V30 10608 C 1056.94 -1.81831 0.690492 0
M  V30 10609 O 1056.19 -1.9304 -0.32159 0
M  V30 10610 C 1056.49 -1.69736 3.14522 0
M  V30 10611 C 1056.16 -0.904075 4.41743 0
M  V30 10612 C 1054.82 -0.685168 4.76297 0
M  V30 10613 C 1057.17 -0.348282 5.20035 0
M  V30 10614 C 1054.5 0.10048 5.86614 0
M  V30 10615 C 1056.85 0.424327 6.31175 0
M  V30 10616 C 1055.52 0.653948 6.64289 0
M  V30 10617 H 1054.79 -0.320889 0.667915 0
M  V30 10618 H 1057.43 -0.141338 1.90978 0
M  V30 10619 H 1055.74 -2.50262 3.01456 0
M  V30 10620 H 1057.44 -2.25386 3.31666 0
M  V30 10621 H 1054.03 -1.08474 4.14646 0
M  V30 10622 H 1058.21 -0.504721 4.93727 0
M  V30 10623 H 1053.47 0.288029 6.10721 0
M  V30 10624 H 1057.64 0.862203 6.91042 0
M  V30 10625 H 1055.27 1.26459 7.49608 0
M  V30 10626 N 1056.84 -1.516 -0.430713 0
M  V30 10627 C 1057.77 -1.69594 -1.54177 0
M  V30 10628 C 1058.79 -0.576518 -1.5225 0
M  V30 10629 O 1059.98 -0.85104 -1.56906 0
M  V30 10630 C 1057.08 -1.70148 -2.93092 0
M  V30 10631 C 1056.25 -2.98782 -3.1945 0
M  V30 10632 C 1055.31 -2.91435 -4.38123 0
M  V30 10633 O 1054.33 -3.65372 -4.36454 0
M  V30 10634 N 1055.54 -2.0774 -5.42056 0
M  V30 10635 H 1058.3 -2.65442 -1.39143 0
M  V30 10636 H 1055.86 -1.49569 -0.61974 0
M  V30 10637 H 1057.85 -1.62793 -3.70514 0
M  V30 10638 H 1056.42 -0.818667 -3.0169 0
M  V30 10639 H 1055.64 -3.19954 -2.30267 0
M  V30 10640 H 1056.93 -3.83919 -3.33892 0
M  V30 10641 H 1056.33 -1.47059 -5.46251 0
M  V30 10642 H 1054.89 -2.06259 -6.18305 0
M  V30 10643 N 1058.32 0.686584 -1.41858 0
M  V30 10644 C 1059.73 1.26682 -1.37145 0
M  V30 10645 C 1060.08 1.96112 -0.058922 0
M  V30 10646 O 1059.21 1.99321 0.842629 0
M  V30 10647 C 1059.8 2.30383 -2.48413 0
M  V30 10648 C 1058.36 2.83961 -2.47069 0
M  V30 10649 C 1057.51 1.58119 -2.27802 0
M  V30 10650 H 1060.46 0.480742 -1.51243 0
M  V30 10651 H 1060.48 3.11868 -2.17987 0
M  V30 10652 H 1059.99 1.79822 -3.43927 0
M  V30 10653 H 1058.09 3.38675 -1.55338 0
M  V30 10654 H 1058.21 3.3378 -3.43697 0
M  V30 10655 H 1056.57 1.84258 -1.75844 0
M  V30 10656 H 1057.35 1.09541 -3.25355 0
M  V30 10657 N 1059.8 1.27835 0.921735 0
M  V30 10658 C 1060.71 1.12904 2.05645 0
M  V30 10659 C 1061.72 0.0575704 1.73905 0
M  V30 10660 O 1062.9 0.265261 1.99645 0
M  V30 10661 C 1059.96 0.783957 3.3772 0
M  V30 10662 C 1059.03 1.93694 3.8312 0
M  V30 10663 C 1058.26 1.60823 5.08893 0
M  V30 10664 O 1058.48 0.518873 5.68035 0
M  V30 10665 O 1057.42 2.44932 5.49811 0
M  V30 10666 H 1061.24 2.08143 2.21157 0
M  V30 10667 H 1058.83 1.07078 1.04185 0
M  V30 10668 H 1060.71 0.605107 4.17033 0
M  V30 10669 H 1059.38 -0.138849 3.23402 0
M  V30 10670 H 1058.29 2.17089 3.04669 0
M  V30 10671 H 1059.62 2.84016 4.0199 0
M  V30 10672 N 1061.28 -1.12907 1.09954 0
M  V30 10673 C 1062.55 -1.80602 0.751148 0
M  V30 10674 C 1062.93 -1.96826 -0.763077 0
M  V30 10675 O 1062.28 -1.54066 -1.68749 0
M  V30 10676 C 1062.49 -3.15289 1.49646 0
M  V30 10677 C 1063.84 -3.9056 1.66578 0
M  V30 10678 O 1064.86 -3.24929 1.45943 0
M  V30 10679 O 1063.72 -5.08292 2.00752 0
M  V30 10680 H 1060.82 -0.781529 0.270446 0
M  V30 10681 H 1063.36 -1.19786 1.20206 0
M  V30 10682 H 1062.13 -2.9874 2.52725 0
M  V30 10683 H 1061.76 -3.83809 1.03808 0
M  V30 10684 N 1062.75 -0.88754 -1.30232 0
M  V30 10685 C 1064 -0.503322 -1.95319 0
M  V30 10686 C 1064.32 0.952817 -1.70824 0
M  V30 10687 O 1065.52 1.444 -2.29915 0
M  V30 10688 C 1063.98 -0.849216 -3.49738 0
M  V30 10689 C 1063.59 -2.3233 -3.83049 0
M  V30 10690 C 1065.33 -0.53432 -4.21124 0
M  V30 10691 C 1063.24 -2.61069 -5.30657 0
M  V30 10692 H 1062.17 -0.1845 -0.731078 0
M  V30 10693 H 1064.82 -1.08287 -1.48143 0
M  V30 10694 H 1063.2 -0.198729 -3.95501 0
M  V30 10695 H 1064.37 -3.01832 -3.48187 0
M  V30 10696 H 1062.69 -2.60599 -3.24773 0
M  V30 10697 H 1065.29 -0.726039 -5.29748 0
M  V30 10698 H 1065.63 0.526434 -4.12958 0
M  V30 10699 H 1066.16 -1.14211 -3.81052 0
M  V30 10700 H 1062.9 -3.65895 -5.43876 0
M  V30 10701 H 1062.42 -1.96179 -5.6681 0
M  V30 10702 H 1064.1 -2.46703 -5.98119 0
M  V30 10703 N 1064.23 1.43628 -0.648757 0
M  V30 10704 C 1065.48 2.01864 -0.160336 0
M  V30 10705 C 1065.81 1.51148 1.22412 0
M  V30 10706 O 1065.06 0.693168 1.83013 0
M  V30 10707 C 1065.36 3.57214 -0.115282 0
M  V30 10708 C 1065.03 4.27258 -1.44088 0
M  V30 10709 C 1063.69 4.46109 -1.8039 0
M  V30 10710 C 1066.04 4.66962 -2.31508 0
M  V30 10711 C 1063.37 5.01928 -3.03785 0
M  V30 10712 C 1065.72 5.24148 -3.54191 0
M  V30 10713 C 1064.39 5.41216 -3.90694 0
M  V30 10714 H 1063.66 0.738674 -0.0586712 0
M  V30 10715 H 1066.3 1.72163 -0.838578 0
M  V30 10716 H 1064.61 3.86431 0.646395 0
M  V30 10717 H 1066.3 4.00025 0.279425 0
M  V30 10718 H 1062.89 4.12928 -1.14842 0
M  V30 10719 H 1067.08 4.52095 -2.04753 0
M  V30 10720 H 1062.33 5.13328 -3.32122 0
M  V30 10721 H 1066.51 5.53861 -4.22151 0
M  V30 10722 H 1064.14 5.84234 -4.8639 0
M  V30 10723 N 1065.71 0.390394 1.52688 0
M  V30 10724 C 1066.94 -0.194013 2.06491 0
M  V30 10725 C 1067.36 -1.3965 1.26014 0
M  V30 10726 O 1066.72 -1.79038 0.285468 0
M  V30 10727 C 1066.77 -0.541306 3.56514 0
M  V30 10728 O 1065.87 -1.63509 3.78601 0
M  V30 10729 H 1065.21 -0.0223608 0.663623 0
M  V30 10730 H 1067.74 0.558179 1.96839 0
M  V30 10731 H 1067.75 -0.805301 3.99974 0
M  V30 10732 H 1066.43 0.337828 4.14526 0
M  V30 10733 H 1065 -1.36473 3.4703 0
M  V30 10734 N 1067.19 -1.57141 0.120249 0
M  V30 10735 C 1068.47 -1.8677 -0.581075 0
M  V30 10736 C 1068.85 -1.02163 -1.84732 0
M  V30 10737 O 1068.19 -0.100897 -2.28277 0
M  V30 10738 C 1068.4 -3.37923 -0.872316 0
M  V30 10739 C 1069.75 -4.0655 -1.22483 0
M  V30 10740 O 1070.78 -3.42948 -0.962539 0
M  V30 10741 O 1069.63 -5.18821 -1.71717 0
M  V30 10742 H 1066.73 -0.773219 -0.293362 0
M  V30 10743 H 1069.27 -1.68992 0.154846 0
M  V30 10744 H 1068.05 -3.91292 0.0249416 0
M  V30 10745 H 1067.67 -3.61135 -1.66335 0
M  V30 10746 N 1068.67 0.153526 -1.5685 0
M  V30 10747 C 1069.62 1.19478 -1.94188 0
M  V30 10748 C 1070.6 1.38889 -0.812329 0
M  V30 10749 O 1071.79 1.4056 -1.07572 0
M  V30 10750 C 1068.92 2.53 -2.32047 0
M  V30 10751 C 1068.01 2.37209 -3.51557 0
M  V30 10752 N 1068.4 1.91162 -4.68285 0
M  V30 10753 C 1066.7 2.67981 -3.56514 0
M  V30 10754 C 1067.4 1.88259 -5.50394 0
M  V30 10755 N 1066.37 2.31329 -4.91923 0
M  V30 10756 H 1070.18 0.830748 -2.81915 0
M  V30 10757 H 1067.69 0.361643 -1.58322 0
M  V30 10758 H 1069.69 3.28264 -2.56998 0
M  V30 10759 H 1068.35 2.90191 -1.45669 0
M  V30 10760 H 1069.36 1.61227 -4.92165 0
M  V30 10761 H 1066.03 3.0909 -2.80659 0
M  V30 10762 H 1067.42 1.54205 -6.53965 0
M  V30 10763 N 1070.14 1.51827 0.422667 0
M  V30 10764 C 1071.09 1.7058 1.51282 0
M  V30 10765 C 1072.08 0.5597 1.50851 0
M  V30 10766 O 1073.27 0.816223 1.57057 0
M  V30 10767 C 1070.4 1.84759 2.89342 0
M  V30 10768 C 1069.49 3.05199 2.94473 0
M  V30 10769 N 1069.88 4.28135 2.69322 0
M  V30 10770 C 1068.17 3.04755 3.25638 0
M  V30 10771 C 1068.88 5.09507 2.80674 0
M  V30 10772 N 1067.85 4.44464 3.12974 0
M  V30 10773 H 1071.65 2.63283 1.30611 0
M  V30 10774 H 1069.17 1.49674 0.630191 0
M  V30 10775 H 1071.16 1.96308 3.67789 0
M  V30 10776 H 1069.82 0.932478 3.11022 0
M  V30 10777 H 1070.84 4.56835 2.43972 0
M  V30 10778 H 1067.51 2.2293 3.52999 0
M  V30 10779 H 1068.9 6.17409 2.65058 0
M  V30 10780 N 1071.62 -0.679052 1.4222 0
M  V30 10781 C 1072.85 -1.46747 1.45852 0
M  V30 10782 C 1073.27 -1.88675 0.0685937 0
M  V30 10783 O 1072.62 -1.57861 -0.915757 0
M  V30 10784 C 1072.67 -2.71935 2.38188 0
M  V30 10785 O 1072.39 -2.31768 3.71773 0
M  V30 10786 C 1073.9 -3.65536 2.50796 0
M  V30 10787 H 1071.12 -0.451682 0.49621 0
M  V30 10788 H 1073.66 -0.834723 1.86689 0
M  V30 10789 H 1071.81 -3.31409 2.00616 0
M  V30 10790 H 1072.23 -3.12579 4.21182 0
M  V30 10791 H 1073.7 -4.50113 3.19535 0
M  V30 10792 H 1074.18 -4.11148 1.54447 0
M  V30 10793 H 1074.79 -3.11957 2.89072 0
M  V30 10794 N 1073.1 -1.28322 -0.914942 0
M  V30 10795 C 1074.03 -1.06469 -2.01841 0
M  V30 10796 C 1075.01 0.0188681 -1.62589 0
M  V30 10797 O 1076.2 -0.128825 -1.88059 0
M  V30 10798 C 1073.32 -0.617685 -3.3302 0
M  V30 10799 C 1072.37 -1.6977 -3.91255 0
M  V30 10800 S 1073.2 -3.29337 -4.22253 0
M  V30 10801 C 1074.36 -2.86468 -5.56495 0
M  V30 10802 H 1074.59 -1.99893 -2.20068 0
M  V30 10803 H 1072.12 -1.12297 -1.05966 0
M  V30 10804 H 1074.08 -0.366481 -4.08861 0
M  V30 10805 H 1072.74 0.296709 -3.12695 0
M  V30 10806 H 1071.94 -1.33653 -4.85956 0
M  V30 10807 H 1071.54 -1.90164 -3.22046 0
M  V30 10808 H 1073.83 -2.32565 -6.36333 0
M  V30 10809 H 1074.77 -3.79962 -5.97523 0
M  V30 10810 H 1075.18 -2.2522 -5.17626 0
M  V30 10811 N 1074.58 1.12322 -1.10551 0
M  V30 10812 C 1075.82 1.85497 -0.858492 0
M  V30 10813 C 1076.18 1.8222 0.604966 0
M  V30 10814 O 1077.38 2.5075 0.968382 0
M  V30 10815 C 1075.65 3.29124 -1.39327 0
M  V30 10816 S 1077.21 4.19659 -1.28186 0
M  V30 10817 H 1074.03 0.639768 -0.31019 0
M  V30 10818 H 1076.63 1.35298 -1.41119 0
M  V30 10819 H 1075.34 3.29069 -2.45238 0
M  V30 10820 H 1074.87 3.84388 -0.837203 0
M  V30 10821 H 1076.88 4.95618 -0.240325 0
M  V30 10822 N 1076.06 0.894434 1.2976 0
M  V30 10823 C 1077.29 0.532143 1.99629 0
M  V30 10824 C 1077.69 -0.886234 1.6716 0
M  V30 10825 O 1077.04 -1.59573 0.910065 0
M  V30 10826 C 1077.1 0.638335 3.53787 0
M  V30 10827 C 1076.76 2.02273 4.09798 0
M  V30 10828 C 1077.76 2.99327 4.25087 0
M  V30 10829 C 1075.45 2.33069 4.44954 0
M  V30 10830 C 1077.44 4.25304 4.74758 0
M  V30 10831 C 1075.13 3.59289 4.94322 0
M  V30 10832 C 1076.12 4.55222 5.09178 0
M  V30 10833 O 1075.81 5.79202 5.57477 0
M  V30 10834 H 1075.54 0.203326 0.644697 0
M  V30 10835 H 1078.1 1.2043 1.6639 0
M  V30 10836 H 1076.33 -0.0908338 3.86593 0
M  V30 10837 H 1078.02 0.285956 4.04891 0
M  V30 10838 H 1078.78 2.76849 3.9822 0
M  V30 10839 H 1074.66 1.59162 4.32653 0
M  V30 10840 H 1078.21 5.00189 4.86269 0
M  V30 10841 H 1074.1 3.816 5.20626 0
M  V30 10842 H 1074.87 5.81717 5.75802 0
M  V30 10843 N 1077.53 -1.43282 0.656365 0
M  V30 10844 C 1078.77 -2.03652 0.174681 0
M  V30 10845 C 1079.14 -1.5068 -1.18994 0
M  V30 10846 O 1080.34 -2.02716 -1.76521 0
M  V30 10847 C 1078.61 -3.56906 0.18778 0
M  V30 10848 S 1080.17 -4.3822 -0.225599 0
M  V30 10849 H 1076.99 -0.70719 0.0735029 0
M  V30 10850 H 1079.59 -1.75303 0.865403 0
M  V30 10851 H 1078.29 -3.92961 1.18363 0
M  V30 10852 H 1077.82 -3.89903 -0.523378 0
M  V30 10853 H 1079.84 -4.74121 -1.46369 0
M  V30 10854 N 1079.01 -0.398486 -1.52479 0
M  V30 10855 C 1079.92 0.439328 -2.3045 0
M  V30 10856 C 1080.94 1.06322 -1.37738 0
M  V30 10857 O 1082.12 1.06704 -1.7081 0
M  V30 10858 C 1079.18 1.54655 -3.10294 0
M  V30 10859 C 1078.24 0.946824 -4.18729 0
M  V30 10860 C 1077.47 2.00129 -4.94757 0
M  V30 10861 O 1077.7 3.2178 -4.70971 0
M  V30 10862 O 1076.63 1.61345 -5.79872 0
M  V30 10863 H 1080.46 -0.196118 -3.03066 0
M  V30 10864 H 1078.04 -0.161961 -1.4852 0
M  V30 10865 H 1079.92 2.18958 -3.60049 0
M  V30 10866 H 1078.6 2.1668 -2.40482 0
M  V30 10867 H 1077.51 0.266802 -3.73147 0
M  V30 10868 H 1078.84 0.370664 -4.90802 0
M  V30 10869 N 1080.49 1.57075 -0.12858 0
M  V30 10870 C 1081.77 1.87075 0.571162 0
M  V30 10871 C 1082.15 1.03141 1.84188 0
M  V30 10872 O 1081.5 0.113001 2.2822 0
M  V30 10873 C 1081.71 3.3838 0.854383 0
M  V30 10874 C 1083.05 4.07194 1.20326 0
M  V30 10875 O 1084.08 3.43454 0.944338 0
M  V30 10876 O 1082.94 5.19725 1.68963 0
M  V30 10877 H 1080.03 0.774764 0.289258 0
M  V30 10878 H 1082.58 1.68908 -0.163806 0
M  V30 10879 H 1081.35 3.91273 -0.0456925 0
M  V30 10880 H 1080.97 3.62012 1.64418 0
M  V30 10881 N 1081.97 -0.145205 1.5693 0
M  V30 10882 C 1083.22 -0.855822 1.83085 0
M  V30 10883 C 1083.54 -1.81625 0.709747 0
M  V30 10884 O 1082.81 -1.94052 -0.268456 0
M  V30 10885 H 1081.39 -0.319032 0.675446 0
M  V30 10886 H 1084.05 -0.138781 1.94405 0
M  V30 10887 H 1083.15 -1.41698 2.78079 0
M  V30 10888 N 1083.45 -1.52049 -0.414609 0
M  V30 10889 C 1084.69 -1.65838 -1.16206 0
M  V30 10890 C 1085.02 -0.385623 -1.90639 0
M  V30 10891 O 1084.28 0.631214 -1.85241 0
M  V30 10892 C 1084.58 -2.82735 -2.18622 0
M  V30 10893 C 1084.24 -4.21163 -1.61037 0
M  V30 10894 C 1082.9 -4.58816 -1.45056 0
M  V30 10895 C 1085.26 -5.0745 -1.18928 0
M  V30 10896 C 1082.58 -5.8044 -0.854761 0
M  V30 10897 C 1084.94 -6.29674 -0.607686 0
M  V30 10898 C 1083.6 -6.66081 -0.434968 0
M  V30 10899 H 1082.87 -0.606845 -0.425229 0
M  V30 10900 H 1085.52 -1.86137 -0.450009 0
M  V30 10901 H 1083.82 -2.56749 -2.95952 0
M  V30 10902 H 1085.52 -2.90601 -2.76319 0
M  V30 10903 H 1082.11 -3.91488 -1.74457 0
M  V30 10904 H 1086.29 -4.78948 -1.30086 0
M  V30 10905 H 1081.55 -6.07276 -0.70891 0
M  V30 10906 H 1085.72 -6.95865 -0.272988 0
M  V30 10907 H 1083.35 -7.60195 0.0288116 0
M  V30 10908 N 1084.93 0.6715 -1.42579 0
M  V30 10909 C 1085.86 1.79625 -1.40749 0
M  V30 10910 C 1086.84 1.6032 -0.271312 0
M  V30 10911 O 1088.02 1.82749 -0.46205 0
M  V30 10912 C 1085.15 3.16672 -1.20153 0
M  V30 10913 C 1084.19 3.54718 -2.36807 0
M  V30 10914 S 1085.03 3.56771 -3.99343 0
M  V30 10915 C 1086.18 4.96505 -3.81095 0
M  V30 10916 H 1086.42 1.80903 -2.35926 0
M  V30 10917 H 1083.95 0.842469 -1.2939 0
M  V30 10918 H 1085.91 3.95776 -1.08956 0
M  V30 10919 H 1084.57 3.12976 -0.265545 0
M  V30 10920 H 1083.76 4.54341 -2.18152 0
M  V30 10921 H 1083.36 2.82982 -2.44535 0
M  V30 10922 H 1085.65 5.84674 -3.4229 0
M  V30 10923 H 1086.6 5.20207 -4.80406 0
M  V30 10924 H 1087.01 4.69178 -3.13898 0
M  V30 10925 N 1086.4 1.28806 0.908124 0
M  V30 10926 C 1087.35 1.09849 1.99793 0
M  V30 10927 C 1088.34 0.0204321 1.60887 0
M  V30 10928 O 1089.53 0.241204 1.75349 0
M  V30 10929 C 1086.66 0.768263 3.34593 0
M  V30 10930 C 1085.74 1.88544 3.79884 0
M  V30 10931 N 1086.14 3.12784 3.97492 0
M  V30 10932 C 1084.43 1.77657 4.09089 0
M  V30 10933 C 1085.13 3.85615 4.35518 0
M  V30 10934 N 1084.11 3.13501 4.44092 0
M  V30 10935 H 1087.91 2.04108 2.11464 0
M  V30 10936 H 1085.43 1.19807 1.09636 0
M  V30 10937 H 1087.42 0.613521 4.12361 0
M  V30 10938 H 1086.08 -0.166501 3.24273 0
M  V30 10939 H 1087.09 3.48333 3.83255 0
M  V30 10940 H 1083.77 0.913956 4.07373 0
M  V30 10941 H 1085.16 4.92492 4.57057 0
M  V30 10942 N 1087.88 -1.11734 1.11145 0
M  V30 10943 C 1089.12 -1.85039 0.868318 0
M  V30 10944 C 1089.49 -1.82538 -0.595294 0
M  V30 10945 O 1090.69 -2.5126 -0.955071 0
M  V30 10946 C 1088.96 -3.28381 1.4107 0
M  V30 10947 S 1090.52 -4.18973 1.3041 0
M  V30 10948 H 1087.33 -0.638114 0.313578 0
M  V30 10949 H 1089.94 -1.34548 1.41835 0
M  V30 10950 H 1088.64 -3.27764 2.46979 0
M  V30 10951 H 1088.17 -3.83939 0.857576 0
M  V30 10952 H 1090.19 -4.95483 0.266605 0
M  V30 10953 N 1089.36 -0.901303 -1.29284 0
M  V30 10954 C 1090.59 -0.543511 -1.99634 0
M  V30 10955 C 1091 0.872154 -1.67448 0
M  V30 10956 O 1090.36 1.57591 -0.920406 0
M  V30 10957 C 1090.41 -0.728148 -3.54091 0
M  V30 10958 O 1090.13 -2.08809 -3.85137 0
M  V30 10959 C 1091.63 -0.375519 -4.41707 0
M  V30 10960 H 1088.85 -0.208405 -0.637815 0
M  V30 10961 H 1091.4 -1.21109 -1.64781 0
M  V30 10962 H 1089.55 -0.107728 -3.8725 0
M  V30 10963 H 1089.97 -2.11863 -4.79807 0
M  V30 10964 H 1091.44 -0.555538 -5.49197 0
M  V30 10965 H 1091.92 0.687532 -4.33785 0
M  V30 10966 H 1092.52 -0.972949 -4.14021 0
M  V30 10967 N 1090.84 1.42931 -0.663954 0
M  V30 10968 C 1091.77 2.28089 0.0710318 0
M  V30 10969 C 1092.75 1.40446 0.819375 0
M  V30 10970 O 1093.93 1.69887 0.816738 0
M  V30 10971 C 1091.06 3.20079 1.10756 0
M  V30 10972 C 1090.11 4.24055 0.456045 0
M  V30 10973 S 1090.94 5.29813 -0.778356 0
M  V30 10974 C 1092.09 6.25371 0.257373 0
M  V30 10975 H 1092.33 2.90078 -0.651315 0
M  V30 10976 H 1089.86 1.47601 -0.453137 0
M  V30 10977 H 1091.82 3.7362 1.70055 0
M  V30 10978 H 1090.48 2.57248 1.80229 0
M  V30 10979 H 1089.67 4.88564 1.23779 0
M  V30 10980 H 1089.27 3.73947 -0.0630832 0
M  V30 10981 H 1091.57 6.68172 1.12037 0
M  V30 10982 H 1092.51 7.0722 -0.352969 0
M  V30 10983 H 1092.92 5.61324 0.597991 0
M  V30 10984 N 1092.32 0.406567 1.52266 0
M  V30 10985 C 1093.54 -0.172101 2.06685 0
M  V30 10986 C 1093.97 -1.38306 1.27488 0
M  V30 10987 O 1093.32 -1.78726 0.304441 0
M  V30 10988 C 1093.37 -0.503463 3.57068 0
M  V30 10989 O 1092.48 -1.59485 3.80314 0
M  V30 10990 H 1091.82 -0.0153209 0.663823 0
M  V30 10991 H 1094.35 0.579025 1.96236 0
M  V30 10992 H 1094.36 -0.762833 4.00805 0
M  V30 10993 H 1093.03 0.381775 4.14144 0
M  V30 10994 H 1091.61 -1.32784 3.48458 0
M  V30 10995 N 1093.79 -1.57004 0.136909 0
M  V30 10996 C 1095.04 -1.9541 -0.51569 0
M  V30 10997 C 1095.36 -1.02219 -1.66061 0
M  V30 10998 O 1094.63 -0.0818172 -1.95729 0
M  V30 10999 H 1093.21 -0.721504 -0.193497 0
M  V30 11000 H 1095.88 -1.93765 0.210046 0
M  V30 11001 H 1094.97 -2.98887 -0.898494 0
M  V30 11002 N 1095.27 0.136881 -1.57004 0
M  V30 11003 C 1096.52 0.849031 -1.84172 0
M  V30 11004 C 1096.85 1.80359 -0.720027 0
M  V30 11005 O 1096.13 1.92538 0.275584 0
M  V30 11006 C 1096.41 1.61465 -3.21871 0
M  V30 11007 C 1096.26 0.680902 -4.44616 0
M  V30 11008 C 1097.58 2.57488 -3.56914 0
M  V30 11009 H 1094.7 0.307209 -0.669919 0
M  V30 11010 H 1097.34 0.113862 -1.89659 0
M  V30 11011 H 1095.49 2.24137 -3.17325 0
M  V30 11012 H 1097.16 0.0644094 -4.61255 0
M  V30 11013 H 1095.41 -0.00883629 -4.33799 0
M  V30 11014 H 1096.08 1.25286 -5.37594 0
M  V30 11015 H 1098.55 2.0493 -3.62136 0
M  V30 11016 H 1097.43 3.08101 -4.54274 0
M  V30 11017 H 1097.69 3.39321 -2.83397 0
M  V30 11018 N 1096.75 1.52266 0.40654 0
M  V30 11019 C 1098.16 1.58587 0.985241 0
M  V30 11020 C 1098.51 0.427955 1.91476 0
M  V30 11021 O 1097.64 -0.451341 2.11641 0
M  V30 11022 C 1098.23 2.87426 1.79365 0
M  V30 11023 C 1096.79 2.96217 2.32233 0
M  V30 11024 C 1095.94 2.53548 1.12288 0
M  V30 11025 H 1098.89 1.57598 0.186685 0
M  V30 11026 H 1098.91 2.72925 2.65127 0
M  V30 11027 H 1098.42 3.71682 1.11687 0
M  V30 11028 H 1096.52 2.1646 3.03275 0
M  V30 11029 H 1096.64 4.00511 2.62922 0
M  V30 11030 H 1095 2.07457 1.47763 0
M  V30 11031 H 1095.78 3.40181 0.461731 0
M  V30 11032 N 1098.23 -0.663929 1.42933 0
M  V30 11033 C 1099.48 -1.42111 1.43697 0
M  V30 11034 C 1099.8 -1.94913 0.0583858 0
M  V30 11035 O 1099.07 -1.73757 -0.904719 0
M  V30 11036 H 1097.65 -0.527391 0.529026 0
M  V30 11037 H 1100.31 -0.783766 1.78446 0
M  V30 11038 H 1099.41 -2.26877 2.1432 0
M  V30 11039 N 1099.71 -1.29285 -0.901281 0
M  V30 11040 C 1100.93 -1.20169 -1.69039 0
M  V30 11041 C 1101.36 0.234509 -1.86632 0
M  V30 11042 O 1100.71 1.16935 -1.38549 0
M  V30 11043 C 1100.76 -1.91852 -3.05328 0
M  V30 11044 O 1099.87 -1.23448 -3.9349 0
M  V30 11045 H 1099.21 -0.416486 -0.517141 0
M  V30 11046 H 1101.74 -1.70826 -1.12603 0
M  V30 11047 H 1101.75 -2.00244 -3.5548 0
M  V30 11048 H 1100.42 -2.96313 -2.91841 0
M  V30 11049 H 1099 -1.23303 -3.51924 0
M  V30 11050 N 1101.18 1.11143 -1.11736 0
M  V30 11051 C 1102.11 2.19339 -0.800795 0
M  V30 11052 C 1103.1 1.68508 0.23221 0
M  V30 11053 O 1104.28 1.93967 0.0950063 0
M  V30 11054 C 1101.41 3.46424 -0.246579 0
M  V30 11055 C 1100.36 4.10487 -1.21181 0
M  V30 11056 C 1099.69 5.32183 -0.518158 0
M  V30 11057 C 1100.99 4.55052 -2.56368 0
M  V30 11058 H 1102.68 2.46077 -1.70548 0
M  V30 11059 H 1100.23 1.18271 -0.821454 0
M  V30 11060 H 1102.18 4.21398 -0.0128889 0
M  V30 11061 H 1100.91 3.19154 0.693415 0
M  V30 11062 H 1099.57 3.3751 -1.43118 0
M  V30 11063 H 1099.21 5.01187 0.426742 0
M  V30 11064 H 1098.91 5.75997 -1.16196 0
M  V30 11065 H 1100.44 6.09895 -0.293333 0
M  V30 11066 H 1101.85 5.21335 -2.38501 0
M  V30 11067 H 1100.25 5.0969 -3.16758 0
M  V30 11068 H 1101.32 3.68343 -3.1536 0
M  V30 11069 N 1102.66 0.908147 1.28804 0
M  V30 11070 C 1103.59 0.409106 2.29888 0
M  V30 11071 C 1104.57 -0.520338 1.61946 0
M  V30 11072 O 1105.76 -0.429268 1.89396 0
M  V30 11073 C 1102.89 -0.35669 3.45463 0
M  V30 11074 C 1101.84 0.4831 4.25265 0
M  V30 11075 C 1101.17 -0.4107 5.3312 0
M  V30 11076 C 1102.47 1.73744 4.92555 0
M  V30 11077 H 1104.16 1.25386 2.7188 0
M  V30 11078 H 1101.71 0.604368 1.30703 0
M  V30 11079 H 1103.66 -0.71661 4.15262 0
M  V30 11080 H 1102.39 -1.2353 3.02337 0
M  V30 11081 H 1101.04 0.825464 3.57186 0
M  V30 11082 H 1100.69 -1.28769 4.86238 0
M  V30 11083 H 1100.39 0.14756 5.87415 0
M  V30 11084 H 1101.92 -0.766626 6.05768 0
M  V30 11085 H 1103.33 1.44676 5.54745 0
M  V30 11086 H 1101.73 2.23767 5.5682 0
M  V30 11087 H 1102.8 2.46853 4.17363 0
M  V30 11088 N 1104.14 -1.42577 0.671525 0
M  V30 11089 C 1105.55 -1.84736 0.270084 0
M  V30 11090 C 1105.9 -1.56212 -1.18711 0
M  V30 11091 O 1105.03 -1.02028 -1.90838 0
M  V30 11092 C 1105.62 -3.35334 0.483409 0
M  V30 11093 C 1104.18 -3.76154 0.136119 0
M  V30 11094 C 1103.33 -2.66179 0.777444 0
M  V30 11095 H 1106.28 -1.3247 0.873919 0
M  V30 11096 H 1106.3 -3.79573 -0.265483 0
M  V30 11097 H 1105.81 -3.56063 1.54405 0
M  V30 11098 H 1103.91 -3.61033 -0.921209 0
M  V30 11099 H 1104.03 -4.75645 0.574356 0
M  V30 11100 H 1102.39 -2.53841 0.209055 0
M  V30 11101 H 1103.17 -2.89732 1.84148 0
M  V30 11102 N 1105.62 -0.414636 -1.52048 0
M  V30 11103 C 1106.9 0.218172 -1.94379 0
M  V30 11104 C 1107.28 1.62133 -1.35189 0
M  V30 11105 O 1106.62 2.22271 -0.529877 0
M  V30 11106 C 1106.83 0.218932 -3.48313 0
M  V30 11107 C 1108.18 0.435604 -4.2236 0
M  V30 11108 O 1109.21 0.298049 -3.54951 0
M  V30 11109 O 1108.06 0.707217 -5.41905 0
M  V30 11110 H 1105.16 0.142173 -0.814688 0
M  V30 11111 H 1107.7 -0.470977 -1.63033 0
M  V30 11112 H 1106.48 -0.76292 -3.83791 0
M  V30 11113 H 1106.1 0.951949 -3.86036 0
M  V30 11114 N 1107.1 1.56929 -0.145233 0
M  V30 11115 C 1108.06 2.15483 0.781002 0
M  V30 11116 C 1109.06 1.09617 1.17647 0
M  V30 11117 O 1110.25 1.35265 1.09768 0
M  V30 11118 C 1107.38 2.7165 2.05959 0
M  V30 11119 H 1108.57 2.98667 0.271685 0
M  V30 11120 H 1106.13 1.55952 0.1042 0
M  V30 11121 H 1106.86 1.92127 2.61262 0
M  V30 11122 H 1106.65 3.491 1.78526 0
M  V30 11123 H 1108.14 3.16769 2.72116 0
M  V30 11124 N 1108.58 -0.128553 1.57075 0
M  V30 11125 C 1109.82 -0.839252 1.8462 0
M  V30 11126 C 1110.15 -1.79974 0.729582 0
M  V30 11127 O 1109.43 -1.92681 -0.265369 0
M  V30 11128 C 1109.71 -1.59756 3.22723 0
M  V30 11129 C 1109.57 -0.657313 4.44971 0
M  V30 11130 C 1110.88 -2.55592 3.58275 0
M  V30 11131 H 1108 -0.303652 0.671539 0
M  V30 11132 H 1110.65 -0.103802 1.89716 0
M  V30 11133 H 1108.8 -2.22451 3.18509 0
M  V30 11134 H 1110.47 -0.0399471 4.61283 0
M  V30 11135 H 1108.71 0.0318416 4.33788 0
M  V30 11136 H 1109.38 -1.22433 5.38251 0
M  V30 11137 H 1111.86 -2.03007 3.63218 0
M  V30 11138 H 1110.73 -3.05687 4.55902 0
M  V30 11139 H 1110.99 -3.37813 2.85193 0
M  V30 11140 N 1110.05 -1.5248 -0.398459 0
M  V30 11141 C 1110.98 -1.79549 -1.49279 0
M  V30 11142 C 1111.96 -0.647004 -1.57315 0
M  V30 11143 O 1113.15 -0.893661 -1.72416 0
M  V30 11144 C 1110.28 -1.95582 -2.86993 0
M  V30 11145 C 1109.23 -3.1123 -2.93803 0
M  V30 11146 C 1108.56 -3.12501 -4.33874 0
M  V30 11147 C 1109.86 -4.50485 -2.64312 0
M  V30 11148 H 1111.55 -2.71187 -1.26877 0
M  V30 11149 H 1109.1 -1.30492 -0.608924 0
M  V30 11150 H 1111.05 -2.13102 -3.63546 0
M  V30 11151 H 1109.78 -1.00625 -3.10712 0
M  V30 11152 H 1108.44 -2.93477 -2.19697 0
M  V30 11153 H 1108.08 -2.15245 -4.54619 0
M  V30 11154 H 1107.78 -3.90183 -4.39353 0
M  V30 11155 H 1109.31 -3.32164 -5.12347 0
M  V30 11156 H 1110.72 -4.68387 -3.30585 0
M  V30 11157 H 1109.12 -5.30163 -2.81153 0
M  V30 11158 H 1110.19 -4.57848 -1.59696 0
M  V30 11159 N 1111.53 0.65634 -1.43283 0
M  V30 11160 C 1112.76 1.44906 -1.48382 0
M  V30 11161 C 1113.18 1.87823 -0.101993 0
M  V30 11162 O 1112.54 1.57178 0.903597 0
M  V30 11163 C 1112.59 2.66231 -2.43215 0
M  V30 11164 O 1111.69 3.65176 -1.91625 0
M  V30 11165 H 1111.03 0.434601 -0.502014 0
M  V30 11166 H 1113.56 0.803429 -1.88165 0
M  V30 11167 H 1113.57 3.14083 -2.60414 0
M  V30 11168 H 1112.25 2.34336 -3.43598 0
M  V30 11169 H 1110.82 3.24302 -1.84072 0
M  V30 11170 N 1113.01 1.29761 0.894412 0
M  V30 11171 C 1114.23 1.21064 1.68399 0
M  V30 11172 C 1114.66 -0.224608 1.86754 0
M  V30 11173 O 1114.02 -1.16199 1.39167 0
M  V30 11174 C 1114.07 1.93468 3.04306 0
M  V30 11175 O 1113.17 1.25533 3.9283 0
M  V30 11176 H 1112.51 0.419223 0.514925 0
M  V30 11177 H 1115.04 1.71421 1.11696 0
M  V30 11178 H 1115.05 2.02127 3.54413 0
M  V30 11179 H 1113.73 2.97857 2.90265 0
M  V30 11180 H 1112.3 1.25168 3.51266 0
M  V30 11181 N 1114.49 -1.10549 1.12324 0
M  V30 11182 C 1115.9 -1.63991 0.892402 0
M  V30 11183 C 1116.25 -1.87631 -0.573506 0
M  V30 11184 O 1115.37 -1.6174 -1.43768 0
M  V30 11185 C 1115.97 -2.97914 1.61347 0
M  V30 11186 C 1114.53 -3.48227 1.42881 0
M  V30 11187 C 1113.68 -2.22857 1.65015 0
M  V30 11188 H 1116.63 -0.94065 1.27818 0
M  V30 11189 H 1116.65 -3.65326 1.06382 0
M  V30 11190 H 1116.16 -2.80677 2.68034 0
M  V30 11191 H 1114.26 -3.70611 0.384441 0
M  V30 11192 H 1114.37 -4.26419 2.18413 0
M  V30 11193 H 1112.74 -2.30941 1.07417 0
M  V30 11194 H 1113.52 -2.08152 2.72997 0
M  V30 11195 N 1115.97 -0.914965 -1.28321 0
M  V30 11196 C 1116.9 -0.421292 -2.29668 0
M  V30 11197 C 1117.88 0.511743 -1.6222 0
M  V30 11198 O 1119.06 0.419218 -1.89621 0
M  V30 11199 C 1116.19 0.338364 -3.45648 0
M  V30 11200 C 1115.15 -0.505646 -4.25003 0
M  V30 11201 C 1114.47 0.382421 -5.33331 0
M  V30 11202 C 1115.77 -1.76354 -4.91626 0
M  V30 11203 H 1117.47 -1.26826 -2.71211 0
M  V30 11204 H 1115.01 -0.611291 -1.30381 0
M  V30 11205 H 1116.96 0.694578 -4.15636 0
M  V30 11206 H 1115.69 1.21925 -3.02988 0
M  V30 11207 H 1114.35 -0.844395 -3.56743 0
M  V30 11208 H 1114 1.26189 -4.86914 0
M  V30 11209 H 1113.7 -0.17871 -5.87328 0
M  V30 11210 H 1115.22 0.73449 -6.06166 0
M  V30 11211 H 1116.63 -1.47616 -5.5397 0
M  V30 11212 H 1115.03 -2.26717 -5.55625 0
M  V30 11213 H 1116.1 -2.49063 -4.16048 0
M  V30 11214 N 1117.44 1.42219 -0.679077 0
M  V30 11215 C 1118.67 2.06333 -0.210097 0
M  V30 11216 C 1119.09 1.50703 1.12562 0
M  V30 11217 O 1118.45 0.627241 1.70104 0
M  V30 11218 C 1118.5 3.60243 -0.160322 0
M  V30 11219 O 1117.6 4.03122 0.869872 0
M  V30 11220 H 1116.94 0.655362 -0.106754 0
M  V30 11221 H 1119.47 1.82278 -0.929294 0
M  V30 11222 H 1119.48 4.07997 0.014384 0
M  V30 11223 H 1118.16 4.00106 -1.13526 0
M  V30 11224 H 1116.74 3.66907 0.66586 0
M  V30 11225 N 1118.92 0.422693 1.51826 0
M  V30 11226 C 1119.87 -0.413725 2.24215 0
M  V30 11227 C 1120.86 -1.00228 1.2587 0
M  V30 11228 O 1122.05 -0.922845 1.51038 0
M  V30 11229 C 1119.18 -1.52244 3.07696 0
M  V30 11230 C 1118.26 -0.943999 4.1346 0
M  V30 11231 N 1118.65 -0.0934117 5.05714 0
M  V30 11232 C 1116.95 -1.21311 4.29185 0
M  V30 11233 C 1117.65 0.229891 5.81246 0
M  V30 11234 N 1116.63 -0.382753 5.42251 0
M  V30 11235 H 1120.43 0.242283 2.929 0
M  V30 11236 H 1117.94 0.233902 1.60707 0
M  V30 11237 H 1119.94 -2.13438 3.5812 0
M  V30 11238 H 1118.6 -2.18093 2.40552 0
M  V30 11239 H 1119.61 0.271932 5.17186 0
M  V30 11240 H 1116.29 -1.87018 3.7327 0
M  V30 11241 H 1117.68 0.921159 6.65556 0
M  V30 11242 N 1120.4 -1.5685 0.153553 0
M  V30 11243 C 1121.82 -1.58306 -0.202801 0
M  V30 11244 C 1122.02 -1.16813 -1.64186 0
M  V30 11245 O 1121.07 -0.871468 -2.36985 0
M  V30 11246 C 1122.38 -3.00636 0.0619012 0
M  V30 11247 C 1123.93 -3.13 -0.00129219 0
M  V30 11248 C 1124.41 -4.57391 0.236164 0
M  V30 11249 N 1125.9 -4.62837 0.18332 0
M  V30 11250 C 1126.63 -5.72382 0.341471 0
M  V30 11251 N 1126.13 -6.90552 0.557704 0
M  V30 11252 N 1127.92 -5.61409 0.278615 0
M  V30 11253 H 1120.07 -1.82113 1.09309 0
M  V30 11254 H 1122.34 -0.843228 0.433209 0
M  V30 11255 H 1122.04 -3.35406 1.0581 0
M  V30 11256 H 1121.92 -3.71477 -0.654555 0
M  V30 11257 H 1124.3 -2.78068 -0.98805 0
M  V30 11258 H 1124.38 -2.44632 0.747596 0
M  V30 11259 H 1124.03 -4.93029 1.22005 0
M  V30 11260 H 1123.96 -5.23894 -0.533125 0
M  V30 11261 H 1126.45 -3.77894 0.0211138 0
M  V30 11262 H 1126.76 -7.69905 0.66831 0
M  V30 11263 H 1125.11 -6.92456 0.594105 0
M  V30 11264 H 1128.3 -4.6797 0.110401 0
M  V30 11265 H 1128.47 -6.46731 0.4053 0
M  V30 11266 N 1121.88 0.120221 -1.57141 0
M  V30 11267 C 1123.1 0.84637 -1.89344 0
M  V30 11268 C 1123.53 1.72702 -0.745365 0
M  V30 11269 O 1122.89 1.7873 0.304155 0
M  V30 11270 C 1122.93 1.65671 -3.20289 0
M  V30 11271 O 1122.04 2.76353 -3.06109 0
M  V30 11272 H 1121.38 0.234132 -0.621352 0
M  V30 11273 H 1123.91 0.102986 -2.04341 0
M  V30 11274 H 1123.92 2.04621 -3.52979 0
M  V30 11275 H 1122.59 1.01023 -4.03444 0
M  V30 11276 H 1121.17 2.40615 -2.84884 0
M  V30 11277 N 1123.36 1.52689 0.390367 0
M  V30 11278 C 1124.3 1.7737 1.47677 0
M  V30 11279 C 1125.27 0.616864 1.54221 0
M  V30 11280 O 1126.46 0.856437 1.70499 0
M  V30 11281 C 1123.6 1.94715 2.84921 0
M  V30 11282 C 1122.71 3.22405 2.8754 0
M  V30 11283 C 1121.85 3.30074 4.16202 0
M  V30 11284 C 1120.89 4.51893 4.12867 0
M  V30 11285 N 1120.02 4.56851 5.33134 0
M  V30 11286 H 1124.86 2.70084 1.25932 0
M  V30 11287 H 1122.4 1.33813 0.610943 0
M  V30 11288 H 1124.36 2.02755 3.64618 0
M  V30 11289 H 1122.99 1.05363 3.0512 0
M  V30 11290 H 1122.04 3.23442 2.00223 0
M  V30 11291 H 1123.35 4.12156 2.80943 0
M  V30 11292 H 1122.51 3.3729 5.04302 0
M  V30 11293 H 1121.24 2.38295 4.25519 0
M  V30 11294 H 1120.25 4.44803 3.23156 0
M  V30 11295 H 1121.47 5.44987 4.05174 0
M  V30 11296 H 1119.42 3.67963 5.43083 0
M  V30 11297 H 1119.34 5.40472 5.28607 0
M  V30 11298 H 1120.61 4.6832 6.23134 0
M  V30 11299 N 1124.83 -0.648732 1.43629 0
M  V30 11300 C 1126.25 -0.964917 1.27128 0
M  V30 11301 C 1126.45 -2.00561 0.194251 0
M  V30 11302 O 1125.51 -2.48884 -0.42581 0
M  V30 11303 C 1126.82 -1.44491 2.6371 0
M  V30 11304 C 1128.37 -1.56133 2.71278 0
M  V30 11305 C 1128.84 -2.07521 4.08288 0
M  V30 11306 N 1130.33 -2.14817 4.10375 0
M  V30 11307 C 1131.07 -2.55712 5.13224 0
M  V30 11308 N 1130.56 -2.9587 6.26444 0
M  V30 11309 N 1132.36 -2.55691 5.00578 0
M  V30 11310 H 1124.51 0.0398357 2.12363 0
M  V30 11311 H 1126.77 -0.0447705 0.946942 0
M  V30 11312 H 1126.48 -0.754616 3.43509 0
M  V30 11313 H 1126.35 -2.41914 2.89409 0
M  V30 11314 H 1128.74 -2.24263 1.91808 0
M  V30 11315 H 1128.82 -0.571314 2.49338 0
M  V30 11316 H 1128.46 -1.39992 4.88226 0
M  V30 11317 H 1128.39 -3.07362 4.27594 0
M  V30 11318 H 1130.88 -1.86538 3.28652 0
M  V30 11319 H 1131.2 -3.25837 7.0075 0
M  V30 11320 H 1129.54 -2.93664 6.2991 0
M  V30 11321 H 1132.73 -2.23697 4.1119 0
M  V30 11322 H 1132.91 -2.87239 5.80859 0
M  V30 11323 N 1126.31 -1.30234 -0.887518 0
M  V30 11324 C 1127.54 -1.21955 -1.67755 0
M  V30 11325 C 1127.96 0.214701 -1.86871 0
M  V30 11326 O 1127.32 1.15459 -1.39782 0
M  V30 11327 C 1127.37 -1.95079 -3.03276 0
M  V30 11328 O 1126.47 -1.27615 -3.92158 0
M  V30 11329 H 1125.81 -0.421948 -0.512695 0
M  V30 11330 H 1128.34 -1.72011 -1.10785 0
M  V30 11331 H 1128.35 -2.04004 -3.53336 0
M  V30 11332 H 1127.03 -2.99392 -2.88682 0
M  V30 11333 H 1125.61 -1.27029 -3.50597 0
M  V30 11334 N 1127.79 1.09952 -1.12909 0
M  V30 11335 C 1128.72 2.18477 -0.824014 0
M  V30 11336 C 1129.7 1.68744 0.214324 0
M  V30 11337 O 1130.89 1.94057 0.0744281 0
M  V30 11338 C 1128.02 3.46143 -0.283308 0
M  V30 11339 C 1126.97 4.09178 -1.25528 0
M  V30 11340 C 1126.3 5.31604 -0.574574 0
M  V30 11341 C 1127.6 4.52308 -2.6118 0
M  V30 11342 H 1129.29 2.44254 -1.73148 0
M  V30 11343 H 1126.84 1.17394 -0.833952 0
M  V30 11344 H 1128.79 4.21361 -0.057583 0
M  V30 11345 H 1127.51 3.19872 0.659525 0
M  V30 11346 H 1126.17 3.35973 -1.4669 0
M  V30 11347 H 1125.82 5.01611 0.37356 0
M  V30 11348 H 1125.52 5.74732 -1.22299 0
M  V30 11349 H 1127.04 6.0955 -0.358004 0
M  V30 11350 H 1128.46 5.18776 -2.44017 0
M  V30 11351 H 1126.86 5.06302 -3.22147 0
M  V30 11352 H 1127.93 3.64977 -3.19249 0
M  V30 11353 N 1129.27 0.921757 1.27833 0
M  V30 11354 C 1130.49 0.574599 1.99281 0
M  V30 11355 C 1130.92 -0.838905 1.68357 0
M  V30 11356 O 1130.28 -1.56196 0.920468 0
M  V30 11357 C 1130.32 0.800027 3.51613 0
M  V30 11358 O 1129.43 -0.137215 4.12172 0
M  V30 11359 H 1128.77 0.221887 0.625829 0
M  V30 11360 H 1131.3 1.23939 1.62789 0
M  V30 11361 H 1131.31 0.71326 4.01717 0
M  V30 11362 H 1129.98 1.83042 3.73455 0
M  V30 11363 H 1128.56 -0.00103872 3.729 0
M  V30 11364 N 1130.75 -1.41857 0.686609 0
M  V30 11365 C 1131.99 -2.03236 0.217839 0
M  V30 11366 C 1132.35 -1.5317 -1.15771 0
M  V30 11367 O 1133.55 -2.06415 -1.72181 0
M  V30 11368 C 1131.82 -3.56428 0.263443 0
M  V30 11369 S 1133.38 -4.386 -0.132595 0
M  V30 11370 H 1130.2 -0.705472 0.088487 0
M  V30 11371 H 1132.8 -1.73428 0.902393 0
M  V30 11372 H 1131.51 -3.90362 1.26672 0
M  V30 11373 H 1131.04 -3.90925 -0.440556 0
M  V30 11374 H 1133.05 -4.77119 -1.3628 0
M  V30 11375 N 1132.22 -0.430739 -1.51599 0
M  V30 11376 C 1133.64 -0.0826902 -1.59386 0
M  V30 11377 C 1133.84 1.40729 -1.44214 0
M  V30 11378 O 1132.9 2.1765 -1.28002 0
M  V30 11379 C 1134.21 -0.59691 -2.94716 0
M  V30 11380 C 1135.76 -0.556772 -3.08008 0
M  V30 11381 C 1136.23 -1.04786 -4.45852 0
M  V30 11382 N 1137.72 -1.00557 -4.52153 0
M  V30 11383 C 1138.46 -1.35649 -5.57124 0
M  V30 11384 N 1137.95 -1.77994 -6.69545 0
M  V30 11385 N 1139.75 -1.27508 -5.47447 0
M  V30 11386 H 1131.9 -1.40027 -1.59707 0
M  V30 11387 H 1134.16 -0.576606 -0.752482 0
M  V30 11388 H 1133.87 -1.63914 -3.11167 0
M  V30 11389 H 1133.74 -0.0182342 -3.77196 0
M  V30 11390 H 1136.13 0.476457 -2.91228 0
M  V30 11391 H 1136.21 -1.17177 -2.27383 0
M  V30 11392 H 1135.85 -2.07952 -4.63377 0
M  V30 11393 H 1135.78 -0.409461 -5.25006 0
M  V30 11394 H 1138.27 -0.694518 -3.71463 0
M  V30 11395 H 1138.59 -2.03026 -7.45654 0
M  V30 11396 H 1136.93 -1.81916 -6.70769 0
M  V30 11397 H 1140.12 -0.942969 -4.58504 0
M  V30 11398 H 1140.3 -1.55185 -6.29143 0
M  V30 11399 N 1133.7 1.56767 -0.161869 0
M  V30 11400 C 1135.11 1.83265 0.356466 0
M  V30 11401 C 1135.46 1.08127 1.63716 0
M  V30 11402 O 1134.59 0.33127 2.13849 0
M  V30 11403 C 1135.18 3.32437 0.653521 0
M  V30 11404 C 1133.74 3.59465 1.11633 0
M  V30 11405 C 1132.89 2.76909 0.147204 0
M  V30 11406 H 1135.84 1.53926 -0.386308 0
M  V30 11407 H 1135.86 3.49401 1.50662 0
M  V30 11408 H 1135.37 3.87098 -0.278766 0
M  V30 11409 H 1133.48 3.10206 2.06404 0
M  V30 11410 H 1133.59 4.67853 1.03202 0
M  V30 11411 H 1131.95 2.46457 0.642739 0
M  V30 11412 H 1132.74 3.34346 -0.778938 0
M  V30 11413 N 1135.18 -0.111886 1.57202 0
M  V30 11414 C 1136.59 -0.668261 1.74331 0
M  V30 11415 C 1136.94 -1.79959 0.781609 0
M  V30 11416 O 1136.07 -2.16356 -0.043833 0
M  V30 11417 C 1136.66 -1.219 3.1611 0
M  V30 11418 C 1135.22 -1.7216 3.34721 0
M  V30 11419 C 1134.37 -0.624223 2.70183 0
M  V30 11420 H 1137.32 0.114081 1.58289 0
M  V30 11421 H 1137.34 -2.08858 3.18054 0
M  V30 11422 H 1136.85 -0.395381 3.86081 0
M  V30 11423 H 1134.95 -2.56976 2.69803 0
M  V30 11424 H 1135.07 -1.82615 4.42932 0
M  V30 11425 H 1133.43 -1.05958 2.31614 0
M  V30 11426 H 1134.21 0.188537 3.42782 0
M  V30 11427 N 1136.66 -1.52894 -0.382264 0
M  V30 11428 C 1137.59 -1.7291 -1.48921 0
M  V30 11429 C 1138.57 -0.577056 -1.52016 0
M  V30 11430 O 1139.75 -0.807667 -1.7032 0
M  V30 11431 C 1136.88 -1.79281 -2.87361 0
M  V30 11432 C 1135.93 -3.01099 -3.02063 0
M  V30 11433 S 1136.76 -4.60947 -2.72558 0
M  V30 11434 C 1137.92 -4.70144 -4.13178 0
M  V30 11435 H 1138.15 -2.66529 -1.31718 0
M  V30 11436 H 1135.68 -1.43271 -0.575563 0
M  V30 11437 H 1137.64 -1.83637 -3.67134 0
M  V30 11438 H 1136.3 -0.867428 -3.01885 0
M  V30 11439 H 1135.49 -3.02117 -4.03412 0
M  V30 11440 H 1135.1 -2.94769 -2.3019 0
M  V30 11441 H 1137.39 -4.49173 -5.07198 0
M  V30 11442 H 1138.33 -5.72166 -4.17172 0
M  V30 11443 H 1138.74 -3.98923 -3.99401 0
M  V30 11444 N 1138.14 0.641106 -1.43971 0
M  V30 11445 C 1139.38 1.40291 -1.46445 0
M  V30 11446 C 1139.72 1.93978 -0.0929004 0
M  V30 11447 O 1138.99 1.73043 0.888043 0
M  V30 11448 C 1139.27 2.57551 -2.51673 0
M  V30 11449 C 1139.13 2.09279 -3.98149 0
M  V30 11450 C 1140.45 3.59752 -2.53508 0
M  V30 11451 H 1137.57 0.508771 -0.533218 0
M  V30 11452 H 1140.21 0.725767 -1.75592 0
M  V30 11453 H 1138.36 3.15319 -2.2695 0
M  V30 11454 H 1140.03 1.56418 -4.33971 0
M  V30 11455 H 1138.27 1.40545 -4.10402 0
M  V30 11456 H 1138.94 2.93655 -4.67409 0
M  V30 11457 H 1141.42 3.11766 -2.75574 0
M  V30 11458 H 1140.3 4.39332 -3.29057 0
M  V30 11459 H 1140.56 4.13156 -1.57335 0
M  V30 11460 N 1139.62 1.30703 0.880598 0
M  V30 11461 C 1140.56 1.17455 1.98678 0
M  V30 11462 C 1141.53 0.0629569 1.65981 0
M  V30 11463 O 1142.72 0.233926 1.89361 0
M  V30 11464 C 1139.86 0.876882 3.33774 0
M  V30 11465 C 1138.97 2.07078 3.79134 0
M  V30 11466 C 1138.11 1.71082 5.02896 0
M  V30 11467 C 1137.14 2.86942 5.40676 0
M  V30 11468 N 1136.28 2.51212 6.55619 0
M  V30 11469 H 1141.12 2.12086 2.09341 0
M  V30 11470 H 1138.66 1.05514 1.02495 0
M  V30 11471 H 1140.62 0.684899 4.1154 0
M  V30 11472 H 1139.25 -0.0325633 3.22784 0
M  V30 11473 H 1138.3 2.37388 2.97239 0
M  V30 11474 H 1139.61 2.9383 4.0307 0
M  V30 11475 H 1138.76 1.48284 5.883 0
M  V30 11476 H 1137.5 0.815064 4.80841 0
M  V30 11477 H 1136.51 3.10401 4.53797 0
M  V30 11478 H 1137.73 3.77211 5.64703 0
M  V30 11479 H 1135.68 1.64147 6.35131 0
M  V30 11480 H 1135.6 3.31495 6.79446 0
M  V30 11481 H 1136.86 2.31781 7.44243 0
M  V30 11482 N 1141.09 -1.09351 1.1349 0
M  V30 11483 C 1142.02 -2.18037 0.835588 0
M  V30 11484 C 1143 -1.68856 -0.205373 0
M  V30 11485 O 1144.19 -1.94094 -0.0641357 0
M  V30 11486 C 1141.32 -3.45987 0.301661 0
M  V30 11487 C 1140.27 -4.08507 1.27696 0
M  V30 11488 C 1139.6 -5.31292 0.602758 0
M  V30 11489 C 1140.9 -4.50916 2.63575 0
M  V30 11490 H 1142.59 -2.43332 1.74441 0
M  V30 11491 H 1140.14 -1.1695 0.840166 0
M  V30 11492 H 1142.09 -4.21324 0.079928 0
M  V30 11493 H 1140.82 -3.20217 -0.642552 0
M  V30 11494 H 1139.48 -3.3519 1.4847 0
M  V30 11495 H 1139.12 -5.01802 -0.346953 0
M  V30 11496 H 1138.82 -5.74075 1.25345 0
M  V30 11497 H 1140.35 -6.09351 0.390325 0
M  V30 11498 H 1141.76 -5.17474 2.46765 0
M  V30 11499 H 1140.16 -5.04586 3.24827 0
M  V30 11500 H 1141.23 -3.63279 3.2118 0
M  V30 11501 N 1142.57 -0.928524 -1.27343 0
M  V30 11502 C 1143.82 -0.570235 -1.94618 0
M  V30 11503 C 1144.15 0.886381 -1.72792 0
M  V30 11504 O 1143.43 1.63242 -1.05747 0
M  V30 11505 C 1143.71 -0.897964 -3.48724 0
M  V30 11506 C 1143.56 -2.40839 -3.7989 0
M  V30 11507 C 1144.88 -0.404429 -4.38238 0
M  V30 11508 H 1142 -0.208645 -0.70685 0
M  V30 11509 H 1144.64 -1.16045 -1.50444 0
M  V30 11510 H 1142.79 -0.395679 -3.8648 0
M  V30 11511 H 1144.46 -2.98243 -3.51921 0
M  V30 11512 H 1142.71 -2.85723 -3.26412 0
M  V30 11513 H 1143.38 -2.58823 -4.8756 0
M  V30 11514 H 1145.85 -0.834918 -4.07637 0
M  V30 11515 H 1144.73 -0.662684 -5.44885 0
M  V30 11516 H 1144.99 0.695507 -4.36595 0
M  V30 11517 N 1144.05 1.41491 -0.694123 0
M  V30 11518 C 1145.29 2.03117 -0.228614 0
M  V30 11519 C 1145.65 1.53782 1.14957 0
M  V30 11520 O 1146.85 2.07325 1.71084 0
M  V30 11521 C 1145.13 3.56283 -0.282341 0
M  V30 11522 S 1146.68 4.38664 0.109333 0
M  V30 11523 H 1143.5 0.704993 -0.092227 0
M  V30 11524 H 1146.1 1.72947 -0.911578 0
M  V30 11525 H 1144.81 3.89685 -1.2874 0
M  V30 11526 H 1144.34 3.91154 0.419818 0
M  V30 11527 H 1146.35 4.77835 1.33747 0
M  V30 11528 N 1145.53 0.438773 1.51369 0
M  V30 11529 C 1146.94 -0.0240139 1.86685 0
M  V30 11530 C 1147.29 -1.41816 1.35583 0
M  V30 11531 O 1146.41 -2.04517 0.707232 0
M  V30 11532 C 1147.01 -0.0503527 3.38763 0
M  V30 11533 C 1145.57 -0.457556 3.73609 0
M  V30 11534 C 1144.72 0.348852 2.75097 0
M  V30 11535 H 1147.67 0.654552 1.44573 0
M  V30 11536 H 1147.69 -0.859534 3.70665 0
M  V30 11537 H 1147.2 0.964451 3.75925 0
M  V30 11538 H 1145.3 -1.47791 3.42036 0
M  V30 11539 H 1145.41 -0.181357 4.78757 0
M  V30 11540 H 1143.78 -0.193037 2.53967 0
M  V30 11541 H 1144.56 1.36256 3.15102 0
M  V30 11542 N 1147.01 -1.56678 0.170181 0
M  V30 11543 C 1147.97 -2.16698 -0.746622 0
M  V30 11544 C 1148.97 -1.11475 -1.15888 0
M  V30 11545 O 1150.16 -1.36994 -1.07602 0
M  V30 11546 C 1147.29 -2.74892 -2.01612 0
M  V30 11547 H 1148.48 -2.99061 -0.224135 0
M  V30 11548 H 1146.04 -1.56098 -0.0793761 0
M  V30 11549 H 1146.77 -1.96259 -2.58172 0
M  V30 11550 H 1146.56 -3.51896 -1.72949 0
M  V30 11551 H 1148.05 -3.21058 -2.67042 0
M  V30 11552 N 1148.48 0.103547 -1.57259 0
M  V30 11553 C 1149.76 0.839768 -1.76656 0
M  V30 11554 C 1150.14 1.9734 -0.749666 0
M  V30 11555 O 1149.49 2.27405 0.223466 0
M  V30 11556 C 1149.7 1.34218 -3.22159 0
M  V30 11557 C 1151.05 1.78835 -3.85102 0
M  V30 11558 O 1152.07 1.43861 -3.25857 0
M  V30 11559 O 1150.93 2.43474 -4.89267 0
M  V30 11560 H 1148.02 0.399928 -0.723869 0
M  V30 11561 H 1150.57 0.0860857 -1.69482 0
M  V30 11562 H 1149.34 0.52956 -3.877 0
M  V30 11563 H 1148.96 2.15811 -3.33933 0
M  V30 11564 N 1149.96 1.53094 0.37415 0
M  V30 11565 C 1150.91 1.79585 1.47824 0
M  V30 11566 C 1151.9 0.664513 1.55822 0
M  V30 11567 O 1153.11 0.84729 1.58811 0
M  V30 11568 H 1149.48 0.568474 0.492282 0
M  V30 11569 H 1151.46 2.72014 1.22681 0
M  V30 11570 C 1150.2 1.995 2.84772 0
M  V30 11571 H 1149.53 2.85991 2.79373 0
M  V30 11572 H 1150.97 2.22018 3.61226 0
M  V30 11573 C 1149.43 0.771673 3.27943 0
M  V30 11574 O 1149.96 -0.0437737 4.01676 0
M  V30 11575 N 1148.16 0.597547 2.8439 0
M  V30 11576 H 1147.71 1.26227 2.24554 0
M  V30 11577 H 1147.67 -0.219578 3.13632 0
M  V30 11578 N 1151.44 -0.633461 1.44309 0
M  V30 11579 C 1152.37 -1.75676 1.53819 0
M  V30 11580 C 1153.35 -1.65537 0.391365 0
M  V30 11581 O 1154.54 -1.84332 0.611181 0
M  V30 11582 C 1151.67 -3.14197 1.47979 0
M  V30 11583 C 1150.62 -3.39122 2.61113 0
M  V30 11584 C 1149.95 -4.77648 2.40325 0
M  V30 11585 C 1151.25 -3.31914 4.03274 0
M  V30 11586 H 1152.94 -1.67974 2.47841 0
M  V30 11587 H 1150.49 -0.8067 1.19283 0
M  V30 11588 H 1152.44 -3.92553 1.53233 0
M  V30 11589 H 1151.16 -3.22677 0.504718 0
M  V30 11590 H 1149.82 -2.63145 2.55245 0
M  V30 11591 H 1149.47 -4.82829 1.41016 0
M  V30 11592 H 1149.17 -4.95284 3.16177 0
M  V30 11593 H 1150.69 -5.58237 2.47394 0
M  V30 11594 H 1152.11 -4.00178 4.10524 0
M  V30 11595 H 1150.5 -3.61085 4.7931 0
M  V30 11596 H 1151.57 -2.29761 4.2701 0
M  V30 11597 N 1152.92 -1.31168 -0.873655 0
M  V30 11598 C 1154.33 -1.09745 -1.1588 0
M  V30 11599 C 1154.53 0.134471 -2.01051 0
M  V30 11600 O 1153.59 0.824857 -2.38647 0
M  V30 11601 C 1154.9 -2.36704 -1.85451 0
M  V30 11602 C 1156.45 -2.42278 -1.98167 0
M  V30 11603 C 1156.93 -3.69108 -2.71152 0
M  V30 11604 N 1158.42 -3.69981 -2.7869 0
M  V30 11605 C 1159.15 -4.64811 -3.35765 0
M  V30 11606 N 1158.65 -5.69995 -3.938 0
M  V30 11607 N 1160.44 -4.52337 -3.33688 0
M  V30 11608 H 1152.59 -2.10184 -0.306021 0
M  V30 11609 H 1154.86 -0.927058 -0.198159 0
M  V30 11610 H 1154.56 -3.26666 -1.30316 0
M  V30 11611 H 1154.44 -2.46219 -2.85755 0
M  V30 11612 H 1156.82 -1.52787 -2.52468 0
M  V30 11613 H 1156.9 -2.3673 -0.969164 0
M  V30 11614 H 1156.55 -4.58963 -2.1752 0
M  V30 11615 H 1156.48 -3.71922 -3.72803 0
M  V30 11616 H 1158.97 -2.93944 -2.37498 0
M  V30 11617 H 1159.28 -6.38438 -4.3545 0
M  V30 11618 H 1157.63 -5.73773 -3.92186 0
M  V30 11619 H 1160.82 -3.69341 -2.87584 0
M  V30 11620 H 1160.99 -5.2642 -3.77871 0
M  V30 11621 N 1154.4 1.08748 -1.14068 0
M  V30 11622 C 1155.36 2.1375 -0.827266 0
M  V30 11623 C 1156.36 1.59936 0.166496 0
M  V30 11624 O 1157.55 1.74092 -0.0614305 0
M  V30 11625 C 1154.68 3.40106 -0.232557 0
M  V30 11626 H 1155.87 2.42985 -1.7578 0
M  V30 11627 H 1153.43 1.24402 -0.946244 0
M  V30 11628 H 1154.16 3.16503 0.706859 0
M  V30 11629 H 1153.95 3.8046 -0.948293 0
M  V30 11630 H 1155.44 4.17589 -0.0303662 0
M  V30 11631 N 1155.87 0.935264 1.26849 0
M  V30 11632 C 1156.78 0.446122 2.30319 0
M  V30 11633 C 1157.8 -0.476965 1.67335 0
M  V30 11634 O 1158.98 -0.357934 1.98194 0
M  V30 11635 C 1156.04 -0.286297 3.45516 0
M  V30 11636 C 1155.1 0.672626 4.23998 0
M  V30 11637 C 1154.34 -0.0249345 5.33694 0
M  V30 11638 O 1154.56 -1.24296 5.56693 0
M  V30 11639 O 1153.49 0.650752 5.98372 0
M  V30 11640 H 1157.32 1.30546 2.74211 0
M  V30 11641 H 1154.9 0.70091 1.31938 0
M  V30 11642 H 1156.79 -0.699109 4.1556 0
M  V30 11643 H 1155.46 -1.12112 3.03665 0
M  V30 11644 H 1154.37 1.13527 3.56458 0
M  V30 11645 H 1155.7 1.47489 4.69583 0
M  V30 11646 N 1157.35 -1.41121 0.701616 0
M  V30 11647 C 1158.6 -2.00733 0.234682 0
M  V30 11648 C 1158.92 -1.55869 -1.17174 0
M  V30 11649 O 1158.19 -0.791965 -1.79178 0
M  V30 11650 H 1156.77 -0.742288 0.0837745 0
M  V30 11651 H 1159.43 -1.7266 0.904127 0
M  V30 11652 H 1158.53 -3.11041 0.256831 0
M  V30 11653 N 1158.83 -0.446794 -1.51134 0
M  V30 11654 C 1159.76 0.350229 -2.30858 0
M  V30 11655 C 1160.74 1.0125 -1.36684 0
M  V30 11656 O 1161.93 1.01433 -1.65605 0
M  V30 11657 C 1159.06 1.4464 -3.15748 0
M  V30 11658 C 1158.01 0.907102 -4.18277 0
M  V30 11659 C 1157.34 2.09974 -4.91747 0
M  V30 11660 C 1158.64 -0.0649758 -5.2226 0
M  V30 11661 H 1160.33 -0.315105 -2.97737 0
M  V30 11662 H 1157.88 -0.152985 -1.43185 0
M  V30 11663 H 1159.83 2.01127 -3.70305 0
M  V30 11664 H 1158.55 2.14016 -2.46708 0
M  V30 11665 H 1157.21 0.364382 -3.64785 0
M  V30 11666 H 1156.86 2.77991 -4.19202 0
M  V30 11667 H 1156.56 1.74523 -5.61084 0
M  V30 11668 H 1158.08 2.66996 -5.49131 0
M  V30 11669 H 1159.5 0.4099 -5.71833 0
M  V30 11670 H 1157.9 -0.332529 -5.99178 0
M  V30 11671 H 1158.97 -0.998681 -4.74504 0
M  V30 11672 N 1160.31 1.56586 -0.178487 0
M  V30 11673 C 1161.22 2.21903 0.761321 0
M  V30 11674 C 1162.23 1.21289 1.2476 0
M  V30 11675 O 1163.41 1.53974 1.29823 0
M  V30 11676 C 1160.48 2.85259 1.97048 0
M  V30 11677 C 1159.54 4.01095 1.53039 0
M  V30 11678 C 1158.77 4.61421 2.68191 0
M  V30 11679 O 1158.99 4.20644 3.85247 0
M  V30 11680 O 1157.93 5.51171 2.41855 0
M  V30 11681 H 1161.75 3.02788 0.235141 0
M  V30 11682 H 1159.34 1.49316 0.0500442 0
M  V30 11683 H 1161.22 3.25404 2.6775 0
M  V30 11684 H 1159.89 2.07366 2.48558 0
M  V30 11685 H 1158.8 3.65606 0.792661 0
M  V30 11686 H 1160.13 4.80603 1.06213 0
M  V30 11687 N 1161.79 -0.095206 1.57312 0
M  V30 11688 C 1163.03 -0.804335 1.87909 0
M  V30 11689 C 1163.39 -1.75907 0.769465 0
M  V30 11690 O 1164.59 -2.51155 0.957846 0
M  V30 11691 C 1162.86 -1.51405 3.23746 0
M  V30 11692 S 1164.42 -2.26147 3.76036 0
M  V30 11693 H 1161.24 -0.267976 0.658567 0
M  V30 11694 H 1163.84 -0.0614682 1.95403 0
M  V30 11695 H 1162.55 -0.805066 4.02426 0
M  V30 11696 H 1162.08 -2.29681 3.1939 0
M  V30 11697 H 1164.09 -3.52284 3.49443 0
M  V30 11698 N 1163.26 -1.53291 -0.366026 0
M  V30 11699 C 1164.49 -1.73359 -1.12934 0
M  V30 11700 C 1164.91 -0.462352 -1.83051 0
M  V30 11701 O 1164.26 0.564711 -1.73543 0
M  V30 11702 C 1164.32 -2.89873 -2.15999 0
M  V30 11703 O 1164.04 -4.12079 -1.48737 0
M  V30 11704 C 1165.54 -3.21811 -3.04881 0
M  V30 11705 H 1162.76 -0.579827 -0.337701 0
M  V30 11706 H 1165.3 -2.00033 -0.425081 0
M  V30 11707 H 1163.46 -2.65595 -2.82025 0
M  V30 11708 H 1163.87 -4.77322 -2.17404 0
M  V30 11709 H 1165.34 -4.06744 -3.7318 0
M  V30 11710 H 1165.82 -2.37156 -3.69667 0
M  V30 11711 H 1166.43 -3.48013 -2.44473 0
M  V30 11712 N 1164.74 0.6258 -1.44643 0
M  V30 11713 C 1165.69 1.73751 -1.51919 0
M  V30 11714 C 1166.66 1.62007 -0.36647 0
M  V30 11715 O 1167.84 1.81852 -0.577439 0
M  V30 11716 C 1164.98 3.12015 -1.47448 0
M  V30 11717 C 1164.1 3.34696 -2.73135 0
M  V30 11718 C 1163.23 4.62962 -2.6046 0
M  V30 11719 C 1162.27 4.7884 -3.81286 0
M  V30 11720 N 1161.41 5.98388 -3.67255 0
M  V30 11721 H 1166.25 1.66867 -2.46899 0
M  V30 11722 H 1163.79 0.813921 -1.22531 0
M  V30 11723 H 1165.74 3.91983 -1.42846 0
M  V30 11724 H 1164.37 3.179 -0.560312 0
M  V30 11725 H 1163.43 2.4863 -2.87901 0
M  V30 11726 H 1164.74 3.42306 -3.62806 0
M  V30 11727 H 1163.89 5.51099 -2.53722 0
M  V30 11728 H 1162.63 4.57719 -1.68359 0
M  V30 11729 H 1161.64 3.89131 -3.88403 0
M  V30 11730 H 1162.86 4.85893 -4.74431 0
M  V30 11731 H 1160.81 5.94224 -2.77909 0
M  V30 11732 H 1160.72 6.07078 -4.50547 0
M  V30 11733 H 1161.99 6.89072 -3.64417 0
M  V30 11734 N 1166.22 1.31629 0.866686 0
M  V30 11735 C 1167.45 1.24474 1.65269 0
M  V30 11736 C 1167.86 -0.18939 1.87848 0
M  V30 11737 O 1167.22 -1.12251 1.43895 0
M  V30 11738 C 1167.27 1.98872 3.01881 0
M  V30 11739 O 1166.99 3.36687 2.8031 0
M  V30 11740 C 1168.49 1.98595 3.96327 0
M  V30 11741 H 1165.71 0.429966 0.515141 0
M  V30 11742 H 1168.26 1.73559 1.08156 0
M  V30 11743 H 1166.41 1.53539 3.55675 0
M  V30 11744 H 1166.83 3.74612 3.67105 0
M  V30 11745 H 1168.3 2.55156 4.89489 0
M  V30 11746 H 1168.78 0.969257 4.28371 0
M  V30 11747 H 1169.38 2.43821 3.4847 0
M  V30 11748 N 1167.7 -1.08142 1.14644 0
M  V30 11749 C 1168.94 -1.82183 0.926747 0
M  V30 11750 C 1169.3 -1.8434 -0.53692 0
M  V30 11751 O 1170.5 -2.54172 -0.874651 0
M  V30 11752 C 1168.78 -3.23726 1.51446 0
M  V30 11753 S 1170.33 -4.14612 1.43673 0
M  V30 11754 H 1167.15 -0.627815 0.333721 0
M  V30 11755 H 1169.75 -1.29968 1.46043 0
M  V30 11756 H 1168.46 -3.19741 2.57282 0
M  V30 11757 H 1167.99 -3.81016 0.979289 0
M  V30 11758 H 1170 -4.94384 0.424105 0
M  V30 11759 N 1169.18 -0.941978 -1.26351 0
M  V30 11760 C 1170.11 -0.409504 -2.25512 0
M  V30 11761 C 1171.12 0.467665 -1.55938 0
M  V30 11762 O 1172.31 0.277982 -1.76322 0
M  V30 11763 C 1169.41 0.430487 -3.36155 0
M  V30 11764 C 1168.58 -0.430714 -4.35274 0
M  V30 11765 C 1167.64 0.348976 -5.25042 0
M  V30 11766 O 1166.67 -0.24827 -5.68658 0
M  V30 11767 N 1167.87 1.64531 -5.56695 0
M  V30 11768 H 1170.64 -1.26196 -2.71836 0
M  V30 11769 H 1168.2 -0.810947 -1.40126 0
M  V30 11770 H 1170.19 0.959501 -3.93161 0
M  V30 11771 H 1168.76 1.18375 -2.8932 0
M  V30 11772 H 1167.98 -1.14093 -3.77328 0
M  V30 11773 H 1169.27 -1.01896 -4.98492 0
M  V30 11774 H 1168.67 2.15266 -5.23142 0
M  V30 11775 H 1167.22 2.12055 -6.16341 0
M  V30 11776 N 1170.66 1.40747 -0.709091 0
M  V30 11777 C 1171.6 2.32564 -0.0411392 0
M  V30 11778 C 1172.6 1.51692 0.75404 0
M  V30 11779 O 1173.8 1.67537 0.658139 0
M  V30 11780 H 1170.18 0.75198 0.00549889 0
M  V30 11781 H 1172.15 2.86556 -0.83235 0
M  V30 11782 C 1170.9 3.36604 0.871378 0
M  V30 11783 H 1170.22 3.98895 0.268912 0
M  V30 11784 H 1171.66 4.03359 1.30682 0
M  V30 11785 C 1170.12 2.71566 1.99384 0
M  V30 11786 O 1170.65 2.57392 3.08403 0
M  V30 11787 N 1168.86 2.3005 1.77554 0
M  V30 11788 H 1168.4 2.41778 0.888898 0
M  V30 11789 H 1168.36 1.8687 2.52838 0
M  V30 11790 N 1172.13 0.454803 1.50895 0
M  V30 11791 C 1173.36 -0.103785 2.06339 0
M  V30 11792 C 1173.77 -1.35494 1.32053 0
M  V30 11793 O 1173.11 -1.79758 0.37852 0
M  V30 11794 C 1173.18 -0.474076 3.5636 0
M  V30 11795 C 1172.84 0.672736 4.52021 0
M  V30 11796 C 1173.84 1.55003 4.96256 0
M  V30 11797 C 1171.52 0.858435 4.9491 0
M  V30 11798 C 1173.52 2.59757 5.82069 0
M  V30 11799 C 1171.2 1.90922 5.8051 0
M  V30 11800 C 1172.2 2.77717 6.23989 0
M  V30 11801 O 1171.89 3.80989 7.07886 0
M  V30 11802 H 1171.62 -0.0035531 0.675991 0
M  V30 11803 H 1174.18 0.637816 1.95246 0
M  V30 11804 H 1172.41 -1.26863 3.65298 0
M  V30 11805 H 1174.09 -0.965845 3.94241 0
M  V30 11806 H 1174.86 1.41818 4.63802 0
M  V30 11807 H 1170.74 0.192384 4.60598 0
M  V30 11808 H 1174.28 3.27535 6.15927 0
M  V30 11809 H 1170.18 2.04121 6.12376 0
M  V30 11810 H 1170.95 3.7778 7.26102 0
M  V30 11811 N 1173.61 -1.56489 0.186789 0
M  V30 11812 C 1174.89 -1.89066 -0.501337 0
M  V30 11813 C 1175.27 -1.09906 -1.80233 0
M  V30 11814 O 1174.62 -0.197626 -2.27644 0
M  V30 11815 C 1174.83 -3.41318 -0.728207 0
M  V30 11816 C 1176.17 -4.11379 -1.0513 0
M  V30 11817 O 1177.2 -3.46722 -0.816216 0
M  V30 11818 O 1176.06 -5.25638 -1.49557 0
M  V30 11819 H 1173.15 -0.784966 -0.260303 0
M  V30 11820 H 1175.7 -1.68183 0.226382 0
M  V30 11821 H 1174.47 -3.90834 0.19088 0
M  V30 11822 H 1174.09 -3.67865 -1.50869 0
M  V30 11823 N 1175.09 0.086862 -1.5736 0
M  V30 11824 C 1176.02 1.10538 -2.05678 0
M  V30 11825 C 1177 1.41281 -0.947293 0
M  V30 11826 O 1178.19 1.51169 -1.21908 0
M  V30 11827 C 1175.32 2.42302 -2.48812 0
M  V30 11828 C 1174.27 2.25948 -3.63499 0
M  V30 11829 C 1173.6 3.62961 -3.92637 0
M  V30 11830 C 1174.9 1.69319 -4.94094 0
M  V30 11831 H 1176.59 0.703371 -2.91021 0
M  V30 11832 H 1174.14 0.336895 -1.40004 0
M  V30 11833 H 1176.09 3.13833 -2.81224 0
M  V30 11834 H 1174.81 2.84454 -1.60479 0
M  V30 11835 H 1173.47 1.5686 -3.31347 0
M  V30 11836 H 1173.12 4.02656 -3.01459 0
M  V30 11837 H 1172.82 3.52862 -4.69853 0
M  V30 11838 H 1174.34 4.35946 -4.27531 0
M  V30 11839 H 1175.76 2.30699 -5.24834 0
M  V30 11840 H 1174.15 1.69957 -5.7553 0
M  V30 11841 H 1175.22 0.653318 -4.80479 0
M  V30 11842 N 1176.57 1.53483 0.357892 0
M  V30 11843 C 1177.48 1.83434 1.4625 0
M  V30 11844 C 1178.49 0.723313 1.58254 0
M  V30 11845 O 1179.67 1.01416 1.74002 0
M  V30 11846 C 1176.73 2.0249 2.81423 0
M  V30 11847 C 1175.8 3.26378 2.78883 0
M  V30 11848 C 1175.03 3.44516 4.07608 0
M  V30 11849 O 1175.25 2.66787 5.04163 0
M  V30 11850 O 1174.19 4.37898 4.12952 0
M  V30 11851 H 1178.01 2.77294 1.23861 0
M  V30 11852 H 1175.6 1.38958 0.548722 0
M  V30 11853 H 1177.48 2.16552 3.61501 0
M  V30 11854 H 1176.15 1.11819 3.03773 0
M  V30 11855 H 1175.06 3.17733 1.97475 0
M  V30 11856 H 1176.39 4.16996 2.61486 0
M  V30 11857 N 1178.05 -0.61812 1.44973 0
M  V30 11858 C 1179.29 -1.38882 1.4997 0
M  V30 11859 C 1179.65 -1.91533 0.133841 0
M  V30 11860 O 1180.85 -2.68736 0.0585012 0
M  V30 11861 C 1179.12 -2.5136 2.54073 0
M  V30 11862 S 1180.68 -3.39324 2.78216 0
M  V30 11863 H 1177.5 -0.473631 0.530278 0
M  V30 11864 H 1180.1 -0.714299 1.81984 0
M  V30 11865 H 1178.8 -2.11012 3.51997 0
M  V30 11866 H 1178.34 -3.23625 2.23675 0
M  V30 11867 H 1180.35 -4.49198 2.10797 0
M  V30 11868 N 1179.52 -1.32087 -0.859693 0
M  V30 11869 C 1180.46 -1.14934 -1.97143 0
M  V30 11870 C 1181.43 -0.0501084 -1.62523 0
M  V30 11871 O 1182.62 -0.208472 -1.87344 0
M  V30 11872 C 1179.75 -0.758374 -3.30101 0
M  V30 11873 C 1178.79 -1.86212 -3.83702 0
M  V30 11874 S 1179.62 -3.46949 -4.07905 0
M  V30 11875 C 1180.78 -3.09813 -5.43844 0
M  V30 11876 H 1181.01 -2.09047 -2.11392 0
M  V30 11877 H 1178.55 -1.1669 -1.01108 0
M  V30 11878 H 1180.5 -0.539563 -4.06939 0
M  V30 11879 H 1179.17 0.163817 -3.13673 0
M  V30 11880 H 1178.36 -1.54144 -4.7985 0
M  V30 11881 H 1177.96 -2.03652 -3.13691 0
M  V30 11882 H 1180.25 -2.59345 -6.25897 0
M  V30 11883 H 1181.2 -4.04963 -5.8087 0
M  V30 11884 H 1181.6 -2.46971 -5.07607 0
M  V30 11885 N 1181 1.07532 -1.15215 0
M  V30 11886 C 1182.23 1.84356 -0.950139 0
M  V30 11887 C 1182.65 1.81429 0.496502 0
M  V30 11888 O 1182.01 1.20589 1.35381 0
M  V30 11889 C 1182.06 3.29425 -1.46669 0
M  V30 11890 O 1181.16 4.07008 -0.664674 0
M  V30 11891 H 1180.5 0.570921 -0.339036 0
M  V30 11892 H 1183.03 1.35665 -1.53154 0
M  V30 11893 H 1183.04 3.8026 -1.47873 0
M  V30 11894 H 1181.72 3.3087 -2.51988 0
M  V30 11895 H 1180.29 3.65841 -0.72211 0
M  V30 11896 N 1182.48 0.948665 1.2585 0
M  V30 11897 C 1183.41 0.408398 2.24516 0
M  V30 11898 C 1184.39 -0.506954 1.54495 0
M  V30 11899 O 1185.58 -0.442695 1.83228 0
M  V30 11900 C 1182.7 -0.41241 3.3618 0
M  V30 11901 C 1181.75 0.442483 4.24198 0
M  V30 11902 S 1182.58 1.87106 5.01749 0
M  V30 11903 C 1183.74 1.05851 6.16884 0
M  V30 11904 H 1183.97 1.24458 2.69995 0
M  V30 11905 H 1181.5 0.752309 1.34832 0
M  V30 11906 H 1183.46 -0.880064 4.00955 0
M  V30 11907 H 1182.12 -1.22335 2.89297 0
M  V30 11908 H 1181.32 -0.186767 5.03654 0
M  V30 11909 H 1180.92 0.845113 3.64327 0
M  V30 11910 H 1183.21 0.304329 6.76816 0
M  V30 11911 H 1184.15 1.82678 6.8413 0
M  V30 11912 H 1184.56 0.591269 5.61395 0
M  V30 11913 N 1183.96 -1.40369 0.716545 0
M  V30 11914 C 1185.21 -2.00473 0.255959 0
M  V30 11915 C 1185.53 -1.57104 -1.15514 0
M  V30 11916 O 1184.8 -0.810925 -1.78328 0
M  V30 11917 H 1183.38 -0.741357 0.0916427 0
M  V30 11918 H 1186.04 -1.71692 0.922389 0
M  V30 11919 H 1185.14 -3.10752 0.289806 0
M  V30 11920 N 1185.44 -0.462799 -1.50652 0
M  V30 11921 C 1186.68 0.0938945 -2.04184 0
M  V30 11922 C 1187.04 1.37726 -1.33774 0
M  V30 11923 O 1188.24 2.01581 -1.77817 0
M  V30 11924 C 1186.51 0.281884 -3.56287 0
M  V30 11925 S 1188.07 0.798326 -4.31477 0
M  V30 11926 H 1184.89 0.0198719 -0.710722 0
M  V30 11927 H 1187.49 -0.62804 -1.85138 0
M  V30 11928 H 1186.2 -0.658084 -4.05089 0
M  V30 11929 H 1185.73 1.03017 -3.79672 0
M  V30 11930 H 1187.74 2.07281 -4.50832 0
M  V30 11931 N 1186.91 1.56388 -0.195085 0
M  V30 11932 C 1188.16 1.97872 0.444344 0
M  V30 11933 C 1188.49 1.0819 1.61271 0
M  V30 11934 O 1187.77 0.133904 1.94039 0
M  V30 11935 C 1188.05 3.48556 0.90449 0
M  V30 11936 C 1187.9 4.49015 -0.265693 0
M  V30 11937 C 1189.22 4.02938 1.76999 0
M  V30 11938 H 1186.34 0.719413 0.160041 0
M  V30 11939 H 1188.98 1.87835 -0.286005 0
M  V30 11940 H 1187.13 3.5724 1.52682 0
M  V30 11941 H 1188.81 4.52368 -0.903363 0
M  V30 11942 H 1187.05 4.23987 -0.917462 0
M  V30 11943 H 1187.72 5.51912 0.0987834 0
M  V30 11944 H 1190.2 3.97033 1.24514 0
M  V30 11945 H 1189.07 5.08741 2.06092 0
M  V30 11946 H 1189.33 3.48197 2.72418 0
M  V30 11947 N 1188.39 -0.0785156 1.57404 0
M  V30 11948 C 1189.62 -0.795871 1.91522 0
M  V30 11949 C 1190.04 -1.70665 0.790892 0
M  V30 11950 O 1189.4 -1.79474 -0.25666 0
M  V30 11951 C 1189.45 -1.57121 3.24569 0
M  V30 11952 O 1188.55 -2.6814 3.13328 0
M  V30 11953 H 1187.89 -0.217575 0.627341 0
M  V30 11954 H 1190.42 -0.0487724 2.04542 0
M  V30 11955 H 1190.43 -1.9519 3.5828 0
M  V30 11956 H 1189.11 -0.902909 4.05981 0
M  V30 11957 H 1187.69 -2.32978 2.91163 0
M  V30 11958 N 1189.87 -1.5367 -0.349747 0
M  V30 11959 C 1191.12 -1.70281 -1.08853 0
M  V30 11960 C 1191.44 -0.465438 -1.89364 0
M  V30 11961 O 1190.71 0.520615 -1.88856 0
M  V30 11962 H 1189.29 -0.627775 -0.404854 0
M  V30 11963 H 1191.95 -1.90906 -0.392523 0
M  V30 11964 H 1191.05 -2.57096 -1.76941 0
M  V30 11965 N 1191.35 0.610423 -1.45298 0
M  V30 11966 C 1192.59 1.38085 -1.50705 0
M  V30 11967 C 1192.95 1.91459 -0.143997 0
M  V30 11968 O 1194.15 2.68702 -0.0727521 0
M  V30 11969 C 1192.42 2.50009 -2.55402 0
M  V30 11970 S 1193.98 3.37844 -2.80012 0
M  V30 11971 H 1190.8 0.470812 -0.532783 0
M  V30 11972 H 1193.4 0.704638 -1.8236 0
M  V30 11973 H 1192.11 2.09143 -3.53111 0
M  V30 11974 H 1191.64 3.22434 -2.25388 0
M  V30 11975 H 1193.65 4.48074 -2.13176 0
M  V30 11976 N 1192.83 1.32541 0.852676 0
M  V30 11977 C 1193.76 1.24254 1.97694 0
M  V30 11978 C 1194.74 0.125971 1.69633 0
M  V30 11979 O 1195.92 0.31347 1.91653 0
M  V30 11980 C 1193.05 0.966874 3.3357 0
M  V30 11981 C 1192.01 2.0449 3.75989 0
M  V30 11982 C 1191.33 1.6216 5.09518 0
M  V30 11983 C 1192.63 3.46013 3.91244 0
M  V30 11984 H 1194.33 2.18317 2.04886 0
M  V30 11985 H 1191.87 1.05101 0.984371 0
M  V30 11986 H 1193.83 0.895444 4.11776 0
M  V30 11987 H 1192.55 -0.0093893 3.26599 0
M  V30 11988 H 1191.21 2.10651 3.00036 0
M  V30 11989 H 1190.86 0.632729 4.99005 0
M  V30 11990 H 1190.56 2.3429 5.38871 0
M  V30 11991 H 1192.08 1.56457 5.90215 0
M  V30 11992 H 1193.49 3.4243 4.59799 0
M  V30 11993 H 1191.89 4.1651 4.32017 0
M  V30 11994 H 1192.96 3.8553 2.941 0
M  V30 11995 N 1194.3 -1.0692 1.15784 0
M  V30 11996 C 1195.54 -1.8119 0.946018 0
M  V30 11997 C 1195.91 -1.84899 -0.517338 0
M  V30 11998 O 1197.11 -2.55085 -0.847643 0
M  V30 11999 C 1195.38 -3.22102 1.54871 0
M  V30 12000 S 1196.94 -4.13065 1.48063 0
M  V30 12001 H 1193.76 -0.62424 0.340361 0
M  V30 12002 H 1196.36 -1.28411 1.47414 0
M  V30 12003 H 1195.06 -3.16994 2.60659 0
M  V30 12004 H 1194.59 -3.79956 1.01965 0
M  V30 12005 H 1196.61 -4.93907 0.476517 0
M  V30 12006 N 1195.78 -0.955326 -1.25345 0
M  V30 12007 C 1197.19 -0.651118 -1.74978 0
M  V30 12008 C 1197.54 0.833495 -1.77616 0
M  V30 12009 O 1196.67 1.65228 -1.39745 0
M  V30 12010 C 1197.26 -1.17521 -3.17764 0
M  V30 12011 C 1195.82 -0.921151 -3.64954 0
M  V30 12012 C 1194.97 -1.31784 -2.43984 0
M  V30 12013 H 1197.92 -1.13205 -1.11222 0
M  V30 12014 H 1197.94 -0.535625 -3.76711 0
M  V30 12015 H 1197.45 -2.25575 -3.15813 0
M  V30 12016 H 1195.56 0.144392 -3.7232 0
M  V30 12017 H 1195.67 -1.5581 -4.53056 0
M  V30 12018 H 1194.03 -0.736219 -2.43828 0
M  V30 12019 H 1194.82 -2.40761 -2.44723 0
M  V30 12020 N 1197.26 1.39987 -0.723979 0
M  V30 12021 C 1198.67 1.83606 -0.338461 0
M  V30 12022 C 1199.02 1.6051 1.12831 0
M  V30 12023 O 1198.15 1.09041 1.8692 0
M  V30 12024 C 1198.74 3.33308 -0.607533 0
M  V30 12025 C 1197.3 3.75389 -0.275632 0
M  V30 12026 C 1196.45 2.6311 -0.875699 0
M  V30 12027 H 1199.4 1.29135 -0.922483 0
M  V30 12028 H 1199.42 3.80297 0.124424 0
M  V30 12029 H 1198.93 3.50087 -1.67514 0
M  V30 12030 H 1197.03 3.64203 0.786579 0
M  V30 12031 H 1197.15 4.73185 -0.750492 0
M  V30 12032 H 1195.51 2.5289 -0.303122 0
M  V30 12033 H 1196.29 2.82698 -1.94774 0
M  V30 12034 N 1198.74 0.470782 1.50404 0
M  V30 12035 C 1199.99 -0.0841494 2.01925 0
M  V30 12036 C 1200.31 -1.40244 1.35487 0
M  V30 12037 O 1199.58 -1.89409 0.500111 0
M  V30 12038 H 1198.16 -0.0340884 0.746222 0
M  V30 12039 H 1200.82 0.621133 1.84738 0
M  V30 12040 H 1199.92 -0.235877 3.11207 0
M  V30 12041 N 1200.22 -1.56282 0.203376 0
M  V30 12042 C 1201.15 -2.15395 -0.753684 0
M  V30 12043 C 1202.13 -1.09303 -1.20381 0
M  V30 12044 O 1203.31 -1.37461 -1.28984 0
M  V30 12045 C 1200.44 -2.71954 -2.01888 0
M  V30 12046 C 1199.49 -3.9071 -1.71021 0
M  V30 12047 S 1200.32 -5.28695 -0.850999 0
M  V30 12048 C 1201.47 -5.88681 -2.12615 0
M  V30 12049 H 1201.71 -2.96237 -0.251196 0
M  V30 12050 H 1199.24 -1.54396 -0.0117238 0
M  V30 12051 H 1201.2 -3.05183 -2.74542 0
M  V30 12052 H 1199.86 -1.91138 -2.49249 0
M  V30 12053 H 1199.05 -4.28723 -2.64977 0
M  V30 12054 H 1198.65 -3.58533 -1.06442 0
M  V30 12055 H 1200.95 -6.03548 -3.07792 0
M  V30 12056 H 1201.89 -6.85096 -1.79021 0
M  V30 12057 H 1202.3 -5.17356 -2.2584 0
M  V30 12058 N 1201.7 0.070167 -1.57444 0
M  V30 12059 C 1202.94 0.770153 -1.87607 0
M  V30 12060 C 1203.27 1.77143 -0.795875 0
M  V30 12061 O 1202.55 1.93533 0.193674 0
M  V30 12062 C 1202.83 1.47668 -3.2843 0
M  V30 12063 C 1202.69 0.491712 -4.47104 0
M  V30 12064 C 1204 2.42118 -3.67514 0
M  V30 12065 H 1201.12 0.278519 -0.682346 0
M  V30 12066 H 1203.77 0.0333184 -1.89971 0
M  V30 12067 H 1201.92 2.10476 -3.26546 0
M  V30 12068 H 1203.59 -0.131283 -4.61113 0
M  V30 12069 H 1201.83 -0.192817 -4.33371 0
M  V30 12070 H 1202.5 1.02372 -5.42424 0
M  V30 12071 H 1204.98 1.89387 -3.70502 0
M  V30 12072 H 1203.85 2.88556 -4.66933 0
M  V30 12073 H 1204.11 3.26995 -2.97534 0
M  V30 12074 N 1203.17 1.53854 0.341593 0
M  V30 12075 C 1204.59 1.44161 0.684821 0
M  V30 12076 C 1204.79 0.599929 1.92362 0
M  V30 12077 O 1203.85 0.0916771 2.52334 0
M  V30 12078 C 1205.16 2.87668 0.875637 0
M  V30 12079 C 1206.71 2.97455 0.974131 0
M  V30 12080 C 1207.18 4.42075 1.19725 0
M  V30 12081 N 1208.67 4.45609 1.2644 0
M  V30 12082 C 1209.41 5.54643 1.45459 0
M  V30 12083 N 1208.9 6.7368 1.61637 0
M  V30 12084 N 1210.7 5.4226 1.48022 0
M  V30 12085 H 1202.85 2.07069 -0.472883 0
M  V30 12086 H 1205.11 0.936114 -0.149648 0
M  V30 12087 H 1204.82 3.51681 0.0368595 0
M  V30 12088 H 1204.69 3.32731 1.7768 0
M  V30 12089 H 1207.08 2.33582 1.80343 0
M  V30 12090 H 1207.16 2.55751 0.0498282 0
M  V30 12091 H 1206.8 5.06529 0.372872 0
M  V30 12092 H 1206.73 4.81372 2.13515 0
M  V30 12093 H 1209.22 3.59831 1.15455 0
M  V30 12094 H 1209.54 7.52541 1.7579 0
M  V30 12095 H 1207.88 6.76622 1.5877 0
M  V30 12096 H 1211.07 4.48221 1.34966 0
M  V30 12097 H 1211.25 6.27293 1.62502 0
M  V30 12098 N 1204.65 -0.602709 1.4562 0
M  V30 12099 C 1205.6 -1.70753 1.51088 0
M  V30 12100 C 1206.59 -1.56501 0.373662 0
M  V30 12101 O 1207.78 -1.65755 0.620828 0
M  V30 12102 C 1204.91 -3.09515 1.48511 0
M  V30 12103 C 1203.99 -3.29135 2.67453 0
M  V30 12104 N 1204.38 -3.18996 3.92524 0
M  V30 12105 C 1202.68 -3.60019 2.63253 0
M  V30 12106 C 1203.38 -3.40079 4.71933 0
M  V30 12107 N 1202.36 -3.64299 4.03469 0
M  V30 12108 H 1206.16 -1.61414 2.45607 0
M  V30 12109 H 1203.67 -0.806122 1.4098 0
M  V30 12110 H 1205.67 -3.88782 1.50513 0
M  V30 12111 H 1204.33 -3.19999 0.550526 0
M  V30 12112 H 1205.34 -2.97292 4.24073 0
M  V30 12113 H 1202.02 -3.77311 1.78725 0
M  V30 12114 H 1203.41 -3.37593 5.80931 0
M  V30 12115 N 1206.13 -1.32992 -0.845635 0
M  V30 12116 C 1207.04 -1.24701 -1.98713 0
M  V30 12117 C 1208.06 -0.158864 -1.73273 0
M  V30 12118 O 1209.23 -0.381209 -1.97759 0
M  V30 12119 C 1206.3 -0.979524 -3.32575 0
M  V30 12120 C 1205.36 -2.15701 -3.71176 0
M  V30 12121 C 1204.59 -1.90219 -4.98651 0
M  V30 12122 O 1204.81 -0.849171 -5.64044 0
M  V30 12123 O 1203.75 -2.76571 -5.34595 0
M  V30 12124 H 1207.57 -2.20683 -2.08645 0
M  V30 12125 H 1205.16 -1.12971 -0.97765 0
M  V30 12126 H 1207.04 -0.847219 -4.12796 0
M  V30 12127 H 1205.72 -0.0499398 -3.23661 0
M  V30 12128 H 1204.62 -2.34483 -2.91494 0
M  V30 12129 H 1205.96 -3.0697 -3.84747 0
M  V30 12130 N 1207.61 1.06304 -1.1635 0
M  V30 12131 C 1208.56 2.15879 -0.865967 0
M  V30 12132 C 1209.55 1.68595 0.164929 0
M  V30 12133 O 1210.76 1.7999 0.0189271 0
M  V30 12134 H 1207.13 0.704721 -0.262435 0
M  V30 12135 H 1209.1 2.38185 -1.79751 0
M  V30 12136 C 1207.85 3.4558 -0.383374 0
M  V30 12137 H 1207.17 3.82356 -1.16806 0
M  V30 12138 H 1208.61 4.2346 -0.213964 0
M  V30 12139 C 1207.07 3.24738 0.897044 0
M  V30 12140 O 1207.6 3.50284 1.96632 0
M  V30 12141 N 1205.81 2.78172 0.840761 0
M  V30 12142 H 1205.36 2.57583 -0.029584 0
M  V30 12143 H 1205.31 2.64606 1.69797 0
M  V30 12144 N 1209.09 0.96196 1.24836 0
M  V30 12145 C 1210.5 0.667561 1.44968 0
M  V30 12146 C 1210.7 -0.772521 1.86103 0
M  V30 12147 O 1209.76 -1.54704 1.99557 0
M  V30 12148 C 1211.07 1.64675 2.516 0
M  V30 12149 C 1212.62 1.65874 2.65433 0
M  V30 12150 C 1213.09 2.62576 3.75257 0
M  V30 12151 N 1214.58 2.60984 3.82677 0
M  V30 12152 C 1215.32 3.32484 4.67163 0
M  V30 12153 N 1214.82 4.13482 5.55882 0
M  V30 12154 N 1216.61 3.21336 4.61193 0
M  V30 12155 H 1208.76 1.89248 0.964307 0
M  V30 12156 H 1211.02 0.814443 0.485167 0
M  V30 12157 H 1210.73 2.67572 2.2825 0
M  V30 12158 H 1210.6 1.415 3.49653 0
M  V30 12159 H 1212.99 0.636912 2.88145 0
M  V30 12160 H 1213.07 1.9311 1.67756 0
M  V30 12161 H 1212.71 3.6489 3.53295 0
M  V30 12162 H 1212.64 2.32622 4.72435 0
M  V30 12163 H 1215.14 2.02187 3.19263 0
M  V30 12164 H 1215.45 4.6494 6.17293 0
M  V30 12165 H 1213.79 4.17578 5.55566 0
M  V30 12166 H 1216.98 2.57524 3.90895 0
M  V30 12167 H 1217.16 3.77323 5.26812 0
M  V30 12168 N 1210.56 -1.39601 0.731392 0
M  V30 12169 C 1211.8 -2.0244 0.282387 0
M  V30 12170 C 1212.17 -1.56776 -1.10839 0
M  V30 12171 O 1213.37 -2.11788 -1.65527 0
M  V30 12172 C 1211.64 -3.55409 0.376704 0
M  V30 12173 S 1213.2 -4.38799 0.00700932 0
M  V30 12174 H 1210.02 -0.7023 0.110886 0
M  V30 12175 H 1212.62 -1.70469 0.957111 0
M  V30 12176 H 1211.32 -3.86134 1.39027 0
M  V30 12177 H 1210.85 -3.92129 -0.315963 0
M  V30 12178 H 1212.87 -4.81213 -1.21032 0
M  V30 12179 N 1212.04 -0.478751 -1.50152 0
M  V30 12180 C 1213.29 0.073694 -2.02666 0
M  V30 12181 C 1213.62 1.38679 -1.35947 0
M  V30 12182 O 1212.9 1.88286 -0.4877 0
M  V30 12183 C 1213.18 0.249516 -3.59235 0
M  V30 12184 C 1213.03 -1.08514 -4.36514 0
M  V30 12185 C 1214.35 1.00053 -4.28576 0
M  V30 12186 H 1211.47 0.0253082 -0.736565 0
M  V30 12187 H 1214.11 -0.625834 -1.79397 0
M  V30 12188 H 1212.26 0.845343 -3.79192 0
M  V30 12189 H 1213.93 -1.71814 -4.28109 0
M  V30 12190 H 1212.18 -1.67992 -3.99952 0
M  V30 12191 H 1212.85 -0.915676 -5.44352 0
M  V30 12192 H 1215.32 0.495422 -4.1314 0
M  V30 12193 H 1214.2 1.09236 -5.37921 0
M  V30 12194 H 1214.46 2.03896 -3.92274 0
M  V30 12195 N 1213.52 1.56172 -0.211661 0
M  V30 12196 C 1214.48 2.18602 0.688906 0
M  V30 12197 C 1215.48 1.14508 1.12892 0
M  V30 12198 O 1216.67 1.39799 1.03932 0
M  V30 12199 C 1213.81 2.80141 1.94253 0
M  V30 12200 H 1215 2.9955 0.144765 0
M  V30 12201 H 1212.55 1.56254 0.0379615 0
M  V30 12202 H 1213.29 2.03035 2.52878 0
M  V30 12203 H 1213.07 3.56358 1.63558 0
M  V30 12204 H 1214.56 3.28026 2.58436 0
M  V30 12205 N 1215 -0.0618163 1.57479 0
M  V30 12206 C 1215.93 -1.07252 2.07411 0
M  V30 12207 C 1216.91 -1.39756 0.969649 0
M  V30 12208 O 1218.09 -1.4921 1.24298 0
M  V30 12209 C 1215.22 -2.38313 2.52635 0
M  V30 12210 C 1214.18 -2.20136 3.67048 0
M  V30 12211 C 1213.5 -3.56668 3.98361 0
M  V30 12212 C 1214.8 -1.61437 4.96725 0
M  V30 12213 H 1216.5 -0.656983 2.92103 0
M  V30 12214 H 1214.04 -0.314579 1.40522 0
M  V30 12215 H 1216 -3.09319 2.86181 0
M  V30 12216 H 1214.72 -2.81865 1.64984 0
M  V30 12217 H 1213.38 -1.51569 3.338 0
M  V30 12218 H 1213.03 -3.97809 3.07826 0
M  V30 12219 H 1212.73 -3.45342 4.75408 0
M  V30 12220 H 1214.25 -4.2909 4.34413 0
M  V30 12221 H 1215.67 -2.2232 5.28438 0
M  V30 12222 H 1214.06 -1.60779 5.78161 0
M  V30 12223 H 1215.13 -0.576795 4.81457 0
M  V30 12224 N 1216.48 -1.54033 -0.333429 0
M  V30 12225 C 1217.39 -1.85737 -1.43314 0
M  V30 12226 C 1218.4 -0.748398 -1.57083 0
M  V30 12227 O 1219.58 -1.04171 -1.72367 0
M  V30 12228 C 1216.64 -2.06942 -2.78165 0
M  V30 12229 C 1215.7 -3.30774 -2.73655 0
M  V30 12230 C 1214.94 -3.50957 -4.02075 0
M  V30 12231 O 1215.16 -2.74774 -4.99855 0
M  V30 12232 O 1214.09 -4.44412 -4.05933 0
M  V30 12233 H 1217.92 -2.7923 -1.19434 0
M  V30 12234 H 1215.51 -1.39814 -0.526546 0
M  V30 12235 H 1217.39 -2.22276 -3.58011 0
M  V30 12236 H 1216.06 -1.16638 -3.01956 0
M  V30 12237 H 1214.97 -3.20835 -1.92395 0
M  V30 12238 H 1216.3 -4.21103 -2.54819 0
M  V30 12239 N 1217.95 0.594978 -1.45938 0
M  V30 12240 C 1219.37 0.917069 -1.30622 0
M  V30 12241 C 1219.57 1.99702 -0.268554 0
M  V30 12242 O 1218.63 2.50293 0.333146 0
M  V30 12243 C 1219.94 1.34604 -2.68891 0
M  V30 12244 C 1221.49 1.45957 -2.76886 0
M  V30 12245 C 1221.96 1.92225 -4.15708 0
M  V30 12246 N 1223.45 1.99439 -4.18065 0
M  V30 12247 C 1224.19 2.36488 -5.22361 0
M  V30 12248 N 1223.68 2.72416 -6.36994 0
M  V30 12249 N 1225.48 2.36936 -5.09723 0
M  V30 12250 H 1217.63 -0.118625 -2.12068 0
M  V30 12251 H 1219.89 0.00959453 -0.947951 0
M  V30 12252 H 1219.6 0.626605 -3.46073 0
M  V30 12253 H 1219.47 2.31006 -2.98188 0
M  V30 12254 H 1221.86 2.16989 -1.99999 0
M  V30 12255 H 1221.94 0.47838 -2.51287 0
M  V30 12256 H 1221.58 1.21775 -4.93085 0
M  V30 12257 H 1221.51 2.9128 -4.38707 0
M  V30 12258 H 1224 1.74212 -3.35349 0
M  V30 12259 H 1224.32 2.99604 -7.1236 0
M  V30 12260 H 1222.66 2.70083 -6.40375 0
M  V30 12261 H 1225.85 2.08282 -4.19209 0
M  V30 12262 H 1226.03 2.65483 -5.9112 0
M  V30 12263 N 1219.43 1.33438 0.838571 0
M  V30 12264 C 1220.67 1.26245 1.60753 0
M  V30 12265 C 1221.04 -0.169255 1.91253 0
M  V30 12266 O 1222.24 -0.365157 2.66308 0
M  V30 12267 C 1220.51 2.11348 2.88213 0
M  V30 12268 S 1222.07 2.21348 3.78881 0
M  V30 12269 H 1218.89 0.449132 0.551182 0
M  V30 12270 H 1221.49 1.68474 0.991798 0
M  V30 12271 H 1220.19 3.14402 2.63779 0
M  V30 12272 H 1219.72 1.69957 3.54793 0
M  V30 12273 H 1221.74 1.37477 4.76775 0
M  V30 12274 N 1220.91 -1.05686 1.16912 0
M  V30 12275 C 1222.32 -1.60059 0.961153 0
M  V30 12276 C 1222.67 -1.89894 -0.493409 0
M  V30 12277 O 1221.8 -1.67692 -1.36778 0
M  V30 12278 C 1222.39 -2.90803 1.73837 0
M  V30 12279 C 1220.95 -3.41854 1.57522 0
M  V30 12280 C 1220.1 -2.15658 1.74319 0
M  V30 12281 H 1223.05 -0.885592 1.31693 0
M  V30 12282 H 1223.07 -3.60485 1.21781 0
M  V30 12283 H 1222.58 -2.69056 2.79697 0
M  V30 12284 H 1220.68 -3.68647 0.541284 0
M  V30 12285 H 1220.8 -4.16771 2.36302 0
M  V30 12286 H 1219.16 -2.26177 1.17115 0
M  V30 12287 H 1219.94 -1.96386 2.8158 0
M  V30 12288 N 1222.39 -0.968567 -1.24324 0
M  V30 12289 C 1223.63 -0.63879 -1.94162 0
M  V30 12290 C 1223.99 0.81112 -1.74025 0
M  V30 12291 O 1225.19 1.25116 -2.37906 0
M  V30 12292 C 1223.46 -1.00432 -3.42999 0
M  V30 12293 S 1225.02 -0.789227 -4.31644 0
M  V30 12294 H 1221.84 -0.234322 -0.671278 0
M  V30 12295 H 1224.44 -1.2457 -1.50673 0
M  V30 12296 H 1223.15 -2.05643 -3.55161 0
M  V30 12297 H 1222.68 -0.388221 -3.9148 0
M  V30 12298 H 1224.69 0.332976 -4.95082 0
M  V30 12299 N 1223.87 1.39211 -0.738786 0
M  V30 12300 C 1225.11 2.00436 -0.28839 0
M  V30 12301 C 1225.44 1.58626 1.12552 0
M  V30 12302 O 1224.7 0.808154 1.78234 0
M  V30 12303 C 1225 3.55758 -0.342224 0
M  V30 12304 C 1224.66 4.1723 -1.70968 0
M  V30 12305 C 1223.32 4.33734 -2.08395 0
M  V30 12306 C 1225.68 4.51294 -2.60736 0
M  V30 12307 C 1223 4.81592 -3.35091 0
M  V30 12308 C 1225.36 5.00562 -3.86808 0
M  V30 12309 C 1224.02 5.15274 -4.24322 0
M  V30 12310 H 1223.29 0.733447 -0.105529 0
M  V30 12311 H 1225.94 1.66481 -0.94637 0
M  V30 12312 H 1224.24 3.8976 0.399331 0
M  V30 12313 H 1225.94 4.00993 0.0244582 0
M  V30 12314 H 1222.53 4.04788 -1.4087 0
M  V30 12315 H 1226.71 4.38158 -2.3309 0
M  V30 12316 H 1221.97 4.91167 -3.64095 0
M  V30 12317 H 1226.14 5.25892 -4.5652 0
M  V30 12318 H 1223.77 5.52119 -5.2256 0
M  V30 12319 N 1225.34 0.486708 1.49896 0
M  V30 12320 C 1226.29 -0.318255 2.25768 0
M  V30 12321 C 1227.28 -0.94799 1.30008 0
M  V30 12322 O 1228.47 -0.857954 1.54816 0
M  V30 12323 C 1225.6 -1.39057 3.13876 0
M  V30 12324 C 1224.69 -0.767787 4.17092 0
M  V30 12325 N 1225.08 0.121163 5.05655 0
M  V30 12326 C 1223.37 -1.02999 4.33944 0
M  V30 12327 C 1224.08 0.47621 5.79747 0
M  V30 12328 N 1223.05 -0.152422 5.43386 0
M  V30 12329 H 1226.85 0.366294 2.91608 0
M  V30 12330 H 1224.37 0.301852 1.5957 0
M  V30 12331 H 1226.36 -1.98056 3.6685 0
M  V30 12332 H 1225.02 -2.07694 2.49586 0
M  V30 12333 H 1226.04 0.491043 5.15567 0
M  V30 12334 H 1222.71 -1.71018 3.80866 0
M  V30 12335 H 1224.1 1.20262 6.6105 0
M  V30 12336 N 1226.82 -1.56058 0.219941 0
M  V30 12337 C 1227.76 -2.17494 -0.723133 0
M  V30 12338 C 1228.77 -1.14356 -1.15873 0
M  V30 12339 O 1229.96 -1.41343 -1.09016 0
M  V30 12340 C 1227.06 -2.74242 -1.99109 0
M  V30 12341 C 1226.23 -4.02533 -1.71132 0
M  V30 12342 C 1225.29 -4.43862 -2.82618 0
M  V30 12343 O 1224.32 -5.10792 -2.51157 0
M  V30 12344 N 1225.52 -4.09412 -4.11537 0
M  V30 12345 H 1228.28 -2.99048 -0.197619 0
M  V30 12346 H 1225.84 -1.61853 0.0388738 0
M  V30 12347 H 1227.84 -2.98862 -2.7288 0
M  V30 12348 H 1226.41 -1.97 -2.42713 0
M  V30 12349 H 1225.63 -3.85786 -0.810128 0
M  V30 12350 H 1226.91 -4.86227 -1.49868 0
M  V30 12351 H 1226.31 -3.55624 -4.39941 0
M  V30 12352 H 1224.87 -4.38928 -4.81857 0
M  V30 12353 N 1228.3 0.053464 -1.57509 0
M  V30 12354 C 1229.55 0.747622 -1.87763 0
M  V30 12355 C 1229.87 1.77178 -0.814433 0
M  V30 12356 O 1229.14 1.95287 0.154862 0
M  V30 12357 H 1227.72 0.279109 -0.692898 0
M  V30 12358 H 1230.38 0.0252006 -1.94884 0
M  V30 12359 H 1229.48 1.25244 -2.85868 0
M  V30 12360 N 1229.78 1.54207 0.325255 0
M  V30 12361 C 1230.73 1.83474 1.40021 0
M  V30 12362 C 1231.7 0.681719 1.51466 0
M  V30 12363 O 1232.88 0.92798 1.66713 0
M  V30 12364 C 1230.02 2.06624 2.76407 0
M  V30 12365 C 1229.13 3.3431 2.73607 0
M  V30 12366 C 1228.27 3.4743 4.01828 0
M  V30 12367 C 1227.31 4.68997 3.93329 0
M  V30 12368 N 1226.45 4.79052 5.13277 0
M  V30 12369 H 1231.29 2.75182 1.14363 0
M  V30 12370 H 1228.82 1.36284 0.553639 0
M  V30 12371 H 1230.78 2.18037 3.5569 0
M  V30 12372 H 1229.41 1.18209 3.00377 0
M  V30 12373 H 1228.46 3.31643 1.86324 0
M  V30 12374 H 1229.77 4.237 2.6321 0
M  V30 12375 H 1228.93 3.58376 4.89542 0
M  V30 12376 H 1227.67 2.56128 4.1503 0
M  V30 12377 H 1226.67 4.58109 3.04 0
M  V30 12378 H 1227.9 5.61681 3.81695 0
M  V30 12379 H 1225.84 3.90666 5.26988 0
M  V30 12380 H 1225.76 5.62406 5.05208 0
M  V30 12381 H 1227.03 4.94328 6.02711 0
M  V30 12382 N 1231.26 -0.58723 1.46251 0
M  V30 12383 C 1232.17 -1.72455 1.59048 0
M  V30 12384 C 1233.18 -1.67416 0.47413 0
M  V30 12385 O 1234.36 -1.87406 0.737633 0
M  V30 12386 C 1231.42 -3.08953 1.57318 0
M  V30 12387 C 1230.49 -3.25291 2.80151 0
M  V30 12388 C 1229.72 -4.55277 2.78493 0
M  V30 12389 O 1229.94 -5.38883 1.8698 0
M  V30 12390 O 1228.88 -4.74765 3.69975 0
M  V30 12391 H 1232.7 -1.64606 2.55223 0
M  V30 12392 H 1230.29 -0.753742 1.28993 0
M  V30 12393 H 1232.17 -3.90239 1.59033 0
M  V30 12394 H 1230.84 -3.17249 0.643025 0
M  V30 12395 H 1229.75 -2.43515 2.83991 0
M  V30 12396 H 1231.08 -3.21883 3.7236 0
M  V30 12397 N 1232.74 -1.33881 -0.831482 0
M  V30 12398 C 1233.97 -1.28625 -1.61676 0
M  V30 12399 C 1234.37 0.143588 -1.88654 0
M  V30 12400 O 1233.72 1.09847 -1.47239 0
M  V30 12401 C 1233.78 -2.00022 -2.98716 0
M  V30 12402 C 1233.44 -3.49309 -2.94674 0
M  V30 12403 C 1234.44 -4.44375 -2.69864 0
M  V30 12404 C 1232.12 -3.91596 -3.14576 0
M  V30 12405 C 1234.12 -5.79703 -2.64996 0
M  V30 12406 C 1231.81 -5.27026 -3.09333 0
M  V30 12407 C 1232.8 -6.20892 -2.84575 0
M  V30 12408 O 1232.49 -7.53841 -2.79248 0
M  V30 12409 H 1232.22 -0.444235 -0.50954 0
M  V30 12410 H 1234.78 -1.76933 -1.04326 0
M  V30 12411 H 1233.01 -1.46316 -3.57951 0
M  V30 12412 H 1234.7 -1.88168 -3.59649 0
M  V30 12413 H 1235.46 -4.13027 -2.54231 0
M  V30 12414 H 1231.34 -3.18938 -3.32865 0
M  V30 12415 H 1234.89 -6.5294 -2.45591 0
M  V30 12416 H 1230.78 -5.57996 -3.24516 0
M  V30 12417 H 1231.55 -7.63476 -2.95037 0
M  V30 12418 N 1234.21 1.05064 -1.1747 0
M  V30 12419 C 1235.18 2.1101 -0.89485 0
M  V30 12420 C 1236.18 1.60384 0.11553 0
M  V30 12421 O 1237.37 1.73808 -0.116785 0
M  V30 12422 C 1234.5 3.39194 -0.340642 0
M  V30 12423 H 1235.69 2.37269 -1.83421 0
M  V30 12424 H 1233.24 1.21329 -0.985343 0
M  V30 12425 H 1233.98 3.18591 0.605808 0
M  V30 12426 H 1233.76 3.77251 -1.06885 0
M  V30 12427 H 1235.25 4.17281 -0.163204 0
M  V30 12428 N 1235.69 0.975146 1.23809 0
M  V30 12429 C 1237.1 0.678873 1.7392 0
M  V30 12430 C 1237.45 -0.805133 1.78919 0
M  V30 12431 O 1236.58 -1.62984 1.42356 0
M  V30 12432 C 1237.17 1.22562 3.15854 0
M  V30 12433 C 1235.73 0.979096 3.63443 0
M  V30 12434 C 1234.88 1.35649 2.41857 0
M  V30 12435 H 1237.83 1.14961 1.09406 0
M  V30 12436 H 1237.85 0.595489 3.75811 0
M  V30 12437 H 1237.36 2.30571 3.12184 0
M  V30 12438 H 1235.46 -0.0851407 3.72503 0
M  V30 12439 H 1235.58 1.62998 4.5052 0
M  V30 12440 H 1233.94 0.774916 2.42626 0
M  V30 12441 H 1234.72 2.44624 2.40861 0
M  V30 12442 N 1237.17 -1.38817 0.746158 0
M  V30 12443 C 1238.42 -1.99885 0.298425 0
M  V30 12444 C 1238.74 -1.59518 -1.12156 0
M  V30 12445 O 1238.01 -0.848568 -1.76568 0
M  V30 12446 H 1236.59 -0.739247 0.107347 0
M  V30 12447 H 1239.25 -1.69696 0.9586 0
M  V30 12448 H 1238.35 -3.10067 0.355656 0
M  V30 12449 N 1238.65 -0.49465 -1.49636 0
M  V30 12450 C 1239.56 0.291881 -2.32777 0
M  V30 12451 C 1240.57 0.973468 -1.44221 0
M  V30 12452 O 1241.75 0.956252 -1.77251 0
M  V30 12453 C 1238.81 1.34609 -3.19502 0
M  V30 12454 C 1237.88 0.678611 -4.23903 0
M  V30 12455 C 1237.11 1.68259 -5.06483 0
M  V30 12456 O 1237.33 2.91176 -4.90482 0
M  V30 12457 O 1236.27 1.24141 -5.88959 0
M  V30 12458 H 1240.09 -0.388459 -3.01205 0
M  V30 12459 H 1237.68 -0.256086 -1.47189 0
M  V30 12460 H 1239.56 1.95617 -3.73245 0
M  V30 12461 H 1238.23 2.00947 -2.53775 0
M  V30 12462 H 1237.14 0.0289541 -3.74089 0
M  V30 12463 H 1238.47 0.0577817 -4.92166 0
M  V30 12464 N 1240.13 1.55939 -0.228214 0
M  V30 12465 C 1241.35 2.0287 0.406348 0
M  V30 12466 C 1241.77 1.1079 1.52876 0
M  V30 12467 O 1241.13 0.118747 1.82113 0
M  V30 12468 C 1241.18 3.49286 0.931734 0
M  V30 12469 O 1240.9 4.37857 -0.145933 0
M  V30 12470 C 1242.4 4.11893 1.63887 0
M  V30 12471 H 1239.62 0.663696 0.0987358 0
M  V30 12472 H 1242.16 2.01541 -0.346616 0
M  V30 12473 H 1240.32 3.5121 1.63494 0
M  V30 12474 H 1240.73 5.23904 0.250005 0
M  V30 12475 H 1242.21 5.16091 1.95841 0
M  V30 12476 H 1242.68 3.57281 2.55435 0
M  V30 12477 H 1243.29 4.13839 0.980697 0
M  V30 12478 N 1241.6 -0.0451101 1.57535 0
M  V30 12479 C 1242.85 -0.740209 1.88809 0
M  V30 12480 C 1243.18 -1.75854 0.823956 0
M  V30 12481 O 1242.46 -1.93817 -0.16286 0
M  V30 12482 C 1242.74 -1.42424 3.30737 0
M  V30 12483 C 1242.59 -0.42052 4.4783 0
M  V30 12484 C 1243.91 -2.36241 3.7132 0
M  V30 12485 H 1241.03 -0.267628 0.686691 0
M  V30 12486 H 1243.67 -0.00309149 1.9 0
M  V30 12487 H 1241.82 -2.05254 3.29853 0
M  V30 12488 H 1243.5 0.204625 4.60846 0
M  V30 12489 H 1241.74 0.261739 4.3301 0
M  V30 12490 H 1242.41 -0.937298 5.43984 0
M  V30 12491 H 1244.89 -1.83468 3.73468 0
M  V30 12492 H 1243.76 -2.81091 4.71465 0
M  V30 12493 H 1244.02 -3.2222 3.02699 0
M  V30 12494 N 1243.08 -1.54377 -0.317073 0
M  V30 12495 C 1244.03 -1.84214 -1.39046 0
M  V30 12496 C 1245 -0.689742 -1.51102 0
M  V30 12497 O 1246.18 -0.936809 -1.66218 0
M  V30 12498 C 1243.32 -2.08087 -2.75307 0
M  V30 12499 C 1242.44 -3.35756 -2.7183 0
M  V30 12500 C 1241.57 -3.49556 -3.9998 0
M  V30 12501 C 1240.61 -4.71076 -3.90837 0
M  V30 12502 N 1239.75 -4.81767 -5.10729 0
M  V30 12503 H 1244.59 -2.75785 -1.12902 0
M  V30 12504 H 1242.13 -1.36575 -0.546404 0
M  V30 12505 H 1244.08 -2.19921 -3.54529 0
M  V30 12506 H 1242.71 -1.19801 -2.99746 0
M  V30 12507 H 1241.77 -3.32627 -1.84563 0
M  V30 12508 H 1243.08 -4.2509 -2.60959 0
M  V30 12509 H 1242.23 -3.60967 -4.87635 0
M  V30 12510 H 1240.97 -2.58326 -4.13665 0
M  V30 12511 H 1239.98 -4.59715 -3.01566 0
M  V30 12512 H 1241.2 -5.63698 -3.78711 0
M  V30 12513 H 1239.15 -3.93455 -5.24908 0
M  V30 12514 H 1239.06 -5.65077 -5.02219 0
M  V30 12515 H 1240.33 -4.97517 -6.00081 0
M  V30 12516 N 1244.56 0.579466 -1.4656 0
M  V30 12517 C 1245.81 1.33379 -1.51304 0
M  V30 12518 C 1246.12 1.94855 -0.170507 0
M  V30 12519 O 1247.33 2.71331 -0.0957704 0
M  V30 12520 C 1245.78 2.41748 -2.66619 0
M  V30 12521 C 1245.39 1.8656 -4.07307 0
M  V30 12522 C 1247.14 3.18502 -2.80636 0
M  V30 12523 C 1245.04 2.92578 -5.13957 0
M  V30 12524 H 1243.97 0.501422 -0.56311 0
M  V30 12525 H 1246.62 0.618025 -1.72779 0
M  V30 12526 H 1245.01 3.16138 -2.3848 0
M  V30 12527 H 1246.18 1.18692 -4.45252 0
M  V30 12528 H 1244.5 1.22464 -3.97984 0
M  V30 12529 H 1247.09 3.9763 -3.57483 0
M  V30 12530 H 1247.44 3.71295 -1.8827 0
M  V30 12531 H 1247.97 2.51219 -3.08437 0
M  V30 12532 H 1244.71 2.44668 -6.08126 0
M  V30 12533 H 1244.23 3.58926 -4.80554 0
M  V30 12534 H 1245.91 3.56471 -5.39942 0
M  V30 12535 N 1246.04 1.3432 0.824371 0
M  V30 12536 C 1247.29 1.26345 1.57738 0
M  V30 12537 C 1247.61 -0.166836 1.94285 0
M  V30 12538 O 1246.88 -1.09911 1.62162 0
M  V30 12539 H 1245.46 0.46466 0.584893 0
M  V30 12540 H 1248.12 1.68214 0.984373 0
M  V30 12541 H 1247.22 1.8672 2.50084 0
M  V30 12542 N 1247.52 -1.0444 1.18026 0
M  V30 12543 C 1248.76 -1.79143 0.984238 0
M  V30 12544 C 1249.12 -1.85955 -0.478002 0
M  V30 12545 O 1250.32 -2.56826 -0.793345 0
M  V30 12546 C 1248.59 -3.18744 1.61669 0
M  V30 12547 S 1250.15 -4.09832 1.56791 0
M  V30 12548 H 1246.97 -0.61688 0.353525 0
M  V30 12549 H 1249.57 -1.25256 1.50104 0
M  V30 12550 H 1248.28 -3.11394 2.67324 0
M  V30 12551 H 1247.81 -3.77708 1.10001 0
M  V30 12552 H 1249.82 -4.92785 0.581175 0
M  V30 12553 N 1248.99 -0.981699 -1.2329 0
M  V30 12554 C 1249.94 -0.515432 -2.26817 0
M  V30 12555 C 1250.94 0.428204 -1.63899 0
M  V30 12556 O 1252.14 0.301954 -1.77449 0
M  V30 12557 H 1248.52 -0.148257 -0.737241 0
M  V30 12558 H 1250.49 -1.40027 -2.63505 0
M  V30 12559 C 1249.24 0.165266 -3.47307 0
M  V30 12560 H 1248.56 -0.55176 -3.95974 0
M  V30 12561 H 1250 0.45513 -4.2155 0
M  V30 12562 C 1248.46 1.39693 -3.06574 0
M  V30 12563 O 1248.99 2.49308 -3.14974 0
M  V30 12564 N 1247.2 1.26806 -2.61474 0
M  V30 12565 H 1246.74 0.376161 -2.54839 0
M  V30 12566 H 1246.7 2.09324 -2.34587 0
M  V30 12567 N 1250.47 1.3842 -0.753509 0
M  V30 12568 C 1251.7 2.04403 -0.320449 0
M  V30 12569 C 1252.12 1.5683 1.05118 0
M  V30 12570 O 1251.47 0.741335 1.66765 0
M  V30 12571 C 1251.52 3.59954 -0.333937 0
M  V30 12572 O 1251.24 4.05782 -1.65144 0
M  V30 12573 C 1252.75 4.43156 0.112997 0
M  V30 12574 H 1249.97 0.656881 -0.136927 0
M  V30 12575 H 1252.51 1.77112 -1.02234 0
M  V30 12576 H 1250.66 3.86083 0.319215 0
M  V30 12577 H 1251.08 5.00213 -1.57757 0
M  V30 12578 H 1252.55 5.51975 0.0523995 0
M  V30 12579 H 1253.03 4.23581 1.16087 0
M  V30 12580 H 1253.64 4.22216 -0.511278 0
M  V30 12581 N 1251.95 0.502579 1.49372 0
M  V30 12582 C 1253.19 -0.0397257 2.04361 0
M  V30 12583 C 1253.55 -1.34131 1.37379 0
M  V30 12584 O 1254.76 -1.96795 1.83099 0
M  V30 12585 C 1253.03 -0.187322 3.56909 0
M  V30 12586 S 1254.59 -0.683647 4.33442 0
M  V30 12587 H 1251.4 -0.00102134 0.710999 0
M  V30 12588 H 1254.01 0.676905 1.83407 0
M  V30 12589 H 1252.71 0.765255 4.03202 0
M  V30 12590 H 1252.24 -0.929146 3.8227 0
M  V30 12591 H 1254.26 -1.95255 4.56169 0
M  V30 12592 N 1253.43 -1.55816 0.23648 0
M  V30 12593 C 1254.67 -1.98981 -0.391725 0
M  V30 12594 C 1255.01 -1.12428 -1.58346 0
M  V30 12595 O 1254.28 -0.185303 -1.93615 0
M  V30 12596 C 1254.57 -3.50831 -0.811759 0
M  V30 12597 C 1254.42 -4.48152 0.384648 0
M  V30 12598 C 1255.74 -4.07489 -1.66254 0
M  V30 12599 H 1252.86 -0.723404 -0.140911 0
M  V30 12600 H 1255.5 -1.87011 0.335706 0
M  V30 12601 H 1253.65 -3.61162 -1.43157 0
M  V30 12602 H 1255.32 -4.49814 1.02298 0
M  V30 12603 H 1253.56 -4.21406 1.02955 0
M  V30 12604 H 1254.23 -5.51979 0.0475809 0
M  V30 12605 H 1256.71 -4.00195 -1.13944 0
M  V30 12606 H 1255.59 -5.14026 -1.92531 0
M  V30 12607 H 1255.85 -3.55297 -2.6309 0
M  V30 12608 N 1254.91 0.036755 -1.57557 0
M  V30 12609 C 1256.15 0.734039 -1.90765 0
M  V30 12610 C 1256.51 1.7293 -0.834222 0
M  V30 12611 O 1257.71 2.47427 -1.0504 0
M  V30 12612 C 1255.98 1.39285 -3.29142 0
M  V30 12613 S 1257.54 2.12035 -3.8417 0
M  V30 12614 H 1254.36 0.243349 -0.668059 0
M  V30 12615 H 1256.96 -0.0110968 -1.95497 0
M  V30 12616 H 1255.67 0.655154 -4.05137 0
M  V30 12617 H 1255.2 2.17669 -3.27694 0
M  V30 12618 H 1257.21 3.39072 -3.62277 0
M  V30 12619 N 1256.39 1.54543 0.308881 0
M  V30 12620 C 1257.8 1.45581 0.654088 0
M  V30 12621 C 1258 0.640597 1.91046 0
M  V30 12622 O 1257.06 0.14518 2.52082 0
M  V30 12623 C 1258.37 2.89461 0.814422 0
M  V30 12624 C 1259.92 2.99455 0.910817 0
M  V30 12625 C 1260.39 4.44515 1.10321 0
M  V30 12626 N 1261.88 4.4819 1.1696 0
M  V30 12627 C 1262.62 5.57604 1.33661 0
M  V30 12628 N 1262.12 6.76957 1.47311 0
M  V30 12629 N 1263.91 5.45278 1.36487 0
M  V30 12630 H 1256.06 2.06019 -0.516699 0
M  V30 12631 H 1258.32 0.932729 -0.169471 0
M  V30 12632 H 1258.03 3.5168 -0.0377455 0
M  V30 12633 H 1257.9 3.36425 1.70582 0
M  V30 12634 H 1260.29 2.37355 1.75348 0
M  V30 12635 H 1260.37 2.558 -0.00443172 0
M  V30 12636 H 1260.01 5.07206 0.265346 0
M  V30 12637 H 1259.94 4.85793 2.03256 0
M  V30 12638 H 1262.44 3.62199 1.07796 0
M  V30 12639 H 1262.75 7.561 1.59788 0
M  V30 12640 H 1261.09 6.79837 1.44382 0
M  V30 12641 H 1264.28 4.50983 1.25429 0
M  V30 12642 H 1264.46 6.30599 1.4916 0
M  V30 12643 N 1257.86 -0.571685 1.46866 0
M  V30 12644 C 1259.14 -1.33216 1.43223 0
M  V30 12645 C 1259.52 -2.1075 0.121495 0
M  V30 12646 O 1258.87 -2.10157 -0.897003 0
M  V30 12647 C 1259.08 -2.24888 2.66882 0
M  V30 12648 C 1260.43 -2.86369 3.13493 0
M  V30 12649 O 1261.45 -2.35197 2.67509 0
M  V30 12650 O 1260.31 -3.79342 3.93398 0
M  V30 12651 H 1257.4 -0.599106 0.570089 0
M  V30 12652 H 1259.95 -0.591788 1.59047 0
M  V30 12653 H 1258.72 -1.67099 3.53827 0
M  V30 12654 H 1258.34 -3.06246 2.53573 0
M  V30 12655 N 1259.34 -1.34755 -0.817236 0
M  V30 12656 C 1260.76 -1.14561 -1.11121 0
M  V30 12657 C 1260.96 0.0490776 -2.0144 0
M  V30 12658 O 1260.01 0.722897 -2.41931 0
M  V30 12659 C 1261.33 -2.44356 -1.75244 0
M  V30 12660 C 1262.87 -2.50465 -1.87713 0
M  V30 12661 C 1263.35 -3.80276 -2.55253 0
M  V30 12662 N 1264.84 -3.81468 -2.62747 0
M  V30 12663 C 1265.58 -4.78634 -3.15749 0
M  V30 12664 N 1265.07 -5.86184 -3.6927 0
M  V30 12665 N 1266.86 -4.66083 -3.14203 0
M  V30 12666 H 1259.02 -2.11293 -0.2166 0
M  V30 12667 H 1261.28 -0.934629 -0.158661 0
M  V30 12668 H 1260.98 -3.31899 -1.16344 0
M  V30 12669 H 1260.86 -2.58117 -2.75055 0
M  V30 12670 H 1263.25 -1.63358 -2.45761 0
M  V30 12671 H 1263.33 -2.40627 -0.867887 0
M  V30 12672 H 1262.97 -4.67776 -1.97858 0
M  V30 12673 H 1262.9 -3.87399 -3.56693 0
M  V30 12674 H 1265.39 -3.03753 -2.24817 0
M  V30 12675 H 1265.7 -6.56332 -4.0798 0
M  V30 12676 H 1264.05 -5.8989 -3.67498 0
M  V30 12677 H 1267.24 -3.81206 -2.7166 0
M  V30 12678 H 1267.41 -5.41973 -3.55203 0
M  V30 12679 N 1260.82 1.03812 -1.18578 0
M  V30 12680 C 1261.77 2.11883 -0.915115 0
M  V30 12681 C 1262.74 1.65453 0.146479 0
M  V30 12682 O 1263.92 1.90799 0.00630058 0
M  V30 12683 C 1261.06 3.42157 -0.449755 0
M  V30 12684 C 1260.17 4.02185 -1.57706 0
M  V30 12685 C 1259.31 5.20431 -1.06417 0
M  V30 12686 C 1258.35 5.72496 -2.16599 0
M  V30 12687 N 1257.49 6.82027 -1.66685 0
M  V30 12688 H 1262.33 2.34373 -1.84047 0
M  V30 12689 H 1259.86 1.14962 -0.917728 0
M  V30 12690 H 1261.82 4.16888 -0.161407 0
M  V30 12691 H 1260.45 3.19806 0.438622 0
M  V30 12692 H 1259.5 3.24757 -1.98083 0
M  V30 12693 H 1260.81 4.36851 -2.40754 0
M  V30 12694 H 1259.97 6.02286 -0.730497 0
M  V30 12695 H 1258.71 4.87276 -0.203301 0
M  V30 12696 H 1257.71 4.8926 -2.50808 0
M  V30 12697 H 1258.94 6.07694 -3.03126 0
M  V30 12698 H 1256.88 6.50742 -0.828916 0
M  V30 12699 H 1256.8 7.1577 -2.43329 0
M  V30 12700 H 1258.07 7.67499 -1.36253 0
M  V30 12701 N 1262.3 0.988223 1.22768 0
M  V30 12702 C 1263.54 0.672085 1.91975 0
M  V30 12703 C 1263.9 -0.786719 1.7558 0
M  V30 12704 O 1263.19 -1.561 1.111 0
M  V30 12705 C 1263.39 1.00744 3.42907 0
M  V30 12706 C 1263.21 2.4973 3.73985 0
M  V30 12707 C 1261.98 3.16058 3.94253 0
M  V30 12708 C 1264.18 3.47831 3.78838 0
M  V30 12709 N 1262.16 4.54568 4.12603 0
M  V30 12710 C 1263.54 4.7178 4.02273 0
M  V30 12711 C 1265.59 3.42203 3.61665 0
M  V30 12712 C 1264.29 5.90789 4.10318 0
M  V30 12713 C 1266.32 4.60584 3.70967 0
M  V30 12714 C 1265.68 5.83331 3.94847 0
M  V30 12715 H 1261.78 0.297129 0.723352 0
M  V30 12716 H 1264.36 1.26728 1.47811 0
M  V30 12717 H 1262.54 0.440869 3.8589 0
M  V30 12718 H 1264.27 0.647774 3.99482 0
M  V30 12719 H 1261.02 2.66536 3.91479 0
M  V30 12720 H 1261.45 5.26399 4.25715 0
M  V30 12721 H 1266.09 2.48323 3.42193 0
M  V30 12722 H 1263.81 6.85078 4.28596 0
M  V30 12723 H 1267.39 4.57813 3.59024 0
M  V30 12724 H 1266.27 6.73403 4.01868 0
M  V30 12725 N 1263.78 -1.38018 0.760839 0
M  V30 12726 C 1264.72 -2.32251 0.127425 0
M  V30 12727 C 1265.72 -1.54387 -0.69722 0
M  V30 12728 O 1266.92 -1.69864 -0.595505 0
M  V30 12729 H 1263.3 -0.751666 0.0224141 0
M  V30 12730 H 1265.27 -2.8327 0.93813 0
M  V30 12731 C 1264.02 -3.39606 -0.745849 0
M  V30 12732 H 1263.34 -3.99618 -0.120679 0
M  V30 12733 H 1264.78 -4.07931 -1.15621 0
M  V30 12734 C 1263.24 -2.78778 -1.89167 0
M  V30 12735 O 1263.77 -2.68661 -2.98637 0
M  V30 12736 N 1261.98 -2.36481 -1.68894 0
M  V30 12737 H 1261.52 -2.4491 -0.798551 0
M  V30 12738 H 1261.48 -1.96126 -2.45728 0
M  V30 12739 N 1265.25 -0.510493 -1.49103 0
M  V30 12740 C 1266.49 0.0288873 -2.0438 0
M  V30 12741 C 1266.86 1.334 -1.38088 0
M  V30 12742 O 1268.06 1.95821 -1.8414 0
M  V30 12743 C 1266.33 0.168392 -3.57003 0
M  V30 12744 S 1267.89 0.660651 -4.33798 0
M  V30 12745 H 1264.71 -0.00274928 -0.710995 0
M  V30 12746 H 1267.31 -0.686622 -1.83046 0
M  V30 12747 H 1266.01 -0.786627 -4.02791 0
M  V30 12748 H 1265.54 0.908861 -3.82757 0
M  V30 12749 H 1267.56 1.92833 -4.57198 0
M  V30 12750 N 1266.73 1.55688 -0.24474 0
M  V30 12751 C 1267.96 2.0329 0.384808 0
M  V30 12752 C 1268.37 1.12405 1.51692 0
M  V30 12753 O 1267.73 0.138056 1.81977 0
M  V30 12754 C 1267.78 3.50255 0.894635 0
M  V30 12755 O 1267.5 4.37677 -0.192365 0
M  V30 12756 C 1269 4.13608 1.59509 0
M  V30 12757 H 1266.22 0.664706 0.0916908 0
M  V30 12758 H 1268.77 2.01162 -0.367973 0
M  V30 12759 H 1266.92 3.52924 1.5976 0
M  V30 12760 H 1267.34 5.2414 0.194424 0
M  V30 12761 H 1268.81 5.1814 1.90356 0
M  V30 12762 H 1269.29 3.5997 2.51631 0
M  V30 12763 H 1269.89 4.14856 0.936749 0
M  V30 12764 N 1268.21 -0.0283989 1.57574 0
M  V30 12765 C 1269.49 -0.754527 1.80461 0
M  V30 12766 C 1269.87 -1.93539 0.842966 0
M  V30 12767 O 1269.21 -2.28212 -0.114714 0
M  V30 12768 C 1269.42 -1.18694 3.28196 0
M  V30 12769 C 1270.77 -1.60257 3.93196 0
M  V30 12770 O 1271.8 -1.2815 3.32349 0
M  V30 12771 O 1270.66 -2.19853 5.00327 0
M  V30 12772 H 1267.75 -0.364936 0.742126 0
M  V30 12773 H 1270.3 -0.00512589 1.69699 0
M  V30 12774 H 1269.07 -0.34398 3.89785 0
M  V30 12775 H 1268.69 -1.99633 3.43849 0
M  V30 12776 N 1269.69 -1.54705 -0.300681 0
M  V30 12777 C 1270.64 -1.82062 -1.37249 0
M  V30 12778 C 1271.62 -0.677804 -1.45927 0
M  V30 12779 O 1272.81 -0.938447 -1.50074 0
M  V30 12780 C 1269.94 -2.07168 -2.73745 0
M  V30 12781 C 1269.03 -3.27634 -2.69289 0
M  V30 12782 N 1269.42 -4.48182 -2.34449 0
M  V30 12783 C 1267.72 -3.29668 -3.00391 0
M  V30 12784 C 1268.42 -5.30199 -2.39298 0
M  V30 12785 N 1267.39 -4.67929 -2.76665 0
M  V30 12786 H 1271.2 -2.72829 -1.09277 0
M  V30 12787 H 1268.71 -1.54209 -0.509259 0
M  V30 12788 H 1270.71 -2.24914 -3.51026 0
M  V30 12789 H 1269.37 -1.17668 -3.02629 0
M  V30 12790 H 1270.38 -4.74778 -2.06898 0
M  V30 12791 H 1267.06 -2.50276 -3.34168 0
M  V30 12792 H 1268.45 -6.36519 -2.15157 0
M  V30 12793 N 1271.17 0.563888 -1.47167 0
M  V30 12794 C 1272.41 1.32331 -1.53676 0
M  V30 12795 C 1272.75 1.93213 -0.195593 0
M  V30 12796 O 1272.02 1.77508 0.795068 0
M  V30 12797 C 1272.3 2.43848 -2.64972 0
M  V30 12798 C 1272.16 1.8788 -4.08682 0
M  V30 12799 C 1273.48 3.45809 -2.72221 0
M  V30 12800 H 1270.59 0.479791 -0.559437 0
M  V30 12801 H 1273.24 0.631669 -1.79192 0
M  V30 12802 H 1271.39 3.02846 -2.43345 0
M  V30 12803 H 1273.06 1.33195 -4.41652 0
M  V30 12804 H 1271.3 1.18593 -4.17275 0
M  V30 12805 H 1271.97 2.68465 -4.82318 0
M  V30 12806 H 1274.45 2.9672 -2.91713 0
M  V30 12807 H 1273.32 4.21272 -3.51882 0
M  V30 12808 H 1273.59 4.04236 -1.79014 0
M  V30 12809 N 1272.64 1.35187 0.810078 0
M  V30 12810 C 1273.88 1.29626 1.58039 0
M  V30 12811 C 1274.25 -0.12865 1.91569 0
M  V30 12812 O 1275.45 -0.308587 2.67023 0
M  V30 12813 C 1273.72 2.17414 2.83665 0
M  V30 12814 S 1275.28 2.29334 3.741 0
M  V30 12815 H 1272.1 0.460722 0.541531 0
M  V30 12816 H 1274.7 1.7054 0.955839 0
M  V30 12817 H 1273.4 3.19927 2.57051 0
M  V30 12818 H 1272.93 1.77444 3.51108 0
M  V30 12819 H 1274.95 1.47559 4.73752 0
M  V30 12820 N 1274.12 -1.03182 1.19127 0
M  V30 12821 C 1275.4 -1.73586 0.901507 0
M  V30 12822 C 1275.78 -2.02585 -0.593521 0
M  V30 12823 O 1275.13 -1.67813 -1.55084 0
M  V30 12824 C 1275.34 -3.01472 1.75829 0
M  V30 12825 C 1276.69 -3.75037 1.99078 0
M  V30 12826 O 1277.71 -3.11392 1.72956 0
M  V30 12827 O 1276.57 -4.8945 2.43108 0
M  V30 12828 H 1273.66 -0.755797 0.335708 0
M  V30 12829 H 1276.21 -1.09167 1.29925 0
M  V30 12830 H 1274.98 -2.76247 2.77134 0
M  V30 12831 H 1274.6 -3.73631 1.35963 0
M  V30 12832 N 1275.6 -0.99472 -1.22242 0
M  V30 12833 C 1276.56 -0.551619 -2.22463 0
M  V30 12834 C 1277.56 0.366498 -1.56568 0
M  V30 12835 O 1278.75 0.158204 -1.7348 0
M  V30 12836 C 1275.89 0.197416 -3.40328 0
M  V30 12837 H 1277.08 -1.43795 -2.63179 0
M  V30 12838 H 1274.63 -0.782121 -1.35324 0
M  V30 12839 H 1275.37 1.09965 -3.05087 0
M  V30 12840 H 1275.15 -0.461829 -3.89371 0
M  V30 12841 H 1276.64 0.495534 -4.1465 0
M  V30 12842 N 1277.08 1.37613 -0.768148 0
M  V30 12843 C 1278.31 2.04052 -0.342111 0
M  V30 12844 C 1278.72 1.57936 1.03449 0
M  V30 12845 O 1278.08 0.758981 1.65969 0
M  V30 12846 C 1278.13 3.5958 -0.372096 0
M  V30 12847 O 1277.85 4.04008 -1.69439 0
M  V30 12848 C 1279.35 4.43251 0.0659884 0
M  V30 12849 H 1276.57 0.655391 -0.143886 0
M  V30 12850 H 1279.12 1.76017 -1.04107 0
M  V30 12851 H 1277.27 3.86399 0.278248 0
M  V30 12852 H 1277.68 4.98511 -1.63054 0
M  V30 12853 H 1279.16 5.52 -0.00614775 0
M  V30 12854 H 1279.64 4.24788 1.11588 0
M  V30 12855 H 1280.24 4.2165 -0.55603 0
M  V30 12856 N 1278.56 0.518393 1.4883 0
M  V30 12857 C 1279.8 -0.0180482 2.04392 0
M  V30 12858 C 1280.16 -1.32666 1.38794 0
M  V30 12859 O 1281.36 -1.94842 1.85176 0
M  V30 12860 C 1279.63 -0.149457 3.57087 0
M  V30 12861 S 1281.19 -0.637636 4.34142 0
M  V30 12862 H 1278.01 0.00651981 0.71097 0
M  V30 12863 H 1280.61 0.69632 1.82679 0
M  V30 12864 H 1279.32 0.807977 4.02368 0
M  V30 12865 H 1278.85 -0.888549 3.83234 0
M  V30 12866 H 1280.86 -1.90406 4.58214 0
M  V30 12867 N 1280.03 -1.55556 0.252993 0
M  V30 12868 C 1281.26 -2.03945 -0.376965 0
M  V30 12869 C 1281.68 -1.13089 -1.50308 0
M  V30 12870 O 1281.04 -0.125039 -1.80868 0
M  V30 12871 C 1281.09 -3.50284 -0.856363 0
M  V30 12872 O 1280.19 -3.62551 -1.96546 0
M  V30 12873 H 1279.54 -0.659002 -0.081317 0
M  V30 12874 H 1282.07 -2.01024 0.380831 0
M  V30 12875 H 1282.08 -3.91222 -1.15798 0
M  V30 12876 H 1280.75 -4.15887 -0.0323302 0
M  V30 12877 H 1279.33 -3.33511 -1.66808 0
M  V30 12878 N 1281.51 0.0200419 -1.57587 0
M  V30 12879 C 1282.74 0.720556 -1.93947 0
M  V30 12880 C 1283.16 1.68407 -0.853499 0
M  V30 12881 O 1282.51 1.81713 0.169337 0
M  V30 12882 C 1282.56 1.46982 -3.3027 0
M  V30 12883 O 1282.28 0.544971 -4.34697 0
M  V30 12884 C 1283.79 2.26667 -3.80968 0
M  V30 12885 H 1281.01 0.201956 -0.639887 0
M  V30 12886 H 1283.55 -0.0251175 -2.04485 0
M  V30 12887 H 1281.7 2.16729 -3.21103 0
M  V30 12888 H 1282.12 1.07139 -5.13441 0
M  V30 12889 H 1283.59 2.74621 -4.78839 0
M  V30 12890 H 1284.07 3.0848 -3.12629 0
M  V30 12891 H 1284.68 1.61976 -3.93248 0
M  V30 12892 N 1282.99 1.54862 0.292472 0
M  V30 12893 C 1284.24 1.73756 1.02429 0
M  V30 12894 C 1284.55 0.535164 1.88137 0
M  V30 12895 O 1285.76 0.606092 2.64648 0
M  V30 12896 C 1284.21 3.0745 1.8709 0
M  V30 12897 C 1283.82 4.35195 1.06343 0
M  V30 12898 C 1285.57 3.357 2.59819 0
M  V30 12899 C 1283.47 5.59936 1.9033 0
M  V30 12900 H 1282.4 0.647617 0.386145 0
M  V30 12901 H 1285.05 1.81338 0.28086 0
M  V30 12902 H 1283.44 2.93855 2.65453 0
M  V30 12903 H 1284.61 4.5965 0.325335 0
M  V30 12904 H 1282.93 4.13944 0.451574 0
M  V30 12905 H 1285.52 4.26099 3.23023 0
M  V30 12906 H 1285.87 2.54956 3.29094 0
M  V30 12907 H 1286.4 3.50304 1.88499 0
M  V30 12908 H 1283.14 6.43372 1.25509 0
M  V30 12909 H 1282.66 5.39654 2.61789 0
M  V30 12910 H 1284.34 5.97512 2.48171 0
M  V30 12911 N 1284.47 -0.556076 1.47464 0
M  V30 12912 C 1285.72 -1.31061 1.53842 0
M  V30 12913 C 1286.04 -1.93943 0.202806 0
M  V30 12914 O 1285.31 -1.7999 -0.773338 0
M  V30 12915 H 1283.89 -0.486696 0.566689 0
M  V30 12916 H 1286.55 -0.64924 1.83769 0
M  V30 12917 H 1285.65 -2.10354 2.30559 0
M  V30 12918 N 1285.95 -1.35615 -0.802897 0
M  V30 12919 C 1286.88 -1.23192 -1.92091 0
M  V30 12920 C 1287.86 -0.118995 -1.62164 0
M  V30 12921 O 1289.04 -0.287743 -1.86291 0
M  V30 12922 C 1286.17 -0.897699 -3.26587 0
M  V30 12923 C 1285.22 -2.02319 -3.75459 0
M  V30 12924 S 1286.05 -3.63938 -3.92822 0
M  V30 12925 C 1287.2 -3.32601 -5.30215 0
M  V30 12926 H 1287.44 -2.17825 -2.02335 0
M  V30 12927 H 1284.97 -1.20873 -0.960675 0
M  V30 12928 H 1286.93 -0.711674 -4.04284 0
M  V30 12929 H 1285.59 0.0306305 -3.14085 0
M  V30 12930 H 1284.78 -1.74357 -4.7288 0
M  V30 12931 H 1284.38 -2.16774 -3.04771 0
M  V30 12932 H 1286.68 -2.85658 -6.14334 0
M  V30 12933 H 1287.62 -4.29236 -5.63172 0
M  V30 12934 H 1288.03 -2.68279 -4.96676 0
M  V30 12935 N 1287.43 1.02549 -1.19673 0
M  V30 12936 C 1288.39 2.09064 -0.939407 0
M  V30 12937 C 1289.39 1.60593 0.0814837 0
M  V30 12938 O 1290.58 1.73521 -0.153626 0
M  V30 12939 C 1287.71 3.38395 -0.412513 0
M  V30 12940 H 1288.9 2.33325 -1.88413 0
M  V30 12941 H 1286.46 1.19211 -1.01086 0
M  V30 12942 H 1287.19 3.19805 0.538094 0
M  V30 12943 H 1286.98 3.74898 -1.14863 0
M  V30 12944 H 1288.47 4.16841 -0.251678 0
M  V30 12945 N 1288.9 1.00119 1.21713 0
M  V30 12946 C 1289.85 0.529464 2.21767 0
M  V30 12947 C 1290.84 -0.406858 1.55671 0
M  V30 12948 O 1292.03 -0.232329 1.75469 0
M  V30 12949 C 1289.16 -0.146336 3.42988 0
M  V30 12950 C 1288.24 0.81078 4.16278 0
M  V30 12951 N 1288.64 1.96204 4.66195 0
M  V30 12952 C 1286.93 0.628371 4.41551 0
M  V30 12953 C 1287.63 2.56346 5.2217 0
M  V30 12954 N 1286.61 1.8454 5.11318 0
M  V30 12955 H 1290.41 1.40738 2.58012 0
M  V30 12956 H 1287.93 0.864518 1.37477 0
M  V30 12957 H 1289.92 -0.501726 4.1387 0
M  V30 12958 H 1288.58 -1.02029 3.08254 0
M  V30 12959 H 1289.59 2.34255 4.61893 0
M  V30 12960 H 1286.27 -0.198819 4.17026 0
M  V30 12961 H 1287.66 3.53688 5.71274 0
M  V30 12962 N 1290.38 -1.37203 0.775435 0
M  V30 12963 C 1291.61 -2.03572 0.352416 0
M  V30 12964 C 1292.02 -1.58612 -1.03145 0
M  V30 12965 O 1291.36 -0.764478 -1.67037 0
M  V30 12966 C 1291.42 -3.58064 0.321026 0
M  V30 12967 C 1291.09 -4.2617 1.6501 0
M  V30 12968 C 1292.09 -4.50034 2.60318 0
M  V30 12969 C 1289.77 -4.63927 1.92555 0
M  V30 12970 C 1291.76 -5.10716 3.81376 0
M  V30 12971 C 1289.45 -5.24329 3.13883 0
M  V30 12972 C 1290.45 -5.47661 4.08113 0
M  V30 12973 O 1290.14 -6.068 5.27304 0
M  V30 12974 H 1289.87 -0.660231 0.145159 0
M  V30 12975 H 1292.42 -1.76446 1.05148 0
M  V30 12976 H 1290.65 -3.84252 -0.434439 0
M  V30 12977 H 1292.34 -4.0583 -0.0754241 0
M  V30 12978 H 1293.11 -4.21273 2.4032 0
M  V30 12979 H 1288.99 -4.45098 1.20036 0
M  V30 12980 H 1292.53 -5.28844 4.5494 0
M  V30 12981 H 1288.43 -5.52514 3.33765 0
M  V30 12982 H 1289.2 -6.25276 5.28179 0
M  V30 12983 N 1291.86 -0.526279 -1.48553 0
M  V30 12984 C 1292.79 0.227364 -2.3239 0
M  V30 12985 C 1293.77 0.93862 -1.41859 0
M  V30 12986 O 1294.96 0.925119 -1.70749 0
M  V30 12987 C 1292.09 1.277 -3.22971 0
M  V30 12988 C 1291.04 0.684107 -4.22497 0
M  V30 12989 C 1290.37 1.83612 -5.02186 0
M  V30 12990 C 1291.67 -0.341723 -5.21181 0
M  V30 12991 H 1293.36 -0.472486 -2.95648 0
M  V30 12992 H 1290.91 -0.228669 -1.42173 0
M  V30 12993 H 1292.86 1.81215 -3.80446 0
M  V30 12994 H 1291.58 2.00638 -2.57705 0
M  V30 12995 H 1290.24 0.170505 -3.66203 0
M  V30 12996 H 1289.89 2.55379 -4.33348 0
M  V30 12997 H 1289.59 1.44536 -5.69547 0
M  V30 12998 H 1291.11 2.37513 -5.62512 0
M  V30 12999 H 1292.53 0.106207 -5.73202 0
M  V30 13000 H 1290.92 -0.649673 -5.96573 0
M  V30 13001 H 1291.99 -1.2488 -4.68543 0
M  V30 13002 N 1293.34 1.5542 -0.261239 0
M  V30 13003 C 1294.57 2.03687 0.363225 0
M  V30 13004 C 1294.98 1.14007 1.50492 0
M  V30 13005 O 1294.34 0.157349 1.8182 0
M  V30 13006 C 1294.39 3.51184 0.857435 0
M  V30 13007 O 1294.11 4.37449 -0.238776 0
M  V30 13008 C 1295.61 4.15277 1.55113 0
M  V30 13009 H 1292.83 0.665641 0.0846356 0
M  V30 13010 H 1295.37 2.00761 -0.389288 0
M  V30 13011 H 1293.53 3.54599 1.56008 0
M  V30 13012 H 1293.94 5.24316 0.138821 0
M  V30 13013 H 1295.42 5.20129 1.8485 0
M  V30 13014 H 1295.89 3.62619 2.47799 0
M  V30 13015 H 1296.5 4.15826 0.892695 0
M  V30 13016 N 1294.82 -0.0116844 1.57596 0
M  V30 13017 C 1296.06 -0.698958 1.90055 0
M  V30 13018 C 1296.39 -1.74422 0.860659 0
M  V30 13019 O 1295.65 -1.95226 -0.136132 0
M  V30 13020 C 1295.94 -1.38985 3.29269 0
M  V30 13021 C 1295.61 -0.478916 4.48349 0
M  V30 13022 C 1294.27 -0.228071 4.80659 0
M  V30 13023 C 1296.62 0.14897 5.20987 0
M  V30 13024 C 1293.95 0.659147 5.82986 0
M  V30 13025 C 1296.3 1.02399 6.24257 0
M  V30 13026 C 1294.97 1.28413 6.55032 0
M  V30 13027 H 1294.24 -0.255767 0.69546 0
M  V30 13028 H 1296.89 0.0413339 1.91455 0
M  V30 13029 H 1295.19 -2.2039 3.23937 0
M  V30 13030 H 1296.89 -1.92747 3.51638 0
M  V30 13031 H 1293.48 -0.68459 4.23097 0
M  V30 13032 H 1297.66 -0.0318326 4.9629 0
M  V30 13033 H 1292.92 0.86882 6.05195 0
M  V30 13034 H 1297.09 1.51694 6.79678 0
M  V30 13035 H 1294.72 1.97332 7.34142 0
M  V30 13036 N 1296.29 -1.55015 -0.284256 0
M  V30 13037 C 1297.57 -1.6579 -1.03794 0
M  V30 13038 C 1297.95 -0.517029 -2.04671 0
M  V30 13039 O 1297.3 0.484287 -2.23309 0
M  V30 13040 C 1297.51 -3.04527 -1.70483 0
M  V30 13041 C 1298.86 -3.61903 -2.22062 0
M  V30 13042 O 1299.88 -3.07087 -1.80488 0
M  V30 13043 O 1298.74 -4.57917 -2.98286 0
M  V30 13044 H 1295.83 -0.672906 -0.480757 0
M  V30 13045 H 1298.38 -1.67357 -0.281009 0
M  V30 13046 H 1297.15 -3.79004 -0.973238 0
M  V30 13047 H 1296.77 -3.0681 -2.5289 0
M  V30 13048 N 1297.77 0.548248 -1.47757 0
M  V30 13049 C 1299.02 1.30243 -1.54535 0
M  V30 13050 C 1299.34 1.93832 -0.213089 0
M  V30 13051 O 1298.61 1.80397 0.763782 0
M  V30 13052 H 1297.19 0.483684 -0.569262 0
M  V30 13053 H 1299.85 0.639485 -1.8411 0
M  V30 13054 H 1298.95 2.09128 -2.31672 0
M  V30 13055 N 1299.25 1.36039 0.795694 0
M  V30 13056 C 1300.18 1.32528 1.92246 0
M  V30 13057 C 1301.16 0.197805 1.68946 0
M  V30 13058 O 1302.35 0.394474 1.90151 0
M  V30 13059 C 1299.48 1.10748 3.29169 0
M  V30 13060 C 1298.43 2.20253 3.66978 0
M  V30 13061 C 1297.76 1.83624 5.02181 0
M  V30 13062 C 1299.06 3.62296 3.76216 0
M  V30 13063 H 1300.75 2.2681 1.95442 0
M  V30 13064 H 1298.3 1.09181 0.938908 0
M  V30 13065 H 1300.25 1.06929 4.07608 0
M  V30 13066 H 1298.97 0.129141 3.26345 0
M  V30 13067 H 1297.63 2.23187 2.90832 0
M  V30 13068 H 1297.28 0.843804 4.95872 0
M  V30 13069 H 1296.98 2.56935 5.28449 0
M  V30 13070 H 1298.5 1.81349 5.83048 0
M  V30 13071 H 1299.92 3.61623 4.44861 0
M  V30 13072 H 1298.31 4.34459 4.13963 0
M  V30 13073 H 1299.38 3.97657 2.77483 0
M  V30 13074 N 1300.73 -1.01913 1.20215 0
M  V30 13075 C 1301.68 -2.104 0.948708 0
M  V30 13076 C 1302.65 -1.65665 -0.120139 0
M  V30 13077 O 1303.83 -1.90785 0.0240547 0
M  V30 13078 C 1300.97 -3.41398 0.504132 0
M  V30 13079 C 1300.08 -3.99625 1.64085 0
M  V30 13080 C 1299.22 -5.18673 1.14683 0
M  V30 13081 C 1298.26 -5.68977 2.2568 0
M  V30 13082 N 1297.39 -6.79289 1.77514 0
M  V30 13083 H 1302.23 -2.31415 1.87753 0
M  V30 13084 H 1299.77 -1.13487 0.935901 0
M  V30 13085 H 1301.73 -4.16578 0.22771 0
M  V30 13086 H 1300.36 -3.20463 -0.387689 0
M  V30 13087 H 1299.41 -3.21565 2.03225 0
M  V30 13088 H 1300.72 -4.32965 2.47674 0
M  V30 13089 H 1299.88 -6.01048 0.826223 0
M  V30 13090 H 1298.62 -4.86891 0.280797 0
M  V30 13091 H 1297.62 -4.85208 2.5856 0
M  V30 13092 H 1298.85 -6.02794 3.12755 0
M  V30 13093 H 1296.79 -6.49341 0.932338 0
M  V30 13094 H 1296.71 -7.11808 2.54686 0
M  V30 13095 H 1297.98 -7.65235 1.48446 0
M  V30 13096 N 1302.21 -1.00763 -1.2118 0
M  V30 13097 C 1303.44 -0.709715 -1.94027 0
M  V30 13098 C 1303.84 0.732135 -1.7446 0
M  V30 13099 O 1303.19 1.50731 -1.05004 0
M  V30 13100 C 1303.25 -0.95427 -3.46603 0
M  V30 13101 C 1302.91 -2.38347 -3.89923 0
M  V30 13102 C 1303.91 -3.36383 -3.96412 0
M  V30 13103 C 1301.6 -2.72183 -4.22163 0
M  V30 13104 C 1303.59 -4.66321 -4.34538 0
M  V30 13105 C 1301.28 -4.02336 -4.59966 0
M  V30 13106 C 1302.27 -4.99216 -4.66125 0
M  V30 13107 O 1301.96 -6.27041 -5.03065 0
M  V30 13108 H 1301.69 -0.260545 -0.623773 0
M  V30 13109 H 1304.25 -1.34922 -1.54872 0
M  V30 13110 H 1302.48 -0.257599 -3.85841 0
M  V30 13111 H 1304.17 -0.649333 -4.00673 0
M  V30 13112 H 1304.93 -3.11578 -3.71677 0
M  V30 13113 H 1300.81 -1.97468 -4.16566 0
M  V30 13114 H 1304.36 -5.41938 -4.3926 0
M  V30 13115 H 1300.25 -4.26924 -4.84155 0
M  V30 13116 H 1301.02 -6.31196 -5.21089 0
M  V30 13117 N 1303.68 1.3679 -0.7827 0
M  V30 13118 C 1304.61 2.32721 -0.190604 0
M  V30 13119 C 1305.6 1.56321 0.670663 0
M  V30 13120 O 1306.78 1.84507 0.605871 0
M  V30 13121 C 1303.91 3.40564 0.680717 0
M  V30 13122 C 1302.86 4.27925 -0.080118 0
M  V30 13123 C 1302.19 5.26876 0.911361 0
M  V30 13124 C 1303.49 5.06738 -1.26545 0
M  V30 13125 H 1305.18 2.82488 -0.992023 0
M  V30 13126 H 1302.73 1.35818 -0.478484 0
M  V30 13127 H 1304.68 4.06659 1.10482 0
M  V30 13128 H 1303.41 2.89348 1.51477 0
M  V30 13129 H 1302.07 3.63376 -0.485125 0
M  V30 13130 H 1301.71 4.71936 1.74026 0
M  V30 13131 H 1301.41 5.8619 0.406762 0
M  V30 13132 H 1302.94 5.95846 1.33418 0
M  V30 13133 H 1304.35 5.65911 -0.917448 0
M  V30 13134 H 1302.75 5.75432 -1.70289 0
M  V30 13135 H 1303.82 4.38772 -2.06415 0
M  V30 13136 N 1305.16 0.53415 1.48272 0
M  V30 13137 C 1306.41 0.00157259 2.025 0
M  V30 13138 C 1306.74 -1.33886 1.41085 0
M  V30 13139 O 1305.99 -1.87884 0.547544 0
M  V30 13140 C 1306.29 -0.165144 3.57018 0
M  V30 13141 C 1305.96 1.10146 4.3724 0
M  V30 13142 C 1304.62 1.44857 4.58879 0
M  V30 13143 C 1306.97 1.94183 4.83676 0
M  V30 13144 C 1304.3 2.63497 5.24201 0
M  V30 13145 C 1306.65 3.12005 5.50305 0
M  V30 13146 C 1305.32 3.47058 5.70182 0
M  V30 13147 H 1304.59 0.00057545 0.741 0
M  V30 13148 H 1307.23 0.701014 1.78208 0
M  V30 13149 H 1305.54 -0.947384 3.80173 0
M  V30 13150 H 1307.23 -0.592202 3.96603 0
M  V30 13151 H 1303.82 0.821132 4.20661 0
M  V30 13152 H 1308.01 1.68677 4.66757 0
M  V30 13153 H 1303.26 2.90852 5.37787 0
M  V30 13154 H 1307.44 3.77426 5.85254 0
M  V30 13155 H 1305.07 4.39086 6.2057 0
M  V30 13156 N 1306.64 -1.55279 0.269478 0
M  V30 13157 C 1308.05 -1.85286 -0.229372 0
M  V30 13158 C 1308.4 -1.19148 -1.55879 0
M  V30 13159 O 1307.53 -0.4778 -2.11059 0
M  V30 13160 C 1308.12 -3.3615 -0.42296 0
M  V30 13161 C 1306.68 -3.66301 -0.866047 0
M  V30 13162 C 1305.83 -2.77265 0.0439028 0
M  V30 13163 H 1308.78 -1.509 0.491427 0
M  V30 13164 H 1308.8 -3.5895 -1.26234 0
M  V30 13165 H 1308.31 -3.84258 0.544768 0
M  V30 13166 H 1306.41 -3.23688 -1.84545 0
M  V30 13167 H 1306.53 -4.73851 -0.707274 0
M  V30 13168 H 1304.89 -2.50299 -0.471433 0
M  V30 13169 H 1305.67 -3.28186 1.00741 0
M  V30 13170 N 1308.12 0.00332656 -1.576 0
M  V30 13171 C 1309.37 0.687508 -1.90047 0
M  V30 13172 C 1309.69 1.74497 -0.870388 0
M  V30 13173 O 1308.96 1.95681 0.0926544 0
M  V30 13174 H 1307.54 0.256924 -0.701426 0
M  V30 13175 H 1310.2 -0.0368129 -1.94865 0
M  V30 13176 H 1309.3 1.16086 -2.89707 0
M  V30 13177 N 1309.6 1.55164 0.276031 0
M  V30 13178 C 1310.51 1.90928 1.36321 0
M  V30 13179 C 1311.52 0.806183 1.54197 0
M  V30 13180 O 1312.7 1.10497 1.68382 0
M  V30 13181 C 1309.76 2.17123 2.70293 0
M  V30 13182 C 1308.82 3.40703 2.6119 0
M  V30 13183 C 1308.06 3.65638 3.88773 0
M  V30 13184 O 1308.28 2.93137 4.89313 0
M  V30 13185 O 1307.21 4.59172 3.89159 0
M  V30 13186 H 1311.04 2.8347 1.08988 0
M  V30 13187 H 1308.63 1.41672 0.474292 0
M  V30 13188 H 1310.51 2.3541 3.49514 0
M  V30 13189 H 1309.18 1.27765 2.97419 0
M  V30 13190 H 1308.09 3.27754 1.80355 0
M  V30 13191 H 1309.42 4.30271 2.39014 0
M  V30 13192 N 1311.07 -0.540404 1.48045 0
M  V30 13193 C 1312.31 -1.30737 1.57121 0
M  V30 13194 C 1312.68 -1.90554 0.23518 0
M  V30 13195 O 1313.88 -2.68048 0.20087 0
M  V30 13196 C 1312.15 -2.37539 2.6704 0
M  V30 13197 S 1313.71 -3.241 2.95812 0
M  V30 13198 H 1310.53 -0.444856 0.554639 0
M  V30 13199 H 1313.13 -0.61683 1.85514 0
M  V30 13200 H 1311.83 -1.92057 3.62688 0
M  V30 13201 H 1311.36 -3.11313 2.40515 0
M  V30 13202 H 1313.38 -4.37393 2.34311 0
M  V30 13203 N 1312.55 -1.36459 -0.788468 0
M  V30 13204 C 1313.48 -1.26727 -1.90979 0
M  V30 13205 C 1314.5 -0.186572 -1.61727 0
M  V30 13206 O 1315.69 -0.441364 -1.72957 0
M  V30 13207 C 1312.79 -0.932838 -3.25809 0
M  V30 13208 C 1311.96 -2.11562 -3.82832 0
M  V30 13209 C 1311.02 -1.75409 -4.96103 0
M  V30 13210 O 1310.04 -2.47508 -5.1257 0
M  V30 13211 N 1311.25 -0.688327 -5.76405 0
M  V30 13212 H 1314.01 -2.2334 -1.99848 0
M  V30 13213 H 1311.57 -1.29865 -0.966784 0
M  V30 13214 H 1313.56 -0.672131 -3.9908 0
M  V30 13215 H 1312.13 -0.0558103 -3.1255 0
M  V30 13216 H 1311.35 -2.53907 -3.01538 0
M  V30 13217 H 1312.64 -2.9058 -4.17661 0
M  V30 13218 H 1312.04 -0.0896854 -5.65629 0
M  V30 13219 H 1310.6 -0.487446 -6.49975 0
M  V30 13220 N 1314.03 1.01274 -1.20754 0
M  V30 13221 C 1315.26 1.78265 -1.04427 0
M  V30 13222 C 1315.67 1.84718 0.409361 0
M  V30 13223 O 1315.01 1.30195 1.29595 0
M  V30 13224 C 1315.07 3.24037 -1.55693 0
M  V30 13225 C 1314.74 3.41181 -3.04047 0
M  V30 13226 C 1315.73 3.30087 -4.0167 0
M  V30 13227 C 1313.42 3.66872 -3.43089 0
M  V30 13228 C 1315.41 3.44436 -5.36323 0
M  V30 13229 C 1313.1 3.80865 -4.77896 0
M  V30 13230 C 1314.1 3.69652 -5.74322 0
M  V30 13231 O 1313.79 3.83211 -7.06686 0
M  V30 13232 H 1313.52 0.567327 -0.367582 0
M  V30 13233 H 1316.07 1.28336 -1.60372 0
M  V30 13234 H 1314.3 3.75067 -0.941382 0
M  V30 13235 H 1315.99 3.82676 -1.35328 0
M  V30 13236 H 1316.76 3.10172 -3.72852 0
M  V30 13237 H 1312.64 3.74685 -2.68574 0
M  V30 13238 H 1316.18 3.35601 -6.1157 0
M  V30 13239 H 1312.08 4.00282 -5.06403 0
M  V30 13240 H 1312.85 4.00205 -7.13987 0
M  V30 13241 N 1315.51 1.01404 1.20644 0
M  V30 13242 C 1316.76 0.702949 1.90227 0
M  V30 13243 C 1317.09 -0.765243 1.78487 0
M  V30 13244 O 1316.36 -1.55569 1.16741 0
M  V30 13245 C 1316.65 1.13606 3.4171 0
M  V30 13246 C 1316.5 2.66437 3.62397 0
M  V30 13247 C 1317.82 0.705361 4.34411 0
M  V30 13248 H 1314.94 0.256842 0.690797 0
M  V30 13249 H 1317.58 1.26133 1.42093 0
M  V30 13250 H 1315.73 0.660977 3.82836 0
M  V30 13251 H 1317.4 3.21778 3.3054 0
M  V30 13252 H 1315.64 3.0753 3.05954 0
M  V30 13253 H 1316.32 2.91795 4.68572 0
M  V30 13254 H 1318.79 1.11375 4.00918 0
M  V30 13255 H 1317.67 1.03647 5.39026 0
M  V30 13256 H 1317.93 -0.393094 4.40349 0
M  V30 13257 N 1316.99 -1.36373 0.789944 0
M  V30 13258 C 1317.92 -2.32616 0.202944 0
M  V30 13259 C 1318.9 -1.56674 -0.662364 0
M  V30 13260 O 1320.08 -1.84826 -0.596078 0
M  V30 13261 C 1317.21 -3.4092 -0.662646 0
M  V30 13262 C 1316.17 -4.27877 0.102811 0
M  V30 13263 C 1315.49 -5.27352 -0.883407 0
M  V30 13264 C 1316.79 -5.0606 1.29231 0
M  V30 13265 H 1318.49 -2.81958 1.00699 0
M  V30 13266 H 1316.03 -1.35562 0.48568 0
M  V30 13267 H 1317.99 -4.07239 -1.08324 0
M  V30 13268 H 1316.71 -2.90147 -1.4994 0
M  V30 13269 H 1315.37 -3.63114 0.504389 0
M  V30 13270 H 1315.02 -4.72853 -1.71521 0
M  V30 13271 H 1314.72 -5.86398 -0.375669 0
M  V30 13272 H 1316.24 -5.96545 -1.30256 0
M  V30 13273 H 1317.66 -5.65417 0.947446 0
M  V30 13274 H 1316.05 -5.74521 1.73338 0
M  V30 13275 H 1317.12 -4.37671 2.08739 0
M  V30 13276 N 1318.47 -0.542005 -1.47987 0
M  V30 13277 C 1319.71 -0.0123299 -2.02796 0
M  V30 13278 C 1320.04 1.32789 -1.41707 0
M  V30 13279 O 1319.32 1.86048 -0.567119 0
M  V30 13280 C 1319.6 0.0969277 -3.5997 0
M  V30 13281 C 1319.46 -1.26931 -4.31519 0
M  V30 13282 C 1320.77 0.817854 -4.32434 0
M  V30 13283 H 1317.89 -0.00595479 -0.736976 0
M  V30 13284 H 1320.54 -0.70136 -1.76581 0
M  V30 13285 H 1318.69 0.683755 -3.82436 0
M  V30 13286 H 1320.36 -1.89817 -4.20437 0
M  V30 13287 H 1318.6 -1.84804 -3.92467 0
M  V30 13288 H 1319.27 -1.14573 -5.39979 0
M  V30 13289 H 1321.75 0.319749 -4.1487 0
M  V30 13290 H 1320.62 0.863225 -5.4207 0
M  V30 13291 H 1320.88 1.87075 -4.00569 0
M  V30 13292 N 1319.94 1.55134 -0.277709 0
M  V30 13293 C 1320.88 2.20028 0.641913 0
M  V30 13294 C 1321.89 1.18578 1.11549 0
M  V30 13295 O 1323.08 1.45291 1.03695 0
M  V30 13296 C 1320.18 2.81443 1.88794 0
M  V30 13297 C 1319.35 4.08607 1.56074 0
M  V30 13298 C 1318.41 4.54045 2.6595 0
M  V30 13299 O 1317.44 5.19762 2.32026 0
M  V30 13300 N 1318.64 4.24403 3.96058 0
M  V30 13301 H 1321.4 2.99575 0.0864929 0
M  V30 13302 H 1318.96 1.61598 -0.0989178 0
M  V30 13303 H 1320.96 3.08784 2.616 0
M  V30 13304 H 1319.53 2.05873 2.35234 0
M  V30 13305 H 1318.75 3.88527 0.666388 0
M  V30 13306 H 1320.03 4.91455 1.31719 0
M  V30 13307 H 1319.43 3.71708 4.26439 0
M  V30 13308 H 1317.99 4.56509 4.65234 0
M  V30 13309 N 1321.42 0.00503138 1.57599 0
M  V30 13310 C 1322.7 -0.716079 1.82021 0
M  V30 13311 C 1323.08 -1.91707 0.883829 0
M  V30 13312 O 1322.43 -2.28404 -0.0662812 0
M  V30 13313 C 1322.64 -1.11706 3.3064 0
M  V30 13314 C 1323.98 -1.51881 3.96506 0
M  V30 13315 O 1325.01 -1.21071 3.34993 0
M  V30 13316 O 1323.87 -2.09191 5.04877 0
M  V30 13317 H 1320.96 -0.349112 0.7497 0
M  V30 13318 H 1323.51 0.030871 1.69672 0
M  V30 13319 H 1322.28 -0.261223 3.90427 0
M  V30 13320 H 1321.9 -1.92295 3.48006 0
M  V30 13321 N 1322.9 -1.55308 -0.267798 0
M  V30 13322 C 1324.13 -1.79929 -1.01533 0
M  V30 13323 C 1324.54 -0.57545 -1.80237 0
M  V30 13324 O 1323.88 0.465072 -1.77715 0
M  V30 13325 C 1323.94 -2.97568 -2.01726 0
M  V30 13326 C 1323.61 -4.34407 -1.41912 0
M  V30 13327 C 1324.6 -5.13197 -0.832151 0
M  V30 13328 C 1322.29 -4.81074 -1.44476 0
M  V30 13329 C 1324.28 -6.3679 -0.278781 0
M  V30 13330 C 1321.97 -6.04621 -0.887535 0
M  V30 13331 C 1322.97 -6.82316 -0.305548 0
M  V30 13332 O 1322.66 -8.03532 0.243133 0
M  V30 13333 H 1322.39 -0.603082 -0.305398 0
M  V30 13334 H 1324.94 -2.03162 -0.302378 0
M  V30 13335 H 1323.17 -2.7004 -2.76795 0
M  V30 13336 H 1324.86 -3.09466 -2.62651 0
M  V30 13337 H 1325.63 -4.78273 -0.805 0
M  V30 13338 H 1321.51 -4.20604 -1.88714 0
M  V30 13339 H 1325.05 -6.97378 0.176117 0
M  V30 13340 H 1320.95 -6.39026 -0.911943 0
M  V30 13341 H 1321.71 -8.18392 0.132991 0
M  V30 13342 N 1324.38 0.532545 -1.4833 0
M  V30 13343 C 1325.62 1.29902 -1.57812 0
M  V30 13344 C 1325.98 1.90427 -0.245283 0
M  V30 13345 O 1327.18 2.67938 -0.215083 0
M  V30 13346 C 1325.45 2.36119 -2.68296 0
M  V30 13347 S 1327.01 3.22526 -2.97527 0
M  V30 13348 H 1323.83 0.441908 -0.55699 0
M  V30 13349 H 1326.43 0.606983 -1.85839 0
M  V30 13350 H 1325.14 1.90131 -3.63701 0
M  V30 13351 H 1324.67 3.10033 -2.42163 0
M  V30 13352 H 1326.68 4.36144 -2.36628 0
M  V30 13353 N 1325.86 1.36875 0.78122 0
M  V30 13354 C 1327.1 1.31299 1.53639 0
M  V30 13355 C 1327.42 -0.104942 1.94717 0
M  V30 13356 O 1326.69 -1.04696 1.65576 0
M  V30 13357 H 1325.27 0.483032 0.569815 0
M  V30 13358 H 1327.94 1.71261 0.930359 0
M  V30 13359 H 1327.03 1.94581 2.44018 0
M  V30 13360 N 1327.33 -1.00632 1.21289 0
M  V30 13361 C 1328.56 -1.78503 1.05601 0
M  V30 13362 C 1328.98 -1.84015 -0.389879 0
M  V30 13363 O 1328.34 -1.28277 -1.2812 0
M  V30 13364 C 1328.39 -3.20313 1.65626 0
M  V30 13365 O 1327.49 -4.02441 0.900841 0
M  V30 13366 H 1326.83 -0.550183 0.371746 0
M  V30 13367 H 1329.36 -1.26505 1.60803 0
M  V30 13368 H 1329.37 -3.70992 1.69792 0
M  V30 13369 H 1328.05 -3.15616 2.7085 0
M  V30 13370 H 1326.63 -3.61009 0.934178 0
M  V30 13371 N 1328.81 -1.02043 -1.20104 0
M  V30 13372 C 1329.76 -0.587332 -2.25063 0
M  V30 13373 C 1330.75 0.375844 -1.65178 0
M  V30 13374 O 1331.96 0.245347 -1.7832 0
M  V30 13375 H 1328.33 -0.171637 -0.732151 0
M  V30 13376 H 1330.31 -1.48339 -2.58917 0
M  V30 13377 C 1329.05 0.0546893 -3.47657 0
M  V30 13378 H 1328.38 -0.677457 -3.94018 0
M  V30 13379 H 1329.82 0.320786 -4.22785 0
M  V30 13380 C 1328.28 1.29869 -3.10863 0
M  V30 13381 O 1328.81 2.39161 -3.22746 0
M  V30 13382 N 1327.01 1.18423 -2.65376 0
M  V30 13383 H 1326.56 0.294895 -2.55906 0
M  V30 13384 H 1326.52 2.01755 -2.41128 0
M  V30 13385 N 1330.29 1.35952 -0.797165 0
M  V30 13386 C 1331.7 1.81554 -0.435311 0
M  V30 13387 C 1332.05 1.66266 1.04164 0
M  V30 13388 O 1331.18 1.18796 1.80877 0
M  V30 13389 C 1331.77 3.29619 -0.783358 0
M  V30 13390 C 1330.33 3.73401 -0.47423 0
M  V30 13391 C 1329.48 2.58098 -1.01394 0
M  V30 13392 H 1332.43 1.24064 -0.989638 0
M  V30 13393 H 1332.45 3.80421 -0.0773381 0
M  V30 13394 H 1331.96 3.40715 -1.85836 0
M  V30 13395 H 1330.06 3.6786 0.592418 0
M  V30 13396 H 1330.18 4.68542 -1.00026 0
M  V30 13397 H 1328.54 2.50927 -0.436747 0
M  V30 13398 H 1329.32 2.71976 -2.09485 0
M  V30 13399 N 1331.77 0.549846 1.47697 0
M  V30 13400 C 1333.02 0.0230048 2.02087 0
M  V30 13401 C 1333.34 -1.32865 1.4273 0
M  V30 13402 O 1332.61 -1.86492 0.59981 0
M  V30 13403 H 1331.19 0.00551514 0.74698 0
M  V30 13404 H 1333.85 0.718185 1.81185 0
M  V30 13405 H 1332.95 -0.0705813 3.1202 0
M  V30 13406 N 1333.25 -1.54984 0.285932 0
M  V30 13407 C 1334.47 -2.04239 -0.330774 0
M  V30 13408 C 1334.89 -1.16387 -1.48659 0
M  V30 13409 O 1334.25 -0.186255 -1.81547 0
M  V30 13410 C 1334.3 -3.52504 -0.801456 0
M  V30 13411 O 1334.02 -4.37014 0.30834 0
M  V30 13412 C 1335.52 -4.17692 -1.48487 0
M  V30 13413 H 1332.74 -0.666903 -0.0740351 0
M  V30 13414 H 1335.28 -2.00116 0.421178 0
M  V30 13415 H 1333.44 -3.57036 -1.50347 0
M  V30 13416 H 1333.85 -5.24471 -0.0553891 0
M  V30 13417 H 1335.33 -5.23004 -1.76552 0
M  V30 13418 H 1335.8 -3.66515 -2.41999 0
M  V30 13419 H 1336.41 -4.17193 -0.826428 0
M  V30 13420 N 1334.72 -0.0133892 -1.57594 0
M  V30 13421 C 1335.97 0.668634 -1.91143 0
M  V30 13422 C 1336.3 1.7303 -0.888299 0
M  V30 13423 O 1335.55 1.95418 0.105056 0
M  V30 13424 C 1335.85 1.33729 -3.31438 0
M  V30 13425 C 1335.52 0.407527 -4.49055 0
M  V30 13426 C 1334.18 0.151573 -4.80961 0
M  V30 13427 C 1336.53 -0.231835 -5.20684 0
M  V30 13428 C 1333.86 -0.751812 -5.81863 0
M  V30 13429 C 1336.21 -1.12318 -6.22549 0
M  V30 13430 C 1334.88 -1.38818 -6.52906 0
M  V30 13431 H 1334.15 0.24467 -0.699441 0
M  V30 13432 H 1336.79 -0.0717876 -1.91365 0
M  V30 13433 H 1335.1 2.15209 -3.27403 0
M  V30 13434 H 1336.8 1.87128 -3.5466 0
M  V30 13435 H 1333.39 0.617192 -4.24133 0
M  V30 13436 H 1337.57 -0.0471268 -4.96278 0
M  V30 13437 H 1332.83 -0.964991 -6.03737 0
M  V30 13438 H 1337 -1.62488 -6.77179 0
M  V30 13439 H 1334.63 -2.08986 -7.3091 0
M  V30 13440 N 1336.2 1.55448 0.259558 0
M  V30 13441 C 1337.62 1.47588 0.607442 0
M  V30 13442 C 1337.82 0.701053 1.88911 0
M  V30 13443 O 1336.87 0.225305 2.51493 0
M  V30 13444 C 1338.19 2.91905 0.72192 0
M  V30 13445 C 1339.74 3.02201 0.815087 0
M  V30 13446 C 1340.21 4.47799 0.961231 0
M  V30 13447 N 1341.7 4.51684 1.02642 0
M  V30 13448 C 1342.44 5.61574 1.15854 0
M  V30 13449 N 1341.93 6.81301 1.257 0
M  V30 13450 N 1343.73 5.49344 1.1907 0
M  V30 13451 H 1335.88 2.04271 -0.581981 0
M  V30 13452 H 1338.14 0.926865 -0.199059 0
M  V30 13453 H 1337.85 3.51382 -0.149611 0
M  V30 13454 H 1337.72 3.41681 1.59793 0
M  V30 13455 H 1340.11 2.42813 1.67708 0
M  V30 13456 H 1340.19 2.55656 -0.0858102 0
M  V30 13457 H 1339.83 5.07794 0.103848 0
M  V30 13458 H 1339.76 4.92013 1.87698 0
M  V30 13459 H 1342.25 3.65446 0.962184 0
M  V30 13460 H 1342.57 7.60801 1.35652 0
M  V30 13461 H 1340.91 6.84087 1.2268 0
M  V30 13462 H 1344.1 4.54745 1.11018 0
M  V30 13463 H 1344.27 6.35025 1.29022 0
M  V30 13464 N 1337.68 -0.524672 1.4861 0
M  V30 13465 C 1338.93 -1.27671 1.5615 0
M  V30 13466 C 1339.24 -1.94088 0.242709 0
M  V30 13467 O 1340.45 -2.70789 0.196407 0
M  V30 13468 C 1338.9 -2.31686 2.75408 0
M  V30 13469 C 1338.51 -1.71315 4.13951 0
M  V30 13470 C 1340.26 -3.07867 2.92264 0
M  V30 13471 C 1338.16 -2.73302 5.24462 0
M  V30 13472 H 1337.09 -0.480177 0.581332 0
M  V30 13473 H 1339.74 -0.553473 1.74954 0
M  V30 13474 H 1338.13 -3.07069 2.50049 0
M  V30 13475 H 1339.3 -1.02085 4.4935 0
M  V30 13476 H 1337.62 -1.07608 4.02255 0
M  V30 13477 H 1340.21 -3.84088 3.71995 0
M  V30 13478 H 1340.56 -3.64052 2.01921 0
M  V30 13479 H 1341.09 -2.39599 3.17549 0
M  V30 13480 H 1337.83 -2.21929 6.16788 0
M  V30 13481 H 1337.35 -3.40843 4.93544 0
M  V30 13482 H 1339.03 -3.36186 5.528 0
M  V30 13483 N 1339.16 -1.37287 -0.77395 0
M  V30 13484 C 1340.09 -1.35569 -1.90114 0
M  V30 13485 C 1341.07 -0.224658 -1.6861 0
M  V30 13486 O 1342.25 -0.424676 -1.895 0
M  V30 13487 C 1339.38 -1.15971 -3.27365 0
M  V30 13488 C 1338.34 -2.26063 -3.63427 0
M  V30 13489 C 1337.66 -1.9159 -4.99197 0
M  V30 13490 C 1338.96 -3.68236 -3.70405 0
M  V30 13491 H 1340.66 -2.29891 -1.91808 0
M  V30 13492 H 1338.2 -1.10661 -0.92142 0
M  V30 13493 H 1340.16 -1.134 -4.05855 0
M  V30 13494 H 1338.88 -0.181043 -3.26098 0
M  V30 13495 H 1337.54 -2.27786 -2.87244 0
M  V30 13496 H 1337.19 -0.922586 -4.94467 0
M  V30 13497 H 1336.89 -2.65309 -5.24294 0
M  V30 13498 H 1338.41 -1.90602 -5.80089 0
M  V30 13499 H 1339.83 -3.68655 -4.39052 0
M  V30 13500 H 1338.22 -4.4099 -4.06999 0
M  V30 13501 H 1339.29 -4.02021 -2.71122 0
M  V30 13502 N 1340.64 0.999871 -1.21821 0
M  V30 13503 C 1341.88 1.74098 -1.04009 0
M  V30 13504 C 1342.22 1.89499 0.424716 0
M  V30 13505 O 1341.49 1.43306 1.31505 0
M  V30 13506 C 1341.77 3.1506 -1.74382 0
M  V30 13507 C 1341.63 3.0735 -3.28414 0
M  V30 13508 C 1342.95 4.1409 -1.49055 0
M  V30 13509 H 1340.06 0.631935 -0.379245 0
M  V30 13510 H 1342.71 1.16534 -1.50066 0
M  V30 13511 H 1340.86 3.64206 -1.35227 0
M  V30 13512 H 1342.53 2.65879 -3.76969 0
M  V30 13513 H 1340.77 2.44325 -3.58452 0
M  V30 13514 H 1341.44 4.07069 -3.72825 0
M  V30 13515 H 1343.92 3.73672 -1.83054 0
M  V30 13516 H 1342.79 5.10853 -2.008 0
M  V30 13517 H 1343.06 4.40085 -0.421641 0
M  V30 13518 N 1342.11 1.02678 1.19562 0
M  V30 13519 C 1343.36 0.72059 1.88817 0
M  V30 13520 C 1343.68 -0.752942 1.79877 0
M  V30 13521 O 1342.95 -1.54233 1.20785 0
M  V30 13522 H 1341.53 0.26355 0.698964 0
M  V30 13523 H 1344.2 1.30056 1.4516 0
M  V30 13524 H 1343.29 1.01303 2.95202 0
M  V30 13525 N 1343.59 -1.35528 0.804364 0
M  V30 13526 C 1344.54 -2.31728 0.20125 0
M  V30 13527 C 1345.53 -1.56527 -0.647751 0
M  V30 13528 O 1346.74 -1.71672 -0.541163 0
M  V30 13529 H 1343.12 -0.750572 0.0463165 0
M  V30 13530 H 1345.09 -2.80142 1.02777 0
M  V30 13531 C 1343.84 -3.41807 -0.637429 0
M  V30 13532 H 1343.16 -3.99799 0.00651699 0
M  V30 13533 H 1344.6 -4.11403 -1.02585 0
M  V30 13534 C 1343.06 -2.84655 -1.80202 0
M  V30 13535 O 1343.59 -2.78026 -2.89939 0
M  V30 13536 N 1341.79 -2.41735 -1.61285 0
M  V30 13537 H 1341.34 -2.47327 -0.720231 0
M  V30 13538 H 1341.3 -2.03844 -2.39364 0
M  V30 13539 N 1345.07 -0.557671 -1.47404 0
M  V30 13540 C 1346.02 0.189765 -2.30019 0
M  V30 13541 C 1346.99 0.907923 -1.3909 0
M  V30 13542 O 1348.17 0.903528 -1.68051 0
M  V30 13543 C 1345.31 1.21348 -3.23061 0
M  V30 13544 C 1344.43 0.501343 -4.29081 0
M  V30 13545 C 1343.56 1.51039 -5.09275 0
M  V30 13546 C 1342.6 0.783254 -6.07068 0
M  V30 13547 N 1341.74 1.73916 -6.80219 0
M  V30 13548 H 1346.58 -0.520856 -2.93413 0
M  V30 13549 H 1344.11 -0.268686 -1.44625 0
M  V30 13550 H 1346.07 1.81961 -3.75428 0
M  V30 13551 H 1344.7 1.89213 -2.61531 0
M  V30 13552 H 1343.75 -0.219317 -3.79767 0
M  V30 13553 H 1345.07 -0.0682656 -4.98753 0
M  V30 13554 H 1344.22 2.19004 -5.65793 0
M  V30 13555 H 1342.96 2.11392 -4.39505 0
M  V30 13556 H 1341.96 0.0896883 -5.49727 0
M  V30 13557 H 1343.19 0.185464 -6.78847 0
M  V30 13558 H 1341.14 2.33125 -6.13179 0
M  V30 13559 H 1341.05 1.22171 -7.46063 0
M  V30 13560 H 1342.32 2.40993 -7.41311 0
M  V30 13561 N 1346.55 1.54831 -0.294147 0
M  V30 13562 C 1347.8 1.99606 0.316509 0
M  V30 13563 C 1348.12 1.18405 1.54936 0
M  V30 13564 O 1347.39 0.278289 1.93913 0
M  V30 13565 H 1345.97 0.737309 0.119938 0
M  V30 13566 H 1348.63 1.90669 -0.403891 0
M  V30 13567 H 1347.73 3.06409 0.593282 0
M  V30 13568 N 1348.03 0.0217466 1.57585 0
M  V30 13569 C 1349.27 -0.662733 1.93358 0
M  V30 13570 C 1349.63 -1.69715 0.897829 0
M  V30 13571 O 1350.83 -2.43358 1.14151 0
M  V30 13572 C 1349.1 -1.26973 3.34085 0
M  V30 13573 S 1350.66 -1.97631 3.91775 0
M  V30 13574 H 1347.48 -0.218386 0.67663 0
M  V30 13575 H 1350.08 0.0836466 1.95321 0
M  V30 13576 H 1348.79 -0.504339 4.07289 0
M  V30 13577 H 1348.32 -2.05357 3.35547 0
M  V30 13578 H 1350.33 -3.25393 3.74612 0
M  V30 13579 N 1349.51 -1.55583 -0.251311 0
M  V30 13580 C 1350.73 -1.81597 -1.00186 0
M  V30 13581 C 1351.16 -0.598216 -1.78334 0
M  V30 13582 O 1350.51 0.452667 -1.75558 0
M  V30 13583 C 1350.56 -3.05301 -1.91895 0
M  V30 13584 O 1349.67 -2.81907 -3.01002 0
M  V30 13585 H 1349.01 -0.599578 -0.285311 0
M  V30 13586 H 1351.54 -2.02762 -0.273638 0
M  V30 13587 H 1351.55 -3.34616 -2.33444 0
M  V30 13588 H 1350.22 -3.93574 -1.34433 0
M  V30 13589 H 1348.8 -2.63747 -2.63613 0
M  V30 13590 N 1350.98 0.516783 -1.48886 0
M  V30 13591 C 1351.93 1.61653 -1.60786 0
M  V30 13592 C 1352.92 1.54056 -0.464271 0
M  V30 13593 O 1354.11 1.61853 -0.716412 0
M  V30 13594 C 1351.24 3.0033 -1.66304 0
M  V30 13595 C 1350.32 3.12982 -2.86187 0
M  V30 13596 N 1350.72 2.95568 -4.10455 0
M  V30 13597 C 1349.01 3.44059 -2.83795 0
M  V30 13598 C 1349.71 3.11986 -4.90958 0
M  V30 13599 N 1348.69 3.40156 -4.24022 0
M  V30 13600 H 1352.49 1.4682 -2.546 0
M  V30 13601 H 1350.01 0.722555 -1.4544 0
M  V30 13602 H 1352 3.79345 -1.72924 0
M  V30 13603 H 1350.66 3.16245 -0.736158 0
M  V30 13604 H 1351.67 2.72062 -4.40684 0
M  V30 13605 H 1348.35 3.66249 -2.0042 0
M  V30 13606 H 1349.74 3.03149 -5.99625 0
M  V30 13607 N 1352.46 1.37696 0.766659 0
M  V30 13608 C 1353.87 1.29668 1.34324 0
M  V30 13609 C 1354.22 -0.0534297 1.96127 0
M  V30 13610 O 1353.35 -0.95534 1.94171 0
M  V30 13611 C 1353.94 2.34818 2.44225 0
M  V30 13612 C 1352.5 2.3041 2.97638 0
M  V30 13613 C 1351.65 2.18378 1.70899 0
M  V30 13614 H 1354.6 1.48244 0.566526 0
M  V30 13615 H 1354.62 1.99778 3.23835 0
M  V30 13616 H 1354.13 3.3307 1.99214 0
M  V30 13617 H 1352.23 1.35698 3.47011 0
M  V30 13618 H 1352.35 3.24028 3.52906 0
M  V30 13619 H 1350.71 1.65008 1.94021 0
M  V30 13620 H 1351.49 3.18551 1.27985 0
M  V30 13621 N 1353.94 -0.993397 1.22349 0
M  V30 13622 C 1355.16 -1.77373 1.07488 0
M  V30 13623 C 1355.59 -1.84418 -0.37034 0
M  V30 13624 O 1354.95 -1.29629 -1.26752 0
M  V30 13625 C 1355 -3.18538 1.69014 0
M  V30 13626 O 1354.1 -4.01463 0.943474 0
M  V30 13627 H 1353.44 -0.546209 0.37756 0
M  V30 13628 H 1355.97 -1.24792 1.62136 0
M  V30 13629 H 1355.98 -3.6917 1.73717 0
M  V30 13630 H 1354.66 -3.12725 2.74182 0
M  V30 13631 H 1353.23 -3.59998 0.972415 0
M  V30 13632 N 1355.42 -1.03311 -1.19015 0
M  V30 13633 C 1356.66 -0.733124 -1.89085 0
M  V30 13634 C 1357 0.73675 -1.79682 0
M  V30 13635 O 1356.27 1.53692 -1.19201 0
M  V30 13636 C 1356.55 -1.19028 -3.39859 0
M  V30 13637 C 1356.41 -2.72169 -3.58112 0
M  V30 13638 C 1357.73 -0.774383 -4.33234 0
M  V30 13639 H 1354.85 -0.2678 -0.686624 0
M  V30 13640 H 1357.49 -1.28378 -1.40068 0
M  V30 13641 H 1355.64 -0.721799 -3.81736 0
M  V30 13642 H 1357.31 -3.26996 -3.25379 0
M  V30 13643 H 1355.55 -3.12358 -3.01023 0
M  V30 13644 H 1356.22 -2.99213 -4.6387 0
M  V30 13645 H 1358.7 -1.17739 -3.99095 0
M  V30 13646 H 1357.58 -1.12209 -5.37308 0
M  V30 13647 H 1357.84 0.322989 -4.40919 0
M  V30 13648 N 1356.9 1.35099 -0.81154 0
M  V30 13649 C 1357.84 2.29717 -0.223372 0
M  V30 13650 C 1358.81 1.53049 0.645396 0
M  V30 13651 O 1360 1.81467 0.589436 0
M  V30 13652 C 1357.14 3.3952 0.618057 0
M  V30 13653 C 1356.25 4.31145 -0.271693 0
M  V30 13654 C 1355.39 5.28044 0.578214 0
M  V30 13655 C 1354.42 6.11306 -0.311628 0
M  V30 13656 N 1353.56 7.00328 0.498539 0
M  V30 13657 H 1358.4 2.79426 -1.03563 0
M  V30 13658 H 1355.94 1.37518 -0.522231 0
M  V30 13659 H 1357.9 4.01854 1.12111 0
M  V30 13660 H 1356.53 2.91075 1.39554 0
M  V30 13661 H 1355.58 3.69773 -0.892885 0
M  V30 13662 H 1356.89 4.89545 -0.956392 0
M  V30 13663 H 1356.04 5.95774 1.1462 0
M  V30 13664 H 1354.78 4.70152 1.29646 0
M  V30 13665 H 1353.79 5.42518 -0.891849 0
M  V30 13666 H 1355.01 6.71277 -1.02781 0
M  V30 13667 H 1352.96 6.44919 1.20067 0
M  V30 13668 H 1352.88 7.55892 -0.12801 0
M  V30 13669 H 1354.14 7.72401 1.04965 0
M  V30 13670 N 1358.37 0.56548 1.47106 0
M  V30 13671 C 1359.61 0.0469867 2.04346 0
M  V30 13672 C 1359.98 -1.28183 1.42944 0
M  V30 13673 O 1361.18 -1.88852 1.91281 0
M  V30 13674 C 1359.45 -0.0357764 3.57382 0
M  V30 13675 S 1361.01 -0.499194 4.35951 0
M  V30 13676 H 1357.83 0.0291355 0.710403 0
M  V30 13677 H 1360.43 0.754085 1.80371 0
M  V30 13678 H 1359.13 0.935578 3.99594 0
M  V30 13679 H 1358.66 -0.766177 3.85867 0
M  V30 13680 H 1360.68 -1.75732 4.6404 0
M  V30 13681 N 1359.85 -1.54672 0.302354 0
M  V30 13682 C 1360.8 -2.2357 -0.573141 0
M  V30 13683 C 1361.77 -1.21878 -1.12849 0
M  V30 13684 O 1362.95 -1.50502 -1.17277 0
M  V30 13685 C 1360.09 -2.98111 -1.7385 0
M  V30 13686 C 1359.21 -4.14579 -1.21441 0
M  V30 13687 C 1358.34 -4.76699 -2.34374 0
M  V30 13688 C 1357.38 -5.8531 -1.79106 0
M  V30 13689 N 1356.52 -6.41379 -2.85618 0
M  V30 13690 H 1361.36 -2.97993 0.0209969 0
M  V30 13691 H 1358.9 -1.47083 0.0221318 0
M  V30 13692 H 1360.85 -3.39561 -2.42392 0
M  V30 13693 H 1359.48 -2.26063 -2.30425 0
M  V30 13694 H 1358.54 -3.78061 -0.421204 0
M  V30 13695 H 1359.85 -4.92824 -0.769821 0
M  V30 13696 H 1359 -5.21009 -3.10861 0
M  V30 13697 H 1357.74 -3.9779 -2.8216 0
M  V30 13698 H 1356.75 -5.40423 -1.01109 0
M  V30 13699 H 1357.97 -6.66104 -1.32222 0
M  V30 13700 H 1355.92 -5.65352 -3.32735 0
M  V30 13701 H 1355.83 -7.14974 -2.45659 0
M  V30 13702 H 1357.1 -6.90346 -3.61998 0
M  V30 13703 N 1361.33 -0.0301034 -1.57571 0
M  V30 13704 C 1362.28 0.951421 -2.10277 0
M  V30 13705 C 1363.25 1.3224 -1.00508 0
M  V30 13706 O 1364.43 1.41554 -1.27934 0
M  V30 13707 C 1361.57 2.2282 -2.63525 0
M  V30 13708 C 1360.69 1.91359 -3.87306 0
M  V30 13709 C 1359.82 3.13339 -4.28943 0
M  V30 13710 C 1358.86 2.77701 -5.4548 0
M  V30 13711 N 1358 3.9231 -5.82269 0
M  V30 13712 H 1362.84 0.495049 -2.93859 0
M  V30 13713 H 1360.37 0.232756 -1.45247 0
M  V30 13714 H 1362.33 2.97502 -2.92487 0
M  V30 13715 H 1360.96 2.66072 -1.82772 0
M  V30 13716 H 1360.01 1.06915 -3.65066 0
M  V30 13717 H 1361.33 1.61112 -4.72064 0
M  V30 13718 H 1360.48 3.9634 -4.59347 0
M  V30 13719 H 1359.22 3.46747 -3.42954 0
M  V30 13720 H 1358.22 1.93113 -5.14769 0
M  V30 13721 H 1359.45 2.45508 -6.33169 0
M  V30 13722 H 1357.39 4.25559 -4.99235 0
M  V30 13723 H 1357.31 3.65691 -6.61669 0
M  V30 13724 H 1358.58 4.76012 -6.17279 0
M  V30 13725 N 1362.81 1.55714 0.243056 0
M  V30 13726 C 1364.22 1.48224 0.591754 0
M  V30 13727 C 1364.42 0.72105 1.88157 0
M  V30 13728 O 1363.48 0.251966 2.5124 0
M  V30 13729 C 1364.79 2.92655 0.690918 0
M  V30 13730 C 1366.34 3.03048 0.782988 0
M  V30 13731 C 1366.82 4.48794 0.913682 0
M  V30 13732 N 1368.31 4.52748 0.978454 0
M  V30 13733 C 1369.04 5.62771 1.09891 0
M  V30 13734 N 1368.54 6.82596 1.18467 0
M  V30 13735 N 1370.33 5.50576 1.13237 0
M  V30 13736 H 1362.48 2.03642 -0.603614 0
M  V30 13737 H 1364.75 0.924702 -0.208878 0
M  V30 13738 H 1364.45 3.51203 -0.186871 0
M  V30 13739 H 1364.33 3.43357 1.5616 0
M  V30 13740 H 1366.71 2.44578 1.65123 0
M  V30 13741 H 1366.79 2.55551 -0.112921 0
M  V30 13742 H 1366.44 5.07875 0.0499835 0
M  V30 13743 H 1366.37 4.93976 1.82469 0
M  V30 13744 H 1368.86 3.66445 0.92337 0
M  V30 13745 H 1369.17 7.62197 1.27576 0
M  V30 13746 H 1367.52 6.85349 1.15418 0
M  V30 13747 H 1370.71 4.55897 1.06188 0
M  V30 13748 H 1370.88 6.36358 1.2228 0
M  V30 13749 N 1364.29 -0.50888 1.49158 0
M  V30 13750 C 1365.53 -1.26537 1.58481 0
M  V30 13751 C 1365.87 -1.92353 0.267168 0
M  V30 13752 O 1365.14 -1.80336 -0.728639 0
M  V30 13753 C 1365.42 -2.33846 2.73839 0
M  V30 13754 C 1365.28 -1.72582 4.15374 0
M  V30 13755 C 1366.6 -3.35467 2.84868 0
M  V30 13756 H 1363.71 -0.458697 0.576859 0
M  V30 13757 H 1366.36 -0.564728 1.81413 0
M  V30 13758 H 1364.51 -2.93605 2.54417 0
M  V30 13759 H 1366.18 -1.16711 4.46292 0
M  V30 13760 H 1364.42 -1.03025 4.21389 0
M  V30 13761 H 1365.09 -2.5038 4.91949 0
M  V30 13762 H 1367.57 -2.85689 3.02524 0
M  V30 13763 H 1366.44 -4.07922 3.67275 0
M  V30 13764 H 1366.71 -3.97313 1.93894 0
M  V30 13765 N 1365.76 -1.381 -0.759346 0
M  V30 13766 C 1366.99 -1.37213 -1.54855 0
M  V30 13767 C 1367.41 0.0395175 -1.88759 0
M  V30 13768 O 1366.76 1.00462 -1.5236 0
M  V30 13769 C 1366.82 -2.22232 -2.85123 0
M  V30 13770 O 1366.54 -3.57897 -2.52668 0
M  V30 13771 C 1368.04 -2.29461 -3.79292 0
M  V30 13772 H 1365.26 -0.469542 -0.479345 0
M  V30 13773 H 1367.8 -1.81604 -0.940216 0
M  V30 13774 H 1365.96 -1.81317 -3.42349 0
M  V30 13775 H 1366.37 -4.02599 -3.36176 0
M  V30 13776 H 1367.84 -2.93246 -4.67665 0
M  V30 13777 H 1368.32 -1.3066 -4.19315 0
M  V30 13778 H 1368.93 -2.70741 -3.27993 0
M  V30 13779 N 1367.24 0.986894 -1.22875 0
M  V30 13780 C 1368.49 1.72152 -1.05103 0
M  V30 13781 C 1368.8 1.91185 0.413248 0
M  V30 13782 O 1370.01 2.62031 0.710759 0
M  V30 13783 C 1368.47 3.09771 -1.8322 0
M  V30 13784 C 1368.07 2.98648 -3.33936 0
M  V30 13785 C 1369.82 3.87238 -1.73917 0
M  V30 13786 C 1367.73 4.31459 -4.04471 0
M  V30 13787 H 1366.66 0.645498 -0.389677 0
M  V30 13788 H 1369.31 1.10125 -1.46781 0
M  V30 13789 H 1367.69 3.72515 -1.34345 0
M  V30 13790 H 1368.86 2.45033 -3.9025 0
M  V30 13791 H 1367.18 2.34661 -3.43982 0
M  V30 13792 H 1369.77 4.85549 -2.23933 0
M  V30 13793 H 1370.12 4.1036 -0.700711 0
M  V30 13794 H 1370.65 3.31183 -2.20369 0
M  V30 13795 H 1367.39 4.13534 -5.08596 0
M  V30 13796 H 1366.91 4.84964 -3.52944 0
M  V30 13797 H 1368.59 5.00179 -4.10403 0
M  V30 13798 N 1368.72 1.0394 1.18466 0
M  V30 13799 C 1369.65 0.650182 2.24265 0
M  V30 13800 C 1370.63 -0.345968 1.66545 0
M  V30 13801 O 1371.82 -0.226348 1.92876 0
M  V30 13802 C 1368.95 0.0110451 3.47298 0
M  V30 13803 C 1367.9 0.930599 4.17761 0
M  V30 13804 C 1367.23 0.156005 5.34472 0
M  V30 13805 C 1368.53 2.24913 4.71393 0
M  V30 13806 H 1370.22 1.53465 2.57078 0
M  V30 13807 H 1367.77 0.739343 1.23571 0
M  V30 13808 H 1369.72 -0.272959 4.20515 0
M  V30 13809 H 1368.44 -0.908288 3.13716 0
M  V30 13810 H 1367.1 1.19897 3.4644 0
M  V30 13811 H 1366.75 -0.765695 4.97138 0
M  V30 13812 H 1366.45 0.768606 5.82551 0
M  V30 13813 H 1367.97 -0.121011 6.1048 0
M  V30 13814 H 1369.39 2.02592 5.36311 0
M  V30 13815 H 1367.79 2.81459 5.30001 0
M  V30 13816 H 1368.86 2.8965 3.88884 0
M  V30 13817 N 1370.2 -1.34667 0.818693 0
M  V30 13818 C 1371.44 -1.98708 0.405359 0
M  V30 13819 C 1371.78 -1.64767 -1.02788 0
M  V30 13820 O 1371.05 -0.91714 -1.71519 0
M  V30 13821 C 1371.34 -3.55016 0.602966 0
M  V30 13822 C 1371.19 -3.98713 2.08201 0
M  V30 13823 C 1372.51 -4.40085 0.0362489 0
M  V30 13824 H 1369.63 -0.721831 0.148756 0
M  V30 13825 H 1372.27 -1.59628 1.03047 0
M  V30 13826 H 1370.42 -3.88435 0.0708453 0
M  V30 13827 H 1372.09 -3.75647 2.67745 0
M  V30 13828 H 1370.33 -3.49179 2.57403 0
M  V30 13829 H 1371 -5.0751 2.17111 0
M  V30 13830 H 1373.48 -4.13195 0.490837 0
M  V30 13831 H 1372.36 -5.4852 0.204344 0
M  V30 13832 H 1372.62 -4.29243 -1.05845 0
M  V30 13833 N 1371.68 -0.573274 -1.46804 0
M  V30 13834 C 1372.59 0.168081 -2.33997 0
M  V30 13835 C 1373.6 0.895652 -1.49178 0
M  V30 13836 O 1374.78 0.860951 -1.8207 0
M  V30 13837 C 1371.84 1.17483 -3.26188 0
M  V30 13838 C 1370.9 0.452956 -4.26904 0
M  V30 13839 C 1370.14 1.41175 -5.1469 0
M  V30 13840 O 1370.36 2.64767 -5.05227 0
M  V30 13841 O 1369.29 0.927472 -5.94711 0
M  V30 13842 H 1373.12 -0.547576 -2.98723 0
M  V30 13843 H 1370.71 -0.333747 -1.45624 0
M  V30 13844 H 1372.59 1.75557 -3.8309 0
M  V30 13845 H 1371.26 1.87213 -2.6407 0
M  V30 13846 H 1370.17 -0.169383 -3.73716 0
M  V30 13847 H 1371.5 -0.203186 -4.9178 0
M  V30 13848 N 1373.15 1.5451 -0.310553 0
M  V30 13849 C 1374.4 1.99931 0.29532 0
M  V30 13850 C 1374.72 1.20042 1.53672 0
M  V30 13851 O 1373.99 0.298841 1.93607 0
M  V30 13852 H 1372.57 0.738539 0.112111 0
M  V30 13853 H 1375.24 1.9023 -0.424092 0
M  V30 13854 H 1374.33 3.07021 0.560749 0
M  V30 13855 N 1374.63 0.0384594 1.57553 0
M  V30 13856 C 1375.88 -0.636879 1.91803 0
M  V30 13857 C 1376.2 -1.72128 0.916347 0
M  V30 13858 O 1375.47 -1.95858 -0.0407405 0
M  V30 13859 H 1374.05 -0.238237 0.707992 0
M  V30 13860 H 1376.71 0.0884651 1.94699 0
M  V30 13861 H 1375.81 -1.08364 2.92683 0
M  V30 13862 N 1376.11 -1.55841 -0.234795 0
M  V30 13863 C 1377.02 -1.94476 -1.31211 0
M  V30 13864 C 1378.04 -0.846782 -1.52005 0
M  V30 13865 O 1379.21 -1.14922 -1.65393 0
M  V30 13866 C 1376.28 -2.24213 -2.64442 0
M  V30 13867 C 1375.34 -3.47508 -2.52065 0
M  V30 13868 C 1374.57 -3.75817 -3.78942 0
M  V30 13869 O 1374.8 -3.06007 -4.81369 0
M  V30 13870 O 1373.73 -4.69328 -3.76848 0
M  V30 13871 H 1377.56 -2.8626 -1.01434 0
M  V30 13872 H 1375.14 -1.42879 -0.436563 0
M  V30 13873 H 1377.02 -2.44594 -3.4315 0
M  V30 13874 H 1375.7 -1.35605 -2.93927 0
M  V30 13875 H 1374.6 -3.32421 -1.71602 0
M  V30 13876 H 1375.94 -4.36457 -2.27523 0
M  V30 13877 N 1377.59 0.500963 -1.49426 0
M  V30 13878 C 1378.84 1.25171 -1.58162 0
M  V30 13879 C 1379.15 1.93678 -0.273556 0
M  V30 13880 O 1380.36 2.70442 -0.239462 0
M  V30 13881 C 1378.81 2.27276 -2.79059 0
M  V30 13882 C 1378.42 1.64708 -4.16624 0
M  V30 13883 C 1380.17 3.03178 -2.97125 0
M  V30 13884 C 1378.07 2.64923 -5.28743 0
M  V30 13885 H 1377 0.470867 -0.588897 0
M  V30 13886 H 1379.65 0.525569 -1.75812 0
M  V30 13887 H 1378.04 3.03052 -2.54903 0
M  V30 13888 H 1379.21 0.949231 -4.50917 0
M  V30 13889 H 1377.52 1.01195 -4.03916 0
M  V30 13890 H 1380.12 3.78122 -3.78058 0
M  V30 13891 H 1380.46 3.60793 -2.07687 0
M  V30 13892 H 1381 2.34517 -3.2132 0
M  V30 13893 H 1377.74 2.12089 -6.20241 0
M  V30 13894 H 1377.26 3.32948 -4.98904 0
M  V30 13895 H 1378.94 3.27349 -5.58079 0
M  V30 13896 N 1379.07 1.38501 0.752011 0
M  V30 13897 C 1379.98 1.38094 1.8965 0
M  V30 13898 C 1380.99 0.277851 1.71767 0
M  V30 13899 O 1382.17 0.516536 1.94663 0
M  V30 13900 C 1379.23 1.2063 3.25037 0
M  V30 13901 C 1378.3 2.40758 3.55435 0
M  V30 13902 C 1377.53 2.24118 4.84362 0
M  V30 13903 O 1377.75 1.23571 5.56854 0
M  V30 13904 O 1376.69 3.12741 5.14273 0
M  V30 13905 H 1380.51 2.34532 1.92947 0
M  V30 13906 H 1378.1 1.19437 0.897504 0
M  V30 13907 H 1379.98 1.12957 4.05979 0
M  V30 13908 H 1378.65 0.272785 3.22549 0
M  V30 13909 H 1377.56 2.54006 2.74648 0
M  V30 13910 H 1378.89 3.32745 3.62686 0
M  V30 13911 N 1380.55 -0.980364 1.23396 0
M  V30 13912 C 1381.48 -2.0908 1.0396 0
M  V30 13913 C 1382.46 -1.70044 -0.0434946 0
M  V30 13914 O 1383.64 -1.93822 0.121155 0
M  V30 13915 C 1380.77 -3.41537 0.630061 0
M  V30 13916 C 1379.73 -3.94476 1.66051 0
M  V30 13917 C 1379.05 -5.23128 1.10641 0
M  V30 13918 C 1380.35 -4.23741 3.05354 0
M  V30 13919 H 1382.05 -2.25598 1.9684 0
M  V30 13920 H 1379.59 -1.08409 0.94781 0
M  V30 13921 H 1381.54 -4.18644 0.481145 0
M  V30 13922 H 1380.27 -3.24883 -0.334416 0
M  V30 13923 H 1378.93 -3.19513 1.79742 0
M  V30 13924 H 1378.58 -5.02824 0.132913 0
M  V30 13925 H 1378.28 -5.59515 1.79492 0
M  V30 13926 H 1379.8 -6.02857 0.969344 0
M  V30 13927 H 1381.21 -4.91598 2.94964 0
M  V30 13928 H 1379.61 -4.71329 3.71442 0
M  V30 13929 H 1380.68 -3.31012 3.54343 0
M  V30 13930 N 1382.02 -1.04567 -1.17913 0
M  V30 13931 C 1383.27 -0.752023 -1.88018 0
M  V30 13932 C 1383.6 0.720567 -1.8066 0
M  V30 13933 O 1382.85 1.54207 -1.20493 0
M  V30 13934 C 1383.15 -1.1699 -3.3771 0
M  V30 13935 C 1382.82 -2.64363 -3.65271 0
M  V30 13936 C 1381.48 -3.04622 -3.72503 0
M  V30 13937 C 1383.83 -3.59626 -3.77251 0
M  V30 13938 C 1381.16 -4.39023 -3.89199 0
M  V30 13939 C 1383.51 -4.93752 -3.95465 0
M  V30 13940 C 1382.18 -5.33675 -4.00933 0
M  V30 13941 H 1381.45 -0.275185 -0.688008 0
M  V30 13942 H 1384.09 -1.31161 -1.39532 0
M  V30 13943 H 1382.4 -0.529202 -3.8821 0
M  V30 13944 H 1384.1 -0.919981 -3.90304 0
M  V30 13945 H 1380.69 -2.32182 -3.60263 0
M  V30 13946 H 1384.87 -3.29665 -3.70992 0
M  V30 13947 H 1380.13 -4.69466 -3.91679 0
M  V30 13948 H 1384.3 -5.67467 -4.03676 0
M  V30 13949 H 1381.93 -6.37825 -4.13623 0
M  V30 13950 N 1383.5 1.34231 -0.825823 0
M  V30 13951 C 1384.78 1.92662 -0.337743 0
M  V30 13952 C 1385.16 1.75358 1.17529 0
M  V30 13953 O 1384.51 1.13405 1.98372 0
M  V30 13954 C 1384.72 3.40394 -0.770269 0
M  V30 13955 C 1386.06 4.17546 -0.770767 0
M  V30 13956 O 1387.09 3.4899 -0.713035 0
M  V30 13957 O 1385.95 5.39903 -0.846602 0
M  V30 13958 H 1383.04 0.821768 -0.0928741 0
M  V30 13959 H 1385.59 1.43187 -0.910807 0
M  V30 13960 H 1384.36 3.46802 -1.81228 0
M  V30 13961 H 1383.98 3.97223 -0.17306 0
M  V30 13962 N 1384.98 0.581051 1.46498 0
M  V30 13963 C 1386.23 0.0658652 2.01993 0
M  V30 13964 C 1386.55 -1.29807 1.45516 0
M  V30 13965 O 1385.82 -1.85177 0.639233 0
M  V30 13966 H 1384.4 0.0213584 0.746695 0
M  V30 13967 H 1387.06 0.756456 1.79621 0
M  V30 13968 H 1386.16 -0.00438128 3.121 0
M  V30 13969 N 1386.46 -1.54343 0.318742 0
M  V30 13970 C 1387.37 -2.27856 -0.558442 0
M  V30 13971 C 1388.38 -1.32029 -1.13333 0
M  V30 13972 O 1389.56 -1.65037 -1.15433 0
M  V30 13973 C 1386.62 -3.01842 -1.70565 0
M  V30 13974 C 1385.69 -4.13245 -1.16305 0
M  V30 13975 C 1384.92 -4.83693 -2.25559 0
M  V30 13976 O 1385.14 -4.53621 -3.4581 0
M  V30 13977 O 1384.08 -5.70708 -1.91249 0
M  V30 13978 H 1387.9 -3.03676 0.0384247 0
M  V30 13979 H 1385.49 -1.4916 0.0845936 0
M  V30 13980 H 1387.37 -3.48189 -2.37365 0
M  V30 13981 H 1386.04 -2.28902 -2.28879 0
M  V30 13982 H 1384.95 -3.71258 -0.460274 0
M  V30 13983 H 1386.28 -4.88214 -0.625111 0
M  V30 13984 N 1387.94 -0.0468143 -1.5753 0
M  V30 13985 C 1389.18 0.628869 -1.92803 0
M  V30 13986 C 1389.51 1.70751 -0.925083 0
M  V30 13987 O 1388.79 1.94437 0.0495821 0
M  V30 13988 C 1389.07 1.22899 -3.38479 0
M  V30 13989 C 1388.93 0.158707 -4.4952 0
M  V30 13990 C 1390.24 2.1419 -3.84461 0
M  V30 13991 H 1387.36 0.227137 -0.701126 0
M  V30 13992 H 1390.01 -0.107689 -1.89695 0
M  V30 13993 H 1388.16 1.85674 -3.41259 0
M  V30 13994 H 1389.83 -0.472963 -4.58869 0
M  V30 13995 H 1388.07 -0.51375 -4.30747 0
M  V30 13996 H 1388.74 0.618545 -5.48523 0
M  V30 13997 H 1391.22 1.61382 -3.8353 0
M  V30 13998 H 1390.09 2.53125 -4.87051 0
M  V30 13999 H 1390.35 3.04024 -3.2097 0
M  V30 14000 N 1389.41 1.55964 0.226527 0
M  V30 14001 C 1390.36 1.92857 1.30034 0
M  V30 14002 C 1391.36 0.810008 1.48779 0
M  V30 14003 O 1392.56 0.994801 1.50012 0
M  V30 14004 H 1388.94 0.612807 0.435857 0
M  V30 14005 H 1390.91 2.82469 0.96196 0
M  V30 14006 C 1389.66 2.25735 2.6446 0
M  V30 14007 H 1388.98 3.11317 2.50842 0
M  V30 14008 H 1390.42 2.55437 3.3842 0
M  V30 14009 C 1388.88 1.08074 3.19095 0
M  V30 14010 O 1389.41 0.339279 4.00265 0
M  V30 14011 N 1387.62 0.86589 2.774 0
M  V30 14012 H 1387.16 1.47055 2.11501 0
M  V30 14013 H 1387.12 0.0803566 3.14297 0
M  V30 14014 N 1390.89 -0.493031 1.4969 0
M  V30 14015 C 1392.14 -1.24849 1.59814 0
M  V30 14016 C 1392.47 -1.92059 0.287555 0
M  V30 14017 O 1391.75 -1.81099 -0.709471 0
M  V30 14018 C 1392.03 -2.30929 2.76304 0
M  V30 14019 C 1391.88 -1.68167 4.17181 0
M  V30 14020 C 1393.2 -3.32427 2.8841 0
M  V30 14021 H 1390.32 -0.452553 0.581691 0
M  V30 14022 H 1392.96 -0.545455 1.82002 0
M  V30 14023 H 1391.11 -2.9089 2.57517 0
M  V30 14024 H 1392.78 -1.11971 4.47504 0
M  V30 14025 H 1391.03 -0.985496 4.22458 0
M  V30 14026 H 1391.7 -2.45148 4.94577 0
M  V30 14027 H 1394.17 -2.82464 3.05537 0
M  V30 14028 H 1393.05 -4.04004 3.71581 0
M  V30 14029 H 1393.31 -3.95234 1.98097 0
M  V30 14030 N 1392.37 -1.38898 -0.744656 0
M  V30 14031 C 1393.32 -1.36845 -1.85855 0
M  V30 14032 C 1394.29 -0.2296 -1.64505 0
M  V30 14033 O 1395.47 -0.423221 -1.86047 0
M  V30 14034 C 1392.61 -1.20818 -3.2326 0
M  V30 14035 C 1391.73 -2.44166 -3.5638 0
M  V30 14036 C 1390.86 -2.20801 -4.83136 0
M  V30 14037 C 1389.9 -3.39874 -5.0907 0
M  V30 14038 N 1389.04 -3.15888 -6.27024 0
M  V30 14039 H 1393.88 -2.32068 -1.86945 0
M  V30 14040 H 1391.41 -1.15289 -0.913611 0
M  V30 14041 H 1393.37 -1.0954 -4.02563 0
M  V30 14042 H 1392 -0.292295 -3.21474 0
M  V30 14043 H 1391.05 -2.66083 -2.71852 0
M  V30 14044 H 1392.37 -3.32885 -3.71469 0
M  V30 14045 H 1391.52 -2.0671 -5.704 0
M  V30 14046 H 1390.26 -1.29462 -4.70203 0
M  V30 14047 H 1389.26 -3.54474 -4.20271 0
M  V30 14048 H 1390.49 -4.32102 -5.23894 0
M  V30 14049 H 1388.43 -2.27204 -6.15398 0
M  V30 14050 H 1388.35 -3.9816 -6.42655 0
M  V30 14051 H 1389.62 -3.0547 -7.17153 0
M  V30 14052 N 1393.85 0.973806 -1.23914 0
M  V30 14053 C 1395.26 1.24128 -1.00322 0
M  V30 14054 C 1395.46 1.99378 0.29169 0
M  V30 14055 O 1394.52 2.31445 1.00943 0
M  V30 14056 C 1395.83 2.03438 -2.21435 0
M  V30 14057 C 1397.38 2.16553 -2.25995 0
M  V30 14058 C 1397.86 2.99257 -3.46712 0
M  V30 14059 N 1399.35 3.0684 -3.46992 0
M  V30 14060 C 1400.08 3.71174 -4.37055 0
M  V30 14061 N 1399.58 4.37277 -5.37364 0
M  V30 14062 N 1401.37 3.68126 -4.24782 0
M  V30 14063 H 1393.52 0.469872 -2.07138 0
M  V30 14064 H 1395.79 0.270234 -0.908668 0
M  V30 14065 H 1395.49 1.55527 -3.15443 0
M  V30 14066 H 1395.37 3.0418 -2.23057 0
M  V30 14067 H 1397.75 2.6367 -1.32522 0
M  V30 14068 H 1397.83 1.15179 -2.28402 0
M  V30 14069 H 1397.48 2.52835 -4.40496 0
M  V30 14070 H 1397.41 4.00815 -3.41547 0
M  V30 14071 H 1399.9 2.59813 -2.74419 0
M  V30 14072 H 1400.21 4.84166 -6.02331 0
M  V30 14073 H 1398.56 4.35965 -5.41257 0
M  V30 14074 H 1401.75 3.15657 -3.45656 0
M  V30 14075 H 1401.92 4.17981 -4.95173 0
M  V30 14076 N 1395.33 1.05191 1.17357 0
M  V30 14077 C 1396.74 0.788105 1.69251 0
M  V30 14078 C 1397.09 -0.689717 1.83677 0
M  V30 14079 O 1396.21 -1.53601 1.52433 0
M  V30 14080 C 1396.81 1.42401 3.07421 0
M  V30 14081 C 1395.37 1.20825 3.5648 0
M  V30 14082 C 1394.51 1.50756 2.3274 0
M  V30 14083 H 1397.47 1.21686 1.01874 0
M  V30 14084 H 1397.49 0.833285 3.71264 0
M  V30 14085 H 1397 2.49958 2.96889 0
M  V30 14086 H 1395.1 0.15193 3.7229 0
M  V30 14087 H 1395.21 1.91319 4.39242 0
M  V30 14088 H 1393.58 0.927649 2.37206 0
M  V30 14089 H 1394.36 2.59446 2.24817 0
M  V30 14090 N 1396.8 -1.33791 0.83293 0
M  V30 14091 C 1397.74 -2.27259 0.207019 0
M  V30 14092 C 1398.72 -1.49372 -0.642403 0
M  V30 14093 O 1399.9 -1.78562 -0.603963 0
M  V30 14094 C 1397.03 -3.31177 -0.709885 0
M  V30 14095 C 1396.07 -4.26453 0.0633036 0
M  V30 14096 S 1396.91 -5.16406 1.41721 0
M  V30 14097 C 1398.06 -6.23856 0.505446 0
M  V30 14098 H 1398.29 -2.79998 0.999422 0
M  V30 14099 H 1395.83 -1.40991 0.629361 0
M  V30 14100 H 1397.79 -3.91535 -1.23332 0
M  V30 14101 H 1396.45 -2.77265 -1.4759 0
M  V30 14102 H 1395.64 -4.99995 -0.634145 0
M  V30 14103 H 1395.24 -3.70401 0.517607 0
M  V30 14104 H 1397.53 -6.7684 -0.299066 0
M  V30 14105 H 1398.48 -6.97671 1.21084 0
M  V30 14106 H 1398.88 -5.64429 0.0894308 0
M  V30 14107 N 1398.28 -0.588812 -1.46187 0
M  V30 14108 C 1399.23 0.140932 -2.30369 0
M  V30 14109 C 1400.2 0.878216 -1.40984 0
M  V30 14110 O 1401.38 0.867678 -1.69929 0
M  V30 14111 C 1398.52 1.14468 -3.25563 0
M  V30 14112 C 1397.64 0.410215 -4.30048 0
M  V30 14113 C 1396.77 1.40203 -5.12364 0
M  V30 14114 C 1395.81 0.65431 -6.08593 0
M  V30 14115 N 1394.95 1.59448 -6.83755 0
M  V30 14116 H 1399.79 -0.582976 -2.92242 0
M  V30 14117 H 1397.33 -0.299302 -1.44023 0
M  V30 14118 H 1399.28 1.73957 -3.79203 0
M  V30 14119 H 1397.91 1.83623 -2.65485 0
M  V30 14120 H 1396.97 -0.299822 -3.79217 0
M  V30 14121 H 1398.28 -0.174043 -4.98496 0
M  V30 14122 H 1397.43 2.06953 -5.70312 0
M  V30 14123 H 1396.17 2.02022 -4.4389 0
M  V30 14124 H 1395.18 -0.0269371 -5.49793 0
M  V30 14125 H 1396.4 0.0414285 -6.79087 0
M  V30 14126 H 1394.35 2.20066 -6.17986 0
M  V30 14127 H 1394.26 1.06318 -7.48487 0
M  V30 14128 H 1395.53 2.25215 -7.46256 0
M  V30 14129 N 1399.76 1.54172 -0.326923 0
M  V30 14130 C 1401.04 1.92812 0.329078 0
M  V30 14131 C 1401.42 1.25687 1.69605 0
M  V30 14132 O 1400.77 0.401779 2.2494 0
M  V30 14133 C 1400.98 3.46488 0.417949 0
M  V30 14134 C 1402.32 4.19174 0.67665 0
M  V30 14135 O 1403.35 3.52663 0.500735 0
M  V30 14136 O 1402.21 5.36968 1.01625 0
M  V30 14137 H 1399.3 0.805214 0.188573 0
M  V30 14138 H 1401.85 1.65462 -0.376884 0
M  V30 14139 H 1400.62 3.87528 -0.541986 0
M  V30 14140 H 1400.24 3.79954 1.17136 0
M  V30 14141 N 1401.24 0.0551678 1.57503 0
M  V30 14142 C 1402.15 -0.932959 2.15251 0
M  V30 14143 C 1403.16 -1.33885 1.11134 0
M  V30 14144 O 1404.34 -1.41495 1.43321 0
M  V30 14145 C 1401.41 -2.18807 2.68932 0
M  V30 14146 C 1400.47 -1.84016 3.87862 0
M  V30 14147 C 1399.7 -3.03543 4.38973 0
M  V30 14148 O 1399.92 -4.17041 3.89144 0
M  V30 14149 O 1398.86 -2.84325 5.30512 0
M  V30 14150 H 1402.68 -0.471816 3.00013 0
M  V30 14151 H 1400.27 -0.16696 1.48464 0
M  V30 14152 H 1402.15 -2.92439 3.0341 0
M  V30 14153 H 1400.82 -2.64051 1.87239 0
M  V30 14154 H 1399.73 -1.07687 3.58266 0
M  V30 14155 H 1401.06 -1.43567 4.70796 0
M  V30 14156 N 1402.72 -1.56081 -0.218252 0
M  V30 14157 C 1403.94 -1.83334 -0.958964 0
M  V30 14158 C 1404.36 -0.63472 -1.77811 0
M  V30 14159 O 1403.72 0.396729 -1.78136 0
M  V30 14160 C 1403.77 -3.09141 -1.87387 0
M  V30 14161 O 1403.49 -4.24379 -1.08783 0
M  V30 14162 C 1404.99 -3.49405 -2.7282 0
M  V30 14163 H 1402.21 -0.609375 -0.280898 0
M  V30 14164 H 1404.75 -2.03174 -0.232486 0
M  V30 14165 H 1402.91 -2.91267 -2.55426 0
M  V30 14166 H 1403.32 -4.9587 -1.70919 0
M  V30 14167 H 1404.8 -4.40461 -3.32713 0
M  V30 14168 H 1405.27 -2.71311 -3.45379 0
M  V30 14169 H 1405.88 -3.6973 -2.1019 0
M  V30 14170 N 1404.2 0.485086 -1.49949 0
M  V30 14171 C 1405.15 1.58207 -1.64179 0
M  V30 14172 C 1406.13 1.53037 -0.496844 0
M  V30 14173 O 1407.32 1.60297 -0.750582 0
M  V30 14174 C 1404.45 2.96735 -1.72637 0
M  V30 14175 C 1403.54 3.06841 -2.92762 0
M  V30 14176 N 1403.93 2.86795 -4.16632 0
M  V30 14177 C 1402.23 3.37961 -2.91029 0
M  V30 14178 C 1402.93 3.01502 -4.97465 0
M  V30 14179 N 1401.9 3.31085 -4.31142 0
M  V30 14180 H 1405.7 1.41387 -2.57657 0
M  V30 14181 H 1403.22 0.691542 -1.4694 0
M  V30 14182 H 1405.22 3.75592 -1.80932 0
M  V30 14183 H 1403.88 3.14612 -0.803072 0
M  V30 14184 H 1404.89 2.62653 -4.46356 0
M  V30 14185 H 1401.56 3.61915 -2.08143 0
M  V30 14186 H 1402.95 2.90361 -6.05921 0
M  V30 14187 N 1405.67 1.39291 0.737279 0
M  V30 14188 C 1406.92 1.3639 1.49679 0
M  V30 14189 C 1407.25 -0.0408859 1.94457 0
M  V30 14190 O 1406.5 -1.02127 1.66939 0
M  V30 14191 C 1406.8 2.28043 2.75193 0
M  V30 14192 C 1406.47 3.75717 2.49294 0
M  V30 14193 C 1405.13 4.15955 2.41941 0
M  V30 14194 C 1407.48 4.69127 2.27088 0
M  V30 14195 C 1404.81 5.47669 2.10419 0
M  V30 14196 C 1407.16 6.01116 1.97084 0
M  V30 14197 C 1405.83 6.4042 1.88197 0
M  V30 14198 H 1405.1 0.499088 0.547716 0
M  V30 14199 H 1407.74 1.71779 0.846416 0
M  V30 14200 H 1406.05 1.85765 3.44962 0
M  V30 14201 H 1407.75 2.23093 3.33212 0
M  V30 14202 H 1404.34 3.43825 2.55896 0
M  V30 14203 H 1408.52 4.38875 2.31739 0
M  V30 14204 H 1403.78 5.77046 2.02059 0
M  V30 14205 H 1407.95 6.73026 1.78909 0
M  V30 14206 H 1405.58 7.42401 1.63537 0
M  V30 14207 N 1407.15 -0.967221 1.24429 0
M  V30 14208 C 1408.06 -2.09582 1.05417 0
M  V30 14209 C 1409.08 -1.73999 -0.00516127 0
M  V30 14210 O 1410.25 -2.00472 0.193115 0
M  V30 14211 C 1407.32 -3.40327 0.661697 0
M  V30 14212 C 1406.38 -3.89854 1.79756 0
M  V30 14213 C 1405.61 -5.1436 1.42372 0
M  V30 14214 O 1405.84 -5.69536 0.313754 0
M  V30 14215 O 1404.77 -5.58283 2.24952 0
M  V30 14216 H 1408.6 -2.28517 2.00034 0
M  V30 14217 H 1406.18 -1.07978 1.03253 0
M  V30 14218 H 1408.06 -4.18943 0.454369 0
M  V30 14219 H 1406.74 -3.22691 -0.255348 0
M  V30 14220 H 1405.64 -3.12297 2.05964 0
M  V30 14221 H 1406.98 -4.11967 2.69339 0
M  V30 14222 N 1408.63 -1.05812 -1.16797 0
M  V30 14223 C 1409.88 -0.773066 -1.87487 0
M  V30 14224 C 1410.21 0.698471 -1.81204 0
M  V30 14225 O 1409.48 1.51129 -1.22434 0
M  V30 14226 C 1409.77 -1.2621 -3.37258 0
M  V30 14227 C 1409.62 -2.79704 -3.52258 0
M  V30 14228 C 1410.94 -0.866104 -4.31494 0
M  V30 14229 H 1408.06 -0.282304 -0.680789 0
M  V30 14230 H 1410.7 -1.3132 -1.37314 0
M  V30 14231 H 1408.85 -0.802608 -3.80119 0
M  V30 14232 H 1410.52 -3.33824 -3.1837 0
M  V30 14233 H 1408.76 -3.18673 -2.94329 0
M  V30 14234 H 1409.44 -3.08985 -4.57419 0
M  V30 14235 H 1411.91 -1.26178 -3.96508 0
M  V30 14236 H 1410.79 -1.23581 -5.34807 0
M  V30 14237 H 1411.05 0.229391 -4.41504 0
M  V30 14238 N 1410.11 1.33347 -0.840014 0
M  V30 14239 C 1411.35 1.98037 -0.43692 0
M  V30 14240 C 1411.69 1.66382 1.00154 0
M  V30 14241 O 1410.96 0.944311 1.70038 0
M  V30 14242 C 1411.24 3.54012 -0.65937 0
M  V30 14243 C 1411.1 3.9535 -2.14518 0
M  V30 14244 C 1412.42 4.39972 -0.106258 0
M  V30 14245 H 1409.54 0.719373 -0.160221 0
M  V30 14246 H 1412.18 1.57969 -1.05574 0
M  V30 14247 H 1410.33 3.88274 -0.132633 0
M  V30 14248 H 1412 3.7134 -2.73687 0
M  V30 14249 H 1410.24 3.4504 -2.62926 0
M  V30 14250 H 1410.91 5.03992 -2.25158 0
M  V30 14251 H 1413.39 4.12362 -0.556511 0
M  V30 14252 H 1412.27 5.48125 -0.291583 0
M  V30 14253 H 1412.53 4.30872 0.990032 0
M  V30 14254 N 1411.59 0.596556 1.45873 0
M  V30 14255 C 1412.5 -0.130832 2.34235 0
M  V30 14256 C 1413.51 -0.871805 1.50584 0
M  V30 14257 O 1414.69 -0.831877 1.83417 0
M  V30 14258 C 1411.75 -1.12279 3.28016 0
M  V30 14259 C 1410.81 -0.384982 4.2757 0
M  V30 14260 C 1410.05 -1.32969 5.1687 0
M  V30 14261 O 1410.27 -2.56696 5.09375 0
M  V30 14262 O 1409.2 -0.832741 5.96112 0
M  V30 14263 H 1413.03 0.59503 2.97814 0
M  V30 14264 H 1410.61 0.356873 1.45075 0
M  V30 14265 H 1412.5 -1.6944 3.85834 0
M  V30 14266 H 1411.17 -1.82988 2.67015 0
M  V30 14267 H 1410.08 0.228816 3.734 0
M  V30 14268 H 1411.41 0.281398 4.91395 0
M  V30 14269 N 1413.06 -1.53996 0.335095 0
M  V30 14270 C 1414.29 -2.05657 -0.268328 0
M  V30 14271 C 1414.71 -1.20897 -1.44102 0
M  V30 14272 O 1414.07 -0.220737 -1.79951 0
M  V30 14273 C 1414.12 -3.54331 -0.669481 0
M  V30 14274 O 1413.22 -3.7246 -1.77052 0
M  V30 14275 H 1412.56 -0.662386 -0.0462705 0
M  V30 14276 H 1415.09 -1.98723 0.486854 0
M  V30 14277 H 1415.1 -3.9681 -0.948971 0
M  V30 14278 H 1413.78 -4.15474 0.188168 0
M  V30 14279 H 1412.36 -3.41884 -1.48895 0
M  V30 14280 N 1414.54 -0.0635198 -1.57472 0
M  V30 14281 C 1415.79 0.606285 -1.92792 0
M  V30 14282 C 1416.11 1.70648 -0.943615 0
M  V30 14283 O 1415.38 1.95898 0.00957612 0
M  V30 14284 H 1413.96 0.226943 -0.711692 0
M  V30 14285 H 1416.62 -0.119429 -1.94534 0
M  V30 14286 H 1415.72 1.03694 -2.9437 0
M  V30 14287 N 1416.02 1.56195 0.209972 0
M  V30 14288 C 1417.44 1.49446 0.56018 0
M  V30 14289 C 1417.64 0.760799 1.86585 0
M  V30 14290 O 1416.69 0.305201 2.50649 0
M  V30 14291 C 1418 2.94054 0.628687 0
M  V30 14292 C 1419.55 3.04641 0.718531 0
M  V30 14293 C 1420.03 4.50631 0.81828 0
M  V30 14294 N 1421.52 4.54721 0.8822 0
M  V30 14295 C 1422.25 5.64976 0.979292 0
M  V30 14296 N 1421.75 6.84955 1.03961 0
M  V30 14297 N 1423.54 5.52854 1.01533 0
M  V30 14298 H 1415.69 2.02316 -0.646674 0
M  V30 14299 H 1417.96 0.920063 -0.228446 0
M  V30 14300 H 1417.66 3.50728 -0.261324 0
M  V30 14301 H 1417.54 3.46592 1.48842 0
M  V30 14302 H 1419.92 2.48026 1.59898 0
M  V30 14303 H 1420 2.55254 -0.167102 0
M  V30 14304 H 1419.65 5.07867 -0.0577557 0
M  V30 14305 H 1419.58 4.97736 1.7195 0
M  V30 14306 H 1422.07 3.68322 0.845433 0
M  V30 14307 H 1422.38 7.64732 1.11379 0
M  V30 14308 H 1420.73 6.87643 1.00854 0
M  V30 14309 H 1423.92 4.58046 0.96494 0
M  V30 14310 H 1424.09 6.38809 1.08754 0
M  V30 14311 N 1417.5 -0.477127 1.50204 0
M  V30 14312 C 1418.73 -1.25126 1.64399 0
M  V30 14313 C 1419.14 -1.86401 0.32424 0
M  V30 14314 O 1418.48 -1.69711 -0.703119 0
M  V30 14315 C 1418.54 -2.40428 2.67273 0
M  V30 14316 C 1418.2 -1.99837 4.10992 0
M  V30 14317 C 1419.2 -1.52435 4.97051 0
M  V30 14318 C 1416.89 -2.08742 4.56872 0
M  V30 14319 C 1418.88 -1.14472 6.27037 0
M  V30 14320 C 1416.57 -1.70391 5.86865 0
M  V30 14321 C 1417.57 -1.23333 6.71772 0
M  V30 14322 O 1417.25 -0.855111 7.99339 0
M  V30 14323 H 1416.99 -0.384801 0.555791 0
M  V30 14324 H 1419.54 -0.576654 1.97139 0
M  V30 14325 H 1417.77 -3.1104 2.29763 0
M  V30 14326 H 1419.46 -3.02406 2.7075 0
M  V30 14327 H 1420.22 -1.44981 4.62823 0
M  V30 14328 H 1416.1 -2.44319 3.90934 0
M  V30 14329 H 1419.65 -0.776712 6.93263 0
M  V30 14330 H 1415.54 -1.77501 6.20615 0
M  V30 14331 H 1416.31 -0.984492 8.12558 0
M  V30 14332 N 1418.98 -1.3968 -0.729882 0
M  V30 14333 C 1420.23 -1.36492 -1.48502 0
M  V30 14334 C 1420.54 0.0346572 -1.95569 0
M  V30 14335 O 1421.74 0.189135 -2.7084 0
M  V30 14336 C 1420.2 -2.39813 -2.68361 0
M  V30 14337 C 1419.81 -3.85511 -2.28222 0
M  V30 14338 C 1421.55 -2.45709 -3.46161 0
M  V30 14339 C 1419.46 -4.80462 -3.44834 0
M  V30 14340 H 1418.39 -0.507455 -0.557679 0
M  V30 14341 H 1421.04 -1.6535 -0.795708 0
M  V30 14342 H 1419.42 -2.04033 -3.39392 0
M  V30 14343 H 1420.6 -4.30359 -1.64704 0
M  V30 14344 H 1418.91 -3.82957 -1.63501 0
M  V30 14345 H 1421.51 -3.1384 -4.32907 0
M  V30 14346 H 1421.85 -1.48318 -3.88983 0
M  V30 14347 H 1422.38 -2.80409 -2.82163 0
M  V30 14348 H 1419.12 -5.79134 -3.07057 0
M  V30 14349 H 1418.64 -4.40289 -4.07315 0
M  V30 14350 H 1420.32 -4.99607 -4.11098 0
M  V30 14351 N 1420.45 0.960609 -1.2494 0
M  V30 14352 C 1421.7 1.69884 -1.08731 0
M  V30 14353 C 1422.02 1.92018 0.372602 0
M  V30 14354 O 1423.22 2.6348 0.655018 0
M  V30 14355 C 1421.68 3.05815 -1.8975 0
M  V30 14356 C 1421.29 2.91498 -3.40196 0
M  V30 14357 C 1423.03 3.83462 -1.82092 0
M  V30 14358 C 1420.94 4.22783 -4.13532 0
M  V30 14359 H 1419.87 0.637087 -0.403281 0
M  V30 14360 H 1422.52 1.06987 -1.49084 0
M  V30 14361 H 1420.9 3.69582 -1.42216 0
M  V30 14362 H 1422.07 2.367 -3.9536 0
M  V30 14363 H 1420.39 2.27312 -3.48882 0
M  V30 14364 H 1422.99 4.8069 -2.34181 0
M  V30 14365 H 1423.33 4.08782 -0.787597 0
M  V30 14366 H 1423.86 3.26435 -2.27344 0
M  V30 14367 H 1420.6 4.02653 -5.17253 0
M  V30 14368 H 1420.12 4.77369 -3.63152 0
M  V30 14369 H 1421.8 4.91361 -4.2092 0
M  V30 14370 N 1421.93 1.0643 1.16234 0
M  V30 14371 C 1422.86 0.697605 2.22836 0
M  V30 14372 C 1423.84 -0.310563 1.67241 0
M  V30 14373 O 1425.03 -0.185385 1.93313 0
M  V30 14374 C 1422.16 0.0847097 3.47197 0
M  V30 14375 C 1421.11 1.019 4.15693 0
M  V30 14376 C 1420.44 0.269339 5.34021 0
M  V30 14377 C 1421.74 2.34861 4.66516 0
M  V30 14378 H 1423.43 1.58883 2.53765 0
M  V30 14379 H 1420.98 0.765388 1.21975 0
M  V30 14380 H 1422.93 -0.1837 4.20999 0
M  V30 14381 H 1421.66 -0.84154 3.15572 0
M  V30 14382 H 1420.31 1.27218 3.43818 0
M  V30 14383 H 1419.96 -0.660072 4.9865 0
M  V30 14384 H 1419.66 0.892001 5.8079 0
M  V30 14385 H 1421.19 0.00850775 6.10599 0
M  V30 14386 H 1422.6 2.13922 5.31893 0
M  V30 14387 H 1421 2.92637 5.23912 0
M  V30 14388 H 1422.07 2.97834 3.82653 0
M  V30 14389 N 1423.41 -1.329 0.847073 0
M  V30 14390 C 1424.34 -2.31546 0.301422 0
M  V30 14391 C 1425.32 -1.59342 -0.595317 0
M  V30 14392 O 1426.51 -1.87188 -0.517151 0
M  V30 14393 C 1423.64 -3.43423 -0.517454 0
M  V30 14394 C 1422.59 -4.27055 0.284195 0
M  V30 14395 C 1421.92 -5.30624 -0.658944 0
M  V30 14396 C 1423.22 -5.00123 1.50578 0
M  V30 14397 H 1424.91 -2.77433 1.12567 0
M  V30 14398 H 1422.46 -1.3338 0.542739 0
M  V30 14399 H 1424.41 -4.11467 -0.909543 0
M  V30 14400 H 1423.13 -2.96246 -1.37499 0
M  V30 14401 H 1421.79 -3.60648 0.657944 0
M  V30 14402 H 1421.44 -4.79702 -1.51311 0
M  V30 14403 H 1421.14 -5.87464 -0.12662 0
M  V30 14404 H 1422.66 -6.01533 -1.04837 0
M  V30 14405 H 1424.08 -5.6089 1.18641 0
M  V30 14406 H 1422.48 -5.66652 1.97549 0
M  V30 14407 H 1423.55 -4.28424 2.27115 0
M  V30 14408 N 1424.89 -0.604284 -1.45555 0
M  V30 14409 C 1425.82 0.103859 -2.33269 0
M  V30 14410 C 1426.8 0.862104 -1.46635 0
M  V30 14411 O 1427.98 0.833308 -1.75413 0
M  V30 14412 C 1425.11 1.104 -3.29286 0
M  V30 14413 C 1424.07 0.459189 -4.2553 0
M  V30 14414 C 1423.39 1.56734 -5.11213 0
M  V30 14415 C 1424.69 -0.617509 -5.18637 0
M  V30 14416 H 1426.39 -0.628538 -2.92728 0
M  V30 14417 H 1423.93 -0.303711 -1.40761 0
M  V30 14418 H 1425.89 1.60794 -3.89517 0
M  V30 14419 H 1424.61 1.86695 -2.67979 0
M  V30 14420 H 1423.27 -0.0238508 -3.66592 0
M  V30 14421 H 1422.92 2.32049 -4.46276 0
M  V30 14422 H 1422.62 1.14142 -5.76407 0
M  V30 14423 H 1424.14 2.07361 -5.74312 0
M  V30 14424 H 1425.56 -0.197784 -5.72959 0
M  V30 14425 H 1423.95 -0.96499 -5.9229 0
M  V30 14426 H 1425.02 -1.49541 -4.61265 0
M  V30 14427 N 1426.37 1.53816 -0.343257 0
M  V30 14428 C 1427.61 2.00512 0.252845 0
M  V30 14429 C 1427.94 1.23274 1.51091 0
M  V30 14430 O 1427.21 0.339841 1.9293 0
M  V30 14431 H 1425.79 0.740751 0.0964202 0
M  V30 14432 H 1428.45 1.89288 -0.464347 0
M  V30 14433 H 1427.54 3.08142 0.495499 0
M  V30 14434 N 1427.84 0.0718701 1.57436 0
M  V30 14435 C 1428.79 -0.895335 2.12726 0
M  V30 14436 C 1429.76 -1.29528 1.03979 0
M  V30 14437 O 1430.95 -1.38113 1.31642 0
M  V30 14438 C 1428.09 -2.15755 2.6934 0
M  V30 14439 C 1427.2 -1.81023 3.92243 0
M  V30 14440 C 1426.33 -3.01856 4.371 0
M  V30 14441 C 1425.37 -2.63141 5.52651 0
M  V30 14442 N 1424.51 -3.76734 5.92466 0
M  V30 14443 H 1429.35 -0.416964 2.95068 0
M  V30 14444 H 1426.89 -0.194165 1.45813 0
M  V30 14445 H 1428.85 -2.89642 3.00272 0
M  V30 14446 H 1427.48 -2.61132 1.89762 0
M  V30 14447 H 1426.53 -0.971983 3.67773 0
M  V30 14448 H 1427.84 -1.4854 4.76169 0
M  V30 14449 H 1426.99 -3.84022 4.69694 0
M  V30 14450 H 1425.73 -3.37533 3.52027 0
M  V30 14451 H 1424.74 -1.79397 5.19708 0
M  V30 14452 H 1425.96 -2.28635 6.39455 0
M  V30 14453 H 1423.91 -4.12173 5.10343 0
M  V30 14454 H 1423.83 -3.48019 6.71132 0
M  V30 14455 H 1425.09 -4.59479 6.29682 0
M  V30 14456 N 1429.32 -1.56304 -0.201686 0
M  V30 14457 C 1430.29 -1.93171 -1.2336 0
M  V30 14458 C 1431.29 -0.812164 -1.38782 0
M  V30 14459 O 1432.48 -1.07967 -1.36707 0
M  V30 14460 C 1429.61 -2.19997 -2.60411 0
M  V30 14461 H 1430.8 -2.85483 -0.918654 0
M  V30 14462 H 1428.35 -1.49893 -0.442935 0
M  V30 14463 H 1429.09 -1.30301 -2.96972 0
M  V30 14464 H 1428.87 -3.01574 -2.5059 0
M  V30 14465 H 1430.36 -2.49547 -3.34838 0
M  V30 14466 N 1430.8 0.469154 -1.50455 0
M  V30 14467 C 1431.73 1.57493 -1.7239 0
M  V30 14468 C 1432.71 1.60161 -0.572915 0
M  V30 14469 O 1433.9 1.76397 -0.812259 0
M  V30 14470 C 1431.03 2.95804 -1.81981 0
M  V30 14471 C 1429.98 3.08001 -2.97185 0
M  V30 14472 C 1429.31 4.4798 -2.91922 0
M  V30 14473 C 1430.61 2.85039 -4.37665 0
M  V30 14474 H 1432.3 1.39389 -2.64974 0
M  V30 14475 H 1429.85 0.669133 -1.27509 0
M  V30 14476 H 1431.8 3.73091 -1.95911 0
M  V30 14477 H 1430.52 3.15068 -0.86021 0
M  V30 14478 H 1429.18 2.33148 -2.82909 0
M  V30 14479 H 1428.83 4.64165 -1.93803 0
M  V30 14480 H 1428.53 4.57076 -3.69263 0
M  V30 14481 H 1430.05 5.27284 -3.07903 0
M  V30 14482 H 1431.47 3.52074 -4.52456 0
M  V30 14483 H 1429.87 3.05578 -5.16471 0
M  V30 14484 H 1430.94 1.8088 -4.499 0
M  V30 14485 N 1432.28 1.40065 0.722464 0
M  V30 14486 C 1433.5 1.4146 1.5167 0
M  V30 14487 C 1433.93 0.0142653 1.88095 0
M  V30 14488 O 1433.29 -0.975934 1.52791 0
M  V30 14489 C 1433.33 2.30531 2.77287 0
M  V30 14490 O 1432.44 1.74382 3.73717 0
M  V30 14491 H 1431.78 0.481194 0.457546 0
M  V30 14492 H 1434.31 1.84213 0.890331 0
M  V30 14493 H 1434.32 2.45479 3.25889 0
M  V30 14494 H 1432.99 3.32292 2.50109 0
M  V30 14495 H 1431.57 1.68743 3.32536 0
M  V30 14496 N 1433.76 -0.95397 1.25448 0
M  V30 14497 C 1435 -1.70118 1.10399 0
M  V30 14498 C 1435.34 -1.90945 -0.354093 0
M  V30 14499 O 1434.61 -1.48088 -1.26096 0
M  V30 14500 C 1434.89 -3.08371 1.85955 0
M  V30 14501 C 1434.75 -2.9495 3.39595 0
M  V30 14502 C 1436.07 -4.08273 1.64321 0
M  V30 14503 H 1433.19 -0.617424 0.402438 0
M  V30 14504 H 1435.83 -1.10884 1.54288 0
M  V30 14505 H 1433.98 -3.58936 1.48651 0
M  V30 14506 H 1435.65 -2.51705 3.86578 0
M  V30 14507 H 1433.89 -2.30853 3.67273 0
M  V30 14508 H 1434.56 -3.92952 3.87676 0
M  V30 14509 H 1437.04 -3.6662 1.96796 0
M  V30 14510 H 1435.92 -5.03048 2.19622 0
M  V30 14511 H 1436.18 -4.38217 0.584685 0
M  V30 14512 N 1435.24 -1.07045 -1.15668 0
M  V30 14513 C 1436.48 -0.792908 -1.86657 0
M  V30 14514 C 1436.81 0.679213 -1.81935 0
M  V30 14515 O 1436.09 1.49822 -1.2403 0
M  V30 14516 C 1436.37 -1.2978 -3.35901 0
M  V30 14517 C 1436.23 -2.83424 -3.49272 0
M  V30 14518 C 1437.54 -0.911821 -4.30551 0
M  V30 14519 H 1434.66 -0.289509 -0.677756 0
M  V30 14520 H 1437.31 -1.32769 -1.35913 0
M  V30 14521 H 1435.46 -0.84288 -3.79246 0
M  V30 14522 H 1437.13 -3.37182 -3.14811 0
M  V30 14523 H 1435.37 -3.21777 -2.90933 0
M  V30 14524 H 1436.04 -3.13819 -4.54116 0
M  V30 14525 H 1438.52 -1.30376 -3.95147 0
M  V30 14526 H 1437.39 -1.29247 -5.33467 0
M  V30 14527 H 1437.65 0.18255 -4.41723 0
M  V30 14528 N 1436.71 1.32449 -0.85411 0
M  V30 14529 C 1437.96 1.97962 -0.467177 0
M  V30 14530 C 1438.31 1.66368 0.966409 0
M  V30 14531 O 1437.61 0.941277 1.66885 0
M  V30 14532 C 1437.8 3.51577 -0.642499 0
M  V30 14533 C 1437.63 3.98099 -2.09158 0
M  V30 14534 C 1436.4 4.25207 -2.72996 0
M  V30 14535 C 1438.6 4.13207 -3.0621 0
M  V30 14536 N 1436.58 4.57973 -4.0882 0
M  V30 14537 C 1437.95 4.49504 -4.2702 0
M  V30 14538 C 1440.01 3.95539 -3.02412 0
M  V30 14539 C 1438.71 4.69978 -5.4453 0
M  V30 14540 C 1440.74 4.17197 -4.19167 0
M  V30 14541 C 1440.1 4.5381 -5.38735 0
M  V30 14542 H 1436.2 0.75051 -0.21968 0
M  V30 14543 H 1438.78 1.60279 -1.10538 0
M  V30 14544 H 1436.95 3.88385 -0.033996 0
M  V30 14545 H 1438.68 4.04071 -0.225515 0
M  V30 14546 H 1435.44 4.17258 -2.24038 0
M  V30 14547 H 1435.86 4.78541 -4.78881 0
M  V30 14548 H 1440.5 3.66334 -2.1109 0
M  V30 14549 H 1438.22 4.98037 -6.36384 0
M  V30 14550 H 1441.81 4.0503 -4.17663 0
M  V30 14551 H 1440.69 4.70233 -6.27575 0
M  V30 14552 N 1438.19 0.611994 1.45232 0
M  V30 14553 C 1439.47 0.0407 1.95558 0
M  V30 14554 C 1439.85 -1.42839 1.55436 0
M  V30 14555 O 1439.2 -2.13316 0.819055 0
M  V30 14556 C 1439.41 0.243436 3.4815 0
M  V30 14557 C 1440.75 0.126551 4.24411 0
M  V30 14558 O 1441.78 0.17379 3.55776 0
M  V30 14559 O 1440.64 0.0153526 5.46498 0
M  V30 14560 H 1437.73 -0.0332288 0.826332 0
M  V30 14561 H 1440.28 0.682364 1.55377 0
M  V30 14562 H 1439.05 1.26357 3.70337 0
M  V30 14563 H 1438.67 -0.43328 3.95232 0
M  V30 14564 N 1439.67 -1.53632 0.351409 0
M  V30 14565 C 1441.09 -1.596 -0.000214515 0
M  V30 14566 C 1441.29 -1.36709 -1.4803 0
M  V30 14567 O 1440.34 -1.16524 -2.24006 0
M  V30 14568 C 1441.65 -2.97419 0.443013 0
M  V30 14569 C 1443.2 -3.10485 0.396025 0
M  V30 14570 C 1443.68 -4.50693 0.814843 0
M  V30 14571 N 1445.17 -4.56766 0.76934 0
M  V30 14572 C 1445.9 -5.63418 1.06526 0
M  V30 14573 N 1445.4 -6.77887 1.42974 0
M  V30 14574 N 1447.19 -5.53331 0.988986 0
M  V30 14575 H 1439.34 -1.66765 1.31542 0
M  V30 14576 H 1441.61 -0.781418 0.53674 0
M  V30 14577 H 1441.31 -3.19262 1.47529 0
M  V30 14578 H 1441.19 -3.76781 -0.177725 0
M  V30 14579 H 1443.57 -2.8836 -0.627092 0
M  V30 14580 H 1443.65 -2.33163 1.05207 0
M  V30 14581 H 1443.3 -4.73554 1.83601 0
M  V30 14582 H 1443.23 -5.26424 0.136193 0
M  V30 14583 H 1445.72 -3.74569 0.500623 0
M  V30 14584 H 1446.03 -7.55194 1.64018 0
M  V30 14585 H 1444.38 -6.79314 1.46827 0
M  V30 14586 H 1447.57 -4.62783 0.703526 0
M  V30 14587 H 1447.74 -6.36355 1.22295 0
M  V30 14588 N 1441.15 -0.0802183 -1.57396 0
M  V30 14589 C 1442.1 0.894334 -2.09728 0
M  V30 14590 C 1443.08 1.25342 -1.00887 0
M  V30 14591 O 1444.27 1.23099 -1.27184 0
M  V30 14592 C 1441.4 2.15885 -2.66924 0
M  V30 14593 C 1440.49 1.82587 -3.82783 0
M  V30 14594 N 1440.88 1.19777 -4.91413 0
M  V30 14595 C 1439.18 2.12287 -3.92237 0
M  V30 14596 C 1439.88 1.04758 -5.72189 0
M  V30 14597 N 1438.85 1.56005 -5.20733 0
M  V30 14598 H 1442.66 0.404523 -2.91103 0
M  V30 14599 H 1440.17 0.123432 -1.6193 0
M  V30 14600 H 1442.17 2.8663 -3.02736 0
M  V30 14601 H 1440.83 2.65446 -1.86998 0
M  V30 14602 H 1441.84 0.866384 -5.10602 0
M  V30 14603 H 1438.52 2.64166 -3.23299 0
M  V30 14604 H 1439.91 0.55756 -6.69583 0
M  V30 14605 N 1442.63 1.56409 0.193394 0
M  V30 14606 C 1443.56 1.97707 1.24234 0
M  V30 14607 C 1444.54 0.849286 1.47381 0
M  V30 14608 O 1445.72 1.11374 1.59089 0
M  V30 14609 C 1442.85 2.31804 2.5862 0
M  V30 14610 C 1441.81 3.47337 2.50082 0
M  V30 14611 C 1441.13 3.67114 3.88756 0
M  V30 14612 C 1442.43 4.81472 2.02441 0
M  V30 14613 H 1444.13 2.8558 0.89914 0
M  V30 14614 H 1441.67 1.37396 0.431078 0
M  V30 14615 H 1443.62 2.5929 3.32185 0
M  V30 14616 H 1442.35 1.40816 2.94684 0
M  V30 14617 H 1441.01 3.19944 1.78973 0
M  V30 14618 H 1440.66 2.73454 4.22175 0
M  V30 14619 H 1440.36 4.44838 3.83918 0
M  V30 14620 H 1441.88 3.96978 4.6394 0
M  V30 14621 H 1443.29 5.07978 2.65766 0
M  V30 14622 H 1441.69 5.62677 2.08601 0
M  V30 14623 H 1442.76 4.74941 0.977704 0
M  V30 14624 N 1444.1 -0.461169 1.50702 0
M  V30 14625 C 1445.33 -1.24019 1.66235 0
M  V30 14626 C 1445.75 -1.84827 0.349388 0
M  V30 14627 O 1445.11 -1.67743 -0.687888 0
M  V30 14628 C 1445.16 -2.31743 2.76274 0
M  V30 14629 O 1444.26 -3.3664 2.38217 0
M  V30 14630 H 1443.6 -0.364424 0.55506 0
M  V30 14631 H 1446.13 -0.547636 1.97135 0
M  V30 14632 H 1446.14 -2.76902 2.99649 0
M  V30 14633 H 1444.82 -1.86858 3.7156 0
M  V30 14634 H 1443.4 -2.97123 2.25327 0
M  V30 14635 N 1445.58 -1.40446 -0.715026 0
M  V30 14636 C 1446.83 -1.38059 -1.47046 0
M  V30 14637 C 1447.14 0.0139125 -1.95595 0
M  V30 14638 O 1448.35 0.160398 -2.71026 0
M  V30 14639 C 1446.81 -2.42646 -2.65802 0
M  V30 14640 C 1446.41 -3.8791 -2.2412 0
M  V30 14641 C 1448.16 -2.49367 -3.43535 0
M  V30 14642 C 1446.06 -4.84092 -3.39719 0
M  V30 14643 H 1444.99 -0.513341 -0.552265 0
M  V30 14644 H 1447.65 -1.66185 -0.778126 0
M  V30 14645 H 1446.03 -2.07621 -3.37208 0
M  V30 14646 H 1447.2 -4.32082 -1.6013 0
M  V30 14647 H 1445.52 -3.8467 -1.5943 0
M  V30 14648 H 1448.11 -3.18414 -4.29554 0
M  V30 14649 H 1448.46 -1.52436 -3.87388 0
M  V30 14650 H 1448.99 -2.83386 -2.79173 0
M  V30 14651 H 1445.73 -5.82358 -3.00898 0
M  V30 14652 H 1445.25 -4.44584 -4.02623 0
M  V30 14653 H 1446.93 -5.03939 -4.05776 0
M  V30 14654 N 1447.06 0.947303 -1.25952 0
M  V30 14655 C 1448.28 1.73261 -1.13997 0
M  V30 14656 C 1448.71 1.85666 0.301639 0
M  V30 14657 O 1448.07 1.34244 1.21854 0
M  V30 14658 C 1448.12 3.12046 -1.8072 0
M  V30 14659 O 1447.22 3.97684 -1.09182 0
M  V30 14660 H 1446.56 0.53182 -0.397572 0
M  V30 14661 H 1449.09 1.18689 -1.66656 0
M  V30 14662 H 1449.1 3.62468 -1.87299 0
M  V30 14663 H 1447.78 3.02334 -2.856 0
M  V30 14664 H 1446.35 3.56141 -1.10536 0
M  V30 14665 N 1448.54 1.07657 1.15099 0
M  V30 14666 C 1449.78 0.802796 1.86234 0
M  V30 14667 C 1450.12 -0.669555 1.82293 0
M  V30 14668 O 1449.39 -1.49162 1.24823 0
M  V30 14669 C 1449.68 1.3156 3.35208 0
M  V30 14670 C 1449.53 2.85272 3.47764 0
M  V30 14671 C 1450.85 0.934641 4.30061 0
M  V30 14672 H 1447.97 0.293099 0.676212 0
M  V30 14673 H 1450.61 1.33488 1.35207 0
M  V30 14674 H 1448.76 0.86298 3.78794 0
M  V30 14675 H 1450.43 3.38847 3.13018 0
M  V30 14676 H 1448.67 3.23316 2.89222 0
M  V30 14677 H 1449.34 3.16223 4.52446 0
M  V30 14678 H 1451.82 1.3247 3.9445 0
M  V30 14679 H 1450.7 1.32074 5.32774 0
M  V30 14680 H 1450.96 -0.159122 4.41814 0
M  V30 14681 N 1450.02 -1.31994 0.861122 0
M  V30 14682 C 1451.26 -1.97317 0.468371 0
M  V30 14683 C 1451.6 -1.67954 -0.974941 0
M  V30 14684 O 1450.87 -0.971243 -1.68514 0
M  V30 14685 C 1451.15 -3.52918 0.715607 0
M  V30 14686 C 1451.01 -3.91888 2.20781 0
M  V30 14687 C 1452.33 -4.39747 0.17624 0
M  V30 14688 H 1449.44 -0.716733 0.171646 0
M  V30 14689 H 1452.09 -1.56269 1.08074 0
M  V30 14690 H 1450.24 -3.88013 0.194387 0
M  V30 14691 H 1451.91 -3.66938 2.7956 0
M  V30 14692 H 1450.15 -3.40813 2.68382 0
M  V30 14693 H 1450.82 -5.00346 2.33147 0
M  V30 14694 H 1453.3 -4.11424 0.622043 0
M  V30 14695 H 1452.17 -5.47592 0.378748 0
M  V30 14696 H 1452.44 -4.32393 -0.921358 0
M  V30 14697 N 1451.49 -0.619688 -1.44906 0
M  V30 14698 C 1452.42 0.0791121 -2.33366 0
M  V30 14699 C 1453.41 0.846503 -1.47541 0
M  V30 14700 O 1454.59 0.814657 -1.76287 0
M  V30 14701 C 1451.72 1.06901 -3.30438 0
M  V30 14702 C 1450.67 0.41403 -4.25993 0
M  V30 14703 C 1450 1.51303 -5.12846 0
M  V30 14704 C 1451.3 -0.672483 -5.17953 0
M  V30 14705 H 1452.99 -0.659551 -2.92045 0
M  V30 14706 H 1450.54 -0.318623 -1.40431 0
M  V30 14707 H 1452.49 1.56653 -3.912 0
M  V30 14708 H 1451.22 1.83842 -2.69944 0
M  V30 14709 H 1449.88 -0.0627315 -3.66546 0
M  V30 14710 H 1449.52 2.27303 -4.48712 0
M  V30 14711 H 1449.22 1.08022 -5.77586 0
M  V30 14712 H 1450.75 2.01258 -5.76479 0
M  V30 14713 H 1452.16 -0.258542 -5.72717 0
M  V30 14714 H 1450.56 -1.02776 -5.91234 0
M  V30 14715 H 1451.63 -1.54425 -4.59653 0
M  V30 14716 N 1452.97 1.53444 -0.359552 0
M  V30 14717 C 1453.92 2.25544 0.48977 0
M  V30 14718 C 1454.89 1.25982 1.08248 0
M  V30 14719 O 1456.07 1.54751 1.1161 0
M  V30 14720 C 1453.21 3.04358 1.62666 0
M  V30 14721 C 1452.33 4.18801 1.0597 0
M  V30 14722 C 1451.46 4.85069 2.1652 0
M  V30 14723 C 1450.5 5.91554 1.57259 0
M  V30 14724 N 1449.64 6.51537 2.61617 0
M  V30 14725 H 1454.48 2.97709 -0.13158 0
M  V30 14726 H 1452.02 1.469 -0.0767056 0
M  V30 14727 H 1453.97 3.48324 2.29623 0
M  V30 14728 H 1452.6 2.34459 2.21876 0
M  V30 14729 H 1451.66 3.79364 0.280599 0
M  V30 14730 H 1452.97 4.95341 0.586383 0
M  V30 14731 H 1452.12 5.32187 2.9131 0
M  V30 14732 H 1450.86 4.07988 2.67202 0
M  V30 14733 H 1449.87 5.43803 0.809818 0
M  V30 14734 H 1451.09 6.70552 1.07409 0
M  V30 14735 H 1449.04 5.77312 3.11523 0
M  V30 14736 H 1448.95 7.23599 2.18954 0
M  V30 14737 H 1450.22 7.03306 3.36127 0
M  V30 14738 N 1454.45 0.0885642 1.57351 0
M  V30 14739 C 1455.38 -0.902617 2.10679 0
M  V30 14740 C 1456.4 -1.25037 1.04257 0
M  V30 14741 O 1457.58 -1.20462 1.31723 0
M  V30 14742 C 1454.68 -2.21362 2.56616 0
M  V30 14743 C 1453.86 -2.04219 3.86799 0
M  V30 14744 C 1452.92 -3.18774 4.18652 0
M  V30 14745 O 1451.94 -2.93024 4.87981 0
M  V30 14746 N 1453.14 -4.44357 3.73534 0
M  V30 14747 H 1455.91 -0.447199 2.96345 0
M  V30 14748 H 1453.47 -0.0967178 1.61611 0
M  V30 14749 H 1455.46 -2.96935 2.74976 0
M  V30 14750 H 1454.03 -2.58349 1.75996 0
M  V30 14751 H 1453.25 -1.13015 3.77652 0
M  V30 14752 H 1454.54 -1.90035 4.71979 0
M  V30 14753 H 1453.94 -4.68159 3.17558 0
M  V30 14754 H 1452.5 -5.169 3.97061 0
M  V30 14755 N 1455.93 -1.56509 -0.185096 0
M  V30 14756 C 1457.16 -1.85327 -0.91986 0
M  V30 14757 C 1457.57 -0.672294 -1.76425 0
M  V30 14758 O 1456.93 0.358854 -1.78937 0
M  V30 14759 C 1456.98 -3.13047 -1.80787 0
M  V30 14760 O 1456.7 -4.26591 -0.997569 0
M  V30 14761 C 1458.2 -3.55114 -2.65347 0
M  V30 14762 H 1455.42 -0.615196 -0.267909 0
M  V30 14763 H 1457.97 -2.03622 -0.189338 0
M  V30 14764 H 1456.12 -2.96619 -2.4919 0
M  V30 14765 H 1456.53 -4.99384 -1.60362 0
M  V30 14766 H 1458.01 -4.47419 -3.23295 0
M  V30 14767 H 1458.49 -2.78576 -3.39547 0
M  V30 14768 H 1459.09 -3.74105 -2.023 0
M  V30 14769 N 1457.41 0.45317 -1.50944 0
M  V30 14770 C 1458.64 1.22494 -1.66369 0
M  V30 14771 C 1459.04 1.85862 -0.353854 0
M  V30 14772 O 1458.39 1.70808 0.676031 0
M  V30 14773 C 1458.45 2.36145 -2.71064 0
M  V30 14774 C 1458.11 1.93273 -4.14119 0
M  V30 14775 C 1459.11 1.44508 -4.99413 0
M  V30 14776 C 1456.8 2.01447 -4.60135 0
M  V30 14777 C 1458.79 1.04482 -6.28778 0
M  V30 14778 C 1456.48 1.61033 -5.89501 0
M  V30 14779 C 1457.47 1.1263 -6.73649 0
M  V30 14780 O 1457.16 0.727835 -8.00598 0
M  V30 14781 H 1456.89 0.37591 -0.561843 0
M  V30 14782 H 1459.45 0.545218 -1.98032 0
M  V30 14783 H 1457.68 3.07345 -2.34682 0
M  V30 14784 H 1459.37 2.9806 -2.75527 0
M  V30 14785 H 1460.13 1.376 -4.65071 0
M  V30 14786 H 1456.01 2.38068 -3.94771 0
M  V30 14787 H 1459.56 0.666322 -6.9441 0
M  V30 14788 H 1455.45 1.67606 -6.23361 0
M  V30 14789 H 1456.22 0.855097 -8.14021 0
M  V30 14790 N 1458.88 1.40823 0.707568 0
M  V30 14791 C 1459.82 1.37646 1.83265 0
M  V30 14792 C 1460.83 0.280547 1.60365 0
M  V30 14793 O 1462.02 0.541453 1.7009 0
M  V30 14794 C 1459.12 1.12121 3.19816 0
M  V30 14795 C 1458.29 2.33522 3.69846 0
M  V30 14796 C 1457.35 2.04035 4.85032 0
M  V30 14797 O 1456.38 2.76971 4.97268 0
M  V30 14798 N 1457.58 1.02322 5.71411 0
M  V30 14799 H 1460.34 2.34612 1.86486 0
M  V30 14800 H 1457.9 1.35281 0.889424 0
M  V30 14801 H 1459.9 0.903663 3.94482 0
M  V30 14802 H 1458.47 0.237941 3.11693 0
M  V30 14803 H 1457.69 2.71055 2.86221 0
M  V30 14804 H 1458.97 3.14436 4.00009 0
M  V30 14805 H 1458.37 0.419311 5.64144 0
M  V30 14806 H 1456.93 0.865571 6.46027 0
M  V30 14807 N 1460.36 -0.94061 1.26453 0
M  V30 14808 C 1461.27 -2.07298 1.09839 0
M  V30 14809 C 1462.29 -1.73971 0.0317477 0
M  V30 14810 O 1463.46 -2.00017 0.235594 0
M  V30 14811 C 1460.53 -3.38847 0.733736 0
M  V30 14812 C 1459.59 -3.85954 1.87985 0
M  V30 14813 C 1458.82 -5.11224 1.5325 0
M  V30 14814 O 1459.05 -5.68743 0.434491 0
M  V30 14815 O 1457.98 -5.53386 2.36743 0
M  V30 14816 H 1461.81 -2.24222 2.04837 0
M  V30 14817 H 1459.39 -1.05763 1.0552 0
M  V30 14818 H 1461.27 -4.17885 0.543131 0
M  V30 14819 H 1459.95 -3.2316 -0.186843 0
M  V30 14820 H 1458.86 -3.07858 2.12542 0
M  V30 14821 H 1460.19 -4.06162 2.78017 0
M  V30 14822 N 1461.84 -1.08266 -1.14527 0
M  V30 14823 C 1462.79 -0.711332 -2.19565 0
M  V30 14824 C 1463.76 0.301774 -1.63336 0
M  V30 14825 O 1464.94 0.186109 -1.8989 0
M  V30 14826 C 1462.08 -0.125255 -3.44873 0
M  V30 14827 C 1461.2 -1.19096 -4.15259 0
M  V30 14828 C 1460.33 -0.568901 -5.28145 0
M  V30 14829 C 1459.37 -1.61675 -5.90362 0
M  V30 14830 N 1458.51 -1.01659 -6.94701 0
M  V30 14831 H 1463.35 -1.61137 -2.50677 0
M  V30 14832 H 1460.88 -0.805286 -1.231 0
M  V30 14833 H 1462.84 0.232247 -4.16553 0
M  V30 14834 H 1461.47 0.738101 -3.14248 0
M  V30 14835 H 1460.52 -1.66591 -3.41982 0
M  V30 14836 H 1461.84 -1.98508 -4.57598 0
M  V30 14837 H 1460.99 -0.159563 -6.0649 0
M  V30 14838 H 1459.73 0.256884 -4.87023 0
M  V30 14839 H 1458.73 -2.03576 -5.10722 0
M  V30 14840 H 1459.96 -2.44498 -6.33559 0
M  V30 14841 H 1457.9 -0.211872 -6.55658 0
M  V30 14842 H 1457.82 -1.74781 -7.35518 0
M  V30 14843 H 1459.09 -0.63306 -7.76925 0
M  V30 14844 N 1463.32 1.31536 -0.86811 0
M  V30 14845 C 1464.57 1.97066 -0.478829 0
M  V30 14846 C 1464.9 1.68469 0.966021 0
M  V30 14847 O 1464.17 0.980166 1.67997 0
M  V30 14848 C 1464.46 3.52533 -0.734313 0
M  V30 14849 C 1464.31 3.90711 -2.22856 0
M  V30 14850 C 1465.63 4.39647 -0.199559 0
M  V30 14851 H 1462.75 0.715813 -0.175444 0
M  V30 14852 H 1465.39 1.55694 -1.08901 0
M  V30 14853 H 1463.54 3.87905 -0.214962 0
M  V30 14854 H 1465.21 3.65451 -2.81502 0
M  V30 14855 H 1463.45 3.39385 -2.70185 0
M  V30 14856 H 1464.13 4.99103 -2.35797 0
M  V30 14857 H 1466.6 4.11088 -0.643853 0
M  V30 14858 H 1465.48 5.47383 -0.407783 0
M  V30 14859 H 1465.74 4.32875 0.898414 0
M  V30 14860 N 1464.8 0.627364 1.44575 0
M  V30 14861 C 1466.04 0.133615 2.03963 0
M  V30 14862 C 1466.4 -1.22005 1.48252 0
M  V30 14863 O 1467.6 -1.80569 1.99118 0
M  V30 14864 C 1465.87 0.115834 3.57212 0
M  V30 14865 S 1467.43 -0.313843 4.37676 0
M  V30 14866 H 1464.25 0.0592399 0.708528 0
M  V30 14867 H 1466.85 0.829908 1.77011 0
M  V30 14868 H 1465.56 1.10422 3.95266 0
M  V30 14869 H 1465.09 -0.601828 3.88769 0
M  V30 14870 H 1467.1 -1.55892 4.71075 0
M  V30 14871 N 1466.28 -1.53251 0.367684 0
M  V30 14872 C 1467.52 -2.00889 -0.220914 0
M  V30 14873 C 1467.84 -1.25662 -1.4911 0
M  V30 14874 O 1467.11 -0.370491 -1.92365 0
M  V30 14875 H 1465.69 -0.742191 -0.0846233 0
M  V30 14876 H 1468.36 -1.88525 0.494402 0
M  V30 14877 H 1467.45 -3.08891 -0.446414 0
M  V30 14878 N 1467.75 -0.0969077 -1.57302 0
M  V30 14879 C 1468.68 0.858443 -2.17147 0
M  V30 14880 C 1469.66 1.29294 -1.10531 0
M  V30 14881 O 1470.85 1.3595 -1.38676 0
M  V30 14882 C 1467.98 2.11691 -2.75326 0
M  V30 14883 C 1466.93 1.82097 -3.8733 0
M  V30 14884 C 1466.26 3.14787 -4.32219 0
M  V30 14885 C 1467.56 1.10651 -5.10444 0
M  V30 14886 H 1469.25 0.35982 -2.9723 0
M  V30 14887 H 1466.8 0.17163 -1.42974 0
M  V30 14888 H 1468.75 2.78963 -3.15844 0
M  V30 14889 H 1467.48 2.63839 -1.925 0
M  V30 14890 H 1466.14 1.17222 -3.47354 0
M  V30 14891 H 1465.78 3.64826 -3.46281 0
M  V30 14892 H 1465.48 2.95769 -5.07735 0
M  V30 14893 H 1467.01 3.83215 -4.75372 0
M  V30 14894 H 1468.42 1.68036 -5.48121 0
M  V30 14895 H 1466.82 1.01805 -5.91401 0
M  V30 14896 H 1467.89 0.0895634 -4.84817 0
M  V30 14897 N 1469.23 1.56605 0.176793 0
M  V30 14898 C 1470.47 1.83477 0.900858 0
M  V30 14899 C 1470.84 0.677051 1.79666 0
M  V30 14900 O 1472.04 0.826091 2.55791 0
M  V30 14901 C 1470.31 3.15444 1.68017 0
M  V30 14902 S 1471.87 3.63781 2.45375 0
M  V30 14903 H 1468.68 0.643758 0.301823 0
M  V30 14904 H 1471.29 1.9482 0.162888 0
M  V30 14905 H 1469.99 3.97701 1.01302 0
M  V30 14906 H 1469.52 3.07028 2.45962 0
M  V30 14907 H 1471.54 3.30672 3.6996 0
M  V30 14908 N 1470.71 -0.445159 1.51182 0
M  V30 14909 C 1471.96 -1.19288 1.6314 0
M  V30 14910 C 1472.28 -1.91904 0.346109 0
M  V30 14911 O 1471.55 -1.8523 -0.637695 0
M  V30 14912 H 1470.13 -0.443319 0.601229 0
M  V30 14913 H 1472.79 -0.511136 1.88078 0
M  V30 14914 H 1471.89 -1.92672 2.45528 0
M  V30 14915 N 1472.19 -1.41197 -0.700089 0
M  V30 14916 C 1473.14 -1.42885 -1.83539 0
M  V30 14917 C 1474.13 -0.307431 -1.66587 0
M  V30 14918 O 1475.34 -0.479238 -1.73503 0
M  V30 14919 H 1471.71 -0.446973 -0.604747 0
M  V30 14920 H 1473.68 -2.38576 -1.79231 0
M  V30 14921 C 1472.43 -1.3235 -3.21526 0
M  V30 14922 H 1471.75 -2.17926 -3.35184 0
M  V30 14923 H 1473.19 -1.37592 -4.01054 0
M  V30 14924 C 1471.65 -0.0353528 -3.36881 0
M  V30 14925 O 1472.18 0.921676 -3.90983 0
M  V30 14926 N 1470.39 0.0392479 -2.90573 0
M  V30 14927 H 1469.94 -0.740299 -2.46733 0
M  V30 14928 H 1469.89 0.900559 -3.01226 0
M  V30 14929 N 1473.67 0.933891 -1.2695 0
M  V30 14930 C 1474.91 1.68091 -1.12924 0
M  V30 14931 C 1475.24 1.91747 0.326088 0
M  V30 14932 O 1474.5 1.50126 1.25541 0
M  V30 14933 C 1474.79 3.05706 -1.85145 0
M  V30 14934 C 1474.46 3.01781 -3.35021 0
M  V30 14935 C 1473.12 3.00417 -3.75903 0
M  V30 14936 C 1475.47 2.93537 -4.3068 0
M  V30 14937 C 1472.8 2.88585 -5.10818 0
M  V30 14938 C 1475.15 2.83246 -5.65645 0
M  V30 14939 C 1473.82 2.80229 -6.05828 0
M  V30 14940 H 1473.09 0.615087 -0.413217 0
M  V30 14941 H 1475.74 1.08957 -1.57482 0
M  V30 14942 H 1474.04 3.68508 -1.33077 0
M  V30 14943 H 1475.74 3.62369 -1.71726 0
M  V30 14944 H 1472.33 3.03626 -3.02505 0
M  V30 14945 H 1476.51 2.93693 -4.00073 0
M  V30 14946 H 1471.77 2.84632 -5.41105 0
M  V30 14947 H 1475.94 2.75832 -6.39445 0
M  V30 14948 H 1473.57 2.70818 -7.10325 0
M  V30 14949 N 1475.14 1.08871 1.13951 0
M  V30 14950 C 1476.42 0.73388 1.81311 0
M  V30 14951 C 1476.8 -0.781824 1.96089 0
M  V30 14952 O 1476.15 -1.70211 1.52448 0
M  V30 14953 C 1476.36 1.46631 3.16702 0
M  V30 14954 C 1477.71 1.62843 3.92132 0
M  V30 14955 O 1478.73 1.42836 3.26307 0
M  V30 14956 O 1477.59 1.95893 5.10185 0
M  V30 14957 H 1474.68 0.262976 0.784074 0
M  V30 14958 H 1477.23 1.19057 1.20927 0
M  V30 14959 H 1476 2.49863 3.01138 0
M  V30 14960 H 1475.62 1.00141 3.84782 0
M  V30 14961 N 1476.62 -1.31073 0.875073 0
M  V30 14962 C 1477.87 -1.9613 0.487584 0
M  V30 14963 C 1478.19 -1.69482 -0.964407 0
M  V30 14964 O 1477.46 -1.013 -1.67676 0
M  V30 14965 H 1476.04 -0.725649 0.177319 0
M  V30 14966 H 1478.7 -1.59787 1.11598 0
M  V30 14967 H 1477.8 -3.05265 0.649574 0
M  V30 14968 N 1478.1 -0.635022 -1.4424 0
M  V30 14969 C 1479.35 -0.138497 -2.01224 0
M  V30 14970 C 1479.66 1.2485 -1.50571 0
M  V30 14971 O 1480.87 1.83926 -1.99709 0
M  V30 14972 C 1479.32 -0.196836 -3.59361 0
M  V30 14973 C 1478.93 -1.58539 -4.1901 0
M  V30 14974 C 1480.68 0.243025 -4.23804 0
M  V30 14975 C 1478.58 -1.59864 -5.69384 0
M  V30 14976 H 1477.51 -0.0480117 -0.75247 0
M  V30 14977 H 1480.16 -0.794391 -1.65414 0
M  V30 14978 H 1478.55 0.526231 -3.92488 0
M  V30 14979 H 1479.72 -2.33236 -3.97414 0
M  V30 14980 H 1478.04 -1.96967 -3.66869 0
M  V30 14981 H 1480.63 0.252717 -5.34102 0
M  V30 14982 H 1480.98 1.27107 -3.96421 0
M  V30 14983 H 1481.51 -0.427678 -3.95494 0
M  V30 14984 H 1478.25 -2.60518 -6.01507 0
M  V30 14985 H 1477.77 -0.894664 -5.9309 0
M  V30 14986 H 1479.45 -1.3343 -6.33092 0
M  V30 14987 N 1479.58 1.53054 -0.375806 0
M  V30 14988 C 1480.51 2.23664 0.500685 0
M  V30 14989 C 1481.52 1.25432 1.03782 0
M  V30 14990 O 1482.71 1.51592 0.942451 0
M  V30 14991 C 1479.81 2.9288 1.70513 0
M  V30 14992 C 1478.99 4.17706 1.29772 0
M  V30 14993 C 1478.04 4.7004 2.36536 0
M  V30 14994 O 1477.07 5.33466 1.98502 0
M  V30 14995 N 1478.27 4.48732 3.68266 0
M  V30 14996 H 1481.04 2.99519 -0.104201 0
M  V30 14997 H 1478.6 1.60641 -0.201488 0
M  V30 14998 H 1480.59 3.24795 2.41433 0
M  V30 14999 H 1479.16 2.20416 2.21665 0
M  V30 15000 H 1478.38 3.91978 0.41795 0
M  V30 15001 H 1479.67 4.98837 1.00197 0
M  V30 15002 H 1479.07 3.98075 4.01936 0
M  V30 15003 H 1477.62 4.85172 4.3526 0
M  V30 15004 N 1481.06 0.105248 1.57248 0
M  V30 15005 C 1482 -0.867443 2.1582 0
M  V30 15006 C 1483 -1.28508 1.10373 0
M  V30 15007 O 1484.2 -1.25842 1.287 0
M  V30 15008 H 1480.58 -0.2978 0.690521 0
M  V30 15009 H 1482.55 -0.348831 2.96354 0
M  V30 15010 C 1481.3 -2.11299 2.7613 0
M  V30 15011 H 1480.62 -1.80054 3.5696 0
M  V30 15012 H 1482.06 -2.77395 3.20668 0
M  V30 15013 C 1480.52 -2.89372 1.72527 0
M  V30 15014 O 1481.05 -3.84274 1.17032 0
M  V30 15015 N 1479.26 -2.53103 1.42784 0
M  V30 15016 H 1478.8 -1.75998 1.88102 0
M  V30 15017 H 1478.76 -3.05639 0.737035 0
M  V30 15018 N 1482.53 -1.56697 -0.168486 0
M  V30 15019 C 1483.48 -1.9755 -1.22787 0
M  V30 15020 C 1484.48 -0.864668 -1.4567 0
M  V30 15021 O 1485.68 -1.04979 -1.46217 0
M  V30 15022 H 1482.06 -0.628561 -0.412813 0
M  V30 15023 H 1484.03 -2.85845 -0.85646 0
M  V30 15024 C 1482.78 -2.35394 -2.559 0
M  V30 15025 H 1482.1 -3.20412 -2.39115 0
M  V30 15026 H 1483.54 -2.67821 -3.28706 0
M  V30 15027 C 1482 -1.19842 -3.14864 0
M  V30 15028 O 1482.53 -0.487601 -3.9873 0
M  V30 15029 N 1480.74 -0.968249 -2.73995 0
M  V30 15030 H 1480.28 -1.54804 -2.05897 0
M  V30 15031 H 1480.24 -0.196951 -3.13783 0
M  V30 15032 N 1484.01 0.437135 -1.51416 0
M  V30 15033 C 1485.29 1.1978 -1.54636 0
M  V30 15034 C 1485.67 2.088 -0.310747 0
M  V30 15035 O 1485.02 2.1738 0.704148 0
M  V30 15036 C 1485.23 1.99947 -2.86046 0
M  V30 15037 C 1486.58 2.56981 -3.38003 0
M  V30 15038 O 1487.6 2.10157 -2.87598 0
M  V30 15039 O 1486.46 3.42383 -4.25953 0
M  V30 15040 H 1483.55 0.545346 -0.621713 0
M  V30 15041 H 1486.1 0.446189 -1.63729 0
M  V30 15042 H 1484.87 1.34564 -3.67435 0
M  V30 15043 H 1484.49 2.82172 -2.80115 0
M  V30 15044 N 1485.49 1.41566 0.692592 0
M  V30 15045 C 1486.42 1.46423 1.81886 0
M  V30 15046 C 1487.4 0.32258 1.67013 0
M  V30 15047 O 1488.59 0.534437 1.86701 0
M  V30 15048 C 1485.72 1.3486 3.20047 0
M  V30 15049 C 1484.67 2.46867 3.49629 0
M  V30 15050 C 1484 2.20369 4.87177 0
M  V30 15051 C 1485.3 3.89205 3.48306 0
M  V30 15052 H 1486.99 2.40683 1.78079 0
M  V30 15053 H 1484.54 1.15845 0.855334 0
M  V30 15054 H 1486.49 1.36869 3.98553 0
M  V30 15055 H 1485.21 0.370859 3.24488 0
M  V30 15056 H 1483.87 2.44146 2.73475 0
M  V30 15057 H 1483.52 1.20931 4.88247 0
M  V30 15058 H 1483.22 2.95426 5.07934 0
M  V30 15059 H 1484.74 2.24099 5.6799 0
M  V30 15060 H 1486.16 3.93626 4.16811 0
M  V30 15061 H 1484.56 4.63969 3.80595 0
M  V30 15062 H 1485.63 4.17144 2.47222 0
M  V30 15063 N 1486.97 -0.927146 1.27443 0
M  V30 15064 C 1488.2 -1.70896 1.16629 0
M  V30 15065 C 1488.61 -1.8676 -0.276811 0
M  V30 15066 O 1487.97 -1.38503 -1.18842 0
M  V30 15067 C 1488.02 -3.1083 1.84573 0
M  V30 15068 O 1487.74 -2.9571 3.23244 0
M  V30 15069 C 1489.24 -4.05159 1.79891 0
M  V30 15070 H 1486.46 -0.534638 0.405467 0
M  V30 15071 H 1489.01 -1.16134 1.68325 0
M  V30 15072 H 1487.16 -3.6245 1.3678 0
M  V30 15073 H 1487.57 -3.84181 3.57079 0
M  V30 15074 H 1489.05 -5.00859 2.32044 0
M  V30 15075 H 1489.53 -4.32426 0.768373 0
M  V30 15076 H 1490.13 -3.59464 2.273 0
M  V30 15077 N 1488.45 -1.09474 -1.13372 0
M  V30 15078 C 1489.67 -0.853093 -1.89043 0
M  V30 15079 C 1490.1 0.590075 -1.78605 0
M  V30 15080 O 1489.45 1.41462 -1.13394 0
M  V30 15081 C 1489.5 -1.29359 -3.36599 0
M  V30 15082 O 1488.61 -0.452355 -4.09912 0
M  V30 15083 H 1487.95 -0.308922 -0.587761 0
M  V30 15084 H 1490.48 -1.459 -1.43437 0
M  V30 15085 H 1490.49 -1.27921 -3.87428 0
M  V30 15086 H 1489.16 -2.3446 -3.43513 0
M  V30 15087 H 1487.74 -0.531098 -3.69099 0
M  V30 15088 N 1489.92 1.30607 -0.882012 0
M  V30 15089 C 1491.15 2.00954 -0.513048 0
M  V30 15090 C 1491.57 1.65697 0.890279 0
M  V30 15091 O 1490.93 0.872001 1.58952 0
M  V30 15092 C 1490.98 3.53907 -0.691525 0
M  V30 15093 O 1490.08 4.11555 0.263896 0
M  V30 15094 H 1489.43 0.632356 -0.202537 0
M  V30 15095 H 1491.96 1.66524 -1.18874 0
M  V30 15096 H 1491.97 4.0372 -0.589392 0
M  V30 15097 H 1490.64 3.78907 -1.71471 0
M  V30 15098 H 1489.22 3.7272 0.115707 0
M  V30 15099 N 1491.4 0.642663 1.43901 0
M  V30 15100 C 1492.35 -0.0673926 2.32502 0
M  V30 15101 C 1493.34 -0.823981 1.4801 0
M  V30 15102 O 1494.55 -0.735575 1.64284 0
M  V30 15103 H 1490.93 -0.0405715 0.750905 0
M  V30 15104 H 1492.9 0.69777 2.90127 0
M  V30 15105 C 1491.65 -1.02745 3.32173 0
M  V30 15106 H 1490.97 -0.454697 3.97206 0
M  V30 15107 H 1492.41 -1.49355 3.96824 0
M  V30 15108 C 1490.87 -2.11835 2.61969 0
M  V30 15109 O 1491.4 -3.20074 2.42725 0
M  V30 15110 N 1489.6 -1.88092 2.21517 0
M  V30 15111 H 1489.15 -1.00072 2.37368 0
M  V30 15112 H 1489.11 -2.61279 1.74873 0
M  V30 15113 N 1492.88 -1.52852 0.383918 0
M  V30 15114 C 1493.81 -2.29213 -0.44539 0
M  V30 15115 C 1494.79 -1.3238 -1.06815 0
M  V30 15116 O 1495.98 -1.61269 -1.08194 0
M  V30 15117 C 1493.11 -3.09497 -1.57573 0
M  V30 15118 C 1492.06 -4.14168 -1.07928 0
M  V30 15119 C 1491.39 -4.82644 -2.30128 0
M  V30 15120 C 1492.69 -5.22082 -0.151035 0
M  V30 15121 H 1494.38 -2.98786 0.19172 0
M  V30 15122 H 1491.93 -1.43695 0.0936471 0
M  V30 15123 H 1493.88 -3.61672 -2.16267 0
M  V30 15124 H 1492.6 -2.37647 -2.24034 0
M  V30 15125 H 1491.26 -3.62966 -0.514909 0
M  V30 15126 H 1490.91 -4.07348 -2.95087 0
M  V30 15127 H 1490.61 -5.53388 -1.97574 0
M  V30 15128 H 1492.14 -5.37621 -2.89475 0
M  V30 15129 H 1493.55 -5.69649 -0.646003 0
M  V30 15130 H 1491.95 -6.00041 0.0844833 0
M  V30 15131 H 1493.02 -4.78228 0.801618 0
M  V30 15132 N 1494.36 -0.113586 -1.5719 0
M  V30 15133 C 1495.29 0.868985 -2.12088 0
M  V30 15134 C 1496.3 1.23362 -1.06233 0
M  V30 15135 O 1497.49 1.18352 -1.33623 0
M  V30 15136 C 1494.59 2.17252 -2.60106 0
M  V30 15137 C 1493.77 1.9804 -3.89999 0
M  V30 15138 C 1492.83 3.12073 -4.23671 0
M  V30 15139 O 1491.85 2.85224 -4.92581 0
M  V30 15140 N 1493.05 4.38358 -3.80556 0
M  V30 15141 H 1495.82 0.399996 -2.97019 0
M  V30 15142 H 1493.38 0.0709947 -1.61744 0
M  V30 15143 H 1495.37 2.92523 -2.79665 0
M  V30 15144 H 1493.94 2.55516 -1.80084 0
M  V30 15145 H 1493.16 1.06993 -3.79402 0
M  V30 15146 H 1494.45 1.82502 -4.74943 0
M  V30 15147 H 1493.85 4.63048 -3.24966 0
M  V30 15148 H 1492.4 5.10518 -4.05234 0
M  V30 15149 N 1495.84 1.56784 0.160173 0
M  V30 15150 C 1497.08 1.82891 0.876278 0
M  V30 15151 C 1497.42 0.693173 1.81408 0
M  V30 15152 O 1496.69 -0.304136 1.92107 0
M  V30 15153 C 1496.97 3.19439 1.66226 0
M  V30 15154 C 1496.83 4.43557 0.746831 0
M  V30 15155 C 1498.15 3.53053 2.62758 0
M  V30 15156 H 1495.27 0.665285 0.31712 0
M  V30 15157 H 1497.91 1.89469 0.142004 0
M  V30 15158 H 1496.06 3.13962 2.28823 0
M  V30 15159 H 1497.73 4.61109 0.132876 0
M  V30 15160 H 1495.97 4.33764 0.0555625 0
M  V30 15161 H 1496.64 5.35675 1.33253 0
M  V30 15162 H 1499.12 3.59054 2.10284 0
M  V30 15163 H 1498 4.4965 3.14811 0
M  V30 15164 H 1498.26 2.78329 3.4349 0
M  V30 15165 N 1497.32 -0.429099 1.51646 0
M  V30 15166 C 1498.23 -1.54648 1.76412 0
M  V30 15167 C 1499.24 -1.61455 0.648703 0
M  V30 15168 O 1500.42 -1.78544 0.931888 0
M  V30 15169 C 1497.48 -2.90562 1.89142 0
M  V30 15170 C 1496.54 -2.93804 3.13014 0
M  V30 15171 C 1495.78 -4.23235 3.25127 0
M  V30 15172 O 1496 -5.1606 2.42979 0
M  V30 15173 O 1494.93 -4.32929 4.18158 0
M  V30 15174 H 1498.76 -1.36661 2.71215 0
M  V30 15175 H 1496.34 -0.612946 1.36247 0
M  V30 15176 H 1498.23 -3.7121 1.99453 0
M  V30 15177 H 1496.9 -3.08659 0.975272 0
M  V30 15178 H 1495.81 -2.12082 3.08175 0
M  V30 15179 H 1497.14 -2.80654 4.04344 0
M  V30 15180 N 1498.79 -1.41931 -0.685074 0
M  V30 15181 C 1499.7 -1.46985 -1.82846 0
M  V30 15182 C 1500.72 -0.359487 -1.70246 0
M  V30 15183 O 1501.9 -0.608824 -1.91977 0
M  V30 15184 C 1498.96 -1.36001 -3.18912 0
M  V30 15185 C 1498.02 -2.57442 -3.43543 0
M  V30 15186 C 1497.25 -2.46972 -4.73118 0
M  V30 15187 O 1497.48 -1.49999 -5.50324 0
M  V30 15188 O 1496.41 -3.36922 -4.98766 0
M  V30 15189 H 1500.24 -2.4347 -1.81538 0
M  V30 15190 H 1497.82 -1.23583 -0.839497 0
M  V30 15191 H 1499.7 -1.32198 -4.00127 0
M  V30 15192 H 1498.38 -0.426366 -3.2088 0
M  V30 15193 H 1497.29 -2.66821 -2.62217 0
M  V30 15194 H 1498.62 -3.49671 -3.46398 0
M  V30 15195 N 1500.27 0.920374 -1.27933 0
M  V30 15196 C 1501.55 1.64765 -1.05413 0
M  V30 15197 C 1501.93 2.07106 0.408717 0
M  V30 15198 O 1501.28 1.81094 1.39346 0
M  V30 15199 C 1501.49 2.84417 -2.02257 0
M  V30 15200 C 1502.83 3.5559 -2.32036 0
M  V30 15201 O 1503.86 2.94555 -2.00289 0
M  V30 15202 O 1502.72 4.65574 -2.86187 0
M  V30 15203 H 1499.81 0.722503 -0.402391 0
M  V30 15204 H 1502.36 0.970263 -1.39226 0
M  V30 15205 H 1501.13 2.50174 -3.0088 0
M  V30 15206 H 1500.75 3.59872 -1.6905 0
M  V30 15207 N 1501.75 1.10074 1.1279 0
M  V30 15208 C 1503.16 0.859181 1.65756 0
M  V30 15209 C 1503.51 -0.611193 1.86437 0
M  V30 15210 O 1502.64 -1.46997 1.58811 0
M  V30 15211 C 1503.23 1.55312 3.01104 0
M  V30 15212 C 1501.79 1.35836 3.51035 0
M  V30 15213 C 1500.94 1.60491 2.26137 0
M  V30 15214 H 1503.89 1.25897 0.966211 0
M  V30 15215 H 1503.91 0.990001 3.67395 0
M  V30 15216 H 1503.42 2.62325 2.8602 0
M  V30 15217 H 1501.52 0.309694 3.71311 0
M  V30 15218 H 1501.64 2.09777 4.30732 0
M  V30 15219 H 1500 1.02742 2.33058 0
M  V30 15220 H 1500.78 2.68748 2.1361 0
M  V30 15221 N 1503.23 -1.30138 0.888926 0
M  V30 15222 C 1504.47 -1.96279 0.51012 0
M  V30 15223 C 1504.81 -1.69984 -0.939096 0
M  V30 15224 O 1504.08 -1.00677 -1.66416 0
M  V30 15225 C 1504.36 -3.51321 0.790305 0
M  V30 15226 C 1504.22 -3.87116 2.29044 0
M  V30 15227 C 1505.54 -4.39274 0.269477 0
M  V30 15228 H 1502.66 -0.712931 0.18681 0
M  V30 15229 H 1505.3 -1.53942 1.11364 0
M  V30 15230 H 1503.45 -3.87514 0.276647 0
M  V30 15231 H 1505.12 -3.60926 2.87281 0
M  V30 15232 H 1503.36 -3.35044 2.7555 0
M  V30 15233 H 1504.03 -4.95288 2.43708 0
M  V30 15234 H 1506.51 -4.10012 0.709173 0
M  V30 15235 H 1505.39 -5.46665 0.494815 0
M  V30 15236 H 1505.65 -4.3425 -0.829434 0
M  V30 15237 N 1504.71 -0.650285 -1.43559 0
M  V30 15238 C 1505.98 -0.0925343 -1.95381 0
M  V30 15239 C 1506.36 1.38668 -1.59168 0
M  V30 15240 O 1505.71 2.11069 -0.875324 0
M  V30 15241 C 1505.92 -0.335657 -3.47382 0
M  V30 15242 C 1507.27 -0.239032 -4.23927 0
M  V30 15243 O 1508.29 -0.268056 -3.5519 0
M  V30 15244 O 1507.15 -0.160241 -5.46265 0
M  V30 15245 H 1504.25 0.0113084 -0.826923 0
M  V30 15246 H 1506.79 -0.723319 -1.53513 0
M  V30 15247 H 1505.56 -1.36132 -3.66857 0
M  V30 15248 H 1505.19 0.328339 -3.96242 0
M  V30 15249 N 1506.18 1.52647 -0.392018 0
M  V30 15250 C 1507.43 2.01613 0.1893 0
M  V30 15251 C 1507.76 1.27837 1.46588 0
M  V30 15252 O 1507.01 0.368018 1.92209 0
M  V30 15253 C 1507.31 3.53872 0.500914 0
M  V30 15254 C 1506.98 4.45675 -0.684434 0
M  V30 15255 C 1505.64 4.70489 -1.00961 0
M  V30 15256 C 1507.99 4.99825 -1.4773 0
M  V30 15257 C 1505.32 5.46703 -2.12915 0
M  V30 15258 C 1507.67 5.77263 -2.58747 0
M  V30 15259 C 1506.34 6.00355 -2.9177 0
M  V30 15260 H 1505.61 0.737755 0.0692697 0
M  V30 15261 H 1508.25 1.84022 -0.529924 0
M  V30 15262 H 1506.56 3.69551 1.3015 0
M  V30 15263 H 1508.26 3.89256 0.963382 0
M  V30 15264 H 1504.85 4.26527 -0.420985 0
M  V30 15265 H 1509.03 4.80577 -1.23932 0
M  V30 15266 H 1504.29 5.62807 -2.38868 0
M  V30 15267 H 1508.46 6.18223 -3.20583 0
M  V30 15268 H 1506.09 6.59194 -3.7864 0
M  V30 15269 N 1507.66 0.121921 1.57128 0
M  V30 15270 C 1508.91 -0.534313 1.94909 0
M  V30 15271 C 1509.23 -1.67029 1.0063 0
M  V30 15272 O 1508.5 -1.95798 0.0631366 0
M  V30 15273 H 1507.08 -0.200372 0.719625 0
M  V30 15274 H 1509.74 0.191546 1.93956 0
M  V30 15275 H 1508.84 -0.926974 2.98016 0
M  V30 15276 N 1509.14 -1.56867 -0.151857 0
M  V30 15277 C 1510.09 -1.98842 -1.20685 0
M  V30 15278 C 1511.08 -0.88007 -1.44745 0
M  V30 15279 O 1512.29 -1.06524 -1.45095 0
M  V30 15280 H 1508.66 -0.632904 -0.406123 0
M  V30 15281 H 1510.63 -2.86737 -0.826095 0
M  V30 15282 C 1509.38 -2.38095 -2.53389 0
M  V30 15283 H 1508.71 -3.2293 -2.35703 0
M  V30 15284 H 1510.15 -2.71292 -3.25847 0
M  V30 15285 C 1508.61 -1.23175 -3.13575 0
M  V30 15286 O 1509.14 -0.529864 -3.9819 0
M  V30 15287 N 1507.34 -0.997255 -2.72953 0
M  V30 15288 H 1506.89 -1.56979 -2.04243 0
M  V30 15289 H 1506.85 -0.23022 -3.13556 0
M  V30 15290 N 1510.62 0.421051 -1.51871 0
M  V30 15291 C 1511.84 1.19568 -1.69465 0
M  V30 15292 C 1512.27 1.83835 -0.398269 0
M  V30 15293 O 1511.63 1.69508 0.643172 0
M  V30 15294 C 1511.67 2.24337 -2.82321 0
M  V30 15295 O 1510.78 3.30205 -2.47059 0
M  V30 15296 H 1510.12 0.349579 -0.564527 0
M  V30 15297 H 1512.65 0.495177 -1.98517 0
M  V30 15298 H 1512.66 2.6886 -3.06885 0
M  V30 15299 H 1511.33 1.76941 -3.76384 0
M  V30 15300 H 1509.91 2.91045 -2.33125 0
M  V30 15301 N 1512.1 1.42293 0.677538 0
M  V30 15302 C 1513.34 1.43826 1.43825 0
M  V30 15303 C 1513.7 0.0527179 1.92328 0
M  V30 15304 O 1512.99 -0.924621 1.67813 0
M  V30 15305 C 1513.18 2.3951 2.65273 0
M  V30 15306 C 1513.01 3.87231 2.28653 0
M  V30 15307 C 1511.78 4.55786 2.18145 0
M  V30 15308 C 1513.98 4.77728 1.90474 0
M  V30 15309 N 1511.96 5.88547 1.746 0
M  V30 15310 C 1513.33 5.99575 1.57827 0
M  V30 15311 C 1515.39 4.65208 1.77443 0
M  V30 15312 C 1514.09 7.10296 1.13456 0
M  V30 15313 C 1516.12 5.75908 1.34476 0
M  V30 15314 C 1515.48 6.96866 1.02751 0
M  V30 15315 H 1511.58 0.581477 0.522885 0
M  V30 15316 H 1514.16 1.78299 0.782146 0
M  V30 15317 H 1512.33 2.07103 3.28577 0
M  V30 15318 H 1514.07 2.31642 3.3185 0
M  V30 15319 H 1510.82 4.09961 2.37126 0
M  V30 15320 H 1511.25 6.58957 1.55259 0
M  V30 15321 H 1515.89 3.72173 2.00617 0
M  V30 15322 H 1513.61 8.03181 0.890273 0
M  V30 15323 H 1517.19 5.68231 1.24917 0
M  V30 15324 H 1516.07 7.81069 0.700085 0
M  V30 15325 N 1513.57 -0.913576 1.28419 0
M  V30 15326 C 1514.52 -2.01603 1.12361 0
M  V30 15327 C 1515.49 -1.66087 0.0206953 0
M  V30 15328 O 1516.68 -1.89895 0.185659 0
M  V30 15329 C 1513.82 -3.35897 0.791655 0
M  V30 15330 C 1512.93 -3.84281 1.97363 0
M  V30 15331 C 1512.06 -5.07087 1.58228 0
M  V30 15332 C 1511.1 -5.47804 2.73089 0
M  V30 15333 N 1510.24 -6.618 2.34446 0
M  V30 15334 H 1515.08 -2.1467 2.0669 0
M  V30 15335 H 1512.62 -1.05147 1.02871 0
M  V30 15336 H 1514.58 -4.13149 0.579943 0
M  V30 15337 H 1513.21 -3.22596 -0.114699 0
M  V30 15338 H 1512.26 -3.03184 2.29746 0
M  V30 15339 H 1513.57 -4.10417 2.83477 0
M  V30 15340 H 1512.72 -5.91883 1.33264 0
M  V30 15341 H 1511.46 -4.82759 0.692429 0
M  V30 15342 H 1510.47 -4.61549 2.98751 0
M  V30 15343 H 1511.69 -5.74119 3.62717 0
M  V30 15344 H 1509.64 -6.39103 1.4793 0
M  V30 15345 H 1509.56 -6.87663 3.14096 0
M  V30 15346 H 1510.82 -7.49901 2.12766 0
M  V30 15347 N 1515.05 -1.1067 -1.12204 0
M  V30 15348 C 1516.3 -0.85189 -1.8404 0
M  V30 15349 C 1516.63 0.620988 -1.84004 0
M  V30 15350 O 1515.91 1.45801 -1.28734 0
M  V30 15351 C 1516.19 -1.40401 -3.31602 0
M  V30 15352 C 1516.04 -2.94392 -3.40078 0
M  V30 15353 C 1517.36 -1.04834 -4.27432 0
M  V30 15354 H 1514.48 -0.310924 -0.668203 0
M  V30 15355 H 1517.12 -1.37026 -1.3162 0
M  V30 15356 H 1515.27 -0.963107 -3.76373 0
M  V30 15357 H 1516.94 -3.47027 -3.03924 0
M  V30 15358 H 1515.19 -3.3087 -2.80548 0
M  V30 15359 H 1515.86 -3.28107 -4.43903 0
M  V30 15360 H 1518.33 -1.42882 -3.90799 0
M  V30 15361 H 1517.21 -1.46153 -5.29085 0
M  V30 15362 H 1517.47 0.0419272 -4.4208 0
M  V30 15363 N 1516.53 1.29665 -0.895815 0
M  V30 15364 C 1517.76 2.00399 -0.534333 0
M  V30 15365 C 1518.18 1.66632 0.872654 0
M  V30 15366 O 1517.54 0.888811 1.58018 0
M  V30 15367 C 1517.59 3.53154 -0.729023 0
M  V30 15368 O 1516.69 4.11812 0.22023 0
M  V30 15369 H 1516.03 0.630173 -0.209233 0
M  V30 15370 H 1518.56 1.65253 -1.20634 0
M  V30 15371 H 1518.57 4.03073 -0.632179 0
M  V30 15372 H 1517.25 3.77067 -1.75481 0
M  V30 15373 H 1515.82 3.72822 0.0761687 0
M  V30 15374 N 1518.01 0.657889 1.43212 0
M  V30 15375 C 1519.23 0.179444 2.06622 0
M  V30 15376 C 1519.66 -1.14787 1.49015 0
M  V30 15377 O 1519.02 -1.71016 0.60192 0
M  V30 15378 C 1519.06 0.106826 3.60442 0
M  V30 15379 O 1518.17 -0.92962 4.01786 0
M  V30 15380 H 1517.51 0.0970131 0.656875 0
M  V30 15381 H 1520.04 0.902132 1.83638 0
M  V30 15382 H 1520.05 -0.07495 4.07931 0
M  V30 15383 H 1518.72 1.07574 4.01747 0
M  V30 15384 H 1517.3 -0.720255 3.65878 0
M  V30 15385 N 1519.49 -1.52437 0.400108 0
M  V30 15386 C 1520.42 -2.24433 -0.465038 0
M  V30 15387 C 1521.43 -1.27067 -1.01773 0
M  V30 15388 O 1522.62 -1.53072 -0.918215 0
M  V30 15389 C 1519.72 -2.95555 -1.65832 0
M  V30 15390 C 1518.89 -4.19717 -1.2311 0
M  V30 15391 C 1517.95 -4.73743 -2.29028 0
M  V30 15392 O 1516.98 -5.36556 -1.8999 0
M  V30 15393 N 1518.18 -4.54534 -3.6108 0
M  V30 15394 H 1520.95 -2.99315 0.151839 0
M  V30 15395 H 1518.51 -1.603 0.227019 0
M  V30 15396 H 1520.5 -3.28595 -2.36235 0
M  V30 15397 H 1519.07 -2.23915 -2.18131 0
M  V30 15398 H 1518.29 -3.92593 -0.355537 0
M  V30 15399 H 1519.58 -5.00367 -0.922487 0
M  V30 15400 H 1518.97 -4.04419 -3.95552 0
M  V30 15401 H 1517.53 -4.92035 -4.27486 0
M  V30 15402 N 1520.96 -0.130252 -1.57061 0
M  V30 15403 C 1522.2 0.527958 -1.97464 0
M  V30 15404 C 1522.57 1.63126 -1.01261 0
M  V30 15405 O 1523.77 2.34916 -1.30644 0
M  V30 15406 C 1522.04 1.03657 -3.42038 0
M  V30 15407 S 1523.6 1.70173 -4.04459 0
M  V30 15408 H 1520.42 0.171256 -0.690067 0
M  V30 15409 H 1523.02 -0.218 -1.94281 0
M  V30 15410 H 1521.72 0.222568 -4.09796 0
M  V30 15411 H 1521.25 1.81754 -3.48897 0
M  V30 15412 H 1523.27 2.98813 -3.96138 0
M  V30 15413 N 1522.44 1.56945 0.143535 0
M  V30 15414 C 1523.41 1.97616 1.16106 0
M  V30 15415 C 1524.41 0.863113 1.35672 0
M  V30 15416 O 1525.6 1.12966 1.32606 0
M  V30 15417 C 1522.73 2.29511 2.52067 0
M  V30 15418 H 1523.92 2.88696 0.812066 0
M  V30 15419 H 1521.47 1.51433 0.386999 0
M  V30 15420 H 1522.21 1.41233 2.91931 0
M  V30 15421 H 1521.99 3.10667 2.39225 0
M  V30 15422 H 1523.48 2.61802 3.25345 0
M  V30 15423 N 1523.92 -0.412991 1.52093 0
M  V30 15424 C 1525.2 -1.17304 1.56522 0
M  V30 15425 C 1525.58 -2.0828 0.343926 0
M  V30 15426 O 1524.93 -2.18473 -0.669475 0
M  V30 15427 C 1525.14 -1.95371 2.89191 0
M  V30 15428 C 1526.48 -2.51571 3.42048 0
M  V30 15429 O 1527.51 -2.05555 2.90905 0
M  V30 15430 O 1526.37 -3.35563 4.31347 0
M  V30 15431 H 1523.46 -0.535386 0.63031 0
M  V30 15432 H 1526.01 -0.420084 1.64418 0
M  V30 15433 H 1524.78 -1.28701 3.69529 0
M  V30 15434 H 1524.4 -2.7768 2.84569 0
M  V30 15435 N 1525.4 -1.4265 -0.669982 0
M  V30 15436 C 1526.63 -1.46784 -1.45816 0
M  V30 15437 C 1527.04 -0.080606 -1.88628 0
M  V30 15438 O 1526.4 0.905687 -1.58441 0
M  V30 15439 C 1526.45 -2.39915 -2.70413 0
M  V30 15440 O 1526.17 -3.73241 -2.29396 0
M  V30 15441 C 1527.67 -2.53118 -3.63931 0
M  V30 15442 H 1524.89 -0.499076 -0.448513 0
M  V30 15443 H 1527.44 -1.87216 -0.822819 0
M  V30 15444 H 1525.59 -2.02722 -3.30125 0
M  V30 15445 H 1526.01 -4.23164 -3.09891 0
M  V30 15446 H 1527.48 -3.22395 -4.48069 0
M  V30 15447 H 1527.96 -1.57062 -4.10156 0
M  V30 15448 H 1528.56 -2.91052 -3.10111 0
M  V30 15449 N 1526.88 0.906753 -1.28902 0
M  V30 15450 C 1528.29 1.18635 -1.06761 0
M  V30 15451 C 1528.49 2.00643 0.185594 0
M  V30 15452 O 1527.55 2.3647 0.885324 0
M  V30 15453 C 1528.86 1.91414 -2.31907 0
M  V30 15454 C 1530.41 2.04269 -2.37156 0
M  V30 15455 C 1530.89 2.80458 -3.62088 0
M  V30 15456 N 1532.38 2.88016 -3.62769 0
M  V30 15457 C 1533.11 3.47485 -4.56116 0
M  V30 15458 N 1532.61 4.08178 -5.59788 0
M  V30 15459 N 1534.4 3.45092 -4.43698 0
M  V30 15460 H 1526.55 0.359413 -2.09337 0
M  V30 15461 H 1528.81 0.221688 -0.921715 0
M  V30 15462 H 1528.52 1.38587 -3.23244 0
M  V30 15463 H 1528.39 2.91929 -2.38867 0
M  V30 15464 H 1530.78 2.56275 -1.46312 0
M  V30 15465 H 1530.86 1.0291 -2.34186 0
M  V30 15466 H 1530.51 2.2913 -4.53279 0
M  V30 15467 H 1530.44 3.82147 -3.62314 0
M  V30 15468 H 1532.93 2.44902 -2.87805 0
M  V30 15469 H 1533.24 4.51557 -6.27149 0
M  V30 15470 H 1531.59 4.06661 -5.63606 0
M  V30 15471 H 1534.78 2.96891 -3.61903 0
M  V30 15472 H 1534.95 3.91145 -5.16633 0
M  V30 15473 N 1528.36 1.11264 1.11616 0
M  V30 15474 C 1529.3 0.769295 2.17602 0
M  V30 15475 C 1530.27 -0.258362 1.64078 0
M  V30 15476 O 1531.46 -0.135698 1.90317 0
M  V30 15477 C 1528.6 0.216647 3.44419 0
M  V30 15478 C 1527.71 1.30064 4.11955 0
M  V30 15479 C 1526.85 0.708729 5.26451 0
M  V30 15480 C 1525.88 1.7727 5.85868 0
M  V30 15481 N 1525.02 1.20042 6.91762 0
M  V30 15482 H 1529.86 1.67727 2.46316 0
M  V30 15483 H 1527.4 0.83764 1.20921 0
M  V30 15484 H 1529.36 -0.121724 4.17022 0
M  V30 15485 H 1527.99 -0.654525 3.16095 0
M  V30 15486 H 1527.04 1.756 3.37445 0
M  V30 15487 H 1528.35 2.1057 4.52174 0
M  V30 15488 H 1527.5 0.320307 6.05854 0
M  V30 15489 H 1526.24 -0.127668 4.87533 0
M  V30 15490 H 1525.25 2.17046 5.05145 0
M  V30 15491 H 1526.47 2.6121 6.26854 0
M  V30 15492 H 1524.42 0.385633 6.54866 0
M  V30 15493 H 1524.34 1.94221 7.30626 0
M  V30 15494 H 1525.6 0.838825 7.74974 0
M  V30 15495 N 1529.83 -1.29188 0.902679 0
M  V30 15496 C 1531.08 -1.95727 0.530909 0
M  V30 15497 C 1531.41 -1.70971 -0.921014 0
M  V30 15498 O 1530.69 -1.02436 -1.65339 0
M  V30 15499 C 1530.97 -3.50463 0.827523 0
M  V30 15500 C 1530.82 -3.84665 2.33137 0
M  V30 15501 C 1532.14 -4.38964 0.316053 0
M  V30 15502 H 1529.26 -0.71091 0.194361 0
M  V30 15503 H 1531.9 -1.52752 1.1299 0
M  V30 15504 H 1530.05 -3.87199 0.317732 0
M  V30 15505 H 1531.73 -3.57859 2.91093 0
M  V30 15506 H 1529.97 -3.32102 2.79088 0
M  V30 15507 H 1530.64 -4.92676 2.48947 0
M  V30 15508 H 1533.12 -4.09237 0.75262 0
M  V30 15509 H 1531.99 -5.4611 0.552769 0
M  V30 15510 H 1532.25 -4.35105 -0.783329 0
M  V30 15511 N 1531.31 -0.665475 -1.42861 0
M  V30 15512 C 1532.72 -0.26225 -1.84849 0
M  V30 15513 C 1533.07 1.19372 -1.55707 0
M  V30 15514 O 1532.2 1.91269 -1.01218 0
M  V30 15515 C 1532.79 -0.469189 -3.35535 0
M  V30 15516 C 1531.35 -0.120172 -3.76208 0
M  V30 15517 C 1530.5 -0.766153 -2.66506 0
M  V30 15518 H 1533.45 -0.868296 -1.32839 0
M  V30 15519 H 1533.47 0.281571 -3.79457 0
M  V30 15520 H 1532.98 -1.52894 -3.56714 0
M  V30 15521 H 1531.08 0.936505 -3.60639 0
M  V30 15522 H 1531.2 -0.554188 -4.75884 0
M  V30 15523 H 1529.56 -0.198292 -2.53927 0
M  V30 15524 H 1530.34 -1.82918 -2.9051 0
M  V30 15525 N 1532.79 1.52222 -0.408187 0
M  V30 15526 C 1533.72 2.29892 0.408868 0
M  V30 15527 C 1534.7 1.34063 1.04695 0
M  V30 15528 O 1535.89 1.6297 1.05615 0
M  V30 15529 C 1533.02 3.11964 1.52629 0
M  V30 15530 C 1531.97 4.15833 1.01326 0
M  V30 15531 C 1531.3 4.86244 2.2242 0
M  V30 15532 C 1532.6 5.22256 0.0679573 0
M  V30 15533 H 1534.29 2.98443 -0.23923 0
M  V30 15534 H 1531.84 1.43528 -0.116496 0
M  V30 15535 H 1533.79 3.65067 2.10486 0
M  V30 15536 H 1532.51 2.41181 2.20225 0
M  V30 15537 H 1531.17 3.63739 0.4571 0
M  V30 15538 H 1530.82 4.11991 2.88569 0
M  V30 15539 H 1530.52 5.56461 1.88746 0
M  V30 15540 H 1532.04 5.42159 2.80885 0
M  V30 15541 H 1533.46 5.70604 0.555295 0
M  V30 15542 H 1531.85 5.9983 -0.179934 0
M  V30 15543 H 1532.92 4.76892 -0.877599 0
M  V30 15544 N 1534.27 0.138579 1.5699 0
M  V30 15545 C 1535.54 -0.559239 1.87435 0
M  V30 15546 C 1535.92 -1.83527 1.04312 0
M  V30 15547 O 1535.27 -2.28144 0.127531 0
M  V30 15548 C 1535.48 -0.83282 3.38918 0
M  V30 15549 C 1536.83 -1.1773 4.07952 0
M  V30 15550 O 1537.85 -0.92245 3.44048 0
M  V30 15551 O 1536.71 -1.6565 5.2079 0
M  V30 15552 H 1533.81 -0.284318 0.77659 0
M  V30 15553 H 1536.35 0.174558 1.688 0
M  V30 15554 H 1535.13 0.0706054 3.91236 0
M  V30 15555 H 1534.75 -1.62109 3.63051 0
M  V30 15556 N 1535.75 -1.57019 -0.13521 0
M  V30 15557 C 1536.97 -1.88528 -0.864399 0
M  V30 15558 C 1537.4 -0.728852 -1.73405 0
M  V30 15559 O 1536.75 0.321196 -1.78432 0
M  V30 15560 C 1536.8 -3.18694 -1.6872 0
M  V30 15561 O 1535.91 -3.03458 -2.79262 0
M  V30 15562 H 1535.25 -0.61909 -0.24005 0
M  V30 15563 H 1537.78 -2.04233 -0.12248 0
M  V30 15564 H 1537.79 -3.51011 -2.0798 0
M  V30 15565 H 1536.46 -4.02462 -1.04868 0
M  V30 15566 H 1535.04 -2.82575 -2.43323 0
M  V30 15567 N 1537.22 0.404919 -1.52309 0
M  V30 15568 C 1538.45 1.17764 -1.70723 0
M  V30 15569 C 1538.87 1.83403 -0.417744 0
M  V30 15570 O 1538.23 1.70181 0.625157 0
M  V30 15571 C 1538.28 2.2133 -2.84685 0
M  V30 15572 O 1537.38 3.27566 -2.50548 0
M  V30 15573 H 1536.73 0.343572 -0.568203 0
M  V30 15574 H 1539.26 0.474093 -1.99031 0
M  V30 15575 H 1539.27 2.6559 -3.09719 0
M  V30 15576 H 1537.94 1.72939 -3.78239 0
M  V30 15577 H 1536.52 2.88556 -2.36199 0
M  V30 15578 N 1538.7 1.43003 0.662408 0
M  V30 15579 C 1540.11 1.39275 1.24336 0
M  V30 15580 C 1540.46 0.0921999 1.95983 0
M  V30 15581 O 1539.59 -0.808677 2.00722 0
M  V30 15582 C 1540.18 2.52287 2.26134 0
M  V30 15583 C 1538.74 2.51853 2.79727 0
M  V30 15584 C 1537.89 2.30453 1.5423 0
M  V30 15585 H 1540.84 1.52038 0.455002 0
M  V30 15586 H 1540.86 2.23249 3.08123 0
M  V30 15587 H 1540.37 3.46929 1.73959 0
M  V30 15588 H 1538.48 1.61064 3.3599 0
M  V30 15589 H 1538.59 3.49313 3.27898 0
M  V30 15590 H 1536.95 1.78946 1.81247 0
M  V30 15591 H 1537.74 3.27167 1.04003 0
M  V30 15592 N 1540.18 -0.899904 1.29381 0
M  V30 15593 C 1541.14 -1.98554 1.14494 0
M  V30 15594 C 1542.14 -1.60599 0.0804732 0
M  V30 15595 O 1543.33 -1.71096 0.327395 0
M  V30 15596 C 1540.47 -3.32529 0.750818 0
M  V30 15597 H 1541.66 -2.13189 2.10928 0
M  V30 15598 H 1539.21 -1.08438 1.12565 0
M  V30 15599 H 1539.95 -3.23595 -0.213668 0
M  V30 15600 H 1539.73 -3.61443 1.51992 0
M  V30 15601 H 1541.22 -4.12195 0.669709 0
M  V30 15602 N 1541.66 -1.11854 -1.11024 0
M  V30 15603 C 1542.89 -0.892714 -1.8665 0
M  V30 15604 C 1543.3 0.557721 -1.80374 0
M  V30 15605 O 1542.66 1.3853 -1.1881 0
M  V30 15606 C 1542.71 -1.35135 -3.35292 0
M  V30 15607 O 1542.43 -2.74493 -3.41446 0
M  V30 15608 C 1543.93 -1.16157 -4.27811 0
M  V30 15609 H 1541.15 -0.319409 -0.590101 0
M  V30 15610 H 1543.7 -1.48697 -1.40391 0
M  V30 15611 H 1541.85 -0.80046 -3.7904 0
M  V30 15612 H 1542.26 -2.94474 -4.34034 0
M  V30 15613 H 1543.74 -1.53144 -5.30331 0
M  V30 15614 H 1544.22 -0.101546 -4.39083 0
M  V30 15615 H 1544.82 -1.69966 -3.89861 0
M  V30 15616 N 1543.14 1.28707 -0.909517 0
M  V30 15617 C 1544.38 1.9693 -0.547521 0
M  V30 15618 C 1544.74 1.70052 0.891417 0
M  V30 15619 O 1545.94 2.31811 1.36078 0
M  V30 15620 C 1544.21 3.4731 -0.843226 0
M  V30 15621 S 1545.77 4.34856 -0.587013 0
M  V30 15622 H 1542.59 0.681478 -0.202753 0
M  V30 15623 H 1545.19 1.5632 -1.17406 0
M  V30 15624 H 1543.9 3.64367 -1.88851 0
M  V30 15625 H 1543.43 3.92865 -0.205179 0
M  V30 15626 H 1545.44 4.92989 0.563561 0
M  V30 15627 N 1544.61 0.673042 1.42506 0
M  V30 15628 C 1545.56 -0.0291025 2.27981 0
M  V30 15629 C 1546.55 -0.775296 1.40989 0
M  V30 15630 O 1547.74 -0.654498 1.64455 0
M  V30 15631 C 1544.87 -0.9809 3.28988 0
M  V30 15632 C 1543.96 -0.232141 4.23464 0
M  V30 15633 N 1544.35 0.762036 5.00027 0
M  V30 15634 C 1542.64 -0.470831 4.43508 0
M  V30 15635 C 1543.35 1.20826 5.69013 0
M  V30 15636 N 1542.32 0.538559 5.40926 0
M  V30 15637 H 1546.12 0.733484 2.846 0
M  V30 15638 H 1543.64 0.501961 1.54448 0
M  V30 15639 H 1545.63 -1.49888 3.89023 0
M  V30 15640 H 1544.29 -1.74333 2.73931 0
M  V30 15641 H 1545.31 1.14151 5.05163 0
M  V30 15642 H 1541.98 -1.2129 3.99493 0
M  V30 15643 H 1543.37 2.03199 6.40437 0
M  V30 15644 N 1546.09 -1.52004 0.416254 0
M  V30 15645 C 1547.04 -2.28771 -0.420331 0
M  V30 15646 C 1548.03 -1.33751 -1.03957 0
M  V30 15647 O 1549.24 -1.51181 -0.976951 0
M  V30 15648 H 1545.62 -0.735991 -0.15434 0
M  V30 15649 H 1547.59 -2.97366 0.248255 0
M  V30 15650 C 1546.34 -3.12675 -1.52085 0
M  V30 15651 H 1545.66 -3.85665 -1.0537 0
M  V30 15652 H 1547.1 -3.69482 -2.07989 0
M  V30 15653 C 1545.56 -2.26692 -2.49224 0
M  V30 15654 O 1546.09 -1.91205 -3.53276 0
M  V30 15655 N 1544.29 -1.90322 -2.19604 0
M  V30 15656 H 1543.84 -2.1938 -1.35019 0
M  V30 15657 H 1543.8 -1.33086 -2.84843 0
M  V30 15658 N 1547.57 -0.146903 -1.56914 0
M  V30 15659 C 1548.52 0.809917 -2.18044 0
M  V30 15660 C 1549.51 1.25536 -1.13741 0
M  V30 15661 O 1550.72 1.22385 -1.31992 0
M  V30 15662 H 1547.09 0.279387 -0.698174 0
M  V30 15663 H 1549.06 0.270135 -2.97175 0
M  V30 15664 C 1547.81 2.03904 -2.81635 0
M  V30 15665 H 1547.14 1.70526 -3.61609 0
M  V30 15666 H 1548.58 2.68795 -3.2791 0
M  V30 15667 C 1547.04 2.84696 -1.80138 0
M  V30 15668 O 1547.57 3.81036 -1.27179 0
M  V30 15669 N 1545.77 2.49229 -1.49444 0
M  V30 15670 H 1545.32 1.70949 -1.92702 0
M  V30 15671 H 1545.28 3.03577 -0.817811 0
M  V30 15672 N 1549.05 1.57088 0.126881 0
M  V30 15673 C 1550.3 1.83624 0.834582 0
M  V30 15674 C 1550.61 0.731331 1.81414 0
M  V30 15675 O 1551.82 0.88286 2.56745 0
M  V30 15676 C 1550.27 3.25529 1.5349 0
M  V30 15677 C 1549.88 4.44008 0.59673 0
M  V30 15678 C 1551.62 3.6132 2.22819 0
M  V30 15679 C 1549.53 5.76939 1.29982 0
M  V30 15680 H 1548.46 0.684858 0.315414 0
M  V30 15681 H 1551.11 1.83292 0.087305 0
M  V30 15682 H 1549.49 3.20306 2.32852 0
M  V30 15683 H 1550.67 4.60511 -0.163109 0
M  V30 15684 H 1548.98 4.16399 0.0108081 0
M  V30 15685 H 1551.58 4.57902 2.76098 0
M  V30 15686 H 1551.92 2.88363 3.00254 0
M  V30 15687 H 1552.46 3.68291 1.50354 0
M  V30 15688 H 1549.2 6.53044 0.566925 0
M  V30 15689 H 1548.72 5.64336 2.03187 0
M  V30 15690 H 1550.39 6.20427 1.8352 0
M  V30 15691 N 1550.53 -0.396836 1.52522 0
M  V30 15692 C 1551.46 -1.50564 1.71481 0
M  V30 15693 C 1552.44 -1.5256 0.562524 0
M  V30 15694 O 1553.62 -1.71083 0.791378 0
M  V30 15695 C 1550.75 -2.89058 1.76531 0
M  V30 15696 C 1549.79 -3.04922 2.98202 0
M  V30 15697 S 1550.63 -2.76944 4.58326 0
M  V30 15698 C 1551.78 -4.17645 4.66179 0
M  V30 15699 H 1552.02 -1.34256 2.6526 0
M  V30 15700 H 1549.55 -0.589208 1.42715 0
M  V30 15701 H 1551.51 -3.6887 1.80125 0
M  V30 15702 H 1550.17 -3.02699 0.838582 0
M  V30 15703 H 1549.36 -4.06277 2.98254 0
M  V30 15704 H 1548.96 -2.32992 2.92559 0
M  V30 15705 H 1551.26 -5.11461 4.44312 0
M  V30 15706 H 1552.2 -4.22612 5.68159 0
M  V30 15707 H 1552.61 -4.03189 3.95093 0
M  V30 15708 N 1552.01 -1.43353 -0.654814 0
M  V30 15709 C 1552.95 -1.48387 -1.76776 0
M  V30 15710 C 1553.92 -0.333755 -1.62712 0
M  V30 15711 O 1555.11 -0.540683 -1.82979 0
M  V30 15712 C 1552.25 -1.41132 -3.14922 0
M  V30 15713 C 1551.36 -2.66336 -3.40131 0
M  V30 15714 C 1550.5 -2.5108 -4.68116 0
M  V30 15715 C 1549.53 -3.71561 -4.86425 0
M  V30 15716 N 1548.67 -3.55125 -6.05666 0
M  V30 15717 H 1553.51 -2.43487 -1.71808 0
M  V30 15718 H 1551.05 -1.20866 -0.838442 0
M  V30 15719 H 1553.01 -1.3492 -3.94782 0
M  V30 15720 H 1551.64 -0.496149 -3.18964 0
M  V30 15721 H 1550.69 -2.82834 -2.5438 0
M  V30 15722 H 1552 -3.55835 -3.49546 0
M  V30 15723 H 1551.15 -2.42567 -5.56099 0
M  V30 15724 H 1549.89 -1.59103 -4.61018 0
M  V30 15725 H 1548.9 -3.80484 -3.96877 0
M  V30 15726 H 1550.12 -4.64545 -4.95353 0
M  V30 15727 H 1548.07 -2.65881 -5.99703 0
M  V30 15728 H 1547.99 -4.38224 -6.16032 0
M  V30 15729 H 1549.25 -3.5046 -6.96274 0
M  V30 15730 N 1553.48 0.89303 -1.29857 0
M  V30 15731 C 1554.42 2.00327 -1.11364 0
M  V30 15732 C 1555.43 1.62692 -0.0591968 0
M  V30 15733 O 1556.62 1.75885 -0.3044 0
M  V30 15734 C 1553.72 3.3212 -0.674518 0
M  V30 15735 C 1552.89 3.98241 -1.80895 0
M  V30 15736 C 1551.95 5.08329 -1.35972 0
M  V30 15737 O 1550.98 5.30398 -2.06558 0
M  V30 15738 N 1552.18 5.80027 -0.234282 0
M  V30 15739 H 1554.94 2.16743 -2.06984 0
M  V30 15740 H 1552.5 1.06563 -1.21885 0
M  V30 15741 H 1554.5 4.03121 -0.357167 0
M  V30 15742 H 1553.07 3.12026 0.189414 0
M  V30 15743 H 1552.29 3.20517 -2.29483 0
M  V30 15744 H 1553.57 4.39158 -2.56939 0
M  V30 15745 H 1552.97 5.64591 0.354068 0
M  V30 15746 H 1551.53 6.51796 0.0236623 0
M  V30 15747 N 1554.96 1.12442 1.10429 0
M  V30 15748 C 1556.19 0.902599 1.86174 0
M  V30 15749 C 1556.6 -0.548147 1.80668 0
M  V30 15750 O 1555.96 -1.37898 1.19543 0
M  V30 15751 C 1556.01 1.36912 3.34571 0
M  V30 15752 O 1555.73 2.763 3.39985 0
M  V30 15753 C 1557.23 1.18424 4.27189 0
M  V30 15754 H 1554.45 0.322534 0.588399 0
M  V30 15755 H 1557 1.49439 1.396 0
M  V30 15756 H 1555.15 0.82055 3.7861 0
M  V30 15757 H 1555.57 2.96772 4.32466 0
M  V30 15758 H 1557.04 1.55954 5.29511 0
M  V30 15759 H 1557.52 0.12483 4.39023 0
M  V30 15760 H 1558.12 1.72032 3.88954 0
M  V30 15761 N 1556.44 -1.28223 0.91633 0
M  V30 15762 C 1557.37 -2.25482 0.351128 0
M  V30 15763 C 1558.35 -1.53155 -0.546108 0
M  V30 15764 O 1559.53 -1.82042 -0.489182 0
M  V30 15765 C 1556.66 -3.35021 -0.497832 0
M  V30 15766 C 1555.71 -4.25187 0.334384 0
M  V30 15767 S 1556.54 -5.06348 1.74276 0
M  V30 15768 C 1557.7 -6.19378 0.901172 0
M  V30 15769 H 1557.93 -2.73075 1.17547 0
M  V30 15770 H 1555.46 -1.36703 0.717752 0
M  V30 15771 H 1557.42 -3.98586 -0.98182 0
M  V30 15772 H 1556.08 -2.8609 -1.29658 0
M  V30 15773 H 1555.27 -5.03015 -0.314884 0
M  V30 15774 H 1554.88 -3.66359 0.75212 0
M  V30 15775 H 1557.17 -6.77371 0.131985 0
M  V30 15776 H 1558.11 -6.88558 1.65208 0
M  V30 15777 H 1558.52 -5.62718 0.448206 0
M  V30 15778 N 1557.92 -0.68059 -1.42147 0
M  V30 15779 C 1559.16 -0.205567 -2.01755 0
M  V30 15780 C 1559.5 1.18677 -1.53718 0
M  V30 15781 O 1558.77 1.79796 -0.741867 0
M  V30 15782 C 1559.05 -0.246615 -3.59255 0
M  V30 15783 C 1558.91 -1.67483 -4.17456 0
M  V30 15784 C 1560.23 0.40196 -4.38261 0
M  V30 15785 H 1557.35 -0.0761717 -0.733053 0
M  V30 15786 H 1559.99 -0.866473 -1.69092 0
M  V30 15787 H 1558.14 0.316127 -3.87212 0
M  V30 15788 H 1559.81 -2.29026 -4.00431 0
M  V30 15789 H 1558.05 -2.2137 -3.73065 0
M  V30 15790 H 1558.72 -1.65519 -5.266 0
M  V30 15791 H 1561.2 -0.077135 -4.16028 0
M  V30 15792 H 1560.08 0.342627 -5.4783 0
M  V30 15793 H 1560.34 1.48044 -4.16576 0
M  V30 15794 N 1559.4 1.51781 -0.424309 0
M  V30 15795 C 1560.67 1.94514 0.205791 0
M  V30 15796 C 1561.05 1.36219 1.61269 0
M  V30 15797 O 1560.4 0.544019 2.21929 0
M  V30 15798 C 1560.61 3.48445 0.196749 0
M  V30 15799 C 1561.96 4.22628 0.408702 0
M  V30 15800 O 1562.98 3.55133 0.275441 0
M  V30 15801 O 1561.84 5.42344 0.672698 0
M  V30 15802 H 1558.94 0.815576 0.136983 0
M  V30 15803 H 1561.48 1.6273 -0.481349 0
M  V30 15804 H 1560.25 3.83297 -0.787342 0
M  V30 15805 H 1559.88 3.86634 0.92735 0
M  V30 15806 N 1560.87 0.155222 1.56834 0
M  V30 15807 C 1562.1 -0.503763 2.01189 0
M  V30 15808 C 1562.52 -1.57086 1.03468 0
M  V30 15809 O 1561.88 -1.81296 0.0116895 0
M  V30 15810 C 1561.93 -1.07373 3.44243 0
M  V30 15811 O 1561.03 -2.18834 3.49551 0
M  V30 15812 H 1560.37 -0.122368 0.652627 0
M  V30 15813 H 1562.9 0.254377 2.03013 0
M  V30 15814 H 1562.91 -1.40036 3.83215 0
M  V30 15815 H 1561.59 -0.292339 4.14871 0
M  V30 15816 H 1560.17 -1.87337 3.22427 0
M  V30 15817 N 1562.35 -1.57153 -0.118549 0
M  V30 15818 C 1563.58 -1.89434 -0.844355 0
M  V30 15819 C 1564 -0.747203 -1.72622 0
M  V30 15820 O 1563.36 0.302252 -1.78763 0
M  V30 15821 C 1563.41 -3.20466 -1.65331 0
M  V30 15822 O 1562.51 -3.06403 -2.76027 0
M  V30 15823 H 1561.85 -0.621601 -0.23347 0
M  V30 15824 H 1564.38 -2.04351 -0.100811 0
M  V30 15825 H 1564.39 -3.53197 -2.04245 0
M  V30 15826 H 1563.07 -4.03551 -1.00594 0
M  V30 15827 H 1561.64 -2.85139 -2.40312 0
M  V30 15828 N 1563.83 0.388742 -1.5273 0
M  V30 15829 C 1565.07 1.14269 -1.69475 0
M  V30 15830 C 1565.43 1.87222 -0.425669 0
M  V30 15831 O 1566.63 2.64668 -0.469486 0
M  V30 15832 C 1564.91 2.09472 -2.8958 0
M  V30 15833 S 1566.46 2.927 -3.26913 0
M  V30 15834 H 1563.28 0.386807 -0.596574 0
M  V30 15835 H 1565.88 0.427089 -1.90778 0
M  V30 15836 H 1564.59 1.54599 -3.80167 0
M  V30 15837 H 1564.12 2.8554 -2.70611 0
M  V30 15838 H 1566.13 4.11605 -2.77121 0
M  V30 15839 N 1565.31 1.43698 0.647203 0
M  V30 15840 C 1566.72 1.27231 0.963563 0
M  V30 15841 C 1566.92 0.196385 2.00541 0
M  V30 15842 O 1565.98 -0.423162 2.48929 0
M  V30 15843 C 1567.29 2.63863 1.44211 0
M  V30 15844 C 1568.84 2.71444 1.55844 0
M  V30 15845 C 1569.32 4.08508 2.07087 0
M  V30 15846 N 1570.81 4.10603 2.14381 0
M  V30 15847 C 1571.54 5.13496 2.55166 0
M  V30 15848 N 1571.04 6.26759 2.95203 0
M  V30 15849 N 1572.83 5.0085 2.55158 0
M  V30 15850 H 1564.98 2.12358 -0.0420956 0
M  V30 15851 H 1567.24 0.946989 0.0437628 0
M  V30 15852 H 1566.95 3.43589 0.75096 0
M  V30 15853 H 1566.82 2.89666 2.41605 0
M  V30 15854 H 1569.21 1.92046 2.24058 0
M  V30 15855 H 1569.29 2.49399 0.56866 0
M  V30 15856 H 1568.94 4.88375 1.39472 0
M  V30 15857 H 1568.87 4.2792 3.06907 0
M  V30 15858 H 1571.36 3.2885 1.86188 0
M  V30 15859 H 1571.67 7.01096 3.25091 0
M  V30 15860 H 1570.02 6.30222 2.92993 0
M  V30 15861 H 1573.21 4.11428 2.2326 0
M  V30 15862 H 1573.38 5.81165 2.86621 0
M  V30 15863 N 1566.79 -0.886131 1.30328 0
M  V30 15864 C 1568.04 -1.63255 1.18451 0
M  V30 15865 C 1568.35 -1.93864 -0.260016 0
M  V30 15866 O 1569.55 -2.66851 -0.500288 0
M  V30 15867 C 1568.01 -2.94232 2.07257 0
M  V30 15868 C 1567.62 -2.71168 3.56612 0
M  V30 15869 C 1569.36 -3.72193 2.04139 0
M  V30 15870 C 1567.27 -3.97954 4.37478 0
M  V30 15871 H 1566.2 -0.612491 0.439739 0
M  V30 15872 H 1568.85 -0.981129 1.55068 0
M  V30 15873 H 1567.23 -3.60661 1.63522 0
M  V30 15874 H 1568.41 -2.13247 4.08488 0
M  V30 15875 H 1566.72 -2.06584 3.61541 0
M  V30 15876 H 1569.32 -4.66219 2.61809 0
M  V30 15877 H 1569.66 -4.03495 1.02459 0
M  V30 15878 H 1570.19 -3.12624 2.45989 0
M  V30 15879 H 1566.93 -3.71811 5.39849 0
M  V30 15880 H 1566.45 -4.55384 3.90366 0
M  V30 15881 H 1568.13 -4.65984 4.48852 0
M  V30 15882 N 1568.26 -1.13026 -1.09832 0
M  V30 15883 C 1569.19 -0.826338 -2.18389 0
M  V30 15884 C 1570.18 0.212529 -1.68767 0
M  V30 15885 O 1571.36 0.072363 -1.94065 0
M  V30 15886 C 1568.49 -0.286991 -3.46112 0
M  V30 15887 C 1567.44 -1.25963 -4.09044 0
M  V30 15888 C 1566.77 -0.580231 -5.31542 0
M  V30 15889 C 1568.07 -2.61661 -4.5203 0
M  V30 15890 H 1569.76 -1.73408 -2.4407 0
M  V30 15891 H 1567.31 -0.835201 -1.17305 0
M  V30 15892 H 1569.26 -0.062067 -4.21354 0
M  V30 15893 H 1567.99 0.656121 -3.19942 0
M  V30 15894 H 1566.65 -1.47047 -3.35816 0
M  V30 15895 H 1566.29 0.368222 -5.0165 0
M  V30 15896 H 1565.99 -1.2291 -5.74601 0
M  V30 15897 H 1567.52 -0.36449 -6.09511 0
M  V30 15898 H 1568.93 -2.44569 -5.18516 0
M  V30 15899 H 1567.33 -3.22685 -5.05959 0
M  V30 15900 H 1568.4 -3.19637 -3.64637 0
M  V30 15901 N 1569.74 1.27735 -0.923117 0
M  V30 15902 C 1570.97 1.98682 -0.577317 0
M  V30 15903 C 1571.39 1.68904 0.843608 0
M  V30 15904 O 1570.74 0.947021 1.56006 0
M  V30 15905 C 1570.79 3.52804 -0.788144 0
M  V30 15906 O 1570.51 3.81537 -2.15316 0
M  V30 15907 C 1572.02 4.41006 -0.450437 0
M  V30 15908 H 1569.24 0.634186 -0.2192 0
M  V30 15909 H 1571.78 1.62702 -1.23888 0
M  V30 15910 H 1569.93 3.87012 -0.173441 0
M  V30 15911 H 1570.35 4.76142 -2.19976 0
M  V30 15912 H 1571.82 5.48175 -0.648674 0
M  V30 15913 H 1572.3 4.3489 0.613806 0
M  V30 15914 H 1572.91 4.1231 -1.04308 0
M  V30 15915 N 1571.22 0.688118 1.41784 0
M  V30 15916 C 1572.45 0.223231 2.06195 0
M  V30 15917 C 1572.87 -1.11601 1.51416 0
M  V30 15918 O 1572.23 -1.69701 0.638059 0
M  V30 15919 C 1572.28 0.183257 3.60134 0
M  V30 15920 O 1571.38 -0.844186 4.03667 0
M  V30 15921 H 1570.72 0.110925 0.654669 0
M  V30 15922 H 1573.25 0.940882 1.81683 0
M  V30 15923 H 1573.26 0.0115951 4.07998 0
M  V30 15924 H 1571.94 1.16072 3.99375 0
M  V30 15925 H 1570.51 -0.642484 3.67323 0
M  V30 15926 N 1572.7 -1.51554 0.432352 0
M  V30 15927 C 1573.98 -1.94621 -0.195472 0
M  V30 15928 C 1574.36 -1.37072 -1.60544 0
M  V30 15929 O 1573.7 -0.555781 -2.21638 0
M  V30 15930 C 1573.91 -3.48544 -0.178267 0
M  V30 15931 C 1575.26 -4.22839 -0.386283 0
M  V30 15932 O 1576.29 -3.55275 -0.256604 0
M  V30 15933 O 1575.14 -5.42693 -0.643927 0
M  V30 15934 H 1572.24 -0.816291 -0.132656 0
M  V30 15935 H 1574.78 -1.62473 0.489972 0
M  V30 15936 H 1573.56 -3.82874 0.807658 0
M  V30 15937 H 1573.18 -3.87121 -0.906832 0
M  V30 15938 N 1574.18 -0.163538 -1.56749 0
M  V30 15939 C 1575.42 0.48412 -1.96937 0
M  V30 15940 C 1575.76 1.63418 -1.04919 0
M  V30 15941 O 1575.03 1.94269 -0.094783 0
M  V30 15942 C 1575.31 0.974532 -3.46663 0
M  V30 15943 C 1575.17 -0.175173 -4.49459 0
M  V30 15944 C 1576.49 1.85082 -3.9929 0
M  V30 15945 H 1573.6 0.174503 -0.716043 0
M  V30 15946 H 1576.25 -0.248103 -1.88373 0
M  V30 15947 H 1574.4 1.59849 -3.54091 0
M  V30 15948 H 1576.07 -0.812038 -4.54096 0
M  V30 15949 H 1574.31 -0.831853 -4.2575 0
M  V30 15950 H 1574.98 0.20996 -5.51601 0
M  V30 15951 H 1577.46 1.32488 -3.94444 0
M  V30 15952 H 1576.33 2.163 -5.04485 0
M  V30 15953 H 1576.6 2.79378 -3.42638 0
M  V30 15954 N 1575.65 1.57214 0.110213 0
M  V30 15955 C 1576.9 1.85312 0.816439 0
M  V30 15956 C 1577.23 0.749901 1.79462 0
M  V30 15957 O 1576.48 -0.257948 1.93993 0
M  V30 15958 C 1576.78 3.19933 1.59304 0
M  V30 15959 C 1576.45 4.44477 0.75835 0
M  V30 15960 C 1575.11 4.78292 0.528201 0
M  V30 15961 C 1577.46 5.20899 0.177117 0
M  V30 15962 C 1574.79 5.85966 -0.293292 0
M  V30 15963 C 1577.14 6.29439 -0.631615 0
M  V30 15964 C 1575.81 6.6178 -0.871998 0
M  V30 15965 H 1575.08 0.678104 0.298756 0
M  V30 15966 H 1577.72 1.91339 0.0784721 0
M  V30 15967 H 1576.03 3.09522 2.40216 0
M  V30 15968 H 1577.73 3.38897 2.14359 0
M  V30 15969 H 1574.32 4.17988 0.94783 0
M  V30 15970 H 1578.5 4.95119 0.342121 0
M  V30 15971 H 1573.76 6.09444 -0.488665 0
M  V30 15972 H 1577.93 6.87834 -1.08894 0
M  V30 15973 H 1575.56 7.45045 -1.51037 0
M  V30 15974 N 1577.13 -0.380637 1.52934 0
M  V30 15975 C 1578.06 -1.48518 1.74571 0
M  V30 15976 C 1579.08 -1.50272 0.626263 0
M  V30 15977 O 1580.27 -1.54023 0.902167 0
M  V30 15978 C 1577.37 -2.87339 1.79693 0
M  V30 15979 C 1576.54 -3.09454 3.09123 0
M  V30 15980 C 1575.6 -4.28305 3.05682 0
M  V30 15981 O 1574.62 -4.24205 3.79524 0
M  V30 15982 N 1575.83 -5.34932 2.2545 0
M  V30 15983 H 1578.59 -1.30341 2.69873 0
M  V30 15984 H 1576.15 -0.57023 1.51526 0
M  V30 15985 H 1578.14 -3.64961 1.74887 0
M  V30 15986 H 1576.71 -2.98835 0.917414 0
M  V30 15987 H 1575.93 -2.19623 3.27352 0
M  V30 15988 H 1577.22 -3.21089 3.94689 0
M  V30 15989 H 1576.62 -5.41121 1.64939 0
M  V30 15990 H 1575.18 -6.11189 2.26476 0
M  V30 15991 N 1578.61 -1.44039 -0.639573 0
M  V30 15992 C 1579.89 -1.36853 -1.39752 0
M  V30 15993 C 1580.27 -0.0230515 -2.11087 0
M  V30 15994 O 1579.62 0.994061 -2.05744 0
M  V30 15995 C 1579.83 -2.56101 -2.37093 0
M  V30 15996 C 1581.17 -2.99793 -3.00681 0
M  V30 15997 O 1582.2 -2.56246 -2.4742 0
M  V30 15998 O 1581.06 -3.75274 -3.97281 0
M  V30 15999 H 1578.15 -0.541521 -0.625047 0
M  V30 16000 H 1580.7 -1.56113 -0.665336 0
M  V30 16001 H 1579.47 -3.45647 -1.83422 0
M  V30 16002 H 1579.09 -2.39011 -3.17741 0
M  V30 16003 N 1580.09 0.879207 -1.30796 0
M  V30 16004 C 1581.33 1.6456 -1.21242 0
M  V30 16005 C 1581.69 1.90642 0.227986 0
M  V30 16006 O 1582.89 2.65059 0.446875 0
M  V30 16007 C 1581.16 2.94576 -2.02386 0
M  V30 16008 S 1582.72 3.85508 -2.09592 0
M  V30 16009 H 1579.54 0.564732 -0.43197 0
M  V30 16010 H 1582.14 1.04314 -1.65345 0
M  V30 16011 H 1580.85 2.73322 -3.06142 0
M  V30 16012 H 1580.38 3.59852 -1.58966 0
M  V30 16013 H 1582.39 4.80777 -1.2275 0
M  V30 16014 N 1581.57 1.13606 1.09231 0
M  V30 16015 C 1582.52 0.810747 2.18013 0
M  V30 16016 C 1583.51 -0.207782 1.68121 0
M  V30 16017 O 1584.72 -0.0647274 1.79884 0
M  V30 16018 H 1581.09 0.244415 0.711172 0
M  V30 16019 H 1583.06 1.73632 2.42682 0
M  V30 16020 C 1581.81 0.295302 3.46444 0
M  V30 16021 H 1581.13 1.07037 3.85205 0
M  V30 16022 H 1582.57 0.106127 4.23867 0
M  V30 16023 C 1581.03 -0.979398 3.2235 0
M  V30 16024 O 1581.56 -2.05483 3.45166 0
M  V30 16025 N 1579.77 -0.911282 2.75942 0
M  V30 16026 H 1579.32 -0.035979 2.57575 0
M  V30 16027 H 1579.27 -1.76476 2.60199 0
M  V30 16028 N 1583.05 -1.27244 0.929878 0
M  V30 16029 C 1583.99 -2.26773 0.429287 0
M  V30 16030 C 1584.96 -1.58238 -0.50498 0
M  V30 16031 O 1586.15 -1.86037 -0.423661 0
M  V30 16032 C 1583.29 -3.43706 -0.309865 0
M  V30 16033 C 1582.4 -4.26948 0.658764 0
M  V30 16034 C 1581.54 -5.31105 -0.10045 0
M  V30 16035 C 1580.57 -6.06018 0.860743 0
M  V30 16036 N 1579.71 -7.01972 0.134015 0
M  V30 16037 H 1584.55 -2.68967 1.283 0
M  V30 16038 H 1582.09 -1.32257 0.643923 0
M  V30 16039 H 1584.05 -4.10316 -0.754754 0
M  V30 16040 H 1582.68 -3.02457 -1.1278 0
M  V30 16041 H 1581.73 -3.60232 1.22218 0
M  V30 16042 H 1583.04 -4.78946 1.39326 0
M  V30 16043 H 1582.19 -6.03674 -0.605153 0
M  V30 16044 H 1580.93 -4.79915 -0.867902 0
M  V30 16045 H 1579.94 -5.32285 1.37668 0
M  V30 16046 H 1581.16 -6.59297 1.62801 0
M  V30 16047 H 1579.11 -6.53109 -0.615152 0
M  V30 16048 H 1579.03 -7.51669 0.808045 0
M  V30 16049 H 1580.29 -7.78714 -0.349964 0
M  V30 16050 N 1584.52 -0.695628 -1.41417 0
M  V30 16051 C 1585.45 -0.0447013 -2.33457 0
M  V30 16052 C 1586.43 0.767104 -1.51821 0
M  V30 16053 O 1587.62 0.720066 -1.80357 0
M  V30 16054 C 1584.75 0.892353 -3.3564 0
M  V30 16055 C 1583.7 0.187638 -4.27588 0
M  V30 16056 C 1583.03 1.23906 -5.20146 0
M  V30 16057 C 1584.33 -0.946093 -5.1366 0
M  V30 16058 H 1586.02 -0.81343 -2.88138 0
M  V30 16059 H 1583.57 -0.392614 -1.38544 0
M  V30 16060 H 1585.52 1.35696 -3.98954 0
M  V30 16061 H 1584.25 1.69275 -2.79309 0
M  V30 16062 H 1582.91 -0.256942 -3.65698 0
M  V30 16063 H 1582.55 2.03198 -4.6013 0
M  V30 16064 H 1582.25 0.772536 -5.82499 0
M  V30 16065 H 1583.78 1.70417 -5.86336 0
M  V30 16066 H 1585.19 -0.561764 -5.70541 0
M  V30 16067 H 1583.59 -1.33971 -5.84954 0
M  V30 16068 H 1584.66 -1.78573 -4.50821 0
M  V30 16069 N 1586 1.51322 -0.440383 0
M  V30 16070 C 1587.25 2.02413 0.125248 0
M  V30 16071 C 1587.58 1.32374 1.42094 0
M  V30 16072 O 1586.86 0.439624 1.89467 0
M  V30 16073 C 1587.14 3.58483 0.340858 0
M  V30 16074 C 1586.99 4.39134 -0.973701 0
M  V30 16075 C 1588.31 4.25891 1.10927 0
M  V30 16076 H 1585.43 0.735683 0.0440452 0
M  V30 16077 H 1588.07 1.80932 -0.579976 0
M  V30 16078 H 1586.22 3.76917 0.941572 0
M  V30 16079 H 1587.89 4.32343 -1.60863 0
M  V30 16080 H 1586.14 4.04097 -1.57759 0
M  V30 16081 H 1586.81 5.46506 -0.776845 0
M  V30 16082 H 1589.28 4.11746 0.600403 0
M  V30 16083 H 1588.16 5.34967 1.2289 0
M  V30 16084 H 1588.42 3.86958 2.13813 0
M  V30 16085 N 1587.48 0.171848 1.5666 0
M  V30 16086 C 1588.76 -0.519355 1.88579 0
M  V30 16087 C 1589.14 -1.81273 1.08182 0
M  V30 16088 O 1588.48 -2.27822 0.175895 0
M  V30 16089 C 1588.69 -0.760743 3.40608 0
M  V30 16090 C 1590.04 -1.09051 4.10357 0
M  V30 16091 O 1591.07 -0.849264 3.45928 0
M  V30 16092 O 1589.93 -1.54566 5.24187 0
M  V30 16093 H 1587.02 -0.267782 0.782446 0
M  V30 16094 H 1589.57 0.210323 1.68392 0
M  V30 16095 H 1588.34 0.153577 3.90999 0
M  V30 16096 H 1587.96 -1.54372 3.66408 0
M  V30 16097 N 1588.96 -1.5727 -0.101874 0
M  V30 16098 C 1590.37 -1.74753 -0.657147 0
M  V30 16099 C 1590.72 -0.793052 -1.79458 0
M  V30 16100 O 1589.84 0.0300559 -2.16379 0
M  V30 16101 C 1590.44 -3.1688 -1.19885 0
M  V30 16102 C 1589 -3.3581 -1.70025 0
M  V30 16103 C 1588.15 -2.70575 -0.607007 0
M  V30 16104 H 1591.1 -1.58214 0.124158 0
M  V30 16105 H 1591.12 -3.19378 -2.06829 0
M  V30 16106 H 1590.63 -3.86325 -0.37079 0
M  V30 16107 H 1588.73 -2.71434 -2.55253 0
M  V30 16108 H 1588.84 -4.44086 -1.79791 0
M  V30 16109 H 1587.21 -2.32284 -1.04481 0
M  V30 16110 H 1587.99 -3.42655 0.21036 0
M  V30 16111 N 1590.44 0.372521 -1.53134 0
M  V30 16112 C 1591.35 1.47994 -1.8203 0
M  V30 16113 C 1592.36 1.58937 -0.708179 0
M  V30 16114 O 1593.54 1.74962 -0.997511 0
M  V30 16115 C 1590.6 2.83342 -1.99796 0
M  V30 16116 C 1589.66 2.81984 -3.23702 0
M  V30 16117 C 1588.9 4.10877 -3.40611 0
M  V30 16118 O 1589.12 5.06686 -2.61964 0
M  V30 16119 O 1588.05 4.17111 -4.33938 0
M  V30 16120 H 1591.88 1.26501 -2.761 0
M  V30 16121 H 1589.46 0.561957 -1.38428 0
M  V30 16122 H 1591.35 3.63551 -2.13092 0
M  V30 16123 H 1590.02 3.04826 -1.08916 0
M  V30 16124 H 1588.93 2.00498 -3.15834 0
M  V30 16125 H 1590.26 2.65453 -4.14482 0
M  V30 16126 N 1591.91 1.44376 0.631925 0
M  V30 16127 C 1593.32 1.41881 1.21353 0
M  V30 16128 C 1593.68 0.13375 1.95744 0
M  V30 16129 O 1592.8 -0.765919 2.02392 0
M  V30 16130 C 1593.4 2.57027 2.20732 0
M  V30 16131 C 1591.95 2.5773 2.74322 0
M  V30 16132 C 1591.1 2.33672 1.49307 0
M  V30 16133 H 1594.05 1.52968 0.42265 0
M  V30 16134 H 1594.07 2.29735 3.03319 0
M  V30 16135 H 1593.59 3.50541 1.66561 0
M  V30 16136 H 1591.69 1.68155 3.32498 0
M  V30 16137 H 1591.8 3.5619 3.20415 0
M  V30 16138 H 1590.16 1.8275 1.7741 0
M  V30 16139 H 1590.95 3.293 0.970395 0
M  V30 16140 N 1593.39 -0.872258 1.31261 0
M  V30 16141 C 1594.62 -1.65555 1.23593 0
M  V30 16142 C 1595.03 -1.88124 -0.201532 0
M  V30 16143 O 1594.37 -1.43792 -1.14323 0
M  V30 16144 C 1594.43 -3.04726 1.90742 0
M  V30 16145 C 1594.1 -3.05276 3.40082 0
M  V30 16146 C 1595.1 -2.83401 4.35867 0
M  V30 16147 C 1592.78 -3.26469 3.81737 0
M  V30 16148 C 1594.77 -2.82697 5.71281 0
M  V30 16149 C 1592.46 -3.25393 5.17265 0
M  V30 16150 C 1593.46 -3.03533 6.11847 0
M  V30 16151 O 1593.15 -3.02297 7.44897 0
M  V30 16152 H 1592.88 -0.52296 0.428356 0
M  V30 16153 H 1595.43 -1.09717 1.73641 0
M  V30 16154 H 1593.66 -3.62281 1.35239 0
M  V30 16155 H 1595.35 -3.65265 1.7702 0
M  V30 16156 H 1596.12 -2.66812 4.05014 0
M  V30 16157 H 1592 -3.42515 3.08552 0
M  V30 16158 H 1595.54 -2.65553 6.45079 0
M  V30 16159 H 1591.44 -3.41522 5.47753 0
M  V30 16160 H 1592.21 -3.18375 7.54042 0
M  V30 16161 N 1594.87 -1.14184 -1.08627 0
M  V30 16162 C 1595.8 -0.849455 -2.17501 0
M  V30 16163 C 1596.78 0.194617 -1.68983 0
M  V30 16164 O 1597.97 0.0517757 -1.94131 0
M  V30 16165 C 1595.1 -0.323685 -3.45788 0
M  V30 16166 C 1594.05 -1.30294 -4.07685 0
M  V30 16167 C 1593.38 -0.636575 -5.30897 0
M  V30 16168 C 1594.68 -2.66441 -4.49229 0
M  V30 16169 H 1596.37 -1.75987 -2.42217 0
M  V30 16170 H 1593.92 -0.847595 -1.16412 0
M  V30 16171 H 1595.87 -0.106754 -4.21265 0
M  V30 16172 H 1594.59 0.62215 -3.20619 0
M  V30 16173 H 1593.25 -1.50601 -3.34238 0
M  V30 16174 H 1592.9 0.314995 -5.02013 0
M  V30 16175 H 1592.6 -1.28998 -5.73266 0
M  V30 16176 H 1594.12 -0.429117 -6.0909 0
M  V30 16177 H 1595.54 -2.50055 -5.15893 0
M  V30 16178 H 1593.93 -3.28033 -5.02508 0
M  V30 16179 H 1595 -3.23486 -3.61226 0
M  V30 16180 N 1596.35 1.26749 -0.936613 0
M  V30 16181 C 1597.63 1.89106 -0.49981 0
M  V30 16182 C 1598.01 1.84687 1.02244 0
M  V30 16183 O 1597.35 1.2981 1.88047 0
M  V30 16184 C 1597.56 3.32641 -1.05598 0
M  V30 16185 C 1598.91 4.09511 -1.12187 0
M  V30 16186 O 1599.94 3.41692 -1.00624 0
M  V30 16187 O 1598.79 5.30785 -1.30113 0
M  V30 16188 H 1595.89 0.810941 -0.162185 0
M  V30 16189 H 1598.43 1.34952 -1.02888 0
M  V30 16190 H 1597.21 3.30196 -2.09968 0
M  V30 16191 H 1596.83 3.94327 -0.509086 0
M  V30 16192 N 1597.83 0.703118 1.41046 0
M  V30 16193 C 1599.07 0.237638 2.01403 0
M  V30 16194 C 1599.41 -1.16217 1.55587 0
M  V30 16195 O 1598.68 -1.78593 0.770377 0
M  V30 16196 C 1598.96 0.303738 3.58817 0
M  V30 16197 C 1598.82 1.74103 4.14739 0
M  V30 16198 C 1600.14 -0.332186 4.38845 0
M  V30 16199 H 1597.25 0.0878243 0.731749 0
M  V30 16200 H 1599.9 0.893264 1.67693 0
M  V30 16201 H 1598.05 -0.254485 3.87666 0
M  V30 16202 H 1599.72 2.35368 3.96736 0
M  V30 16203 H 1597.96 2.27277 3.69496 0
M  V30 16204 H 1598.63 1.73876 5.239 0
M  V30 16205 H 1601.11 0.143312 4.15853 0
M  V30 16206 H 1599.98 -0.255429 5.48305 0
M  V30 16207 H 1600.25 -1.41397 4.18878 0
M  V30 16208 N 1599.3 -1.51086 0.448402 0
M  V30 16209 C 1600.54 -2.04085 -0.113374 0
M  V30 16210 C 1600.91 -1.32454 -1.38996 0
M  V30 16211 O 1602.11 -1.75885 -2.03268 0
M  V30 16212 C 1600.38 -3.56001 -0.315869 0
M  V30 16213 S 1601.94 -4.30695 -0.839462 0
M  V30 16214 H 1598.76 -0.7105 -0.0266528 0
M  V30 16215 H 1601.36 -1.85728 0.610345 0
M  V30 16216 H 1600.06 -4.05699 0.6194 0
M  V30 16217 H 1599.59 -3.78672 -1.06635 0
M  V30 16218 H 1601.61 -4.48833 -2.11573 0
M  V30 16219 N 1600.78 -0.180154 -1.56567 0
M  V30 16220 C 1602.03 0.462656 -1.96322 0
M  V30 16221 C 1602.34 1.63788 -1.06925 0
M  V30 16222 O 1603.55 2.34751 -1.36398 0
M  V30 16223 C 1602.01 0.874492 -3.49114 0
M  V30 16224 C 1601.61 -0.27562 -4.47151 0
M  V30 16225 C 1603.36 1.48522 -3.9767 0
M  V30 16226 C 1601.27 0.156341 -5.91193 0
M  V30 16227 H 1600.2 0.176619 -0.733022 0
M  V30 16228 H 1602.85 -0.269793 -1.81506 0
M  V30 16229 H 1601.23 1.66318 -3.59381 0
M  V30 16230 H 1602.4 -1.05304 -4.48606 0
M  V30 16231 H 1600.72 -0.796878 -4.08704 0
M  V30 16232 H 1603.31 1.8206 -5.02751 0
M  V30 16233 H 1603.66 2.38634 -3.41115 0
M  V30 16234 H 1604.19 0.760806 -3.90457 0
M  V30 16235 H 1600.93 -0.710221 -6.51641 0
M  V30 16236 H 1600.45 0.898933 -5.93025 0
M  V30 16237 H 1602.13 0.597228 -6.44238 0
M  V30 16238 N 1602.26 1.57322 0.0935319 0
M  V30 16239 C 1603.49 1.90099 0.80907 0
M  V30 16240 C 1603.9 0.772198 1.72724 0
M  V30 16241 O 1603.24 -0.26468 1.81783 0
M  V30 16242 C 1603.3 3.18144 1.67405 0
M  V30 16243 C 1602.97 4.47488 0.927539 0
M  V30 16244 C 1603.96 5.19266 0.256635 0
M  V30 16245 C 1601.65 4.9415 0.901156 0
M  V30 16246 C 1603.64 6.35943 -0.430665 0
M  V30 16247 C 1601.33 6.10739 0.21007 0
M  V30 16248 C 1602.33 6.81485 -0.454661 0
M  V30 16249 O 1602.02 7.95852 -1.13466 0
M  V30 16250 H 1601.75 0.633287 0.236481 0
M  V30 16251 H 1604.3 2.05264 0.0747132 0
M  V30 16252 H 1602.53 2.99129 2.45068 0
M  V30 16253 H 1604.22 3.3674 2.2663 0
M  V30 16254 H 1604.99 4.84256 0.268468 0
M  V30 16255 H 1600.87 4.38972 1.408 0
M  V30 16256 H 1604.41 6.911 -0.950082 0
M  V30 16257 H 1600.31 6.45202 0.196089 0
M  V30 16258 H 1601.08 8.11844 -1.04172 0
M  V30 16259 N 1603.74 -0.364395 1.53329 0
M  V30 16260 C 1605.02 -1.12265 1.60174 0
M  V30 16261 C 1605.4 -2.0708 0.410015 0
M  V30 16262 O 1604.74 -2.20492 -0.599631 0
M  V30 16263 C 1604.95 -1.86071 2.9526 0
M  V30 16264 C 1606.3 -2.40562 3.49879 0
M  V30 16265 O 1607.33 -1.96196 2.97297 0
M  V30 16266 O 1606.18 -3.2167 4.41804 0
M  V30 16267 H 1603.28 -0.515062 0.647024 0
M  V30 16268 H 1605.82 -0.367563 1.65672 0
M  V30 16269 H 1604.6 -1.1688 3.73436 0
M  V30 16270 H 1604.22 -2.68486 2.93259 0
M  V30 16271 N 1605.22 -1.44709 -0.62426 0
M  V30 16272 C 1606.44 -1.51348 -1.41072 0
M  V30 16273 C 1606.86 -0.140576 -1.88276 0
M  V30 16274 O 1606.22 0.854821 -1.61242 0
M  V30 16275 C 1606.27 -2.48396 -2.62643 0
M  V30 16276 O 1605.99 -3.8035 -2.17406 0
M  V30 16277 C 1607.49 -2.64568 -3.55694 0
M  V30 16278 H 1604.71 -0.513092 -0.432409 0
M  V30 16279 H 1607.25 -1.89739 -0.762841 0
M  V30 16280 H 1605.41 -2.13122 -3.23508 0
M  V30 16281 H 1605.82 -4.32809 -2.96272 0
M  V30 16282 H 1607.3 -3.36486 -4.37585 0
M  V30 16283 H 1607.77 -1.70031 -4.04952 0
M  V30 16284 H 1608.38 -3.00771 -3.00694 0
M  V30 16285 N 1606.69 0.865285 -1.31722 0
M  V30 16286 C 1607.93 1.63264 -1.2298 0
M  V30 16287 C 1608.3 1.90873 0.207754 0
M  V30 16288 O 1609.5 2.65518 0.418737 0
M  V30 16289 C 1607.77 2.92412 -2.05499 0
M  V30 16290 S 1609.33 3.83263 -2.13669 0
M  V30 16291 H 1606.15 0.560119 -0.437936 0
M  V30 16292 H 1608.75 1.02554 -1.66442 0
M  V30 16293 H 1607.45 2.7006 -3.09024 0
M  V30 16294 H 1606.98 3.58145 -1.62774 0
M  V30 16295 H 1609 4.79448 -1.27843 0
M  V30 16296 N 1608.17 1.14759 1.0802 0
M  V30 16297 C 1609.4 0.942316 1.84757 0
M  V30 16298 C 1609.82 -0.504188 1.81217 0
M  V30 16299 O 1609.18 -1.35891 1.20014 0
M  V30 16300 C 1609.23 1.45271 3.30043 0
M  V30 16301 O 1608.33 0.647414 4.07287 0
M  V30 16302 H 1607.67 0.336613 0.572353 0
M  V30 16303 H 1610.2 1.52578 1.36313 0
M  V30 16304 H 1610.21 1.4626 3.80883 0
M  V30 16305 H 1608.89 2.50583 3.31935 0
M  V30 16306 H 1607.47 0.706595 3.66144 0
M  V30 16307 N 1609.65 -1.26251 0.943322 0
M  V30 16308 C 1610.89 -1.95409 0.599542 0
M  V30 16309 C 1611.25 -1.72356 -0.846017 0
M  V30 16310 O 1612.46 -2.35337 -1.29884 0
M  V30 16311 C 1610.73 -3.44953 0.935013 0
M  V30 16312 S 1612.29 -4.33147 0.702101 0
M  V30 16313 H 1609.1 -0.675863 0.22075 0
M  V30 16314 H 1611.71 -1.53153 1.21509 0
M  V30 16315 H 1610.41 -3.59232 1.98445 0
M  V30 16316 H 1609.94 -3.92182 0.309268 0
M  V30 16317 H 1611.96 -4.9431 -0.432655 0
M  V30 16318 N 1611.13 -0.710588 -1.40671 0
M  V30 16319 C 1612.04 -0.0557164 -2.34534 0
M  V30 16320 C 1613.06 0.749387 -1.57036 0
M  V30 16321 O 1614.23 0.683493 -1.89447 0
M  V30 16322 C 1611.3 0.858583 -3.35901 0
M  V30 16323 C 1610.36 0.043995 -4.29277 0
M  V30 16324 C 1609.59 0.91475 -5.25802 0
M  V30 16325 O 1609.81 2.15407 -5.28163 0
M  V30 16326 O 1608.75 0.356407 -6.00844 0
M  V30 16327 H 1612.57 -0.829807 -2.92144 0
M  V30 16328 H 1610.16 -0.471028 -1.4178 0
M  V30 16329 H 1612.04 1.38244 -3.98079 0
M  V30 16330 H 1610.72 1.61191 -2.80712 0
M  V30 16331 H 1609.62 -0.524815 -3.704 0
M  V30 16332 H 1610.96 -0.670996 -4.87605 0
M  V30 16333 N 1612.61 1.50847 -0.456408 0
M  V30 16334 C 1613.83 2.07139 0.104054 0
M  V30 16335 C 1614.26 1.31966 1.34039 0
M  V30 16336 O 1613.62 0.363038 1.77628 0
M  V30 16337 C 1613.66 3.5853 0.385794 0
M  V30 16338 O 1612.77 3.85351 1.46895 0
M  V30 16339 H 1612.11 0.663968 -0.00651246 0
M  V30 16340 H 1614.64 1.94226 -0.64323 0
M  V30 16341 H 1614.65 4.03097 0.630644 0
M  V30 16342 H 1613.32 4.12665 -0.51773 0
M  V30 16343 H 1611.9 3.52635 1.21256 0
M  V30 16344 N 1614.09 0.188454 1.56469 0
M  V30 16345 C 1615.33 -0.452238 1.96565 0
M  V30 16346 C 1615.65 -1.63219 1.07792 0
M  V30 16347 O 1616.85 -2.34024 1.37641 0
M  V30 16348 C 1615.31 -0.855966 3.49573 0
M  V30 16349 C 1614.92 0.299329 4.46999 0
M  V30 16350 C 1616.66 -1.46411 3.98452 0
M  V30 16351 C 1614.57 -0.124987 5.91268 0
M  V30 16352 H 1613.5 -0.172729 0.733949 0
M  V30 16353 H 1616.15 0.279415 1.8136 0
M  V30 16354 H 1614.53 -1.64409 3.60258 0
M  V30 16355 H 1615.71 1.07681 4.48042 0
M  V30 16356 H 1614.02 0.818542 4.08275 0
M  V30 16357 H 1616.62 -1.79392 5.03709 0
M  V30 16358 H 1616.96 -2.36822 3.42376 0
M  V30 16359 H 1617.49 -0.740088 3.90855 0
M  V30 16360 H 1614.23 0.744769 6.51255 0
M  V30 16361 H 1613.75 -0.86747 5.93494 0
M  V30 16362 H 1615.43 -0.563054 6.44545 0
M  V30 16363 N 1615.56 -1.5737 -0.0851874 0
M  V30 16364 C 1616.81 -1.86219 -0.7853 0
M  V30 16365 C 1617.13 -0.77857 -1.78783 0
M  V30 16366 O 1616.4 0.194176 -1.94935 0
M  V30 16367 H 1614.98 -0.687134 -0.293013 0
M  V30 16368 H 1617.64 -1.94793 -0.0644597 0
M  V30 16369 H 1616.74 -2.83286 -1.30978 0
M  V30 16370 N 1617.04 0.356258 -1.53521 0
M  V30 16371 C 1618.32 1.11414 -1.60768 0
M  V30 16372 C 1618.7 2.0686 -0.420991 0
M  V30 16373 O 1618.05 2.20807 0.587929 0
M  V30 16374 C 1618.26 1.84503 -2.96243 0
M  V30 16375 C 1619.6 2.38703 -3.5115 0
M  V30 16376 O 1620.63 1.94617 -2.98333 0
M  V30 16377 O 1619.49 3.19322 -4.43504 0
M  V30 16378 H 1616.58 0.511623 -0.649747 0
M  V30 16379 H 1619.13 0.358772 -1.65864 0
M  V30 16380 H 1617.9 1.14898 -3.74051 0
M  V30 16381 H 1617.52 2.66927 -2.94679 0
M  V30 16382 N 1618.52 1.45038 0.616577 0
M  V30 16383 C 1619.76 1.50118 1.38723 0
M  V30 16384 C 1620.12 0.135879 1.91519 0
M  V30 16385 O 1621.32 0.0613609 2.6873 0
M  V30 16386 C 1619.6 2.5434 2.51089 0
M  V30 16387 S 1621.15 2.78577 3.39028 0
M  V30 16388 H 1617.97 0.530782 0.473066 0
M  V30 16389 H 1620.57 1.82059 0.712362 0
M  V30 16390 H 1619.28 3.52222 2.10638 0
M  V30 16391 H 1618.81 2.24019 3.23387 0
M  V30 16392 H 1620.82 2.11275 4.48974 0
M  V30 16393 N 1620 -0.858287 1.32179 0
M  V30 16394 C 1620.96 -1.94811 1.20753 0
M  V30 16395 C 1621.96 -1.60261 0.131526 0
M  V30 16396 O 1623.15 -1.69968 0.381662 0
M  V30 16397 C 1620.28 -3.29972 0.856229 0
M  V30 16398 H 1621.48 -2.06371 2.17603 0
M  V30 16399 H 1619.03 -1.04802 1.15958 0
M  V30 16400 H 1619.76 -3.24111 -0.11061 0
M  V30 16401 H 1619.55 -3.56424 1.63414 0
M  V30 16402 H 1621.04 -4.09856 0.800507 0
M  V30 16403 N 1621.48 -1.1533 -1.07409 0
M  V30 16404 C 1622.72 -0.938329 -1.8159 0
M  V30 16405 C 1623.08 0.525171 -1.84678 0
M  V30 16406 O 1624.28 0.858449 -2.54724 0
M  V30 16407 C 1622.55 -1.53504 -3.22756 0
M  V30 16408 S 1624.11 -1.4631 -4.13689 0
M  V30 16409 H 1620.93 -0.337711 -0.625677 0
M  V30 16410 H 1623.53 -1.46868 -1.29035 0
M  V30 16411 H 1622.23 -2.59313 -3.18096 0
M  V30 16412 H 1621.77 -1.00353 -3.80385 0
M  V30 16413 H 1623.78 -0.455576 -4.94104 0
M  V30 16414 N 1622.95 1.25748 -0.950004 0
M  V30 16415 C 1624.2 1.93336 -0.602294 0
M  V30 16416 C 1624.53 1.74454 0.859994 0
M  V30 16417 O 1623.78 1.08032 1.6318 0
M  V30 16418 C 1624.08 3.45843 -0.901521 0
M  V30 16419 C 1623.75 3.84874 -2.3491 0
M  V30 16420 C 1622.41 3.9524 -2.74479 0
M  V30 16421 C 1624.76 4.04286 -3.28941 0
M  V30 16422 C 1622.09 4.22422 -4.07157 0
M  V30 16423 C 1624.44 4.32959 -4.61225 0
M  V30 16424 C 1623.11 4.41541 -5.00597 0
M  V30 16425 H 1622.38 0.707465 -0.220395 0
M  V30 16426 H 1625.02 1.49386 -1.19817 0
M  V30 16427 H 1623.33 3.91164 -0.2232 0
M  V30 16428 H 1625.03 3.96316 -0.611134 0
M  V30 16429 H 1621.62 3.77358 -2.03221 0
M  V30 16430 H 1625.8 3.95697 -2.99563 0
M  V30 16431 H 1621.06 4.27281 -4.37311 0
M  V30 16432 H 1625.23 4.46925 -5.3407 0
M  V30 16433 H 1622.86 4.62358 -6.03431 0
M  V30 16434 N 1624.43 0.718038 1.40292 0
M  V30 16435 C 1625.67 0.263057 2.027 0
M  V30 16436 C 1626.04 -1.1233 1.55711 0
M  V30 16437 O 1627.24 -1.67541 2.10199 0
M  V30 16438 C 1625.51 0.342773 3.55752 0
M  V30 16439 S 1627.07 -0.0348622 4.38786 0
M  V30 16440 H 1623.88 0.10418 0.703326 0
M  V30 16441 H 1626.49 0.940801 1.71374 0
M  V30 16442 H 1625.19 1.35336 3.87443 0
M  V30 16443 H 1624.72 -0.353367 3.9181 0
M  V30 16444 H 1626.74 -1.25618 4.80036 0
M  V30 16445 N 1625.91 -1.50602 0.464402 0
M  V30 16446 C 1627.19 -1.94992 -0.154146 0
M  V30 16447 C 1627.57 -1.40447 -1.57601 0
M  V30 16448 O 1626.92 -0.602668 -2.20409 0
M  V30 16449 C 1627.13 -3.48844 -0.104296 0
M  V30 16450 C 1628.47 -4.23563 -0.296506 0
M  V30 16451 O 1629.5 -3.55739 -0.181187 0
M  V30 16452 O 1628.36 -5.43937 -0.528668 0
M  V30 16453 H 1625.45 -0.818921 -0.115311 0
M  V30 16454 H 1628 -1.61397 0.524324 0
M  V30 16455 H 1626.77 -3.81075 0.88869 0
M  V30 16456 H 1626.39 -3.88957 -0.824514 0
M  V30 16457 N 1627.39 -0.19675 -1.56367 0
M  V30 16458 C 1628.62 0.447139 -2.02011 0
M  V30 16459 C 1629.03 1.55077 -1.07687 0
M  V30 16460 O 1628.39 1.82316 -0.0820316 0
M  V30 16461 C 1628.44 1.00192 -3.47338 0
M  V30 16462 O 1628.16 -0.0576859 -4.38062 0
M  V30 16463 C 1629.66 1.72152 -4.08508 0
M  V30 16464 H 1626.88 0.112088 -0.661572 0
M  V30 16465 H 1629.43 -0.30594 -2.02199 0
M  V30 16466 H 1627.58 1.70537 -3.47844 0
M  V30 16467 H 1627.99 0.355508 -5.23294 0
M  V30 16468 H 1629.47 2.06199 -5.12041 0
M  V30 16469 H 1629.95 2.62581 -3.52062 0
M  V30 16470 H 1630.55 1.06388 -4.11779 0
M  V30 16471 N 1628.87 1.57413 0.0768405 0
M  V30 16472 C 1630.12 1.86186 0.775741 0
M  V30 16473 C 1630.43 0.788676 1.78995 0
M  V30 16474 O 1631.63 0.964095 2.53806 0
M  V30 16475 C 1630.09 3.30247 1.43055 0
M  V30 16476 C 1629.7 4.45682 0.45517 0
M  V30 16477 C 1631.44 3.68225 2.11211 0
M  V30 16478 C 1629.35 5.80782 1.11561 0
M  V30 16479 H 1628.28 0.694546 0.293466 0
M  V30 16480 H 1630.93 1.83477 0.0289478 0
M  V30 16481 H 1629.31 3.27552 2.22544 0
M  V30 16482 H 1630.49 4.59759 -0.309535 0
M  V30 16483 H 1628.8 4.16222 -0.121671 0
M  V30 16484 H 1631.4 4.66454 2.6139 0
M  V30 16485 H 1631.74 2.9777 2.90928 0
M  V30 16486 H 1632.27 3.72888 1.38561 0
M  V30 16487 H 1629.01 6.54517 0.358877 0
M  V30 16488 H 1628.53 5.70515 1.8513 0
M  V30 16489 H 1630.21 6.25951 1.63689 0
M  V30 16490 N 1630.34 -0.348112 1.53707 0
M  V30 16491 C 1631.31 -1.41018 1.80683 0
M  V30 16492 C 1632.31 -1.4582 0.67774 0
M  V30 16493 O 1633.5 -1.46275 0.94601 0
M  V30 16494 C 1630.63 -2.79988 1.94473 0
M  V30 16495 H 1631.82 -1.18365 2.75554 0
M  V30 16496 H 1629.38 -0.582244 1.4505 0
M  V30 16497 H 1630.11 -3.07931 1.0173 0
M  V30 16498 H 1629.9 -2.77899 2.76612 0
M  V30 16499 H 1631.39 -3.56868 2.16876 0
M  V30 16500 N 1631.82 -1.45363 -0.608876 0
M  V30 16501 C 1632.79 -1.53551 -1.70161 0
M  V30 16502 C 1633.79 -0.415146 -1.55349 0
M  V30 16503 O 1634.98 -0.67858 -1.6044 0
M  V30 16504 C 1632.11 -1.43081 -3.0942 0
M  V30 16505 H 1633.3 -2.5091 -1.64268 0
M  V30 16506 H 1630.85 -1.32785 -0.824493 0
M  V30 16507 H 1631.59 -0.469016 -3.20891 0
M  V30 16508 H 1631.37 -2.24343 -3.21579 0
M  V30 16509 H 1632.86 -1.51841 -3.89017 0
M  V30 16510 N 1633.3 0.851265 -1.32632 0
M  V30 16511 C 1634.53 1.63568 -1.26211 0
M  V30 16512 C 1634.94 1.8842 0.171578 0
M  V30 16513 O 1634.28 1.45592 1.12021 0
M  V30 16514 C 1634.34 3.01653 -1.95566 0
M  V30 16515 C 1634.01 2.99827 -3.44896 0
M  V30 16516 C 1635 2.76431 -4.4032 0
M  V30 16517 C 1632.69 3.20355 -3.86883 0
M  V30 16518 C 1634.68 2.73572 -5.75706 0
M  V30 16519 C 1632.37 3.17122 -5.22376 0
M  V30 16520 C 1633.37 2.9376 -6.16599 0
M  V30 16521 O 1633.06 2.90408 -7.49612 0
M  V30 16522 H 1632.79 0.516079 -0.436622 0
M  V30 16523 H 1635.34 1.06941 -1.75365 0
M  V30 16524 H 1633.57 3.60083 -1.40986 0
M  V30 16525 H 1635.26 3.62403 -1.82809 0
M  V30 16526 H 1636.03 2.60335 -4.09208 0
M  V30 16527 H 1631.91 3.37563 -3.13962 0
M  V30 16528 H 1635.45 2.55257 -6.49222 0
M  V30 16529 H 1631.35 3.32764 -5.53117 0
M  V30 16530 H 1632.12 3.06338 -7.59012 0
M  V30 16531 N 1634.78 1.15898 1.06796 0
M  V30 16532 C 1635.74 0.863427 2.12315 0
M  V30 16533 C 1636.74 -0.139326 1.60195 0
M  V30 16534 O 1637.93 0.0909705 1.73962 0
M  V30 16535 C 1635.06 0.290251 3.39662 0
M  V30 16536 H 1636.26 1.79879 2.39966 0
M  V30 16537 H 1633.81 0.967223 1.22778 0
M  V30 16538 H 1634.54 -0.653037 3.17657 0
M  V30 16539 H 1634.33 1.01273 3.78796 0
M  V30 16540 H 1635.82 0.10124 4.17477 0
M  V30 16541 N 1636.26 -1.25243 0.956659 0
M  V30 16542 C 1637.21 -2.23532 0.449171 0
M  V30 16543 C 1638.19 -1.54103 -0.462715 0
M  V30 16544 O 1639.38 -1.74517 -0.295436 0
M  V30 16545 C 1636.51 -3.42237 -0.269892 0
M  V30 16546 C 1635.6 -4.1893 0.660181 0
M  V30 16547 N 1635.99 -4.72965 1.7927 0
M  V30 16548 C 1634.29 -4.4353 0.468779 0
M  V30 16549 C 1634.99 -5.31072 2.37355 0
M  V30 16550 N 1633.96 -5.17638 1.65986 0
M  V30 16551 H 1637.77 -2.62918 1.31345 0
M  V30 16552 H 1635.28 -1.40504 0.814394 0
M  V30 16553 H 1637.28 -4.11792 -0.650604 0
M  V30 16554 H 1635.94 -3.04375 -1.13075 0
M  V30 16555 H 1636.95 -4.70038 2.17451 0
M  V30 16556 H 1633.62 -4.16038 -0.349031 0
M  V30 16557 H 1635.01 -5.83654 3.32863 0
M  V30 16558 N 1637.73 -0.725468 -1.3991 0
M  V30 16559 C 1638.98 -0.26965 -2.00999 0
M  V30 16560 C 1639.31 1.13727 -1.57416 0
M  V30 16561 O 1638.59 1.77345 -0.798693 0
M  V30 16562 C 1638.87 -0.360784 -3.58288 0
M  V30 16563 C 1638.72 -1.80679 -4.11916 0
M  V30 16564 C 1640.04 0.262328 -4.39317 0
M  V30 16565 H 1637.16 -0.0994547 -0.730259 0
M  V30 16566 H 1639.8 -0.91983 -1.6625 0
M  V30 16567 H 1637.95 0.192779 -3.88021 0
M  V30 16568 H 1639.63 -2.4165 -3.92942 0
M  V30 16569 H 1637.87 -2.33127 -3.65834 0
M  V30 16570 H 1638.54 -1.82189 -5.21068 0
M  V30 16571 H 1641.02 -0.209452 -4.15573 0
M  V30 16572 H 1639.89 0.168166 -5.48642 0
M  V30 16573 H 1640.15 1.34716 -4.21075 0
M  V30 16574 N 1639.21 1.50354 -0.472382 0
M  V30 16575 C 1640.45 2.0424 0.0808914 0
M  V30 16576 C 1640.82 1.34648 1.36871 0
M  V30 16577 O 1642.02 1.79096 2.00444 0
M  V30 16578 C 1640.29 3.56459 0.259192 0
M  V30 16579 S 1641.85 4.31976 0.770836 0
M  V30 16580 H 1638.67 0.710834 0.015346 0
M  V30 16581 H 1641.27 1.84734 -0.639816 0
M  V30 16582 H 1639.97 4.04662 -0.683865 0
M  V30 16583 H 1639.5 3.80321 1.00598 0
M  V30 16584 H 1641.52 4.52142 2.04406 0
M  V30 16585 N 1640.69 0.205039 1.56261 0
M  V30 16586 C 1641.65 -0.698166 2.18308 0
M  V30 16587 C 1642.65 -1.13376 1.14029 0
M  V30 16588 O 1643.84 -1.04524 1.39357 0
M  V30 16589 C 1640.98 -1.95438 2.79315 0
M  V30 16590 H 1642.17 -0.157462 2.99486 0
M  V30 16591 H 1639.72 -0.0445849 1.56236 0
M  V30 16592 H 1640.46 -2.53736 2.01962 0
M  V30 16593 H 1640.24 -1.65068 3.55662 0
M  V30 16594 H 1641.73 -2.59824 3.26927 0
M  V30 16595 N 1642.17 -1.57451 -0.0684915 0
M  V30 16596 C 1643.1 -2.00648 -1.10783 0
M  V30 16597 C 1644.11 -0.912944 -1.34793 0
M  V30 16598 O 1645.3 -1.19079 -1.32975 0
M  V30 16599 C 1642.4 -2.33309 -2.45805 0
M  V30 16600 C 1641.58 -3.64551 -2.41704 0
M  V30 16601 C 1640.64 -3.84845 -3.5886 0
M  V30 16602 O 1639.66 -4.56392 -3.40139 0
M  V30 16603 N 1640.86 -3.27451 -4.79329 0
M  V30 16604 H 1643.63 -2.90422 -0.739938 0
M  V30 16605 H 1641.19 -1.59846 -0.257093 0
M  V30 16606 H 1643.18 -2.44056 -3.22829 0
M  V30 16607 H 1641.75 -1.49408 -2.74583 0
M  V30 16608 H 1640.97 -3.64528 -1.50043 0
M  V30 16609 H 1642.26 -4.50721 -2.36068 0
M  V30 16610 H 1641.66 -2.69384 -4.97442 0
M  V30 16611 H 1640.21 -3.43641 -5.53854 0
M  V30 16612 N 1643.65 0.339955 -1.5389 0
M  V30 16613 C 1644.6 1.41838 -1.78511 0
M  V30 16614 C 1645.58 1.47604 -0.640447 0
M  V30 16615 O 1646.77 1.52414 -0.899951 0
M  V30 16616 C 1643.9 2.78929 -2.00134 0
M  V30 16617 C 1642.99 2.7754 -3.20675 0
M  V30 16618 N 1643.38 2.45779 -4.42071 0
M  V30 16619 C 1641.68 3.08684 -3.21917 0
M  V30 16620 C 1642.38 2.52714 -5.23938 0
M  V30 16621 N 1641.35 2.88484 -4.60736 0
M  V30 16622 H 1645.16 1.16185 -2.6996 0
M  V30 16623 H 1642.67 0.548339 -1.52863 0
M  V30 16624 H 1644.67 3.56637 -2.15907 0
M  V30 16625 H 1643.33 3.05525 -1.09929 0
M  V30 16626 H 1644.34 2.18913 -4.69358 0
M  V30 16627 H 1641.02 3.40429 -2.41691 0
M  V30 16628 H 1642.41 2.31287 -6.30838 0
M  V30 16629 N 1645.13 1.45684 0.601159 0
M  V30 16630 C 1646.37 1.4974 1.35729 0
M  V30 16631 C 1646.69 0.143072 1.94474 0
M  V30 16632 O 1645.96 -0.82832 1.77527 0
M  V30 16633 H 1644.54 0.551455 0.503892 0
M  V30 16634 H 1647.21 1.81685 0.705443 0
M  V30 16635 H 1646.3 2.23982 2.17344 0
M  V30 16636 N 1646.6 -0.84422 1.33082 0
M  V30 16637 C 1647.55 -1.95363 1.2289 0
M  V30 16638 C 1648.52 -1.65744 0.108705 0
M  V30 16639 O 1649.71 -1.88643 0.286057 0
M  V30 16640 C 1646.85 -3.31228 0.968594 0
M  V30 16641 C 1645.96 -3.73279 2.17455 0
M  V30 16642 C 1645.09 -4.97987 1.84885 0
M  V30 16643 C 1644.13 -5.32558 3.01743 0
M  V30 16644 N 1643.27 -6.48442 2.69197 0
M  V30 16645 H 1648.11 -2.03412 2.17778 0
M  V30 16646 H 1645.65 -0.995461 1.083 0
M  V30 16647 H 1647.6 -4.09494 0.798129 0
M  V30 16648 H 1646.23 -3.22751 0.0564631 0
M  V30 16649 H 1645.29 -2.9058 2.45494 0
M  V30 16650 H 1646.6 -3.94814 3.04834 0
M  V30 16651 H 1645.75 -5.83987 1.64451 0
M  V30 16652 H 1644.49 -4.7841 0.947356 0
M  V30 16653 H 1643.5 -4.45064 3.22797 0
M  V30 16654 H 1644.72 -5.54085 3.9264 0
M  V30 16655 H 1642.67 -6.30363 1.816 0
M  V30 16656 H 1642.58 -6.70046 3.50106 0
M  V30 16657 H 1643.85 -7.37568 2.52217 0
M  V30 16658 N 1648.08 -1.16463 -1.0618 0
M  V30 16659 C 1649.33 -0.948248 -1.79265 0
M  V30 16660 C 1649.66 0.522578 -1.87037 0
M  V30 16661 O 1648.94 1.38772 -1.36282 0
M  V30 16662 C 1649.22 -1.57781 -3.23693 0
M  V30 16663 C 1649.07 -3.12005 -3.23995 0
M  V30 16664 C 1650.39 -1.27343 -4.21274 0
M  V30 16665 H 1647.51 -0.345907 -0.650782 0
M  V30 16666 H 1650.15 -1.4381 -1.24172 0
M  V30 16667 H 1648.3 -1.16126 -3.70738 0
M  V30 16668 H 1649.97 -3.62649 -2.85102 0
M  V30 16669 H 1648.22 -3.45276 -2.62615 0
M  V30 16670 H 1648.89 -3.51176 -4.25886 0
M  V30 16671 H 1651.36 -1.63396 -3.82676 0
M  V30 16672 H 1650.24 -1.73993 -5.20594 0
M  V30 16673 H 1650.5 -0.192469 -4.41681 0
M  V30 16674 N 1649.56 1.24734 -0.963288 0
M  V30 16675 C 1650.81 1.92971 -0.623688 0
M  V30 16676 C 1651.14 1.7517 0.838393 0
M  V30 16677 O 1650.41 1.10208 1.60264 0
M  V30 16678 C 1650.7 3.46115 -0.99379 0
M  V30 16679 C 1650.55 3.73104 -2.51224 0
M  V30 16680 C 1651.87 4.36956 -0.525128 0
M  V30 16681 H 1648.99 0.700827 -0.228058 0
M  V30 16682 H 1651.63 1.47187 -1.2015 0
M  V30 16683 H 1649.78 3.85242 -0.502108 0
M  V30 16684 H 1651.45 3.43563 -3.07835 0
M  V30 16685 H 1649.69 3.18409 -2.94616 0
M  V30 16686 H 1650.37 4.80237 -2.7217 0
M  V30 16687 H 1652.84 4.0518 -0.947015 0
M  V30 16688 H 1651.72 5.4285 -0.812695 0
M  V30 16689 H 1651.98 4.38347 0.574843 0
M  V30 16690 N 1651.04 0.732878 1.39523 0
M  V30 16691 C 1652.27 0.29007 2.04857 0
M  V30 16692 C 1652.68 -1.07435 1.55252 0
M  V30 16693 O 1652.04 -1.67847 0.716497 0
M  V30 16694 C 1652.09 0.280464 3.6041 0
M  V30 16695 O 1651.81 1.59102 4.08189 0
M  V30 16696 C 1653.31 -0.178772 4.42939 0
M  V30 16697 H 1650.53 0.12716 0.658841 0
M  V30 16698 H 1653.07 0.995933 1.7861 0
M  V30 16699 H 1651.23 -0.376494 3.85566 0
M  V30 16700 H 1651.64 1.50314 5.025 0
M  V30 16701 H 1653.12 -0.134335 5.51837 0
M  V30 16702 H 1653.59 -1.22362 4.21811 0
M  V30 16703 H 1654.2 0.448543 4.22928 0
M  V30 16704 N 1652.52 -1.50101 0.480349 0
M  V30 16705 C 1653.76 -2.033 -0.0636175 0
M  V30 16706 C 1654.12 -1.35518 -1.36575 0
M  V30 16707 O 1653.41 -0.474981 -1.85619 0
M  V30 16708 C 1653.6 -3.56191 -0.293745 0
M  V30 16709 C 1653.43 -4.38791 0.984529 0
M  V30 16710 C 1652.2 -4.81565 1.53048 0
M  V30 16711 C 1654.4 -4.78613 1.88239 0
M  V30 16712 N 1652.38 -5.48519 2.75681 0
M  V30 16713 C 1653.75 -5.45074 2.95456 0
M  V30 16714 C 1655.81 -4.60566 1.89166 0
M  V30 16715 C 1654.51 -5.95398 4.03601 0
M  V30 16716 C 1656.54 -5.11836 2.96273 0
M  V30 16717 C 1655.9 -5.78279 4.02209 0
M  V30 16718 H 1652 -0.781816 0.016982 0
M  V30 16719 H 1654.58 -1.83508 0.650617 0
M  V30 16720 H 1652.75 -3.75911 -0.977023 0
M  V30 16721 H 1654.49 -3.96037 -0.832876 0
M  V30 16722 H 1651.24 -4.61159 1.0784 0
M  V30 16723 H 1651.66 -5.86597 3.37983 0
M  V30 16724 H 1656.31 -4.0862 1.08578 0
M  V30 16725 H 1654.02 -6.46375 4.85 0
M  V30 16726 H 1657.61 -4.99696 2.97985 0
M  V30 16727 H 1656.49 -6.17237 4.83724 0
M  V30 16728 N 1653.99 -0.213323 -1.5615 0
M  V30 16729 C 1655.41 0.142215 -1.58965 0
M  V30 16730 C 1655.61 1.59606 -1.22996 0
M  V30 16731 O 1654.67 2.33485 -0.961308 0
M  V30 16732 C 1655.98 -0.176632 -3.00181 0
M  V30 16733 C 1657.53 -0.118205 -3.12777 0
M  V30 16734 C 1658 -0.410614 -4.56156 0
M  V30 16735 N 1659.49 -0.359887 -4.618 0
M  V30 16736 C 1660.23 -0.559744 -5.70661 0
M  V30 16737 N 1659.72 -0.820934 -6.87919 0
M  V30 16738 N 1661.52 -0.492746 -5.59936 0
M  V30 16739 H 1653.67 -1.16182 -1.77807 0
M  V30 16740 H 1655.93 -0.465086 -0.826075 0
M  V30 16741 H 1655.64 -1.18538 -3.31122 0
M  V30 16742 H 1655.51 0.512256 -3.73705 0
M  V30 16743 H 1657.9 0.88117 -2.81637 0
M  V30 16744 H 1657.98 -0.840446 -2.41599 0
M  V30 16745 H 1657.62 -1.40739 -4.88011 0
M  V30 16746 H 1657.55 0.332725 -5.25548 0
M  V30 16747 H 1660.04 -0.16537 -3.77538 0
M  V30 16748 H 1660.36 -0.961755 -7.66792 0
M  V30 16749 H 1658.7 -0.858036 -6.89683 0
M  V30 16750 H 1661.89 -0.288981 -4.67207 0
M  V30 16751 H 1662.07 -0.651912 -6.44712 0
M  V30 16752 N 1655.47 1.57485 0.0601405 0
M  V30 16753 C 1656.7 1.92051 0.769681 0
M  V30 16754 C 1657.12 0.810364 1.70524 0
M  V30 16755 O 1656.47 -0.215527 1.81223 0
M  V30 16756 C 1656.52 3.26423 1.55339 0
M  V30 16757 O 1656.24 4.3317 0.655423 0
M  V30 16758 C 1657.75 3.75076 2.36289 0
M  V30 16759 H 1654.97 0.63454 0.218175 0
M  V30 16760 H 1657.51 2.04482 0.0269308 0
M  V30 16761 H 1655.66 3.15483 2.24831 0
M  V30 16762 H 1656.08 5.10548 1.20171 0
M  V30 16763 H 1657.55 4.71695 2.86719 0
M  V30 16764 H 1658.03 3.04677 3.16336 0
M  V30 16765 H 1658.64 3.88998 1.71932 0
M  V30 16766 N 1656.95 -0.331789 1.54068 0
M  V30 16767 C 1657.91 -1.39094 1.82169 0
M  V30 16768 C 1658.91 -1.45092 0.693168 0
M  V30 16769 O 1660.1 -1.45263 0.961471 0
M  V30 16770 C 1657.24 -2.77909 1.97432 0
M  V30 16771 H 1658.43 -1.15435 2.76794 0
M  V30 16772 H 1655.98 -0.566827 1.4566 0
M  V30 16773 H 1656.72 -3.06835 1.0499 0
M  V30 16774 H 1656.5 -2.7495 2.79544 0
M  V30 16775 H 1657.99 -3.54548 2.20649 0
M  V30 16776 N 1658.43 -1.46001 -0.593424 0
M  V30 16777 C 1659.66 -1.54307 -1.3783 0
M  V30 16778 C 1660.07 -0.18048 -1.87935 0
M  V30 16779 O 1659.43 0.820427 -1.63019 0
M  V30 16780 C 1659.48 -2.53911 -2.57316 0
M  V30 16781 O 1659.2 -3.84876 -2.09289 0
M  V30 16782 C 1660.7 -2.72054 -3.50002 0
M  V30 16783 H 1657.92 -0.522149 -0.421428 0
M  V30 16784 H 1660.47 -1.91315 -0.722423 0
M  V30 16785 H 1658.62 -2.19937 -3.18915 0
M  V30 16786 H 1659.03 -4.38996 -2.87025 0
M  V30 16787 H 1660.51 -3.45692 -4.3035 0
M  V30 16788 H 1660.99 -1.78583 -4.01254 0
M  V30 16789 H 1661.59 -3.07082 -2.94246 0
M  V30 16790 N 1659.91 0.83715 -1.33527 0
M  V30 16791 C 1660.84 1.96231 -1.26553 0
M  V30 16792 C 1661.82 1.69474 -0.14576 0
M  V30 16793 O 1663 1.91274 -0.335815 0
M  V30 16794 C 1660.13 3.32419 -1.00574 0
M  V30 16795 C 1659.09 3.73577 -2.08864 0
M  V30 16796 C 1658.41 5.07591 -1.68095 0
M  V30 16797 C 1659.71 3.87179 -3.50556 0
M  V30 16798 H 1661.41 2.02324 -2.20693 0
M  V30 16799 H 1658.95 0.972038 -1.06242 0
M  V30 16800 H 1660.91 4.10703 -0.943439 0
M  V30 16801 H 1659.63 3.26587 -0.0287268 0
M  V30 16802 H 1658.29 2.97557 -2.14139 0
M  V30 16803 H 1657.94 4.98232 -0.690922 0
M  V30 16804 H 1657.64 5.361 -2.40563 0
M  V30 16805 H 1659.16 5.88349 -1.63334 0
M  V30 16806 H 1660.57 4.55771 -3.47772 0
M  V30 16807 H 1658.97 4.27127 -4.21524 0
M  V30 16808 H 1660.04 2.8958 -3.88936 0
M  V30 16809 N 1661.38 1.17024 1.05561 0
M  V30 16810 C 1662.62 0.967099 1.80074 0
M  V30 16811 C 1662.99 -0.495724 1.8549 0
M  V30 16812 O 1664.19 -0.817816 2.56057 0
M  V30 16813 C 1662.46 1.5862 3.20273 0
M  V30 16814 S 1664.02 1.52873 4.11309 0
M  V30 16815 H 1660.84 0.347623 0.620225 0
M  V30 16816 H 1663.44 1.48902 1.26682 0
M  V30 16817 H 1662.14 2.64341 3.1393 0
M  V30 16818 H 1661.67 1.06392 3.7874 0
M  V30 16819 H 1663.69 0.534126 4.93317 0
M  V30 16820 N 1662.86 -1.24221 0.969889 0
M  V30 16821 C 1664.27 -1.74206 0.671494 0
M  V30 16822 C 1664.62 -1.78576 -0.81271 0
M  V30 16823 O 1663.75 -1.41664 -1.63586 0
M  V30 16824 C 1664.34 -3.16371 1.21222 0
M  V30 16825 C 1662.9 -3.63855 0.96368 0
M  V30 16826 C 1662.05 -2.42429 1.34623 0
M  V30 16827 H 1665 -1.09893 1.14496 0
M  V30 16828 H 1665.02 -3.7606 0.579552 0
M  V30 16829 H 1664.53 -3.13159 2.29245 0
M  V30 16830 H 1662.64 -3.72463 -0.100931 0
M  V30 16831 H 1662.75 -4.51207 1.61087 0
M  V30 16832 H 1661.11 -2.42952 0.764624 0
M  V30 16833 H 1661.9 -2.41896 2.436 0
M  V30 16834 N 1664.34 -0.740267 -1.39132 0
M  V30 16835 C 1665.27 -0.064087 -2.2911 0
M  V30 16836 C 1666.29 0.697897 -1.47082 0
M  V30 16837 O 1667.47 0.541189 -1.70098 0
M  V30 16838 C 1664.57 0.933426 -3.25792 0
M  V30 16839 C 1663.75 0.231867 -4.36785 0
M  V30 16840 C 1662.81 1.13823 -5.13742 0
M  V30 16841 O 1661.83 0.613741 -5.65881 0
M  V30 16842 N 1663.03 2.46751 -5.25447 0
M  V30 16843 H 1665.8 -0.836774 -2.87781 0
M  V30 16844 H 1663.36 -0.589928 -1.5077 0
M  V30 16845 H 1665.35 1.5425 -3.74151 0
M  V30 16846 H 1663.92 1.60728 -2.68114 0
M  V30 16847 H 1663.14 -0.557747 -3.90234 0
M  V30 16848 H 1664.43 -0.254115 -5.08165 0
M  V30 16849 H 1663.83 2.91834 -4.84613 0
M  V30 16850 H 1662.39 3.02741 -5.77227 0
M  V30 16851 N 1665.82 1.49844 -0.488302 0
M  V30 16852 C 1667.04 2.07313 0.0600937 0
M  V30 16853 C 1667.47 1.3478 1.3121 0
M  V30 16854 O 1666.83 0.400634 1.76818 0
M  V30 16855 C 1666.87 3.59268 0.309658 0
M  V30 16856 O 1665.98 3.88381 1.38688 0
M  V30 16857 H 1665.32 0.663681 -0.0205947 0
M  V30 16858 H 1667.85 1.92818 -0.684284 0
M  V30 16859 H 1667.86 4.04344 0.545 0
M  V30 16860 H 1666.53 4.11474 -0.605146 0
M  V30 16861 H 1665.11 3.55128 1.13749 0
M  V30 16862 N 1667.3 0.221601 1.56034 0
M  V30 16863 C 1668.54 -0.411933 2.00206 0
M  V30 16864 C 1668.9 -1.56945 1.10599 0
M  V30 16865 O 1670.1 -2.269 1.44118 0
M  V30 16866 C 1668.37 -0.835387 3.475 0
M  V30 16867 S 1669.93 -1.46302 4.13692 0
M  V30 16868 H 1666.75 -0.130732 0.698878 0
M  V30 16869 H 1669.35 0.330901 1.92679 0
M  V30 16870 H 1668.06 0.0167339 4.10397 0
M  V30 16871 H 1667.59 -1.61103 3.589 0
M  V30 16872 H 1669.6 -2.75209 4.12885 0
M  V30 16873 N 1668.77 -1.57515 -0.0517878 0
M  V30 16874 C 1669.68 -2.08427 -1.07681 0
M  V30 16875 C 1670.7 -1.01797 -1.41115 0
M  V30 16876 O 1671.88 -1.33394 -1.50891 0
M  V30 16877 C 1668.94 -2.53472 -2.36544 0
M  V30 16878 C 1668 -3.74488 -2.09899 0
M  V30 16879 C 1667.24 -4.17374 -3.32618 0
M  V30 16880 O 1667.46 -3.59962 -4.42475 0
M  V30 16881 O 1666.39 -5.10006 -3.19653 0
M  V30 16882 H 1670.22 -2.96122 -0.674217 0
M  V30 16883 H 1667.8 -1.4699 -0.267274 0
M  V30 16884 H 1669.69 -2.82876 -3.12345 0
M  V30 16885 H 1668.36 -1.68899 -2.76143 0
M  V30 16886 H 1667.27 -3.50137 -1.31739 0
M  V30 16887 H 1668.6 -4.59975 -1.75169 0
M  V30 16888 N 1670.25 0.323614 -1.54242 0
M  V30 16889 C 1671.16 1.42128 -1.86646 0
M  V30 16890 C 1672.18 1.56603 -0.758385 0
M  V30 16891 O 1673.36 1.717 -1.05267 0
M  V30 16892 C 1670.42 2.76842 -2.08709 0
M  V30 16893 C 1669.48 2.71543 -3.3251 0
M  V30 16894 C 1668.71 3.99833 -3.5351 0
M  V30 16895 O 1668.94 4.98095 -2.77952 0
M  V30 16896 O 1667.87 4.03095 -4.46988 0
M  V30 16897 H 1671.7 1.17653 -2.79985 0
M  V30 16898 H 1669.28 0.517632 -1.40146 0
M  V30 16899 H 1671.16 3.56588 -2.24551 0
M  V30 16900 H 1669.84 3.01207 -1.18558 0
M  V30 16901 H 1668.75 1.90348 -3.22053 0
M  V30 16902 H 1670.08 2.52133 -4.22717 0
M  V30 16903 N 1671.73 1.46313 0.585673 0
M  V30 16904 C 1673.15 1.31203 0.908733 0
M  V30 16905 C 1673.35 0.281265 1.99527 0
M  V30 16906 O 1672.4 -0.317202 2.505 0
M  V30 16907 C 1673.72 2.69742 1.3289 0
M  V30 16908 C 1675.26 2.77809 1.44191 0
M  V30 16909 C 1675.74 4.16924 1.89574 0
M  V30 16910 N 1677.23 4.19327 1.96773 0
M  V30 16911 C 1677.97 5.23856 2.33157 0
M  V30 16912 N 1677.46 6.38716 2.68355 0
M  V30 16913 N 1679.25 5.11221 2.33686 0
M  V30 16914 H 1671.41 2.11989 -0.132126 0
M  V30 16915 H 1673.67 0.947993 0.00355835 0
M  V30 16916 H 1673.37 3.46465 0.604557 0
M  V30 16917 H 1673.25 2.99653 2.29102 0
M  V30 16918 H 1675.64 2.01377 2.15712 0
M  V30 16919 H 1675.72 2.51587 0.46237 0
M  V30 16920 H 1675.36 4.93851 1.18633 0
M  V30 16921 H 1675.29 4.40552 2.88481 0
M  V30 16922 H 1677.78 3.36451 1.72073 0
M  V30 16923 H 1678.09 7.14253 2.95063 0
M  V30 16924 H 1676.44 6.42082 2.66 0
M  V30 16925 H 1679.63 4.20527 2.05609 0
M  V30 16926 H 1679.8 5.92798 2.61714 0
M  V30 16927 N 1673.21 -0.830057 1.33969 0
M  V30 16928 C 1674.16 -1.96189 1.2495 0
M  V30 16929 C 1675.15 -1.68743 0.149047 0
M  V30 16930 O 1676.36 -1.77248 0.31357 0
M  V30 16931 H 1672.73 -0.644184 0.387983 0
M  V30 16932 H 1674.7 -2.0092 2.20621 0
M  V30 16933 C 1673.45 -3.32569 1.01456 0
M  V30 16934 H 1672.78 -3.54232 1.85363 0
M  V30 16935 H 1674.22 -4.12237 0.991786 0
M  V30 16936 C 1672.67 -3.35715 -0.282331 0
M  V30 16937 O 1673.2 -3.80556 -1.28609 0
M  V30 16938 N 1671.41 -2.8891 -0.312952 0
M  V30 16939 H 1670.96 -2.52613 0.504446 0
M  V30 16940 H 1670.92 -2.91397 -1.18047 0
M  V30 16941 N 1674.69 -1.17582 -1.04939 0
M  V30 16942 C 1675.62 -0.918221 -2.14688 0
M  V30 16943 C 1676.6 0.140757 -1.69517 0
M  V30 16944 O 1677.78 -0.0100118 -1.94197 0
M  V30 16945 C 1674.91 -0.433531 -3.44584 0
M  V30 16946 C 1673.87 -1.43199 -4.03334 0
M  V30 16947 C 1673.19 -0.805154 -5.28603 0
M  V30 16948 C 1674.49 -2.80598 -4.40525 0
M  V30 16949 H 1676.19 -1.83604 -2.36495 0
M  V30 16950 H 1673.73 -0.884202 -1.13657 0
M  V30 16951 H 1675.69 -0.240722 -4.20712 0
M  V30 16952 H 1674.41 0.519832 -3.22437 0
M  V30 16953 H 1673.07 -1.61158 -3.29277 0
M  V30 16954 H 1672.72 0.155124 -5.02761 0
M  V30 16955 H 1672.42 -1.4717 -5.68871 0
M  V30 16956 H 1673.94 -0.622677 -6.07417 0
M  V30 16957 H 1675.36 -2.66341 -5.07676 0
M  V30 16958 H 1673.75 -3.43854 -4.91817 0
M  V30 16959 H 1674.82 -3.34815 -3.50752 0
M  V30 16960 N 1676.17 1.23705 -0.976463 0
M  V30 16961 C 1677.58 1.44179 -0.684434 0
M  V30 16962 C 1677.78 1.86992 0.75075 0
M  V30 16963 O 1676.84 2.01349 1.52365 0
M  V30 16964 C 1678.15 2.49661 -1.676 0
M  V30 16965 C 1679.7 2.63479 -1.68961 0
M  V30 16966 C 1680.17 3.72167 -2.66938 0
M  V30 16967 N 1681.66 3.79605 -2.65433 0
M  V30 16968 C 1682.4 4.63251 -3.37914 0
M  V30 16969 N 1681.9 5.51018 -4.19941 0
M  V30 16970 N 1683.69 4.57412 -3.26697 0
M  V30 16971 H 1675.84 0.942155 -1.90361 0
M  V30 16972 H 1678.1 0.475629 -0.820049 0
M  V30 16973 H 1677.81 2.25111 -2.70218 0
M  V30 16974 H 1677.68 3.47978 -1.45571 0
M  V30 16975 H 1680.07 2.87382 -0.670497 0
M  V30 16976 H 1680.15 1.65491 -1.95055 0
M  V30 16977 H 1679.79 3.49013 -3.68988 0
M  V30 16978 H 1679.72 4.69688 -2.3812 0
M  V30 16979 H 1682.22 3.16882 -2.05899 0
M  V30 16980 H 1682.53 6.11825 -4.72113 0
M  V30 16981 H 1680.87 5.50655 -4.24033 0
M  V30 16982 H 1684.06 3.87863 -2.62069 0
M  V30 16983 H 1684.24 5.22373 -3.83446 0
M  V30 16984 N 1677.64 0.747635 1.38738 0
M  V30 16985 C 1678.55 0.117879 2.34304 0
M  V30 16986 C 1679.57 -0.707488 1.58967 0
M  V30 16987 O 1680.75 -0.633025 1.91193 0
M  V30 16988 C 1677.81 -0.769223 3.38059 0
M  V30 16989 C 1676.87 0.0698358 4.29243 0
M  V30 16990 C 1676.1 -0.775021 5.28043 0
M  V30 16991 O 1676.33 -2.01328 5.33688 0
M  V30 16992 O 1675.26 -0.196978 6.01578 0
M  V30 16993 H 1679.09 0.906972 2.89841 0
M  V30 16994 H 1676.67 0.508453 1.40482 0
M  V30 16995 H 1678.55 -1.27641 4.01604 0
M  V30 16996 H 1677.23 -1.53691 2.84887 0
M  V30 16997 H 1676.14 0.622836 3.68879 0
M  V30 16998 H 1677.47 0.80004 4.85654 0
M  V30 16999 N 1679.12 -1.49583 0.496242 0
M  V30 17000 C 1680.07 -2.30677 -0.298474 0
M  V30 17001 C 1681.06 -1.39074 -0.967207 0
M  V30 17002 O 1682.27 -1.56147 -0.895439 0
M  V30 17003 H 1678.64 -0.743138 -0.11511 0
M  V30 17004 H 1680.62 -2.95632 0.405533 0
M  V30 17005 C 1679.36 -3.20297 -1.35297 0
M  V30 17006 H 1678.69 -3.90708 -0.847789 0
M  V30 17007 H 1680.13 -3.79987 -1.88111 0
M  V30 17008 C 1678.59 -2.39584 -2.36857 0
M  V30 17009 O 1679.12 -2.09662 -3.42644 0
M  V30 17010 N 1677.32 -2.01695 -2.09206 0
M  V30 17011 H 1676.87 -2.26229 -1.23201 0
M  V30 17012 H 1676.83 -1.47998 -2.77388 0
M  V30 17013 N 1680.6 -0.229873 -1.55915 0
M  V30 17014 C 1681.85 0.398775 -1.98127 0
M  V30 17015 C 1682.17 1.597 -1.11897 0
M  V30 17016 O 1681.44 1.94898 -0.197868 0
M  V30 17017 H 1680.02 0.150323 -0.731719 0
M  V30 17018 H 1682.68 -0.324704 -1.92176 0
M  V30 17019 H 1681.78 0.719475 -3.03694 0
M  V30 17020 N 1682.08 1.5754 0.0434337 0
M  V30 17021 C 1683.31 1.92577 0.748182 0
M  V30 17022 C 1683.72 0.826758 1.7018 0
M  V30 17023 O 1683.06 -0.206713 1.82533 0
M  V30 17024 C 1683.12 3.23309 1.57199 0
M  V30 17025 C 1682.78 4.50213 0.784705 0
M  V30 17026 C 1683.78 5.1982 0.091305 0
M  V30 17027 C 1681.47 4.96767 0.74349 0
M  V30 17028 C 1683.46 6.34251 -0.632768 0
M  V30 17029 C 1681.15 6.11098 0.0156621 0
M  V30 17030 C 1682.15 6.79694 -0.67124 0
M  V30 17031 O 1681.83 7.91839 -1.38728 0
M  V30 17032 H 1681.57 0.64049 0.216213 0
M  V30 17033 H 1684.12 2.05398 0.00937223 0
M  V30 17034 H 1682.35 3.06775 2.35428 0
M  V30 17035 H 1684.04 3.43779 2.15802 0
M  V30 17036 H 1684.8 4.84865 0.11427 0
M  V30 17037 H 1680.68 4.43229 1.26763 0
M  V30 17038 H 1684.23 6.87728 -1.16947 0
M  V30 17039 H 1680.12 6.45499 -0.00927628 0
M  V30 17040 H 1680.89 8.08119 -1.29947 0
M  V30 17041 N 1683.56 -0.31543 1.54411 0
M  V30 17042 C 1684.47 -1.41136 1.87397 0
M  V30 17043 C 1685.48 -1.56199 0.76668 0
M  V30 17044 O 1686.66 -1.71139 1.06176 0
M  V30 17045 C 1683.72 -2.75731 2.10174 0
M  V30 17046 C 1682.78 -2.69776 3.33945 0
M  V30 17047 C 1682.02 -3.97952 3.55626 0
M  V30 17048 O 1682.24 -4.96614 2.80589 0
M  V30 17049 O 1681.17 -4.00719 4.49119 0
M  V30 17050 H 1685 -1.16167 2.80605 0
M  V30 17051 H 1682.58 -0.510193 1.40419 0
M  V30 17052 H 1684.47 -3.55392 2.26439 0
M  V30 17053 H 1683.14 -3.00574 1.20154 0
M  V30 17054 H 1682.05 -1.88638 3.23058 0
M  V30 17055 H 1683.38 -2.49887 4.24049 0
M  V30 17056 N 1685.03 -1.46622 -0.577906 0
M  V30 17057 C 1686.27 -1.53743 -1.34694 0
M  V30 17058 C 1686.64 -0.186609 -1.91091 0
M  V30 17059 O 1687.84 -0.132588 -2.68473 0
M  V30 17060 C 1686.11 -2.60908 -2.44258 0
M  V30 17061 S 1687.67 -2.87468 -3.31523 0
M  V30 17062 H 1684.49 -0.543138 -0.458827 0
M  V30 17063 H 1687.09 -1.83884 -0.663842 0
M  V30 17064 H 1685.79 -3.57682 -2.01225 0
M  V30 17065 H 1685.32 -2.32515 -3.17333 0
M  V30 17066 H 1687.34 -2.23104 -4.43214 0
M  V30 17067 N 1686.51 0.822941 -1.34408 0
M  V30 17068 C 1687.42 1.96567 -1.28056 0
M  V30 17069 C 1688.44 1.72979 -0.188251 0
M  V30 17070 O 1689.61 1.97084 -0.41472 0
M  V30 17071 C 1686.68 3.30865 -1.03583 0
M  V30 17072 C 1685.74 3.67461 -2.2197 0
M  V30 17073 C 1684.97 4.9535 -1.98655 0
M  V30 17074 O 1685.2 5.62521 -0.944785 0
M  V30 17075 O 1684.13 5.29824 -2.85605 0
M  V30 17076 H 1687.96 2.0487 -2.24192 0
M  V30 17077 H 1685.54 0.958334 -1.14614 0
M  V30 17078 H 1687.42 4.11298 -0.917162 0
M  V30 17079 H 1686.1 3.2353 -0.104868 0
M  V30 17080 H 1685.01 2.87472 -2.39396 0
M  V30 17081 H 1686.34 3.79481 -3.13456 0
M  V30 17082 N 1687.99 1.18137 1.04314 0
M  V30 17083 C 1689.24 0.98666 1.77867 0
M  V30 17084 C 1689.59 -0.478878 1.86345 0
M  V30 17085 O 1688.88 -1.35094 1.35868 0
M  V30 17086 C 1689.08 1.57211 3.20966 0
M  V30 17087 C 1688.91 3.09305 3.26436 0
M  V30 17088 C 1687.68 3.78104 3.3521 0
M  V30 17089 C 1689.88 4.06817 3.1465 0
M  V30 17090 N 1687.86 5.17723 3.29903 0
M  V30 17091 C 1689.23 5.32943 3.16815 0
M  V30 17092 C 1691.28 3.98369 2.98675 0
M  V30 17093 C 1689.99 6.51601 3.04645 0
M  V30 17094 C 1692.01 5.1662 2.8785 0
M  V30 17095 C 1691.37 6.41638 2.90655 0
M  V30 17096 H 1687.47 0.415029 0.662778 0
M  V30 17097 H 1690.06 1.49871 1.24284 0
M  V30 17098 H 1688.23 1.08627 3.729 0
M  V30 17099 H 1689.96 1.31316 3.82803 0
M  V30 17100 H 1686.72 3.28825 3.40839 0
M  V30 17101 H 1687.14 5.90736 3.30695 0
M  V30 17102 H 1691.78 3.02549 2.95337 0
M  V30 17103 H 1689.5 7.47622 3.06735 0
M  V30 17104 H 1693.09 5.11872 2.76546 0
M  V30 17105 H 1691.97 7.31602 2.82363 0
M  V30 17106 N 1689.47 -1.23186 0.98301 0
M  V30 17107 C 1690.88 -1.43814 0.69207 0
M  V30 17108 C 1691.08 -1.87387 -0.740823 0
M  V30 17109 O 1690.14 -2.02154 -1.51295 0
M  V30 17110 C 1691.45 -2.48769 1.68922 0
M  V30 17111 C 1693 -2.62579 1.70356 0
M  V30 17112 C 1693.48 -3.70746 2.68908 0
M  V30 17113 N 1694.97 -3.78192 2.67442 0
M  V30 17114 C 1695.7 -4.61453 3.40366 0
M  V30 17115 N 1695.2 -5.48784 4.22857 0
M  V30 17116 N 1696.99 -4.55673 3.29118 0
M  V30 17117 H 1689.14 -0.932046 1.90858 0
M  V30 17118 H 1691.41 -0.471274 0.82256 0
M  V30 17119 H 1691.11 -2.23675 2.71408 0
M  V30 17120 H 1690.99 -3.47201 1.47415 0
M  V30 17121 H 1693.37 -2.87022 0.685728 0
M  V30 17122 H 1693.45 -1.64454 1.9593 0
M  V30 17123 H 1693.1 -3.47051 3.70834 0
M  V30 17124 H 1693.03 -4.68418 2.40607 0
M  V30 17125 H 1695.52 -3.15785 2.07577 0
M  V30 17126 H 1695.83 -6.09312 4.75351 0
M  V30 17127 H 1694.18 -5.48398 4.26948 0
M  V30 17128 H 1697.37 -3.86468 2.64122 0
M  V30 17129 H 1697.54 -5.20332 3.8621 0
M  V30 17130 N 1690.95 -0.754982 -1.38339 0
M  V30 17131 C 1692.18 -0.322156 -2.04073 0
M  V30 17132 C 1692.58 1.05488 -1.57063 0
M  V30 17133 O 1691.93 1.68154 -0.739597 0
M  V30 17134 C 1691.99 -0.267836 -3.58501 0
M  V30 17135 C 1691.65 -1.58665 -4.28572 0
M  V30 17136 C 1692.65 -2.53609 -4.53849 0
M  V30 17137 C 1690.34 -1.85647 -4.66734 0
M  V30 17138 C 1692.33 -3.73753 -5.16321 0
M  V30 17139 C 1690.02 -3.06065 -5.28931 0
M  V30 17140 C 1691.01 -3.99938 -5.53659 0
M  V30 17141 O 1690.7 -5.18238 -6.14561 0
M  V30 17142 H 1690.43 -0.135341 -0.662313 0
M  V30 17143 H 1692.99 -1.02517 -1.77987 0
M  V30 17144 H 1691.22 0.491434 -3.83565 0
M  V30 17145 H 1692.91 0.135662 -4.05673 0
M  V30 17146 H 1693.67 -2.3404 -4.24794 0
M  V30 17147 H 1689.55 -1.13415 -4.46831 0
M  V30 17148 H 1693.1 -4.47039 -5.35539 0
M  V30 17149 H 1688.99 -3.25526 -5.57408 0
M  V30 17150 H 1689.76 -5.18838 -6.33047 0
M  V30 17151 N 1692.42 1.49318 -0.504168 0
M  V30 17152 C 1693.37 2.30832 0.286237 0
M  V30 17153 C 1694.37 1.39585 0.959818 0
M  V30 17154 O 1695.57 1.5662 0.887146 0
M  V30 17155 H 1691.95 0.743738 0.111167 0
M  V30 17156 H 1693.92 2.95412 -0.421206 0
M  V30 17157 C 1692.67 3.2101 1.33596 0
M  V30 17158 H 1691.99 3.91152 0.827057 0
M  V30 17159 H 1693.43 3.8098 1.86093 0
M  V30 17160 C 1691.89 2.40836 2.35583 0
M  V30 17161 O 1692.42 2.11476 3.41527 0
M  V30 17162 N 1690.63 2.02802 2.08134 0
M  V30 17163 H 1690.17 2.26879 1.21999 0
M  V30 17164 H 1690.13 1.49467 2.76599 0
M  V30 17165 N 1693.9 0.238138 1.5579 0
M  V30 17166 C 1695.13 -0.396409 2.03576 0
M  V30 17167 C 1695.55 -1.5138 1.11649 0
M  V30 17168 O 1694.91 -1.80979 0.107774 0
M  V30 17169 C 1694.96 -0.889749 3.49451 0
M  V30 17170 O 1694.06 -1.99997 3.60659 0
M  V30 17171 H 1693.4 -0.0876017 0.658196 0
M  V30 17172 H 1695.93 0.361632 2.01379 0
M  V30 17173 H 1695.94 -1.19526 3.901 0
M  V30 17174 H 1694.62 -0.0720136 4.15838 0
M  V30 17175 H 1693.2 -1.69983 3.31904 0
M  V30 17176 N 1695.38 -1.57561 -0.0350783 0
M  V30 17177 C 1696.62 -1.90843 -0.732009 0
M  V30 17178 C 1696.98 -0.836062 -1.72841 0
M  V30 17179 O 1698.19 -1.05303 -2.47315 0
M  V30 17180 C 1696.46 -3.2929 -1.38934 0
M  V30 17181 S 1698.02 -3.84395 -2.11626 0
M  V30 17182 H 1694.83 -0.668317 -0.242638 0
M  V30 17183 H 1697.44 -1.95496 0.0131773 0
M  V30 17184 H 1696.14 -4.05206 -0.650842 0
M  V30 17185 H 1695.67 -3.27926 -2.1732 0
M  V30 17186 H 1697.69 -3.62638 -3.38686 0
M  V30 17187 N 1696.86 0.307236 -1.54576 0
M  V30 17188 C 1697.82 1.36178 -1.84359 0
M  V30 17189 C 1698.82 1.43971 -0.716163 0
M  V30 17190 O 1700.01 1.43715 -0.98446 0
M  V30 17191 C 1697.14 2.74733 -2.01828 0
M  V30 17192 H 1698.34 1.11017 -2.78595 0
M  V30 17193 H 1695.89 0.543582 -1.46543 0
M  V30 17194 H 1696.62 3.05126 -1.09858 0
M  V30 17195 H 1696.41 2.70468 -2.83883 0
M  V30 17196 H 1697.9 3.50992 -2.26261 0
M  V30 17197 N 1698.34 1.46926 0.570122 0
M  V30 17198 C 1699.75 1.469 1.15227 0
M  V30 17199 C 1700.1 0.216651 1.95 0
M  V30 17200 O 1699.22 -0.679388 2.05459 0
M  V30 17201 C 1699.82 2.66158 2.09632 0
M  V30 17202 C 1698.38 2.69133 2.63144 0
M  V30 17203 C 1697.52 2.39795 1.39262 0
M  V30 17204 H 1700.48 1.54623 0.35739 0
M  V30 17205 H 1700.5 2.42393 2.93302 0
M  V30 17206 H 1700.01 3.5729 1.51543 0
M  V30 17207 H 1698.11 1.82106 3.25066 0
M  V30 17208 H 1698.22 3.69459 3.05019 0
M  V30 17209 H 1696.59 1.9011 1.695 0
M  V30 17210 H 1697.37 3.33119 0.829855 0
M  V30 17211 N 1699.82 -0.815801 1.34842 0
M  V30 17212 C 1700.78 -1.90871 1.2689 0
M  V30 17213 C 1701.78 -1.59762 0.182445 0
M  V30 17214 O 1702.97 -1.68667 0.435543 0
M  V30 17215 C 1700.1 -3.27081 0.960774 0
M  V30 17216 H 1701.29 -1.99343 2.24059 0
M  V30 17217 H 1698.85 -1.0106 1.19233 0
M  V30 17218 H 1699.58 -3.24299 -0.00744059 0
M  V30 17219 H 1699.37 -3.51045 1.74671 0
M  V30 17220 H 1700.86 -4.07101 0.930494 0
M  V30 17221 N 1701.29 -1.18689 -1.03686 0
M  V30 17222 C 1702.53 -0.995625 -1.78512 0
M  V30 17223 C 1702.9 0.466151 -1.86255 0
M  V30 17224 O 1704.1 0.776976 -2.57326 0
M  V30 17225 C 1702.37 -1.63695 -3.17709 0
M  V30 17226 S 1703.93 -1.59397 -4.08825 0
M  V30 17227 H 1700.75 -0.357446 -0.614616 0
M  V30 17228 H 1703.35 -1.50899 -1.24297 0
M  V30 17229 H 1702.05 -2.69301 -3.09685 0
M  V30 17230 H 1701.58 -1.12404 -3.77 0
M  V30 17231 H 1703.6 -0.61254 -4.92405 0
M  V30 17232 N 1702.77 1.22662 -0.989529 0
M  V30 17233 C 1703.7 2.23784 -0.495301 0
M  V30 17234 C 1704.72 1.5761 0.40779 0
M  V30 17235 O 1705.91 1.77255 0.210464 0
M  V30 17236 C 1703.01 3.37553 0.301836 0
M  V30 17237 C 1702.18 4.33312 -0.596578 0
M  V30 17238 C 1701.24 5.25991 0.148272 0
M  V30 17239 O 1700.26 5.67296 -0.46519 0
M  V30 17240 N 1701.47 5.62571 1.43158 0
M  V30 17241 H 1704.23 2.66819 -1.36483 0
M  V30 17242 H 1701.79 1.36928 -0.863853 0
M  V30 17243 H 1703.78 3.96538 0.808701 0
M  V30 17244 H 1702.35 2.93628 1.07243 0
M  V30 17245 H 1701.57 3.72697 -1.28416 0
M  V30 17246 H 1702.86 4.94239 -1.20853 0
M  V30 17247 H 1702.26 5.30979 1.95136 0
M  V30 17248 H 1700.82 6.23987 1.8837 0
M  V30 17249 N 1704.25 0.762308 1.37937 0
M  V30 17250 C 1705.5 0.322846 2.00214 0
M  V30 17251 C 1705.83 -1.09513 1.60376 0
M  V30 17252 O 1705.1 -1.75165 0.845432 0
M  V30 17253 C 1705.39 0.455651 3.57206 0
M  V30 17254 C 1705.24 1.91537 4.06981 0
M  V30 17255 C 1706.56 -0.145758 4.39859 0
M  V30 17256 H 1703.68 0.118781 0.727365 0
M  V30 17257 H 1706.32 0.963585 1.63753 0
M  V30 17258 H 1704.47 -0.0898341 3.88396 0
M  V30 17259 H 1706.14 2.51983 3.86397 0
M  V30 17260 H 1704.38 2.42744 3.59524 0
M  V30 17261 H 1705.06 1.9594 5.16054 0
M  V30 17262 H 1707.53 0.31956 4.14871 0
M  V30 17263 H 1706.41 -0.0226441 5.48895 0
M  V30 17264 H 1706.67 -1.23504 4.24499 0
M  V30 17265 N 1705.73 -1.49049 0.51208 0
M  V30 17266 C 1706.96 -2.06885 -0.0249703 0
M  V30 17267 C 1707.37 -1.371 -1.29804 0
M  V30 17268 O 1706.73 -0.452798 -1.76794 0
M  V30 17269 C 1706.78 -3.60482 -0.27112 0
M  V30 17270 O 1706.5 -4.27643 0.951493 0
M  V30 17271 C 1708 -4.35063 -0.850568 0
M  V30 17272 H 1705.22 -0.670517 0.0254456 0
M  V30 17273 H 1707.76 -1.91682 0.712607 0
M  V30 17274 H 1705.92 -3.7535 -0.958702 0
M  V30 17275 H 1706.33 -5.19519 0.721156 0
M  V30 17276 H 1707.81 -5.43369 -0.972322 0
M  V30 17277 H 1708.28 -3.98285 -1.85111 0
M  V30 17278 H 1708.89 -4.24829 -0.200111 0
M  V30 17279 N 1707.21 -0.246397 -1.55662 0
M  V30 17280 C 1708.45 0.38003 -2.00836 0
M  V30 17281 C 1708.81 1.55166 -1.13082 0
M  V30 17282 O 1710.01 2.24578 -1.4771 0
M  V30 17283 C 1708.28 0.779997 -3.48785 0
M  V30 17284 S 1709.84 1.39702 -4.15967 0
M  V30 17285 H 1706.66 0.119597 -0.700869 0
M  V30 17286 H 1709.26 -0.361512 -1.92128 0
M  V30 17287 H 1707.96 -0.0820223 -4.10318 0
M  V30 17288 H 1707.5 1.55373 -3.61418 0
M  V30 17289 H 1709.51 2.68606 -4.17211 0
M  V30 17290 N 1708.68 1.57577 0.026722 0
M  V30 17291 C 1709.62 2.03515 1.05424 0
M  V30 17292 C 1710.63 0.948362 1.32325 0
M  V30 17293 O 1711.82 1.22563 1.29771 0
M  V30 17294 C 1708.92 2.39744 2.39533 0
M  V30 17295 C 1708.09 3.70832 2.31954 0
M  V30 17296 C 1707.15 3.94224 3.48531 0
M  V30 17297 O 1706.18 4.6525 3.27919 0
M  V30 17298 N 1707.38 3.40044 4.70479 0
M  V30 17299 H 1710.14 2.92282 0.662678 0
M  V30 17300 H 1707.7 1.60471 0.214623 0
M  V30 17301 H 1709.7 2.52529 3.16245 0
M  V30 17302 H 1708.27 1.56636 2.70525 0
M  V30 17303 H 1707.49 3.68378 1.40325 0
M  V30 17304 H 1708.77 4.56821 2.24035 0
M  V30 17305 H 1708.17 2.82478 4.90125 0
M  V30 17306 H 1706.73 3.58205 5.44548 0
M  V30 17307 N 1710.16 -0.299034 1.54737 0
M  V30 17308 C 1711.11 -1.37055 1.82208 0
M  V30 17309 C 1712.1 -1.45855 0.679357 0
M  V30 17310 O 1713.29 -1.49974 0.940044 0
M  V30 17311 C 1710.42 -2.73525 2.07459 0
M  V30 17312 C 1709.5 -2.6894 3.27921 0
M  V30 17313 N 1709.89 -2.33972 4.48432 0
M  V30 17314 C 1708.19 -3.0004 3.29988 0
M  V30 17315 C 1708.89 -2.38734 5.30454 0
M  V30 17316 N 1707.87 -2.76167 4.68223 0
M  V30 17317 H 1711.67 -1.08986 2.72945 0
M  V30 17318 H 1709.18 -0.507618 1.54263 0
M  V30 17319 H 1711.18 -3.50787 2.25287 0
M  V30 17320 H 1709.84 -3.02503 1.1799 0
M  V30 17321 H 1710.85 -2.06392 4.74998 0
M  V30 17322 H 1707.53 -3.33901 2.50632 0
M  V30 17323 H 1708.92 -2.1448 6.36748 0
M  V30 17324 N 1711.64 -1.47227 -0.562322 0
M  V30 17325 C 1713.05 -1.47509 -1.14446 0
M  V30 17326 C 1713.4 -0.22699 -1.94883 0
M  V30 17327 O 1712.53 0.668483 -2.05816 0
M  V30 17328 C 1713.12 -2.67266 -2.08217 0
M  V30 17329 C 1711.68 -2.70524 -2.61713 0
M  V30 17330 C 1710.83 -2.4053 -1.37988 0
M  V30 17331 H 1713.78 -1.54811 -0.349185 0
M  V30 17332 H 1713.8 -2.43945 -2.92012 0
M  V30 17333 H 1713.31 -3.58089 -1.49646 0
M  V30 17334 H 1711.41 -1.83827 -3.24096 0
M  V30 17335 H 1711.53 -3.71072 -3.03056 0
M  V30 17336 H 1709.89 -1.91007 -1.68489 0
M  V30 17337 H 1710.67 -3.33554 -0.812177 0
M  V30 17338 N 1713.12 0.808639 -1.35273 0
M  V30 17339 C 1714.03 1.95198 -1.30134 0
M  V30 17340 C 1715.04 1.72769 -0.206587 0
M  V30 17341 O 1716.22 1.96633 -0.4356 0
M  V30 17342 C 1713.28 3.29747 -1.07087 0
M  V30 17343 C 1712.35 3.65086 -2.25855 0
M  V30 17344 C 1711.58 4.93215 -2.03898 0
M  V30 17345 O 1711.8 5.61487 -1.00439 0
M  V30 17346 O 1710.74 5.26765 -2.91208 0
M  V30 17347 H 1714.56 2.0248 -2.26353 0
M  V30 17348 H 1712.15 0.946124 -1.15624 0
M  V30 17349 H 1714.03 4.10302 -0.960734 0
M  V30 17350 H 1712.7 3.23401 -0.139177 0
M  V30 17351 H 1711.61 2.84917 -2.42432 0
M  V30 17352 H 1712.94 3.76135 -3.17464 0
M  V30 17353 N 1714.6 1.19237 1.03055 0
M  V30 17354 C 1716.01 0.996569 1.57878 0
M  V30 17355 C 1716.36 -0.450987 1.90946 0
M  V30 17356 O 1715.48 -1.33009 1.70697 0
M  V30 17357 C 1716.08 1.80272 2.86858 0
M  V30 17358 C 1714.64 1.65097 3.3826 0
M  V30 17359 C 1713.78 1.79079 2.11721 0
M  V30 17360 H 1716.74 1.33633 0.856037 0
M  V30 17361 H 1716.76 1.29781 3.57683 0
M  V30 17362 H 1716.27 2.85621 2.62759 0
M  V30 17363 H 1714.37 0.623267 3.6735 0
M  V30 17364 H 1714.48 2.45527 4.11404 0
M  V30 17365 H 1712.85 1.22124 2.23512 0
M  V30 17366 H 1713.63 2.85885 1.90065 0
M  V30 17367 N 1716.07 -1.22136 0.99602 0
M  V30 17368 C 1717 -2.26463 0.568909 0
M  V30 17369 C 1717.99 -1.65189 -0.405783 0
M  V30 17370 O 1719.17 -1.91935 -0.295735 0
M  V30 17371 C 1716.3 -3.47112 -0.114166 0
M  V30 17372 C 1715.25 -4.20844 0.779387 0
M  V30 17373 C 1714.58 -5.34687 -0.0367787 0
M  V30 17374 C 1715.88 -4.79195 2.07773 0
M  V30 17375 H 1717.57 -2.62443 1.44097 0
M  V30 17376 H 1715.12 -1.26156 0.694314 0
M  V30 17377 H 1717.07 -4.19258 -0.424381 0
M  V30 17378 H 1715.8 -3.10238 -1.02079 0
M  V30 17379 H 1714.46 -3.50537 1.07329 0
M  V30 17380 H 1714.1 -4.94054 -0.94442 0
M  V30 17381 H 1713.8 -5.84944 0.558092 0
M  V30 17382 H 1715.33 -6.09647 -0.341016 0
M  V30 17383 H 1716.74 -5.43266 1.83126 0
M  V30 17384 H 1715.14 -5.39803 2.62169 0
M  V30 17385 H 1716.21 -3.99073 2.75442 0
M  V30 17386 N 1717.55 -0.769612 -1.37531 0
M  V30 17387 C 1718.52 -0.160716 -2.28636 0
M  V30 17388 C 1719.52 0.630362 -1.47929 0
M  V30 17389 O 1720.71 0.454265 -1.68173 0
M  V30 17390 C 1717.84 0.779904 -3.31859 0
M  V30 17391 H 1719.03 -0.963794 -2.83991 0
M  V30 17392 H 1716.58 -0.537678 -1.46761 0
M  V30 17393 H 1717.32 1.60807 -2.81623 0
M  V30 17394 H 1717.1 0.21485 -3.91511 0
M  V30 17395 H 1718.59 1.20143 -3.99944 0
M  V30 17396 N 1719.03 1.48775 -0.519977 0
M  V30 17397 C 1720.27 2.04394 0.0158731 0
M  V30 17398 C 1720.63 1.38935 1.32518 0
M  V30 17399 O 1721.84 1.85383 1.94645 0
M  V30 17400 C 1720.11 3.57103 0.145657 0
M  V30 17401 S 1721.67 4.3421 0.633016 0
M  V30 17402 H 1718.48 0.710963 -0.0072764 0
M  V30 17403 H 1721.09 1.82605 -0.698264 0
M  V30 17404 H 1719.79 4.02282 -0.812259 0
M  V30 17405 H 1719.32 3.83328 0.884471 0
M  V30 17406 H 1721.34 4.58416 1.89918 0
M  V30 17407 N 1720.51 0.254649 1.55529 0
M  V30 17408 C 1721.92 -0.247042 1.85058 0
M  V30 17409 C 1722.27 -1.57009 1.17655 0
M  V30 17410 O 1721.4 -2.11506 0.457638 0
M  V30 17411 C 1721.99 -0.455017 3.35731 0
M  V30 17412 C 1720.55 -0.900961 3.65458 0
M  V30 17413 C 1719.7 0.0174436 2.77295 0
M  V30 17414 H 1722.65 0.477005 1.51362 0
M  V30 17415 H 1722.67 -1.29654 3.57729 0
M  V30 17416 H 1722.18 0.508076 3.8476 0
M  V30 17417 H 1720.28 -1.87625 3.21913 0
M  V30 17418 H 1720.39 -0.752458 4.73154 0
M  V30 17419 H 1718.76 -0.495296 2.49838 0
M  V30 17420 H 1719.54 0.976049 3.29132 0
M  V30 17421 N 1721.99 -1.57589 -0.0183649 0
M  V30 17422 C 1723.23 -1.90038 -0.708056 0
M  V30 17423 C 1723.57 -0.853686 -1.7443 0
M  V30 17424 O 1722.84 0.12994 -1.94065 0
M  V30 17425 C 1723.12 -3.33107 -1.3679 0
M  V30 17426 C 1722.98 -4.48479 -0.344448 0
M  V30 17427 C 1724.3 -3.75276 -2.29904 0
M  V30 17428 H 1721.41 -0.691134 -0.255934 0
M  V30 17429 H 1724.06 -1.89978 0.0291579 0
M  V30 17430 H 1722.21 -3.33289 -1.99626 0
M  V30 17431 H 1723.88 -4.60432 0.282816 0
M  V30 17432 H 1722.12 -4.32503 0.335196 0
M  V30 17433 H 1722.79 -5.45497 -0.844832 0
M  V30 17434 H 1725.27 -3.76529 -1.77103 0
M  V30 17435 H 1724.14 -4.76168 -2.73049 0
M  V30 17436 H 1724.41 -3.08124 -3.17036 0
M  V30 17437 N 1723.46 0.290824 -1.54893 0
M  V30 17438 C 1724.4 1.38087 -1.82933 0
M  V30 17439 C 1725.41 1.46365 -0.712811 0
M  V30 17440 O 1726.6 1.48501 -0.990432 0
M  V30 17441 C 1723.7 2.76374 -1.9614 0
M  V30 17442 C 1722.87 2.90905 -3.26639 0
M  V30 17443 C 1721.93 4.09754 -3.30134 0
M  V30 17444 O 1720.96 4.01356 -4.03611 0
M  V30 17445 N 1722.16 5.20878 -2.56254 0
M  V30 17446 H 1724.92 1.14385 -2.77013 0
M  V30 17447 H 1722.48 0.480916 -1.54592 0
M  V30 17448 H 1724.48 3.54144 -1.95868 0
M  V30 17449 H 1723.05 2.92978 -1.09008 0
M  V30 17450 H 1722.27 2.00164 -3.396 0
M  V30 17451 H 1723.55 2.97531 -4.12738 0
M  V30 17452 H 1722.95 5.30584 -1.96207 0
M  V30 17453 H 1721.51 5.96945 -2.61725 0
M  V30 17454 N 1724.94 1.47523 0.554506 0
M  V30 17455 C 1726.18 1.55867 1.32231 0
M  V30 17456 C 1726.55 0.216987 1.9077 0
M  V30 17457 O 1727.75 0.175283 2.68228 0
M  V30 17458 C 1726.02 2.64761 2.40076 0
M  V30 17459 S 1727.58 2.92706 3.26908 0
M  V30 17460 H 1724.4 0.550369 0.450128 0
M  V30 17461 H 1727 1.84917 0.634504 0
M  V30 17462 H 1725.7 3.60838 1.95509 0
M  V30 17463 H 1725.23 2.37534 3.13594 0
M  V30 17464 H 1727.25 2.30127 4.39609 0
M  V30 17465 N 1726.42 -0.801453 1.357 0
M  V30 17466 C 1727.67 -1.5611 1.29451 0
M  V30 17467 C 1728 -1.93768 -0.129412 0
M  V30 17468 O 1727.27 -1.6176 -1.08 0
M  V30 17469 C 1727.56 -2.84628 2.20588 0
M  V30 17470 C 1727.41 -2.53413 3.71621 0
M  V30 17471 C 1728.73 -3.86369 2.10729 0
M  V30 17472 H 1725.85 -0.56638 0.471575 0
M  V30 17473 H 1728.49 -0.921701 1.66147 0
M  V30 17474 H 1726.64 -3.39192 1.89424 0
M  V30 17475 H 1728.31 -2.04993 4.1325 0
M  V30 17476 H 1726.56 -1.86531 3.91649 0
M  V30 17477 H 1727.23 -3.45152 4.30783 0
M  V30 17478 H 1729.7 -3.41219 2.38136 0
M  V30 17479 H 1728.58 -4.74062 2.76688 0
M  V30 17480 H 1728.84 -4.28431 1.09083 0
M  V30 17481 N 1727.9 -1.19782 -1.02421 0
M  V30 17482 C 1728.81 -0.955253 -2.14271 0
M  V30 17483 C 1729.82 0.0863233 -1.73786 0
M  V30 17484 O 1731 -0.0993878 -2.01155 0
M  V30 17485 C 1728.07 -0.502219 -3.43043 0
M  V30 17486 C 1727.13 -1.61374 -3.97815 0
M  V30 17487 C 1726.36 -1.18223 -5.20441 0
M  V30 17488 O 1726.58 -0.0477334 -5.7038 0
M  V30 17489 O 1725.52 -1.98664 -5.68169 0
M  V30 17490 H 1729.34 -1.89157 -2.37599 0
M  V30 17491 H 1726.93 -0.981035 -1.12677 0
M  V30 17492 H 1728.81 -0.258445 -4.20607 0
M  V30 17493 H 1727.48 0.4056 -3.21149 0
M  V30 17494 H 1726.39 -1.91172 -3.21565 0
M  V30 17495 H 1727.72 -2.49829 -4.24083 0
M  V30 17496 N 1729.38 1.21606 -1.00248 0
M  V30 17497 C 1730.63 1.90231 -0.682401 0
M  V30 17498 C 1730.95 1.78324 0.78903 0
M  V30 17499 O 1730.22 1.17653 1.56635 0
M  V30 17500 H 1728.8 0.704132 -0.249414 0
M  V30 17501 H 1731.46 1.47751 -1.27105 0
M  V30 17502 H 1730.55 2.97183 -0.953351 0
M  V30 17503 N 1730.86 0.776895 1.37121 0
M  V30 17504 C 1732.1 0.348792 2.01402 0
M  V30 17505 C 1732.46 -1.05625 1.60335 0
M  V30 17506 O 1733.66 -1.58475 2.17116 0
M  V30 17507 C 1731.93 0.493351 3.53979 0
M  V30 17508 S 1733.49 0.151273 4.38539 0
M  V30 17509 H 1730.31 0.133916 0.698275 0
M  V30 17510 H 1732.91 1.01264 1.6723 0
M  V30 17511 H 1731.61 1.51647 3.81355 0
M  V30 17512 H 1731.15 -0.186869 3.92956 0
M  V30 17513 H 1733.16 -1.05145 4.84932 0
M  V30 17514 N 1732.33 -1.48497 0.527859 0
M  V30 17515 C 1733.28 -2.2656 -0.255874 0
M  V30 17516 C 1734.27 -1.32572 -0.911777 0
M  V30 17517 O 1735.46 -1.57124 -0.814934 0
M  V30 17518 C 1732.59 -3.17591 -1.30348 0
M  V30 17519 C 1731.67 -4.19051 -0.652474 0
M  V30 17520 N 1732.07 -5.05128 0.260561 0
M  V30 17521 C 1730.36 -4.36619 -0.909929 0
M  V30 17522 C 1731.06 -5.78214 0.635906 0
M  V30 17523 N 1730.04 -5.436 -0.00251422 0
M  V30 17524 H 1733.84 -2.90487 0.446571 0
M  V30 17525 H 1731.36 -1.58677 0.345742 0
M  V30 17526 H 1733.35 -3.72173 -1.87865 0
M  V30 17527 H 1732.01 -2.55219 -2.00733 0
M  V30 17528 H 1733.02 -5.14017 0.633035 0
M  V30 17529 H 1729.7 -3.85437 -1.6045 0
M  V30 17530 H 1731.09 -6.57482 1.38446 0
M  V30 17531 N 1733.81 -0.262893 -1.55392 0
M  V30 17532 C 1734.77 0.616662 -2.20749 0
M  V30 17533 C 1735.77 1.09066 -1.18158 0
M  V30 17534 O 1736.96 0.992797 -1.4314 0
M  V30 17535 C 1734.1 1.84937 -2.86376 0
M  V30 17536 H 1735.29 0.0462013 -2.99864 0
M  V30 17537 H 1732.84 -0.013432 -1.56294 0
M  V30 17538 H 1733.58 2.46066 -2.1124 0
M  V30 17539 H 1733.36 1.51754 -3.61543 0
M  V30 17540 H 1734.85 2.47511 -3.36345 0
M  V30 17541 N 1735.29 1.57597 0.0100073 0
M  V30 17542 C 1736.24 2.04265 1.01292 0
M  V30 17543 C 1737.22 0.93547 1.30911 0
M  V30 17544 O 1738.42 1.19929 1.30177 0
M  V30 17545 C 1735.54 2.54129 2.3081 0
M  V30 17546 C 1734.63 3.71704 2.04198 0
M  V30 17547 N 1735.02 4.83752 1.47709 0
M  V30 17548 C 1733.32 3.79443 2.34391 0
M  V30 17549 C 1734.02 5.65255 1.37339 0
M  V30 17550 N 1733 5.1095 1.85556 0
M  V30 17551 H 1736.8 2.8831 0.570489 0
M  V30 17552 H 1734.31 1.60958 0.215919 0
M  V30 17553 H 1736.31 2.85832 3.03489 0
M  V30 17554 H 1734.97 1.71497 2.75715 0
M  V30 17555 H 1735.98 5.04805 1.15723 0
M  V30 17556 H 1732.66 3.07648 2.82239 0
M  V30 17557 H 1734.05 6.65293 0.939918 0
M  V30 17558 N 1736.77 -0.282606 1.55045 0
M  V30 17559 C 1738.01 -1.02323 1.76945 0
M  V30 17560 C 1738.37 -1.83845 0.553631 0
M  V30 17561 O 1739.57 -2.60805 0.650695 0
M  V30 17562 C 1737.84 -1.89026 3.03322 0
M  V30 17563 S 1739.4 -2.69484 3.463 0
M  V30 17564 H 1736.22 -0.344792 0.621804 0
M  V30 17565 H 1738.82 -0.294652 1.93267 0
M  V30 17566 H 1737.53 -1.28043 3.89914 0
M  V30 17567 H 1737.06 -2.6622 2.89638 0
M  V30 17568 H 1739.07 -3.91537 3.04817 0
M  V30 17569 N 1738.25 -1.47815 -0.546675 0
M  V30 17570 C 1739.66 -1.48715 -1.12875 0
M  V30 17571 C 1740.01 -0.247647 -1.94631 0
M  V30 17572 O 1739.13 0.646615 -2.06514 0
M  V30 17573 C 1739.73 -2.69459 -2.05371 0
M  V30 17574 C 1738.29 -2.73285 -2.58829 0
M  V30 17575 C 1737.43 -2.4198 -1.35429 0
M  V30 17576 H 1740.38 -1.55172 -0.332746 0
M  V30 17577 H 1740.41 -2.47028 -2.89408 0
M  V30 17578 H 1739.92 -3.59656 -1.4584 0
M  V30 17579 H 1738.02 -1.87254 -3.22128 0
M  V30 17580 H 1738.13 -3.74265 -2.99103 0
M  V30 17581 H 1736.5 -1.92783 -1.66454 0
M  V30 17582 H 1737.28 -3.34397 -0.776753 0
M  V30 17583 N 1739.72 0.794246 -1.36123 0
M  V30 17584 C 1741.13 1.36909 -1.26936 0
M  V30 17585 C 1741.49 1.9598 0.0929337 0
M  V30 17586 O 1740.61 1.92206 0.994266 0
M  V30 17587 C 1741.21 2.48906 -2.2985 0
M  V30 17588 C 1739.76 3.0222 -2.24366 0
M  V30 17589 C 1738.91 1.75264 -2.1489 0
M  V30 17590 H 1741.86 0.596278 -1.47072 0
M  V30 17591 H 1741.88 3.27794 -1.93213 0
M  V30 17592 H 1741.4 2.05884 -3.28988 0
M  V30 17593 H 1739.5 3.49675 -1.28679 0
M  V30 17594 H 1739.61 3.59363 -3.16852 0
M  V30 17595 H 1737.97 1.97306 -1.61066 0
M  V30 17596 H 1738.76 1.34377 -3.15908 0
M  V30 17597 N 1741.2 1.20323 1.01785 0
M  V30 17598 C 1742.45 1.01063 1.75016 0
M  V30 17599 C 1742.77 -0.458458 1.89534 0
M  V30 17600 O 1742.04 -1.3315 1.43694 0
M  V30 17601 H 1740.62 0.370957 0.648383 0
M  V30 17602 H 1743.28 1.51411 1.22722 0
M  V30 17603 H 1742.38 1.46792 2.75424 0
M  V30 17604 N 1742.68 -1.21073 1.00892 0
M  V30 17605 C 1743.63 -2.23583 0.572636 0
M  V30 17606 C 1744.6 -1.61129 -0.403324 0
M  V30 17607 O 1745.78 -1.88355 -0.304491 0
M  V30 17608 C 1742.92 -3.44981 -0.0906539 0
M  V30 17609 C 1742.03 -4.21894 0.928953 0
M  V30 17610 C 1741.17 -5.30669 0.237516 0
M  V30 17611 C 1740.21 -5.99317 1.24441 0
M  V30 17612 N 1739.35 -6.99699 0.580172 0
M  V30 17613 H 1744.19 -2.60263 1.45146 0
M  V30 17614 H 1741.72 -1.27895 0.72673 0
M  V30 17615 H 1743.68 -4.14285 -0.492281 0
M  V30 17616 H 1742.31 -3.09017 -0.933169 0
M  V30 17617 H 1741.36 -3.5173 1.4488 0
M  V30 17618 H 1742.67 -4.69116 1.69503 0
M  V30 17619 H 1741.83 -6.06301 -0.220013 0
M  V30 17620 H 1740.57 -4.84463 -0.560937 0
M  V30 17621 H 1739.57 -5.22453 1.7124 0
M  V30 17622 H 1740.8 -6.47609 2.04401 0
M  V30 17623 H 1738.74 -6.55699 -0.198553 0
M  V30 17624 H 1738.66 -7.45009 1.28444 0
M  V30 17625 H 1739.93 -7.79363 0.145977 0
M  V30 17626 N 1744.16 -0.784156 -1.36707 0
M  V30 17627 C 1745.41 -0.350748 -1.98627 0
M  V30 17628 C 1745.72 1.08208 -1.62943 0
M  V30 17629 O 1746.93 1.6175 -2.18058 0
M  V30 17630 C 1745.38 -0.576173 -3.55258 0
M  V30 17631 C 1744.99 -2.02008 -3.99871 0
M  V30 17632 C 1746.73 -0.207008 -4.23995 0
M  V30 17633 C 1744.64 -2.19244 -5.4926 0
M  V30 17634 H 1743.57 -0.127403 -0.743158 0
M  V30 17635 H 1746.22 -0.965044 -1.56074 0
M  V30 17636 H 1744.6 0.10776 -3.95853 0
M  V30 17637 H 1745.78 -2.73998 -3.70489 0
M  V30 17638 H 1744.09 -2.34699 -3.43955 0
M  V30 17639 H 1746.69 -0.314139 -5.33776 0
M  V30 17640 H 1747.03 0.844253 -4.07649 0
M  V30 17641 H 1747.57 -0.843971 -3.88744 0
M  V30 17642 H 1744.31 -3.22734 -5.70546 0
M  V30 17643 H 1743.83 -1.51752 -5.80286 0
M  V30 17644 H 1745.5 -1.99703 -6.15408 0
M  V30 17645 N 1745.64 1.48215 -0.535727 0
M  V30 17646 C 1746.57 2.3253 0.212562 0
M  V30 17647 C 1747.55 1.42454 0.929568 0
M  V30 17648 O 1748.73 1.71334 0.914228 0
M  V30 17649 C 1745.86 3.23777 1.25641 0
M  V30 17650 C 1744.82 4.22924 0.657191 0
M  V30 17651 C 1744.14 5.03345 1.80411 0
M  V30 17652 C 1745.44 5.20953 -0.374902 0
M  V30 17653 H 1747.14 2.95341 -0.491301 0
M  V30 17654 H 1744.68 1.42024 -0.237718 0
M  V30 17655 H 1746.64 3.81592 1.78789 0
M  V30 17656 H 1745.36 2.58978 1.98993 0
M  V30 17657 H 1744.02 3.66304 0.147184 0
M  V30 17658 H 1743.67 4.34965 2.52615 0
M  V30 17659 H 1743.37 5.70455 1.40906 0
M  V30 17660 H 1744.89 5.64013 2.33926 0
M  V30 17661 H 1746.3 5.73258 0.0697072 0
M  V30 17662 H 1744.7 5.96147 -0.687646 0
M  V30 17663 H 1745.77 4.67739 -1.27861 0
M  V30 17664 N 1747.11 0.27113 1.5525 0
M  V30 17665 C 1748.39 -0.398374 1.915 0
M  V30 17666 C 1748.77 -1.74026 1.19491 0
M  V30 17667 O 1748.12 -2.26242 0.320425 0
M  V30 17668 C 1748.33 -0.542589 3.44756 0
M  V30 17669 C 1749.68 -0.827326 4.16462 0
M  V30 17670 O 1750.7 -0.627548 3.50628 0
M  V30 17671 O 1749.56 -1.20917 5.32955 0
M  V30 17672 H 1746.65 -0.217479 0.797892 0
M  V30 17673 H 1749.2 0.316988 1.66713 0
M  V30 17674 H 1747.97 0.401926 3.8923 0
M  V30 17675 H 1747.6 -1.30757 3.75484 0
M  V30 17676 N 1748.59 -1.576 -0.00164943 0
M  V30 17677 C 1749.5 -2.11748 -1.00995 0
M  V30 17678 C 1750.52 -1.06235 -1.37805 0
M  V30 17679 O 1751.69 -1.38127 -1.4657 0
M  V30 17680 C 1748.76 -2.60869 -2.2836 0
M  V30 17681 C 1747.82 -3.80976 -1.97879 0
M  V30 17682 C 1747.05 -4.27745 -3.19171 0
M  V30 17683 O 1747.28 -3.73856 -4.30799 0
M  V30 17684 O 1746.21 -5.19917 -3.03265 0
M  V30 17685 H 1750.04 -2.98117 -0.579667 0
M  V30 17686 H 1747.62 -1.47766 -0.220375 0
M  V30 17687 H 1749.5 -2.9267 -3.03187 0
M  V30 17688 H 1748.18 -1.77598 -2.7063 0
M  V30 17689 H 1747.09 -3.54151 -1.20533 0
M  V30 17690 H 1748.42 -4.65315 -1.60447 0
M  V30 17691 N 1750.07 0.274379 -1.55193 0
M  V30 17692 C 1751 1.34336 -1.90987 0
M  V30 17693 C 1751.98 1.51594 -0.771582 0
M  V30 17694 O 1753.17 1.6466 -1.0296 0
M  V30 17695 C 1750.3 2.70312 -2.18057 0
M  V30 17696 C 1749.25 2.67787 -3.33878 0
M  V30 17697 C 1748.58 4.07301 -3.46425 0
M  V30 17698 C 1749.88 2.27178 -4.70306 0
M  V30 17699 H 1751.57 1.04627 -2.80524 0
M  V30 17700 H 1749.12 0.501867 -1.34971 0
M  V30 17701 H 1751.07 3.45205 -2.41685 0
M  V30 17702 H 1749.79 3.01601 -1.25318 0
M  V30 17703 H 1748.45 1.95351 -3.10216 0
M  V30 17704 H 1748.1 4.3581 -2.51155 0
M  V30 17705 H 1747.8 4.06507 -4.24295 0
M  V30 17706 H 1749.32 4.83935 -3.72343 0
M  V30 17707 H 1750.74 2.91794 -4.93487 0
M  V30 17708 H 1749.14 2.37548 -5.51082 0
M  V30 17709 H 1750.21 1.22309 -4.69221 0
M  V30 17710 N 1751.55 1.48103 0.538828 0
M  V30 17711 C 1752.48 1.64856 1.65363 0
M  V30 17712 C 1753.46 0.497579 1.6266 0
M  V30 17713 O 1754.64 0.729088 1.79994 0
M  V30 17714 C 1751.77 1.67984 3.03971 0
M  V30 17715 C 1750.73 2.82494 3.21529 0
M  V30 17716 C 1750.05 2.70706 4.6111 0
M  V30 17717 C 1751.35 4.23892 3.05145 0
M  V30 17718 H 1753.05 2.58183 1.51598 0
M  V30 17719 H 1750.59 1.24249 0.727886 0
M  V30 17720 H 1752.55 1.78294 3.81824 0
M  V30 17721 H 1751.27 0.712299 3.18738 0
M  V30 17722 H 1749.93 2.71725 2.46091 0
M  V30 17723 H 1749.58 1.7194 4.727 0
M  V30 17724 H 1749.28 3.47539 4.73804 0
M  V30 17725 H 1750.8 2.82971 5.41073 0
M  V30 17726 H 1752.22 4.3554 3.72797 0
M  V30 17727 H 1750.61 5.01654 3.29338 0
M  V30 17728 H 1751.68 4.40973 2.01671 0
M  V30 17729 N 1753.03 -0.787016 1.36542 0
M  V30 17730 C 1753.96 -1.90844 1.26931 0
M  V30 17731 C 1754.97 -1.61707 0.188293 0
M  V30 17732 O 1756.16 -1.7291 0.443205 0
M  V30 17733 C 1753.26 -3.25709 0.936305 0
M  V30 17734 C 1752.43 -3.82607 2.11969 0
M  V30 17735 C 1751.49 -4.95916 1.75937 0
M  V30 17736 O 1750.52 -5.12307 2.48053 0
M  V30 17737 N 1751.72 -5.76331 0.694461 0
M  V30 17738 H 1754.49 -1.9961 2.23553 0
M  V30 17739 H 1752.05 -0.965401 1.29968 0
M  V30 17740 H 1754.04 -3.99008 0.676378 0
M  V30 17741 H 1752.61 -3.12544 0.0591364 0
M  V30 17742 H 1751.83 -3.01267 2.54227 0
M  V30 17743 H 1753.12 -4.17352 2.91024 0
M  V30 17744 H 1752.51 -5.65619 0.0957046 0
M  V30 17745 H 1751.07 -6.49923 0.494363 0
M  V30 17746 N 1754.5 -1.20861 -1.01145 0
M  V30 17747 C 1755.73 -1.04769 -1.78413 0
M  V30 17748 C 1756.15 0.402846 -1.84452 0
M  V30 17749 O 1755.5 1.27962 -1.30123 0
M  V30 17750 C 1755.56 -1.63065 -3.22633 0
M  V30 17751 O 1755.28 -3.02443 -3.16954 0
M  V30 17752 C 1756.78 -1.51996 -4.16428 0
M  V30 17753 H 1754 -0.368271 -0.560908 0
M  V30 17754 H 1756.54 -1.6006 -1.27283 0
M  V30 17755 H 1754.7 -1.11882 -3.70892 0
M  V30 17756 H 1755.11 -3.30199 -4.07515 0
M  V30 17757 H 1756.58 -1.97539 -5.15444 0
M  V30 17758 H 1757.06 -0.473305 -4.36642 0
M  V30 17759 H 1757.67 -2.02396 -3.74054 0
M  V30 17760 N 1755.98 1.20536 -1.01532 0
M  V30 17761 C 1757.22 1.91582 -0.712451 0
M  V30 17762 C 1757.59 1.76995 0.744089 0
M  V30 17763 O 1758.79 2.4251 1.15942 0
M  V30 17764 C 1757.06 3.38914 -1.13454 0
M  V30 17765 S 1758.62 4.28316 -0.953443 0
M  V30 17766 H 1755.44 0.661843 -0.259779 0
M  V30 17767 H 1758.04 1.45808 -1.30232 0
M  V30 17768 H 1756.74 3.47051 -2.19052 0
M  V30 17769 H 1756.27 3.89712 -0.537396 0
M  V30 17770 H 1758.29 4.95992 0.143722 0
M  V30 17771 N 1757.46 0.791395 1.36289 0
M  V30 17772 C 1758.71 0.365242 1.99484 0
M  V30 17773 C 1759.04 -1.06087 1.62663 0
M  V30 17774 O 1758.31 -1.73332 0.882396 0
M  V30 17775 C 1758.6 0.531317 3.56159 0
M  V30 17776 C 1758.45 2.00126 4.02827 0
M  V30 17777 C 1759.77 -0.0524248 4.40069 0
M  V30 17778 H 1756.89 0.134183 0.724682 0
M  V30 17779 H 1759.53 0.998102 1.61672 0
M  V30 17780 H 1757.68 -0.0074293 3.88499 0
M  V30 17781 H 1759.35 2.60122 3.80965 0
M  V30 17782 H 1757.6 2.50316 3.54294 0
M  V30 17783 H 1758.27 2.06842 5.11782 0
M  V30 17784 H 1760.74 0.407489 4.141 0
M  V30 17785 H 1759.62 0.0937898 5.4882 0
M  V30 17786 H 1759.88 -1.14472 4.27023 0
M  V30 17787 N 1758.94 -1.47929 0.54358 0
M  V30 17788 C 1760.22 -1.95535 -0.0505687 0
M  V30 17789 C 1760.6 -1.48603 -1.49934 0
M  V30 17790 O 1759.94 -0.718655 -2.16905 0
M  V30 17791 C 1760.15 -3.48907 0.0807654 0
M  V30 17792 C 1761.5 -4.2454 -0.0715671 0
M  V30 17793 O 1762.53 -3.56199 0.007637 0
M  V30 17794 O 1761.39 -5.45975 -0.239596 0
M  V30 17795 H 1758.48 -0.823883 -0.0717396 0
M  V30 17796 H 1761.03 -1.58391 0.60914 0
M  V30 17797 H 1759.8 -3.75828 1.08944 0
M  V30 17798 H 1759.42 -3.92781 -0.617178 0
M  V30 17799 N 1760.42 -0.27936 -1.55104 0
M  V30 17800 C 1761.83 0.217569 -1.85428 0
M  V30 17801 C 1762.18 1.55117 -1.20138 0
M  V30 17802 O 1761.3 2.10751 -0.491229 0
M  V30 17803 C 1761.9 0.401547 -3.36412 0
M  V30 17804 C 1760.46 0.842706 -3.66845 0
M  V30 17805 C 1759.61 -0.0615565 -2.77232 0
M  V30 17806 H 1762.56 -0.501025 -1.50584 0
M  V30 17807 H 1762.58 1.23946 -3.59747 0
M  V30 17808 H 1762.09 -0.569224 -3.83903 0
M  V30 17809 H 1760.19 1.8248 -3.24857 0
M  V30 17810 H 1760.3 0.677088 -4.74291 0
M  V30 17811 H 1758.67 0.455486 -2.50594 0
M  V30 17812 H 1759.45 -1.02829 -3.27538 0
M  V30 17813 N 1761.9 1.57599 -0.0067085 0
M  V30 17814 C 1762.81 2.1228 0.998709 0
M  V30 17815 C 1763.82 1.06964 1.37239 0
M  V30 17816 O 1765 1.38902 1.45836 0
M  V30 17817 C 1762.06 2.62076 2.26973 0
M  V30 17818 C 1761.12 3.8202 1.95855 0
M  V30 17819 C 1760.36 4.29431 3.16898 0
M  V30 17820 O 1760.58 3.76136 4.2881 0
M  V30 17821 O 1759.51 5.21518 3.00504 0
M  V30 17822 H 1763.34 2.9842 0.563849 0
M  V30 17823 H 1760.92 1.47881 0.212535 0
M  V30 17824 H 1762.81 2.94274 3.01631 0
M  V30 17825 H 1761.48 1.79031 2.69684 0
M  V30 17826 H 1760.39 3.54785 1.18653 0
M  V30 17827 H 1761.72 4.66159 1.57977 0
M  V30 17828 N 1763.37 -0.266145 1.55336 0
M  V30 17829 C 1764.65 -1.01852 1.6699 0
M  V30 17830 C 1765.03 -2.04053 0.54088 0
M  V30 17831 O 1764.38 -2.23859 -0.458193 0
M  V30 17832 C 1764.59 -1.66917 3.06496 0
M  V30 17833 C 1765.94 -2.17824 3.64469 0
M  V30 17834 O 1766.96 -1.76892 3.09173 0
M  V30 17835 O 1765.82 -2.92922 4.61367 0
M  V30 17836 H 1762.91 -0.472871 0.67847 0
M  V30 17837 H 1765.46 -0.261458 1.67674 0
M  V30 17838 H 1764.23 -0.928941 3.80114 0
M  V30 17839 H 1763.85 -2.49292 3.0974 0
M  V30 17840 N 1764.85 -1.48386 -0.530967 0
M  V30 17841 C 1766.09 -1.57951 -1.29734 0
M  V30 17842 C 1766.46 -0.247309 -1.90401 0
M  V30 17843 O 1767.66 -0.217934 -2.67915 0
M  V30 17844 C 1765.93 -2.68547 -2.35833 0
M  V30 17845 S 1767.49 -2.9787 -3.2221 0
M  V30 17846 H 1764.3 -0.55746 -0.441315 0
M  V30 17847 H 1766.91 -1.85903 -0.605005 0
M  V30 17848 H 1765.61 -3.63903 -1.89744 0
M  V30 17849 H 1765.14 -2.42493 -3.09775 0
M  V30 17850 H 1767.16 -2.37092 -4.35892 0
M  V30 17851 N 1766.33 0.779763 -1.36958 0
M  V30 17852 C 1767.74 1.35555 -1.28381 0
M  V30 17853 C 1768.09 1.96067 0.0721422 0
M  V30 17854 O 1767.22 1.9325 0.973824 0
M  V30 17855 C 1767.81 2.46454 -2.32477 0
M  V30 17856 C 1766.37 2.99823 -2.27559 0
M  V30 17857 C 1765.52 1.72975 -2.16737 0
M  V30 17858 H 1768.47 0.580646 -1.47696 0
M  V30 17859 H 1768.49 3.25726 -1.96679 0
M  V30 17860 H 1768 2.02383 -3.31154 0
M  V30 17861 H 1766.1 3.4829 -1.3238 0
M  V30 17862 H 1766.22 3.55982 -3.20646 0
M  V30 17863 H 1764.58 1.95587 -1.6315 0
M  V30 17864 H 1765.36 1.31018 -3.17315 0
M  V30 17865 N 1767.81 1.21396 1.00503 0
M  V30 17866 C 1769.05 1.0327 1.74537 0
M  V30 17867 C 1769.39 -0.432746 1.89317 0
M  V30 17868 O 1768.66 -1.32111 1.42747 0
M  V30 17869 C 1768.94 1.73045 3.15797 0
M  V30 17870 C 1768.8 3.27108 3.0874 0
M  V30 17871 C 1770.12 1.47298 4.14718 0
M  V30 17872 H 1767.24 0.376563 0.633537 0
M  V30 17873 H 1769.88 1.49571 1.17169 0
M  V30 17874 H 1768.03 1.33682 3.64776 0
M  V30 17875 H 1769.7 3.75839 2.67475 0
M  V30 17876 H 1767.94 3.57413 2.45843 0
M  V30 17877 H 1768.61 3.71096 4.08646 0
M  V30 17878 H 1771.09 1.81468 3.74444 0
M  V30 17879 H 1769.97 1.98633 5.11699 0
M  V30 17880 H 1770.23 0.402981 4.4026 0
M  V30 17881 N 1769.29 -1.19996 1.0217 0
M  V30 17882 C 1770.53 -1.91201 0.722601 0
M  V30 17883 C 1770.89 -1.77387 -0.734692 0
M  V30 17884 O 1772.09 -2.43121 -1.14654 0
M  V30 17885 C 1770.36 -3.38308 1.1525 0
M  V30 17886 S 1771.92 -4.27805 0.976144 0
M  V30 17887 H 1768.74 -0.660456 0.263285 0
M  V30 17888 H 1771.34 -1.45115 1.31003 0
M  V30 17889 H 1770.04 -3.45885 2.20889 0
M  V30 17890 H 1769.58 -3.89422 0.558056 0
M  V30 17891 H 1771.59 -4.96061 -0.117417 0
M  V30 17892 N 1770.76 -0.798611 -1.35867 0
M  V30 17893 C 1771.67 -0.204758 -2.33705 0
M  V30 17894 C 1772.69 0.648001 -1.61484 0
M  V30 17895 O 1773.87 0.561628 -1.93411 0
M  V30 17896 C 1770.93 0.643225 -3.40681 0
M  V30 17897 C 1769.99 -0.229099 -4.28688 0
M  V30 17898 C 1769.22 0.578508 -5.30555 0
M  V30 17899 O 1769.45 1.81382 -5.40793 0
M  V30 17900 O 1768.38 -0.0264291 -6.01894 0
M  V30 17901 H 1772.21 -1.01392 -2.86275 0
M  V30 17902 H 1769.79 -0.560242 -1.38498 0
M  V30 17903 H 1771.67 1.12648 -4.06065 0
M  V30 17904 H 1770.35 1.43012 -2.90395 0
M  V30 17905 H 1769.26 -0.759314 -3.66313 0
M  V30 17906 H 1770.59 -0.979736 -4.82351 0
M  V30 17907 N 1772.24 1.47639 -0.551417 0
M  V30 17908 C 1773.49 2.02784 -0.0252425 0
M  V30 17909 C 1773.82 1.42549 1.31884 0
M  V30 17910 O 1773.1 0.578954 1.85684 0
M  V30 17911 C 1773.38 3.60024 0.0740051 0
M  V30 17912 C 1773.23 4.30702 -1.29676 0
M  V30 17913 C 1774.55 4.32946 0.790302 0
M  V30 17914 H 1771.67 0.736923 -0.0106473 0
M  V30 17915 H 1774.31 1.76131 -0.712589 0
M  V30 17916 H 1772.46 3.82863 0.65939 0
M  V30 17917 H 1774.13 4.1922 -1.9249 0
M  V30 17918 H 1772.38 3.91282 -1.87299 0
M  V30 17919 H 1773.05 5.39238 -1.18009 0
M  V30 17920 H 1775.52 4.15065 0.293326 0
M  V30 17921 H 1774.4 5.42608 0.828692 0
M  V30 17922 H 1774.66 4.01752 1.84521 0
M  V30 17923 N 1773.72 0.287581 1.54954 0
M  V30 17924 C 1774.68 -0.581465 2.21702 0
M  V30 17925 C 1775.68 -1.07172 1.19878 0
M  V30 17926 O 1776.87 -0.969899 1.44702 0
M  V30 17927 C 1774.01 -1.80358 2.89282 0
M  V30 17928 H 1775.2 0.00151035 2.999 0
M  V30 17929 H 1772.75 0.0382953 1.56253 0
M  V30 17930 H 1773.49 -2.42674 2.15128 0
M  V30 17931 H 1773.27 -1.45983 3.63911 0
M  V30 17932 H 1774.76 -2.42129 3.4024 0
M  V30 17933 N 1775.2 -1.57593 0.0150662 0
M  V30 17934 C 1776.45 -1.90836 -0.665282 0
M  V30 17935 C 1776.77 -0.890693 -1.73469 0
M  V30 17936 O 1776.04 0.0698113 -1.95776 0
M  V30 17937 H 1774.62 -0.704377 -0.24872 0
M  V30 17938 H 1777.28 -1.94809 0.0595521 0
M  V30 17939 H 1776.38 -2.91043 -1.12697 0
M  V30 17940 N 1776.68 0.257904 -1.55475 0
M  V30 17941 C 1778.09 0.605871 -1.47653 0
M  V30 17942 C 1778.29 1.88837 -0.703063 0
M  V30 17943 O 1777.35 2.51469 -0.227981 0
M  V30 17944 C 1778.66 0.718813 -2.91982 0
M  V30 17945 C 1780.21 0.81187 -3.02287 0
M  V30 17946 C 1780.68 0.956465 -4.47901 0
M  V30 17947 N 1782.18 1.02161 -4.51793 0
M  V30 17948 C 1782.91 1.15256 -5.61697 0
M  V30 17949 N 1782.41 1.24975 -6.81435 0
M  V30 17950 N 1784.2 1.18485 -5.4947 0
M  V30 17951 H 1776.35 -0.584154 -2.04209 0
M  V30 17952 H 1778.61 -0.200045 -0.926653 0
M  V30 17953 H 1778.32 -0.15335 -3.51366 0
M  V30 17954 H 1778.19 1.59429 -3.41851 0
M  V30 17955 H 1780.58 1.67449 -2.42991 0
M  V30 17956 H 1780.66 -0.0885307 -2.55647 0
M  V30 17957 H 1780.31 0.0984438 -5.07805 0
M  V30 17958 H 1780.24 1.87174 -4.92213 0
M  V30 17959 H 1782.73 0.958295 -3.65548 0
M  V30 17960 H 1783.04 1.34843 -7.60945 0
M  V30 17961 H 1781.38 1.21952 -6.84217 0
M  V30 17962 H 1784.58 1.10534 -4.54863 0
M  V30 17963 H 1784.75 1.28346 -6.35162 0
M  V30 17964 N 1778.15 1.48666 0.52309 0
M  V30 17965 C 1779.57 1.34939 0.852268 0
M  V30 17966 C 1779.77 0.365638 1.98155 0
M  V30 17967 O 1778.83 -0.210671 2.5162 0
M  V30 17968 C 1780.14 2.75136 1.21329 0
M  V30 17969 C 1781.69 2.83675 1.32278 0
M  V30 17970 C 1782.16 4.24589 1.71721 0
M  V30 17971 N 1783.65 4.27295 1.78811 0
M  V30 17972 C 1784.39 5.33274 2.10729 0
M  V30 17973 N 1783.88 6.49523 2.41023 0
M  V30 17974 N 1785.68 5.20673 2.11793 0
M  V30 17975 H 1777.83 2.11237 -0.221919 0
M  V30 17976 H 1780.09 0.947291 -0.0366525 0
M  V30 17977 H 1779.8 3.48717 0.457065 0
M  V30 17978 H 1779.67 3.091 2.16187 0
M  V30 17979 H 1782.06 2.10345 2.06976 0
M  V30 17980 H 1782.14 2.53321 0.355248 0
M  V30 17981 H 1781.78 4.98438 0.975805 0
M  V30 17982 H 1781.71 4.52391 2.69536 0
M  V30 17983 H 1784.2 3.43447 1.57648 0
M  V30 17984 H 1784.52 7.26125 2.64503 0
M  V30 17985 H 1782.86 6.52786 2.38528 0
M  V30 17986 H 1786.05 4.28869 1.87588 0
M  V30 17987 H 1786.23 6.03365 2.36336 0
M  V30 17988 N 1779.63 -0.772489 1.37369 0
M  V30 17989 C 1780.88 -1.53102 1.32537 0
M  V30 17990 C 1781.21 -1.9429 -0.0903608 0
M  V30 17991 O 1780.46 -1.64286 -1.06342 0
M  V30 17992 C 1780.76 -2.80907 2.20966 0
M  V30 17993 C 1780.43 -2.58775 3.69251 0
M  V30 17994 C 1779.09 -2.52448 4.09663 0
M  V30 17995 C 1781.44 -2.38954 4.63196 0
M  V30 17996 C 1778.77 -2.24288 5.42136 0
M  V30 17997 C 1781.12 -2.12318 5.95906 0
M  V30 17998 C 1779.79 -2.04434 6.35423 0
M  V30 17999 H 1779.06 -0.56024 0.484987 0
M  V30 18000 H 1781.7 -0.889859 1.69569 0
M  V30 18001 H 1780.01 -3.49578 1.76925 0
M  V30 18002 H 1781.7 -3.38782 2.14541 0
M  V30 18003 H 1778.29 -2.64563 3.37201 0
M  V30 18004 H 1782.48 -2.42833 4.32835 0
M  V30 18005 H 1777.73 -2.16679 5.71717 0
M  V30 18006 H 1781.91 -1.95979 6.68255 0
M  V30 18007 H 1779.54 -1.82378 7.37999 0
M  V30 18008 N 1781.11 -1.21927 -0.998575 0
M  V30 18009 C 1782.07 -0.985744 -2.0692 0
M  V30 18010 C 1783.07 0.0456907 -1.60735 0
M  V30 18011 O 1784.26 -0.192241 -1.73136 0
M  V30 18012 C 1781.4 -0.48779 -3.37392 0
M  V30 18013 H 1782.59 -1.93563 -2.2907 0
M  V30 18014 H 1780.14 -1.03716 -1.1693 0
M  V30 18015 H 1780.88 0.466723 -3.20924 0
M  V30 18016 H 1780.66 -1.23186 -3.72247 0
M  V30 18017 H 1782.15 -0.344469 -4.16177 0
M  V30 18018 N 1782.59 1.19452 -1.02805 0
M  V30 18019 C 1783.81 1.93616 -0.743485 0
M  V30 18020 C 1784.24 1.74934 0.691342 0
M  V30 18021 O 1783.6 1.05111 1.47721 0
M  V30 18022 C 1783.64 3.43451 -1.0988 0
M  V30 18023 O 1782.75 4.11829 -0.216978 0
M  V30 18024 H 1782.09 0.60448 -0.274771 0
M  V30 18025 H 1784.62 1.51554 -1.37451 0
M  V30 18026 H 1784.63 3.94115 -1.05535 0
M  V30 18027 H 1783.3 3.5637 -2.14413 0
M  V30 18028 H 1781.88 3.71533 -0.318954 0
M  V30 18029 N 1784.07 0.805805 1.35442 0
M  V30 18030 C 1785.31 0.385046 1.98398 0
M  V30 18031 C 1785.64 -1.05114 1.64244 0
M  V30 18032 O 1784.91 -1.72711 0.924532 0
M  V30 18033 H 1783.49 0.139386 0.733881 0
M  V30 18034 H 1786.15 1.03147 1.65368 0
M  V30 18035 H 1785.24 0.490126 3.08227 0
M  V30 18036 N 1785.54 -1.47344 0.559239 0
M  V30 18037 C 1786.49 -2.30039 -0.187317 0
M  V30 18038 C 1787.46 -1.39186 -0.906443 0
M  V30 18039 O 1788.65 -1.68147 -0.901739 0
M  V30 18040 C 1785.79 -3.2319 -1.21004 0
M  V30 18041 C 1784.9 -4.29134 -0.496776 0
M  V30 18042 C 1784.03 -5.09435 -1.50497 0
M  V30 18043 C 1783.07 -6.07151 -0.776794 0
M  V30 18044 N 1782.21 -6.80404 -1.73192 0
M  V30 18045 H 1787.05 -2.93357 0.523978 0
M  V30 18046 H 1784.59 -1.44597 0.270225 0
M  V30 18047 H 1786.55 -3.75621 -1.81561 0
M  V30 18048 H 1785.18 -2.61732 -1.88935 0
M  V30 18049 H 1784.23 -3.79744 0.223359 0
M  V30 18050 H 1785.54 -4.98746 0.0735731 0
M  V30 18051 H 1784.69 -5.66026 -2.18402 0
M  V30 18052 H 1783.43 -4.3973 -2.10924 0
M  V30 18053 H 1782.44 -5.49736 -0.0838382 0
M  V30 18054 H 1783.66 -6.78866 -0.178239 0
M  V30 18055 H 1781.61 -6.13427 -2.32472 0
M  V30 18056 H 1781.53 -7.46193 -1.21377 0
M  V30 18057 H 1782.79 -7.41567 -2.40204 0
M  V30 18058 N 1787.02 -0.295795 -1.54799 0
M  V30 18059 C 1787.97 0.582614 -2.23325 0
M  V30 18060 C 1788.94 1.13365 -1.21398 0
M  V30 18061 O 1790.12 1.17914 -1.50003 0
M  V30 18062 C 1787.26 1.75112 -2.97371 0
M  V30 18063 C 1786.38 1.23197 -4.14061 0
M  V30 18064 C 1785.51 2.36393 -4.75701 0
M  V30 18065 C 1784.55 1.81585 -5.84545 0
M  V30 18066 N 1783.69 2.88334 -6.40162 0
M  V30 18067 H 1788.53 -0.00836451 -2.97999 0
M  V30 18068 H 1786.07 -0.0158966 -1.47091 0
M  V30 18069 H 1788.02 2.4383 -3.38531 0
M  V30 18070 H 1786.65 2.31381 -2.25084 0
M  V30 18071 H 1785.71 0.437226 -3.77879 0
M  V30 18072 H 1787.02 0.790706 -4.92493 0
M  V30 18073 H 1786.17 3.13067 -5.19687 0
M  V30 18074 H 1784.91 2.83844 -3.9659 0
M  V30 18075 H 1783.92 1.03399 -5.3999 0
M  V30 18076 H 1785.14 1.35045 -6.65537 0
M  V30 18077 H 1783.09 3.35129 -5.63937 0
M  V30 18078 H 1783 2.48687 -7.13926 0
M  V30 18079 H 1784.27 3.64921 -6.88805 0
M  V30 18080 N 1788.5 1.57583 -0.0234236 0
M  V30 18081 C 1789.75 1.91848 0.657422 0
M  V30 18082 C 1790.08 0.899633 1.72105 0
M  V30 18083 O 1789.36 -0.0784409 1.94342 0
M  V30 18084 C 1789.64 3.36617 1.2791 0
M  V30 18085 C 1789.49 4.49235 0.225421 0
M  V30 18086 C 1790.81 3.81239 2.19874 0
M  V30 18087 H 1787.93 0.697677 0.23752 0
M  V30 18088 H 1790.57 1.89834 -0.0795169 0
M  V30 18089 H 1788.72 3.38465 1.90719 0
M  V30 18090 H 1790.39 4.59521 -0.404792 0
M  V30 18091 H 1788.64 4.31462 -0.449749 0
M  V30 18092 H 1789.31 5.47545 0.699906 0
M  V30 18093 H 1791.78 3.81092 1.67058 0
M  V30 18094 H 1790.66 4.8324 2.60328 0
M  V30 18095 H 1790.92 3.16421 3.08755 0
M  V30 18096 N 1789.98 -0.249655 1.5561 0
M  V30 18097 C 1791.21 -0.995707 1.81365 0
M  V30 18098 C 1791.62 -1.79054 0.598767 0
M  V30 18099 O 1790.98 -1.773 -0.432538 0
M  V30 18100 C 1791.03 -1.93577 3.05303 0
M  V30 18101 O 1790.75 -1.17311 4.22102 0
M  V30 18102 C 1792.25 -2.79804 3.43838 0
M  V30 18103 H 1789.47 -0.293118 0.603591 0
M  V30 18104 H 1792.02 -0.273374 2.02665 0
M  V30 18105 H 1790.17 -2.61242 2.86062 0
M  V30 18106 H 1790.59 -1.80875 4.92326 0
M  V30 18107 H 1792.06 -3.4152 4.33668 0
M  V30 18108 H 1792.54 -3.50776 2.64298 0
M  V30 18109 H 1793.14 -2.17596 3.6542 0
M  V30 18110 N 1791.46 -1.48941 -0.515198 0
M  V30 18111 C 1792.39 -1.67466 -1.62719 0
M  V30 18112 C 1793.37 -0.523393 -1.61847 0
M  V30 18113 O 1794.55 -0.757631 -1.78812 0
M  V30 18114 C 1791.68 -1.72799 -3.0126 0
M  V30 18115 C 1790.64 -2.87574 -3.16994 0
M  V30 18116 C 1789.96 -2.78008 -4.56745 0
M  V30 18117 C 1791.26 -4.28693 -2.98362 0
M  V30 18118 H 1792.96 -2.60562 -1.47471 0
M  V30 18119 H 1790.5 -1.25391 -0.708027 0
M  V30 18120 H 1792.46 -1.84346 -3.78939 0
M  V30 18121 H 1791.18 -0.762918 -3.17564 0
M  V30 18122 H 1789.84 -2.75606 -2.41737 0
M  V30 18123 H 1789.49 -1.79438 -4.69905 0
M  V30 18124 H 1789.19 -3.55033 -4.68215 0
M  V30 18125 H 1790.71 -2.91543 -5.36503 0
M  V30 18126 H 1792.13 -4.41416 -3.65821 0
M  V30 18127 H 1790.52 -5.0683 -3.21315 0
M  V30 18128 H 1791.59 -4.44125 -1.9463 0
M  V30 18129 N 1792.94 0.765193 -1.37777 0
M  V30 18130 C 1793.88 1.90005 -1.34168 0
M  V30 18131 C 1794.88 1.6784 -0.229387 0
M  V30 18132 O 1796.08 1.7555 -0.39778 0
M  V30 18133 H 1792.46 0.624939 -0.418276 0
M  V30 18134 H 1794.43 1.90165 -2.29956 0
M  V30 18135 C 1793.18 3.27349 -1.17208 0
M  V30 18136 H 1792.5 3.44985 -2.02053 0
M  V30 18137 H 1793.94 4.07036 -1.18734 0
M  V30 18138 C 1792.4 3.3668 0.121835 0
M  V30 18139 O 1792.93 3.86258 1.10306 0
M  V30 18140 N 1791.14 2.90074 0.174753 0
M  V30 18141 H 1790.68 2.49918 -0.624397 0
M  V30 18142 H 1790.64 2.96697 1.0401 0
M  V30 18143 N 1794.41 1.22455 0.992094 0
M  V30 18144 C 1795.82 1.04629 1.54627 0
M  V30 18145 C 1796.18 -0.390011 1.92285 0
M  V30 18146 O 1795.3 -1.27511 1.74842 0
M  V30 18147 C 1795.9 1.89306 2.80978 0
M  V30 18148 C 1794.45 1.75775 3.32836 0
M  V30 18149 C 1793.6 1.85724 2.05917 0
M  V30 18150 H 1796.55 1.36288 0.813089 0
M  V30 18151 H 1796.57 1.41095 3.53373 0
M  V30 18152 H 1796.09 2.93836 2.53539 0
M  V30 18153 H 1794.19 0.739821 3.65181 0
M  V30 18154 H 1794.3 2.58491 4.03385 0
M  V30 18155 H 1792.66 1.29173 2.19514 0
M  V30 18156 H 1793.45 2.91787 1.80874 0
M  V30 18157 N 1795.89 -1.18905 1.03437 0
M  V30 18158 C 1797.12 -1.93219 0.753743 0
M  V30 18159 C 1797.54 -1.75299 -0.682055 0
M  V30 18160 O 1796.9 -1.05892 -1.47161 0
M  V30 18161 C 1796.95 -3.42864 1.117 0
M  V30 18162 O 1796.05 -4.11708 0.238816 0
M  V30 18163 H 1795.39 -0.603015 0.277973 0
M  V30 18164 H 1797.92 -1.50823 1.38252 0
M  V30 18165 H 1797.93 -3.9355 1.07623 0
M  V30 18166 H 1796.61 -3.55228 2.163 0
M  V30 18167 H 1795.18 -3.71359 0.338652 0
M  V30 18168 N 1797.37 -0.812977 -1.35013 0
M  V30 18169 C 1798.65 -0.319343 -1.92976 0
M  V30 18170 C 1799.03 1.19196 -1.74228 0
M  V30 18171 O 1798.37 1.99445 -1.11507 0
M  V30 18172 C 1798.58 -0.737753 -3.41113 0
M  V30 18173 C 1799.93 -0.730889 -4.18262 0
M  V30 18174 O 1800.96 -0.679701 -3.49655 0
M  V30 18175 O 1799.82 -0.795045 -5.40686 0
M  V30 18176 H 1796.91 -0.0850284 -0.822617 0
M  V30 18177 H 1799.46 -0.897102 -1.44049 0
M  V30 18178 H 1798.23 -1.77911 -3.48516 0
M  V30 18179 H 1797.85 -0.135148 -3.9737 0
M  V30 18180 N 1798.85 1.47045 -0.567045 0
M  V30 18181 C 1800.26 1.86202 -0.13627 0
M  V30 18182 C 1800.61 1.47252 1.29658 0
M  V30 18183 O 1799.73 0.880121 1.97694 0
M  V30 18184 C 1800.33 3.37945 -0.240528 0
M  V30 18185 C 1798.89 3.76157 0.135272 0
M  V30 18186 C 1798.04 2.71089 -0.583628 0
M  V30 18187 H 1800.99 1.38423 -0.776196 0
M  V30 18188 H 1801.01 3.76673 0.538293 0
M  V30 18189 H 1800.52 3.66263 -1.28348 0
M  V30 18190 H 1798.62 3.53456 1.17896 0
M  V30 18191 H 1798.73 4.78547 -0.230137 0
M  V30 18192 H 1797.1 2.54687 -0.0256067 0
M  V30 18193 H 1797.88 3.02247 -1.62792 0
M  V30 18194 N 1800.33 0.304 1.5464 0
M  V30 18195 C 1801.24 -0.580159 2.27313 0
M  V30 18196 C 1802.25 -1.14588 1.30941 0
M  V30 18197 O 1803.43 -1.17002 1.63928 0
M  V30 18198 C 1800.49 -1.73437 3.00201 0
M  V30 18199 C 1799.55 -1.20243 4.12116 0
M  V30 18200 C 1798.79 -2.30164 4.81519 0
M  V30 18201 O 1799.01 -3.50123 4.503 0
M  V30 18202 O 1797.94 -1.96686 5.68857 0
M  V30 18203 H 1801.77 0.00944552 3.03699 0
M  V30 18204 H 1799.35 0.0703565 1.49234 0
M  V30 18205 H 1801.24 -2.40677 3.45908 0
M  V30 18206 H 1799.91 -2.31053 2.26708 0
M  V30 18207 H 1798.82 -0.495679 3.70802 0
M  V30 18208 H 1800.15 -0.67167 4.87596 0
M  V30 18209 N 1801.8 -1.57568 0.0317802 0
M  V30 18210 C 1802.75 -2.06878 -0.958403 0
M  V30 18211 C 1803.74 -0.96985 -1.28385 0
M  V30 18212 O 1804.93 -1.23338 -1.26951 0
M  V30 18213 C 1802.06 -2.60159 -2.23991 0
M  V30 18214 C 1801.14 -3.76987 -1.94272 0
M  V30 18215 N 1801.54 -4.87498 -1.34832 0
M  V30 18216 C 1799.83 -3.85524 -2.24248 0
M  V30 18217 C 1800.53 -5.68697 -1.22304 0
M  V30 18218 N 1799.51 -5.1569 -1.71944 0
M  V30 18219 H 1803.31 -2.89721 -0.493848 0
M  V30 18220 H 1800.83 -1.61474 -0.173168 0
M  V30 18221 H 1802.82 -2.93778 -2.95804 0
M  V30 18222 H 1801.48 -1.78747 -2.71071 0
M  V30 18223 H 1802.49 -5.07696 -1.02299 0
M  V30 18224 H 1799.17 -3.15023 -2.73983 0
M  V30 18225 H 1800.56 -6.67551 -0.763197 0
M  V30 18226 N 1803.28 0.241399 -1.5574 0
M  V30 18227 C 1804.52 0.975956 -1.79595 0
M  V30 18228 C 1804.89 1.82312 -0.60218 0
M  V30 18229 O 1806.09 2.58988 -0.719614 0
M  V30 18230 C 1804.36 1.80917 -3.08227 0
M  V30 18231 S 1805.92 2.60208 -3.53323 0
M  V30 18232 H 1802.74 0.328184 -0.630727 0
M  V30 18233 H 1805.34 0.243307 -1.9398 0
M  V30 18234 H 1804.04 1.1766 -3.93172 0
M  V30 18235 H 1803.57 2.58447 -2.96595 0
M  V30 18236 H 1805.59 3.83317 -3.15091 0
M  V30 18237 N 1804.76 1.49212 0.507292 0
M  V30 18238 C 1805.69 1.61529 1.62606 0
M  V30 18239 C 1806.71 0.498303 1.54986 0
M  V30 18240 O 1807.89 0.7701 1.61033 0
M  V30 18241 C 1804.99 1.55015 3.0137 0
M  V30 18242 C 1804.17 2.8214 3.34239 0
M  V30 18243 C 1803.23 2.68765 4.52385 0
M  V30 18244 O 1802.25 3.42691 4.54479 0
M  V30 18245 N 1803.45 1.7989 5.51924 0
M  V30 18246 H 1806.22 2.58018 1.52469 0
M  V30 18247 H 1803.78 1.46222 0.695042 0
M  V30 18248 H 1805.77 1.4373 3.78317 0
M  V30 18249 H 1804.34 0.6641 3.05464 0
M  V30 18250 H 1803.56 3.07823 2.46249 0
M  V30 18251 H 1804.85 3.66432 3.52994 0
M  V30 18252 H 1804.25 1.19074 5.53026 0
M  V30 18253 H 1802.81 1.74531 6.27999 0
M  V30 18254 N 1806.24 -0.757876 1.38181 0
M  V30 18255 C 1807.49 -1.51222 1.33472 0
M  V30 18256 C 1807.8 -1.9546 -0.0740525 0
M  V30 18257 O 1809.01 -2.70404 -0.243664 0
M  V30 18258 C 1807.46 -2.73138 2.34358 0
M  V30 18259 C 1807.07 -2.35943 3.80835 0
M  V30 18260 C 1808.81 -3.51041 2.38685 0
M  V30 18261 C 1806.72 -3.54444 4.73417 0
M  V30 18262 H 1805.65 -0.567789 0.496116 0
M  V30 18263 H 1808.3 -0.828861 1.63714 0
M  V30 18264 H 1806.68 -3.43433 1.97153 0
M  V30 18265 H 1807.86 -1.73341 4.26954 0
M  V30 18266 H 1806.17 -1.71184 3.79585 0
M  V30 18267 H 1808.77 -4.39143 3.05054 0
M  V30 18268 H 1809.11 -3.91892 1.40451 0
M  V30 18269 H 1809.65 -2.87755 2.74667 0
M  V30 18270 H 1806.39 -3.18663 5.7283 0
M  V30 18271 H 1805.91 -4.16103 4.31993 0
M  V30 18272 H 1807.58 -4.21081 4.91223 0
M  V30 18273 N 1807.72 -1.22979 -0.985586 0
M  V30 18274 C 1808.96 -1.07044 -1.74129 0
M  V30 18275 C 1809.32 0.386735 -1.88065 0
M  V30 18276 O 1810.52 0.667136 -2.6039 0
M  V30 18277 C 1808.79 -1.77023 -3.1048 0
M  V30 18278 S 1810.35 -1.76594 -4.01697 0
M  V30 18279 H 1807.17 -0.383192 -0.598903 0
M  V30 18280 H 1809.77 -1.56035 -1.17785 0
M  V30 18281 H 1808.48 -2.82194 -2.97984 0
M  V30 18282 H 1808.01 -1.28293 -3.71893 0
M  V30 18283 H 1810.02 -0.820835 -4.89364 0
M  V30 18284 N 1809.19 1.18355 -1.04066 0
M  V30 18285 C 1810.14 2.19907 -0.60209 0
M  V30 18286 C 1811.13 1.56925 0.355457 0
M  V30 18287 O 1812.32 1.76138 0.174513 0
M  V30 18288 C 1809.45 3.43284 0.0334903 0
M  V30 18289 C 1808.54 4.13387 -0.947205 0
M  V30 18290 N 1808.93 4.59492 -2.11425 0
M  V30 18291 C 1807.22 4.39247 -0.773204 0
M  V30 18292 C 1807.93 5.1346 -2.73375 0
M  V30 18293 N 1806.9 5.04974 -2.01251 0
M  V30 18294 H 1810.7 2.53245 -1.49145 0
M  V30 18295 H 1808.22 1.3456 -0.90925 0
M  V30 18296 H 1810.21 4.15296 0.365384 0
M  V30 18297 H 1808.87 3.11441 0.918387 0
M  V30 18298 H 1809.89 4.53942 -2.49314 0
M  V30 18299 H 1806.56 4.17455 0.0616022 0
M  V30 18300 H 1807.95 5.59337 -3.72279 0
M  V30 18301 N 1810.67 0.820125 1.3458 0
M  V30 18302 C 1811.91 0.41269 2.0019 0
M  V30 18303 C 1812.28 -1.0047 1.63614 0
M  V30 18304 O 1813.48 -1.51487 2.22047 0
M  V30 18305 C 1811.75 0.605717 3.5223 0
M  V30 18306 S 1813.31 0.290715 4.37836 0
M  V30 18307 H 1810.13 0.156064 0.693661 0
M  V30 18308 H 1812.73 1.06533 1.63924 0
M  V30 18309 H 1811.43 1.63702 3.76337 0
M  V30 18310 H 1810.96 -0.0617582 3.93352 0
M  V30 18311 H 1812.98 -0.896639 4.88032 0
M  V30 18312 N 1812.15 -1.46743 0.574835 0
M  V30 18313 C 1813.43 -1.95598 -0.00908149 0
M  V30 18314 C 1813.81 -1.5175 -1.46748 0
M  V30 18315 O 1813.16 -0.764502 -2.15331 0
M  V30 18316 C 1813.37 -3.48657 0.154756 0
M  V30 18317 C 1814.71 -4.24596 0.0185002 0
M  V30 18318 O 1815.74 -3.56103 0.0831904 0
M  V30 18319 O 1814.6 -5.4636 -0.123733 0
M  V30 18320 H 1811.69 -0.825219 -0.0542477 0
M  V30 18321 H 1814.24 -1.57063 0.6426 0
M  V30 18322 H 1813.01 -3.73433 1.16891 0
M  V30 18323 H 1812.63 -3.94001 -0.533724 0
M  V30 18324 N 1813.63 -0.312197 -1.54477 0
M  V30 18325 C 1814.87 0.294208 -2.00655 0
M  V30 18326 C 1815.21 1.52674 -1.20018 0
M  V30 18327 O 1814.48 1.92481 -0.279517 0
M  V30 18328 C 1814.77 0.639677 -3.54373 0
M  V30 18329 C 1814.62 -0.602773 -4.45743 0
M  V30 18330 C 1815.94 1.46181 -4.15113 0
M  V30 18331 H 1813.06 0.10546 -0.729416 0
M  V30 18332 H 1815.7 -0.426519 -1.85151 0
M  V30 18333 H 1813.85 1.25371 -3.67715 0
M  V30 18334 H 1815.52 -1.24116 -4.44289 0
M  V30 18335 H 1813.76 -1.23386 -4.15882 0
M  V30 18336 H 1814.43 -0.316748 -5.5109 0
M  V30 18337 H 1816.91 0.942887 -4.05276 0
M  V30 18338 H 1815.79 1.67231 -5.22805 0
M  V30 18339 H 1816.05 2.45448 -3.67706 0
M  V30 18340 N 1815.11 1.57549 -0.040136 0
M  V30 18341 C 1816.35 1.92535 0.637037 0
M  V30 18342 C 1816.69 0.917836 1.71141 0
M  V30 18343 O 1815.96 -0.057824 1.94414 0
M  V30 18344 C 1816.24 3.37955 1.24333 0
M  V30 18345 C 1816.1 4.49449 0.177761 0
M  V30 18346 C 1817.42 3.8355 2.15818 0
M  V30 18347 H 1814.53 0.700157 0.230107 0
M  V30 18348 H 1817.18 1.89739 -0.0996468 0
M  V30 18349 H 1815.33 3.40468 1.87119 0
M  V30 18350 H 1817 4.59065 -0.453507 0
M  V30 18351 H 1815.24 4.30961 -0.495486 0
M  V30 18352 H 1815.91 5.48256 0.641792 0
M  V30 18353 H 1818.39 3.82842 1.63006 0
M  V30 18354 H 1817.26 4.85974 2.55188 0
M  V30 18355 H 1817.53 3.19678 3.05382 0
M  V30 18356 N 1816.58 -0.233136 1.55866 0
M  V30 18357 C 1817.53 -1.3085 1.92304 0
M  V30 18358 C 1818.53 -1.49121 0.803693 0
M  V30 18359 O 1819.73 -1.50433 0.988433 0
M  V30 18360 H 1816.11 -0.438451 0.610954 0
M  V30 18361 H 1818.08 -0.973925 2.82059 0
M  V30 18362 C 1816.83 -2.65415 2.24611 0
M  V30 18363 H 1816.15 -2.5216 3.10251 0
M  V30 18364 H 1817.59 -3.395 2.54 0
M  V30 18365 C 1816.05 -3.1955 1.0672 0
M  V30 18366 O 1816.58 -4.00405 0.322308 0
M  V30 18367 N 1814.79 -2.77764 0.854123 0
M  V30 18368 H 1814.33 -2.12122 1.46157 0
M  V30 18369 H 1814.29 -3.14329 0.0670326 0
M  V30 18370 N 1818.06 -1.49479 -0.499372 0
M  V30 18371 C 1818.99 -1.69182 -1.60934 0
M  V30 18372 C 1819.97 -0.54053 -1.61283 0
M  V30 18373 O 1821.16 -0.776554 -1.77998 0
M  V30 18374 C 1818.29 -1.75985 -2.99411 0
M  V30 18375 C 1817.24 -2.9092 -3.13926 0
M  V30 18376 C 1816.57 -2.82837 -4.5377 0
M  V30 18377 C 1817.87 -4.31833 -2.93799 0
M  V30 18378 H 1819.56 -2.62112 -1.44699 0
M  V30 18379 H 1817.11 -1.26135 -0.694688 0
M  V30 18380 H 1819.06 -1.88354 -3.76962 0
M  V30 18381 H 1817.79 -0.796557 -3.16737 0
M  V30 18382 H 1816.45 -2.78155 -2.388 0
M  V30 18383 H 1816.09 -1.84412 -4.67976 0
M  V30 18384 H 1815.79 -3.59979 -4.64423 0
M  V30 18385 H 1817.32 -2.97217 -5.3338 0
M  V30 18386 H 1818.73 -4.45271 -3.61119 0
M  V30 18387 H 1817.13 -5.10209 -3.15922 0
M  V30 18388 H 1818.2 -4.46165 -1.89908 0
M  V30 18389 N 1819.54 0.750537 -1.38581 0
M  V30 18390 C 1820.77 1.53978 -1.38196 0
M  V30 18391 C 1821.18 1.8878 0.0274976 0
M  V30 18392 O 1820.54 1.52997 0.994894 0
M  V30 18393 C 1820.59 2.83702 -2.24043 0
M  V30 18394 O 1820.31 2.50384 -3.59499 0
M  V30 18395 C 1821.81 3.77823 -2.31872 0
M  V30 18396 H 1819.03 0.476345 -0.472585 0
M  V30 18397 H 1821.58 0.928634 -1.82199 0
M  V30 18398 H 1819.73 3.41187 -1.83494 0
M  V30 18399 H 1820.15 3.33605 -4.04732 0
M  V30 18400 H 1821.62 4.65788 -2.96218 0
M  V30 18401 H 1822.1 4.18474 -1.33327 0
M  V30 18402 H 1822.7 3.26262 -2.72824 0
M  V30 18403 N 1821.02 1.235 0.979051 0
M  V30 18404 C 1822.26 1.07966 1.73559 0
M  V30 18405 C 1822.62 -0.376756 1.88267 0
M  V30 18406 O 1823.82 -0.653318 2.6074 0
M  V30 18407 C 1822.1 1.78667 3.09537 0
M  V30 18408 S 1823.65 1.78721 4.00754 0
M  V30 18409 H 1820.47 0.386363 0.596862 0
M  V30 18410 H 1823.07 1.56657 1.16956 0
M  V30 18411 H 1821.78 2.8377 2.96484 0
M  V30 18412 H 1821.31 1.30263 3.71208 0
M  V30 18413 H 1823.32 0.846775 4.88921 0
M  V30 18414 N 1822.5 -1.17802 1.04693 0
M  V30 18415 C 1823.41 -2.25298 0.654072 0
M  V30 18416 C 1824.42 -1.70984 -0.32255 0
M  V30 18417 O 1825.6 -2.0063 -0.175904 0
M  V30 18418 C 1822.66 -3.46687 0.0296345 0
M  V30 18419 C 1821.73 -4.16108 1.05606 0
M  V30 18420 C 1820.96 -5.31702 0.461329 0
M  V30 18421 O 1821.18 -5.65701 -0.730679 0
M  V30 18422 O 1820.12 -5.89956 1.19312 0
M  V30 18423 H 1823.94 -2.61179 1.54982 0
M  V30 18424 H 1821.53 -1.25005 0.818182 0
M  V30 18425 H 1823.41 -4.20201 -0.317654 0
M  V30 18426 H 1822.08 -3.12615 -0.839839 0
M  V30 18427 H 1820.99 -3.44635 1.45526 0
M  V30 18428 H 1822.32 -4.54195 1.89651 0
M  V30 18429 N 1823.98 -0.827251 -1.34143 0
M  V30 18430 C 1824.94 -0.257543 -2.27748 0
M  V30 18431 C 1825.94 0.567053 -1.5047 0
M  V30 18432 O 1827.13 0.382529 -1.69948 0
M  V30 18433 C 1824.26 0.638449 -3.34868 0
M  V30 18434 H 1825.45 -1.08338 -2.79648 0
M  V30 18435 H 1823.01 -0.599441 -1.44348 0
M  V30 18436 H 1823.74 1.48717 -2.8819 0
M  V30 18437 H 1823.53 0.0486033 -3.9207 0
M  V30 18438 H 1825.02 1.03071 -4.0468 0
M  V30 18439 N 1825.45 1.46436 -0.582609 0
M  V30 18440 C 1826.69 2.04277 -0.0708316 0
M  V30 18441 C 1827.06 1.4443 1.26507 0
M  V30 18442 O 1828.26 1.93472 1.86607 0
M  V30 18443 C 1826.53 3.574 -0.00593413 0
M  V30 18444 S 1828.09 4.36504 0.448283 0
M  V30 18445 H 1824.91 0.710014 -0.0374242 0
M  V30 18446 H 1827.51 1.79479 -0.775084 0
M  V30 18447 H 1826.21 3.98475 -0.982149 0
M  V30 18448 H 1825.74 3.86735 0.721092 0
M  V30 18449 H 1827.76 4.66059 1.70304 0
M  V30 18450 N 1826.93 0.320385 1.54309 0
M  V30 18451 C 1827.86 -0.580992 2.21714 0
M  V30 18452 C 1828.88 -1.08236 1.21609 0
M  V30 18453 O 1830.07 -0.996489 1.48096 0
M  V30 18454 C 1827.17 -1.80961 2.86542 0
M  V30 18455 C 1826.34 -1.44746 4.12756 0
M  V30 18456 C 1825.4 -2.53327 4.61207 0
M  V30 18457 O 1824.42 -2.17605 5.25963 0
M  V30 18458 N 1825.63 -3.84204 4.35164 0
M  V30 18459 H 1828.39 -0.00384608 2.997 0
M  V30 18460 H 1825.95 0.143444 1.61263 0
M  V30 18461 H 1827.94 -2.52985 3.1588 0
M  V30 18462 H 1826.51 -2.29468 2.12281 0
M  V30 18463 H 1825.73 -0.55899 3.90217 0
M  V30 18464 H 1827.02 -1.18116 4.949 0
M  V30 18465 H 1826.42 -4.16026 3.83326 0
M  V30 18466 H 1824.98 -4.52468 4.69165 0
M  V30 18467 N 1828.41 -1.57525 0.0484906 0
M  V30 18468 C 1829.32 -2.14854 -0.942076 0
M  V30 18469 C 1830.34 -1.10565 -1.34355 0
M  V30 18470 O 1831.51 -1.4272 -1.42102 0
M  V30 18471 C 1828.58 -2.68002 -2.19945 0
M  V30 18472 C 1827.64 -3.87078 -1.85658 0
M  V30 18473 C 1826.87 -4.37682 -3.05401 0
M  V30 18474 O 1827.09 -3.87373 -4.18687 0
M  V30 18475 O 1826.03 -5.29302 -2.86571 0
M  V30 18476 H 1829.85 -2.9981 -0.48453 0
M  V30 18477 H 1827.44 -1.48392 -0.173252 0
M  V30 18478 H 1829.32 -3.02167 -2.93722 0
M  V30 18479 H 1828 -1.86118 -2.64843 0
M  V30 18480 H 1826.9 -3.57806 -1.09205 0
M  V30 18481 H 1828.24 -4.70184 -1.45562 0
M  V30 18482 N 1829.89 0.224867 -1.55988 0
M  V30 18483 C 1831.3 0.792138 -1.69062 0
M  V30 18484 C 1831.65 1.85123 -0.649908 0
M  V30 18485 O 1830.77 2.15477 0.199614 0
M  V30 18486 C 1831.37 1.44361 -3.06505 0
M  V30 18487 C 1829.93 1.95831 -3.21446 0
M  V30 18488 C 1829.08 0.81728 -2.64983 0
M  V30 18489 H 1832.03 0.000270833 -1.587 0
M  V30 18490 H 1832.05 2.31233 -3.02178 0
M  V30 18491 H 1831.56 0.672544 -3.82228 0
M  V30 18492 H 1829.66 2.75749 -2.50586 0
M  V30 18493 H 1829.77 2.14056 -4.28622 0
M  V30 18494 H 1828.14 1.22371 -2.23377 0
M  V30 18495 H 1828.92 0.058944 -3.43249 0
M  V30 18496 N 1831.37 1.49742 0.491438 0
M  V30 18497 C 1832.61 1.59395 1.24248 0
M  V30 18498 C 1832.93 0.286934 1.92877 0
M  V30 18499 O 1832.2 -0.694353 1.83182 0
M  V30 18500 H 1830.78 0.587313 0.461598 0
M  V30 18501 H 1833.45 1.86417 0.56873 0
M  V30 18502 H 1832.54 2.39487 2.00131 0
M  V30 18503 N 1832.84 -0.743177 1.38977 0
M  V30 18504 C 1834.09 -1.49959 1.35486 0
M  V30 18505 C 1834.41 -1.94933 -0.0512044 0
M  V30 18506 O 1833.68 -1.684 -1.0009 0
M  V30 18507 H 1832.26 -0.556277 0.498562 0
M  V30 18508 H 1834.93 -0.882776 1.73762 0
M  V30 18509 H 1834.02 -2.38559 2.01237 0
M  V30 18510 N 1834.32 -1.24018 -0.972487 0
M  V30 18511 C 1835.25 -1.0529 -2.08414 0
M  V30 18512 C 1836.23 0.0326663 -1.70069 0
M  V30 18513 O 1837.42 -0.133494 -1.93741 0
M  V30 18514 C 1834.55 -0.651796 -3.41129 0
M  V30 18515 C 1833.5 -1.68559 -3.9341 0
M  V30 18516 C 1832.83 -1.1397 -5.22413 0
M  V30 18517 C 1834.13 -3.08046 -4.21788 0
M  V30 18518 H 1835.82 -1.98272 -2.2434 0
M  V30 18519 H 1833.37 -0.954694 -1.07804 0
M  V30 18520 H 1835.32 -0.507792 -4.18329 0
M  V30 18521 H 1834.05 0.313722 -3.2509 0
M  V30 18522 H 1832.7 -1.81773 -3.18362 0
M  V30 18523 H 1832.35 -0.164928 -5.0273 0
M  V30 18524 H 1832.05 -1.83051 -5.5836 0
M  V30 18525 H 1833.58 -1.00771 -6.02227 0
M  V30 18526 H 1834.99 -2.98088 -4.8971 0
M  V30 18527 H 1833.39 -3.74436 -4.68954 0
M  V30 18528 H 1834.46 -3.56444 -3.28749 0
M  V30 18529 N 1835.8 1.17245 -1.05316 0
M  V30 18530 C 1837.05 1.87813 -0.765112 0
M  V30 18531 C 1837.38 1.80907 0.706147 0
M  V30 18532 O 1836.65 1.21793 1.51647 0
M  V30 18533 C 1836.94 3.3779 -1.24779 0
M  V30 18534 C 1836.79 3.53441 -2.78208 0
M  V30 18535 C 1838.11 4.31857 -0.847805 0
M  V30 18536 H 1835.23 0.681979 -0.279415 0
M  V30 18537 H 1837.87 1.37869 -1.30737 0
M  V30 18538 H 1836.02 3.80456 -0.786487 0
M  V30 18539 H 1837.69 3.19782 -3.32472 0
M  V30 18540 H 1835.94 2.95678 -3.17423 0
M  V30 18541 H 1836.61 4.58725 -3.07043 0
M  V30 18542 H 1839.08 3.97039 -1.24496 0
M  V30 18543 H 1837.96 5.35326 -1.21313 0
M  V30 18544 H 1838.22 4.41403 0.248104 0
M  V30 18545 N 1837.28 0.834353 1.33702 0
M  V30 18546 C 1838.52 0.428521 1.98221 0
M  V30 18547 C 1838.86 -1.00858 1.65956 0
M  V30 18548 O 1838.13 -1.70437 0.937094 0
M  V30 18549 C 1838.42 0.644357 3.54288 0
M  V30 18550 C 1838.27 2.1284 3.96256 0
M  V30 18551 C 1839.59 0.0876063 4.40013 0
M  V30 18552 H 1836.71 0.15717 0.720046 0
M  V30 18553 H 1839.35 1.04903 1.58415 0
M  V30 18554 H 1837.5 0.116173 3.88326 0
M  V30 18555 H 1839.17 2.72111 3.72496 0
M  V30 18556 H 1837.41 2.61461 3.46151 0
M  V30 18557 H 1838.08 2.23019 5.04942 0
M  V30 18558 H 1840.56 0.539025 4.12594 0
M  V30 18559 H 1839.44 0.268345 5.48244 0
M  V30 18560 H 1839.7 -1.00829 4.30449 0
M  V30 18561 N 1838.76 -1.46125 0.590367 0
M  V30 18562 C 1840.17 -1.85962 0.165876 0
M  V30 18563 C 1840.52 -1.49296 -1.27299 0
M  V30 18564 O 1839.64 -0.911461 -1.96269 0
M  V30 18565 C 1840.24 -3.3752 0.294262 0
M  V30 18566 C 1838.8 -3.76324 -0.0754118 0
M  V30 18567 C 1837.94 -2.70126 0.626682 0
M  V30 18568 H 1840.9 -1.3717 0.79812 0
M  V30 18569 H 1840.92 -3.77482 -0.4783 0
M  V30 18570 H 1840.43 -3.64175 1.34159 0
M  V30 18571 H 1838.53 -3.55287 -1.12258 0
M  V30 18572 H 1838.64 -4.7812 0.306241 0
M  V30 18573 H 1837.01 -2.54614 0.0661219 0
M  V30 18574 H 1837.79 -2.99619 1.6758 0
M  V30 18575 N 1840.23 -0.328564 -1.54137 0
M  V30 18576 C 1841.65 0.158467 -1.86026 0
M  V30 18577 C 1842 1.51216 -1.25012 0
M  V30 18578 O 1841.12 2.09081 -0.558029 0
M  V30 18579 C 1841.72 0.294317 -3.37519 0
M  V30 18580 C 1840.28 0.72557 -3.69341 0
M  V30 18581 C 1839.42 -0.149724 -2.76895 0
M  V30 18582 H 1842.37 -0.548678 -1.48913 0
M  V30 18583 H 1842.39 1.12438 -3.63508 0
M  V30 18584 H 1841.91 -0.691071 -3.81898 0
M  V30 18585 H 1840.01 1.72052 -3.30498 0
M  V30 18586 H 1840.12 0.525853 -4.76205 0
M  V30 18587 H 1838.48 0.375531 -2.51916 0
M  V30 18588 H 1839.27 -1.13197 -3.24101 0
M  V30 18589 N 1841.71 1.57497 -0.0568439 0
M  V30 18590 C 1842.94 1.97231 0.625102 0
M  V30 18591 C 1843.36 0.934622 1.64043 0
M  V30 18592 O 1842.71 -0.0805064 1.82322 0
M  V30 18593 C 1842.76 3.37046 1.30698 0
M  V30 18594 O 1842.48 4.36838 0.332302 0
M  V30 18595 C 1843.99 3.9157 2.07816 0
M  V30 18596 H 1841.21 0.648975 0.170505 0
M  V30 18597 H 1843.75 2.04119 -0.124823 0
M  V30 18598 H 1841.9 3.31292 2.0081 0
M  V30 18599 H 1842.32 5.18055 0.819691 0
M  V30 18600 H 1843.79 4.91664 2.5094 0
M  V30 18601 H 1844.27 3.27303 2.92864 0
M  V30 18602 H 1844.88 4.0068 1.42603 0
M  V30 18603 N 1843.19 -0.216591 1.56105 0
M  V30 18604 C 1844.47 -0.964874 1.70146 0
M  V30 18605 C 1844.85 -2.02229 0.605524 0
M  V30 18606 O 1844.2 -2.25203 -0.386742 0
M  V30 18607 C 1844.41 -1.57082 3.11651 0
M  V30 18608 C 1845.75 -2.06118 3.71215 0
M  V30 18609 O 1846.78 -1.66966 3.14644 0
M  V30 18610 O 1845.64 -2.78095 4.70452 0
M  V30 18611 H 1842.73 -0.451047 0.693171 0
M  V30 18612 H 1845.28 -0.207982 1.68421 0
M  V30 18613 H 1844.05 -0.80754 3.82877 0
M  V30 18614 H 1843.67 -2.39312 3.17515 0
M  V30 18615 N 1844.67 -1.5 -0.48349 0
M  V30 18616 C 1845.63 -1.6742 -1.56535 0
M  V30 18617 C 1846.63 -0.545311 -1.51271 0
M  V30 18618 O 1847.82 -0.812112 -1.54112 0
M  V30 18619 C 1844.95 -1.6879 -2.9618 0
M  V30 18620 H 1846.15 -2.6393 -1.42412 0
M  V30 18621 H 1843.7 -1.39295 -0.708991 0
M  V30 18622 H 1844.43 -0.739285 -3.15761 0
M  V30 18623 H 1844.22 -2.50789 -3.01408 0
M  V30 18624 H 1845.71 -1.84264 -3.74749 0
M  V30 18625 N 1846.15 0.735796 -1.39369 0
M  V30 18626 C 1847.56 1.31402 -1.32628 0
M  V30 18627 C 1847.91 1.96198 0.00972836 0
M  V30 18628 O 1847.03 1.9625 0.91185 0
M  V30 18629 C 1847.63 2.38934 -2.402 0
M  V30 18630 C 1846.19 2.92432 -2.36982 0
M  V30 18631 C 1845.33 1.65992 -2.2213 0
M  V30 18632 H 1848.29 0.533364 -1.49469 0
M  V30 18633 H 1848.31 3.19304 -2.06942 0
M  V30 18634 H 1847.82 1.91745 -3.37425 0
M  V30 18635 H 1845.92 3.43903 -1.43394 0
M  V30 18636 H 1846.03 3.456 -3.31809 0
M  V30 18637 H 1844.4 1.90298 -1.69289 0
M  V30 18638 H 1845.18 1.20857 -3.21323 0
M  V30 18639 N 1847.63 1.24532 0.965897 0
M  V30 18640 C 1848.87 1.0877 1.71163 0
M  V30 18641 C 1849.2 -0.372297 1.90598 0
M  V30 18642 O 1848.48 -1.27503 1.46878 0
M  V30 18643 C 1848.76 1.83004 3.10131 0
M  V30 18644 C 1848.62 3.36765 2.98177 0
M  V30 18645 C 1849.93 1.60417 4.09822 0
M  V30 18646 H 1847.05 0.396528 0.621236 0
M  V30 18647 H 1849.7 1.53223 1.12351 0
M  V30 18648 H 1847.85 1.4522 3.60338 0
M  V30 18649 H 1849.52 3.84158 2.55382 0
M  V30 18650 H 1847.76 3.65053 2.34347 0
M  V30 18651 H 1848.43 3.83909 3.96633 0
M  V30 18652 H 1850.91 1.93289 3.68482 0
M  V30 18653 H 1849.78 2.14812 5.05121 0
M  V30 18654 H 1850.04 0.542843 4.38755 0
M  V30 18655 N 1849.1 -1.16685 1.05936 0
M  V30 18656 C 1850.33 -1.91576 0.794558 0
M  V30 18657 C 1850.75 -1.76706 -0.644718 0
M  V30 18658 O 1850.11 -1.0899 -1.44882 0
M  V30 18659 C 1850.16 -3.40417 1.18947 0
M  V30 18660 O 1849.26 -4.11109 0.326091 0
M  V30 18661 H 1848.6 -0.596983 0.290702 0
M  V30 18662 H 1851.13 -1.47856 1.4142 0
M  V30 18663 H 1851.14 -3.91178 1.15947 0
M  V30 18664 H 1849.82 -3.5056 2.23786 0
M  V30 18665 H 1848.4 -3.70557 0.417347 0
M  V30 18666 N 1850.58 -0.841432 -1.33258 0
M  V30 18667 C 1851.99 -0.494767 -1.80025 0
M  V30 18668 C 1852.34 0.986416 -1.696 0
M  V30 18669 O 1851.47 1.76874 -1.24678 0
M  V30 18670 C 1852.06 -0.891306 -3.26866 0
M  V30 18671 C 1850.62 -0.59674 -3.7164 0
M  V30 18672 C 1849.77 -1.09825 -2.54625 0
M  V30 18673 H 1852.72 -1.02989 -1.20743 0
M  V30 18674 H 1852.74 -0.202371 -3.79961 0
M  V30 18675 H 1852.25 -1.96937 -3.34421 0
M  V30 18676 H 1850.35 0.471153 -3.69609 0
M  V30 18677 H 1850.47 -1.15377 -4.65 0
M  V30 18678 H 1848.83 -0.519011 -2.49356 0
M  V30 18679 H 1849.61 -2.18314 -2.64941 0
M  V30 18680 N 1852.06 1.4581 -0.598108 0
M  V30 18681 C 1853.29 2.06679 -0.0956921 0
M  V30 18682 C 1853.7 1.44435 1.2159 0
M  V30 18683 O 1853.06 0.555104 1.73853 0
M  V30 18684 C 1853.11 3.61449 0.0604873 0
M  V30 18685 O 1852.83 4.21368 -1.1992 0
M  V30 18686 C 1854.33 4.39282 0.595466 0
M  V30 18687 H 1851.55 0.667893 -0.0644954 0
M  V30 18688 H 1854.1 1.87202 -0.823151 0
M  V30 18689 H 1852.25 3.80301 0.738231 0
M  V30 18690 H 1852.67 5.1443 -1.02282 0
M  V30 18691 H 1854.14 5.48114 0.653868 0
M  V30 18692 H 1854.62 4.084 1.61575 0
M  V30 18693 H 1855.22 4.25273 -0.0479171 0
M  V30 18694 N 1853.54 0.336733 1.53961 0
M  V30 18695 C 1854.77 -0.263446 2.05216 0
M  V30 18696 C 1855.18 -1.44752 1.21212 0
M  V30 18697 O 1854.54 -1.80837 0.245844 0
M  V30 18698 C 1854.59 -0.685127 3.54948 0
M  V30 18699 O 1854.31 0.451854 4.35764 0
M  V30 18700 C 1855.81 -1.34674 4.22348 0
M  V30 18701 H 1853.03 -0.0520687 0.668977 0
M  V30 18702 H 1855.57 0.486744 1.98623 0
M  V30 18703 H 1853.73 -1.38527 3.61786 0
M  V30 18704 H 1854.14 0.117076 5.24369 0
M  V30 18705 H 1855.62 -1.59261 5.28526 0
M  V30 18706 H 1856.09 -2.29818 3.74273 0
M  V30 18707 H 1856.7 -0.688817 4.19685 0
M  V30 18708 N 1855.02 -1.57465 0.0651956 0
M  V30 18709 C 1855.95 -2.15374 -0.902018 0
M  V30 18710 C 1856.93 -1.07904 -1.31494 0
M  V30 18711 O 1858.11 -1.35909 -1.38717 0
M  V30 18712 C 1855.24 -2.71005 -2.17195 0
M  V30 18713 C 1854.2 -3.83583 -1.89864 0
M  V30 18714 C 1853.52 -4.25789 -3.23432 0
M  V30 18715 C 1854.82 -5.08112 -1.20913 0
M  V30 18716 H 1856.52 -2.96445 -0.419631 0
M  V30 18717 H 1854.06 -1.42599 -0.200401 0
M  V30 18718 H 1856.01 -3.1016 -2.8527 0
M  V30 18719 H 1854.74 -1.87146 -2.67664 0
M  V30 18720 H 1853.4 -3.44921 -1.24197 0
M  V30 18721 H 1853.05 -3.38861 -3.71729 0
M  V30 18722 H 1852.75 -5.01673 -3.05938 0
M  V30 18723 H 1854.27 -4.67555 -3.92715 0
M  V30 18724 H 1855.68 -5.44624 -1.79046 0
M  V30 18725 H 1854.08 -5.8923 -1.137 0
M  V30 18726 H 1855.15 -4.84538 -0.187224 0
M  V30 18727 N 1856.49 0.20831 -1.56217 0
M  V30 18728 C 1857.72 0.945898 -1.83675 0
M  V30 18729 C 1858.13 1.77908 -0.643841 0
M  V30 18730 O 1857.47 1.79361 0.396885 0
M  V30 18731 C 1857.54 1.90219 -3.05052 0
M  V30 18732 C 1857.2 1.25224 -4.39509 0
M  V30 18733 C 1858.2 0.635617 -5.16 0
M  V30 18734 C 1855.88 1.26005 -4.86239 0
M  V30 18735 C 1857.88 0.0354655 -6.3739 0
M  V30 18736 C 1855.56 0.656058 -6.07568 0
M  V30 18737 C 1856.56 0.0448326 -6.82985 0
M  V30 18738 O 1856.25 -0.549727 -8.02018 0
M  V30 18739 H 1855.98 0.282151 -0.614302 0
M  V30 18740 H 1858.54 0.224595 -2.04168 0
M  V30 18741 H 1856.77 2.66284 -2.8041 0
M  V30 18742 H 1858.45 2.50644 -3.19268 0
M  V30 18743 H 1859.22 0.62182 -4.80997 0
M  V30 18744 H 1855.1 1.72519 -4.27502 0
M  V30 18745 H 1858.64 -0.442232 -6.96197 0
M  V30 18746 H 1854.54 0.667312 -6.42041 0
M  V30 18747 H 1855.31 -0.445338 -8.17288 0
M  V30 18748 N 1857.97 1.50255 0.475528 0
M  V30 18749 C 1859.22 1.61261 1.22975 0
M  V30 18750 C 1859.55 0.309949 1.91711 0
M  V30 18751 O 1858.83 -0.688288 1.81914 0
M  V30 18752 C 1859.11 2.7898 2.27688 0
M  V30 18753 C 1858.96 4.19115 1.63287 0
M  V30 18754 C 1860.28 2.9227 3.29038 0
M  V30 18755 H 1857.4 0.586933 0.445734 0
M  V30 18756 H 1860.04 1.82626 0.524177 0
M  V30 18757 H 1858.19 2.60894 2.87865 0
M  V30 18758 H 1859.86 4.48781 1.06741 0
M  V30 18759 H 1858.11 4.23579 0.936127 0
M  V30 18760 H 1858.78 4.97405 2.39359 0
M  V30 18761 H 1861.25 3.08813 2.78879 0
M  V30 18762 H 1860.13 3.7627 3.9964 0
M  V30 18763 H 1860.39 2.02696 3.92895 0
M  V30 18764 N 1859.45 -0.728395 1.39758 0
M  V30 18765 C 1860.36 -1.87279 1.41293 0
M  V30 18766 C 1861.38 -1.71271 0.306965 0
M  V30 18767 O 1862.55 -1.93759 0.549502 0
M  V30 18768 C 1859.62 -3.22943 1.2613 0
M  V30 18769 C 1858.68 -3.51297 2.46756 0
M  V30 18770 C 1857.91 -4.80489 2.32307 0
M  V30 18771 O 1858.13 -5.54676 1.33005 0
M  V30 18772 O 1857.07 -5.08891 3.21425 0
M  V30 18773 H 1860.89 -1.88939 2.37773 0
M  V30 18774 H 1858.48 -0.877103 1.20943 0
M  V30 18775 H 1860.36 -4.04003 1.19832 0
M  V30 18776 H 1859.04 -3.22039 0.327492 0
M  V30 18777 H 1857.94 -2.70298 2.58631 0
M  V30 18778 H 1859.28 -3.56986 3.38853 0
M  V30 18779 N 1860.93 -1.25042 -0.959279 0
M  V30 18780 C 1862.2 -1.00297 -1.67928 0
M  V30 18781 C 1862.58 0.47221 -2.05751 0
M  V30 18782 O 1861.93 1.44849 -1.76723 0
M  V30 18783 C 1862.14 -1.93416 -2.90502 0
M  V30 18784 C 1863.49 -2.20992 -3.62557 0
M  V30 18785 O 1864.51 -1.91136 -3.00575 0
M  V30 18786 O 1863.37 -2.71735 -4.74154 0
M  V30 18787 H 1860.47 -0.379984 -0.734535 0
M  V30 18788 H 1863.01 -1.36177 -1.01262 0
M  V30 18789 H 1861.79 -2.93045 -2.59308 0
M  V30 18790 H 1861.41 -1.57904 -3.649 0
M  V30 18791 N 1862.41 1.16121 -1.06553 0
M  V30 18792 C 1863.66 1.86055 -0.778871 0
M  V30 18793 C 1863.97 1.82747 0.697357 0
M  V30 18794 O 1865.17 2.48285 1.09849 0
M  V30 18795 C 1863.63 3.33897 -1.34315 0
M  V30 18796 C 1863.24 3.45673 -2.84981 0
M  V30 18797 C 1864.98 4.09069 -1.13415 0
M  V30 18798 C 1862.89 4.87616 -3.34641 0
M  V30 18799 H 1861.82 0.696963 -0.287678 0
M  V30 18800 H 1864.47 1.31038 -1.28458 0
M  V30 18801 H 1862.85 3.88536 -0.765208 0
M  V30 18802 H 1864.03 3.01181 -3.4875 0
M  V30 18803 H 1862.34 2.83938 -3.04579 0
M  V30 18804 H 1864.94 5.13809 -1.48002 0
M  V30 18805 H 1865.28 4.16237 -0.0726719 0
M  V30 18806 H 1865.81 3.60676 -1.67802 0
M  V30 18807 H 1862.55 4.85629 -4.40278 0
M  V30 18808 H 1862.07 5.32722 -2.75622 0
M  V30 18809 H 1863.75 5.56443 -3.30122 0
M  V30 18810 N 1863.88 0.848487 1.3281 0
M  V30 18811 C 1865.11 0.46174 2.02195 0
M  V30 18812 C 1865.53 -0.932159 1.63378 0
M  V30 18813 O 1864.89 -1.6112 0.831266 0
M  V30 18814 C 1864.94 0.601234 3.55552 0
M  V30 18815 O 1864.04 -0.368549 4.1075 0
M  V30 18816 H 1863.39 0.186379 0.637306 0
M  V30 18817 H 1865.92 1.14598 1.69495 0
M  V30 18818 H 1865.93 0.486456 4.0509 0
M  V30 18819 H 1864.6 1.61773 3.83148 0
M  V30 18820 H 1863.18 -0.210525 3.72305 0
M  V30 18821 N 1865.36 -1.4549 0.605832 0
M  V30 18822 C 1866.27 -2.34313 -0.115915 0
M  V30 18823 C 1867.29 -1.51136 -0.862199 0
M  V30 18824 O 1868.46 -1.83943 -0.820181 0
M  V30 18825 C 1865.53 -3.28724 -1.10188 0
M  V30 18826 C 1864.59 -4.27807 -0.357749 0
M  V30 18827 C 1863.82 -5.17707 -1.29675 0
M  V30 18828 O 1864.05 -5.10999 -2.53448 0
M  V30 18829 O 1862.98 -5.9663 -0.794767 0
M  V30 18830 H 1866.81 -2.97429 0.613981 0
M  V30 18831 H 1864.39 -1.44845 0.366103 0
M  V30 18832 H 1866.27 -3.86905 -1.6698 0
M  V30 18833 H 1864.95 -2.68175 -1.81284 0
M  V30 18834 H 1863.86 -3.73246 0.252588 0
M  V30 18835 H 1865.19 -4.91206 0.312682 0
M  V30 18836 N 1866.84 -0.344893 -1.5378 0
M  V30 18837 C 1868.25 0.138727 -1.86184 0
M  V30 18838 C 1868.6 1.49882 -1.26609 0
M  V30 18839 O 1867.73 2.08478 -0.580174 0
M  V30 18840 C 1868.32 0.258502 -3.37812 0
M  V30 18841 C 1866.88 0.686356 -3.70089 0
M  V30 18842 C 1866.03 -0.179085 -2.76721 0
M  V30 18843 H 1868.98 -0.564442 -1.48323 0
M  V30 18844 H 1869 1.08576 -3.6468 0
M  V30 18845 H 1868.51 -0.731538 -3.81143 0
M  V30 18846 H 1866.61 1.68537 -3.32304 0
M  V30 18847 H 1866.73 0.475315 -4.76736 0
M  V30 18848 H 1865.09 0.348791 -2.523 0
M  V30 18849 H 1865.87 -1.16628 -3.22882 0
M  V30 18850 N 1868.32 1.57428 -0.0735454 0
M  V30 18851 C 1869.73 1.80973 0.458858 0
M  V30 18852 C 1870.08 0.987586 1.69532 0
M  V30 18853 O 1869.21 0.210611 2.15373 0
M  V30 18854 C 1869.8 3.28241 0.839246 0
M  V30 18855 C 1868.36 3.52626 1.3165 0
M  V30 18856 C 1867.51 2.75645 0.302533 0
M  V30 18857 H 1870.46 1.55854 -0.299225 0
M  V30 18858 H 1870.48 3.40386 1.70052 0
M  V30 18859 H 1869.99 3.88052 -0.0608625 0
M  V30 18860 H 1868.09 2.98121 2.23505 0
M  V30 18861 H 1868.2 4.61316 1.29322 0
M  V30 18862 H 1866.57 2.42457 0.780179 0
M  V30 18863 H 1867.35 3.38194 -0.589878 0
M  V30 18864 N 1869.8 -0.200022 1.56326 0
M  V30 18865 C 1870.73 -1.25071 1.97179 0
M  V30 18866 C 1871.71 -1.4774 0.84303 0
M  V30 18867 O 1872.89 -1.5956 1.10699 0
M  V30 18868 C 1870.02 -2.596 2.30706 0
M  V30 18869 C 1868.98 -2.51552 3.46274 0
M  V30 18870 C 1868.3 -3.90309 3.65463 0
M  V30 18871 C 1869.6 -2.0448 4.80609 0
M  V30 18872 H 1871.3 -0.911238 2.85196 0
M  V30 18873 H 1868.84 -0.436899 1.37212 0
M  V30 18874 H 1870.8 -3.33281 2.5788 0
M  V30 18875 H 1869.52 -2.95278 1.39565 0
M  V30 18876 H 1868.18 -1.80327 3.19183 0
M  V30 18877 H 1867.83 -4.23331 2.71662 0
M  V30 18878 H 1867.53 -3.858 4.43207 0
M  V30 18879 H 1869.05 -4.65619 3.95008 0
M  V30 18880 H 1870.46 -2.67917 5.06847 0
M  V30 18881 H 1868.86 -2.10985 5.61788 0
M  V30 18882 H 1869.93 -0.997828 4.74522 0
M  V30 18883 N 1871.27 -1.50505 -0.467553 0
M  V30 18884 C 1872.22 -1.66014 -1.5628 0
M  V30 18885 C 1873.21 -0.51467 -1.52447 0
M  V30 18886 O 1874.4 -0.769238 -1.59411 0
M  V30 18887 C 1871.53 -1.76088 -2.947 0
M  V30 18888 C 1870.62 -2.96323 -3.03404 0
M  V30 18889 N 1871.01 -4.19951 -2.81913 0
M  V30 18890 C 1869.3 -2.94954 -3.34542 0
M  V30 18891 C 1870.01 -5.0095 -2.95676 0
M  V30 18892 N 1868.98 -4.34977 -3.26031 0
M  V30 18893 H 1872.78 -2.59289 -1.3837 0
M  V30 18894 H 1870.3 -1.47737 -0.674347 0
M  V30 18895 H 1872.29 -1.85303 -3.73455 0
M  V30 18896 H 1870.95 -0.839734 -3.13654 0
M  V30 18897 H 1871.97 -4.49391 -2.57426 0
M  V30 18898 H 1868.64 -2.12353 -3.59462 0
M  V30 18899 H 1870.03 -6.09268 -2.8327 0
M  V30 18900 N 1872.75 0.720973 -1.40142 0
M  V30 18901 C 1874.03 1.47356 -1.28629 0
M  V30 18902 C 1874.41 2.10873 0.0978138 0
M  V30 18903 O 1873.76 1.99717 1.1102 0
M  V30 18904 C 1873.97 2.51364 -2.4211 0
M  V30 18905 C 1875.32 3.17348 -2.82091 0
M  V30 18906 O 1876.34 2.61682 -2.41663 0
M  V30 18907 O 1875.2 4.1811 -3.51918 0
M  V30 18908 H 1872.29 0.655019 -0.504855 0
M  V30 18909 H 1874.84 0.753605 -1.52049 0
M  V30 18910 H 1873.61 2.02907 -3.34581 0
M  V30 18911 H 1873.23 3.30901 -2.20432 0
M  V30 18912 N 1874.23 1.25549 0.952634 0
M  V30 18913 C 1875.48 1.10416 1.69748 0
M  V30 18914 C 1875.81 -0.354517 1.91242 0
M  V30 18915 O 1875.06 -1.27756 1.48246 0
M  V30 18916 C 1875.36 1.80586 3.08421 0
M  V30 18917 C 1875.03 3.30504 3.06721 0
M  V30 18918 C 1873.69 3.71402 3.05965 0
M  V30 18919 C 1876.04 4.26275 2.99898 0
M  V30 18920 C 1873.37 5.06478 2.96137 0
M  V30 18921 C 1875.72 5.61378 2.91612 0
M  V30 18922 C 1874.38 6.01601 2.89192 0
M  V30 18923 H 1873.65 0.404041 0.621154 0
M  V30 18924 H 1876.3 1.55848 1.11283 0
M  V30 18925 H 1874.61 1.27592 3.70442 0
M  V30 18926 H 1876.3 1.66328 3.64878 0
M  V30 18927 H 1872.89 2.97965 3.08083 0
M  V30 18928 H 1877.08 3.95669 2.996 0
M  V30 18929 H 1872.33 5.3682 2.92633 0
M  V30 18930 H 1876.51 6.3528 2.85294 0
M  V30 18931 H 1874.13 7.06227 2.81333 0
M  V30 18932 N 1875.71 -1.15554 1.07168 0
M  V30 18933 C 1876.94 -1.89906 0.813588 0
M  V30 18934 C 1877.35 -1.78164 -0.636732 0
M  V30 18935 O 1876.69 -1.13 -1.44833 0
M  V30 18936 C 1876.75 -3.40937 1.14028 0
M  V30 18937 C 1876.42 -3.76465 2.59082 0
M  V30 18938 C 1877.41 -3.77643 3.57326 0
M  V30 18939 C 1875.1 -4.06829 2.94611 0
M  V30 18940 C 1877.09 -4.08688 4.89134 0
M  V30 18941 C 1874.78 -4.37539 4.26618 0
M  V30 18942 C 1875.78 -4.3845 5.23689 0
M  V30 18943 O 1875.46 -4.68425 6.53325 0
M  V30 18944 H 1875.2 -0.608773 0.293891 0
M  V30 18945 H 1877.75 -1.4735 1.43098 0
M  V30 18946 H 1875.98 -3.83884 0.465848 0
M  V30 18947 H 1877.67 -3.96575 0.865029 0
M  V30 18948 H 1878.44 -3.54286 3.31219 0
M  V30 18949 H 1874.31 -4.05279 2.19704 0
M  V30 18950 H 1877.86 -4.09315 5.64896 0
M  V30 18951 H 1873.76 -4.60363 4.52478 0
M  V30 18952 H 1874.52 -4.86198 6.58448 0
M  V30 18953 N 1877.19 -0.855519 -1.32358 0
M  V30 18954 C 1878.43 -0.465622 -1.99026 0
M  V30 18955 C 1878.79 0.960971 -1.66221 0
M  V30 18956 O 1879.99 1.45547 -2.25986 0
M  V30 18957 C 1878.26 -0.698892 -3.505 0
M  V30 18958 S 1879.82 -0.406697 -4.36911 0
M  V30 18959 H 1876.64 -0.1744 -0.689279 0
M  V30 18960 H 1879.24 -1.10842 -1.61041 0
M  V30 18961 H 1877.95 -1.73623 -3.71865 0
M  V30 18962 H 1877.48 -0.0425537 -3.93377 0
M  V30 18963 H 1879.49 0.766931 -4.90237 0
M  V30 18964 N 1878.67 1.45167 -0.61354 0
M  V30 18965 C 1879.89 2.07076 -0.115821 0
M  V30 18966 C 1880.32 1.45415 1.19315 0
M  V30 18967 O 1879.67 0.549046 1.72786 0
M  V30 18968 C 1879.72 3.606 0.00406239 0
M  V30 18969 O 1878.83 3.98737 1.05273 0
M  V30 18970 H 1878.17 0.659547 -0.0767679 0
M  V30 18971 H 1880.7 1.86325 -0.845236 0
M  V30 18972 H 1880.71 4.07508 0.200356 0
M  V30 18973 H 1879.38 4.04865 -0.951695 0
M  V30 18974 H 1877.96 3.6349 0.832424 0
M  V30 18975 N 1880.14 0.353044 1.53595 0
M  V30 18976 C 1881.56 0.0014839 1.596 0
M  V30 18977 C 1881.76 -1.47884 1.36867 0
M  V30 18978 O 1880.82 -2.23881 1.16762 0
M  V30 18979 C 1882.13 0.446178 2.97371 0
M  V30 18980 C 1883.68 0.399329 3.10442 0
M  V30 18981 C 1884.15 0.819639 4.50606 0
M  V30 18982 N 1885.64 0.7742 4.56684 0
M  V30 18983 C 1886.38 1.07126 5.63304 0
M  V30 18984 N 1885.87 1.43696 6.77734 0
M  V30 18985 N 1887.67 0.994874 5.53226 0
M  V30 18986 H 1879.82 1.31719 1.66625 0
M  V30 18987 H 1882.08 0.537571 0.780847 0
M  V30 18988 H 1881.79 1.47869 3.19105 0
M  V30 18989 H 1881.66 -0.173715 3.768 0
M  V30 18990 H 1884.05 -0.624023 2.88427 0
M  V30 18991 H 1884.13 1.05455 2.33051 0
M  V30 18992 H 1883.77 1.84105 4.73358 0
M  V30 18993 H 1883.7 0.141795 5.26409 0
M  V30 18994 H 1886.19 0.504609 3.74516 0
M  V30 18995 H 1886.51 1.64822 7.55019 0
M  V30 18996 H 1884.85 1.4755 6.79157 0
M  V30 18997 H 1888.04 0.70845 4.62708 0
M  V30 18998 H 1888.22 1.22972 6.36225 0
M  V30 18999 N 1881.62 -1.57387 0.0818932 0
M  V30 19000 C 1882.55 -2.16318 -0.879124 0
M  V30 19001 C 1883.53 -1.09293 -1.30342 0
M  V30 19002 O 1884.72 -1.37373 -1.37267 0
M  V30 19003 C 1881.85 -2.73293 -2.14308 0
M  V30 19004 C 1880.8 -3.85575 -1.85785 0
M  V30 19005 C 1880.13 -4.29195 -3.18897 0
M  V30 19006 C 1881.43 -5.09365 -1.15517 0
M  V30 19007 H 1883.12 -2.96873 -0.388166 0
M  V30 19008 H 1880.67 -1.42803 -0.185265 0
M  V30 19009 H 1882.62 -3.13168 -2.81964 0
M  V30 19010 H 1881.34 -1.89974 -2.65664 0
M  V30 19011 H 1880 -3.46219 -1.20532 0
M  V30 19012 H 1879.65 -3.42784 -3.68114 0
M  V30 19013 H 1879.35 -5.04889 -3.006 0
M  V30 19014 H 1880.88 -4.71694 -3.87734 0
M  V30 19015 H 1882.29 -5.46493 -1.73259 0
M  V30 19016 H 1880.69 -5.90403 -1.07444 0
M  V30 19017 H 1881.76 -4.8471 -0.135822 0
M  V30 19018 N 1883.1 0.191729 -1.56429 0
M  V30 19019 C 1884.03 1.24024 -1.97839 0
M  V30 19020 C 1885.01 1.47291 -0.850853 0
M  V30 19021 O 1886.2 1.58971 -1.11543 0
M  V30 19022 C 1883.33 2.58373 -2.32079 0
M  V30 19023 C 1882.28 2.49712 -3.47603 0
M  V30 19024 C 1881.61 3.88365 -3.67528 0
M  V30 19025 C 1882.91 2.01929 -4.81687 0
M  V30 19026 H 1884.6 0.8961 -2.85675 0
M  V30 19027 H 1882.15 0.429616 -1.37442 0
M  V30 19028 H 1884.1 3.31908 -2.59643 0
M  V30 19029 H 1882.82 2.94534 -1.41129 0
M  V30 19030 H 1881.48 1.78632 -3.20135 0
M  V30 19031 H 1881.13 4.21884 -2.73903 0
M  V30 19032 H 1880.83 3.83444 -4.45246 0
M  V30 19033 H 1882.35 4.63518 -3.97472 0
M  V30 19034 H 1883.77 2.65225 -5.0826 0
M  V30 19035 H 1882.16 2.08002 -5.62899 0
M  V30 19036 H 1883.23 0.972649 -4.75045 0
M  V30 19037 N 1884.58 1.50751 0.459565 0
M  V30 19038 C 1885.85 1.5284 1.22062 0
M  V30 19039 C 1886.23 0.279716 2.09239 0
M  V30 19040 O 1885.58 -0.73634 2.16311 0
M  V30 19041 C 1885.79 2.83046 2.04171 0
M  V30 19042 C 1887.14 3.34151 2.6197 0
M  V30 19043 O 1888.16 2.84446 2.14403 0
M  V30 19044 O 1887.02 4.20824 3.48668 0
M  V30 19045 H 1884.12 0.613549 0.554515 0
M  V30 19046 H 1886.66 1.63049 0.470445 0
M  V30 19047 H 1885.44 3.65397 1.40004 0
M  V30 19048 H 1885.06 2.75896 2.86299 0
M  V30 19049 N 1886.06 -0.713531 1.40522 0
M  V30 19050 C 1886.99 -1.8404 1.43707 0
M  V30 19051 C 1887.97 -1.67474 0.297751 0
M  V30 19052 O 1889.15 -1.87474 0.506662 0
M  V30 19053 C 1886.28 -3.22014 1.30094 0
M  V30 19054 C 1885.24 -3.53255 2.4165 0
M  V30 19055 C 1884.56 -4.90395 2.13113 0
M  V30 19056 C 1885.86 -3.54045 3.83991 0
M  V30 19057 H 1887.56 -1.81632 2.38013 0
M  V30 19058 H 1885.1 -0.872437 1.14562 0
M  V30 19059 H 1887.05 -4.00541 1.30938 0
M  V30 19060 H 1885.78 -3.25002 0.322648 0
M  V30 19061 H 1884.44 -2.77069 2.40059 0
M  V30 19062 H 1884.09 -4.89988 1.13669 0
M  V30 19063 H 1883.79 -5.12264 2.87853 0
M  V30 19064 H 1885.31 -5.71254 2.15642 0
M  V30 19065 H 1886.72 -4.22609 3.87395 0
M  V30 19066 H 1885.12 -3.87441 4.58268 0
M  V30 19067 H 1886.19 -2.53387 4.13428 0
M  V30 19068 N 1887.53 -1.26053 -0.945962 0
M  V30 19069 C 1888.78 -1.1148 -1.69411 0
M  V30 19070 C 1889.11 0.341927 -1.91166 0
M  V30 19071 O 1888.39 1.2515 -1.48888 0
M  V30 19072 C 1888.67 -1.87915 -3.07181 0
M  V30 19073 C 1888.52 -3.41466 -2.92781 0
M  V30 19074 C 1889.84 -1.66917 -4.07218 0
M  V30 19075 H 1886.96 -0.406361 -0.614849 0
M  V30 19076 H 1889.6 -1.54991 -1.099 0
M  V30 19077 H 1887.75 -1.50934 -3.57982 0
M  V30 19078 H 1889.43 -3.88172 -2.49238 0
M  V30 19079 H 1887.67 -3.68735 -2.2851 0
M  V30 19080 H 1888.34 -3.90171 -3.90475 0
M  V30 19081 H 1890.82 -1.99127 -3.6536 0
M  V30 19082 H 1889.69 -2.22821 -5.01639 0
M  V30 19083 H 1889.95 -0.612576 -4.37835 0
M  V30 19084 N 1889.01 1.14984 -1.07779 0
M  V30 19085 C 1890.26 1.85873 -0.803587 0
M  V30 19086 C 1890.59 1.82579 0.670472 0
M  V30 19087 O 1889.84 1.247 1.50826 0
M  V30 19088 C 1890.14 3.34355 -1.26259 0
M  V30 19089 C 1889.81 3.57842 -2.74335 0
M  V30 19090 C 1888.47 3.63961 -3.14779 0
M  V30 19091 C 1890.82 3.67191 -3.69893 0
M  V30 19092 C 1888.15 3.76944 -4.49589 0
M  V30 19093 C 1890.5 3.81698 -5.04469 0
M  V30 19094 C 1889.16 3.86064 -5.44528 0
M  V30 19095 H 1888.43 0.680157 -0.294053 0
M  V30 19096 H 1891.08 1.35862 -1.34959 0
M  V30 19097 H 1889.39 3.86603 -0.636057 0
M  V30 19098 H 1891.08 3.87619 -1.02727 0
M  V30 19099 H 1887.67 3.53723 -2.42028 0
M  V30 19100 H 1891.86 3.61759 -3.3977 0
M  V30 19101 H 1887.11 3.78583 -4.80088 0
M  V30 19102 H 1891.29 3.87873 -5.78383 0
M  V30 19103 H 1888.91 3.95876 -6.48989 0
M  V30 19104 N 1890.49 0.862526 1.31902 0
M  V30 19105 C 1891.42 0.328423 2.31179 0
M  V30 19106 C 1892.4 -0.57668 1.60026 0
M  V30 19107 O 1893.59 -0.49527 1.87778 0
M  V30 19108 C 1890.72 -0.47734 3.44004 0
M  V30 19109 C 1889.67 0.334015 4.26695 0
M  V30 19110 C 1889 -0.596973 5.31357 0
M  V30 19111 C 1890.3 1.56405 4.98332 0
M  V30 19112 H 1891.99 1.15797 2.761 0
M  V30 19113 H 1889.54 0.558268 1.32738 0
M  V30 19114 H 1891.49 -0.861461 4.12501 0
M  V30 19115 H 1890.21 -1.34033 2.9783 0
M  V30 19116 H 1888.87 0.699989 3.59855 0
M  V30 19117 H 1888.52 -1.45703 4.81435 0
M  V30 19118 H 1888.22 -0.0580517 5.87571 0
M  V30 19119 H 1889.74 -0.978099 6.02715 0
M  V30 19120 H 1891.16 1.25178 5.59467 0
M  V30 19121 H 1889.55 2.04149 5.64308 0
M  V30 19122 H 1890.62 2.32099 4.25744 0
M  V30 19123 N 1891.97 -1.4484 0.62123 0
M  V30 19124 C 1892.9 -2.33374 -0.0766286 0
M  V30 19125 C 1893.88 -1.47631 -0.844932 0
M  V30 19126 O 1895.06 -1.76373 -0.81278 0
M  V30 19127 C 1892.19 -3.30552 -1.0655 0
M  V30 19128 C 1891.15 -4.26037 -0.409496 0
M  V30 19129 C 1890.47 -5.13007 -1.50757 0
M  V30 19130 C 1891.77 -5.17881 0.677994 0
M  V30 19131 H 1893.47 -2.91975 0.662658 0
M  V30 19132 H 1891.01 -1.40397 0.320117 0
M  V30 19133 H 1892.97 -3.91367 -1.56237 0
M  V30 19134 H 1891.69 -2.70139 -1.83555 0
M  V30 19135 H 1890.35 -3.66539 0.0666321 0
M  V30 19136 H 1890 -4.48954 -2.26825 0
M  V30 19137 H 1889.7 -5.777 -1.07407 0
M  V30 19138 H 1891.22 -5.76692 -2.00645 0
M  V30 19139 H 1892.64 -5.72689 0.264637 0
M  V30 19140 H 1891.03 -5.91124 1.03405 0
M  V30 19141 H 1892.1 -4.59488 1.54914 0
M  V30 19142 N 1893.45 -0.361184 -1.53405 0
M  V30 19143 C 1894.72 0.286047 -1.93497 0
M  V30 19144 C 1895.1 1.66764 -1.29434 0
M  V30 19145 O 1894.45 2.23989 -0.451785 0
M  V30 19146 C 1894.66 0.340663 -3.47333 0
M  V30 19147 C 1896.01 0.58311 -4.20577 0
M  V30 19148 O 1897.03 0.422054 -3.53691 0
M  V30 19149 O 1895.89 0.896383 -5.39099 0
M  V30 19150 H 1892.99 0.17059 -0.809215 0
M  V30 19151 H 1895.53 -0.413648 -1.64581 0
M  V30 19152 H 1894.3 -0.628175 -3.86225 0
M  V30 19153 H 1893.93 1.08643 -3.82469 0
M  V30 19154 N 1894.92 1.57341 -0.0902386 0
M  V30 19155 C 1896.17 1.93793 0.573474 0
M  V30 19156 C 1896.49 0.972444 1.69022 0
M  V30 19157 O 1895.76 0.0236753 1.95886 0
M  V30 19158 H 1894.34 0.715442 0.21483 0
M  V30 19159 H 1897.01 1.94303 -0.15243 0
M  V30 19160 H 1896.1 2.96088 0.986829 0
M  V30 19161 N 1896.4 -0.183431 1.56529 0
M  V30 19162 C 1897.63 -0.921964 1.85781 0
M  V30 19163 C 1898.05 -1.75564 0.675184 0
M  V30 19164 O 1897.41 -1.7736 -0.375913 0
M  V30 19165 C 1897.46 -1.7844 3.13355 0
M  V30 19166 O 1896.56 -2.88461 2.94727 0
M  V30 19167 H 1895.9 -0.258974 0.611415 0
M  V30 19168 H 1898.43 -0.185225 2.0376 0
M  V30 19169 H 1898.44 -2.18675 3.44449 0
M  V30 19170 H 1897.12 -1.17195 3.99047 0
M  V30 19171 H 1895.7 -2.51897 2.74959 0
M  V30 19172 N 1897.88 -1.50992 -0.451564 0
M  V30 19173 C 1899.11 -1.67021 -1.22958 0
M  V30 19174 C 1899.53 -0.36115 -1.846 0
M  V30 19175 O 1898.89 0.677193 -1.68178 0
M  V30 19176 C 1898.94 -2.77744 -2.29979 0
M  V30 19177 O 1898.04 -2.40356 -3.35116 0
M  V30 19178 H 1897.38 -0.557369 -0.360882 0
M  V30 19179 H 1899.91 -1.97479 -0.535073 0
M  V30 19180 H 1899.92 -3.01406 -2.74988 0
M  V30 19181 H 1898.6 -3.72742 -1.84488 0
M  V30 19182 H 1897.17 -2.27214 -2.95683 0
M  V30 19183 N 1899.36 0.706069 -1.40899 0
M  V30 19184 C 1900.77 1.01535 -1.23137 0
M  V30 19185 C 1900.97 2.01181 -0.113293 0
M  V30 19186 O 1900.03 2.46966 0.525732 0
M  V30 19187 C 1901.34 1.54998 -2.57674 0
M  V30 19188 C 1902.89 1.66935 -2.64767 0
M  V30 19189 C 1903.37 2.23802 -3.99596 0
M  V30 19190 N 1904.86 2.31176 -4.01388 0
M  V30 19191 C 1905.59 2.76181 -5.02506 0
M  V30 19192 N 1905.09 3.20868 -6.14016 0
M  V30 19193 N 1906.88 2.7565 -4.89871 0
M  V30 19194 H 1899.03 0.045751 -2.12351 0
M  V30 19195 H 1901.3 0.0828835 -0.94437 0
M  V30 19196 H 1901 0.892393 -3.4019 0
M  V30 19197 H 1900.88 2.53377 -2.79428 0
M  V30 19198 H 1903.26 2.31808 -1.82617 0
M  V30 19199 H 1903.34 0.671301 -2.46834 0
M  V30 19200 H 1902.99 1.59547 -4.8219 0
M  V30 19201 H 1902.92 3.24339 -4.14864 0
M  V30 19202 H 1905.41 1.99627 -3.2087 0
M  V30 19203 H 1905.72 3.53803 -6.87054 0
M  V30 19204 H 1904.07 3.18803 -6.17568 0
M  V30 19205 H 1907.26 2.40081 -4.01844 0
M  V30 19206 H 1907.43 3.10407 -5.68816 0
M  V30 19207 N 1900.84 1.26553 0.939264 0
M  V30 19208 C 1901.77 1.10778 2.05549 0
M  V30 19209 C 1902.75 0.0124359 1.70095 0
M  V30 19210 O 1903.93 0.184814 1.93319 0
M  V30 19211 C 1901.06 0.742011 3.39281 0
M  V30 19212 C 1900.02 1.78931 3.88803 0
M  V30 19213 C 1899.34 1.2778 5.19207 0
M  V30 19214 C 1900.64 3.1912 4.13473 0
M  V30 19215 H 1902.34 2.04151 2.19004 0
M  V30 19216 H 1899.88 0.98294 1.05234 0
M  V30 19217 H 1901.84 0.618526 4.16836 0
M  V30 19218 H 1900.56 -0.22742 3.25807 0
M  V30 19219 H 1899.22 1.9015 3.13431 0
M  V30 19220 H 1898.87 0.298159 5.02116 0
M  V30 19221 H 1898.57 1.9779 5.53311 0
M  V30 19222 H 1900.09 1.16703 5.99344 0
M  V30 19223 H 1901.5 3.10967 4.81635 0
M  V30 19224 H 1899.9 3.86738 4.58862 0
M  V30 19225 H 1900.97 3.65034 3.19183 0
M  V30 19226 N 1902.31 -1.14411 1.08387 0
M  V30 19227 C 1903.54 -1.89848 0.835015 0
M  V30 19228 C 1903.96 -1.78034 -0.607091 0
M  V30 19229 O 1903.32 -1.12039 -1.42538 0
M  V30 19230 C 1903.37 -3.37818 1.26141 0
M  V30 19231 O 1902.47 -4.10325 0.41322 0
M  V30 19232 H 1901.82 -0.590682 0.303299 0
M  V30 19233 H 1904.35 -1.44823 1.44525 0
M  V30 19234 H 1904.36 -3.88631 1.24218 0
M  V30 19235 H 1903.03 -3.45735 2.31172 0
M  V30 19236 H 1901.61 -3.69589 0.495854 0
M  V30 19237 N 1903.79 -0.869509 -1.31443 0
M  V30 19238 C 1904.7 -0.328352 -2.32291 0
M  V30 19239 C 1905.72 0.561491 -1.64691 0
M  V30 19240 O 1906.89 0.458316 -1.96116 0
M  V30 19241 C 1903.96 0.461733 -3.43612 0
M  V30 19242 C 1903.02 -0.456015 -4.26871 0
M  V30 19243 C 1902.25 0.296458 -5.32876 0
M  V30 19244 O 1902.48 1.5246 -5.49647 0
M  V30 19245 O 1901.41 -0.345443 -6.00908 0
M  V30 19246 H 1905.24 -1.16424 -2.80498 0
M  V30 19247 H 1902.82 -0.632869 -1.35333 0
M  V30 19248 H 1904.7 0.90965 -4.11465 0
M  V30 19249 H 1903.38 1.27418 -2.97567 0
M  V30 19250 H 1902.29 -0.952421 -3.61773 0
M  V30 19251 H 1903.62 -1.23404 -4.76479 0
M  V30 19252 N 1905.27 1.44508 -0.628902 0
M  V30 19253 C 1906.23 2.291 0.0676501 0
M  V30 19254 C 1907.23 1.40921 0.77447 0
M  V30 19255 O 1908.42 1.62816 0.619397 0
M  V30 19256 C 1905.56 3.22448 1.10634 0
M  V30 19257 H 1906.75 2.92174 -0.676344 0
M  V30 19258 H 1904.3 1.51384 -0.388933 0
M  V30 19259 H 1905.04 2.64219 1.88039 0
M  V30 19260 H 1904.82 3.87428 0.603465 0
M  V30 19261 H 1906.31 3.86 1.59354 0
M  V30 19262 N 1906.75 0.369315 1.53212 0
M  V30 19263 C 1907.66 -0.483226 2.29569 0
M  V30 19264 C 1908.68 -1.08931 1.35684 0
M  V30 19265 O 1909.85 -1.09944 1.68743 0
M  V30 19266 C 1906.92 -1.60549 3.07286 0
M  V30 19267 C 1905.98 -1.02656 4.16846 0
M  V30 19268 C 1905.21 -2.09534 4.90847 0
M  V30 19269 O 1905.43 -3.30709 4.64745 0
M  V30 19270 O 1904.37 -1.72382 5.76687 0
M  V30 19271 H 1908.19 0.138246 3.03385 0
M  V30 19272 H 1905.78 0.133589 1.48802 0
M  V30 19273 H 1907.66 -2.25789 3.55805 0
M  V30 19274 H 1906.34 -2.21229 2.36303 0
M  V30 19275 H 1905.24 -0.337963 3.7257 0
M  V30 19276 H 1906.58 -0.464259 4.90006 0
M  V30 19277 N 1908.23 -1.57291 0.0985816 0
M  V30 19278 C 1909.47 -1.94478 -0.564304 0
M  V30 19279 C 1909.8 -0.980557 -1.67974 0
M  V30 19280 O 1909.06 -0.000761176 -1.957 0
M  V30 19281 C 1909.36 -3.38184 -1.15613 0
M  V30 19282 C 1909.02 -4.50601 -0.164125 0
M  V30 19283 C 1907.68 -4.81077 0.108706 0
M  V30 19284 C 1910.04 -5.18669 0.513033 0
M  V30 19285 C 1907.36 -5.76947 1.06533 0
M  V30 19286 C 1909.72 -6.15565 1.45815 0
M  V30 19287 C 1908.38 -6.44445 1.73918 0
M  V30 19288 H 1907.65 -0.711647 -0.206493 0
M  V30 19289 H 1910.3 -1.90697 0.175155 0
M  V30 19290 H 1908.6 -3.3856 -1.97191 0
M  V30 19291 H 1910.3 -3.6426 -1.67678 0
M  V30 19292 H 1906.89 -4.2685 -0.386958 0
M  V30 19293 H 1911.07 -4.95297 0.315398 0
M  V30 19294 H 1906.33 -5.97636 1.29002 0
M  V30 19295 H 1910.5 -6.67402 1.98865 0
M  V30 19296 H 1908.13 -7.1854 2.48201 0
M  V30 19297 N 1909.71 0.175127 -1.56624 0
M  V30 19298 C 1910.62 1.23691 -1.99343 0
M  V30 19299 C 1911.63 1.48662 -0.904197 0
M  V30 19300 O 1912.81 1.60885 -1.21153 0
M  V30 19301 C 1909.87 2.55689 -2.34145 0
M  V30 19302 C 1908.93 2.38614 -3.56878 0
M  V30 19303 C 1908.17 3.64318 -3.9001 0
M  V30 19304 O 1908.39 4.69335 -3.24162 0
M  V30 19305 O 1907.32 3.58655 -4.83373 0
M  V30 19306 H 1911.15 0.904314 -2.89924 0
M  V30 19307 H 1908.73 0.381697 -1.44442 0
M  V30 19308 H 1910.62 3.33562 -2.57516 0
M  V30 19309 H 1909.29 2.88535 -1.46728 0
M  V30 19310 H 1908.2 1.58786 -3.3873 0
M  V30 19311 H 1909.53 2.10694 -4.44825 0
M  V30 19312 N 1911.18 1.5123 0.44355 0
M  V30 19313 C 1912.43 1.63833 1.19527 0
M  V30 19314 C 1912.76 0.350544 1.9101 0
M  V30 19315 O 1912.04 -0.649546 1.83333 0
M  V30 19316 C 1912.32 2.83747 2.21719 0
M  V30 19317 C 1912.17 4.22484 1.5436 0
M  V30 19318 C 1913.49 2.99184 3.22765 0
M  V30 19319 H 1910.61 0.596256 0.433184 0
M  V30 19320 H 1913.25 1.83697 0.485321 0
M  V30 19321 H 1911.4 2.66942 2.82267 0
M  V30 19322 H 1913.08 4.50944 0.971976 0
M  V30 19323 H 1911.32 4.25469 0.846069 0
M  V30 19324 H 1911.99 5.0237 2.28754 0
M  V30 19325 H 1914.47 3.14659 2.72266 0
M  V30 19326 H 1913.34 3.84663 3.91569 0
M  V30 19327 H 1913.6 2.10984 3.88508 0
M  V30 19328 N 1912.66 -0.698586 1.41271 0
M  V30 19329 C 1913.59 -1.82505 1.4565 0
M  V30 19330 C 1914.57 -1.67149 0.315497 0
M  V30 19331 O 1915.76 -1.86926 0.526518 0
M  V30 19332 C 1912.89 -3.20616 1.33502 0
M  V30 19333 C 1911.84 -3.50672 2.45383 0
M  V30 19334 C 1911.17 -4.88107 2.18302 0
M  V30 19335 C 1912.47 -3.49952 3.87725 0
M  V30 19336 H 1914.16 -1.79098 2.39926 0
M  V30 19337 H 1911.71 -0.860237 1.15481 0
M  V30 19338 H 1913.66 -3.9913 1.35179 0
M  V30 19339 H 1912.38 -3.24642 0.357101 0
M  V30 19340 H 1911.04 -2.74507 2.42984 0
M  V30 19341 H 1910.69 -4.88755 1.1886 0
M  V30 19342 H 1910.39 -5.09182 2.9327 0
M  V30 19343 H 1911.92 -5.68934 2.21689 0
M  V30 19344 H 1913.33 -4.18476 3.91855 0
M  V30 19345 H 1911.73 -3.82559 4.62351 0
M  V30 19346 H 1912.8 -2.48988 4.16093 0
M  V30 19347 N 1914.14 -1.27049 -0.93254 0
M  V30 19348 C 1915.09 -1.09356 -2.03249 0
M  V30 19349 C 1916.06 0.00396271 -1.661 0
M  V30 19350 O 1917.24 -0.157449 -1.90149 0
M  V30 19351 C 1914.38 -0.741704 -3.37035 0
M  V30 19352 C 1913.49 -1.91636 -3.87169 0
M  V30 19353 C 1912.63 -1.50683 -5.0938 0
M  V30 19354 C 1911.67 -2.64927 -5.51797 0
M  V30 19355 N 1910.81 -2.24595 -6.65208 0
M  V30 19356 H 1915.65 -2.0348 -2.17715 0
M  V30 19357 H 1913.18 -1.01299 -1.06662 0
M  V30 19358 H 1915.14 -0.518546 -4.13965 0
M  V30 19359 H 1913.77 0.162576 -3.2239 0
M  V30 19360 H 1912.82 -2.2522 -3.06562 0
M  V30 19361 H 1914.13 -2.77353 -4.1458 0
M  V30 19362 H 1913.29 -1.24463 -5.93796 0
M  V30 19363 H 1912.03 -0.620687 -4.83734 0
M  V30 19364 H 1911.03 -2.91866 -4.65933 0
M  V30 19365 H 1912.26 -3.54154 -5.79441 0
M  V30 19366 H 1910.2 -1.38427 -6.41229 0
M  V30 19367 H 1910.12 -3.03853 -6.9225 0
M  V30 19368 H 1911.39 -2.0161 -7.52977 0
M  V30 19369 N 1915.62 1.13835 -1.08993 0
M  V30 19370 C 1916.58 2.17299 -0.728968 0
M  V30 19371 C 1917.58 1.5901 0.23923 0
M  V30 19372 O 1918.77 1.74191 0.0179935 0
M  V30 19373 C 1915.9 3.40812 -0.0772774 0
M  V30 19374 H 1917.1 2.50745 -1.64521 0
M  V30 19375 H 1914.65 1.28586 -0.888552 0
M  V30 19376 H 1915.38 3.12952 0.850403 0
M  V30 19377 H 1915.17 3.84387 -0.773873 0
M  V30 19378 H 1916.66 4.17293 0.160024 0
M  V30 19379 N 1917.1 0.876467 1.3098 0
M  V30 19380 C 1918.34 0.49064 1.96466 0
M  V30 19381 C 1918.67 -0.958443 1.69246 0
M  V30 19382 O 1917.93 -1.69096 0.985144 0
M  V30 19383 C 1918.22 0.70208 3.50436 0
M  V30 19384 C 1917.89 2.12494 3.9769 0
M  V30 19385 C 1916.55 2.51405 4.10303 0
M  V30 19386 C 1918.9 3.0526 4.22452 0
M  V30 19387 C 1916.23 3.82309 4.45035 0
M  V30 19388 C 1918.58 4.35686 4.5865 0
M  V30 19389 C 1917.25 4.74502 4.69472 0
M  V30 19390 H 1916.52 0.179538 0.718921 0
M  V30 19391 H 1919.17 1.1107 1.55999 0
M  V30 19392 H 1917.47 -0.00106996 3.918 0
M  V30 19393 H 1919.17 0.383279 3.99164 0
M  V30 19394 H 1915.76 1.81287 3.88372 0
M  V30 19395 H 1919.94 2.76422 4.12195 0
M  V30 19396 H 1915.2 4.12136 4.51612 0
M  V30 19397 H 1919.37 5.07612 4.76763 0
M  V30 19398 H 1917 5.75976 4.9614 0
M  V30 19399 N 1918.57 -1.44173 0.636557 0
M  V30 19400 C 1919.82 -2.02292 0.143429 0
M  V30 19401 C 1920.15 -1.49996 -1.23348 0
M  V30 19402 O 1919.43 -0.686228 -1.81992 0
M  V30 19403 C 1919.71 -3.59843 0.136025 0
M  V30 19404 C 1919.56 -4.22409 1.54566 0
M  V30 19405 C 1920.88 -4.36817 -0.536538 0
M  V30 19406 H 1918 -0.735049 0.0535939 0
M  V30 19407 H 1920.64 -1.71677 0.814066 0
M  V30 19408 H 1918.79 -3.86056 -0.435048 0
M  V30 19409 H 1920.47 -4.07284 2.16604 0
M  V30 19410 H 1918.71 -3.79696 2.09793 0
M  V30 19411 H 1919.38 -5.31441 1.49247 0
M  V30 19412 H 1921.86 -4.16069 -0.0508327 0
M  V30 19413 H 1920.73 -5.46517 -0.510926 0
M  V30 19414 H 1920.99 -4.11827 -1.60783 0
M  V30 19415 N 1920.05 -0.377435 -1.53014 0
M  V30 19416 C 1921.3 0.208838 -2.01722 0
M  V30 19417 C 1921.63 1.47446 -1.26385 0
M  V30 19418 O 1920.91 1.91122 -0.360903 0
M  V30 19419 C 1921.19 0.4888 -3.56767 0
M  V30 19420 C 1921.04 -0.791285 -4.42785 0
M  V30 19421 C 1922.36 1.28443 -4.2094 0
M  V30 19422 H 1919.48 0.0744281 -0.733232 0
M  V30 19423 H 1922.12 -0.504664 -1.83175 0
M  V30 19424 H 1920.27 1.09662 -3.72702 0
M  V30 19425 H 1921.94 -1.42848 -4.38625 0
M  V30 19426 H 1920.19 -1.40914 -4.10275 0
M  V30 19427 H 1920.86 -0.550199 -5.49251 0
M  V30 19428 H 1923.33 0.770147 -4.08911 0
M  V30 19429 H 1922.21 1.44906 -5.29427 0
M  V30 19430 H 1922.47 2.29631 -3.77786 0
M  V30 19431 N 1921.53 1.57237 -0.106922 0
M  V30 19432 C 1922.81 1.8627 0.596889 0
M  V30 19433 C 1923.19 1.00593 1.85591 0
M  V30 19434 O 1922.54 0.0815394 2.28354 0
M  V30 19435 C 1922.75 3.37171 0.900934 0
M  V30 19436 C 1924.09 4.05497 1.25926 0
M  V30 19437 O 1925.12 3.4212 0.99158 0
M  V30 19438 O 1923.98 5.17347 1.76109 0
M  V30 19439 H 1921.07 0.770704 0.299907 0
M  V30 19440 H 1923.62 1.69117 -0.140513 0
M  V30 19441 H 1922.39 3.91299 0.00823337 0
M  V30 19442 H 1922.01 3.59712 1.69391 0
M  V30 19443 N 1923.01 -0.166818 1.56715 0
M  V30 19444 C 1923.94 -1.23537 1.91869 0
M  V30 19445 C 1924.92 -1.42558 0.78204 0
M  V30 19446 O 1926.1 -1.57492 1.03578 0
M  V30 19447 C 1923.23 -2.5976 2.17353 0
M  V30 19448 C 1922.28 -2.57449 3.40033 0
M  V30 19449 S 1923.11 -2.06088 4.94255 0
M  V30 19450 C 1924.27 -3.4408 5.22838 0
M  V30 19451 H 1924.5 -0.935341 2.82203 0
M  V30 19452 H 1922.03 -0.371582 1.49862 0
M  V30 19453 H 1923.99 -3.38162 2.32716 0
M  V30 19454 H 1922.65 -2.86961 1.27719 0
M  V30 19455 H 1921.84 -3.5768 3.55079 0
M  V30 19456 H 1921.45 -1.87145 3.2381 0
M  V30 19457 H 1923.74 -4.40099 5.15092 0
M  V30 19458 H 1924.68 -3.33905 6.2443 0
M  V30 19459 H 1925.09 -3.403 4.50396 0
M  V30 19460 N 1924.49 -1.51463 -0.435524 0
M  V30 19461 C 1925.42 -1.67594 -1.54879 0
M  V30 19462 C 1926.4 -0.523516 -1.53942 0
M  V30 19463 O 1927.58 -0.747582 -1.73042 0
M  V30 19464 C 1924.71 -1.69117 -2.93457 0
M  V30 19465 C 1923.75 -2.90346 -3.12413 0
M  V30 19466 S 1924.59 -4.51129 -2.88518 0
M  V30 19467 C 1925.74 -4.554 -4.29374 0
M  V30 19468 H 1925.98 -2.61757 -1.40963 0
M  V30 19469 H 1923.51 -1.4117 -0.625338 0
M  V30 19470 H 1925.47 -1.70679 -3.73335 0
M  V30 19471 H 1924.13 -0.761275 -3.04735 0
M  V30 19472 H 1923.32 -2.87818 -4.13735 0
M  V30 19473 H 1922.92 -2.86534 -2.40362 0
M  V30 19474 H 1925.22 -4.31152 -5.22603 0
M  V30 19475 H 1926.16 -5.5722 -4.36935 0
M  V30 19476 H 1926.57 -3.84704 -4.13113 0
M  V30 19477 N 1925.96 0.691085 -1.4164 0
M  V30 19478 C 1926.87 1.83467 -1.46209 0
M  V30 19479 C 1927.89 1.70397 -0.352267 0
M  V30 19480 O 1929.07 1.92234 -0.60068 0
M  V30 19481 C 1926.13 3.19485 -1.34648 0
M  V30 19482 C 1925.19 3.44631 -2.55984 0
M  V30 19483 C 1924.43 4.7416 -2.44964 0
M  V30 19484 O 1924.65 5.50955 -1.47664 0
M  V30 19485 O 1923.58 5.0019 -3.34804 0
M  V30 19486 H 1927.41 1.82568 -2.42698 0
M  V30 19487 H 1924.99 0.844729 -1.23226 0
M  V30 19488 H 1926.88 4.00684 -1.30501 0
M  V30 19489 H 1925.55 3.21058 -0.41276 0
M  V30 19490 H 1924.46 2.63345 -2.65707 0
M  V30 19491 H 1925.79 3.47877 -3.48199 0
M  V30 19492 N 1927.44 1.27542 0.925789 0
M  V30 19493 C 1928.86 1.04988 1.20207 0
M  V30 19494 C 1929.06 -0.215359 2.00346 0
M  V30 19495 O 1928.11 -0.920331 2.3513 0
M  V30 19496 C 1929.43 2.2904 1.94836 0
M  V30 19497 C 1930.98 2.34098 2.07767 0
M  V30 19498 C 1931.45 3.57884 2.85802 0
M  V30 19499 N 1932.94 3.58453 2.93369 0
M  V30 19500 C 1933.68 4.50907 3.54218 0
M  V30 19501 N 1933.17 5.53667 4.16443 0
M  V30 19502 N 1934.97 4.38527 3.5164 0
M  V30 19503 H 1927.12 2.0878 0.390449 0
M  V30 19504 H 1929.38 0.918323 0.235346 0
M  V30 19505 H 1929.09 3.21151 1.4337 0
M  V30 19506 H 1928.96 2.34507 2.95442 0
M  V30 19507 H 1931.35 1.42492 2.58418 0
M  V30 19508 H 1931.43 2.32633 1.06375 0
M  V30 19509 H 1931.07 4.49828 2.35834 0
M  V30 19510 H 1931 3.56601 3.87484 0
M  V30 19511 H 1933.49 2.84138 2.49147 0
M  V30 19512 H 1933.81 6.20377 4.60817 0
M  V30 19513 H 1932.15 5.57507 4.14983 0
M  V30 19514 H 1935.34 3.57455 3.0223 0
M  V30 19515 H 1935.51 5.10769 3.98772 0
M  V30 19516 N 1928.92 -1.13255 1.09595 0
M  V30 19517 C 1929.85 -2.20827 0.758791 0
M  V30 19518 C 1930.83 -1.68034 -0.264325 0
M  V30 19519 O 1932.02 -1.93751 -0.132005 0
M  V30 19520 C 1929.15 -3.46831 0.180424 0
M  V30 19521 C 1928.1 -4.12724 1.13325 0
M  V30 19522 C 1927.43 -5.33075 0.416504 0
M  V30 19523 C 1928.73 -4.59862 2.47637 0
M  V30 19524 H 1930.42 -2.49287 1.65821 0
M  V30 19525 H 1927.97 -1.19818 0.798734 0
M  V30 19526 H 1929.92 -4.21346 -0.0675313 0
M  V30 19527 H 1928.64 -3.17773 -0.754194 0
M  V30 19528 H 1927.3 -3.40179 1.36651 0
M  V30 19529 H 1926.95 -5.00281 -0.522308 0
M  V30 19530 H 1926.65 -5.78109 1.05183 0
M  V30 19531 H 1928.17 -6.10344 0.17689 0
M  V30 19532 H 1929.59 -5.25791 2.28509 0
M  V30 19533 H 1927.99 -5.15642 3.06974 0
M  V30 19534 H 1929.06 -3.74294 3.08273 0
M  V30 19535 N 1930.4 -0.883401 -1.30514 0
M  V30 19536 C 1931.81 -0.577183 -1.48798 0
M  V30 19537 C 1932.01 0.885462 -1.81002 0
M  V30 19538 O 1931.07 1.66679 -1.89669 0
M  V30 19539 C 1932.38 -1.48898 -2.61247 0
M  V30 19540 C 1933.93 -1.49244 -2.75128 0
M  V30 19541 C 1934.41 -2.39012 -3.90688 0
M  V30 19542 N 1935.9 -2.36967 -3.97996 0
M  V30 19543 C 1936.63 -3.03138 -4.86718 0
M  V30 19544 N 1936.13 -3.78529 -5.80248 0
M  V30 19545 N 1937.92 -2.92378 -4.80074 0
M  V30 19546 H 1930.07 -1.82963 -1.07882 0
M  V30 19547 H 1932.34 -0.783078 -0.534315 0
M  V30 19548 H 1932.04 -2.53035 -2.44266 0
M  V30 19549 H 1931.92 -1.19739 -3.5769 0
M  V30 19550 H 1934.3 -0.458579 -2.91515 0
M  V30 19551 H 1934.38 -1.82432 -1.7931 0
M  V30 19552 H 1934.03 -3.42482 -3.75058 0
M  V30 19553 H 1933.96 -2.03141 -4.85841 0
M  V30 19554 H 1936.45 -1.82179 -3.31088 0
M  V30 19555 H 1936.76 -4.26115 -6.44706 0
M  V30 19556 H 1935.11 -3.82636 -5.80185 0
M  V30 19557 H 1938.3 -2.33008 -4.05986 0
M  V30 19558 H 1938.47 -3.44225 -5.49011 0
M  V30 19559 N 1931.88 1.43833 -0.644194 0
M  V30 19560 C 1933.13 2.01132 -0.151307 0
M  V30 19561 C 1933.44 1.51363 1.23889 0
M  V30 19562 O 1934.64 2.00876 1.8265 0
M  V30 19563 C 1933.1 3.59229 -0.219714 0
M  V30 19564 C 1932.71 4.17992 -1.61204 0
M  V30 19565 C 1934.45 4.2395 0.216034 0
M  V30 19566 C 1932.36 5.68354 -1.63486 0
M  V30 19567 H 1931.29 0.752149 -0.052802 0
M  V30 19568 H 1933.94 1.64904 -0.804907 0
M  V30 19569 H 1932.32 3.92815 0.501229 0
M  V30 19570 H 1933.5 3.95921 -2.35761 0
M  V30 19571 H 1931.81 3.65608 -1.99299 0
M  V30 19572 H 1934.41 5.34253 0.218703 0
M  V30 19573 H 1934.75 3.97222 1.24581 0
M  V30 19574 H 1935.28 3.95214 -0.452852 0
M  V30 19575 H 1932.02 5.99836 -2.64343 0
M  V30 19576 H 1931.54 5.92508 -0.93241 0
M  V30 19577 H 1933.22 6.3223 -1.37458 0
M  V30 19578 N 1933.35 0.385544 1.52811 0
M  V30 19579 C 1934.58 -0.200568 2.06428 0
M  V30 19580 C 1935 -1.40049 1.2557 0
M  V30 19581 O 1934.36 -1.79128 0.279782 0
M  V30 19582 C 1934.41 -0.552623 3.5634 0
M  V30 19583 O 1933.51 -1.64711 3.7808 0
M  V30 19584 H 1932.86 -0.0244676 0.663549 0
M  V30 19585 H 1935.39 0.551927 1.97015 0
M  V30 19586 H 1935.4 -0.817996 3.99716 0
M  V30 19587 H 1934.07 0.324665 4.14631 0
M  V30 19588 H 1932.65 -1.37574 3.46595 0
M  V30 19589 N 1934.83 -1.57178 0.115259 0
M  V30 19590 C 1935.76 -2.1218 -0.866728 0
M  V30 19591 C 1936.78 -1.06365 -1.23249 0
M  V30 19592 O 1937.97 -1.33749 -1.18209 0
M  V30 19593 C 1935.07 -2.60337 -2.16975 0
M  V30 19594 C 1934.24 -3.90209 -1.97625 0
M  V30 19595 C 1933.3 -4.24003 -3.11622 0
M  V30 19596 O 1932.32 -4.92884 -2.847 0
M  V30 19597 N 1933.53 -3.81022 -4.37953 0
M  V30 19598 H 1936.29 -2.97061 -0.396835 0
M  V30 19599 H 1933.85 -1.61752 -0.0692734 0
M  V30 19600 H 1935.84 -2.79976 -2.92225 0
M  V30 19601 H 1934.41 -1.80356 -2.55324 0
M  V30 19602 H 1933.63 -3.79516 -1.06589 0
M  V30 19603 H 1934.92 -4.75137 -1.81996 0
M  V30 19604 H 1934.32 -3.25459 -4.62702 0
M  V30 19605 H 1932.88 -4.05777 -5.10086 0
M  V30 19606 N 1936.31 0.158505 -1.56801 0
M  V30 19607 C 1937.26 1.196 -1.97394 0
M  V30 19608 C 1938.23 1.43308 -0.839765 0
M  V30 19609 O 1939.41 1.55835 -1.10092 0
M  V30 19610 C 1936.55 2.52729 -2.34994 0
M  V30 19611 C 1935.67 2.36292 -3.61649 0
M  V30 19612 C 1934.8 3.62376 -3.88403 0
M  V30 19613 C 1933.84 3.40927 -5.08365 0
M  V30 19614 N 1932.98 4.59112 -5.31188 0
M  V30 19615 H 1937.82 0.842837 -2.85833 0
M  V30 19616 H 1935.35 0.404744 -1.41422 0
M  V30 19617 H 1937.31 3.30337 -2.5482 0
M  V30 19618 H 1935.94 2.86016 -1.49649 0
M  V30 19619 H 1934.99 1.49795 -3.49665 0
M  V30 19620 H 1936.31 2.16397 -4.49415 0
M  V30 19621 H 1935.46 4.48417 -4.08665 0
M  V30 19622 H 1934.2 3.85264 -2.99037 0
M  V30 19623 H 1933.2 2.53274 -4.87988 0
M  V30 19624 H 1934.43 3.19449 -5.99274 0
M  V30 19625 H 1932.38 4.82195 -4.44774 0
M  V30 19626 H 1932.29 4.42177 -6.13201 0
M  V30 19627 H 1933.56 5.46399 -5.55939 0
M  V30 19628 N 1937.79 1.51692 0.427485 0
M  V30 19629 C 1939.04 1.66051 1.17468 0
M  V30 19630 C 1939.39 0.376785 1.88675 0
M  V30 19631 O 1938.68 -0.627916 1.81019 0
M  V30 19632 C 1938.88 2.80871 2.21011 0
M  V30 19633 C 1938.71 4.20286 1.59969 0
M  V30 19634 C 1937.48 4.86081 1.38033 0
M  V30 19635 C 1939.67 5.03035 1.07054 0
M  V30 19636 N 1937.66 6.09581 0.726917 0
M  V30 19637 C 1939.03 6.17618 0.54297 0
M  V30 19638 C 1941.08 4.88494 0.96324 0
M  V30 19639 C 1939.79 7.19254 -0.0813641 0
M  V30 19640 C 1941.81 5.90347 0.352786 0
M  V30 19641 C 1941.17 7.04209 -0.164194 0
M  V30 19642 H 1937.27 0.661434 0.417167 0
M  V30 19643 H 1939.86 1.88948 0.469779 0
M  V30 19644 H 1938.03 2.59622 2.88879 0
M  V30 19645 H 1939.76 2.8436 2.8796 0
M  V30 19646 H 1936.51 4.44121 1.6448 0
M  V30 19647 H 1936.94 6.75712 0.417364 0
M  V30 19648 H 1941.58 4.00709 1.34879 0
M  V30 19649 H 1939.3 8.06679 -0.479018 0
M  V30 19650 H 1942.88 5.81166 0.271533 0
M  V30 19651 H 1941.76 7.81672 -0.629128 0
M  V30 19652 N 1939.27 -0.683564 1.42004 0
M  V30 19653 C 1940.51 -1.44577 1.42216 0
M  V30 19654 C 1940.85 -1.94168 0.0352735 0
M  V30 19655 O 1940.12 -1.70331 -0.939023 0
M  V30 19656 C 1940.4 -2.64909 2.43916 0
M  V30 19657 C 1940.26 -2.21006 3.9176 0
M  V30 19658 C 1941.58 -3.6712 2.42716 0
M  V30 19659 H 1938.7 -0.524376 0.517879 0
M  V30 19660 H 1941.34 -0.777575 1.7336 0
M  V30 19661 H 1939.49 -3.21918 2.17489 0
M  V30 19662 H 1941.16 -1.69233 4.29136 0
M  V30 19663 H 1939.4 -1.52667 4.06048 0
M  V30 19664 H 1940.07 -3.07401 4.58485 0
M  V30 19665 H 1942.55 -3.1981 2.66197 0
M  V30 19666 H 1941.43 -4.48907 3.15869 0
M  V30 19667 H 1941.69 -4.17645 1.45 0
M  V30 19668 N 1940.75 -1.28031 -0.919012 0
M  V30 19669 C 1942.16 -1.05624 -1.19649 0
M  V30 19670 C 1942.36 0.204731 -2.00457 0
M  V30 19671 O 1941.42 0.907849 -2.35615 0
M  V30 19672 C 1942.73 -2.3007 -1.93619 0
M  V30 19673 C 1944.28 -2.35196 -2.06523 0
M  V30 19674 C 1944.75 -3.59395 -2.839 0
M  V30 19675 N 1946.24 -3.60004 -2.91464 0
M  V30 19676 C 1946.98 -4.52779 -3.51822 0
M  V30 19677 N 1946.48 -5.55868 -4.13501 0
M  V30 19678 N 1948.27 -4.40385 -3.4931 0
M  V30 19679 H 1940.42 -2.08985 -0.379372 0
M  V30 19680 H 1942.68 -0.919558 -0.230473 0
M  V30 19681 H 1942.39 -3.21907 -1.41665 0
M  V30 19682 H 1942.26 -2.36071 -2.94195 0
M  V30 19683 H 1944.65 -1.4386 -2.57659 0
M  V30 19684 H 1944.73 -2.33194 -1.0514 0
M  V30 19685 H 1944.37 -4.51072 -2.33445 0
M  V30 19686 H 1944.3 -3.58651 -3.85587 0
M  V30 19687 H 1946.8 -2.85455 -2.47637 0
M  V30 19688 H 1947.11 -6.22812 -4.57521 0
M  V30 19689 H 1945.45 -5.597 -4.12021 0
M  V30 19690 H 1948.64 -3.59053 -3.0033 0
M  V30 19691 H 1948.82 -5.12877 -3.96057 0
M  V30 19692 N 1942.22 1.12672 -1.10194 0
M  V30 19693 C 1943.47 1.84399 -0.844081 0
M  V30 19694 C 1943.8 1.83739 0.628782 0
M  V30 19695 O 1943.08 1.28115 1.46345 0
M  V30 19696 C 1943.36 3.32194 -1.38994 0
M  V30 19697 C 1943.21 3.41323 -2.92948 0
M  V30 19698 C 1944.53 4.27872 -1.03021 0
M  V30 19699 H 1941.65 0.669515 -0.308089 0
M  V30 19700 H 1944.29 1.322 -1.36467 0
M  V30 19701 H 1942.44 3.76778 -0.947144 0
M  V30 19702 H 1944.12 3.05393 -3.45735 0
M  V30 19703 H 1942.36 2.81948 -3.29678 0
M  V30 19704 H 1943.03 4.45289 -3.26223 0
M  V30 19705 H 1945.51 3.91401 -1.41224 0
M  V30 19706 H 1944.38 5.29699 -1.43909 0
M  V30 19707 H 1944.64 4.42058 0.0606669 0
M  V30 19708 N 1943.7 0.89031 1.30043 0
M  V30 19709 C 1944.66 0.365912 2.2626 0
M  V30 19710 C 1945.66 -0.494616 1.53004 0
M  V30 19711 O 1946.85 -0.301009 1.7158 0
M  V30 19712 C 1943.99 -0.477952 3.37533 0
M  V30 19713 H 1945.18 1.21557 2.7416 0
M  V30 19714 H 1942.73 0.667628 1.41324 0
M  V30 19715 H 1943.47 -1.34798 2.94958 0
M  V30 19716 H 1943.25 0.138514 3.91855 0
M  V30 19717 H 1944.74 -0.836463 4.09137 0
M  V30 19718 N 1945.18 -1.43489 0.651812 0
M  V30 19719 C 1946.43 -2.02129 0.164876 0
M  V30 19720 C 1946.76 -1.51296 -1.2175 0
M  V30 19721 O 1946.03 -0.705492 -1.81254 0
M  V30 19722 C 1946.32 -3.59678 0.174184 0
M  V30 19723 C 1946.17 -4.20746 1.59038 0
M  V30 19724 C 1947.49 -4.37362 -0.490177 0
M  V30 19725 H 1944.61 -0.734439 0.0613871 0
M  V30 19726 H 1947.25 -1.70804 0.832229 0
M  V30 19727 H 1945.4 -3.86496 -0.394077 0
M  V30 19728 H 1947.07 -4.04964 2.20912 0
M  V30 19729 H 1945.31 -3.7745 2.13809 0
M  V30 19730 H 1945.99 -5.29828 1.54876 0
M  V30 19731 H 1948.46 -4.16099 -0.00670015 0
M  V30 19732 H 1947.34 -5.47028 -0.452932 0
M  V30 19733 H 1947.6 -4.13509 -1.56406 0
M  V30 19734 N 1946.66 -0.393643 -1.52605 0
M  V30 19735 C 1947.9 0.187431 -2.01932 0
M  V30 19736 C 1948.24 1.46098 -1.27942 0
M  V30 19737 O 1947.51 1.90729 -0.381154 0
M  V30 19738 C 1947.79 0.450933 -3.57265 0
M  V30 19739 C 1947.65 -0.838204 -4.41921 0
M  V30 19740 C 1948.97 1.23971 -4.22278 0
M  V30 19741 H 1946.09 0.0666471 -0.73398 0
M  V30 19742 H 1948.73 -0.524064 -1.8263 0
M  V30 19743 H 1946.88 1.05703 -3.73844 0
M  V30 19744 H 1948.55 -1.47492 -4.37086 0
M  V30 19745 H 1946.79 -1.45258 -4.08757 0
M  V30 19746 H 1947.46 -0.608424 -5.48637 0
M  V30 19747 H 1949.94 0.726733 -4.09705 0
M  V30 19748 H 1948.82 1.39283 -5.30935 0
M  V30 19749 H 1949.08 2.25611 -3.802 0
M  V30 19750 N 1948.14 1.57115 -0.123593 0
M  V30 19751 C 1949.05 2.19104 0.838493 0
M  V30 19752 C 1950.06 1.1685 1.28927 0
M  V30 19753 O 1951.24 1.49337 1.35131 0
M  V30 19754 C 1948.3 2.78191 2.06908 0
M  V30 19755 C 1947.36 3.95495 1.66979 0
M  V30 19756 C 1946.6 4.51755 2.84171 0
M  V30 19757 O 1946.82 4.06908 3.99728 0
M  V30 19758 O 1945.75 5.42372 2.60991 0
M  V30 19759 H 1949.58 3.0178 0.340935 0
M  V30 19760 H 1947.16 1.4905 0.102255 0
M  V30 19761 H 1949.05 3.15837 2.78971 0
M  V30 19762 H 1947.72 1.98542 2.55661 0
M  V30 19763 H 1946.63 3.62609 0.920091 0
M  V30 19764 H 1947.96 4.76593 1.22963 0
M  V30 19765 N 1949.61 -0.150187 1.56883 0
M  V30 19766 C 1950.84 -0.877076 1.87059 0
M  V30 19767 C 1951.25 -1.75396 0.709427 0
M  V30 19768 O 1950.59 -1.80711 -0.330043 0
M  V30 19769 C 1950.66 -1.78766 3.11902 0
M  V30 19770 C 1950.32 -1.08826 4.43853 0
M  V30 19771 C 1951.32 -0.443669 5.18003 0
M  V30 19772 C 1949 -1.07872 4.9058 0
M  V30 19773 C 1951 0.201122 6.37083 0
M  V30 19774 C 1948.68 -0.430111 6.09584 0
M  V30 19775 C 1949.68 0.208684 6.82681 0
M  V30 19776 O 1949.37 0.847012 7.99425 0
M  V30 19777 H 1949.1 -0.259157 0.62435 0
M  V30 19778 H 1951.66 -0.148664 2.04861 0
M  V30 19779 H 1949.89 -2.55693 2.901 0
M  V30 19780 H 1951.57 -2.38622 3.28351 0
M  V30 19781 H 1952.34 -0.442872 4.82974 0
M  V30 19782 H 1948.22 -1.56534 4.33611 0
M  V30 19783 H 1951.76 0.700316 6.94076 0
M  V30 19784 H 1947.66 -0.428563 6.44076 0
M  V30 19785 H 1948.43 0.748362 8.15072 0
M  V30 19786 N 1951.09 -1.51916 -0.419434 0
M  V30 19787 C 1952.04 -1.70902 -1.50919 0
M  V30 19788 C 1953.03 -0.562909 -1.50732 0
M  V30 19789 O 1954.22 -0.819564 -1.56883 0
M  V30 19790 C 1951.35 -1.85375 -2.88948 0
M  V30 19791 C 1950.43 -3.05825 -2.93823 0
M  V30 19792 N 1950.82 -4.28707 -2.6841 0
M  V30 19793 C 1949.12 -3.05448 -3.24989 0
M  V30 19794 C 1949.82 -5.10103 -2.79589 0
M  V30 19795 N 1948.8 -4.45129 -3.12028 0
M  V30 19796 H 1952.6 -2.6356 -1.30051 0
M  V30 19797 H 1950.12 -1.49808 -0.627004 0
M  V30 19798 H 1952.11 -1.9709 -3.6737 0
M  V30 19799 H 1950.77 -0.939096 -3.10823 0
M  V30 19800 H 1951.78 -4.57353 -2.42999 0
M  V30 19801 H 1948.46 -2.23681 -3.52524 0
M  V30 19802 H 1949.85 -6.17972 -2.63743 0
M  V30 19803 N 1952.57 0.676023 -1.42365 0
M  V30 19804 C 1953.85 1.43189 -1.33252 0
M  V30 19805 C 1954.23 2.11078 0.0306765 0
M  V30 19806 O 1953.58 2.03148 1.0461 0
M  V30 19807 C 1953.79 2.43534 -2.49984 0
M  V30 19808 C 1955.13 3.08213 -2.92044 0
M  V30 19809 O 1956.16 2.53861 -2.49866 0
M  V30 19810 O 1955.02 4.06702 -3.65042 0
M  V30 19811 H 1952.11 0.638626 -0.525438 0
M  V30 19812 H 1954.66 0.704851 -1.5437 0
M  V30 19813 H 1953.43 1.92159 -3.40867 0
M  V30 19814 H 1953.05 3.23721 -2.30847 0
M  V30 19815 N 1954.05 1.28517 0.912209 0
M  V30 19816 C 1955.3 1.15532 1.65822 0
M  V30 19817 C 1955.62 -0.296177 1.92738 0
M  V30 19818 O 1954.89 -1.20492 1.54462 0
M  V30 19819 H 1953.47 0.424573 0.614611 0
M  V30 19820 H 1956.13 1.61267 1.09448 0
M  V30 19821 H 1955.23 1.69606 2.61993 0
M  V30 19822 N 1955.53 -1.12086 1.1079 0
M  V30 19823 C 1956.75 -1.88034 0.875097 0
M  V30 19824 C 1957.18 -1.79281 -0.569191 0
M  V30 19825 O 1956.53 -1.15037 -1.40129 0
M  V30 19826 C 1956.58 -3.35066 1.33278 0
M  V30 19827 O 1955.69 -4.09356 0.500163 0
M  V30 19828 H 1955.03 -0.584116 0.31576 0
M  V30 19829 H 1957.56 -1.41725 1.47564 0
M  V30 19830 H 1957.57 -3.85908 1.32434 0
M  V30 19831 H 1956.24 -3.40753 2.38453 0
M  V30 19832 H 1954.82 -3.68454 0.574137 0
M  V30 19833 N 1957 -0.897194 -1.29569 0
M  V30 19834 C 1957.95 -0.344408 -2.25384 0
M  V30 19835 C 1958.94 0.534097 -1.51777 0
M  V30 19836 O 1960.13 0.376524 -1.72949 0
M  V30 19837 C 1957.26 0.429246 -3.40606 0
M  V30 19838 C 1956.35 -0.464038 -4.21554 0
M  V30 19839 N 1956.74 -1.57011 -4.80813 0
M  V30 19840 C 1955.03 -0.26137 -4.45233 0
M  V30 19841 C 1955.74 -2.12323 -5.41566 0
M  V30 19842 N 1954.71 -1.41659 -5.24818 0
M  V30 19843 H 1958.51 -1.18938 -2.68758 0
M  V30 19844 H 1956.03 -0.747965 -1.4415 0
M  V30 19845 H 1958.02 0.84199 -4.08309 0
M  V30 19846 H 1956.68 1.27151 -2.98769 0
M  V30 19847 H 1957.7 -1.95287 -4.7967 0
M  V30 19848 H 1954.37 0.542726 -4.13957 0
M  V30 19849 H 1955.76 -3.05274 -5.98546 0
M  V30 19850 N 1958.48 1.43142 -0.659413 0
M  V30 19851 C 1959.45 2.29192 0.0190393 0
M  V30 19852 C 1960.45 1.42532 0.744404 0
M  V30 19853 O 1961.64 1.64093 0.584722 0
M  V30 19854 C 1958.77 3.24723 1.03769 0
M  V30 19855 H 1959.96 2.90674 -0.738166 0
M  V30 19856 H 1957.51 1.50525 -0.420956 0
M  V30 19857 H 1958.25 2.68149 1.82392 0
M  V30 19858 H 1958.03 3.88621 0.52115 0
M  V30 19859 H 1959.52 3.89294 1.5113 0
M  V30 19860 N 1959.96 0.40173 1.52394 0
M  V30 19861 C 1961.19 -0.175915 2.0585 0
M  V30 19862 C 1961.6 -1.40031 1.27232 0
M  V30 19863 O 1960.94 -1.80972 0.315396 0
M  V30 19864 C 1961 -0.598467 3.54484 0
M  V30 19865 C 1960.67 0.514174 4.54098 0
M  V30 19866 C 1961.66 1.37546 5.01375 0
M  V30 19867 C 1959.35 0.684753 4.97611 0
M  V30 19868 C 1961.34 2.39233 5.90801 0
M  V30 19869 C 1959.03 1.70495 5.86834 0
M  V30 19870 C 1960.03 2.55715 6.33324 0
M  V30 19871 O 1959.72 3.55989 7.20782 0
M  V30 19872 H 1959.45 -0.0272021 0.675452 0
M  V30 19873 H 1962 0.569114 1.97358 0
M  V30 19874 H 1960.23 -1.39566 3.60636 0
M  V30 19875 H 1961.92 -1.10319 3.90621 0
M  V30 19876 H 1962.69 1.25504 4.6848 0
M  V30 19877 H 1958.57 0.0311144 4.60989 0
M  V30 19878 H 1962.11 3.05785 6.2701 0
M  V30 19879 H 1958.01 1.82571 6.19143 0
M  V30 19880 H 1958.78 3.52145 7.38875 0
M  V30 19881 N 1961.44 -1.57047 0.131923 0
M  V30 19882 C 1962.69 -1.94807 -0.522807 0
M  V30 19883 C 1963 -1.01837 -1.66998 0
M  V30 19884 O 1964.21 -1.29115 -2.38834 0
M  V30 19885 C 1962.66 -3.4626 -0.981434 0
M  V30 19886 C 1962.27 -4.47787 0.137988 0
M  V30 19887 C 1964.01 -3.92915 -1.60681 0
M  V30 19888 C 1961.92 -5.90433 -0.338063 0
M  V30 19889 H 1960.85 -0.727245 -0.199076 0
M  V30 19890 H 1963.5 -1.8225 0.213851 0
M  V30 19891 H 1961.88 -3.54096 -1.7729 0
M  V30 19892 H 1963.06 -4.51632 0.914591 0
M  V30 19893 H 1961.37 -4.10961 0.670823 0
M  V30 19894 H 1963.97 -4.96914 -1.97434 0
M  V30 19895 H 1964.31 -3.33615 -2.49011 0
M  V30 19896 H 1964.85 -3.87933 -0.880514 0
M  V30 19897 H 1961.59 -6.53517 0.509502 0
M  V30 19898 H 1961.11 -5.89981 -1.08087 0
M  V30 19899 H 1962.78 -6.42096 -0.795053 0
M  V30 19900 N 1962.92 0.141865 -1.5696 0
M  V30 19901 C 1964.16 0.851923 -1.83267 0
M  V30 19902 C 1964.49 1.81473 -0.713611 0
M  V30 19903 O 1963.76 1.94109 0.264326 0
M  V30 19904 H 1962.34 0.317594 -0.676124 0
M  V30 19905 H 1965 0.134643 -1.94434 0
M  V30 19906 H 1964.09 1.41106 -2.7838 0
M  V30 19907 N 1964.39 1.52136 0.411372 0
M  V30 19908 C 1965.32 1.78277 1.50796 0
M  V30 19909 C 1966.31 0.633643 1.57857 0
M  V30 19910 O 1967.49 0.879011 1.73168 0
M  V30 19911 C 1964.62 1.93142 2.88641 0
M  V30 19912 C 1963.57 3.08727 2.96431 0
M  V30 19913 C 1962.9 3.08812 4.36508 0
M  V30 19914 C 1964.2 4.48228 2.68122 0
M  V30 19915 H 1965.89 2.70102 1.29171 0
M  V30 19916 H 1963.44 1.29971 0.619965 0
M  V30 19917 H 1965.39 2.10012 3.65339 0
M  V30 19918 H 1964.12 0.979869 3.11554 0
M  V30 19919 H 1962.78 2.91604 2.22177 0
M  V30 19920 H 1962.42 2.11383 4.56428 0
M  V30 19921 H 1962.12 3.86444 4.42645 0
M  V30 19922 H 1963.65 3.27809 5.15144 0
M  V30 19923 H 1965.06 4.65568 3.34544 0
M  V30 19924 H 1963.46 5.27761 2.85638 0
M  V30 19925 H 1964.53 4.56478 1.63572 0
M  V30 19926 N 1965.87 -0.668464 1.42721 0
M  V30 19927 C 1966.82 -1.78184 1.46694 0
M  V30 19928 C 1967.79 -1.63023 0.318213 0
M  V30 19929 O 1968.98 -1.83486 0.523198 0
M  V30 19930 C 1966.12 -3.16254 1.3812 0
M  V30 19931 C 1965.23 -3.42657 2.63078 0
M  V30 19932 C 1964.36 -4.7049 2.46602 0
M  V30 19933 C 1963.4 -4.89948 3.66902 0
M  V30 19934 N 1962.54 -6.09027 3.49329 0
M  V30 19935 H 1967.38 -1.74123 2.41837 0
M  V30 19936 H 1964.92 -0.849937 1.2006 0
M  V30 19937 H 1966.87 -3.96051 1.31146 0
M  V30 19938 H 1965.5 -3.19423 0.46569 0
M  V30 19939 H 1964.56 -2.57068 2.80393 0
M  V30 19940 H 1965.87 -3.52926 3.52484 0
M  V30 19941 H 1965.02 -5.58388 2.37249 0
M  V30 19942 H 1963.76 -4.62515 1.54696 0
M  V30 19943 H 1962.77 -4.0049 3.7668 0
M  V30 19944 H 1963.99 -4.99764 4.59797 0
M  V30 19945 H 1961.94 -6.02213 2.60146 0
M  V30 19946 H 1961.85 -6.20186 4.32326 0
M  V30 19947 H 1963.12 -6.99587 3.438 0
M  V30 19948 N 1967.35 -1.28999 -0.905381 0
M  V30 19949 C 1968.63 -1.07329 -1.63523 0
M  V30 19950 C 1969.01 0.384519 -2.07568 0
M  V30 19951 O 1968.36 1.37223 -1.82708 0
M  V30 19952 C 1968.57 -2.05563 -2.82037 0
M  V30 19953 C 1969.91 -2.3617 -3.52858 0
M  V30 19954 O 1970.94 -2.03713 -2.92198 0
M  V30 19955 O 1969.8 -2.91601 -4.62202 0
M  V30 19956 H 1966.89 -0.410796 -0.717757 0
M  V30 19957 H 1969.44 -1.40349 -0.953949 0
M  V30 19958 H 1968.21 -3.03779 -2.46645 0
M  V30 19959 H 1967.83 -1.73238 -3.57875 0
M  V30 19960 N 1968.83 1.11497 -1.11383 0
M  V30 19961 C 1970.25 1.35232 -0.847616 0
M  V30 19962 C 1970.45 1.9446 0.527973 0
M  V30 19963 O 1969.5 2.17716 1.2789 0
M  V30 19964 C 1970.81 2.28454 -1.95523 0
M  V30 19965 C 1972.36 2.4202 -1.98483 0
M  V30 19966 C 1972.84 3.38563 -3.08446 0
M  V30 19967 N 1974.33 3.46126 -3.07817 0
M  V30 19968 C 1975.06 4.20766 -3.89542 0
M  V30 19969 N 1974.56 4.98388 -4.81229 0
M  V30 19970 N 1976.35 4.16272 -3.77722 0
M  V30 19971 H 1968.5 0.714156 -2.00034 0
M  V30 19972 H 1970.77 0.376936 -0.869841 0
M  V30 19973 H 1970.47 1.92126 -2.94586 0
M  V30 19974 H 1970.35 3.28667 -1.85089 0
M  V30 19975 H 1972.73 2.77623 -1.00047 0
M  V30 19976 H 1972.81 1.4166 -2.12993 0
M  V30 19977 H 1972.46 3.03687 -4.07107 0
M  V30 19978 H 1972.39 4.38776 -2.91176 0
M  V30 19979 H 1974.88 2.90759 -2.41387 0
M  V30 19980 H 1975.19 5.52708 -5.40124 0
M  V30 19981 H 1973.54 4.97551 -4.85251 0
M  V30 19982 H 1976.73 3.54719 -3.05437 0
M  V30 19983 H 1976.9 4.74186 -4.41647 0
M  V30 19984 N 1970.31 0.904053 1.29092 0
M  V30 19985 C 1971.25 0.38351 2.27591 0
M  V30 19986 C 1972.22 -0.536758 1.57188 0
M  V30 19987 O 1973.41 -0.461057 1.85146 0
M  V30 19988 C 1970.55 -0.379051 3.43012 0
M  V30 19989 C 1969.66 0.572611 4.28188 0
M  V30 19990 C 1968.8 -0.207434 5.30795 0
M  V30 19991 C 1967.84 0.73847 6.07629 0
M  V30 19992 N 1966.97 -0.00744238 7.021 0
M  V30 19993 H 1971.81 1.22855 2.71497 0
M  V30 19994 H 1969.35 0.617145 1.33528 0
M  V30 19995 H 1971.31 -0.83727 4.08712 0
M  V30 19996 H 1969.94 -1.18851 3.00124 0
M  V30 19997 H 1968.99 1.14935 3.62621 0
M  V30 19998 H 1970.3 1.29648 4.81656 0
M  V30 19999 H 1969.46 -0.726655 6.02333 0
M  V30 20000 H 1968.2 -0.964417 4.78069 0
M  V30 20001 H 1967.2 1.26915 5.34951 0
M  V30 20002 H 1968.43 1.49485 6.62443 0
M  V30 20003 H 1966.37 -0.746612 6.51737 0
M  V30 20004 H 1966.29 0.656439 7.53145 0
M  V30 20005 H 1967.56 -0.506785 7.77851 0
M  V30 20006 N 1971.79 -1.4279 0.666995 0
M  V30 20007 C 1973.2 -1.56027 0.335817 0
M  V30 20008 C 1973.4 -1.64812 -1.15928 0
M  V30 20009 O 1972.46 -1.61074 -1.94451 0
M  V30 20010 C 1973.77 -2.81425 1.05928 0
M  V30 20011 C 1975.32 -2.95187 1.04085 0
M  V30 20012 C 1975.79 -4.23435 1.74548 0
M  V30 20013 N 1977.28 -4.3033 1.71379 0
M  V30 20014 C 1978.02 -5.2836 2.22762 0
M  V30 20015 N 1977.52 -6.32589 2.82494 0
M  V30 20016 N 1979.31 -5.20106 2.13182 0
M  V30 20017 H 1971.46 -1.35332 1.63704 0
M  V30 20018 H 1973.72 -0.650895 0.689231 0
M  V30 20019 H 1973.43 -2.81044 2.1144 0
M  V30 20020 H 1973.3 -3.72077 0.619546 0
M  V30 20021 H 1975.69 -2.95099 -0.00591289 0
M  V30 20022 H 1975.77 -2.05786 1.5194 0
M  V30 20023 H 1975.41 -4.24283 2.79189 0
M  V30 20024 H 1975.34 -5.11756 1.24149 0
M  V30 20025 H 1977.84 -3.55633 1.27803 0
M  V30 20026 H 1978.15 -7.03733 3.19343 0
M  V30 20027 H 1976.49 -6.33173 2.86561 0
M  V30 20028 H 1979.68 -4.37597 1.66211 0
M  V30 20029 H 1979.86 -5.96343 2.53534 0
M  V30 20030 N 1973.26 -0.409806 -1.52179 0
M  V30 20031 C 1974.67 0.0596356 -1.86605 0
M  V30 20032 C 1975.03 1.44377 -1.32852 0
M  V30 20033 O 1974.15 2.05829 -0.668074 0
M  V30 20034 C 1974.75 0.114992 -3.38605 0
M  V30 20035 C 1973.3 0.528771 -3.72667 0
M  V30 20036 C 1972.45 -0.29629 -2.75713 0
M  V30 20037 H 1975.4 -0.626843 -1.45796 0
M  V30 20038 H 1975.42 0.930114 -3.68957 0
M  V30 20039 H 1974.94 -0.892535 -3.77698 0
M  V30 20040 H 1973.04 1.54291 -3.39153 0
M  V30 20041 H 1973.15 0.272687 -4.78323 0
M  V30 20042 H 1971.51 0.241468 -2.53553 0
M  V30 20043 H 1972.3 -1.30218 -3.17645 0
M  V30 20044 N 1974.74 1.56975 -0.14025 0
M  V30 20045 C 1975.97 2.00699 0.522938 0
M  V30 20046 C 1976.39 1.01964 1.58066 0
M  V30 20047 O 1975.75 -0.0056107 1.81299 0
M  V30 20048 C 1975.8 3.43203 1.10653 0
M  V30 20049 O 1974.9 3.47447 2.22159 0
M  V30 20050 H 1974.24 0.65143 0.12859 0
M  V30 20051 H 1976.77 2.03246 -0.234993 0
M  V30 20052 H 1976.78 3.81862 1.43686 0
M  V30 20053 H 1975.46 4.14573 0.331913 0
M  V30 20054 H 1974.03 3.20625 1.90405 0
M  V30 20055 N 1976.22 -0.133539 1.57033 0
M  V30 20056 C 1977.13 -1.18362 2.02553 0
M  V30 20057 C 1978.15 -1.46212 0.943294 0
M  V30 20058 O 1979.32 -1.57616 1.25376 0
M  V30 20059 C 1976.39 -2.49391 2.40842 0
M  V30 20060 C 1975.45 -2.29068 3.63079 0
M  V30 20061 C 1974.68 -3.53849 3.99533 0
M  V30 20062 O 1974.9 -4.60576 3.36491 0
M  V30 20063 O 1973.84 -3.45713 4.92713 0
M  V30 20064 H 1977.66 -0.827128 2.9222 0
M  V30 20065 H 1975.25 -0.343267 1.45403 0
M  V30 20066 H 1977.13 -3.26617 2.66269 0
M  V30 20067 H 1975.81 -2.84544 1.54326 0
M  V30 20068 H 1974.71 -1.49749 3.42821 0
M  V30 20069 H 1976.05 -1.98826 4.50254 0
M  V30 20070 N 1977.7 -1.52352 -0.403298 0
M  V30 20071 C 1978.63 -1.79074 -1.49849 0
M  V30 20072 C 1979.61 -0.642006 -1.57519 0
M  V30 20073 O 1980.79 -0.888182 -1.72699 0
M  V30 20074 C 1977.92 -1.9467 -2.87612 0
M  V30 20075 C 1976.88 -3.10295 -2.9479 0
M  V30 20076 C 1976.2 -3.11122 -4.34864 0
M  V30 20077 C 1977.5 -4.49643 -2.65741 0
M  V30 20078 H 1979.2 -2.70783 -1.27737 0
M  V30 20079 H 1976.74 -1.30298 -0.613064 0
M  V30 20080 H 1978.7 -2.11947 -3.64221 0
M  V30 20081 H 1977.42 -0.996377 -3.1103 0
M  V30 20082 H 1976.08 -2.92778 -2.20627 0
M  V30 20083 H 1975.73 -2.13801 -4.553 0
M  V30 20084 H 1975.43 -3.88786 -4.4059 0
M  V30 20085 H 1976.95 -3.30536 -5.13399 0
M  V30 20086 H 1978.37 -4.67335 -3.3207 0
M  V30 20087 H 1976.76 -5.29268 -2.82835 0
M  V30 20088 H 1977.83 -4.57339 -1.61149 0
M  V30 20089 N 1979.18 0.660885 -1.43074 0
M  V30 20090 C 1980.59 0.97566 -1.26305 0
M  V30 20091 C 1980.79 2.00719 -0.17724 0
M  V30 20092 O 1979.85 2.48514 0.446896 0
M  V30 20093 C 1981.16 1.46722 -2.62475 0
M  V30 20094 C 1982.71 1.58427 -2.69944 0
M  V30 20095 C 1983.18 2.10976 -4.06514 0
M  V30 20096 N 1984.67 2.18289 -4.08539 0
M  V30 20097 C 1985.41 2.60054 -5.11038 0
M  V30 20098 N 1984.91 3.01171 -6.23913 0
M  V30 20099 N 1986.7 2.59926 -4.98392 0
M  V30 20100 H 1978.85 -0.02183 -2.12389 0
M  V30 20101 H 1981.11 0.0527972 -0.946529 0
M  V30 20102 H 1980.82 0.783712 -3.42857 0
M  V30 20103 H 1980.69 2.44359 -2.87348 0
M  V30 20104 H 1983.08 2.25881 -1.899 0
M  V30 20105 H 1983.16 0.592433 -2.48845 0
M  V30 20106 H 1982.8 1.44126 -4.87022 0
M  V30 20107 H 1982.73 3.10976 -4.24972 0
M  V30 20108 H 1985.23 1.89317 -3.27059 0
M  V30 20109 H 1985.54 3.31766 -6.97962 0
M  V30 20110 H 1983.88 2.98994 -6.27398 0
M  V30 20111 H 1987.07 2.27175 -4.09279 0
M  V30 20112 H 1987.25 2.92154 -5.78403 0
M  V30 20113 N 1980.65 1.29477 0.898527 0
M  V30 20114 C 1982.07 1.07514 1.17953 0
M  V30 20115 C 1982.27 -0.172814 2.00758 0
M  V30 20116 O 1981.33 -0.87025 2.37029 0
M  V30 20117 C 1982.64 2.33121 1.89934 0
M  V30 20118 C 1984.19 2.38452 2.02755 0
M  V30 20119 C 1984.66 3.63866 2.78146 0
M  V30 20120 N 1986.15 3.64595 2.857 0
M  V30 20121 C 1986.89 4.58319 3.44574 0
M  V30 20122 N 1986.38 5.62376 4.04605 0
M  V30 20123 N 1988.18 4.45887 3.42259 0
M  V30 20124 H 1980.33 2.09562 0.346076 0
M  V30 20125 H 1982.59 0.923108 0.215814 0
M  V30 20126 H 1982.3 3.2412 1.36526 0
M  V30 20127 H 1982.17 2.40721 2.90402 0
M  V30 20128 H 1984.56 1.47941 2.55338 0
M  V30 20129 H 1984.64 2.34837 1.01416 0
M  V30 20130 H 1984.28 4.54729 2.26239 0
M  V30 20131 H 1984.21 3.6474 3.79832 0
M  V30 20132 H 1986.7 2.89358 2.43064 0
M  V30 20133 H 1987.02 6.30012 4.47555 0
M  V30 20134 H 1985.36 5.66184 4.03064 0
M  V30 20135 H 1988.55 3.63786 2.9458 0
M  V30 20136 H 1988.73 5.19113 3.87848 0
M  V30 20137 N 1982.13 -1.10905 1.11972 0
M  V30 20138 C 1983.38 -1.82127 0.866753 0
M  V30 20139 C 1983.69 -1.85866 -0.609372 0
M  V30 20140 O 1984.9 -2.53243 -0.978781 0
M  V30 20141 C 1983.36 -3.27109 1.50093 0
M  V30 20142 C 1982.96 -3.31682 3.01149 0
M  V30 20143 C 1984.71 -4.03192 1.32803 0
M  V30 20144 C 1982.62 -4.71095 3.57524 0
M  V30 20145 H 1981.55 -0.682444 0.320604 0
M  V30 20146 H 1984.2 -1.24759 1.34564 0
M  V30 20147 H 1982.58 -3.84443 0.949712 0
M  V30 20148 H 1983.75 -2.84199 3.62722 0
M  V30 20149 H 1982.07 -2.69082 3.17779 0
M  V30 20150 H 1984.66 -5.06162 1.72348 0
M  V30 20151 H 1985.01 -4.15416 0.271181 0
M  V30 20152 H 1985.54 -3.52259 1.84819 0
M  V30 20153 H 1982.28 -4.6407 4.62947 0
M  V30 20154 H 1981.8 -5.18965 3.00725 0
M  V30 20155 H 1983.48 -5.40059 3.56294 0
M  V30 20156 N 1983.61 -0.910886 -1.2861 0
M  V30 20157 C 1984.57 -0.401862 -2.2565 0
M  V30 20158 C 1985.57 0.470212 -1.53771 0
M  V30 20159 O 1986.76 0.273674 -1.72037 0
M  V30 20160 C 1983.9 0.424193 -3.38251 0
M  V30 20161 H 1985.09 -1.25903 -2.72192 0
M  V30 20162 H 1982.64 -0.690027 -1.40244 0
M  V30 20163 H 1983.38 1.30088 -2.97065 0
M  V30 20164 H 1983.16 -0.200837 -3.91585 0
M  V30 20165 H 1984.65 0.771267 -4.10416 0
M  V30 20166 N 1985.09 1.42434 -0.674558 0
M  V30 20167 C 1986.31 2.06399 -0.203545 0
M  V30 20168 C 1986.74 1.50345 1.1304 0
M  V30 20169 O 1986.1 0.621837 1.70302 0
M  V30 20170 C 1986.14 3.60293 -0.148884 0
M  V30 20171 O 1985.25 4.02843 0.882667 0
M  V30 20172 H 1984.59 0.655698 -0.104672 0
M  V30 20173 H 1987.12 1.82572 -0.923502 0
M  V30 20174 H 1987.13 4.07991 0.0273375 0
M  V30 20175 H 1985.8 4.00464 -1.12256 0
M  V30 20176 H 1984.38 3.66694 0.677506 0
M  V30 20177 N 1986.57 0.417871 1.51959 0
M  V30 20178 C 1987.5 -0.438814 2.2496 0
M  V30 20179 C 1988.51 -1.00283 1.28246 0
M  V30 20180 O 1989.7 -0.900288 1.54133 0
M  V30 20181 C 1986.8 -1.62371 2.97471 0
M  V30 20182 C 1985.97 -1.18204 4.21125 0
M  V30 20183 C 1985.03 -2.23484 4.76384 0
M  V30 20184 O 1984.06 -1.83715 5.38737 0
M  V30 20185 N 1985.26 -3.55751 4.58717 0
M  V30 20186 H 1988.03 0.18676 2.99118 0
M  V30 20187 H 1985.59 0.245711 1.60025 0
M  V30 20188 H 1987.58 -2.32385 3.3133 0
M  V30 20189 H 1986.15 -2.15503 2.26445 0
M  V30 20190 H 1985.37 -0.309696 3.92982 0
M  V30 20191 H 1986.66 -0.86403 5.0141 0
M  V30 20192 H 1986.05 -3.90806 4.09008 0
M  V30 20193 H 1984.61 -4.21715 4.96991 0
M  V30 20194 N 1988.04 -1.56898 0.148573 0
M  V30 20195 C 1989.29 -1.96466 -0.50289 0
M  V30 20196 C 1989.62 -1.03355 -1.64412 0
M  V30 20197 O 1988.9 -0.0762411 -1.94351 0
M  V30 20198 C 1989.18 -3.45717 -1.00757 0
M  V30 20199 C 1989.03 -4.49605 0.132277 0
M  V30 20200 C 1990.35 -3.97506 -1.88883 0
M  V30 20201 H 1987.47 -0.714345 -0.181328 0
M  V30 20202 H 1990.11 -1.88601 0.230117 0
M  V30 20203 H 1988.26 -3.5255 -1.6322 0
M  V30 20204 H 1989.94 -4.54851 0.76867 0
M  V30 20205 H 1988.18 -4.26524 0.791189 0
M  V30 20206 H 1988.85 -5.51375 -0.262585 0
M  V30 20207 H 1991.33 -3.93162 -1.36246 0
M  V30 20208 H 1990.2 -5.02399 -2.21104 0
M  V30 20209 H 1990.46 -3.39956 -2.82635 0
M  V30 20210 N 1989.52 0.125209 -1.57102 0
M  V30 20211 C 1990.47 1.15387 -1.99886 0
M  V30 20212 C 1991.44 1.41494 -0.869974 0
M  V30 20213 O 1992.62 1.53464 -1.13372 0
M  V30 20214 C 1989.76 2.47687 -2.40302 0
M  V30 20215 C 1988.88 2.28568 -3.6658 0
M  V30 20216 C 1988.01 3.54056 -3.96003 0
M  V30 20217 C 1987.05 3.30067 -5.15482 0
M  V30 20218 N 1986.19 4.47741 -5.40807 0
M  V30 20219 H 1991.03 0.782018 -2.87556 0
M  V30 20220 H 1988.57 0.374655 -1.42249 0
M  V30 20221 H 1990.52 3.24858 -2.61769 0
M  V30 20222 H 1989.15 2.82777 -1.55683 0
M  V30 20223 H 1988.21 1.42345 -3.52764 0
M  V30 20224 H 1989.52 2.06815 -4.53904 0
M  V30 20225 H 1988.67 4.39647 -4.18085 0
M  V30 20226 H 1987.41 3.78834 -3.07142 0
M  V30 20227 H 1986.42 2.42866 -4.93251 0
M  V30 20228 H 1987.64 3.06666 -6.05915 0
M  V30 20229 H 1985.59 4.72652 -4.54902 0
M  V30 20230 H 1985.5 4.2907 -6.22442 0
M  V30 20231 H 1986.77 5.34484 -5.67404 0
M  V30 20232 N 1991 1.52564 0.395213 0
M  V30 20233 C 1992.23 1.70924 1.16053 0
M  V30 20234 C 1992.64 0.424554 1.84375 0
M  V30 20235 O 1991.98 -0.610327 1.73265 0
M  V30 20236 C 1992.04 2.79882 2.25625 0
M  V30 20237 C 1991.71 4.21196 1.77322 0
M  V30 20238 C 1992.7 5.04566 1.25336 0
M  V30 20239 C 1990.39 4.6749 1.83733 0
M  V30 20240 C 1992.38 6.32309 0.804005 0
M  V30 20241 C 1990.07 5.95219 1.3841 0
M  V30 20242 C 1991.07 6.77458 0.868299 0
M  V30 20243 O 1990.76 8.02793 0.421654 0
M  V30 20244 H 1990.49 0.575785 0.354186 0
M  V30 20245 H 1993.04 1.99969 0.469216 0
M  V30 20246 H 1991.27 2.46245 2.98162 0
M  V30 20247 H 1992.96 2.86705 2.87324 0
M  V30 20248 H 1993.73 4.69985 1.19744 0
M  V30 20249 H 1989.61 4.03572 2.22823 0
M  V30 20250 H 1993.15 6.96448 0.400726 0
M  V30 20251 H 1989.05 6.29305 1.43685 0
M  V30 20252 H 1989.82 8.16692 0.543698 0
M  V30 20253 N 1992.48 -0.653289 1.43422 0
M  V30 20254 C 1993.44 -1.74802 1.48246 0
M  V30 20255 C 1994.44 -1.56552 0.367179 0
M  V30 20256 O 1995.63 -1.62451 0.628923 0
M  V30 20257 C 1992.76 -3.13673 1.33499 0
M  V30 20258 H 1993.96 -1.71906 2.4574 0
M  V30 20259 H 1991.51 -0.864936 1.30187 0
M  V30 20260 H 1992.24 -3.22181 0.370118 0
M  V30 20261 H 1992.03 -3.28325 2.14348 0
M  V30 20262 H 1993.52 -3.93502 1.39806 0
M  V30 20263 N 1993.96 -1.29952 -0.891648 0
M  V30 20264 C 1995.2 -1.18155 -1.63963 0
M  V30 20265 C 1995.53 0.265477 -1.93184 0
M  V30 20266 O 1994.8 1.1802 -1.56359 0
M  V30 20267 H 1993.38 -0.434297 -0.607779 0
M  V30 20268 H 1996.04 -1.62988 -1.06869 0
M  V30 20269 H 1995.13 -1.73753 -2.59261 0
M  V30 20270 N 1995.44 1.1031 -1.12559 0
M  V30 20271 C 1996.66 1.86618 -0.9049 0
M  V30 20272 C 1997.09 1.80164 0.540597 0
M  V30 20273 O 1996.44 1.17252 1.38281 0
M  V30 20274 C 1996.49 3.32903 -1.38592 0
M  V30 20275 O 1995.6 4.08508 -0.565225 0
M  V30 20276 H 1994.94 0.579019 -0.325013 0
M  V30 20277 H 1997.47 1.39359 -1.498 0
M  V30 20278 H 1997.48 3.83753 -1.38556 0
M  V30 20279 H 1996.15 3.36917 -2.43844 0
M  V30 20280 H 1994.73 3.67494 -0.632682 0
M  V30 20281 N 1996.91 0.917694 1.28125 0
M  V30 20282 C 1997.85 0.366394 2.26253 0
M  V30 20283 C 1998.86 -0.497338 1.55017 0
M  V30 20284 O 2000.05 -0.31158 1.7576 0
M  V30 20285 C 1997.15 -0.494558 3.35272 0
M  V30 20286 C 1996.32 0.34757 4.36017 0
M  V30 20287 C 1995.38 -0.449109 5.2428 0
M  V30 20288 O 1994.41 0.139705 5.69029 0
M  V30 20289 N 1995.61 -1.75125 5.53454 0
M  V30 20290 H 1998.37 1.20986 2.74194 0
M  V30 20291 H 1995.93 0.784058 1.41648 0
M  V30 20292 H 1997.93 -1.03436 3.91258 0
M  V30 20293 H 1996.5 -1.23875 2.87008 0
M  V30 20294 H 1995.72 1.06872 3.79437 0
M  V30 20295 H 1997 0.923647 5.00346 0
M  V30 20296 H 1996.4 -2.2521 5.18938 0
M  V30 20297 H 1994.96 -2.23778 6.12182 0
M  V30 20298 N 1998.39 -1.42074 0.682102 0
M  V30 20299 C 1999.64 -2.01733 0.207714 0
M  V30 20300 C 1999.97 -1.53844 -1.18514 0
M  V30 20301 O 1999.25 -0.74378 -1.79717 0
M  V30 20302 C 1999.53 -3.59228 0.250438 0
M  V30 20303 C 1999.38 -4.17278 1.67927 0
M  V30 20304 C 2000.7 -4.38303 -0.397296 0
M  V30 20305 H 1997.82 -0.732972 0.0769518 0
M  V30 20306 H 2000.46 -1.69 0.868272 0
M  V30 20307 H 1998.61 -3.87245 -0.312007 0
M  V30 20308 H 2000.28 -4.00187 2.29452 0
M  V30 20309 H 1998.53 -3.7283 2.21767 0
M  V30 20310 H 1999.2 -5.26423 1.66079 0
M  V30 20311 H 2001.67 -4.1602 0.0815622 0
M  V30 20312 H 2000.55 -5.47866 -0.336797 0
M  V30 20313 H 2000.81 -4.16733 -1.476 0
M  V30 20314 N 1999.87 -0.425924 -1.51735 0
M  V30 20315 C 2000.83 0.379497 -2.26036 0
M  V30 20316 C 2001.83 0.95944 -1.2904 0
M  V30 20317 O 2003.02 0.83568 -1.52846 0
M  V30 20318 C 2000.15 1.5358 -3.04345 0
M  V30 20319 H 2001.35 -0.271515 -2.98668 0
M  V30 20320 H 1998.9 -0.17882 -1.55274 0
M  V30 20321 H 1999.64 2.2232 -2.36103 0
M  V30 20322 H 1999.42 1.12626 -3.75577 0
M  V30 20323 H 2000.91 2.10513 -3.60658 0
M  V30 20324 N 2001.35 1.56817 -0.156891 0
M  V30 20325 C 2002.57 2.01242 0.501622 0
M  V30 20326 C 2003 1.03635 1.56976 0
M  V30 20327 O 2002.36 0.0136188 1.81295 0
M  V30 20328 C 2002.4 3.44357 1.07007 0
M  V30 20329 O 2001.51 3.49783 2.18461 0
M  V30 20330 H 2000.85 0.652757 0.121673 0
M  V30 20331 H 2003.38 2.02985 -0.256537 0
M  V30 20332 H 2003.39 3.83364 1.39628 0
M  V30 20333 H 2002.06 4.14902 0.287924 0
M  V30 20334 H 2000.64 3.22626 1.86994 0
M  V30 20335 N 2002.83 -0.116876 1.57166 0
M  V30 20336 C 2004.05 -0.838417 1.89151 0
M  V30 20337 C 2004.47 -1.73335 0.748361 0
M  V30 20338 O 2003.83 -1.80328 -0.280719 0
M  V30 20339 C 2003.88 -1.67006 3.20611 0
M  V30 20340 O 2003.6 -0.811158 4.30525 0
M  V30 20341 C 2005.1 -2.49657 3.66314 0
M  V30 20342 H 2002.32 -0.240909 0.626262 0
M  V30 20343 H 2004.86 -0.100631 2.04252 0
M  V30 20344 H 2003.02 -2.36058 3.07173 0
M  V30 20345 H 2003.43 -1.38499 5.05884 0
M  V30 20346 H 2004.91 -3.03537 4.61052 0
M  V30 20347 H 2005.38 -3.27114 2.93075 0
M  V30 20348 H 2005.99 -1.85844 3.82547 0
M  V30 20349 N 2004.3 -1.52772 -0.387116 0
M  V30 20350 C 2005.53 -1.72086 -1.15763 0
M  V30 20351 C 2005.95 -0.43912 -1.82903 0
M  V30 20352 O 2005.31 0.605254 -1.70899 0
M  V30 20353 C 2005.36 -2.87248 -2.17992 0
M  V30 20354 O 2004.46 -2.54353 -3.2462 0
M  V30 20355 H 2003.8 -0.572174 -0.336918 0
M  V30 20356 H 2006.33 -1.99571 -0.450833 0
M  V30 20357 H 2006.34 -3.12798 -2.61957 0
M  V30 20358 H 2005.02 -3.80232 -1.68513 0
M  V30 20359 H 2003.6 -2.39551 -2.8578 0
M  V30 20360 N 2005.78 0.645673 -1.43767 0
M  V30 20361 C 2006.69 1.78723 -1.51972 0
M  V30 20362 C 2007.71 1.6919 -0.406299 0
M  V30 20363 O 2008.88 1.90225 -0.661534 0
M  V30 20364 C 2005.95 3.1504 -1.44744 0
M  V30 20365 C 2005.01 3.36313 -2.66818 0
M  V30 20366 C 2004.24 4.66127 -2.59926 0
M  V30 20367 O 2004.47 5.45978 -1.65118 0
M  V30 20368 O 2003.4 4.89285 -3.50548 0
M  V30 20369 H 2007.23 1.74755 -2.48384 0
M  V30 20370 H 2004.81 0.805097 -1.25851 0
M  V30 20371 H 2006.69 3.96329 -1.43182 0
M  V30 20372 H 2005.37 3.19582 -0.514693 0
M  V30 20373 H 2004.27 2.54759 -2.7395 0
M  V30 20374 H 2005.61 3.36623 -3.5909 0
M  V30 20375 N 2007.26 1.30423 0.884744 0
M  V30 20376 C 2008.51 1.19435 1.63899 0
M  V30 20377 C 2008.84 -0.25033 1.9258 0
M  V30 20378 O 2008.11 -1.17904 1.5469 0
M  V30 20379 C 2008.4 2.02357 2.97865 0
M  V30 20380 C 2008.25 3.55046 2.76156 0
M  V30 20381 C 2009.57 1.86156 3.98791 0
M  V30 20382 H 2006.69 0.435234 0.594761 0
M  V30 20383 H 2009.33 1.60058 1.0238 0
M  V30 20384 H 2007.48 1.67842 3.50373 0
M  V30 20385 H 2009.15 3.99622 2.30434 0
M  V30 20386 H 2007.39 3.79218 2.10657 0
M  V30 20387 H 2008.07 4.08356 3.71415 0
M  V30 20388 H 2010.54 2.16332 3.55443 0
M  V30 20389 H 2009.42 2.46501 4.90437 0
M  V30 20390 H 2009.68 0.820775 4.34414 0
M  V30 20391 N 2008.74 -1.09711 1.13142 0
M  V30 20392 C 2009.67 -2.18301 0.828662 0
M  V30 20393 C 2010.65 -1.6879 -0.210733 0
M  V30 20394 O 2011.83 -1.94073 -0.0702977 0
M  V30 20395 C 2008.96 -3.46081 0.290674 0
M  V30 20396 C 2007.92 -4.0891 1.26398 0
M  V30 20397 C 2007.24 -5.3148 0.585887 0
M  V30 20398 C 2008.54 -4.51751 2.62142 0
M  V30 20399 H 2010.24 -2.43885 1.73668 0
M  V30 20400 H 2007.78 -1.17216 0.836449 0
M  V30 20401 H 2009.74 -4.21347 0.0665509 0
M  V30 20402 H 2008.46 -3.20011 -0.652716 0
M  V30 20403 H 2007.12 -3.3566 1.47405 0
M  V30 20404 H 2006.77 -5.01689 -0.362883 0
M  V30 20405 H 2006.47 -5.7447 1.23522 0
M  V30 20406 H 2007.99 -6.09472 0.370976 0
M  V30 20407 H 2009.41 -5.18255 2.45121 0
M  V30 20408 H 2007.8 -5.05615 3.23223 0
M  V30 20409 H 2008.87 -3.64297 3.20025 0
M  V30 20410 N 2010.22 -0.924476 -1.27637 0
M  V30 20411 C 2011.16 -0.41967 -2.26952 0
M  V30 20412 C 2012.13 0.511683 -1.58022 0
M  V30 20413 O 2013.32 0.431544 -1.85856 0
M  V30 20414 C 2010.46 0.324433 -3.43572 0
M  V30 20415 C 2009.57 -0.640659 -4.27223 0
M  V30 20416 C 2008.71 0.122963 -5.31058 0
M  V30 20417 C 2007.75 -0.835045 -6.06377 0
M  V30 20418 N 2006.88 -0.104257 -7.02023 0
M  V30 20419 H 2011.72 -1.27159 -2.69508 0
M  V30 20420 H 2009.26 -0.63831 -1.32529 0
M  V30 20421 H 2011.22 0.772141 -4.09992 0
M  V30 20422 H 2009.85 1.14062 -3.01976 0
M  V30 20423 H 2008.9 -1.2069 -3.60747 0
M  V30 20424 H 2010.21 -1.37295 -4.79533 0
M  V30 20425 H 2009.37 0.630738 -6.03412 0
M  V30 20426 H 2008.1 0.888238 -4.79543 0
M  V30 20427 H 2007.11 -1.3541 -5.32864 0
M  V30 20428 H 2008.33 -1.60005 -6.59981 0
M  V30 20429 H 2006.28 0.642832 -6.52843 0
M  V30 20430 H 2006.2 -0.776174 -7.52005 0
M  V30 20431 H 2007.47 0.382972 -7.78559 0
M  V30 20432 N 2011.69 1.41711 -0.689627 0
M  V30 20433 C 2012.92 2.05353 -0.226609 0
M  V30 20434 C 2013.33 1.51972 1.127 0
M  V30 20435 O 2012.68 0.660351 1.71421 0
M  V30 20436 C 2012.74 3.5936 -0.100309 0
M  V30 20437 C 2012.4 4.35507 -1.385 0
M  V30 20438 C 2013.4 4.65185 -2.32161 0
M  V30 20439 C 2011.08 4.74886 -1.63672 0
M  V30 20440 C 2013.08 5.33194 -3.4926 0
M  V30 20441 C 2010.76 5.42632 -2.81058 0
M  V30 20442 C 2011.76 5.71713 -3.73675 0
M  V30 20443 O 2011.45 6.38067 -4.89005 0
M  V30 20444 H 2011.18 0.667906 -0.104298 0
M  V30 20445 H 2013.74 1.82576 -0.941028 0
M  V30 20446 H 2011.97 3.80855 0.669825 0
M  V30 20447 H 2013.66 4.04599 0.324754 0
M  V30 20448 H 2014.42 4.3525 -2.13969 0
M  V30 20449 H 2010.3 4.51635 -0.924476 0
M  V30 20450 H 2013.84 5.5581 -4.2157 0
M  V30 20451 H 2009.74 5.71986 -2.99169 0
M  V30 20452 H 2010.51 6.56561 -4.88743 0
M  V30 20453 N 2013.17 0.433965 1.51507 0
M  V30 20454 C 2014.4 -0.132403 2.06476 0
M  V30 20455 C 2014.82 -1.3675 1.30172 0
M  V30 20456 O 2014.17 -1.78907 0.360351 0
M  V30 20457 C 2014.22 -0.458007 3.58587 0
M  V30 20458 O 2013.94 0.728069 4.32008 0
M  V30 20459 C 2015.45 -1.07541 4.30058 0
M  V30 20460 H 2012.67 -0.00941889 0.670934 0
M  V30 20461 H 2015.21 0.612075 1.95125 0
M  V30 20462 H 2013.36 -1.15238 3.69863 0
M  V30 20463 H 2013.78 0.450318 5.22563 0
M  V30 20464 H 2015.25 -1.25326 5.37585 0
M  V30 20465 H 2015.73 -2.0555 3.88131 0
M  V30 20466 H 2016.34 -0.420519 4.23216 0
M  V30 20467 N 2014.65 -1.56732 0.165206 0
M  V30 20468 C 2015.58 -2.20674 -0.763223 0
M  V30 20469 C 2016.56 -1.16048 -1.24366 0
M  V30 20470 O 2017.75 -1.44456 -1.29793 0
M  V30 20471 C 2014.88 -2.84269 -1.9952 0
M  V30 20472 C 2013.83 -3.94881 -1.65085 0
M  V30 20473 C 2013.16 -4.45496 -2.95698 0
M  V30 20474 C 2014.46 -5.14773 -0.883543 0
M  V30 20475 H 2016.15 -2.98513 -0.230254 0
M  V30 20476 H 2013.7 -1.43585 -0.109308 0
M  V30 20477 H 2015.65 -3.27674 -2.64967 0
M  V30 20478 H 2014.37 -2.03789 -2.55221 0
M  V30 20479 H 2013.03 -3.52122 -1.0201 0
M  V30 20480 H 2012.68 -3.61815 -3.49426 0
M  V30 20481 H 2012.38 -5.20114 -2.73414 0
M  V30 20482 H 2013.9 -4.91584 -3.62185 0
M  V30 20483 H 2015.32 -5.54908 -1.44047 0
M  V30 20484 H 2013.72 -5.95268 -0.759968 0
M  V30 20485 H 2014.79 -4.84748 0.121303 0
M  V30 20486 N 2016.13 0.10854 -1.57226 0
M  V30 20487 C 2017.38 0.814467 -1.85399 0
M  V30 20488 C 2017.7 1.79382 -0.75181 0
M  V30 20489 O 2016.96 1.9402 0.255884 0
M  V30 20490 C 2017.26 1.58963 -3.20102 0
M  V30 20491 C 2016.92 0.75362 -4.44558 0
M  V30 20492 C 2015.59 0.523111 -4.78348 0
M  V30 20493 C 2017.94 0.171574 -5.20918 0
M  V30 20494 C 2015.27 -0.299527 -5.85935 0
M  V30 20495 C 2017.62 -0.638313 -6.29371 0
M  V30 20496 C 2016.28 -0.87904 -6.61687 0
M  V30 20497 H 2015.55 0.298035 -0.678422 0
M  V30 20498 H 2018.2 0.0764359 -1.91347 0
M  V30 20499 H 2016.5 2.39886 -3.09777 0
M  V30 20500 H 2018.2 2.13998 -3.39125 0
M  V30 20501 H 2014.79 0.943382 -4.18089 0
M  V30 20502 H 2018.97 0.336852 -4.95156 0
M  V30 20503 H 2014.23 -0.49515 -6.09392 0
M  V30 20504 H 2018.4 -1.09626 -6.87717 0
M  V30 20505 H 2016.03 -1.51829 -7.44884 0
M  V30 20506 N 2017.61 1.52975 0.379009 0
M  V30 20507 C 2018.54 1.74729 1.48332 0
M  V30 20508 C 2019.55 0.627862 1.50206 0
M  V30 20509 O 2020.74 0.903805 1.53927 0
M  V30 20510 C 2017.84 1.79998 2.87148 0
M  V30 20511 C 2017.01 3.09452 3.09125 0
M  V30 20512 C 2016.07 3.06138 4.27979 0
M  V30 20513 O 2015.1 3.79976 4.23801 0
M  V30 20514 N 2016.3 2.26019 5.34692 0
M  V30 20515 H 2019.07 2.70011 1.30054 0
M  V30 20516 H 2016.63 1.51586 0.568617 0
M  V30 20517 H 2018.62 1.75275 3.64775 0
M  V30 20518 H 2017.19 0.920593 2.98737 0
M  V30 20519 H 2016.41 3.27586 2.19274 0
M  V30 20520 H 2017.7 3.9503 3.20669 0
M  V30 20521 H 2017.09 1.65515 5.40945 0
M  V30 20522 H 2015.65 2.27126 6.10948 0
M  V30 20523 N 2019.08 -0.63804 1.44107 0
M  V30 20524 C 2020.33 -1.39366 1.45808 0
M  V30 20525 C 2020.65 -1.95384 0.091867 0
M  V30 20526 O 2021.85 -2.71497 -0.0136182 0
M  V30 20527 C 2020.31 -2.52293 2.56663 0
M  V30 20528 C 2019.92 -2.02818 3.99461 0
M  V30 20529 C 2021.66 -3.29549 2.67577 0
M  V30 20530 C 2019.57 -3.13047 5.01753 0
M  V30 20531 H 2018.5 -0.5237 0.542452 0
M  V30 20532 H 2021.15 -0.687131 1.70149 0
M  V30 20533 H 2019.53 -3.25489 2.2555 0
M  V30 20534 H 2020.7 -1.36533 4.40108 0
M  V30 20535 H 2019.02 -1.38398 3.92728 0
M  V30 20536 H 2021.62 -4.11709 3.41174 0
M  V30 20537 H 2021.96 -3.78579 1.73159 0
M  V30 20538 H 2022.49 -2.63441 2.98066 0
M  V30 20539 H 2019.23 -2.68969 5.97776 0
M  V30 20540 H 2018.75 -3.77995 4.65704 0
M  V30 20541 H 2020.43 -3.77934 5.25142 0
M  V30 20542 N 2020.56 -1.3089 -0.877815 0
M  V30 20543 C 2021.81 -1.20125 -1.63022 0
M  V30 20544 C 2022.14 0.242414 -1.92983 0
M  V30 20545 O 2021.39 1.18896 -1.55442 0
M  V30 20546 C 2021.69 -1.98261 -2.97367 0
M  V30 20547 C 2021.36 -3.47825 -2.8693 0
M  V30 20548 C 2020.02 -3.88608 -2.8379 0
M  V30 20549 C 2022.37 -4.43035 -2.74535 0
M  V30 20550 C 2019.7 -5.22882 -2.66104 0
M  V30 20551 C 2022.05 -5.77425 -2.58386 0
M  V30 20552 C 2020.72 -6.17439 -2.53625 0
M  V30 20553 H 2019.99 -0.439569 -0.59654 0
M  V30 20554 H 2022.63 -1.6207 -1.02007 0
M  V30 20555 H 2020.94 -1.48972 -3.62373 0
M  V30 20556 H 2022.63 -1.87319 -3.5456 0
M  V30 20557 H 2019.22 -3.1542 -2.90187 0
M  V30 20558 H 2023.41 -4.12463 -2.76021 0
M  V30 20559 H 2018.66 -5.52968 -2.60837 0
M  V30 20560 H 2022.84 -6.50833 -2.4777 0
M  V30 20561 H 2020.47 -7.21428 -2.39679 0
M  V30 20562 N 2022.04 1.0911 -1.13723 0
M  V30 20563 C 2023.27 1.85648 -0.924643 0
M  V30 20564 C 2023.69 1.80727 0.521458 0
M  V30 20565 O 2023.05 1.18712 1.3703 0
M  V30 20566 C 2023.1 3.31415 -1.42115 0
M  V30 20567 O 2022.2 4.07886 -0.608521 0
M  V30 20568 H 2021.54 0.575539 -0.331136 0
M  V30 20569 H 2024.07 1.37763 -1.5127 0
M  V30 20570 H 2024.08 3.82262 -1.42619 0
M  V30 20571 H 2022.76 3.34311 -2.47404 0
M  V30 20572 H 2021.33 3.66802 -0.671625 0
M  V30 20573 N 2023.52 0.931232 1.27145 0
M  V30 20574 C 2024.47 0.4317 2.26727 0
M  V30 20575 C 2025.44 -0.503295 1.58291 0
M  V30 20576 O 2026.62 -0.421681 1.86082 0
M  V30 20577 C 2023.76 -0.306208 3.43739 0
M  V30 20578 C 2022.87 0.663307 4.26877 0
M  V30 20579 C 2022.01 -0.0947979 5.31115 0
M  V30 20580 C 2021.05 0.867191 6.05926 0
M  V30 20581 N 2020.18 0.141485 7.01957 0
M  V30 20582 H 2025.02 1.28587 2.6883 0
M  V30 20583 H 2022.56 0.64533 1.32189 0
M  V30 20584 H 2024.52 -0.750387 4.10396 0
M  V30 20585 H 2023.15 -1.12458 3.02577 0
M  V30 20586 H 2022.2 1.22601 3.60102 0
M  V30 20587 H 2023.51 1.39836 4.78798 0
M  V30 20588 H 2022.67 -0.598728 6.03738 0
M  V30 20589 H 2021.41 -0.862794 4.80007 0
M  V30 20590 H 2020.41 1.38234 5.32139 0
M  V30 20591 H 2021.64 1.63503 6.59123 0
M  V30 20592 H 2019.58 -0.608201 6.53174 0
M  V30 20593 H 2019.5 0.816044 7.51583 0
M  V30 20594 H 2020.77 -0.341677 7.78751 0
M  V30 20595 N 2025 -1.41343 0.697132 0
M  V30 20596 C 2026.25 -2.00432 0.225852 0
M  V30 20597 C 2026.56 -1.55857 -1.18186 0
M  V30 20598 O 2027.77 -2.07516 -1.75069 0
M  V30 20599 C 2026.22 -3.58166 0.352888 0
M  V30 20600 C 2025.83 -4.11721 1.76607 0
M  V30 20601 C 2027.57 -4.2446 -0.0585393 0
M  V30 20602 C 2025.48 -5.61895 1.84467 0
M  V30 20603 H 2024.41 -0.749671 0.0806811 0
M  V30 20604 H 2027.06 -1.61804 0.865556 0
M  V30 20605 H 2025.44 -3.94405 -0.355093 0
M  V30 20606 H 2026.62 -3.86898 2.50293 0
M  V30 20607 H 2024.93 -3.57959 2.12731 0
M  V30 20608 H 2027.53 -5.34696 -0.0202684 0
M  V30 20609 H 2027.87 -4.01572 -1.09752 0
M  V30 20610 H 2028.41 -3.93261 0.599221 0
M  V30 20611 H 2025.14 -5.89612 2.86423 0
M  V30 20612 H 2024.66 -5.8864 1.15167 0
M  V30 20613 H 2026.34 -6.26692 1.60828 0
M  V30 20614 N 2026.48 -0.441993 -1.51275 0
M  V30 20615 C 2027.75 0.183076 -1.94741 0
M  V30 20616 C 2028.13 1.59668 -1.38092 0
M  V30 20617 O 2027.48 2.21279 -0.569882 0
M  V30 20618 C 2027.69 0.156071 -3.48651 0
M  V30 20619 C 2029.04 0.359351 -4.23077 0
M  V30 20620 O 2030.06 0.233977 -3.55431 0
M  V30 20621 O 2028.92 0.609358 -5.43092 0
M  V30 20622 H 2026.02 0.127455 -0.817119 0
M  V30 20623 H 2028.56 -0.500307 -1.62157 0
M  V30 20624 H 2027.33 -0.832021 -3.82352 0
M  V30 20625 H 2026.96 0.882165 -3.8769 0
M  V30 20626 N 2027.95 1.56642 -0.173515 0
M  V30 20627 C 2029.37 1.58552 0.182625 0
M  V30 20628 C 2029.57 1.18895 1.62685 0
M  V30 20629 O 2028.63 0.901576 2.35856 0
M  V30 20630 C 2029.94 3.00533 -0.100181 0
M  V30 20631 C 2031.49 3.12976 -0.038567 0
M  V30 20632 C 2031.96 4.57053 -0.294392 0
M  V30 20633 N 2033.45 4.62566 -0.242245 0
M  V30 20634 C 2034.19 5.71901 -0.414333 0
M  V30 20635 N 2033.68 6.89785 -0.645597 0
M  V30 20636 N 2035.48 5.61009 -0.350085 0
M  V30 20637 H 2027.63 1.80706 -1.1162 0
M  V30 20638 H 2029.89 0.837643 -0.443912 0
M  V30 20639 H 2029.6 3.34031 -1.10073 0
M  V30 20640 H 2029.47 3.72281 0.607196 0
M  V30 20641 H 2031.86 2.79303 0.952559 0
M  V30 20642 H 2031.94 2.4366 -0.778688 0
M  V30 20643 H 2031.58 4.91435 -1.28274 0
M  V30 20644 H 2031.51 5.24531 0.466366 0
M  V30 20645 H 2034 3.77837 -0.0692351 0
M  V30 20646 H 2034.32 7.68991 -0.766299 0
M  V30 20647 H 2032.66 6.91643 -0.682238 0
M  V30 20648 H 2035.85 4.67791 -0.169986 0
M  V30 20649 H 2036.03 6.46163 -0.487625 0
M  V30 20650 N 2029.43 -0.1002 1.57281 0
M  V30 20651 C 2030.84 -0.655287 1.74822 0
M  V30 20652 C 2031.19 -1.79373 0.794961 0
M  V30 20653 O 2030.32 -2.16382 -0.0277532 0
M  V30 20654 C 2030.91 -1.19548 3.17008 0
M  V30 20655 C 2029.47 -1.69668 3.35991 0
M  V30 20656 C 2028.62 -0.604127 2.70639 0
M  V30 20657 H 2031.57 0.125841 1.582 0
M  V30 20658 H 2031.59 -2.06489 3.19598 0
M  V30 20659 H 2031.1 -0.366679 3.86364 0
M  V30 20660 H 2029.2 -2.54964 2.71706 0
M  V30 20661 H 2029.32 -1.79318 4.44277 0
M  V30 20662 H 2027.68 -1.04234 2.32395 0
M  V30 20663 H 2028.46 0.214006 3.42632 0
M  V30 20664 N 2030.91 -1.53174 -0.370891 0
M  V30 20665 C 2031.82 -1.82187 -1.478 0
M  V30 20666 C 2032.84 -0.70987 -1.58861 0
M  V30 20667 O 2034.01 -0.999372 -1.74856 0
M  V30 20668 C 2031.08 -2.00097 -2.83129 0
M  V30 20669 C 2030.14 -3.24002 -2.8164 0
M  V30 20670 C 2029.37 -3.41048 -4.10514 0
M  V30 20671 O 2029.59 -2.62503 -5.06407 0
M  V30 20672 O 2028.53 -4.34381 -4.16649 0
M  V30 20673 H 2032.35 -2.76234 -1.26207 0
M  V30 20674 H 2029.94 -1.38488 -0.560483 0
M  V30 20675 H 2031.82 -2.13479 -3.63324 0
M  V30 20676 H 2030.5 -1.0924 -3.0471 0
M  V30 20677 H 2029.4 -3.16048 -2.00162 0
M  V30 20678 H 2030.74 -4.14764 -2.65012 0
M  V30 20679 N 2032.39 0.630389 -1.44443 0
M  V30 20680 C 2033.35 1.72422 -1.51008 0
M  V30 20681 C 2034.35 1.55948 -0.392038 0
M  V30 20682 O 2035.54 1.61429 -0.654688 0
M  V30 20683 C 2032.67 3.1151 -1.38472 0
M  V30 20684 H 2033.87 1.67975 -2.48444 0
M  V30 20685 H 2031.42 0.844115 -1.31546 0
M  V30 20686 H 2032.15 3.21551 -0.421327 0
M  V30 20687 H 2031.94 3.24874 -2.19544 0
M  V30 20688 H 2033.43 3.91228 -1.46049 0
M  V30 20689 N 2033.87 1.31354 0.870861 0
M  V30 20690 C 2035.09 1.24082 1.66188 0
M  V30 20691 C 2035.52 -0.190886 1.87129 0
M  V30 20692 O 2034.87 -1.13669 1.41241 0
M  V30 20693 C 2034.92 1.98926 3.00767 0
M  V30 20694 O 2034.03 1.32599 3.90501 0
M  V30 20695 H 2033.37 0.428443 0.50728 0
M  V30 20696 H 2035.9 1.73408 1.08586 0
M  V30 20697 H 2035.91 2.08487 3.5071 0
M  V30 20698 H 2034.58 3.03044 2.84846 0
M  V30 20699 H 2033.16 1.31483 3.48951 0
M  V30 20700 N 2035.34 -1.08505 1.143 0
M  V30 20701 C 2036.76 -1.32937 0.883172 0
M  V30 20702 C 2036.96 -1.95791 -0.47623 0
M  V30 20703 O 2036.02 -2.2103 -1.22073 0
M  V30 20704 C 2037.33 -2.23189 2.01512 0
M  V30 20705 C 2038.88 -2.36672 2.0483 0
M  V30 20706 C 2039.35 -3.30266 3.17314 0
M  V30 20707 N 2040.84 -3.37843 3.16886 0
M  V30 20708 C 2041.58 -4.1029 4.00561 0
M  V30 20709 N 2041.07 -4.85454 4.94274 0
M  V30 20710 N 2042.87 -4.06111 3.88626 0
M  V30 20711 H 2035.02 -0.660869 2.01857 0
M  V30 20712 H 2037.28 -0.353741 0.879529 0
M  V30 20713 H 2036.99 -1.84248 2.99576 0
M  V30 20714 H 2036.86 -3.23644 1.93738 0
M  V30 20715 H 2039.25 -2.74873 1.07373 0
M  V30 20716 H 2039.33 -1.35963 2.16674 0
M  V30 20717 H 2038.97 -2.92787 4.15016 0
M  V30 20718 H 2038.9 -4.30901 3.02707 0
M  V30 20719 H 2041.39 -2.84257 2.49011 0
M  V30 20720 H 2041.71 -5.38193 5.54588 0
M  V30 20721 H 2040.05 -4.8451 4.98272 0
M  V30 20722 H 2043.24 -3.46497 3.14734 0
M  V30 20723 H 2043.42 -4.6231 4.54064 0
M  V30 20724 N 2036.82 -0.937962 -1.26649 0
M  V30 20725 C 2038.07 -0.57958 -1.93194 0
M  V30 20726 C 2038.38 0.88505 -1.74431 0
M  V30 20727 O 2039.59 1.35267 -2.35404 0
M  V30 20728 C 2038.05 -0.985803 -3.46136 0
M  V30 20729 C 2037.65 -2.47182 -3.73637 0
M  V30 20730 C 2039.4 -0.699162 -4.18703 0
M  V30 20731 C 2037.3 -2.81691 -5.20004 0
M  V30 20732 H 2036.23 -0.213046 -0.723275 0
M  V30 20733 H 2038.89 -1.14017 -1.43779 0
M  V30 20734 H 2037.27 -0.353775 -3.94417 0
M  V30 20735 H 2038.44 -3.15263 -3.36075 0
M  V30 20736 H 2036.76 -2.73143 -3.14296 0
M  V30 20737 H 2039.35 -0.933359 -5.26491 0
M  V30 20738 H 2039.7 0.363979 -4.14706 0
M  V30 20739 H 2040.23 -1.29076 -3.76277 0
M  V30 20740 H 2036.97 -3.86955 -5.29099 0
M  V30 20741 H 2036.49 -2.1827 -5.58675 0
M  V30 20742 H 2038.17 -2.69984 -5.87978 0
M  V30 20743 N 2038.3 1.40971 -0.704618 0
M  V30 20744 C 2039.26 2.29137 -0.053886 0
M  V30 20745 C 2040.26 1.44828 0.698682 0
M  V30 20746 O 2041.45 1.65871 0.532221 0
M  V30 20747 C 2038.58 3.27859 0.933861 0
M  V30 20748 H 2039.78 2.88178 -0.830268 0
M  V30 20749 H 2037.33 1.49109 -0.468632 0
M  V30 20750 H 2038.07 2.73815 1.73769 0
M  V30 20751 H 2037.85 3.90082 0.397249 0
M  V30 20752 H 2039.34 3.93905 1.38669 0
M  V30 20753 N 2039.78 0.45001 1.51039 0
M  V30 20754 C 2040.71 -0.345315 2.30933 0
M  V30 20755 C 2041.69 -1.00959 1.36899 0
M  V30 20756 O 2042.87 -1.0108 1.6582 0
M  V30 20757 C 2040 -1.43968 3.16055 0
M  V30 20758 C 2038.96 -0.898198 4.18469 0
M  V30 20759 C 2038.28 -2.08927 4.92193 0
M  V30 20760 C 2039.58 0.0760911 5.22245 0
M  V30 20761 H 2041.28 0.321441 2.97669 0
M  V30 20762 H 2038.82 0.156032 1.43152 0
M  V30 20763 H 2040.78 -2.00338 3.70732 0
M  V30 20764 H 2039.5 -2.1349 2.47163 0
M  V30 20765 H 2038.16 -0.356617 3.64861 0
M  V30 20766 H 2037.81 -2.77098 4.19792 0
M  V30 20767 H 2037.51 -1.73328 5.61454 0
M  V30 20768 H 2039.03 -2.65827 5.49698 0
M  V30 20769 H 2040.45 -0.397728 5.71919 0
M  V30 20770 H 2038.84 0.345281 5.99106 0
M  V30 20771 H 2039.91 1.00878 4.74291 0
M  V30 20772 N 2041.26 -1.56548 0.18182 0
M  V30 20773 C 2042.19 -2.21471 -0.739774 0
M  V30 20774 C 2043.17 -1.17361 -1.23128 0
M  V30 20775 O 2044.35 -1.45825 -1.28253 0
M  V30 20776 C 2041.48 -2.86369 -1.96494 0
M  V30 20777 C 2040.44 -3.96609 -1.60888 0
M  V30 20778 C 2039.76 -4.48607 -2.90957 0
M  V30 20779 C 2041.06 -5.15681 -0.828895 0
M  V30 20780 H 2042.76 -2.98741 -0.19858 0
M  V30 20781 H 2040.3 -1.43692 -0.0940725 0
M  V30 20782 H 2042.26 -3.30466 -2.61477 0
M  V30 20783 H 2040.98 -2.06485 -2.53045 0
M  V30 20784 H 2039.64 -3.53184 -0.982694 0
M  V30 20785 H 2039.29 -3.65501 -3.45569 0
M  V30 20786 H 2038.99 -5.22984 -2.67882 0
M  V30 20787 H 2040.51 -4.95397 -3.56951 0
M  V30 20788 H 2041.92 -5.56405 -1.38153 0
M  V30 20789 H 2040.32 -5.96041 -0.696789 0
M  V30 20790 H 2041.39 -4.84592 0.172711 0
M  V30 20791 N 2042.73 0.0918577 -1.57332 0
M  V30 20792 C 2043.66 1.11191 -2.05326 0
M  V30 20793 C 2044.65 1.41581 -0.942802 0
M  V30 20794 O 2045.83 1.51555 -1.21428 0
M  V30 20795 C 2042.96 2.4309 -2.48041 0
M  V30 20796 C 2041.91 2.271 -3.6278 0
M  V30 20797 C 2041.24 3.64205 -3.91482 0
M  V30 20798 C 2042.54 1.70886 -4.93554 0
M  V30 20799 H 2044.23 0.712608 -2.90796 0
M  V30 20800 H 2041.78 0.341338 -1.39896 0
M  V30 20801 H 2043.73 3.14724 -2.80226 0
M  V30 20802 H 2042.46 2.84962 -1.59575 0
M  V30 20803 H 2041.12 1.57911 -3.30847 0
M  V30 20804 H 2040.76 4.03611 -3.00179 0
M  V30 20805 H 2040.46 3.54352 -4.68731 0
M  V30 20806 H 2041.99 4.37302 -4.26145 0
M  V30 20807 H 2043.4 2.32364 -5.24099 0
M  V30 20808 H 2041.8 1.71783 -5.74987 0
M  V30 20809 H 2042.87 0.668569 -4.80269 0
M  V30 20810 N 2044.21 1.53368 0.362763 0
M  V30 20811 C 2045.15 1.74792 1.46707 0
M  V30 20812 C 2046.12 0.596367 1.51269 0
M  V30 20813 O 2047.31 0.829291 1.69278 0
M  V30 20814 C 2044.43 1.82926 2.85054 0
M  V30 20815 C 2043.48 3.04921 2.98204 0
M  V30 20816 S 2044.31 4.64381 2.66666 0
M  V30 20817 C 2045.47 4.75367 4.07157 0
M  V30 20818 H 2045.7 2.68184 1.28314 0
M  V30 20819 H 2043.24 1.43993 0.557272 0
M  V30 20820 H 2045.19 1.88297 3.64766 0
M  V30 20821 H 2043.85 0.905801 3.00756 0
M  V30 20822 H 2043.05 3.0723 3.99532 0
M  V30 20823 H 2042.65 2.97676 2.26418 0
M  V30 20824 H 2044.94 4.55595 5.01437 0
M  V30 20825 H 2045.88 5.77432 4.09852 0
M  V30 20826 H 2046.29 4.03977 3.94288 0
M  V30 20827 N 2045.69 -0.62272 1.44776 0
M  V30 20828 C 2046.65 -1.71618 1.5192 0
M  V30 20829 C 2047.65 -1.55738 0.400303 0
M  V30 20830 O 2048.84 -1.6108 0.66324 0
M  V30 20831 C 2045.98 -3.10771 1.40122 0
M  V30 20832 H 2047.17 -1.66655 2.49332 0
M  V30 20833 H 2044.72 -0.837126 1.31992 0
M  V30 20834 H 2045.46 -3.21323 0.438374 0
M  V30 20835 H 2045.24 -3.23705 2.21264 0
M  V30 20836 H 2046.73 -3.90448 1.48122 0
M  V30 20837 N 2047.17 -1.31814 -0.863883 0
M  V30 20838 C 2048.39 -1.24961 -1.65528 0
M  V30 20839 C 2048.82 0.18096 -1.87228 0
M  V30 20840 O 2048.18 1.12919 -1.41842 0
M  V30 20841 C 2048.22 -2.00518 -2.99708 0
M  V30 20842 O 2047.33 -1.34668 -3.89793 0
M  V30 20843 H 2046.67 -0.431127 -0.505001 0
M  V30 20844 H 2049.2 -1.73981 -1.07665 0
M  V30 20845 H 2049.21 -2.10344 -3.49599 0
M  V30 20846 H 2047.88 -3.0455 -2.83235 0
M  V30 20847 H 2046.46 -1.33332 -3.48249 0
M  V30 20848 N 2048.65 1.07897 -1.14873 0
M  V30 20849 C 2049.58 2.14852 -0.798188 0
M  V30 20850 C 2050.59 1.61719 0.187287 0
M  V30 20851 O 2051.78 1.78465 -0.0351681 0
M  V30 20852 C 2048.88 3.38498 -0.16499 0
M  V30 20853 C 2048.05 4.21 -1.1865 0
M  V30 20854 C 2047.11 5.23037 -0.576101 0
M  V30 20855 O 2046.14 5.55518 -1.24051 0
M  V30 20856 N 2047.34 5.76908 0.644745 0
M  V30 20857 H 2050.11 2.45528 -1.71861 0
M  V30 20858 H 2047.67 1.23755 -1.04386 0
M  V30 20859 H 2049.66 4.0389 0.255991 0
M  V30 20860 H 2048.23 3.05582 0.658666 0
M  V30 20861 H 2047.45 3.51509 -1.78423 0
M  V30 20862 H 2048.74 4.72937 -1.87639 0
M  V30 20863 H 2048.13 5.5276 1.20302 0
M  V30 20864 H 2046.69 6.43956 1.00816 0
M  V30 20865 N 2050.12 0.944665 1.2615 0
M  V30 20866 C 2051.03 0.463226 2.29981 0
M  V30 20867 C 2052.05 -0.464516 1.67685 0
M  V30 20868 O 2053.23 -0.343195 1.98454 0
M  V30 20869 C 2050.29 -0.260612 3.45719 0
M  V30 20870 C 2049.35 0.704117 4.23486 0
M  V30 20871 C 2048.59 0.0147279 5.33698 0
M  V30 20872 O 2048.81 -1.20155 5.57601 0
M  V30 20873 O 2047.74 0.695202 5.97872 0
M  V30 20874 H 2051.57 1.3258 2.73233 0
M  V30 20875 H 2049.15 0.710696 1.31413 0
M  V30 20876 H 2051.04 -0.668207 4.16068 0
M  V30 20877 H 2049.71 -1.09852 3.0449 0
M  V30 20878 H 2048.62 1.16172 3.55605 0
M  V30 20879 H 2049.95 1.50974 4.68474 0
M  V30 20880 N 2051.6 -1.40596 0.712085 0
M  V30 20881 C 2053.01 -1.83887 0.322883 0
M  V30 20882 C 2053.36 -1.59548 -1.14188 0
M  V30 20883 O 2052.49 -1.07452 -1.87838 0
M  V30 20884 C 2053.08 -3.33811 0.579252 0
M  V30 20885 C 2051.64 -3.7561 0.243796 0
M  V30 20886 C 2050.79 -2.63843 0.853361 0
M  V30 20887 H 2053.74 -1.29913 0.911501 0
M  V30 20888 H 2053.76 -3.80177 -0.156661 0
M  V30 20889 H 2053.27 -3.51494 1.6454 0
M  V30 20890 H 2051.38 -3.63523 -0.817429 0
M  V30 20891 H 2051.49 -4.73805 0.710348 0
M  V30 20892 H 2049.85 -2.53138 0.281671 0
M  V30 20893 H 2050.64 -2.84339 1.9237 0
M  V30 20894 N 2053.08 -0.458013 -1.50798 0
M  V30 20895 C 2054.01 0.379016 -2.26044 0
M  V30 20896 C 2055.03 0.96848 -1.3086 0
M  V30 20897 O 2056.21 0.859106 -1.56466 0
M  V30 20898 C 2053.31 1.54427 -3.01671 0
M  V30 20899 C 2052.49 1.06997 -4.24111 0
M  V30 20900 C 2051.55 2.10775 -4.82142 0
M  V30 20901 O 2050.57 1.69367 -5.43418 0
M  V30 20902 N 2051.77 3.43464 -4.67988 0
M  V30 20903 H 2054.54 -0.266 -2.98517 0
M  V30 20904 H 2052.1 -0.288052 -1.59317 0
M  V30 20905 H 2054.09 2.23518 -3.37375 0
M  V30 20906 H 2052.66 2.09423 -2.32079 0
M  V30 20907 H 2051.88 0.205395 -3.93665 0
M  V30 20908 H 2053.17 0.730786 -5.03525 0
M  V30 20909 H 2052.57 3.79824 -4.19226 0
M  V30 20910 H 2051.13 4.0839 -5.07997 0
M  V30 20911 N 2054.56 1.56449 -0.190119 0
M  V30 20912 C 2055.98 1.58736 0.165798 0
M  V30 20913 C 2056.18 1.20613 1.61414 0
M  V30 20914 O 2055.23 0.926541 2.34886 0
M  V30 20915 C 2056.54 3.0041 -0.132051 0
M  V30 20916 C 2058.09 3.12918 -0.0717601 0
M  V30 20917 C 2058.57 4.56715 -0.342852 0
M  V30 20918 N 2060.06 4.62283 -0.291293 0
M  V30 20919 C 2060.79 5.71429 -0.474968 0
M  V30 20920 N 2060.29 6.89062 -0.718722 0
M  V30 20921 N 2062.08 5.60606 -0.409568 0
M  V30 20922 H 2054.23 1.79512 -1.1353 0
M  V30 20923 H 2056.5 0.832888 -0.452771 0
M  V30 20924 H 2056.2 3.32845 -1.13609 0
M  V30 20925 H 2056.08 3.72904 0.567676 0
M  V30 20926 H 2058.46 2.80298 0.922882 0
M  V30 20927 H 2058.54 2.4282 -0.804488 0
M  V30 20928 H 2058.19 4.90047 -1.33479 0
M  V30 20929 H 2058.12 5.24996 0.410707 0
M  V30 20930 H 2060.61 3.77742 -0.109306 0
M  V30 20931 H 2060.92 7.68135 -0.847818 0
M  V30 20932 H 2059.27 6.90881 -0.755557 0
M  V30 20933 H 2062.46 4.67585 -0.219592 0
M  V30 20934 H 2062.63 6.45609 -0.556132 0
M  V30 20935 N 2056.04 -0.0835127 1.57379 0
M  V30 20936 C 2056.97 -1.13193 1.98148 0
M  V30 20937 C 2057.95 -1.38213 0.856507 0
M  V30 20938 O 2059.13 -1.5178 1.11781 0
M  V30 20939 C 2056.26 -2.47874 2.30817 0
M  V30 20940 C 2055.31 -2.39062 3.53202 0
M  V30 20941 S 2056.14 -1.79599 5.04484 0
M  V30 20942 C 2057.29 -3.15881 5.40342 0
M  V30 20943 H 2057.53 -0.784436 2.86765 0
M  V30 20944 H 2055.06 -0.291621 1.51621 0
M  V30 20945 H 2057.02 -3.25351 2.50314 0
M  V30 20946 H 2055.68 -2.79788 1.4275 0
M  V30 20947 H 2054.87 -3.38355 3.73539 0
M  V30 20948 H 2054.47 -1.69718 3.33274 0
M  V30 20949 H 2056.77 -4.12176 5.37696 0
M  V30 20950 H 2057.71 -3.00336 6.41252 0
M  V30 20951 H 2058.12 -3.15947 4.67801 0
M  V30 20952 N 2057.52 -1.53558 -0.354624 0
M  V30 20953 C 2058.74 -1.74503 -1.12087 0
M  V30 20954 C 2059.17 -0.477817 -1.8193 0
M  V30 20955 O 2058.52 0.568868 -1.72144 0
M  V30 20956 C 2058.57 -2.91808 -2.1185 0
M  V30 20957 O 2057.68 -2.61182 -3.19152 0
M  V30 20958 H 2057.02 -0.579191 -0.324705 0
M  V30 20959 H 2059.55 -2.00483 -0.4084 0
M  V30 20960 H 2059.56 -3.18284 -2.55263 0
M  V30 20961 H 2058.23 -3.83721 -1.6041 0
M  V30 20962 H 2056.81 -2.45558 -2.80634 0
M  V30 20963 N 2058.99 0.615033 -1.45104 0
M  V30 20964 C 2060.41 0.934983 -1.29345 0
M  V30 20965 C 2060.61 2.00053 -0.241008 0
M  V30 20966 O 2059.67 2.4981 0.367607 0
M  V30 20967 C 2060.98 1.38297 -2.6701 0
M  V30 20968 C 2062.53 1.49759 -2.74848 0
M  V30 20969 C 2063 1.97936 -4.1302 0
M  V30 20970 N 2064.49 2.05181 -4.15277 0
M  V30 20971 C 2065.23 2.43664 -5.19052 0
M  V30 20972 N 2064.72 2.81169 -6.33179 0
M  V30 20973 N 2066.52 2.43938 -5.06409 0
M  V30 20974 H 2058.67 -0.0893888 -2.12212 0
M  V30 20975 H 2060.93 0.0226574 -0.947729 0
M  V30 20976 H 2060.64 0.674238 -3.45177 0
M  V30 20977 H 2060.51 2.35093 -2.94976 0
M  V30 20978 H 2062.9 2.19725 -1.9699 0
M  V30 20979 H 2062.98 0.512965 -2.50604 0
M  V30 20980 H 2062.62 1.28559 -4.9136 0
M  V30 20981 H 2062.55 2.97298 -4.34651 0
M  V30 20982 H 2065.04 1.78817 -3.32916 0
M  V30 20983 H 2065.36 3.09393 -7.08164 0
M  V30 20984 H 2063.7 2.78882 -6.36592 0
M  V30 20985 H 2066.89 2.1404 -4.16299 0
M  V30 20986 H 2067.07 2.73604 -5.87405 0
M  V30 20987 N 2060.47 1.3227 0.85688 0
M  V30 20988 C 2061.42 1.20972 1.98667 0
M  V30 20989 C 2062.41 0.115019 1.69009 0
M  V30 20990 O 2063.62 0.277796 1.77843 0
M  V30 20991 H 2059.99 0.374926 0.65187 0
M  V30 20992 H 2061.97 2.16528 2.05324 0
M  V30 20993 C 2060.71 0.947348 3.34545 0
M  V30 20994 H 2060.04 1.78189 3.57895 0
M  V30 20995 H 2061.48 0.908529 4.14152 0
M  V30 20996 C 2059.94 -0.349912 3.35078 0
M  V30 20997 O 2060.47 -1.3625 3.77887 0
M  V30 20998 N 2058.67 -0.371097 2.88221 0
M  V30 20999 H 2058.22 0.453449 2.53578 0
M  V30 21000 H 2058.18 -1.23894 2.8896 0
M  V30 21001 N 2061.95 -1.07287 1.15444 0
M  V30 21002 C 2063.2 -1.79896 0.929722 0
M  V30 21003 C 2063.52 -1.86764 -0.543105 0
M  V30 21004 O 2062.78 -1.34794 -1.41877 0
M  V30 21005 C 2063.08 -3.24863 1.48992 0
M  V30 21006 C 2062.74 -3.38094 2.98334 0
M  V30 21007 C 2061.41 -3.41412 3.39104 0
M  V30 21008 C 2063.76 -3.40837 3.94309 0
M  V30 21009 C 2061.09 -3.45077 4.74488 0
M  V30 21010 C 2063.44 -3.46039 5.29565 0
M  V30 21011 C 2062.1 -3.47635 5.6983 0
M  V30 21012 H 2061.37 -0.658285 0.340209 0
M  V30 21013 H 2064.02 -1.26242 1.43997 0
M  V30 21014 H 2062.32 -3.81302 0.900869 0
M  V30 21015 H 2064.02 -3.79621 1.29185 0
M  V30 21016 H 2060.61 -3.3621 2.65821 0
M  V30 21017 H 2064.8 -3.37494 3.63884 0
M  V30 21018 H 2060.05 -3.44611 5.05028 0
M  V30 21019 H 2064.23 -3.47108 6.03729 0
M  V30 21020 H 2061.85 -3.50228 6.74718 0
M  V30 21021 N 2063.43 -0.951342 -1.25647 0
M  V30 21022 C 2064.67 -0.605246 -1.93558 0
M  V30 21023 C 2065.01 0.85507 -1.74362 0
M  V30 21024 O 2064.28 1.61308 -1.08674 0
M  V30 21025 C 2064.56 -0.960718 -3.47048 0
M  V30 21026 C 2064.42 -2.47652 -3.75484 0
M  V30 21027 C 2065.74 -0.483409 -4.37437 0
M  V30 21028 H 2062.86 -0.22136 -0.702971 0
M  V30 21029 H 2065.5 -1.1874 -1.48327 0
M  V30 21030 H 2063.65 -0.465324 -3.85703 0
M  V30 21031 H 2065.32 -3.04543 -3.46484 0
M  V30 21032 H 2063.56 -2.91564 -3.21205 0
M  V30 21033 H 2064.23 -2.67575 -4.82812 0
M  V30 21034 H 2066.71 -0.908309 -4.06065 0
M  V30 21035 H 2065.59 -0.760858 -5.43601 0
M  V30 21036 H 2065.85 0.616645 -4.37778 0
M  V30 21037 N 2064.91 1.40216 -0.719531 0
M  V30 21038 C 2066.32 1.54673 -0.393494 0
M  V30 21039 C 2066.52 1.69001 1.09732 0
M  V30 21040 O 2065.58 1.6818 1.88339 0
M  V30 21041 C 2066.89 2.77299 -1.163 0
M  V30 21042 C 2068.44 2.9112 -1.14969 0
M  V30 21043 C 2068.91 4.16665 -1.90143 0
M  V30 21044 N 2070.4 4.23673 -1.87232 0
M  V30 21045 C 2071.14 5.19729 -2.42219 0
M  V30 21046 N 2070.64 6.21669 -3.05778 0
M  V30 21047 N 2072.43 5.11835 -2.32338 0
M  V30 21048 H 2064.58 1.29162 -1.68614 0
M  V30 21049 H 2066.84 0.624867 -0.712914 0
M  V30 21050 H 2066.55 2.73003 -2.21726 0
M  V30 21051 H 2066.42 3.69521 -0.757213 0
M  V30 21052 H 2068.81 2.94918 -0.103615 0
M  V30 21053 H 2068.89 2.00005 -1.59473 0
M  V30 21054 H 2068.53 4.13629 -2.94744 0
M  V30 21055 H 2068.46 5.06796 -1.43057 0
M  V30 21056 H 2070.96 3.50645 -1.40914 0
M  V30 21057 H 2071.27 6.91396 -3.45241 0
M  V30 21058 H 2069.61 6.22101 -3.09863 0
M  V30 21059 H 2072.8 4.31127 -1.82338 0
M  V30 21060 H 2072.98 5.86522 -2.75492 0
M  V30 21061 N 2066.38 0.466004 1.50553 0
M  V30 21062 C 2067.61 -0.0884484 2.06411 0
M  V30 21063 C 2068.02 -1.34509 1.33057 0
M  V30 21064 O 2067.36 -1.79472 0.391869 0
M  V30 21065 C 2067.43 -0.44758 3.56703 0
M  V30 21066 C 2067.09 0.70631 4.51509 0
M  V30 21067 C 2068.09 1.58687 4.9509 0
M  V30 21068 C 2065.77 0.895191 4.94259 0
M  V30 21069 C 2067.77 2.64076 5.80123 0
M  V30 21070 C 2065.45 1.95231 5.79075 0
M  V30 21071 C 2066.45 2.82346 6.21908 0
M  V30 21072 O 2066.14 3.86239 7.05035 0
M  V30 21073 H 2065.87 0.00147065 0.675998 0
M  V30 21074 H 2068.43 0.652308 1.94767 0
M  V30 21075 H 2066.66 -1.24145 3.66231 0
M  V30 21076 H 2068.34 -0.93652 3.94948 0
M  V30 21077 H 2069.11 1.45261 4.62736 0
M  V30 21078 H 2064.99 0.226608 4.60443 0
M  V30 21079 H 2068.53 3.32103 6.13476 0
M  V30 21080 H 2064.43 2.08666 6.10843 0
M  V30 21081 H 2065.2 3.83166 7.23275 0
M  V30 21082 N 2067.86 -1.56346 0.198413 0
M  V30 21083 C 2069.11 -1.97966 -0.440131 0
M  V30 21084 C 2069.44 -1.08533 -1.61041 0
M  V30 21085 O 2068.72 -0.138034 -1.9401 0
M  V30 21086 C 2069 -3.48747 -0.897069 0
M  V30 21087 C 2068.85 -4.48957 0.275249 0
M  V30 21088 C 2070.17 -4.03314 -1.76141 0
M  V30 21089 H 2067.29 -0.719752 -0.15851 0
M  V30 21090 H 2069.93 -1.87774 0.290003 0
M  V30 21091 H 2068.08 -3.57564 -1.51921 0
M  V30 21092 H 2069.75 -4.52175 0.912988 0
M  V30 21093 H 2068 -4.23791 0.926484 0
M  V30 21094 H 2068.67 -5.51931 -0.0870366 0
M  V30 21095 H 2071.14 -3.97297 -1.23669 0
M  V30 21096 H 2070.02 -5.09178 -2.05009 0
M  V30 21097 H 2070.28 -3.48776 -2.71676 0
M  V30 21098 N 2069.34 0.0751653 -1.57421 0
M  V30 21099 C 2070.27 1.11632 -2.00177 0
M  V30 21100 C 2071.29 1.35179 -0.907222 0
M  V30 21101 O 2072.47 1.33479 -1.18515 0
M  V30 21102 C 2069.57 2.46792 -2.32265 0
M  V30 21103 C 2068.75 2.43248 -3.63524 0
M  V30 21104 C 2067.81 3.60488 -3.8332 0
M  V30 21105 O 2066.83 3.42071 -4.54946 0
M  V30 21106 N 2068.03 4.80713 -3.25416 0
M  V30 21107 H 2070.8 0.752243 -2.90106 0
M  V30 21108 H 2068.36 0.263867 -1.59735 0
M  V30 21109 H 2070.35 3.23861 -2.42685 0
M  V30 21110 H 2068.92 2.75214 -1.48243 0
M  V30 21111 H 2068.14 1.51587 -3.63889 0
M  V30 21112 H 2069.43 2.37977 -4.49716 0
M  V30 21113 H 2068.83 4.9858 -2.67273 0
M  V30 21114 H 2067.39 5.55306 -3.4129 0
M  V30 21115 N 2070.82 1.53744 0.346476 0
M  V30 21116 C 2072.07 1.70512 1.0849 0
M  V30 21117 C 2072.39 0.469467 1.89264 0
M  V30 21118 O 2071.66 -0.516594 1.88966 0
M  V30 21119 H 2070.24 0.628636 0.403517 0
M  V30 21120 H 2072.9 1.9099 0.388459 0
M  V30 21121 H 2072 2.57472 1.76394 0
M  V30 21122 N 2072.3 -0.607329 1.45428 0
M  V30 21123 C 2073.23 -1.72873 1.56962 0
M  V30 21124 C 2074.21 -1.64804 0.421159 0
M  V30 21125 O 2075.39 -1.83199 0.64433 0
M  V30 21126 C 2072.52 -3.11476 1.53622 0
M  V30 21127 C 2071.48 -3.34357 2.67188 0
M  V30 21128 C 2070.8 -4.73236 2.48902 0
M  V30 21129 C 2072.1 -3.24586 4.09196 0
M  V30 21130 H 2073.8 -1.63477 2.5083 0
M  V30 21131 H 2071.34 -0.785054 1.20718 0
M  V30 21132 H 2073.3 -3.89725 1.60288 0
M  V30 21133 H 2072.02 -3.21714 0.562838 0
M  V30 21134 H 2070.68 -2.58499 2.5995 0
M  V30 21135 H 2070.33 -4.80206 1.49702 0
M  V30 21136 H 2070.03 -4.895 3.25059 0
M  V30 21137 H 2071.55 -5.53684 2.57422 0
M  V30 21138 H 2072.96 -3.92709 4.17676 0
M  V30 21139 H 2071.36 -3.52381 4.85745 0
M  V30 21140 H 2072.43 -2.22022 4.31085 0
M  V30 21141 N 2073.77 -1.32722 -0.849853 0
M  V30 21142 C 2074.72 -1.2206 -1.95882 0
M  V30 21143 C 2075.69 -0.101678 -1.65788 0
M  V30 21144 O 2076.88 -0.278058 -1.88763 0
M  V30 21145 C 2074.02 -0.954544 -3.31636 0
M  V30 21146 C 2073.13 -2.15871 -3.74198 0
M  V30 21147 C 2072.26 -1.82773 -4.98766 0
M  V30 21148 C 2071.3 -2.99483 -5.33832 0
M  V30 21149 N 2070.44 -2.66445 -6.49578 0
M  V30 21150 H 2075.28 -2.16914 -2.04334 0
M  V30 21151 H 2072.82 -1.07877 -1.00004 0
M  V30 21152 H 2074.78 -0.780763 -4.09829 0
M  V30 21153 H 2073.41 -0.042781 -3.22772 0
M  V30 21154 H 2072.46 -2.4426 -2.91618 0
M  V30 21155 H 2073.77 -3.03157 -3.96102 0
M  V30 21156 H 2072.92 -1.61974 -5.84679 0
M  V30 21157 H 2071.66 -0.927067 -4.78808 0
M  V30 21158 H 2070.67 -3.20907 -4.46429 0
M  V30 21159 H 2071.89 -3.90288 -5.55745 0
M  V30 21160 H 2069.84 -1.78926 -6.31127 0
M  V30 21161 H 2069.76 -3.47262 -6.71524 0
M  V30 21162 H 2071.02 -2.49088 -7.38631 0
M  V30 21163 N 2075.25 1.06673 -1.16011 0
M  V30 21164 C 2076.2 2.14051 -0.863174 0
M  V30 21165 C 2077.17 1.65046 0.186783 0
M  V30 21166 O 2078.35 1.90727 0.0528262 0
M  V30 21167 C 2075.49 3.43152 -0.366184 0
M  V30 21168 C 2074.61 4.05911 -1.47852 0
M  V30 21169 C 2073.74 5.22872 -0.936942 0
M  V30 21170 C 2072.78 5.77607 -2.02574 0
M  V30 21171 N 2071.92 6.85889 -1.50004 0
M  V30 21172 H 2076.76 2.38791 -1.78277 0
M  V30 21173 H 2074.3 1.17165 -0.889421 0
M  V30 21174 H 2076.25 4.17157 -0.0596984 0
M  V30 21175 H 2074.88 3.18641 0.516479 0
M  V30 21176 H 2073.94 3.29491 -1.90105 0
M  V30 21177 H 2075.25 4.42592 -2.3003 0
M  V30 21178 H 2074.4 6.03888 -0.583409 0
M  V30 21179 H 2073.14 4.87627 -0.0844157 0
M  V30 21180 H 2072.15 4.95231 -2.38802 0
M  V30 21181 H 2073.37 6.14905 -2.88217 0
M  V30 21182 H 2071.32 6.5257 -0.669982 0
M  V30 21183 H 2071.23 7.21491 -2.25802 0
M  V30 21184 H 2072.5 7.70594 -1.17496 0
M  V30 21185 N 2076.73 0.957992 1.25141 0
M  V30 21186 C 2077.68 0.479695 2.2576 0
M  V30 21187 C 2078.65 -0.469606 1.59323 0
M  V30 21188 O 2079.83 -0.382116 1.86935 0
M  V30 21189 C 2076.97 -0.233227 3.44311 0
M  V30 21190 C 2076.09 0.753705 4.25374 0
M  V30 21191 C 2075.22 0.0178808 5.31197 0
M  V30 21192 C 2074.26 0.995522 6.0395 0
M  V30 21193 N 2073.4 0.290349 7.01499 0
M  V30 21194 H 2078.24 1.3426 2.66042 0
M  V30 21195 H 2075.77 0.673224 1.3079 0
M  V30 21196 H 2077.73 -0.663168 4.11896 0
M  V30 21197 H 2076.36 -1.06015 3.04894 0
M  V30 21198 H 2075.41 1.30212 3.5742 0
M  V30 21199 H 2076.73 1.4996 4.75724 0
M  V30 21200 H 2075.88 -0.470532 6.04873 0
M  V30 21201 H 2074.62 -0.760784 4.8173 0
M  V30 21202 H 2073.62 1.4949 5.29087 0
M  V30 21203 H 2074.85 1.77447 6.55507 0
M  V30 21204 H 2072.79 -0.469516 6.54318 0
M  V30 21205 H 2072.71 0.975282 7.49683 0
M  V30 21206 H 2073.98 -0.176416 7.793 0
M  V30 21207 N 2078.21 -1.39832 0.726957 0
M  V30 21208 C 2079.16 -2.30655 0.0817379 0
M  V30 21209 C 2080.13 -1.48792 -0.738257 0
M  V30 21210 O 2081.31 -1.775 -0.699873 0
M  V30 21211 C 2078.45 -3.35079 -0.825599 0
M  V30 21212 C 2077.56 -4.32 0.006145 0
M  V30 21213 C 2076.7 -5.23491 -0.90172 0
M  V30 21214 C 2075.74 -6.12066 -0.064744 0
M  V30 21215 N 2074.87 -6.95939 -0.928103 0
M  V30 21216 H 2079.71 -2.85263 0.861906 0
M  V30 21217 H 2077.25 -1.40468 0.436709 0
M  V30 21218 H 2079.21 -3.94203 -1.36602 0
M  V30 21219 H 2077.84 -2.81946 -1.57183 0
M  V30 21220 H 2076.89 -3.74562 0.66389 0
M  V30 21221 H 2078.2 -4.94499 0.65365 0
M  V30 21222 H 2077.36 -5.87602 -1.51027 0
M  V30 21223 H 2076.1 -4.61294 -1.58302 0
M  V30 21224 H 2075.1 -5.46975 0.556665 0
M  V30 21225 H 2076.33 -6.76326 0.613222 0
M  V30 21226 H 2074.27 -6.36318 -1.59484 0
M  V30 21227 H 2074.19 -7.55249 -0.336895 0
M  V30 21228 H 2075.46 -7.64487 -1.52247 0
M  V30 21229 N 2079.69 -0.473982 -1.50304 0
M  V30 21230 C 2080.93 0.0801282 -2.02642 0
M  V30 21231 C 2081.27 1.3911 -1.35506 0
M  V30 21232 O 2080.54 1.8844 -0.481719 0
M  V30 21233 C 2080.82 0.26092 -3.59153 0
M  V30 21234 C 2080.68 -1.07128 -4.36857 0
M  V30 21235 C 2082 1.01413 -4.28256 0
M  V30 21236 H 2079.11 0.0276467 -0.736481 0
M  V30 21237 H 2081.76 -0.620135 -1.79595 0
M  V30 21238 H 2079.91 0.857378 -3.78921 0
M  V30 21239 H 2081.58 -1.70454 -4.28653 0
M  V30 21240 H 2079.82 -1.66721 -4.00483 0
M  V30 21241 H 2080.49 -0.898389 -5.4464 0
M  V30 21242 H 2082.97 0.508536 -4.12981 0
M  V30 21243 H 2081.84 1.10943 -5.37571 0
M  V30 21244 H 2082.11 2.05141 -3.91624 0
M  V30 21245 N 2081.16 1.56239 -0.206702 0
M  V30 21246 C 2082.41 1.97079 0.429267 0
M  V30 21247 C 2082.73 1.09689 1.6195 0
M  V30 21248 O 2083.93 1.40363 2.32402 0
M  V30 21249 C 2082.39 3.50548 0.815111 0
M  V30 21250 C 2082 4.46619 -0.351476 0
M  V30 21251 C 2083.74 4.00133 1.41751 0
M  V30 21252 C 2081.65 5.91374 0.0559745 0
M  V30 21253 H 2080.58 0.735915 0.164151 0
M  V30 21254 H 2083.23 1.81022 -0.300562 0
M  V30 21255 H 2081.61 3.62152 1.60194 0
M  V30 21256 H 2082.78 4.46754 -1.12903 0
M  V30 21257 H 2081.1 4.07292 -0.866134 0
M  V30 21258 H 2083.7 5.05768 1.73501 0
M  V30 21259 H 2084.04 3.45116 2.3281 0
M  V30 21260 H 2084.57 3.91692 0.694423 0
M  V30 21261 H 2081.31 6.50342 -0.820723 0
M  V30 21262 H 2080.83 5.94466 0.798148 0
M  V30 21263 H 2082.51 6.45159 0.487795 0
M  V30 21264 N 2082.64 -0.0668159 1.57458 0
M  V30 21265 C 2083.89 -0.766159 1.87771 0
M  V30 21266 C 2084.22 -1.76973 0.799644 0
M  V30 21267 O 2083.5 -1.93574 -0.189554 0
M  V30 21268 C 2083.78 -1.46969 3.28743 0
M  V30 21269 C 2083.63 -0.482195 4.47208 0
M  V30 21270 C 2084.95 -2.41336 3.68029 0
M  V30 21271 H 2082.07 -0.277066 0.682937 0
M  V30 21272 H 2084.71 -0.0292751 1.89977 0
M  V30 21273 H 2082.86 -2.09781 3.26993 0
M  V30 21274 H 2084.53 0.141096 4.61084 0
M  V30 21275 H 2082.78 0.202041 4.33329 0
M  V30 21276 H 2083.45 -1.01218 5.42641 0
M  V30 21277 H 2085.92 -1.88598 3.70905 0
M  V30 21278 H 2084.8 -2.87562 4.67546 0
M  V30 21279 H 2085.06 -3.26361 2.98229 0
M  V30 21280 N 2084.12 -1.53926 -0.338317 0
M  V30 21281 C 2085.37 -1.70639 -1.07542 0
M  V30 21282 C 2085.68 -0.479077 -1.89642 0
M  V30 21283 O 2086.89 -0.527259 -2.66331 0
M  V30 21284 C 2085.35 -3.0176 -1.96134 0
M  V30 21285 C 2084.95 -4.31847 -1.19216 0
M  V30 21286 C 2086.7 -3.27839 -2.6967 0
M  V30 21287 C 2084.6 -5.54039 -2.06869 0
M  V30 21288 H 2083.53 -0.635868 -0.4052 0
M  V30 21289 H 2086.19 -1.80424 -0.334569 0
M  V30 21290 H 2084.57 -2.85845 -2.7406 0
M  V30 21291 H 2085.74 -4.58482 -0.461647 0
M  V30 21292 H 2084.06 -4.12421 -0.574263 0
M  V30 21293 H 2086.65 -4.16322 -3.3553 0
M  V30 21294 H 2087 -2.45074 -3.36518 0
M  V30 21295 H 2087.53 -3.44554 -1.98815 0
M  V30 21296 H 2084.27 -6.39363 -1.44554 0
M  V30 21297 H 2083.79 -5.31645 -2.77694 0
M  V30 21298 H 2085.47 -5.89881 -2.658 0
M  V30 21299 N 2085.6 0.599608 -1.45748 0
M  V30 21300 C 2087.01 1.18163 -1.44549 0
M  V30 21301 C 2087.36 1.95397 -0.17732 0
M  V30 21302 O 2086.49 2.04048 0.720645 0
M  V30 21303 C 2087.08 2.14951 -2.6188 0
M  V30 21304 C 2085.64 2.68513 -2.63776 0
M  V30 21305 C 2084.79 1.44065 -2.3694 0
M  V30 21306 H 2087.74 0.388471 -1.53872 0
M  V30 21307 H 2087.76 2.98126 -2.36434 0
M  V30 21308 H 2087.27 1.58711 -3.54164 0
M  V30 21309 H 2085.37 3.28669 -1.7552 0
M  V30 21310 H 2085.49 3.12401 -3.63239 0
M  V30 21311 H 2083.85 1.73296 -1.86657 0
M  V30 21312 H 2084.63 0.896802 -3.31379 0
M  V30 21313 N 2087.08 1.33171 0.842803 0
M  V30 21314 C 2088.32 1.24589 1.60017 0
M  V30 21315 C 2088.66 -0.188935 1.93279 0
M  V30 21316 O 2087.93 -1.12923 1.58362 0
M  V30 21317 C 2088.21 2.11731 2.91277 0
M  V30 21318 C 2088.07 3.63652 2.64721 0
M  V30 21319 C 2089.39 1.98749 3.92666 0
M  V30 21320 H 2086.51 0.453935 0.580613 0
M  V30 21321 H 2089.15 1.63234 0.972356 0
M  V30 21322 H 2087.3 1.78904 3.44856 0
M  V30 21323 H 2088.97 4.06751 2.17604 0
M  V30 21324 H 2087.21 3.85728 1.98486 0
M  V30 21325 H 2087.88 4.19966 3.58236 0
M  V30 21326 H 2090.36 2.2753 3.48381 0
M  V30 21327 H 2089.24 2.61979 4.82347 0
M  V30 21328 H 2089.5 0.958565 4.31583 0
M  V30 21329 N 2088.56 -1.06056 1.16576 0
M  V30 21330 C 2089.8 -1.78546 0.946876 0
M  V30 21331 C 2090.12 -1.87758 -0.526489 0
M  V30 21332 O 2089.39 -1.38801 -1.38243 0
M  V30 21333 H 2087.97 -0.661335 0.347341 0
M  V30 21334 H 2090.64 -1.28101 1.46888 0
M  V30 21335 H 2089.73 -2.80537 1.36767 0
M  V30 21336 N 2090.03 -0.964615 -1.24631 0
M  V30 21337 C 2091.28 -0.620429 -1.91921 0
M  V30 21338 C 2091.6 0.847851 -1.76269 0
M  V30 21339 O 2092.8 1.30243 -2.38221 0
M  V30 21340 C 2091.26 -1.059 -3.43967 0
M  V30 21341 C 2090.87 -2.55052 -3.6831 0
M  V30 21342 C 2092.61 -0.787818 -4.17126 0
M  V30 21343 C 2090.52 -2.92658 -5.13912 0
M  V30 21344 H 2089.45 -0.22834 -0.718594 0
M  V30 21345 H 2092.1 -1.17041 -1.41328 0
M  V30 21346 H 2090.48 -0.437357 -3.93577 0
M  V30 21347 H 2091.65 -3.2232 -3.29312 0
M  V30 21348 H 2089.97 -2.79748 -3.08432 0
M  V30 21349 H 2092.57 -1.04483 -5.24392 0
M  V30 21350 H 2092.91 0.275932 -4.15385 0
M  V30 21351 H 2093.44 -1.37028 -3.73454 0
M  V30 21352 H 2090.18 -3.98091 -5.20772 0
M  V30 21353 H 2089.7 -2.30071 -5.5392 0
M  V30 21354 H 2091.38 -2.82395 -5.82119 0
M  V30 21355 N 2091.51 1.39445 -0.734362 0
M  V30 21356 C 2092.76 2.0013 -0.281468 0
M  V30 21357 C 2093.08 1.58562 1.13504 0
M  V30 21358 O 2092.35 0.833568 1.77281 0
M  V30 21359 H 2090.93 0.74013 -0.101076 0
M  V30 21360 H 2093.59 1.70503 -0.944178 0
M  V30 21361 H 2092.69 3.10357 -0.329356 0
M  V30 21362 N 2092.99 0.481946 1.5005 0
M  V30 21363 C 2094.4 0.0294639 1.86677 0
M  V30 21364 C 2094.75 -1.37874 1.39589 0
M  V30 21365 O 2093.88 -2.02407 0.765517 0
M  V30 21366 C 2094.47 0.0466921 3.38768 0
M  V30 21367 C 2093.03 -0.350364 3.74766 0
M  V30 21368 C 2092.18 0.427499 2.73985 0
M  V30 21369 H 2095.13 0.69569 1.42639 0
M  V30 21370 H 2095.15 -0.75302 3.72974 0
M  V30 21371 H 2094.66 1.07172 3.73009 0
M  V30 21372 H 2092.76 -1.37934 3.46128 0
M  V30 21373 H 2092.88 -0.0441626 4.7908 0
M  V30 21374 H 2091.24 -0.120219 2.54416 0
M  V30 21375 H 2092.02 1.45225 3.1107 0
M  V30 21376 N 2094.47 -1.56127 0.214985 0
M  V30 21377 C 2095.42 -2.16628 -0.711066 0
M  V30 21378 C 2096.4 -1.11271 -1.16222 0
M  V30 21379 O 2097.59 -1.37278 -1.11731 0
M  V30 21380 C 2094.72 -2.84465 -1.92184 0
M  V30 21381 C 2093.81 -3.97039 -1.49067 0
M  V30 21382 N 2094.2 -4.99879 -0.771666 0
M  V30 21383 C 2092.5 -4.09007 -1.77846 0
M  V30 21384 C 2093.2 -5.79068 -0.55272 0
M  V30 21385 N 2092.17 -5.322 -1.10745 0
M  V30 21386 H 2095.98 -2.935 -0.153234 0
M  V30 21387 H 2093.49 -1.62392 0.0159773 0
M  V30 21388 H 2095.49 -3.26215 -2.59595 0
M  V30 21389 H 2094.15 -2.09087 -2.48421 0
M  V30 21390 H 2095.16 -5.16153 -0.425036 0
M  V30 21391 H 2091.84 -3.44775 -2.35449 0
M  V30 21392 H 2093.23 -6.71897 0.019071 0
M  V30 21393 N 2095.95 0.0584645 -1.57492 0
M  V30 21394 C 2096.91 1.05251 -2.03605 0
M  V30 21395 C 2097.91 1.30807 -0.935209 0
M  V30 21396 O 2099.1 1.26304 -1.19971 0
M  V30 21397 C 2096.23 2.39288 -2.42804 0
M  V30 21398 H 2097.42 0.654779 -2.92665 0
M  V30 21399 H 2094.98 0.304552 -1.53304 0
M  V30 21400 H 2095.71 2.83868 -1.56811 0
M  V30 21401 H 2095.5 2.22077 -3.23147 0
M  V30 21402 H 2096.99 3.10713 -2.79011 0
M  V30 21403 N 2097.42 1.54103 0.330149 0
M  V30 21404 C 2098.37 1.83745 1.4262 0
M  V30 21405 C 2099.37 0.708869 1.53855 0
M  V30 21406 O 2100.57 0.892427 1.56319 0
M  V30 21407 H 2096.95 0.58234 0.475799 0
M  V30 21408 H 2098.92 2.75417 1.1484 0
M  V30 21409 C 2097.67 2.07574 2.78941 0
M  V30 21410 H 2096.99 2.93875 2.71068 0
M  V30 21411 H 2098.43 2.32273 3.54719 0
M  V30 21412 C 2096.89 0.865282 3.25599 0
M  V30 21413 O 2097.42 0.0712874 4.01637 0
M  V30 21414 N 2095.62 0.678754 2.82562 0
M  V30 21415 H 2095.17 1.32607 2.20847 0
M  V30 21416 H 2095.13 -0.129662 3.14133 0
M  V30 21417 N 2098.9 -0.59187 1.46064 0
M  V30 21418 C 2099.83 -1.71199 1.58787 0
M  V30 21419 C 2100.81 -1.64348 0.438615 0
M  V30 21420 O 2102 -1.82506 0.663725 0
M  V30 21421 C 2099.13 -3.0983 1.56917 0
M  V30 21422 C 2098.08 -3.31505 2.70719 0
M  V30 21423 C 2097.41 -4.70569 2.53907 0
M  V30 21424 C 2098.71 -3.20228 4.12615 0
M  V30 21425 H 2100.4 -1.60807 2.5255 0
M  V30 21426 H 2097.95 -0.772206 1.21544 0
M  V30 21427 H 2099.9 -3.88003 1.64413 0
M  V30 21428 H 2098.63 -3.21099 0.596928 0
M  V30 21429 H 2097.28 -2.55727 2.62677 0
M  V30 21430 H 2096.93 -4.78592 1.54787 0
M  V30 21431 H 2096.63 -4.86025 3.30232 0
M  V30 21432 H 2098.16 -5.50923 2.6328 0
M  V30 21433 H 2099.57 -3.88257 4.21817 0
M  V30 21434 H 2097.97 -3.47209 4.89455 0
M  V30 21435 H 2099.04 -2.17437 4.33416 0
M  V30 21436 N 2100.38 -1.33616 -0.835729 0
M  V30 21437 C 2101.33 -1.24131 -1.94577 0
M  V30 21438 C 2102.3 -0.119257 -1.65671 0
M  V30 21439 O 2103.48 -0.298063 -1.88457 0
M  V30 21440 C 2100.62 -0.989665 -3.30605 0
M  V30 21441 C 2099.74 -2.19828 -3.71887 0
M  V30 21442 C 2098.87 -1.88052 -4.96799 0
M  V30 21443 C 2097.91 -3.05128 -5.30625 0
M  V30 21444 N 2097.05 -2.7332 -6.46715 0
M  V30 21445 H 2101.89 -2.19069 -2.02022 0
M  V30 21446 H 2099.42 -1.08932 -0.988545 0
M  V30 21447 H 2101.38 -0.824187 -4.08978 0
M  V30 21448 H 2100.01 -0.0770128 -3.22708 0
M  V30 21449 H 2099.06 -2.4734 -2.89011 0
M  V30 21450 H 2100.38 -3.07341 -3.92865 0
M  V30 21451 H 2099.53 -1.68166 -5.82928 0
M  V30 21452 H 2098.27 -0.977799 -4.77797 0
M  V30 21453 H 2097.27 -3.25624 -4.43 0
M  V30 21454 H 2098.5 -3.9616 -5.51574 0
M  V30 21455 H 2096.44 -1.8561 -6.29194 0
M  V30 21456 H 2096.36 -3.54365 -6.67804 0
M  V30 21457 H 2097.63 -2.56909 -7.35947 0
M  V30 21458 N 2101.86 1.05436 -1.17136 0
M  V30 21459 C 2102.79 2.13111 -0.843582 0
M  V30 21460 C 2103.8 1.6208 0.152942 0
M  V30 21461 O 2104.99 1.78351 -0.0730153 0
M  V30 21462 C 2102.09 3.38072 -0.236753 0
M  V30 21463 C 2101.27 4.18389 -1.27553 0
M  V30 21464 C 2100.32 5.21697 -0.686916 0
M  V30 21465 O 2099.35 5.52761 -1.35807 0
M  V30 21466 N 2100.55 5.78146 0.522229 0
M  V30 21467 H 2103.32 2.41827 -1.7703 0
M  V30 21468 H 2100.88 1.21513 -1.06987 0
M  V30 21469 H 2102.87 4.04342 0.170262 0
M  V30 21470 H 2101.44 3.0691 0.593699 0
M  V30 21471 H 2100.66 3.47645 -1.85839 0
M  V30 21472 H 2101.95 4.6885 -1.97628 0
M  V30 21473 H 2101.35 5.55188 1.0855 0
M  V30 21474 H 2099.9 6.4595 0.871341 0
M  V30 21475 N 2103.34 0.971211 1.24118 0
M  V30 21476 C 2104.59 0.630598 1.91589 0
M  V30 21477 C 2104.9 -0.838491 1.76716 0
M  V30 21478 O 2106.1 -1.28978 2.38908 0
M  V30 21479 C 2104.56 1.07723 3.434 0
M  V30 21480 C 2104.17 2.57002 3.66953 0
M  V30 21481 C 2105.91 0.809928 4.16702 0
M  V30 21482 C 2103.82 2.95379 5.12352 0
M  V30 21483 H 2102.75 0.232148 0.717373 0
M  V30 21484 H 2105.4 1.17789 1.40706 0
M  V30 21485 H 2103.78 0.458223 3.9334 0
M  V30 21486 H 2104.96 3.24062 3.27598 0
M  V30 21487 H 2103.27 2.8138 3.06944 0
M  V30 21488 H 2105.87 1.07262 5.23831 0
M  V30 21489 H 2106.21 -0.253899 4.15525 0
M  V30 21490 H 2106.74 1.39007 3.72722 0
M  V30 21491 H 2103.48 4.00847 5.18654 0
M  V30 21492 H 2103 2.33005 5.52692 0
M  V30 21493 H 2104.68 2.85478 5.80613 0
M  V30 21494 N 2104.81 -1.39054 0.741747 0
M  V30 21495 C 2106.23 -1.54028 0.418052 0
M  V30 21496 C 2106.43 -1.70725 -1.07029 0
M  V30 21497 O 2105.49 -1.71155 -1.8564 0
M  V30 21498 C 2106.8 -2.75414 1.20697 0
M  V30 21499 C 2108.35 -2.89254 1.19586 0
M  V30 21500 C 2108.82 -4.13587 1.96748 0
M  V30 21501 N 2110.31 -4.2064 1.93948 0
M  V30 21502 C 2111.05 -5.15809 2.50456 0
M  V30 21503 N 2110.54 -6.16725 3.15629 0
M  V30 21504 N 2112.34 -5.08074 2.40452 0
M  V30 21505 H 2104.49 -1.26464 1.70648 0
M  V30 21506 H 2106.75 -0.613446 0.722764 0
M  V30 21507 H 2106.46 -2.69441 2.26041 0
M  V30 21508 H 2106.33 -3.6827 0.815905 0
M  V30 21509 H 2108.72 -2.94716 0.150521 0
M  V30 21510 H 2108.8 -1.97443 1.62635 0
M  V30 21511 H 2108.44 -4.08887 3.01287 0
M  V30 21512 H 2108.37 -5.04456 1.51102 0
M  V30 21513 H 2110.86 -3.48358 1.46475 0
M  V30 21514 H 2111.18 -6.85816 3.56197 0
M  V30 21515 H 2109.52 -6.17093 3.19721 0
M  V30 21516 H 2112.71 -4.28172 1.89174 0
M  V30 21517 H 2112.89 -5.82065 2.84788 0
M  V30 21518 N 2106.29 -0.489897 -1.49792 0
M  V30 21519 C 2107.22 0.283966 -2.31767 0
M  V30 21520 C 2108.2 0.972934 -1.39528 0
M  V30 21521 O 2109.39 0.966482 -1.68442 0
M  V30 21522 C 2106.52 1.35538 -3.19761 0
M  V30 21523 C 2105.47 0.786932 -4.20703 0
M  V30 21524 C 2104.8 1.95803 -4.97559 0
M  V30 21525 C 2106.1 -0.214528 -5.21859 0
M  V30 21526 H 2107.79 -0.40025 -2.96713 0
M  V30 21527 H 2105.34 -0.193932 -1.42688 0
M  V30 21528 H 2107.29 1.90438 -3.75914 0
M  V30 21529 H 2106.02 2.06862 -2.52736 0
M  V30 21530 H 2104.67 0.259755 -3.65679 0
M  V30 21531 H 2104.32 2.65871 -4.26992 0
M  V30 21532 H 2104.02 1.58381 -5.65853 0
M  V30 21533 H 2105.55 2.51159 -5.56553 0
M  V30 21534 H 2106.96 0.245954 -5.72772 0
M  V30 21535 H 2105.36 -0.504002 -5.9798 0
M  V30 21536 H 2106.43 -1.13417 -4.71449 0
M  V30 21537 N 2107.77 1.56011 -0.223262 0
M  V30 21538 C 2109.02 1.97523 0.40834 0
M  V30 21539 C 2109.33 1.11401 1.60777 0
M  V30 21540 O 2110.54 1.4282 2.309 0
M  V30 21541 C 2108.99 3.51393 0.777885 0
M  V30 21542 C 2108.6 4.46221 -0.398826 0
M  V30 21543 C 2110.35 4.01614 1.37499 0
M  V30 21544 C 2108.25 5.914 -0.00675168 0
M  V30 21545 H 2107.18 0.737614 0.156337 0
M  V30 21546 H 2109.83 1.80693 -0.319744 0
M  V30 21547 H 2108.22 3.6383 1.56344 0
M  V30 21548 H 2109.39 4.45532 -1.17635 0
M  V30 21549 H 2107.71 4.06351 -0.909284 0
M  V30 21550 H 2110.3 5.0758 1.68127 0
M  V30 21551 H 2110.65 3.47566 2.29137 0
M  V30 21552 H 2111.18 3.92406 0.65284 0
M  V30 21553 H 2107.92 6.49435 -0.889654 0
M  V30 21554 H 2107.44 5.95279 0.735052 0
M  V30 21555 H 2109.12 6.4564 0.419339 0
M  V30 21556 N 2109.25 -0.0501116 1.5752 0
M  V30 21557 C 2110.16 -1.07459 2.08542 0
M  V30 21558 C 2111.17 -1.41006 1.01947 0
M  V30 21559 O 2112.35 -1.50749 1.33555 0
M  V30 21560 C 2109.42 -2.36274 2.53723 0
M  V30 21561 C 2108.48 -2.095 3.74711 0
M  V30 21562 C 2107.71 -3.32174 4.17728 0
M  V30 21563 O 2107.93 -4.42091 3.60432 0
M  V30 21564 O 2106.87 -3.1911 5.10346 0
M  V30 21565 H 2110.69 -0.671065 2.96193 0
M  V30 21566 H 2108.28 -0.265709 1.47018 0
M  V30 21567 H 2110.16 -3.12043 2.83208 0
M  V30 21568 H 2108.83 -2.75963 1.69192 0
M  V30 21569 H 2107.74 -1.31366 3.50277 0
M  V30 21570 H 2109.07 -1.74679 4.60161 0
M  V30 21571 N 2110.73 -1.54276 -0.321972 0
M  V30 21572 C 2111.67 -1.83772 -1.3963 0
M  V30 21573 C 2112.64 -0.684941 -1.5132 0
M  V30 21574 O 2113.83 -0.931526 -1.66515 0
M  V30 21575 C 2110.97 -2.07212 -2.75966 0
M  V30 21576 C 2110.08 -3.34892 -2.72895 0
M  V30 21577 C 2109.22 -3.48284 -4.01088 0
M  V30 21578 C 2108.26 -4.69833 -3.9233 0
M  V30 21579 N 2107.39 -4.80144 -5.12256 0
M  V30 21580 H 2112.23 -2.75425 -1.13777 0
M  V30 21581 H 2109.77 -1.36401 -0.550737 0
M  V30 21582 H 2111.73 -2.18794 -3.55225 0
M  V30 21583 H 2110.36 -1.18848 -3.00125 0
M  V30 21584 H 2109.41 -3.32039 -1.85618 0
M  V30 21585 H 2110.72 -4.2426 -2.62307 0
M  V30 21586 H 2109.88 -3.59417 -4.88778 0
M  V30 21587 H 2108.61 -2.57011 -4.14483 0
M  V30 21588 H 2107.62 -4.58755 -3.03024 0
M  V30 21589 H 2108.84 -5.62492 -3.80498 0
M  V30 21590 H 2106.79 -3.91787 -5.26155 0
M  V30 21591 H 2106.71 -5.6348 -5.0401 0
M  V30 21592 H 2107.98 -4.9561 -6.01657 0
M  V30 21593 N 2112.2 0.584116 -1.46376 0
M  V30 21594 C 2113.14 1.70778 -1.52865 0
M  V30 21595 C 2114.15 1.57366 -0.417122 0
M  V30 21596 O 2115.34 1.64816 -0.685411 0
M  V30 21597 C 2112.44 3.09015 -1.39151 0
M  V30 21598 C 2111.61 3.48443 -2.64397 0
M  V30 21599 C 2110.67 4.65735 -2.44903 0
M  V30 21600 O 2109.7 4.71667 -3.1862 0
M  V30 21601 N 2110.9 5.60523 -1.50978 0
M  V30 21602 H 2113.66 1.65666 -2.49749 0
M  V30 21603 H 2111.22 0.770058 -1.42414 0
M  V30 21604 H 2113.22 3.85272 -1.23884 0
M  V30 21605 H 2111.79 3.08502 -0.50453 0
M  V30 21606 H 2111.01 2.61906 -2.94616 0
M  V30 21607 H 2112.29 3.71552 -3.47601 0
M  V30 21608 H 2111.69 5.58465 -0.90186 0
M  V30 21609 H 2110.25 6.36217 -1.41674 0
M  V30 21610 N 2113.68 1.34058 0.828631 0
M  V30 21611 C 2114.65 1.25063 1.92073 0
M  V30 21612 C 2115.65 0.167192 1.59928 0
M  V30 21613 O 2116.84 0.419428 1.69075 0
M  V30 21614 C 2113.97 0.929519 3.27983 0
M  V30 21615 H 2115.16 2.22146 2.01472 0
M  V30 21616 H 2112.71 1.18263 1.02193 0
M  V30 21617 H 2113.45 -0.0383856 3.24277 0
M  V30 21618 H 2113.23 1.71313 3.52696 0
M  V30 21619 H 2114.72 0.891605 4.07971 0
M  V30 21620 N 2115.16 -1.04814 1.17694 0
M  V30 21621 C 2116.57 -1.5934 0.973022 0
M  V30 21622 C 2116.92 -1.90256 -0.479284 0
M  V30 21623 O 2116.05 -1.68704 -1.35528 0
M  V30 21624 C 2116.64 -2.89503 1.75993 0
M  V30 21625 C 2115.2 -3.40674 1.60058 0
M  V30 21626 C 2114.35 -2.14356 1.75916 0
M  V30 21627 H 2117.3 -0.87578 1.32347 0
M  V30 21628 H 2117.32 -3.5957 1.24457 0
M  V30 21629 H 2116.83 -2.6697 2.81689 0
M  V30 21630 H 2114.93 -3.68235 0.568665 0
M  V30 21631 H 2115.05 -4.15004 2.39393 0
M  V30 21632 H 2113.41 -2.25301 1.18793 0
M  V30 21633 H 2114.19 -1.94288 2.83032 0
M  V30 21634 N 2116.64 -0.977779 -1.23601 0
M  V30 21635 C 2117.55 -0.524039 -2.28672 0
M  V30 21636 C 2118.57 0.419894 -1.68858 0
M  V30 21637 O 2119.74 0.290458 -1.99295 0
M  V30 21638 C 2116.81 0.16886 -3.46289 0
M  V30 21639 C 2115.87 -0.81615 -4.21471 0
M  V30 21640 C 2115.1 -0.156223 -5.33471 0
M  V30 21641 O 2115.32 1.05329 -5.60591 0
M  V30 21642 O 2114.26 -0.853473 -5.95818 0
M  V30 21643 H 2118.08 -1.39778 -2.69622 0
M  V30 21644 H 2115.67 -0.745288 -1.29483 0
M  V30 21645 H 2117.55 0.557659 -4.17694 0
M  V30 21646 H 2116.23 1.0174 -3.07296 0
M  V30 21647 H 2115.13 -1.2556 -3.524 0
M  V30 21648 H 2116.47 -1.63342 -4.64306 0
M  V30 21649 N 2118.12 1.38658 -0.749111 0
M  V30 21650 C 2119.07 2.3235 -0.10773 0
M  V30 21651 C 2120.06 1.5379 0.710284 0
M  V30 21652 O 2121.27 1.69353 0.609885 0
M  V30 21653 H 2117.64 0.751829 -0.0160406 0
M  V30 21654 H 2119.61 2.84055 -0.91408 0
M  V30 21655 C 2118.36 3.38962 0.774615 0
M  V30 21656 H 2117.68 3.99501 0.154555 0
M  V30 21657 H 2119.12 4.06936 1.19076 0
M  V30 21658 C 2117.58 2.77165 1.91524 0
M  V30 21659 O 2118.11 2.66119 3.00904 0
M  V30 21660 N 2116.32 2.35041 1.70892 0
M  V30 21661 H 2115.87 2.44224 0.819286 0
M  V30 21662 H 2115.82 1.94035 2.47382 0
M  V30 21663 N 2119.6 0.497834 1.49531 0
M  V30 21664 C 2120.54 -0.282279 2.29067 0
M  V30 21665 C 2121.51 -0.963221 1.35319 0
M  V30 21666 O 2122.7 -0.970497 1.64274 0
M  V30 21667 C 2119.84 -1.34265 3.1791 0
M  V30 21668 C 2118.95 -0.673799 4.26713 0
M  V30 21669 C 2118.09 -1.71434 5.02776 0
M  V30 21670 C 2117.12 -1.02719 6.0342 0
M  V30 21671 N 2116.26 -2.01178 6.7266 0
M  V30 21672 H 2121.1 0.402227 2.95273 0
M  V30 21673 H 2118.64 0.210203 1.4559 0
M  V30 21674 H 2120.6 -1.96938 3.67792 0
M  V30 21675 H 2119.23 -1.99596 2.53695 0
M  V30 21676 H 2118.28 0.0661428 3.80342 0
M  V30 21677 H 2119.59 -0.132722 4.98623 0
M  V30 21678 H 2118.74 -2.4162 5.56511 0
M  V30 21679 H 2117.48 -2.28926 4.30632 0
M  V30 21680 H 2116.49 -0.311083 5.48919 0
M  V30 21681 H 2117.71 -0.458799 6.77548 0
M  V30 21682 H 2115.66 -2.57639 6.0329 0
M  V30 21683 H 2115.58 -1.52128 7.40536 0
M  V30 21684 H 2116.84 -2.70663 7.31001 0
M  V30 21685 N 2121.07 -1.5589 0.231532 0
M  V30 21686 C 2122.04 -2.19461 -0.661012 0
M  V30 21687 C 2123.04 -1.15936 -1.11424 0
M  V30 21688 O 2124.23 -1.41111 -1.02144 0
M  V30 21689 C 2121.36 -2.82592 -1.90669 0
M  V30 21690 H 2122.55 -2.9971 -0.106607 0
M  V30 21691 H 2120.1 -1.5629 -0.0180602 0
M  V30 21692 H 2120.84 -2.06239 -2.50272 0
M  V30 21693 H 2120.62 -3.58412 -1.59007 0
M  V30 21694 H 2122.11 -3.3129 -2.54238 0
M  V30 21695 N 2122.55 0.0417572 -1.57545 0
M  V30 21696 C 2123.8 0.7351 -1.88686 0
M  V30 21697 C 2124.13 1.76032 -0.827216 0
M  V30 21698 O 2123.38 1.94931 0.173363 0
M  V30 21699 C 2123.68 1.45244 -3.26556 0
M  V30 21700 C 2123.35 0.56439 -4.47354 0
M  V30 21701 C 2122.01 0.319756 -4.80136 0
M  V30 21702 C 2124.36 -0.0495197 -5.21176 0
M  V30 21703 C 2121.69 -0.547773 -5.84137 0
M  V30 21704 C 2124.04 -0.904676 -6.26098 0
M  V30 21705 C 2122.7 -1.15889 -6.57363 0
M  V30 21706 H 2121.97 0.268992 -0.690452 0
M  V30 21707 H 2124.62 -0.00478987 -1.91499 0
M  V30 21708 H 2122.93 2.26532 -3.19673 0
M  V30 21709 H 2124.62 1.99422 -3.47896 0
M  V30 21710 H 2121.21 0.765207 -4.21714 0
M  V30 21711 H 2125.4 0.126537 -4.96139 0
M  V30 21712 H 2120.65 -0.753169 -6.06743 0
M  V30 21713 H 2124.83 -1.38695 -6.82449 0
M  V30 21714 H 2122.45 -1.83286 -7.37774 0
M  V30 21715 N 2124.03 1.54445 0.313786 0
M  V30 21716 C 2125.28 1.73373 1.05212 0
M  V30 21717 C 2125.61 0.511165 1.87352 0
M  V30 21718 O 2124.88 -0.491833 1.88179 0
M  V30 21719 C 2125.17 3.01517 1.96874 0
M  V30 21720 C 2125.02 4.34046 1.17999 0
M  V30 21721 C 2126.34 3.25462 2.96248 0
M  V30 21722 H 2123.46 0.630823 0.381092 0
M  V30 21723 H 2126.1 1.87149 0.327891 0
M  V30 21724 H 2124.25 2.89903 2.58628 0
M  V30 21725 H 2125.92 4.57559 0.586302 0
M  V30 21726 H 2124.16 4.31109 0.482437 0
M  V30 21727 H 2124.84 5.19949 1.85355 0
M  V30 21728 H 2127.31 3.36602 2.44619 0
M  V30 21729 H 2126.19 4.16464 3.57559 0
M  V30 21730 H 2126.45 2.43151 3.69229 0
M  V30 21731 N 2125.51 -0.576345 1.46683 0
M  V30 21732 C 2126.44 -1.69505 1.60594 0
M  V30 21733 C 2127.42 -1.63873 0.456022 0
M  V30 21734 O 2128.6 -1.81791 0.683045 0
M  V30 21735 C 2125.73 -3.08148 1.60194 0
M  V30 21736 C 2124.69 -3.28615 2.7422 0
M  V30 21737 C 2124.01 -4.6785 2.58884 0
M  V30 21738 C 2125.31 -3.15834 4.15989 0
M  V30 21739 H 2127.01 -1.58119 2.54241 0
M  V30 21740 H 2124.55 -0.759271 1.22356 0
M  V30 21741 H 2126.51 -3.86237 1.68519 0
M  V30 21742 H 2125.23 -3.20447 0.630952 0
M  V30 21743 H 2123.89 -2.52927 2.65375 0
M  V30 21744 H 2123.54 -4.76923 1.59854 0
M  V30 21745 H 2123.24 -4.82495 3.35368 0
M  V30 21746 H 2124.76 -5.48099 2.69109 0
M  V30 21747 H 2126.18 -3.83761 4.25911 0
M  V30 21748 H 2124.57 -3.41998 4.9311 0
M  V30 21749 H 2125.64 -2.12828 4.35698 0
M  V30 21750 N 2126.99 -1.34495 -0.82151 0
M  V30 21751 C 2128.21 -1.30164 -1.61468 0
M  V30 21752 C 2128.64 0.121303 -1.87708 0
M  V30 21753 O 2127.99 1.08349 -1.45362 0
M  V30 21754 C 2128.04 -2.09951 -2.93177 0
M  V30 21755 O 2127.15 -1.47 -3.85311 0
M  V30 21756 H 2126.49 -0.446975 -0.491029 0
M  V30 21757 H 2129.02 -1.77318 -1.02075 0
M  V30 21758 H 2129.03 -2.21359 -3.4273 0
M  V30 21759 H 2127.7 -3.13407 -2.73402 0
M  V30 21760 H 2126.28 -1.44343 -3.4383 0
M  V30 21761 N 2128.46 1.04188 -1.18248 0
M  V30 21762 C 2129.69 1.81559 -1.00255 0
M  V30 21763 C 2130.11 1.82777 0.444336 0
M  V30 21764 O 2129.47 1.24417 1.31872 0
M  V30 21765 C 2129.52 3.25089 -1.56044 0
M  V30 21766 O 2128.62 4.04938 -0.780971 0
M  V30 21767 H 2127.97 0.560976 -0.355248 0
M  V30 21768 H 2130.5 1.31223 -1.56977 0
M  V30 21769 H 2130.51 3.75869 -1.58703 0
M  V30 21770 H 2129.18 3.23517 -2.61361 0
M  V30 21771 H 2127.76 3.63623 -0.826593 0
M  V30 21772 N 2129.94 0.98432 1.23081 0
M  V30 21773 C 2131.19 0.656352 1.91885 0
M  V30 21774 C 2131.52 -0.808541 1.76568 0
M  V30 21775 O 2130.8 -1.5837 1.12912 0
M  V30 21776 C 2131.08 1.05239 3.44379 0
M  V30 21777 C 2130.93 2.57521 3.68786 0
M  V30 21778 C 2132.25 0.599218 4.36002 0
M  V30 21779 H 2129.37 0.23992 0.696855 0
M  V30 21780 H 2132.01 1.22631 1.45127 0
M  V30 21781 H 2130.16 0.567423 3.84334 0
M  V30 21782 H 2131.83 3.13622 3.38288 0
M  V30 21783 H 2130.08 2.99978 3.13362 0
M  V30 21784 H 2130.75 2.80282 4.75548 0
M  V30 21785 H 2133.22 1.01565 4.03514 0
M  V30 21786 H 2132.1 0.904717 5.41393 0
M  V30 21787 H 2132.36 -0.500359 4.39259 0
M  V30 21788 N 2131.42 -1.38259 0.756453 0
M  V30 21789 C 2132.7 -1.94131 0.239274 0
M  V30 21790 C 2133.08 -1.6915 -1.26299 0
M  V30 21791 O 2132.43 -1.03165 -2.03885 0
M  V30 21792 C 2132.64 -3.43872 0.596071 0
M  V30 21793 C 2133.98 -4.20927 0.557312 0
M  V30 21794 O 2135.01 -3.52166 0.534537 0
M  V30 21795 O 2133.87 -5.43511 0.57079 0
M  V30 21796 H 2130.96 -0.82543 0.0509403 0
M  V30 21797 H 2133.51 -1.47636 0.83677 0
M  V30 21798 H 2132.28 -3.55575 1.63348 0
M  V30 21799 H 2131.9 -3.97589 -0.0292809 0
M  V30 21800 N 2132.9 -0.505757 -1.49264 0
M  V30 21801 C 2133.81 0.274574 -2.32988 0
M  V30 21802 C 2134.82 0.962724 -1.4494 0
M  V30 21803 O 2136 0.943054 -1.77956 0
M  V30 21804 C 2133.07 1.32231 -3.20493 0
M  V30 21805 C 2132.13 0.64709 -4.24395 0
M  V30 21806 C 2131.36 1.6449 -5.07719 0
M  V30 21807 O 2131.58 2.87523 -4.92632 0
M  V30 21808 O 2130.52 1.19761 -5.89865 0
M  V30 21809 H 2134.34 -0.410833 -3.00908 0
M  V30 21810 H 2131.93 -0.267017 -1.46994 0
M  V30 21811 H 2133.81 1.92838 -3.74689 0
M  V30 21812 H 2132.48 1.99056 -2.55262 0
M  V30 21813 H 2131.39 0.00115278 -3.741 0
M  V30 21814 H 2132.72 0.0212046 -4.92195 0
M  V30 21815 N 2134.38 1.55765 -0.239796 0
M  V30 21816 C 2135.31 2.24064 0.657067 0
M  V30 21817 C 2136.29 1.2185 1.18687 0
M  V30 21818 O 2137.47 1.50484 1.22753 0
M  V30 21819 C 2134.6 2.93465 1.8573 0
M  V30 21820 C 2133.56 4.02307 1.46057 0
M  V30 21821 C 2132.88 4.59097 2.74106 0
M  V30 21822 C 2134.18 5.18402 0.636932 0
M  V30 21823 H 2135.88 2.99272 0.0875675 0
M  V30 21824 H 2133.42 1.43943 0.0406772 0
M  V30 21825 H 2135.38 3.39943 2.49032 0
M  V30 21826 H 2134.1 2.15734 2.45207 0
M  V30 21827 H 2132.76 3.56588 0.850935 0
M  V30 21828 H 2132.41 3.78075 3.31766 0
M  V30 21829 H 2132.11 5.32566 2.48288 0
M  V30 21830 H 2133.63 5.08304 3.38318 0
M  V30 21831 H 2135.04 5.61149 1.17408 0
M  V30 21832 H 2133.44 5.98216 0.475092 0
M  V30 21833 H 2134.51 4.83617 -0.352445 0
M  V30 21834 N 2135.85 -0.0334016 1.57565 0
M  V30 21835 C 2136.76 -1.05241 2.0967 0
M  V30 21836 C 2137.78 -1.39917 1.03437 0
M  V30 21837 O 2138.96 -1.49324 1.35146 0
M  V30 21838 C 2136.02 -2.3357 2.56215 0
M  V30 21839 C 2135.08 -2.05514 3.76912 0
M  V30 21840 C 2134.32 -3.27724 4.21227 0
M  V30 21841 O 2134.54 -4.38244 3.65101 0
M  V30 21842 O 2133.47 -3.13679 5.13701 0
M  V30 21843 H 2137.3 -0.639612 2.96888 0
M  V30 21844 H 2134.88 -0.250101 1.47292 0
M  V30 21845 H 2136.77 -3.09022 2.86502 0
M  V30 21846 H 2135.44 -2.74153 1.7211 0
M  V30 21847 H 2134.35 -1.27644 3.5165 0
M  V30 21848 H 2135.68 -1.69789 4.61988 0
M  V30 21849 N 2137.33 -1.54609 -0.305591 0
M  V30 21850 C 2138.26 -1.81607 -1.39826 0
M  V30 21851 C 2139.28 -0.698812 -1.47039 0
M  V30 21852 O 2140.47 -0.976217 -1.4944 0
M  V30 21853 C 2137.57 -1.93493 -2.78233 0
M  V30 21854 C 2136.74 -3.23849 -2.94008 0
M  V30 21855 C 2135.8 -3.26209 -4.12885 0
M  V30 21856 O 2134.82 -3.99763 -4.05189 0
M  V30 21857 N 2136.03 -2.51272 -5.233 0
M  V30 21858 H 2138.79 -2.75909 -1.17023 0
M  V30 21859 H 2136.35 -1.54126 -0.495646 0
M  V30 21860 H 2138.34 -1.92479 -3.55997 0
M  V30 21861 H 2136.91 -1.06208 -2.94005 0
M  V30 21862 H 2136.13 -3.37674 -2.03395 0
M  V30 21863 H 2137.42 -4.0988 -3.01456 0
M  V30 21864 H 2136.82 -1.91135 -5.32432 0
M  V30 21865 H 2135.38 -2.56017 -5.99415 0
M  V30 21866 N 2138.81 0.568558 -1.46987 0
M  V30 21867 C 2139.74 1.69147 -1.54668 0
M  V30 21868 C 2140.76 1.56914 -0.433789 0
M  V30 21869 O 2141.94 1.6408 -0.702853 0
M  V30 21870 C 2139.04 3.07522 -1.4242 0
M  V30 21871 C 2138.22 3.45619 -2.68078 0
M  V30 21872 C 2137.28 4.63111 -2.49829 0
M  V30 21873 O 2136.3 4.68261 -3.23605 0
M  V30 21874 N 2137.5 5.5889 -1.56914 0
M  V30 21875 H 2140.27 1.63008 -2.51492 0
M  V30 21876 H 2137.83 0.75491 -1.43223 0
M  V30 21877 H 2139.82 3.83937 -1.27963 0
M  V30 21878 H 2138.39 3.07949 -0.537222 0
M  V30 21879 H 2137.61 2.58767 -2.97378 0
M  V30 21880 H 2138.9 3.67844 -3.51523 0
M  V30 21881 H 2138.3 5.57477 -0.961042 0
M  V30 21882 H 2136.86 6.34678 -1.48414 0
M  V30 21883 N 2140.29 1.34929 0.814366 0
M  V30 21884 C 2141.7 1.14798 1.10877 0
M  V30 21885 C 2141.9 -0.0447901 2.0145 0
M  V30 21886 O 2140.96 -0.717746 2.42084 0
M  V30 21887 C 2142.27 2.44729 1.74724 0
M  V30 21888 C 2143.82 2.50864 1.8718 0
M  V30 21889 C 2144.3 3.80819 2.54443 0
M  V30 21890 N 2145.79 3.82027 2.61935 0
M  V30 21891 C 2146.52 4.79305 3.14729 0
M  V30 21892 N 2146.02 5.86969 3.68021 0
M  V30 21893 N 2147.81 4.6675 3.1321 0
M  V30 21894 H 2139.96 2.11338 0.212102 0
M  V30 21895 H 2142.23 0.934964 0.156671 0
M  V30 21896 H 2141.93 3.32146 1.15637 0
M  V30 21897 H 2141.81 2.58702 2.74505 0
M  V30 21898 H 2144.19 1.6388 2.45412 0
M  V30 21899 H 2144.27 2.40811 0.862763 0
M  V30 21900 H 2143.92 4.68196 1.96862 0
M  V30 21901 H 2143.85 3.88157 3.55867 0
M  V30 21902 H 2146.34 3.04231 2.2417 0
M  V30 21903 H 2146.65 6.57199 4.06582 0
M  V30 21904 H 2145 5.90671 3.66241 0
M  V30 21905 H 2148.19 3.81784 2.70849 0
M  V30 21906 H 2148.36 5.42728 3.54049 0
M  V30 21907 N 2141.77 -1.0356 1.18799 0
M  V30 21908 C 2143.04 -1.73872 0.895991 0
M  V30 21909 C 2143.42 -2.02395 -0.59995 0
M  V30 21910 O 2142.77 -1.6732 -1.55616 0
M  V30 21911 C 2142.98 -3.02028 1.74871 0
M  V30 21912 C 2144.33 -3.75667 1.97887 0
M  V30 21913 O 2145.35 -3.11939 1.71966 0
M  V30 21914 O 2144.21 -4.90219 2.41553 0
M  V30 21915 H 2141.31 -0.756859 0.333306 0
M  V30 21916 H 2143.85 -1.09579 1.29578 0
M  V30 21917 H 2142.62 -2.77126 2.76256 0
M  V30 21918 H 2142.25 -3.7406 1.34776 0
M  V30 21919 N 2143.25 -0.990834 -1.22557 0
M  V30 21920 C 2144.16 -0.548263 -2.28104 0
M  V30 21921 C 2145.17 0.401961 -1.69293 0
M  V30 21922 O 2146.35 0.269304 -1.99591 0
M  V30 21923 C 2143.41 0.132121 -3.46448 0
M  V30 21924 C 2142.47 -0.860806 -4.20581 0
M  V30 21925 C 2141.71 -0.212796 -5.33276 0
M  V30 21926 O 2141.93 0.993773 -5.61676 0
M  V30 21927 O 2140.86 -0.916619 -5.9488 0
M  V30 21928 H 2144.69 -1.4263 -2.68124 0
M  V30 21929 H 2142.27 -0.758979 -1.28685 0
M  V30 21930 H 2144.16 0.513325 -4.18262 0
M  V30 21931 H 2142.83 0.984754 -3.08357 0
M  V30 21932 H 2141.74 -1.2929 -3.51048 0
M  V30 21933 H 2143.07 -1.68257 -4.62548 0
M  V30 21934 N 2144.72 1.37856 -0.763775 0
M  V30 21935 C 2145.97 1.99126 -0.321223 0
M  V30 21936 C 2146.29 1.61318 1.10615 0
M  V30 21937 O 2147.49 2.15633 1.64969 0
M  V30 21938 C 2145.95 3.56074 -0.523371 0
M  V30 21939 C 2145.56 4.02826 -1.96049 0
M  V30 21940 C 2147.3 4.24256 -0.144043 0
M  V30 21941 C 2145.21 5.52454 -2.11066 0
M  V30 21942 H 2144.14 0.744968 -0.116357 0
M  V30 21943 H 2146.79 1.5749 -0.941769 0
M  V30 21944 H 2145.17 3.9565 0.166513 0
M  V30 21945 H 2146.34 3.74515 -2.68468 0
M  V30 21946 H 2144.66 3.47402 -2.29567 0
M  V30 21947 H 2147.26 5.34184 -0.234865 0
M  V30 21948 H 2147.6 4.06351 0.904676 0
M  V30 21949 H 2148.13 3.89954 -0.786169 0
M  V30 21950 H 2144.87 5.75275 -3.14228 0
M  V30 21951 H 2144.39 5.82474 -1.43121 0
M  V30 21952 H 2146.07 6.18305 -1.90546 0
M  V30 21953 N 2146.2 0.513665 1.48994 0
M  V30 21954 C 2147.45 -0.0263732 2.02783 0
M  V30 21955 C 2147.78 -1.35469 1.39147 0
M  V30 21956 O 2147.06 -1.87097 0.531511 0
M  V30 21957 C 2147.34 -0.165605 3.59719 0
M  V30 21958 C 2147.19 1.18673 4.33863 0
M  V30 21959 C 2148.51 -0.900228 4.30794 0
M  V30 21960 H 2145.63 -0.00811043 0.736955 0
M  V30 21961 H 2148.27 0.667534 1.77888 0
M  V30 21962 H 2146.42 -0.756613 3.81061 0
M  V30 21963 H 2148.09 1.81759 4.23983 0
M  V30 21964 H 2146.34 1.77281 3.95922 0
M  V30 21965 H 2147.01 1.04247 5.42067 0
M  V30 21966 H 2149.48 -0.398863 4.14184 0
M  V30 21967 H 2148.36 -0.966514 5.40324 0
M  V30 21968 H 2148.62 -1.94685 3.96926 0
M  V30 21969 N 2147.68 -1.55636 0.248053 0
M  V30 21970 C 2148.9 -2.03825 -0.383439 0
M  V30 21971 C 2149.33 -1.12611 -1.50666 0
M  V30 21972 O 2148.69 -0.119296 -1.80907 0
M  V30 21973 C 2148.74 -3.5001 -0.86748 0
M  V30 21974 O 2147.84 -3.61925 -1.97696 0
M  V30 21975 H 2147.18 -0.65874 -0.0834089 0
M  V30 21976 H 2149.71 -2.01144 0.374447 0
M  V30 21977 H 2149.72 -3.90853 -1.17039 0
M  V30 21978 H 2148.4 -4.15875 -0.0455341 0
M  V30 21979 H 2146.97 -3.3298 -1.67866 0
M  V30 21980 N 2149.16 0.0250451 -1.5758 0
M  V30 21981 C 2150.39 0.725656 -1.93437 0
M  V30 21982 C 2150.8 1.69204 -0.846562 0
M  V30 21983 O 2150.14 1.82762 0.185397 0
M  V30 21984 C 2150.2 1.53415 -3.25121 0
M  V30 21985 C 2149.86 0.732109 -4.51098 0
M  V30 21986 C 2150.86 0.0306335 -5.19891 0
M  V30 21987 C 2148.55 0.685464 -4.97601 0
M  V30 21988 C 2150.54 -0.706745 -6.3347 0
M  V30 21989 C 2148.23 -0.0556568 -6.11075 0
M  V30 21990 C 2149.23 -0.750517 -6.78864 0
M  V30 21991 O 2148.91 -1.4796 -7.90167 0
M  V30 21992 H 2148.65 0.208724 -0.64297 0
M  V30 21993 H 2151.2 -0.0145992 -2.05395 0
M  V30 21994 H 2149.43 2.31832 -3.09501 0
M  V30 21995 H 2151.12 2.11775 -3.46275 0
M  V30 21996 H 2151.88 0.0576759 -4.84966 0
M  V30 21997 H 2147.76 1.21582 -4.44678 0
M  V30 21998 H 2151.31 -1.24965 -6.86316 0
M  V30 21999 H 2147.2 -0.0846083 -6.45445 0
M  V30 22000 H 2147.97 -1.39369 -8.06547 0
M  V30 22001 N 2150.64 1.54769 0.297388 0
M  V30 22002 C 2151.57 1.88972 1.37157 0
M  V30 22003 C 2152.55 0.748993 1.52722 0
M  V30 22004 O 2153.73 1.00504 1.6617 0
M  V30 22005 C 2150.86 2.1402 2.73519 0
M  V30 22006 C 2149.82 3.29865 2.72714 0
M  V30 22007 C 2149.14 3.4034 4.12399 0
M  V30 22008 C 2150.44 4.66881 2.34135 0
M  V30 22009 H 2152.14 2.7894 1.0878 0
M  V30 22010 H 2149.68 1.34212 0.521848 0
M  V30 22011 H 2151.63 2.36533 3.48755 0
M  V30 22012 H 2150.36 1.20827 3.03428 0
M  V30 22013 H 2149.02 3.07281 1.99934 0
M  V30 22014 H 2148.67 2.44657 4.3949 0
M  V30 22015 H 2148.37 4.18214 4.1276 0
M  V30 22016 H 2149.89 3.65118 4.89409 0
M  V30 22017 H 2151.3 4.89101 2.99087 0
M  V30 22018 H 2149.7 5.47495 2.45703 0
M  V30 22019 H 2150.77 4.67354 1.29261 0
M  V30 22020 N 2152.11 -0.560755 1.47286 0
M  V30 22021 C 2153.35 -1.3289 1.55305 0
M  V30 22022 C 2153.72 -1.9086 0.208898 0
M  V30 22023 O 2154.92 -2.683 0.163911 0
M  V30 22024 C 2153.19 -2.41196 2.63741 0
M  V30 22025 S 2154.75 -3.28146 2.91318 0
M  V30 22026 H 2151.57 -0.452457 0.548456 0
M  V30 22027 H 2154.17 -0.642337 1.84646 0
M  V30 22028 H 2152.87 -1.97037 3.60006 0
M  V30 22029 H 2152.4 -3.14598 2.36202 0
M  V30 22030 H 2154.42 -4.4058 2.28261 0
M  V30 22031 N 2153.59 -1.35359 -0.807199 0
M  V30 22032 C 2154.87 -1.19163 -1.55111 0
M  V30 22033 C 2155.25 0.22949 -2.09849 0
M  V30 22034 O 2154.6 1.23292 -1.92383 0
M  V30 22035 C 2154.81 -2.25917 -2.66012 0
M  V30 22036 C 2156.15 -2.61693 -3.34368 0
M  V30 22037 O 2157.18 -2.24826 -2.76282 0
M  V30 22038 O 2156.04 -3.25083 -4.39299 0
M  V30 22039 H 2153.13 -0.462906 -0.685308 0
M  V30 22040 H 2155.68 -1.47039 -0.847213 0
M  V30 22041 H 2154.45 -3.21238 -2.23432 0
M  V30 22042 H 2154.07 -1.99307 -3.44038 0
M  V30 22043 N 2155.07 1.02928 -1.19346 0
M  V30 22044 C 2156 2.13099 -0.954528 0
M  V30 22045 C 2156.98 1.69731 0.111965 0
M  V30 22046 O 2158.17 1.94152 -0.0429718 0
M  V30 22047 C 2155.3 3.43798 -0.491955 0
M  V30 22048 C 2154.25 4.00845 -1.50024 0
M  V30 22049 C 2153.58 5.2716 -0.894759 0
M  V30 22050 C 2154.88 4.35699 -2.88035 0
M  V30 22051 H 2156.57 2.33345 -1.87592 0
M  V30 22052 H 2154.12 1.1214 -0.903366 0
M  V30 22053 H 2156.07 4.20243 -0.312095 0
M  V30 22054 H 2154.79 3.23272 0.46503 0
M  V30 22055 H 2153.45 3.26495 -1.66724 0
M  V30 22056 H 2153.1 5.02952 0.0697668 0
M  V30 22057 H 2152.8 5.66291 -1.56805 0
M  V30 22058 H 2154.32 6.06272 -0.725685 0
M  V30 22059 H 2155.74 5.03083 -2.7492 0
M  V30 22060 H 2154.13 4.8591 -3.52152 0
M  V30 22061 H 2155.2 3.45019 -3.4072 0
M  V30 22062 N 2156.55 0.997319 1.2203 0
M  V30 22063 C 2157.51 0.556352 2.22345 0
M  V30 22064 C 2158.51 -0.363165 1.56645 0
M  V30 22065 O 2159.7 -0.154511 1.73513 0
M  V30 22066 C 2156.83 -0.190172 3.40369 0
M  V30 22067 H 2158.03 1.44355 2.62872 0
M  V30 22068 H 2155.58 0.784999 1.35157 0
M  V30 22069 H 2156.31 -1.09315 3.05321 0
M  V30 22070 H 2156.1 0.470115 3.89272 0
M  V30 22071 H 2157.59 -0.486708 4.14754 0
M  V30 22072 N 2158.03 -1.37449 0.771075 0
M  V30 22073 C 2159.44 -1.82352 0.400585 0
M  V30 22074 C 2159.79 -1.64247 -1.07318 0
M  V30 22075 O 2158.91 -1.15322 -1.83111 0
M  V30 22076 C 2159.51 -3.31054 0.720312 0
M  V30 22077 C 2158.07 -3.74238 0.402886 0
M  V30 22078 C 2157.21 -2.59986 0.964497 0
M  V30 22079 H 2160.17 -1.2593 0.965782 0
M  V30 22080 H 2160.19 -3.805 0.00472604 0
M  V30 22081 H 2159.7 -3.44199 1.793 0
M  V30 22082 H 2157.8 -3.66663 -0.662511 0
M  V30 22083 H 2157.91 -4.70365 0.910666 0
M  V30 22084 H 2156.28 -2.51715 0.388782 0
M  V30 22085 H 2157.06 -2.75924 2.04257 0
M  V30 22086 N 2159.5 -0.52156 -1.4872 0
M  V30 22087 C 2160.41 0.249847 -2.33266 0
M  V30 22088 C 2161.43 0.947297 -1.45953 0
M  V30 22089 O 2162.61 0.924126 -1.78947 0
M  V30 22090 C 2159.67 1.28824 -3.21878 0
M  V30 22091 C 2158.73 0.602041 -4.25058 0
M  V30 22092 C 2157.97 1.59096 -5.09435 0
M  V30 22093 O 2158.19 2.82282 -4.95654 0
M  V30 22094 O 2157.12 1.13498 -5.91102 0
M  V30 22095 H 2160.95 -0.442725 -3.00456 0
M  V30 22096 H 2158.53 -0.282593 -1.46703 0
M  V30 22097 H 2160.42 1.88853 -3.76713 0
M  V30 22098 H 2159.09 1.96337 -2.57359 0
M  V30 22099 H 2158 -0.0385256 -3.7408 0
M  V30 22100 H 2159.33 -0.0310005 -4.9219 0
M  V30 22101 N 2160.98 1.55502 -0.256304 0
M  V30 22102 C 2161.95 2.20485 0.626014 0
M  V30 22103 C 2162.95 1.17694 1.09566 0
M  V30 22104 O 2164.14 1.42718 0.998856 0
M  V30 22105 C 2161.27 2.85589 1.86149 0
M  V30 22106 H 2162.46 2.99842 0.0589124 0
M  V30 22107 H 2160.01 1.56299 -0.0068064 0
M  V30 22108 H 2160.75 2.10195 2.46959 0
M  V30 22109 H 2160.53 3.60896 1.53285 0
M  V30 22110 H 2162.02 3.35293 2.48935 0
M  V30 22111 N 2162.46 -0.0166879 1.57591 0
M  V30 22112 C 2163.87 -0.561696 1.7805 0
M  V30 22113 C 2164.22 -1.74907 0.888926 0
M  V30 22114 O 2163.35 -2.16225 0.0869853 0
M  V30 22115 C 2163.94 -1.02576 3.22899 0
M  V30 22116 C 2162.5 -1.51619 3.44512 0
M  V30 22117 C 2161.65 -0.459817 2.73461 0
M  V30 22118 H 2164.6 0.209523 1.57311 0
M  V30 22119 H 2164.62 -1.89257 3.30094 0
M  V30 22120 H 2164.13 -0.16136 3.87764 0
M  V30 22121 H 2162.23 -2.40203 2.84839 0
M  V30 22122 H 2162.35 -1.55516 4.53157 0
M  V30 22123 H 2160.71 -0.917683 2.37594 0
M  V30 22124 H 2161.49 0.395327 3.41016 0
M  V30 22125 N 2163.94 -1.54924 -0.289176 0
M  V30 22126 C 2165.35 -1.65642 -0.861368 0
M  V30 22127 C 2165.7 -0.572803 -1.87652 0
M  V30 22128 O 2164.83 0.288543 -2.14468 0
M  V30 22129 C 2165.42 -3.00274 -1.56911 0
M  V30 22130 C 2163.98 -3.13073 -2.08955 0
M  V30 22131 C 2163.13 -2.61377 -0.926152 0
M  V30 22132 H 2166.08 -1.58563 -0.0658933 0
M  V30 22133 H 2166.1 -2.92358 -2.4353 0
M  V30 22134 H 2165.61 -3.7912 -0.830021 0
M  V30 22135 H 2163.71 -2.38969 -2.85875 0
M  V30 22136 H 2163.82 -4.19404 -2.31596 0
M  V30 22137 H 2162.19 -2.18126 -1.31503 0
M  V30 22138 H 2162.97 -3.42712 -0.200828 0
M  V30 22139 N 2165.42 0.552936 -1.47582 0
M  V30 22140 C 2166.83 1.13504 -1.48235 0
M  V30 22141 C 2167.18 1.94734 -0.239394 0
M  V30 22142 O 2166.3 2.06238 0.655364 0
M  V30 22143 C 2166.9 2.06511 -2.68586 0
M  V30 22144 C 2165.46 2.59985 -2.72185 0
M  V30 22145 C 2164.6 1.36454 -2.41404 0
M  V30 22146 H 2167.56 0.339321 -1.5503 0
M  V30 22147 H 2167.58 2.90453 -2.45799 0
M  V30 22148 H 2167.09 1.47363 -3.59034 0
M  V30 22149 H 2165.19 3.22919 -1.85887 0
M  V30 22150 H 2165.3 3.00687 -3.72994 0
M  V30 22151 H 2163.67 1.6727 -1.92076 0
M  V30 22152 H 2164.45 0.790922 -3.34065 0
M  V30 22153 N 2166.89 1.35785 0.800009 0
M  V30 22154 C 2168.12 1.32556 1.5886 0
M  V30 22155 C 2168.54 -0.0955366 1.88558 0
M  V30 22156 O 2167.89 -1.0494 1.49311 0
M  V30 22157 C 2167.95 2.13669 2.91595 0
M  V30 22158 O 2167.67 3.50238 2.63182 0
M  V30 22159 C 2169.17 2.181 3.85937 0
M  V30 22160 H 2166.39 0.455105 0.493073 0
M  V30 22161 H 2168.93 1.78733 0.993714 0
M  V30 22162 H 2167.09 1.71074 3.47581 0
M  V30 22163 H 2167.5 3.92442 3.47979 0
M  V30 22164 H 2168.97 2.79234 4.76164 0
M  V30 22165 H 2169.45 1.18154 4.23009 0
M  V30 22166 H 2170.06 2.60885 3.35886 0
M  V30 22167 N 2168.37 -1.02294 1.19891 0
M  V30 22168 C 2169.3 -2.12589 0.965816 0
M  V30 22169 C 2170.28 -1.69788 -0.102962 0
M  V30 22170 O 2171.47 -1.94127 0.0532676 0
M  V30 22171 C 2168.6 -3.43532 0.510181 0
M  V30 22172 C 2167.55 -4.00044 1.52147 0
M  V30 22173 C 2166.88 -5.26679 0.922703 0
M  V30 22174 C 2168.18 -4.34165 2.90341 0
M  V30 22175 H 2169.87 -2.32347 1.88826 0
M  V30 22176 H 2167.42 -1.11659 0.9093 0
M  V30 22177 H 2169.37 -4.20071 0.334377 0
M  V30 22178 H 2168.1 -3.23514 -0.447879 0
M  V30 22179 H 2166.75 -3.25606 1.68453 0
M  V30 22180 H 2166.4 -5.02982 -0.0430931 0
M  V30 22181 H 2166.1 -5.65452 1.59806 0
M  V30 22182 H 2167.63 -6.05879 0.757827 0
M  V30 22183 H 2169.04 -5.01617 2.77584 0
M  V30 22184 H 2167.44 -4.84036 3.54724 0
M  V30 22185 H 2168.51 -3.43207 3.42545 0
M  V30 22186 N 2169.85 -1.00378 -1.21499 0
M  V30 22187 C 2171.26 -0.719279 -1.72288 0
M  V30 22188 C 2171.61 0.763155 -1.8075 0
M  V30 22189 O 2170.74 1.59617 -1.46121 0
M  V30 22190 C 2171.33 -1.299 -3.12908 0
M  V30 22191 C 2169.89 -1.06365 -3.61059 0
M  V30 22192 C 2169.04 -1.41257 -2.38625 0
M  V30 22193 H 2171.99 -1.17483 -1.06694 0
M  V30 22194 H 2172.01 -0.683038 -3.74319 0
M  V30 22195 H 2171.52 -2.37794 -3.06718 0
M  V30 22196 H 2169.62 -0.00182202 -3.726 0
M  V30 22197 H 2169.74 -1.73468 -4.46593 0
M  V30 22198 H 2168.1 -0.831332 -2.40751 0
M  V30 22199 H 2168.88 -2.50179 -2.35086 0
M  V30 22200 N 2171.33 1.37038 -0.778354 0
M  V30 22201 C 2172.74 1.82137 -0.41025 0
M  V30 22202 C 2173.09 1.64814 1.06446 0
M  V30 22203 O 2172.22 1.16292 1.82497 0
M  V30 22204 C 2172.81 3.30668 -0.737859 0
M  V30 22205 C 2171.37 3.74019 -0.422727 0
M  V30 22206 C 2170.52 2.59471 -0.978272 0
M  V30 22207 H 2173.47 1.25416 -0.972446 0
M  V30 22208 H 2173.49 3.80492 -0.0249048 0
M  V30 22209 H 2173 3.43244 -1.81123 0
M  V30 22210 H 2171.1 3.67009 0.643056 0
M  V30 22211 H 2171.21 4.69876 -0.935598 0
M  V30 22212 H 2169.58 2.51506 -0.402125 0
M  V30 22213 H 2170.36 2.74837 -2.05717 0
M  V30 22214 N 2172.81 0.529439 1.48441 0
M  V30 22215 C 2173.76 -0.253463 2.26587 0
M  V30 22216 C 2174.74 -0.910366 1.32669 0
M  V30 22217 O 2175.93 -0.813262 1.5721 0
M  V30 22218 C 2173.06 -1.3001 3.1773 0
M  V30 22219 C 2172.15 -0.648014 4.1912 0
M  V30 22220 N 2172.54 0.265936 5.051 0
M  V30 22221 C 2170.84 -0.905282 4.36716 0
M  V30 22222 C 2171.54 0.642059 5.78146 0
M  V30 22223 N 2170.51 0.0032706 5.436 0
M  V30 22224 H 2174.32 0.449662 2.9044 0
M  V30 22225 H 2171.83 0.347431 1.5864 0
M  V30 22226 H 2173.83 -1.87468 3.72372 0
M  V30 22227 H 2172.49 -2.00461 2.55432 0
M  V30 22228 H 2173.5 0.638504 5.13949 0
M  V30 22229 H 2170.18 -1.6004 3.85608 0
M  V30 22230 H 2171.57 1.39145 6.57334 0
M  V30 22231 N 2174.29 -1.55364 0.264547 0
M  V30 22232 C 2175.22 -2.18186 -0.66858 0
M  V30 22233 C 2176.2 -1.13943 -1.15999 0
M  V30 22234 O 2177.38 -1.42416 -1.2349 0
M  V30 22235 C 2174.51 -2.79667 -1.9106 0
M  V30 22236 C 2173.55 -3.9712 -1.55557 0
M  V30 22237 S 2174.39 -5.31627 -0.642877 0
M  V30 22238 C 2175.54 -5.96571 -1.89351 0
M  V30 22239 H 2175.78 -2.96994 -0.134756 0
M  V30 22240 H 2173.31 -1.54323 0.0488718 0
M  V30 22241 H 2175.27 -3.15721 -2.62355 0
M  V30 22242 H 2173.93 -2.00772 -2.41556 0
M  V30 22243 H 2173.12 -4.38791 -2.47949 0
M  V30 22244 H 2172.72 -3.62434 -0.922906 0
M  V30 22245 H 2175.01 -6.15161 -2.83871 0
M  V30 22246 H 2175.96 -6.91594 -1.52 0
M  V30 22247 H 2176.37 -5.25819 -2.05364 0
M  V30 22248 N 2175.76 0.00833021 -1.57598 0
M  V30 22249 C 2176.73 0.9872 -2.0685 0
M  V30 22250 C 2177.73 1.27766 -0.976351 0
M  V30 22251 O 2178.92 1.22423 -1.23929 0
M  V30 22252 C 2176.05 2.31443 -2.50294 0
M  V30 22253 H 2177.24 0.561338 -2.946 0
M  V30 22254 H 2174.79 0.255625 -1.54195 0
M  V30 22255 H 2175.53 2.78735 -1.65763 0
M  V30 22256 H 2175.31 2.11684 -3.30049 0
M  V30 22257 H 2176.8 3.0168 -2.88754 0
M  V30 22258 N 2177.24 1.55075 0.280956 0
M  V30 22259 C 2178.17 1.83809 1.36919 0
M  V30 22260 C 2179.19 0.722116 1.45909 0
M  V30 22261 O 2180.38 0.999868 1.47868 0
M  V30 22262 C 2177.48 1.97895 2.75119 0
M  V30 22263 C 2176.65 3.28485 2.88819 0
M  V30 22264 C 2175.71 3.32736 4.07643 0
M  V30 22265 O 2174.73 4.06159 3.98778 0
M  V30 22266 N 2175.94 2.59566 5.19236 0
M  V30 22267 H 2178.7 2.77736 1.12619 0
M  V30 22268 H 2176.26 1.54895 0.471063 0
M  V30 22269 H 2178.25 1.98119 3.5289 0
M  V30 22270 H 2176.82 1.10872 2.92278 0
M  V30 22271 H 2176.04 3.40868 1.97997 0
M  V30 22272 H 2177.33 4.14624 2.94897 0
M  V30 22273 H 2176.73 1.99582 5.29324 0
M  V30 22274 H 2175.29 2.65521 5.95266 0
M  V30 22275 N 2178.72 -0.545102 1.47873 0
M  V30 22276 C 2179.97 -1.30364 1.55348 0
M  V30 22277 C 2180.3 -1.92948 0.220182 0
M  V30 22278 O 2179.57 -1.78506 -0.772398 0
M  V30 22279 C 2179.86 -2.40454 2.68055 0
M  V30 22280 C 2179.71 -1.8266 4.11042 0
M  V30 22281 C 2181.03 -3.42314 2.76603 0
M  V30 22282 H 2178.15 -0.472628 0.565502 0
M  V30 22283 H 2180.79 -0.608798 1.79982 0
M  V30 22284 H 2178.94 -2.99722 2.47182 0
M  V30 22285 H 2180.61 -1.2756 4.43313 0
M  V30 22286 H 2178.85 -1.1327 4.18751 0
M  V30 22287 H 2179.53 -2.62302 4.85697 0
M  V30 22288 H 2182 -2.92981 2.95468 0
M  V30 22289 H 2180.88 -4.16757 3.57218 0
M  V30 22290 H 2181.14 -4.01923 1.84147 0
M  V30 22291 N 2180.2 -1.36208 -0.792797 0
M  V30 22292 C 2181.43 -1.33396 -1.58155 0
M  V30 22293 C 2181.84 0.0855356 -1.88606 0
M  V30 22294 O 2181.2 1.04147 -1.49865 0
M  V30 22295 C 2181.25 -2.15213 -2.90458 0
M  V30 22296 O 2180.97 -3.51629 -2.61321 0
M  V30 22297 C 2182.47 -2.20144 -3.84775 0
M  V30 22298 H 2179.69 -0.457713 -0.490652 0
M  V30 22299 H 2182.23 -1.79258 -0.984222 0
M  V30 22300 H 2180.39 -1.72915 -3.46669 0
M  V30 22301 H 2180.8 -3.94282 -3.45893 0
M  V30 22302 H 2182.28 -2.81755 -4.74677 0
M  V30 22303 H 2182.75 -1.20396 -4.22376 0
M  V30 22304 H 2183.36 -2.62663 -3.34497 0
M  V30 22305 N 2181.68 1.01656 -1.20431 0
M  V30 22306 C 2182.92 1.75515 -1.016 0
M  V30 22307 C 2183.25 1.88896 0.450791 0
M  V30 22308 O 2182.53 1.4148 1.33468 0
M  V30 22309 C 2182.81 3.17433 -1.70024 0
M  V30 22310 C 2182.67 3.11847 -3.24147 0
M  V30 22311 C 2183.98 4.16105 -1.43334 0
M  V30 22312 H 2181.1 0.637102 -0.370501 0
M  V30 22313 H 2183.75 1.18591 -1.48446 0
M  V30 22314 H 2181.9 3.66035 -1.30195 0
M  V30 22315 H 2183.57 2.71049 -3.7327 0
M  V30 22316 H 2181.81 2.49242 -3.55051 0
M  V30 22317 H 2182.48 4.12169 -3.6718 0
M  V30 22318 H 2184.96 3.76159 -1.77887 0
M  V30 22319 H 2183.83 5.13571 -1.93741 0
M  V30 22320 H 2184.09 4.40624 -0.360952 0
M  V30 22321 N 2183.15 1.01021 1.20965 0
M  V30 22322 C 2184.4 0.6945 1.89792 0
M  V30 22323 C 2184.72 -0.77766 1.78822 0
M  V30 22324 O 2183.99 -1.55883 1.18648 0
M  V30 22325 H 2182.57 0.253892 0.702529 0
M  V30 22326 H 2185.23 1.28043 1.46938 0
M  V30 22327 H 2184.33 0.972254 2.9657 0
M  V30 22328 N 2184.63 -1.36623 0.78561 0
M  V30 22329 C 2186.04 -1.81917 0.419903 0
M  V30 22330 C 2186.39 -1.65376 -1.0557 0
M  V30 22331 O 2185.52 -1.17258 -1.81878 0
M  V30 22332 C 2186.11 -3.30272 0.755384 0
M  V30 22333 C 2184.67 -3.73789 0.442556 0
M  V30 22334 C 2183.82 -2.58948 0.992018 0
M  V30 22335 H 2186.77 -1.24899 0.979084 0
M  V30 22336 H 2186.79 -3.80473 0.0450829 0
M  V30 22337 H 2186.3 -3.42278 1.8294 0
M  V30 22338 H 2184.4 -3.67345 -0.623584 0
M  V30 22339 H 2184.52 -4.69373 0.960503 0
M  V30 22340 H 2182.88 -2.51289 0.415458 0
M  V30 22341 H 2183.66 -2.73742 2.07172 0
M  V30 22342 N 2186.11 -0.537304 -1.48158 0
M  V30 22343 C 2187.36 -0.00587084 -2.02099 0
M  V30 22344 C 2187.68 1.3407 -1.41599 0
M  V30 22345 O 2186.95 1.86993 -0.583977 0
M  V30 22346 H 2185.53 0.000818022 -0.747 0
M  V30 22347 H 2188.19 -0.702798 -1.81788 0
M  V30 22348 H 2187.29 0.0970321 -3.11949 0
M  V30 22349 N 2187.59 1.55221 -0.272782 0
M  V30 22350 C 2188.52 2.25408 0.609392 0
M  V30 22351 C 2189.5 1.2434 1.16076 0
M  V30 22352 O 2190.68 1.53054 1.19533 0
M  V30 22353 C 2187.81 2.97338 1.79464 0
M  V30 22354 C 2186.77 4.05315 1.37491 0
M  V30 22355 C 2186.09 4.64808 2.64307 0
M  V30 22356 C 2187.39 5.19636 0.526828 0
M  V30 22357 H 2189.09 2.9939 0.0240678 0
M  V30 22358 H 2186.63 1.43996 0.0101357 0
M  V30 22359 H 2188.59 3.45149 2.41765 0
M  V30 22360 H 2187.31 2.20887 2.40576 0
M  V30 22361 H 2185.97 3.58312 0.775106 0
M  V30 22362 H 2185.62 3.85027 3.23672 0
M  V30 22363 H 2185.32 5.37713 2.36935 0
M  V30 22364 H 2186.84 5.15366 3.2746 0
M  V30 22365 H 2188.26 5.63513 1.05478 0
M  V30 22366 H 2186.65 5.9909 0.348095 0
M  V30 22367 H 2187.72 4.82761 -0.454948 0
M  V30 22368 N 2189.07 2.77022e-05 1.576 0
M  V30 22369 C 2190 -0.990304 2.1146 0
M  V30 22370 C 2190.98 -1.35844 1.02374 0
M  V30 22371 O 2192.16 -1.44218 1.30057 0
M  V30 22372 C 2189.29 -2.28215 2.61792 0
M  V30 22373 C 2188.25 -2.05563 3.75404 0
M  V30 22374 C 2187.57 -3.40761 4.12051 0
M  V30 22375 C 2188.87 -1.4182 5.02677 0
M  V30 22376 H 2190.57 -0.541853 2.94456 0
M  V30 22377 H 2188.11 -0.259194 1.41648 0
M  V30 22378 H 2190.07 -2.97851 2.98099 0
M  V30 22379 H 2188.79 -2.75174 1.75918 0
M  V30 22380 H 2187.45 -1.38353 3.39491 0
M  V30 22381 H 2187.1 -3.85423 3.232 0
M  V30 22382 H 2186.8 -3.26421 4.88593 0
M  V30 22383 H 2188.32 -4.11712 4.50916 0
M  V30 22384 H 2189.73 -2.01413 5.36755 0
M  V30 22385 H 2188.13 -1.37967 5.84025 0
M  V30 22386 H 2189.2 -0.387421 4.8335 0
M  V30 22387 N 2190.54 -1.55222 -0.272728 0
M  V30 22388 C 2191.79 -1.75494 -1.00231 0
M  V30 22389 C 2192.11 -0.559233 -1.86809 0
M  V30 22390 O 2191.38 0.425848 -1.91215 0
M  V30 22391 H 2189.96 -0.647172 -0.373065 0
M  V30 22392 H 2192.63 -1.92625 -0.296893 0
M  V30 22393 H 2191.72 -2.65594 -1.63909 0
M  V30 22394 N 2192.02 0.537252 -1.4816 0
M  V30 22395 C 2193.27 1.29538 -1.56038 0
M  V30 22396 C 2193.6 1.92828 -0.230411 0
M  V30 22397 O 2192.88 1.78913 0.762921 0
M  V30 22398 C 2193.16 2.39029 -2.69327 0
M  V30 22399 C 2193.01 1.80478 -4.12005 0
M  V30 22400 C 2194.33 3.40842 -2.78414 0
M  V30 22401 H 2191.45 0.469622 -0.568 0
M  V30 22402 H 2194.09 0.599245 -1.80303 0
M  V30 22403 H 2192.24 2.98407 -2.48768 0
M  V30 22404 H 2193.91 1.25207 -4.43983 0
M  V30 22405 H 2192.16 1.11048 -4.19346 0
M  V30 22406 H 2192.83 2.59722 -4.87082 0
M  V30 22407 H 2195.3 2.9141 -2.97017 0
M  V30 22408 H 2194.18 4.14857 -3.59423 0
M  V30 22409 H 2194.44 4.00941 -1.86276 0
M  V30 22410 N 2193.5 1.36626 0.785562 0
M  V30 22411 C 2194.73 1.344 1.57961 0
M  V30 22412 C 2195.15 -0.071493 1.87964 0
M  V30 22413 O 2194.51 -1.04457 1.48184 0
M  V30 22414 C 2194.56 2.17651 2.87507 0
M  V30 22415 O 2193.66 1.57165 3.81278 0
M  V30 22416 H 2193 0.459836 0.479006 0
M  V30 22417 H 2195.53 1.79962 0.973379 0
M  V30 22418 H 2195.54 2.30368 3.36741 0
M  V30 22419 H 2194.22 3.20546 2.64997 0
M  V30 22420 H 2192.79 1.53409 3.39883 0
M  V30 22421 N 2194.98 -1.01016 1.20969 0
M  V30 22422 C 2196.21 -1.78301 1.04959 0
M  V30 22423 C 2196.62 -1.84495 -0.400883 0
M  V30 22424 O 2195.98 -1.30259 -1.27823 0
M  V30 22425 C 2196.03 -3.22459 1.63409 0
M  V30 22426 O 2195.75 -3.16632 3.0278 0
M  V30 22427 C 2197.25 -4.16266 1.52439 0
M  V30 22428 H 2194.47 -0.560515 0.368868 0
M  V30 22429 H 2197.02 -1.27113 1.60195 0
M  V30 22430 H 2195.17 -3.70773 1.12276 0
M  V30 22431 H 2195.58 -4.07164 3.30633 0
M  V30 22432 H 2197.06 -5.15233 1.98087 0
M  V30 22433 H 2197.54 -4.36592 0.477952 0
M  V30 22434 H 2198.14 -3.73838 2.02794 0
M  V30 22435 N 2196.46 -1.01661 -1.20428 0
M  V30 22436 C 2197.39 -0.607265 -2.25465 0
M  V30 22437 C 2198.37 0.377687 -1.65854 0
M  V30 22438 O 2199.55 0.263115 -1.92409 0
M  V30 22439 C 2196.68 0.0552339 -3.47256 0
M  V30 22440 C 2195.64 -0.850705 -4.1946 0
M  V30 22441 C 2194.96 -0.0539799 -5.34673 0
M  V30 22442 C 2196.26 -2.15876 -4.75599 0
M  V30 22443 H 2197.96 -1.48531 -2.5996 0
M  V30 22444 H 2195.5 -0.715627 -1.24959 0
M  V30 22445 H 2197.46 0.353159 -4.19918 0
M  V30 22446 H 2196.18 0.967991 -3.11925 0
M  V30 22447 H 2194.84 -1.13263 -3.48665 0
M  V30 22448 H 2194.49 0.860427 -4.95586 0
M  V30 22449 H 2194.19 -0.657295 -5.83912 0
M  V30 22450 H 2195.71 0.237491 -6.10138 0
M  V30 22451 H 2197.12 -1.9232 -5.40079 0
M  V30 22452 H 2195.52 -2.71293 -5.35276 0
M  V30 22453 H 2196.59 -2.82176 -3.94341 0
M  V30 22454 N 2197.93 1.36205 -0.792844 0
M  V30 22455 C 2199.18 1.98756 -0.366097 0
M  V30 22456 C 2199.5 1.63233 1.06677 0
M  V30 22457 O 2198.77 0.908009 1.73586 0
M  V30 22458 H 2197.35 0.735177 -0.132377 0
M  V30 22459 H 2200.02 1.66345 -1.01564 0
M  V30 22460 H 2199.11 3.08681 -0.460692 0
M  V30 22461 N 2199.41 0.545154 1.47871 0
M  V30 22462 C 2200.82 0.108613 1.86384 0
M  V30 22463 C 2201.17 -1.3183 1.45311 0
M  V30 22464 O 2200.3 -1.98979 0.850676 0
M  V30 22465 C 2200.89 0.190333 3.38265 0
M  V30 22466 C 2199.45 -0.191098 3.75915 0
M  V30 22467 C 2198.6 0.543321 2.71925 0
M  V30 22468 H 2201.55 0.755562 1.3956 0
M  V30 22469 H 2201.57 -0.594151 3.75833 0
M  V30 22470 H 2201.08 1.22896 3.68128 0
M  V30 22471 H 2199.19 -1.2313 3.51667 0
M  V30 22472 H 2199.3 0.159071 4.78836 0
M  V30 22473 H 2197.66 -0.0122047 2.54697 0
M  V30 22474 H 2198.45 1.58288 3.04631 0
M  V30 22475 N 2200.89 -1.55074 0.28101 0
M  V30 22476 C 2201.84 -2.22759 -0.603897 0
M  V30 22477 C 2202.81 -1.20311 -1.14518 0
M  V30 22478 O 2203.99 -1.48871 -1.1934 0
M  V30 22479 C 2201.13 -2.95687 -1.77942 0
M  V30 22480 C 2200.25 -4.12866 -1.27143 0
M  V30 22481 C 2199.38 -4.73424 -2.40921 0
M  V30 22482 C 2198.42 -5.82786 -1.87155 0
M  V30 22483 N 2197.56 -6.37382 -2.9443 0
M  V30 22484 H 2202.4 -2.97993 -0.0200716 0
M  V30 22485 H 2199.93 -1.471 0.00186011 0
M  V30 22486 H 2201.89 -3.36189 -2.47049 0
M  V30 22487 H 2200.52 -2.22866 -2.33518 0
M  V30 22488 H 2199.57 -3.77445 -0.473264 0
M  V30 22489 H 2200.89 -4.91716 -0.837664 0
M  V30 22490 H 2200.04 -5.16676 -3.18012 0
M  V30 22491 H 2198.78 -3.93864 -2.87616 0
M  V30 22492 H 2197.78 -5.38978 -1.08547 0
M  V30 22493 H 2199.01 -6.64218 -1.41389 0
M  V30 22494 H 2196.95 -5.60713 -3.40495 0
M  V30 22495 H 2196.87 -7.11521 -2.55488 0
M  V30 22496 H 2198.14 -6.85292 -3.71477 0
M  V30 22497 N 2202.37 -0.00838561 -1.57598 0
M  V30 22498 C 2203.79 0.347795 -1.55764 0
M  V30 22499 C 2203.99 1.7425 -1.01189 0
M  V30 22500 O 2203.04 2.44006 -0.649414 0
M  V30 22501 C 2204.35 0.215355 -2.99928 0
M  V30 22502 C 2205.9 0.289671 -3.11657 0
M  V30 22503 C 2206.38 0.186259 -4.57621 0
M  V30 22504 N 2207.87 0.243897 -4.62557 0
M  V30 22505 C 2208.6 0.187349 -5.73094 0
M  V30 22506 N 2208.1 0.0809113 -6.92753 0
M  V30 22507 N 2209.89 0.239827 -5.61588 0
M  V30 22508 H 2202.04 -0.920654 -1.9141 0
M  V30 22509 H 2204.31 -0.353675 -0.879556 0
M  V30 22510 H 2204.01 -0.744572 -3.43728 0
M  V30 22511 H 2203.89 0.994033 -3.63866 0
M  V30 22512 H 2206.27 1.24005 -2.67781 0
M  V30 22513 H 2206.35 -0.519024 -2.50479 0
M  V30 22514 H 2206 -0.760608 -5.02172 0
M  V30 22515 H 2205.93 1.01355 -5.16754 0
M  V30 22516 H 2208.42 0.327151 -3.76481 0
M  V30 22517 H 2208.73 0.0438883 -7.72788 0
M  V30 22518 H 2207.08 0.0464198 -6.94984 0
M  V30 22519 H 2210.27 0.321234 -4.66996 0
M  V30 22520 H 2210.44 0.192293 -6.47715 0
M  V30 22521 N 2203.85 1.55365 0.264492 0
M  V30 22522 C 2204.8 1.89629 1.34698 0
M  V30 22523 C 2205.79 0.773486 1.5071 0
M  V30 22524 O 2207 0.957924 1.52394 0
M  V30 22525 H 2203.37 0.601996 0.450671 0
M  V30 22526 H 2205.34 2.80039 1.03056 0
M  V30 22527 C 2204.09 2.19218 2.69886 0
M  V30 22528 H 2203.41 3.05107 2.58359 0
M  V30 22529 H 2204.85 2.47108 3.44548 0
M  V30 22530 C 2203.31 1.0026 3.21636 0
M  V30 22531 O 2203.84 0.241571 4.00973 0
M  V30 22532 N 2202.05 0.797987 2.79429 0
M  V30 22533 H 2201.6 1.41854 2.15024 0
M  V30 22534 H 2201.55 0.00368948 3.144 0
M  V30 22535 N 2205.33 -0.529387 1.48443 0
M  V30 22536 C 2206.55 -1.31468 1.60409 0
M  V30 22537 C 2206.98 -1.86227 0.264771 0
M  V30 22538 O 2206.33 -1.64433 -0.763639 0
M  V30 22539 C 2206.38 -2.44096 2.65423 0
M  V30 22540 O 2205.49 -3.47149 2.22624 0
M  V30 22541 H 2204.83 -0.389348 0.53787 0
M  V30 22542 H 2207.36 -0.636931 1.94433 0
M  V30 22543 H 2207.37 -2.90274 2.86715 0
M  V30 22544 H 2206.04 -2.03601 3.62656 0
M  V30 22545 H 2204.62 -3.07086 2.11548 0
M  V30 22546 N 2206.8 -1.37041 -0.778305 0
M  V30 22547 C 2207.74 -1.26636 -1.89838 0
M  V30 22548 C 2208.71 -0.148225 -1.61923 0
M  V30 22549 O 2209.9 -0.321298 -1.85742 0
M  V30 22550 C 2207.03 -0.95646 -3.24915 0
M  V30 22551 C 2206.07 -2.09058 -3.71749 0
M  V30 22552 S 2206.9 -3.70964 -3.86194 0
M  V30 22553 C 2208.06 -3.4211 -5.24129 0
M  V30 22554 H 2208.29 -2.21439 -1.98373 0
M  V30 22555 H 2205.83 -1.22587 -0.938717 0
M  V30 22556 H 2207.78 -0.78448 -4.02934 0
M  V30 22557 H 2206.45 -0.0260265 -3.14089 0
M  V30 22558 H 2205.64 -1.82858 -4.69658 0
M  V30 22559 H 2205.24 -2.22235 -3.00811 0
M  V30 22560 H 2207.53 -2.96692 -6.09081 0
M  V30 22561 H 2208.48 -4.39324 -5.55338 0
M  V30 22562 H 2208.88 -2.77194 -4.91756 0
M  V30 22563 N 2208.28 1.00373 -1.21503 0
M  V30 22564 C 2209.53 1.74427 -1.03456 0
M  V30 22565 C 2209.86 1.89363 0.430731 0
M  V30 22566 O 2209.14 1.42888 1.31959 0
M  V30 22567 C 2209.42 3.15612 -1.73381 0
M  V30 22568 C 2209.27 3.08391 -3.27437 0
M  V30 22569 C 2210.59 4.14561 -1.47739 0
M  V30 22570 H 2207.71 0.633136 -0.377237 0
M  V30 22571 H 2210.35 1.1701 -1.49695 0
M  V30 22572 H 2208.5 3.64633 -1.3407 0
M  V30 22573 H 2210.17 2.67075 -3.76123 0
M  V30 22574 H 2208.42 2.45462 -3.57674 0
M  V30 22575 H 2209.09 4.08251 -3.71531 0
M  V30 22576 H 2211.56 3.74251 -1.81866 0
M  V30 22577 H 2210.44 5.11488 -1.99178 0
M  V30 22578 H 2210.7 4.40216 -0.407666 0
M  V30 22579 N 2209.76 1.02298 1.19887 0
M  V30 22580 C 2210.69 0.619214 2.2514 0
M  V30 22581 C 2211.67 -0.368886 1.66052 0
M  V30 22582 O 2212.86 -0.252907 1.92546 0
M  V30 22583 C 2209.99 -0.0368173 3.4728 0
M  V30 22584 C 2208.94 0.872939 4.19003 0
M  V30 22585 C 2208.27 0.0823342 5.34637 0
M  V30 22586 C 2209.57 2.18395 4.74448 0
M  V30 22587 H 2211.26 1.49907 2.59168 0
M  V30 22588 H 2208.81 0.722244 1.24578 0
M  V30 22589 H 2210.76 -0.330884 4.20099 0
M  V30 22590 H 2209.48 -0.951435 3.12434 0
M  V30 22591 H 2208.14 1.15111 3.48059 0
M  V30 22592 H 2207.79 -0.834133 4.96036 0
M  V30 22593 H 2207.49 0.688252 5.83555 0
M  V30 22594 H 2209.01 -0.20513 6.10255 0
M  V30 22595 H 2210.43 1.95182 5.39052 0
M  V30 22596 H 2208.82 2.74128 5.33829 0
M  V30 22597 H 2209.89 2.84263 3.92839 0
M  V30 22598 N 2211.24 -1.35782 0.800057 0
M  V30 22599 C 2212.51 -1.93271 0.300914 0
M  V30 22600 C 2212.89 -1.73083 -1.20854 0
M  V30 22601 O 2212.24 -1.09599 -2.005 0
M  V30 22602 C 2212.45 -3.41802 0.70517 0
M  V30 22603 C 2213.8 -4.1894 0.690944 0
M  V30 22604 O 2214.82 -3.50288 0.646305 0
M  V30 22605 O 2213.68 -5.4142 0.743415 0
M  V30 22606 H 2210.78 -0.823391 0.0771749 0
M  V30 22607 H 2213.32 -1.44899 0.883316 0
M  V30 22608 H 2212.1 -3.50198 1.74577 0
M  V30 22609 H 2211.72 -3.97481 0.0972239 0
M  V30 22610 N 2212.72 -0.552988 -1.4758 0
M  V30 22611 C 2213.96 -0.0274004 -2.02781 0
M  V30 22612 C 2214.29 1.31732 -1.4269 0
M  V30 22613 O 2213.57 1.85622 -0.58093 0
M  V30 22614 C 2213.85 0.0701738 -3.60032 0
M  V30 22615 C 2213.71 -1.30134 -4.30564 0
M  V30 22616 C 2215.02 0.785694 -4.3303 0
M  V30 22617 H 2212.14 -0.0114315 -0.736911 0
M  V30 22618 H 2214.79 -0.714463 -1.76055 0
M  V30 22619 H 2212.94 0.655315 -3.82933 0
M  V30 22620 H 2214.61 -1.92936 -4.19015 0
M  V30 22621 H 2212.85 -1.87715 -3.91082 0
M  V30 22622 H 2213.52 -1.18583 -5.39112 0
M  V30 22623 H 2216 0.288909 -4.15096 0
M  V30 22624 H 2214.87 0.822917 -5.42696 0
M  V30 22625 H 2215.13 1.84093 -4.01948 0
M  V30 22626 N 2214.19 1.54923 -0.28923 0
M  V30 22627 C 2215.16 2.21763 0.579105 0
M  V30 22628 C 2216.16 1.19992 1.07045 0
M  V30 22629 O 2217.35 1.44805 0.968359 0
M  V30 22630 C 2214.48 2.89473 1.8005 0
M  V30 22631 H 2215.67 2.999 -0.00470179 0
M  V30 22632 H 2213.22 1.56249 -0.0399581 0
M  V30 22633 H 2213.96 2.15386 2.42445 0
M  V30 22634 H 2213.74 3.64067 1.45595 0
M  V30 22635 H 2215.23 3.40498 2.41767 0
M  V30 22636 N 2215.67 0.0167433 1.57591 0
M  V30 22637 C 2216.92 -0.664564 1.91285 0
M  V30 22638 C 2217.25 -1.72841 0.891979 0
M  V30 22639 O 2216.5 -1.9544 -0.100896 0
M  V30 22640 C 2216.8 -1.33024 3.31722 0
M  V30 22641 C 2216.47 -0.397968 4.4914 0
M  V30 22642 C 2215.13 -0.141336 4.80992 0
M  V30 22643 C 2217.48 0.242917 5.20634 0
M  V30 22644 C 2214.81 0.764194 5.81702 0
M  V30 22645 C 2217.16 1.13643 6.22309 0
M  V30 22646 C 2215.82 1.40207 6.52609 0
M  V30 22647 H 2215.09 -0.243181 0.69996 0
M  V30 22648 H 2217.74 0.0758603 1.9135 0
M  V30 22649 H 2216.05 -2.14511 3.2786 0
M  V30 22650 H 2217.74 -1.86373 3.55058 0
M  V30 22651 H 2214.33 -0.608164 4.24263 0
M  V30 22652 H 2218.52 0.0576892 4.96266 0
M  V30 22653 H 2213.77 0.977838 6.0353 0
M  V30 22654 H 2217.95 1.63928 6.76831 0
M  V30 22655 H 2215.57 2.10541 7.30463 0
M  V30 22656 N 2217.15 -1.55503 -0.256249 0
M  V30 22657 C 2218.4 -1.77159 -0.987048 0
M  V30 22658 C 2218.73 -0.580347 -1.85326 0
M  V30 22659 O 2218 0.421653 -1.89875 0
M  V30 22660 C 2218.29 -3.08616 -1.85548 0
M  V30 22661 C 2218.14 -4.38127 -1.01808 0
M  V30 22662 C 2219.46 -3.36233 -2.83964 0
M  V30 22663 H 2216.58 -0.644533 -0.357417 0
M  V30 22664 H 2219.22 -1.88237 -0.258206 0
M  V30 22665 H 2217.37 -2.99302 -2.4769 0
M  V30 22666 H 2219.04 -4.5942 -0.416078 0
M  V30 22667 H 2217.29 -4.32603 -0.322102 0
M  V30 22668 H 2217.96 -5.26471 -1.6593 0
M  V30 22669 H 2220.43 -3.45449 -2.31958 0
M  V30 22670 H 2219.31 -4.29448 -3.41856 0
M  V30 22671 H 2219.57 -2.56687 -3.5995 0
M  V30 22672 N 2218.63 0.521507 -1.48721 0
M  V30 22673 C 2219.56 1.63428 -1.66774 0
M  V30 22674 C 2220.54 1.62068 -0.516528 0
M  V30 22675 O 2221.72 1.79131 -0.750045 0
M  V30 22676 C 2218.85 3.0199 -1.71521 0
M  V30 22677 C 2217.81 3.18211 -2.86227 0
M  V30 22678 C 2217.13 4.57919 -2.76069 0
M  V30 22679 C 2218.43 3.00177 -4.27424 0
M  V30 22680 H 2220.13 1.48574 -2.59935 0
M  V30 22681 H 2217.67 0.713336 -1.2509 0
M  V30 22682 H 2219.63 3.79717 -1.82738 0
M  V30 22683 H 2218.35 3.17885 -0.749449 0
M  V30 22684 H 2217.01 2.42903 -2.74579 0
M  V30 22685 H 2216.66 4.70662 -1.77445 0
M  V30 22686 H 2216.36 4.69716 -3.53045 0
M  V30 22687 H 2217.88 5.37734 -2.89266 0
M  V30 22688 H 2219.3 3.67689 -4.39861 0
M  V30 22689 H 2217.69 3.23461 -5.05463 0
M  V30 22690 H 2218.76 1.96511 -4.43296 0
M  V30 22691 N 2220.11 1.37452 0.771027 0
M  V30 22692 C 2221.02 1.35467 1.91535 0
M  V30 22693 C 2222.03 0.254153 1.72134 0
M  V30 22694 O 2223.21 0.48966 1.95357 0
M  V30 22695 C 2220.27 1.16139 3.26669 0
M  V30 22696 C 2219.33 2.35837 3.58719 0
M  V30 22697 C 2218.57 2.17422 4.87405 0
M  V30 22698 O 2218.79 1.15885 5.58504 0
M  V30 22699 O 2217.72 3.05624 5.18534 0
M  V30 22700 H 2221.55 2.3185 1.96161 0
M  V30 22701 H 2219.14 1.18189 0.913879 0
M  V30 22702 H 2221.02 1.07352 4.07497 0
M  V30 22703 H 2219.69 0.228308 3.22894 0
M  V30 22704 H 2218.6 2.50197 2.78123 0
M  V30 22705 H 2219.93 3.27716 3.67237 0
M  V30 22706 N 2221.58 -0.997276 1.22033 0
M  V30 22707 C 2222.83 -1.73276 1.04019 0
M  V30 22708 C 2223.15 -1.90285 -0.426222 0
M  V30 22709 O 2222.42 -1.45933 -1.30691 0
M  V30 22710 H 2221 -0.641993 0.381908 0
M  V30 22711 H 2223.67 -1.20135 1.53472 0
M  V30 22712 H 2222.76 -2.72893 1.51446 0
M  V30 22713 N 2223.06 -1.02932 -1.19343 0
M  V30 22714 C 2224.29 -0.745545 -1.93537 0
M  V30 22715 C 2224.71 0.68948 -1.75008 0
M  V30 22716 O 2224.07 1.47609 -1.05268 0
M  V30 22717 C 2224.12 -1.10245 -3.43334 0
M  V30 22718 O 2223.22 -0.221361 -4.11805 0
M  V30 22719 H 2222.56 -0.275415 -0.604188 0
M  V30 22720 H 2225.09 -1.37612 -1.51407 0
M  V30 22721 H 2225.1 -1.05954 -3.94002 0
M  V30 22722 H 2223.78 -2.14792 -3.56142 0
M  V30 22723 H 2222.36 -0.322907 -3.71499 0
M  V30 22724 N 2224.54 1.35356 -0.807246 0
M  V30 22725 C 2225.82 1.93109 -0.31116 0
M  V30 22726 C 2226.2 1.73721 1.19934 0
M  V30 22727 O 2225.55 1.10661 1.99916 0
M  V30 22728 C 2225.76 3.41423 -0.723287 0
M  V30 22729 C 2227.1 4.18568 -0.713152 0
M  V30 22730 O 2228.13 3.4994 -0.664873 0
M  V30 22731 O 2226.99 5.41018 -0.772118 0
M  V30 22732 H 2224.08 0.82297 -0.0815405 0
M  V30 22733 H 2226.63 1.44428 -0.890988 0
M  V30 22734 H 2225.4 3.49267 -1.76432 0
M  V30 22735 H 2225.02 3.97424 -0.118302 0
M  V30 22736 N 2226.02 0.560807 1.47284 0
M  V30 22737 C 2226.97 -0.184869 2.30058 0
M  V30 22738 C 2227.94 -0.904961 1.39283 0
M  V30 22739 O 2229.12 -0.899949 1.68243 0
M  V30 22740 C 2226.26 -1.2066 3.23319 0
M  V30 22741 C 2225.37 -0.492209 4.29187 0
M  V30 22742 C 2224.51 -1.49955 5.09595 0
M  V30 22743 C 2223.55 -0.770332 6.07233 0
M  V30 22744 N 2222.68 -1.72468 6.80588 0
M  V30 22745 H 2227.52 0.5271 2.93301 0
M  V30 22746 H 2225.06 0.271763 1.44568 0
M  V30 22747 H 2227.02 -1.81161 3.75814 0
M  V30 22748 H 2225.65 -1.88656 2.61933 0
M  V30 22749 H 2224.7 0.2274 3.7972 0
M  V30 22750 H 2226.01 0.0788806 4.98738 0
M  V30 22751 H 2225.17 -2.17799 5.66258 0
M  V30 22752 H 2223.91 -2.10456 4.39954 0
M  V30 22753 H 2222.91 -0.077988 5.49745 0
M  V30 22754 H 2224.14 -0.171015 6.78885 0
M  V30 22755 H 2222.08 -2.31819 6.13674 0
M  V30 22756 H 2222 -1.20583 7.46321 0
M  V30 22757 H 2223.27 -2.39415 7.41823 0
M  V30 22758 N 2227.5 -1.54768 0.297442 0
M  V30 22759 C 2228.75 -1.99247 -0.313634 0
M  V30 22760 C 2229.06 -1.18945 -1.55279 0
M  V30 22761 O 2230.26 -1.53674 -2.23823 0
M  V30 22762 C 2228.72 -3.54704 -0.609345 0
M  V30 22763 C 2228.33 -4.4381 0.61127 0
M  V30 22764 C 2230.07 -4.07717 -1.18181 0
M  V30 22765 C 2227.98 -5.90694 0.288908 0
M  V30 22766 H 2226.91 -0.744233 -0.120966 0
M  V30 22767 H 2229.56 -1.78961 0.405591 0
M  V30 22768 H 2227.94 -3.70876 -1.38807 0
M  V30 22769 H 2229.12 -4.39412 1.38758 0
M  V30 22770 H 2227.43 -4.0155 1.10212 0
M  V30 22771 H 2230.03 -5.15023 -1.43718 0
M  V30 22772 H 2230.37 -3.58102 -2.12293 0
M  V30 22773 H 2230.9 -3.95074 -0.464874 0
M  V30 22774 H 2227.64 -6.4445 1.19849 0
M  V30 22775 H 2227.16 -5.98108 -0.4502 0
M  V30 22776 H 2228.84 -6.46905 -0.110819 0
M  V30 22777 N 2228.97 -0.0251005 -1.5758 0
M  V30 22778 C 2230.22 0.653118 -1.91256 0
M  V30 22779 C 2230.54 1.72899 -0.901721 0
M  V30 22780 O 2229.81 1.95816 0.0573441 0
M  V30 22781 H 2228.39 0.24423 -0.705947 0
M  V30 22782 H 2231.06 -0.0719551 -1.94767 0
M  V30 22783 H 2230.15 1.10842 -2.91754 0
M  V30 22784 N 2230.45 1.55637 0.247999 0
M  V30 22785 C 2231.36 1.93356 1.32855 0
M  V30 22786 C 2232.38 0.833865 1.52718 0
M  V30 22787 O 2233.55 1.13516 1.66361 0
M  V30 22788 C 2230.62 2.21963 2.66333 0
M  V30 22789 C 2229.68 3.45358 2.55002 0
M  V30 22790 C 2228.91 3.72591 3.82115 0
M  V30 22791 O 2229.14 3.01915 4.83946 0
M  V30 22792 O 2228.07 4.66117 3.80813 0
M  V30 22793 H 2231.9 2.8539 1.03857 0
M  V30 22794 H 2229.48 1.42504 0.448661 0
M  V30 22795 H 2231.36 2.41676 3.45211 0
M  V30 22796 H 2230.04 1.33108 2.95066 0
M  V30 22797 H 2228.95 3.30954 1.74414 0
M  V30 22798 H 2230.28 4.34512 2.31215 0
M  V30 22799 N 2231.93 -0.513613 1.48996 0
M  V30 22800 C 2232.89 -1.59876 1.64232 0
M  V30 22801 C 2233.89 -1.52339 0.514723 0
M  V30 22802 O 2235.08 -1.55716 0.780898 0
M  V30 22803 C 2232.22 -2.99521 1.62788 0
M  V30 22804 H 2233.41 -1.47701 2.61007 0
M  V30 22805 H 2230.96 -0.736912 1.37838 0
M  V30 22806 H 2231.7 -3.17186 0.675516 0
M  V30 22807 H 2231.48 -3.064 2.44666 0
M  V30 22808 H 2232.97 -3.78385 1.76676 0
M  V30 22809 N 2233.41 -1.37859 -0.763727 0
M  V30 22810 C 2234.69 -1.24037 -1.51242 0
M  V30 22811 C 2235.07 0.162612 -2.10473 0
M  V30 22812 O 2234.41 1.17109 -1.96208 0
M  V30 22813 C 2234.62 -2.34266 -2.5869 0
M  V30 22814 C 2235.97 -2.72199 -3.25873 0
M  V30 22815 O 2237 -2.33502 -2.68989 0
M  V30 22816 O 2235.86 -3.38894 -4.28734 0
M  V30 22817 H 2232.95 -0.484474 -0.670234 0
M  V30 22818 H 2235.5 -1.4966 -0.800005 0
M  V30 22819 H 2234.27 -3.28184 -2.13099 0
M  V30 22820 H 2233.89 -2.10152 -3.37523 0
M  V30 22821 N 2234.89 0.990791 -1.22561 0
M  V30 22822 C 2236.13 1.73064 -1.05144 0
M  V30 22823 C 2236.46 1.90061 0.413157 0
M  V30 22824 O 2235.72 1.44247 1.32254 0
M  V30 22825 C 2236.02 3.13828 -1.71017 0
M  V30 22826 C 2235.68 3.16739 -3.20916 0
M  V30 22827 C 2234.34 3.17241 -3.61817 0
M  V30 22828 C 2236.7 3.12864 -4.16852 0
M  V30 22829 C 2234.02 3.11571 -4.97132 0
M  V30 22830 C 2236.38 3.08737 -5.52145 0
M  V30 22831 C 2235.04 3.07555 -5.92424 0
M  V30 22832 H 2234.31 0.633284 -0.384749 0
M  V30 22833 H 2236.96 1.16022 -1.52352 0
M  V30 22834 H 2235.26 3.74191 -1.1614 0
M  V30 22835 H 2236.96 3.6982 -1.55029 0
M  V30 22836 H 2233.55 3.171 -2.8835 0
M  V30 22837 H 2237.73 3.11625 -3.86269 0
M  V30 22838 H 2232.99 3.09003 -5.27567 0
M  V30 22839 H 2237.16 3.04694 -6.26206 0
M  V30 22840 H 2234.79 3.02916 -6.97242 0
M  V30 22841 N 2236.37 1.03564 1.18795 0
M  V30 22842 C 2237.31 0.615945 2.24296 0
M  V30 22843 C 2238.31 -0.354779 1.65643 0
M  V30 22844 O 2239.51 -0.222619 1.78618 0
M  V30 22845 H 2235.89 0.180947 0.729906 0
M  V30 22846 H 2237.86 1.51624 2.57007 0
M  V30 22847 C 2236.61 -0.0104124 3.47698 0
M  V30 22848 H 2235.93 0.727578 3.93124 0
M  V30 22849 H 2237.37 -0.266921 4.23159 0
M  V30 22850 C 2235.83 -1.25899 3.12491 0
M  V30 22851 O 2236.36 -2.35032 3.25765 0
M  V30 22852 N 2234.57 -1.15034 2.66862 0
M  V30 22853 H 2234.11 -0.262283 2.56261 0
M  V30 22854 H 2234.07 -1.98668 2.43677 0
M  V30 22855 N 2237.84 -1.34926 0.814413 0
M  V30 22856 C 2239.26 -1.51595 0.499111 0
M  V30 22857 C 2239.46 -1.76158 -0.978288 0
M  V30 22858 O 2238.52 -1.80755 -1.76306 0
M  V30 22859 C 2239.83 -2.68629 1.35126 0
M  V30 22860 C 2241.38 -2.82509 1.34751 0
M  V30 22861 C 2241.85 -4.02576 2.18395 0
M  V30 22862 N 2243.34 -4.09768 2.15973 0
M  V30 22863 C 2244.08 -5.01808 2.77446 0
M  V30 22864 N 2243.57 -5.99127 3.47877 0
M  V30 22865 N 2245.37 -4.94614 2.67046 0
M  V30 22866 H 2237.52 -1.1724 1.77112 0
M  V30 22867 H 2239.78 -0.574271 0.754266 0
M  V30 22868 H 2239.49 -2.5708 2.40005 0
M  V30 22869 H 2239.36 -3.63427 1.00997 0
M  V30 22870 H 2241.75 -2.93504 0.306532 0
M  V30 22871 H 2241.83 -1.88544 1.72872 0
M  V30 22872 H 2241.47 -3.92342 3.22537 0
M  V30 22873 H 2241.4 -4.95737 1.77629 0
M  V30 22874 H 2243.89 -3.40104 1.64735 0
M  V30 22875 H 2244.21 -6.6597 3.9205 0
M  V30 22876 H 2242.55 -5.99278 3.51982 0
M  V30 22877 H 2245.74 -4.17542 2.11604 0
M  V30 22878 H 2245.92 -5.66151 3.15242 0
M  V30 22879 N 2239.32 -0.56861 -1.46985 0
M  V30 22880 C 2240.55 -0.0520892 -2.07335 0
M  V30 22881 C 2240.97 1.2373 -1.41677 0
M  V30 22882 O 2240.33 1.74393 -0.495654 0
M  V30 22883 C 2240.38 0.114947 -3.60417 0
M  V30 22884 O 2239.48 1.17485 -3.95311 0
M  V30 22885 H 2238.82 -0.0564501 -0.661596 0
M  V30 22886 H 2241.35 -0.78754 -1.88836 0
M  V30 22887 H 2241.36 0.325572 -4.06699 0
M  V30 22888 H 2240.04 -0.826747 -4.076 0
M  V30 22889 H 2238.61 0.943805 -3.60759 0
M  V30 22890 N 2240.8 1.54608 -0.305646 0
M  V30 22891 C 2241.75 2.23692 0.568382 0
M  V30 22892 C 2242.72 1.22118 1.1259 0
M  V30 22893 O 2243.9 1.50751 1.16956 0
M  V30 22894 C 2241.04 2.9848 1.73215 0
M  V30 22895 C 2240.15 4.14837 1.20558 0
M  V30 22896 C 2239.29 4.77197 2.33359 0
M  V30 22897 C 2238.33 5.8569 1.7786 0
M  V30 22898 N 2237.47 6.41985 2.84252 0
M  V30 22899 H 2242.31 2.97987 -0.0273391 0
M  V30 22900 H 2239.84 1.47078 -0.0252622 0
M  V30 22901 H 2241.8 3.40076 2.41669 0
M  V30 22902 H 2240.43 2.26552 2.29943 0
M  V30 22903 H 2239.48 3.7815 0.413156 0
M  V30 22904 H 2240.79 4.92986 0.759331 0
M  V30 22905 H 2239.95 5.21669 3.09751 0
M  V30 22906 H 2238.69 3.98389 2.81313 0
M  V30 22907 H 2237.69 5.40637 0.999585 0
M  V30 22908 H 2238.92 6.66384 1.30804 0
M  V30 22909 H 2236.86 5.66059 3.31531 0
M  V30 22910 H 2236.78 7.15495 2.44136 0
M  V30 22911 H 2238.05 6.91115 3.60528 0
M  V30 22912 N 2242.28 0.033457 1.57564 0
M  V30 22913 C 2243.19 -0.962535 2.13945 0
M  V30 22914 C 2244.2 -1.35404 1.09278 0
M  V30 22915 O 2245.38 -1.43457 1.41358 0
M  V30 22916 C 2242.44 -2.22492 2.65891 0
M  V30 22917 C 2241.51 -1.89343 3.85289 0
M  V30 22918 C 2240.74 -3.09564 4.34748 0
M  V30 22919 O 2240.96 -4.22364 3.8336 0
M  V30 22920 O 2239.9 -2.91609 5.26543 0
M  V30 22921 H 2243.72 -0.513116 2.99334 0
M  V30 22922 H 2241.31 -0.187404 1.4822 0
M  V30 22923 H 2243.19 -2.96592 2.99351 0
M  V30 22924 H 2241.86 -2.66607 1.83583 0
M  V30 22925 H 2240.77 -1.12614 3.56748 0
M  V30 22926 H 2242.1 -1.50042 4.68773 0
M  V30 22927 N 2243.76 -1.55766 -0.239741 0
M  V30 22928 C 2245 -1.77932 -0.96677 0
M  V30 22929 C 2245.33 -0.599047 -1.85045 0
M  V30 22930 O 2244.59 0.417362 -1.91198 0
M  V30 22931 C 2244.88 -3.05676 -1.85195 0
M  V30 22932 C 2244.55 -4.36691 -1.12303 0
M  V30 22933 C 2243.21 -4.72292 -0.921606 0
M  V30 22934 C 2245.56 -5.17654 -0.606928 0
M  V30 22935 C 2242.89 -5.86386 -0.191893 0
M  V30 22936 C 2245.24 -6.32505 0.109352 0
M  V30 22937 C 2243.91 -6.66722 0.32219 0
M  V30 22938 H 2243.18 -0.651099 -0.353766 0
M  V30 22939 H 2245.83 -1.90036 -0.236307 0
M  V30 22940 H 2244.13 -2.88614 -2.6497 0
M  V30 22941 H 2245.83 -3.20026 -2.41629 0
M  V30 22942 H 2242.42 -4.08727 -1.28997 0
M  V30 22943 H 2246.6 -4.90599 -0.750067 0
M  V30 22944 H 2241.86 -6.11398 -0.0165874 0
M  V30 22945 H 2246.03 -6.94479 0.516859 0
M  V30 22946 H 2243.66 -7.54977 0.889573 0
M  V30 22947 N 2245.23 0.505704 -1.49266 0
M  V30 22948 C 2246.17 1.62529 -1.60186 0
M  V30 22949 C 2247.14 1.56216 -0.451135 0
M  V30 22950 O 2248.33 1.76341 -0.666047 0
M  V30 22951 C 2245.46 3.01027 -1.55244 0
M  V30 22952 C 2244.5 3.25617 -2.75456 0
M  V30 22953 S 2245.33 3.09248 -4.37179 0
M  V30 22954 C 2246.49 4.5015 -4.34874 0
M  V30 22955 H 2246.72 1.5302 -2.54896 0
M  V30 22956 H 2244.26 0.69051 -1.38099 0
M  V30 22957 H 2246.21 3.8089 -1.53078 0
M  V30 22958 H 2244.88 3.07954 -0.618292 0
M  V30 22959 H 2244.07 4.26711 -2.68204 0
M  V30 22960 H 2243.67 2.53467 -2.7501 0
M  V30 22961 H 2245.96 5.42147 -4.06304 0
M  V30 22962 H 2246.91 4.62452 -5.36231 0
M  V30 22963 H 2247.31 4.3061 -3.65015 0
M  V30 22964 N 2246.71 1.38262 0.756405 0
M  V30 22965 C 2247.62 1.37491 1.90088 0
M  V30 22966 C 2248.64 0.272396 1.71855 0
M  V30 22967 O 2249.81 0.510353 1.94826 0
M  V30 22968 C 2246.88 1.19598 3.25419 0
M  V30 22969 C 2245.94 2.39629 3.56197 0
M  V30 22970 C 2245.17 2.22579 4.85071 0
M  V30 22971 O 2245.4 1.21803 5.57243 0
M  V30 22972 O 2244.33 3.11107 5.15263 0
M  V30 22973 H 2248.16 2.33918 1.93691 0
M  V30 22974 H 2245.74 1.19152 0.901292 0
M  V30 22975 H 2247.62 1.11668 4.06335 0
M  V30 22976 H 2246.3 0.262543 3.22634 0
M  V30 22977 H 2245.21 2.53133 2.75453 0
M  V30 22978 H 2246.54 3.31592 3.63741 0
M  V30 22979 N 2248.19 -0.984277 1.23084 0
M  V30 22980 C 2249.1 -2.11015 1.02518 0
M  V30 22981 C 2250.12 -1.73976 -0.0291397 0
M  V30 22982 O 2251.29 -2.00719 0.165469 0
M  V30 22983 C 2248.36 -3.41207 0.614733 0
M  V30 22984 C 2247.42 -3.92294 1.74366 0
M  V30 22985 C 2246.65 -5.16273 1.3527 0
M  V30 22986 O 2246.87 -5.69915 0.235236 0
M  V30 22987 O 2245.81 -5.6133 2.17237 0
M  V30 22988 H 2249.63 -2.31252 1.96866 0
M  V30 22989 H 2247.22 -1.0939 1.01755 0
M  V30 22990 H 2249.1 -4.1953 0.396591 0
M  V30 22991 H 2247.78 -3.22309 -0.299794 0
M  V30 22992 H 2246.68 -3.15106 2.01641 0
M  V30 22993 H 2248.02 -4.1564 2.63637 0
M  V30 22994 N 2249.67 -1.04192 -1.18244 0
M  V30 22995 C 2250.91 -0.747155 -1.88535 0
M  V30 22996 C 2251.25 0.723377 -1.80225 0
M  V30 22997 O 2250.52 1.52802 -1.2034 0
M  V30 22998 C 2250.81 -1.2155 -3.38965 0
M  V30 22999 C 2250.66 -2.74823 -3.56079 0
M  V30 23000 C 2251.98 -0.806558 -4.32646 0
M  V30 23001 H 2249.1 -0.272895 -0.684615 0
M  V30 23002 H 2251.74 -1.29415 -1.3911 0
M  V30 23003 H 2249.89 -0.750148 -3.81189 0
M  V30 23004 H 2251.56 -3.29405 -3.2294 0
M  V30 23005 H 2249.8 -3.14587 -2.98693 0
M  V30 23006 H 2250.47 -3.02652 -4.61634 0
M  V30 23007 H 2252.95 -1.20702 -3.98209 0
M  V30 23008 H 2251.83 -1.16199 -5.3646 0
M  V30 23009 H 2252.09 0.290213 -4.41146 0
M  V30 23010 N 2251.15 1.34492 -0.821557 0
M  V30 23011 C 2252.4 1.97584 -0.40539 0
M  V30 23012 C 2252.71 1.65865 1.03674 0
M  V30 23013 O 2253.91 2.22436 1.55675 0
M  V30 23014 C 2252.37 3.53534 -0.673924 0
M  V30 23015 C 2251.98 3.94148 -2.12958 0
M  V30 23016 C 2253.72 4.23263 -0.323854 0
M  V30 23017 C 2251.63 5.43005 -2.34308 0
M  V30 23018 H 2250.56 0.739362 -0.147849 0
M  V30 23019 H 2253.21 1.53353 -1.00772 0
M  V30 23020 H 2251.59 3.96 -0.00144515 0
M  V30 23021 H 2252.77 3.62792 -2.84111 0
M  V30 23022 H 2251.08 3.37352 -2.44095 0
M  V30 23023 H 2253.68 5.32707 -0.461219 0
M  V30 23024 H 2254.02 4.09823 0.731514 0
M  V30 23025 H 2254.55 3.86269 -0.950854 0
M  V30 23026 H 2251.29 5.61429 -3.38345 0
M  V30 23027 H 2250.81 5.7588 -1.67697 0
M  V30 23028 H 2252.49 6.09667 -2.16599 0
M  V30 23029 N 2252.62 0.576397 1.46681 0
M  V30 23030 C 2253.56 -0.198191 2.28342 0
M  V30 23031 C 2254.57 -0.861429 1.38142 0
M  V30 23032 O 2255.76 -0.732053 1.62798 0
M  V30 23033 C 2252.86 -1.29967 3.12989 0
M  V30 23034 C 2252.03 -0.729563 4.31273 0
M  V30 23035 C 2251.09 -1.71795 4.97366 0
M  V30 23036 O 2250.12 -1.25648 5.55159 0
M  V30 23037 N 2251.32 -3.05189 4.93801 0
M  V30 23038 H 2254.08 0.502376 2.95459 0
M  V30 23039 H 2251.64 0.413743 1.56524 0
M  V30 23040 H 2253.64 -1.96002 3.5407 0
M  V30 23041 H 2252.21 -1.90319 2.47987 0
M  V30 23042 H 2251.43 0.108081 3.94052 0
M  V30 23043 H 2252.71 -0.328348 5.07739 0
M  V30 23044 H 2252.11 -3.45309 4.48083 0
M  V30 23045 H 2250.67 -3.6673 5.38843 0
M  V30 23046 N 2254.1 -1.54444 0.313841 0
M  V30 23047 C 2255.52 -1.59552 -0.0391338 0
M  V30 23048 C 2255.72 -1.33059 -1.51319 0
M  V30 23049 O 2254.77 -1.11026 -2.26781 0
M  V30 23050 C 2256.09 -2.98411 0.370354 0
M  V30 23051 C 2257.64 -3.11358 0.320194 0
M  V30 23052 C 2258.11 -4.52546 0.704697 0
M  V30 23053 N 2259.6 -4.58506 0.657726 0
M  V30 23054 C 2260.34 -5.65848 0.927553 0
M  V30 23055 N 2259.83 -6.81171 1.26401 0
M  V30 23056 N 2261.63 -5.55578 0.853759 0
M  V30 23057 H 2253.78 -1.69923 1.27436 0
M  V30 23058 H 2256.04 -0.794275 0.517525 0
M  V30 23059 H 2255.75 -3.22764 1.397 0
M  V30 23060 H 2255.62 -3.76236 -0.269553 0
M  V30 23061 H 2258.01 -2.86745 -0.697224 0
M  V30 23062 H 2258.09 -2.35659 0.994901 0
M  V30 23063 H 2257.73 -4.7789 1.71998 0
M  V30 23064 H 2257.66 -5.26599 0.00778099 0
M  V30 23065 H 2260.15 -3.75679 0.409133 0
M  V30 23066 H 2260.47 -7.58969 1.45554 0
M  V30 23067 H 2258.81 -6.82692 1.30218 0
M  V30 23068 H 2262 -4.64361 0.590464 0
M  V30 23069 H 2262.17 -6.39148 1.06741 0
M  V30 23070 N 2255.58 -0.0418125 -1.57545 0
M  V30 23071 C 2256.51 0.970891 -2.06516 0
M  V30 23072 C 2257.49 1.30969 -0.96363 0
M  V30 23073 O 2258.68 1.42418 -1.23489 0
M  V30 23074 C 2255.8 2.28748 -2.49784 0
M  V30 23075 C 2254.85 2.10239 -3.71082 0
M  V30 23076 S 2255.68 1.38942 -5.17161 0
M  V30 23077 C 2256.84 2.71944 -5.63735 0
M  V30 23078 H 2257.07 0.554078 -2.92091 0
M  V30 23079 H 2254.6 0.170213 -1.53459 0
M  V30 23080 H 2256.56 3.04431 -2.75377 0
M  V30 23081 H 2255.22 2.67559 -1.64532 0
M  V30 23082 H 2254.42 3.07602 -3.99246 0
M  V30 23083 H 2254.02 1.42697 -3.45707 0
M  V30 23084 H 2256.31 3.68144 -5.68749 0
M  V30 23085 H 2257.25 2.48429 -6.6309 0
M  V30 23086 H 2257.66 2.77774 -4.91429 0
M  V30 23087 N 2257.06 1.55891 0.231477 0
M  V30 23088 C 2258.34 1.69217 0.981066 0
M  V30 23089 C 2258.72 0.586199 2.02798 0
M  V30 23090 O 2258.06 -0.408214 2.24824 0
M  V30 23091 C 2258.27 3.10138 1.60048 0
M  V30 23092 C 2259.62 3.69231 2.09651 0
M  V30 23093 O 2260.65 3.13036 1.69961 0
M  V30 23094 O 2259.5 4.67777 2.82572 0
M  V30 23095 H 2256.6 0.688835 0.45764 0
M  V30 23096 H 2259.14 1.68215 0.224043 0
M  V30 23097 H 2257.92 3.82089 0.844038 0
M  V30 23098 H 2257.54 3.15217 2.42331 0
M  V30 23099 N 2258.54 -0.497781 1.49532 0
M  V30 23100 C 2259.78 -1.25355 1.59417 0
M  V30 23101 C 2260.12 -1.9215 0.281455 0
M  V30 23102 O 2259.39 -1.80873 -0.715217 0
M  V30 23103 C 2259.67 -2.31805 2.7557 0
M  V30 23104 C 2259.53 -1.69491 4.16645 0
M  V30 23105 C 2260.85 -3.33341 2.87353 0
M  V30 23106 H 2257.96 -0.454398 0.580252 0
M  V30 23107 H 2260.61 -0.55123 1.81828 0
M  V30 23108 H 2258.76 -2.91707 2.56592 0
M  V30 23109 H 2260.43 -1.13391 4.47147 0
M  V30 23110 H 2258.67 -0.998904 4.22143 0
M  V30 23111 H 2259.34 -2.46717 4.93796 0
M  V30 23112 H 2261.82 -2.83433 3.04639 0
M  V30 23113 H 2260.69 -4.05181 3.70296 0
M  V30 23114 H 2260.96 -3.95861 1.96841 0
M  V30 23115 N 2260.01 -1.38661 -0.749062 0
M  V30 23116 C 2261.26 -1.3485 -1.50532 0
M  V30 23117 C 2261.58 0.0594673 -1.94909 0
M  V30 23118 O 2260.85 1.00803 -1.67975 0
M  V30 23119 H 2259.43 -0.4962 -0.558386 0
M  V30 23120 H 2262.1 -1.73386 -0.890134 0
M  V30 23121 H 2261.19 -2.00223 -2.3941 0
M  V30 23122 N 2261.49 0.977736 -1.23605 0
M  V30 23123 C 2262.43 2.07315 -0.977405 0
M  V30 23124 C 2263.44 1.62725 0.0495559 0
M  V30 23125 O 2264.63 1.77525 -0.186292 0
M  V30 23126 C 2261.73 3.35882 -0.451275 0
M  V30 23127 C 2260.9 4.0943 -1.53903 0
M  V30 23128 C 2259.96 5.16273 -1.01731 0
M  V30 23129 O 2258.99 5.43006 -1.70686 0
M  V30 23130 N 2260.19 5.80297 0.153492 0
M  V30 23131 H 2262.95 2.30079 -1.92051 0
M  V30 23132 H 2260.51 1.14463 -1.14499 0
M  V30 23133 H 2262.51 4.04606 -0.0872286 0
M  V30 23134 H 2261.08 3.10065 0.397314 0
M  V30 23135 H 2260.3 3.35123 -2.07572 0
M  V30 23136 H 2261.58 4.55333 -2.27045 0
M  V30 23137 H 2260.98 5.60967 0.730224 0
M  V30 23138 H 2259.54 6.50183 0.458777 0
M  V30 23139 N 2262.97 1.04818 1.1769 0
M  V30 23140 C 2264.25 0.669995 1.83767 0
M  V30 23141 C 2264.63 -0.849952 1.93233 0
M  V30 23142 O 2263.98 -1.75441 1.464 0
M  V30 23143 C 2264.19 1.35461 3.21639 0
M  V30 23144 C 2265.53 1.49024 3.97589 0
M  V30 23145 O 2266.56 1.31332 3.31105 0
M  V30 23146 O 2265.42 1.77923 5.16726 0
M  V30 23147 H 2262.51 0.235382 0.792795 0
M  V30 23148 H 2265.06 1.14754 1.25019 0
M  V30 23149 H 2263.83 2.39174 3.09696 0
M  V30 23150 H 2263.45 0.866175 3.8805 0
M  V30 23151 N 2264.45 -1.34055 0.828678 0
M  V30 23152 C 2265.67 -2.02858 0.431673 0
M  V30 23153 C 2266.1 -1.61976 -0.95631 0
M  V30 23154 O 2265.46 -0.807256 -1.62336 0
M  V30 23155 C 2265.51 -3.56406 0.548385 0
M  V30 23156 O 2264.61 -4.10158 -0.429484 0
M  V30 23157 H 2263.95 -0.640003 0.176897 0
M  V30 23158 H 2266.48 -1.71177 1.12069 0
M  V30 23159 H 2266.49 -4.05767 0.426267 0
M  V30 23160 H 2265.17 -3.85507 1.56067 0
M  V30 23161 H 2263.74 -3.71952 -0.265771 0
M  V30 23162 N 2265.93 -0.584167 -1.46374 0
M  V30 23163 C 2267.18 -0.0680095 -2.01585 0
M  V30 23164 C 2267.49 1.30042 -1.46111 0
M  V30 23165 O 2268.7 1.908 -1.93151 0
M  V30 23166 C 2267.15 -0.070984 -3.5983 0
M  V30 23167 C 2266.76 -1.43782 -4.243 0
M  V30 23168 C 2268.5 0.391154 -4.22694 0
M  V30 23169 C 2266.41 -1.39845 -5.74628 0
M  V30 23170 H 2265.34 -0.0216553 -0.753689 0
M  V30 23171 H 2267.99 -0.736031 -1.68092 0
M  V30 23172 H 2266.37 0.66323 -3.90407 0
M  V30 23173 H 2267.55 -2.19188 -4.05331 0
M  V30 23174 H 2265.86 -1.8401 -3.73536 0
M  V30 23175 H 2268.46 0.439431 -5.32891 0
M  V30 23176 H 2268.8 1.40899 -3.91731 0
M  V30 23177 H 2269.34 -0.289043 -3.96749 0
M  V30 23178 H 2266.07 -2.39313 -6.10253 0
M  V30 23179 H 2265.59 -0.686609 -5.95857 0
M  V30 23180 H 2267.27 -1.11198 -6.37373 0
M  V30 23181 N 2267.41 1.54275 -0.322027 0
M  V30 23182 C 2268.36 2.21012 0.560146 0
M  V30 23183 C 2269.34 1.19013 1.08281 0
M  V30 23184 O 2270.53 1.44649 1.02009 0
M  V30 23185 C 2267.66 2.97028 1.72132 0
M  V30 23186 C 2266.75 4.06365 1.21361 0
M  V30 23187 N 2267.14 5.04007 0.425477 0
M  V30 23188 C 2265.44 4.20287 1.49248 0
M  V30 23189 C 2266.14 5.815 0.152499 0
M  V30 23190 N 2265.11 5.38564 0.738199 0
M  V30 23191 H 2268.91 2.93859 -0.0493166 0
M  V30 23192 H 2266.43 1.61896 -0.127808 0
M  V30 23193 H 2268.43 3.43323 2.36506 0
M  V30 23194 H 2267.09 2.25703 2.33427 0
M  V30 23195 H 2268.1 5.17855 0.0684599 0
M  V30 23196 H 2264.77 3.60176 2.11139 0
M  V30 23197 H 2266.16 6.7017 -0.481882 0
M  V30 23198 N 2268.88 0.0501669 1.5752 0
M  V30 23199 C 2270.13 -0.624764 1.92937 0
M  V30 23200 C 2270.46 -1.70554 0.928715 0
M  V30 23201 O 2269.74 -1.94447 -0.0454437 0
M  V30 23202 C 2270.02 -1.22179 3.38739 0
M  V30 23203 C 2269.87 -0.149139 4.49553 0
M  V30 23204 C 2271.19 -2.13371 3.84916 0
M  V30 23205 H 2268.31 -0.225644 0.701608 0
M  V30 23206 H 2270.95 0.111726 1.89671 0
M  V30 23207 H 2269.1 -1.84947 3.41653 0
M  V30 23208 H 2270.78 0.482729 4.58767 0
M  V30 23209 H 2269.02 0.522917 4.30637 0
M  V30 23210 H 2269.69 -0.60687 5.48654 0
M  V30 23211 H 2272.17 -1.60565 3.83872 0
M  V30 23212 H 2271.04 -2.52088 4.87589 0
M  V30 23213 H 2271.3 -3.0334 3.21616 0
M  V30 23214 N 2270.36 -1.56011 -0.223207 0
M  V30 23215 C 2271.59 -1.83029 -0.96478 0
M  V30 23216 C 2272 -0.629072 -1.78012 0
M  V30 23217 O 2271.36 0.402382 -1.78009 0
M  V30 23218 C 2271.41 -3.08545 -1.88368 0
M  V30 23219 O 2271.13 -4.24032 -1.1013 0
M  V30 23220 C 2272.63 -3.48537 -2.73928 0
M  V30 23221 H 2269.85 -0.60848 -0.282831 0
M  V30 23222 H 2272.4 -2.03099 -0.238936 0
M  V30 23223 H 2270.55 -2.90455 -2.56349 0
M  V30 23224 H 2270.97 -4.95325 -1.72492 0
M  V30 23225 H 2272.44 -4.39403 -3.3411 0
M  V30 23226 H 2272.92 -2.70213 -3.46239 0
M  V30 23227 H 2273.52 -3.69061 -2.11362 0
M  V30 23228 N 2271.84 0.489844 -1.49794 0
M  V30 23229 C 2273.09 1.24508 -1.6008 0
M  V30 23230 C 2273.42 1.91998 -0.291642 0
M  V30 23231 O 2272.69 1.81249 0.705615 0
M  V30 23232 C 2272.98 2.3034 -2.76795 0
M  V30 23233 C 2272.83 1.67279 -4.17538 0
M  V30 23234 C 2274.15 3.31812 -2.89117 0
M  V30 23235 H 2271.27 0.451314 -0.582653 0
M  V30 23236 H 2273.91 0.54158 -1.82118 0
M  V30 23237 H 2272.06 2.90342 -2.58135 0
M  V30 23238 H 2273.73 1.11018 -4.47742 0
M  V30 23239 H 2271.97 0.976503 -4.22666 0
M  V30 23240 H 2272.65 2.44094 -4.95098 0
M  V30 23241 H 2275.12 2.81813 -3.06138 0
M  V30 23242 H 2274 4.03212 -3.7244 0
M  V30 23243 H 2274.26 3.94812 -1.98937 0
M  V30 23244 N 2273.32 1.39056 0.741698 0
M  V30 23245 C 2274.25 1.39969 1.86898 0
M  V30 23246 C 2275.23 0.263949 1.6804 0
M  V30 23247 O 2276.41 0.468788 1.88457 0
M  V30 23248 C 2273.54 1.2358 3.24569 0
M  V30 23249 C 2272.5 2.34484 3.58052 0
M  V30 23250 C 2271.82 2.03189 4.94589 0
M  V30 23251 C 2273.12 3.7678 3.6171 0
M  V30 23252 H 2274.82 2.34305 1.86391 0
M  V30 23253 H 2272.36 1.12781 0.895341 0
M  V30 23254 H 2274.32 1.22841 4.03098 0
M  V30 23255 H 2273.04 0.257103 3.25586 0
M  V30 23256 H 2271.7 2.34428 2.81849 0
M  V30 23257 H 2271.35 1.03774 4.92179 0
M  V30 23258 H 2271.05 2.77474 5.17959 0
M  V30 23259 H 2272.57 2.04089 5.75482 0
M  V30 23260 H 2273.99 3.78802 4.30328 0
M  V30 23261 H 2272.38 4.50369 3.96595 0
M  V30 23262 H 2273.45 4.08239 2.61665 0
M  V30 23263 N 2274.8 -0.971167 1.24121 0
M  V30 23264 C 2275.73 -2.06794 0.988386 0
M  V30 23265 C 2276.74 -1.62749 -0.0409255 0
M  V30 23266 O 2277.93 -1.77424 0.195704 0
M  V30 23267 C 2275.03 -3.35638 0.469082 0
M  V30 23268 C 2274.2 -4.08608 1.56072 0
M  V30 23269 C 2273.26 -5.15726 1.04467 0
M  V30 23270 O 2272.29 -5.42093 1.73563 0
M  V30 23271 N 2273.49 -5.8037 -0.122715 0
M  V30 23272 H 2276.25 -2.29057 1.93269 0
M  V30 23273 H 2273.82 -1.13854 1.15104 0
M  V30 23274 H 2275.81 -4.04554 0.108685 0
M  V30 23275 H 2274.38 -3.10271 -0.380865 0
M  V30 23276 H 2273.6 -3.34018 2.09346 0
M  V30 23277 H 2274.89 -4.54122 2.29457 0
M  V30 23278 H 2274.28 -5.61347 -0.700464 0
M  V30 23279 H 2272.84 -6.50418 -0.42429 0
M  V30 23280 N 2276.27 -1.05441 -1.17133 0
M  V30 23281 C 2277.5 -0.785307 -1.91093 0
M  V30 23282 C 2277.91 0.66311 -1.77199 0
M  V30 23283 O 2277.26 1.46495 -1.10838 0
M  V30 23284 C 2277.32 -1.08955 -3.42592 0
M  V30 23285 C 2276.98 -2.53465 -3.80269 0
M  V30 23286 C 2277.98 -3.5168 -3.82906 0
M  V30 23287 C 2275.66 -2.88539 -4.11157 0
M  V30 23288 C 2277.66 -4.83014 -4.15905 0
M  V30 23289 C 2275.34 -4.20076 -4.43824 0
M  V30 23290 C 2276.34 -5.17123 -4.46176 0
M  V30 23291 O 2276.03 -6.46299 -4.78072 0
M  V30 23292 H 2275.76 -0.284821 -0.613068 0
M  V30 23293 H 2278.32 -1.40895 -1.49458 0
M  V30 23294 H 2276.55 -0.408809 -3.84533 0
M  V30 23295 H 2278.24 -0.806061 -3.97816 0
M  V30 23296 H 2279 -3.25923 -3.59164 0
M  V30 23297 H 2274.88 -2.13663 -4.08496 0
M  V30 23298 H 2278.42 -5.58757 -4.17655 0
M  V30 23299 H 2274.32 -4.45594 -4.67029 0
M  V30 23300 H 2275.09 -6.51158 -4.95919 0
M  V30 23301 N 2277.75 1.33613 -0.835776 0
M  V30 23302 C 2278.98 2.02626 -0.442425 0
M  V30 23303 C 2279.4 1.62481 0.947707 0
M  V30 23304 O 2278.76 0.815854 1.61906 0
M  V30 23305 C 2278.81 3.5611 -0.567279 0
M  V30 23306 O 2277.91 4.1038 0.407726 0
M  V30 23307 H 2277.25 0.639055 -0.180289 0
M  V30 23308 H 2279.78 1.70581 -1.12975 0
M  V30 23309 H 2279.79 4.05535 -0.44778 0
M  V30 23310 H 2278.47 3.84674 -1.58109 0
M  V30 23311 H 2277.05 3.72087 0.246042 0
M  V30 23312 N 2279.23 0.591922 1.46062 0
M  V30 23313 C 2280.46 0.0868039 2.06418 0
M  V30 23314 C 2280.87 -1.22748 1.43978 0
M  V30 23315 O 2280.21 -1.75505 0.542562 0
M  V30 23316 C 2280.27 -0.143662 3.59213 0
M  V30 23317 C 2279.94 1.08642 4.43898 0
M  V30 23318 C 2280.93 2.00075 4.7986 0
M  V30 23319 C 2278.62 1.31086 4.84894 0
M  V30 23320 C 2280.61 3.12292 5.55655 0
M  V30 23321 C 2278.3 2.43606 5.60446 0
M  V30 23322 C 2279.3 3.34038 5.95741 0
M  V30 23323 O 2278.99 4.44602 6.69765 0
M  V30 23324 H 2278.72 0.0587566 0.673442 0
M  V30 23325 H 2281.27 0.815027 1.88538 0
M  V30 23326 H 2279.5 -0.926602 3.75434 0
M  V30 23327 H 2281.19 -0.59843 4.01464 0
M  V30 23328 H 2281.96 1.83955 4.4876 0
M  V30 23329 H 2277.84 0.61602 4.56866 0
M  V30 23330 H 2281.38 3.82901 5.83123 0
M  V30 23331 H 2277.28 2.59685 5.9096 0
M  V30 23332 H 2278.05 4.43085 6.88199 0
M  V30 23333 N 2280.71 -1.54102 0.330204 0
M  V30 23334 C 2281.64 -2.20826 -0.575438 0
M  V30 23335 C 2282.62 -1.1876 -1.11062 0
M  V30 23336 O 2283.8 -1.47526 -1.17339 0
M  V30 23337 C 2280.93 -2.87519 -1.79027 0
M  V30 23338 C 2279.98 -4.0336 -1.38574 0
M  V30 23339 S 2280.81 -5.33875 -0.416817 0
M  V30 23340 C 2281.97 -6.04065 -1.63878 0
M  V30 23341 H 2282.2 -2.97299 -0.00866888 0
M  V30 23342 H 2279.73 -1.53976 0.114281 0
M  V30 23343 H 2281.69 -3.26565 -2.48728 0
M  V30 23344 H 2280.35 -2.10836 -2.32823 0
M  V30 23345 H 2279.54 -4.48912 -2.29115 0
M  V30 23346 H 2279.15 -3.66022 -0.768355 0
M  V30 23347 H 2281.44 -6.26648 -2.57525 0
M  V30 23348 H 2282.38 -6.97418 -1.2253 0
M  V30 23349 H 2282.79 -5.34056 -1.82877 0
M  V30 23350 N 2282.19 -0.0585199 -1.57491 0
M  V30 23351 C 2283.43 0.614524 -1.93265 0
M  V30 23352 C 2283.77 1.70059 -0.937746 0
M  V30 23353 O 2283.04 1.94468 0.0351311 0
M  V30 23354 C 2283.32 1.2038 -3.39383 0
M  V30 23355 C 2283.18 0.125296 -4.49625 0
M  V30 23356 C 2284.5 2.11327 -3.86043 0
M  V30 23357 H 2281.61 0.22192 -0.702795 0
M  V30 23358 H 2284.26 -0.121783 -1.89609 0
M  V30 23359 H 2282.41 1.83133 -3.42629 0
M  V30 23360 H 2284.08 -0.507051 -4.58505 0
M  V30 23361 H 2282.32 -0.545747 -4.30353 0
M  V30 23362 H 2282.99 0.577765 -5.48968 0
M  V30 23363 H 2285.47 1.58527 -3.84719 0
M  V30 23364 H 2284.34 2.49499 -4.88919 0
M  V30 23365 H 2284.61 3.0163 -3.23221 0
M  V30 23366 N 2283.66 1.56128 0.21493 0
M  V30 23367 C 2284.89 1.83538 0.95506 0
M  V30 23368 C 2285.31 0.638503 1.77675 0
M  V30 23369 O 2284.66 -0.392937 1.7822 0
M  V30 23370 C 2284.72 3.09539 1.86729 0
M  V30 23371 O 2284.44 4.2461 1.0788 0
M  V30 23372 C 2285.94 3.49985 2.72076 0
M  V30 23373 H 2283.16 0.609971 0.2796 0
M  V30 23374 H 2285.7 2.03223 0.228162 0
M  V30 23375 H 2283.86 2.9181 2.54805 0
M  V30 23376 H 2284.27 4.96233 1.69863 0
M  V30 23377 H 2285.74 4.41168 3.31775 0
M  V30 23378 H 2286.22 2.72046 3.44801 0
M  V30 23379 H 2286.83 3.70177 2.09402 0
M  V30 23380 N 2285.14 -0.481893 1.50052 0
M  V30 23381 C 2286.39 -1.23658 1.60738 0
M  V30 23382 C 2286.72 -1.9184 0.30182 0
M  V30 23383 O 2286 -1.81621 -0.695993 0
M  V30 23384 C 2286.28 -2.28869 2.78013 0
M  V30 23385 C 2286.13 -1.65062 4.18419 0
M  V30 23386 C 2287.45 -3.30274 2.90873 0
M  V30 23387 H 2284.57 -0.448218 0.585038 0
M  V30 23388 H 2287.21 -0.531914 1.82403 0
M  V30 23389 H 2285.36 -2.88969 2.59672 0
M  V30 23390 H 2287.03 -1.08642 4.48324 0
M  V30 23391 H 2285.28 -0.954074 4.23178 0
M  V30 23392 H 2285.95 -2.41465 4.96385 0
M  V30 23393 H 2288.42 -2.80186 3.07628 0
M  V30 23394 H 2287.3 -4.01231 3.74573 0
M  V30 23395 H 2287.56 -3.93751 2.01028 0
M  V30 23396 N 2286.62 -1.39448 -0.734313 0
M  V30 23397 C 2287.53 -1.40498 -1.87876 0
M  V30 23398 C 2288.55 -0.299702 -1.71399 0
M  V30 23399 O 2289.72 -0.541283 -1.9399 0
M  V30 23400 C 2286.79 -1.2476 -3.23475 0
M  V30 23401 C 2285.85 -2.45265 -3.5234 0
M  V30 23402 C 2285.08 -2.30268 -4.81469 0
M  V30 23403 O 2285.3 -1.30652 -5.55235 0
M  V30 23404 O 2284.24 -3.19265 -5.10249 0
M  V30 23405 H 2288.06 -2.3697 -1.89945 0
M  V30 23406 H 2285.65 -1.2057 -0.882222 0
M  V30 23407 H 2287.53 -1.18118 -4.04507 0
M  V30 23408 H 2286.21 -0.313838 -3.22175 0
M  V30 23409 H 2285.11 -2.57483 -2.71392 0
M  V30 23410 H 2286.45 -3.37337 -3.5842 0
M  V30 23411 N 2288.1 0.964571 -1.24635 0
M  V30 23412 C 2289.33 1.7403 -1.11342 0
M  V30 23413 C 2289.74 1.86182 0.336561 0
M  V30 23414 O 2289.08 1.3518 1.24386 0
M  V30 23415 C 2289.14 3.17678 -1.68289 0
M  V30 23416 C 2288.81 3.28987 -3.17201 0
M  V30 23417 C 2289.8 3.14071 -4.14313 0
M  V30 23418 C 2287.49 3.53127 -3.57221 0
M  V30 23419 C 2289.48 3.23125 -5.49426 0
M  V30 23420 C 2287.17 3.61819 -4.92474 0
M  V30 23421 C 2288.17 3.4683 -5.88386 0
M  V30 23422 O 2287.85 3.55185 -7.21179 0
M  V30 23423 H 2287.59 0.552465 -0.389561 0
M  V30 23424 H 2290.14 1.21944 -1.65284 0
M  V30 23425 H 2288.37 3.71084 -1.08784 0
M  V30 23426 H 2290.06 3.77071 -1.50241 0
M  V30 23427 H 2290.83 2.95302 -3.84736 0
M  V30 23428 H 2286.7 3.63858 -2.8307 0
M  V30 23429 H 2290.25 3.11344 -6.24268 0
M  V30 23430 H 2286.15 3.80102 -5.21721 0
M  V30 23431 H 2286.91 3.7188 -7.29142 0
M  V30 23432 N 2289.58 1.0606 1.16572 0
M  V30 23433 C 2290.99 0.800661 1.6866 0
M  V30 23434 C 2291.34 -0.676048 1.84185 0
M  V30 23435 O 2290.46 -1.52464 1.5357 0
M  V30 23436 C 2291.06 1.44682 3.06354 0
M  V30 23437 C 2289.62 1.23471 3.55573 0
M  V30 23438 C 2288.76 1.52481 2.31613 0
M  V30 23439 H 2291.72 1.22439 1.00967 0
M  V30 23440 H 2291.74 0.860853 3.70634 0
M  V30 23441 H 2291.25 2.52157 2.95023 0
M  V30 23442 H 2289.35 0.179592 3.72167 0
M  V30 23443 H 2289.46 1.94578 4.37808 0
M  V30 23444 H 2287.83 0.945251 2.3651 0
M  V30 23445 H 2288.61 2.6111 2.22882 0
M  V30 23446 N 2291.06 -1.33168 0.84285 0
M  V30 23447 C 2292.3 -1.97651 0.440482 0
M  V30 23448 C 2292.63 -1.66752 -1.0012 0
M  V30 23449 O 2291.89 -0.941791 -1.71548 0
M  V30 23450 C 2292.18 -3.5211 0.612669 0
M  V30 23451 C 2291.85 -4.02969 2.02305 0
M  V30 23452 C 2290.51 -4.16569 2.40882 0
M  V30 23453 C 2292.86 -4.30084 2.9441 0
M  V30 23454 C 2290.19 -4.54621 3.7086 0
M  V30 23455 C 2292.54 -4.6959 4.23873 0
M  V30 23456 C 2291.21 -4.81396 4.62401 0
M  V30 23457 H 2290.48 -0.723257 0.161184 0
M  V30 23458 H 2293.13 -1.58775 1.07064 0
M  V30 23459 H 2291.43 -3.9167 -0.10078 0
M  V30 23460 H 2293.13 -4.0001 0.28157 0
M  V30 23461 H 2289.72 -3.9286 1.71345 0
M  V30 23462 H 2293.9 -4.19096 2.65842 0
M  V30 23463 H 2289.16 -4.61955 4.0051 0
M  V30 23464 H 2293.33 -4.89527 4.95314 0
M  V30 23465 H 2290.96 -5.10638 5.63163 0
M  V30 23466 N 2292.53 -0.599659 -1.45746 0
M  V30 23467 C 2293.76 -0.0960563 -2.07177 0
M  V30 23468 C 2294.18 1.20697 -1.4427 0
M  V30 23469 O 2293.54 1.73303 -0.532534 0
M  V30 23470 C 2293.59 0.0384714 -3.60579 0
M  V30 23471 O 2292.69 1.09073 -3.97714 0
M  V30 23472 H 2292.03 -0.0704709 -0.66025 0
M  V30 23473 H 2294.56 -0.827418 -1.87123 0
M  V30 23474 H 2294.57 0.239232 -4.07298 0
M  V30 23475 H 2293.25 -0.913019 -4.05755 0
M  V30 23476 H 2291.83 0.867071 -3.62679 0
M  V30 23477 N 2294.01 1.53925 -0.338371 0
M  V30 23478 C 2294.92 2.28549 0.52938 0
M  V30 23479 C 2295.94 1.33461 1.11642 0
M  V30 23480 O 2297.11 1.66494 1.13322 0
M  V30 23481 C 2294.18 3.03989 1.66707 0
M  V30 23482 C 2293.24 4.14693 1.11034 0
M  V30 23483 C 2292.47 4.86526 2.19381 0
M  V30 23484 O 2292.7 4.57988 3.40005 0
M  V30 23485 O 2291.63 5.73097 1.83966 0
M  V30 23486 H 2295.46 3.03602 -0.0770932 0
M  V30 23487 H 2293.04 1.4904 -0.103582 0
M  V30 23488 H 2294.92 3.51184 2.32912 0
M  V30 23489 H 2293.6 2.31798 2.25945 0
M  V30 23490 H 2292.5 3.71814 0.412958 0
M  V30 23491 H 2293.84 4.88971 0.562889 0
M  V30 23492 N 2295.49 0.0668712 1.57458 0
M  V30 23493 C 2296.45 -0.887385 2.11325 0
M  V30 23494 C 2297.45 -1.22962 1.0362 0
M  V30 23495 O 2298.64 -1.16371 1.29628 0
M  V30 23496 C 2295.77 -2.19237 2.61051 0
M  V30 23497 H 2296.97 -0.420142 2.96942 0
M  V30 23498 H 2294.52 -0.181765 1.5524 0
M  V30 23499 H 2295.26 -2.70509 1.78873 0
M  V30 23500 H 2295.04 -1.95696 3.39773 0
M  V30 23501 H 2296.53 -2.87559 3.02819 0
M  V30 23502 N 2296.97 -1.56239 -0.206647 0
M  V30 23503 C 2297.9 -1.90132 -1.27994 0
M  V30 23504 C 2298.91 -0.790908 -1.42297 0
M  V30 23505 O 2300.1 -1.06928 -1.42929 0
M  V30 23506 C 2297.2 -2.10796 -2.65364 0
M  V30 23507 C 2296.37 -3.41891 -2.72818 0
M  V30 23508 C 2295.43 -3.51806 -3.91304 0
M  V30 23509 O 2294.46 -4.24722 -3.78946 0
M  V30 23510 N 2295.66 -2.84043 -5.0626 0
M  V30 23511 H 2298.43 -2.82793 -0.992394 0
M  V30 23512 H 2295.99 -1.56967 -0.396624 0
M  V30 23513 H 2297.98 -2.1473 -3.43035 0
M  V30 23514 H 2296.55 -1.2469 -2.86655 0
M  V30 23515 H 2295.77 -3.49926 -1.81509 0
M  V30 23516 H 2297.06 -4.28222 -2.74779 0
M  V30 23517 H 2296.46 -2.24609 -5.19199 0
M  V30 23518 H 2295.01 -2.93619 -5.8192 0
M  V30 23519 N 2298.45 0.473929 -1.50305 0
M  V30 23520 C 2299.67 1.25424 -1.65178 0
M  V30 23521 C 2300.1 1.85116 -0.333706 0
M  V30 23522 O 2299.45 1.67154 0.702085 0
M  V30 23523 C 2299.5 2.34077 -2.74299 0
M  V30 23524 O 2298.61 3.38647 -2.35355 0
M  V30 23525 H 2297.95 0.369117 -0.55195 0
M  V30 23526 H 2300.48 0.56433 -1.96663 0
M  V30 23527 H 2300.49 2.79432 -2.9729 0
M  V30 23528 H 2299.16 1.90001 -3.69963 0
M  V30 23529 H 2297.74 2.99023 -2.228 0
M  V30 23530 N 2299.92 1.39835 0.726907 0
M  V30 23531 C 2300.87 1.392 1.84097 0
M  V30 23532 C 2301.84 0.250531 1.642 0
M  V30 23533 O 2303.03 0.446879 1.85493 0
M  V30 23534 C 2300.17 1.24925 3.21695 0
M  V30 23535 C 2299.28 2.48684 3.53242 0
M  V30 23536 C 2298.41 2.26936 4.80285 0
M  V30 23537 C 2297.45 3.46329 5.047 0
M  V30 23538 N 2296.59 3.23847 6.22951 0
M  V30 23539 H 2301.43 2.3443 1.83974 0
M  V30 23540 H 2298.97 1.16443 0.898856 0
M  V30 23541 H 2300.92 1.14658 4.01135 0
M  V30 23542 H 2299.55 0.33321 3.21076 0
M  V30 23543 H 2298.61 2.69524 2.68442 0
M  V30 23544 H 2299.92 3.37589 3.67199 0
M  V30 23545 H 2299.07 2.13957 5.67721 0
M  V30 23546 H 2297.81 1.35439 4.68516 0
M  V30 23547 H 2296.82 3.59798 4.15723 0
M  V30 23548 H 2298.04 4.38738 5.18349 0
M  V30 23549 H 2295.99 2.35022 6.12455 0
M  V30 23550 H 2295.9 4.06311 6.37532 0
M  V30 23551 H 2297.17 3.14578 7.13205 0
M  V30 23552 N 2301.4 -0.957948 1.25144 0
M  V30 23553 C 2302.65 -1.69879 1.09479 0
M  V30 23554 C 2302.97 -1.91545 -0.365468 0
M  V30 23555 O 2302.24 -1.50017 -1.25983 0
M  V30 23556 H 2300.82 -0.629518 0.40214 0
M  V30 23557 H 2303.48 -1.15191 1.57216 0
M  V30 23558 H 2302.58 -2.67937 1.60051 0
M  V30 23559 N 2302.88 -1.06677 -1.16008 0
M  V30 23560 C 2304.16 -0.699146 -1.82678 0
M  V30 23561 C 2304.54 0.819102 -1.94561 0
M  V30 23562 O 2303.88 1.73089 -1.49172 0
M  V30 23563 C 2304.09 -1.40561 -3.19443 0
M  V30 23564 C 2305.44 -1.5533 -3.95168 0
M  V30 23565 O 2306.47 -1.36582 -3.28974 0
M  V30 23566 O 2305.33 -1.86121 -5.1383 0
M  V30 23567 H 2302.42 -0.247965 -0.78895 0
M  V30 23568 H 2304.97 -1.16728 -1.23177 0
M  V30 23569 H 2303.74 -2.4407 -3.05852 0
M  V30 23570 H 2303.36 -0.927801 -3.86623 0
M  V30 23571 N 2304.36 1.32719 -0.8499 0
M  V30 23572 C 2305.61 1.9668 -0.447209 0
M  V30 23573 C 2305.92 1.68027 1.00132 0
M  V30 23574 O 2307.13 2.25688 1.50922 0
M  V30 23575 C 2305.58 3.52025 -0.748762 0
M  V30 23576 C 2305.19 3.89542 -2.21271 0
M  V30 23577 C 2306.93 4.22481 -0.413562 0
M  V30 23578 C 2304.84 5.37912 -2.45773 0
M  V30 23579 H 2303.77 0.73606 -0.163499 0
M  V30 23580 H 2306.42 1.51181 -1.04002 0
M  V30 23581 H 2304.8 3.95908 -0.0854423 0
M  V30 23582 H 2305.98 3.56684 -2.91742 0
M  V30 23583 H 2304.29 3.32099 -2.51196 0
M  V30 23584 H 2306.89 5.31609 -0.574111 0
M  V30 23585 H 2307.23 4.11282 0.64442 0
M  V30 23586 H 2307.77 3.84165 -1.03257 0
M  V30 23587 H 2304.5 5.54126 -3.50177 0
M  V30 23588 H 2304.02 5.72193 -1.79874 0
M  V30 23589 H 2305.7 6.04936 -2.29482 0
M  V30 23590 N 2305.84 0.60738 1.45426 0
M  V30 23591 C 2306.77 -0.0988942 2.3329 0
M  V30 23592 C 2307.75 -0.858981 1.46818 0
M  V30 23593 O 2308.93 -0.829573 1.7559 0
M  V30 23594 C 2306.06 -1.09699 3.2952 0
M  V30 23595 C 2305.02 -0.450131 4.25626 0
M  V30 23596 C 2304.34 -1.55646 5.11545 0
M  V30 23597 C 2305.64 0.628546 5.18504 0
M  V30 23598 H 2307.34 0.634767 2.92594 0
M  V30 23599 H 2304.88 0.306706 1.40696 0
M  V30 23600 H 2306.84 -1.59964 3.89858 0
M  V30 23601 H 2305.56 -1.86124 2.68375 0
M  V30 23602 H 2304.22 0.0316531 3.66586 0
M  V30 23603 H 2303.87 -2.31099 4.46769 0
M  V30 23604 H 2303.57 -1.12915 5.76649 0
M  V30 23605 H 2305.09 -2.06138 5.74752 0
M  V30 23606 H 2306.5 0.209978 5.72915 0
M  V30 23607 H 2304.9 0.977593 5.92084 0
M  V30 23608 H 2305.97 1.50522 4.60946 0
M  V30 23609 N 2307.31 -1.53743 0.34653 0
M  V30 23610 C 2308.25 -2.22668 -0.543277 0
M  V30 23611 C 2309.26 -1.23428 -1.06157 0
M  V30 23612 O 2310.45 -1.49766 -0.971208 0
M  V30 23613 C 2307.55 -2.89572 -1.76071 0
M  V30 23614 C 2306.72 -4.15153 -1.3772 0
M  V30 23615 C 2305.78 -4.6544 -2.45463 0
M  V30 23616 O 2304.81 -5.2958 -2.08646 0
M  V30 23617 N 2306.01 -4.41623 -3.76762 0
M  V30 23618 H 2308.77 -2.99663 0.047023 0
M  V30 23619 H 2306.33 -1.60997 0.170795 0
M  V30 23620 H 2308.33 -3.20129 -2.47588 0
M  V30 23621 H 2306.9 -2.16146 -2.25831 0
M  V30 23622 H 2306.12 -3.91109 -0.492678 0
M  V30 23623 H 2307.4 -4.96834 -1.09699 0
M  V30 23624 H 2306.8 -3.90332 -4.0946 0
M  V30 23625 H 2305.36 -4.76777 -4.4444 0
M  V30 23626 N 2308.79 -0.0752207 -1.5742 0
M  V30 23627 C 2310.21 0.281417 -1.57099 0
M  V30 23628 C 2310.41 1.69801 -1.08489 0
M  V30 23629 O 2309.46 2.41032 -0.752321 0
M  V30 23630 C 2310.78 0.0879513 -3.00571 0
M  V30 23631 C 2312.33 0.157226 -3.12605 0
M  V30 23632 C 2312.8 -0.00800121 -4.57999 0
M  V30 23633 N 2314.29 0.0474911 -4.63176 0
M  V30 23634 C 2315.03 -0.0558884 -5.73373 0
M  V30 23635 N 2314.52 -0.212982 -6.92473 0
M  V30 23636 N 2316.32 0.00142217 -5.621 0
M  V30 23637 H 2308.47 -1.00101 -1.87333 0
M  V30 23638 H 2310.73 -0.390662 -0.863764 0
M  V30 23639 H 2310.44 -0.889689 -3.40261 0
M  V30 23640 H 2310.31 0.83881 -3.67755 0
M  V30 23641 H 2312.7 1.12536 -2.728 0
M  V30 23642 H 2312.78 -0.624793 -2.48052 0
M  V30 23643 H 2312.42 -0.972912 -4.98495 0
M  V30 23644 H 2312.35 0.793465 -5.20588 0
M  V30 23645 H 2314.84 0.167178 -3.7753 0
M  V30 23646 H 2315.16 -0.283917 -7.72278 0
M  V30 23647 H 2313.5 -0.248389 -6.94556 0
M  V30 23648 H 2316.69 0.122876 -4.67939 0
M  V30 23649 H 2316.86 -0.0825983 -6.47947 0
M  V30 23650 N 2310.27 1.56347 0.198358 0
M  V30 23651 C 2311.52 1.807 0.920616 0
M  V30 23652 C 2311.85 0.64873 1.83044 0
M  V30 23653 O 2311.12 -0.350892 1.91309 0
M  V30 23654 C 2311.41 3.1529 1.73966 0
M  V30 23655 C 2311.26 4.41604 0.854773 0
M  V30 23656 C 2312.58 3.4654 2.71289 0
M  V30 23657 H 2309.7 0.657354 0.333249 0
M  V30 23658 H 2312.34 1.89066 0.188165 0
M  V30 23659 H 2310.49 3.08289 2.36411 0
M  V30 23660 H 2312.16 4.60647 0.245281 0
M  V30 23661 H 2310.41 4.335 0.161322 0
M  V30 23662 H 2311.08 5.32266 1.46276 0
M  V30 23663 H 2313.55 3.5382 2.18977 0
M  V30 23664 H 2312.43 4.4184 3.25682 0
M  V30 23665 H 2312.69 2.6987 3.50175 0
M  V30 23666 N 2311.75 -0.465951 1.50554 0
M  V30 23667 C 2313.16 -0.80013 1.38094 0
M  V30 23668 C 2313.36 -1.96614 0.441023 0
M  V30 23669 O 2312.42 -2.5224 -0.114454 0
M  V30 23670 C 2313.73 -1.10737 2.79567 0
M  V30 23671 C 2315.28 -1.21352 2.88518 0
M  V30 23672 C 2315.76 -1.55385 4.30836 0
M  V30 23673 N 2317.25 -1.62367 4.3381 0
M  V30 23674 C 2317.98 -1.90216 5.4093 0
M  V30 23675 N 2317.48 -2.1605 6.58251 0
M  V30 23676 N 2319.27 -1.91761 5.28379 0
M  V30 23677 H 2311.42 0.302403 2.10236 0
M  V30 23678 H 2313.69 0.0727912 0.945201 0
M  V30 23679 H 2313.39 -0.323599 3.50208 0
M  V30 23680 H 2313.27 -2.04228 3.17129 0
M  V30 23681 H 2315.65 -1.98795 2.18093 0
M  V30 23682 H 2315.73 -0.258276 2.54493 0
M  V30 23683 H 2315.38 -0.784801 5.018 0
M  V30 23684 H 2315.31 -2.52068 4.62352 0
M  V30 23685 H 2317.8 -1.44421 3.49215 0
M  V30 23686 H 2318.11 -2.36588 7.35694 0
M  V30 23687 H 2316.46 -2.13432 6.61417 0
M  V30 23688 H 2319.65 -1.71078 4.35718 0
M  V30 23689 H 2319.82 -2.13128 6.11948 0
M  V30 23690 N 2313.23 -1.40218 -0.719481 0
M  V30 23691 C 2314.14 -1.42483 -1.86375 0
M  V30 23692 C 2315.15 -0.317864 -1.71072 0
M  V30 23693 O 2316.33 -0.561828 -1.93405 0
M  V30 23694 C 2313.39 -1.28183 -3.22133 0
M  V30 23695 C 2312.45 -2.48988 -3.49719 0
M  V30 23696 C 2311.69 -2.35362 -4.79 0
M  V30 23697 O 2311.91 -1.36534 -5.53818 0
M  V30 23698 O 2310.84 -3.24659 -5.06834 0
M  V30 23699 H 2314.67 -2.38971 -1.87421 0
M  V30 23700 H 2312.26 -1.21499 -0.869384 0
M  V30 23701 H 2314.14 -1.22402 -4.03232 0
M  V30 23702 H 2312.81 -0.347991 -3.21824 0
M  V30 23703 H 2311.72 -2.60347 -2.68645 0
M  V30 23704 H 2313.05 -3.4112 -3.54822 0
M  V30 23705 N 2314.7 0.951297 -1.25651 0
M  V30 23706 C 2315.95 1.69071 -1.09991 0
M  V30 23707 C 2316.27 1.9229 0.358322 0
M  V30 23708 O 2317.47 2.6396 0.63542 0
M  V30 23709 C 2315.93 3.04397 -1.92017 0
M  V30 23710 C 2315.54 2.88962 -3.42353 0
M  V30 23711 C 2317.28 3.82098 -1.84937 0
M  V30 23712 C 2315.19 4.19698 -4.16662 0
M  V30 23713 H 2314.12 0.634073 -0.408005 0
M  V30 23714 H 2316.77 1.05876 -1.49875 0
M  V30 23715 H 2315.15 3.68515 -1.44959 0
M  V30 23716 H 2316.32 2.33755 -3.97108 0
M  V30 23717 H 2314.64 2.24712 -3.50561 0
M  V30 23718 H 2317.24 4.78937 -2.37747 0
M  V30 23719 H 2317.58 4.08185 -0.817954 0
M  V30 23720 H 2318.11 3.24736 -2.29764 0
M  V30 23721 H 2314.85 3.98798 -5.20231 0
M  V30 23722 H 2314.37 4.74657 -3.66689 0
M  V30 23723 H 2316.05 4.88219 -4.2456 0
M  V30 23724 N 2316.18 1.07291 1.1544 0
M  V30 23725 C 2317.6 0.798313 1.382 0
M  V30 23726 C 2317.8 -0.597735 1.9243 0
M  V30 23727 O 2316.85 -1.35656 2.12964 0
M  V30 23728 C 2318.17 1.8716 2.35354 0
M  V30 23729 C 2319.72 1.89629 2.49018 0
M  V30 23730 C 2320.19 2.9604 3.49463 0
M  V30 23731 N 2321.68 2.95139 3.56998 0
M  V30 23732 C 2322.42 3.7412 4.34536 0
M  V30 23733 N 2321.91 4.62949 5.15413 0
M  V30 23734 N 2323.71 3.62469 4.29619 0
M  V30 23735 H 2315.86 1.97329 0.785806 0
M  V30 23736 H 2318.12 0.855687 0.40805 0
M  V30 23737 H 2317.83 2.87468 2.02621 0
M  V30 23738 H 2317.7 1.7312 3.35126 0
M  V30 23739 H 2320.09 0.899736 2.81049 0
M  V30 23740 H 2320.17 2.07748 1.49247 0
M  V30 23741 H 2319.81 3.95895 3.18166 0
M  V30 23742 H 2319.74 2.75169 4.48988 0
M  V30 23743 H 2322.23 2.30748 2.99272 0
M  V30 23744 H 2322.55 5.19847 5.71821 0
M  V30 23745 H 2320.89 4.66998 5.14721 0
M  V30 23746 H 2324.08 2.9245 3.655 0
M  V30 23747 H 2324.25 4.24265 4.89799 0
M  V30 23748 N 2317.66 -1.32267 0.856927 0
M  V30 23749 C 2318.89 -2.01071 0.474785 0
M  V30 23750 C 2319.3 -1.64555 -0.933717 0
M  V30 23751 O 2318.64 -0.864017 -1.62112 0
M  V30 23752 C 2318.7 -3.5547 0.536808 0
M  V30 23753 C 2318.37 -4.1542 1.90461 0
M  V30 23754 C 2319.36 -4.33481 2.87037 0
M  V30 23755 C 2317.05 -4.51443 2.20237 0
M  V30 23756 C 2319.04 -4.86737 4.11541 0
M  V30 23757 C 2316.73 -5.04404 3.44993 0
M  V30 23758 C 2317.73 -5.21999 4.40461 0
M  V30 23759 O 2317.42 -5.73827 5.63008 0
M  V30 23760 H 2317.15 -0.650253 0.184789 0
M  V30 23761 H 2319.7 -1.69769 1.15618 0
M  V30 23762 H 2317.93 -3.86175 -0.201452 0
M  V30 23763 H 2319.62 -4.05544 0.169946 0
M  V30 23764 H 2320.39 -4.05981 2.65338 0
M  V30 23765 H 2316.27 -4.37031 1.46713 0
M  V30 23766 H 2319.81 -5.00386 4.86065 0
M  V30 23767 H 2315.71 -5.31335 3.66542 0
M  V30 23768 H 2316.48 -5.92216 5.64997 0
M  V30 23769 N 2319.14 -0.615084 -1.45102 0
M  V30 23770 C 2320.07 0.13758 -2.28787 0
M  V30 23771 C 2321.08 0.8245 -1.40377 0
M  V30 23772 O 2322.27 0.688633 -1.64682 0
M  V30 23773 C 2319.37 1.21623 -3.16324 0
M  V30 23774 C 2318.55 0.614963 -4.33055 0
M  V30 23775 C 2317.6 1.58547 -5.01746 0
M  V30 23776 O 2316.63 1.10885 -5.58295 0
M  V30 23777 N 2317.83 2.9199 -5.01719 0
M  V30 23778 H 2320.6 -0.580535 -2.94024 0
M  V30 23779 H 2318.16 -0.455097 -1.55372 0
M  V30 23780 H 2320.15 1.86545 -3.59142 0
M  V30 23781 H 2318.72 1.83677 -2.52946 0
M  V30 23782 H 2317.94 -0.212519 -3.93627 0
M  V30 23783 H 2319.23 0.193615 -5.08431 0
M  V30 23784 H 2318.63 3.33308 -4.5708 0
M  V30 23785 H 2317.18 3.52315 -5.48377 0
M  V30 23786 N 2320.62 1.53557 -0.354678 0
M  V30 23787 C 2321.87 2.00694 0.237937 0
M  V30 23788 C 2322.19 1.24394 1.50171 0
M  V30 23789 O 2321.46 0.354169 1.92672 0
M  V30 23790 H 2320.04 0.741447 0.0909126 0
M  V30 23791 H 2322.7 1.88937 -0.478401 0
M  V30 23792 H 2321.79 3.08501 0.472586 0
M  V30 23793 N 2322.1 0.083568 1.57378 0
M  V30 23794 C 2323.34 -0.581684 1.93548 0
M  V30 23795 C 2323.66 -1.69433 0.96527 0
M  V30 23796 O 2322.93 -1.95894 0.0153713 0
M  V30 23797 H 2321.51 -0.217861 0.714525 0
M  V30 23798 H 2324.18 0.144192 1.94366 0
M  V30 23799 H 2323.27 -0.999371 2.95667 0
M  V30 23800 N 2323.57 -1.5645 -0.190064 0
M  V30 23801 C 2324.52 -1.9584 -1.25498 0
M  V30 23802 C 2325.52 -0.844511 -1.46848 0
M  V30 23803 O 2326.72 -1.02954 -1.4765 0
M  V30 23804 H 2323.1 -0.622813 -0.421436 0
M  V30 23805 H 2325.07 -2.84637 -0.895771 0
M  V30 23806 C 2323.82 -2.31845 -2.5912 0
M  V30 23807 H 2323.14 -3.17087 -2.43508 0
M  V30 23808 H 2324.58 -2.63266 -3.32366 0
M  V30 23809 C 2323.04 -1.15492 -3.16486 0
M  V30 23810 O 2323.57 -0.432605 -3.99364 0
M  V30 23811 N 2321.77 -0.930397 -2.75303 0
M  V30 23812 H 2321.32 -1.51952 -2.08011 0
M  V30 23813 H 2321.28 -0.153689 -3.14024 0
M  V30 23814 N 2325.05 0.45796 -1.50799 0
M  V30 23815 C 2326.47 0.792795 -1.38517 0
M  V30 23816 C 2326.67 1.96378 -0.451443 0
M  V30 23817 O 2325.72 2.52298 0.101076 0
M  V30 23818 C 2327.04 1.09253 -2.80151 0
M  V30 23819 C 2328.58 1.1982 -2.89158 0
M  V30 23820 C 2329.06 1.53098 -4.31654 0
M  V30 23821 N 2330.55 1.60064 -4.34665 0
M  V30 23822 C 2331.29 1.87345 -5.41931 0
M  V30 23823 N 2330.78 2.12556 -6.59387 0
M  V30 23824 N 2332.57 1.88956 -5.29388 0
M  V30 23825 H 2324.73 -0.313548 -2.10073 0
M  V30 23826 H 2326.99 -0.0778028 -0.944802 0
M  V30 23827 H 2326.69 0.305022 -3.50375 0
M  V30 23828 H 2326.57 2.02544 -3.18207 0
M  V30 23829 H 2328.96 1.97636 -2.19144 0
M  V30 23830 H 2329.04 0.244776 -2.54626 0
M  V30 23831 H 2328.68 0.758178 -5.02209 0
M  V30 23832 H 2328.61 2.49613 -4.63682 0
M  V30 23833 H 2331.1 1.42567 -3.49976 0
M  V30 23834 H 2331.41 2.32684 -7.36938 0
M  V30 23835 H 2329.76 2.09921 -6.62539 0
M  V30 23836 H 2332.95 1.68765 -4.36619 0
M  V30 23837 H 2333.12 2.0988 -6.1307 0
M  V30 23838 N 2326.53 1.40598 0.712035 0
M  V30 23839 C 2327.76 1.4239 1.50109 0
M  V30 23840 C 2328.17 0.0245727 1.88784 0
M  V30 23841 O 2327.53 -0.952324 1.55683 0
M  V30 23842 C 2327.58 2.31781 2.77416 0
M  V30 23843 O 2327.3 3.66267 2.40375 0
M  V30 23844 C 2328.8 2.42203 3.71285 0
M  V30 23845 H 2326.02 0.485541 0.463132 0
M  V30 23846 H 2328.57 1.84691 0.878035 0
M  V30 23847 H 2326.72 1.92833 3.35997 0
M  V30 23848 H 2327.14 4.13778 3.22317 0
M  V30 23849 H 2328.61 3.08951 4.57442 0
M  V30 23850 H 2329.09 1.44817 4.14638 0
M  V30 23851 H 2329.69 2.81718 3.18614 0
M  V30 23852 N 2328.01 -0.94462 1.26153 0
M  V30 23853 C 2328.96 -2.06415 1.07218 0
M  V30 23854 C 2329.95 -1.694 0.000121783 0
M  V30 23855 O 2331.16 -1.79318 0.156531 0
M  V30 23856 H 2327.53 -0.675799 0.329849 0
M  V30 23857 H 2329.5 -2.19538 2.02103 0
M  V30 23858 C 2328.25 -3.402 0.718257 0
M  V30 23859 H 2327.57 -3.69157 1.53504 0
M  V30 23860 H 2329.01 -4.1936 0.625533 0
M  V30 23861 C 2327.47 -3.31933 -0.576376 0
M  V30 23862 O 2328 -3.67776 -1.61567 0
M  V30 23863 N 2326.21 -2.8504 -0.565731 0
M  V30 23864 H 2325.76 -2.56069 0.280412 0
M  V30 23865 H 2325.71 -2.79891 -1.43208 0
M  V30 23866 N 2329.49 -1.07901 -1.1487 0
M  V30 23867 C 2330.71 -0.826863 -1.89659 0
M  V30 23868 C 2331.13 0.620488 -1.78313 0
M  V30 23869 O 2330.49 1.42602 -1.1389 0
M  V30 23870 C 2330.54 -1.23322 -3.39815 0
M  V30 23871 O 2330.26 -2.62379 -3.50841 0
M  V30 23872 C 2331.76 -1.01118 -4.31613 0
M  V30 23873 H 2328.98 -0.298567 -0.600915 0
M  V30 23874 H 2331.52 -1.43694 -1.45507 0
M  V30 23875 H 2329.68 -0.667353 -3.81609 0
M  V30 23876 H 2330.09 -2.79108 -4.44071 0
M  V30 23877 H 2331.57 -1.34495 -5.35364 0
M  V30 23878 H 2332.04 0.0521396 -4.39169 0
M  V30 23879 H 2332.65 -1.56222 -3.95569 0
M  V30 23880 N 2330.96 1.31811 -0.863929 0
M  V30 23881 C 2332.21 1.96536 -0.470938 0
M  V30 23882 C 2332.53 1.68658 0.978741 0
M  V30 23883 O 2331.8 0.998746 1.68529 0
M  V30 23884 H 2330.38 0.727127 -0.171161 0
M  V30 23885 H 2333.04 1.60727 -1.10239 0
M  V30 23886 H 2332.14 3.05805 -0.62367 0
M  V30 23887 N 2332.44 0.62277 1.44773 0
M  V30 23888 C 2333.37 -0.0741451 2.33382 0
M  V30 23889 C 2334.35 -0.843361 1.47721 0
M  V30 23890 O 2335.54 -0.810903 1.7646 0
M  V30 23891 C 2332.67 -1.06198 3.30665 0
M  V30 23892 C 2331.62 -0.404962 4.2608 0
M  V30 23893 C 2330.95 -1.50211 5.13167 0
M  V30 23894 C 2332.25 0.683505 5.17808 0
M  V30 23895 H 2333.94 0.665765 2.91904 0
M  V30 23896 H 2331.49 0.321611 1.40363 0
M  V30 23897 H 2333.44 -1.5582 3.91533 0
M  V30 23898 H 2332.16 -1.83267 2.70334 0
M  V30 23899 H 2330.82 0.0705327 3.66532 0
M  V30 23900 H 2330.47 -2.26347 4.49195 0
M  V30 23901 H 2330.17 -1.06792 5.77814 0
M  V30 23902 H 2331.7 -2.00031 5.76906 0
M  V30 23903 H 2333.11 0.270731 5.7266 0
M  V30 23904 H 2331.51 1.04034 5.91014 0
M  V30 23905 H 2332.58 1.55403 4.59323 0
M  V30 23906 N 2333.92 -1.53367 0.362817 0
M  V30 23907 C 2334.88 -2.24274 -0.472639 0
M  V30 23908 C 2335.88 -1.24963 -1.01198 0
M  V30 23909 O 2337.07 -1.4926 -0.898168 0
M  V30 23910 C 2334.2 -2.97734 -1.66034 0
M  V30 23911 H 2335.4 -2.99536 0.147782 0
M  V30 23912 H 2332.95 -1.5588 0.114461 0
M  V30 23913 H 2333.69 -2.26708 -2.31892 0
M  V30 23914 H 2333.47 -3.70598 -1.28059 0
M  V30 23915 H 2334.96 -3.51645 -2.25246 0
M  V30 23916 N 2335.4 -0.091913 -1.57332 0
M  V30 23917 C 2336.33 0.865333 -2.16874 0
M  V30 23918 C 2337.31 1.29644 -1.1012 0
M  V30 23919 O 2338.49 1.3639 -1.38244 0
M  V30 23920 C 2335.62 2.12564 -2.74652 0
M  V30 23921 C 2334.58 1.83326 -3.8675 0
M  V30 23922 C 2333.9 3.16158 -4.31217 0
M  V30 23923 C 2335.2 1.12271 -5.10091 0
M  V30 23924 H 2336.9 0.369255 -2.97114 0
M  V30 23925 H 2334.44 0.176168 -1.42918 0
M  V30 23926 H 2336.4 2.79964 -3.14957 0
M  V30 23927 H 2335.12 2.64449 -1.91662 0
M  V30 23928 H 2333.78 1.18325 -3.4698 0
M  V30 23929 H 2333.43 3.65924 -3.45121 0
M  V30 23930 H 2333.13 2.97379 -5.06793 0
M  V30 23931 H 2334.65 3.84722 -4.74153 0
M  V30 23932 H 2336.07 1.69776 -5.47585 0
M  V30 23933 H 2334.46 1.03682 -5.91075 0
M  V30 23934 H 2335.53 0.104956 -4.84786 0
M  V30 23935 N 2336.88 1.56548 0.181765 0
M  V30 23936 C 2338.29 1.50432 0.533133 0
M  V30 23937 C 2338.49 0.79433 1.85183 0
M  V30 23938 O 2337.55 0.350361 2.50057 0
M  V30 23939 C 2338.86 2.95141 0.575545 0
M  V30 23940 C 2340.41 3.05887 0.663466 0
M  V30 23941 C 2340.88 4.52033 0.736866 0
M  V30 23942 N 2342.38 4.56239 0.800037 0
M  V30 23943 C 2343.11 5.6665 0.877227 0
M  V30 23944 N 2342.61 6.86719 0.915895 0
M  V30 23945 N 2344.4 5.54595 0.915444 0
M  V30 23946 H 2336.55 2.01117 -0.68306 0
M  V30 23947 H 2338.81 0.915793 -0.245004 0
M  V30 23948 H 2338.52 3.50199 -0.324543 0
M  V30 23949 H 2338.39 3.4922 1.42566 0
M  V30 23950 H 2340.78 2.50869 1.55398 0
M  V30 23951 H 2340.86 2.54911 -0.213115 0
M  V30 23952 H 2340.51 5.0768 -0.149351 0
M  V30 23953 H 2340.44 5.00756 1.62944 0
M  V30 23954 H 2342.93 3.69787 0.778861 0
M  V30 23955 H 2343.24 7.66616 0.975678 0
M  V30 23956 H 2341.58 6.89351 0.884348 0
M  V30 23957 H 2344.78 4.59712 0.882164 0
M  V30 23958 H 2344.95 6.40666 0.97214 0
M  V30 23959 N 2338.35 -0.449957 1.5104 0
M  V30 23960 C 2339.58 -1.2214 1.6663 0
M  V30 23961 C 2339.99 -1.85786 0.357809 0
M  V30 23962 O 2339.34 -1.70952 -0.672394 0
M  V30 23963 C 2339.4 -2.35568 2.71566 0
M  V30 23964 C 2339.06 -1.92391 4.14529 0
M  V30 23965 C 2340.06 -1.43444 4.9972 0
M  V30 23966 C 2337.74 -2.00467 4.60563 0
M  V30 23967 C 2339.74 -1.03144 6.28999 0
M  V30 23968 C 2337.42 -1.59778 5.89843 0
M  V30 23969 C 2338.42 -1.11196 6.73887 0
M  V30 23970 O 2338.11 -0.710794 8.00751 0
M  V30 23971 H 2337.84 -0.374714 0.562642 0
M  V30 23972 H 2340.4 -0.541001 1.98147 0
M  V30 23973 H 2338.63 -3.06845 2.35336 0
M  V30 23974 H 2340.32 -2.97473 2.76161 0
M  V30 23975 H 2341.08 -1.3661 4.65363 0
M  V30 23976 H 2336.96 -2.37228 3.95277 0
M  V30 23977 H 2340.5 -0.651541 6.94551 0
M  V30 23978 H 2336.4 -1.66278 6.23716 0
M  V30 23979 H 2337.17 -0.83777 8.14201 0
M  V30 23980 N 2339.83 -1.40974 -0.704569 0
M  V30 23981 C 2340.76 -1.44876 -1.83121 0
M  V30 23982 C 2341.74 -0.308409 -1.67281 0
M  V30 23983 O 2342.93 -0.518589 -1.87148 0
M  V30 23984 C 2340.06 -1.32142 -3.21179 0
M  V30 23985 C 2339.01 -2.43894 -3.5171 0
M  V30 23986 C 2338.34 -2.16231 -4.89028 0
M  V30 23987 C 2339.64 -3.86238 -3.51593 0
M  V30 23988 H 2341.33 -2.39164 -1.80113 0
M  V30 23989 H 2338.88 -1.15116 -0.865124 0
M  V30 23990 H 2340.83 -1.33486 -3.99699 0
M  V30 23991 H 2339.56 -0.343336 -3.2479 0
M  V30 23992 H 2338.21 -2.41818 -2.75535 0
M  V30 23993 H 2337.86 -1.16787 -4.89254 0
M  V30 23994 H 2337.56 -2.91109 -5.10421 0
M  V30 23995 H 2339.09 -2.19275 -5.69869 0
M  V30 23996 H 2340.5 -3.90078 -4.20134 0
M  V30 23997 H 2338.9 -4.60725 -3.84515 0
M  V30 23998 H 2339.97 -4.15033 -2.50749 0
M  V30 23999 N 2341.31 0.937917 -1.26653 0
M  V30 24000 C 2342.54 1.72409 -1.15282 0
M  V30 24001 C 2342.96 1.85885 0.287833 0
M  V30 24002 O 2342.32 1.35145 1.20853 0
M  V30 24003 C 2342.37 3.10694 -1.83034 0
M  V30 24004 O 2341.47 3.96862 -1.12135 0
M  V30 24005 H 2340.81 0.528851 -0.401513 0
M  V30 24006 H 2343.34 1.17447 -1.67533 0
M  V30 24007 H 2343.35 3.61066 -1.89987 0
M  V30 24008 H 2342.03 3.00203 -2.87839 0
M  V30 24009 H 2340.6 3.5531 -1.13179 0
M  V30 24010 N 2342.79 1.08509 1.14296 0
M  V30 24011 C 2344.07 0.72812 1.81543 0
M  V30 24012 C 2344.45 -0.788046 1.95839 0
M  V30 24013 O 2343.79 -1.70694 1.51907 0
M  V30 24014 C 2344 1.45625 3.17166 0
M  V30 24015 C 2345.35 1.61597 3.92647 0
M  V30 24016 O 2346.38 1.41799 3.26759 0
M  V30 24017 O 2345.23 1.94272 5.10804 0
M  V30 24018 H 2342.33 0.260485 0.784905 0
M  V30 24019 H 2344.87 1.18673 1.21305 0
M  V30 24020 H 2343.65 2.48905 3.0193 0
M  V30 24021 H 2343.27 0.989192 3.85098 0
M  V30 24022 N 2344.27 -1.31351 0.870907 0
M  V30 24023 C 2345.22 -2.26032 0.298929 0
M  V30 24024 C 2346.2 -1.5067 -0.564568 0
M  V30 24025 O 2347.39 -1.72155 -0.411292 0
M  V30 24026 C 2344.52 -3.39672 -0.497782 0
M  V30 24027 C 2343.61 -4.22403 0.379011 0
M  V30 24028 N 2344 -4.83879 1.47292 0
M  V30 24029 C 2342.3 -4.4567 0.171613 0
M  V30 24030 C 2343 -5.45734 2.01368 0
M  V30 24031 N 2341.97 -5.27565 1.31056 0
M  V30 24032 H 2345.78 -2.711 1.13499 0
M  V30 24033 H 2343.29 -1.45628 0.71877 0
M  V30 24034 H 2345.29 -4.0653 -0.924083 0
M  V30 24035 H 2343.95 -2.96146 -1.33144 0
M  V30 24036 H 2344.96 -4.83507 1.85584 0
M  V30 24037 H 2341.63 -4.1278 -0.626018 0
M  V30 24038 H 2343.02 -6.04575 2.93153 0
M  V30 24039 N 2345.74 -0.630439 -1.44441 0
M  V30 24040 C 2346.97 -0.13998 -2.06927 0
M  V30 24041 C 2347.39 1.1761 -1.46797 0
M  V30 24042 O 2346.75 1.72134 -0.569174 0
M  V30 24043 C 2346.8 -0.0380215 -3.6058 0
M  V30 24044 O 2345.9 1.00613 -3.99939 0
M  V30 24045 H 2345.25 -0.0844599 -0.658607 0
M  V30 24046 H 2347.78 -0.866923 -1.85326 0
M  V30 24047 H 2347.79 0.152784 -4.07714 0
M  V30 24048 H 2346.46 -0.99888 -4.03727 0
M  V30 24049 H 2345.04 0.789946 -3.64437 0
M  V30 24050 N 2347.22 1.53172 -0.370945 0
M  V30 24051 C 2348.47 2.01333 0.217066 0
M  V30 24052 C 2348.8 1.25805 1.48335 0
M  V30 24053 O 2348.05 0.341494 1.92697 0
M  V30 24054 C 2348.35 3.53148 0.549634 0
M  V30 24055 C 2348.02 4.46576 -0.622951 0
M  V30 24056 C 2346.68 4.71836 -0.944678 0
M  V30 24057 C 2349.03 5.01814 -1.40828 0
M  V30 24058 C 2346.36 5.49585 -2.05361 0
M  V30 24059 C 2348.71 5.80774 -2.50767 0
M  V30 24060 C 2347.38 6.04319 -2.83469 0
M  V30 24061 H 2346.65 0.736731 0.0794301 0
M  V30 24062 H 2349.29 1.84735 -0.504514 0
M  V30 24063 H 2347.6 3.67723 1.3523 0
M  V30 24064 H 2349.29 3.87891 1.01693 0
M  V30 24065 H 2345.88 4.27067 -0.362165 0
M  V30 24066 H 2350.07 4.8224 -1.17297 0
M  V30 24067 H 2345.32 5.66046 -2.3109 0
M  V30 24068 H 2349.5 6.22582 -3.12033 0
M  V30 24069 H 2347.13 6.64349 -3.69519 0
M  V30 24070 N 2348.7 0.100255 1.57281 0
M  V30 24071 C 2349.63 -0.853819 2.1733 0
M  V30 24072 C 2350.61 -1.29058 1.10806 0
M  V30 24073 O 2351.8 -1.35655 1.38966 0
M  V30 24074 C 2348.93 -2.11104 2.75776 0
M  V30 24075 C 2347.88 -1.81273 3.87717 0
M  V30 24076 C 2347.21 -3.13867 4.32888 0
M  V30 24077 C 2348.51 -1.09565 5.10679 0
M  V30 24078 H 2350.2 -0.353493 2.97306 0
M  V30 24079 H 2347.75 -0.168587 1.4301 0
M  V30 24080 H 2349.7 -2.7829 3.16437 0
M  V30 24081 H 2348.42 -2.63429 1.93061 0
M  V30 24082 H 2347.08 -1.16483 3.47602 0
M  V30 24083 H 2346.73 -3.64089 3.47057 0
M  V30 24084 H 2346.43 -2.94687 5.08363 0
M  V30 24085 H 2347.95 -3.82202 4.76187 0
M  V30 24086 H 2349.37 -1.66869 5.48477 0
M  V30 24087 H 2347.77 -1.00546 5.91617 0
M  V30 24088 H 2348.84 -0.0792447 4.84835 0
M  V30 24089 N 2350.18 -1.56643 -0.17346 0
M  V30 24090 C 2351.43 -1.82142 -0.891752 0
M  V30 24091 C 2351.76 -0.677768 -1.81989 0
M  V30 24092 O 2351.03 0.320412 -1.91843 0
M  V30 24093 C 2351.32 -3.18018 -1.68928 0
M  V30 24094 C 2351.17 -4.42908 -0.784409 0
M  V30 24095 C 2352.49 -3.50812 -2.65742 0
M  V30 24096 H 2349.61 -0.662572 -0.322749 0
M  V30 24097 H 2352.25 -1.89341 -0.158062 0
M  V30 24098 H 2350.4 -3.12011 -2.31476 0
M  V30 24099 H 2352.07 -4.60979 -0.171965 0
M  V30 24100 H 2350.31 -4.33702 -0.0923355 0
M  V30 24101 H 2350.99 -5.34526 -1.3779 0
M  V30 24102 H 2353.46 -3.57259 -2.1332 0
M  V30 24103 H 2352.34 -4.46965 -3.18612 0
M  V30 24104 H 2352.6 -2.75407 -3.45838 0
M  V30 24105 N 2351.66 0.44194 -1.51277 0
M  V30 24106 C 2352.88 1.21892 -1.67801 0
M  V30 24107 C 2353.31 1.84367 -0.372896 0
M  V30 24108 O 2352.67 1.68606 0.666471 0
M  V30 24109 C 2352.71 2.28206 -2.79203 0
M  V30 24110 O 2351.82 3.33579 -2.42485 0
M  V30 24111 H 2351.16 0.357326 -0.559655 0
M  V30 24112 H 2353.69 0.522487 -1.97816 0
M  V30 24113 H 2353.7 2.73064 -3.03151 0
M  V30 24114 H 2352.37 1.82111 -3.7391 0
M  V30 24115 H 2350.95 2.9423 -2.29092 0
M  V30 24116 N 2353.14 1.41345 0.697083 0
M  V30 24117 C 2354.07 1.39005 1.82237 0
M  V30 24118 C 2355.08 0.292457 1.60152 0
M  V30 24119 O 2356.27 0.554078 1.69683 0
M  V30 24120 C 2353.37 1.14494 3.18974 0
M  V30 24121 C 2352.54 2.36264 3.68101 0
M  V30 24122 C 2351.6 2.07633 4.83503 0
M  V30 24123 O 2350.63 2.80659 4.95196 0
M  V30 24124 N 2351.83 1.06565 5.70635 0
M  V30 24125 H 2354.59 2.35992 1.84738 0
M  V30 24126 H 2352.16 1.35938 0.879346 0
M  V30 24127 H 2354.15 0.932954 3.938 0
M  V30 24128 H 2352.72 0.261098 3.11508 0
M  V30 24129 H 2351.94 2.73175 2.84199 0
M  V30 24130 H 2353.23 3.174 3.97661 0
M  V30 24131 H 2352.62 0.461224 5.63817 0
M  V30 24132 H 2351.18 0.913557 6.45366 0
M  V30 24133 N 2354.61 -0.931187 1.27148 0
M  V30 24134 C 2355.86 -1.67518 1.13058 0
M  V30 24135 C 2356.18 -1.92277 -0.324757 0
M  V30 24136 O 2355.45 -1.52656 -1.22772 0
M  V30 24137 H 2354.03 -0.620846 0.415402 0
M  V30 24138 H 2356.69 -1.1183 1.59624 0
M  V30 24139 H 2355.79 -2.64482 1.65698 0
M  V30 24140 N 2356.09 -1.09114 -1.13719 0
M  V30 24141 C 2357.37 -0.737737 -1.81154 0
M  V30 24142 C 2357.75 0.777649 -1.96255 0
M  V30 24143 O 2357.1 1.69886 -1.5281 0
M  V30 24144 C 2357.31 -1.47305 -3.16389 0
M  V30 24145 C 2358.65 -1.63677 -3.91784 0
M  V30 24146 O 2359.68 -1.4353 -3.26003 0
M  V30 24147 O 2358.54 -1.96978 -5.09767 0
M  V30 24148 H 2355.63 -0.264644 -0.783513 0
M  V30 24149 H 2358.18 -1.19315 -1.20674 0
M  V30 24150 H 2356.95 -2.50503 -3.00606 0
M  V30 24151 H 2356.57 -1.0096 -3.84568 0
M  V30 24152 N 2357.57 1.30887 -0.877861 0
M  V30 24153 C 2358.99 1.49041 -0.57087 0
M  V30 24154 C 2359.19 1.80625 0.893127 0
M  V30 24155 O 2358.24 1.88961 1.67481 0
M  V30 24156 C 2359.55 2.61876 -1.47789 0
M  V30 24157 C 2361.1 2.75758 -1.48076 0
M  V30 24158 C 2361.58 3.91698 -2.37354 0
M  V30 24159 N 2363.07 3.98997 -2.35278 0
M  V30 24160 C 2363.8 4.87999 -3.01072 0
M  V30 24161 N 2363.3 5.81847 -3.76066 0
M  V30 24162 N 2365.09 4.8131 -2.9034 0
M  V30 24163 H 2357.24 1.08656 -1.82504 0
M  V30 24164 H 2359.51 0.53763 -0.780806 0
M  V30 24165 H 2359.21 2.45337 -2.51998 0
M  V30 24166 H 2359.09 3.58195 -1.18222 0
M  V30 24167 H 2361.47 2.91707 -0.446217 0
M  V30 24168 H 2361.55 1.80082 -1.81671 0
M  V30 24169 H 2361.2 3.76506 -3.40889 0
M  V30 24170 H 2361.13 4.86698 -2.01079 0
M  V30 24171 H 2363.62 3.31857 -1.80774 0
M  V30 24172 H 2363.93 6.46507 -4.23378 0
M  V30 24173 H 2362.28 5.81802 -3.80174 0
M  V30 24174 H 2365.47 4.0697 -2.31285 0
M  V30 24175 H 2365.64 5.50465 -3.41895 0
M  V30 24176 N 2359.05 0.638091 1.44105 0
M  V30 24177 C 2359.96 -0.0636922 2.34514 0
M  V30 24178 C 2360.97 -0.828319 1.53019 0
M  V30 24179 O 2362.15 -0.779003 1.85724 0
M  V30 24180 C 2359.21 -1.02839 3.31097 0
M  V30 24181 C 2358.28 -0.262364 4.28498 0
M  V30 24182 C 2357.51 -1.18111 5.20467 0
M  V30 24183 O 2357.73 -2.42002 5.16518 0
M  V30 24184 O 2356.67 -0.661668 5.98252 0
M  V30 24185 H 2360.49 0.680082 2.95987 0
M  V30 24186 H 2358.08 0.398277 1.43993 0
M  V30 24187 H 2359.96 -1.5832 3.90529 0
M  V30 24188 H 2358.63 -1.75265 2.72147 0
M  V30 24189 H 2357.54 0.335667 3.72591 0
M  V30 24190 H 2358.87 0.422022 4.90387 0
M  V30 24191 N 2360.53 -1.52973 0.379063 0
M  V30 24192 C 2361.46 -2.23771 -0.495923 0
M  V30 24193 C 2362.47 -1.25652 -1.03515 0
M  V30 24194 O 2363.66 -1.51792 -0.939222 0
M  V30 24195 C 2360.76 -2.93242 -1.69889 0
M  V30 24196 C 2359.93 -4.17981 -1.28883 0
M  V30 24197 C 2358.99 -4.70542 -2.35535 0
M  V30 24198 O 2358.02 -5.33887 -1.97366 0
M  V30 24199 N 2359.22 -4.49515 -3.6731 0
M  V30 24200 H 2361.98 -2.99496 0.110575 0
M  V30 24201 H 2359.55 -1.60598 0.204906 0
M  V30 24202 H 2361.54 -3.25309 -2.40741 0
M  V30 24203 H 2360.11 -2.20887 -2.21196 0
M  V30 24204 H 2359.33 -3.92066 -0.409607 0
M  V30 24205 H 2360.62 -4.99049 -0.991356 0
M  V30 24206 H 2360.01 -3.9893 -4.01088 0
M  V30 24207 H 2358.57 -4.86097 -4.34227 0
M  V30 24208 N 2362 -0.108595 -1.57225 0
M  V30 24209 C 2362.97 0.831044 -2.13603 0
M  V30 24210 C 2363.97 1.20171 -1.06843 0
M  V30 24211 O 2365.16 1.12893 -1.32668 0
M  V30 24212 C 2362.29 2.12239 -2.66772 0
M  V30 24213 H 2363.48 0.341265 -2.97952 0
M  V30 24214 H 2361.03 0.140542 -1.55667 0
M  V30 24215 H 2361.77 2.65671 -1.85982 0
M  V30 24216 H 2361.55 1.86619 -3.44842 0
M  V30 24217 H 2363.04 2.79429 -3.10337 0
M  V30 24218 N 2363.48 1.56732 0.16515 0
M  V30 24219 C 2364.89 1.71963 0.727016 0
M  V30 24220 C 2365.24 0.72011 1.82507 0
M  V30 24221 O 2364.37 -0.117204 2.16082 0
M  V30 24222 C 2364.96 3.11793 1.32554 0
M  V30 24223 C 2363.52 3.28688 1.83416 0
M  V30 24224 C 2362.67 2.6791 0.71552 0
M  V30 24225 H 2365.62 1.58585 -0.0603175 0
M  V30 24226 H 2365.64 3.10786 2.19528 0
M  V30 24227 H 2365.15 3.84517 0.526127 0
M  V30 24228 H 2363.25 2.6093 2.65981 0
M  V30 24229 H 2363.37 4.36482 1.97536 0
M  V30 24230 H 2361.73 2.27886 1.13754 0
M  V30 24231 H 2362.51 3.43224 -0.0721439 0
M  V30 24232 N 2364.96 -0.433911 1.51509 0
M  V30 24233 C 2365.91 -1.54754 1.73649 0
M  V30 24234 C 2366.9 -1.58309 0.602882 0
M  V30 24235 O 2368.11 -1.62012 0.784346 0
M  V30 24236 H 2364.48 -0.514201 0.548727 0
M  V30 24237 H 2366.45 -1.33256 2.66993 0
M  V30 24238 C 2365.2 -2.92378 1.88177 0
M  V30 24239 H 2364.53 -2.90376 2.74813 0
M  V30 24240 H 2365.97 -3.69656 2.07678 0
M  V30 24241 C 2364.43 -3.30718 0.642448 0
M  V30 24242 O 2364.95 -4.01195 -0.201292 0
M  V30 24243 N 2363.16 -2.86515 0.485539 0
M  V30 24244 H 2362.71 -2.29332 1.17322 0
M  V30 24245 H 2362.67 -3.1253 -0.342427 0
M  V30 24246 N 2366.44 -1.41713 -0.689577 0
M  V30 24247 C 2367.37 -1.4681 -1.81574 0
M  V30 24248 C 2368.35 -0.326134 -1.66944 0
M  V30 24249 O 2369.53 -0.53841 -1.86587 0
M  V30 24250 C 2366.66 -1.35541 -3.19759 0
M  V30 24251 C 2365.62 -2.47611 -3.49103 0
M  V30 24252 C 2364.94 -2.21405 -4.86707 0
M  V30 24253 C 2366.24 -3.89945 -3.47477 0
M  V30 24254 H 2367.94 -2.41061 -1.77566 0
M  V30 24255 H 2365.48 -1.16027 -0.852866 0
M  V30 24256 H 2367.44 -1.37717 -3.98261 0
M  V30 24257 H 2366.16 -0.377765 -3.24408 0
M  V30 24258 H 2364.82 -2.44727 -2.72955 0
M  V30 24259 H 2364.47 -1.21969 -4.87988 0
M  V30 24260 H 2364.17 -2.96506 -5.07304 0
M  V30 24261 H 2365.69 -2.25307 -5.67511 0
M  V30 24262 H 2367.11 -3.94512 -4.15973 0
M  V30 24263 H 2365.5 -4.64778 -3.79607 0
M  V30 24264 H 2366.57 -4.1767 -2.46333 0
M  V30 24265 N 2367.92 0.924431 -1.2764 0
M  V30 24266 C 2369.16 1.67495 -1.14339 0
M  V30 24267 C 2369.5 1.91719 0.309431 0
M  V30 24268 O 2368.77 1.50991 1.22605 0
M  V30 24269 C 2369.05 3.03947 -1.93102 0
M  V30 24270 C 2368.91 2.86943 -3.46386 0
M  V30 24271 C 2370.23 4.04327 -1.73805 0
M  V30 24272 H 2367.34 0.607864 -0.416738 0
M  V30 24273 H 2369.99 1.07253 -1.56834 0
M  V30 24274 H 2368.14 3.55369 -1.56988 0
M  V30 24275 H 2369.81 2.42614 -3.92347 0
M  V30 24276 H 2368.05 2.22219 -3.72561 0
M  V30 24277 H 2368.72 3.83797 -3.96742 0
M  V30 24278 H 2371.2 3.61927 -2.05299 0
M  V30 24279 H 2370.07 4.97785 -2.31303 0
M  V30 24280 H 2370.34 4.36733 -0.686802 0
M  V30 24281 N 2369.39 1.09715 1.13139 0
M  V30 24282 C 2370.62 0.855689 1.88047 0
M  V30 24283 C 2371.03 -0.596887 1.79538 0
M  V30 24284 O 2370.38 -1.4228 1.16198 0
M  V30 24285 C 2370.44 1.21595 3.38312 0
M  V30 24286 C 2370.1 2.67404 3.706 0
M  V30 24287 C 2371.1 3.65649 3.6959 0
M  V30 24288 C 2368.78 3.036 4.00165 0
M  V30 24289 C 2370.78 4.98117 3.97691 0
M  V30 24290 C 2368.46 4.36258 4.27927 0
M  V30 24291 C 2369.46 5.33326 4.26676 0
M  V30 24292 O 2369.15 6.63597 4.53756 0
M  V30 24293 H 2368.88 0.307379 0.602075 0
M  V30 24294 H 2371.44 1.46345 1.44126 0
M  V30 24295 H 2369.67 0.551244 3.82751 0
M  V30 24296 H 2371.36 0.953153 3.9455 0
M  V30 24297 H 2372.12 3.39029 3.46821 0
M  V30 24298 H 2368 2.28677 4.00285 0
M  V30 24299 H 2371.54 5.73873 3.9663 0
M  V30 24300 H 2367.44 4.62621 4.50169 0
M  V30 24301 H 2368.21 6.69115 4.7141 0
M  V30 24302 N 2370.87 -1.30419 0.88479 0
M  V30 24303 C 2371.81 -2.26272 0.296039 0
M  V30 24304 C 2372.78 -1.51778 -0.583293 0
M  V30 24305 O 2373.97 -1.80795 -0.533428 0
M  V30 24306 C 2371.09 -3.33708 -0.579381 0
M  V30 24307 C 2370.14 -4.25876 0.2306 0
M  V30 24308 S 2370.97 -5.10447 1.61876 0
M  V30 24309 C 2372.13 -6.21392 0.749865 0
M  V30 24310 H 2372.36 -2.7586 1.10853 0
M  V30 24311 H 2369.9 -1.38413 0.684203 0
M  V30 24312 H 2371.85 -3.96073 -1.07873 0
M  V30 24313 H 2370.51 -2.82843 -1.36596 0
M  V30 24314 H 2369.71 -5.02098 -0.437453 0
M  V30 24315 H 2369.31 -3.68084 0.662557 0
M  V30 24316 H 2371.6 -6.77492 -0.0332357 0
M  V30 24317 H 2372.54 -6.92382 1.48368 0
M  V30 24318 H 2372.95 -5.63643 0.31085 0
M  V30 24319 N 2372.35 -0.645724 -1.43764 0
M  V30 24320 C 2373.6 -0.156306 -2.02197 0
M  V30 24321 C 2373.93 1.22391 -1.50779 0
M  V30 24322 O 2373.2 1.81552 -0.697803 0
M  V30 24323 C 2373.49 -0.158935 -3.59749 0
M  V30 24324 C 2373.34 -1.57253 -4.21416 0
M  V30 24325 C 2374.66 0.508713 -4.3715 0
M  V30 24326 H 2371.78 -0.0582732 -0.734693 0
M  V30 24327 H 2374.42 -0.824981 -1.71155 0
M  V30 24328 H 2372.57 0.410457 -3.86326 0
M  V30 24329 H 2374.24 -2.19193 -4.05897 0
M  V30 24330 H 2372.49 -2.12207 -3.78353 0
M  V30 24331 H 2373.16 -1.52628 -5.3048 0
M  V30 24332 H 2375.63 0.0243389 -4.16093 0
M  V30 24333 H 2374.51 0.476117 -5.46831 0
M  V30 24334 H 2374.77 1.58158 -4.12842 0
M  V30 24335 N 2373.83 1.5277 -0.38717 0
M  V30 24336 C 2375.06 2.05971 0.195833 0
M  V30 24337 C 2375.47 1.25905 1.40689 0
M  V30 24338 O 2374.83 0.305166 1.79931 0
M  V30 24339 C 2374.88 3.57009 0.568058 0
M  V30 24340 O 2374.6 4.34042 -0.594879 0
M  V30 24341 C 2376.1 4.26547 1.20715 0
M  V30 24342 H 2373.32 0.670327 0.0300461 0
M  V30 24343 H 2375.87 1.96915 -0.551784 0
M  V30 24344 H 2374.02 3.66145 1.26557 0
M  V30 24345 H 2374.43 5.23701 -0.289414 0
M  V30 24346 H 2375.91 5.33477 1.41798 0
M  V30 24347 H 2376.39 3.81627 2.17388 0
M  V30 24348 H 2376.99 4.21723 0.550461 0
M  V30 24349 N 2375.31 0.116931 1.57166 0
M  V30 24350 C 2376.55 -0.540499 1.94738 0
M  V30 24351 C 2376.88 -1.67347 1.00099 0
M  V30 24352 O 2376.15 -1.95817 0.0569199 0
M  V30 24353 H 2374.73 -0.202656 0.718985 0
M  V30 24354 H 2377.39 0.185388 1.94016 0
M  V30 24355 H 2376.48 -0.936431 2.9772 0
M  V30 24356 N 2376.78 -1.56818 -0.156836 0
M  V30 24357 C 2377.73 -1.98457 -1.21315 0
M  V30 24358 C 2378.73 -0.87547 -1.45024 0
M  V30 24359 O 2379.93 -1.06063 -1.45433 0
M  V30 24360 H 2376.31 -0.631612 -0.408131 0
M  V30 24361 H 2378.28 -2.86474 -0.835194 0
M  V30 24362 C 2377.03 -2.3729 -2.54144 0
M  V30 24363 H 2376.35 -3.2218 -2.36727 0
M  V30 24364 H 2377.79 -2.70257 -3.26707 0
M  V30 24365 C 2376.25 -1.22179 -3.13965 0
M  V30 24366 O 2376.78 -0.517219 -3.98356 0
M  V30 24367 N 2374.99 -0.988584 -2.73268 0
M  V30 24368 H 2374.53 -1.5633 -2.04741 0
M  V30 24369 H 2374.49 -0.220264 -3.13627 0
M  V30 24370 N 2378.26 0.425871 -1.51737 0
M  V30 24371 C 2379.67 1.00533 -1.57321 0
M  V30 24372 C 2380.02 1.92005 -0.403571 0
M  V30 24373 O 2379.15 2.1105 0.478219 0
M  V30 24374 C 2379.74 1.83005 -2.85122 0
M  V30 24375 C 2378.3 2.35982 -2.9324 0
M  V30 24376 C 2377.45 1.15503 -2.521 0
M  V30 24377 H 2380.4 0.206711 -1.57348 0
M  V30 24378 H 2380.42 2.68576 -2.69531 0
M  V30 24379 H 2379.93 1.16405 -3.70232 0
M  V30 24380 H 2378.04 3.06003 -2.12586 0
M  V30 24381 H 2378.15 2.67994 -3.97135 0
M  V30 24382 H 2376.51 1.50389 -2.05561 0
M  V30 24383 H 2377.3 0.504955 -3.39566 0
M  V30 24384 N 2379.74 1.42077 0.682052 0
M  V30 24385 C 2380.7 1.44694 1.77753 0
M  V30 24386 C 2381.7 0.335563 1.5726 0
M  V30 24387 O 2382.89 0.596066 1.63685 0
M  V30 24388 C 2380.03 1.27152 3.16299 0
M  V30 24389 H 2381.22 2.42227 1.76822 0
M  V30 24390 H 2378.77 1.28418 0.890989 0
M  V30 24391 H 2379.51 0.305131 3.22861 0
M  V30 24392 H 2379.29 2.07689 3.32577 0
M  V30 24393 H 2380.78 1.3185 3.96239 0
M  V30 24394 N 2381.22 -0.917649 1.28129 0
M  V30 24395 C 2382.44 -1.70553 1.1801 0
M  V30 24396 C 2382.87 -1.86319 -0.258224 0
M  V30 24397 O 2382.23 -1.37051 -1.18687 0
M  V30 24398 C 2382.28 -3.07743 1.87954 0
M  V30 24399 O 2381.38 -3.95028 1.18434 0
M  V30 24400 H 2380.72 -0.522396 0.409876 0
M  V30 24401 H 2383.25 -1.14767 1.69381 0
M  V30 24402 H 2383.26 -3.57998 1.95708 0
M  V30 24403 H 2381.94 -2.95586 2.92578 0
M  V30 24404 H 2380.51 -3.53464 1.18818 0
M  V30 24405 N 2382.7 -1.10314 -1.12555 0
M  V30 24406 C 2383.97 -0.75691 -1.80361 0
M  V30 24407 C 2384.35 0.75679 -1.97068 0
M  V30 24408 O 2383.7 1.68256 -1.54603 0
M  V30 24409 C 2383.91 -1.50652 -3.14809 0
M  V30 24410 C 2385.26 -1.67824 -3.90026 0
M  V30 24411 O 2386.28 -1.46979 -3.24462 0
M  V30 24412 O 2385.14 -2.02374 -5.07649 0
M  V30 24413 H 2382.24 -0.272939 -0.780662 0
M  V30 24414 H 2384.78 -1.20588 -1.19401 0
M  V30 24415 H 2383.56 -2.53677 -2.97932 0
M  V30 24416 H 2383.18 -1.05033 -3.83476 0
M  V30 24417 N 2384.18 1.29948 -0.891694 0
M  V30 24418 C 2385.09 2.317 -0.367732 0
M  V30 24419 C 2386.1 1.65621 0.533457 0
M  V30 24420 O 2387.28 1.96866 0.424963 0
M  V30 24421 C 2384.34 3.44346 0.403345 0
M  V30 24422 C 2383.4 4.26036 -0.528403 0
M  V30 24423 C 2382.64 5.33302 0.20597 0
M  V30 24424 O 2382.86 5.52156 1.43109 0
M  V30 24425 O 2381.79 6.00235 -0.447386 0
M  V30 24426 H 2385.62 2.78481 -1.21168 0
M  V30 24427 H 2383.2 1.3424 -0.655748 0
M  V30 24428 H 2385.09 4.1295 0.83968 0
M  V30 24429 H 2383.76 2.99687 1.22349 0
M  V30 24430 H 2382.67 3.60104 -1.01369 0
M  V30 24431 H 2384 4.74316 -1.31474 0
M  V30 24432 N 2385.65 0.653339 1.4342 0
M  V30 24433 C 2386.9 0.164111 2.01031 0
M  V30 24434 C 2387.22 -1.22923 1.52149 0
M  V30 24435 O 2388.42 -1.81368 2.02035 0
M  V30 24436 C 2386.88 0.242583 3.59082 0
M  V30 24437 C 2386.49 1.63862 4.16957 0
M  V30 24438 C 2388.23 -0.189035 4.24079 0
M  V30 24439 C 2386.14 1.67102 5.67302 0
M  V30 24440 H 2385.07 0.0575901 0.751797 0
M  V30 24441 H 2387.72 0.815391 1.64389 0
M  V30 24442 H 2386.1 -0.476207 3.93126 0
M  V30 24443 H 2387.27 2.38278 3.94412 0
M  V30 24444 H 2385.59 2.01623 3.64331 0
M  V30 24445 H 2388.19 -0.184681 5.34381 0
M  V30 24446 H 2388.53 -1.22049 3.98007 0
M  V30 24447 H 2389.06 0.478008 3.94918 0
M  V30 24448 H 2385.8 2.68157 5.98141 0
M  V30 24449 H 2385.32 0.970118 5.91903 0
M  V30 24450 H 2387 1.41481 6.31341 0
M  V30 24451 N 2387.13 -1.52563 0.395266 0
M  V30 24452 C 2388.08 -2.26625 -0.436996 0
M  V30 24453 C 2389.05 -1.28474 -1.05278 0
M  V30 24454 O 2390.23 -1.57313 -1.07968 0
M  V30 24455 C 2387.37 -3.08072 -1.55518 0
M  V30 24456 C 2386.49 -4.2116 -0.961671 0
M  V30 24457 C 2385.62 -4.89991 -2.0514 0
M  V30 24458 C 2384.66 -5.95063 -1.4341 0
M  V30 24459 N 2383.8 -6.57466 -2.46339 0
M  V30 24460 H 2388.64 -2.97321 0.201028 0
M  V30 24461 H 2386.17 -1.46681 0.11097 0
M  V30 24462 H 2388.13 -3.53588 -2.2143 0
M  V30 24463 H 2386.76 -2.39573 -2.16343 0
M  V30 24464 H 2385.81 -3.79915 -0.191981 0
M  V30 24465 H 2387.13 -4.96575 -0.470614 0
M  V30 24466 H 2386.28 -5.38841 -2.7881 0
M  V30 24467 H 2385.02 -4.14113 -2.57607 0
M  V30 24468 H 2384.02 -5.45545 -0.682678 0
M  V30 24469 H 2385.25 -6.72876 -0.917298 0
M  V30 24470 H 2383.2 -5.84426 -2.97964 0
M  V30 24471 H 2383.11 -7.28512 -2.02006 0
M  V30 24472 H 2384.38 -7.10959 -3.1962 0
M  V30 24473 N 2388.61 -0.125265 -1.57101 0
M  V30 24474 C 2390.03 0.231294 -1.57915 0
M  V30 24475 C 2390.23 1.66264 -1.13836 0
M  V30 24476 O 2389.28 2.38516 -0.828623 0
M  V30 24477 C 2390.59 -0.00771775 -3.00699 0
M  V30 24478 C 2392.14 0.0576933 -3.12947 0
M  V30 24479 C 2392.62 -0.153706 -4.57742 0
M  V30 24480 N 2394.11 -0.0998887 -4.63092 0
M  V30 24481 C 2394.84 -0.238274 -5.72905 0
M  V30 24482 N 2394.34 -0.433179 -6.91444 0
M  V30 24483 N 2396.13 -0.177406 -5.6182 0
M  V30 24484 H 2388.28 -1.0601 -1.84053 0
M  V30 24485 H 2390.55 -0.417944 -0.850898 0
M  V30 24486 H 2390.25 -0.99749 -3.37258 0
M  V30 24487 H 2390.13 0.721387 -3.70238 0
M  V30 24488 H 2392.51 1.038 -2.76242 0
M  V30 24489 H 2392.59 -0.703393 -2.45939 0
M  V30 24490 H 2392.24 -1.13101 -4.95147 0
M  V30 24491 H 2392.17 0.627442 -5.22849 0
M  V30 24492 H 2394.66 0.0469846 -3.77871 0
M  V30 24493 H 2394.97 -0.529468 -7.70984 0
M  V30 24494 H 2393.32 -0.469231 -6.93414 0
M  V30 24495 H 2396.51 -0.0260571 -4.68093 0
M  V30 24496 H 2396.68 -0.288696 -6.47357 0
M  V30 24497 N 2390.09 1.56899 0.148518 0
M  V30 24498 C 2391.02 2.01184 1.18521 0
M  V30 24499 C 2392 0.891148 1.44888 0
M  V30 24500 O 2393.18 1.15885 1.55834 0
M  V30 24501 C 2390.31 2.39116 2.51874 0
M  V30 24502 C 2389.27 3.54357 2.40031 0
M  V30 24503 C 2388.59 3.78098 3.78082 0
M  V30 24504 C 2389.89 4.87072 1.88568 0
M  V30 24505 H 2391.59 2.88038 0.816979 0
M  V30 24506 H 2389.13 1.38574 0.39155 0
M  V30 24507 H 2391.09 2.68698 3.24622 0
M  V30 24508 H 2389.81 1.49198 2.9053 0
M  V30 24509 H 2388.47 3.24939 1.69736 0
M  V30 24510 H 2388.12 2.85433 4.1417 0
M  V30 24511 H 2387.82 4.55651 3.7102 0
M  V30 24512 H 2389.34 4.10103 4.5238 0
M  V30 24513 H 2390.76 5.15381 2.51108 0
M  V30 24514 H 2389.15 5.68421 1.924 0
M  V30 24515 H 2390.22 4.77546 0.841276 0
M  V30 24516 N 2391.57 -0.417818 1.51961 0
M  V30 24517 C 2392.98 -0.996972 1.57852 0
M  V30 24518 C 2393.33 -1.91788 0.413747 0
M  V30 24519 O 2392.45 -2.113 -0.467019 0
M  V30 24520 C 2393.05 -1.81491 2.86088 0
M  V30 24521 C 2391.61 -2.34423 2.94487 0
M  V30 24522 C 2390.75 -1.14165 2.52709 0
M  V30 24523 H 2393.7 -0.198364 1.57455 0
M  V30 24524 H 2393.73 -2.67143 2.70952 0
M  V30 24525 H 2393.24 -1.1444 3.70844 0
M  V30 24526 H 2391.34 -3.04872 2.14206 0
M  V30 24527 H 2391.45 -2.65884 3.98551 0
M  V30 24528 H 2389.82 -1.49297 2.06355 0
M  V30 24529 H 2390.6 -0.486939 3.39829 0
M  V30 24530 N 2393.04 -1.42436 -0.674508 0
M  V30 24531 C 2394.29 -1.42639 -1.43173 0
M  V30 24532 C 2394.61 -0.0439335 -1.94951 0
M  V30 24533 O 2393.88 0.917577 -1.73082 0
M  V30 24534 H 2392.46 -0.525101 -0.531298 0
M  V30 24535 H 2395.12 -1.7786 -0.796975 0
M  V30 24536 H 2394.22 -2.12633 -2.2846 0
M  V30 24537 N 2394.52 0.910841 -1.28614 0
M  V30 24538 C 2395.8 1.63977 -1.06635 0
M  V30 24539 C 2396.18 2.07404 0.393314 0
M  V30 24540 O 2395.53 1.82125 1.37996 0
M  V30 24541 C 2395.74 2.82906 -2.04365 0
M  V30 24542 C 2397.08 3.53856 -2.34672 0
M  V30 24543 O 2398.11 2.93059 -2.02472 0
M  V30 24544 O 2396.97 4.63434 -2.89639 0
M  V30 24545 H 2394.06 0.719492 -0.40775 0
M  V30 24546 H 2396.61 0.95989 -1.39944 0
M  V30 24547 H 2395.38 2.47931 -3.02731 0
M  V30 24548 H 2395 3.58606 -1.7172 0
M  V30 24549 N 2396 1.10909 1.11969 0
M  V30 24550 C 2397.25 0.849335 1.82946 0
M  V30 24551 C 2397.56 -0.62708 1.85276 0
M  V30 24552 O 2398.77 -1.0029 2.52298 0
M  V30 24553 C 2397.22 1.46965 3.28526 0
M  V30 24554 C 2396.83 2.9797 3.34541 0
M  V30 24555 C 2398.58 1.28949 4.04441 0
M  V30 24556 C 2396.48 3.53013 4.74485 0
M  V30 24557 H 2395.41 0.314077 0.685472 0
M  V30 24558 H 2398.06 1.33367 1.26038 0
M  V30 24559 H 2396.45 0.912984 3.85332 0
M  V30 24560 H 2397.62 3.59994 2.87647 0
M  V30 24561 H 2395.94 3.15197 2.72102 0
M  V30 24562 H 2398.53 1.67511 5.07784 0
M  V30 24563 H 2398.88 0.231529 4.15656 0
M  V30 24564 H 2399.41 1.8145 3.54007 0
M  V30 24565 H 2396.15 4.58497 4.68466 0
M  V30 24566 H 2395.67 2.95759 5.21811 0
M  V30 24567 H 2397.35 3.51125 5.43434 0
M  V30 24568 N 2397.48 -1.29474 0.898573 0
M  V30 24569 C 2398.41 -2.26771 0.332766 0
M  V30 24570 C 2399.42 -1.54262 -0.520296 0
M  V30 24571 O 2400.61 -1.75278 -0.337637 0
M  V30 24572 C 2397.71 -3.34501 -0.544275 0
M  V30 24573 C 2396.89 -4.36485 0.282804 0
M  V30 24574 C 2395.94 -5.23555 -0.526889 0
M  V30 24575 O 2394.97 -5.69173 0.0552166 0
M  V30 24576 N 2396.17 -5.50793 -1.83322 0
M  V30 24577 H 2398.94 -2.7596 1.16902 0
M  V30 24578 H 2396.5 -1.42796 0.762944 0
M  V30 24579 H 2398.49 -3.8968 -1.09232 0
M  V30 24580 H 2397.06 -2.85138 -1.28122 0
M  V30 24581 H 2396.28 -3.80981 1.01227 0
M  V30 24582 H 2397.57 -5.01662 0.849268 0
M  V30 24583 H 2396.97 -5.15538 -2.32889 0
M  V30 24584 H 2395.52 -6.08792 -2.32842 0
M  V30 24585 N 2398.96 -0.660936 -1.43071 0
M  V30 24586 C 2400.2 -0.177743 -2.0202 0
M  V30 24587 C 2400.54 1.20785 -1.52068 0
M  V30 24588 O 2399.81 1.80801 -0.717019 0
M  V30 24589 C 2400.09 -0.197082 -3.5956 0
M  V30 24590 C 2399.95 -1.61714 -4.19725 0
M  V30 24591 C 2401.27 0.462319 -4.37665 0
M  V30 24592 H 2398.38 -0.0660623 -0.734033 0
M  V30 24593 H 2401.03 -0.843088 -1.7027 0
M  V30 24594 H 2399.18 0.369459 -3.86739 0
M  V30 24595 H 2400.85 -2.23486 -4.03549 0
M  V30 24596 H 2399.09 -2.16208 -3.76081 0
M  V30 24597 H 2399.76 -1.58246 -5.28831 0
M  V30 24598 H 2402.24 -0.0197947 -4.16095 0
M  V30 24599 H 2401.11 0.418091 -5.47305 0
M  V30 24600 H 2401.38 1.5377 -4.14496 0
M  V30 24601 N 2400.43 1.52351 -0.403352 0
M  V30 24602 C 2401.68 2.02047 0.17457 0
M  V30 24603 C 2402.01 1.2887 1.4528 0
M  V30 24604 O 2401.29 0.393291 1.90482 0
M  V30 24605 C 2401.57 3.57545 0.428175 0
M  V30 24606 C 2401.42 4.41378 -0.866326 0
M  V30 24607 C 2402.74 4.23059 1.2128 0
M  V30 24608 H 2399.86 0.73439 0.0619722 0
M  V30 24609 H 2402.5 1.82292 -0.535682 0
M  V30 24610 H 2400.65 3.74509 1.03321 0
M  V30 24611 H 2402.33 4.36138 -1.50272 0
M  V30 24612 H 2400.57 4.07824 -1.47858 0
M  V30 24613 H 2401.24 5.48238 -0.643345 0
M  V30 24614 H 2403.72 4.10159 0.700631 0
M  V30 24615 H 2402.59 5.31811 1.35899 0
M  V30 24616 H 2402.85 3.81629 2.23186 0
M  V30 24617 N 2401.91 0.133594 1.57033 0
M  V30 24618 C 2403.32 -0.389432 1.82593 0
M  V30 24619 C 2403.67 -1.65638 1.05159 0
M  V30 24620 O 2402.8 -2.14412 0.292682 0
M  V30 24621 C 2403.39 -0.713319 3.31206 0
M  V30 24622 C 2401.95 -1.18092 3.57395 0
M  V30 24623 C 2401.1 -0.197078 2.76599 0
M  V30 24624 H 2404.05 0.358508 1.54598 0
M  V30 24625 H 2404.07 -1.56933 3.4663 0
M  V30 24626 H 2403.58 0.208968 3.87537 0
M  V30 24627 H 2401.69 -2.11961 3.06437 0
M  V30 24628 H 2401.8 -1.11616 4.65917 0
M  V30 24629 H 2400.16 -0.687045 2.45259 0
M  V30 24630 H 2400.95 0.718563 3.35696 0
M  V30 24631 N 2403.39 -1.56975 -0.140195 0
M  V30 24632 C 2404.64 -1.82909 -0.85012 0
M  V30 24633 C 2404.95 -0.715924 -1.82027 0
M  V30 24634 O 2406.16 -0.861061 -2.57484 0
M  V30 24635 C 2404.61 -3.24216 -1.56244 0
M  V30 24636 C 2404.22 -4.43486 -0.634352 0
M  V30 24637 C 2405.97 -3.59417 -2.25875 0
M  V30 24638 C 2403.87 -5.75816 -1.34868 0
M  V30 24639 H 2402.8 -0.682159 -0.321209 0
M  V30 24640 H 2405.45 -1.83212 -0.102842 0
M  V30 24641 H 2403.84 -3.18321 -2.35559 0
M  V30 24642 H 2405.01 -4.60633 0.124061 0
M  V30 24643 H 2403.33 -4.16374 -0.0461104 0
M  V30 24644 H 2405.92 -4.55544 -2.7997 0
M  V30 24645 H 2406.27 -2.85807 -3.02688 0
M  V30 24646 H 2406.8 -3.67003 -1.53471 0
M  V30 24647 H 2403.54 -6.5254 -0.62227 0
M  V30 24648 H 2403.06 -5.62593 -2.07964 0
M  V30 24649 H 2404.74 -6.18849 -1.88773 0
M  V30 24650 N 2404.87 0.409753 -1.5218 0
M  V30 24651 C 2406.12 1.15448 -1.6588 0
M  V30 24652 C 2406.44 1.91044 -0.390804 0
M  V30 24653 O 2405.71 1.86668 0.59429 0
M  V30 24654 H 2404.29 0.429166 -0.611412 0
M  V30 24655 H 2406.95 0.467101 -1.8922 0
M  V30 24656 H 2406.05 1.86889 -2.49958 0
M  V30 24657 N 2406.35 1.42792 0.666944 0
M  V30 24658 C 2407.59 1.43893 1.42908 0
M  V30 24659 C 2407.93 0.0579313 1.94114 0
M  V30 24660 O 2407.2 -0.91908 1.71415 0
M  V30 24661 C 2407.48 2.46991 2.62044 0
M  V30 24662 C 2407.34 3.94313 2.16419 0
M  V30 24663 C 2408.66 2.46984 3.64262 0
M  V30 24664 H 2405.77 0.523963 0.518297 0
M  V30 24665 H 2408.42 1.74256 0.75729 0
M  V30 24666 H 2406.57 2.21231 3.19357 0
M  V30 24667 H 2408.24 4.31082 1.64213 0
M  V30 24668 H 2406.48 4.07802 1.47918 0
M  V30 24669 H 2407.15 4.62041 3.02029 0
M  V30 24670 H 2409.63 2.69911 3.16681 0
M  V30 24671 H 2408.5 3.21087 4.45191 0
M  V30 24672 H 2408.77 1.49864 4.15924 0
M  V30 24673 N 2407.82 -0.904008 1.29095 0
M  V30 24674 C 2409.07 -1.65083 1.16585 0
M  V30 24675 C 2409.39 -1.92922 -0.283899 0
M  V30 24676 O 2408.66 -1.55226 -1.19506 0
M  V30 24677 H 2407.24 -0.611895 0.428478 0
M  V30 24678 H 2409.91 -1.08419 1.61961 0
M  V30 24679 H 2409 -2.60907 1.71271 0
M  V30 24680 N 2409.3 -1.11501 -1.11379 0
M  V30 24681 C 2410.71 -0.88022 -1.64648 0
M  V30 24682 C 2411.06 0.587401 -1.87201 0
M  V30 24683 O 2410.19 1.44963 -1.6067 0
M  V30 24684 C 2410.78 -1.59133 -2.99102 0
M  V30 24685 C 2409.34 -1.40295 -3.49277 0
M  V30 24686 C 2408.49 -1.63358 -2.24075 0
M  V30 24687 H 2411.44 -1.27117 -0.950101 0
M  V30 24688 H 2411.46 -1.03671 -3.66105 0
M  V30 24689 H 2410.97 -2.65946 -2.82656 0
M  V30 24690 H 2409.08 -0.356953 -3.70886 0
M  V30 24691 H 2409.19 -2.15245 -4.28026 0
M  V30 24692 H 2407.55 -1.05702 -2.31731 0
M  V30 24693 H 2408.34 -2.71447 -2.10171 0
M  V30 24694 N 2410.78 1.28995 -0.905426 0
M  V30 24695 C 2411.73 2.29517 -0.377471 0
M  V30 24696 C 2412.72 1.61013 0.526433 0
M  V30 24697 O 2413.93 1.75301 0.408599 0
M  V30 24698 H 2410.3 0.74485 -0.10345 0
M  V30 24699 H 2412.28 2.71483 -1.23853 0
M  V30 24700 C 2411.02 3.45674 0.374772 0
M  V30 24701 H 2410.35 3.98584 -0.311544 0
M  V30 24702 H 2411.79 4.18031 0.708957 0
M  V30 24703 C 2410.25 2.97575 1.57958 0
M  V30 24704 O 2410.78 2.99338 2.6788 0
M  V30 24705 N 2408.98 2.53336 1.4237 0
M  V30 24706 H 2408.53 2.52101 0.529422 0
M  V30 24707 H 2408.49 2.21513 2.23113 0
M  V30 24708 N 2412.26 0.668514 1.42719 0
M  V30 24709 C 2413.22 -0.00444538 2.292 0
M  V30 24710 C 2414.22 -0.735314 1.43003 0
M  V30 24711 O 2415.41 -0.574261 1.64462 0
M  V30 24712 C 2412.54 -1.017 3.25377 0
M  V30 24713 H 2413.74 0.756659 2.90198 0
M  V30 24714 H 2411.29 0.430532 1.50253 0
M  V30 24715 H 2412.03 -1.80681 2.69304 0
M  V30 24716 H 2411.81 -0.496394 3.88945 0
M  V30 24717 H 2413.3 -1.48648 3.90248 0
M  V30 24718 N 2413.74 -1.52135 0.411426 0
M  V30 24719 C 2414.69 -2.28636 -0.427593 0
M  V30 24720 C 2415.68 -1.3342 -1.04381 0
M  V30 24721 O 2416.89 -1.5087 -0.981746 0
M  V30 24722 H 2413.26 -0.735498 -0.156676 0
M  V30 24723 H 2415.23 -2.97443 0.238813 0
M  V30 24724 C 2413.98 -3.1219 -1.53077 0
M  V30 24725 H 2413.3 -3.85328 -1.06594 0
M  V30 24726 H 2414.74 -3.6882 -2.09161 0
M  V30 24727 C 2413.2 -2.25899 -2.49942 0
M  V30 24728 O 2413.73 -1.90082 -3.53881 0
M  V30 24729 N 2411.94 -1.89624 -2.20207 0
M  V30 24730 H 2411.49 -2.1895 -1.35715 0
M  V30 24731 H 2411.44 -1.32181 -2.85264 0
M  V30 24732 N 2415.22 -0.14192 -1.5696 0
M  V30 24733 C 2416.46 0.511214 -1.96251 0
M  V30 24734 C 2416.79 1.64849 -1.02657 0
M  V30 24735 O 2416.07 1.94381 -0.0680017 0
M  V30 24736 C 2416.35 1.02221 -3.45287 0
M  V30 24737 C 2416.21 -0.113217 -4.49657 0
M  V30 24738 C 2417.52 1.90567 -3.96702 0
M  V30 24739 H 2414.64 0.184355 -0.71357 0
M  V30 24740 H 2417.29 -0.22212 -1.88697 0
M  V30 24741 H 2415.44 1.64713 -3.51855 0
M  V30 24742 H 2417.11 -0.749382 -4.55172 0
M  V30 24743 H 2415.35 -0.773101 -4.26855 0
M  V30 24744 H 2416.02 0.285956 -5.51259 0
M  V30 24745 H 2418.5 1.37911 -3.92581 0
M  V30 24746 H 2417.37 2.23232 -5.01457 0
M  V30 24747 H 2417.63 2.84073 -3.38755 0
M  V30 24748 N 2416.69 1.57047 0.131868 0
M  V30 24749 C 2417.63 1.96022 1.18776 0
M  V30 24750 C 2418.64 0.857899 1.38362 0
M  V30 24751 O 2419.83 1.13625 1.37664 0
M  V30 24752 C 2416.93 2.23217 2.55005 0
M  V30 24753 C 2416.1 3.54518 2.56195 0
M  V30 24754 C 2415.16 3.70075 3.74073 0
M  V30 24755 O 2414.19 4.42318 3.5825 0
M  V30 24756 N 2415.39 3.07874 4.92132 0
M  V30 24757 H 2418.15 2.87205 0.85634 0
M  V30 24758 H 2415.71 1.5868 0.321282 0
M  V30 24759 H 2417.71 2.30852 3.324 0
M  V30 24760 H 2416.28 1.38225 2.80379 0
M  V30 24761 H 2415.5 3.58188 1.64607 0
M  V30 24762 H 2416.78 4.40844 2.54035 0
M  V30 24763 H 2416.18 2.49125 5.07891 0
M  V30 24764 H 2414.74 3.21049 5.67249 0
M  V30 24765 N 2418.17 -0.401677 1.52395 0
M  V30 24766 C 2419.08 -1.51441 1.79173 0
M  V30 24767 C 2420.1 -1.60259 0.67772 0
M  V30 24768 O 2421.27 -1.76834 0.96394 0
M  V30 24769 C 2418.34 -2.87103 1.94352 0
M  V30 24770 C 2417.4 -2.8811 3.18262 0
M  V30 24771 C 2416.63 -4.17302 3.32708 0
M  V30 24772 O 2416.86 -5.11593 2.52247 0
M  V30 24773 O 2415.79 -4.25316 4.25899 0
M  V30 24774 H 2419.62 -1.31747 2.73635 0
M  V30 24775 H 2417.2 -0.588272 1.37331 0
M  V30 24776 H 2419.08 -3.67552 2.06116 0
M  V30 24777 H 2417.76 -3.06849 1.03079 0
M  V30 24778 H 2416.66 -2.06489 3.11951 0
M  V30 24779 H 2418 -2.73315 4.09341 0
M  V30 24780 N 2419.65 -1.43144 -0.659362 0
M  V30 24781 C 2420.58 -1.50628 -1.78419 0
M  V30 24782 C 2421.56 -0.361472 -1.66215 0
M  V30 24783 O 2422.75 -0.577866 -1.85403 0
M  V30 24784 C 2419.88 -1.42293 -3.16812 0
M  V30 24785 C 2418.83 -2.5496 -3.43772 0
M  V30 24786 C 2418.16 -2.31679 -4.81901 0
M  V30 24787 C 2419.46 -3.97228 -3.39127 0
M  V30 24788 H 2421.15 -2.44774 -1.72413 0
M  V30 24789 H 2418.7 -1.1781 -0.828063 0
M  V30 24790 H 2420.65 -1.46134 -3.9525 0
M  V30 24791 H 2419.37 -0.446492 -3.23534 0
M  V30 24792 H 2418.03 -2.50462 -2.67702 0
M  V30 24793 H 2417.68 -1.32293 -4.85291 0
M  V30 24794 H 2417.38 -3.072 -5.00901 0
M  V30 24795 H 2418.9 -2.37294 -5.62604 0
M  V30 24796 H 2420.32 -4.03247 -4.07511 0
M  V30 24797 H 2418.71 -4.72725 -3.69663 0
M  V30 24798 H 2419.78 -4.22801 -2.37418 0
M  V30 24799 N 2421.13 0.897149 -1.29572 0
M  V30 24800 C 2422.04 2.03451 -1.16811 0
M  V30 24801 C 2423.05 1.73763 -0.0907777 0
M  V30 24802 O 2424.23 1.99102 -0.303347 0
M  V30 24803 C 2421.29 3.36161 -0.848323 0
M  V30 24804 C 2420.36 3.79351 -2.00976 0
M  V30 24805 C 2419.59 5.05728 -1.70514 0
M  V30 24806 O 2419.81 5.6694 -0.62728 0
M  V30 24807 O 2418.75 5.45032 -2.55389 0
M  V30 24808 H 2422.57 2.17141 -2.12329 0
M  V30 24809 H 2420.16 1.02121 -1.09049 0
M  V30 24810 H 2422.04 4.15801 -0.684654 0
M  V30 24811 H 2420.71 3.23608 0.0770503 0
M  V30 24812 H 2419.62 3.00467 -2.22869 0
M  V30 24813 H 2420.95 3.96491 -2.91643 0
M  V30 24814 N 2422.61 1.1209 1.10786 0
M  V30 24815 C 2424.02 0.856209 1.34689 0
M  V30 24816 C 2424.22 -0.515581 1.94792 0
M  V30 24817 O 2423.28 -1.26501 2.18526 0
M  V30 24818 C 2424.59 1.96974 2.27204 0
M  V30 24819 C 2426.14 2.0002 2.40751 0
M  V30 24820 C 2426.61 3.10596 3.36592 0
M  V30 24821 N 2428.1 3.10015 3.44159 0
M  V30 24822 C 2428.84 3.92214 4.18277 0
M  V30 24823 N 2428.34 4.84392 4.95314 0
M  V30 24824 N 2430.13 3.80365 4.13859 0
M  V30 24825 H 2422.28 2.00485 0.701405 0
M  V30 24826 H 2424.54 0.872223 0.37139 0
M  V30 24827 H 2424.25 2.95803 1.90246 0
M  V30 24828 H 2424.12 1.87178 3.27482 0
M  V30 24829 H 2426.51 1.01813 2.7698 0
M  V30 24830 H 2426.59 2.13891 1.40301 0
M  V30 24831 H 2426.23 4.09033 3.01089 0
M  V30 24832 H 2426.16 2.93964 4.36913 0
M  V30 24833 H 2428.66 2.43233 2.89216 0
M  V30 24834 H 2428.97 5.43632 5.49257 0
M  V30 24835 H 2427.31 4.88409 4.94451 0
M  V30 24836 H 2430.5 3.07689 3.52767 0
M  V30 24837 H 2430.68 4.44657 4.71364 0
M  V30 24838 N 2424.08 -1.28513 0.912254 0
M  V30 24839 C 2425.33 -1.94322 0.540538 0
M  V30 24840 C 2425.65 -1.72613 -0.920014 0
M  V30 24841 O 2426.85 -2.32631 -1.39982 0
M  V30 24842 C 2425.31 -3.48052 0.915865 0
M  V30 24843 C 2424.92 -3.78542 2.39604 0
M  V30 24844 C 2426.66 -4.20026 0.614662 0
M  V30 24845 C 2424.57 -5.25574 2.71157 0
M  V30 24846 H 2423.5 -0.727421 0.198431 0
M  V30 24847 H 2426.15 -1.46047 1.11097 0
M  V30 24848 H 2424.53 -3.95049 0.274238 0
M  V30 24849 H 2425.7 -3.42358 3.08428 0
M  V30 24850 H 2424.02 -3.19736 2.66755 0
M  V30 24851 H 2426.62 -5.28264 0.827094 0
M  V30 24852 H 2426.96 -4.13888 -0.447458 0
M  V30 24853 H 2427.49 -3.78801 1.21469 0
M  V30 24854 H 2424.23 -5.36788 3.76217 0
M  V30 24855 H 2423.75 -5.6296 2.0697 0
M  V30 24856 H 2425.43 -5.93298 2.58083 0
M  V30 24857 N 2425.56 -0.676073 -1.42362 0
M  V30 24858 C 2426.81 -0.198473 -2.01123 0
M  V30 24859 C 2427.13 1.19963 -1.53733 0
M  V30 24860 O 2426.4 1.80576 -0.759549 0
M  V30 24861 H 2424.98 -0.0703852 -0.743677 0
M  V30 24862 H 2427.64 -0.872867 -1.74261 0
M  V30 24863 H 2426.74 -0.200741 -3.11454 0
M  V30 24864 N 2427.04 1.51915 -0.419488 0
M  V30 24865 C 2428.29 2.02879 0.145469 0
M  V30 24866 C 2428.64 1.29906 1.41923 0
M  V30 24867 O 2427.93 0.399815 1.87382 0
M  V30 24868 C 2428.13 3.54718 0.437004 0
M  V30 24869 C 2427.96 4.42401 -0.806954 0
M  V30 24870 C 2426.73 4.8734 -1.33523 0
M  V30 24871 C 2428.93 4.85808 -1.68804 0
M  V30 24872 N 2426.91 5.5918 -2.53359 0
M  V30 24873 C 2428.28 5.56534 -2.73257 0
M  V30 24874 C 2430.33 4.67813 -1.70458 0
M  V30 24875 C 2429.04 6.11174 -3.79287 0
M  V30 24876 C 2431.06 5.23357 -2.75412 0
M  V30 24877 C 2430.42 5.94014 -3.78586 0
M  V30 24878 H 2426.52 0.781865 0.0145287 0
M  V30 24879 H 2429.11 1.8598 -0.576159 0
M  V30 24880 H 2427.28 3.71669 1.12767 0
M  V30 24881 H 2429.01 3.9236 0.991751 0
M  V30 24882 H 2425.77 4.65129 -0.891738 0
M  V30 24883 H 2426.19 5.99737 -3.14077 0
M  V30 24884 H 2430.83 4.12663 -0.920282 0
M  V30 24885 H 2428.55 6.65389 -4.58566 0
M  V30 24886 H 2432.14 5.11295 -2.77612 0
M  V30 24887 H 2431.02 6.36223 -4.58464 0
M  V30 24888 N 2428.52 0.150242 1.56882 0
M  V30 24889 C 2429.93 -0.370044 1.82996 0
M  V30 24890 C 2430.28 -1.64514 1.0691 0
M  V30 24891 O 2429.41 -2.14089 0.315407 0
M  V30 24892 C 2430 -0.67815 3.31944 0
M  V30 24893 C 2428.56 -1.14295 3.58627 0
M  V30 24894 C 2427.71 -0.167729 2.76792 0
M  V30 24895 H 2430.66 0.374885 1.54209 0
M  V30 24896 H 2430.68 -1.53248 3.48275 0
M  V30 24897 H 2430.19 0.25006 3.87294 0
M  V30 24898 H 2428.29 -2.08699 3.08668 0
M  V30 24899 H 2428.4 -1.06668 4.67075 0
M  V30 24900 H 2426.77 -0.660994 2.45974 0
M  V30 24901 H 2427.55 0.754128 3.34915 0
M  V30 24902 N 2430 -1.57115 -0.123538 0
M  V30 24903 C 2430.94 -2.00986 -1.17078 0
M  V30 24904 C 2431.94 -0.906034 -1.43134 0
M  V30 24905 O 2433.14 -1.09124 -1.4315 0
M  V30 24906 H 2429.52 -0.640127 -0.394641 0
M  V30 24907 H 2431.49 -2.88181 -0.774241 0
M  V30 24908 C 2430.24 -2.42627 -2.49053 0
M  V30 24909 H 2429.56 -3.27129 -2.2984 0
M  V30 24910 H 2431 -2.77126 -3.20901 0
M  V30 24911 C 2429.46 -1.28811 -3.11303 0
M  V30 24912 O 2429.99 -0.6016 -3.9717 0
M  V30 24913 N 2428.2 -1.04633 -2.7111 0
M  V30 24914 H 2427.74 -1.60637 -2.01379 0
M  V30 24915 H 2427.7 -0.28674 -3.1309 0
M  V30 24916 N 2431.47 0.393589 -1.52606 0
M  V30 24917 C 2432.44 1.4632 -1.76417 0
M  V30 24918 C 2433.44 1.47767 -0.634152 0
M  V30 24919 O 2434.63 1.49019 -0.902169 0
M  V30 24920 C 2431.76 2.85638 -1.86075 0
M  V30 24921 H 2432.95 1.26493 -2.71918 0
M  V30 24922 H 2430.51 0.625048 -1.43258 0
M  V30 24923 H 2431.24 3.10815 -0.925433 0
M  V30 24924 H 2431.03 2.85989 -2.6824 0
M  V30 24925 H 2432.52 3.63149 -2.06186 0
M  V30 24926 N 2432.95 1.43492 0.651762 0
M  V30 24927 C 2434.36 1.40195 1.23297 0
M  V30 24928 C 2434.71 0.106762 1.95909 0
M  V30 24929 O 2433.84 -0.793738 2.01318 0
M  V30 24930 C 2434.43 2.53961 2.24253 0
M  V30 24931 C 2432.99 2.53925 2.77847 0
M  V30 24932 C 2432.14 2.31593 1.52513 0
M  V30 24933 H 2435.09 1.52372 0.44369 0
M  V30 24934 H 2435.11 2.25533 3.06456 0
M  V30 24935 H 2434.62 3.48213 1.71376 0
M  V30 24936 H 2432.73 1.63557 3.34783 0
M  V30 24937 H 2432.84 3.5174 3.25293 0
M  V30 24938 H 2431.2 1.80288 1.79912 0
M  V30 24939 H 2431.99 3.27931 1.01568 0
M  V30 24940 N 2434.43 -0.890264 1.30046 0
M  V30 24941 C 2435.68 -1.6363 1.17932 0
M  V30 24942 C 2435.99 -1.93781 -0.266169 0
M  V30 24943 O 2437.2 -2.66691 -0.508757 0
M  V30 24944 C 2435.65 -2.94889 2.06322 0
M  V30 24945 C 2435.26 -2.72298 3.55749 0
M  V30 24946 C 2437.01 -3.72839 2.02956 0
M  V30 24947 C 2434.91 -3.99341 4.36212 0
M  V30 24948 H 2433.84 -0.613884 0.437792 0
M  V30 24949 H 2436.49 -0.986047 1.54756 0
M  V30 24950 H 2434.88 -3.61179 1.62376 0
M  V30 24951 H 2436.05 -2.14543 4.07809 0
M  V30 24952 H 2434.37 -2.07731 3.60883 0
M  V30 24953 H 2436.96 -4.67048 2.60327 0
M  V30 24954 H 2437.31 -4.03818 1.01177 0
M  V30 24955 H 2437.84 -3.13404 2.44996 0
M  V30 24956 H 2434.58 -3.73523 5.38666 0
M  V30 24957 H 2434.1 -4.56621 3.88918 0
M  V30 24958 H 2435.78 -4.67407 4.4737 0
M  V30 24959 N 2435.91 -1.12676 -1.1019 0
M  V30 24960 C 2436.84 -0.8194 -2.18651 0
M  V30 24961 C 2437.82 0.217886 -1.68699 0
M  V30 24962 O 2439 0.078524 -1.94041 0
M  V30 24963 C 2436.13 -0.276001 -3.46202 0
M  V30 24964 C 2435.09 -1.24664 -4.09442 0
M  V30 24965 C 2434.41 -0.563352 -5.31724 0
M  V30 24966 C 2435.71 -2.60225 -4.52858 0
M  V30 24967 H 2437.41 -1.72632 -2.44619 0
M  V30 24968 H 2434.95 -0.831472 -1.17569 0
M  V30 24969 H 2436.91 -0.048689 -4.21372 0
M  V30 24970 H 2435.63 0.666275 -3.19732 0
M  V30 24971 H 2434.29 -1.4598 -3.36282 0
M  V30 24972 H 2433.94 0.384147 -5.01531 0
M  V30 24973 H 2433.64 -1.21085 -5.74989 0
M  V30 24974 H 2435.16 -0.345137 -6.09624 0
M  V30 24975 H 2436.58 -2.42922 -5.1929 0
M  V30 24976 H 2434.97 -3.21077 -5.06981 0
M  V30 24977 H 2436.04 -3.18478 -3.6565 0
M  V30 24978 N 2437.39 1.28028 -0.919057 0
M  V30 24979 C 2438.64 1.94033 -0.550836 0
M  V30 24980 C 2438.95 1.73098 0.910847 0
M  V30 24981 O 2440.15 2.3337 1.38746 0
M  V30 24982 C 2438.61 3.47561 -0.93431 0
M  V30 24983 C 2438.22 3.77266 -2.41608 0
M  V30 24984 C 2439.96 4.19695 -0.636928 0
M  V30 24985 C 2437.87 5.24128 -2.73941 0
M  V30 24986 H 2436.8 0.726358 -0.202286 0
M  V30 24987 H 2439.45 1.45456 -1.1187 0
M  V30 24988 H 2437.83 3.94898 -0.295184 0
M  V30 24989 H 2439.01 3.40718 -3.10239 0
M  V30 24990 H 2437.32 3.18316 -2.68447 0
M  V30 24991 H 2439.92 5.27818 -0.855098 0
M  V30 24992 H 2440.26 4.1412 0.425502 0
M  V30 24993 H 2440.79 3.78151 -1.23476 0
M  V30 24994 H 2437.53 5.34785 -3.79058 0
M  V30 24995 H 2437.05 5.61854 -2.09952 0
M  V30 24996 H 2438.73 5.91921 -2.61225 0
M  V30 24997 N 2438.86 0.683613 1.42002 0
M  V30 24998 C 2439.8 -0.0282665 2.29183 0
M  V30 24999 C 2440.81 -0.756585 1.44151 0
M  V30 25000 O 2442 -0.609277 1.6778 0
M  V30 25001 C 2439.1 -1.06392 3.21767 0
M  V30 25002 C 2438.27 -0.407646 4.35496 0
M  V30 25003 C 2437.33 -1.34428 5.08739 0
M  V30 25004 O 2436.36 -0.841219 5.6295 0
M  V30 25005 N 2437.56 -2.67719 5.15079 0
M  V30 25006 H 2440.32 0.720156 2.90919 0
M  V30 25007 H 2437.88 0.528709 1.53024 0
M  V30 25008 H 2439.88 -1.69198 3.67633 0
M  V30 25009 H 2438.45 -1.71399 2.61421 0
M  V30 25010 H 2437.67 0.400081 3.92164 0
M  V30 25011 H 2438.95 0.049185 5.08776 0
M  V30 25012 H 2438.35 -3.1112 4.72462 0
M  V30 25013 H 2436.91 -3.2575 5.64562 0
M  V30 25014 N 2440.34 -1.5169 0.427538 0
M  V30 25015 C 2441.62 -1.94558 -0.20165 0
M  V30 25016 C 2442 -1.36562 -1.60979 0
M  V30 25017 O 2441.35 -0.548741 -2.21813 0
M  V30 25018 C 2441.56 -3.48486 -0.189333 0
M  V30 25019 C 2442.91 -4.22714 -0.399706 0
M  V30 25020 O 2443.93 -3.55191 -0.267882 0
M  V30 25021 O 2442.79 -5.42486 -0.661153 0
M  V30 25022 H 2439.88 -0.815866 -0.135247 0
M  V30 25023 H 2442.43 -1.62627 0.484811 0
M  V30 25024 H 2441.2 -3.83129 0.795498 0
M  V30 25025 H 2440.82 -3.86831 -0.919119 0
M  V30 25026 N 2441.82 -0.15856 -1.568 0
M  V30 25027 C 2443.07 0.489645 -1.96491 0
M  V30 25028 C 2443.4 1.64108 -1.04397 0
M  V30 25029 O 2442.65 1.95554 -0.0754745 0
M  V30 25030 C 2442.95 1.02617 -3.42351 0
M  V30 25031 C 2442.62 -0.00802452 -4.50899 0
M  V30 25032 C 2441.28 -0.292292 -4.80311 0
M  V30 25033 C 2443.63 -0.710675 -5.16332 0
M  V30 25034 C 2440.96 -1.28482 -5.72459 0
M  V30 25035 C 2443.31 -1.6921 -6.0955 0
M  V30 25036 C 2441.97 -1.98394 -6.37335 0
M  V30 25037 H 2441.24 0.179174 -0.719012 0
M  V30 25038 H 2443.89 -0.247831 -1.8989 0
M  V30 25039 H 2442.2 1.84122 -3.45842 0
M  V30 25040 H 2443.89 1.53649 -3.70396 0
M  V30 25041 H 2440.48 0.223715 -4.28016 0
M  V30 25042 H 2444.67 -0.504261 -4.93732 0
M  V30 25043 H 2439.92 -1.51725 -5.92275 0
M  V30 25044 H 2444.1 -2.242 -6.59323 0
M  V30 25045 H 2441.72 -2.75453 -7.08541 0
M  V30 25046 N 2443.3 1.57178 0.115204 0
M  V30 25047 C 2444.21 2.0392 1.1599 0
M  V30 25048 C 2445.23 0.960293 1.45101 0
M  V30 25049 O 2446.4 1.27207 1.56142 0
M  V30 25050 C 2443.47 2.43736 2.46563 0
M  V30 25051 C 2442.53 3.65727 2.24815 0
M  V30 25052 C 2441.76 4.03635 3.49163 0
M  V30 25053 O 2441.98 3.41843 4.56617 0
M  V30 25054 O 2440.92 4.96714 3.3994 0
M  V30 25055 H 2444.74 2.93165 0.792968 0
M  V30 25056 H 2442.33 1.45794 0.326274 0
M  V30 25057 H 2444.21 2.70063 3.23487 0
M  V30 25058 H 2442.89 1.57636 2.82723 0
M  V30 25059 H 2441.79 3.44545 1.45738 0
M  V30 25060 H 2443.13 4.52544 1.93558 0
M  V30 25061 N 2444.78 -0.38549 1.52813 0
M  V30 25062 C 2446.01 -1.1513 1.71909 0
M  V30 25063 C 2446.42 -1.83624 0.439036 0
M  V30 25064 O 2445.78 -1.72811 -0.586734 0
M  V30 25065 C 2445.83 -2.19668 2.87103 0
M  V30 25066 O 2445.55 -1.53965 4.10154 0
M  V30 25067 C 2447.05 -3.08949 3.17908 0
M  V30 25068 H 2444.27 -0.345047 0.575485 0
M  V30 25069 H 2446.81 -0.450485 1.99477 0
M  V30 25070 H 2444.97 -2.85379 2.61987 0
M  V30 25071 H 2445.38 -2.23456 4.74518 0
M  V30 25072 H 2446.86 -3.78323 4.01965 0
M  V30 25073 H 2447.33 -3.72653 2.32436 0
M  V30 25074 H 2447.94 -2.48879 3.44876 0
M  V30 25075 N 2446.26 -1.43835 -0.644143 0
M  V30 25076 C 2447.19 -1.52512 -1.76812 0
M  V30 25077 C 2448.17 -0.379081 -1.65822 0
M  V30 25078 O 2449.35 -0.597498 -1.8478 0
M  V30 25079 C 2446.48 -1.45645 -3.15285 0
M  V30 25080 C 2445.44 -2.58592 -3.41049 0
M  V30 25081 C 2444.76 -2.36778 -4.79417 0
M  V30 25082 C 2446.06 -4.00803 -3.34895 0
M  V30 25083 H 2447.76 -2.46588 -1.69807 0
M  V30 25084 H 2445.3 -1.18681 -0.815521 0
M  V30 25085 H 2447.25 -1.50318 -3.93678 0
M  V30 25086 H 2445.98 -0.480781 -3.23042 0
M  V30 25087 H 2444.64 -2.53287 -2.65031 0
M  V30 25088 H 2444.29 -1.37433 -4.83861 0
M  V30 25089 H 2443.99 -3.12496 -4.97614 0
M  V30 25090 H 2445.51 -2.43248 -5.60056 0
M  V30 25091 H 2446.92 -4.07546 -4.03211 0
M  V30 25092 H 2445.32 -4.76619 -3.64628 0
M  V30 25093 H 2446.39 -4.25295 -2.32921 0
M  V30 25094 N 2447.73 0.883355 -1.30517 0
M  V30 25095 C 2449.14 1.45079 -1.17512 0
M  V30 25096 C 2449.5 1.94922 0.223571 0
M  V30 25097 O 2448.62 1.85139 1.12037 0
M  V30 25098 C 2449.22 2.63697 -2.12719 0
M  V30 25099 C 2447.77 3.16525 -2.03688 0
M  V30 25100 C 2446.92 1.8922 -2.02709 0
M  V30 25101 H 2449.87 0.69314 -1.42763 0
M  V30 25102 H 2449.89 3.39962 -1.70897 0
M  V30 25103 H 2449.41 2.27389 -3.14509 0
M  V30 25104 H 2447.51 3.57486 -1.05046 0
M  V30 25105 H 2447.62 3.79715 -2.92153 0
M  V30 25106 H 2445.98 2.0762 -1.47534 0
M  V30 25107 H 2446.77 1.55168 -3.06231 0
M  V30 25108 N 2449.21 1.13259 1.09591 0
M  V30 25109 C 2450.63 0.870447 1.33774 0
M  V30 25110 C 2450.83 -0.494891 1.95328 0
M  V30 25111 O 2449.88 -1.24177 2.19855 0
M  V30 25112 C 2451.2 1.99373 2.25102 0
M  V30 25113 C 2452.74 2.02562 2.38616 0
M  V30 25114 C 2453.22 3.14148 3.33279 0
M  V30 25115 N 2454.71 3.13647 3.40851 0
M  V30 25116 C 2455.45 3.96628 4.14094 0
M  V30 25117 N 2454.94 4.89619 4.90148 0
M  V30 25118 N 2456.73 3.84733 4.09801 0
M  V30 25119 H 2448.89 2.01217 0.680101 0
M  V30 25120 H 2451.15 0.876113 0.362118 0
M  V30 25121 H 2450.85 2.97804 1.87098 0
M  V30 25122 H 2450.73 1.90641 3.25478 0
M  V30 25123 H 2453.12 1.04745 2.75885 0
M  V30 25124 H 2453.2 2.15367 1.38025 0
M  V30 25125 H 2452.84 4.12203 2.96734 0
M  V30 25126 H 2452.77 2.98581 4.3377 0
M  V30 25127 H 2455.26 2.46287 2.8662 0
M  V30 25128 H 2455.57 5.49427 5.43461 0
M  V30 25129 H 2453.92 4.93626 4.89243 0
M  V30 25130 H 2457.11 3.11414 3.49484 0
M  V30 25131 H 2457.28 4.49632 4.66621 0
M  V30 25132 N 2450.69 -1.27539 0.925834 0
M  V30 25133 C 2451.6 -2.30644 0.429034 0
M  V30 25134 C 2452.62 -1.66977 -0.489358 0
M  V30 25135 O 2453.79 -1.97923 -0.372618 0
M  V30 25136 C 2450.86 -3.45294 -0.311906 0
M  V30 25137 C 2449.92 -4.24485 0.641173 0
M  V30 25138 C 2449.15 -5.33661 -0.0645016 0
M  V30 25139 O 2449.37 -5.55756 -1.28419 0
M  V30 25140 O 2448.31 -5.98838 0.606371 0
M  V30 25141 H 2452.13 -2.75171 1.28509 0
M  V30 25142 H 2449.72 -1.32454 0.691109 0
M  V30 25143 H 2451.6 -4.15031 -0.729899 0
M  V30 25144 H 2450.28 -3.02826 -1.1436 0
M  V30 25145 H 2449.18 -3.5729 1.10881 0
M  V30 25146 H 2450.52 -4.70663 1.44003 0
M  V30 25147 N 2452.17 -0.691135 -1.41637 0
M  V30 25148 C 2453.13 -0.0320188 -2.29178 0
M  V30 25149 C 2454.13 0.71247 -1.44154 0
M  V30 25150 O 2455.32 0.548024 -1.65355 0
M  V30 25151 C 2452.45 0.965104 -3.26953 0
M  V30 25152 H 2453.65 -0.802732 -2.88957 0
M  V30 25153 H 2451.2 -0.454382 -1.4955 0
M  V30 25154 H 2451.93 1.76374 -2.72145 0
M  V30 25155 H 2451.72 0.434454 -3.89686 0
M  V30 25156 H 2453.21 1.42421 -3.92563 0
M  V30 25157 N 2453.65 1.51461 -0.435577 0
M  V30 25158 C 2455.06 1.86679 0.0279543 0
M  V30 25159 C 2455.41 1.35283 1.42102 0
M  V30 25160 O 2454.53 0.702914 2.04666 0
M  V30 25161 C 2455.13 3.38751 0.0575031 0
M  V30 25162 C 2453.69 3.73511 0.465441 0
M  V30 25163 C 2452.83 2.7517 -0.343045 0
M  V30 25164 H 2455.78 1.44711 -0.651499 0
M  V30 25165 H 2455.81 3.70482 0.867356 0
M  V30 25166 H 2455.32 3.76128 -0.956514 0
M  V30 25167 H 2453.42 3.41723 1.48513 0
M  V30 25168 H 2453.53 4.78717 0.191462 0
M  V30 25169 H 2451.9 2.53926 0.198397 0
M  V30 25170 H 2452.68 3.15389 -1.3559 0
M  V30 25171 N 2455.12 0.166873 1.56714 0
M  V30 25172 C 2456.4 -0.52534 1.88413 0
M  V30 25173 C 2456.78 -1.81616 1.07606 0
M  V30 25174 O 2456.13 -2.27877 0.168661 0
M  V30 25175 C 2456.34 -0.771553 3.40365 0
M  V30 25176 C 2457.69 -1.10353 4.10009 0
M  V30 25177 O 2458.71 -0.860243 3.45656 0
M  V30 25178 O 2457.57 -1.56229 5.23693 0
M  V30 25179 H 2454.66 -0.270265 0.781592 0
M  V30 25180 H 2457.21 0.204976 1.68458 0
M  V30 25181 H 2455.98 0.141162 3.91045 0
M  V30 25182 H 2455.61 -1.55535 3.65916 0
M  V30 25183 N 2456.6 -1.57237 -0.106866 0
M  V30 25184 C 2457.53 -2.04256 -1.13145 0
M  V30 25185 C 2458.51 -0.929249 -1.42474 0
M  V30 25186 O 2459.7 -1.19976 -1.52707 0
M  V30 25187 C 2456.83 -2.4571 -2.45446 0
M  V30 25188 C 2455.78 -3.60597 -2.30552 0
M  V30 25189 C 2455.11 -3.87989 -3.67925 0
M  V30 25190 C 2456.41 -4.919 -1.75588 0
M  V30 25191 H 2458.1 -2.90103 -0.740323 0
M  V30 25192 H 2455.65 -1.39564 -0.354672 0
M  V30 25193 H 2457.6 -2.7721 -3.17384 0
M  V30 25194 H 2456.33 -1.56848 -2.86472 0
M  V30 25195 H 2454.98 -3.29325 -1.61061 0
M  V30 25196 H 2454.63 -2.96314 -4.06457 0
M  V30 25197 H 2454.33 -4.65328 -3.58808 0
M  V30 25198 H 2455.86 -4.21953 -4.41348 0
M  V30 25199 H 2457.27 -5.21858 -2.37355 0
M  V30 25200 H 2455.67 -5.73322 -1.77262 0
M  V30 25201 H 2456.74 -4.79609 -0.714367 0
M  V30 25202 N 2458.08 0.377381 -1.53015 0
M  V30 25203 C 2459.33 1.12291 -1.68874 0
M  V30 25204 C 2459.66 1.89305 -0.433257 0
M  V30 25205 O 2458.93 1.85984 0.569225 0
M  V30 25206 C 2459.22 2.09173 -2.93119 0
M  V30 25207 C 2459.07 1.35846 -4.28796 0
M  V30 25208 C 2460.39 3.09452 -3.12934 0
M  V30 25209 H 2457.51 0.406851 -0.614525 0
M  V30 25210 H 2460.15 0.404997 -1.85633 0
M  V30 25211 H 2458.3 2.70394 -2.78961 0
M  V30 25212 H 2459.97 0.775002 -4.54743 0
M  V30 25213 H 2458.22 0.660289 -4.28745 0
M  V30 25214 H 2458.89 2.06697 -5.1184 0
M  V30 25215 H 2461.36 2.58328 -3.26199 0
M  V30 25216 H 2460.24 3.74474 -4.01323 0
M  V30 25217 H 2460.5 3.78967 -2.27676 0
M  V30 25218 N 2459.56 1.44175 0.636506 0
M  V30 25219 C 2460.49 1.53447 1.76 0
M  V30 25220 C 2461.47 0.38787 1.65619 0
M  V30 25221 O 2462.65 0.607289 1.8446 0
M  V30 25222 C 2459.78 1.47315 3.14508 0
M  V30 25223 C 2458.74 2.60397 3.39673 0
M  V30 25224 C 2458.06 2.39317 4.78154 0
M  V30 25225 C 2459.36 4.02573 3.32765 0
M  V30 25226 H 2461.06 2.47486 1.68497 0
M  V30 25227 H 2458.6 1.19112 0.809216 0
M  V30 25228 H 2460.56 1.52404 3.92875 0
M  V30 25229 H 2459.28 0.497906 3.22782 0
M  V30 25230 H 2457.94 2.54689 2.63684 0
M  V30 25231 H 2457.59 1.39997 4.83125 0
M  V30 25232 H 2457.29 3.1513 4.9595 0
M  V30 25233 H 2458.81 2.46215 5.58758 0
M  V30 25234 H 2460.23 4.09679 4.01044 0
M  V30 25235 H 2458.62 4.78547 3.62096 0
M  V30 25236 H 2459.69 4.26524 2.30662 0
M  V30 25237 N 2461.04 -0.876421 1.30983 0
M  V30 25238 C 2461.97 -1.98892 1.13906 0
M  V30 25239 C 2462.98 -1.62604 0.0799101 0
M  V30 25240 O 2464.17 -1.75483 0.326773 0
M  V30 25241 C 2461.27 -3.31234 0.716757 0
M  V30 25242 C 2460.44 -3.95905 1.85951 0
M  V30 25243 C 2459.5 -5.06556 1.42434 0
M  V30 25244 O 2458.53 -5.27725 2.13296 0
M  V30 25245 N 2459.73 -5.79682 0.308127 0
M  V30 25246 H 2462.5 -2.1409 2.09727 0
M  V30 25247 H 2460.06 -1.05002 1.23232 0
M  V30 25248 H 2462.05 -4.02633 0.408473 0
M  V30 25249 H 2460.62 -3.12242 -0.149664 0
M  V30 25250 H 2459.84 -3.17569 2.33546 0
M  V30 25251 H 2461.13 -4.35851 2.6251 0
M  V30 25252 H 2460.52 -5.64996 -0.282141 0
M  V30 25253 H 2459.08 -6.51773 0.0593428 0
M  V30 25254 N 2462.51 -1.13839 -1.08989 0
M  V30 25255 C 2463.93 -0.877529 -1.3331 0
M  V30 25256 C 2464.13 0.484526 -1.95588 0
M  V30 25257 O 2463.19 1.23009 -2.20511 0
M  V30 25258 C 2464.5 -2.00564 -2.24042 0
M  V30 25259 C 2466.05 -2.03825 -2.37538 0
M  V30 25260 C 2466.52 -3.15911 -3.31608 0
M  V30 25261 N 2468.01 -3.15451 -3.39183 0
M  V30 25262 C 2468.75 -3.98818 -4.11985 0
M  V30 25263 N 2468.24 -4.92211 -4.87545 0
M  V30 25264 N 2470.04 -3.86901 -4.07755 0
M  V30 25265 H 2462.19 -2.01575 -0.66942 0
M  V30 25266 H 2464.45 -0.878021 -0.357466 0
M  V30 25267 H 2464.16 -2.98792 -1.85516 0
M  V30 25268 H 2464.03 -1.92364 -3.24462 0
M  V30 25269 H 2466.42 -1.06207 -2.75326 0
M  V30 25270 H 2466.5 -2.16096 -1.36881 0
M  V30 25271 H 2466.14 -4.13771 -2.94543 0
M  V30 25272 H 2466.07 -3.00878 -4.32181 0
M  V30 25273 H 2468.56 -2.47804 -2.8531 0
M  V30 25274 H 2468.88 -5.52302 -5.40539 0
M  V30 25275 H 2467.22 -4.96214 -4.86618 0
M  V30 25276 H 2470.41 -3.13263 -3.47828 0
M  V30 25277 H 2470.59 -4.521 -4.6423 0
M  V30 25278 N 2463.99 1.27046 -0.932584 0
M  V30 25279 C 2465.23 1.95911 -0.582953 0
M  V30 25280 C 2465.6 1.71632 0.860599 0
M  V30 25281 O 2466.8 2.34228 1.31874 0
M  V30 25282 C 2465.07 3.45733 -0.905734 0
M  V30 25283 S 2466.63 4.33726 -0.665353 0
M  V30 25284 H 2463.45 0.67771 -0.215012 0
M  V30 25285 H 2466.05 1.54177 -1.20206 0
M  V30 25286 H 2464.75 3.60902 -1.95392 0
M  V30 25287 H 2464.28 3.92431 -0.276008 0
M  V30 25288 H 2466.3 4.93926 0.474548 0
M  V30 25289 N 2465.47 0.698636 1.41269 0
M  V30 25290 C 2466.71 0.235098 2.03043 0
M  V30 25291 C 2467.07 -1.14465 1.54148 0
M  V30 25292 O 2468.28 -1.70422 2.0787 0
M  V30 25293 C 2466.55 0.293714 3.56191 0
M  V30 25294 S 2468.11 -0.0953282 4.38696 0
M  V30 25295 H 2464.92 0.0944772 0.704695 0
M  V30 25296 H 2467.53 0.917094 1.72655 0
M  V30 25297 H 2466.23 1.29983 3.89272 0
M  V30 25298 H 2465.76 -0.407329 3.91286 0
M  V30 25299 H 2467.78 -1.32221 4.78259 0
M  V30 25300 N 2466.95 -1.51228 0.443603 0
M  V30 25301 C 2468.17 -2.07043 -0.121612 0
M  V30 25302 C 2468.6 -1.30825 -1.35153 0
M  V30 25303 O 2467.96 -0.347965 -1.77929 0
M  V30 25304 C 2468 -3.5819 -0.416177 0
M  V30 25305 O 2467.11 -3.84092 -1.50156 0
M  V30 25306 H 2466.45 -0.663999 0.000883038 0
M  V30 25307 H 2468.98 -1.94764 0.626741 0
M  V30 25308 H 2468.99 -4.02547 -0.664797 0
M  V30 25309 H 2467.66 -4.13089 0.482725 0
M  V30 25310 H 2466.24 -3.51594 -1.24241 0
M  V30 25311 N 2468.43 -0.175182 -1.56623 0
M  V30 25312 C 2469.67 0.467851 -1.9661 0
M  V30 25313 C 2470 1.63517 -1.06241 0
M  V30 25314 O 2469.27 1.95471 -0.129557 0
M  V30 25315 H 2467.85 0.175832 -0.726011 0
M  V30 25316 H 2470.51 -0.257268 -1.93195 0
M  V30 25317 H 2469.6 0.825289 -3.00991 0
M  V30 25318 N 2469.91 1.57292 0.0985263 0
M  V30 25319 C 2470.82 2.05139 1.13821 0
M  V30 25320 C 2471.83 0.975629 1.44075 0
M  V30 25321 O 2473.01 1.28856 1.54784 0
M  V30 25322 C 2470.07 2.46338 2.43964 0
M  V30 25323 C 2469.13 3.68091 2.20924 0
M  V30 25324 C 2468.37 4.07316 3.44862 0
M  V30 25325 O 2468.59 3.46667 4.52966 0
M  V30 25326 O 2467.52 5.00291 3.34652 0
M  V30 25327 H 2471.35 2.9399 0.761829 0
M  V30 25328 H 2468.93 1.46132 0.310792 0
M  V30 25329 H 2470.82 2.73479 3.20605 0
M  V30 25330 H 2469.49 1.60626 2.81035 0
M  V30 25331 H 2468.4 3.46071 1.42075 0
M  V30 25332 H 2469.73 4.54572 1.88747 0
M  V30 25333 N 2471.38 -0.369261 1.53213 0
M  V30 25334 C 2472.63 -1.11009 1.68883 0
M  V30 25335 C 2472.95 -1.8994 0.441319 0
M  V30 25336 O 2472.22 -1.88178 -0.54459 0
M  V30 25337 H 2470.8 -0.412805 0.622576 0
M  V30 25338 H 2473.46 -0.416768 1.90392 0
M  V30 25339 H 2472.56 -1.80196 2.54825 0
M  V30 25340 N 2472.86 -1.4451 -0.628851 0
M  V30 25341 C 2473.79 -1.54379 -1.75184 0
M  V30 25342 C 2474.77 -0.396647 -1.65411 0
M  V30 25343 O 2475.96 -0.617063 -1.84136 0
M  V30 25344 C 2473.09 -1.48981 -3.13723 0
M  V30 25345 C 2472.04 -2.62195 -3.38287 0
M  V30 25346 C 2471.37 -2.41849 -4.76879 0
M  V30 25347 C 2472.67 -4.04332 -3.30625 0
M  V30 25348 H 2474.36 -2.48376 -1.67182 0
M  V30 25349 H 2471.91 -1.1954 -0.802888 0
M  V30 25350 H 2473.86 -1.54485 -3.92062 0
M  V30 25351 H 2472.58 -0.515017 -3.22514 0
M  V30 25352 H 2471.24 -2.56084 -2.62329 0
M  V30 25353 H 2470.89 -1.42557 -4.82376 0
M  V30 25354 H 2470.59 -3.17756 -4.94272 0
M  V30 25355 H 2472.12 -2.49174 -5.57445 0
M  V30 25356 H 2473.53 -4.118 -3.98866 0
M  V30 25357 H 2471.93 -4.8046 -3.59553 0
M  V30 25358 H 2473 -4.27742 -2.28397 0
M  V30 25359 N 2474.34 0.869463 -1.31446 0
M  V30 25360 C 2475.27 1.98285 -1.14959 0
M  V30 25361 C 2476.28 1.62559 -0.0885323 0
M  V30 25362 O 2477.47 1.75308 -0.336075 0
M  V30 25363 C 2474.57 3.30849 -0.734313 0
M  V30 25364 C 2473.75 3.94913 -1.88048 0
M  V30 25365 C 2472.81 5.05793 -1.45119 0
M  V30 25366 O 2471.83 5.26586 -2.16091 0
M  V30 25367 N 2473.03 5.7951 -0.338865 0
M  V30 25368 H 2475.8 2.12975 -2.1086 0
M  V30 25369 H 2473.36 1.04347 -1.23787 0
M  V30 25370 H 2475.35 4.02411 -0.42982 0
M  V30 25371 H 2473.92 3.12317 0.133103 0
M  V30 25372 H 2473.14 3.16325 -2.35227 0
M  V30 25373 H 2474.43 4.34452 -2.64818 0
M  V30 25374 H 2473.83 5.65138 0.252174 0
M  V30 25375 H 2472.38 6.51732 -0.093907 0
M  V30 25376 N 2475.82 1.14415 1.08383 0
M  V30 25377 C 2477.07 0.907107 1.80151 0
M  V30 25378 C 2477.38 -0.567818 1.87177 0
M  V30 25379 O 2478.59 -0.922127 2.55361 0
M  V30 25380 C 2477.04 1.57342 3.23684 0
M  V30 25381 C 2476.65 3.08463 3.24892 0
M  V30 25382 C 2478.39 1.41751 4.00134 0
M  V30 25383 C 2476.3 3.67929 4.63014 0
M  V30 25384 H 2475.23 0.335726 0.675133 0
M  V30 25385 H 2477.88 1.37309 1.21731 0
M  V30 25386 H 2476.26 1.03511 3.82232 0
M  V30 25387 H 2477.44 3.68963 2.76049 0
M  V30 25388 H 2475.75 3.23694 2.61937 0
M  V30 25389 H 2478.35 1.83581 5.02197 0
M  V30 25390 H 2478.69 0.363649 4.14709 0
M  V30 25391 H 2479.23 1.9262 3.48055 0
M  V30 25392 H 2475.96 4.73169 4.53642 0
M  V30 25393 H 2475.48 3.1221 5.12138 0
M  V30 25394 H 2477.16 3.68236 5.31988 0
M  V30 25395 N 2477.3 -1.26549 0.939309 0
M  V30 25396 C 2478.71 -1.75792 0.628813 0
M  V30 25397 C 2479.06 -1.76541 -0.856015 0
M  V30 25398 O 2478.18 -1.37633 -1.66992 0
M  V30 25399 C 2478.78 -3.19233 1.13471 0
M  V30 25400 C 2477.34 -3.66096 0.874666 0
M  V30 25401 C 2476.48 -2.4564 1.28671 0
M  V30 25402 H 2479.43 -1.12652 1.11782 0
M  V30 25403 H 2479.46 -3.77362 0.487675 0
M  V30 25404 H 2478.97 -3.18656 2.2154 0
M  V30 25405 H 2477.07 -3.72106 -0.191728 0
M  V30 25406 H 2477.18 -4.55001 1.50036 0
M  V30 25407 H 2475.55 -2.44744 0.705152 0
M  V30 25408 H 2476.33 -2.47765 2.37629 0
M  V30 25409 N 2478.77 -0.706118 -1.40896 0
M  V30 25410 C 2480 -0.250923 -2.05373 0
M  V30 25411 C 2480.42 1.10378 -1.53174 0
M  V30 25412 O 2479.77 1.69184 -0.684335 0
M  V30 25413 C 2479.82 -0.211634 -3.6088 0
M  V30 25414 O 2479.55 -1.51283 -4.11151 0
M  V30 25415 C 2481.05 0.263268 -4.42518 0
M  V30 25416 H 2478.27 -0.114564 -0.661148 0
M  V30 25417 H 2480.81 -0.961666 -1.80478 0
M  V30 25418 H 2478.97 0.450005 -3.84777 0
M  V30 25419 H 2479.38 -1.40698 -5.05277 0
M  V30 25420 H 2480.85 0.239621 -5.5148 0
M  V30 25421 H 2481.33 1.30389 -4.19399 0
M  V30 25422 H 2481.94 -0.367751 -4.23707 0
M  V30 25423 N 2480.25 1.50991 -0.451617 0
M  V30 25424 C 2481.18 2.30969 0.342857 0
M  V30 25425 C 2482.16 1.37007 1.00813 0
M  V30 25426 O 2483.35 1.65928 1.00904 0
M  V30 25427 C 2480.48 3.16208 1.43631 0
M  V30 25428 C 2479.43 4.18564 0.893744 0
M  V30 25429 C 2478.76 4.92415 2.08403 0
M  V30 25430 C 2480.06 5.22236 -0.0816486 0
M  V30 25431 H 2481.75 2.97635 -0.324608 0
M  V30 25432 H 2479.3 1.43135 -0.157556 0
M  V30 25433 H 2481.25 3.70945 1.99944 0
M  V30 25434 H 2479.97 2.4739 2.13227 0
M  V30 25435 H 2478.63 3.64899 0.352734 0
M  V30 25436 H 2478.28 4.20087 2.76651 0
M  V30 25437 H 2477.98 5.61639 1.72731 0
M  V30 25438 H 2479.51 5.49981 2.65242 0
M  V30 25439 H 2480.92 5.71961 0.391642 0
M  V30 25440 H 2479.32 5.99069 -0.351656 0
M  V30 25441 H 2480.39 4.74183 -1.01382 0
M  V30 25442 N 2481.73 0.183486 1.56528 0
M  V30 25443 C 2482.95 -0.467393 2.02065 0
M  V30 25444 C 2483.38 -1.55194 1.06285 0
M  V30 25445 O 2482.74 -1.81246 0.0443883 0
M  V30 25446 C 2482.79 -1.01147 3.46124 0
M  V30 25447 O 2481.89 -2.12493 3.53441 0
M  V30 25448 H 2481.23 -0.110577 0.654728 0
M  V30 25449 H 2483.76 0.290953 2.02521 0
M  V30 25450 H 2483.77 -1.33101 3.85679 0
M  V30 25451 H 2482.45 -0.21746 4.15331 0
M  V30 25452 H 2481.02 -1.81491 3.25754 0
M  V30 25453 N 2483.21 -1.57342 -0.0901833 0
M  V30 25454 C 2484.62 -1.75236 -0.644142 0
M  V30 25455 C 2484.97 -0.806367 -1.78864 0
M  V30 25456 O 2484.09 0.0139747 -2.16395 0
M  V30 25457 C 2484.69 -3.17762 -1.17527 0
M  V30 25458 C 2483.25 -3.37064 -1.67525 0
M  V30 25459 C 2482.4 -2.71018 -0.586882 0
M  V30 25460 H 2485.35 -1.58117 0.135912 0
M  V30 25461 H 2485.37 -3.20906 -2.0445 0
M  V30 25462 H 2484.88 -3.8659 -0.34207 0
M  V30 25463 H 2482.98 -2.73324 -2.53229 0
M  V30 25464 H 2483.09 -4.45409 -1.76486 0
M  V30 25465 H 2481.46 -2.33054 -1.02752 0
M  V30 25466 H 2482.24 -3.42489 0.235818 0
M  V30 25467 N 2484.69 0.36113 -1.53407 0
M  V30 25468 C 2485.65 1.42545 -1.79481 0
M  V30 25469 C 2486.65 1.46389 -0.665353 0
M  V30 25470 O 2487.84 1.47071 -0.933575 0
M  V30 25471 C 2484.97 2.81626 -1.92092 0
M  V30 25472 H 2486.16 1.20696 -2.7454 0
M  V30 25473 H 2483.72 0.594521 -1.44552 0
M  V30 25474 H 2484.45 3.08783 -0.991153 0
M  V30 25475 H 2484.24 2.80235 -2.74246 0
M  V30 25476 H 2485.73 3.58694 -2.13842 0
M  V30 25477 N 2486.16 1.44842 0.621179 0
M  V30 25478 C 2487.58 1.42779 1.20296 0
M  V30 25479 C 2487.93 0.148293 1.95639 0
M  V30 25480 O 2487.05 -0.750857 2.02956 0
M  V30 25481 C 2487.65 2.58661 2.18815 0
M  V30 25482 C 2486.21 2.59761 2.72399 0
M  V30 25483 C 2485.35 2.34776 1.47566 0
M  V30 25484 H 2488.3 1.53278 0.41127 0
M  V30 25485 H 2488.32 2.31983 3.01603 0
M  V30 25486 H 2487.84 3.51769 1.63951 0
M  V30 25487 H 2485.94 1.70621 3.31239 0
M  V30 25488 H 2486.05 3.58561 3.17759 0
M  V30 25489 H 2484.41 1.84064 1.76047 0
M  V30 25490 H 2485.2 3.30012 0.945896 0
M  V30 25491 N 2487.64 -0.862479 1.31905 0
M  V30 25492 C 2488.92 -1.59906 1.12647 0
M  V30 25493 C 2489.3 -2.0872 -0.316067 0
M  V30 25494 O 2488.65 -1.87121 -1.31142 0
M  V30 25495 C 2488.86 -2.75126 2.14724 0
M  V30 25496 C 2490.21 -3.44903 2.47644 0
M  V30 25497 O 2491.23 -2.85342 2.1321 0
M  V30 25498 O 2490.09 -4.52365 3.0664 0
M  V30 25499 H 2487.18 -0.703863 0.434172 0
M  V30 25500 H 2489.73 -0.907289 1.4341 0
M  V30 25501 H 2488.5 -2.36524 3.11724 0
M  V30 25502 H 2488.12 -3.51985 1.84911 0
M  V30 25503 N 2489.12 -1.14988 -1.07775 0
M  V30 25504 C 2490.36 -0.932559 -1.81887 0
M  V30 25505 C 2490.72 0.531032 -1.8451 0
M  V30 25506 O 2491.93 0.866532 -2.5445 0
M  V30 25507 C 2490.2 -1.52479 -3.23241 0
M  V30 25508 S 2491.76 -1.44996 -4.14152 0
M  V30 25509 H 2488.57 -0.335723 -0.626746 0
M  V30 25510 H 2491.18 -1.46457 -1.29501 0
M  V30 25511 H 2489.88 -2.58301 -3.18918 0
M  V30 25512 H 2489.41 -0.991448 -3.80702 0
M  V30 25513 H 2491.43 -0.439886 -4.94246 0
M  V30 25514 N 2490.6 1.26049 -0.946007 0
M  V30 25515 C 2491.82 1.98148 -0.61256 0
M  V30 25516 C 2492.25 1.69928 0.806594 0
M  V30 25517 O 2491.61 0.950135 1.54409 0
M  V30 25518 C 2491.65 3.50021 -0.867043 0
M  V30 25519 O 2490.76 4.12359 0.0584609 0
M  V30 25520 H 2490.1 0.621477 -0.233801 0
M  V30 25521 H 2492.63 1.60392 -1.27025 0
M  V30 25522 H 2492.64 4.00281 -0.789862 0
M  V30 25523 H 2491.31 3.6989 -1.90142 0
M  V30 25524 H 2489.89 3.72834 -0.0701897 0
M  V30 25525 N 2492.08 0.71358 1.4052 0
M  V30 25526 C 2493.01 0.0203529 2.29191 0
M  V30 25527 C 2494.02 -0.725838 1.45724 0
M  V30 25528 O 2495.21 -0.573551 1.69034 0
M  V30 25529 C 2492.31 -0.995429 3.23951 0
M  V30 25530 C 2491.48 -0.315179 4.36263 0
M  V30 25531 C 2490.54 -1.23607 5.11476 0
M  V30 25532 O 2489.57 -0.721619 5.64607 0
M  V30 25533 N 2490.77 -2.56733 5.20642 0
M  V30 25534 H 2493.54 0.781702 2.89326 0
M  V30 25535 H 2491.1 0.561048 1.51868 0
M  V30 25536 H 2493.09 -1.61362 3.71139 0
M  V30 25537 H 2491.66 -1.65816 2.64998 0
M  V30 25538 H 2490.88 0.483175 3.91228 0
M  V30 25539 H 2492.17 0.157093 5.08557 0
M  V30 25540 H 2491.56 -3.01029 4.78955 0
M  V30 25541 H 2490.12 -3.13701 5.71345 0
M  V30 25542 N 2493.55 -1.50749 0.459618 0
M  V30 25543 C 2494.97 -1.867 0.00174828 0
M  V30 25544 C 2495.32 -1.37527 -1.39931 0
M  V30 25545 O 2494.44 -0.735385 -2.03522 0
M  V30 25546 C 2495.04 -3.388 -0.00360343 0
M  V30 25547 C 2493.6 -3.74204 -0.40596 0
M  V30 25548 C 2492.74 -2.74589 0.386778 0
M  V30 25549 H 2495.69 -1.43656 0.674438 0
M  V30 25550 H 2495.71 -3.71815 -0.808306 0
M  V30 25551 H 2495.23 -3.74559 1.01623 0
M  V30 25552 H 2493.33 -3.44043 -1.43057 0
M  V30 25553 H 2493.44 -4.78961 -0.115278 0
M  V30 25554 H 2491.8 -2.5421 -0.157974 0
M  V30 25555 H 2492.59 -3.13192 1.40591 0
M  V30 25556 N 2495.03 -0.191784 -1.56429 0
M  V30 25557 C 2495.96 0.725657 -2.21938 0
M  V30 25558 C 2496.94 1.22378 -1.18142 0
M  V30 25559 O 2498.13 1.27322 -1.46638 0
M  V30 25560 C 2495.26 1.94667 -2.87615 0
M  V30 25561 C 2494.21 1.58359 -3.97626 0
M  V30 25562 C 2493.54 2.88094 -4.50451 0
M  V30 25563 C 2494.84 0.796042 -5.16198 0
M  V30 25564 H 2496.53 0.179554 -2.98861 0
M  V30 25565 H 2494.08 0.0849212 -1.43749 0
M  V30 25566 H 2496.03 2.59367 -3.32124 0
M  V30 25567 H 2494.76 2.51725 -2.08092 0
M  V30 25568 H 2493.41 0.960185 -3.53802 0
M  V30 25569 H 2493.06 3.43235 -3.67694 0
M  V30 25570 H 2492.76 2.64547 -5.2468 0
M  V30 25571 H 2494.29 3.53789 -4.9766 0
M  V30 25572 H 2495.7 1.34608 -5.57273 0
M  V30 25573 H 2494.1 0.658823 -5.96473 0
M  V30 25574 H 2495.17 -0.203563 -4.84473 0
M  V30 25575 N 2496.51 1.57387 0.0818378 0
M  V30 25576 C 2497.79 1.77798 0.815312 0
M  V30 25577 C 2498.17 0.776825 1.96287 0
M  V30 25578 O 2497.52 -0.192066 2.27691 0
M  V30 25579 C 2497.73 3.23981 1.29759 0
M  V30 25580 C 2499.07 3.87533 1.73504 0
M  V30 25581 O 2500.1 3.27811 1.39351 0
M  V30 25582 O 2498.96 4.9258 2.367 0
M  V30 25583 H 2496.05 0.729319 0.389901 0
M  V30 25584 H 2498.6 1.69584 0.0626915 0
M  V30 25585 H 2497.37 3.88394 0.476012 0
M  V30 25586 H 2496.99 3.36879 2.11183 0
M  V30 25587 N 2497.99 -0.35299 1.53596 0
M  V30 25588 C 2499.23 -1.0959 1.7064 0
M  V30 25589 C 2499.57 -1.88592 0.463319 0
M  V30 25590 O 2498.84 -1.86866 -0.539564 0
M  V30 25591 C 2499.13 -2.04484 2.96409 0
M  V30 25592 C 2498.98 -1.29007 4.30903 0
M  V30 25593 C 2500.3 -3.04434 3.17817 0
M  V30 25594 H 2497.42 -0.397023 0.62092 0
M  V30 25595 H 2500.06 -0.375413 1.86254 0
M  V30 25596 H 2498.21 -2.65922 2.83228 0
M  V30 25597 H 2499.88 -0.702558 4.55919 0
M  V30 25598 H 2498.12 -0.591996 4.29742 0
M  V30 25599 H 2498.79 -1.98528 5.15064 0
M  V30 25600 H 2501.27 -2.53106 3.30267 0
M  V30 25601 H 2500.15 -3.68042 4.0723 0
M  V30 25602 H 2500.41 -3.75297 2.33676 0
M  V30 25603 N 2499.47 -1.45169 -0.613489 0
M  V30 25604 C 2500.72 -1.48153 -1.36871 0
M  V30 25605 C 2501.03 -0.125017 -1.952 0
M  V30 25606 O 2502.24 -0.0324653 -2.71481 0
M  V30 25607 C 2500.69 -2.60909 -2.47901 0
M  V30 25608 C 2500.3 -4.02846 -1.96009 0
M  V30 25609 C 2502.04 -2.73132 -3.2496 0
M  V30 25610 C 2499.95 -5.06994 -3.04485 0
M  V30 25611 H 2498.88 -0.551262 -0.514418 0
M  V30 25612 H 2501.53 -1.71291 -0.658152 0
M  V30 25613 H 2499.91 -2.31042 -3.21614 0
M  V30 25614 H 2501.09 -4.42362 -1.29044 0
M  V30 25615 H 2499.4 -3.9502 -1.31712 0
M  V30 25616 H 2502 -3.48113 -4.05859 0
M  V30 25617 H 2502.34 -1.7956 -3.75585 0
M  V30 25618 H 2502.88 -3.02495 -2.58344 0
M  V30 25619 H 2499.61 -6.02255 -2.58784 0
M  V30 25620 H 2499.13 -4.72053 -3.70036 0
M  V30 25621 H 2500.81 -5.31481 -3.68967 0
M  V30 25622 N 2500.95 0.855472 -1.32361 0
M  V30 25623 C 2501.88 1.97956 -1.23837 0
M  V30 25624 C 2502.86 1.69659 -0.122391 0
M  V30 25625 O 2504.04 1.91719 -0.309424 0
M  V30 25626 C 2501.17 3.33773 -0.959831 0
M  V30 25627 C 2500.13 3.7642 -2.03695 0
M  V30 25628 C 2499.45 5.09859 -1.61084 0
M  V30 25629 C 2500.75 3.91974 -3.45187 0
M  V30 25630 H 2502.45 2.05346 -2.17884 0
M  V30 25631 H 2499.99 0.986587 -1.04893 0
M  V30 25632 H 2501.94 4.11964 -0.88675 0
M  V30 25633 H 2500.67 3.26596 0.016283 0
M  V30 25634 H 2499.33 3.0048 -2.10018 0
M  V30 25635 H 2498.98 4.99137 -0.622195 0
M  V30 25636 H 2498.68 5.39364 -2.33152 0
M  V30 25637 H 2500.2 5.90544 -1.55211 0
M  V30 25638 H 2501.61 4.6052 -3.41458 0
M  V30 25639 H 2500.01 4.32896 -4.15598 0
M  V30 25640 H 2501.08 2.94913 -3.84908 0
M  V30 25641 N 2502.42 1.15558 1.07164 0
M  V30 25642 C 2503.35 0.877084 2.16401 0
M  V30 25643 C 2504.33 -0.173082 1.69217 0
M  V30 25644 O 2505.52 -0.0270498 1.94181 0
M  V30 25645 C 2502.65 0.367693 3.45348 0
M  V30 25646 C 2501.6 1.35475 4.05993 0
M  V30 25647 C 2500.93 0.704131 5.30043 0
M  V30 25648 C 2502.23 2.7214 4.45799 0
M  V30 25649 H 2503.92 1.79057 2.39956 0
M  V30 25650 H 2501.47 0.862351 1.15323 0
M  V30 25651 H 2503.42 0.160391 4.21095 0
M  V30 25652 H 2502.15 -0.58127 3.21386 0
M  V30 25653 H 2500.81 1.54845 3.32293 0
M  V30 25654 H 2500.45 -0.25104 5.02373 0
M  V30 25655 H 2500.15 1.36287 5.71576 0
M  V30 25656 H 2501.68 0.506647 6.08494 0
M  V30 25657 H 2503.09 2.56604 5.12667 0
M  V30 25658 H 2501.49 3.34406 4.9829 0
M  V30 25659 H 2502.56 3.2806 3.57078 0
M  V30 25660 N 2503.9 -1.25546 0.952678 0
M  V30 25661 C 2504.83 -2.28315 0.489327 0
M  V30 25662 C 2505.81 -1.63668 -0.46333 0
M  V30 25663 O 2507 -1.90783 -0.362707 0
M  V30 25664 C 2504.13 -3.465 -0.235542 0
M  V30 25665 C 2503.08 -4.23313 0.631668 0
M  V30 25666 C 2502.41 -5.34231 -0.223829 0
M  V30 25667 C 2503.71 -4.86171 1.9088 0
M  V30 25668 H 2505.4 -2.67324 1.34827 0
M  V30 25669 H 2502.95 -1.28508 0.64975 0
M  V30 25670 H 2504.9 -4.17516 -0.570809 0
M  V30 25671 H 2503.62 -3.06476 -1.12871 0
M  V30 25672 H 2502.28 -3.54077 0.949991 0
M  V30 25673 H 2501.93 -4.90448 -1.1167 0
M  V30 25674 H 2501.63 -5.86538 0.353094 0
M  V30 25675 H 2503.16 -6.08081 -0.554107 0
M  V30 25676 H 2504.57 -5.4934 1.64006 0
M  V30 25677 H 2502.97 -5.48645 2.43122 0
M  V30 25678 H 2504.04 -4.08466 2.61311 0
M  V30 25679 N 2505.38 -0.721022 -1.40139 0
M  V30 25680 C 2506.66 -0.189792 -1.94677 0
M  V30 25681 C 2507.04 1.30563 -1.65881 0
M  V30 25682 O 2506.38 2.06445 -0.979427 0
M  V30 25683 C 2506.59 -0.508365 -3.45278 0
M  V30 25684 C 2507.94 -0.450008 -4.22209 0
M  V30 25685 O 2508.97 -0.444739 -3.53413 0
M  V30 25686 O 2507.83 -0.432285 -5.44788 0
M  V30 25687 H 2504.92 -0.0299171 -0.826459 0
M  V30 25688 H 2507.47 -0.798927 -1.49717 0
M  V30 25689 H 2506.24 -1.54245 -3.59616 0
M  V30 25690 H 2505.86 0.130456 -3.97386 0
M  V30 25691 N 2506.86 1.50503 -0.467606 0
M  V30 25692 C 2508.11 2.01907 0.0884114 0
M  V30 25693 C 2508.43 1.3519 1.4053 0
M  V30 25694 O 2507.7 0.496112 1.89514 0
M  V30 25695 H 2506.28 0.746148 0.0356634 0
M  V30 25696 H 2508.94 1.84868 -0.617232 0
M  V30 25697 H 2508.03 3.11157 0.242445 0
M  V30 25698 N 2508.34 0.200077 1.56325 0
M  V30 25699 C 2509.56 -0.445935 2.02549 0
M  V30 25700 C 2509.99 -1.54058 1.07925 0
M  V30 25701 O 2509.34 -1.81188 0.0636093 0
M  V30 25702 C 2509.39 -0.9747 3.47177 0
M  V30 25703 O 2508.5 -2.08732 3.55675 0
M  V30 25704 H 2507.84 -0.103626 0.655864 0
M  V30 25705 H 2510.37 0.312417 2.02201 0
M  V30 25706 H 2510.38 -1.29003 3.87069 0
M  V30 25707 H 2509.05 -0.173397 4.15538 0
M  V30 25708 H 2507.63 -1.78026 3.2766 0
M  V30 25709 N 2509.81 -1.57429 -0.0734901 0
M  V30 25710 C 2511.04 -1.91775 -0.789753 0
M  V30 25711 C 2511.46 -0.796336 -1.70412 0
M  V30 25712 O 2510.82 0.250929 -1.79555 0
M  V30 25713 C 2510.87 -3.25069 -1.56084 0
M  V30 25714 O 2509.97 -3.14183 -2.67138 0
M  V30 25715 H 2509.31 -0.628033 -0.215571 0
M  V30 25716 H 2511.84 -2.04556 -0.0422421 0
M  V30 25717 H 2511.85 -3.58902 -1.94045 0
M  V30 25718 H 2510.53 -4.06267 -0.889943 0
M  V30 25719 H 2509.11 -2.91905 -2.32047 0
M  V30 25720 N 2511.29 0.344839 -1.53781 0
M  V30 25721 C 2512.52 1.10974 -1.75213 0
M  V30 25722 C 2512.94 1.81622 -0.489392 0
M  V30 25723 O 2512.3 1.72503 0.557895 0
M  V30 25724 C 2512.35 2.09988 -2.93151 0
M  V30 25725 O 2511.45 3.17482 -2.63209 0
M  V30 25726 H 2510.79 0.321011 -0.581247 0
M  V30 25727 H 2513.32 0.395626 -2.00739 0
M  V30 25728 H 2513.33 2.53232 -3.19903 0
M  V30 25729 H 2512.01 1.57963 -3.84734 0
M  V30 25730 H 2510.58 2.79065 -2.4734 0
M  V30 25731 N 2512.77 1.45492 0.605781 0
M  V30 25732 C 2514.02 1.49603 1.36474 0
M  V30 25733 C 2514.34 0.138486 1.94006 0
M  V30 25734 O 2513.6 -0.863083 1.7564 0
M  V30 25735 C 2513.9 2.52432 2.53007 0
M  V30 25736 C 2513.56 3.97091 2.1361 0
M  V30 25737 C 2512.23 4.3648 2.0258 0
M  V30 25738 C 2514.58 4.88058 1.82891 0
M  V30 25739 C 2511.91 5.64729 1.59054 0
M  V30 25740 C 2514.26 6.1672 1.4085 0
M  V30 25741 C 2512.92 6.55038 1.2838 0
M  V30 25742 H 2512.19 0.547437 0.499393 0
M  V30 25743 H 2514.84 1.78848 0.684515 0
M  V30 25744 H 2513.14 2.16764 3.26375 0
M  V30 25745 H 2514.84 2.5285 3.11236 0
M  V30 25746 H 2511.43 3.65943 2.23122 0
M  V30 25747 H 2515.62 4.58362 1.90309 0
M  V30 25748 H 2510.87 5.93211 1.48023 0
M  V30 25749 H 2515.05 6.8665 1.16126 0
M  V30 25750 H 2512.67 7.54313 0.94427 0
M  V30 25751 N 2514.25 -0.848441 1.32813 0
M  V30 25752 C 2515.66 -1.41912 1.21317 0
M  V30 25753 C 2516.01 -1.95446 -0.171812 0
M  V30 25754 O 2515.14 -1.88045 -1.07089 0
M  V30 25755 C 2515.73 -2.57964 2.19636 0
M  V30 25756 C 2514.29 -3.11013 2.12008 0
M  V30 25757 C 2513.44 -1.83779 2.07655 0
M  V30 25758 H 2516.39 -0.655045 1.44551 0
M  V30 25759 H 2516.41 -3.35312 1.79851 0
M  V30 25760 H 2515.92 -2.18971 3.20427 0
M  V30 25761 H 2514.02 -3.54575 1.14487 0
M  V30 25762 H 2514.13 -3.71836 3.02117 0
M  V30 25763 H 2512.5 -2.03635 1.52986 0
M  V30 25764 H 2513.28 -1.46994 3.10238 0
M  V30 25765 N 2515.73 -1.16125 -1.06549 0
M  V30 25766 C 2516.69 -0.867944 -2.12131 0
M  V30 25767 C 2517.69 0.135916 -1.60225 0
M  V30 25768 O 2518.88 -0.0946728 -1.73943 0
M  V30 25769 C 2516.01 -0.297479 -3.396 0
M  V30 25770 H 2517.2 -1.80389 -2.39583 0
M  V30 25771 H 2514.76 -0.969834 -1.22572 0
M  V30 25772 H 2515.49 0.646274 -3.17795 0
M  V30 25773 H 2515.28 -1.02079 -3.78579 0
M  V30 25774 H 2516.77 -0.110125 -4.17455 0
M  V30 25775 N 2517.2 1.25039 -0.959323 0
M  V30 25776 C 2518.43 1.97487 -0.633541 0
M  V30 25777 C 2518.85 1.70774 0.788525 0
M  V30 25778 O 2518.21 0.966458 1.53393 0
M  V30 25779 C 2518.26 3.49082 -0.904119 0
M  V30 25780 O 2517.36 4.12397 0.0147214 0
M  V30 25781 H 2516.71 0.618962 -0.240379 0
M  V30 25782 H 2519.24 1.59036 -1.28719 0
M  V30 25783 H 2519.25 3.99421 -0.832273 0
M  V30 25784 H 2517.92 3.67853 -1.94054 0
M  V30 25785 H 2516.5 3.72739 -0.10973 0
M  V30 25786 N 2518.68 0.728444 1.39755 0
M  V30 25787 C 2519.91 0.283153 2.0465 0
M  V30 25788 C 2520.32 -1.08466 1.55022 0
M  V30 25789 O 2519.66 -1.69534 0.707372 0
M  V30 25790 C 2519.73 0.199372 3.58947 0
M  V30 25791 C 2519.39 1.50458 4.31522 0
M  V30 25792 C 2520.39 2.44902 4.58606 0
M  V30 25793 C 2518.07 1.76706 4.70192 0
M  V30 25794 C 2520.07 3.63831 5.2336 0
M  V30 25795 C 2517.75 2.95915 5.34675 0
M  V30 25796 C 2518.75 3.89299 5.61191 0
M  V30 25797 O 2518.44 5.06415 6.24339 0
M  V30 25798 H 2518.17 0.122677 0.664775 0
M  V30 25799 H 2520.72 0.991019 1.79911 0
M  V30 25800 H 2518.95 -0.564542 3.82557 0
M  V30 25801 H 2520.64 -0.213054 4.0534 0
M  V30 25802 H 2521.41 2.25891 4.29183 0
M  V30 25803 H 2517.29 1.04867 4.48914 0
M  V30 25804 H 2520.83 4.36738 5.43973 0
M  V30 25805 H 2516.73 3.14829 5.63518 0
M  V30 25806 H 2517.5 5.06663 6.42833 0
M  V30 25807 N 2520.16 -1.50253 0.475581 0
M  V30 25808 C 2521.41 -2.0235 -0.0778563 0
M  V30 25809 C 2521.74 -1.35725 -1.39317 0
M  V30 25810 O 2520.99 -0.473428 -1.89887 0
M  V30 25811 C 2521.29 -3.56096 -0.305052 0
M  V30 25812 C 2520.96 -4.41224 0.929107 0
M  V30 25813 C 2519.62 -4.64207 1.26747 0
M  V30 25814 C 2521.97 -4.9092 1.75062 0
M  V30 25815 C 2519.3 -5.34133 2.42733 0
M  V30 25816 C 2521.65 -5.6212 2.9018 0
M  V30 25817 C 2520.31 -5.83356 3.24426 0
M  V30 25818 H 2519.58 -0.740452 -0.0284897 0
M  V30 25819 H 2522.23 -1.8082 0.630575 0
M  V30 25820 H 2520.54 -3.76165 -1.09577 0
M  V30 25821 H 2522.23 -3.93975 -0.747308 0
M  V30 25822 H 2518.82 -4.23558 0.655502 0
M  V30 25823 H 2523.01 -4.73014 1.50239 0
M  V30 25824 H 2518.26 -5.48782 2.69534 0
M  V30 25825 H 2522.44 -5.99608 3.5418 0
M  V30 25826 H 2520.06 -6.37315 4.14407 0
M  V30 25827 N 2521.64 -0.208365 -1.56217 0
M  V30 25828 C 2522.92 0.475201 -1.8974 0
M  V30 25829 C 2523.3 1.78699 -1.12383 0
M  V30 25830 O 2522.64 2.27349 -0.229019 0
M  V30 25831 C 2522.85 0.68104 -3.42291 0
M  V30 25832 C 2524.2 0.994434 -4.12791 0
M  V30 25833 O 2525.23 0.768296 -3.47816 0
M  V30 25834 O 2524.08 1.4229 -5.27651 0
M  V30 25835 H 2521.18 0.249447 -0.788483 0
M  V30 25836 H 2523.72 -0.249568 -1.67855 0
M  V30 25837 H 2522.5 -0.244791 -3.90534 0
M  V30 25838 H 2522.12 1.45778 -3.69911 0
M  V30 25839 N 2523.12 1.57465 0.0651402 0
M  V30 25840 C 2524.03 2.07507 1.09444 0
M  V30 25841 C 2525.04 1.00597 1.41973 0
M  V30 25842 O 2526.22 1.3211 1.52016 0
M  V30 25843 C 2523.28 2.51457 2.38684 0
M  V30 25844 C 2522.34 3.72695 2.13066 0
M  V30 25845 C 2521.58 4.14539 3.36144 0
M  V30 25846 O 2521.8 3.56197 4.45511 0
M  V30 25847 O 2520.73 5.07277 3.23965 0
M  V30 25848 H 2524.56 2.95539 0.699298 0
M  V30 25849 H 2522.15 1.46758 0.279726 0
M  V30 25850 H 2524.03 2.80218 3.14732 0
M  V30 25851 H 2522.7 1.66551 2.77565 0
M  V30 25852 H 2521.61 3.49007 1.34703 0
M  V30 25853 H 2522.94 4.58473 1.79062 0
M  V30 25854 N 2524.59 -0.336679 1.53962 0
M  V30 25855 C 2525.53 -1.43719 1.77257 0
M  V30 25856 C 2526.51 -1.50235 0.621957 0
M  V30 25857 O 2527.69 -1.67846 0.857903 0
M  V30 25858 C 2524.82 -2.81908 1.87738 0
M  V30 25859 C 2523.86 -2.92986 3.09938 0
M  V30 25860 S 2524.7 -2.58745 4.6884 0
M  V30 25861 C 2525.85 -3.9903 4.82209 0
M  V30 25862 H 2526.08 -1.23743 2.70324 0
M  V30 25863 H 2523.62 -0.532751 1.44918 0
M  V30 25864 H 2525.58 -3.61518 1.94461 0
M  V30 25865 H 2524.24 -2.99175 0.956718 0
M  V30 25866 H 2523.43 -3.9426 3.13967 0
M  V30 25867 H 2523.03 -2.21333 3.01476 0
M  V30 25868 H 2525.32 -4.93632 4.6404 0
M  V30 25869 H 2526.27 -3.99992 5.84305 0
M  V30 25870 H 2526.67 -3.87375 4.10611 0
M  V30 25871 N 2526.07 -1.45812 -0.598057 0
M  V30 25872 C 2527.02 -1.5521 -1.70817 0
M  V30 25873 C 2527.99 -0.397348 -1.61277 0
M  V30 25874 O 2529.17 -0.612069 -1.80716 0
M  V30 25875 C 2526.31 -1.53381 -3.09141 0
M  V30 25876 C 2525.43 -2.79478 -3.29418 0
M  V30 25877 C 2524.56 -2.69256 -4.57902 0
M  V30 25878 C 2523.6 -3.90363 -4.7147 0
M  V30 25879 N 2522.74 -3.78618 -5.91264 0
M  V30 25880 H 2527.58 -2.50042 -1.62121 0
M  V30 25881 H 2525.12 -1.24063 -0.790367 0
M  V30 25882 H 2527.07 -1.50307 -3.89183 0
M  V30 25883 H 2525.7 -0.620932 -3.16772 0
M  V30 25884 H 2524.76 -2.92598 -2.43086 0
M  V30 25885 H 2526.07 -3.69278 -3.35314 0
M  V30 25886 H 2525.22 -2.64202 -5.46152 0
M  V30 25887 H 2523.96 -1.77071 -4.5442 0
M  V30 25888 H 2522.97 -3.95765 -3.81641 0
M  V30 25889 H 2524.19 -4.83625 -4.76743 0
M  V30 25890 H 2522.14 -2.89209 -5.88807 0
M  V30 25891 H 2522.05 -4.6206 -5.98361 0
M  V30 25892 H 2523.32 -3.77513 -6.81985 0
M  V30 25893 N 2527.55 0.841385 -1.33261 0
M  V30 25894 C 2528.78 1.63383 -1.27753 0
M  V30 25895 C 2529.2 1.87508 0.149155 0
M  V30 25896 O 2528.56 1.43738 1.10495 0
M  V30 25897 C 2528.61 2.96261 -2.05576 0
M  V30 25898 O 2527.71 3.87451 -1.41264 0
M  V30 25899 H 2527.05 0.49761 -0.439636 0
M  V30 25900 H 2529.58 1.04696 -1.75784 0
M  V30 25901 H 2529.59 3.45979 -2.16247 0
M  V30 25902 H 2528.27 2.78025 -3.09314 0
M  V30 25903 H 2526.84 3.45935 -1.39223 0
M  V30 25904 N 2529.03 1.16688 1.05932 0
M  V30 25905 C 2530.28 0.950653 1.78798 0
M  V30 25906 C 2530.6 -0.521272 1.87385 0
M  V30 25907 O 2529.86 -1.40294 1.36441 0
M  V30 25908 C 2530.16 1.52773 3.23102 0
M  V30 25909 C 2529.82 3.0226 3.34589 0
M  V30 25910 C 2528.49 3.43065 3.37431 0
M  V30 25911 C 2530.84 3.9826 3.36212 0
M  V30 25912 C 2528.17 4.78483 3.39516 0
M  V30 25913 C 2530.52 5.33568 3.39835 0
M  V30 25914 C 2529.18 5.73848 3.40961 0
M  V30 25915 H 2528.45 0.347869 0.654269 0
M  V30 25916 H 2531.1 1.45461 1.24553 0
M  V30 25917 H 2529.4 0.945307 3.80225 0
M  V30 25918 H 2531.1 1.33606 3.78088 0
M  V30 25919 H 2527.69 2.69726 3.33085 0
M  V30 25920 H 2531.88 3.67798 3.33224 0
M  V30 25921 H 2527.13 5.09015 3.38694 0
M  V30 25922 H 2531.31 6.07739 3.40039 0
M  V30 25923 H 2528.93 6.78759 3.4233 0
M  V30 25924 N 2530.51 -1.24529 0.96594 0
M  V30 25925 C 2531.47 -2.23689 0.499586 0
M  V30 25926 C 2532.47 -1.5567 -0.402913 0
M  V30 25927 O 2533.66 -1.73064 -0.198619 0
M  V30 25928 C 2530.79 -3.39775 -0.276732 0
M  V30 25929 H 2531.99 -2.66461 1.37618 0
M  V30 25930 H 2529.54 -1.37111 0.750348 0
M  V30 25931 H 2530.27 -3.0244 -1.1705 0
M  V30 25932 H 2530.06 -3.90342 0.370895 0
M  V30 25933 H 2531.55 -4.13381 -0.592103 0
M  V30 25934 N 2531.99 -0.735845 -1.39367 0
M  V30 25935 C 2532.93 -0.096423 -2.30598 0
M  V30 25936 C 2533.9 0.728768 -1.49259 0
M  V30 25937 O 2535.09 0.688557 -1.77943 0
M  V30 25938 C 2532.23 0.804246 -3.35598 0
M  V30 25939 C 2531.34 -0.033652 -4.31987 0
M  V30 25940 C 2530.48 0.868369 -5.24054 0
M  V30 25941 C 2529.51 0.02577 -6.12095 0
M  V30 25942 N 2528.65 0.883771 -6.96516 0
M  V30 25943 H 2533.49 -0.880052 -2.84709 0
M  V30 25944 H 2531.03 -0.445644 -1.40187 0
M  V30 25945 H 2532.99 1.34089 -3.95064 0
M  V30 25946 H 2531.62 1.55384 -2.82941 0
M  V30 25947 H 2530.67 -0.687726 -3.74132 0
M  V30 25948 H 2531.98 -0.685123 -4.94072 0
M  V30 25949 H 2531.13 1.47283 -5.88551 0
M  V30 25950 H 2529.87 1.55362 -4.62292 0
M  V30 25951 H 2528.88 -0.591482 -5.46609 0
M  V30 25952 H 2530.1 -0.656274 -6.75921 0
M  V30 25953 H 2528.05 1.5543 -6.37321 0
M  V30 25954 H 2527.97 0.288798 -7.55448 0
M  V30 25955 H 2529.23 1.47376 -7.65441 0
M  V30 25956 N 2533.46 1.49999 -0.483543 0
M  V30 25957 C 2534.43 2.2732 0.292925 0
M  V30 25958 C 2535.43 1.32609 0.909476 0
M  V30 25959 O 2536.62 1.55925 0.776718 0
M  V30 25960 C 2533.75 3.09987 1.41849 0
M  V30 25961 H 2534.94 2.97414 -0.385342 0
M  V30 25962 H 2532.49 1.54478 -0.23797 0
M  V30 25963 H 2533.23 2.44418 2.13144 0
M  V30 25964 H 2533.01 3.79603 0.982048 0
M  V30 25965 H 2534.5 3.68432 1.9659 0
M  V30 25966 N 2534.94 0.216646 1.56104 0
M  V30 25967 C 2536.19 -0.416381 1.98173 0
M  V30 25968 C 2536.52 -1.6012 1.10416 0
M  V30 25969 O 2535.77 -1.9514 0.148001 0
M  V30 25970 C 2536.07 -0.898403 3.45924 0
M  V30 25971 C 2535.74 0.175367 4.50559 0
M  V30 25972 C 2534.4 0.470355 4.78896 0
M  V30 25973 C 2536.75 0.901818 5.13339 0
M  V30 25974 C 2534.08 1.4964 5.67296 0
M  V30 25975 C 2536.43 1.91716 6.0285 0
M  V30 25976 C 2535.09 2.21912 6.29533 0
M  V30 25977 H 2534.36 -0.152365 0.725166 0
M  V30 25978 H 2537.01 0.318137 1.88839 0
M  V30 25979 H 2535.32 -1.71159 3.52437 0
M  V30 25980 H 2537.01 -1.39796 3.75843 0
M  V30 25981 H 2533.6 -0.0647052 4.28551 0
M  V30 25982 H 2537.79 0.687159 4.9152 0
M  V30 25983 H 2533.04 1.73602 5.86236 0
M  V30 25984 H 2537.22 2.48516 6.50548 0
M  V30 25985 H 2534.84 3.0156 6.97829 0
M  V30 25986 N 2536.42 -1.57498 -0.0567885 0
M  V30 25987 C 2537.67 -1.87159 -0.751968 0
M  V30 25988 C 2537.98 -0.811406 -1.77976 0
M  V30 25989 O 2539.19 -0.996338 -2.52558 0
M  V30 25990 C 2537.64 -3.32042 -1.38838 0
M  V30 25991 C 2537.25 -4.46225 -0.398377 0
M  V30 25992 C 2539 -3.70885 -2.06505 0
M  V30 25993 C 2536.9 -5.82156 -1.04156 0
M  V30 25994 H 2535.83 -0.698227 -0.284597 0
M  V30 25995 H 2538.48 -1.83499 -0.00558046 0
M  V30 25996 H 2536.87 -3.3036 -2.18354 0
M  V30 25997 H 2538.04 -4.59328 0.368058 0
M  V30 25998 H 2536.35 -4.16034 0.174665 0
M  V30 25999 H 2538.95 -4.69745 -2.55429 0
M  V30 26000 H 2539.29 -3.0145 -2.87112 0
M  V30 26001 H 2539.83 -3.74623 -1.33801 0
M  V30 26002 H 2536.57 -6.54921 -0.275498 0
M  V30 26003 H 2536.09 -5.72826 -1.7785 0
M  V30 26004 H 2537.77 -6.27985 -1.55704 0
M  V30 26005 N 2537.9 0.328509 -1.54138 0
M  V30 26006 C 2539.12 1.09109 -1.7638 0
M  V30 26007 C 2539.55 1.81093 -0.508628 0
M  V30 26008 O 2538.91 1.73085 0.539567 0
M  V30 26009 C 2538.95 2.06867 -2.95361 0
M  V30 26010 O 2538.06 3.14673 -2.66561 0
M  V30 26011 H 2537.4 0.314828 -0.584619 0
M  V30 26012 H 2539.93 0.374313 -2.01147 0
M  V30 26013 H 2539.94 2.49824 -3.22571 0
M  V30 26014 H 2538.61 1.53874 -3.86388 0
M  V30 26015 H 2537.19 2.76426 -2.50286 0
M  V30 26016 N 2539.38 1.46127 0.590316 0
M  V30 26017 C 2540.32 1.56114 1.69992 0
M  V30 26018 C 2541.29 0.405895 1.61064 0
M  V30 26019 O 2542.48 0.621645 1.80389 0
M  V30 26020 C 2539.62 1.55018 3.08323 0
M  V30 26021 C 2538.73 2.81221 3.27931 0
M  V30 26022 C 2537.87 2.71681 4.56468 0
M  V30 26023 C 2536.9 3.92857 4.69393 0
M  V30 26024 N 2536.04 3.81749 5.89247 0
M  V30 26025 H 2540.88 2.50898 1.60792 0
M  V30 26026 H 2538.42 1.2448 0.783777 0
M  V30 26027 H 2540.38 1.52369 3.88381 0
M  V30 26028 H 2539.01 0.637722 3.16438 0
M  V30 26029 H 2538.06 2.93883 2.4153 0
M  V30 26030 H 2539.37 3.71051 3.33351 0
M  V30 26031 H 2538.52 2.67095 5.44743 0
M  V30 26032 H 2537.26 1.79478 4.53474 0
M  V30 26033 H 2536.27 3.97784 3.79537 0
M  V30 26034 H 2537.49 4.86147 4.74171 0
M  V30 26035 H 2535.44 2.92327 5.87265 0
M  V30 26036 H 2535.36 4.65227 5.95902 0
M  V30 26037 H 2536.62 3.81124 6.79974 0
M  V30 26038 N 2540.85 -0.834306 1.33705 0
M  V30 26039 C 2541.82 -1.92601 1.24247 0
M  V30 26040 C 2542.82 -1.59998 0.160411 0
M  V30 26041 O 2544.01 -1.69252 0.412257 0
M  V30 26042 C 2541.14 -3.28374 0.915608 0
M  V30 26043 H 2542.33 -2.02412 2.2129 0
M  V30 26044 H 2539.88 -1.02694 1.17829 0
M  V30 26045 H 2540.62 -3.24258 -0.0521316 0
M  V30 26046 H 2540.4 -3.53419 1.69817 0
M  V30 26047 H 2541.89 -4.08345 0.874303 0
M  V30 26048 N 2542.33 -1.17248 -1.05312 0
M  V30 26049 C 2543.28 -0.884276 -2.15136 0
M  V30 26050 C 2544.27 0.1506 -1.68729 0
M  V30 26051 O 2545.48 0.00363509 -1.8 0
M  V30 26052 H 2541.85 -0.268412 -0.702466 0
M  V30 26053 H 2543.83 -1.81769 -2.36649 0
M  V30 26054 C 2542.57 -0.41272 -3.45242 0
M  V30 26055 H 2541.9 -1.2005 -3.8135 0
M  V30 26056 H 2543.34 -0.249932 -4.23263 0
M  V30 26057 C 2541.8 0.869423 -3.25488 0
M  V30 26058 O 2542.33 1.93649 -3.51942 0
M  V30 26059 N 2540.53 0.817098 -2.78876 0
M  V30 26060 H 2540.08 -0.0514664 -2.57549 0
M  V30 26061 H 2540.04 1.67543 -2.66039 0
M  V30 26062 N 2543.81 1.24015 -0.972531 0
M  V30 26063 C 2545.06 1.91522 -0.632636 0
M  V30 26064 C 2545.37 1.76806 0.83661 0
M  V30 26065 O 2546.58 2.39045 1.28723 0
M  V30 26066 C 2545.03 3.43286 -1.08088 0
M  V30 26067 C 2544.64 3.66679 -2.57392 0
M  V30 26068 C 2546.39 4.16615 -0.814362 0
M  V30 26069 C 2544.29 5.12038 -2.95924 0
M  V30 26070 H 2543.22 0.717125 -0.232911 0
M  V30 26071 H 2545.87 1.4058 -1.17938 0
M  V30 26072 H 2544.26 3.93291 -0.462409 0
M  V30 26073 H 2545.43 3.27253 -3.24411 0
M  V30 26074 H 2543.75 3.06644 -2.81706 0
M  V30 26075 H 2546.34 5.23717 -1.07819 0
M  V30 26076 H 2546.69 4.15552 0.249477 0
M  V30 26077 H 2547.22 3.72574 -1.39404 0
M  V30 26078 H 2543.96 5.18227 -4.01399 0
M  V30 26079 H 2543.48 5.52444 -2.33593 0
M  V30 26080 H 2545.16 5.80309 -2.86096 0
M  V30 26081 N 2545.29 0.743226 1.38974 0
M  V30 26082 C 2546.54 0.294205 1.99947 0
M  V30 26083 C 2546.86 -1.12492 1.59281 0
M  V30 26084 O 2546.13 -1.76746 0.844839 0
M  V30 26085 H 2544.71 0.105787 0.739472 0
M  V30 26086 H 2547.37 0.955016 1.69898 0
M  V30 26087 H 2546.47 0.349111 3.10141 0
M  V30 26088 N 2546.77 -1.4974 0.491491 0
M  V30 26089 C 2548.18 -1.86654 0.0413497 0
M  V30 26090 C 2548.53 -1.40464 -1.36983 0
M  V30 26091 O 2547.65 -0.77839 -2.01916 0
M  V30 26092 C 2548.25 -3.38731 0.0682618 0
M  V30 26093 C 2546.81 -3.74981 -0.326495 0
M  V30 26094 C 2545.95 -2.73707 0.444936 0
M  V30 26095 H 2548.91 -1.42193 0.704758 0
M  V30 26096 H 2548.93 -3.73446 -0.729256 0
M  V30 26097 H 2548.44 -3.72319 1.09545 0
M  V30 26098 H 2546.54 -3.47 -1.35728 0
M  V30 26099 H 2546.65 -4.79098 -0.0136568 0
M  V30 26100 H 2545.02 -2.54488 -0.104017 0
M  V30 26101 H 2545.8 -3.10139 1.47203 0
M  V30 26102 N 2548.24 -0.224922 -1.55987 0
M  V30 26103 C 2549.66 0.130398 -1.59066 0
M  V30 26104 C 2549.86 1.58688 -1.24179 0
M  V30 26105 O 2548.92 2.32764 -0.978633 0
M  V30 26106 C 2550.23 -0.198935 -3.00041 0
M  V30 26107 C 2551.78 -0.141446 -3.1268 0
M  V30 26108 C 2552.25 -0.444502 -4.55838 0
M  V30 26109 N 2553.74 -0.394196 -4.6152 0
M  V30 26110 C 2554.48 -0.602138 -5.7023 0
M  V30 26111 N 2553.97 -0.872035 -6.8729 0
M  V30 26112 N 2555.77 -0.534344 -5.59554 0
M  V30 26113 H 2547.92 -1.17501 -1.76939 0
M  V30 26114 H 2550.18 -0.471212 -0.822596 0
M  V30 26115 H 2549.89 -1.20995 -3.30232 0
M  V30 26116 H 2549.76 0.48447 -3.74076 0
M  V30 26117 H 2552.15 0.860215 -2.82284 0
M  V30 26118 H 2552.23 -0.858377 -2.40968 0
M  V30 26119 H 2551.87 -1.44362 -4.86952 0
M  V30 26120 H 2551.8 0.29366 -5.25781 0
M  V30 26121 H 2554.29 -0.193422 -3.77405 0
M  V30 26122 H 2554.61 -1.01871 -7.66056 0
M  V30 26123 H 2552.95 -0.909266 -6.89026 0
M  V30 26124 H 2556.14 -0.323694 -4.66979 0
M  V30 26125 H 2556.32 -0.699806 -6.4421 0
M  V30 26126 N 2549.72 1.57526 0.0484352 0
M  V30 26127 C 2550.65 2.08314 1.05486 0
M  V30 26128 C 2551.63 0.981488 1.38927 0
M  V30 26129 O 2552.82 1.25561 1.48149 0
M  V30 26130 C 2549.95 2.5465 2.36158 0
M  V30 26131 C 2548.9 3.68905 2.1701 0
M  V30 26132 C 2548.23 4.01377 3.53271 0
M  V30 26133 C 2549.53 4.98078 1.57211 0
M  V30 26134 H 2551.22 2.9265 0.632144 0
M  V30 26135 H 2548.77 1.40784 0.302629 0
M  V30 26136 H 2550.72 2.88799 3.06877 0
M  V30 26137 H 2549.45 1.67373 2.80453 0
M  V30 26138 H 2548.1 3.35076 1.48727 0
M  V30 26139 H 2547.75 3.11195 3.95179 0
M  V30 26140 H 2547.45 4.78324 3.41291 0
M  V30 26141 H 2548.98 4.38043 4.25384 0
M  V30 26142 H 2550.39 5.30307 2.17823 0
M  V30 26143 H 2548.79 5.79506 1.55861 0
M  V30 26144 H 2549.86 4.8193 0.535871 0
M  V30 26145 N 2551.2 -0.32033 1.5431 0
M  V30 26146 C 2552.43 -1.07735 1.76638 0
M  V30 26147 C 2552.84 -1.81597 0.516522 0
M  V30 26148 O 2552.2 -1.75144 -0.512911 0
M  V30 26149 C 2552.25 -2.07293 2.96162 0
M  V30 26150 O 2551.97 -1.36431 4.16315 0
M  V30 26151 C 2553.47 -2.95188 3.30725 0
M  V30 26152 H 2550.69 -0.320328 0.589602 0
M  V30 26153 H 2553.24 -0.365475 2.01208 0
M  V30 26154 H 2551.39 -2.74011 2.73856 0
M  V30 26155 H 2551.81 -2.03129 4.83569 0
M  V30 26156 H 2553.28 -3.60933 4.17649 0
M  V30 26157 H 2553.76 -3.62459 2.48033 0
M  V30 26158 H 2554.36 -2.34028 3.55121 0
M  V30 26159 N 2552.68 -1.46438 -0.582558 0
M  V30 26160 C 2553.61 -1.53046 -1.70615 0
M  V30 26161 C 2554.62 -0.418796 -1.57321 0
M  V30 26162 O 2555.81 -0.687165 -1.64743 0
M  V30 26163 C 2552.91 -1.3948 -3.08867 0
M  V30 26164 C 2552.09 -2.64768 -3.48162 0
M  V30 26165 C 2551.14 -2.45398 -4.65474 0
M  V30 26166 O 2550.17 -3.19122 -4.71328 0
M  V30 26167 N 2551.37 -1.51574 -5.60362 0
M  V30 26168 H 2554.14 -2.49926 -1.654 0
M  V30 26169 H 2551.7 -1.42496 -0.768542 0
M  V30 26170 H 2553.69 -1.24294 -3.8514 0
M  V30 26171 H 2552.26 -0.507812 -3.08448 0
M  V30 26172 H 2551.48 -2.94895 -2.61592 0
M  V30 26173 H 2552.77 -3.47997 -3.71182 0
M  V30 26174 H 2552.17 -0.907803 -5.58369 0
M  V30 26175 H 2550.72 -1.42351 -6.36066 0
M  V30 26176 N 2554.16 0.827204 -1.34146 0
M  V30 26177 C 2555.4 1.58552 -1.26448 0
M  V30 26178 C 2555.74 1.93486 0.166366 0
M  V30 26179 O 2555.01 1.59669 1.11067 0
M  V30 26180 C 2555.29 2.88786 -2.15116 0
M  V30 26181 C 2555.15 2.60459 -3.66717 0
M  V30 26182 C 2556.47 3.9032 -2.03318 0
M  V30 26183 H 2553.58 0.575276 -0.46068 0
M  V30 26184 H 2556.23 0.95324 -1.64357 0
M  V30 26185 H 2554.38 3.42745 -1.82916 0
M  V30 26186 H 2556.05 2.12842 -4.09263 0
M  V30 26187 H 2554.29 1.93971 -3.88018 0
M  V30 26188 H 2554.96 3.5331 -4.24118 0
M  V30 26189 H 2557.44 3.45702 -2.3158 0
M  V30 26190 H 2556.31 4.79256 -2.6759 0
M  V30 26191 H 2556.58 4.30435 -1.00887 0
M  V30 26192 N 2555.63 1.17805 1.04688 0
M  V30 26193 C 2556.86 0.994845 1.81982 0
M  V30 26194 C 2557.28 -0.45208 1.82587 0
M  V30 26195 O 2556.64 -1.32398 1.23857 0
M  V30 26196 C 2556.69 1.54664 3.25747 0
M  V30 26197 O 2555.79 0.763799 4.05265 0
M  V30 26198 H 2555.14 0.352867 0.562477 0
M  V30 26199 H 2557.67 1.56419 1.31887 0
M  V30 26200 H 2557.68 1.57109 3.76538 0
M  V30 26201 H 2556.35 2.59987 3.24622 0
M  V30 26202 H 2554.93 0.811172 3.6397 0
M  V30 26203 N 2557.11 -1.23497 0.979094 0
M  V30 26204 C 2558.36 -1.92162 0.648212 0
M  V30 26205 C 2558.69 -1.76224 -0.816018 0
M  V30 26206 O 2557.97 -1.1224 -1.58847 0
M  V30 26207 C 2558.25 -3.44822 1.03779 0
M  V30 26208 C 2558.1 -3.69874 2.55955 0
M  V30 26209 C 2559.42 -4.36252 0.58073 0
M  V30 26210 H 2556.54 -0.697866 0.236964 0
M  V30 26211 H 2559.18 -1.45645 1.22014 0
M  V30 26212 H 2557.33 -3.84571 0.551126 0
M  V30 26213 H 2559 -3.39615 3.12185 0
M  V30 26214 H 2557.25 -3.14631 2.98647 0
M  V30 26215 H 2557.92 -4.76732 2.78263 0
M  V30 26216 H 2560.39 -4.03941 0.998536 0
M  V30 26217 H 2559.27 -5.41771 0.881759 0
M  V30 26218 H 2559.53 -4.39043 -0.518975 0
M  V30 26219 N 2558.59 -0.750586 -1.38578 0
M  V30 26220 C 2559.52 -0.136278 -2.33102 0
M  V30 26221 C 2560.5 0.706937 -1.54714 0
M  V30 26222 O 2561.69 0.648737 -1.83044 0
M  V30 26223 C 2558.82 0.759957 -3.38883 0
M  V30 26224 C 2557.77 0.0197032 -4.27995 0
M  V30 26225 C 2557.1 1.03399 -5.24607 0
M  V30 26226 C 2558.4 -1.14693 -5.09552 0
M  V30 26227 H 2560.09 -0.925872 -2.84724 0
M  V30 26228 H 2557.64 -0.446678 -1.36897 0
M  V30 26229 H 2559.59 1.19936 -4.03972 0
M  V30 26230 H 2558.31 1.58184 -2.85737 0
M  V30 26231 H 2556.97 -0.400248 -3.64409 0
M  V30 26232 H 2556.62 1.84985 -4.67749 0
M  V30 26233 H 2556.32 0.543361 -5.85082 0
M  V30 26234 H 2557.85 1.47278 -5.92572 0
M  V30 26235 H 2559.26 -0.785218 -5.67897 0
M  V30 26236 H 2557.66 -1.56822 -5.79247 0
M  V30 26237 H 2558.73 -1.96126 -4.43466 0
M  V30 26238 N 2560.07 1.49477 -0.499425 0
M  V30 26239 C 2561 2.27004 0.316535 0
M  V30 26240 C 2562.01 1.33481 0.932024 0
M  V30 26241 O 2563.2 1.58776 0.81563 0
M  V30 26242 C 2560.3 3.05815 1.4605 0
M  V30 26243 C 2559.48 4.26901 0.952604 0
M  V30 26244 C 2558.54 4.87771 1.97398 0
M  V30 26245 O 2557.56 5.47882 1.54316 0
M  V30 26246 N 2558.76 4.77282 3.30428 0
M  V30 26247 H 2561.53 2.9767 -0.348221 0
M  V30 26248 H 2559.09 1.58462 -0.331878 0
M  V30 26249 H 2561.08 3.4341 2.14129 0
M  V30 26250 H 2559.65 2.37766 2.02944 0
M  V30 26251 H 2558.87 3.94081 0.0967555 0
M  V30 26252 H 2560.16 5.05348 0.591651 0
M  V30 26253 H 2559.56 4.29541 3.68119 0
M  V30 26254 H 2558.11 5.19066 3.94226 0
M  V30 26255 N 2561.55 0.233191 1.55865 0
M  V30 26256 C 2562.78 -0.39929 2.02705 0
M  V30 26257 C 2563.19 -1.53067 1.11207 0
M  V30 26258 O 2562.53 -1.83332 0.116214 0
M  V30 26259 C 2562.59 -0.981369 3.45846 0
M  V30 26260 C 2562.25 0.0160365 4.56997 0
M  V30 26261 C 2563.25 0.820642 5.13382 0
M  V30 26262 C 2560.94 0.138161 5.0211 0
M  V30 26263 C 2562.93 1.73396 6.13362 0
M  V30 26264 C 2560.62 1.055 6.01924 0
M  V30 26265 C 2561.62 1.85144 6.57427 0
M  V30 26266 O 2561.3 2.75285 7.55297 0
M  V30 26267 H 2561.04 -0.10068 0.668461 0
M  V30 26268 H 2563.59 0.350555 2.02386 0
M  V30 26269 H 2561.82 -1.78052 3.4327 0
M  V30 26270 H 2563.51 -1.52248 3.76265 0
M  V30 26271 H 2564.27 0.736805 4.79371 0
M  V30 26272 H 2560.15 -0.471656 4.58581 0
M  V30 26273 H 2563.7 2.35604 6.5661 0
M  V30 26274 H 2559.59 1.13981 6.35357 0
M  V30 26275 H 2560.36 2.69491 7.72863 0
M  V30 26276 N 2563.03 -1.57549 -0.0400806 0
M  V30 26277 C 2564.27 -1.88392 -0.731644 0
M  V30 26278 C 2564.59 -0.829456 -1.7648 0
M  V30 26279 O 2563.86 0.138265 -1.95411 0
M  V30 26280 H 2562.44 -0.695244 -0.273213 0
M  V30 26281 H 2565.11 -1.94898 -0.00864299 0
M  V30 26282 H 2564.2 -2.86921 -1.22811 0
M  V30 26283 N 2564.5 0.312142 -1.54478 0
M  V30 26284 C 2565.73 1.07232 -1.77528 0
M  V30 26285 C 2566.15 1.80543 -0.527807 0
M  V30 26286 O 2565.51 1.73647 0.521179 0
M  V30 26287 C 2565.56 2.03723 -2.97539 0
M  V30 26288 O 2564.66 3.11828 -2.69884 0
M  V30 26289 H 2564 0.308609 -0.587925 0
M  V30 26290 H 2566.53 0.352957 -2.01533 0
M  V30 26291 H 2566.54 2.46389 -3.25202 0
M  V30 26292 H 2565.22 1.49767 -3.87998 0
M  V30 26293 H 2563.8 2.73755 -2.53204 0
M  V30 26294 N 2565.98 1.46745 0.574784 0
M  V30 26295 C 2567.23 1.51729 1.32895 0
M  V30 26296 C 2567.54 0.176727 1.948 0
M  V30 26297 O 2568.75 0.104432 2.71299 0
M  V30 26298 C 2567.21 2.6739 2.40896 0
M  V30 26299 C 2566.81 4.07901 1.85259 0
M  V30 26300 C 2568.56 2.81652 3.17604 0
M  V30 26301 C 2566.46 5.14889 2.90936 0
M  V30 26302 H 2565.39 0.564707 0.499621 0
M  V30 26303 H 2568.05 1.72976 0.612506 0
M  V30 26304 H 2566.43 2.39488 3.15375 0
M  V30 26305 H 2567.6 4.45628 1.1727 0
M  V30 26306 H 2565.92 3.98373 1.21192 0
M  V30 26307 H 2568.51 3.58751 3.96487 0
M  V30 26308 H 2568.86 1.89454 3.70692 0
M  V30 26309 H 2569.39 3.09238 2.50233 0
M  V30 26310 H 2566.13 6.08904 2.42726 0
M  V30 26311 H 2565.65 4.81697 3.5739 0
M  V30 26312 H 2567.33 5.41077 3.54746 0
M  V30 26313 N 2567.46 -0.820078 1.34583 0
M  V30 26314 C 2568.69 -1.60811 1.30183 0
M  V30 26315 C 2569.1 -1.88396 -0.123518 0
M  V30 26316 O 2568.46 -1.47737 -1.07145 0
M  V30 26317 C 2568.51 -2.94735 2.09317 0
M  V30 26318 O 2568.23 -2.68352 3.46293 0
M  V30 26319 C 2569.73 -3.89132 2.12347 0
M  V30 26320 H 2566.95 -0.499774 0.447735 0
M  V30 26321 H 2569.5 -1.02014 1.77238 0
M  V30 26322 H 2567.65 -3.50082 1.65895 0
M  V30 26323 H 2568.07 -3.53767 3.87233 0
M  V30 26324 H 2569.54 -4.80257 2.72134 0
M  V30 26325 H 2570.02 -4.24716 1.11861 0
M  V30 26326 H 2570.62 -3.39721 2.5587 0
M  V30 26327 N 2568.94 -1.18359 -1.04062 0
M  V30 26328 C 2570.17 -1.00387 -1.80915 0
M  V30 26329 C 2570.58 0.447706 -1.83415 0
M  V30 26330 O 2569.94 1.31097 -1.26964 0
M  V30 26331 C 2569.99 -1.55149 -3.26513 0
M  V30 26332 O 2569.71 -2.94624 -3.24235 0
M  V30 26333 C 2571.21 -1.41796 -4.2001 0
M  V30 26334 H 2568.43 -0.354484 -0.569721 0
M  V30 26335 H 2570.97 -1.56909 -1.31149 0
M  V30 26336 H 2569.13 -1.02804 -3.7351 0
M  V30 26337 H 2569.54 -3.20164 -4.15446 0
M  V30 26338 H 2571.02 -1.84911 -5.20108 0
M  V30 26339 H 2571.49 -0.366687 -4.37667 0
M  V30 26340 H 2572.1 -1.93214 -3.78878 0
M  V30 26341 N 2570.42 1.22976 -0.98563 0
M  V30 26342 C 2571.66 1.9084 -0.652914 0
M  V30 26343 C 2571.98 1.77683 0.817811 0
M  V30 26344 O 2573.18 2.40397 1.26181 0
M  V30 26345 C 2571.64 3.4212 -1.11723 0
M  V30 26346 C 2571.25 3.63928 -2.61267 0
M  V30 26347 C 2572.99 4.15728 -0.858503 0
M  V30 26348 C 2570.9 5.0887 -3.01339 0
M  V30 26349 H 2569.83 0.714614 -0.240504 0
M  V30 26350 H 2572.48 1.39322 -1.19423 0
M  V30 26351 H 2570.86 3.92778 -0.504096 0
M  V30 26352 H 2572.04 3.23794 -3.27863 0
M  V30 26353 H 2570.35 3.03639 -2.84943 0
M  V30 26354 H 2572.95 5.22544 -1.13368 0
M  V30 26355 H 2573.29 4.15793 0.205388 0
M  V30 26356 H 2573.82 3.71075 -1.43347 0
M  V30 26357 H 2570.56 5.1394 -4.06873 0
M  V30 26358 H 2570.08 5.49935 -2.3944 0
M  V30 26359 H 2571.76 5.77242 -2.92235 0
M  V30 26360 N 2571.89 0.757924 1.38178 0
M  V30 26361 C 2573.17 0.24134 1.94105 0
M  V30 26362 C 2573.55 -1.26119 1.69285 0
M  V30 26363 O 2572.9 -2.03775 1.03382 0
M  V30 26364 C 2573.11 0.59973 3.43808 0
M  V30 26365 C 2574.46 0.561791 4.20867 0
M  V30 26366 O 2575.48 0.538284 3.52109 0
M  V30 26367 O 2574.34 0.576574 5.4345 0
M  V30 26368 H 2571.43 0.0518187 0.825375 0
M  V30 26369 H 2573.98 0.838341 1.47546 0
M  V30 26370 H 2572.75 1.63726 3.55401 0
M  V30 26371 H 2572.37 -0.0250498 3.97592 0
M  V30 26372 N 2573.37 -1.4921 0.507345 0
M  V30 26373 C 2574.62 -2.0277 -0.0349691 0
M  V30 26374 C 2574.95 -1.38571 -1.36057 0
M  V30 26375 O 2574.23 -0.523575 -1.8732 0
M  V30 26376 C 2574.51 -3.59646 -0.180852 0
M  V30 26377 C 2574.36 -4.34362 1.16832 0
M  V30 26378 C 2575.68 -4.30409 -0.918482 0
M  V30 26379 H 2572.8 -0.736914 -0.0112344 0
M  V30 26380 H 2575.44 -1.78169 0.659987 0
M  V30 26381 H 2573.59 -3.80737 -0.772759 0
M  V30 26382 H 2575.26 -4.2475 1.7996 0
M  V30 26383 H 2573.51 -3.9667 1.75601 0
M  V30 26384 H 2574.18 -5.42504 1.01949 0
M  V30 26385 H 2576.65 -4.14011 -0.416417 0
M  V30 26386 H 2575.53 -5.39909 -0.98941 0
M  V30 26387 H 2575.79 -3.96097 -1.96366 0
M  V30 26388 N 2574.85 -0.241454 -1.55739 0
M  V30 26389 C 2576.26 0.262722 -1.84842 0
M  V30 26390 C 2576.61 1.58001 -1.1632 0
M  V30 26391 O 2575.74 2.11886 -0.43969 0
M  V30 26392 C 2576.33 0.483464 -3.35333 0
M  V30 26393 C 2574.89 0.931913 -3.64681 0
M  V30 26394 C 2574.04 0.00606635 -2.77299 0
M  V30 26395 H 2576.99 -0.464155 -1.51761 0
M  V30 26396 H 2577.01 1.32682 -3.56617 0
M  V30 26397 H 2576.52 -0.475437 -3.85177 0
M  V30 26398 H 2574.62 1.90347 -3.2031 0
M  V30 26399 H 2574.74 0.792545 -4.72499 0
M  V30 26400 H 2573.1 0.51646 -2.49409 0
M  V30 26401 H 2573.88 -0.94811 -3.29948 0
M  V30 26402 N 2576.33 1.57568 0.0317248 0
M  V30 26403 C 2577.57 1.9028 0.718679 0
M  V30 26404 C 2577.93 0.839757 1.73106 0
M  V30 26405 O 2577.22 -0.151846 1.90997 0
M  V30 26406 C 2577.42 3.27475 1.43161 0
M  V30 26407 C 2577.25 4.47025 0.48979 0
M  V30 26408 C 2576.02 5.05176 0.11182 0
M  V30 26409 C 2578.21 5.13782 -0.230682 0
M  V30 26410 N 2576.2 6.08242 -0.831534 0
M  V30 26411 C 2577.57 6.11388 -1.02979 0
M  V30 26412 C 2579.62 4.97008 -0.297908 0
M  V30 26413 C 2578.32 6.94027 -1.88994 0
M  V30 26414 C 2580.35 5.80207 -1.14517 0
M  V30 26415 C 2579.71 6.77381 -1.93222 0
M  V30 26416 H 2575.81 0.745169 0.237164 0
M  V30 26417 H 2578.4 1.94689 -0.0211609 0
M  V30 26418 H 2576.57 3.24 2.14193 0
M  V30 26419 H 2578.3 3.4771 2.07074 0
M  V30 26420 H 2575.05 4.71228 0.47343 0
M  V30 26421 H 2575.48 6.64447 -1.29764 0
M  V30 26422 H 2580.12 4.21761 0.296272 0
M  V30 26423 H 2577.84 7.68621 -2.49493 0
M  V30 26424 H 2581.42 5.69276 -1.20069 0
M  V30 26425 H 2580.3 7.4064 -2.57724 0
M  V30 26426 N 2577.81 -0.303946 1.54641 0
M  V30 26427 C 2578.75 -1.39481 1.86139 0
M  V30 26428 C 2579.75 -1.5263 0.734881 0
M  V30 26429 O 2580.95 -1.54782 0.918831 0
M  V30 26430 H 2577.33 -0.465846 0.590332 0
M  V30 26431 H 2579.3 -1.10149 2.77326 0
M  V30 26432 C 2578.05 -2.75378 2.12279 0
M  V30 26433 H 2577.37 -2.6604 2.98433 0
M  V30 26434 H 2578.81 -3.50725 2.3826 0
M  V30 26435 C 2577.27 -3.24083 0.920422 0
M  V30 26436 O 2577.8 -4.01458 0.139448 0
M  V30 26437 N 2576.01 -2.81369 0.726616 0
M  V30 26438 H 2575.55 -2.18564 1.36336 0
M  V30 26439 H 2575.51 -3.14307 -0.0763246 0
M  V30 26440 N 2579.28 -1.47047 -0.566994 0
M  V30 26441 C 2580.53 -1.53396 -1.32656 0
M  V30 26442 C 2580.86 -0.191514 -1.93253 0
M  V30 26443 O 2580.14 0.798813 -1.77339 0
M  V30 26444 C 2580.42 -2.64456 -2.44407 0
M  V30 26445 C 2580.27 -4.08285 -1.88742 0
M  V30 26446 C 2581.59 -2.71491 -3.46382 0
M  V30 26447 H 2578.71 -0.558423 -0.480971 0
M  V30 26448 H 2581.35 -1.79059 -0.63545 0
M  V30 26449 H 2579.5 -2.42705 -3.03359 0
M  V30 26450 H 2581.18 -4.4137 -1.34127 0
M  V30 26451 H 2579.42 -4.17023 -1.19474 0
M  V30 26452 H 2580.09 -4.8175 -2.69483 0
M  V30 26453 H 2582.57 -2.91086 -2.97335 0
M  V30 26454 H 2581.44 -3.50992 -4.22014 0
M  V30 26455 H 2581.7 -1.7816 -4.04613 0
M  V30 26456 N 2580.76 0.812929 -1.35016 0
M  V30 26457 C 2582.01 1.57202 -1.28123 0
M  V30 26458 C 2582.34 1.93652 0.145835 0
M  V30 26459 O 2581.62 1.60838 1.09368 0
M  V30 26460 C 2581.9 2.86488 -2.18167 0
M  V30 26461 C 2581.75 2.56555 -3.69459 0
M  V30 26462 C 2583.07 3.88142 -2.07446 0
M  V30 26463 H 2580.19 0.570358 -0.466756 0
M  V30 26464 H 2582.83 0.935754 -1.65359 0
M  V30 26465 H 2580.98 3.40785 -1.86541 0
M  V30 26466 H 2582.65 2.0849 -4.11497 0
M  V30 26467 H 2580.9 1.89844 -3.90053 0
M  V30 26468 H 2581.57 3.48792 -4.27841 0
M  V30 26469 H 2584.04 3.43226 -2.35234 0
M  V30 26470 H 2582.92 4.76391 -2.72658 0
M  V30 26471 H 2583.18 4.29341 -1.05446 0
M  V30 26472 N 2582.24 1.18909 1.03433 0
M  V30 26473 C 2583.65 0.991551 1.58193 0
M  V30 26474 C 2584 -0.457047 1.90802 0
M  V30 26475 O 2583.13 -1.3355 1.70274 0
M  V30 26476 C 2583.72 1.7936 2.87429 0
M  V30 26477 C 2582.28 1.64023 3.38782 0
M  V30 26478 C 2581.43 1.78406 2.12289 0
M  V30 26479 H 2584.38 1.3336 0.860275 0
M  V30 26480 H 2584.4 1.28645 3.58093 0
M  V30 26481 H 2583.91 2.84786 2.63664 0
M  V30 26482 H 2582.01 0.611601 3.67546 0
M  V30 26483 H 2582.13 2.4422 4.12181 0
M  V30 26484 H 2580.49 1.21414 2.23899 0
M  V30 26485 H 2581.27 2.8528 1.90972 0
M  V30 26486 N 2583.72 -1.22452 0.992137 0
M  V30 26487 C 2584.63 -2.28045 0.55069 0
M  V30 26488 C 2585.64 -1.69336 -0.400159 0
M  V30 26489 O 2586.82 -1.9962 -0.26718 0
M  V30 26490 C 2583.89 -3.46462 -0.128435 0
M  V30 26491 C 2582.95 -4.20489 0.865281 0
M  V30 26492 C 2582.18 -5.33253 0.218471 0
M  V30 26493 O 2582.4 -5.61782 -0.987795 0
M  V30 26494 O 2581.34 -5.94782 0.922949 0
M  V30 26495 H 2585.16 -2.67972 1.42915 0
M  V30 26496 H 2582.75 -1.28604 0.760348 0
M  V30 26497 H 2584.63 -4.18316 -0.508874 0
M  V30 26498 H 2583.3 -3.08462 -0.981472 0
M  V30 26499 H 2582.21 -3.5091 1.29664 0
M  V30 26500 H 2583.54 -4.62368 1.6875 0
M  V30 26501 N 2585.2 -0.765242 -1.37774 0
M  V30 26502 C 2586.14 -0.145315 -2.30342 0
M  V30 26503 C 2587.11 0.696944 -1.50771 0
M  V30 26504 O 2588.3 0.650658 -1.79363 0
M  V30 26505 C 2585.44 0.73288 -3.37228 0
M  V30 26506 C 2584.55 -0.125275 -4.31818 0
M  V30 26507 C 2583.69 0.757014 -5.25778 0
M  V30 26508 C 2582.73 -0.10407 -6.12012 0
M  V30 26509 N 2581.86 0.73583 -6.98233 0
M  V30 26510 H 2586.7 -0.940245 -2.82778 0
M  V30 26511 H 2584.24 -0.47528 -1.3921 0
M  V30 26512 H 2586.2 1.25679 -3.9782 0
M  V30 26513 H 2584.83 1.49348 -2.86173 0
M  V30 26514 H 2583.88 -0.76693 -3.72589 0
M  V30 26515 H 2585.19 -0.789769 -4.92508 0
M  V30 26516 H 2584.35 1.34765 -5.91543 0
M  V30 26517 H 2583.08 1.45521 -4.65484 0
M  V30 26518 H 2582.09 -0.707293 -5.45232 0
M  V30 26519 H 2583.31 -0.7995 -6.74377 0
M  V30 26520 H 2581.26 1.41876 -6.40474 0
M  V30 26521 H 2581.18 0.128491 -7.55891 0
M  V30 26522 H 2582.45 1.31107 -7.68395 0
M  V30 26523 N 2586.67 1.48939 -0.515251 0
M  V30 26524 C 2587.64 2.27891 0.244641 0
M  V30 26525 C 2588.64 1.34508 0.881143 0
M  V30 26526 O 2589.83 1.57538 0.743469 0
M  V30 26527 C 2586.96 3.12926 1.35242 0
M  V30 26528 H 2588.15 2.9653 -0.448341 0
M  V30 26529 H 2585.71 1.53938 -0.270683 0
M  V30 26530 H 2586.44 2.48884 2.07911 0
M  V30 26531 H 2586.23 3.816 0.901307 0
M  V30 26532 H 2587.72 3.72519 1.88731 0
M  V30 26533 N 2588.15 0.249709 1.55609 0
M  V30 26534 C 2589.1 -0.662635 2.18159 0
M  V30 26535 C 2590.09 -1.13715 1.13832 0
M  V30 26536 O 2591.28 -1.08645 1.39733 0
M  V30 26537 C 2588.41 -1.858 2.88675 0
M  V30 26538 C 2587.49 -1.40185 4.00261 0
M  V30 26539 N 2587.89 -0.660125 5.01474 0
M  V30 26540 C 2586.18 -1.68691 4.12867 0
M  V30 26541 C 2586.88 -0.423593 5.80156 0
M  V30 26542 N 2585.86 -0.988627 5.34534 0
M  V30 26543 H 2589.66 -0.0878171 2.93769 0
M  V30 26544 H 2587.18 0.0521468 1.62316 0
M  V30 26545 H 2589.17 -2.52264 3.31917 0
M  V30 26546 H 2587.83 -2.43702 2.14569 0
M  V30 26547 H 2588.84 -0.309956 5.16972 0
M  V30 26548 H 2585.52 -2.27711 3.49934 0
M  V30 26549 H 2586.91 0.168734 6.71688 0
M  V30 26550 N 2589.63 -1.57583 -0.0233682 0
M  V30 26551 C 2590.56 -2.09966 -1.02159 0
M  V30 26552 C 2591.54 -1.00347 -1.37348 0
M  V30 26553 O 2592.73 -1.27902 -1.46133 0
M  V30 26554 C 2589.86 -2.58375 -2.32077 0
M  V30 26555 C 2588.81 -3.72311 -2.11113 0
M  V30 26556 C 2588.14 -4.06947 -3.46841 0
M  V30 26557 C 2589.44 -5.00516 -1.49267 0
M  V30 26558 H 2591.13 -2.93619 -0.585506 0
M  V30 26559 H 2588.68 -1.41248 -0.280194 0
M  V30 26560 H 2590.63 -2.93644 -3.02243 0
M  V30 26561 H 2589.35 -1.71813 -2.77755 0
M  V30 26562 H 2588.01 -3.37399 -1.43378 0
M  V30 26563 H 2587.66 -3.17442 -3.90179 0
M  V30 26564 H 2587.36 -4.83694 -3.33638 0
M  V30 26565 H 2588.89 -4.44755 -4.18361 0
M  V30 26566 H 2590.3 -5.33706 -2.09359 0
M  V30 26567 H 2588.7 -5.81912 -1.46622 0
M  V30 26568 H 2589.77 -4.82721 -0.459132 0
M  V30 26569 N 2591.11 0.29574 -1.548 0
M  V30 26570 C 2592.04 1.36955 -1.89118 0
M  V30 26571 C 2593.02 1.52643 -0.750617 0
M  V30 26572 O 2594.21 1.66063 -1.00681 0
M  V30 26573 C 2591.34 2.73291 -2.14311 0
M  V30 26574 C 2590.29 2.72363 -3.30155 0
M  V30 26575 C 2589.62 4.12036 -3.40779 0
M  V30 26576 C 2590.92 2.33638 -4.6713 0
M  V30 26577 H 2592.61 1.08483 -2.79055 0
M  V30 26578 H 2590.16 0.52042 -1.34267 0
M  V30 26579 H 2592.11 3.48503 -2.36904 0
M  V30 26580 H 2590.83 3.03299 -1.2115 0
M  V30 26581 H 2589.49 1.99607 -3.07494 0
M  V30 26582 H 2589.14 4.3923 -2.45125 0
M  V30 26583 H 2588.84 4.12315 -4.18653 0
M  V30 26584 H 2590.36 4.8902 -3.65638 0
M  V30 26585 H 2591.78 2.98567 -4.89419 0
M  V30 26586 H 2590.17 2.4512 -5.47756 0
M  V30 26587 H 2591.24 1.28764 -4.67491 0
M  V30 26588 N 2592.59 1.47346 0.559187 0
M  V30 26589 C 2593.81 1.57727 1.34673 0
M  V30 26590 C 2594.24 0.227197 1.86723 0
M  V30 26591 O 2593.6 -0.796613 1.62861 0
M  V30 26592 C 2593.64 2.60451 2.49394 0
M  V30 26593 O 2592.75 2.15585 3.51564 0
M  V30 26594 H 2592.09 0.529917 0.400105 0
M  V30 26595 H 2594.62 1.93111 0.675975 0
M  V30 26596 H 2594.63 2.80808 2.95991 0
M  V30 26597 H 2593.3 3.5848 2.10867 0
M  V30 26598 H 2591.88 2.05318 3.11286 0
M  V30 26599 N 2594.07 -0.805758 1.35445 0
M  V30 26600 C 2595 -1.93224 1.31099 0
M  V30 26601 C 2595.98 -1.69088 0.185274 0
M  V30 26602 O 2597.16 -1.90439 0.380366 0
M  V30 26603 C 2594.29 -3.29981 1.08305 0
M  V30 26604 C 2593.25 -3.68601 2.17526 0
M  V30 26605 C 2592.57 -5.03529 1.79896 0
M  V30 26606 C 2593.87 -3.78892 3.59497 0
M  V30 26607 H 2595.57 -1.97118 2.25355 0
M  V30 26608 H 2593.11 -0.946977 1.08482 0
M  V30 26609 H 2595.06 -4.08389 1.03904 0
M  V30 26610 H 2593.79 -3.26431 0.104942 0
M  V30 26611 H 2592.45 -2.92478 2.21025 0
M  V30 26612 H 2592.1 -4.96484 0.807017 0
M  V30 26613 H 2591.8 -5.30339 2.5301 0
M  V30 26614 H 2593.32 -5.84376 1.77022 0
M  V30 26615 H 2594.73 -4.4753 3.58315 0
M  V30 26616 H 2593.13 -4.17173 4.31378 0
M  V30 26617 H 2594.2 -2.80424 3.95589 0
M  V30 26618 N 2595.54 -1.19456 -1.02801 0
M  V30 26619 C 2596.79 -0.999202 -1.76476 0
M  V30 26620 C 2597.12 0.468795 -1.88457 0
M  V30 26621 O 2596.4 1.34812 -1.402 0
M  V30 26622 C 2596.68 -1.66987 -3.19041 0
M  V30 26623 C 2596.53 -3.21157 -3.14926 0
M  V30 26624 C 2597.85 -1.39357 -4.17454 0
M  V30 26625 H 2594.97 -0.364404 -0.640608 0
M  V30 26626 H 2597.61 -1.47307 -1.20002 0
M  V30 26627 H 2595.76 -1.26697 -3.6726 0
M  V30 26628 H 2597.44 -3.70666 -2.74598 0
M  V30 26629 H 2595.68 -3.52656 -2.52619 0
M  V30 26630 H 2596.35 -3.6323 -4.15654 0
M  V30 26631 H 2598.83 -1.74289 -3.77839 0
M  V30 26632 H 2597.7 -1.88832 -5.15397 0
M  V30 26633 H 2597.96 -0.318891 -4.40948 0
M  V30 26634 N 2597.02 1.21924 -0.998617 0
M  V30 26635 C 2598.3 1.86381 -0.593434 0
M  V30 26636 C 2598.68 1.89553 0.929127 0
M  V30 26637 O 2598.03 1.3902 1.81344 0
M  V30 26638 C 2598.24 3.26965 -1.22045 0
M  V30 26639 C 2599.58 4.03411 -1.32456 0
M  V30 26640 O 2600.61 3.36252 -1.17528 0
M  V30 26641 O 2599.47 5.23641 -1.56404 0
M  V30 26642 H 2596.56 0.80185 -0.202399 0
M  V30 26643 H 2599.11 1.29657 -1.09486 0
M  V30 26644 H 2597.88 3.19321 -2.26163 0
M  V30 26645 H 2597.5 3.913 -0.704975 0
M  V30 26646 N 2598.5 0.772537 1.37367 0
M  V30 26647 C 2599.75 0.337716 1.99968 0
M  V30 26648 C 2600.08 -1.08318 1.61185 0
M  V30 26649 O 2599.35 -1.74532 0.858426 0
M  V30 26650 C 2599.64 0.482184 3.56857 0
M  V30 26651 C 2599.49 1.94556 4.05547 0
M  V30 26652 C 2600.81 -0.113066 4.39955 0
M  V30 26653 H 2597.93 0.124183 0.726462 0
M  V30 26654 H 2600.57 0.975728 1.63032 0
M  V30 26655 H 2598.72 -0.0609678 3.88452 0
M  V30 26656 H 2600.39 2.54847 3.84513 0
M  V30 26657 H 2598.63 2.45409 3.5771 0
M  V30 26658 H 2599.31 1.99769 5.14584 0
M  V30 26659 H 2601.78 0.350383 4.14622 0
M  V30 26660 H 2600.66 0.0181479 5.48897 0
M  V30 26661 H 2600.92 -1.20346 4.25405 0
M  V30 26662 N 2599.98 -1.48664 0.523142 0
M  V30 26663 C 2600.91 -2.26344 -0.290478 0
M  V30 26664 C 2601.89 -1.31897 -0.95089 0
M  V30 26665 O 2603.07 -1.61227 -0.976634 0
M  V30 26666 C 2600.2 -3.07918 -1.41083 0
M  V30 26667 C 2599.25 -4.17687 -0.862524 0
M  V30 26668 S 2600.08 -5.34848 0.264229 0
M  V30 26669 C 2601.23 -6.19981 -0.858755 0
M  V30 26670 H 2601.47 -2.95004 0.368778 0
M  V30 26671 H 2599 -1.5128 0.308807 0
M  V30 26672 H 2600.96 -3.55495 -2.05264 0
M  V30 26673 H 2599.62 -2.38685 -2.04178 0
M  V30 26674 H 2598.81 -4.74364 -1.70279 0
M  V30 26675 H 2598.41 -3.72815 -0.297529 0
M  V30 26676 H 2600.71 -6.54268 -1.75898 0
M  V30 26677 H 2601.65 -7.0733 -0.33012 0
M  V30 26678 H 2602.06 -5.5295 -1.13608 0
M  V30 26679 N 2601.46 -0.257958 -1.55475 0
M  V30 26680 C 2602.39 0.669842 -2.19193 0
M  V30 26681 C 2603.4 1.13048 -1.1715 0
M  V30 26682 O 2604.59 1.05534 -1.43961 0
M  V30 26683 C 2601.69 1.92358 -2.79019 0
M  V30 26684 C 2600.86 1.61258 -4.06589 0
M  V30 26685 C 2599.92 2.71702 -4.50627 0
M  V30 26686 O 2598.95 2.38617 -5.16769 0
M  V30 26687 N 2600.15 4.01423 -4.19332 0
M  V30 26688 H 2602.91 0.124583 -2.99441 0
M  V30 26689 H 2600.48 -0.0783595 -1.6171 0
M  V30 26690 H 2602.47 2.65506 -3.05432 0
M  V30 26691 H 2601.04 2.37833 -2.02865 0
M  V30 26692 H 2600.26 0.715743 -3.87648 0
M  V30 26693 H 2601.55 1.37958 -4.8974 0
M  V30 26694 H 2600.94 4.31131 -3.66255 0
M  V30 26695 H 2599.5 4.71002 -4.50556 0
M  V30 26696 N 2602.93 1.57593 0.0150108 0
M  V30 26697 C 2604.35 1.55231 0.37088 0
M  V30 26698 C 2604.55 0.985912 1.75733 0
M  V30 26699 O 2603.61 0.61312 2.44943 0
M  V30 26700 C 2604.92 2.99575 0.259856 0
M  V30 26701 C 2606.47 3.11192 0.335904 0
M  V30 26702 C 2606.94 4.57294 0.254173 0
M  V30 26703 N 2608.43 4.62144 0.312537 0
M  V30 26704 C 2609.17 5.72753 0.272405 0
M  V30 26705 N 2608.66 6.92556 0.183742 0
M  V30 26706 N 2610.46 5.6117 0.323169 0
M  V30 26707 H 2602.61 1.92755 -0.892138 0
M  V30 26708 H 2604.87 0.884709 -0.340579 0
M  V30 26709 H 2604.58 3.44796 -0.693463 0
M  V30 26710 H 2604.45 3.62351 1.04794 0
M  V30 26711 H 2606.84 2.65911 1.27966 0
M  V30 26712 H 2606.92 2.51222 -0.481783 0
M  V30 26713 H 2606.56 5.03246 -0.685976 0
M  V30 26714 H 2606.49 5.15192 1.09015 0
M  V30 26715 H 2608.98 3.75954 0.383003 0
M  V30 26716 H 2609.3 7.72637 0.158604 0
M  V30 26717 H 2607.64 6.94839 0.149586 0
M  V30 26718 H 2610.83 4.66468 0.390525 0
M  V30 26719 H 2611.01 6.47358 0.288425 0
M  V30 26720 N 2604.41 -0.287527 1.54955 0
M  V30 26721 C 2605.32 -1.37733 1.89913 0
M  V30 26722 C 2606.34 -1.5479 0.794729 0
M  V30 26723 O 2607.51 -1.69196 1.09246 0
M  V30 26724 C 2604.58 -2.71896 2.15113 0
M  V30 26725 C 2603.64 -2.63709 3.38757 0
M  V30 26726 C 2602.87 -3.91473 3.62746 0
M  V30 26727 O 2603.1 -4.91473 2.89501 0
M  V30 26728 O 2602.03 -3.92553 4.56274 0
M  V30 26729 H 2605.86 -1.11087 2.82654 0
M  V30 26730 H 2603.44 -0.484782 1.41316 0
M  V30 26731 H 2605.32 -3.5125 2.32812 0
M  V30 26732 H 2604 -2.98358 1.25556 0
M  V30 26733 H 2602.91 -1.8278 3.26408 0
M  V30 26734 H 2604.24 -2.42198 4.28487 0
M  V30 26735 N 2605.89 -1.47641 -0.551365 0
M  V30 26736 C 2607.14 -1.5426 -1.30569 0
M  V30 26737 C 2607.46 -0.208997 -1.93877 0
M  V30 26738 O 2606.73 0.767588 -1.80236 0
M  V30 26739 H 2605.31 -0.56824 -0.484884 0
M  V30 26740 H 2607.97 -1.83975 -0.64337 0
M  V30 26741 H 2607.07 -2.3123 -2.09617 0
M  V30 26742 N 2607.37 0.798563 -1.3587 0
M  V30 26743 C 2608.62 1.55296 -1.29335 0
M  V30 26744 C 2608.94 1.94568 0.129695 0
M  V30 26745 O 2608.21 1.64231 1.06793 0
M  V30 26746 H 2606.79 0.575911 -0.475747 0
M  V30 26747 H 2609.45 0.952063 -1.70064 0
M  V30 26748 H 2608.55 2.46472 -1.91462 0
M  V30 26749 N 2608.85 1.19999 1.02166 0
M  V30 26750 C 2610.26 1.00827 1.57133 0
M  V30 26751 C 2610.61 -0.436784 1.91276 0
M  V30 26752 O 2609.73 -1.31737 1.71681 0
M  V30 26753 C 2610.33 1.82398 2.85511 0
M  V30 26754 C 2608.89 1.67607 3.37024 0
M  V30 26755 C 2608.03 1.80648 2.10385 0
M  V30 26756 H 2610.99 1.34265 0.846082 0
M  V30 26757 H 2611.01 1.32435 3.56709 0
M  V30 26758 H 2610.52 2.87566 2.60629 0
M  V30 26759 H 2608.62 0.65055 3.66877 0
M  V30 26760 H 2608.73 2.48578 4.09568 0
M  V30 26761 H 2607.1 1.23782 2.22599 0
M  V30 26762 H 2607.88 2.87289 1.87935 0
M  V30 26763 N 2610.32 -1.21392 1.00507 0
M  V30 26764 C 2611.55 -1.94999 0.706401 0
M  V30 26765 C 2611.97 -1.73583 -0.7246 0
M  V30 26766 O 2611.33 -1.02272 -1.497 0
M  V30 26767 C 2611.38 -3.45486 1.03306 0
M  V30 26768 O 2610.48 -4.12168 0.138347 0
M  V30 26769 H 2609.83 -0.609614 0.263186 0
M  V30 26770 H 2612.36 -1.54149 1.34533 0
M  V30 26771 H 2612.37 -3.96057 0.979942 0
M  V30 26772 H 2611.04 -3.60397 2.07573 0
M  V30 26773 H 2609.62 -3.72074 0.247994 0
M  V30 26774 N 2611.8 -0.779811 -1.36955 0
M  V30 26775 C 2612.73 -0.12968 -2.28833 0
M  V30 26776 C 2613.75 0.655485 -1.49021 0
M  V30 26777 O 2614.94 0.492249 -1.71578 0
M  V30 26778 C 2612.04 0.839734 -3.28332 0
M  V30 26779 C 2611.21 0.106673 -4.3727 0
M  V30 26780 C 2610.27 0.990626 -5.16791 0
M  V30 26781 O 2609.29 0.451416 -5.67407 0
M  V30 26782 N 2610.5 2.31601 -5.32298 0
M  V30 26783 H 2613.26 -0.918853 -2.85267 0
M  V30 26784 H 2610.82 -0.632868 -1.49018 0
M  V30 26785 H 2612.81 1.4347 -3.78416 0
M  V30 26786 H 2611.38 1.52983 -2.72607 0
M  V30 26787 H 2610.6 -0.669285 -3.88477 0
M  V30 26788 H 2611.89 -0.399553 -5.07229 0
M  V30 26789 H 2611.29 2.77834 -4.92772 0
M  V30 26790 H 2609.85 2.86085 -5.85661 0
M  V30 26791 N 2613.28 1.48384 -0.531019 0
M  V30 26792 C 2614.53 2.01699 0.00470803 0
M  V30 26793 C 2614.84 1.41328 1.35225 0
M  V30 26794 O 2616.05 1.86147 1.9764 0
M  V30 26795 C 2614.5 3.59852 0.0587841 0
M  V30 26796 C 2614.11 4.29208 -1.28392 0
M  V30 26797 C 2615.86 4.21009 0.543284 0
M  V30 26798 C 2613.76 5.79296 -1.19038 0
M  V30 26799 H 2612.69 0.75398 0.00552992 0
M  V30 26800 H 2615.34 1.70636 -0.674954 0
M  V30 26801 H 2613.73 3.87762 0.803544 0
M  V30 26802 H 2614.9 4.12969 -2.04433 0
M  V30 26803 H 2613.22 3.79927 -1.70425 0
M  V30 26804 H 2615.81 5.30961 0.631257 0
M  V30 26805 H 2616.16 3.86397 1.5493 0
M  V30 26806 H 2616.69 3.97533 -0.145824 0
M  V30 26807 H 2613.43 6.18484 -2.17158 0
M  V30 26808 H 2612.95 5.97945 -0.471351 0
M  V30 26809 H 2614.63 6.40967 -0.881478 0
M  V30 26810 N 2614.76 0.2662 1.55336 0
M  V30 26811 C 2616.01 -0.352425 1.99003 0
M  V30 26812 C 2616.33 -1.57045 1.15594 0
M  V30 26813 O 2615.6 -1.94383 0.243302 0
M  V30 26814 H 2614.18 -0.133204 0.735028 0
M  V30 26815 H 2616.84 0.369468 1.91366 0
M  V30 26816 H 2615.94 -0.648399 3.0529 0
M  V30 26817 N 2616.24 -1.57599 -0.0066531 0
M  V30 26818 C 2617.51 -1.81485 -0.729554 0
M  V30 26819 C 2617.89 -0.869591 -1.92357 0
M  V30 26820 O 2617.24 0.0832132 -2.28348 0
M  V30 26821 C 2617.45 -3.29803 -1.14154 0
M  V30 26822 C 2618.8 -3.95369 -1.54816 0
M  V30 26823 O 2619.82 -3.34086 -1.23552 0
M  V30 26824 O 2618.68 -5.03313 -2.12929 0
M  V30 26825 H 2615.78 -0.747091 -0.354661 0
M  V30 26826 H 2618.32 -1.6969 0.0182907 0
M  V30 26827 H 2617.09 -3.90223 -0.290162 0
M  V30 26828 H 2616.72 -3.46571 -1.9487 0
M  V30 26829 N 2617.72 0.279305 -1.55105 0
M  V30 26830 C 2618.68 1.32831 -1.86785 0
M  V30 26831 C 2619.68 1.42656 -0.742015 0
M  V30 26832 O 2620.87 1.41916 -1.01022 0
M  V30 26833 C 2618 2.71048 -2.0675 0
M  V30 26834 H 2619.19 1.05974 -2.80552 0
M  V30 26835 H 2616.75 0.517061 -1.475 0
M  V30 26836 H 2617.48 3.03095 -1.15344 0
M  V30 26837 H 2617.27 2.65303 -2.88715 0
M  V30 26838 H 2618.76 3.46854 -2.32555 0
M  V30 26839 N 2619.19 1.47931 0.543528 0
M  V30 26840 C 2620.12 1.6433 1.65885 0
M  V30 26841 C 2621.1 0.492412 1.62817 0
M  V30 26842 O 2622.29 0.72337 1.80225 0
M  V30 26843 C 2619.42 1.67019 3.04503 0
M  V30 26844 C 2618.37 2.81472 3.22425 0
M  V30 26845 C 2617.7 2.69241 4.61967 0
M  V30 26846 C 2619 4.22921 3.06489 0
M  V30 26847 H 2620.69 2.577 1.52417 0
M  V30 26848 H 2618.24 1.24017 0.731827 0
M  V30 26849 H 2620.19 1.77081 3.82388 0
M  V30 26850 H 2618.92 0.702176 3.18962 0
M  V30 26851 H 2617.58 2.70943 2.46953 0
M  V30 26852 H 2617.22 1.70438 4.73244 0
M  V30 26853 H 2616.92 3.46033 4.74905 0
M  V30 26854 H 2618.45 2.81251 5.41969 0
M  V30 26855 H 2619.86 4.34354 3.74178 0
M  V30 26856 H 2618.26 5.00606 3.30929 0
M  V30 26857 H 2619.33 4.4033 2.0307 0
M  V30 26858 N 2620.67 -0.791347 1.36292 0
M  V30 26859 C 2621.92 -1.54608 1.30157 0
M  V30 26860 C 2622.24 -1.94634 -0.119375 0
M  V30 26861 O 2621.51 -1.64795 -1.05921 0
M  V30 26862 H 2620.09 -0.57338 0.478795 0
M  V30 26863 H 2622.75 -0.94303 1.70567 0
M  V30 26864 H 2621.85 -2.45453 1.92767 0
M  V30 26865 N 2622.15 -1.2054 -1.01528 0
M  V30 26866 C 2623.4 -1.01636 -1.75147 0
M  V30 26867 C 2623.72 0.451366 -1.8919 0
M  V30 26868 O 2622.98 1.35134 -1.41553 0
M  V30 26869 C 2623.28 -1.64659 -3.1721 0
M  V30 26870 C 2622.94 -3.1447 -3.2314 0
M  V30 26871 C 2621.61 -3.55352 -3.24466 0
M  V30 26872 C 2623.96 -4.10464 -3.21199 0
M  V30 26873 C 2621.29 -4.90754 -3.21524 0
M  V30 26874 C 2623.64 -5.45813 -3.19798 0
M  V30 26875 C 2622.3 -5.86107 -3.19428 0
M  V30 26876 H 2621.57 -0.371912 -0.640908 0
M  V30 26877 H 2624.22 -1.49983 -1.19068 0
M  V30 26878 H 2622.52 -1.08577 -3.76455 0
M  V30 26879 H 2624.22 -1.47547 -3.72869 0
M  V30 26880 H 2620.81 -2.81903 -3.22845 0
M  V30 26881 H 2625 -3.79912 -3.19344 0
M  V30 26882 H 2620.25 -5.21235 -3.19569 0
M  V30 26883 H 2624.43 -6.1994 -3.17249 0
M  V30 26884 H 2622.05 -6.90997 -3.16903 0
M  V30 26885 N 2623.63 1.20858 -1.01149 0
M  V30 26886 C 2624.59 2.21681 -0.582263 0
M  V30 26887 C 2625.59 1.57058 0.344859 0
M  V30 26888 O 2626.78 1.73682 0.134251 0
M  V30 26889 C 2623.91 3.40568 0.150437 0
M  V30 26890 H 2625.11 2.6117 -1.47413 0
M  V30 26891 H 2622.66 1.34232 -0.800719 0
M  V30 26892 H 2623.39 3.06576 1.05745 0
M  V30 26893 H 2623.18 3.88696 -0.515512 0
M  V30 26894 H 2624.67 4.15294 0.438271 0
M  V30 26895 N 2625.11 0.787064 1.3654 0
M  V30 26896 C 2626.35 0.358907 1.99599 0
M  V30 26897 C 2626.68 -1.06603 1.62325 0
M  V30 26898 O 2625.96 -1.73611 0.876889 0
M  V30 26899 C 2626.24 0.520006 3.56326 0
M  V30 26900 C 2626.1 1.98846 4.0346 0
M  V30 26901 C 2627.41 -0.0663964 4.4005 0
M  V30 26902 H 2624.53 0.131882 0.725104 0
M  V30 26903 H 2627.18 0.992964 1.61988 0
M  V30 26904 H 2625.33 -0.0197638 3.88495 0
M  V30 26905 H 2627 2.58911 3.81789 0
M  V30 26906 H 2625.24 2.4919 3.55087 0
M  V30 26907 H 2625.91 2.05216 5.12436 0
M  V30 26908 H 2628.39 0.394339 4.14227 0
M  V30 26909 H 2627.26 0.0763647 5.48847 0
M  V30 26910 H 2627.52 -1.15827 4.26657 0
M  V30 26911 N 2626.58 -1.48101 0.53888 0
M  V30 26912 C 2628 -1.58375 0.197348 0
M  V30 26913 C 2628.2 -1.53982 -1.29969 0
M  V30 26914 O 2627.26 -1.43356 -2.07859 0
M  V30 26915 C 2628.57 -2.89647 0.807766 0
M  V30 26916 C 2630.12 -3.03194 0.777313 0
M  V30 26917 C 2630.59 -4.3714 1.36647 0
M  V30 26918 N 2632.08 -4.4373 1.32883 0
M  V30 26919 C 2632.82 -5.45898 1.7545 0
M  V30 26920 N 2632.31 -6.54975 2.25787 0
M  V30 26921 N 2634.11 -5.36833 1.66632 0
M  V30 26922 H 2626.26 -1.49199 1.51173 0
M  V30 26923 H 2628.52 -0.708968 0.62934 0
M  V30 26924 H 2628.23 -2.98544 1.85914 0
M  V30 26925 H 2628.1 -3.76083 0.290041 0
M  V30 26926 H 2630.49 -2.93905 -0.265322 0
M  V30 26927 H 2630.57 -2.18347 1.3326 0
M  V30 26928 H 2630.21 -4.47185 2.40808 0
M  V30 26929 H 2630.14 -5.20689 0.78678 0
M  V30 26930 H 2632.63 -3.65492 0.960434 0
M  V30 26931 H 2632.95 -7.29083 2.56239 0
M  V30 26932 H 2631.29 -6.55914 2.29787 0
M  V30 26933 H 2634.48 -4.50515 1.27097 0
M  V30 26934 H 2634.66 -6.16323 2.00126 0
M  V30 26935 N 2628.06 -0.274434 -1.55192 0
M  V30 26936 C 2629.29 0.345406 -2.03692 0
M  V30 26937 C 2629.7 1.50065 -1.15226 0
M  V30 26938 O 2629.04 1.82959 -0.164781 0
M  V30 26939 C 2629.1 0.889329 -3.48326 0
M  V30 26940 C 2628.77 -0.137196 -4.56794 0
M  V30 26941 C 2629.77 -0.956468 -5.11026 0
M  V30 26942 C 2627.45 -0.271238 -5.01567 0
M  V30 26943 C 2629.44 -1.89598 -6.08549 0
M  V30 26944 C 2627.13 -1.21422 -5.98916 0
M  V30 26945 C 2628.13 -2.02509 -6.52288 0
M  V30 26946 O 2627.82 -2.95213 -7.47733 0
M  V30 26947 H 2627.55 0.0829214 -0.670895 0
M  V30 26948 H 2630.1 -0.404091 -2.01386 0
M  V30 26949 H 2628.33 1.68888 -3.4787 0
M  V30 26950 H 2630.02 1.42218 -3.80169 0
M  V30 26951 H 2630.79 -0.863643 -4.77249 0
M  V30 26952 H 2626.67 0.349906 -4.5967 0
M  V30 26953 H 2630.21 -2.5293 -6.50133 0
M  V30 26954 H 2626.11 -1.30787 -6.32112 0
M  V30 26955 H 2626.88 -2.89887 -7.65446 0
M  V30 26956 N 2629.54 1.576 -0.00170483 0
M  V30 26957 C 2630.47 2.11565 0.988053 0
M  V30 26958 C 2631.45 1.02519 1.35735 0
M  V30 26959 O 2632.64 1.3021 1.44079 0
M  V30 26960 C 2629.77 2.62035 2.27937 0
M  V30 26961 C 2628.72 3.75622 2.05163 0
M  V30 26962 C 2628.05 4.12413 3.40323 0
M  V30 26963 C 2629.35 5.02828 1.41285 0
M  V30 26964 H 2631.04 2.94513 0.538719 0
M  V30 26965 H 2628.59 1.41676 0.257687 0
M  V30 26966 H 2630.54 2.98415 2.97533 0
M  V30 26967 H 2629.26 1.7621 2.74986 0
M  V30 26968 H 2627.92 3.39638 1.37992 0
M  V30 26969 H 2627.57 3.2361 3.85079 0
M  V30 26970 H 2627.27 4.8894 3.25901 0
M  V30 26971 H 2628.79 4.51354 4.11232 0
M  V30 26972 H 2630.21 5.36969 2.00841 0
M  V30 26973 H 2628.6 5.84171 1.37346 0
M  V30 26974 H 2629.67 4.83391 0.382278 0
M  V30 26975 N 2631.02 -0.271076 1.55251 0
M  V30 26976 C 2632.25 -1.02061 1.79976 0
M  V30 26977 C 2632.66 -1.79862 0.574034 0
M  V30 26978 O 2632.02 -1.76687 -0.456931 0
M  V30 26979 C 2632.07 -1.97766 3.02607 0
M  V30 26980 O 2631.79 -1.23117 4.20445 0
M  V30 26981 C 2633.29 -2.84516 3.39949 0
M  V30 26982 H 2630.51 -0.301409 0.599495 0
M  V30 26983 H 2633.05 -0.301277 2.02269 0
M  V30 26984 H 2631.21 -2.6516 2.82434 0
M  V30 26985 H 2631.62 -1.87642 4.89786 0
M  V30 26986 H 2633.1 -3.47464 4.28921 0
M  V30 26987 H 2633.57 -3.54384 2.59438 0
M  V30 26988 H 2634.18 -2.22611 3.62387 0
M  V30 26989 N 2632.5 -1.48217 -0.535675 0
M  V30 26990 C 2633.72 -1.5985 -1.32147 0
M  V30 26991 C 2634.15 -0.256874 -1.86338 0
M  V30 26992 O 2633.5 0.770603 -1.64108 0
M  V30 26993 C 2633.55 -2.64386 -2.45219 0
M  V30 26994 O 2632.66 -2.2115 -3.48089 0
M  V30 26995 H 2632 -0.536215 -0.391624 0
M  V30 26996 H 2634.53 -1.94162 -0.645168 0
M  V30 26997 H 2634.54 -2.85481 -2.91486 0
M  V30 26998 H 2633.21 -3.6179 -2.05137 0
M  V30 26999 H 2631.79 -2.10244 -3.0798 0
M  V30 27000 N 2633.97 0.784108 -1.3671 0
M  V30 27001 C 2634.88 1.92819 -1.33634 0
M  V30 27002 C 2635.9 1.72369 -0.237716 0
M  V30 27003 O 2637.08 1.95815 -0.470996 0
M  V30 27004 C 2634.14 3.27762 -1.13017 0
M  V30 27005 C 2633.2 3.60953 -2.32403 0
M  V30 27006 C 2632.44 4.89457 -2.12761 0
M  V30 27007 O 2632.66 5.59584 -1.10551 0
M  V30 27008 O 2631.59 5.21427 -3.00662 0
M  V30 27009 H 2635.42 1.98364 -2.29968 0
M  V30 27010 H 2633 0.925115 -1.17311 0
M  V30 27011 H 2634.89 4.08503 -1.03458 0
M  V30 27012 H 2633.56 3.23097 -0.197487 0
M  V30 27013 H 2632.47 2.80498 -2.47532 0
M  V30 27014 H 2633.8 3.70348 -3.24196 0
M  V30 27015 N 2635.45 1.21076 1.00888 0
M  V30 27016 C 2636.39 0.909843 2.09278 0
M  V30 27017 C 2637.36 -0.141116 1.61986 0
M  V30 27018 O 2638.55 -0.013 1.88496 0
M  V30 27019 C 2635.67 0.365433 3.36723 0
M  V30 27020 C 2634.72 1.39859 4.02917 0
M  V30 27021 S 2635.55 2.96641 4.4583 0
M  V30 27022 C 2636.71 2.43797 5.76467 0
M  V30 27023 H 2636.94 1.82773 2.34481 0
M  V30 27024 H 2634.48 1.04008 1.14113 0
M  V30 27025 H 2636.43 0.0578925 4.10459 0
M  V30 27026 H 2635.09 -0.531082 3.09578 0
M  V30 27027 H 2634.29 0.967204 4.94632 0
M  V30 27028 H 2633.89 1.65401 3.35438 0
M  V30 27029 H 2636.18 1.8404 6.52024 0
M  V30 27030 H 2637.12 3.33939 6.24412 0
M  V30 27031 H 2637.53 1.85645 5.331 0
M  V30 27032 N 2636.93 -1.2032 1.01789 0
M  V30 27033 C 2637.88 -2.21015 0.560015 0
M  V30 27034 C 2638.86 -1.56218 -0.385339 0
M  V30 27035 O 2640.06 -1.75772 -0.208095 0
M  V30 27036 C 2637.19 -3.43157 -0.098995 0
M  V30 27037 C 2636.27 -4.15119 0.868143 0
M  V30 27038 N 2636.66 -4.63443 2.02618 0
M  V30 27039 C 2634.96 -4.40642 0.689239 0
M  V30 27040 C 2635.66 -5.18583 2.63527 0
M  V30 27041 N 2634.64 -5.08723 1.91578 0
M  V30 27042 H 2638.44 -2.56045 1.44285 0
M  V30 27043 H 2635.95 -1.36271 0.883405 0
M  V30 27044 H 2637.95 -4.14523 -0.44457 0
M  V30 27045 H 2636.61 -3.09632 -0.977654 0
M  V30 27046 H 2637.62 -4.58617 2.40606 0
M  V30 27047 H 2634.3 -4.17261 -0.141256 0
M  V30 27048 H 2635.69 -5.6634 3.61537 0
M  V30 27049 N 2638.41 -0.794293 -1.3612 0
M  V30 27050 C 2639.66 -0.368211 -1.98717 0
M  V30 27051 C 2639.98 1.06503 -1.63347 0
M  V30 27052 O 2639.25 1.73489 -0.909856 0
M  V30 27053 H 2637.83 -0.133159 -0.735036 0
M  V30 27054 H 2640.49 -1.01741 -1.66237 0
M  V30 27055 H 2639.59 -0.463977 -3.08632 0
M  V30 27056 N 2639.89 1.47813 -0.546727 0
M  V30 27057 C 2640.85 2.28358 0.196247 0
M  V30 27058 C 2641.85 1.36347 0.852413 0
M  V30 27059 O 2643.04 1.59079 0.709885 0
M  V30 27060 C 2640.17 3.15724 1.28574 0
M  V30 27061 H 2641.36 2.95512 -0.511138 0
M  V30 27062 H 2638.92 1.53329 -0.303275 0
M  V30 27063 H 2639.65 2.53238 2.02585 0
M  V30 27064 H 2639.44 3.83426 0.820161 0
M  V30 27065 H 2640.93 3.76438 1.80787 0
M  V30 27066 N 2641.36 0.28266 1.55044 0
M  V30 27067 C 2642.78 -0.0712717 1.59441 0
M  V30 27068 C 2642.98 -1.5397 1.29983 0
M  V30 27069 O 2642.04 -2.28971 1.06435 0
M  V30 27070 C 2643.35 0.310157 2.99096 0
M  V30 27071 C 2644.9 0.257398 3.1194 0
M  V30 27072 C 2645.37 0.613377 4.53874 0
M  V30 27073 N 2646.86 0.565214 4.59739 0
M  V30 27074 C 2647.6 0.81336 5.67602 0
M  V30 27075 N 2647.09 1.12652 6.8358 0
M  V30 27076 N 2648.89 0.741651 5.57186 0
M  V30 27077 H 2641.04 1.23987 1.72456 0
M  V30 27078 H 2643.3 0.501417 0.80454 0
M  V30 27079 H 2643.01 1.33168 3.25514 0
M  V30 27080 H 2642.88 -0.3453 3.75616 0
M  V30 27081 H 2645.27 -0.754855 2.85282 0
M  V30 27082 H 2645.35 0.94722 2.37616 0
M  V30 27083 H 2644.99 1.62335 4.81258 0
M  V30 27084 H 2644.92 -0.0983174 5.26508 0
M  V30 27085 H 2647.41 0.33336 3.76427 0
M  V30 27086 H 2647.73 1.30233 7.61748 0
M  V30 27087 H 2646.07 1.16437 6.85177 0
M  V30 27088 H 2649.26 0.496787 4.65456 0
M  V30 27089 H 2649.44 0.938418 6.41169 0
M  V30 27090 N 2642.84 -1.57597 0.0100627 0
M  V30 27091 C 2644.25 -1.78978 -0.531394 0
M  V30 27092 C 2644.6 -0.918485 -1.73373 0
M  V30 27093 O 2643.73 -0.123673 -2.16046 0
M  V30 27094 C 2644.32 -3.24593 -0.970803 0
M  V30 27095 C 2642.88 -3.47036 -1.4575 0
M  V30 27096 C 2642.03 -2.74202 -0.413336 0
M  V30 27097 H 2644.98 -1.56933 0.236193 0
M  V30 27098 H 2645 -3.33259 -1.83627 0
M  V30 27099 H 2644.51 -3.87982 -0.0955211 0
M  V30 27100 H 2642.62 -2.88875 -2.35334 0
M  V30 27101 H 2642.73 -4.55732 -1.47802 0
M  V30 27102 H 2641.09 -2.39117 -0.877224 0
M  V30 27103 H 2641.88 -3.40296 0.453151 0
M  V30 27104 N 2644.32 0.262839 -1.55393 0
M  V30 27105 C 2645.57 0.991116 -1.76129 0
M  V30 27106 C 2645.89 1.86449 -0.571116 0
M  V30 27107 O 2645.16 1.91483 0.413664 0
M  V30 27108 H 2643.74 0.368936 -0.649534 0
M  V30 27109 H 2646.4 0.284621 -1.92811 0
M  V30 27110 H 2645.5 1.62214 -2.66633 0
M  V30 27111 N 2645.8 1.48499 0.527807 0
M  V30 27112 C 2646.76 1.62699 1.61436 0
M  V30 27113 C 2647.76 0.500163 1.52823 0
M  V30 27114 O 2648.95 0.766003 1.56455 0
M  V30 27115 C 2646.08 1.59923 3.01061 0
M  V30 27116 H 2647.28 2.59585 1.50185 0
M  V30 27117 H 2644.83 1.37128 0.750031 0
M  V30 27118 H 2645.56 0.645219 3.17817 0
M  V30 27119 H 2645.35 2.41731 3.08721 0
M  V30 27120 H 2646.84 1.73057 3.80054 0
M  V30 27121 N 2647.28 -0.776847 1.37123 0
M  V30 27122 C 2648.5 -1.57102 1.35403 0
M  V30 27123 C 2648.93 -1.88006 -0.0595231 0
M  V30 27124 O 2648.29 -1.48846 -1.03511 0
M  V30 27125 C 2648.33 -2.86116 2.19477 0
M  V30 27126 O 2647.44 -3.8027 1.59589 0
M  V30 27127 H 2646.78 -0.476068 0.462877 0
M  V30 27128 H 2649.31 -0.9619 1.80579 0
M  V30 27129 H 2649.32 -3.35267 2.32508 0
M  V30 27130 H 2647.99 -2.6295 3.22227 0
M  V30 27131 H 2646.57 -3.38899 1.5557 0
M  V30 27132 N 2648.76 -1.2161 -1.00244 0
M  V30 27133 C 2649.7 -0.97765 -2.09071 0
M  V30 27134 C 2650.67 0.0972679 -1.65815 0
M  V30 27135 O 2651.86 -0.050378 -1.90733 0
M  V30 27136 C 2649 -0.551193 -3.4067 0
M  V30 27137 C 2648.11 -1.69583 -3.97323 0
M  V30 27138 C 2647.25 -1.21829 -5.17041 0
M  V30 27139 C 2646.28 -2.33509 -5.65809 0
M  V30 27140 N 2645.42 -1.86871 -6.76775 0
M  V30 27141 H 2650.26 -1.90928 -2.28802 0
M  V30 27142 H 2647.8 -0.951471 -1.12185 0
M  V30 27143 H 2649.76 -0.28517 -4.16224 0
M  V30 27144 H 2648.39 0.343432 -3.20968 0
M  V30 27145 H 2647.44 -2.07642 -3.1873 0
M  V30 27146 H 2648.75 -2.53625 -4.29507 0
M  V30 27147 H 2647.9 -0.909081 -5.9985 0
M  V30 27148 H 2646.64 -0.347954 -4.86457 0
M  V30 27149 H 2645.65 -2.6523 -4.81594 0
M  V30 27150 H 2646.87 -3.21043 -5.98421 0
M  V30 27151 H 2644.82 -1.02185 -6.47992 0
M  V30 27152 H 2644.74 -2.64484 -7.08226 0
M  V30 27153 H 2646 -1.58991 -7.63113 0
M  V30 27154 N 2650.23 1.19778 -1.02425 0
M  V30 27155 C 2651.2 2.21051 -0.605742 0
M  V30 27156 C 2652.2 1.57415 0.328181 0
M  V30 27157 O 2653.39 1.73815 0.115822 0
M  V30 27158 C 2650.52 3.40708 0.114306 0
M  V30 27159 H 2651.71 2.59591 -1.50174 0
M  V30 27160 H 2649.26 1.33375 -0.814911 0
M  V30 27161 H 2650 3.0768 1.02487 0
M  V30 27162 H 2649.78 3.88128 -0.55671 0
M  V30 27163 H 2651.27 4.15735 0.394199 0
M  V30 27164 N 2651.71 0.801501 1.35697 0
M  V30 27165 C 2652.96 0.380057 1.99207 0
M  V30 27166 C 2653.29 -1.04875 1.63447 0
M  V30 27167 O 2652.57 -1.72672 0.895253 0
M  V30 27168 C 2652.85 0.55777 3.55754 0
M  V30 27169 C 2652.7 2.03114 4.01329 0
M  V30 27170 C 2654.02 -0.0197195 4.40096 0
M  V30 27171 H 2651.14 0.139565 0.723665 0
M  V30 27172 H 2653.78 1.01009 1.60926 0
M  V30 27173 H 2651.93 0.0214424 3.88494 0
M  V30 27174 H 2653.6 2.62946 3.79021 0
M  V30 27175 H 2651.85 2.52942 3.52424 0
M  V30 27176 H 2652.52 2.10639 5.1023 0
M  V30 27177 H 2654.99 0.438251 4.13786 0
M  V30 27178 H 2653.87 0.134573 5.48735 0
M  V30 27179 H 2654.13 -1.11296 4.27862 0
M  V30 27180 N 2653.19 -1.47521 0.554558 0
M  V30 27181 C 2654.44 -2.02778 0.0295583 0
M  V30 27182 C 2654.77 -1.4283 -1.3158 0
M  V30 27183 O 2654.04 -0.582905 -1.8556 0
M  V30 27184 C 2654.33 -3.60039 -0.0663424 0
M  V30 27185 C 2654.18 -4.30425 1.30592 0
M  V30 27186 C 2655.5 -4.33113 -0.781086 0
M  V30 27187 H 2652.62 -0.736899 0.0122157 0
M  V30 27188 H 2655.26 -1.75979 0.716336 0
M  V30 27189 H 2653.41 -3.83003 -0.65124 0
M  V30 27190 H 2655.08 -4.18809 1.93382 0
M  V30 27191 H 2653.32 -3.90882 1.88131 0
M  V30 27192 H 2654 -5.38986 1.19156 0
M  V30 27193 H 2656.47 -4.15126 -0.284492 0
M  V30 27194 H 2655.35 -5.42784 -0.817142 0
M  V30 27195 H 2655.61 -4.02144 -1.83665 0
M  V30 27196 N 2654.67 -0.290879 -1.54892 0
M  V30 27197 C 2655.92 0.322078 -1.99112 0
M  V30 27198 C 2656.23 1.55782 -1.18285 0
M  V30 27199 O 2657.44 2.24472 -1.52724 0
M  V30 27200 C 2655.89 0.624375 -3.54443 0
M  V30 27201 C 2655.5 -0.592451 -4.44065 0
M  V30 27202 C 2657.24 1.19909 -4.07213 0
M  V30 27203 C 2655.15 -0.263866 -5.90811 0
M  V30 27204 H 2654.08 0.12412 -0.743714 0
M  V30 27205 H 2656.73 -0.398001 -1.79132 0
M  V30 27206 H 2655.11 1.40378 -3.70284 0
M  V30 27207 H 2656.29 -1.36894 -4.39996 0
M  V30 27208 H 2654.6 -1.08509 -4.02013 0
M  V30 27209 H 2657.2 1.459 -5.1441 0
M  V30 27210 H 2657.54 2.13809 -3.57199 0
M  V30 27211 H 2658.08 0.481618 -3.94874 0
M  V30 27212 H 2654.81 -1.17117 -6.44953 0
M  V30 27213 H 2654.33 0.47555 -5.97912 0
M  V30 27214 H 2656.01 0.138241 -6.46852 0
M  V30 27215 N 2656.15 1.57589 -0.0184203 0
M  V30 27216 C 2657.08 2.12601 0.965559 0
M  V30 27217 C 2658.06 1.03953 1.3464 0
M  V30 27218 O 2659.24 1.31731 1.4269 0
M  V30 27219 C 2656.37 2.64438 2.25145 0
M  V30 27220 C 2655.33 3.77777 2.01168 0
M  V30 27221 C 2654.65 4.15999 3.35929 0
M  V30 27222 C 2655.95 5.04298 1.35944 0
M  V30 27223 H 2657.65 2.95068 0.507452 0
M  V30 27224 H 2655.19 1.41941 0.242646 0
M  V30 27225 H 2657.14 3.01554 2.94352 0
M  V30 27226 H 2655.87 1.79117 2.73102 0
M  V30 27227 H 2654.53 3.41082 1.34382 0
M  V30 27228 H 2654.18 3.27676 3.81625 0
M  V30 27229 H 2653.88 4.92369 3.20696 0
M  V30 27230 H 2655.4 4.5569 4.06422 0
M  V30 27231 H 2656.81 5.39069 1.95135 0
M  V30 27232 H 2655.21 5.85595 1.31142 0
M  V30 27233 H 2656.28 4.83769 0.330986 0
M  V30 27234 N 2657.62 -0.254594 1.5553 0
M  V30 27235 C 2658.87 -0.985162 1.77264 0
M  V30 27236 C 2659.2 -1.85264 0.582319 0
M  V30 27237 O 2658.48 -1.89919 -0.419632 0
M  V30 27238 C 2658.76 -1.85219 3.08814 0
M  V30 27239 C 2658.61 -1.01342 4.38235 0
M  V30 27240 C 2659.93 -2.83606 3.36535 0
M  V30 27241 H 2657.05 -0.356731 0.644913 0
M  V30 27242 H 2659.69 -0.256202 1.88265 0
M  V30 27243 H 2657.84 -2.47371 2.99566 0
M  V30 27244 H 2659.52 -0.411189 4.59464 0
M  V30 27245 H 2657.76 -0.317498 4.32637 0
M  V30 27246 H 2658.43 -1.6537 5.26647 0
M  V30 27247 H 2660.91 -2.3159 3.45695 0
M  V30 27248 H 2659.78 -3.41399 4.29811 0
M  V30 27249 H 2660.04 -3.59677 2.5707 0
M  V30 27250 N 2659.1 -1.48777 -0.519925 0
M  V30 27251 C 2660.33 -1.60984 -1.29968 0
M  V30 27252 C 2660.74 -0.273917 -1.86802 0
M  V30 27253 O 2660.1 0.738164 -1.66905 0
M  V30 27254 C 2660.15 -2.6642 -2.44342 0
M  V30 27255 O 2659.87 -3.94828 -1.89848 0
M  V30 27256 C 2661.37 -2.89159 -3.36009 0
M  V30 27257 H 2658.59 -0.542503 -0.394882 0
M  V30 27258 H 2661.14 -1.94677 -0.62618 0
M  V30 27259 H 2659.29 -2.35557 -3.07557 0
M  V30 27260 H 2659.71 -4.52755 -2.6479 0
M  V30 27261 H 2661.18 -3.6671 -4.12586 0
M  V30 27262 H 2661.66 -1.98358 -3.91855 0
M  V30 27263 H 2662.26 -3.21364 -2.78577 0
M  V30 27264 N 2660.58 0.769564 -1.37534 0
M  V30 27265 C 2661.86 1.51766 -1.23395 0
M  V30 27266 C 2662.24 2.10402 0.171533 0
M  V30 27267 O 2661.58 1.9571 1.1794 0
M  V30 27268 C 2661.79 2.59681 -2.33167 0
M  V30 27269 C 2663.14 3.27024 -2.70815 0
M  V30 27270 O 2664.17 2.69977 -2.3236 0
M  V30 27271 O 2663.03 4.30167 -3.37074 0
M  V30 27272 H 2660.12 0.672282 -0.481628 0
M  V30 27273 H 2662.67 0.806342 -1.49319 0
M  V30 27274 H 2661.44 2.14488 -3.27277 0
M  V30 27275 H 2661.06 3.38411 -2.08719 0
M  V30 27276 N 2662.06 1.22139 0.995977 0
M  V30 27277 C 2663.3 1.04564 1.73765 0
M  V30 27278 C 2663.64 -0.418665 1.89633 0
M  V30 27279 O 2662.91 -1.31047 1.43725 0
M  V30 27280 C 2663.2 1.75387 3.14502 0
M  V30 27281 C 2663.05 3.29394 3.063 0
M  V30 27282 C 2664.37 1.50376 4.13612 0
M  V30 27283 H 2661.49 0.381261 0.630721 0
M  V30 27284 H 2664.13 1.50437 1.16054 0
M  V30 27285 H 2662.28 1.36389 3.63772 0
M  V30 27286 H 2663.95 3.77816 2.64674 0
M  V30 27287 H 2662.19 3.5923 2.4318 0
M  V30 27288 H 2662.86 3.74123 4.05877 0
M  V30 27289 H 2665.34 1.84246 3.73085 0
M  V30 27290 H 2664.22 2.0243 5.10209 0
M  V30 27291 H 2664.48 0.435688 4.39948 0
M  V30 27292 N 2663.54 -1.19233 1.03059 0
M  V30 27293 C 2664.76 -1.93457 0.747604 0
M  V30 27294 C 2665.19 -1.75081 -0.687617 0
M  V30 27295 O 2664.54 -1.05425 -1.47497 0
M  V30 27296 C 2664.59 -3.43217 1.10611 0
M  V30 27297 O 2663.7 -4.11782 0.225743 0
M  V30 27298 H 2663.04 -0.603894 0.276057 0
M  V30 27299 H 2665.57 -1.51261 1.37773 0
M  V30 27300 H 2665.58 -3.93889 1.06373 0
M  V30 27301 H 2664.25 -3.55913 2.15171 0
M  V30 27302 H 2662.83 -3.71465 0.32686 0
M  V30 27303 N 2665.01 -0.808686 -1.3527 0
M  V30 27304 C 2666.26 -0.390616 -1.99003 0
M  V30 27305 C 2666.59 1.04007 -1.64001 0
M  V30 27306 O 2665.87 1.72194 -0.904398 0
M  V30 27307 C 2666.15 -0.576629 -3.55453 0
M  V30 27308 C 2666 -2.0524 -4.00246 0
M  V30 27309 C 2667.32 -0.00362013 -4.401 0
M  V30 27310 H 2664.44 -0.143401 -0.722914 0
M  V30 27311 H 2667.08 -1.01861 -1.60388 0
M  V30 27312 H 2665.23 -0.0420449 -3.88477 0
M  V30 27313 H 2666.91 -2.64952 -3.77621 0
M  V30 27314 H 2665.15 -2.54807 -3.51078 0
M  V30 27315 H 2665.82 -2.13342 -5.09106 0
M  V30 27316 H 2668.3 -0.460189 -4.13547 0
M  V30 27317 H 2667.17 -0.163672 -5.48656 0
M  V30 27318 H 2667.43 1.09025 -4.28446 0
M  V30 27319 N 2666.49 1.47225 -0.562374 0
M  V30 27320 C 2667.77 1.95583 0.0256641 0
M  V30 27321 C 2668.15 1.50501 1.4803 0
M  V30 27322 O 2667.5 0.746219 2.15972 0
M  V30 27323 C 2667.71 3.48775 -0.12519 0
M  V30 27324 C 2669.06 4.24596 0.0174982 0
M  V30 27325 O 2670.08 3.56161 -0.0529967 0
M  V30 27326 O 2668.94 5.46235 0.170049 0
M  V30 27327 H 2666.03 0.824729 0.061242 0
M  V30 27328 H 2668.58 1.57602 -0.629261 0
M  V30 27329 H 2667.35 3.7441 -1.13721 0
M  V30 27330 H 2666.97 3.93535 0.567109 0
M  V30 27331 N 2667.97 0.299089 1.54736 0
M  V30 27332 C 2669.2 -0.316218 2.04975 0
M  V30 27333 C 2669.62 -1.46883 1.17504 0
M  V30 27334 O 2668.98 -1.80417 0.17871 0
M  V30 27335 C 2669.03 -0.751935 3.52673 0
M  V30 27336 O 2668.13 -1.8569 3.68229 0
M  V30 27337 H 2667.47 -0.0617058 0.661127 0
M  V30 27338 H 2670 0.440376 1.99805 0
M  V30 27339 H 2670.01 -1.04126 3.94489 0
M  V30 27340 H 2668.69 0.0912213 4.158 0
M  V30 27341 H 2667.26 -1.56828 3.38319 0
M  V30 27342 N 2669.45 -1.57577 0.0267774 0
M  V30 27343 C 2670.69 -1.91988 -0.653337 0
M  V30 27344 C 2671.03 -0.903293 -1.71913 0
M  V30 27345 O 2670.3 0.0743045 -1.94358 0
M  V30 27346 C 2670.59 -3.36888 -1.27194 0
M  V30 27347 C 2670.44 -4.49282 -0.215859 0
M  V30 27348 C 2671.76 -3.81707 -2.19062 0
M  V30 27349 H 2668.88 -0.698181 -0.236035 0
M  V30 27350 H 2671.52 -1.89816 0.083557 0
M  V30 27351 H 2669.67 -3.3887 -1.89999 0
M  V30 27352 H 2671.34 -4.59433 0.414571 0
M  V30 27353 H 2669.58 -4.31366 0.458931 0
M  V30 27354 H 2670.25 -5.47693 -0.688251 0
M  V30 27355 H 2672.73 -3.81447 -1.66246 0
M  V30 27356 H 2671.61 -4.83793 -2.59299 0
M  V30 27357 H 2671.87 -3.17078 -3.08081 0
M  V30 27358 N 2670.93 0.246342 -1.55663 0
M  V30 27359 C 2672.2 0.997169 -1.68273 0
M  V30 27360 C 2672.58 2.03348 -0.566821 0
M  V30 27361 O 2671.93 2.24424 0.429648 0
M  V30 27362 C 2672.14 1.63001 -3.08597 0
M  V30 27363 C 2673.49 2.13165 -3.67214 0
M  V30 27364 O 2674.51 1.7294 -3.114 0
M  V30 27365 O 2673.37 2.87023 -4.65059 0
M  V30 27366 H 2670.47 0.464193 -0.684437 0
M  V30 27367 H 2673.01 0.240085 -1.67993 0
M  V30 27368 H 2671.78 0.88046 -3.81266 0
M  V30 27369 H 2671.41 2.45328 -3.1289 0
M  V30 27370 N 2672.4 1.4905 0.512027 0
M  V30 27371 C 2673.37 1.64402 1.59702 0
M  V30 27372 C 2674.37 0.516344 1.52284 0
M  V30 27373 O 2675.56 0.782554 1.55633 0
M  V30 27374 C 2672.69 1.63107 2.99347 0
M  V30 27375 H 2673.88 2.61164 1.47423 0
M  V30 27376 H 2671.44 1.37916 0.735445 0
M  V30 27377 H 2672.17 0.678891 3.17114 0
M  V30 27378 H 2671.96 2.44992 3.0614 0
M  V30 27379 H 2673.45 1.77079 3.78197 0
M  V30 27380 N 2673.88 -0.762259 1.3794 0
M  V30 27381 C 2674.85 -1.85744 1.34282 0
M  V30 27382 C 2675.85 -1.58923 0.244997 0
M  V30 27383 O 2677.04 -1.66828 0.501394 0
M  V30 27384 C 2674.17 -3.23059 1.08838 0
M  V30 27385 H 2675.36 -1.90397 2.31709 0
M  V30 27386 H 2672.91 -0.963035 1.23107 0
M  V30 27387 H 2673.65 -3.24079 0.119824 0
M  V30 27388 H 2673.43 -3.4392 1.88312 0
M  V30 27389 H 2674.92 -4.03137 1.08953 0
M  V30 27390 N 2675.36 -1.22666 -0.989486 0
M  V30 27391 C 2676.32 -1.00109 -2.06181 0
M  V30 27392 C 2677.32 0.0337443 -1.60765 0
M  V30 27393 O 2678.51 -0.205102 -1.72988 0
M  V30 27394 C 2675.65 -0.512849 -3.3702 0
M  V30 27395 H 2676.84 -1.9526 -2.27626 0
M  V30 27396 H 2674.39 -1.04582 -1.16156 0
M  V30 27397 H 2675.13 0.44286 -3.21262 0
M  V30 27398 H 2674.91 -1.25949 -3.71321 0
M  V30 27399 H 2676.4 -0.375388 -4.15909 0
M  V30 27400 N 2676.84 1.18685 -1.0369 0
M  V30 27401 C 2678.12 1.84398 -0.652429 0
M  V30 27402 C 2678.5 1.92413 0.868352 0
M  V30 27403 O 2677.84 1.44719 1.7683 0
M  V30 27404 C 2678.05 3.22917 -1.32385 0
M  V30 27405 C 2679.4 3.98993 -1.45223 0
M  V30 27406 O 2680.43 3.32343 -1.28166 0
M  V30 27407 O 2679.29 5.184 -1.72984 0
M  V30 27408 H 2676.38 0.795005 -0.227806 0
M  V30 27409 H 2678.93 1.26108 -1.13555 0
M  V30 27410 H 2677.7 3.11964 -2.36208 0
M  V30 27411 H 2677.32 3.88859 -0.829107 0
M  V30 27412 N 2678.32 0.815849 1.34839 0
M  V30 27413 C 2679.28 0.238225 2.27959 0
M  V30 27414 C 2680.28 -0.579789 1.49984 0
M  V30 27415 O 2681.47 -0.396923 1.69618 0
M  V30 27416 C 2678.6 -0.666817 3.34315 0
M  V30 27417 H 2679.8 1.05963 2.80556 0
M  V30 27418 H 2677.35 0.587181 1.44851 0
M  V30 27419 H 2678.08 -1.51155 2.86919 0
M  V30 27420 H 2677.87 -0.0818416 3.92015 0
M  V30 27421 H 2679.36 -1.06499 4.03792 0
M  V30 27422 N 2679.8 -1.46924 0.570174 0
M  V30 27423 C 2680.76 -2.28642 -0.159893 0
M  V30 27424 C 2681.76 -1.37686 -0.830614 0
M  V30 27425 O 2682.95 -1.60189 -0.684487 0
M  V30 27426 C 2680.08 -3.17729 -1.23535 0
M  V30 27427 H 2681.27 -2.94661 0.558087 0
M  V30 27428 H 2678.83 -1.52828 0.32763 0
M  V30 27429 H 2679.56 -2.56429 -1.98531 0
M  V30 27430 H 2679.35 -3.84683 -0.759058 0
M  V30 27431 H 2680.84 -3.79267 -1.74775 0
M  V30 27432 N 2681.27 -0.307291 -1.54575 0
M  V30 27433 C 2682.69 0.045897 -1.59534 0
M  V30 27434 C 2682.89 1.51882 -1.32416 0
M  V30 27435 O 2681.95 2.27249 -1.10064 0
M  V30 27436 C 2683.26 -0.357701 -2.98565 0
M  V30 27437 C 2684.81 -0.306992 -3.11491 0
M  V30 27438 C 2685.28 -0.685507 -4.52841 0
M  V30 27439 N 2686.77 -0.638283 -4.58781 0
M  V30 27440 C 2687.51 -0.903558 -5.66236 0
M  V30 27441 N 2687 -1.23513 -6.81701 0
M  V30 27442 N 2688.8 -0.8302 -5.55935 0
M  V30 27443 H 2680.95 -1.26715 -1.70462 0
M  V30 27444 H 2683.21 -0.514153 -0.796461 0
M  V30 27445 H 2682.92 -1.3833 -3.23354 0
M  V30 27446 H 2682.79 0.285499 -3.76118 0
M  V30 27447 H 2685.18 0.709373 -2.86447 0
M  V30 27448 H 2685.26 -0.984902 -2.36079 0
M  V30 27449 H 2684.9 -1.69971 -4.78615 0
M  V30 27450 H 2684.83 0.0145421 -5.26598 0
M  V30 27451 H 2687.32 -0.393204 -3.75849 0
M  V30 27452 H 2687.64 -1.42335 -7.59579 0
M  V30 27453 H 2685.98 -1.27323 -6.83238 0
M  V30 27454 H 2689.17 -0.570774 -4.64607 0
M  V30 27455 H 2689.35 -1.0403 -6.39595 0
M  V30 27456 N 2682.75 1.57561 -0.0351337 0
M  V30 27457 C 2683.98 1.9676 0.655767 0
M  V30 27458 C 2684.4 0.911837 1.64521 0
M  V30 27459 O 2683.76 -0.126642 1.80857 0
M  V30 27460 C 2683.81 3.35049 1.3332 0
M  V30 27461 O 2682.91 3.31839 2.4486 0
M  V30 27462 H 2682.25 0.641391 0.171795 0
M  V30 27463 H 2684.78 2.04361 -0.0987728 0
M  V30 27464 H 2684.79 3.71416 1.6886 0
M  V30 27465 H 2683.47 4.11432 0.607961 0
M  V30 27466 H 2682.04 3.07197 2.11387 0
M  V30 27467 N 2684.23 -0.238084 1.55791 0
M  V30 27468 C 2685.18 -1.3146 1.91888 0
M  V30 27469 C 2686.17 -1.49376 0.798955 0
M  V30 27470 O 2687.38 -1.50746 0.983652 0
M  V30 27471 H 2683.75 -0.440389 0.609559 0
M  V30 27472 H 2685.72 -0.982876 2.81748 0
M  V30 27473 C 2684.47 -2.66126 2.23768 0
M  V30 27474 H 2683.8 -2.53144 3.09449 0
M  V30 27475 H 2685.24 -3.40304 2.52921 0
M  V30 27476 C 2683.69 -3.19888 1.05705 0
M  V30 27477 O 2684.22 -4.00505 0.309594 0
M  V30 27478 N 2682.43 -2.78034 0.8453 0
M  V30 27479 H 2681.98 -2.12585 1.45483 0
M  V30 27480 H 2681.94 -3.14348 0.0570525 0
M  V30 27481 N 2685.71 -1.4932 -0.504115 0
M  V30 27482 C 2687.12 -1.36013 -0.835015 0
M  V30 27483 C 2687.32 -0.390842 -1.97673 0
M  V30 27484 O 2686.38 0.178611 -2.51867 0
M  V30 27485 C 2687.69 -2.76659 -1.17816 0
M  V30 27486 C 2689.24 -2.85336 -1.28655 0
M  V30 27487 C 2689.72 -4.26742 -1.663 0
M  V30 27488 N 2691.21 -4.29537 -1.73355 0
M  V30 27489 C 2691.94 -5.35914 -2.03921 0
M  V30 27490 N 2691.44 -6.52539 -2.32732 0
M  V30 27491 N 2693.23 -5.23328 -2.05145 0
M  V30 27492 H 2685.38 -2.10938 0.248801 0
M  V30 27493 H 2687.64 -0.946748 0.0487128 0
M  V30 27494 H 2687.35 -3.49271 -0.41262 0
M  V30 27495 H 2687.22 -3.11828 -2.12233 0
M  V30 27496 H 2689.61 -2.12963 -2.04281 0
M  V30 27497 H 2689.69 -2.53753 -0.322959 0
M  V30 27498 H 2689.34 -4.9964 -0.912252 0
M  V30 27499 H 2689.27 -4.55787 -2.63753 0
M  V30 27500 H 2691.76 -3.45426 -1.53262 0
M  V30 27501 H 2692.07 -7.29435 -2.55235 0
M  V30 27502 H 2690.42 -6.55771 -2.30195 0
M  V30 27503 H 2693.61 -4.31223 -1.82111 0
M  V30 27504 H 2693.78 -6.06326 -2.28633 0
M  V30 27505 N 2687.19 0.754933 -1.38342 0
M  V30 27506 C 2688.43 1.51626 -1.34675 0
M  V30 27507 C 2688.76 1.94096 0.0635695 0
M  V30 27508 O 2688.04 1.65332 1.02447 0
M  V30 27509 C 2688.32 2.76977 -2.30121 0
M  V30 27510 C 2688.18 2.40654 -3.80008 0
M  V30 27511 C 2689.49 3.78994 -2.23722 0
M  V30 27512 H 2686.61 0.550048 -0.490527 0
M  V30 27513 H 2689.26 0.864777 -1.69179 0
M  V30 27514 H 2687.41 3.32567 -2.00827 0
M  V30 27515 H 2689.08 1.90849 -4.19969 0
M  V30 27516 H 2687.32 1.7313 -3.97754 0
M  V30 27517 H 2687.99 3.30332 -4.4225 0
M  V30 27518 H 2690.47 3.3294 -2.4958 0
M  V30 27519 H 2689.34 4.64398 -2.92618 0
M  V30 27520 H 2689.6 4.24482 -1.23561 0
M  V30 27521 N 2688.66 1.23189 0.982967 0
M  V30 27522 C 2689.89 1.08904 1.75919 0
M  V30 27523 C 2690.31 -0.359686 1.85342 0
M  V30 27524 O 2689.66 -1.2489 1.33074 0
M  V30 27525 C 2689.71 1.70551 3.18739 0
M  V30 27526 O 2689.44 3.09758 3.09809 0
M  V30 27527 C 2690.94 1.61674 4.12767 0
M  V30 27528 H 2688.16 0.381262 0.55216 0
M  V30 27529 H 2690.7 1.62987 1.23513 0
M  V30 27530 H 2688.86 1.20508 3.6818 0
M  V30 27531 H 2689.27 3.39621 3.99697 0
M  V30 27532 H 2690.74 2.09515 5.10693 0
M  V30 27533 H 2691.22 0.575086 4.35419 0
M  V30 27534 H 2691.83 2.11071 3.69228 0
M  V30 27535 N 2690.14 -1.18133 1.04318 0
M  V30 27536 C 2691.39 -1.88455 0.749161 0
M  V30 27537 C 2691.72 -1.80301 -0.721459 0
M  V30 27538 O 2691 -1.20502 -1.52674 0
M  V30 27539 C 2691.28 -3.38836 1.21911 0
M  V30 27540 C 2691.13 -3.55787 2.75201 0
M  V30 27541 C 2692.45 -4.3256 0.811161 0
M  V30 27542 H 2689.57 -0.684324 0.273624 0
M  V30 27543 H 2692.21 -1.38973 1.29563 0
M  V30 27544 H 2690.36 -3.81109 0.754204 0
M  V30 27545 H 2692.03 -3.22589 3.29748 0
M  V30 27546 H 2690.28 -2.98358 3.14905 0
M  V30 27547 H 2690.95 -4.61312 3.03143 0
M  V30 27548 H 2693.42 -3.9808 1.21125 0
M  V30 27549 H 2692.3 -5.36336 1.1677 0
M  V30 27550 H 2692.56 -4.41177 -0.285518 0
M  V30 27551 N 2691.62 -0.822988 -1.34405 0
M  V30 27552 C 2692.87 -0.411092 -1.98283 0
M  V30 27553 C 2693.2 1.02585 -1.65247 0
M  V30 27554 O 2692.45 1.72927 -0.91622 0
M  V30 27555 C 2692.75 -0.56033 -3.5298 0
M  V30 27556 C 2692.42 -1.963 -4.05927 0
M  V30 27557 C 2691.08 -2.34671 -4.20099 0
M  V30 27558 C 2693.43 -2.87993 -4.34407 0
M  V30 27559 C 2690.76 -3.6407 -4.60076 0
M  V30 27560 C 2693.11 -4.16855 -4.7583 0
M  V30 27561 C 2691.77 -4.55203 -4.88207 0
M  V30 27562 H 2691.04 -0.150429 -0.72557 0
M  V30 27563 H 2693.69 -1.04695 -1.60347 0
M  V30 27564 H 2692 0.158913 -3.91478 0
M  V30 27565 H 2693.69 -0.222157 -4.00384 0
M  V30 27566 H 2690.28 -1.65494 -3.9536 0
M  V30 27567 H 2694.47 -2.59591 -4.22997 0
M  V30 27568 H 2689.72 -3.93608 -4.67849 0
M  V30 27569 H 2693.9 -4.87993 -4.96826 0
M  V30 27570 H 2691.52 -5.55521 -5.18942 0
M  V30 27571 N 2693.1 1.4662 -0.577957 0
M  V30 27572 C 2694.51 1.86096 -0.150104 0
M  V30 27573 C 2694.86 1.48212 1.2856 0
M  V30 27574 O 2693.99 0.894788 1.97034 0
M  V30 27575 C 2694.58 3.37757 -0.265636 0
M  V30 27576 C 2693.14 3.76247 0.107314 0
M  V30 27577 C 2692.29 2.70647 -0.603758 0
M  V30 27578 H 2695.24 1.37842 -0.786462 0
M  V30 27579 H 2695.26 3.77063 0.510286 0
M  V30 27580 H 2694.77 3.65299 -1.31066 0
M  V30 27581 H 2692.87 3.54323 1.15266 0
M  V30 27582 H 2692.98 4.78363 -0.265694 0
M  V30 27583 H 2691.35 2.54661 -0.0445331 0
M  V30 27584 H 2692.13 3.01029 -1.65034 0
M  V30 27585 N 2694.58 0.315484 1.5441 0
M  V30 27586 C 2695.83 -0.29036 1.99599 0
M  V30 27587 C 2696.14 -1.5388 1.20749 0
M  V30 27588 O 2697.34 -2.22014 1.56275 0
M  V30 27589 C 2695.8 -0.567908 3.55391 0
M  V30 27590 C 2695.41 0.663023 4.43067 0
M  V30 27591 C 2697.15 -1.13415 4.09069 0
M  V30 27592 C 2695.06 0.357825 5.90317 0
M  V30 27593 H 2693.99 -0.112272 0.745594 0
M  V30 27594 H 2696.64 0.426449 1.78476 0
M  V30 27595 H 2695.02 -1.34469 3.7247 0
M  V30 27596 H 2696.2 1.43877 4.37763 0
M  V30 27597 H 2694.51 1.14891 4.00236 0
M  V30 27598 H 2697.11 -1.37698 5.16666 0
M  V30 27599 H 2697.45 -2.08099 3.60556 0
M  V30 27600 H 2697.98 -0.418736 3.9559 0
M  V30 27601 H 2694.72 1.27362 6.43008 0
M  V30 27602 H 2694.24 -0.380367 5.98593 0
M  V30 27603 H 2695.92 -0.0353146 6.4699 0
M  V30 27604 N 2696.05 -1.5754 0.0434891 0
M  V30 27605 C 2697.3 -1.92005 -0.630753 0
M  V30 27606 C 2697.62 -0.921838 -1.71835 0
M  V30 27607 O 2696.89 0.0344876 -1.9587 0
M  V30 27608 H 2695.47 -0.708749 -0.235975 0
M  V30 27609 H 2698.14 -1.9467 0.0946804 0
M  V30 27610 H 2697.23 -2.93028 -1.07429 0
M  V30 27611 N 2697.53 0.229818 -1.55915 0
M  V30 27612 C 2698.78 0.953424 -1.77743 0
M  V30 27613 C 2699.09 1.85827 -0.610557 0
M  V30 27614 O 2700.3 2.61991 -0.712265 0
M  V30 27615 C 2698.76 1.74546 -3.14741 0
M  V30 27616 C 2698.36 0.887165 -4.39128 0
M  V30 27617 C 2700.11 2.46078 -3.45899 0
M  V30 27618 C 2698.02 1.67607 -5.67152 0
M  V30 27619 H 2696.95 0.359729 -0.662654 0
M  V30 27620 H 2699.6 0.207544 -1.82323 0
M  V30 27621 H 2697.98 2.53394 -3.04315 0
M  V30 27622 H 2699.15 0.139811 -4.60588 0
M  V30 27623 H 2697.47 0.28437 -4.15428 0
M  V30 27624 H 2700.06 3.05587 -4.38772 0
M  V30 27625 H 2700.41 3.18551 -2.68013 0
M  V30 27626 H 2700.94 1.74227 -3.57617 0
M  V30 27627 H 2697.68 0.994767 -6.47908 0
M  V30 27628 H 2697.2 2.39826 -5.49767 0
M  V30 27629 H 2698.88 2.23887 -6.07029 0
M  V30 27630 N 2699.01 1.49585 0.49619 0
M  V30 27631 C 2700.26 1.59 1.24754 0
M  V30 27632 C 2700.58 0.280809 1.92968 0
M  V30 27633 O 2699.85 -0.700166 1.8296 0
M  V30 27634 H 2698.43 0.585844 0.46346 0
M  V30 27635 H 2701.09 1.86236 0.574645 0
M  V30 27636 H 2700.19 2.3885 2.00891 0
M  V30 27637 N 2700.49 -0.747586 1.3874 0
M  V30 27638 C 2701.77 -1.49784 1.25794 0
M  V30 27639 C 2702.15 -2.10648 -0.138038 0
M  V30 27640 O 2701.49 -1.97562 -1.14811 0
M  V30 27641 C 2701.7 -2.55938 2.37269 0
M  V30 27642 C 2703.05 -3.22674 2.75983 0
M  V30 27643 O 2704.08 -2.66246 2.36625 0
M  V30 27644 O 2702.93 -4.2475 3.43875 0
M  V30 27645 H 2700.03 -0.664535 0.492263 0
M  V30 27646 H 2702.57 -0.782484 1.50583 0
M  V30 27647 H 2701.35 -2.09255 3.30648 0
M  V30 27648 H 2700.97 -3.35048 2.14077 0
M  V30 27649 N 2701.97 -1.23709 -0.97642 0
M  V30 27650 C 2703.38 -1.0006 -1.24339 0
M  V30 27651 C 2703.58 0.295897 -1.99316 0
M  V30 27652 O 2702.64 1.01431 -2.31231 0
M  V30 27653 C 2703.95 -2.21005 -2.03905 0
M  V30 27654 C 2705.5 -2.25537 -2.1703 0
M  V30 27655 C 2705.97 -3.4608 -2.99988 0
M  V30 27656 N 2707.47 -3.46343 -3.07572 0
M  V30 27657 C 2708.2 -4.36271 -3.72096 0
M  V30 27658 N 2707.7 -5.3644 -4.38411 0
M  V30 27659 N 2709.49 -4.24004 -3.69022 0
M  V30 27660 H 2701.64 -2.07038 -0.474244 0
M  V30 27661 H 2703.9 -0.908096 -0.272151 0
M  V30 27662 H 2703.61 -3.15114 -1.56192 0
M  V30 27663 H 2703.48 -2.22414 -3.0465 0
M  V30 27664 H 2705.87 -1.31965 -2.63949 0
M  V30 27665 H 2705.95 -2.28158 -1.1566 0
M  V30 27666 H 2705.6 -4.39961 -2.53764 0
M  V30 27667 H 2705.53 -3.40701 -4.01535 0
M  V30 27668 H 2708.02 -2.7387 -2.60392 0
M  V30 27669 H 2708.33 -6.01308 -4.85436 0
M  V30 27670 H 2706.67 -5.40336 -4.37107 0
M  V30 27671 H 2709.87 -3.44989 -3.16386 0
M  V30 27672 H 2710.04 -4.94289 -4.19025 0
M  V30 27673 N 2703.44 1.17579 -1.04943 0
M  V30 27674 C 2704.67 1.91424 -0.777199 0
M  V30 27675 C 2705.08 1.76916 0.670616 0
M  V30 27676 O 2704.43 1.10216 1.46963 0
M  V30 27677 C 2704.49 3.43051 -1.07501 0
M  V30 27678 C 2704.15 3.8134 -2.5185 0
M  V30 27679 C 2705.15 3.84394 -3.50054 0
M  V30 27680 C 2702.83 4.12377 -2.86794 0
M  V30 27681 C 2704.83 4.17948 -4.81246 0
M  V30 27682 C 2702.51 4.45601 -4.1819 0
M  V30 27683 C 2703.51 4.48364 -5.15227 0
M  V30 27684 O 2703.2 4.80807 -6.44267 0
M  V30 27685 H 2702.93 0.61427 -0.28222 0
M  V30 27686 H 2705.49 1.50054 -1.4026 0
M  V30 27687 H 2703.72 3.84703 -0.392504 0
M  V30 27688 H 2705.41 3.98154 -0.78919 0
M  V30 27689 H 2706.17 3.60543 -3.24398 0
M  V30 27690 H 2702.05 4.09398 -2.11929 0
M  V30 27691 H 2705.59 4.2002 -5.56982 0
M  V30 27692 H 2701.49 4.68914 -4.4361 0
M  V30 27693 H 2702.26 4.98675 -6.4905 0
M  V30 27694 N 2704.92 0.830104 1.33967 0
M  V30 27695 C 2706.2 0.343892 1.92553 0
M  V30 27696 C 2706.58 -1.16968 1.75732 0
M  V30 27697 O 2705.93 -1.98009 1.14038 0
M  V30 27698 C 2706.14 0.781133 3.40146 0
M  V30 27699 C 2707.49 0.784093 4.17297 0
M  V30 27700 O 2708.51 0.724173 3.48761 0
M  V30 27701 O 2707.37 0.863834 5.3963 0
M  V30 27702 H 2704.46 0.0954972 0.821468 0
M  V30 27703 H 2707.01 0.915373 1.42895 0
M  V30 27704 H 2705.78 1.82335 3.46222 0
M  V30 27705 H 2705.4 0.18574 3.97166 0
M  V30 27706 N 2706.4 -1.46311 0.585725 0
M  V30 27707 C 2707.36 -2.28798 -0.135633 0
M  V30 27708 C 2708.36 -1.38559 -0.815964 0
M  V30 27709 O 2709.55 -1.60906 -0.667459 0
M  V30 27710 C 2706.69 -3.19022 -1.20158 0
M  V30 27711 H 2707.88 -2.94053 0.589308 0
M  V30 27712 H 2705.43 -1.52472 0.343821 0
M  V30 27713 H 2706.17 -2.58521 -1.958 0
M  V30 27714 H 2705.95 -3.85466 -0.718214 0
M  V30 27715 H 2707.44 -3.81099 -1.70743 0
M  V30 27716 N 2707.88 -0.323668 -1.54241 0
M  V30 27717 C 2708.84 0.529563 -2.22998 0
M  V30 27718 C 2709.84 1.04345 -1.22347 0
M  V30 27719 O 2711.03 0.935863 -1.46926 0
M  V30 27720 C 2708.16 1.73557 -2.93412 0
M  V30 27721 H 2709.36 -0.0715045 -2.99815 0
M  V30 27722 H 2706.91 -0.0747533 -1.56121 0
M  V30 27723 H 2707.65 2.37587 -2.20733 0
M  V30 27724 H 2707.43 1.37449 -3.67219 0
M  V30 27725 H 2708.92 2.34122 -3.45799 0
M  V30 27726 N 2709.36 1.57515 -0.0518432 0
M  V30 27727 C 2710.29 2.08516 0.951505 0
M  V30 27728 C 2711.3 1.01313 1.27434 0
M  V30 27729 O 2712.49 1.28878 1.23502 0
M  V30 27730 C 2709.59 2.51384 2.27287 0
M  V30 27731 C 2708.76 3.81931 2.13185 0
M  V30 27732 C 2707.82 4.11104 3.28451 0
M  V30 27733 O 2706.85 4.81014 3.04325 0
M  V30 27734 N 2708.05 3.63069 4.52947 0
M  V30 27735 H 2710.82 2.95221 0.51619 0
M  V30 27736 H 2708.38 1.61341 0.134382 0
M  V30 27737 H 2710.37 2.67976 3.03267 0
M  V30 27738 H 2708.94 1.69923 2.62383 0
M  V30 27739 H 2708.16 3.74914 1.21792 0
M  V30 27740 H 2709.45 4.67419 2.0099 0
M  V30 27741 H 2708.85 3.06554 4.75438 0
M  V30 27742 H 2707.4 3.84898 5.2602 0
M  V30 27743 N 2710.84 -0.221546 1.56035 0
M  V30 27744 C 2711.77 -1.27776 1.95436 0
M  V30 27745 C 2712.75 -1.48887 0.82259 0
M  V30 27746 O 2713.93 -1.61071 1.08489 0
M  V30 27747 C 2711.06 -2.62755 2.27106 0
M  V30 27748 C 2710.02 -2.563 3.42774 0
M  V30 27749 C 2709.34 -3.95308 3.60049 0
M  V30 27750 C 2710.64 -2.11084 4.77745 0
M  V30 27751 H 2712.34 -0.950454 2.83913 0
M  V30 27752 H 2709.88 -0.455767 1.36597 0
M  V30 27753 H 2711.83 -3.36803 2.53262 0
M  V30 27754 H 2710.56 -2.97173 1.35483 0
M  V30 27755 H 2709.22 -1.84709 3.16667 0
M  V30 27756 H 2708.87 -4.27034 2.65802 0
M  V30 27757 H 2708.57 -3.91871 4.37848 0
M  V30 27758 H 2710.09 -4.71018 3.88554 0
M  V30 27759 H 2711.5 -2.74876 5.03106 0
M  V30 27760 H 2709.9 -2.18707 5.58827 0
M  V30 27761 H 2710.97 -1.06313 4.73102 0
M  V30 27762 N 2712.31 -1.49846 -0.48825 0
M  V30 27763 C 2713.73 -1.36891 -0.820542 0
M  V30 27764 C 2713.93 -0.411786 -1.97247 0
M  V30 27765 O 2712.99 0.151887 -2.52043 0
M  V30 27766 C 2714.3 -2.77893 -1.14875 0
M  V30 27767 C 2715.85 -2.86685 -1.25621 0
M  V30 27768 C 2716.32 -4.28481 -1.61764 0
M  V30 27769 N 2717.81 -4.31352 -1.68789 0
M  V30 27770 C 2718.55 -5.38047 -1.98225 0
M  V30 27771 N 2718.04 -6.54971 -2.25798 0
M  V30 27772 N 2719.84 -5.25474 -1.99583 0
M  V30 27773 H 2711.99 -2.10662 0.27116 0
M  V30 27774 H 2714.25 -0.946178 0.0587516 0
M  V30 27775 H 2713.96 -3.49689 -0.375552 0
M  V30 27776 H 2713.83 -3.14062 -2.08914 0
M  V30 27777 H 2716.22 -2.15118 -2.02011 0
M  V30 27778 H 2716.3 -2.54081 -0.296027 0
M  V30 27779 H 2715.94 -5.0058 -0.859207 0
M  V30 27780 H 2715.87 -4.58559 -2.58904 0
M  V30 27781 H 2718.36 -3.47032 -1.49589 0
M  V30 27782 H 2718.68 -7.32101 -2.47484 0
M  V30 27783 H 2717.02 -6.58175 -2.23227 0
M  V30 27784 H 2720.21 -4.3313 -1.77527 0
M  V30 27785 H 2720.39 -6.08717 -2.22189 0
M  V30 27786 N 2713.79 0.740218 -1.39135 0
M  V30 27787 C 2715.04 1.4951 -1.35387 0
M  V30 27788 C 2715.35 1.95538 0.0491556 0
M  V30 27789 O 2716.56 2.70693 0.209209 0
M  V30 27790 C 2715.02 2.70131 -2.37817 0
M  V30 27791 C 2714.62 2.31074 -3.83808 0
M  V30 27792 C 2716.37 3.47973 -2.43136 0
M  V30 27793 C 2714.27 3.48387 -4.77892 0
M  V30 27794 H 2713.2 0.561426 -0.503306 0
M  V30 27795 H 2715.86 0.807945 -1.64756 0
M  V30 27796 H 2714.24 3.40895 -2.01511 0
M  V30 27797 H 2715.41 1.6789 -4.29126 0
M  V30 27798 H 2713.73 1.66336 -3.81735 0
M  V30 27799 H 2716.32 4.35222 -3.10621 0
M  V30 27800 H 2716.67 3.90071 -1.4543 0
M  V30 27801 H 2717.2 2.84234 -2.78309 0
M  V30 27802 H 2713.94 3.11343 -5.76841 0
M  V30 27803 H 2713.46 4.10568 -4.37257 0
M  V30 27804 H 2715.14 4.14791 -4.96545 0
M  V30 27805 N 2715.27 1.24225 0.969846 0
M  V30 27806 C 2716.2 1.05733 2.08189 0
M  V30 27807 C 2717.18 -0.0290466 1.70075 0
M  V30 27808 O 2718.37 0.137617 1.93712 0
M  V30 27809 C 2715.5 0.659055 3.40989 0
M  V30 27810 C 2714.45 1.69396 3.93051 0
M  V30 27811 C 2713.78 1.15081 5.22169 0
M  V30 27812 C 2715.08 3.08943 4.21132 0
M  V30 27813 H 2716.77 1.9875 2.23917 0
M  V30 27814 H 2714.32 0.956986 1.076 0
M  V30 27815 H 2716.27 0.516694 4.1822 0
M  V30 27816 H 2714.99 -0.306802 3.25156 0
M  V30 27817 H 2713.65 1.8245 3.17974 0
M  V30 27818 H 2713.3 0.175627 5.02693 0
M  V30 27819 H 2713 1.84238 5.57969 0
M  V30 27820 H 2714.52 1.02053 6.02011 0
M  V30 27821 H 2715.94 2.9913 4.89075 0
M  V30 27822 H 2714.33 3.75433 4.68156 0
M  V30 27823 H 2715.4 3.57142 3.2799 0
M  V30 27824 N 2716.75 -1.1702 1.05565 0
M  V30 27825 C 2717.71 -2.19367 0.664137 0
M  V30 27826 C 2718.71 -1.5823 -0.28633 0
M  V30 27827 O 2719.9 -1.74061 -0.0696974 0
M  V30 27828 C 2717.03 -3.40892 -0.0239333 0
M  V30 27829 H 2718.23 -2.55518 1.57004 0
M  V30 27830 H 2715.78 -1.31168 0.849987 0
M  V30 27831 H 2716.51 -3.10289 -0.942934 0
M  V30 27832 H 2716.3 -3.86515 0.659419 0
M  V30 27833 H 2717.79 -4.16634 -0.283835 0
M  V30 27834 N 2718.23 -0.837197 -1.33524 0
M  V30 27835 C 2719.47 -0.431246 -1.97445 0
M  V30 27836 C 2719.79 1.01252 -1.66652 0
M  V30 27837 O 2719.06 1.70507 -0.964589 0
M  V30 27838 H 2717.64 -0.156476 -0.730427 0
M  V30 27839 H 2720.31 -1.06979 -1.62916 0
M  V30 27840 H 2719.4 -0.561931 -3.07 0
M  V30 27841 N 2719.7 1.45999 -0.593476 0
M  V30 27842 C 2721.11 1.85926 -0.169834 0
M  V30 27843 C 2721.47 1.49567 1.26981 0
M  V30 27844 O 2720.59 0.915636 1.96074 0
M  V30 27845 C 2721.19 3.37456 -0.301444 0
M  V30 27846 C 2719.74 3.7634 0.0674022 0
M  V30 27847 C 2718.89 2.69992 -0.63243 0
M  V30 27848 H 2721.84 1.37 -0.801038 0
M  V30 27849 H 2721.86 3.77583 0.470265 0
M  V30 27850 H 2721.38 3.63888 -1.34933 0
M  V30 27851 H 2719.48 3.55525 1.11501 0
M  V30 27852 H 2719.59 4.78054 -0.316416 0
M  V30 27853 H 2717.95 2.546 -0.0715408 0
M  V30 27854 H 2718.74 2.99262 -1.68218 0
M  V30 27855 N 2721.18 0.331843 1.54067 0
M  V30 27856 C 2722.15 -0.517729 2.23276 0
M  V30 27857 C 2723.15 -1.03695 1.22898 0
M  V30 27858 O 2724.34 -0.928058 1.4742 0
M  V30 27859 C 2721.47 -1.71998 2.94329 0
M  V30 27860 H 2722.66 0.0874034 2.99773 0
M  V30 27861 H 2720.21 0.0830317 1.56079 0
M  V30 27862 H 2720.95 -2.36413 2.2199 0
M  V30 27863 H 2720.73 -1.355 3.67943 0
M  V30 27864 H 2722.22 -2.32285 3.47035 0
M  V30 27865 N 2722.66 -1.57485 0.0601958 0
M  V30 27866 C 2723.91 -1.92663 -0.610353 0
M  V30 27867 C 2724.23 -0.940011 -1.70847 0
M  V30 27868 O 2723.5 0.013711 -1.95895 0
M  V30 27869 H 2722.08 -0.711212 -0.228445 0
M  V30 27870 H 2724.74 -1.94559 0.115322 0
M  V30 27871 H 2723.84 -2.94151 -1.04315 0
M  V30 27872 N 2724.14 0.213268 -1.5615 0
M  V30 27873 C 2725.42 0.961251 -1.70351 0
M  V30 27874 C 2725.8 2.021 -0.609827 0
M  V30 27875 O 2725.14 2.25285 0.381948 0
M  V30 27876 C 2725.35 1.56418 -3.11985 0
M  V30 27877 C 2726.7 2.05328 -3.71653 0
M  V30 27878 O 2727.73 1.66296 -3.14998 0
M  V30 27879 O 2726.58 2.77094 -4.71043 0
M  V30 27880 H 2723.68 0.44957 -0.694129 0
M  V30 27881 H 2726.22 0.204397 -1.68465 0
M  V30 27882 H 2725 0.799389 -3.83048 0
M  V30 27883 H 2724.62 2.38636 -3.18023 0
M  V30 27884 N 2725.62 1.50103 0.480296 0
M  V30 27885 C 2726.84 1.64644 1.26123 0
M  V30 27886 C 2727.27 0.325855 1.85256 0
M  V30 27887 O 2726.62 -0.709164 1.66855 0
M  V30 27888 C 2726.67 2.73305 2.35238 0
M  V30 27889 O 2725.78 2.33917 3.39642 0
M  V30 27890 H 2725.12 0.55038 0.371453 0
M  V30 27891 H 2727.65 1.96422 0.572661 0
M  V30 27892 H 2727.66 2.96103 2.8069 0
M  V30 27893 H 2726.33 3.69154 1.91568 0
M  V30 27894 H 2724.91 2.2153 2.99965 0
M  V30 27895 N 2727.09 -0.732829 1.39526 0
M  V30 27896 C 2728.04 -1.86821 1.38566 0
M  V30 27897 C 2729.04 -1.67259 0.268497 0
M  V30 27898 O 2730.24 -1.74574 0.438644 0
M  V30 27899 H 2726.62 -0.615007 0.432748 0
M  V30 27900 H 2728.59 -1.84747 2.34332 0
M  V30 27901 C 2727.34 -3.24525 1.24816 0
M  V30 27902 H 2726.66 -3.40175 2.1005 0
M  V30 27903 H 2728.1 -4.04154 1.28202 0
M  V30 27904 C 2726.56 -3.36872 -0.0432233 0
M  V30 27905 O 2727.09 -3.88728 -1.01261 0
M  V30 27906 N 2725.3 -2.90403 -0.107004 0
M  V30 27907 H 2724.84 -2.48393 0.682556 0
M  V30 27908 H 2724.8 -2.99044 -0.970565 0
M  V30 27909 N 2728.57 -1.24737 -0.963244 0
M  V30 27910 C 2729.82 -1.09134 -1.70931 0
M  V30 27911 C 2730.15 0.368239 -1.90677 0
M  V30 27912 O 2729.43 1.2719 -1.47149 0
M  V30 27913 C 2729.71 -1.83664 -3.09741 0
M  V30 27914 C 2729.56 -3.37399 -2.97459 0
M  V30 27915 C 2730.88 -1.61289 -4.0948 0
M  V30 27916 H 2728 -0.397849 -0.620391 0
M  V30 27917 H 2730.64 -1.53461 -1.12025 0
M  V30 27918 H 2728.79 -1.45986 -3.60028 0
M  V30 27919 H 2730.46 -3.84701 -2.54564 0
M  V30 27920 H 2728.71 -3.65551 -2.3357 0
M  V30 27921 H 2729.38 -3.84752 -3.95815 0
M  V30 27922 H 2731.85 -1.94073 -3.68069 0
M  V30 27923 H 2730.73 -2.15886 -5.04662 0
M  V30 27924 H 2730.99 -0.552179 -4.38638 0
M  V30 27925 N 2730.05 1.16459 -1.06184 0
M  V30 27926 C 2731.3 1.8724 -0.779048 0
M  V30 27927 C 2731.63 1.81426 0.692683 0
M  V30 27928 O 2730.9 1.22916 1.50738 0
M  V30 27929 C 2731.19 3.36853 -1.27286 0
M  V30 27930 C 2731.04 3.51364 -2.80827 0
M  V30 27931 C 2732.36 4.31215 -0.879875 0
M  V30 27932 H 2729.48 0.679884 -0.284476 0
M  V30 27933 H 2732.12 1.36894 -1.31758 0
M  V30 27934 H 2730.27 3.79861 -0.814739 0
M  V30 27935 H 2731.94 3.17302 -3.34839 0
M  V30 27936 H 2730.19 2.9331 -3.19611 0
M  V30 27937 H 2730.86 4.56431 -3.10443 0
M  V30 27938 H 2733.33 3.96103 -1.27443 0
M  V30 27939 H 2732.21 5.3441 -1.25288 0
M  V30 27940 H 2732.47 4.41575 0.215295 0
M  V30 27941 N 2731.53 0.844266 1.33079 0
M  V30 27942 C 2732.48 0.279364 2.29103 0
M  V30 27943 C 2733.45 -0.607855 1.54578 0
M  V30 27944 O 2734.63 -0.544977 1.82851 0
M  V30 27945 C 2731.77 -0.53502 3.40927 0
M  V30 27946 C 2730.88 0.376825 4.30353 0
M  V30 27947 C 2730.02 -0.449183 5.29297 0
M  V30 27948 C 2729.06 0.460713 6.10364 0
M  V30 27949 N 2728.19 -0.327489 7.01336 0
M  V30 27950 H 2733.03 1.10351 2.76815 0
M  V30 27951 H 2730.57 0.555635 1.36202 0
M  V30 27952 H 2732.53 -1.02271 4.04471 0
M  V30 27953 H 2731.16 -1.32409 2.94394 0
M  V30 27954 H 2730.21 0.982856 3.67483 0
M  V30 27955 H 2731.52 1.07557 4.87066 0
M  V30 27956 H 2730.68 -1.00048 5.98394 0
M  V30 27957 H 2729.42 -1.18134 4.73176 0
M  V30 27958 H 2728.42 1.02398 5.4018 0
M  V30 27959 H 2729.65 1.19132 6.68569 0
M  V30 27960 H 2727.59 -1.04293 6.47656 0
M  V30 27961 H 2727.51 0.312433 7.55354 0
M  V30 27962 H 2728.78 -0.860844 7.74732 0
M  V30 27963 N 2733.01 -1.45682 0.60121 0
M  V30 27964 C 2733.94 -2.33246 -0.108783 0
M  V30 27965 C 2734.92 -1.46453 -0.865197 0
M  V30 27966 O 2736.1 -1.75236 -0.837009 0
M  V30 27967 C 2733.23 -3.29052 -1.11095 0
M  V30 27968 C 2732.19 -4.25432 -0.46817 0
M  V30 27969 C 2731.51 -5.10881 -1.57813 0
M  V30 27970 C 2732.81 -5.18766 0.606561 0
M  V30 27971 H 2734.51 -2.9286 0.622358 0
M  V30 27972 H 2732.05 -1.40825 0.300739 0
M  V30 27973 H 2734.01 -3.89177 -1.61615 0
M  V30 27974 H 2732.73 -2.67584 -1.8726 0
M  V30 27975 H 2731.39 -3.66596 0.0161129 0
M  V30 27976 H 2731.04 -4.45785 -2.32991 0
M  V30 27977 H 2730.74 -5.76165 -1.15358 0
M  V30 27978 H 2732.26 -5.73873 -2.08573 0
M  V30 27979 H 2733.67 -5.72999 0.185689 0
M  V30 27980 H 2732.07 -5.92493 0.952486 0
M  V30 27981 H 2733.14 -4.6158 1.48567 0
M  V30 27982 N 2734.48 -0.340009 -1.53889 0
M  V30 27983 C 2735.42 0.552711 -2.22436 0
M  V30 27984 C 2736.43 1.06679 -1.22977 0
M  V30 27985 O 2737.62 0.977548 -1.49353 0
M  V30 27986 C 2734.72 1.77297 -2.88823 0
M  V30 27987 C 2733.89 1.39478 -4.14565 0
M  V30 27988 C 2732.95 2.47434 -4.64395 0
M  V30 27989 O 2731.98 2.10889 -5.28691 0
M  V30 27990 N 2733.18 3.78631 -4.40021 0
M  V30 27991 H 2735.94 -0.0343196 -2.9968 0
M  V30 27992 H 2733.5 -0.163968 -1.61068 0
M  V30 27993 H 2735.5 2.48942 -3.19076 0
M  V30 27994 H 2734.07 2.26746 -2.15186 0
M  V30 27995 H 2733.29 0.509253 -3.90897 0
M  V30 27996 H 2734.57 1.11804 -4.96364 0
M  V30 27997 H 2733.97 4.11111 -3.88593 0
M  V30 27998 H 2732.53 4.46457 -4.74889 0
M  V30 27999 N 2735.96 1.57451 -0.0685468 0
M  V30 28000 C 2737.38 1.56979 0.288074 0
M  V30 28001 C 2737.58 1.07768 1.7026 0
M  V30 28002 O 2736.64 0.742097 2.41349 0
M  V30 28003 C 2737.95 3.00531 0.100692 0
M  V30 28004 C 2739.5 3.12535 0.170476 0
M  V30 28005 C 2739.97 4.57999 0.0114139 0
M  V30 28006 N 2741.46 4.63151 0.0671251 0
M  V30 28007 C 2742.2 5.73391 -0.0315821 0
M  V30 28008 N 2741.69 6.92557 -0.183625 0
M  V30 28009 N 2743.49 5.62094 0.0252501 0
M  V30 28010 H 2735.64 1.87755 -0.993059 0
M  V30 28011 H 2737.9 0.865412 -0.386996 0
M  V30 28012 H 2737.61 3.40635 -0.875257 0
M  V30 28013 H 2737.48 3.67396 0.854392 0
M  V30 28014 H 2739.87 2.7232 1.13691 0
M  V30 28015 H 2739.95 2.48315 -0.614273 0
M  V30 28016 H 2739.59 4.98903 -0.951771 0
M  V30 28017 H 2739.52 5.20247 0.815526 0
M  V30 28018 H 2742.01 3.77456 0.18318 0
M  V30 28019 H 2742.33 7.72392 -0.251177 0
M  V30 28020 H 2740.67 6.94655 -0.218944 0
M  V30 28021 H 2743.86 4.67882 0.142711 0
M  V30 28022 H 2744.04 6.47977 -0.0551305 0
M  V30 28023 N 2737.44 -0.204984 1.56261 0
M  V30 28024 C 2738.69 -0.925026 1.79238 0
M  V30 28025 C 2739 -1.84832 0.640043 0
M  V30 28026 O 2740.21 -2.60824 0.753855 0
M  V30 28027 C 2738.67 -1.69517 3.17478 0
M  V30 28028 C 2738.27 -0.817191 4.40484 0
M  V30 28029 C 2740.02 -2.40543 3.4977 0
M  V30 28030 C 2737.92 -1.58563 5.69747 0
M  V30 28031 H 2736.85 -0.349141 0.668294 0
M  V30 28032 H 2739.51 -0.178512 1.8263 0
M  V30 28033 H 2737.89 -2.4852 3.08308 0
M  V30 28034 H 2739.06 -0.0665178 4.60752 0
M  V30 28035 H 2737.38 -0.218243 4.15828 0
M  V30 28036 H 2739.97 -2.98568 4.43578 0
M  V30 28037 H 2740.32 -3.14247 2.73047 0
M  V30 28038 H 2740.85 -1.68515 3.60344 0
M  V30 28039 H 2737.59 -0.891565 6.49408 0
M  V30 28040 H 2737.11 -2.31049 5.53513 0
M  V30 28041 H 2738.79 -2.14201 6.10514 0
M  V30 28042 N 2738.92 -1.50356 -0.472329 0
M  V30 28043 C 2739.83 -1.71913 -1.59634 0
M  V30 28044 C 2740.85 -0.602224 -1.63246 0
M  V30 28045 O 2742.02 -0.880401 -1.81138 0
M  V30 28046 C 2739.09 -1.80748 -2.95857 0
M  V30 28047 C 2738.15 -3.04476 -3.02643 0
M  V30 28048 C 2737.38 -3.12879 -4.32368 0
M  V30 28049 O 2737.6 -2.28108 -5.22803 0
M  V30 28050 O 2736.54 -4.05595 -4.44721 0
M  V30 28051 H 2740.36 -2.67192 -1.44369 0
M  V30 28052 H 2737.95 -1.34437 -0.651694 0
M  V30 28053 H 2739.83 -1.88746 -3.76767 0
M  V30 28054 H 2738.51 -0.886524 -3.11324 0
M  V30 28055 H 2737.41 -3.01979 -2.20816 0
M  V30 28056 H 2738.75 -3.96145 -2.92112 0
M  V30 28057 N 2740.4 0.725419 -1.39912 0
M  V30 28058 C 2741.67 1.47764 -1.28161 0
M  V30 28059 C 2742.05 2.10841 0.104508 0
M  V30 28060 O 2741.4 1.99363 1.11654 0
M  V30 28061 C 2741.61 2.52131 -2.41311 0
M  V30 28062 C 2742.96 3.18242 -2.81082 0
M  V30 28063 O 2743.98 2.62448 -2.40831 0
M  V30 28064 O 2742.84 4.19225 -3.50589 0
M  V30 28065 H 2739.94 0.656619 -0.502773 0
M  V30 28066 H 2742.48 0.758429 -1.51809 0
M  V30 28067 H 2741.26 2.03968 -3.33935 0
M  V30 28068 H 2740.88 3.316 -2.1938 0
M  V30 28069 N 2741.88 1.25246 0.956615 0
M  V30 28070 C 2742.81 1.07935 2.07056 0
M  V30 28071 C 2743.79 -0.0110062 1.70096 0
M  V30 28072 O 2744.97 0.158155 1.93555 0
M  V30 28073 C 2742.1 0.695184 3.40271 0
M  V30 28074 C 2741.06 1.73555 3.91232 0
M  V30 28075 C 2740.38 1.20613 5.20919 0
M  V30 28076 C 2741.68 3.13392 4.17831 0
M  V30 28077 H 2743.38 2.01113 2.21797 0
M  V30 28078 H 2740.92 0.968345 1.06579 0
M  V30 28079 H 2742.87 0.561023 4.17649 0
M  V30 28080 H 2741.6 -0.272298 3.25463 0
M  V30 28081 H 2740.26 1.85812 3.16021 0
M  V30 28082 H 2739.91 0.228934 5.02479 0
M  V30 28083 H 2739.61 1.90146 5.55984 0
M  V30 28084 H 2741.13 1.08432 6.00895 0
M  V30 28085 H 2742.54 3.043 4.85875 0
M  V30 28086 H 2740.94 3.80377 4.64148 0
M  V30 28087 H 2742.01 3.60601 3.24183 0
M  V30 28088 N 2743.35 -1.15894 1.068 0
M  V30 28089 C 2744.76 -1.68147 0.811384 0
M  V30 28090 C 2745.12 -1.84612 -0.664307 0
M  V30 28091 O 2744.24 -1.54538 -1.51483 0
M  V30 28092 C 2744.84 -3.05426 1.46629 0
M  V30 28093 C 2743.39 -3.54779 1.25732 0
M  V30 28094 C 2742.54 -2.30638 1.53953 0
M  V30 28095 H 2745.49 -1.00185 1.2308 0
M  V30 28096 H 2745.51 -3.70078 0.884435 0
M  V30 28097 H 2745.03 -2.93411 2.5403 0
M  V30 28098 H 2743.13 -3.72045 0.203286 0
M  V30 28099 H 2743.24 -4.3656 1.97362 0
M  V30 28100 H 2741.6 -2.35904 0.960291 0
M  V30 28101 H 2742.39 -2.21215 2.62524 0
M  V30 28102 N 2744.83 -0.851312 -1.32629 0
M  V30 28103 C 2746.06 -0.466934 -2.01562 0
M  V30 28104 C 2746.47 0.935418 -1.63998 0
M  V30 28105 O 2745.83 1.60988 -0.859598 0
M  V30 28106 C 2745.88 -0.592496 -3.56611 0
M  V30 28107 O 2745.6 -1.9396 -3.92824 0
M  V30 28108 C 2747.1 -0.20669 -4.42818 0
M  V30 28109 H 2744.32 -0.183914 -0.645304 0
M  V30 28110 H 2746.87 -1.14733 -1.69283 0
M  V30 28111 H 2745.02 0.0401255 -3.87379 0
M  V30 28112 H 2745.44 -1.93399 -4.87542 0
M  V30 28113 H 2746.91 -0.345559 -5.50917 0
M  V30 28114 H 2747.39 0.852564 -4.30846 0
M  V30 28115 H 2747.99 -0.814249 -4.17433 0
M  V30 28116 N 2746.31 1.45361 -0.608928 0
M  V30 28117 C 2747.24 2.27652 0.158019 0
M  V30 28118 C 2748.22 1.37217 0.872373 0
M  V30 28119 O 2749.4 1.66647 0.880972 0
M  V30 28120 C 2746.53 3.1562 1.2289 0
M  V30 28121 C 2745.58 4.22006 0.617533 0
M  V30 28122 S 2746.41 5.32397 -0.575611 0
M  V30 28123 C 2747.57 6.23933 0.495828 0
M  V30 28124 H 2747.8 2.92352 -0.540146 0
M  V30 28125 H 2745.33 1.49223 -0.396482 0
M  V30 28126 H 2747.29 3.66858 1.84188 0
M  V30 28127 H 2745.95 2.50183 1.89914 0
M  V30 28128 H 2745.14 4.83485 1.42333 0
M  V30 28129 H 2744.75 3.73915 0.0796616 0
M  V30 28130 H 2747.04 6.6341 1.37453 0
M  V30 28131 H 2747.98 7.08052 -0.0828352 0
M  V30 28132 H 2748.39 5.58633 0.811758 0
M  V30 28133 N 2747.79 0.348166 1.53706 0
M  V30 28134 C 2749.03 -0.247296 2.01287 0
M  V30 28135 C 2749.37 -1.49831 1.23548 0
M  V30 28136 O 2748.64 -1.91776 0.324364 0
M  V30 28137 C 2748.92 -0.556795 3.55769 0
M  V30 28138 C 2748.78 0.706642 4.44215 0
M  V30 28139 C 2750.1 -1.36453 4.18412 0
M  V30 28140 H 2747.22 -0.0884073 0.731678 0
M  V30 28141 H 2749.86 0.469616 1.84105 0
M  V30 28142 H 2748.01 -1.16755 3.70541 0
M  V30 28143 H 2749.68 1.34451 4.41271 0
M  V30 28144 H 2747.92 1.33059 4.12889 0
M  V30 28145 H 2748.59 0.445282 5.50201 0
M  V30 28146 H 2751.07 -0.848042 4.07366 0
M  V30 28147 H 2749.95 -1.54983 5.26566 0
M  V30 28148 H 2750.21 -2.36799 3.73335 0
M  V30 28149 N 2749.27 -1.57412 0.0768958 0
M  V30 28150 C 2750.49 -1.98011 -0.599935 0
M  V30 28151 C 2750.91 -0.955436 -1.6284 0
M  V30 28152 O 2750.27 0.0572819 -1.8241 0
M  V30 28153 C 2750.32 -3.38683 -1.26396 0
M  V30 28154 O 2750.04 -4.37226 -0.276646 0
M  V30 28155 C 2751.54 -3.94185 -2.02813 0
M  V30 28156 H 2748.76 -0.651094 -0.162227 0
M  V30 28157 H 2751.3 -2.03943 0.150807 0
M  V30 28158 H 2749.46 -3.33822 -1.96575 0
M  V30 28159 H 2749.87 -5.19057 -0.753653 0
M  V30 28160 H 2751.35 -4.9482 -2.44658 0
M  V30 28161 H 2751.82 -3.31006 -2.88672 0
M  V30 28162 H 2752.43 -4.02463 -1.37489 0
M  V30 28163 N 2750.74 0.196695 -1.56368 0
M  V30 28164 C 2751.67 1.24651 -1.97445 0
M  V30 28165 C 2752.66 1.4756 -0.846173 0
M  V30 28166 O 2753.84 1.59324 -1.11038 0
M  V30 28167 C 2750.97 2.59108 -2.31258 0
M  V30 28168 C 2749.92 2.50815 -3.46808 0
M  V30 28169 C 2749.25 3.8953 -3.66293 0
M  V30 28170 C 2750.55 2.03457 -4.81043 0
M  V30 28171 H 2752.24 0.905166 -2.85389 0
M  V30 28172 H 2749.79 0.433977 -1.37305 0
M  V30 28173 H 2751.74 3.32731 -2.58588 0
M  V30 28174 H 2750.47 2.9498 -1.40194 0
M  V30 28175 H 2749.13 1.79648 -3.19566 0
M  V30 28176 H 2748.77 4.22752 -2.72562 0
M  V30 28177 H 2748.47 3.84856 -4.44027 0
M  V30 28178 H 2750 4.64777 -3.95998 0
M  V30 28179 H 2751.41 2.66837 -5.07416 0
M  V30 28180 H 2749.81 2.09788 -5.62236 0
M  V30 28181 H 2750.88 0.987726 -4.74734 0
M  V30 28182 N 2752.22 1.50604 0.464349 0
M  V30 28183 C 2753.47 1.6161 1.21353 0
M  V30 28184 C 2753.79 0.321677 1.92328 0
M  V30 28185 O 2753.06 -0.661199 1.84404 0
M  V30 28186 H 2751.64 0.595543 0.450929 0
M  V30 28187 H 2754.3 1.87413 0.535013 0
M  V30 28188 H 2753.4 2.43058 1.95779 0
M  V30 28189 N 2753.7 -0.717989 1.40295 0
M  V30 28190 C 2754.65 -1.85341 1.4054 0
M  V30 28191 C 2755.64 -1.66964 0.286222 0
M  V30 28192 O 2756.85 -1.74098 0.457135 0
M  V30 28193 H 2753.22 -0.610382 0.439247 0
M  V30 28194 H 2755.19 -1.82251 2.36278 0
M  V30 28195 C 2753.94 -3.23183 1.28251 0
M  V30 28196 H 2753.27 -3.37928 2.13646 0
M  V30 28197 H 2754.71 -4.02771 1.32481 0
M  V30 28198 C 2753.17 -3.36899 -0.00749108 0
M  V30 28199 O 2753.7 -3.8978 -0.971323 0
M  V30 28200 N 2751.9 -2.905 -0.0761969 0
M  V30 28201 H 2751.45 -2.47655 0.708863 0
M  V30 28202 H 2751.41 -3.00057 -0.938793 0
M  V30 28203 N 2755.18 -1.25752 -0.94996 0
M  V30 28204 C 2756.4 -1.13631 -1.73501 0
M  V30 28205 C 2756.83 0.305557 -1.85602 0
M  V30 28206 O 2756.19 1.22137 -1.33986 0
M  V30 28207 C 2756.23 -1.80061 -3.12427 0
M  V30 28208 O 2755.34 -1.08343 -3.97914 0
M  V30 28209 H 2754.68 -0.396449 -0.532658 0
M  V30 28210 H 2757.21 -1.66405 -1.1904 0
M  V30 28211 H 2757.22 -1.86533 -3.62863 0
M  V30 28212 H 2755.89 -2.84961 -3.02936 0
M  V30 28213 H 2754.47 -1.09784 -3.56373 0
M  V30 28214 N 2756.66 1.15326 -1.07413 0
M  V30 28215 C 2757.9 1.86127 -0.797682 0
M  V30 28216 C 2758.23 1.82365 0.676265 0
M  V30 28217 O 2757.49 1.24221 1.51221 0
M  V30 28218 C 2757.79 3.34755 -1.25196 0
M  V30 28219 C 2757.45 3.58711 -2.73198 0
M  V30 28220 C 2756.11 3.64959 -3.13622 0
M  V30 28221 C 2758.47 3.68363 -3.68725 0
M  V30 28222 C 2755.79 3.78369 -4.4839 0
M  V30 28223 C 2758.15 3.83298 -5.03255 0
M  V30 28224 C 2756.81 3.87791 -5.433 0
M  V30 28225 H 2756.08 0.681087 -0.291892 0
M  V30 28226 H 2758.73 1.36289 -1.34527 0
M  V30 28227 H 2757.03 3.86803 -0.62378 0
M  V30 28228 H 2758.73 3.87943 -1.01495 0
M  V30 28229 H 2755.32 3.5449 -2.40904 0
M  V30 28230 H 2759.5 3.62836 -3.3862 0
M  V30 28231 H 2754.76 3.80105 -4.78884 0
M  V30 28232 H 2758.93 3.89708 -5.77149 0
M  V30 28233 H 2756.56 3.97935 -6.47728 0
M  V30 28234 N 2758.13 0.858334 1.32176 0
M  V30 28235 C 2759.06 0.321082 2.31282 0
M  V30 28236 C 2760.05 -0.581758 1.59842 0
M  V30 28237 O 2761.23 -0.501229 1.8762 0
M  V30 28238 C 2758.36 -0.48826 3.43851 0
M  V30 28239 C 2757.31 0.320466 4.26799 0
M  V30 28240 C 2756.64 -0.61384 5.31165 0
M  V30 28241 C 2757.94 1.54822 4.98826 0
M  V30 28242 H 2759.63 1.1492 2.76467 0
M  V30 28243 H 2757.18 0.554051 1.32915 0
M  V30 28244 H 2759.13 -0.874553 4.12225 0
M  V30 28245 H 2757.86 -1.34978 2.97403 0
M  V30 28246 H 2756.52 0.68856 3.60076 0
M  V30 28247 H 2756.16 -1.47231 4.8097 0
M  V30 28248 H 2755.86 -0.0767064 5.8755 0
M  V30 28249 H 2757.39 -0.99723 6.02402 0
M  V30 28250 H 2758.8 1.23401 5.59862 0
M  V30 28251 H 2757.2 2.02356 5.64953 0
M  V30 28252 H 2758.27 2.30746 4.26479 0
M  V30 28253 N 2759.61 -1.45036 0.616628 0
M  V30 28254 C 2760.56 -2.27692 -0.118503 0
M  V30 28255 C 2761.55 -1.3784 -0.830001 0
M  V30 28256 O 2762.74 -1.61761 -0.718499 0
M  V30 28257 C 2759.87 -3.24888 -1.10919 0
M  V30 28258 C 2758.95 -4.22228 -0.39806 0
M  V30 28259 N 2759.34 -5.02631 0.565321 0
M  V30 28260 C 2757.64 -4.4132 -0.644428 0
M  V30 28261 C 2758.34 -5.73314 0.984144 0
M  V30 28262 N 2757.32 -5.42622 0.325974 0
M  V30 28263 H 2761.12 -2.87258 0.621289 0
M  V30 28264 H 2758.64 -1.56298 0.440995 0
M  V30 28265 H 2760.63 -3.82845 -1.65032 0
M  V30 28266 H 2759.29 -2.66882 -1.84944 0
M  V30 28267 H 2760.3 -5.09252 0.942485 0
M  V30 28268 H 2756.98 -3.94429 -1.36866 0
M  V30 28269 H 2758.37 -6.47914 1.77923 0
M  V30 28270 N 2761.09 -0.356312 -1.53519 0
M  V30 28271 C 2762.04 0.49453 -2.2544 0
M  V30 28272 C 2763.01 1.08514 -1.25753 0
M  V30 28273 O 2764.19 1.11937 -1.54515 0
M  V30 28274 C 2761.33 1.63308 -3.04014 0
M  V30 28275 C 2760.45 1.06854 -4.18576 0
M  V30 28276 C 2759.58 2.17544 -4.84611 0
M  V30 28277 C 2758.62 1.58507 -5.91221 0
M  V30 28278 N 2757.76 2.62991 -6.50984 0
M  V30 28279 H 2762.6 -0.125296 -2.97736 0
M  V30 28280 H 2760.13 -0.0736047 -1.46916 0
M  V30 28281 H 2762.09 2.30357 -3.47838 0
M  V30 28282 H 2760.72 2.2237 -2.3399 0
M  V30 28283 H 2759.77 0.288605 -3.79304 0
M  V30 28284 H 2761.09 0.596837 -4.95216 0
M  V30 28285 H 2760.24 2.92433 -5.31571 0
M  V30 28286 H 2758.98 2.68063 -4.07423 0
M  V30 28287 H 2757.98 0.821295 -5.43631 0
M  V30 28288 H 2759.21 1.08824 -6.70324 0
M  V30 28289 H 2757.15 3.12741 -5.76653 0
M  V30 28290 H 2757.07 2.20481 -7.23135 0
M  V30 28291 H 2758.34 3.3761 -7.02595 0
M  V30 28292 N 2762.57 1.57369 -0.0852427 0
M  V30 28293 C 2763.5 2.16505 0.874518 0
M  V30 28294 C 2764.48 1.0957 1.30109 0
M  V30 28295 O 2765.66 1.37665 1.36975 0
M  V30 28296 C 2762.79 2.73749 2.13726 0
M  V30 28297 C 2761.75 3.85969 1.84964 0
M  V30 28298 C 2761.07 4.29873 3.17983 0
M  V30 28299 C 2762.37 5.0961 1.14433 0
M  V30 28300 H 2764.07 2.96955 0.381847 0
M  V30 28301 H 2761.61 1.42842 0.182225 0
M  V30 28302 H 2763.57 3.13768 2.81297 0
M  V30 28303 H 2762.29 1.90539 2.65259 0
M  V30 28304 H 2760.95 3.46475 1.19794 0
M  V30 28305 H 2760.6 3.43567 3.67384 0
M  V30 28306 H 2760.3 5.05528 2.99525 0
M  V30 28307 H 2761.82 4.72518 3.86729 0
M  V30 28308 H 2763.24 5.4686 1.72096 0
M  V30 28309 H 2761.63 5.9063 1.06187 0
M  V30 28310 H 2762.7 4.84738 0.125505 0
M  V30 28311 N 2764.05 -0.188399 1.5647 0
M  V30 28312 C 2765.29 -0.914437 1.82804 0
M  V30 28313 C 2765.65 -1.80163 0.663712 0
M  V30 28314 O 2766.85 -2.56397 0.807104 0
M  V30 28315 C 2765.12 -1.70351 3.1419 0
M  V30 28316 S 2766.68 -2.48065 3.61952 0
M  V30 28317 H 2763.5 -0.306588 0.641502 0
M  V30 28318 H 2766.1 -0.177327 1.94694 0
M  V30 28319 H 2764.81 -1.04248 3.96939 0
M  V30 28320 H 2764.34 -2.48232 3.05196 0
M  V30 28321 H 2766.35 -3.72402 3.2792 0
M  V30 28322 N 2765.53 -1.50848 -0.456355 0
M  V30 28323 C 2766.75 -1.6663 -1.23488 0
M  V30 28324 C 2767.18 -0.355287 -1.84714 0
M  V30 28325 O 2766.53 0.682529 -1.67962 0
M  V30 28326 C 2766.58 -2.77013 -2.3086 0
M  V30 28327 O 2765.69 -2.39291 -3.35877 0
M  V30 28328 H 2765.03 -0.55622 -0.36265 0
M  V30 28329 H 2767.56 -1.97309 -0.54134 0
M  V30 28330 H 2767.57 -3.00531 -2.75944 0
M  V30 28331 H 2766.24 -3.72155 -1.85671 0
M  V30 28332 H 2764.82 -2.26274 -2.96402 0
M  V30 28333 N 2767 0.710538 -1.40674 0
M  V30 28334 C 2768.25 1.46756 -1.38949 0
M  V30 28335 C 2768.57 1.94999 0.00569451 0
M  V30 28336 O 2767.84 1.70691 0.961328 0
M  V30 28337 H 2766.42 0.54449 -0.51141 0
M  V30 28338 H 2769.08 0.841981 -1.75775 0
M  V30 28339 H 2768.18 2.33797 -2.0675 0
M  V30 28340 N 2768.48 1.26254 0.943277 0
M  V30 28341 C 2769.73 1.11674 1.68923 0
M  V30 28342 C 2770.06 -0.340295 1.915 0
M  V30 28343 O 2769.31 -1.26651 1.49191 0
M  V30 28344 C 2769.61 1.82874 3.0707 0
M  V30 28345 C 2769.28 3.32775 3.04256 0
M  V30 28346 C 2767.94 3.73665 3.03196 0
M  V30 28347 C 2770.29 4.28492 2.96722 0
M  V30 28348 C 2767.62 5.08665 2.92364 0
M  V30 28349 C 2769.97 5.6353 2.87432 0
M  V30 28350 C 2768.63 6.03734 2.84713 0
M  V30 28351 H 2767.9 0.408646 0.618134 0
M  V30 28352 H 2770.55 1.5667 1.10121 0
M  V30 28353 H 2768.86 1.30341 3.69484 0
M  V30 28354 H 2770.55 1.69035 3.63632 0
M  V30 28355 H 2767.14 3.00246 3.0586 0
M  V30 28356 H 2771.33 3.97884 2.96651 0
M  V30 28357 H 2766.58 5.3898 2.88636 0
M  V30 28358 H 2770.76 6.37382 2.80565 0
M  V30 28359 H 2768.38 7.08298 2.76076 0
M  V30 28360 N 2769.96 -1.14755 1.08024 0
M  V30 28361 C 2771.21 -1.85977 0.808738 0
M  V30 28362 C 2771.54 -1.82505 -0.663732 0
M  V30 28363 O 2770.81 -1.25299 -1.48763 0
M  V30 28364 C 2771.1 -3.34786 1.32629 0
M  V30 28365 C 2770.95 -3.46851 2.86381 0
M  V30 28366 C 2772.27 -4.2976 0.948366 0
M  V30 28367 H 2769.39 -0.675272 0.295256 0
M  V30 28368 H 2772.03 -1.3478 1.33919 0
M  V30 28369 H 2770.18 -3.78517 0.875069 0
M  V30 28370 H 2771.85 -3.11935 3.39844 0
M  V30 28371 H 2770.09 -2.88189 3.24237 0
M  V30 28372 H 2770.77 -4.51434 3.17666 0
M  V30 28373 H 2773.24 -3.94025 1.33729 0
M  V30 28374 H 2772.12 -5.32349 1.33774 0
M  V30 28375 H 2772.38 -4.41862 -0.145016 0
M  V30 28376 N 2771.44 -0.865331 -1.31719 0
M  V30 28377 C 2772.85 -0.556622 -1.49579 0
M  V30 28378 C 2773.05 0.910322 -1.79765 0
M  V30 28379 O 2772.11 1.69277 -1.87354 0
M  V30 28380 C 2773.42 -1.45283 -2.63274 0
M  V30 28381 C 2774.97 -1.45438 -2.77158 0
M  V30 28382 C 2775.45 -2.33605 -3.93945 0
M  V30 28383 N 2776.94 -2.3146 -4.01224 0
M  V30 28384 C 2777.67 -2.96402 -4.9085 0
M  V30 28385 N 2777.17 -3.70496 -5.85409 0
M  V30 28386 N 2778.96 -2.85734 -4.84058 0
M  V30 28387 H 2771.11 -1.81458 -1.10393 0
M  V30 28388 H 2773.37 -0.77564 -0.545056 0
M  V30 28389 H 2773.08 -2.49645 -2.4773 0
M  V30 28390 H 2772.95 -1.14798 -3.59307 0
M  V30 28391 H 2775.34 -0.418362 -2.92119 0
M  V30 28392 H 2775.42 -1.79944 -1.81807 0
M  V30 28393 H 2775.07 -3.37281 -3.79742 0
M  V30 28394 H 2775 -1.96426 -4.88594 0
M  V30 28395 H 2777.49 -1.77599 -3.33567 0
M  V30 28396 H 2777.8 -4.17189 -6.50517 0
M  V30 28397 H 2776.15 -3.74605 -5.85403 0
M  V30 28398 H 2779.34 -2.27391 -4.09159 0
M  V30 28399 H 2779.51 -3.36627 -5.53703 0
M  V30 28400 N 2772.92 1.44707 -0.624311 0
M  V30 28401 C 2774.16 2.01321 -0.123575 0
M  V30 28402 C 2774.48 1.49642 1.25963 0
M  V30 28403 O 2775.68 1.9834 1.85401 0
M  V30 28404 C 2774.14 3.59497 -0.170187 0
M  V30 28405 C 2773.75 4.20174 -1.55429 0
M  V30 28406 C 2775.49 4.23612 0.274439 0
M  V30 28407 C 2773.4 5.70553 -1.55638 0
M  V30 28408 H 2772.33 0.752805 -0.0424316 0
M  V30 28409 H 2774.98 1.65998 -0.782105 0
M  V30 28410 H 2773.36 3.92087 0.555316 0
M  V30 28411 H 2774.54 3.99132 -2.30283 0
M  V30 28412 H 2772.85 3.68319 -1.94242 0
M  V30 28413 H 2775.45 5.339 0.292308 0
M  V30 28414 H 2775.79 3.95468 1.30043 0
M  V30 28415 H 2776.32 3.95801 -0.398345 0
M  V30 28416 H 2773.06 6.03422 -2.56051 0
M  V30 28417 H 2772.58 5.93737 -0.850668 0
M  V30 28418 H 2774.26 6.34064 -1.28732 0
M  V30 28419 N 2774.39 0.364449 1.53328 0
M  V30 28420 C 2775.63 -0.225684 2.0315 0
M  V30 28421 C 2776 -1.46085 1.24592 0
M  V30 28422 O 2777.2 -2.12653 1.64414 0
M  V30 28423 C 2775.47 -0.511601 3.53719 0
M  V30 28424 S 2777.03 -1.07557 4.25414 0
M  V30 28425 H 2773.85 -0.0657719 0.707951 0
M  V30 28426 H 2776.45 0.507052 1.8881 0
M  V30 28427 H 2775.15 0.394855 4.08496 0
M  V30 28428 H 2774.68 -1.27344 3.72219 0
M  V30 28429 H 2776.7 -2.3599 4.3649 0
M  V30 28430 N 2775.87 -1.57322 0.0935872 0
M  V30 28431 C 2776.8 -2.09597 -0.902468 0
M  V30 28432 C 2777.78 -1.00617 -1.2773 0
M  V30 28433 O 2778.97 -1.28104 -1.38281 0
M  V30 28434 C 2776.09 -2.5717 -2.20412 0
M  V30 28435 C 2775.14 -3.77793 -1.97925 0
M  V30 28436 S 2775.97 -5.21449 -1.21864 0
M  V30 28437 C 2777.13 -5.72371 -2.53263 0
M  V30 28438 H 2777.36 -2.93755 -0.457745 0
M  V30 28439 H 2774.89 -1.53936 -0.119667 0
M  V30 28440 H 2776.85 -2.85237 -2.95212 0
M  V30 28441 H 2775.51 -1.7324 -2.62005 0
M  V30 28442 H 2774.71 -4.09143 -2.94309 0
M  V30 28443 H 2774.31 -3.50212 -1.31254 0
M  V30 28444 H 2776.6 -5.80546 -3.49246 0
M  V30 28445 H 2777.54 -6.709 -2.26493 0
M  V30 28446 H 2777.95 -5.00296 -2.61466 0
M  V30 28447 N 2777.35 0.180099 -1.56568 0
M  V30 28448 C 2778.63 0.924901 -1.72351 0
M  V30 28449 C 2779.01 2.00761 -0.652558 0
M  V30 28450 O 2778.35 2.26045 0.334075 0
M  V30 28451 C 2778.56 1.49765 -3.15232 0
M  V30 28452 C 2779.91 1.97398 -3.75924 0
M  V30 28453 O 2780.94 1.59577 -3.18455 0
M  V30 28454 O 2779.8 2.6704 -4.76814 0
M  V30 28455 H 2776.89 0.434746 -0.703509 0
M  V30 28456 H 2779.44 0.168617 -1.6886 0
M  V30 28457 H 2778.21 0.71796 -3.84657 0
M  V30 28458 H 2777.83 2.31836 -3.23013 0
M  V30 28459 N 2778.83 1.51088 0.448349 0
M  V30 28460 C 2779.74 1.74431 1.56879 0
M  V30 28461 C 2780.75 0.628118 1.62267 0
M  V30 28462 O 2781.93 0.909107 1.79714 0
M  V30 28463 C 2778.99 1.85431 2.92944 0
M  V30 28464 C 2778.06 3.09252 2.97761 0
M  V30 28465 C 2777.29 3.19718 4.27336 0
M  V30 28466 O 2777.51 2.36396 5.19108 0
M  V30 28467 O 2776.45 4.12618 4.38212 0
M  V30 28468 H 2780.27 2.69455 1.40099 0
M  V30 28469 H 2777.86 1.35457 0.630223 0
M  V30 28470 H 2779.74 1.94716 3.73716 0
M  V30 28471 H 2778.41 0.935941 3.09874 0
M  V30 28472 H 2777.32 3.05454 2.15984 0
M  V30 28473 H 2778.65 4.00743 2.85773 0
M  V30 28474 N 2780.31 -0.703068 1.41049 0
M  V30 28475 C 2781.58 -1.45706 1.30496 0
M  V30 28476 C 2781.96 -2.10981 -0.0709521 0
M  V30 28477 O 2781.31 -2.01114 -1.08468 0
M  V30 28478 C 2781.52 -2.4826 2.45291 0
M  V30 28479 C 2782.87 -3.1373 2.86109 0
M  V30 28480 O 2783.89 -2.58583 2.44976 0
M  V30 28481 O 2782.75 -4.13595 3.57214 0
M  V30 28482 H 2779.85 -0.648537 0.513155 0
M  V30 28483 H 2782.39 -0.734181 1.52996 0
M  V30 28484 H 2781.16 -1.98629 3.37138 0
M  V30 28485 H 2780.79 -3.28067 2.24628 0
M  V30 28486 N 2781.78 -1.26752 -0.936569 0
M  V30 28487 C 2783.03 -1.12346 -1.67996 0
M  V30 28488 C 2783.35 0.332905 -1.92137 0
M  V30 28489 O 2782.62 1.23418 -1.52134 0
M  V30 28490 H 2781.2 -0.412767 -0.622602 0
M  V30 28491 H 2783.87 -1.59149 -1.12506 0
M  V30 28492 H 2782.96 -1.64576 -2.65182 0
M  V30 28493 N 2783.26 1.1418 -1.08631 0
M  V30 28494 C 2784.21 2.21406 -0.712879 0
M  V30 28495 C 2785.2 1.67029 0.282427 0
M  V30 28496 O 2786.41 1.79417 0.144751 0
M  V30 28497 H 2782.79 0.721349 -0.21251 0
M  V30 28498 H 2784.76 2.50172 -1.62655 0
M  V30 28499 C 2783.51 3.47415 -0.140765 0
M  V30 28500 H 2782.83 3.89589 -0.897807 0
M  V30 28501 H 2784.27 4.23919 0.0826932 0
M  V30 28502 C 2782.73 3.1767 1.12194 0
M  V30 28503 O 2783.26 3.35675 2.20646 0
M  V30 28504 N 2781.46 2.71611 1.03323 0
M  V30 28505 H 2781.01 2.57159 0.150621 0
M  V30 28506 H 2780.97 2.52084 1.87885 0
M  V30 28507 N 2784.74 0.872304 1.31258 0
M  V30 28508 C 2785.65 0.333295 2.3222 0
M  V30 28509 C 2786.67 -0.557984 1.64811 0
M  V30 28510 O 2787.84 -0.454141 1.96213 0
M  V30 28511 C 2784.91 -0.454419 3.43709 0
M  V30 28512 C 2783.97 0.465099 4.26773 0
M  V30 28513 C 2783.2 -0.285116 5.32938 0
M  V30 28514 O 2783.42 -1.5129 5.4997 0
M  V30 28515 O 2782.36 0.358232 6.00833 0
M  V30 28516 H 2786.18 1.17021 2.8025 0
M  V30 28517 H 2783.77 0.635748 1.35198 0
M  V30 28518 H 2785.65 -0.90089 4.11658 0
M  V30 28519 H 2784.33 -1.26784 2.97838 0
M  V30 28520 H 2783.23 0.960119 3.6157 0
M  V30 28521 H 2784.57 1.24418 4.76215 0
M  V30 28522 N 2786.22 -1.44374 0.631976 0
M  V30 28523 C 2787.17 -2.30686 -0.0724401 0
M  V30 28524 C 2788.14 -1.43531 -0.83595 0
M  V30 28525 O 2789.32 -1.72432 -0.816819 0
M  V30 28526 C 2786.46 -3.28819 -1.04747 0
M  V30 28527 C 2785.57 -4.31077 -0.282291 0
M  V30 28528 C 2784.71 -5.16302 -1.24921 0
M  V30 28529 C 2783.75 -6.10268 -0.473242 0
M  V30 28530 N 2782.88 -6.88189 -1.39067 0
M  V30 28531 H 2787.72 -2.90381 0.669528 0
M  V30 28532 H 2785.26 -1.4307 0.341952 0
M  V30 28533 H 2787.22 -3.84203 -1.62616 0
M  V30 28534 H 2785.85 -2.70822 -1.75656 0
M  V30 28535 H 2784.9 -3.78159 0.412334 0
M  V30 28536 H 2786.21 -4.97759 0.322042 0
M  V30 28537 H 2785.37 -5.76207 -1.89921 0
M  V30 28538 H 2784.11 -4.49695 -1.88747 0
M  V30 28539 H 2783.11 -5.49471 0.190238 0
M  V30 28540 H 2784.34 -6.78911 0.160309 0
M  V30 28541 H 2782.28 -6.2425 -2.01612 0
M  V30 28542 H 2782.2 -7.51315 -0.840381 0
M  V30 28543 H 2783.47 -7.52617 -2.02948 0
M  V30 28544 N 2787.7 -0.372575 -1.53133 0
M  V30 28545 C 2789.11 -0.0218081 -1.59585 0
M  V30 28546 C 2789.31 1.46129 -1.38739 0
M  V30 28547 O 2788.37 2.22376 -1.19603 0
M  V30 28548 C 2789.68 -0.484011 -2.96779 0
M  V30 28549 C 2791.23 -0.43883 -3.09909 0
M  V30 28550 C 2791.7 -0.876955 -4.49526 0
M  V30 28551 N 2793.2 -0.832294 -4.55661 0
M  V30 28552 C 2793.93 -1.1429 -5.61894 0
M  V30 28553 N 2793.43 -1.52315 -6.75849 0
M  V30 28554 N 2795.22 -1.06524 -5.51914 0
M  V30 28555 H 2787.37 -1.3383 -1.64934 0
M  V30 28556 H 2789.63 -0.547471 -0.773938 0
M  V30 28557 H 2789.34 -1.5192 -3.17196 0
M  V30 28558 H 2789.21 0.125718 -3.7699 0
M  V30 28559 H 2791.6 0.587243 -2.89198 0
M  V30 28560 H 2791.68 -1.08415 -2.31689 0
M  V30 28561 H 2791.33 -1.90118 -4.70975 0
M  V30 28562 H 2791.26 -0.208819 -5.26186 0
M  V30 28563 H 2793.75 -0.552261 -3.73843 0
M  V30 28564 H 2794.06 -1.74423 -7.52859 0
M  V30 28565 H 2792.4 -1.56186 -6.77223 0
M  V30 28566 H 2795.6 -0.767317 -4.61768 0
M  V30 28567 H 2795.77 -1.31064 -6.34607 0
M  V30 28568 N 2789.17 1.5727 -0.101929 0
M  V30 28569 C 2790.59 1.81772 0.426141 0
M  V30 28570 C 2790.94 1.018 1.67723 0
M  V30 28571 O 2790.06 0.249424 2.14958 0
M  V30 28572 C 2790.66 3.29701 0.779904 0
M  V30 28573 C 2789.22 3.54943 1.25269 0
M  V30 28574 C 2788.36 2.76146 0.252765 0
M  V30 28575 H 2791.31 1.55288 -0.327288 0
M  V30 28576 H 2791.33 3.43398 1.63885 0
M  V30 28577 H 2790.85 3.87879 -0.130846 0
M  V30 28578 H 2788.95 3.02104 2.18092 0
M  V30 28579 H 2789.06 4.63574 1.2098 0
M  V30 28580 H 2787.42 2.43825 0.736319 0
M  V30 28581 H 2788.21 3.37075 -0.650783 0
M  V30 28582 N 2790.65 -0.171793 1.56661 0
M  V30 28583 C 2791.9 -0.886742 1.81608 0
M  V30 28584 C 2792.22 -1.82802 0.67885 0
M  V30 28585 O 2791.49 -1.93569 -0.30132 0
M  V30 28586 H 2790.07 -0.330439 0.66994 0
M  V30 28587 H 2792.73 -0.171723 1.94142 0
M  V30 28588 H 2791.83 -1.46393 2.75637 0
M  V30 28589 N 2792.13 -1.51324 -0.44033 0
M  V30 28590 C 2793.41 -1.54382 -1.20106 0
M  V30 28591 C 2793.79 -0.306339 -2.08865 0
M  V30 28592 O 2793.14 0.708735 -2.17231 0
M  V30 28593 C 2793.35 -2.85623 -2.0055 0
M  V30 28594 C 2794.69 -3.3746 -2.57694 0
M  V30 28595 O 2795.72 -2.87153 -2.10764 0
M  V30 28596 O 2794.58 -4.2523 -3.43281 0
M  V30 28597 H 2791.67 -0.620561 -0.546657 0
M  V30 28598 H 2794.22 -1.63635 -0.449644 0
M  V30 28599 H 2792.99 -3.6715 -1.35339 0
M  V30 28600 H 2792.61 -2.79519 -2.82763 0
M  V30 28601 N 2793.61 0.695578 -1.41419 0
M  V30 28602 C 2794.85 1.45778 -1.40985 0
M  V30 28603 C 2795.19 1.94191 -0.0188104 0
M  V30 28604 O 2794.46 1.69529 0.95343 0
M  V30 28605 C 2794.75 2.66967 -2.41662 0
M  V30 28606 C 2794.6 2.2432 -3.89873 0
M  V30 28607 C 2795.92 3.69164 -2.39595 0
M  V30 28608 H 2793.04 0.528748 -0.513415 0
M  V30 28609 H 2795.68 0.792245 -1.72695 0
M  V30 28610 H 2793.83 3.2375 -2.14752 0
M  V30 28611 H 2795.5 1.72865 -4.27686 0
M  V30 28612 H 2793.74 1.56104 -4.04739 0
M  V30 28613 H 2794.41 3.11277 -4.55862 0
M  V30 28614 H 2796.89 3.22055 -2.63476 0
M  V30 28615 H 2795.77 4.51569 -3.12052 0
M  V30 28616 H 2796.03 4.18859 -1.41454 0
M  V30 28617 N 2795.09 1.27247 0.929833 0
M  V30 28618 C 2796.33 1.14637 1.68018 0
M  V30 28619 C 2796.69 -0.305118 1.89965 0
M  V30 28620 O 2795.98 -1.21999 1.47739 0
M  V30 28621 C 2796.18 1.8612 3.05113 0
M  V30 28622 C 2796 3.38071 2.96543 0
M  V30 28623 C 2794.77 4.07385 2.9894 0
M  V30 28624 C 2796.97 4.34082 2.75822 0
M  V30 28625 N 2794.95 5.45922 2.80789 0
M  V30 28626 C 2796.33 5.59871 2.66354 0
M  V30 28627 C 2798.38 4.24197 2.60693 0
M  V30 28628 C 2797.08 6.76903 2.43301 0
M  V30 28629 C 2799.11 5.40948 2.39017 0
M  V30 28630 C 2798.47 6.65692 2.3029 0
M  V30 28631 H 2794.57 0.47434 0.621712 0
M  V30 28632 H 2797.15 1.60687 1.09945 0
M  V30 28633 H 2795.33 1.42529 3.61303 0
M  V30 28634 H 2797.06 1.66033 3.69073 0
M  V30 28635 H 2793.81 3.58835 3.09087 0
M  V30 28636 H 2794.24 6.18697 2.7485 0
M  V30 28637 H 2798.88 3.28477 2.662 0
M  V30 28638 H 2796.6 7.72708 2.36534 0
M  V30 28639 H 2800.18 5.35179 2.28199 0
M  V30 28640 H 2799.06 7.54509 2.13742 0
M  V30 28641 N 2796.57 -1.13603 1.09235 0
M  V30 28642 C 2797.79 -1.88681 0.848941 0
M  V30 28643 C 2798.21 -1.79025 -0.599635 0
M  V30 28644 O 2797.57 -1.15547 -1.41263 0
M  V30 28645 C 2797.62 -3.38352 1.27279 0
M  V30 28646 O 2797.34 -3.47755 2.66455 0
M  V30 28647 C 2798.84 -4.30404 1.06148 0
M  V30 28648 H 2796.06 -0.597389 0.30556 0
M  V30 28649 H 2798.6 -1.4382 1.45382 0
M  V30 28650 H 2796.76 -3.80804 0.711843 0
M  V30 28651 H 2797.17 -4.40783 2.84272 0
M  V30 28652 H 2798.65 -5.33758 1.40734 0
M  V30 28653 H 2799.12 -4.392 -0.000883131 0
M  V30 28654 H 2799.73 -3.93719 1.60828 0
M  V30 28655 N 2798.04 -0.879253 -1.30793 0
M  V30 28656 C 2798.97 -0.357836 -2.30742 0
M  V30 28657 C 2799.95 0.556255 -1.60748 0
M  V30 28658 O 2801.14 0.471317 -1.88394 0
M  V30 28659 C 2798.27 0.433494 -3.44584 0
M  V30 28660 C 2797.22 -0.388326 -4.26235 0
M  V30 28661 C 2796.55 0.529259 -5.32074 0
M  V30 28662 C 2797.85 -1.62738 -4.963 0
M  V30 28663 H 2799.54 -1.19304 -2.74603 0
M  V30 28664 H 2797.09 -0.575127 -1.32016 0
M  V30 28665 H 2799.04 0.808861 -4.13564 0
M  V30 28666 H 2797.77 1.30229 -2.99513 0
M  V30 28667 H 2796.43 -0.745758 -3.58935 0
M  V30 28668 H 2796.07 1.3956 -4.83251 0
M  V30 28669 H 2795.77 -0.0167774 -5.87598 0
M  V30 28670 H 2797.3 0.901267 -6.03912 0
M  V30 28671 H 2798.71 -1.32293 -5.57827 0
M  V30 28672 H 2797.11 -2.11318 -5.61662 0
M  V30 28673 H 2798.18 -2.37502 -4.22754 0
M  V30 28674 N 2799.52 1.44037 -0.639624 0
M  V30 28675 C 2800.93 1.85292 -0.228899 0
M  V30 28676 C 2801.28 1.53531 1.22158 0
M  V30 28677 O 2800.41 0.977552 1.93062 0
M  V30 28678 C 2801 3.36326 -0.408651 0
M  V30 28679 C 2799.56 3.76364 -0.0523615 0
M  V30 28680 C 2798.71 2.67843 -0.718006 0
M  V30 28681 H 2801.66 1.34382 -0.844218 0
M  V30 28682 H 2801.68 3.78888 0.349901 0
M  V30 28683 H 2801.19 3.59411 -1.46442 0
M  V30 28684 H 2799.29 3.58893 1.00134 0
M  V30 28685 H 2799.41 4.76805 -0.468345 0
M  V30 28686 H 2797.77 2.54243 -0.152504 0
M  V30 28687 H 2798.55 2.93759 -1.77653 0
M  V30 28688 N 2801 0.380691 1.52933 0
M  V30 28689 C 2802.28 -0.261383 1.93846 0
M  V30 28690 C 2802.66 -1.65102 1.31547 0
M  V30 28691 O 2802 -2.23396 0.480273 0
M  V30 28692 C 2802.21 -0.296405 3.47739 0
M  V30 28693 C 2803.56 -0.529504 4.21285 0
M  V30 28694 O 2804.59 -0.376979 3.542 0
M  V30 28695 O 2803.45 -0.827658 5.40196 0
M  V30 28696 H 2800.54 -0.160271 0.811321 0
M  V30 28697 H 2803.09 0.434573 1.64041 0
M  V30 28698 H 2801.86 0.677308 3.85394 0
M  V30 28699 H 2801.48 -1.03764 3.83821 0
M  V30 28700 N 2802.48 -1.57214 0.110268 0
M  V30 28701 C 2803.41 -2.11904 -0.87346 0
M  V30 28702 C 2804.42 -1.05973 -1.23586 0
M  V30 28703 O 2805.61 -1.33373 -1.18633 0
M  V30 28704 C 2802.71 -2.59646 -2.178 0
M  V30 28705 C 2801.88 -3.8958 -1.98863 0
M  V30 28706 C 2800.94 -4.23011 -3.12966 0
M  V30 28707 O 2799.97 -4.91978 -2.86263 0
M  V30 28708 N 2801.17 -3.7963 -4.3916 0
M  V30 28709 H 2803.94 -2.96934 -0.406265 0
M  V30 28710 H 2801.5 -1.61729 -0.0744086 0
M  V30 28711 H 2803.49 -2.79047 -2.93112 0
M  V30 28712 H 2802.06 -1.79545 -2.55896 0
M  V30 28713 H 2801.28 -3.79176 -1.07793 0
M  V30 28714 H 2802.57 -4.74556 -1.83504 0
M  V30 28715 H 2801.97 -3.23988 -4.63733 0
M  V30 28716 H 2800.52 -4.04156 -5.11372 0
M  V30 28717 N 2803.96 0.163482 -1.5675 0
M  V30 28718 C 2805.2 0.885238 -1.84236 0
M  V30 28719 C 2805.56 1.79085 -0.692291 0
M  V30 28720 O 2806.76 2.5508 -0.847792 0
M  V30 28721 C 2805.03 1.65331 -3.1686 0
M  V30 28722 S 2806.59 2.42276 -3.65852 0
M  V30 28723 H 2803.41 0.296343 -0.646299 0
M  V30 28724 H 2806.01 0.146331 -1.94952 0
M  V30 28725 H 2804.71 0.979196 -3.98547 0
M  V30 28726 H 2804.25 2.43345 -3.09107 0
M  V30 28727 H 2806.26 3.67138 -3.33803 0
M  V30 28728 N 2805.43 1.51555 0.432299 0
M  V30 28729 C 2806.38 1.69616 1.52363 0
M  V30 28730 C 2807.37 0.55011 1.51204 0
M  V30 28731 O 2808.56 0.806234 1.57572 0
M  V30 28732 C 2805.69 1.82918 2.9051 0
M  V30 28733 C 2804.77 3.03323 2.96405 0
M  V30 28734 N 2805.17 4.26416 2.72035 0
M  V30 28735 C 2803.46 3.02681 3.27567 0
M  V30 28736 C 2804.16 5.07714 2.83903 0
M  V30 28737 N 2803.14 4.42468 3.1579 0
M  V30 28738 H 2806.94 2.62448 1.32281 0
M  V30 28739 H 2804.46 1.49271 0.639682 0
M  V30 28740 H 2806.45 1.93969 3.69028 0
M  V30 28741 H 2805.11 0.91271 3.11608 0
M  V30 28742 H 2806.12 4.55277 2.46868 0
M  V30 28743 H 2802.8 2.20684 3.54407 0
M  V30 28744 H 2804.19 6.15713 2.68973 0
M  V30 28745 N 2806.91 -0.688069 1.41786 0
M  V30 28746 C 2808.14 -1.4767 1.44917 0
M  V30 28747 C 2808.55 -1.88715 0.0566118 0
M  V30 28748 O 2807.91 -1.57276 -0.925762 0
M  V30 28749 C 2807.96 -2.73442 2.36456 0
M  V30 28750 O 2807.68 -2.34124 3.70294 0
M  V30 28751 C 2809.18 -3.67121 2.4847 0
M  V30 28752 H 2806.4 -0.454824 0.493332 0
M  V30 28753 H 2808.95 -0.846561 1.86155 0
M  V30 28754 H 2807.1 -3.32676 1.98508 0
M  V30 28755 H 2807.52 -3.15248 4.19189 0
M  V30 28756 H 2808.99 -4.52133 3.1667 0
M  V30 28757 H 2809.47 -4.1212 1.51833 0
M  V30 28758 H 2810.07 -3.13787 2.87085 0
M  V30 28759 N 2808.39 -1.27739 -0.923072 0
M  V30 28760 C 2809.64 -1.14517 -1.67373 0
M  V30 28761 C 2809.97 0.307391 -1.91752 0
M  V30 28762 O 2809.24 1.22444 -1.51121 0
M  V30 28763 C 2809.53 -1.93425 -3.03741 0
M  V30 28764 C 2809.38 -3.46691 -2.86575 0
M  V30 28765 C 2810.7 -1.74235 -4.04141 0
M  V30 28766 H 2807.82 -0.417385 -0.60742 0
M  V30 28767 H 2810.46 -1.56948 -1.07086 0
M  V30 28768 H 2808.61 -1.57366 -3.55201 0
M  V30 28769 H 2810.28 -3.92605 -2.42196 0
M  V30 28770 H 2808.52 -3.72797 -2.21822 0
M  V30 28771 H 2809.2 -3.9715 -3.83374 0
M  V30 28772 H 2811.67 -2.05684 -3.61709 0
M  V30 28773 H 2810.55 -2.31833 -4.97539 0
M  V30 28774 H 2810.81 -0.691449 -4.36659 0
M  V30 28775 N 2809.87 1.13022 -1.09836 0
M  V30 28776 C 2811.1 1.88228 -0.858935 0
M  V30 28777 C 2811.51 1.7934 0.590133 0
M  V30 28778 O 2810.87 1.16294 1.40648 0
M  V30 28779 C 2810.92 3.37673 -1.29072 0
M  V30 28780 O 2810.64 3.46337 -2.68296 0
M  V30 28781 C 2812.14 4.29835 -1.08429 0
M  V30 28782 H 2809.36 0.595761 -0.308724 0
M  V30 28783 H 2811.91 1.43047 -1.46143 0
M  V30 28784 H 2810.06 3.80421 -0.732028 0
M  V30 28785 H 2810.47 4.39269 -2.86605 0
M  V30 28786 H 2811.95 5.33004 -1.43563 0
M  V30 28787 H 2812.43 4.39194 -0.0224087 0
M  V30 28788 H 2813.03 3.9286 -1.62914 0
M  V30 28789 N 2811.35 0.886177 1.30325 0
M  V30 28790 C 2812.59 0.511946 1.97885 0
M  V30 28791 C 2812.95 -0.921915 1.68418 0
M  V30 28792 O 2814.15 -1.40233 2.29321 0
M  V30 28793 C 2812.42 0.780506 3.48773 0
M  V30 28794 S 2813.98 0.508558 4.35843 0
M  V30 28795 H 2810.8 0.19044 0.685021 0
M  V30 28796 H 2813.4 1.1457 1.58411 0
M  V30 28797 H 2812.11 1.82255 3.67711 0
M  V30 28798 H 2811.64 0.134353 3.93171 0
M  V30 28799 H 2813.65 -0.652304 4.91894 0
M  V30 28800 N 2812.82 -1.43695 0.647253 0
M  V30 28801 C 2813.76 -2.29036 -0.086583 0
M  V30 28802 C 2814.77 -1.42179 -0.793026 0
M  V30 28803 O 2815.96 -1.66175 -0.651778 0
M  V30 28804 C 2813.06 -3.18955 -1.14546 0
M  V30 28805 C 2812.23 -4.34318 -0.518345 0
M  V30 28806 C 2811.29 -5.05153 -1.47331 0
M  V30 28807 O 2810.32 -5.60626 -0.984214 0
M  V30 28808 N 2811.52 -5.08099 -2.80741 0
M  V30 28809 H 2814.28 -2.92657 0.645886 0
M  V30 28810 H 2811.84 -1.5432 0.489594 0
M  V30 28811 H 2813.84 -3.63208 -1.78499 0
M  V30 28812 H 2812.41 -2.56974 -1.77997 0
M  V30 28813 H 2811.63 -3.93056 0.300148 0
M  V30 28814 H 2812.91 -5.08737 -0.0803115 0
M  V30 28815 H 2812.31 -4.64392 -3.23043 0
M  V30 28816 H 2810.87 -5.56089 -3.40012 0
M  V30 28817 N 2814.3 -0.388796 -1.52729 0
M  V30 28818 C 2815.71 0.085346 -1.86505 0
M  V30 28819 C 2816.06 1.46194 -1.3085 0
M  V30 28820 O 2815.19 2.0673 -0.639645 0
M  V30 28821 C 2815.78 0.161644 -3.38414 0
M  V30 28822 C 2814.34 0.580078 -3.71903 0
M  V30 28823 C 2813.49 -0.258266 -2.76095 0
M  V30 28824 H 2816.44 -0.606691 -1.46646 0
M  V30 28825 H 2816.46 0.980871 -3.6764 0
M  V30 28826 H 2815.97 -0.8404 -3.78892 0
M  V30 28827 H 2814.08 1.58951 -3.36995 0
M  V30 28828 H 2814.19 0.338579 -4.77902 0
M  V30 28829 H 2812.55 0.276387 -2.53196 0
M  V30 28830 H 2813.34 -1.25828 -3.19409 0
M  V30 28831 N 2815.78 1.57153 -0.118604 0
M  V30 28832 C 2817.06 1.86709 0.583029 0
M  V30 28833 C 2817.44 1.0197 1.84839 0
M  V30 28834 O 2816.79 0.0985074 2.28288 0
M  V30 28835 C 2817 3.37831 0.875853 0
M  V30 28836 C 2818.34 4.06422 1.22909 0
M  V30 28837 O 2819.37 3.42848 0.966127 0
M  V30 28838 O 2818.23 5.18641 1.72259 0
M  V30 28839 H 2815.32 0.772912 0.294171 0
M  V30 28840 H 2817.87 1.69008 -0.153077 0
M  V30 28841 H 2816.64 3.91294 -0.0208464 0
M  V30 28842 H 2816.26 3.60961 1.66713 0
M  V30 28843 N 2817.26 -0.155167 1.56834 0
M  V30 28844 C 2818.51 -0.86743 1.82538 0
M  V30 28845 C 2818.83 -1.82072 0.6982 0
M  V30 28846 O 2818.1 -1.93877 -0.280773 0
M  V30 28847 H 2816.68 -0.323315 0.673407 0
M  V30 28848 H 2819.34 -0.151122 1.94313 0
M  V30 28849 H 2818.44 -1.43461 2.77174 0
M  V30 28850 N 2818.74 -1.51782 -0.424256 0
M  V30 28851 C 2819.67 -1.70249 -1.53454 0
M  V30 28852 C 2820.68 -0.582993 -1.52003 0
M  V30 28853 O 2821.87 -0.857711 -1.56543 0
M  V30 28854 C 2818.97 -1.71394 -2.92365 0
M  V30 28855 C 2818.14 -3.00139 -3.18175 0
M  V30 28856 C 2817.2 -2.93298 -4.36879 0
M  V30 28857 O 2816.23 -3.67227 -4.34894 0
M  V30 28858 N 2817.43 -2.10046 -5.41166 0
M  V30 28859 H 2820.2 -2.66031 -1.38012 0
M  V30 28860 H 2817.76 -1.49831 -0.613368 0
M  V30 28861 H 2819.75 -1.64369 -3.69818 0
M  V30 28862 H 2818.32 -0.831502 -3.01338 0
M  V30 28863 H 2817.54 -3.20932 -2.28903 0
M  V30 28864 H 2818.83 -3.85337 -3.32254 0
M  V30 28865 H 2818.22 -1.49383 -5.4562 0
M  V30 28866 H 2816.78 -2.08889 -6.17421 0
M  V30 28867 N 2820.21 0.68054 -1.42149 0
M  V30 28868 C 2821.44 1.469 -1.45699 0
M  V30 28869 C 2821.86 1.88682 -0.066619 0
M  V30 28870 O 2821.21 1.57765 0.917408 0
M  V30 28871 C 2821.27 2.72184 -2.37903 0
M  V30 28872 O 2820.99 2.32157 -3.7153 0
M  V30 28873 C 2822.49 3.65798 -2.50413 0
M  V30 28874 H 2819.71 0.452201 -0.495737 0
M  V30 28875 H 2822.25 0.836677 -1.86601 0
M  V30 28876 H 2820.41 3.31619 -2.00269 0
M  V30 28877 H 2820.82 3.1302 -4.20855 0
M  V30 28878 H 2822.29 4.50447 -3.19064 0
M  V30 28879 H 2822.77 4.11309 -1.54017 0
M  V30 28880 H 2823.38 3.1226 -2.88745 0
M  V30 28881 N 2821.69 1.28226 0.916285 0
M  V30 28882 C 2822.62 1.14468 2.03518 0
M  V30 28883 C 2823.6 0.0431143 1.70045 0
M  V30 28884 O 2824.79 0.219653 1.92954 0
M  V30 28885 C 2821.92 0.803087 3.37887 0
M  V30 28886 C 2820.87 1.85914 3.85512 0
M  V30 28887 C 2820.2 1.37125 5.16818 0
M  V30 28888 C 2821.5 3.26526 4.07649 0
M  V30 28889 H 2823.19 2.08068 2.15286 0
M  V30 28890 H 2820.74 1.00176 1.03444 0
M  V30 28891 H 2822.69 0.693611 4.15653 0
M  V30 28892 H 2821.42 -0.168617 3.26164 0
M  V30 28893 H 2820.07 1.95772 3.0995 0
M  V30 28894 H 2819.72 0.388678 5.01496 0
M  V30 28895 H 2819.42 2.07738 5.49653 0
M  V30 28896 H 2820.95 1.27494 5.97141 0
M  V30 28897 H 2822.36 3.19604 4.75948 0
M  V30 28898 H 2820.76 3.94951 4.51811 0
M  V30 28899 H 2821.83 3.70732 3.12547 0
M  V30 28900 N 2823.17 -1.12438 1.10433 0
M  V30 28901 C 2824.1 -2.20257 0.775181 0
M  V30 28902 C 2825.08 -1.68226 -0.25183 0
M  V30 28903 O 2826.27 -1.93844 -0.117603 0
M  V30 28904 C 2823.4 -3.46687 0.206194 0
M  V30 28905 C 2822.35 -4.11871 1.16389 0
M  V30 28906 C 2821.68 -5.32751 0.456108 0
M  V30 28907 C 2822.98 -4.58009 2.51048 0
M  V30 28908 H 2824.67 -2.48047 1.67669 0
M  V30 28909 H 2822.22 -1.19221 0.807616 0
M  V30 28910 H 2824.17 -4.21384 -0.036217 0
M  V30 28911 H 2822.89 -3.18324 -0.730558 0
M  V30 28912 H 2821.55 -3.39154 1.39175 0
M  V30 28913 H 2821.2 -5.00655 -0.485115 0
M  V30 28914 H 2820.9 -5.77312 1.09476 0
M  V30 28915 H 2822.42 -6.10195 0.222243 0
M  V30 28916 H 2823.84 -5.24079 2.3241 0
M  V30 28917 H 2822.24 -5.13347 3.10798 0
M  V30 28918 H 2823.31 -3.71992 3.11046 0
M  V30 28919 N 2824.65 -0.893076 -1.29853 0
M  V30 28920 C 2825.6 -0.364201 -2.27908 0
M  V30 28921 C 2826.57 0.550065 -1.56727 0
M  V30 28922 O 2827.75 0.476738 -1.84748 0
M  V30 28923 C 2824.89 0.408118 -3.42678 0
M  V30 28924 C 2824 -0.536288 -4.28658 0
M  V30 28925 C 2823.14 0.252428 -5.306 0
M  V30 28926 C 2822.18 -0.686928 -6.08233 0
M  V30 28927 N 2821.32 0.0669668 -7.02068 0
M  V30 28928 H 2826.16 -1.20549 -2.72529 0
M  V30 28929 H 2823.69 -0.605803 -1.34046 0
M  V30 28930 H 2825.65 0.871891 -4.07988 0
M  V30 28931 H 2824.28 1.21391 -2.99105 0
M  V30 28932 H 2823.33 -1.11857 -3.63582 0
M  V30 28933 H 2824.64 -1.2556 -4.82738 0
M  V30 28934 H 2823.8 0.777696 -6.01695 0
M  V30 28935 H 2822.54 1.00491 -4.77235 0
M  V30 28936 H 2821.54 -1.22375 -5.36008 0
M  V30 28937 H 2822.77 -1.43864 -6.63687 0
M  V30 28938 H 2820.71 0.80184 -6.51081 0
M  V30 28939 H 2820.63 -0.592563 -7.53674 0
M  V30 28940 H 2821.9 0.572714 -7.77393 0
M  V30 28941 N 2826.13 1.4335 -0.654865 0
M  V30 28942 C 2827.35 2.0666 -0.175082 0
M  V30 28943 C 2827.78 1.48772 1.15102 0
M  V30 28944 O 2827.14 0.598309 1.71143 0
M  V30 28945 C 2827.18 3.60463 -0.0992178 0
M  V30 28946 O 2826.29 4.01589 0.938099 0
M  V30 28947 H 2825.63 0.657078 -0.0956263 0
M  V30 28948 H 2828.16 1.83828 -0.898254 0
M  V30 28949 H 2828.17 4.07914 0.0835603 0
M  V30 28950 H 2826.84 4.01973 -1.06726 0
M  V30 28951 H 2825.42 3.65725 0.727976 0
M  V30 28952 N 2827.61 0.39689 1.52521 0
M  V30 28953 C 2828.56 -0.451682 2.23481 0
M  V30 28954 C 2829.54 -1.02348 1.24152 0
M  V30 28955 O 2830.73 -0.948322 1.49452 0
M  V30 28956 C 2827.86 -1.57439 3.0507 0
M  V30 28957 C 2826.95 -1.01397 4.118 0
M  V30 28958 N 2827.34 -0.179145 5.05483 0
M  V30 28959 C 2825.64 -1.28571 4.27066 0
M  V30 28960 C 2826.34 0.131304 5.81552 0
M  V30 28961 N 2825.31 -0.47464 5.41524 0
M  V30 28962 H 2829.11 0.192585 2.93268 0
M  V30 28963 H 2826.63 0.206619 1.6108 0
M  V30 28964 H 2828.63 -2.19479 3.5445 0
M  V30 28965 H 2827.29 -2.22141 2.3682 0
M  V30 28966 H 2828.3 0.184201 5.17572 0
M  V30 28967 H 2824.97 -1.93321 3.70045 0
M  V30 28968 H 2826.36 0.808178 6.67022 0
M  V30 28969 N 2829.08 -1.57088 0.126936 0
M  V30 28970 C 2830.5 -1.5794 -0.229614 0
M  V30 28971 C 2830.7 -1.14013 -1.66143 0
M  V30 28972 O 2829.76 -0.831161 -2.38428 0
M  V30 28973 C 2831.07 -3.00698 0.0109177 0
M  V30 28974 C 2832.62 -3.12953 -0.054363 0
M  V30 28975 C 2833.09 -4.57725 0.158577 0
M  V30 28976 N 2834.58 -4.63081 0.104817 0
M  V30 28977 C 2835.32 -5.72879 0.244371 0
M  V30 28978 N 2834.81 -6.91398 0.440537 0
M  V30 28979 N 2836.61 -5.61801 0.183385 0
M  V30 28980 H 2828.76 -1.8394 1.06206 0
M  V30 28981 H 2831.02 -0.850453 0.418849 0
M  V30 28982 H 2830.73 -3.37152 1.00108 0
M  V30 28983 H 2830.6 -3.70314 -0.717447 0
M  V30 28984 H 2832.99 -2.76352 -1.03506 0
M  V30 28985 H 2833.07 -2.45864 0.70601 0
M  V30 28986 H 2832.71 -4.95026 1.13628 0
M  V30 28987 H 2832.64 -5.22915 -0.621878 0
M  V30 28988 H 2835.13 -3.77876 -0.0429634 0
M  V30 28989 H 2835.45 -7.70927 0.537672 0
M  V30 28990 H 2833.79 -6.93364 0.476609 0
M  V30 28991 H 2836.98 -4.6809 0.0310384 0
M  V30 28992 H 2837.16 -6.47325 0.295585 0
M  V30 28993 N 2830.56 0.146848 -1.56914 0
M  V30 28994 C 2831.81 0.860708 -1.83629 0
M  V30 28995 C 2832.14 1.80812 -0.70856 0
M  V30 28996 O 2831.42 1.92359 0.287804 0
M  V30 28997 C 2831.7 1.63506 -3.20839 0
M  V30 28998 C 2831.55 0.709121 -4.44175 0
M  V30 28999 C 2832.87 2.59749 -3.55272 0
M  V30 29000 H 2829.99 0.311457 -0.667955 0
M  V30 29001 H 2832.63 0.125902 -1.89582 0
M  V30 29002 H 2830.78 2.26147 -3.15895 0
M  V30 29003 H 2832.45 0.093697 -4.61205 0
M  V30 29004 H 2830.7 0.0187093 -4.33796 0
M  V30 29005 H 2831.37 1.28697 -5.36788 0
M  V30 29006 H 2833.84 2.07226 -3.60828 0
M  V30 29007 H 2832.72 3.10979 -4.52309 0
M  V30 29008 H 2832.98 3.41113 -2.81237 0
M  V30 29009 N 2832.04 1.52005 0.4162 0
M  V30 29010 C 2832.99 1.75443 1.52717 0
M  V30 29011 C 2833.98 0.621316 1.57594 0
M  V30 29012 O 2835.19 0.8032 1.61086 0
M  V30 29013 H 2831.56 0.554691 0.507762 0
M  V30 29014 H 2833.53 2.6853 1.30131 0
M  V30 29015 C 2832.28 1.91576 2.90162 0
M  V30 29016 H 2831.61 2.78183 2.87149 0
M  V30 29017 H 2833.05 2.11978 3.67207 0
M  V30 29018 C 2831.5 0.681 3.29945 0
M  V30 29019 O 2832.03 -0.154457 4.01403 0
M  V30 29020 N 2830.24 0.518944 2.85929 0
M  V30 29021 H 2829.79 1.1999 2.27948 0
M  V30 29022 H 2829.75 -0.30593 3.12908 0
M  V30 29023 N 2833.52 -0.672992 1.42508 0
M  V30 29024 C 2834.76 -1.44504 1.44561 0
M  V30 29025 C 2835.12 -1.91904 0.0606544 0
M  V30 29026 O 2836.32 -2.68764 -0.0440918 0
M  V30 29027 C 2834.59 -2.60872 2.44296 0
M  V30 29028 S 2836.15 -3.49694 2.65065 0
M  V30 29029 H 2832.97 -0.493521 0.511818 0
M  V30 29030 H 2835.57 -0.783224 1.79125 0
M  V30 29031 H 2834.28 -2.24291 3.43688 0
M  V30 29032 H 2833.81 -3.31925 2.11163 0
M  V30 29033 H 2835.82 -4.56915 1.93502 0
M  V30 29034 N 2835 -1.2871 -0.909472 0
M  V30 29035 C 2836.27 -1.06809 -1.63863 0
M  V30 29036 C 2836.65 0.391107 -2.07445 0
M  V30 29037 O 2836 1.37802 -1.82271 0
M  V30 29038 C 2836.21 -2.04666 -2.82688 0
M  V30 29039 C 2837.56 -2.35048 -3.53606 0
M  V30 29040 O 2838.58 -2.02784 -2.92843 0
M  V30 29041 O 2837.44 -2.90132 -4.63126 0
M  V30 29042 H 2834.54 -0.408515 -0.719058 0
M  V30 29043 H 2837.08 -1.40046 -0.9584 0
M  V30 29044 H 2835.85 -3.02995 -2.47609 0
M  V30 29045 H 2835.48 -1.72101 -3.58423 0
M  V30 29046 N 2836.47 1.1185 -1.11028 0
M  V30 29047 C 2837.89 1.355 -0.843318 0
M  V30 29048 C 2838.09 1.94291 0.534145 0
M  V30 29049 O 2837.15 2.17309 1.28581 0
M  V30 29050 C 2838.46 2.29073 -1.94797 0
M  V30 29051 C 2840.01 2.42649 -1.97713 0
M  V30 29052 C 2840.48 3.39541 -3.0737 0
M  V30 29053 N 2841.97 3.47101 -3.06716 0
M  V30 29054 C 2842.71 4.22001 -3.88204 0
M  V30 29055 N 2842.2 4.99913 -4.79644 0
M  V30 29056 N 2844 4.17469 -3.76398 0
M  V30 29057 H 2836.15 0.720503 -1.99806 0
M  V30 29058 H 2838.41 0.379696 -0.86864 0
M  V30 29059 H 2838.12 1.9306 -2.93974 0
M  V30 29060 H 2837.99 3.29253 -1.84045 0
M  V30 29061 H 2840.38 2.77939 -0.991653 0
M  V30 29062 H 2840.46 1.42336 -2.12542 0
M  V30 29063 H 2840.1 3.04978 -4.06141 0
M  V30 29064 H 2840.03 4.39698 -2.89781 0
M  V30 29065 H 2842.52 2.91524 -2.40462 0
M  V30 29066 H 2842.84 5.5442 -5.38366 0
M  V30 29067 H 2841.18 4.99089 -4.83669 0
M  V30 29068 H 2844.37 3.55687 -3.04309 0
M  V30 29069 H 2844.55 4.75586 -4.40139 0
M  V30 29070 N 2837.95 0.89995 1.29378 0
M  V30 29071 C 2839.2 0.524958 1.95163 0
M  V30 29072 C 2839.52 -0.931858 1.71293 0
M  V30 29073 O 2838.79 -1.6571 1.04484 0
M  V30 29074 H 2837.37 0.191148 0.72213 0
M  V30 29075 H 2840.03 1.1463 1.57626 0
M  V30 29076 H 2839.13 0.707765 3.03969 0
M  V30 29077 N 2839.43 -1.43001 0.662458 0
M  V30 29078 C 2840.36 -2.33498 -0.00975705 0
M  V30 29079 C 2841.34 -1.4999 -0.802303 0
M  V30 29080 O 2842.53 -1.78629 -0.761932 0
M  V30 29081 C 2839.66 -3.33468 -0.970388 0
M  V30 29082 C 2838.61 -4.27035 -0.287308 0
M  V30 29083 C 2837.94 -5.17114 -1.36003 0
M  V30 29084 C 2839.24 -5.15727 0.826041 0
M  V30 29085 H 2840.93 -2.89957 0.74601 0
M  V30 29086 H 2838.48 -1.39422 0.360197 0
M  V30 29087 H 2840.43 -3.95681 -1.44964 0
M  V30 29088 H 2839.15 -2.75285 -1.75743 0
M  V30 29089 H 2837.81 -3.66198 0.171584 0
M  V30 29090 H 2837.46 -4.55266 -2.13874 0
M  V30 29091 H 2837.16 -5.80539 -0.908174 0
M  V30 29092 H 2838.68 -5.82202 -1.84045 0
M  V30 29093 H 2840.1 -5.71696 0.428551 0
M  V30 29094 H 2838.5 -5.8792 1.20292 0
M  V30 29095 H 2839.57 -4.54863 1.68011 0
M  V30 29096 N 2840.91 -0.404973 -1.52308 0
M  V30 29097 C 2842.32 -0.0556535 -1.59503 0
M  V30 29098 C 2842.52 1.43154 -1.41807 0
M  V30 29099 O 2841.58 2.19789 -1.24293 0
M  V30 29100 C 2842.89 -0.546853 -2.95686 0
M  V30 29101 C 2844.44 -0.504467 -3.08908 0
M  V30 29102 C 2844.92 -0.972109 -4.47565 0
M  V30 29103 N 2846.41 -0.928759 -4.53793 0
M  V30 29104 C 2847.14 -1.26183 -5.59344 0
M  V30 29105 N 2846.64 -1.66616 -6.72466 0
M  V30 29106 N 2848.43 -1.18207 -5.4953 0
M  V30 29107 H 2840.58 -1.37299 -1.62058 0
M  V30 29108 H 2842.85 -0.563764 -0.762151 0
M  V30 29109 H 2842.55 -1.58614 -3.13902 0
M  V30 29110 H 2842.43 0.0457242 -3.77172 0
M  V30 29111 H 2844.81 0.525768 -2.90379 0
M  V30 29112 H 2844.89 -1.13305 -2.29338 0
M  V30 29113 H 2844.54 -2.00065 -4.66837 0
M  V30 29114 H 2844.47 -0.320384 -5.25624 0
M  V30 29115 H 2846.96 -0.631434 -3.72587 0
M  V30 29116 H 2847.27 -1.90353 -7.4899 0
M  V30 29117 H 2845.62 -1.70516 -6.73758 0
M  V30 29118 H 2848.81 -0.865092 -4.60037 0
M  V30 29119 H 2848.98 -1.44496 -6.31684 0
M  V30 29120 N 2842.39 1.57018 -0.135265 0
M  V30 29121 C 2843.8 1.82635 0.387489 0
M  V30 29122 C 2844.15 1.05335 1.65526 0
M  V30 29123 O 2843.27 0.294963 2.1438 0
M  V30 29124 C 2843.87 3.31281 0.709794 0
M  V30 29125 C 2842.43 3.57521 1.17712 0
M  V30 29126 C 2841.57 2.7662 0.194134 0
M  V30 29127 H 2844.53 1.54559 -0.360153 0
M  V30 29128 H 2844.55 3.46797 1.56564 0
M  V30 29129 H 2844.06 3.87515 -0.213092 0
M  V30 29130 H 2842.16 3.06662 2.11634 0
M  V30 29131 H 2842.27 4.66036 1.1112 0
M  V30 29132 H 2840.64 2.45332 0.684435 0
M  V30 29133 H 2841.42 3.35619 -0.722135 0
M  V30 29134 N 2843.86 -0.138524 1.5699 0
M  V30 29135 C 2845.09 -0.868377 1.88345 0
M  V30 29136 C 2845.51 -1.73559 0.72519 0
M  V30 29137 O 2844.87 -1.78364 -0.324961 0
M  V30 29138 C 2844.92 -1.69393 3.18337 0
M  V30 29139 O 2844.02 -2.79902 3.02868 0
M  V30 29140 H 2843.37 -0.241356 0.618582 0
M  V30 29141 H 2845.9 -0.12679 2.04207 0
M  V30 29142 H 2845.91 -2.0872 3.50571 0
M  V30 29143 H 2844.58 -1.05717 4.0224 0
M  V30 29144 H 2843.16 -2.43919 2.8206 0
M  V30 29145 N 2845.34 -1.52224 -0.408133 0
M  V30 29146 C 2846.58 -1.68009 -1.16415 0
M  V30 29147 C 2846.95 -0.401826 -1.87748 0
M  V30 29148 O 2848.15 -0.43579 -2.65244 0
M  V30 29149 C 2846.42 -2.86892 -2.13137 0
M  V30 29150 S 2847.98 -3.23165 -2.96833 0
M  V30 29151 H 2844.8 -0.591607 -0.394363 0
M  V30 29152 H 2847.4 -1.90219 -0.451316 0
M  V30 29153 H 2846.1 -3.78171 -1.59422 0
M  V30 29154 H 2845.63 -2.66958 -2.88959 0
M  V30 29155 H 2847.65 -2.71864 -4.15095 0
M  V30 29156 N 2846.82 0.665425 -1.42863 0
M  V30 29157 C 2848.23 1.24629 -1.39012 0
M  V30 29158 C 2848.58 1.96002 -0.0880629 0
M  V30 29159 O 2847.71 2.00551 0.812912 0
M  V30 29160 C 2848.3 2.26666 -2.51809 0
M  V30 29161 C 2846.86 2.80258 -2.51262 0
M  V30 29162 C 2846.01 1.54716 -2.30127 0
M  V30 29163 H 2848.96 0.45821 -1.51941 0
M  V30 29164 H 2848.98 3.08594 -2.22598 0
M  V30 29165 H 2848.49 1.74691 -3.46561 0
M  V30 29166 H 2846.59 3.36329 -1.60355 0
M  V30 29167 H 2846.71 3.28635 -3.4862 0
M  V30 29168 H 2845.07 1.81624 -1.78563 0
M  V30 29169 H 2845.85 1.04693 -3.26947 0
M  V30 29170 N 2848.3 1.29191 0.902633 0
M  V30 29171 C 2849.25 1.13947 2.02778 0
M  V30 29172 C 2850.24 0.0558168 1.69308 0
M  V30 29173 O 2851.45 0.215403 1.78707 0
M  V30 29174 H 2847.82 0.351889 0.664589 0
M  V30 29175 H 2849.79 2.09212 2.12774 0
M  V30 29176 C 2848.54 0.829719 3.37655 0
M  V30 29177 H 2847.86 1.65558 3.6391 0
M  V30 29178 H 2849.3 0.763072 4.17077 0
M  V30 29179 C 2847.76 -0.466932 3.33649 0
M  V30 29180 O 2848.29 -1.49388 3.72889 0
M  V30 29181 N 2846.5 -0.47171 2.86746 0
M  V30 29182 H 2846.05 0.364451 2.55009 0
M  V30 29183 H 2846 -1.33928 2.84448 0
M  V30 29184 N 2849.78 -1.1126 1.1162 0
M  V30 29185 C 2851 -1.87379 0.889046 0
M  V30 29186 C 2851.43 -1.79699 -0.555852 0
M  V30 29187 O 2850.78 -1.16075 -1.3927 0
M  V30 29188 C 2850.83 -3.34066 1.35765 0
M  V30 29189 O 2849.94 -4.08973 0.530571 0
M  V30 29190 H 2849.28 -0.581753 0.320092 0
M  V30 29191 H 2851.81 -1.40624 1.48613 0
M  V30 29192 H 2851.82 -3.84914 1.35298 0
M  V30 29193 H 2850.49 -3.38972 2.40979 0
M  V30 29194 H 2849.07 -3.68017 0.601503 0
M  V30 29195 N 2851.25 -0.906798 -1.28899 0
M  V30 29196 C 2852.19 -0.347199 -2.26555 0
M  V30 29197 C 2853.2 0.510463 -1.5459 0
M  V30 29198 O 2854.39 0.32647 -1.75489 0
M  V30 29199 C 2851.49 0.522965 -3.34841 0
M  V30 29200 C 2850.66 -0.310591 -4.36296 0
M  V30 29201 C 2849.72 0.493542 -5.2388 0
M  V30 29202 O 2848.75 -0.0914569 -5.69127 0
M  V30 29203 N 2849.95 1.79811 -5.5195 0
M  V30 29204 H 2852.71 -1.18657 -2.7521 0
M  V30 29205 H 2850.27 -0.772021 -1.42308 0
M  V30 29206 H 2852.27 1.06749 -3.90367 0
M  V30 29207 H 2850.84 1.26304 -2.85948 0
M  V30 29208 H 2850.06 -1.03651 -3.80329 0
M  V30 29209 H 2851.34 -0.881194 -5.01111 0
M  V30 29210 H 2850.74 2.29601 -5.1701 0
M  V30 29211 H 2849.3 2.28961 -6.10263 0
M  V30 29212 N 2852.73 1.42648 -0.670032 0
M  V30 29213 C 2853.96 2.06462 -0.196991 0
M  V30 29214 C 2854.38 1.49985 1.13517 0
M  V30 29215 O 2853.74 0.616427 1.70499 0
M  V30 29216 C 2853.79 3.60338 -0.137444 0
M  V30 29217 O 2852.89 4.02561 0.895452 0
M  V30 29218 H 2852.23 0.656027 -0.10259 0
M  V30 29219 H 2854.76 1.82864 -0.917701 0
M  V30 29220 H 2854.77 4.0798 0.0402908 0
M  V30 29221 H 2853.45 4.00818 -1.10984 0
M  V30 29222 H 2852.03 3.66477 0.689145 0
M  V30 29223 N 2854.21 0.413044 1.52091 0
M  V30 29224 C 2855.62 -0.0556639 1.86617 0
M  V30 29225 C 2855.97 -1.44094 1.33159 0
M  V30 29226 O 2855.1 -2.05687 0.672453 0
M  V30 29227 C 2855.69 -0.107785 3.38629 0
M  V30 29228 C 2854.25 -0.520838 3.72779 0
M  V30 29229 C 2853.4 0.302158 2.75649 0
M  V30 29230 H 2856.35 0.629944 1.45662 0
M  V30 29231 H 2856.37 -0.922259 3.69154 0
M  V30 29232 H 2855.88 0.900572 3.77507 0
M  V30 29233 H 2853.98 -1.53569 3.39481 0
M  V30 29234 H 2854.1 -0.262506 4.7838 0
M  V30 29235 H 2852.46 -0.236071 2.53604 0
M  V30 29236 H 2853.24 1.30894 3.17367 0
M  V30 29237 N 2855.69 -1.56945 0.143591 0
M  V30 29238 C 2856.94 -1.96305 -0.509125 0
M  V30 29239 C 2857.27 -1.02833 -1.64739 0
M  V30 29240 O 2856.54 -0.0700702 -1.94374 0
M  V30 29241 C 2856.83 -3.45395 -1.01854 0
M  V30 29242 C 2856.68 -4.49645 0.118002 0
M  V30 29243 C 2858 -3.96904 -1.90144 0
M  V30 29244 H 2855.12 -0.713766 -0.183595 0
M  V30 29245 H 2857.76 -1.88673 0.224128 0
M  V30 29246 H 2855.91 -3.5203 -1.64339 0
M  V30 29247 H 2857.58 -4.55092 0.754225 0
M  V30 29248 H 2855.82 -4.26773 0.777643 0
M  V30 29249 H 2856.5 -5.51289 -0.28009 0
M  V30 29250 H 2858.97 -3.92727 -1.37493 0
M  V30 29251 H 2857.85 -5.01694 -2.22698 0
M  V30 29252 H 2858.11 -3.39057 -2.83712 0
M  V30 29253 N 2857.17 0.130197 -1.57061 0
M  V30 29254 C 2858.11 1.16021 -1.99519 0
M  V30 29255 C 2859.08 1.4177 -0.865477 0
M  V30 29256 O 2860.27 1.53824 -1.12885 0
M  V30 29257 C 2857.41 2.48449 -2.39514 0
M  V30 29258 C 2856.52 2.29731 -3.65852 0
M  V30 29259 C 2855.66 3.55311 -3.94876 0
M  V30 29260 C 2854.7 3.31702 -5.14432 0
M  V30 29261 N 2853.83 4.49456 -5.39383 0
M  V30 29262 H 2858.67 0.791144 -2.87306 0
M  V30 29263 H 2856.21 0.37917 -1.42129 0
M  V30 29264 H 2858.17 3.25687 -2.60736 0
M  V30 29265 H 2856.8 2.8327 -1.54784 0
M  V30 29266 H 2855.85 1.43464 -3.5231 0
M  V30 29267 H 2857.16 2.08255 -4.53245 0
M  V30 29268 H 2856.32 4.40972 -4.16687 0
M  V30 29269 H 2855.06 3.79807 -3.05937 0
M  V30 29270 H 2854.06 2.44431 -4.92477 0
M  V30 29271 H 2855.29 3.08588 -6.04938 0
M  V30 29272 H 2853.23 4.74094 -4.534 0
M  V30 29273 H 2853.15 4.31045 -6.21077 0
M  V30 29274 H 2854.42 5.36283 -5.65704 0
M  V30 29275 N 2858.65 1.52438 0.400055 0
M  V30 29276 C 2859.89 1.67189 1.14786 0
M  V30 29277 C 2860.22 0.405107 1.89928 0
M  V30 29278 O 2859.5 -0.596772 1.85119 0
M  V30 29279 C 2859.78 2.89981 2.13502 0
M  V30 29280 C 2859.64 4.26732 1.42196 0
M  V30 29281 C 2860.95 3.08305 3.14063 0
M  V30 29282 H 2858.07 0.608418 0.415929 0
M  V30 29283 H 2860.72 1.85012 0.43251 0
M  V30 29284 H 2858.87 2.74916 2.74505 0
M  V30 29285 H 2860.54 4.53543 0.842424 0
M  V30 29286 H 2858.78 4.27718 0.723864 0
M  V30 29287 H 2859.45 5.08715 2.14272 0
M  V30 29288 H 2861.93 3.22328 2.63142 0
M  V30 29289 H 2860.8 3.9572 3.80391 0
M  V30 29290 H 2861.06 2.22025 3.82305 0
M  V30 29291 N 2860.12 -0.657839 1.43214 0
M  V30 29292 C 2861.03 -1.80005 1.50451 0
M  V30 29293 C 2862.05 -1.69528 0.39194 0
M  V30 29294 O 2863.23 -1.90779 0.645383 0
M  V30 29295 C 2860.29 -3.16256 1.42067 0
M  V30 29296 C 2859.35 -3.38563 2.63957 0
M  V30 29297 C 2858.58 -4.68314 2.55964 0
M  V30 29298 O 2858.81 -5.47359 1.60483 0
M  V30 29299 O 2857.74 -4.92239 3.46387 0
M  V30 29300 H 2861.57 -1.76854 2.46893 0
M  V30 29301 H 2859.15 -0.815738 1.25164 0
M  V30 29302 H 2861.03 -3.97529 1.39817 0
M  V30 29303 H 2859.71 -3.20007 0.48758 0
M  V30 29304 H 2858.62 -2.57072 2.71781 0
M  V30 29305 H 2859.95 -3.39655 3.56223 0
M  V30 29306 N 2861.6 -1.29668 -0.895769 0
M  V30 29307 C 2862.51 -1.17028 -2.03327 0
M  V30 29308 C 2863.53 -0.0926267 -1.73753 0
M  V30 29309 O 2864.7 -0.305466 -1.9907 0
M  V30 29310 C 2861.77 -0.8519 -3.36071 0
M  V30 29311 C 2860.83 -2.0138 -3.79137 0
M  V30 29312 C 2860.06 -1.71052 -5.05546 0
M  V30 29313 O 2860.29 -0.633312 -5.66873 0
M  V30 29314 O 2859.22 -2.55969 -5.4476 0
M  V30 29315 H 2863.05 -2.1256 -2.16915 0
M  V30 29316 H 2860.63 -1.09158 -1.02005 0
M  V30 29317 H 2862.51 -0.689079 -4.15728 0
M  V30 29318 H 2861.19 0.0736065 -3.23616 0
M  V30 29319 H 2860.09 -2.23188 -3.0023 0
M  V30 29320 H 2861.43 -2.92065 -3.96181 0
M  V30 29321 N 2863.08 1.10667 -1.12208 0
M  V30 29322 C 2864.31 1.86364 -0.898668 0
M  V30 29323 C 2864.72 1.80552 0.551959 0
M  V30 29324 O 2864.08 1.19252 1.3815 0
M  V30 29325 C 2864.13 3.34859 -1.36205 0
M  V30 29326 O 2863.85 3.40568 -2.75582 0
M  V30 29327 C 2865.35 4.27438 -1.17522 0
M  V30 29328 H 2862.57 0.589078 -0.321291 0
M  V30 29329 H 2865.12 1.39915 -1.49144 0
M  V30 29330 H 2863.27 3.78783 -0.812556 0
M  V30 29331 H 2863.69 4.33091 -2.95858 0
M  V30 29332 H 2865.16 5.29839 -1.54836 0
M  V30 29333 H 2865.64 4.39048 -0.115563 0
M  V30 29334 H 2866.24 3.89316 -1.7121 0
M  V30 29335 N 2864.56 0.913621 1.28416 0
M  V30 29336 C 2865.8 0.553806 1.96755 0
M  V30 29337 C 2866.16 -0.885983 1.70336 0
M  V30 29338 O 2867.36 -1.35337 2.32244 0
M  V30 29339 C 2865.63 0.85431 3.47039 0
M  V30 29340 S 2867.19 0.600892 4.34666 0
M  V30 29341 H 2864.01 0.204927 0.680827 0
M  V30 29342 H 2866.61 1.17904 1.55945 0
M  V30 29343 H 2865.32 1.90013 3.63762 0
M  V30 29344 H 2864.85 0.217721 3.92797 0
M  V30 29345 H 2866.86 -0.547819 4.93167 0
M  V30 29346 N 2866.04 -1.4229 0.677588 0
M  V30 29347 C 2867.28 -2.01102 0.200613 0
M  V30 29348 C 2867.6 -1.5386 -1.198 0
M  V30 29349 O 2866.87 -0.761471 -1.80495 0
M  V30 29350 H 2865.45 -0.743601 0.0711765 0
M  V30 29351 H 2868.12 -1.74168 0.874721 0
M  V30 29352 H 2867.21 -3.11432 0.204055 0
M  V30 29353 N 2867.51 -0.421104 -1.5187 0
M  V30 29354 C 2868.75 0.150131 -2.03848 0
M  V30 29355 C 2869.12 1.4136 -1.29928 0
M  V30 29356 O 2870.32 2.06405 -1.72194 0
M  V30 29357 C 2868.59 0.379968 -3.55374 0
M  V30 29358 S 2870.15 0.916935 -4.29113 0
M  V30 29359 H 2866.97 0.0394514 -0.709905 0
M  V30 29360 H 2869.57 -0.576779 -1.86798 0
M  V30 29361 H 2868.27 -0.546194 -4.06749 0
M  V30 29362 H 2867.8 1.13442 -3.76689 0
M  V30 29363 H 2869.82 2.19627 -4.44948 0
M  V30 29364 N 2868.99 1.56866 -0.151912 0
M  V30 29365 C 2870.41 1.58285 0.204458 0
M  V30 29366 C 2870.61 1.16641 1.64308 0
M  V30 29367 O 2869.66 0.868987 2.37076 0
M  V30 29368 C 2870.98 3.00643 -0.0587548 0
M  V30 29369 C 2872.53 3.13 0.00456802 0
M  V30 29370 C 2873 4.57415 -0.231377 0
M  V30 29371 N 2874.49 4.62856 -0.178476 0
M  V30 29372 C 2875.23 5.72418 -0.33548 0
M  V30 29373 N 2874.72 6.9061 -0.550476 0
M  V30 29374 N 2876.52 5.61438 -0.272739 0
M  V30 29375 H 2868.67 1.82227 -1.09119 0
M  V30 29376 H 2870.93 0.843681 -0.432326 0
M  V30 29377 H 2870.64 3.35516 -1.05459 0
M  V30 29378 H 2870.51 3.71409 0.658442 0
M  V30 29379 H 2872.9 2.77964 0.99096 0
M  V30 29380 H 2872.98 2.4471 -0.745035 0
M  V30 29381 H 2872.62 4.93156 -1.21489 0
M  V30 29382 H 2872.55 5.23838 0.538608 0
M  V30 29383 H 2875.04 3.77896 -0.0171588 0
M  V30 29384 H 2875.36 7.69974 -0.660252 0
M  V30 29385 H 2873.7 6.92518 -0.586857 0
M  V30 29386 H 2876.89 4.67981 -0.105503 0
M  V30 29387 H 2877.06 6.46773 -0.398531 0
M  V30 29388 N 2870.47 -0.121866 1.57128 0
M  V30 29389 C 2871.72 -0.826418 1.85854 0
M  V30 29390 C 2872.07 -1.77629 0.739293 0
M  V30 29391 O 2871.36 -1.89815 -0.260925 0
M  V30 29392 C 2871.56 -1.61671 3.18743 0
M  V30 29393 C 2871.39 -0.744866 4.43488 0
M  V30 29394 C 2870.16 -0.400802 5.03708 0
M  V30 29395 C 2872.36 -0.0637875 5.1426 0
M  V30 29396 N 2870.34 0.48201 6.12005 0
M  V30 29397 C 2871.71 0.678141 6.1628 0
M  V30 29398 C 2873.76 0.0129299 4.97898 0
M  V30 29399 C 2872.47 1.48958 7.03707 0
M  V30 29400 C 2874.49 0.811183 5.8581 0
M  V30 29401 C 2873.85 1.54131 6.8733 0
M  V30 29402 H 2869.95 -0.279429 0.730372 0
M  V30 29403 H 2872.54 -0.0903144 1.9449 0
M  V30 29404 H 2870.71 -2.32388 3.11208 0
M  V30 29405 H 2872.44 -2.26638 3.35287 0
M  V30 29406 H 2869.2 -0.742387 4.67745 0
M  V30 29407 H 2869.62 0.91518 6.70786 0
M  V30 29408 H 2874.26 -0.537204 4.19373 0
M  V30 29409 H 2871.98 2.05088 7.81642 0
M  V30 29410 H 2875.57 0.872865 5.75215 0
M  V30 29411 H 2874.45 2.14906 7.54178 0
M  V30 29412 N 2871.95 -1.52648 -0.391965 0
M  V30 29413 C 2873.18 -1.7142 -1.15857 0
M  V30 29414 C 2873.59 -0.431248 -1.83809 0
M  V30 29415 O 2872.95 0.594055 -1.72561 0
M  V30 29416 C 2873 -2.86169 -2.20883 0
M  V30 29417 O 2872.72 -4.09498 -1.55703 0
M  V30 29418 C 2874.22 -3.16595 -3.10294 0
M  V30 29419 H 2871.44 -0.574018 -0.347484 0
M  V30 29420 H 2873.99 -1.99284 -0.458937 0
M  V30 29421 H 2872.14 -2.60775 -2.86487 0
M  V30 29422 H 2872.55 -4.73567 -2.25466 0
M  V30 29423 H 2874.03 -4.00358 -3.80023 0
M  V30 29424 H 2874.51 -2.30854 -3.73635 0
M  V30 29425 H 2875.11 -3.43818 -2.50339 0
M  V30 29426 N 2873.43 0.650235 -1.43561 0
M  V30 29427 C 2874.67 1.42186 -1.46842 0
M  V30 29428 C 2875.03 1.91783 -0.091177 0
M  V30 29429 O 2876.23 2.688 0.0013282 0
M  V30 29430 C 2874.5 2.56953 -2.48415 0
M  V30 29431 S 2876.06 3.45433 -2.70595 0
M  V30 29432 H 2872.88 0.485316 -0.519605 0
M  V30 29433 H 2875.48 0.754628 -1.80349 0
M  V30 29434 H 2874.19 2.18795 -3.47213 0
M  V30 29435 H 2873.72 3.28523 -2.16417 0
M  V30 29436 H 2875.73 4.53779 -2.00746 0
M  V30 29437 N 2874.9 1.30141 0.88888 0
M  V30 29438 C 2876.32 1.16896 1.45576 0
M  V30 29439 C 2876.67 -0.231832 1.94826 0
M  V30 29440 O 2875.79 -1.12821 1.84663 0
M  V30 29441 C 2876.39 2.11599 2.64596 0
M  V30 29442 C 2874.95 2.02344 3.17386 0
M  V30 29443 C 2874.09 2.01905 1.90078 0
M  V30 29444 H 2877.04 1.42468 0.699185 0
M  V30 29445 H 2877.06 1.69455 3.40684 0
M  V30 29446 H 2876.58 3.13542 2.2872 0
M  V30 29447 H 2874.68 1.03529 3.57928 0
M  V30 29448 H 2874.79 2.9054 3.8095 0
M  V30 29449 H 2873.15 1.46652 2.08243 0
M  V30 29450 H 2873.94 3.05571 1.56465 0
M  V30 29451 N 2876.38 -1.1007 1.12794 0
M  V30 29452 C 2877.62 -1.83728 0.895724 0
M  V30 29453 C 2877.99 -1.83403 -0.568098 0
M  V30 29454 O 2879.19 -2.52652 -0.917621 0
M  V30 29455 C 2877.46 -3.26248 1.45935 0
M  V30 29456 S 2879.02 -4.16989 1.36623 0
M  V30 29457 H 2875.84 -0.633383 0.323028 0
M  V30 29458 H 2878.44 -1.32425 1.43819 0
M  V30 29459 H 2877.14 -3.24057 2.51824 0
M  V30 29460 H 2876.67 -3.82622 0.914545 0
M  V30 29461 H 2878.69 -4.95032 0.340218 0
M  V30 29462 N 2877.86 -0.920419 -1.2793 0
M  V30 29463 C 2879.11 -0.557866 -1.94976 0
M  V30 29464 C 2879.44 0.897335 -1.72225 0
M  V30 29465 O 2878.71 1.6391 -1.04708 0
M  V30 29466 C 2879 -0.875803 -3.49287 0
M  V30 29467 C 2878.85 -2.38422 -3.81412 0
M  V30 29468 C 2880.17 -0.376594 -4.38486 0
M  V30 29469 H 2877.29 -0.204152 -0.70816 0
M  V30 29470 H 2879.93 -1.15087 -1.51178 0
M  V30 29471 H 2878.08 -0.37113 -3.86723 0
M  V30 29472 H 2879.75 -2.96003 -3.53808 0
M  V30 29473 H 2878 -2.83644 -3.2822 0
M  V30 29474 H 2878.67 -2.55722 -4.89194 0
M  V30 29475 H 2881.14 -0.809017 -4.08159 0
M  V30 29476 H 2880.02 -0.628072 -5.45295 0
M  V30 29477 H 2880.28 0.723216 -4.36144 0
M  V30 29478 N 2879.34 1.41929 -0.685124 0
M  V30 29479 C 2880.58 2.03259 -0.215712 0
M  V30 29480 C 2880.94 1.53049 1.15931 0
M  V30 29481 O 2882.14 2.06234 1.72397 0
M  V30 29482 C 2880.41 3.56455 -0.259712 0
M  V30 29483 S 2881.97 4.38586 0.137185 0
M  V30 29484 H 2878.79 0.705564 -0.0877486 0
M  V30 29485 H 2881.39 1.73522 -0.900577 0
M  V30 29486 H 2880.1 3.90494 -1.26263 0
M  V30 29487 H 2879.63 3.90879 0.444647 0
M  V30 29488 H 2881.64 4.76976 1.36779 0
M  V30 29489 N 2880.82 0.429152 1.51644 0
M  V30 29490 C 2882.04 -0.138958 2.06433 0
M  V30 29491 C 2882.46 -1.37163 1.29737 0
M  V30 29492 O 2881.82 -1.79021 0.354669 0
M  V30 29493 C 2881.87 -0.469389 3.5844 0
M  V30 29494 O 2881.59 0.714349 4.32237 0
M  V30 29495 C 2883.09 -1.08906 4.29714 0
M  V30 29496 H 2880.31 -0.011549 0.670901 0
M  V30 29497 H 2882.85 0.605877 1.95319 0
M  V30 29498 H 2881.01 -1.16412 3.69496 0
M  V30 29499 H 2881.42 0.433725 5.22704 0
M  V30 29500 H 2882.9 -1.27032 5.37184 0
M  V30 29501 H 2883.37 -2.06781 3.87477 0
M  V30 29502 H 2883.98 -0.433953 4.2308 0
M  V30 29503 N 2882.29 -1.56783 0.160229 0
M  V30 29504 C 2883.54 -1.96155 -0.48659 0
M  V30 29505 C 2883.86 -1.04676 -1.64523 0
M  V30 29506 O 2883.13 -0.110899 -1.95586 0
M  V30 29507 H 2881.71 -0.7243 -0.182752 0
M  V30 29508 H 2884.38 -1.93431 0.238821 0
M  V30 29509 H 2883.47 -3.00189 -0.853973 0
M  V30 29510 N 2883.77 0.113531 -1.57191 0
M  V30 29511 C 2885 0.838303 -1.89703 0
M  V30 29512 C 2885.42 1.72383 -0.75271 0
M  V30 29513 O 2884.78 1.78858 0.296544 0
M  V30 29514 C 2884.83 1.64307 -3.20992 0
M  V30 29515 O 2883.93 2.75048 -3.07282 0
M  V30 29516 H 2883.27 0.231485 -0.622343 0
M  V30 29517 H 2885.8 0.0942869 -2.04383 0
M  V30 29518 H 2885.81 2.03116 -3.53847 0
M  V30 29519 H 2884.49 0.993048 -4.0387 0
M  V30 29520 H 2883.07 2.39401 -2.85905 0
M  V30 29521 N 2885.25 1.52854 0.383864 0
M  V30 29522 C 2886.48 1.72332 1.15397 0
M  V30 29523 C 2886.9 0.443012 1.82809 0
M  V30 29524 O 2886.26 -0.601615 1.71027 0
M  V30 29525 C 2886.31 2.87712 2.17381 0
M  V30 29526 O 2885.41 2.55044 3.24078 0
M  V30 29527 H 2884.75 0.572889 0.335699 0
M  V30 29528 H 2887.28 1.99667 0.446585 0
M  V30 29529 H 2887.29 3.13355 2.61291 0
M  V30 29530 H 2885.97 3.8059 1.67703 0
M  V30 29531 H 2884.54 2.40158 2.85269 0
M  V30 29532 N 2886.73 -0.642612 1.43904 0
M  V30 29533 C 2887.96 -1.42985 1.49542 0
M  V30 29534 C 2888.37 -1.88439 0.116621 0
M  V30 29535 O 2887.73 -1.60142 -0.875257 0
M  V30 29536 C 2887.78 -2.65781 2.45036 0
M  V30 29537 O 2887.5 -2.22225 3.77555 0
M  V30 29538 C 2889 -3.5903 2.60024 0
M  V30 29539 H 2886.22 -0.438899 0.507552 0
M  V30 29540 H 2888.77 -0.786909 1.88754 0
M  V30 29541 H 2886.92 -3.26192 2.08991 0
M  V30 29542 H 2887.34 -3.01752 4.29006 0
M  V30 29543 H 2888.81 -4.41829 3.30894 0
M  V30 29544 H 2889.29 -4.07081 1.64868 0
M  V30 29545 H 2889.89 -3.04495 2.96923 0
M  V30 29546 N 2888.21 -1.30611 -0.881966 0
M  V30 29547 C 2889.62 -1.09007 -1.16574 0
M  V30 29548 C 2889.82 0.147235 -2.00961 0
M  V30 29549 O 2888.88 0.839994 -2.38118 0
M  V30 29550 C 2890.19 -2.35521 -1.8695 0
M  V30 29551 C 2891.74 -2.41015 -1.99702 0
M  V30 29552 C 2892.22 -3.67379 -2.7349 0
M  V30 29553 N 2893.71 -3.68204 -2.81034 0
M  V30 29554 C 2894.44 -4.6267 -3.3871 0
M  V30 29555 N 2893.94 -5.67482 -3.97411 0
M  V30 29556 N 2895.73 -4.50209 -3.36553 0
M  V30 29557 H 2887.88 -2.09985 -0.319361 0
M  V30 29558 H 2890.14 -0.925781 -0.204041 0
M  V30 29559 H 2889.85 -3.25832 -1.32388 0
M  V30 29560 H 2889.72 -2.444 -2.87313 0
M  V30 29561 H 2892.11 -1.51181 -2.53433 0
M  V30 29562 H 2892.19 -2.36109 -0.984176 0
M  V30 29563 H 2891.84 -4.57573 -2.2043 0
M  V30 29564 H 2891.77 -3.69547 -3.75157 0
M  V30 29565 H 2894.26 -2.9243 -2.39359 0
M  V30 29566 H 2894.57 -6.3566 -4.39495 0
M  V30 29567 H 2892.92 -5.71271 -3.95822 0
M  V30 29568 H 2896.11 -3.67508 -2.89924 0
M  V30 29569 H 2896.28 -5.2401 -3.81206 0
M  V30 29570 N 2889.69 1.0947 -1.13376 0
M  V30 29571 C 2890.64 2.14261 -0.779497 0
M  V30 29572 C 2891.62 1.59301 0.226243 0
M  V30 29573 O 2892.81 1.76974 0.0302269 0
M  V30 29574 C 2889.94 3.42412 -0.246695 0
M  V30 29575 C 2889.03 4.04281 -1.28132 0
M  V30 29576 N 2889.42 4.40711 -2.48209 0
M  V30 29577 C 2887.72 4.31474 -1.12899 0
M  V30 29578 C 2888.42 4.89444 -3.14355 0
M  V30 29579 N 2887.39 4.86871 -2.41779 0
M  V30 29580 H 2891.19 2.40232 -1.69309 0
M  V30 29581 H 2888.71 1.26693 -1.016 0
M  V30 29582 H 2890.71 4.16892 0.0253399 0
M  V30 29583 H 2889.37 3.17896 0.661231 0
M  V30 29584 H 2890.38 4.32088 -2.85518 0
M  V30 29585 H 2887.05 4.16565 -0.27919 0
M  V30 29586 H 2888.44 5.27099 -4.16672 0
M  V30 29587 N 2891.16 0.92719 1.2744 0
M  V30 29588 C 2892.41 0.56318 1.93678 0
M  V30 29589 C 2892.73 -0.899806 1.73675 0
M  V30 29590 O 2893.93 -1.37257 2.34249 0
M  V30 29591 C 2892.39 0.956421 3.46959 0
M  V30 29592 C 2892 2.44006 3.7572 0
M  V30 29593 C 2893.74 0.663639 4.1928 0
M  V30 29594 C 2891.65 2.77273 5.22373 0
M  V30 29595 H 2890.58 0.206907 0.725056 0
M  V30 29596 H 2893.23 1.12793 1.44741 0
M  V30 29597 H 2891.61 0.320323 3.94702 0
M  V30 29598 H 2892.78 3.12402 3.38735 0
M  V30 29599 H 2891.1 2.70468 3.16601 0
M  V30 29600 H 2893.7 0.888689 5.27263 0
M  V30 29601 H 2894.04 -0.399125 4.14382 0
M  V30 29602 H 2894.57 1.25881 3.77358 0
M  V30 29603 H 2891.31 3.82456 5.32361 0
M  V30 29604 H 2890.83 2.13526 5.60506 0
M  V30 29605 H 2892.51 2.64989 5.90246 0
M  V30 29606 N 2892.64 -1.41564 0.692641 0
M  V30 29607 C 2893.89 -2.01574 0.2227 0
M  V30 29608 C 2894.22 -1.54721 -1.17367 0
M  V30 29609 O 2893.5 -0.757116 -1.79159 0
M  V30 29610 C 2893.78 -3.59032 0.277127 0
M  V30 29611 C 2893.63 -4.16018 1.71023 0
M  V30 29612 C 2894.95 -4.38586 -0.364713 0
M  V30 29613 H 2892.07 -0.73238 0.0823968 0
M  V30 29614 H 2894.71 -1.6835 0.880807 0
M  V30 29615 H 2892.86 -3.87466 -0.28322 0
M  V30 29616 H 2894.53 -3.98471 2.3242 0
M  V30 29617 H 2892.78 -3.71171 2.24531 0
M  V30 29618 H 2893.45 -5.25175 1.69987 0
M  V30 29619 H 2895.92 -4.15948 0.112477 0
M  V30 29620 H 2894.8 -5.48101 -0.296073 0
M  V30 29621 H 2895.06 -4.17819 -1.44499 0
M  V30 29622 N 2894.12 -0.437188 -1.51415 0
M  V30 29623 C 2895.35 0.128008 -2.06504 0
M  V30 29624 C 2895.76 1.36473 -1.30463 0
M  V30 29625 O 2895.12 1.7883 -0.364158 0
M  V30 29626 C 2895.17 0.450374 -3.58684 0
M  V30 29627 O 2894.89 -0.737262 -4.31852 0
M  V30 29628 C 2896.39 1.06626 -4.30286 0
M  V30 29629 H 2893.61 0.0079909 -0.670952 0
M  V30 29630 H 2896.16 -0.616227 -1.94995 0
M  V30 29631 H 2894.31 1.14451 -3.70108 0
M  V30 29632 H 2894.73 -0.461439 -5.22466 0
M  V30 29633 H 2896.2 1.24182 -5.3785 0
M  V30 29634 H 2896.68 2.04723 -3.88568 0
M  V30 29635 H 2897.28 0.41151 -4.23304 0
M  V30 29636 N 2895.6 1.56696 -0.168541 0
M  V30 29637 C 2896.84 1.96799 0.477123 0
M  V30 29638 C 2897.17 1.0544 1.6344 0
M  V30 29639 O 2896.43 0.0879247 1.95502 0
M  V30 29640 C 2896.73 3.42998 1.00435 0
M  V30 29641 C 2896.39 4.50885 -0.0367349 0
M  V30 29642 C 2895.05 4.80116 -0.322869 0
M  V30 29643 C 2897.41 5.15869 -0.743537 0
M  V30 29644 C 2894.73 5.71629 -1.32124 0
M  V30 29645 C 2897.09 6.0846 -1.73087 0
M  V30 29646 C 2895.75 6.36059 -2.02448 0
M  V30 29647 H 2895.02 0.720138 0.174592 0
M  V30 29648 H 2897.67 1.89728 -0.259917 0
M  V30 29649 H 2895.97 3.47007 1.81916 0
M  V30 29650 H 2897.67 3.71366 1.51288 0
M  V30 29651 H 2894.26 4.2815 0.196457 0
M  V30 29652 H 2898.44 4.93401 -0.535688 0
M  V30 29653 H 2893.7 5.91297 -1.55493 0
M  V30 29654 H 2897.87 6.57882 -2.28394 0
M  V30 29655 H 2895.5 7.06772 -2.79959 0
M  V30 29656 N 2897.08 -0.105193 1.57249 0
M  V30 29657 C 2898.35 -0.841616 1.76568 0
M  V30 29658 C 2898.73 -1.97419 0.7476 0
M  V30 29659 O 2898.08 -2.27381 -0.225846 0
M  V30 29660 C 2898.29 -1.34555 3.22019 0
M  V30 29661 C 2899.64 -1.79238 3.84914 0
M  V30 29662 O 2900.66 -1.44202 3.25706 0
M  V30 29663 O 2899.52 -2.43986 4.89012 0
M  V30 29664 H 2896.62 -0.400685 0.72345 0
M  V30 29665 H 2899.16 -0.0878595 1.69472 0
M  V30 29666 H 2897.93 -0.533617 3.87644 0
M  V30 29667 H 2897.56 -2.16161 3.33707 0
M  V30 29668 N 2898.55 -1.53055 -0.375752 0
M  V30 29669 C 2899.8 -1.68411 -1.11724 0
M  V30 29670 C 2900.12 -0.433263 -1.90126 0
M  V30 29671 O 2899.39 0.552562 -1.87946 0
M  V30 29672 H 2897.97 -0.620821 -0.41544 0
M  V30 29673 H 2900.64 -1.90213 -0.424835 0
M  V30 29674 H 2899.73 -2.54059 -1.81275 0
M  V30 29675 N 2900.03 0.634971 -1.44242 0
M  V30 29676 C 2900.96 1.76021 -1.46796 0
M  V30 29677 C 2901.98 1.58729 -0.361808 0
M  V30 29678 O 2903.17 1.67113 -0.627326 0
M  V30 29679 C 2900.27 3.13694 -1.28254 0
M  V30 29680 C 2899.44 3.57481 -2.52044 0
M  V30 29681 C 2898.5 4.74018 -2.28458 0
M  V30 29682 O 2897.52 4.82526 -3.01923 0
M  V30 29683 N 2898.73 5.65462 -1.31274 0
M  V30 29684 H 2901.49 1.74303 -2.438 0
M  V30 29685 H 2899.05 0.819414 -1.39632 0
M  V30 29686 H 2901.04 3.89371 -1.10328 0
M  V30 29687 H 2899.61 3.10078 -0.396284 0
M  V30 29688 H 2898.83 2.72054 -2.85273 0
M  V30 29689 H 2900.12 3.83486 -3.34389 0
M  V30 29690 H 2899.52 5.61278 -0.705916 0
M  V30 29691 H 2898.08 6.40784 -1.19328 0
M  V30 29692 N 2901.51 1.31076 0.875027 0
M  V30 29693 C 2902.46 1.18222 2.00315 0
M  V30 29694 C 2903.45 0.091717 1.69152 0
M  V30 29695 O 2904.66 0.253261 1.78209 0
M  V30 29696 H 2901.03 0.365907 0.656975 0
M  V30 29697 H 2903 2.13678 2.08289 0
M  V30 29698 C 2901.75 0.901154 3.35819 0
M  V30 29699 H 2901.08 1.7324 3.60317 0
M  V30 29700 H 2902.52 0.851368 4.15365 0
M  V30 29701 C 2900.98 -0.396056 3.34564 0
M  V30 29702 O 2901.51 -1.41445 3.75974 0
M  V30 29703 N 2899.71 -0.410781 2.87682 0
M  V30 29704 H 2899.26 0.41846 2.54178 0
M  V30 29705 H 2899.22 -1.27864 2.87225 0
M  V30 29706 N 2902.99 -1.08867 1.13955 0
M  V30 29707 C 2904.24 -1.8116 0.904842 0
M  V30 29708 C 2904.56 -1.85997 -0.568791 0
M  V30 29709 O 2903.82 -1.32826 -1.43721 0
M  V30 29710 C 2904.12 -3.26886 1.44501 0
M  V30 29711 C 2903.78 -3.42173 2.93647 0
M  V30 29712 C 2902.45 -3.46053 3.34367 0
M  V30 29713 C 2904.8 -3.46239 3.89574 0
M  V30 29714 C 2902.13 -3.51583 4.69687 0
M  V30 29715 C 2904.48 -3.53304 5.24746 0
M  V30 29716 C 2903.14 -3.55455 5.64985 0
M  V30 29717 H 2902.41 -0.662911 0.331105 0
M  V30 29718 H 2905.06 -1.28214 1.42244 0
M  V30 29719 H 2903.36 -3.82508 0.848236 0
M  V30 29720 H 2905.06 -3.81366 1.23941 0
M  V30 29721 H 2901.65 -3.39842 2.61162 0
M  V30 29722 H 2905.83 -3.42477 3.59198 0
M  V30 29723 H 2901.09 -3.51539 5.00231 0
M  V30 29724 H 2905.26 -3.55395 5.98888 0
M  V30 29725 H 2902.89 -3.59493 6.69827 0
M  V30 29726 N 2904.47 -0.933936 -1.26946 0
M  V30 29727 C 2905.41 -0.436524 -2.26634 0
M  V30 29728 C 2906.38 0.499925 -1.58398 0
M  V30 29729 O 2907.57 0.41772 -1.86171 0
M  V30 29730 C 2904.71 0.298891 -3.43803 0
M  V30 29731 C 2903.82 -0.672391 -4.26735 0
M  V30 29732 C 2902.96 0.0834938 -5.31134 0
M  V30 29733 C 2902 -0.880086 -6.0574 0
M  V30 29734 N 2901.13 -0.156425 -7.01926 0
M  V30 29735 H 2905.97 -1.29158 -2.68556 0
M  V30 29736 H 2903.51 -0.648142 -1.32051 0
M  V30 29737 H 2905.47 0.741651 -4.10555 0
M  V30 29738 H 2904.1 1.11814 -3.02816 0
M  V30 29739 H 2903.15 -1.23367 -3.5984 0
M  V30 29740 H 2904.46 -1.40855 -4.78499 0
M  V30 29741 H 2903.62 0.585877 -6.03865 0
M  V30 29742 H 2902.35 0.852576 -4.8019 0
M  V30 29743 H 2901.36 -1.39366 -5.31843 0
M  V30 29744 H 2902.58 -1.64905 -6.58774 0
M  V30 29745 H 2900.53 0.594298 -6.53302 0
M  V30 29746 H 2900.45 -0.832038 -7.51407 0
M  V30 29747 H 2901.72 0.325102 -7.78822 0
M  V30 29748 N 2905.94 1.41194 -0.700139 0
M  V30 29749 C 2906.87 2.33442 -0.0521542 0
M  V30 29750 C 2907.86 1.52065 0.762254 0
M  V30 29751 O 2909.04 1.80586 0.714304 0
M  V30 29752 C 2906.17 3.35923 0.881634 0
M  V30 29753 C 2905.12 4.27646 0.173987 0
M  V30 29754 C 2904.45 5.20539 1.22244 0
M  V30 29755 C 2905.75 5.13355 -0.962487 0
M  V30 29756 H 2907.44 2.87877 -0.822625 0
M  V30 29757 H 2904.99 1.38418 -0.397036 0
M  V30 29758 H 2906.94 3.99385 1.34422 0
M  V30 29759 H 2905.67 2.79848 1.68382 0
M  V30 29760 H 2904.33 3.65615 -0.268615 0
M  V30 29761 H 2903.97 4.60776 2.01728 0
M  V30 29762 H 2903.67 5.82743 0.753935 0
M  V30 29763 H 2905.2 5.86877 1.68545 0
M  V30 29764 H 2906.61 5.70359 -0.579975 0
M  V30 29765 H 2905.01 5.84524 -1.35838 0
M  V30 29766 H 2906.08 4.50249 -1.80011 0
M  V30 29767 N 2907.42 0.445212 1.51181 0
M  V30 29768 C 2908.65 -0.117055 2.06569 0
M  V30 29769 C 2909.07 -1.35779 1.31185 0
M  V30 29770 O 2908.42 -1.78634 0.373637 0
M  V30 29771 C 2908.47 -0.431345 3.58917 0
M  V30 29772 O 2908.19 0.760153 4.31455 0
M  V30 29773 C 2909.7 -1.04342 4.30845 0
M  V30 29774 H 2906.92 -0.00443256 0.670985 0
M  V30 29775 H 2909.46 0.626559 1.94665 0
M  V30 29776 H 2907.61 -1.12487 3.7071 0
M  V30 29777 H 2908.03 0.48914 5.22214 0
M  V30 29778 H 2909.5 -1.21328 5.38501 0
M  V30 29779 H 2909.98 -2.0266 3.89648 0
M  V30 29780 H 2910.59 -0.389055 4.23517 0
M  V30 29781 N 2908.9 -1.56605 0.176849 0
M  V30 29782 C 2910.15 -1.9666 -0.465758 0
M  V30 29783 C 2910.47 -1.06415 -1.63404 0
M  V30 29784 O 2909.74 -0.131637 -1.95457 0
M  V30 29785 H 2908.32 -0.726198 -0.175059 0
M  V30 29786 H 2910.98 -1.93167 0.259323 0
M  V30 29787 H 2910.08 -3.01078 -0.822085 0
M  V30 29788 N 2910.38 0.0968524 -1.57302 0
M  V30 29789 C 2911.6 0.818135 -1.90582 0
M  V30 29790 C 2912.03 1.71575 -0.770951 0
M  V30 29791 O 2911.39 1.79163 0.277557 0
M  V30 29792 C 2911.43 1.60893 -3.22716 0
M  V30 29793 O 2910.54 2.71773 -3.10182 0
M  V30 29794 H 2909.88 0.224871 -0.624763 0
M  V30 29795 H 2912.41 0.072604 -2.04471 0
M  V30 29796 H 2912.42 1.99352 -3.55981 0
M  V30 29797 H 2911.09 0.950156 -4.04901 0
M  V30 29798 H 2909.67 2.36355 -2.88428 0
M  V30 29799 N 2911.86 1.53252 0.36763 0
M  V30 29800 C 2913.1 1.71036 1.1192 0
M  V30 29801 C 2913.46 0.451463 1.86617 0
M  V30 29802 O 2914.66 0.505962 2.63995 0
M  V30 29803 C 2912.93 2.92442 2.05456 0
M  V30 29804 S 2914.49 3.30921 2.88161 0
M  V30 29805 H 2911.31 0.601855 0.378539 0
M  V30 29806 H 2913.91 1.91349 0.400724 0
M  V30 29807 H 2912.62 3.82264 1.49339 0
M  V30 29808 H 2912.15 2.74525 2.81779 0
M  V30 29809 H 2914.16 2.82774 4.07742 0
M  V30 29810 N 2913.34 -0.627313 1.44577 0
M  V30 29811 C 2914.56 -1.41884 1.51273 0
M  V30 29812 C 2914.99 -1.87579 0.139847 0
M  V30 29813 O 2914.34 -1.58968 -0.871718 0
M  V30 29814 C 2914.39 -2.61273 2.48534 0
M  V30 29815 O 2913.5 -3.61238 1.9895 0
M  V30 29816 H 2912.84 -0.42439 0.510676 0
M  V30 29817 H 2915.37 -0.765322 1.89747 0
M  V30 29818 H 2915.38 -3.08768 2.66695 0
M  V30 29819 H 2914.05 -2.2736 3.48253 0
M  V30 29820 H 2912.63 -3.20525 1.90574 0
M  V30 29821 N 2914.81 -1.31539 -0.868063 0
M  V30 29822 C 2916.04 -1.2412 -1.6516 0
M  V30 29823 C 2916.45 0.195525 -1.88187 0
M  V30 29824 O 2915.79 1.13863 -1.44156 0
M  V30 29825 C 2915.86 -1.91714 -3.04115 0
M  V30 29826 C 2915.52 -3.41055 -3.04188 0
M  V30 29827 C 2916.52 -4.36769 -2.82008 0
M  V30 29828 C 2914.2 -3.82777 -3.25249 0
M  V30 29829 C 2916.2 -5.7218 -2.80871 0
M  V30 29830 C 2913.88 -5.18301 -3.2374 0
M  V30 29831 C 2914.88 -6.12813 -3.01578 0
M  V30 29832 O 2914.57 -7.45858 -2.99917 0
M  V30 29833 H 2914.3 -0.430024 -0.521589 0
M  V30 29834 H 2916.86 -1.73991 -1.09162 0
M  V30 29835 H 2915.09 -1.36395 -3.61847 0
M  V30 29836 H 2916.77 -1.78185 -3.64698 0
M  V30 29837 H 2917.54 -4.05864 -2.65517 0
M  V30 29838 H 2913.42 -3.09644 -3.41529 0
M  V30 29839 H 2916.96 -6.45924 -2.63492 0
M  V30 29840 H 2912.86 -5.4884 -3.39771 0
M  V30 29841 H 2913.63 -7.55055 -3.15966 0
M  V30 29842 N 2916.29 1.08262 -1.1453 0
M  V30 29843 C 2917.54 1.80945 -0.915791 0
M  V30 29844 C 2917.87 1.86065 0.556197 0
M  V30 29845 O 2917.15 1.33759 1.41205 0
M  V30 29846 C 2917.43 3.26484 -1.51922 0
M  V30 29847 C 2917.28 3.29565 -3.06116 0
M  V30 29848 C 2918.6 4.235 -1.19732 0
M  V30 29849 H 2915.72 0.656909 -0.334124 0
M  V30 29850 H 2918.36 1.26743 -1.41549 0
M  V30 29851 H 2916.51 3.72771 -1.09427 0
M  V30 29852 H 2918.18 2.9159 -3.57453 0
M  V30 29853 H 2916.43 2.68794 -3.40488 0
M  V30 29854 H 2917.1 4.32145 -3.43445 0
M  V30 29855 H 2919.57 3.85558 -1.56474 0
M  V30 29856 H 2918.45 5.23644 -1.64584 0
M  V30 29857 H 2918.71 4.41956 -0.112849 0
M  V30 29858 N 2917.77 0.940655 1.26449 0
M  V30 29859 C 2918.7 0.467519 2.28772 0
M  V30 29860 C 2919.68 -0.478927 1.63219 0
M  V30 29861 O 2920.87 -0.380895 1.90428 0
M  V30 29862 C 2918 -0.268595 3.4626 0
M  V30 29863 C 2916.95 0.591246 4.23897 0
M  V30 29864 C 2916.28 -0.274797 5.33993 0
M  V30 29865 C 2917.58 1.86232 4.8797 0
M  V30 29866 H 2919.27 1.3227 2.68598 0
M  V30 29867 H 2916.82 0.637458 1.29122 0
M  V30 29868 H 2918.77 -0.610623 4.16952 0
M  V30 29869 H 2917.49 -1.15791 3.05385 0
M  V30 29870 H 2916.15 0.916161 3.54968 0
M  V30 29871 H 2915.8 -1.16345 4.8936 0
M  V30 29872 H 2915.5 0.297109 5.86848 0
M  V30 29873 H 2917.02 -0.612106 6.07524 0
M  V30 29874 H 2918.44 1.58757 5.5088 0
M  V30 29875 H 2916.83 2.37875 5.5094 0
M  V30 29876 H 2917.9 2.57402 4.10941 0
M  V30 29877 N 2919.25 -1.40821 0.707617 0
M  V30 29878 C 2920.49 -2.01028 0.243706 0
M  V30 29879 C 2920.82 -1.56082 -1.16054 0
M  V30 29880 O 2920.08 -0.768283 -1.79989 0
M  V30 29881 C 2920.38 -3.56431 0.262955 0
M  V30 29882 C 2920.04 -4.20932 1.61639 0
M  V30 29883 C 2918.7 -4.38265 1.9869 0
M  V30 29884 C 2921.06 -4.56985 2.50627 0
M  V30 29885 C 2918.38 -4.88931 3.24289 0
M  V30 29886 C 2920.74 -5.09048 3.7557 0
M  V30 29887 C 2919.4 -5.2459 4.12748 0
M  V30 29888 H 2918.67 -0.735614 0.0891783 0
M  V30 29889 H 2921.32 -1.68547 0.909081 0
M  V30 29890 H 2919.62 -3.88774 -0.485984 0
M  V30 29891 H 2921.32 -4.00839 -0.113704 0
M  V30 29892 H 2917.91 -4.07823 1.31826 0
M  V30 29893 H 2922.09 -4.43238 2.2328 0
M  V30 29894 H 2917.35 -4.99149 3.53072 0
M  V30 29895 H 2921.52 -5.35923 4.44701 0
M  V30 29896 H 2919.15 -5.63613 5.10142 0
M  V30 29897 N 2920.73 -0.453223 -1.50943 0
M  V30 29898 C 2921.66 0.386191 -2.25923 0
M  V30 29899 C 2922.67 0.972629 -1.30552 0
M  V30 29900 O 2923.86 0.864069 -1.56192 0
M  V30 29901 C 2920.96 1.55384 -3.01179 0
M  V30 29902 C 2920.13 1.08343 -4.2377 0
M  V30 29903 C 2919.19 2.12304 -4.8147 0
M  V30 29904 O 2918.22 1.71091 -5.42878 0
M  V30 29905 N 2919.42 3.44948 -4.66895 0
M  V30 29906 H 2922.18 -0.256521 -2.986 0
M  V30 29907 H 2919.75 -0.282993 -1.59408 0
M  V30 29908 H 2921.74 2.24588 -3.36663 0
M  V30 29909 H 2920.31 2.10159 -2.31413 0
M  V30 29910 H 2919.53 0.217892 -3.93597 0
M  V30 29911 H 2920.82 0.746769 -5.0329 0
M  V30 29912 H 2920.21 3.81153 -4.18018 0
M  V30 29913 H 2918.77 4.10001 -5.06698 0
M  V30 29914 N 2922.2 1.56509 -0.185151 0
M  V30 29915 C 2923.15 2.19955 0.756466 0
M  V30 29916 C 2924.15 1.16771 1.22723 0
M  V30 29917 O 2925.35 1.34939 1.19128 0
M  V30 29918 H 2921.73 0.704784 0.262267 0
M  V30 29919 H 2923.7 2.97745 0.197535 0
M  V30 29920 C 2922.45 2.86527 1.9697 0
M  V30 29921 H 2921.77 3.65662 1.61651 0
M  V30 29922 H 2923.21 3.34372 2.60713 0
M  V30 29923 C 2921.67 1.87032 2.80215 0
M  V30 29924 O 2922.2 1.36439 3.77819 0
M  V30 29925 N 2920.4 1.55481 2.45507 0
M  V30 29926 H 2919.95 1.96816 1.66196 0
M  V30 29927 H 2919.91 0.89165 3.01491 0
M  V30 29928 N 2923.68 -0.0885089 1.57351 0
M  V30 29929 C 2924.63 -1.1069 2.02525 0
M  V30 29930 C 2925.6 -1.39425 0.902761 0
M  V30 29931 O 2926.78 -1.50777 1.16923 0
M  V30 29932 C 2923.92 -2.42011 2.46017 0
M  V30 29933 C 2923.04 -2.1995 3.71814 0
M  V30 29934 C 2922.17 -3.44717 4.04158 0
M  V30 29935 C 2921.21 -3.17946 5.23045 0
M  V30 29936 N 2920.35 -4.34997 5.51109 0
M  V30 29937 H 2925.19 -0.714691 2.89303 0
M  V30 29938 H 2922.72 -0.341353 1.43085 0
M  V30 29939 H 2924.68 -3.1866 2.6928 0
M  V30 29940 H 2923.31 -2.79066 1.6224 0
M  V30 29941 H 2922.36 -1.34073 3.5599 0
M  V30 29942 H 2923.68 -1.96165 4.58607 0
M  V30 29943 H 2922.83 -4.2977 4.28232 0
M  V30 29944 H 2921.57 -3.71562 3.159 0
M  V30 29945 H 2920.57 -2.31288 4.98785 0
M  V30 29946 H 2921.8 -2.9244 6.12907 0
M  V30 29947 H 2919.75 -4.61906 4.6581 0
M  V30 29948 H 2919.66 -4.14426 6.32287 0
M  V30 29949 H 2920.93 -5.21096 5.79724 0
M  V30 29950 N 2925.16 -1.53445 -0.359498 0
M  V30 29951 C 2926.07 -1.83281 -1.46442 0
M  V30 29952 C 2927.09 -0.721656 -1.58329 0
M  V30 29953 O 2928.26 -1.01234 -1.74108 0
M  V30 29954 C 2925.33 -2.02195 -2.81634 0
M  V30 29955 C 2924.39 -3.26086 -2.79224 0
M  V30 29956 C 2923.62 -3.44089 -4.07968 0
M  V30 29957 O 2923.84 -2.6626 -5.04442 0
M  V30 29958 O 2922.78 -4.37466 -4.1341 0
M  V30 29959 H 2926.6 -2.77165 -1.24151 0
M  V30 29960 H 2924.19 -1.38901 -0.550176 0
M  V30 29961 H 2926.07 -2.16173 -3.61728 0
M  V30 29962 H 2924.75 -1.11501 -3.0389 0
M  V30 29963 H 2923.65 -3.17526 -1.97807 0
M  V30 29964 H 2924.99 -4.16722 -2.61922 0
M  V30 29965 N 2926.64 0.619637 -1.44908 0
M  V30 29966 C 2927.57 1.74455 -1.48655 0
M  V30 29967 C 2928.58 1.58336 -0.378623 0
M  V30 29968 O 2929.77 1.66439 -0.645016 0
M  V30 29969 C 2926.87 3.12316 -1.31574 0
M  V30 29970 C 2926.04 3.54787 -2.55822 0
M  V30 29971 C 2925.1 4.71568 -2.33473 0
M  V30 29972 O 2924.13 4.79296 -3.07024 0
M  V30 29973 N 2925.33 5.64038 -1.37264 0
M  V30 29974 H 2928.1 1.71707 -2.45635 0
M  V30 29975 H 2925.66 0.804558 -1.40494 0
M  V30 29976 H 2927.65 3.88179 -1.14452 0
M  V30 29977 H 2926.22 3.0964 -0.42915 0
M  V30 29978 H 2925.44 2.69013 -2.88142 0
M  V30 29979 H 2926.73 3.79918 -3.38438 0
M  V30 29980 H 2926.13 5.60498 -0.765407 0
M  V30 29981 H 2924.68 6.39482 -1.26117 0
M  V30 29982 N 2928.12 1.31997 0.861075 0
M  V30 29983 C 2929.39 1.12817 1.59786 0
M  V30 29984 C 2929.77 -0.313846 2.08754 0
M  V30 29985 O 2929.12 -1.30942 1.8726 0
M  V30 29986 C 2929.33 2.15017 2.74898 0
M  V30 29987 C 2930.68 2.4801 3.44639 0
M  V30 29988 O 2931.7 2.13513 2.85115 0
M  V30 29989 O 2930.56 3.07121 4.52039 0
M  V30 29990 H 2927.66 0.434921 0.703401 0
M  V30 29991 H 2930.2 1.43506 0.905763 0
M  V30 29992 H 2928.97 3.11976 2.36193 0
M  V30 29993 H 2928.6 1.85285 3.51788 0
M  V30 29994 N 2929.59 -1.07653 1.15103 0
M  V30 29995 C 2930.52 -2.16771 0.867902 0
M  V30 29996 C 2931.51 -1.69142 -0.180253 0
M  V30 29997 O 2932.69 -1.94168 -0.0352811 0
M  V30 29998 C 2929.82 -3.45501 0.35305 0
M  V30 29999 C 2928.77 -4.06564 1.33753 0
M  V30 30000 C 2928.1 -5.30337 0.681656 0
M  V30 30001 C 2929.4 -4.46949 2.70248 0
M  V30 30002 H 2931.09 -2.40713 1.78039 0
M  V30 30003 H 2928.64 -1.15688 0.857455 0
M  V30 30004 H 2930.59 -4.21159 0.142539 0
M  V30 30005 H 2929.32 -3.21136 -0.594888 0
M  V30 30006 H 2927.98 -3.32946 1.53435 0
M  V30 30007 H 2927.62 -5.02262 -0.272334 0
M  V30 30008 H 2927.32 -5.72149 1.33863 0
M  V30 30009 H 2928.85 -6.08704 0.480847 0
M  V30 30010 H 2930.26 -5.1375 2.54429 0
M  V30 30011 H 2928.66 -4.99703 3.32291 0
M  V30 30012 H 2929.73 -3.58465 3.26544 0
M  V30 30013 N 2931.07 -0.947348 -1.25949 0
M  V30 30014 C 2931.98 -0.46812 -2.29882 0
M  V30 30015 C 2933 0.460946 -1.67783 0
M  V30 30016 O 2934.17 0.338971 -1.98527 0
M  V30 30017 C 2931.24 0.253254 -3.45774 0
M  V30 30018 C 2930.3 -0.713129 -4.23336 0
M  V30 30019 C 2929.53 -0.0260868 -5.33694 0
M  V30 30020 O 2929.76 1.18968 -5.57856 0
M  V30 30021 O 2928.69 -0.707925 -5.97722 0
M  V30 30022 H 2932.52 -1.33161 -2.7295 0
M  V30 30023 H 2930.1 -0.713491 -1.31262 0
M  V30 30024 H 2931.98 0.65935 -4.1621 0
M  V30 30025 H 2930.66 1.09204 -3.04723 0
M  V30 30026 H 2929.57 -1.16929 -3.55357 0
M  V30 30027 H 2930.9 -1.51971 -4.68151 0
M  V30 30028 N 2932.55 1.40444 -0.715075 0
M  V30 30029 C 2933.8 2.01194 -0.25474 0
M  V30 30030 C 2934.13 1.56569 1.14891 0
M  V30 30031 O 2933.4 0.785522 1.77932 0
M  V30 30032 C 2933.69 3.58546 -0.334211 0
M  V30 30033 C 2933.54 4.13245 -1.7762 0
M  V30 30034 C 2934.86 4.39111 0.294891 0
M  V30 30035 H 2931.98 0.730976 -0.0940379 0
M  V30 30036 H 2934.62 1.66928 -0.907479 0
M  V30 30037 H 2932.77 3.87868 0.221541 0
M  V30 30038 H 2934.44 3.94722 -2.3873 0
M  V30 30039 H 2932.69 3.67552 -2.30408 0
M  V30 30040 H 2933.36 5.22404 -1.7832 0
M  V30 30041 H 2935.83 4.15716 -0.178636 0
M  V30 30042 H 2934.71 5.48503 0.208838 0
M  V30 30043 H 2934.97 4.20065 1.37834 0
M  V30 30044 N 2934.03 0.461222 1.507 0
M  V30 30045 C 2935.28 -0.0987923 2.01458 0
M  V30 30046 C 2935.59 -1.4167 1.34866 0
M  V30 30047 O 2936.8 -2.06108 1.76725 0
M  V30 30048 C 2935.25 -0.226585 3.59186 0
M  V30 30049 C 2934.86 1.08231 4.3473 0
M  V30 30050 C 2936.6 -0.739087 4.18016 0
M  V30 30051 C 2934.51 0.91885 5.84218 0
M  V30 30052 H 2933.44 -0.0406958 0.752901 0
M  V30 30053 H 2936.09 0.59462 1.73599 0
M  V30 30054 H 2934.47 -0.983554 3.83591 0
M  V30 30055 H 2935.65 1.84946 4.22056 0
M  V30 30056 H 2933.96 1.52516 3.87463 0
M  V30 30057 H 2936.56 -0.878254 5.27438 0
M  V30 30058 H 2936.9 -1.72786 3.78749 0
M  V30 30059 H 2937.44 -0.039777 3.9778 0
M  V30 30060 H 2934.18 1.8807 6.27941 0
M  V30 30061 H 2933.7 0.191907 5.99493 0
M  V30 30062 H 2935.37 0.581518 6.44381 0
M  V30 30063 N 2935.51 -1.56408 0.193449 0
M  V30 30064 C 2936.44 -2.22015 -0.723295 0
M  V30 30065 C 2937.42 -1.18272 -1.22252 0
M  V30 30066 O 2938.6 -1.46774 -1.27166 0
M  V30 30067 C 2935.73 -2.87822 -1.94361 0
M  V30 30068 C 2934.69 -3.97794 -1.57936 0
M  V30 30069 C 2934.01 -4.50757 -2.87615 0
M  V30 30070 C 2935.31 -5.16282 -0.790549 0
M  V30 30071 H 2937.01 -2.9888 -0.176373 0
M  V30 30072 H 2934.55 -1.43758 -0.0833914 0
M  V30 30073 H 2936.51 -3.324 -2.59014 0
M  V30 30074 H 2935.23 -2.08359 -2.51503 0
M  V30 30075 H 2933.89 -3.53904 -0.956419 0
M  V30 30076 H 2933.54 -3.68059 -3.42843 0
M  V30 30077 H 2933.24 -5.24961 -2.63988 0
M  V30 30078 H 2934.76 -4.98036 -3.53259 0
M  V30 30079 H 2936.17 -5.57416 -1.34015 0
M  V30 30080 H 2934.57 -5.96542 -0.652475 0
M  V30 30081 H 2935.64 -4.84451 0.208718 0
M  V30 30082 N 2936.98 0.0801629 -1.57396 0
M  V30 30083 C 2937.93 1.10286 -1.99552 0
M  V30 30084 C 2938.92 1.34946 -0.876258 0
M  V30 30085 O 2940.11 1.35387 -1.14014 0
M  V30 30086 C 2937.24 2.41896 -2.43601 0
M  V30 30087 C 2936.33 2.20545 -3.62244 0
M  V30 30088 N 2936.72 1.69101 -4.76696 0
M  V30 30089 C 2935.01 2.51052 -3.68631 0
M  V30 30090 C 2935.72 1.62369 -5.5858 0
M  V30 30091 N 2934.69 2.08121 -5.02182 0
M  V30 30092 H 2938.49 0.698285 -2.85484 0
M  V30 30093 H 2936.01 0.287367 -1.59837 0
M  V30 30094 H 2938 3.15914 -2.72037 0
M  V30 30095 H 2936.66 2.83077 -1.59052 0
M  V30 30096 H 2937.68 1.38084 -4.99153 0
M  V30 30097 H 2934.35 2.95656 -2.94777 0
M  V30 30098 H 2935.74 1.23519 -6.60449 0
M  V30 30099 N 2938.46 1.53634 0.351355 0
M  V30 30100 C 2939.41 1.81762 1.45139 0
M  V30 30101 C 2940.4 0.687598 1.54817 0
M  V30 30102 O 2941.61 0.8708 1.57534 0
M  V30 30103 H 2937.99 0.575728 0.483779 0
M  V30 30104 H 2939.96 2.73808 1.18625 0
M  V30 30105 C 2938.71 2.03711 2.81775 0
M  V30 30106 H 2938.03 2.90111 2.75092 0
M  V30 30107 H 2939.47 2.27362 3.57886 0
M  V30 30108 C 2937.93 0.820329 3.2676 0
M  V30 30109 O 2938.46 0.0159309 4.01697 0
M  V30 30110 N 2936.66 0.639749 2.83471 0
M  V30 30111 H 2936.21 1.2955 2.22653 0
M  V30 30112 H 2936.17 -0.17294 3.13924 0
M  V30 30113 N 2939.94 -0.611943 1.45234 0
M  V30 30114 C 2941.19 -1.36836 1.48729 0
M  V30 30115 C 2941.51 -1.94575 0.12865 0
M  V30 30116 O 2940.78 -1.76908 -0.841459 0
M  V30 30117 H 2939.36 -0.507966 0.547704 0
M  V30 30118 H 2942.02 -0.718893 1.81157 0
M  V30 30119 H 2941.12 -2.18999 2.22364 0
M  V30 30120 N 2941.42 -1.32452 -0.854063 0
M  V30 30121 C 2942.38 -1.21375 -1.94424 0
M  V30 30122 C 2943.38 -0.136641 -1.60218 0
M  V30 30123 O 2944.57 -0.387086 -1.69845 0
M  V30 30124 C 2941.7 -0.866759 -3.29697 0
M  V30 30125 H 2942.9 -2.18261 -2.05675 0
M  V30 30126 H 2940.45 -1.16292 -1.04432 0
M  V30 30127 H 2941.18 0.100262 -3.24145 0
M  V30 30128 H 2940.97 -1.64551 -3.55901 0
M  V30 30129 H 2942.46 -0.813587 -4.09598 0
M  V30 30130 N 2942.9 1.07041 -1.15672 0
M  V30 30131 C 2944.14 1.81289 -0.944121 0
M  V30 30132 C 2944.5 1.84845 0.519273 0
M  V30 30133 O 2945.7 2.54996 0.850312 0
M  V30 30134 C 2943.97 3.22264 -1.54534 0
M  V30 30135 S 2945.53 4.1322 -1.4763 0
M  V30 30136 H 2942.35 0.624596 -0.339707 0
M  V30 30137 H 2944.95 1.28566 -1.47279 0
M  V30 30138 H 2943.66 3.17267 -2.60327 0
M  V30 30139 H 2943.19 3.80063 -1.01567 0
M  V30 30140 H 2945.2 4.93956 -0.471347 0
M  V30 30141 N 2944.38 0.954014 1.25445 0
M  V30 30142 C 2945.6 0.625164 1.97754 0
M  V30 30143 C 2946.03 -0.795757 1.70439 0
M  V30 30144 O 2945.38 -1.53801 0.959947 0
M  V30 30145 C 2945.43 0.889313 3.49462 0
M  V30 30146 O 2944.54 -0.0322032 4.12387 0
M  V30 30147 H 2943.88 0.237753 0.619975 0
M  V30 30148 H 2946.41 1.28044 1.5958 0
M  V30 30149 H 2946.42 0.815333 3.9977 0
M  V30 30150 H 2945.09 1.92493 3.68672 0
M  V30 30151 H 2943.67 0.093928 3.72782 0
M  V30 30152 N 2945.85 -1.40063 0.722513 0
M  V30 30153 C 2947.26 -1.83642 0.336539 0
M  V30 30154 C 2947.62 -1.60392 -1.12999 0
M  V30 30155 O 2946.74 -1.08845 -1.87034 0
M  V30 30156 C 2947.34 -3.33372 0.604044 0
M  V30 30157 C 2945.89 -3.75418 0.271703 0
M  V30 30158 C 2945.04 -2.63201 0.872945 0
M  V30 30159 H 2947.99 -1.29232 0.921131 0
M  V30 30160 H 2948.01 -3.80283 -0.128404 0
M  V30 30161 H 2947.53 -3.50262 1.67147 0
M  V30 30162 H 2945.63 -3.6412 -0.790391 0
M  V30 30163 H 2945.74 -4.73264 0.74554 0
M  V30 30164 H 2944.1 -2.52921 0.300475 0
M  V30 30165 H 2944.89 -2.82901 1.94478 0
M  V30 30166 N 2947.33 -0.469207 -1.50453 0
M  V30 30167 C 2948.58 0.0862627 -2.01916 0
M  V30 30168 C 2948.9 1.40386 -1.3534 0
M  V30 30169 O 2948.17 1.89461 -0.498129 0
M  V30 30170 H 2946.75 0.0348693 -0.746186 0
M  V30 30171 H 2949.41 -0.619199 -1.84802 0
M  V30 30172 H 2948.51 0.239134 -3.11183 0
M  V30 30173 N 2948.81 1.56303 -0.201741 0
M  V30 30174 C 2949.77 2.1816 0.702773 0
M  V30 30175 C 2950.77 1.13789 1.13617 0
M  V30 30176 O 2951.96 1.39136 1.04818 0
M  V30 30177 C 2949.09 2.78902 1.96027 0
M  V30 30178 H 2950.29 2.99452 0.163783 0
M  V30 30179 H 2947.84 1.56227 0.0478825 0
M  V30 30180 H 2948.58 2.01426 2.54162 0
M  V30 30181 H 2948.36 3.55312 1.65818 0
M  V30 30182 H 2949.85 3.26378 2.60513 0
M  V30 30183 N 2950.29 -0.0718147 1.57436 0
M  V30 30184 C 2951.7 -0.426601 1.53793 0
M  V30 30185 C 2951.9 -1.79173 0.921918 0
M  V30 30186 O 2950.96 -2.46994 0.524417 0
M  V30 30187 C 2952.27 -0.367686 2.98444 0
M  V30 30188 C 2953.82 -0.447874 3.09779 0
M  V30 30189 C 2954.3 -0.418866 4.56081 0
M  V30 30190 N 2955.79 -0.478941 4.60717 0
M  V30 30191 C 2956.52 -0.47871 5.71398 0
M  V30 30192 N 2956.02 -0.433295 6.91444 0
M  V30 30193 N 2957.81 -0.525265 5.5964 0
M  V30 30194 H 2949.96 0.822068 1.95846 0
M  V30 30195 H 2952.22 0.308463 0.896412 0
M  V30 30196 H 2951.93 0.568711 3.47071 0
M  V30 30197 H 2951.8 -1.17789 3.58337 0
M  V30 30198 H 2954.19 -1.37469 2.61125 0
M  V30 30199 H 2954.27 0.390902 2.52796 0
M  V30 30200 H 2953.92 0.504105 5.05392 0
M  V30 30201 H 2953.85 -1.27517 5.10927 0
M  V30 30202 H 2956.34 -0.518289 3.74329 0
M  V30 30203 H 2956.65 -0.437044 7.71563 0
M  V30 30204 H 2955 -0.399984 6.93848 0
M  V30 30205 H 2958.19 -0.558437 4.64757 0
M  V30 30206 H 2958.36 -0.521616 6.45897 0
M  V30 30207 N 2951.77 -1.53818 -0.343203 0
M  V30 30208 C 2952.7 -1.78144 -1.44213 0
M  V30 30209 C 2953.71 -0.662747 -1.48699 0
M  V30 30210 O 2954.9 -0.939485 -1.51776 0
M  V30 30211 C 2952 -1.86651 -2.82869 0
M  V30 30212 C 2951.17 -3.16583 -3.01818 0
M  V30 30213 C 2950.23 -3.16043 -4.20717 0
M  V30 30214 O 2949.26 -3.89763 -4.14817 0
M  V30 30215 N 2950.46 -2.38436 -5.29271 0
M  V30 30216 H 2953.22 -2.72973 -1.23716 0
M  V30 30217 H 2950.79 -1.52872 -0.533083 0
M  V30 30218 H 2952.78 -1.83741 -3.60585 0
M  V30 30219 H 2951.35 -0.990066 -2.96507 0
M  V30 30220 H 2950.57 -3.32614 -2.11569 0
M  V30 30221 H 2951.86 -4.02407 -3.11362 0
M  V30 30222 H 2951.25 -1.78095 -5.36935 0
M  V30 30223 H 2949.81 -2.41324 -6.0548 0
M  V30 30224 N 2953.24 0.604233 -1.45557 0
M  V30 30225 C 2954.49 1.36045 -1.49453 0
M  V30 30226 C 2954.81 1.94504 -0.138967 0
M  V30 30227 O 2954.08 1.77351 0.832065 0
M  V30 30228 H 2952.66 0.505055 -0.55039 0
M  V30 30229 H 2955.32 0.709276 -1.81536 0
M  V30 30230 H 2954.42 2.17817 -2.23522 0
M  V30 30231 N 2954.72 1.32903 0.847027 0
M  V30 30232 C 2955.96 1.25221 1.61552 0
M  V30 30233 C 2956.33 -0.181396 1.91141 0
M  V30 30234 O 2957.53 -0.382059 2.66071 0
M  V30 30235 C 2955.8 2.09514 2.89549 0
M  V30 30236 S 2957.36 2.18937 3.80279 0
M  V30 30237 H 2954.17 0.445623 0.554023 0
M  V30 30238 H 2956.78 1.67841 1.00248 0
M  V30 30239 H 2955.48 3.12721 2.6577 0
M  V30 30240 H 2955.01 1.677 3.55865 0
M  V30 30241 H 2957.03 1.34446 4.77639 0
M  V30 30242 N 2956.2 -1.06426 1.16238 0
M  V30 30243 C 2957.13 -2.13294 0.811228 0
M  V30 30244 C 2958.11 -1.61152 -0.216526 0
M  V30 30245 O 2959.29 -1.8823 -0.100916 0
M  V30 30246 C 2956.42 -3.38061 0.20796 0
M  V30 30247 C 2955.47 -4.09002 1.20911 0
M  V30 30248 S 2956.3 -4.59182 2.75521 0
M  V30 30249 C 2957.46 -5.87212 2.1664 0
M  V30 30250 H 2957.69 -2.42752 1.71636 0
M  V30 30251 H 2955.22 -1.1884 0.985714 0
M  V30 30252 H 2957.18 -4.10282 -0.133643 0
M  V30 30253 H 2955.84 -3.06763 -0.674916 0
M  V30 30254 H 2955.03 -4.98606 0.735413 0
M  V30 30255 H 2954.64 -3.42788 1.49573 0
M  V30 30256 H 2956.93 -6.59899 1.53424 0
M  V30 30257 H 2957.87 -6.3931 3.04448 0
M  V30 30258 H 2958.28 -5.4118 1.60575 0
M  V30 30259 N 2957.68 -0.960653 -1.24937 0
M  V30 30260 C 2958.63 -0.484498 -2.25657 0
M  V30 30261 C 2959.6 0.466214 -1.59423 0
M  V30 30262 O 2960.78 0.378136 -1.87015 0
M  V30 30263 C 2957.92 0.225898 -3.4436 0
M  V30 30264 C 2957.03 -0.762756 -4.25213 0
M  V30 30265 C 2956.17 -0.0291865 -5.31192 0
M  V30 30266 C 2955.21 -1.00837 -6.03737 0
M  V30 30267 N 2954.34 -0.305278 -7.01436 0
M  V30 30268 H 2959.18 -1.34826 -2.65756 0
M  V30 30269 H 2956.72 -0.676006 -1.30647 0
M  V30 30270 H 2958.68 0.6544 -4.12036 0
M  V30 30271 H 2957.31 1.05366 -3.05119 0
M  V30 30272 H 2956.36 -1.30972 -3.57142 0
M  V30 30273 H 2957.67 -1.50973 -4.75404 0
M  V30 30274 H 2956.83 0.457657 -6.04971 0
M  V30 30275 H 2955.57 0.750529 -4.8189 0
M  V30 30276 H 2954.57 -1.50616 -5.28767 0
M  V30 30277 H 2955.8 -1.78842 -6.55128 0
M  V30 30278 H 2953.74 0.455589 -6.54416 0
M  V30 30279 H 2953.66 -0.991236 -7.49473 0
M  V30 30280 H 2954.93 0.159829 -7.79336 0
M  V30 30281 N 2959.16 1.39677 -0.729931 0
M  V30 30282 C 2960.38 2.05441 -0.284382 0
M  V30 30283 C 2960.81 1.54665 1.07054 0
M  V30 30284 O 2960.16 0.688187 1.67731 0
M  V30 30285 C 2960.21 3.59431 -0.290152 0
M  V30 30286 O 2959.32 4.05997 0.723906 0
M  V30 30287 H 2958.66 0.651085 -0.130322 0
M  V30 30288 H 2961.19 1.78808 -0.994434 0
M  V30 30289 H 2961.2 4.07784 -0.132784 0
M  V30 30290 H 2959.87 3.95751 -1.27884 0
M  V30 30291 H 2958.45 3.6907 0.533089 0
M  V30 30292 N 2960.63 0.47718 1.50202 0
M  V30 30293 C 2961.88 -0.0774194 2.01551 0
M  V30 30294 C 2962.2 -1.40232 1.36361 0
M  V30 30295 O 2963.4 -2.04222 1.78901 0
M  V30 30296 C 2961.86 -0.188476 3.59406 0
M  V30 30297 C 2961.47 1.12836 4.33558 0
M  V30 30298 C 2963.21 -0.694709 4.18777 0
M  V30 30299 C 2961.12 0.980762 5.83211 0
M  V30 30300 H 2960.05 -0.032708 0.75329 0
M  V30 30301 H 2962.7 0.612999 1.72958 0
M  V30 30302 H 2961.08 -0.942814 3.84613 0
M  V30 30303 H 2962.25 1.89412 4.20071 0
M  V30 30304 H 2960.57 1.56617 3.85824 0
M  V30 30305 H 2963.17 -0.822263 5.2834 0
M  V30 30306 H 2963.51 -1.68759 3.8056 0
M  V30 30307 H 2964.04 0.00241512 3.978 0
M  V30 30308 H 2960.78 1.9472 6.25911 0
M  V30 30309 H 2960.3 0.25548 5.99256 0
M  V30 30310 H 2961.98 0.649831 6.43728 0
M  V30 30311 N 2962.11 -1.56194 0.210027 0
M  V30 30312 C 2963.02 -2.23393 -0.716419 0
M  V30 30313 C 2964.04 -1.2378 -1.22289 0
M  V30 30314 O 2965.21 -1.56561 -1.26692 0
M  V30 30315 C 2962.28 -2.89175 -1.91256 0
M  V30 30316 C 2961.34 -4.041 -1.4492 0
M  V30 30317 C 2960.57 -4.66735 -2.58832 0
M  V30 30318 O 2960.8 -4.28327 -3.76686 0
M  V30 30319 O 2959.73 -5.55936 -2.30692 0
M  V30 30320 H 2963.56 -3.03201 -0.174036 0
M  V30 30321 H 2961.14 -1.49387 -0.0199242 0
M  V30 30322 H 2963.02 -3.30737 -2.61134 0
M  V30 30323 H 2961.7 -2.12336 -2.44326 0
M  V30 30324 H 2960.61 -3.6713 -0.718775 0
M  V30 30325 H 2961.94 -4.82648 -0.964999 0
M  V30 30326 N 2963.59 0.0634645 -1.57472 0
M  V30 30327 C 2964.84 0.762161 -1.87933 0
M  V30 30328 C 2965.17 1.76802 -0.803408 0
M  V30 30329 O 2964.44 1.93614 0.185434 0
M  V30 30330 C 2964.73 1.46269 -3.29055 0
M  V30 30331 C 2964.58 0.472676 -4.4731 0
M  V30 30332 C 2965.9 2.40552 -3.68541 0
M  V30 30333 H 2963.02 0.275612 -0.683525 0
M  V30 30334 H 2965.66 0.0252317 -1.89983 0
M  V30 30335 H 2963.81 2.09084 -3.27439 0
M  V30 30336 H 2965.48 -0.150909 -4.61053 0
M  V30 30337 H 2963.73 -0.211263 -4.33285 0
M  V30 30338 H 2964.4 1.00062 -5.42855 0
M  V30 30339 H 2966.87 1.87808 -3.71305 0
M  V30 30340 H 2965.75 2.86566 -4.68157 0
M  V30 30341 H 2966.01 3.25726 -2.98923 0
M  V30 30342 N 2965.07 1.53998 0.33504 0
M  V30 30343 C 2966.02 1.82581 1.41183 0
M  V30 30344 C 2966.99 0.672088 1.51895 0
M  V30 30345 O 2968.17 0.917376 1.67299 0
M  V30 30346 C 2965.31 2.04865 2.77713 0
M  V30 30347 C 2964.42 3.32566 2.75724 0
M  V30 30348 C 2963.56 3.44871 4.04026 0
M  V30 30349 C 2962.6 4.6649 3.963 0
M  V30 30350 N 2961.73 4.75783 5.16309 0
M  V30 30351 H 2966.57 2.7445 1.16108 0
M  V30 30352 H 2964.11 1.35929 0.562281 0
M  V30 30353 H 2966.07 2.15775 3.57068 0
M  V30 30354 H 2964.7 1.163 3.01122 0
M  V30 30355 H 2963.75 3.30454 1.88427 0
M  V30 30356 H 2965.06 4.22021 2.65895 0
M  V30 30357 H 2964.22 3.5526 4.91808 0
M  V30 30358 H 2962.96 2.53488 4.16648 0
M  V30 30359 H 2961.96 4.5617 3.06903 0
M  V30 30360 H 2963.19 5.59246 3.85254 0
M  V30 30361 H 2961.13 3.87312 5.29458 0
M  V30 30362 H 2961.05 5.59187 5.08769 0
M  V30 30363 H 2962.32 4.90491 6.05837 0
M  V30 30364 N 2966.55 -0.596505 1.45875 0
M  V30 30365 C 2967.5 -1.70108 1.51813 0
M  V30 30366 C 2968.48 -1.56341 0.38032 0
M  V30 30367 O 2969.67 -1.65489 0.627878 0
M  V30 30368 C 2966.8 -3.0888 1.49827 0
M  V30 30369 C 2965.89 -3.27994 2.68851 0
M  V30 30370 N 2966.28 -3.17322 3.93878 0
M  V30 30371 C 2964.58 -3.58896 2.64783 0
M  V30 30372 C 2965.28 -3.38067 4.73376 0
M  V30 30373 N 2964.25 -3.62578 4.05016 0
M  V30 30374 H 2968.06 -1.60367 2.46292 0
M  V30 30375 H 2965.57 -0.800113 1.41322 0
M  V30 30376 H 2967.57 -3.88138 1.52167 0
M  V30 30377 H 2966.23 -3.19762 0.564142 0
M  V30 30378 H 2967.24 -2.95485 4.25334 0
M  V30 30379 H 2963.91 -3.76547 1.8033 0
M  V30 30380 H 2965.3 -3.35117 5.82363 0
M  V30 30381 N 2968.02 -1.3335 -0.839967 0
M  V30 30382 C 2969.25 -1.27927 -1.63247 0
M  V30 30383 C 2969.67 0.14716 -1.87523 0
M  V30 30384 O 2969.03 1.10342 -1.43855 0
M  V30 30385 C 2969.08 -2.05891 -2.96042 0
M  V30 30386 O 2968.18 -1.41676 -3.873 0
M  V30 30387 H 2967.53 -0.440165 -0.497142 0
M  V30 30388 H 2970.06 -1.75895 -1.04509 0
M  V30 30389 H 2970.07 -2.16615 -3.45748 0
M  V30 30390 H 2968.74 -3.0961 -2.77695 0
M  V30 30391 H 2967.32 -1.39591 -3.45787 0
M  V30 30392 N 2969.5 1.05808 -1.16801 0
M  V30 30393 C 2970.47 2.11574 -0.881433 0
M  V30 30394 C 2971.47 1.60308 0.125711 0
M  V30 30395 O 2972.66 1.73879 -0.105746 0
M  V30 30396 C 2969.79 3.39403 -0.319097 0
M  V30 30397 H 2970.98 2.38429 -1.81911 0
M  V30 30398 H 2968.53 1.21952 -0.977619 0
M  V30 30399 H 2969.27 3.182 0.626026 0
M  V30 30400 H 2969.05 3.77922 -1.04488 0
M  V30 30401 H 2970.54 4.17376 -0.136704 0
M  V30 30402 N 2970.98 0.967265 1.24426 0
M  V30 30403 C 2971.91 0.515939 2.27729 0
M  V30 30404 C 2972.89 -0.444198 1.64198 0
M  V30 30405 O 2974.08 -0.340417 1.91193 0
M  V30 30406 C 2971.21 -0.195088 3.46752 0
M  V30 30407 C 2970.16 0.681027 4.22547 0
M  V30 30408 C 2969.49 -0.161467 5.34456 0
M  V30 30409 C 2970.79 1.96541 4.8391 0
M  V30 30410 H 2972.48 1.37937 2.65732 0
M  V30 30411 H 2970.03 0.664704 1.27741 0
M  V30 30412 H 2971.98 -0.522044 4.18154 0
M  V30 30413 H 2970.7 -1.09287 3.07773 0
M  V30 30414 H 2969.36 0.991248 3.52945 0
M  V30 30415 H 2969.01 -1.05938 4.91717 0
M  V30 30416 H 2968.71 0.421521 5.86086 0
M  V30 30417 H 2970.23 -0.483104 6.08686 0
M  V30 30418 H 2971.65 1.70406 5.47389 0
M  V30 30419 H 2970.05 2.49508 5.45771 0
M  V30 30420 H 2971.12 2.6606 4.05389 0
M  V30 30421 N 2972.46 -1.39288 0.737328 0
M  V30 30422 C 2973.68 -2.05287 0.295273 0
M  V30 30423 C 2974.11 -1.5523 -1.06232 0
M  V30 30424 O 2973.47 -0.697072 -1.67364 0
M  V30 30425 C 2973.52 -3.59272 0.30921 0
M  V30 30426 O 2972.62 -4.06375 -0.702365 0
M  V30 30427 H 2971.96 -0.650385 0.133773 0
M  V30 30428 H 2974.49 -1.78278 1.0039 0
M  V30 30429 H 2974.5 -4.07708 0.154408 0
M  V30 30430 H 2973.18 -3.95067 1.29981 0
M  V30 30431 H 2971.75 -3.69347 -0.513509 0
M  V30 30432 N 2973.94 -0.485139 -1.49947 0
M  V30 30433 C 2975.18 0.0650666 -2.02696 0
M  V30 30434 C 2975.52 1.38099 -1.36536 0
M  V30 30435 O 2974.79 1.88077 -0.49571 0
M  V30 30436 C 2975.07 0.234222 -3.59337 0
M  V30 30437 C 2974.93 -1.10371 -4.36048 0
M  V30 30438 C 2976.25 0.982276 -4.28998 0
M  V30 30439 H 2973.37 0.0221727 -0.736666 0
M  V30 30440 H 2976.01 -0.633465 -1.79129 0
M  V30 30441 H 2974.16 0.829195 -3.79548 0
M  V30 30442 H 2975.83 -1.73635 -4.27374 0
M  V30 30443 H 2974.07 -1.69693 -3.99233 0
M  V30 30444 H 2974.74 -0.938839 -5.43958 0
M  V30 30445 H 2977.22 0.477831 -4.13347 0
M  V30 30446 H 2976.1 1.06945 -5.38381 0
M  V30 30447 H 2976.36 2.02225 -3.93138 0
M  V30 30448 N 2975.42 1.56081 -0.218307 0
M  V30 30449 C 2976.33 2.2377 0.704562 0
M  V30 30450 C 2977.34 1.24427 1.2163 0
M  V30 30451 O 2978.52 1.5723 1.2586 0
M  V30 30452 C 2975.58 2.90185 1.89719 0
M  V30 30453 C 2974.64 4.04863 1.42775 0
M  V30 30454 C 2973.88 4.68101 2.56353 0
M  V30 30455 O 2974.1 4.30319 3.74409 0
M  V30 30456 O 2973.03 5.57152 2.2774 0
M  V30 30457 H 2976.86 3.03289 0.157954 0
M  V30 30458 H 2974.44 1.49395 0.0120016 0
M  V30 30459 H 2976.33 3.32117 2.59376 0
M  V30 30460 H 2975 2.13628 2.43197 0
M  V30 30461 H 2973.91 3.67506 0.699295 0
M  V30 30462 H 2975.24 4.83152 0.939389 0
M  V30 30463 N 2976.89 -0.0551124 1.57504 0
M  V30 30464 C 2977.82 -1.06368 2.07865 0
M  V30 30465 C 2978.8 -1.39342 0.97559 0
M  V30 30466 O 2979.99 -1.4868 1.24932 0
M  V30 30467 C 2977.12 -2.37235 2.53647 0
M  V30 30468 C 2976.07 -2.18572 3.67982 0
M  V30 30469 C 2975.4 -3.54969 3.99876 0
M  V30 30470 C 2976.7 -1.59321 4.97407 0
M  V30 30471 H 2978.39 -0.644544 2.9238 0
M  V30 30472 H 2975.94 -0.308595 1.40655 0
M  V30 30473 H 2977.89 -3.08098 2.87495 0
M  V30 30474 H 2976.62 -2.8116 1.66182 0
M  V30 30475 H 2975.28 -1.50146 3.34442 0
M  V30 30476 H 2974.92 -3.96495 3.09517 0
M  V30 30477 H 2974.62 -3.43315 4.76873 0
M  V30 30478 H 2976.15 -4.27237 4.36235 0
M  V30 30479 H 2977.56 -2.20069 5.29379 0
M  V30 30480 H 2975.96 -1.58316 5.7884 0
M  V30 30481 H 2977.03 -0.556296 4.81698 0
M  V30 30482 N 2978.37 -1.54173 -0.326869 0
M  V30 30483 C 2979.32 -1.79709 -1.40316 0
M  V30 30484 C 2980.31 -0.652964 -1.47055 0
M  V30 30485 O 2981.5 -0.912867 -1.51643 0
M  V30 30486 C 2978.63 -2.02496 -2.77219 0
M  V30 30487 C 2977.71 -3.23021 -2.74806 0
M  V30 30488 N 2978.1 -4.44143 -2.42014 0
M  V30 30489 C 2976.4 -3.24528 -3.05938 0
M  V30 30490 C 2977.1 -5.26066 -2.48253 0
M  V30 30491 N 2976.08 -4.63171 -2.84559 0
M  V30 30492 H 2979.88 -2.70937 -1.13887 0
M  V30 30493 H 2977.39 -1.53323 -0.535333 0
M  V30 30494 H 2979.39 -2.18929 -3.54789 0
M  V30 30495 H 2978.05 -1.1252 -3.04581 0
M  V30 30496 H 2979.06 -4.71201 -2.14918 0
M  V30 30497 H 2975.74 -2.44575 -3.38363 0
M  V30 30498 H 2977.13 -6.3278 -2.25919 0
M  V30 30499 N 2979.85 0.58876 -1.4619 0
M  V30 30500 C 2981.07 1.37823 -1.54982 0
M  V30 30501 C 2981.5 1.87143 -0.189531 0
M  V30 30502 O 2980.86 1.61223 0.829264 0
M  V30 30503 C 2980.91 2.54591 -2.55374 0
M  V30 30504 O 2980.01 3.55836 -2.08458 0
M  V30 30505 H 2979.35 0.410701 -0.521748 0
M  V30 30506 H 2981.88 0.714745 -1.9171 0
M  V30 30507 H 2981.89 3.01589 -2.74788 0
M  V30 30508 H 2980.57 2.18046 -3.54159 0
M  V30 30509 H 2979.14 3.15359 -1.99005 0
M  V30 30510 N 2981.33 1.33794 0.832883 0
M  V30 30511 C 2982.6 1.16181 1.57357 0
M  V30 30512 C 2982.98 -0.269495 2.09373 0
M  V30 30513 O 2982.33 -1.26941 1.89995 0
M  V30 30514 C 2982.54 2.208 2.70275 0
M  V30 30515 C 2983.89 2.55265 3.39301 0
M  V30 30516 O 2984.91 2.19513 2.80522 0
M  V30 30517 O 2983.77 3.1664 4.45422 0
M  V30 30518 H 2980.87 0.449743 0.694017 0
M  V30 30519 H 2983.41 1.45395 0.875119 0
M  V30 30520 H 2982.19 3.16915 2.29522 0
M  V30 30521 H 2981.81 1.92706 3.47779 0
M  V30 30522 N 2982.81 -1.05187 1.1736 0
M  V30 30523 C 2983.74 -2.12422 0.833805 0
M  V30 30524 C 2984.72 -1.61372 -0.199422 0
M  V30 30525 O 2985.9 -1.88326 -0.0809459 0
M  V30 30526 C 2983.03 -3.37821 0.243804 0
M  V30 30527 C 2982.07 -4.07697 1.25242 0
M  V30 30528 S 2982.91 -4.56234 2.80376 0
M  V30 30529 C 2984.06 -5.84881 2.22856 0
M  V30 30530 H 2984.3 -2.40917 1.74201 0
M  V30 30531 H 2981.83 -1.17788 0.998263 0
M  V30 30532 H 2983.79 -4.10401 -0.0901194 0
M  V30 30533 H 2982.45 -3.07462 -0.642342 0
M  V30 30534 H 2981.64 -4.97798 0.788256 0
M  V30 30535 H 2981.24 -3.41183 1.532 0
M  V30 30536 H 2983.53 -6.58235 1.60415 0
M  V30 30537 H 2984.48 -6.36045 3.11212 0
M  V30 30538 H 2984.89 -5.39447 1.66306 0
M  V30 30539 N 2984.28 -0.97385 -1.23911 0
M  V30 30540 C 2985.19 -0.516776 -2.28837 0
M  V30 30541 C 2986.21 0.425253 -1.68723 0
M  V30 30542 O 2987.39 0.296784 -1.99201 0
M  V30 30543 C 2984.45 0.179853 -3.46233 0
M  V30 30544 C 2983.51 -0.802764 -4.21728 0
M  V30 30545 C 2982.74 -0.139285 -5.33518 0
M  V30 30546 O 2982.97 1.07108 -5.60253 0
M  V30 30547 O 2981.9 -0.834552 -5.96086 0
M  V30 30548 H 2985.73 -1.38921 -2.70064 0
M  V30 30549 H 2983.31 -0.741173 -1.29719 0
M  V30 30550 H 2985.19 0.570917 -4.17515 0
M  V30 30551 H 2983.87 1.02716 -3.06971 0
M  V30 30552 H 2982.78 -1.2444 -3.52797 0
M  V30 30553 H 2984.11 -1.61867 -4.64822 0
M  V30 30554 N 2985.76 1.38895 -0.744705 0
M  V30 30555 C 2987.01 2.00608 -0.297359 0
M  V30 30556 C 2987.34 1.5897 1.11544 0
M  V30 30557 O 2986.62 0.823088 1.76226 0
M  V30 30558 C 2986.9 3.57756 -0.410188 0
M  V30 30559 C 2986.75 4.09384 -1.86345 0
M  V30 30560 C 2988.07 4.39638 0.201683 0
M  V30 30561 H 2985.19 0.728817 -0.109522 0
M  V30 30562 H 2987.83 1.64965 -0.942682 0
M  V30 30563 H 2985.98 3.8825 0.139219 0
M  V30 30564 H 2987.65 3.8957 -2.47049 0
M  V30 30565 H 2985.9 3.62582 -2.38153 0
M  V30 30566 H 2986.57 5.18504 -1.89361 0
M  V30 30567 H 2989.04 4.15244 -0.266776 0
M  V30 30568 H 2987.92 5.48822 0.0924451 0
M  V30 30569 H 2988.18 4.22894 1.28892 0
M  V30 30570 N 2987.24 0.493084 1.49688 0
M  V30 30571 C 2988.47 -0.0512777 2.06836 0
M  V30 30572 C 2988.88 -1.31537 1.35438 0
M  V30 30573 O 2988.24 -1.77355 0.430279 0
M  V30 30574 C 2988.29 -0.31694 3.60108 0
M  V30 30575 O 2988.01 0.897033 4.28818 0
M  V30 30576 C 2989.51 -0.905826 4.33947 0
M  V30 30577 H 2986.73 0.0169166 0.670787 0
M  V30 30578 H 2989.28 0.688173 1.92573 0
M  V30 30579 H 2987.43 -1.00636 3.74101 0
M  V30 30580 H 2987.85 0.655031 5.20394 0
M  V30 30581 H 2989.32 -1.04134 5.42089 0
M  V30 30582 H 2989.8 -1.90161 3.95898 0
M  V30 30583 H 2990.4 -0.25412 4.2454 0
M  V30 30584 N 2988.72 -1.55963 0.226582 0
M  V30 30585 C 2989.96 -1.98728 -0.404352 0
M  V30 30586 C 2990.3 -1.11421 -1.59057 0
M  V30 30587 O 2989.57 -0.173005 -1.93729 0
M  V30 30588 C 2989.86 -3.50309 -0.834019 0
M  V30 30589 C 2989.71 -4.48388 0.356183 0
M  V30 30590 C 2991.03 -4.06426 -1.68838 0
M  V30 30591 H 2988.15 -0.722494 -0.145502 0
M  V30 30592 H 2990.79 -1.8722 0.323824 0
M  V30 30593 H 2988.94 -3.60246 -1.45447 0
M  V30 30594 H 2990.61 -4.50455 0.994399 0
M  V30 30595 H 2988.85 -4.22051 1.00277 0
M  V30 30596 H 2989.52 -5.51999 0.0125303 0
M  V30 30597 H 2992 -3.99463 -1.16482 0
M  V30 30598 H 2990.88 -5.12793 -1.95791 0
M  V30 30599 H 2991.14 -3.53619 -2.65341 0
M  V30 30600 N 2990.2 0.0467589 -1.57531 0
M  V30 30601 C 2991.14 1.07136 -2.06457 0
M  V30 30602 C 2992.14 1.38545 -0.974768 0
M  V30 30603 O 2993.34 1.37657 -1.15976 0
M  V30 30604 H 2989.72 0.36295 -0.658613 0
M  V30 30605 H 2991.69 0.632762 -2.91614 0
M  V30 30606 C 2990.44 2.36923 -2.54486 0
M  V30 30607 H 2989.76 2.13611 -3.3795 0
M  V30 30608 H 2991.2 3.07002 -2.92448 0
M  V30 30609 C 2989.66 3.0465 -1.43841 0
M  V30 30610 O 2990.19 3.93763 -0.7946 0
M  V30 30611 N 2988.4 2.65684 -1.17731 0
M  V30 30612 H 2987.94 1.93304 -1.70268 0
M  V30 30613 H 2987.9 3.11319 -0.439105 0
M  V30 30614 N 2991.67 1.54344 0.318688 0
M  V30 30615 C 2992.92 1.72441 1.05397 0
M  V30 30616 C 2993.24 0.503528 1.88387 0
M  V30 30617 O 2992.51 -0.482426 1.89867 0
M  V30 30618 H 2991.09 0.635812 0.392113 0
M  V30 30619 H 2993.76 1.91659 0.353946 0
M  V30 30620 H 2992.85 2.60611 1.71721 0
M  V30 30621 N 2993.15 -0.580999 1.465 0
M  V30 30622 C 2994.57 -0.90454 1.31492 0
M  V30 30623 C 2994.77 -1.99437 0.287633 0
M  V30 30624 O 2993.82 -2.506 -0.309203 0
M  V30 30625 C 2995.14 -1.32028 2.70165 0
M  V30 30626 C 2996.69 -1.43303 2.78268 0
M  V30 30627 C 2997.16 -1.88242 4.17527 0
M  V30 30628 N 2998.65 -1.95433 4.19953 0
M  V30 30629 C 2999.39 -2.31483 5.24598 0
M  V30 30630 N 2998.88 -2.66314 6.39569 0
M  V30 30631 N 3000.68 -2.32053 5.11965 0
M  V30 30632 H 2992.83 0.138893 2.11945 0
M  V30 30633 H 2995.09 -0.000531864 0.948 0
M  V30 30634 H 2994.8 -0.593493 3.46656 0
M  V30 30635 H 2994.67 -2.28144 3.00383 0
M  V30 30636 H 2997.06 -2.15068 2.02064 0
M  V30 30637 H 2997.14 -0.454336 2.51733 0
M  V30 30638 H 2996.78 -1.17056 4.94227 0
M  V30 30639 H 2996.71 -2.87073 4.41471 0
M  V30 30640 H 2999.2 -1.70998 3.36999 0
M  V30 30641 H 2999.52 -2.92781 7.15192 0
M  V30 30642 H 2997.86 -2.63949 6.42928 0
M  V30 30643 H 3001.05 -2.04265 4.21181 0
M  V30 30644 H 3001.22 -2.5982 5.93631 0
M  V30 30645 N 2994.63 -1.34234 -0.825776 0
M  V30 30646 C 2995.56 -1.28216 -1.95149 0
M  V30 30647 C 2996.54 -0.160152 -1.69344 0
M  V30 30648 O 2997.73 -0.352053 -1.90982 0
M  V30 30649 C 2994.86 -1.03394 -3.31552 0
M  V30 30650 C 2993.81 -2.1203 -3.71789 0
M  V30 30651 C 2993.14 -1.72401 -5.06144 0
M  V30 30652 C 2994.44 -3.53833 -3.84187 0
M  V30 30653 H 2996.13 -2.22404 -2.00441 0
M  V30 30654 H 2993.68 -1.07064 -0.962977 0
M  V30 30655 H 2995.63 -0.978297 -4.09887 0
M  V30 30656 H 2994.35 -0.0564716 -3.26551 0
M  V30 30657 H 2993.01 -2.16659 -2.95727 0
M  V30 30658 H 2992.66 -0.733225 -4.97627 0
M  V30 30659 H 2992.36 -2.45109 -5.34037 0
M  V30 30660 H 2993.88 -1.68327 -5.8694 0
M  V30 30661 H 2995.3 -3.51632 -4.528 0
M  V30 30662 H 2993.7 -4.25137 -4.23531 0
M  V30 30663 H 2994.77 -3.91382 -2.86266 0
M  V30 30664 N 2996.11 1.04563 -1.17917 0
M  V30 30665 C 2997.35 1.7794 -0.972894 0
M  V30 30666 C 2997.69 1.8774 0.49672 0
M  V30 30667 O 2996.96 1.38183 1.36878 0
M  V30 30668 C 2997.25 3.21485 -1.62232 0
M  V30 30669 C 2997.1 3.19659 -3.16446 0
M  V30 30670 C 2998.42 4.19477 -1.33144 0
M  V30 30671 H 2995.54 0.645947 -0.354854 0
M  V30 30672 H 2998.18 1.22176 -1.4551 0
M  V30 30673 H 2996.33 3.69101 -1.21231 0
M  V30 30674 H 2998 2.80071 -3.66549 0
M  V30 30675 H 2996.24 2.57826 -3.48867 0
M  V30 30676 H 2996.91 4.21 -3.5702 0
M  V30 30677 H 2999.39 3.80385 -1.68661 0
M  V30 30678 H 2998.27 5.18143 -1.8116 0
M  V30 30679 H 2998.53 4.41373 -0.253396 0
M  V30 30680 N 2997.59 0.980408 1.23393 0
M  V30 30681 C 2998.81 0.66697 1.96383 0
M  V30 30682 C 2999.24 -0.759426 1.72088 0
M  V30 30683 O 2998.59 -1.5173 0.992355 0
M  V30 30684 C 2998.64 0.963238 3.47497 0
M  V30 30685 O 2997.75 0.0552775 4.12363 0
M  V30 30686 H 2997.09 0.25085 0.614793 0
M  V30 30687 H 2999.62 1.314 1.56828 0
M  V30 30688 H 2999.63 0.899947 3.97951 0
M  V30 30689 H 2998.3 2.0027 3.64506 0
M  V30 30690 H 2996.88 0.172979 3.72499 0
M  V30 30691 N 2999.06 -1.38498 0.75206 0
M  V30 30692 C 3000.31 -2.00448 0.307994 0
M  V30 30693 C 3000.64 -1.5956 -1.10699 0
M  V30 30694 O 2999.92 -0.832422 -1.75787 0
M  V30 30695 C 3000.2 -3.57534 0.429155 0
M  V30 30696 C 3000.05 -4.0839 1.88514 0
M  V30 30697 C 3001.37 -4.39738 -0.178365 0
M  V30 30698 H 2998.49 -0.728226 0.113385 0
M  V30 30699 H 3001.13 -1.64463 0.951418 0
M  V30 30700 H 2999.28 -3.88319 -0.118627 0
M  V30 30701 H 3000.96 -3.88254 2.49111 0
M  V30 30702 H 2999.2 -3.61314 2.40072 0
M  V30 30703 H 2999.87 -5.17492 1.92108 0
M  V30 30704 H 3002.35 -4.15097 0.288793 0
M  V30 30705 H 3001.22 -5.48863 -0.0633384 0
M  V30 30706 H 3001.48 -4.23571 -1.26648 0
M  V30 30707 N 3000.54 -0.501015 -1.49424 0
M  V30 30708 C 3001.95 -0.0532339 -1.86624 0
M  V30 30709 C 3002.3 1.36086 -1.41334 0
M  V30 30710 O 3001.43 2.01416 -0.791231 0
M  V30 30711 C 3002.02 -0.0898288 -3.38681 0
M  V30 30712 C 3000.58 0.302611 -3.75182 0
M  V30 30713 C 2999.73 -0.462355 -2.73418 0
M  V30 30714 H 3002.68 -0.713798 -1.41741 0
M  V30 30715 H 3002.7 0.705463 -3.73903 0
M  V30 30716 H 3002.21 -1.11914 -3.71614 0
M  V30 30717 H 3000.32 1.33515 -3.47857 0
M  V30 30718 H 3000.43 -0.0168495 -4.79097 0
M  V30 30719 H 2998.79 0.087811 -2.54549 0
M  V30 30720 H 2999.58 -1.49174 -3.09196 0
M  V30 30721 N 3002.02 1.5584 -0.234849 0
M  V30 30722 C 3003.25 2.02747 0.397132 0
M  V30 30723 C 3003.66 1.1137 1.52949 0
M  V30 30724 O 3003 0.118165 1.8332 0
M  V30 30725 C 3003.06 3.4595 0.977688 0
M  V30 30726 C 3002.73 4.56995 -0.0208997 0
M  V30 30727 C 3003.73 5.13295 -0.826105 0
M  V30 30728 C 3001.41 5.02095 -0.143504 0
M  V30 30729 C 3003.4 6.13177 -1.74049 0
M  V30 30730 C 3001.09 6.01812 -1.06141 0
M  V30 30731 C 3002.09 6.5723 -1.85843 0
M  V30 30732 O 3001.78 7.55004 -2.76088 0
M  V30 30733 H 3001.51 0.668567 0.0999685 0
M  V30 30734 H 3004.06 2.02349 -0.352709 0
M  V30 30735 H 3002.29 3.43459 1.77687 0
M  V30 30736 H 3003.98 3.76427 1.51847 0
M  V30 30737 H 3004.75 4.79292 -0.741906 0
M  V30 30738 H 3000.63 4.58631 0.466776 0
M  V30 30739 H 3004.17 6.56359 -2.36302 0
M  V30 30740 H 3000.07 6.35235 -1.14657 0
M  V30 30741 H 3000.84 7.72576 -2.70313 0
M  V30 30742 N 3003.5 -0.038404 1.57553 0
M  V30 30743 C 3004.75 -0.732166 1.89122 0
M  V30 30744 C 3005.08 -1.75502 0.831434 0
M  V30 30745 O 3004.35 -1.93885 -0.154608 0
M  V30 30746 C 3004.64 -1.41015 3.31341 0
M  V30 30747 C 3004.49 -0.401453 4.48005 0
M  V30 30748 C 3005.81 -2.34658 3.72322 0
M  V30 30749 H 3002.93 -0.264703 0.687824 0
M  V30 30750 H 3005.57 0.00499619 1.89999 0
M  V30 30751 H 3003.72 -2.03849 3.30723 0
M  V30 30752 H 3005.39 0.22424 4.60755 0
M  V30 30753 H 3003.63 0.280168 4.32894 0
M  V30 30754 H 3004.31 -0.914134 5.44378 0
M  V30 30755 H 3006.78 -1.81877 3.74246 0
M  V30 30756 H 3005.66 -2.79082 4.72657 0
M  V30 30757 H 3005.92 -3.20929 3.04067 0
M  V30 30758 N 3004.98 -1.54511 -0.310498 0
M  V30 30759 C 3006.23 -1.72998 -1.04481 0
M  V30 30760 C 3006.55 -0.513512 -1.88117 0
M  V30 30761 O 3005.82 0.47235 -1.9012 0
M  V30 30762 H 3004.4 -0.637882 -0.388735 0
M  V30 30763 H 3007.06 -1.91844 -0.343777 0
M  V30 30764 H 3006.15 -2.61518 -1.70336 0
M  V30 30765 N 3006.46 0.573222 -1.46806 0
M  V30 30766 C 3007.7 1.32844 -1.52305 0
M  V30 30767 C 3008.02 1.94166 -0.180193 0
M  V30 30768 O 3007.29 1.79076 0.794259 0
M  V30 30769 H 3005.87 0.493266 -0.560979 0
M  V30 30770 H 3008.54 0.67061 -1.83 0
M  V30 30771 H 3007.63 2.13027 -2.28092 0
M  V30 30772 N 3007.93 1.3467 0.818645 0
M  V30 30773 C 3008.88 1.26612 1.95121 0
M  V30 30774 C 3009.88 0.163377 1.6861 0
M  V30 30775 O 3011.08 0.328617 1.76975 0
M  V30 30776 H 3007.46 0.393442 0.640865 0
M  V30 30777 H 3009.43 2.2232 1.99039 0
M  V30 30778 C 3008.18 1.04278 3.31695 0
M  V30 30779 H 3007.5 1.88366 3.52645 0
M  V30 30780 H 3008.94 1.02677 4.1138 0
M  V30 30781 C 3007.4 -0.253799 3.35943 0
M  V30 30782 O 3007.93 -1.25372 3.81634 0
M  V30 30783 N 3006.13 -0.288396 2.89165 0
M  V30 30784 H 3005.68 0.525889 2.52175 0
M  V30 30785 H 3005.64 -1.15567 2.92389 0
M  V30 30786 N 3009.41 -1.03936 1.1847 0
M  V30 30787 C 3010.34 -2.11525 0.856288 0
M  V30 30788 C 3011.32 -1.61575 -0.182295 0
M  V30 30789 O 3012.51 -1.88401 -0.0609668 0
M  V30 30790 C 3009.63 -3.37544 0.279621 0
M  V30 30791 C 3008.68 -4.06345 1.2956 0
M  V30 30792 S 3009.51 -4.53235 2.85199 0
M  V30 30793 C 3010.67 -5.82485 2.29047 0
M  V30 30794 H 3010.9 -2.39056 1.76747 0
M  V30 30795 H 3008.43 -1.16723 1.0107 0
M  V30 30796 H 3010.39 -4.10474 -0.0465858 0
M  V30 30797 H 3009.05 -3.08126 -0.609695 0
M  V30 30798 H 3008.25 -4.96934 0.841009 0
M  V30 30799 H 3007.85 -3.39539 1.5681 0
M  V30 30800 H 3010.14 -6.56497 1.67387 0
M  V30 30801 H 3011.08 -6.32708 3.1794 0
M  V30 30802 H 3011.49 -5.37652 1.72018 0
M  V30 30803 N 3010.89 -0.986938 -1.22871 0
M  V30 30804 C 3011.8 -0.541018 -2.28276 0
M  V30 30805 C 3012.82 0.407334 -1.69165 0
M  V30 30806 O 3013.99 0.275639 -1.99505 0
M  V30 30807 C 3011.06 0.14312 -3.46404 0
M  V30 30808 C 3010.12 -0.847449 -4.20852 0
M  V30 30809 C 3009.35 -0.195864 -5.3334 0
M  V30 30810 O 3009.57 1.0116 -5.61358 0
M  V30 30811 O 3008.51 -0.897728 -5.95168 0
M  V30 30812 H 3012.33 -1.41778 -2.68576 0
M  V30 30813 H 3009.92 -0.75489 -1.28925 0
M  V30 30814 H 3011.8 0.526602 -4.18097 0
M  V30 30815 H 3010.48 0.994539 -3.08043 0
M  V30 30816 H 3009.38 -1.28175 -3.51457 0
M  V30 30817 H 3010.72 -1.66788 -4.63079 0
M  V30 30818 N 3012.37 1.38098 -0.759394 0
M  V30 30819 C 3013.61 2.00281 -0.31862 0
M  V30 30820 C 3013.95 1.60145 1.09852 0
M  V30 30821 O 3013.22 0.841732 1.75343 0
M  V30 30822 C 3013.5 3.57301 -0.44811 0
M  V30 30823 C 3013.36 4.07385 -1.90677 0
M  V30 30824 C 3014.68 4.39827 0.155042 0
M  V30 30825 H 3011.8 0.727614 -0.117246 0
M  V30 30826 H 3014.44 1.63956 -0.960126 0
M  V30 30827 H 3012.59 3.88376 0.098032 0
M  V30 30828 H 3014.26 3.86928 -2.51167 0
M  V30 30829 H 3012.5 3.60036 -2.41985 0
M  V30 30830 H 3013.17 5.16466 -1.9485 0
M  V30 30831 H 3015.65 4.14938 -0.310803 0
M  V30 30832 H 3014.53 5.48889 0.0342299 0
M  V30 30833 H 3014.79 4.24237 1.244 0
M  V30 30834 N 3013.85 0.508932 1.49156 0
M  V30 30835 C 3014.79 -0.278866 2.30922 0
M  V30 30836 C 3015.79 -0.955357 1.3989 0
M  V30 30837 O 3016.99 -0.882141 1.56902 0
M  V30 30838 H 3013.37 -0.108792 0.744089 0
M  V30 30839 H 3015.34 0.430634 2.95276 0
M  V30 30840 C 3014.09 -1.32571 3.21435 0
M  V30 30841 H 3013.41 -0.814565 3.91414 0
M  V30 30842 H 3014.85 -1.84876 3.81572 0
M  V30 30843 C 3013.31 -2.34813 2.41587 0
M  V30 30844 O 3013.84 -3.4085 2.12566 0
M  V30 30845 N 3012.05 -2.07485 2.03465 0
M  V30 30846 H 3011.59 -1.21274 2.27267 0
M  V30 30847 H 3011.55 -2.7612 1.5035 0
M  V30 30848 N 3015.32 -1.55714 0.243111 0
M  V30 30849 C 3016.57 -1.99146 -0.383252 0
M  V30 30850 C 3016.9 -1.13101 -1.57866 0
M  V30 30851 O 3016.18 -0.193543 -1.93535 0
M  V30 30852 C 3016.46 -3.51174 -0.796818 0
M  V30 30853 C 3016.31 -4.47985 0.403721 0
M  V30 30854 C 3017.63 -4.08193 -1.64518 0
M  V30 30855 H 3014.75 -0.723997 -0.137831 0
M  V30 30856 H 3017.39 -1.86866 0.343663 0
M  V30 30857 H 3015.54 -3.61769 -1.41618 0
M  V30 30858 H 3017.22 -4.49375 1.04212 0
M  V30 30859 H 3015.46 -4.20964 1.04748 0
M  V30 30860 H 3016.13 -5.51954 0.0710764 0
M  V30 30861 H 3018.61 -4.00676 -1.12239 0
M  V30 30862 H 3017.48 -5.14841 -1.90341 0
M  V30 30863 H 3017.74 -3.56414 -2.61575 0
M  V30 30864 N 3016.8 0.030048 -1.57571 0
M  V30 30865 C 3018.03 0.731794 -1.93205 0
M  V30 30866 C 3018.44 1.69472 -0.841186 0
M  V30 30867 O 3017.78 1.82702 0.191199 0
M  V30 30868 C 3017.85 1.54447 -3.24633 0
M  V30 30869 C 3017.51 0.746428 -4.50863 0
M  V30 30870 C 3018.51 0.0471395 -5.19879 0
M  V30 30871 C 3016.19 0.701259 -4.97381 0
M  V30 30872 C 3018.19 -0.686629 -6.33691 0
M  V30 30873 C 3015.87 -0.0362554 -6.11089 0
M  V30 30874 C 3016.87 -0.72896 -6.79099 0
M  V30 30875 O 3016.56 -1.4545 -7.90632 0
M  V30 30876 H 3016.29 0.210764 -0.642304 0
M  V30 30877 H 3018.84 -0.00807804 -2.05398 0
M  V30 30878 H 3017.07 2.32813 -3.08764 0
M  V30 30879 H 3018.76 2.12874 -3.456 0
M  V30 30880 H 3019.53 0.0730729 -4.84945 0
M  V30 30881 H 3015.41 1.22993 -4.4429 0
M  V30 30882 H 3018.95 -1.22785 -6.86709 0
M  V30 30883 H 3014.85 -0.0641155 -6.45468 0
M  V30 30884 H 3015.62 -1.36808 -8.06986 0
M  V30 30885 N 3018.28 1.54674 0.3023 0
M  V30 30886 C 3019.53 1.73549 1.03562 0
M  V30 30887 C 3019.85 0.523481 1.87842 0
M  V30 30888 O 3019.12 -0.462261 1.90368 0
M  V30 30889 H 3017.7 0.639935 0.385347 0
M  V30 30890 H 3020.36 1.92024 0.333598 0
M  V30 30891 H 3019.46 2.62418 1.68947 0
M  V30 30892 N 3019.76 -0.565428 1.47108 0
M  V30 30893 C 3020.72 -1.65525 1.58538 0
M  V30 30894 C 3021.72 -1.54047 0.461108 0
M  V30 30895 O 3022.91 -1.58353 0.725938 0
M  V30 30896 C 3020.04 -3.05033 1.52209 0
M  V30 30897 H 3021.24 -1.56742 2.55679 0
M  V30 30898 H 3018.79 -0.784687 1.35175 0
M  V30 30899 H 3019.52 -3.19356 0.564128 0
M  V30 30900 H 3019.31 -3.14773 2.33796 0
M  V30 30901 H 3020.8 -3.84335 1.63329 0
M  V30 30902 N 3021.24 -1.35102 -0.811492 0
M  V30 30903 C 3022.49 -1.27438 -1.56341 0
M  V30 30904 C 3022.8 0.150662 -1.95019 0
M  V30 30905 O 3024 0.349539 -2.69241 0
M  V30 30906 C 3022.46 -2.23464 -2.8212 0
M  V30 30907 C 3022.07 -3.71287 -2.50699 0
M  V30 30908 C 3023.81 -2.24732 -3.60133 0
M  V30 30909 C 3021.72 -4.5915 -3.7274 0
M  V30 30910 H 3020.65 -0.473464 -0.586812 0
M  V30 30911 H 3023.3 -1.60337 -0.892437 0
M  V30 30912 H 3021.68 -1.83531 -3.50902 0
M  V30 30913 H 3022.86 -4.19826 -1.89955 0
M  V30 30914 H 3021.17 -3.72579 -1.85941 0
M  V30 30915 H 3023.77 -2.87594 -4.5077 0
M  V30 30916 H 3024.11 -1.24972 -3.97099 0
M  V30 30917 H 3024.64 -2.63169 -2.98307 0
M  V30 30918 H 3021.38 -5.5989 -3.40886 0
M  V30 30919 H 3020.9 -4.1534 -4.32727 0
M  V30 30920 H 3022.58 -4.74329 -4.40024 0
M  V30 30921 N 3022.71 1.03306 -1.19019 0
M  V30 30922 C 3023.65 2.11068 -0.867494 0
M  V30 30923 C 3024.63 1.61669 0.173724 0
M  V30 30924 O 3025.81 1.88431 0.0509746 0
M  V30 30925 C 3022.94 3.37391 -0.297518 0
M  V30 30926 C 3021.98 4.05653 -1.31713 0
M  V30 30927 S 3022.82 4.51716 -2.87599 0
M  V30 30928 C 3023.97 5.81262 -2.32133 0
M  V30 30929 H 3024.2 2.38116 -1.78012 0
M  V30 30930 H 3021.74 1.16185 -1.01688 0
M  V30 30931 H 3023.7 4.10492 0.0248167 0
M  V30 30932 H 3022.36 3.08445 0.593346 0
M  V30 30933 H 3021.55 4.96481 -0.867351 0
M  V30 30934 H 3021.15 3.38702 -1.58609 0
M  V30 30935 H 3023.44 6.556 -1.70866 0
M  V30 30936 H 3024.39 6.31013 -3.21291 0
M  V30 30937 H 3024.79 5.36733 -1.74867 0
M  V30 30938 N 3024.19 0.99344 1.22346 0
M  V30 30939 C 3025.14 0.515372 2.22099 0
M  V30 30940 C 3026.13 -0.416735 1.5541 0
M  V30 30941 O 3027.32 -0.243467 1.75318 0
M  V30 30942 C 3024.45 -0.168113 3.42888 0
M  V30 30943 C 3023.53 0.784331 4.16784 0
M  V30 30944 N 3023.92 1.9324 4.67431 0
M  V30 30945 C 3022.22 0.600321 4.41941 0
M  V30 30946 C 3022.92 2.53025 5.23787 0
M  V30 30947 N 3021.9 1.81289 5.12479 0
M  V30 30948 H 3025.7 1.39097 2.589 0
M  V30 30949 H 3023.22 0.855771 1.38023 0
M  V30 30950 H 3025.21 -0.527996 4.13543 0
M  V30 30951 H 3023.87 -1.03984 3.07599 0
M  V30 30952 H 3024.88 2.31317 4.63371 0
M  V30 30953 H 3021.56 -0.225295 4.16892 0
M  V30 30954 H 3022.95 3.50053 5.73509 0
M  V30 30955 N 3025.67 -1.37693 0.766707 0
M  V30 30956 C 3026.58 -2.34119 0.150199 0
M  V30 30957 C 3027.6 -1.59928 -0.685485 0
M  V30 30958 O 3028.77 -1.92048 -0.606582 0
M  V30 30959 C 3025.84 -3.39088 -0.722503 0
M  V30 30960 C 3024.9 -4.29106 0.129059 0
M  V30 30961 C 3024.13 -5.29062 -0.702085 0
M  V30 30962 O 3024.35 -5.36416 -1.93945 0
M  V30 30963 O 3023.29 -6.01792 -0.11395 0
M  V30 30964 H 3027.11 -2.88562 0.94688 0
M  V30 30965 H 3024.7 -1.39767 0.527789 0
M  V30 30966 H 3026.58 -4.03327 -1.22087 0
M  V30 30967 H 3025.26 -2.86981 -1.49746 0
M  V30 30968 H 3024.16 -3.67984 0.673677 0
M  V30 30969 H 3025.5 -4.84504 0.866977 0
M  V30 30970 N 3027.15 -0.516835 -1.48884 0
M  V30 30971 C 3028.39 0.0220572 -2.02788 0
M  V30 30972 C 3028.73 1.35172 -1.39435 0
M  V30 30973 O 3028 1.86983 -0.535492 0
M  V30 30974 C 3028.29 0.157949 -3.59753 0
M  V30 30975 C 3028.14 -1.19596 -4.33609 0
M  V30 30976 C 3029.46 0.891058 -4.30985 0
M  V30 30977 H 3026.58 0.00654193 -0.736971 0
M  V30 30978 H 3029.22 -0.671318 -1.77745 0
M  V30 30979 H 3027.37 0.748501 -3.81221 0
M  V30 30980 H 3029.04 -1.82661 -4.23595 0
M  V30 30981 H 3027.28 -1.78123 -3.95544 0
M  V30 30982 H 3027.95 -1.05401 -5.41844 0
M  V30 30983 H 3030.43 0.390047 -4.14268 0
M  V30 30984 H 3029.31 0.955012 -5.40528 0
M  V30 30985 H 3029.57 1.9384 -3.97339 0
M  V30 30986 N 3028.63 1.55583 -0.251365 0
M  V30 30987 C 3030.04 1.59265 0.103381 0
M  V30 30988 C 3030.24 1.26855 1.56557 0
M  V30 30989 O 3029.3 1.018 2.31069 0
M  V30 30990 C 3030.61 2.9966 -0.249833 0
M  V30 30991 C 3032.16 3.12395 -0.194497 0
M  V30 30992 C 3032.63 4.55018 -0.521808 0
M  V30 30993 N 3034.13 4.60784 -0.472474 0
M  V30 30994 C 3034.86 5.69125 -0.698837 0
M  V30 30995 N 3034.36 6.85711 -0.988564 0
M  V30 30996 N 3036.15 5.58567 -0.629241 0
M  V30 30997 H 3028.3 1.74919 -1.20487 0
M  V30 30998 H 3030.56 0.814479 -0.485106 0
M  V30 30999 H 3030.27 3.2813 -1.26583 0
M  V30 31000 H 3030.14 3.74844 0.420907 0
M  V30 31001 H 3032.53 2.83703 0.812179 0
M  V30 31002 H 3032.61 2.39476 -0.899154 0
M  V30 31003 H 3032.26 4.84431 -1.52606 0
M  V30 31004 H 3032.19 5.26203 0.204376 0
M  V30 31005 H 3034.68 3.77022 -0.257452 0
M  V30 31006 H 3034.99 7.64217 -1.14859 0
M  V30 31007 H 3033.33 6.87384 -1.02608 0
M  V30 31008 H 3036.53 4.66363 -0.402908 0
M  V30 31009 H 3036.7 6.4293 -0.809048 0
M  V30 31010 N 3030.1 -0.0216912 1.57585 0
M  V30 31011 C 3031.35 -0.711012 1.89607 0
M  V30 31012 C 3031.68 -1.74965 0.849566 0
M  V30 31013 O 3030.93 -1.95136 -0.148526 0
M  V30 31014 C 3031.23 -1.41073 3.2838 0
M  V30 31015 C 3030.9 -0.507376 4.48036 0
M  V30 31016 C 3029.56 -0.258587 4.80505 0
M  V30 31017 C 3031.91 0.115885 5.21071 0
M  V30 31018 C 3029.24 0.622116 5.83392 0
M  V30 31019 C 3031.59 0.984334 6.24895 0
M  V30 31020 C 3030.26 1.24251 6.55834 0
M  V30 31021 H 3029.53 -0.260178 0.693822 0
M  V30 31022 H 3032.17 0.029176 1.91478 0
M  V30 31023 H 3030.48 -2.22442 3.22532 0
M  V30 31024 H 3032.18 -1.94976 3.50407 0
M  V30 31025 H 3028.77 -0.711442 4.22654 0
M  V30 31026 H 3032.95 -0.0633455 4.9626 0
M  V30 31027 H 3028.21 0.830373 6.05735 0
M  V30 31028 H 3032.38 1.47375 6.80627 0
M  V30 31029 H 3030.01 1.92666 7.3538 0
M  V30 31030 N 3031.58 -1.54832 -0.294093 0
M  V30 31031 C 3032.53 -1.87024 -1.38293 0
M  V30 31032 C 3033.53 -0.744584 -1.52159 0
M  V30 31033 O 3034.73 -0.928668 -1.54194 0
M  V30 31034 H 3031.11 -0.593286 -0.462078 0
M  V30 31035 H 3033.08 -2.78022 -1.08381 0
M  V30 31036 C 3031.83 -2.14028 -2.74021 0
M  V30 31037 H 3031.15 -3.00121 -2.64135 0
M  V30 31038 H 3032.59 -2.40488 -3.49201 0
M  V30 31039 C 3031.05 -0.941039 -3.2349 0
M  V30 31040 O 3031.58 -0.165007 -4.01361 0
M  V30 31041 N 3029.78 -0.744517 -2.80901 0
M  V30 31042 H 3029.33 -1.37725 -2.17692 0
M  V30 31043 H 3029.29 0.0563099 -3.1435 0
M  V30 31044 N 3033.06 0.557619 -1.47405 0
M  V30 31045 C 3034.01 1.66023 -1.5627 0
M  V30 31046 C 3035 1.55277 -0.421637 0
M  V30 31047 O 3036.19 1.63766 -0.671534 0
M  V30 31048 C 3033.32 3.04799 -1.57964 0
M  V30 31049 C 3032.4 3.2075 -2.77453 0
M  V30 31050 N 3032.79 3.06768 -4.02153 0
M  V30 31051 C 3031.09 3.51749 -2.74205 0
M  V30 31052 C 3031.79 3.25398 -4.82173 0
M  V30 31053 N 3030.77 3.51712 -4.14487 0
M  V30 31054 H 3034.57 1.53781 -2.50457 0
M  V30 31055 H 3032.08 0.762363 -1.43394 0
M  V30 31056 H 3034.08 3.83967 -1.62404 0
M  V30 31057 H 3032.74 3.18154 -0.648723 0
M  V30 31058 H 3033.75 2.84104 -4.33019 0
M  V30 31059 H 3030.43 3.71633 -1.9025 0
M  V30 31060 H 3031.82 3.19559 -5.91043 0
M  V30 31061 N 3034.54 1.35531 0.804316 0
M  V30 31062 C 3035.47 1.31304 1.93084 0
M  V30 31063 C 3036.45 0.187073 1.69068 0
M  V30 31064 O 3037.64 0.382392 1.90398 0
M  V30 31065 C 3034.77 1.08656 3.29865 0
M  V30 31066 C 3033.72 2.17918 3.68369 0
M  V30 31067 C 3033.05 1.80432 5.03337 0
M  V30 31068 C 3034.35 3.599 3.78509 0
M  V30 31069 H 3036.04 2.25565 1.96878 0
M  V30 31070 H 3033.59 1.08583 0.945822 0
M  V30 31071 H 3035.54 1.04338 4.08279 0
M  V30 31072 H 3034.26 0.108416 3.2642 0
M  V30 31073 H 3032.92 2.21336 2.92243 0
M  V30 31074 H 3032.57 0.8123 4.96398 0
M  V30 31075 H 3032.27 2.53574 5.3007 0
M  V30 31076 H 3033.79 1.77643 5.84188 0
M  V30 31077 H 3035.21 3.58791 4.47149 0
M  V30 31078 H 3033.6 4.31822 4.16713 0
M  V30 31079 H 3034.67 3.95887 2.80003 0
M  V30 31080 N 3036.02 -1.02674 1.19565 0
M  V30 31081 C 3037.27 -1.75761 0.997624 0
M  V30 31082 C 3037.59 -1.89189 -0.472497 0
M  V30 31083 O 3036.86 -1.42703 -1.34211 0
M  V30 31084 H 3035.44 -0.651115 0.366139 0
M  V30 31085 H 3038.1 -1.23841 1.50497 0
M  V30 31086 H 3037.19 -2.76505 1.44746 0
M  V30 31087 N 3037.5 -0.999914 -1.21817 0
M  V30 31088 C 3038.45 -0.527143 -2.21822 0
M  V30 31089 C 3039.43 0.408487 -1.55628 0
M  V30 31090 O 3040.62 0.234166 -1.75444 0
M  V30 31091 C 3037.75 0.149926 -3.42972 0
M  V30 31092 C 3036.84 -0.806423 -4.16362 0
M  V30 31093 N 3037.23 -1.95716 -4.664 0
M  V30 31094 C 3035.53 -0.623749 -4.41617 0
M  V30 31095 C 3036.23 -2.55799 -5.22438 0
M  V30 31096 N 3035.2 -1.84004 -5.11511 0
M  V30 31097 H 3039 -1.40468 -2.58159 0
M  V30 31098 H 3036.52 -0.863078 -1.37567 0
M  V30 31099 H 3038.52 0.506058 -4.13817 0
M  V30 31100 H 3037.18 1.02351 -3.08147 0
M  V30 31101 H 3038.19 -2.33771 -4.62138 0
M  V30 31102 H 3034.86 0.203183 -4.17005 0
M  V30 31103 H 3036.25 -3.5309 -5.71644 0
M  V30 31104 N 3038.97 1.37284 -0.773999 0
M  V30 31105 C 3040.22 1.98881 -0.336012 0
M  V30 31106 C 3040.54 1.62136 1.09413 0
M  V30 31107 O 3041.74 2.16853 1.63362 0
M  V30 31108 C 3040.2 3.55675 -0.549819 0
M  V30 31109 C 3039.81 4.01358 -1.99037 0
M  V30 31110 C 3041.55 4.24137 -0.175567 0
M  V30 31111 C 3039.46 5.5087 -2.15166 0
M  V30 31112 H 3038.39 0.744083 -0.12189 0
M  V30 31113 H 3041.04 1.56785 -0.953447 0
M  V30 31114 H 3039.42 3.95763 0.137106 0
M  V30 31115 H 3040.59 3.7251 -2.71243 0
M  V30 31116 H 3038.91 3.45686 -2.32143 0
M  V30 31117 H 3041.51 5.33995 -0.274557 0
M  V30 31118 H 3041.85 4.07012 0.874452 0
M  V30 31119 H 3042.38 3.89359 -0.815127 0
M  V30 31120 H 3039.12 5.72924 -3.18495 0
M  V30 31121 H 3038.64 5.81395 -1.47446 0
M  V30 31122 H 3040.32 6.16872 -1.95135 0
M  V30 31123 N 3040.45 0.524724 1.48608 0
M  V30 31124 C 3041.7 -0.0112858 2.02497 0
M  V30 31125 C 3042.03 -1.34779 1.40232 0
M  V30 31126 O 3041.28 -1.88228 0.535603 0
M  V30 31127 C 3041.58 -0.18781 3.56906 0
M  V30 31128 C 3041.25 1.07367 4.37931 0
M  V30 31129 C 3039.91 1.41941 4.59789 0
M  V30 31130 C 3042.26 1.91108 4.84899 0
M  V30 31131 C 3039.59 2.60163 5.25863 0
M  V30 31132 C 3041.94 3.08504 5.52275 0
M  V30 31133 C 3040.6 3.4343 5.72374 0
M  V30 31134 H 3039.87 -0.00412977 0.740988 0
M  V30 31135 H 3042.52 0.689684 1.78649 0
M  V30 31136 H 3040.83 -0.971505 3.79564 0
M  V30 31137 H 3042.52 -0.617373 3.96219 0
M  V30 31138 H 3039.11 0.794405 4.21174 0
M  V30 31139 H 3043.3 1.65709 4.67818 0
M  V30 31140 H 3038.55 2.87431 5.39623 0
M  V30 31141 H 3042.73 3.73702 5.87639 0
M  V30 31142 H 3040.35 4.35137 6.23346 0
M  V30 31143 N 3041.93 -1.55447 0.259613 0
M  V30 31144 C 3043.16 -2.03649 -0.365357 0
M  V30 31145 C 3043.57 -1.1385 -1.50611 0
M  V30 31146 O 3042.93 -0.155446 -1.81837 0
M  V30 31147 C 3042.98 -3.51094 -0.86111 0
M  V30 31148 O 3042.7 -4.37474 0.234198 0
M  V30 31149 C 3044.2 -4.15114 -1.55548 0
M  V30 31150 H 3041.42 -0.665552 -0.0853322 0
M  V30 31151 H 3043.97 -2.00801 0.387186 0
M  V30 31152 H 3042.12 -3.54435 -1.56379 0
M  V30 31153 H 3042.54 -5.24301 -0.144308 0
M  V30 31154 H 3044.01 -5.19936 -1.85394 0
M  V30 31155 H 3044.49 -3.62359 -2.48178 0
M  V30 31156 H 3045.09 -4.15732 -0.897047 0
M  V30 31157 N 3043.41 0.0133338 -1.57594 0
M  V30 31158 C 3044.65 0.700947 -1.89982 0
M  V30 31159 C 3044.98 1.74512 -0.858833 0
M  V30 31160 O 3044.24 1.95212 0.138175 0
M  V30 31161 C 3044.54 1.3933 -3.29123 0
M  V30 31162 C 3044.2 0.483608 -4.48299 0
M  V30 31163 C 3042.86 0.233101 -4.80635 0
M  V30 31164 C 3045.22 -0.143517 -5.21002 0
M  V30 31165 C 3042.54 -0.653045 -5.83054 0
M  V30 31166 C 3044.9 -1.01746 -6.24364 0
M  V30 31167 C 3043.56 -1.27727 -6.55166 0
M  V30 31168 H 3042.83 0.256495 -0.695192 0
M  V30 31169 H 3045.48 -0.0393301 -1.9146 0
M  V30 31170 H 3043.78 2.20729 -3.23707 0
M  V30 31171 H 3045.48 1.93115 -3.51436 0
M  V30 31172 H 3042.07 0.689017 -4.23025 0
M  V30 31173 H 3046.25 0.0370267 -4.96286 0
M  V30 31174 H 3041.51 -0.862485 -6.05286 0
M  V30 31175 H 3045.68 -1.50982 -6.79836 0
M  V30 31176 H 3043.31 -1.96563 -7.34348 0
M  V30 31177 N 3044.89 1.54985 0.285878 0
M  V30 31178 C 3046.11 1.78994 1.03773 0
M  V30 31179 C 3046.53 0.556845 1.80401 0
M  V30 31180 O 3045.89 -0.47377 1.76243 0
M  V30 31181 C 3045.94 3.00706 2.00645 0
M  V30 31182 O 3045.66 4.19251 1.27123 0
M  V30 31183 C 3047.16 3.37219 2.87747 0
M  V30 31184 H 3044.38 0.596591 0.307115 0
M  V30 31185 H 3046.92 2.01972 0.320564 0
M  V30 31186 H 3045.08 2.79891 2.67843 0
M  V30 31187 H 3045.49 4.87974 1.92307 0
M  V30 31188 H 3046.97 4.25586 3.51541 0
M  V30 31189 H 3047.44 2.56045 3.56844 0
M  V30 31190 H 3048.05 3.60246 2.26059 0
M  V30 31191 N 3046.36 -0.549794 1.47699 0
M  V30 31192 C 3047.78 -1.13189 1.48476 0
M  V30 31193 C 3048.13 -1.94683 0.243538 0
M  V30 31194 O 3047.25 -2.06377 -0.650973 0
M  V30 31195 C 3047.85 -2.05939 2.69025 0
M  V30 31196 C 3046.41 -2.59405 2.72738 0
M  V30 31197 C 3045.55 -1.35939 2.41694 0
M  V30 31198 H 3048.5 -0.33602 1.55102 0
M  V30 31199 H 3048.52 -2.89929 2.46417 0
M  V30 31200 H 3048.04 -1.46599 3.59347 0
M  V30 31201 H 3046.14 -3.22523 1.86574 0
M  V30 31202 H 3046.25 -2.99892 3.73633 0
M  V30 31203 H 3044.61 -1.6686 1.92431 0
M  V30 31204 H 3045.4 -0.78381 3.34232 0
M  V30 31205 N 3047.84 -1.35955 -0.797117 0
M  V30 31206 C 3048.77 -1.25512 -1.91779 0
M  V30 31207 C 3049.79 -0.176299 -1.61843 0
M  V30 31208 O 3050.98 -0.430373 -1.73234 0
M  V30 31209 C 3048.08 -0.912131 -3.26395 0
M  V30 31210 C 3047.25 -2.09127 -3.84168 0
M  V30 31211 C 3046.31 -1.72255 -4.97207 0
M  V30 31212 O 3045.33 -2.44248 -5.14132 0
M  V30 31213 N 3046.54 -0.651713 -5.7683 0
M  V30 31214 H 3049.3 -2.22067 -2.01262 0
M  V30 31215 H 3046.86 -1.29248 -0.975011 0
M  V30 31216 H 3048.85 -0.646777 -3.99498 0
M  V30 31217 H 3047.42 -0.0359629 -3.12579 0
M  V30 31218 H 3046.64 -2.51987 -3.03144 0
M  V30 31219 H 3047.93 -2.87922 -4.19498 0
M  V30 31220 H 3047.33 -0.0537672 -5.65674 0
M  V30 31221 H 3045.89 -0.446164 -6.50271 0
M  V30 31222 N 3049.32 1.02038 -1.20108 0
M  V30 31223 C 3050.27 2.12615 -0.943268 0
M  V30 31224 C 3051.26 1.6908 0.104012 0
M  V30 31225 O 3052.47 1.79941 -0.0460048 0
M  V30 31226 H 3048.84 0.694797 -0.287682 0
M  V30 31227 H 3050.81 2.31546 -1.88225 0
M  V30 31228 C 3049.56 3.43972 -0.50777 0
M  V30 31229 H 3048.89 3.77895 -1.30521 0
M  V30 31230 H 3050.33 4.22413 -0.366561 0
M  V30 31231 C 3048.79 3.27762 0.779333 0
M  V30 31232 O 3049.32 3.57148 1.8387 0
M  V30 31233 N 3047.52 2.81023 0.739881 0
M  V30 31234 H 3047.07 2.57309 -0.122471 0
M  V30 31235 H 3047.03 2.70558 1.60142 0
M  V30 31236 N 3050.8 1.00636 1.21285 0
M  V30 31237 C 3051.75 0.561065 2.25732 0
M  V30 31238 C 3052.74 -0.395066 1.64729 0
M  V30 31239 O 3053.95 -0.26611 1.78022 0
M  V30 31240 H 3050.32 0.163094 0.734101 0
M  V30 31241 H 3052.29 1.45312 2.60628 0
M  V30 31242 C 3051.04 -0.0951976 3.4757 0
M  V30 31243 H 3050.36 0.631496 3.94781 0
M  V30 31244 H 3051.8 -0.370031 4.22382 0
M  V30 31245 C 3050.26 -1.33482 3.09328 0
M  V30 31246 O 3050.79 -2.42906 3.19937 0
M  V30 31247 N 3049 -1.21508 2.63978 0
M  V30 31248 H 3048.55 -0.324696 2.55545 0
M  V30 31249 H 3048.5 -2.04551 2.3876 0
M  V30 31250 N 3052.28 -1.36872 0.781268 0
M  V30 31251 C 3053.19 -2.33946 0.175022 0
M  V30 31252 C 3054.2 -1.60646 -0.668484 0
M  V30 31253 O 3055.38 -1.92681 -0.586179 0
M  V30 31254 C 3052.44 -3.39835 -0.686497 0
M  V30 31255 C 3051.5 -4.28945 0.174564 0
M  V30 31256 C 3050.74 -5.29777 -0.645931 0
M  V30 31257 O 3050.96 -5.38442 -1.88244 0
M  V30 31258 O 3049.89 -6.01879 -0.0501156 0
M  V30 31259 H 3053.72 -2.87541 0.977432 0
M  V30 31260 H 3051.31 -1.39199 0.542584 0
M  V30 31261 H 3053.19 -4.04599 -1.17803 0
M  V30 31262 H 3051.86 -2.88553 -1.46693 0
M  V30 31263 H 3050.77 -3.67249 0.712669 0
M  V30 31264 H 3052.1 -4.83557 0.918317 0
M  V30 31265 N 3053.75 -0.532597 -1.48328 0
M  V30 31266 C 3055 0.000546762 -2.025 0
M  V30 31267 C 3055.33 1.34033 -1.40944 0
M  V30 31268 O 3054.58 1.87941 -0.545578 0
M  V30 31269 C 3054.88 0.16888 -3.57001 0
M  V30 31270 C 3054.55 -1.09688 -4.37355 0
M  V30 31271 C 3053.21 -1.44377 -4.5903 0
M  V30 31272 C 3055.56 -1.93677 -4.83879 0
M  V30 31273 C 3052.89 -2.62948 -5.24476 0
M  V30 31274 C 3055.24 -3.11429 -5.50631 0
M  V30 31275 C 3053.91 -3.46461 -5.70545 0
M  V30 31276 H 3053.18 0.000200074 -0.741 0
M  V30 31277 H 3055.82 -0.699148 -1.78281 0
M  V30 31278 H 3054.13 0.951362 -3.80074 0
M  V30 31279 H 3055.83 0.596352 -3.96541 0
M  V30 31280 H 3052.42 -0.816729 -4.20746 0
M  V30 31281 H 3056.6 -1.68188 -4.66933 0
M  V30 31282 H 3051.86 -2.90289 -5.38091 0
M  V30 31283 H 3056.03 -3.76813 -5.85649 0
M  V30 31284 H 3053.66 -4.38436 -6.2103 0
M  V30 31285 N 3055.23 1.55307 -0.267853 0
M  V30 31286 C 3056.16 2.19615 0.655872 0
M  V30 31287 C 3057.18 1.17867 1.123 0
M  V30 31288 O 3058.37 1.4463 1.04615 0
M  V30 31289 C 3055.47 2.80238 1.90577 0
M  V30 31290 C 3054.64 4.07608 1.58665 0
M  V30 31291 C 3053.7 4.52347 2.68828 0
M  V30 31292 O 3052.72 5.18278 2.35322 0
M  V30 31293 N 3053.93 4.2188 3.98745 0
M  V30 31294 H 3056.69 2.99514 0.105514 0
M  V30 31295 H 3054.25 1.61657 -0.0886547 0
M  V30 31296 H 3056.24 3.07116 2.63556 0
M  V30 31297 H 3054.81 2.04375 2.36537 0
M  V30 31298 H 3054.03 3.88096 0.691045 0
M  V30 31299 H 3055.32 4.90608 1.34837 0
M  V30 31300 H 3054.72 3.68992 4.2879 0
M  V30 31301 H 3053.28 4.53546 4.68124 0
M  V30 31302 N 3056.71 -0.00497598 1.57599 0
M  V30 31303 C 3057.64 -0.997013 2.11144 0
M  V30 31304 C 3058.62 -1.36168 1.01943 0
M  V30 31305 O 3059.81 -1.4463 1.29599 0
M  V30 31306 C 3056.94 -2.29045 2.61066 0
M  V30 31307 C 3055.89 -2.06754 3.74749 0
M  V30 31308 C 3055.22 -3.42068 4.10967 0
M  V30 31309 C 3056.52 -1.43415 5.02224 0
M  V30 31310 H 3058.21 -0.551199 2.94282 0
M  V30 31311 H 3055.76 -0.26369 1.41565 0
M  V30 31312 H 3057.71 -2.98796 2.97151 0
M  V30 31313 H 3056.43 -2.75731 1.75043 0
M  V30 31314 H 3055.09 -1.3943 3.3905 0
M  V30 31315 H 3054.74 -3.86447 3.21974 0
M  V30 31316 H 3054.44 -3.2797 4.87554 0
M  V30 31317 H 3055.96 -4.13142 4.49607 0
M  V30 31318 H 3057.38 -2.03116 5.36113 0
M  V30 31319 H 3055.78 -1.39821 5.83584 0
M  V30 31320 H 3056.85 -0.402765 4.83224 0
M  V30 31321 N 3058.19 -1.55135 -0.277654 0
M  V30 31322 C 3059.12 -1.841 -1.36528 0
M  V30 31323 C 3060.13 -0.72522 -1.45755 0
M  V30 31324 O 3061.32 -1.00301 -1.47655 0
M  V30 31325 C 3058.42 -1.98481 -2.74697 0
M  V30 31326 C 3057.6 -3.29099 -2.88119 0
M  V30 31327 C 3056.65 -3.33603 -4.06934 0
M  V30 31328 O 3055.68 -4.07006 -3.97913 0
M  V30 31329 N 3056.88 -2.6067 -5.18682 0
M  V30 31330 H 3059.65 -2.77975 -1.12027 0
M  V30 31331 H 3057.21 -1.54995 -0.467765 0
M  V30 31332 H 3059.2 -1.98869 -3.52467 0
M  V30 31333 H 3057.77 -1.11493 -2.92041 0
M  V30 31334 H 3056.99 -3.41288 -1.97271 0
M  V30 31335 H 3058.28 -4.15251 -2.94014 0
M  V30 31336 H 3057.68 -2.00708 -5.28898 0
M  V30 31337 H 3056.23 -2.66787 -5.947 0
M  V30 31338 N 3059.67 0.541953 -1.47989 0
M  V30 31339 C 3060.6 1.6571 -1.64506 0
M  V30 31340 C 3061.58 1.62764 -0.494144 0
M  V30 31341 O 3062.76 1.80148 -0.725287 0
M  V30 31342 C 3059.89 3.04325 -1.67343 0
M  V30 31343 C 3058.85 3.22125 -2.81815 0
M  V30 31344 C 3058.17 4.6168 -2.69733 0
M  V30 31345 C 3059.47 3.06039 -4.23247 0
M  V30 31346 H 3061.17 1.52142 -2.57862 0
M  V30 31347 H 3058.71 0.730507 -1.24095 0
M  V30 31348 H 3060.67 3.82199 -1.77487 0
M  V30 31349 H 3059.39 3.18888 -0.70557 0
M  V30 31350 H 3058.05 2.46664 -2.71205 0
M  V30 31351 H 3057.7 4.73062 -1.70942 0
M  V30 31352 H 3057.4 4.74537 -3.46538 0
M  V30 31353 H 3058.92 5.41669 -2.81828 0
M  V30 31354 H 3060.33 3.73716 -4.34752 0
M  V30 31355 H 3058.73 3.30396 -5.00958 0
M  V30 31356 H 3059.8 2.02601 -4.40546 0
M  V30 31357 N 3061.15 1.36376 0.789896 0
M  V30 31358 C 3062.37 1.33897 1.58386 0
M  V30 31359 C 3062.8 -0.0774603 1.8794 0
M  V30 31360 O 3062.15 -1.04927 1.47851 0
M  V30 31361 C 3062.2 2.16737 2.88197 0
M  V30 31362 O 3061.31 1.55953 3.81775 0
M  V30 31363 H 3060.65 0.458313 0.480463 0
M  V30 31364 H 3063.18 1.79653 0.979088 0
M  V30 31365 H 3063.19 2.29298 3.37471 0
M  V30 31366 H 3061.86 3.19703 2.66013 0
M  V30 31367 H 3060.44 1.52329 3.40368 0
M  V30 31368 N 3062.62 -1.014 1.20647 0
M  V30 31369 C 3064.03 -1.56488 1.01826 0
M  V30 31370 C 3064.39 -1.91551 -0.424596 0
M  V30 31371 O 3063.51 -1.72516 -1.30641 0
M  V30 31372 C 3064.11 -2.84343 1.84213 0
M  V30 31373 C 3062.66 -3.3595 1.69749 0
M  V30 31374 C 3061.81 -2.0923 1.81984 0
M  V30 31375 H 3064.76 -0.837516 1.34801 0
M  V30 31376 H 3064.78 -3.55858 1.34704 0
M  V30 31377 H 3064.3 -2.58792 2.8922 0
M  V30 31378 H 3062.4 -3.66455 0.673897 0
M  V30 31379 H 3062.51 -4.07977 2.5118 0
M  V30 31380 H 3060.87 -2.21806 1.25197 0
M  V30 31381 H 3061.66 -1.86102 2.8848 0
M  V30 31382 N 3064.1 -1.01278 -1.2075 0
M  V30 31383 C 3065.05 -0.579771 -2.23399 0
M  V30 31384 C 3066.02 0.398178 -1.61257 0
M  V30 31385 O 3067.2 0.298477 -1.88451 0
M  V30 31386 C 3064.34 0.0796399 -3.45008 0
M  V30 31387 C 3063.46 -0.942417 -4.21595 0
M  V30 31388 C 3062.59 -0.254457 -5.3059 0
M  V30 31389 C 3061.63 -1.26353 -5.98917 0
M  V30 31390 N 3060.77 -0.602507 -6.9951 0
M  V30 31391 H 3065.61 -1.45976 -2.59798 0
M  V30 31392 H 3063.14 -0.730809 -1.27662 0
M  V30 31393 H 3065.1 0.479052 -4.14441 0
M  V30 31394 H 3063.73 0.923299 -3.09314 0
M  V30 31395 H 3062.78 -1.46002 -3.51266 0
M  V30 31396 H 3064.1 -1.71 -4.68573 0
M  V30 31397 H 3063.25 0.200656 -6.06368 0
M  V30 31398 H 3061.99 0.545468 -4.8464 0
M  V30 31399 H 3060.99 -1.72907 -5.21903 0
M  V30 31400 H 3062.22 -2.06467 -6.46953 0
M  V30 31401 H 3060.17 0.177619 -6.55759 0
M  V30 31402 H 3060.08 -1.30822 -7.44595 0
M  V30 31403 H 3061.35 -0.170857 -7.79313 0
M  V30 31404 N 3065.58 1.36456 -0.788516 0
M  V30 31405 C 3066.81 2.03521 -0.372401 0
M  V30 31406 C 3067.22 1.59456 1.0109 0
M  V30 31407 O 3066.58 0.783564 1.64823 0
M  V30 31408 C 3066.63 3.58987 -0.425498 0
M  V30 31409 O 3066.35 4.01445 -1.75425 0
M  V30 31410 C 3067.85 4.433 0.000102246 0
M  V30 31411 H 3065.07 0.65318 -0.153611 0
M  V30 31412 H 3067.62 1.74451 -1.06711 0
M  V30 31413 H 3065.77 3.8677 0.220788 0
M  V30 31414 H 3066.19 4.96033 -1.70445 0
M  V30 31415 H 3067.66 5.5193 -0.0881889 0
M  V30 31416 H 3068.14 4.264 1.05262 0
M  V30 31417 H 3068.74 4.20777 -0.618637 0
M  V30 31418 N 3067.06 0.540456 1.48043 0
M  V30 31419 C 3068.3 0.0101923 2.02497 0
M  V30 31420 C 3068.63 -1.33284 1.41653 0
M  V30 31421 O 3067.89 -1.87649 0.555537 0
M  V30 31422 C 3068.19 -0.149945 3.57085 0
M  V30 31423 C 3067.85 1.12006 4.36767 0
M  V30 31424 C 3066.51 1.46809 4.58258 0
M  V30 31425 C 3068.87 1.9624 4.82845 0
M  V30 31426 C 3066.19 2.65726 5.23074 0
M  V30 31427 C 3068.55 3.14345 5.48972 0
M  V30 31428 C 3067.21 3.49482 5.68699 0
M  V30 31429 H 3066.48 0.00372963 0.740991 0
M  V30 31430 H 3069.13 0.708593 1.77908 0
M  V30 31431 H 3067.43 -0.931192 3.80573 0
M  V30 31432 H 3069.13 -0.575314 3.96852 0
M  V30 31433 H 3065.72 0.839031 4.20307 0
M  V30 31434 H 3069.9 1.70662 4.66035 0
M  V30 31435 H 3065.16 2.93139 5.36544 0
M  V30 31436 H 3069.33 3.79914 5.83642 0
M  V30 31437 H 3066.96 4.41724 6.18696 0
M  V30 31438 N 3068.54 -1.55163 0.276085 0
M  V30 31439 C 3069.5 -2.21264 -0.597886 0
M  V30 31440 C 3070.5 -1.1908 -1.08058 0
M  V30 31441 O 3071.69 -1.43979 -0.980601 0
M  V30 31442 C 3068.82 -2.87937 -1.82497 0
M  V30 31443 H 3070.01 -2.99893 -0.0207242 0
M  V30 31444 H 3067.57 -1.56277 0.0267097 0
M  V30 31445 H 3068.3 -2.13323 -2.44262 0
M  V30 31446 H 3068.09 -3.62819 -1.48677 0
M  V30 31447 H 3069.58 -3.38436 -2.44645 0
M  V30 31448 N 3070.01 -0.00338196 -1.576 0
M  V30 31449 C 3071.24 0.695276 -1.95399 0
M  V30 31450 C 3071.66 1.66325 -0.878505 0
M  V30 31451 O 3071.02 1.80565 0.163054 0
M  V30 31452 C 3071.07 1.40044 -3.32295 0
M  V30 31453 O 3070.17 2.51497 -3.26838 0
M  V30 31454 H 3069.51 0.184683 -0.637799 0
M  V30 31455 H 3072.04 -0.0575789 -2.04519 0
M  V30 31456 H 3072.05 1.76309 -3.67939 0
M  V30 31457 H 3070.73 0.690731 -4.10124 0
M  V30 31458 H 3069.31 2.17533 -3.02876 0
M  V30 31459 N 3071.49 1.5528 0.269423 0
M  V30 31460 C 3072.44 1.88405 1.33312 0
M  V30 31461 C 3073.41 0.735907 1.48908 0
M  V30 31462 O 3074.59 0.987507 1.63257 0
M  V30 31463 C 3071.73 2.16459 2.68774 0
M  V30 31464 C 3070.85 3.43961 2.61371 0
M  V30 31465 C 3069.98 3.61697 3.89036 0
M  V30 31466 C 3069.02 4.82879 3.76158 0
M  V30 31467 N 3068.16 4.97254 4.95664 0
M  V30 31468 H 3073 2.79128 1.04363 0
M  V30 31469 H 3070.53 1.38192 0.504123 0
M  V30 31470 H 3072.49 2.30725 3.47594 0
M  V30 31471 H 3071.12 1.28967 2.95918 0
M  V30 31472 H 3070.17 3.38148 1.74241 0
M  V30 31473 H 3071.49 4.32918 2.47756 0
M  V30 31474 H 3070.64 3.758 4.76298 0
M  V30 31475 H 3069.38 2.70931 4.05521 0
M  V30 31476 H 3068.38 4.68776 2.87279 0
M  V30 31477 H 3069.61 5.75083 3.61187 0
M  V30 31478 H 3067.56 4.0942 5.12554 0
M  V30 31479 H 3067.47 5.80262 4.84594 0
M  V30 31480 H 3068.74 5.15745 5.84489 0
M  V30 31481 N 3072.97 -0.534097 1.48274 0
M  V30 31482 C 3074.2 -1.31499 1.59736 0
M  V30 31483 C 3074.61 -1.87055 0.25608 0
M  V30 31484 O 3073.97 -1.66193 -0.754056 0
M  V30 31485 C 3074.02 -2.46873 2.64076 0
M  V30 31486 O 3073.74 -1.93607 3.92999 0
M  V30 31487 C 3075.24 -3.38753 2.85939 0
M  V30 31488 H 3072.46 -0.40004 0.53871 0
M  V30 31489 H 3075.01 -0.644728 1.94071 0
M  V30 31490 H 3073.16 -3.09791 2.32612 0
M  V30 31491 H 3073.58 -2.69098 4.50207 0
M  V30 31492 H 3075.05 -4.16067 3.62757 0
M  V30 31493 H 3075.53 -3.9373 1.9461 0
M  V30 31494 H 3076.13 -2.81631 3.18692 0
M  V30 31495 N 3074.45 -1.36793 -0.782652 0
M  V30 31496 C 3075.68 -1.34373 -1.56932 0
M  V30 31497 C 3076.09 0.0754496 -1.8905 0
M  V30 31498 O 3075.43 1.04465 -1.51105 0
M  V30 31499 C 3075.49 -2.10666 -2.91307 0
M  V30 31500 C 3075.15 -3.5971 -2.81883 0
M  V30 31501 C 3076.15 -4.5382 -2.5366 0
M  V30 31502 C 3073.84 -4.02687 -3.00247 0
M  V30 31503 C 3075.83 -5.88884 -2.43914 0
M  V30 31504 C 3073.52 -5.3784 -2.90122 0
M  V30 31505 C 3074.52 -6.30752 -2.61995 0
M  V30 31506 O 3074.2 -7.63422 -2.51876 0
M  V30 31507 H 3073.94 -0.462324 -0.493186 0
M  V30 31508 H 3076.49 -1.80581 -0.978759 0
M  V30 31509 H 3074.72 -1.59131 -3.5244 0
M  V30 31510 H 3076.41 -2.01018 -3.52628 0
M  V30 31511 H 3077.17 -4.21928 -2.39169 0
M  V30 31512 H 3073.05 -3.30737 -3.21145 0
M  V30 31513 H 3076.6 -6.61373 -2.2188 0
M  V30 31514 H 3072.49 -5.69338 -3.04179 0
M  V30 31515 H 3073.26 -7.73621 -2.67307 0
M  V30 31516 N 3075.93 1.00759 -1.21184 0
M  V30 31517 C 3077.17 1.74151 -1.02546 0
M  V30 31518 C 3077.5 1.89917 0.442339 0
M  V30 31519 O 3076.77 1.4482 1.31924 0
M  V30 31520 H 3075.35 0.645208 -0.376452 0
M  V30 31521 H 3078.01 1.21431 -1.52448 0
M  V30 31522 H 3077.1 2.74167 -1.49127 0
M  V30 31523 N 3077.4 1.01917 1.20211 0
M  V30 31524 C 3078.33 0.612063 2.25335 0
M  V30 31525 C 3079.32 -0.374156 1.65934 0
M  V30 31526 O 3080.5 -0.259019 1.92465 0
M  V30 31527 C 3077.63 -0.047843 3.47267 0
M  V30 31528 C 3076.58 0.859631 4.19278 0
M  V30 31529 C 3075.91 0.0653594 5.3466 0
M  V30 31530 C 3077.21 2.16888 4.75139 0
M  V30 31531 H 3078.9 1.49084 2.59643 0
M  V30 31532 H 3076.45 0.718285 1.24807 0
M  V30 31533 H 3078.4 -0.344221 4.19992 0
M  V30 31534 H 3077.13 -0.96135 3.12131 0
M  V30 31535 H 3075.79 1.14005 3.48423 0
M  V30 31536 H 3075.43 -0.849877 4.95768 0
M  V30 31537 H 3075.13 0.669721 5.83771 0
M  V30 31538 H 3076.66 -0.224504 6.10187 0
M  V30 31539 H 3078.07 1.93469 5.39669 0
M  V30 31540 H 3076.47 2.72432 5.34697 0
M  V30 31541 H 3077.54 2.83015 3.93739 0
M  V30 31542 N 3078.88 -1.36036 0.795742 0
M  V30 31543 C 3080.12 -2.00902 0.37655 0
M  V30 31544 C 3080.49 -1.61777 -1.03402 0
M  V30 31545 O 3081.69 -2.19282 -1.55464 0
M  V30 31546 C 3079.96 -3.53264 0.542148 0
M  V30 31547 S 3081.52 -4.38289 0.211771 0
M  V30 31548 H 3078.34 -0.69636 0.143539 0
M  V30 31549 H 3080.94 -1.65817 1.03562 0
M  V30 31550 H 3079.64 -3.79226 1.56894 0
M  V30 31551 H 3079.17 -3.93176 -0.132629 0
M  V30 31552 H 3081.19 -4.86337 -0.984435 0
M  V30 31553 N 3080.36 -0.5483 -1.47755 0
M  V30 31554 C 3081.61 -0.0208898 -2.02089 0
M  V30 31555 C 3081.93 1.33014 -1.42591 0
M  V30 31556 O 3081.2 1.86554 -0.597858 0
M  V30 31557 H 3079.78 -0.00473336 -0.746985 0
M  V30 31558 H 3082.44 -0.716288 -1.8126 0
M  V30 31559 H 3081.54 0.0738468 -3.12013 0
M  V30 31560 N 3081.84 1.55014 -0.28431 0
M  V30 31561 C 3083.09 1.98974 0.330515 0
M  V30 31562 C 3083.4 1.17624 1.56282 0
M  V30 31563 O 3084.61 1.51771 2.25118 0
M  V30 31564 C 3083.06 3.54175 0.639395 0
M  V30 31565 C 3082.67 4.44312 -0.573621 0
M  V30 31566 C 3084.41 4.06701 1.21634 0
M  V30 31567 C 3082.32 5.90918 -0.238818 0
M  V30 31568 H 3081.25 0.743181 0.127272 0
M  V30 31569 H 3083.9 1.79299 -0.390404 0
M  V30 31570 H 3082.28 3.69685 1.41946 0
M  V30 31571 H 3083.46 4.40573 -1.35028 0
M  V30 31572 H 3081.77 4.0247 -1.06804 0
M  V30 31573 H 3084.37 5.13787 1.48079 0
M  V30 31574 H 3084.71 3.5629 2.15321 0
M  V30 31575 H 3085.25 3.94666 0.498352 0
M  V30 31576 H 3081.99 6.45443 -1.14381 0
M  V30 31577 H 3081.51 5.97705 0.500892 0
M  V30 31578 H 3083.18 6.46788 0.16566 0
M  V30 31579 N 3083.32 0.0117398 1.57596 0
M  V30 31580 C 3084.56 -0.674997 1.92933 0
M  V30 31581 C 3084.92 -1.70281 0.887034 0
M  V30 31582 O 3086.12 -2.44078 1.12603 0
M  V30 31583 C 3084.39 -1.29092 3.33272 0
M  V30 31584 S 3085.95 -2.00114 3.90512 0
M  V30 31585 H 3082.77 -0.222679 0.67523 0
M  V30 31586 H 3085.37 0.0712424 1.9537 0
M  V30 31587 H 3084.08 -0.530191 4.06961 0
M  V30 31588 H 3083.61 -2.07484 3.34237 0
M  V30 31589 H 3085.62 -3.27765 3.72538 0
M  V30 31590 N 3084.79 -1.55421 -0.261185 0
M  V30 31591 C 3086.07 -1.67314 -1.01318 0
M  V30 31592 C 3086.45 -0.547391 -2.03879 0
M  V30 31593 O 3085.8 0.451044 -2.24004 0
M  V30 31594 C 3086.01 -3.07027 -1.65938 0
M  V30 31595 C 3087.36 -3.65163 -2.16659 0
M  V30 31596 O 3088.38 -3.09736 -1.75904 0
M  V30 31597 O 3087.24 -4.62299 -2.91447 0
M  V30 31598 H 3084.33 -0.679977 -0.470703 0
M  V30 31599 H 3086.88 -1.67756 -0.256104 0
M  V30 31600 H 3085.65 -3.80408 -0.916801 0
M  V30 31601 H 3085.28 -3.10535 -2.48302 0
M  V30 31602 N 3086.27 0.526227 -1.48555 0
M  V30 31603 C 3087.18 1.65728 -1.66046 0
M  V30 31604 C 3088.2 1.65311 -0.54298 0
M  V30 31605 O 3089.37 1.84194 -0.814527 0
M  V30 31606 C 3086.44 3.02181 -1.69964 0
M  V30 31607 C 3085.5 3.13423 -2.93367 0
M  V30 31608 C 3084.73 4.43367 -2.97089 0
M  V30 31609 O 3084.96 5.30687 -2.09112 0
M  V30 31610 O 3083.89 4.59054 -3.89298 0
M  V30 31611 H 3087.72 1.53907 -2.61813 0
M  V30 31612 H 3085.3 0.699736 -1.32 0
M  V30 31613 H 3087.18 3.83326 -1.7504 0
M  V30 31614 H 3085.86 3.14317 -0.773713 0
M  V30 31615 H 3084.77 2.31559 -2.93822 0
M  V30 31616 H 3086.1 3.06204 -3.85357 0
M  V30 31617 N 3087.75 1.37206 0.775387 0
M  V30 31618 C 3088.7 1.32756 1.90994 0
M  V30 31619 C 3089.69 0.216937 1.68005 0
M  V30 31620 O 3090.9 0.384754 1.7584 0
M  V30 31621 H 3087.27 0.413632 0.628023 0
M  V30 31622 H 3089.24 2.2854 1.91865 0
M  V30 31623 C 3087.99 1.14777 3.28209 0
M  V30 31624 H 3087.32 1.9949 3.46473 0
M  V30 31625 H 3088.76 1.15713 4.07905 0
M  V30 31626 C 3087.22 -0.146793 3.3658 0
M  V30 31627 O 3087.75 -1.13167 3.8543 0
M  V30 31628 N 3085.95 -0.196254 2.89937 0
M  V30 31629 H 3085.5 0.605851 2.50374 0
M  V30 31630 H 3085.46 -1.06206 2.95918 0
M  V30 31631 N 3089.23 -1.00115 1.21716 0
M  V30 31632 C 3090.48 -1.73605 1.03468 0
M  V30 31633 C 3090.8 -1.90149 -0.432261 0
M  V30 31634 O 3090.07 -1.45518 -1.31154 0
M  V30 31635 H 3088.65 -0.643202 0.379868 0
M  V30 31636 H 3091.31 -1.20621 1.5309 0
M  V30 31637 H 3090.41 -2.73373 1.50578 0
M  V30 31638 N 3090.71 -1.02553 -1.19669 0
M  V30 31639 C 3091.67 -0.608094 -2.20986 0
M  V30 31640 C 3092.67 0.326506 -1.5745 0
M  V30 31641 O 3093.86 0.113972 -1.73827 0
M  V30 31642 C 3090.99 0.110681 -3.4072 0
M  V30 31643 H 3092.19 -1.50451 -2.59431 0
M  V30 31644 H 3089.74 -0.81633 -1.33288 0
M  V30 31645 H 3090.47 1.02159 -3.07789 0
M  V30 31646 H 3090.26 -0.56084 -3.88068 0
M  V30 31647 H 3091.75 0.389774 -4.15777 0
M  V30 31648 N 3092.19 1.35612 -0.802945 0
M  V30 31649 C 3093.13 2.31749 -0.198824 0
M  V30 31650 C 3094.13 1.56459 0.649388 0
M  V30 31651 O 3095.33 1.71616 0.542959 0
M  V30 31652 H 3091.71 0.75062 -0.0455309 0
M  V30 31653 H 3093.68 2.80249 -1.02484 0
M  V30 31654 C 3092.43 3.4174 0.641006 0
M  V30 31655 H 3091.75 3.998 -0.00233272 0
M  V30 31656 H 3093.19 4.11295 1.03015 0
M  V30 31657 C 3091.65 2.84467 1.805 0
M  V30 31658 O 3092.18 2.77722 2.9023 0
M  V30 31659 N 3090.39 2.41566 1.61538 0
M  V30 31660 H 3089.93 2.47251 0.722819 0
M  V30 31661 H 3089.89 2.03593 2.39577 0
M  V30 31662 N 3093.66 0.556128 1.47462 0
M  V30 31663 C 3094.94 -0.0339548 1.95571 0
M  V30 31664 C 3095.32 -1.48666 1.49872 0
M  V30 31665 O 3094.67 -2.16286 0.737057 0
M  V30 31666 C 3094.88 0.110404 3.48825 0
M  V30 31667 C 3096.23 -0.035497 4.24585 0
M  V30 31668 O 3097.25 0.0378982 3.5618 0
M  V30 31669 O 3096.11 -0.193203 5.46158 0
M  V30 31670 H 3093.2 -0.0647376 0.824462 0
M  V30 31671 H 3095.75 0.622575 1.57867 0
M  V30 31672 H 3094.52 1.12133 3.74889 0
M  V30 31673 H 3094.14 -0.583786 3.93291 0
M  V30 31674 N 3095.14 -1.54861 0.292527 0
M  V30 31675 C 3096.39 -1.99968 -0.319228 0
M  V30 31676 C 3096.72 -1.18094 -1.54544 0
M  V30 31677 O 3095.97 -0.243003 -1.94185 0
M  V30 31678 C 3096.27 -3.49894 -0.728612 0
M  V30 31679 C 3095.94 -4.49167 0.394915 0
M  V30 31680 C 3094.6 -4.76032 0.703373 0
M  V30 31681 C 3096.95 -5.08329 1.15112 0
M  V30 31682 C 3094.28 -5.59322 1.77131 0
M  V30 31683 C 3096.63 -5.92781 2.20891 0
M  V30 31684 C 3095.29 -6.1796 2.52353 0
M  V30 31685 H 3094.56 -0.731735 -0.116814 0
M  V30 31686 H 3097.21 -1.87062 0.409863 0
M  V30 31687 H 3095.52 -3.60366 -1.53766 0
M  V30 31688 H 3097.21 -3.82214 -1.21298 0
M  V30 31689 H 3093.8 -4.28357 0.144394 0
M  V30 31690 H 3097.99 -4.87583 0.926076 0
M  V30 31691 H 3093.24 -5.77071 2.01989 0
M  V30 31692 H 3097.42 -6.37653 2.7995 0
M  V30 31693 H 3095.04 -6.8229 3.35237 0
M  V30 31694 N 3096.62 -0.0200973 -1.57587 0
M  V30 31695 C 3097.55 0.999259 -2.05159 0
M  V30 31696 C 3098.53 1.32285 -0.945489 0
M  V30 31697 O 3099.71 1.44106 -1.21514 0
M  V30 31698 C 3096.84 2.32168 -2.46608 0
M  V30 31699 C 3095.89 2.15333 -3.68149 0
M  V30 31700 S 3096.72 1.46056 -5.15197 0
M  V30 31701 C 3097.88 2.79687 -5.59934 0
M  V30 31702 H 3098.11 0.594278 -2.913 0
M  V30 31703 H 3095.64 0.191345 -1.5321 0
M  V30 31704 H 3097.6 3.08197 -2.71155 0
M  V30 31705 H 3096.26 2.69801 -1.60829 0
M  V30 31706 H 3095.45 3.13075 -3.94969 0
M  V30 31707 H 3095.06 1.47448 -3.43708 0
M  V30 31708 H 3097.35 3.75947 -5.63622 0
M  V30 31709 H 3098.29 2.57543 -6.59604 0
M  V30 31710 H 3098.7 2.8452 -4.87554 0
M  V30 31711 N 3098.1 1.55557 0.252939 0
M  V30 31712 C 3099.03 1.92822 1.31688 0
M  V30 31713 C 3100.01 0.792426 1.50515 0
M  V30 31714 O 3101.19 1.05222 1.63224 0
M  V30 31715 C 3098.32 2.21766 2.67277 0
M  V30 31716 C 3097.28 3.37541 2.63154 0
M  V30 31717 C 3096.6 3.52012 4.02482 0
M  V30 31718 C 3097.9 4.73396 2.20667 0
M  V30 31719 H 3099.6 2.81941 1.00746 0
M  V30 31720 H 3097.14 1.35651 0.483195 0
M  V30 31721 H 3099.1 2.46425 3.41837 0
M  V30 31722 H 3097.82 1.29468 2.99843 0
M  V30 31723 H 3096.48 3.12882 1.91052 0
M  V30 31724 H 3096.13 2.57144 4.32303 0
M  V30 31725 H 3095.83 4.29864 4.00613 0
M  V30 31726 H 3097.35 3.78985 4.78751 0
M  V30 31727 H 3098.77 4.97466 2.84957 0
M  V30 31728 H 3097.16 5.54307 2.29921 0
M  V30 31729 H 3098.23 4.70864 1.15823 0
M  V30 31730 N 3099.58 -0.518341 1.48832 0
M  V30 31731 C 3100.99 -0.847956 1.3521 0
M  V30 31732 C 3101.19 -1.98037 0.371962 0
M  V30 31733 O 3100.25 -2.51686 -0.202637 0
M  V30 31734 C 3101.56 -1.2045 2.75522 0
M  V30 31735 C 3103.11 -1.31372 2.84096 0
M  V30 31736 C 3103.58 -1.70364 4.25135 0
M  V30 31737 N 3105.07 -1.77445 4.27864 0
M  V30 31738 C 3105.81 -2.09025 5.33944 0
M  V30 31739 N 3105.31 -2.38948 6.50289 0
M  V30 31740 N 3107.1 -2.1013 5.21346 0
M  V30 31741 H 3099.25 0.228661 2.11166 0
M  V30 31742 H 3101.51 0.0396765 0.947169 0
M  V30 31743 H 3101.22 -0.44593 3.48862 0
M  V30 31744 H 3101.09 -2.15199 3.09789 0
M  V30 31745 H 3103.48 -2.06304 2.11004 0
M  V30 31746 H 3103.56 -0.347158 2.53433 0
M  V30 31747 H 3103.2 -0.959887 4.98747 0
M  V30 31748 H 3103.13 -2.6809 4.5325 0
M  V30 31749 H 3105.63 -1.56551 3.43948 0
M  V30 31750 H 3105.94 -2.62184 7.26966 0
M  V30 31751 H 3104.28 -2.36442 6.53544 0
M  V30 31752 H 3107.47 -1.86218 4.29466 0
M  V30 31753 H 3107.65 -2.34408 6.04117 0
M  V30 31754 N 3101.05 -1.37615 -0.7681 0
M  V30 31755 C 3102.33 -1.23557 -1.51635 0
M  V30 31756 C 3102.71 0.169294 -2.1042 0
M  V30 31757 O 3102.06 1.17731 -1.95836 0
M  V30 31758 C 3102.27 -2.33443 -2.59432 0
M  V30 31759 C 3103.62 -2.71163 -3.26735 0
M  V30 31760 O 3104.64 -2.32647 -2.69729 0
M  V30 31761 O 3103.5 -3.37531 -4.29808 0
M  V30 31762 H 3100.59 -0.482344 -0.671769 0
M  V30 31763 H 3103.14 -1.49405 -0.804752 0
M  V30 31764 H 3101.91 -3.27505 -2.1414 0
M  V30 31765 H 3101.53 -2.09079 -3.38189 0
M  V30 31766 N 3102.53 0.994677 -1.22245 0
M  V30 31767 C 3103.78 1.73054 -1.04387 0
M  V30 31768 C 3104.1 1.90375 0.422171 0
M  V30 31769 O 3103.37 1.46211 1.30381 0
M  V30 31770 H 3101.95 0.641179 -0.383274 0
M  V30 31771 H 3104.61 1.19808 -1.53728 0
M  V30 31772 H 3103.71 2.7257 -1.52026 0
M  V30 31773 N 3104.01 1.03186 1.19123 0
M  V30 31774 C 3105.24 0.749784 1.92836 0
M  V30 31775 C 3105.65 -0.69182 1.75668 0
M  V30 31776 O 3105.01 -1.47074 1.08053 0
M  V30 31777 C 3105.06 1.09532 3.44507 0
M  V30 31778 O 3104.78 2.48031 3.61126 0
M  V30 31779 C 3106.28 0.836473 4.35337 0
M  V30 31780 H 3103.5 0.274116 0.612455 0
M  V30 31781 H 3106.05 1.37715 1.51178 0
M  V30 31782 H 3104.2 0.513073 3.83987 0
M  V30 31783 H 3104.62 2.60992 4.54955 0
M  V30 31784 H 3106.09 1.12818 5.40348 0
M  V30 31785 H 3106.57 -0.229025 4.38602 0
M  V30 31786 H 3107.17 1.40159 4.01541 0
M  V30 31787 N 3105.49 -1.35184 0.810125 0
M  V30 31788 C 3106.73 -1.98961 0.392733 0
M  V30 31789 C 3107.07 -1.64111 -1.03832 0
M  V30 31790 O 3106.34 -0.90623 -1.72098 0
M  V30 31791 C 3106.63 -3.55392 0.580411 0
M  V30 31792 C 3106.48 -4.00027 2.05666 0
M  V30 31793 C 3107.8 -4.40099 0.00830353 0
M  V30 31794 H 3104.92 -0.722761 0.14417 0
M  V30 31795 H 3107.56 -1.6028 1.02032 0
M  V30 31796 H 3105.71 -3.88473 0.0461789 0
M  V30 31797 H 3107.38 -3.77339 2.65354 0
M  V30 31798 H 3105.62 -3.50807 2.55181 0
M  V30 31799 H 3106.29 -5.08879 2.13884 0
M  V30 31800 H 3108.77 -4.13498 0.46459 0
M  V30 31801 H 3107.65 -5.48638 0.16951 0
M  V30 31802 H 3107.91 -4.28562 -1.08569 0
M  V30 31803 N 3106.97 -0.56394 -1.47165 0
M  V30 31804 C 3108.19 -0.047465 -2.06846 0
M  V30 31805 C 3108.61 1.24925 -1.4156 0
M  V30 31806 O 3107.97 1.751 -0.514407 0
M  V30 31807 C 3108.02 0.144767 -3.6121 0
M  V30 31808 O 3107.74 -1.10061 -4.2405 0
M  V30 31809 C 3109.24 0.697753 -4.37774 0
M  V30 31810 H 3106.46 -0.0489014 -0.669216 0
M  V30 31811 H 3109 -0.779269 -1.8907 0
M  V30 31812 H 3107.16 0.826723 -3.78476 0
M  V30 31813 H 3107.57 -0.902571 -5.16676 0
M  V30 31814 H 3109.05 0.78152 -5.4644 0
M  V30 31815 H 3109.52 1.71056 -4.0452 0
M  V30 31816 H 3110.13 0.0512769 -4.25269 0
M  V30 31817 N 3108.44 1.54704 -0.300735 0
M  V30 31818 C 3109.67 2.04546 0.311234 0
M  V30 31819 C 3110.09 1.17803 1.47539 0
M  V30 31820 O 3109.44 0.203602 1.81361 0
M  V30 31821 C 3109.5 3.53254 0.767721 0
M  V30 31822 O 3109.22 4.36699 -0.350104 0
M  V30 31823 C 3110.72 4.19092 1.44487 0
M  V30 31824 H 3107.94 0.66758 0.0676562 0
M  V30 31825 H 3110.48 1.99704 -0.440289 0
M  V30 31826 H 3108.64 3.58457 1.46927 0
M  V30 31827 H 3109.05 5.245 0.00524818 0
M  V30 31828 H 3110.52 5.24668 1.71544 0
M  V30 31829 H 3111 3.68812 2.38484 0
M  V30 31830 H 3111.61 4.17964 0.786507 0
M  V30 31831 N 3109.92 0.0284543 1.57574 0
M  V30 31832 C 3111.2 -0.688946 1.83065 0
M  V30 31833 C 3111.58 -1.90372 0.912224 0
M  V30 31834 O 3110.93 -2.28477 -0.032327 0
M  V30 31835 C 3111.14 -1.06779 3.32264 0
M  V30 31836 C 3112.49 -1.45971 3.9872 0
M  V30 31837 O 3113.51 -1.16079 3.36755 0
M  V30 31838 O 3112.37 -2.01664 5.07931 0
M  V30 31839 H 3109.46 -0.337931 0.754806 0
M  V30 31840 H 3112.01 0.0560853 1.69607 0
M  V30 31841 H 3110.78 -0.203167 3.90772 0
M  V30 31842 H 3110.4 -1.87101 3.50826 0
M  V30 31843 N 3111.4 -1.55689 -0.244686 0
M  V30 31844 C 3112.65 -1.78803 -0.969592 0
M  V30 31845 C 3113 -0.597748 -1.82879 0
M  V30 31846 O 3112.29 0.408945 -1.87185 0
M  V30 31847 C 3112.49 -3.05086 -1.86164 0
M  V30 31848 C 3112.32 -4.36283 -1.09029 0
M  V30 31849 C 3111.09 -4.99015 -0.794497 0
M  V30 31850 C 3113.29 -5.12177 -0.466793 0
M  V30 31851 N 3111.27 -6.139 0.000687852 0
M  V30 31852 C 3112.64 -6.197 0.192864 0
M  V30 31853 C 3114.69 -4.96467 -0.377484 0
M  V30 31854 C 3113.4 -7.1322 0.933258 0
M  V30 31855 C 3115.42 -5.90367 0.349385 0
M  V30 31856 C 3114.78 -6.97299 0.997671 0
M  V30 31857 H 3110.88 -0.706215 -0.335833 0
M  V30 31858 H 3113.47 -1.93184 -0.242525 0
M  V30 31859 H 3111.64 -2.9203 -2.56072 0
M  V30 31860 H 3113.37 -3.16486 -2.52228 0
M  V30 31861 H 3110.13 -4.60485 -1.10683 0
M  V30 31862 H 3110.55 -6.75896 0.386438 0
M  V30 31863 H 3115.19 -4.1387 -0.864357 0
M  V30 31864 H 3112.91 -7.95316 1.43173 0
M  V30 31865 H 3116.5 -5.80288 0.419184 0
M  V30 31866 H 3115.38 -7.68706 1.55114 0
M  V30 31867 N 3112.88 0.510441 -1.49105 0
M  V30 31868 C 3113.83 1.61302 -1.65077 0
M  V30 31869 C 3114.8 1.58634 -0.49239 0
M  V30 31870 O 3115.98 1.76764 -0.718272 0
M  V30 31871 C 3113.12 2.9949 -1.71463 0
M  V30 31872 C 3112.23 3.12245 -2.98541 0
M  V30 31873 C 3111.37 4.4111 -2.95965 0
M  V30 31874 C 3110.41 4.47464 -4.17663 0
M  V30 31875 N 3109.54 5.67744 -4.13051 0
M  V30 31876 H 3114.38 1.46991 -2.59225 0
M  V30 31877 H 3111.92 0.715323 -1.28536 0
M  V30 31878 H 3113.88 3.79574 -1.73146 0
M  V30 31879 H 3112.51 3.12527 -0.807889 0
M  V30 31880 H 3111.56 2.25287 -3.06513 0
M  V30 31881 H 3112.87 3.128 -3.88532 0
M  V30 31882 H 3112.03 5.29505 -2.96158 0
M  V30 31883 H 3110.77 4.43106 -2.03735 0
M  V30 31884 H 3109.77 3.57473 -4.17723 0
M  V30 31885 H 3111 4.47191 -5.11074 0
M  V30 31886 H 3108.94 5.706 -3.23653 0
M  V30 31887 H 3108.86 5.69876 -4.96767 0
M  V30 31888 H 3110.13 6.58372 -4.17333 0
M  V30 31889 N 3114.36 1.38021 0.760791 0
M  V30 31890 C 3115.58 1.37051 1.54999 0
M  V30 31891 C 3116 -0.041493 1.88754 0
M  V30 31892 O 3115.36 -1.00621 1.52255 0
M  V30 31893 C 3115.41 2.21933 2.85356 0
M  V30 31894 O 3115.13 3.57632 2.53043 0
M  V30 31895 C 3116.63 2.29064 3.79532 0
M  V30 31896 H 3113.85 0.46904 0.479836 0
M  V30 31897 H 3116.39 1.81506 0.942116 0
M  V30 31898 H 3114.55 1.80959 3.42538 0
M  V30 31899 H 3114.96 4.02247 3.36597 0
M  V30 31900 H 3116.44 2.92757 4.67972 0
M  V30 31901 H 3116.91 1.30221 4.19451 0
M  V30 31902 H 3117.52 2.70398 3.28276 0
M  V30 31903 N 3115.83 -0.98818 1.22771 0
M  V30 31904 C 3116.76 -2.09736 1.02631 0
M  V30 31905 C 3117.75 -1.70013 -0.0542912 0
M  V30 31906 O 3118.93 -1.93895 0.108845 0
M  V30 31907 C 3116.06 -3.4193 0.608362 0
M  V30 31908 C 3115.01 -3.95522 1.63543 0
M  V30 31909 C 3114.34 -5.2382 1.07317 0
M  V30 31910 C 3115.64 -4.25671 3.02657 0
M  V30 31911 H 3117.33 -2.26843 1.95404 0
M  V30 31912 H 3114.88 -1.09009 0.940907 0
M  V30 31913 H 3116.83 -4.18941 0.454552 0
M  V30 31914 H 3115.56 -3.24665 -0.355038 0
M  V30 31915 H 3114.22 -3.20648 1.77709 0
M  V30 31916 H 3113.86 -5.02899 0.100982 0
M  V30 31917 H 3113.56 -5.60643 1.75935 0
M  V30 31918 H 3115.09 -6.0346 0.931044 0
M  V30 31919 H 3116.5 -4.93461 2.91837 0
M  V30 31920 H 3114.9 -4.73678 3.68442 0
M  V30 31921 H 3115.97 -3.33255 3.52234 0
M  V30 31922 N 3117.31 -1.03816 -1.18575 0
M  V30 31923 C 3118.56 -0.741166 -1.88771 0
M  V30 31924 C 3118.89 0.729095 -1.79994 0
M  V30 31925 O 3118.17 1.53184 -1.19854 0
M  V30 31926 C 3118.45 -1.20473 -3.3935 0
M  V30 31927 C 3118.3 -2.73691 -3.5695 0
M  V30 31928 C 3119.62 -0.792817 -4.329 0
M  V30 31929 H 3116.74 -0.27072 -0.685478 0
M  V30 31930 H 3119.38 -1.28973 -1.39521 0
M  V30 31931 H 3117.53 -0.738041 -3.81425 0
M  V30 31932 H 3119.2 -3.28378 -3.23984 0
M  V30 31933 H 3117.45 -3.13637 -2.9969 0
M  V30 31934 H 3118.12 -3.01185 -4.62593 0
M  V30 31935 H 3120.59 -1.19437 -3.9859 0
M  V30 31936 H 3119.47 -1.14495 -5.36826 0
M  V30 31937 H 3119.73 0.304217 -4.41052 0
M  V30 31938 N 3118.79 1.34753 -0.817283 0
M  V30 31939 C 3119.72 2.28388 -0.192736 0
M  V30 31940 C 3120.74 1.50772 0.61414 0
M  V30 31941 O 3121.92 1.72871 0.444746 0
M  V30 31942 C 3119.02 3.30523 0.748871 0
M  V30 31943 C 3118.2 4.37398 -0.0139531 0
M  V30 31944 C 3117.26 5.19326 0.847734 0
M  V30 31945 O 3116.28 5.68436 0.294771 0
M  V30 31946 N 3117.48 5.38483 2.16833 0
M  V30 31947 H 3120.25 2.82624 -0.997172 0
M  V30 31948 H 3117.81 1.47216 -0.673722 0
M  V30 31949 H 3119.8 3.82228 1.3298 0
M  V30 31950 H 3118.37 2.76723 1.45408 0
M  V30 31951 H 3117.59 3.86483 -0.77616 0
M  V30 31952 H 3118.88 5.05934 -0.53928 0
M  V30 31953 H 3118.28 5.00247 2.64139 0
M  V30 31954 H 3116.84 5.93328 2.69825 0
M  V30 31955 N 3120.27 0.571737 1.46864 0
M  V30 31956 C 3121.18 -0.17053 2.33979 0
M  V30 31957 C 3122.2 -0.897212 1.49084 0
M  V30 31958 O 3123.37 -0.862856 1.8198 0
M  V30 31959 C 3120.44 -1.17825 3.26065 0
M  V30 31960 C 3119.5 -0.457424 4.26856 0
M  V30 31961 C 3118.73 -1.41713 5.14542 0
M  V30 31962 O 3118.95 -2.65296 5.0495 0
M  V30 31963 O 3117.89 -0.933695 5.94614 0
M  V30 31964 H 3121.71 0.544449 2.9878 0
M  V30 31965 H 3119.3 0.332223 1.45659 0
M  V30 31966 H 3121.18 -1.75958 3.82906 0
M  V30 31967 H 3119.86 -1.87489 2.63874 0
M  V30 31968 H 3118.76 0.165472 3.73734 0
M  V30 31969 H 3120.1 0.198039 4.91801 0
M  V30 31970 N 3121.75 -1.54542 0.308935 0
M  V30 31971 C 3122.99 -2.01304 -0.291276 0
M  V30 31972 C 3123.35 -1.19342 -1.50915 0
M  V30 31973 O 3122.64 -0.263757 -1.89776 0
M  V30 31974 C 3122.84 -3.50647 -0.69146 0
M  V30 31975 C 3122.66 -4.47065 0.486086 0
M  V30 31976 C 3121.43 -4.95694 0.980603 0
M  V30 31977 C 3123.63 -4.96709 1.33361 0
M  V30 31978 N 3121.61 -5.75983 2.12408 0
M  V30 31979 C 3122.99 -5.74777 2.32446 0
M  V30 31980 C 3125.04 -4.78879 1.36306 0
M  V30 31981 C 3123.74 -6.36915 3.34263 0
M  V30 31982 C 3125.77 -5.41841 2.36986 0
M  V30 31983 C 3125.13 -6.19749 3.348 0
M  V30 31984 H 3121.23 -0.778786 -0.0708281 0
M  V30 31985 H 3123.81 -1.89648 0.440654 0
M  V30 31986 H 3121.99 -3.62578 -1.39255 0
M  V30 31987 H 3123.72 -3.84194 -1.27189 0
M  V30 31988 H 3120.47 -4.70345 0.554272 0
M  V30 31989 H 3120.9 -6.20809 2.70046 0
M  V30 31990 H 3125.54 -4.18221 0.620546 0
M  V30 31991 H 3123.26 -6.96702 4.09429 0
M  V30 31992 H 3126.84 -5.2997 2.40049 0
M  V30 31993 H 3125.72 -6.67604 4.1143 0
M  V30 31994 N 3123.23 -0.0368104 -1.57557 0
M  V30 31995 C 3124.45 0.650133 -1.9642 0
M  V30 31996 C 3124.87 1.65219 -0.913685 0
M  V30 31997 O 3124.23 1.82205 0.103686 0
M  V30 31998 C 3124.28 1.34974 -3.35357 0
M  V30 31999 O 3124 0.387828 -4.3638 0
M  V30 32000 C 3125.5 2.12779 -3.88896 0
M  V30 32001 H 3122.72 0.178745 -0.646754 0
M  V30 32002 H 3125.26 -0.0988556 -2.04261 0
M  V30 32003 H 3123.42 2.05007 -3.28711 0
M  V30 32004 H 3123.83 0.885506 -5.16971 0
M  V30 32005 H 3125.31 2.57172 -4.88433 0
M  V30 32006 H 3125.78 2.97003 -3.23552 0
M  V30 32007 H 3126.39 1.47687 -3.98834 0
M  V30 32008 N 3124.7 1.55817 0.236426 0
M  V30 32009 C 3125.95 1.78401 0.964407 0
M  V30 32010 C 3126.28 0.6039 1.84572 0
M  V30 32011 O 3125.56 -0.397439 1.90396 0
M  V30 32012 C 3125.84 3.10954 1.81603 0
M  V30 32013 C 3125.69 4.39388 0.962206 0
M  V30 32014 C 3127.01 3.39822 2.79659 0
M  V30 32015 H 3124.13 0.649032 0.34918 0
M  V30 32016 H 3126.77 1.88551 0.234214 0
M  V30 32017 H 3124.92 3.02432 2.43858 0
M  V30 32018 H 3126.6 4.59912 0.357539 0
M  V30 32019 H 3124.84 4.32978 0.266986 0
M  V30 32020 H 3125.51 5.28541 1.59212 0
M  V30 32021 H 3127.99 3.48374 2.2754 0
M  V30 32022 H 3126.86 4.33766 3.3636 0
M  V30 32023 H 3127.12 2.6125 3.56652 0
M  V30 32024 N 3126.18 -0.502526 1.49373 0
M  V30 32025 C 3127.11 -1.6209 1.62048 0
M  V30 32026 C 3128.13 -1.54827 0.503248 0
M  V30 32027 O 3129.32 -1.60787 0.775237 0
M  V30 32028 C 3126.42 -3.00873 1.55976 0
M  V30 32029 C 3125.59 -3.33336 2.83206 0
M  V30 32030 C 3124.65 -4.51524 2.70208 0
M  V30 32031 O 3123.67 -4.53383 3.4414 0
M  V30 32032 N 3124.88 -5.51347 1.81651 0
M  V30 32033 H 3127.64 -1.51645 2.58503 0
M  V30 32034 H 3125.2 -0.69037 1.46443 0
M  V30 32035 H 3127.19 -3.77856 1.44937 0
M  V30 32036 H 3125.76 -3.05251 0.673849 0
M  V30 32037 H 3124.98 -2.45265 3.08608 0
M  V30 32038 H 3126.27 -3.51822 3.67557 0
M  V30 32039 H 3125.67 -5.52643 1.20839 0
M  V30 32040 H 3124.23 -6.27438 1.76535 0
M  V30 32041 N 3127.66 -1.38422 -0.75346 0
M  V30 32042 C 3129.08 -1.19622 -1.05654 0
M  V30 32043 C 3129.28 -0.0449797 -2.0145 0
M  V30 32044 O 3128.33 0.60921 -2.45041 0
M  V30 32045 C 3129.64 -2.52268 -1.6365 0
M  V30 32046 C 3131.19 -2.58952 -1.75821 0
M  V30 32047 C 3131.67 -3.91774 -2.37229 0
M  V30 32048 N 3133.16 -3.93314 -2.44659 0
M  V30 32049 C 3133.89 -4.92847 -2.93069 0
M  V30 32050 N 3133.39 -6.02778 -3.41513 0
M  V30 32051 N 3135.18 -4.80238 -2.9211 0
M  V30 32052 H 3127.33 -2.12073 -0.117762 0
M  V30 32053 H 3129.6 -0.941015 -0.114873 0
M  V30 32054 H 3129.3 -3.36967 -1.00728 0
M  V30 32055 H 3129.18 -2.70672 -2.6271 0
M  V30 32056 H 3131.56 -1.74648 -2.3787 0
M  V30 32057 H 3131.64 -2.44415 -0.75465 0
M  V30 32058 H 3131.29 -4.765 -1.75813 0
M  V30 32059 H 3131.22 -4.03622 -3.38226 0
M  V30 32060 H 3133.71 -3.13913 -2.10397 0
M  V30 32061 H 3134.02 -6.74656 -3.76907 0
M  V30 32062 H 3132.37 -6.06397 -3.39569 0
M  V30 32063 H 3135.56 -3.93468 -2.53575 0
M  V30 32064 H 3135.73 -5.57958 -3.29525 0
M  V30 32065 N 3129.14 0.981655 -1.23294 0
M  V30 32066 C 3130.55 1.53733 -1.05939 0
M  V30 32067 C 3130.9 1.92609 0.373661 0
M  V30 32068 O 3130.02 1.75919 1.26021 0
M  V30 32069 C 3130.62 2.79359 -1.91687 0
M  V30 32070 C 3129.18 3.31331 -1.78597 0
M  V30 32071 C 3128.33 2.04332 -1.87467 0
M  V30 32072 H 3131.28 0.801481 -1.36974 0
M  V30 32073 H 3131.3 3.52162 -1.44092 0
M  V30 32074 H 3130.81 2.51033 -2.9598 0
M  V30 32075 H 3128.91 3.6454 -0.770819 0
M  V30 32076 H 3129.02 4.01174 -2.61909 0
M  V30 32077 H 3127.39 2.18409 -1.31034 0
M  V30 32078 H 3128.17 1.78388 -2.93313 0
M  V30 32079 N 3130.62 1.04444 1.18022 0
M  V30 32080 C 3131.86 0.748573 1.87725 0
M  V30 32081 C 3132.18 -0.726125 1.80976 0
M  V30 32082 O 3131.45 -1.52421 1.23064 0
M  V30 32083 H 3130.03 0.273909 0.69497 0
M  V30 32084 H 3132.7 1.32199 1.43211 0
M  V30 32085 H 3131.79 1.0568 2.93664 0
M  V30 32086 N 3132.09 -1.34317 0.824418 0
M  V30 32087 C 3133.03 -2.28283 0.204845 0
M  V30 32088 C 3134.04 -1.51095 -0.606136 0
M  V30 32089 O 3135.23 -1.73104 -0.435572 0
M  V30 32090 C 3132.33 -3.30915 -0.731332 0
M  V30 32091 C 3131.5 -4.37384 0.0371491 0
M  V30 32092 C 3130.56 -5.19769 -0.82018 0
M  V30 32093 O 3129.59 -5.68585 -0.264621 0
M  V30 32094 N 3130.79 -5.39625 -2.13975 0
M  V30 32095 H 3133.55 -2.82092 1.01215 0
M  V30 32096 H 3131.11 -1.46857 0.681519 0
M  V30 32097 H 3133.11 -3.82928 -1.30951 0
M  V30 32098 H 3131.68 -2.7749 -1.43938 0
M  V30 32099 H 3130.9 -3.86066 0.796646 0
M  V30 32100 H 3132.18 -5.05641 0.566103 0
M  V30 32101 H 3131.58 -5.01641 -2.61483 0
M  V30 32102 H 3130.14 -5.9475 -2.66675 0
M  V30 32103 N 3133.57 -0.579517 -1.46558 0
M  V30 32104 C 3134.8 -0.0694011 -2.06784 0
M  V30 32105 C 3135.21 1.23417 -1.42877 0
M  V30 32106 O 3134.57 1.74545 -0.53295 0
M  V30 32107 C 3134.62 0.106448 -3.61343 0
M  V30 32108 O 3134.34 -1.14552 -4.22859 0
M  V30 32109 C 3135.84 0.651282 -4.3849 0
M  V30 32110 H 3133.06 -0.0559966 -0.668659 0
M  V30 32111 H 3135.61 -0.799278 -1.88233 0
M  V30 32112 H 3133.76 0.786534 -3.79332 0
M  V30 32113 H 3134.18 -0.957321 -5.15689 0
M  V30 32114 H 3135.65 0.723518 -5.47238 0
M  V30 32115 H 3136.13 1.66755 -4.06312 0
M  V30 32116 H 3136.73 0.00616854 -4.253 0
M  V30 32117 N 3135.05 1.54376 -0.317127 0
M  V30 32118 C 3136.29 2.0236 0.288047 0
M  V30 32119 C 3136.65 1.20041 1.49847 0
M  V30 32120 O 3137.86 1.57797 2.17608 0
M  V30 32121 C 3136.13 3.51979 0.62013 0
M  V30 32122 S 3137.69 4.21905 1.20587 0
M  V30 32123 H 3134.5 0.705594 0.0875107 0
M  V30 32124 H 3137.11 1.9028 -0.448752 0
M  V30 32125 H 3135.81 4.09517 -0.269054 0
M  V30 32126 H 3135.34 3.68127 1.3873 0
M  V30 32127 H 3137.36 4.29027 2.493 0
M  V30 32128 N 3136.53 0.0451655 1.57535 0
M  V30 32129 C 3137.46 -0.960336 2.08111 0
M  V30 32130 C 3138.47 -1.27863 1.00772 0
M  V30 32131 O 3139.66 -1.24047 1.28353 0
M  V30 32132 C 3136.76 -2.2835 2.50418 0
M  V30 32133 C 3135.94 -2.14802 3.81024 0
M  V30 32134 C 3134.99 -3.3019 4.09708 0
M  V30 32135 O 3134.02 -3.06362 4.7972 0
M  V30 32136 N 3135.22 -4.54482 3.61146 0
M  V30 32137 H 3137.99 -0.5287 2.95 0
M  V30 32138 H 3135.55 -0.14122 1.61283 0
M  V30 32139 H 3137.54 -3.044 2.66688 0
M  V30 32140 H 3136.11 -2.63101 1.6881 0
M  V30 32141 H 3135.33 -1.2338 3.74394 0
M  V30 32142 H 3136.62 -2.0297 4.66563 0
M  V30 32143 H 3136.02 -4.76733 3.04535 0
M  V30 32144 H 3134.57 -5.27647 3.82665 0
M  V30 32145 N 3138.01 -1.5594 -0.228159 0
M  V30 32146 C 3139.42 -1.68895 -0.795704 0
M  V30 32147 C 3139.77 -0.645999 -1.8526 0
M  V30 32148 O 3138.89 0.204162 -2.15435 0
M  V30 32149 C 3139.49 -3.062 -1.45007 0
M  V30 32150 C 3138.05 -3.21032 -1.96509 0
M  V30 32151 C 3137.19 -2.6481 -0.822872 0
M  V30 32152 H 3140.15 -1.587 -0.00362061 0
M  V30 32153 H 3140.17 -3.01689 -2.3187 0
M  V30 32154 H 3139.68 -3.82085 -0.68061 0
M  V30 32155 H 3137.78 -2.50003 -2.76277 0
M  V30 32156 H 3137.89 -4.28169 -2.1496 0
M  V30 32157 H 3136.26 -2.23118 -1.22842 0
M  V30 32158 H 3137.04 -3.43236 -0.066189 0
M  V30 32159 N 3139.48 0.494597 -1.49638 0
M  V30 32160 C 3140.73 1.24497 -1.58693 0
M  V30 32161 C 3141.05 1.93559 -0.281797 0
M  V30 32162 O 3142.25 2.70338 -0.250972 0
M  V30 32163 C 3140.71 2.26086 -2.80024 0
M  V30 32164 C 3140.32 1.62933 -4.17321 0
M  V30 32165 C 3142.06 3.01911 -2.98413 0
M  V30 32166 C 3139.97 2.6267 -5.29866 0
M  V30 32167 H 3138.9 0.468356 -0.590896 0
M  V30 32168 H 3141.55 0.518081 -1.76035 0
M  V30 32169 H 3139.93 3.01965 -2.5619 0
M  V30 32170 H 3141.1 0.930028 -4.51317 0
M  V30 32171 H 3139.42 0.994748 -4.04344 0
M  V30 32172 H 3142.02 3.76509 -3.79664 0
M  V30 32173 H 3142.36 3.59906 -2.09221 0
M  V30 32174 H 3142.89 2.33147 -3.22316 0
M  V30 32175 H 3139.63 2.09447 -6.21138 0
M  V30 32176 H 3139.15 3.30822 -5.00317 0
M  V30 32177 H 3140.83 3.2497 -5.59467 0
M  V30 32178 N 3140.96 1.3882 0.746109 0
M  V30 32179 C 3141.89 1.39375 1.87341 0
M  V30 32180 C 3142.87 0.258613 1.68123 0
M  V30 32181 O 3144.06 0.462802 1.88605 0
M  V30 32182 C 3141.19 1.22549 3.2496 0
M  V30 32183 C 3140.14 2.33346 3.58795 0
M  V30 32184 C 3139.47 2.01618 4.95232 0
M  V30 32185 C 3140.77 3.7563 3.62904 0
M  V30 32186 H 3142.46 2.33712 1.87134 0
M  V30 32187 H 3140.01 1.12497 0.898917 0
M  V30 32188 H 3141.96 1.21561 4.03486 0
M  V30 32189 H 3140.69 0.246764 3.25666 0
M  V30 32190 H 3139.34 2.33532 2.82592 0
M  V30 32191 H 3138.99 1.02211 4.92506 0
M  V30 32192 H 3138.69 2.75828 5.18838 0
M  V30 32193 H 3140.22 2.02261 5.76127 0
M  V30 32194 H 3141.63 3.77433 4.31529 0
M  V30 32195 H 3140.03 4.49107 3.98023 0
M  V30 32196 H 3141.1 4.07407 2.6296 0
M  V30 32197 N 3142.44 -0.975103 1.23812 0
M  V30 32198 C 3143.35 -2.10247 1.04084 0
M  V30 32199 C 3144.37 -1.73992 -0.0162098 0
M  V30 32200 O 3145.54 -2.00591 0.180381 0
M  V30 32201 C 3142.61 -3.4074 0.640073 0
M  V30 32202 C 3141.67 -3.90988 1.77277 0
M  V30 32203 C 3140.9 -5.15253 1.39103 0
M  V30 32204 O 3141.12 -5.69724 0.277583 0
M  V30 32205 O 3140.06 -5.59701 2.21402 0
M  V30 32206 H 3143.88 -2.29782 1.98579 0
M  V30 32207 H 3141.47 -1.08631 1.02565 0
M  V30 32208 H 3143.35 -4.19223 0.427758 0
M  V30 32209 H 3142.03 -3.22523 -0.275833 0
M  V30 32210 H 3140.93 -3.13599 2.03977 0
M  V30 32211 H 3142.27 -4.13669 2.66718 0
M  V30 32212 N 3143.92 -1.05068 -1.17467 0
M  V30 32213 C 3144.83 -0.661262 -2.25088 0
M  V30 32214 C 3145.84 0.31709 -1.71086 0
M  V30 32215 O 3147.02 0.169498 -2.00685 0
M  V30 32216 C 3144.09 -0.0407024 -3.46676 0
M  V30 32217 C 3143.15 -1.06934 -4.15769 0
M  V30 32218 C 3142.38 -0.478301 -5.31552 0
M  V30 32219 O 3142.6 0.712615 -5.65931 0
M  V30 32220 O 3141.54 -1.21195 -5.89572 0
M  V30 32221 H 3145.36 -1.55815 -2.60683 0
M  V30 32222 H 3142.95 -0.822169 -1.24743 0
M  V30 32223 H 3144.83 0.304238 -4.203 0
M  V30 32224 H 3143.5 0.829854 -3.12882 0
M  V30 32225 H 3142.41 -1.46625 -3.44168 0
M  V30 32226 H 3143.74 -1.911 -4.53587 0
M  V30 32227 N 3145.4 1.33878 -0.831529 0
M  V30 32228 C 3146.33 2.28171 -0.216948 0
M  V30 32229 C 3147.34 1.51415 0.598114 0
M  V30 32230 O 3148.53 1.73333 0.426385 0
M  V30 32231 C 3145.63 3.31298 0.713772 0
M  V30 32232 C 3144.8 4.37358 -0.0603442 0
M  V30 32233 C 3143.86 5.20196 0.792604 0
M  V30 32234 O 3142.89 5.68717 0.234464 0
M  V30 32235 N 3144.09 5.40752 2.1111 0
M  V30 32236 H 3146.86 2.81551 -1.02709 0
M  V30 32237 H 3144.42 1.46493 -0.689298 0
M  V30 32238 H 3146.41 3.83617 1.28919 0
M  V30 32239 H 3144.98 2.78249 1.42464 0
M  V30 32240 H 3144.2 3.85638 -0.817109 0
M  V30 32241 H 3145.49 5.05334 -0.592911 0
M  V30 32242 H 3144.88 5.0302 2.58819 0
M  V30 32243 H 3143.44 5.96156 2.63517 0
M  V30 32244 N 3146.87 0.587281 1.46249 0
M  V30 32245 C 3148.11 0.0773528 2.04254 0
M  V30 32246 C 3148.48 -1.26045 1.44833 0
M  V30 32247 O 3149.68 -1.85988 1.94066 0
M  V30 32248 C 3147.95 0.0173441 3.57396 0
M  V30 32249 S 3149.51 -0.434345 4.36645 0
M  V30 32250 H 3146.33 0.0396907 0.709891 0
M  V30 32251 H 3148.93 0.78081 1.79231 0
M  V30 32252 H 3147.63 0.994865 3.98159 0
M  V30 32253 H 3147.16 -0.708742 3.86963 0
M  V30 32254 H 3149.18 -1.68815 4.666 0
M  V30 32255 N 3148.35 -1.54206 0.325309 0
M  V30 32256 C 3149.28 -2.27346 -0.532534 0
M  V30 32257 C 3150.26 -1.28208 -1.11789 0
M  V30 32258 O 3151.45 -1.57023 -1.14269 0
M  V30 32259 C 3148.58 -3.03258 -1.69268 0
M  V30 32260 C 3147.53 -4.09748 -1.23655 0
M  V30 32261 C 3146.86 -4.73511 -2.48378 0
M  V30 32262 C 3148.16 -5.21125 -0.350152 0
M  V30 32263 H 3149.85 -2.993 0.0775635 0
M  V30 32264 H 3147.4 -1.43948 0.0387446 0
M  V30 32265 H 3149.35 -3.53156 -2.29911 0
M  V30 32266 H 3148.08 -2.28925 -2.3294 0
M  V30 32267 H 3146.73 -3.60737 -0.653043 0
M  V30 32268 H 3146.38 -3.95791 -3.10417 0
M  V30 32269 H 3146.08 -5.45445 -2.18548 0
M  V30 32270 H 3147.61 -5.26183 -3.09779 0
M  V30 32271 H 3149.02 -5.66769 -0.862912 0
M  V30 32272 H 3147.42 -5.99926 -0.144555 0
M  V30 32273 H 3148.49 -4.80939 0.618542 0
M  V30 32274 N 3149.83 -0.0535194 -1.57509 0
M  V30 32275 C 3151.08 0.620657 -1.93069 0
M  V30 32276 C 3151.41 1.70356 -0.932343 0
M  V30 32277 O 3150.69 1.94456 0.0413051 0
M  V30 32278 C 3150.97 1.21457 -3.38999 0
M  V30 32279 C 3150.82 0.139571 -4.49583 0
M  V30 32280 C 3152.14 2.12552 -3.8537 0
M  V30 32281 H 3149.26 0.22415 -0.702087 0
M  V30 32282 H 3151.9 -0.115763 -1.89647 0
M  V30 32283 H 3150.05 1.8422 -3.42046 0
M  V30 32284 H 3151.72 -0.492492 -4.58664 0
M  V30 32285 H 3149.97 -0.532081 -4.30524 0
M  V30 32286 H 3150.64 0.595191 -5.48782 0
M  V30 32287 H 3153.11 1.59748 -3.84213 0
M  V30 32288 H 3151.99 2.5105 -4.88124 0
M  V30 32289 H 3152.25 3.02655 -3.22261 0
M  V30 32290 N 3151.31 1.56059 0.219886 0
M  V30 32291 C 3152.72 1.69314 0.786736 0
M  V30 32292 C 3153.07 0.655815 1.84915 0
M  V30 32293 O 3152.2 -0.192734 2.1554 0
M  V30 32294 C 3152.79 3.06965 1.43381 0
M  V30 32295 C 3151.35 3.22069 1.94804 0
M  V30 32296 C 3150.5 2.65242 0.808816 0
M  V30 32297 H 3153.45 1.58699 -0.00479567 0
M  V30 32298 H 3153.47 3.02915 2.30267 0
M  V30 32299 H 3152.98 3.82441 0.660338 0
M  V30 32300 H 3151.08 2.51465 2.74948 0
M  V30 32301 H 3151.2 4.29303 2.12686 0
M  V30 32302 H 3149.56 2.23767 1.21658 0
M  V30 32303 H 3150.34 3.43266 0.0479854 0
M  V30 32304 N 3152.79 -0.486655 1.49898 0
M  V30 32305 C 3154.06 -1.24796 1.50616 0
M  V30 32306 C 3154.44 -2.09709 0.241967 0
M  V30 32307 O 3153.79 -2.14949 -0.775199 0
M  V30 32308 C 3154 -2.09238 2.79321 0
M  V30 32309 C 3155.35 -2.67949 3.29376 0
M  V30 32310 O 3156.37 -2.19494 2.80537 0
M  V30 32311 O 3155.23 -3.56195 4.14473 0
M  V30 32312 H 3152.33 -0.565481 0.603457 0
M  V30 32313 H 3154.87 -0.49975 1.62175 0
M  V30 32314 H 3153.65 -1.46565 3.62814 0
M  V30 32315 H 3153.27 -2.91224 2.70692 0
M  V30 32316 N 3154.27 -1.39214 -0.738737 0
M  V30 32317 C 3155.49 -1.39683 -1.53308 0
M  V30 32318 C 3155.92 0.00765409 -1.88098 0
M  V30 32319 O 3155.27 0.993672 -1.51644 0
M  V30 32320 C 3155.32 -2.27284 -2.79954 0
M  V30 32321 O 3154.43 -1.70015 -3.75724 0
M  V30 32322 H 3153.77 -0.47583 -0.463122 0
M  V30 32323 H 3156.3 -1.83163 -0.911736 0
M  V30 32324 H 3156.31 -2.41665 -3.28728 0
M  V30 32325 H 3154.98 -3.29355 -2.53964 0
M  V30 32326 H 3153.56 -1.64857 -3.3448 0
M  V30 32327 N 3155.74 0.968523 -1.24328 0
M  V30 32328 C 3156.97 1.75169 -1.11043 0
M  V30 32329 C 3157.39 1.85128 0.333077 0
M  V30 32330 O 3156.75 1.32158 1.24112 0
M  V30 32331 C 3156.8 3.15065 -1.75403 0
M  V30 32332 O 3155.9 3.99479 -1.02424 0
M  V30 32333 H 3155.24 0.538485 -0.388498 0
M  V30 32334 H 3157.77 1.21497 -1.64619 0
M  V30 32335 H 3157.78 3.65592 -1.81126 0
M  V30 32336 H 3156.46 3.07133 -2.80432 0
M  V30 32337 H 3155.04 3.57964 -1.04481 0
M  V30 32338 N 3157.22 1.0569 1.16908 0
M  V30 32339 C 3158.17 0.632377 2.19055 0
M  V30 32340 C 3159.16 -0.33377 1.574 0
M  V30 32341 O 3160.35 -0.150192 1.76362 0
M  V30 32342 C 3157.48 0.0138812 3.43297 0
M  V30 32343 C 3156.56 1.00416 4.12041 0
M  V30 32344 N 3156.95 2.17745 4.56531 0
M  V30 32345 C 3155.25 0.83374 4.38138 0
M  V30 32346 C 3155.95 2.80434 5.09639 0
M  V30 32347 N 3154.93 2.082 5.02149 0
M  V30 32348 H 3158.73 1.52625 2.51163 0
M  V30 32349 H 3156.24 0.927731 1.33293 0
M  V30 32350 H 3158.24 -0.308044 4.1576 0
M  V30 32351 H 3156.9 -0.875325 3.12679 0
M  V30 32352 H 3157.91 2.55554 4.50458 0
M  V30 32353 H 3154.59 -0.00399345 4.175 0
M  V30 32354 H 3155.98 3.79962 5.54147 0
M  V30 32355 N 3158.7 -1.33435 0.838617 0
M  V30 32356 C 3159.94 -1.99602 0.440274 0
M  V30 32357 C 3160.3 -1.64985 -0.982032 0
M  V30 32358 O 3161.5 -2.24117 -1.48409 0
M  V30 32359 C 3159.78 -3.5136 0.654262 0
M  V30 32360 S 3161.33 -4.37393 0.351102 0
M  V30 32361 H 3158.15 -0.691441 0.16562 0
M  V30 32362 H 3160.75 -1.62438 1.08785 0
M  V30 32363 H 3159.46 -3.74042 1.6888 0
M  V30 32364 H 3158.99 -3.93399 -0.00747534 0
M  V30 32365 H 3161 -4.89222 -0.829212 0
M  V30 32366 N 3160.18 -0.595029 -1.45935 0
M  V30 32367 C 3161.11 0.169096 -2.28575 0
M  V30 32368 C 3162.12 0.843767 -1.39228 0
M  V30 32369 O 3163.31 0.711262 -1.63717 0
M  V30 32370 C 3160.41 1.2597 -3.14618 0
M  V30 32371 C 3159.58 0.674584 -4.32167 0
M  V30 32372 C 3158.64 1.65447 -4.99514 0
M  V30 32373 O 3157.67 1.18568 -5.56714 0
M  V30 32374 N 3158.87 2.98876 -4.97648 0
M  V30 32375 H 3161.64 -0.53996 -2.94796 0
M  V30 32376 H 3159.2 -0.433642 -1.55984 0
M  V30 32377 H 3161.19 1.91477 -3.56537 0
M  V30 32378 H 3159.76 1.87145 -2.5039 0
M  V30 32379 H 3158.98 -0.158253 -3.93882 0
M  V30 32380 H 3160.27 0.263663 -5.08116 0
M  V30 32381 H 3159.67 3.39575 -4.52444 0
M  V30 32382 H 3158.22 3.59839 -5.4347 0
M  V30 32383 N 3161.66 1.54031 -0.333483 0
M  V30 32384 C 3162.9 2.01041 0.266492 0
M  V30 32385 C 3163.23 1.22113 1.51004 0
M  V30 32386 O 3162.51 0.30605 1.92077 0
M  V30 32387 C 3162.79 3.55222 0.590718 0
M  V30 32388 C 3162.65 4.44869 -0.664222 0
M  V30 32389 C 3163.96 4.17091 1.40439 0
M  V30 32390 H 3161.08 0.730801 0.0953851 0
M  V30 32391 H 3163.73 1.84545 -0.452027 0
M  V30 32392 H 3161.88 3.6941 1.20285 0
M  V30 32393 H 3163.55 4.42534 -1.30235 0
M  V30 32394 H 3161.79 4.1414 -1.29113 0
M  V30 32395 H 3162.46 5.50601 -0.392761 0
M  V30 32396 H 3164.94 4.06539 0.886875 0
M  V30 32397 H 3163.81 5.25063 1.60001 0
M  V30 32398 H 3164.07 3.71058 2.40351 0
M  V30 32399 N 3163.13 0.0618717 1.57479 0
M  V30 32400 C 3164.06 -0.906562 2.15183 0
M  V30 32401 C 3165.04 -1.31722 1.07626 0
M  V30 32402 O 3166.23 -1.39003 1.35616 0
M  V30 32403 C 3163.36 -2.17767 2.70546 0
M  V30 32404 C 3162.31 -1.90673 3.83181 0
M  V30 32405 C 3161.64 -3.2433 4.25105 0
M  V30 32406 C 3162.94 -1.21985 5.07855 0
M  V30 32407 H 3164.63 -0.425888 2.96355 0
M  V30 32408 H 3162.18 -0.20341 1.42556 0
M  V30 32409 H 3164.13 -2.85924 3.09557 0
M  V30 32410 H 3162.86 -2.68059 1.8658 0
M  V30 32411 H 3161.52 -1.24925 3.44658 0
M  V30 32412 H 3161.16 -3.72443 3.38075 0
M  V30 32413 H 3160.86 -3.06996 5.01026 0
M  V30 32414 H 3162.39 -3.93701 4.66725 0
M  V30 32415 H 3163.8 -1.80195 5.44245 0
M  V30 32416 H 3162.2 -1.14943 5.88989 0
M  V30 32417 H 3163.27 -0.197451 4.84498 0
M  V30 32418 N 3164.61 -1.56173 -0.211607 0
M  V30 32419 C 3165.54 -1.96246 -1.26529 0
M  V30 32420 C 3166.52 -0.832054 -1.48361 0
M  V30 32421 O 3167.71 -1.09513 -1.60376 0
M  V30 32422 C 3164.84 -2.28775 -2.61303 0
M  V30 32423 C 3163.79 -3.44399 -2.54112 0
M  V30 32424 C 3163.12 -3.62559 -3.93007 0
M  V30 32425 C 3164.42 -4.7908 -2.08038 0
M  V30 32426 H 3166.11 -2.84513 -0.932357 0
M  V30 32427 H 3163.66 -1.36885 -0.44706 0
M  V30 32428 H 3165.61 -2.55402 -3.35184 0
M  V30 32429 H 3164.34 -1.37372 -2.96305 0
M  V30 32430 H 3162.99 -3.17837 -1.82689 0
M  V30 32431 H 3162.64 -2.68516 -4.25333 0
M  V30 32432 H 3162.34 -4.40334 -3.89075 0
M  V30 32433 H 3163.87 -3.91545 -4.68535 0
M  V30 32434 H 3165.28 -5.04846 -2.71667 0
M  V30 32435 H 3163.68 -5.60208 -2.15144 0
M  V30 32436 H 3164.75 -4.73769 -1.03298 0
M  V30 32437 N 3166.09 0.478699 -1.50154 0
M  V30 32438 C 3167.02 1.58584 -1.71387 0
M  V30 32439 C 3168 1.60522 -0.562733 0
M  V30 32440 O 3169.19 1.76909 -0.801041 0
M  V30 32441 C 3166.32 2.96954 -1.80099 0
M  V30 32442 C 3165.27 3.09882 -2.95224 0
M  V30 32443 C 3164.6 4.49824 -2.89071 0
M  V30 32444 C 3165.9 2.87812 -4.35846 0
M  V30 32445 H 3167.59 1.41069 -2.64083 0
M  V30 32446 H 3165.14 0.677217 -1.27082 0
M  V30 32447 H 3167.09 3.74327 -1.93538 0
M  V30 32448 H 3165.81 3.15608 -0.840186 0
M  V30 32449 H 3164.47 2.34939 -2.81423 0
M  V30 32450 H 3164.12 4.65386 -1.90852 0
M  V30 32451 H 3163.82 4.59412 -3.66353 0
M  V30 32452 H 3165.34 5.29228 -3.04548 0
M  V30 32453 H 3166.76 3.5494 -4.50212 0
M  V30 32454 H 3165.16 3.08851 -5.1452 0
M  V30 32455 H 3166.23 1.83734 -4.48743 0
M  V30 32456 N 3167.57 1.39603 0.731343 0
M  V30 32457 C 3168.98 1.33047 1.30978 0
M  V30 32458 C 3169.33 -0.0034647 1.962 0
M  V30 32459 O 3168.46 -0.905581 1.96541 0
M  V30 32460 C 3169.05 2.40962 2.38166 0
M  V30 32461 C 3167.61 2.37915 2.91674 0
M  V30 32462 C 3166.76 2.22659 1.65282 0
M  V30 32463 H 3169.71 1.49638 0.528589 0
M  V30 32464 H 3169.73 2.07961 3.18642 0
M  V30 32465 H 3169.24 3.38035 1.90667 0
M  V30 32466 H 3167.34 1.44491 3.43443 0
M  V30 32467 H 3167.45 3.3291 3.44539 0
M  V30 32468 H 3165.82 1.69896 1.89756 0
M  V30 32469 H 3166.6 3.21707 1.1983 0
M  V30 32470 N 3169.05 -0.961916 1.2484 0
M  V30 32471 C 3169.98 -2.07512 1.07056 0
M  V30 32472 C 3170.96 -1.7009 -0.0182166 0
M  V30 32473 O 3172.14 -1.9362 0.149949 0
M  V30 32474 C 3169.27 -3.40563 0.680753 0
M  V30 32475 C 3168.23 -3.91964 1.71895 0
M  V30 32476 C 3167.55 -5.21426 1.18404 0
M  V30 32477 C 3168.85 -4.19156 3.11618 0
M  V30 32478 H 3170.55 -2.22647 2.00171 0
M  V30 32479 H 3168.09 -1.06989 0.963818 0
M  V30 32480 H 3170.05 -4.17883 0.543313 0
M  V30 32481 H 3168.77 -3.25345 -0.286092 0
M  V30 32482 H 3167.43 -3.16806 1.84471 0
M  V30 32483 H 3167.08 -5.02571 0.207632 0
M  V30 32484 H 3166.78 -5.56785 1.87788 0
M  V30 32485 H 3168.3 -6.01349 1.05884 0
M  V30 32486 H 3169.71 -4.8716 3.02238 0
M  V30 32487 H 3168.11 -4.65756 3.78406 0
M  V30 32488 H 3169.18 -3.25709 3.59224 0
M  V30 32489 N 3170.52 -1.06308 -1.16346 0
M  V30 32490 C 3171.77 -0.779885 -1.8688 0
M  V30 32491 C 3172.1 0.693636 -1.81711 0
M  V30 32492 O 3171.35 1.52399 -1.22772 0
M  V30 32493 C 3171.65 -1.21996 -3.35934 0
M  V30 32494 C 3171.32 -2.69762 -3.61302 0
M  V30 32495 C 3169.98 -3.10125 -3.67935 0
M  V30 32496 C 3172.33 -3.65193 -3.71865 0
M  V30 32497 C 3169.66 -4.44759 -3.82631 0
M  V30 32498 C 3172.01 -4.99575 -3.88082 0
M  V30 32499 C 3170.68 -5.39575 -3.92957 0
M  V30 32500 H 3169.95 -0.28538 -0.683842 0
M  V30 32501 H 3172.59 -1.3322 -1.37567 0
M  V30 32502 H 3170.9 -0.586842 -3.8738 0
M  V30 32503 H 3172.6 -0.977889 -3.88894 0
M  V30 32504 H 3169.19 -2.37511 -3.56773 0
M  V30 32505 H 3173.37 -3.35142 -3.66051 0
M  V30 32506 H 3168.63 -4.75235 -3.84658 0
M  V30 32507 H 3172.8 -5.73404 -3.95197 0
M  V30 32508 H 3170.43 -6.43902 -4.04097 0
M  V30 32509 N 3172 1.32989 -0.845682 0
M  V30 32510 C 3172.97 2.27371 -0.288945 0
M  V30 32511 C 3173.97 1.51238 0.546236 0
M  V30 32512 O 3175.16 1.7046 0.359042 0
M  V30 32513 C 3172.29 3.35717 0.592181 0
M  V30 32514 H 3173.48 2.78126 -1.12186 0
M  V30 32515 H 3171.03 1.43507 -0.619302 0
M  V30 32516 H 3171.77 2.90215 1.44727 0
M  V30 32517 H 3171.55 3.921 -0.00550147 0
M  V30 32518 H 3173.04 4.06064 0.974776 0
M  V30 32519 N 3173.48 0.60276 1.45618 0
M  V30 32520 C 3174.39 -0.120861 2.34288 0
M  V30 32521 C 3175.41 -0.865388 1.50954 0
M  V30 32522 O 3176.58 -0.824062 1.83769 0
M  V30 32523 C 3173.65 -1.10882 3.28491 0
M  V30 32524 C 3172.71 -0.366778 4.2773 0
M  V30 32525 C 3171.94 -1.30767 5.17432 0
M  V30 32526 O 3172.16 -2.54526 5.10463 0
M  V30 32527 O 3171.1 -0.807359 5.96461 0
M  V30 32528 H 3174.92 0.607702 2.97558 0
M  V30 32529 H 3172.51 0.363045 1.44922 0
M  V30 32530 H 3174.39 -1.67796 3.86552 0
M  V30 32531 H 3173.07 -1.81849 2.67792 0
M  V30 32532 H 3171.97 0.244709 3.73299 0
M  V30 32533 H 3173.31 0.302313 4.91271 0
M  V30 32534 N 3174.96 -1.53852 0.341647 0
M  V30 32535 C 3176.2 -2.02793 -0.255817 0
M  V30 32536 C 3176.56 -1.22409 -1.47919 0
M  V30 32537 O 3177.76 -1.61239 -2.1507 0
M  V30 32538 C 3176.03 -3.52921 -0.564055 0
M  V30 32539 S 3177.59 -4.2377 -1.1386 0
M  V30 32540 H 3174.41 -0.706897 -0.0762743 0
M  V30 32541 H 3177.01 -1.89542 0.478967 0
M  V30 32542 H 3175.72 -4.09037 0.33417 0
M  V30 32543 H 3175.25 -3.70288 -1.32856 0
M  V30 32544 H 3177.26 -4.32938 -2.42443 0
M  V30 32545 N 3176.44 -0.0702223 -1.57443 0
M  V30 32546 C 3177.39 0.907633 -2.09156 0
M  V30 32547 C 3178.37 1.2598 -1.00089 0
M  V30 32548 O 3179.56 1.23904 -1.264 0
M  V30 32549 C 3176.69 2.17576 -2.65548 0
M  V30 32550 C 3175.78 1.85014 -3.81616 0
M  V30 32551 N 3176.17 1.22895 -4.90643 0
M  V30 32552 C 3174.47 2.14773 -3.90882 0
M  V30 32553 C 3175.17 1.0839 -5.71513 0
M  V30 32554 N 3174.14 1.59309 -5.19732 0
M  V30 32555 H 3177.95 0.423 -2.9084 0
M  V30 32556 H 3175.46 0.133711 -1.61849 0
M  V30 32557 H 3177.46 2.88547 -3.00909 0
M  V30 32558 H 3176.12 2.66628 -1.85309 0
M  V30 32559 H 3177.13 0.898788 -5.10041 0
M  V30 32560 H 3173.8 2.66214 -3.21615 0
M  V30 32561 H 3175.19 0.600066 -6.69215 0
M  V30 32562 N 3177.91 1.56283 0.203321 0
M  V30 32563 C 3178.86 1.9389 1.25202 0
M  V30 32564 C 3179.83 0.798402 1.45653 0
M  V30 32565 O 3181.02 1.05586 1.58922 0
M  V30 32566 C 3178.16 2.27664 2.59351 0
M  V30 32567 C 3177.27 3.54737 2.46547 0
M  V30 32568 C 3176.4 3.77872 3.73345 0
M  V30 32569 C 3175.44 4.98398 3.55339 0
M  V30 32570 N 3174.58 5.17829 4.74128 0
M  V30 32571 H 3179.42 2.83303 0.924306 0
M  V30 32572 H 3176.96 1.40206 0.445058 0
M  V30 32573 H 3178.92 2.4526 3.37496 0
M  V30 32574 H 3177.55 1.41401 2.90182 0
M  V30 32575 H 3176.6 3.45234 1.59743 0
M  V30 32576 H 3177.91 4.43037 2.29172 0
M  V30 32577 H 3177.06 3.95663 4.5993 0
M  V30 32578 H 3175.8 2.87887 3.93665 0
M  V30 32579 H 3174.81 4.80539 2.67138 0
M  V30 32580 H 3176.03 5.89885 3.36471 0
M  V30 32581 H 3173.98 4.3079 4.94728 0
M  V30 32582 H 3173.9 6.00293 4.59547 0
M  V30 32583 H 3175.16 5.40071 5.62088 0
M  V30 32584 N 3179.39 -0.470729 1.50406 0
M  V30 32585 C 3180.64 -1.2246 1.61652 0
M  V30 32586 C 3180.97 -1.91611 0.316068 0
M  V30 32587 O 3180.25 -1.82133 -0.682477 0
M  V30 32588 C 3180.53 -2.26796 2.79706 0
M  V30 32589 C 3180.38 -1.61948 4.19634 0
M  V30 32590 C 3181.7 -3.28104 2.93319 0
M  V30 32591 H 3178.82 -0.443857 0.588353 0
M  V30 32592 H 3181.46 -0.518344 1.82793 0
M  V30 32593 H 3179.61 -2.87031 2.61812 0
M  V30 32594 H 3181.29 -1.05308 4.49119 0
M  V30 32595 H 3179.53 -0.922599 4.23876 0
M  V30 32596 H 3180.2 -2.3777 4.98166 0
M  V30 32597 H 3182.68 -2.77892 3.09702 0
M  V30 32598 H 3181.55 -3.98436 3.77544 0
M  V30 32599 H 3181.81 -3.92246 2.03949 0
M  V30 32600 N 3180.87 -1.39989 -0.72393 0
M  V30 32601 C 3181.8 -1.42338 -1.851 0
M  V30 32602 C 3182.78 -0.285327 -1.6769 0
M  V30 32603 O 3183.97 -0.492749 -1.87845 0
M  V30 32604 C 3181.1 -1.27703 -3.22969 0
M  V30 32605 C 3180.05 -2.39024 -3.55037 0
M  V30 32606 C 3179.38 -2.09471 -4.91961 0
M  V30 32607 C 3180.68 -3.81356 -3.56882 0
M  V30 32608 H 3182.37 -2.3666 -1.83392 0
M  V30 32609 H 3179.92 -1.13912 -0.880906 0
M  V30 32610 H 3181.87 -1.27965 -4.01501 0
M  V30 32611 H 3180.59 -0.298544 -3.25233 0
M  V30 32612 H 3179.25 -2.37998 -2.78841 0
M  V30 32613 H 3178.9 -1.10033 -4.90817 0
M  V30 32614 H 3178.6 -2.84047 -5.14384 0
M  V30 32615 H 3180.13 -2.11401 -5.72837 0
M  V30 32616 H 3181.54 -3.84251 -4.25469 0
M  V30 32617 H 3179.94 -4.55383 -3.90828 0
M  V30 32618 H 3181.01 -4.11538 -2.56445 0
M  V30 32619 N 3182.35 0.955282 -1.25348 0
M  V30 32620 C 3183.31 2.03342 -1.05757 0
M  V30 32621 C 3184.31 1.60797 -0.0106026 0
M  V30 32622 O 3185.5 1.72357 -0.252729 0
M  V30 32623 C 3182.63 3.35478 -0.605595 0
M  V30 32624 H 3183.83 2.22154 -2.01463 0
M  V30 32625 H 3181.38 1.13228 -1.07746 0
M  V30 32626 H 3182.12 3.22361 0.354097 0
M  V30 32627 H 3181.9 3.67707 -1.36141 0
M  V30 32628 H 3183.39 4.14716 -0.48994 0
M  V30 32629 N 3183.83 1.06924 1.1578 0
M  V30 32630 C 3185.24 0.813173 1.68061 0
M  V30 32631 C 3185.59 -0.662342 1.84682 0
M  V30 32632 O 3184.71 -1.51318 1.54699 0
M  V30 32633 C 3185.31 1.46954 3.0527 0
M  V30 32634 C 3183.87 1.2611 3.54645 0
M  V30 32635 C 3183.02 1.54198 2.30474 0
M  V30 32636 H 3185.97 1.23186 1.00054 0
M  V30 32637 H 3185.99 0.888373 3.69984 0
M  V30 32638 H 3185.5 2.54343 2.93141 0
M  V30 32639 H 3183.6 0.207245 3.72023 0
M  V30 32640 H 3183.71 1.97827 4.3635 0
M  V30 32641 H 3182.08 0.962801 2.35801 0
M  V30 32642 H 3182.86 2.62759 2.20936 0
M  V30 32643 N 3185.31 -1.32538 0.852723 0
M  V30 32644 C 3186.27 -2.27215 0.300999 0
M  V30 32645 C 3187.27 -1.51525 -0.538208 0
M  V30 32646 O 3188.46 -1.70648 -0.349997 0
M  V30 32647 C 3185.59 -3.36027 -0.574369 0
M  V30 32648 H 3186.78 -2.77527 1.1366 0
M  V30 32649 H 3184.34 -1.43177 0.626904 0
M  V30 32650 H 3185.07 -2.90978 -1.43185 0
M  V30 32651 H 3184.86 -3.92091 0.0262954 0
M  V30 32652 H 3186.35 -4.06575 -0.953228 0
M  V30 32653 N 3186.78 -0.610474 -1.45296 0
M  V30 32654 C 3188.01 -0.113247 -2.0659 0
M  V30 32655 C 3188.43 1.20358 -1.45462 0
M  V30 32656 O 3187.78 1.73375 -0.569854 0
M  V30 32657 C 3187.83 0.0297776 -3.61488 0
M  V30 32658 O 3187.56 -1.23496 -4.20334 0
M  V30 32659 C 3189.06 0.558125 -4.39773 0
M  V30 32660 H 3186.28 -0.0701672 -0.667321 0
M  V30 32661 H 3188.82 -0.839026 -1.86496 0
M  V30 32662 H 3186.98 0.705896 -3.80915 0
M  V30 32663 H 3187.39 -1.06649 -5.13543 0
M  V30 32664 H 3188.86 0.607278 -5.48649 0
M  V30 32665 H 3189.34 1.58099 -4.09757 0
M  V30 32666 H 3189.95 -0.0840452 -4.25217 0
M  V30 32667 N 3188.26 1.53669 -0.349801 0
M  V30 32668 C 3189.51 2.01015 0.244791 0
M  V30 32669 C 3189.84 1.23749 1.50055 0
M  V30 32670 O 3189.09 0.314906 1.9315 0
M  V30 32671 C 3189.39 3.52357 0.598249 0
M  V30 32672 C 3189.06 4.47392 -0.561349 0
M  V30 32673 C 3187.72 4.73093 -0.879564 0
M  V30 32674 C 3190.07 5.03707 -1.33899 0
M  V30 32675 C 3187.4 5.52363 -1.97768 0
M  V30 32676 C 3189.75 5.84175 -2.4274 0
M  V30 32677 C 3188.41 6.08168 -2.75114 0
M  V30 32678 H 3187.68 0.735566 0.0895755 0
M  V30 32679 H 3190.33 1.85412 -0.479007 0
M  V30 32680 H 3188.64 3.65824 1.40285 0
M  V30 32681 H 3190.33 3.86453 1.07029 0
M  V30 32682 H 3186.92 4.27526 -0.303277 0
M  V30 32683 H 3191.11 4.8381 -1.1064 0
M  V30 32684 H 3186.36 5.69176 -2.23267 0
M  V30 32685 H 3190.54 6.26823 -3.03423 0
M  V30 32686 H 3188.16 6.69378 -3.60329 0
M  V30 32687 N 3189.74 0.0785709 1.57404 0
M  V30 32688 C 3190.97 -0.59696 1.97788 0
M  V30 32689 C 3191.38 -1.63274 0.955933 0
M  V30 32690 O 3190.72 -1.83585 -0.0648847 0
M  V30 32691 C 3190.78 -1.31717 3.34501 0
M  V30 32692 C 3190.45 -0.434064 4.54934 0
M  V30 32693 C 3191.44 0.311106 5.18968 0
M  V30 32694 C 3189.13 -0.356958 5.0103 0
M  V30 32695 C 3191.12 1.12153 6.27455 0
M  V30 32696 C 3188.81 0.457136 6.09388 0
M  V30 32697 C 3189.81 1.19505 6.72464 0
M  V30 32698 O 3189.5 1.9957 7.78734 0
M  V30 32699 H 3189.23 -0.166016 0.655297 0
M  V30 32700 H 3191.78 0.149553 2.04855 0
M  V30 32701 H 3190.01 -2.1099 3.24068 0
M  V30 32702 H 3191.7 -1.8856 3.59444 0
M  V30 32703 H 3192.47 0.261169 4.84296 0
M  V30 32704 H 3188.35 -0.920946 4.51707 0
M  V30 32705 H 3191.89 1.698 6.76619 0
M  V30 32706 H 3187.79 0.508612 6.43493 0
M  V30 32707 H 3188.55 1.92074 7.95644 0
M  V30 32708 N 3191.22 -1.56389 -0.19503 0
M  V30 32709 C 3192.18 -1.93694 -1.22537 0
M  V30 32710 C 3193.18 -0.818064 -1.38435 0
M  V30 32711 O 3194.37 -1.08548 -1.36246 0
M  V30 32712 C 3191.5 -2.21104 -2.59472 0
M  V30 32713 H 3192.7 -2.85872 -0.906494 0
M  V30 32714 H 3190.25 -1.5008 -0.436551 0
M  V30 32715 H 3190.98 -1.31564 -2.96414 0
M  V30 32716 H 3190.77 -3.02638 -2.49304 0
M  V30 32717 H 3192.26 -2.5097 -3.33772 0
M  V30 32718 N 3192.7 0.462746 -1.50653 0
M  V30 32719 C 3193.94 1.21102 -1.61298 0
M  V30 32720 C 3194.26 1.92918 -0.322791 0
M  V30 32721 O 3195.46 2.69744 -0.308258 0
M  V30 32722 C 3193.92 2.20095 -2.84756 0
M  V30 32723 C 3193.53 1.54044 -4.20683 0
M  V30 32724 C 3195.27 2.95513 -3.0475 0
M  V30 32725 C 3193.18 2.51372 -5.35319 0
M  V30 32726 H 3192.11 0.455717 -0.600698 0
M  V30 32727 H 3194.76 0.480625 -1.77094 0
M  V30 32728 H 3193.14 2.96462 -2.62538 0
M  V30 32729 H 3194.32 0.834088 -4.53188 0
M  V30 32730 H 3192.63 0.908757 -4.06363 0
M  V30 32731 H 3195.23 3.68371 -3.87565 0
M  V30 32732 H 3195.57 3.55387 -2.16808 0
M  V30 32733 H 3196.1 2.26257 -3.27189 0
M  V30 32734 H 3192.84 1.96224 -6.25441 0
M  V30 32735 H 3192.36 3.20135 -5.07222 0
M  V30 32736 H 3194.04 3.1303 -5.66234 0
M  V30 32737 N 3194.17 1.40371 0.716495 0
M  V30 32738 C 3195.41 1.40049 1.48881 0
M  V30 32739 C 3195.78 0.00161402 1.92 0
M  V30 32740 O 3196.98 -0.126717 2.68501 0
M  V30 32741 C 3195.25 2.36158 2.68261 0
M  V30 32742 S 3196.81 2.54186 3.5768 0
M  V30 32743 H 3193.63 0.4964 0.509026 0
M  V30 32744 H 3196.23 1.76632 0.837936 0
M  V30 32745 H 3194.93 3.36629 2.34753 0
M  V30 32746 H 3194.46 2.00856 3.38261 0
M  V30 32747 H 3196.48 1.7936 4.62649 0
M  V30 32748 N 3195.65 -0.948621 1.25853 0
M  V30 32749 C 3196.58 -2.04977 1.02552 0
M  V30 32750 C 3197.6 -1.62796 -0.0115636 0
M  V30 32751 O 3198.79 -1.77042 0.227674 0
M  V30 32752 C 3195.89 -3.34737 0.529545 0
M  V30 32753 C 3195.06 -4.05726 1.63417 0
M  V30 32754 C 3194.12 -5.13758 1.13752 0
M  V30 32755 O 3193.14 -5.38874 1.83312 0
M  V30 32756 N 3194.35 -5.80497 -0.0180131 0
M  V30 32757 H 3197.11 -2.25534 1.97369 0
M  V30 32758 H 3194.67 -1.11759 1.17139 0
M  V30 32759 H 3196.66 -4.04292 0.181637 0
M  V30 32760 H 3195.23 -3.10908 -0.324839 0
M  V30 32761 H 3194.45 -3.30187 2.15337 0
M  V30 32762 H 3195.74 -4.4991 2.3761 0
M  V30 32763 H 3195.14 -5.62519 -0.599099 0
M  V30 32764 H 3193.7 -6.51077 -0.306904 0
M  V30 32765 N 3197.13 -1.07536 -1.15212 0
M  V30 32766 C 3198.06 -0.6553 -2.19633 0
M  V30 32767 C 3199.08 0.293137 -1.60139 0
M  V30 32768 O 3200.26 0.0821643 -1.78311 0
M  V30 32769 C 3197.36 0.0577685 -3.38851 0
M  V30 32770 C 3196.54 -0.907325 -4.27886 0
M  V30 32771 C 3195.6 -0.231208 -5.25692 0
M  V30 32772 O 3194.62 -0.872845 -5.62468 0
M  V30 32773 N 3195.82 1.0224 -5.71426 0
M  V30 32774 H 3198.59 -1.55358 -2.56289 0
M  V30 32775 H 3196.15 -0.960294 -1.30346 0
M  V30 32776 H 3198.14 0.520804 -4.01335 0
M  V30 32777 H 3196.71 0.858018 -3.00594 0
M  V30 32778 H 3195.93 -1.54943 -3.62473 0
M  V30 32779 H 3197.22 -1.5616 -4.84243 0
M  V30 32780 H 3196.62 1.5636 -5.43662 0
M  V30 32781 H 3195.18 1.42908 -6.35941 0
M  V30 32782 N 3198.61 1.32084 -0.85974 0
M  V30 32783 C 3199.89 1.91739 -0.386698 0
M  V30 32784 C 3200.27 1.78294 1.13025 0
M  V30 32785 O 3199.61 1.18421 1.9542 0
M  V30 32786 C 3199.82 3.38322 -0.856708 0
M  V30 32787 C 3201.17 4.15447 -0.876853 0
M  V30 32788 O 3202.2 3.47061 -0.801681 0
M  V30 32789 O 3201.05 5.37572 -0.983825 0
M  V30 32790 H 3198.15 0.819137 -0.113772 0
M  V30 32791 H 3200.69 1.40821 -0.946977 0
M  V30 32792 H 3199.47 3.42075 -1.90002 0
M  V30 32793 H 3199.09 3.96654 -0.274164 0
M  V30 32794 N 3200.09 0.618171 1.4497 0
M  V30 32795 C 3201.31 0.122432 2.07038 0
M  V30 32796 C 3201.74 -1.1885 1.45795 0
M  V30 32797 O 3201.09 -1.7261 0.55456 0
M  V30 32798 C 3201.14 0.00744978 3.60599 0
M  V30 32799 O 3200.25 -1.04 3.99071 0
M  V30 32800 H 3199.59 0.0788731 0.659299 0
M  V30 32801 H 3202.12 0.85118 1.86054 0
M  V30 32802 H 3202.13 -0.187345 4.0757 0
M  V30 32803 H 3200.8 0.964616 4.04559 0
M  V30 32804 H 3199.38 -0.820815 3.63754 0
M  V30 32805 N 3201.56 -1.53481 0.357946 0
M  V30 32806 C 3202.8 -2.03053 -0.234294 0
M  V30 32807 C 3203.17 -1.23971 -1.46612 0
M  V30 32808 O 3204.37 -1.63511 -2.13348 0
M  V30 32809 C 3202.64 -3.53499 -0.526591 0
M  V30 32810 S 3204.2 -4.24954 -1.09359 0
M  V30 32811 H 3201.02 -0.707666 -0.0687724 0
M  V30 32812 H 3203.62 -1.89023 0.499044 0
M  V30 32813 H 3202.32 -4.0866 0.377535 0
M  V30 32814 H 3201.85 -3.71676 -1.28921 0
M  V30 32815 H 3203.87 -4.35486 -2.37838 0
M  V30 32816 N 3203.04 -0.0869173 -1.5736 0
M  V30 32817 C 3203.99 0.885398 -2.10106 0
M  V30 32818 C 3204.98 1.24911 -1.0142 0
M  V30 32819 O 3206.17 1.22556 -1.27707 0
M  V30 32820 C 3203.3 2.14747 -2.6784 0
M  V30 32821 C 3202.38 1.80956 -3.83557 0
M  V30 32822 N 3202.77 1.17684 -4.91919 0
M  V30 32823 C 3201.07 2.10616 -3.93137 0
M  V30 32824 C 3201.77 1.02322 -5.7263 0
M  V30 32825 N 3200.75 1.53787 -5.21393 0
M  V30 32826 H 3204.55 0.392128 -2.91272 0
M  V30 32827 H 3202.07 0.116538 -1.61981 0
M  V30 32828 H 3204.06 2.85339 -3.03953 0
M  V30 32829 H 3202.72 2.64648 -1.88127 0
M  V30 32830 H 3203.73 0.844641 -5.10966 0
M  V30 32831 H 3200.41 2.62788 -3.24421 0
M  V30 32832 H 3201.8 0.529053 -6.69814 0
M  V30 32833 N 3204.52 1.5649 0.186734 0
M  V30 32834 C 3205.45 1.91747 1.25562 0
M  V30 32835 C 3206.47 0.808965 1.41278 0
M  V30 32836 O 3207.65 1.08739 1.41556 0
M  V30 32837 C 3204.75 2.14159 2.62658 0
M  V30 32838 C 3203.93 3.45337 2.68442 0
M  V30 32839 C 3202.99 3.56761 3.86792 0
M  V30 32840 O 3202.01 4.29513 3.73506 0
M  V30 32841 N 3203.21 2.90467 5.02602 0
M  V30 32842 H 3205.98 2.84033 0.956301 0
M  V30 32843 H 3203.54 1.57459 0.376603 0
M  V30 32844 H 3205.53 2.19081 3.40273 0
M  V30 32845 H 3204.1 1.28331 2.85044 0
M  V30 32846 H 3203.32 3.52209 1.77038 0
M  V30 32847 H 3204.61 4.31686 2.69303 0
M  V30 32848 H 3204.01 2.31203 5.16296 0
M  V30 32849 H 3202.57 3.01006 5.78134 0
M  V30 32850 N 3206 -0.45475 1.50897 0
M  V30 32851 C 3206.91 -1.57617 1.73764 0
M  V30 32852 C 3207.92 -1.62532 0.621234 0
M  V30 32853 O 3209.1 -1.80098 0.901481 0
M  V30 32854 C 3206.17 -2.93727 1.84188 0
M  V30 32855 C 3205.23 -2.99069 3.07987 0
M  V30 32856 C 3204.46 -4.28687 3.17904 0
M  V30 32857 O 3204.68 -5.20105 2.34194 0
M  V30 32858 O 3203.62 -4.39957 4.10757 0
M  V30 32859 H 3207.44 -1.4124 2.68858 0
M  V30 32860 H 3205.03 -0.63596 1.35188 0
M  V30 32861 H 3206.91 -3.74538 1.9313 0
M  V30 32862 H 3205.58 -3.10268 0.922797 0
M  V30 32863 H 3204.49 -2.17277 3.04535 0
M  V30 32864 H 3205.82 -2.87469 3.99528 0
M  V30 32865 N 3207.48 -1.40749 -0.709041 0
M  V30 32866 C 3208.41 -1.37454 -1.83409 0
M  V30 32867 C 3209.42 -0.278868 -1.60394 0
M  V30 32868 O 3210.61 -0.539672 -1.70146 0
M  V30 32869 C 3207.71 -1.11786 -3.19933 0
M  V30 32870 C 3206.88 -2.33135 -3.7009 0
M  V30 32871 C 3205.94 -2.03527 -4.85246 0
M  V30 32872 O 3204.97 -2.76451 -4.97558 0
M  V30 32873 N 3206.17 -1.01724 -5.71518 0
M  V30 32874 H 3208.94 -2.34417 -1.86732 0
M  V30 32875 H 3206.5 -1.35187 -0.89084 0
M  V30 32876 H 3208.49 -0.899534 -3.94576 0
M  V30 32877 H 3207.06 -0.234679 -3.11718 0
M  V30 32878 H 3206.28 -2.70756 -2.86505 0
M  V30 32879 H 3207.57 -3.14017 -4.00338 0
M  V30 32880 H 3206.96 -0.413406 -5.64187 0
M  V30 32881 H 3205.52 -0.858809 -6.46117 0
M  V30 32882 N 3208.96 0.941933 -1.26354 0
M  V30 32883 C 3210.2 1.69054 -1.1202 0
M  V30 32884 C 3210.53 1.91274 0.335823 0
M  V30 32885 O 3209.81 1.49287 1.24674 0
M  V30 32886 C 3210.09 3.06579 -1.88895 0
M  V30 32887 C 3209.95 2.9169 -3.42399 0
M  V30 32888 C 3211.26 4.06683 -1.68216 0
M  V30 32889 H 3208.38 0.613549 -0.408322 0
M  V30 32890 H 3211.03 1.09404 -1.55341 0
M  V30 32891 H 3209.18 3.57498 -1.52076 0
M  V30 32892 H 3210.85 2.47998 -3.88966 0
M  V30 32893 H 3209.09 2.27332 -3.69463 0
M  V30 32894 H 3209.76 3.89228 -3.91415 0
M  V30 32895 H 3212.24 3.64722 -2.00292 0
M  V30 32896 H 3211.11 5.00926 -2.24421 0
M  V30 32897 H 3211.37 4.37638 -0.626551 0
M  V30 32898 N 3210.43 1.08146 1.1464 0
M  V30 32899 C 3211.67 0.818986 1.87275 0
M  V30 32900 C 3212.04 -0.64345 1.80897 0
M  V30 32901 O 3213.24 -1.02131 2.48642 0
M  V30 32902 C 3211.51 1.3232 3.32003 0
M  V30 32903 S 3213.07 1.19263 4.22282 0
M  V30 32904 H 3209.89 0.296561 0.646199 0
M  V30 32905 H 3212.49 1.3822 1.38259 0
M  V30 32906 H 3211.19 2.38208 3.34193 0
M  V30 32907 H 3210.72 0.755548 3.86076 0
M  V30 32908 H 3212.74 0.13523 4.96016 0
M  V30 32909 N 3211.91 -1.31626 0.866732 0
M  V30 32910 C 3212.82 -2.3236 0.323448 0
M  V30 32911 C 3213.84 -1.64573 -0.564966 0
M  V30 32912 O 3215.01 -1.96019 -0.462454 0
M  V30 32913 C 3212.08 -3.43513 -0.468985 0
M  V30 32914 C 3211.14 -4.26966 0.447004 0
M  V30 32915 C 3210.37 -5.32812 -0.307705 0
M  V30 32916 O 3210.6 -5.49324 -1.5362 0
M  V30 32917 O 3209.53 -6.00979 0.332759 0
M  V30 32918 H 3213.36 -2.80743 1.15832 0
M  V30 32919 H 3210.94 -1.35467 0.630011 0
M  V30 32920 H 3212.82 -4.11272 -0.918333 0
M  V30 32921 H 3211.5 -2.97298 -1.28046 0
M  V30 32922 H 3210.4 -3.61973 0.944783 0
M  V30 32923 H 3211.74 -4.76738 1.22398 0
M  V30 32924 N 3213.39 -0.62585 -1.4464 0
M  V30 32925 C 3214.64 -0.128427 -2.02393 0
M  V30 32926 C 3214.97 1.24457 -1.49078 0
M  V30 32927 O 3214.24 1.82496 -0.672717 0
M  V30 32928 C 3214.53 -0.109343 -3.59934 0
M  V30 32929 C 3214.38 -1.5143 -4.23543 0
M  V30 32930 C 3215.7 0.568909 -4.36407 0
M  V30 32931 H 3212.82 -0.0481428 -0.735426 0
M  V30 32932 H 3215.46 -0.801316 -1.72276 0
M  V30 32933 H 3213.61 0.463658 -3.85723 0
M  V30 32934 H 3215.28 -2.13579 -4.08879 0
M  V30 32935 H 3213.52 -2.06973 -3.81241 0
M  V30 32936 H 3214.2 -1.45303 -5.32533 0
M  V30 32937 H 3216.67 0.0816785 -4.1602 0
M  V30 32938 H 3215.55 0.551431 -5.46123 0
M  V30 32939 H 3215.81 1.63832 -4.10623 0
M  V30 32940 N 3214.87 1.53289 -0.36608 0
M  V30 32941 C 3216.12 2.00446 0.224579 0
M  V30 32942 C 3216.43 1.25743 1.49827 0
M  V30 32943 O 3217.64 1.6349 2.16756 0
M  V30 32944 C 3216.09 3.57066 0.450756 0
M  V30 32945 C 3215.7 4.40647 -0.808335 0
M  V30 32946 C 3217.44 4.12577 0.999043 0
M  V30 32947 C 3215.35 5.88821 -0.551715 0
M  V30 32948 H 3214.28 0.748883 0.0876982 0
M  V30 32949 H 3216.93 1.76977 -0.484898 0
M  V30 32950 H 3215.31 3.7669 1.2215 0
M  V30 32951 H 3216.49 4.32796 -1.58191 0
M  V30 32952 H 3214.8 3.96242 -1.27988 0
M  V30 32953 H 3217.4 5.20914 1.20636 0
M  V30 32954 H 3217.74 3.67203 1.96133 0
M  V30 32955 H 3218.28 3.96753 0.288448 0
M  V30 32956 H 3215.01 6.38473 -1.48434 0
M  V30 32957 H 3214.53 5.9952 0.183357 0
M  V30 32958 H 3216.21 6.46757 -0.177421 0
M  V30 32959 N 3216.35 0.0952613 1.57312 0
M  V30 32960 C 3217.31 -0.849124 2.12891 0
M  V30 32961 C 3218.31 -1.21073 1.05821 0
M  V30 32962 O 3219.5 -1.14014 1.31706 0
M  V30 32963 C 3216.63 -2.14493 2.64963 0
M  V30 32964 H 3217.82 -0.366513 2.97652 0
M  V30 32965 H 3215.38 -0.153735 1.55542 0
M  V30 32966 H 3216.11 -2.67238 1.83723 0
M  V30 32967 H 3215.9 -1.89536 3.43247 0
M  V30 32968 H 3217.39 -2.8205 3.07957 0
M  V30 32969 N 3217.82 -1.56587 -0.178432 0
M  V30 32970 C 3219.05 -1.86074 -0.916028 0
M  V30 32971 C 3219.47 -0.680785 -1.75348 0
M  V30 32972 O 3218.83 0.370248 -1.77479 0
M  V30 32973 C 3218.88 -3.13923 -1.77439 0
M  V30 32974 O 3217.98 -2.95646 -2.87519 0
M  V30 32975 H 3217.32 -0.612239 -0.257021 0
M  V30 32976 H 3219.85 -2.03818 -0.178719 0
M  V30 32977 H 3219.86 -3.45146 -2.17574 0
M  V30 32978 H 3218.54 -3.99419 -1.1592 0
M  V30 32979 H 3217.12 -2.75761 -2.51018 0
M  V30 32980 N 3219.3 0.446741 -1.51136 0
M  V30 32981 C 3220.53 1.21785 -1.66889 0
M  V30 32982 C 3220.94 1.85709 -0.361762 0
M  V30 32983 O 3220.28 1.71095 0.668754 0
M  V30 32984 C 3220.34 2.34989 -2.72067 0
M  V30 32985 C 3220.01 1.91509 -4.14938 0
M  V30 32986 C 3221.01 1.4238 -5.00024 0
M  V30 32987 C 3218.69 1.99487 -4.60988 0
M  V30 32988 C 3220.68 1.01805 -6.29217 0
M  V30 32989 C 3218.37 1.58522 -5.90181 0
M  V30 32990 C 3219.37 1.09762 -6.74123 0
M  V30 32991 O 3219.06 0.69375 -8.00901 0
M  V30 32992 H 3218.79 0.373515 -0.563438 0
M  V30 32993 H 3221.34 0.536783 -1.98262 0
M  V30 32994 H 3219.57 3.06344 -2.35988 0
M  V30 32995 H 3221.26 2.96884 -2.76793 0
M  V30 32996 H 3222.03 1.35619 -4.65653 0
M  V30 32997 H 3217.91 2.36386 -3.95781 0
M  V30 32998 H 3221.45 0.636757 -6.94688 0
M  V30 32999 H 3217.35 1.64951 -6.24069 0
M  V30 33000 H 3218.12 0.820439 -8.14378 0
M  V30 33001 N 3220.78 1.41123 0.701567 0
M  V30 33002 C 3221.74 1.42231 1.79731 0
M  V30 33003 C 3222.74 0.313859 1.57707 0
M  V30 33004 O 3223.93 0.573452 1.64491 0
M  V30 33005 C 3221.06 1.22781 3.18021 0
M  V30 33006 H 3222.26 2.39767 1.80143 0
M  V30 33007 H 3219.81 1.27177 0.908602 0
M  V30 33008 H 3220.55 0.260609 3.23251 0
M  V30 33009 H 3220.33 2.03086 3.35408 0
M  V30 33010 H 3221.82 1.26377 3.98018 0
M  V30 33011 N 3222.26 -0.935219 1.26852 0
M  V30 33012 C 3223.21 -2.02076 1.0559 0
M  V30 33013 C 3224.19 -1.60894 -0.0136707 0
M  V30 33014 O 3225.38 -1.75821 0.203987 0
M  V30 33015 C 3222.51 -3.36146 0.697177 0
M  V30 33016 C 3221.6 -3.83795 1.8045 0
M  V30 33017 N 3221.99 -4.04032 3.0429 0
M  V30 33018 C 3220.29 -4.12763 1.68947 0
M  V30 33019 C 3220.99 -4.43593 3.76298 0
M  V30 33020 N 3219.96 -4.50637 3.04019 0
M  V30 33021 H 3223.77 -2.15743 1.99581 0
M  V30 33022 H 3221.28 -1.1215 1.17457 0
M  V30 33023 H 3223.28 -4.13569 0.525988 0
M  V30 33024 H 3221.94 -3.23847 -0.23519 0
M  V30 33025 H 3222.95 -3.90552 3.40132 0
M  V30 33026 H 3219.63 -4.09219 0.827413 0
M  V30 33027 H 3221.02 -4.67392 4.82695 0
M  V30 33028 N 3223.74 -1.08752 -1.14065 0
M  V30 33029 C 3224.67 -0.742398 -2.21384 0
M  V30 33030 C 3225.65 0.276776 -1.67833 0
M  V30 33031 O 3226.83 0.146366 -1.93648 0
M  V30 33032 C 3223.96 -0.154705 -3.46955 0
M  V30 33033 C 3222.92 -1.10262 -4.13553 0
M  V30 33034 C 3222.24 -0.37697 -5.33369 0
M  V30 33035 C 3223.54 -2.44221 -4.61685 0
M  V30 33036 H 3225.24 -1.63968 -2.50509 0
M  V30 33037 H 3222.78 -0.789829 -1.20406 0
M  V30 33038 H 3224.74 0.0987679 -4.21284 0
M  V30 33039 H 3223.46 0.777733 -3.17205 0
M  V30 33040 H 3222.12 -1.34125 -3.41183 0
M  V30 33041 H 3221.77 0.559385 -4.9988 0
M  V30 33042 H 3221.47 -1.00894 -5.78873 0
M  V30 33043 H 3222.99 -0.131634 -6.10458 0
M  V30 33044 H 3224.4 -2.24605 -5.27471 0
M  V30 33045 H 3222.8 -3.03143 -5.17904 0
M  V30 33046 H 3223.87 -3.05489 -3.76569 0
M  V30 33047 N 3225.21 1.31165 -0.873701 0
M  V30 33048 C 3226.45 1.98364 -0.493041 0
M  V30 33049 C 3226.82 1.67531 0.937943 0
M  V30 33050 O 3228.02 2.27973 1.42415 0
M  V30 33051 C 3226.29 3.49502 -0.747189 0
M  V30 33052 S 3227.85 4.36308 -0.466946 0
M  V30 33053 H 3224.67 0.686807 -0.183894 0
M  V30 33054 H 3227.27 1.59497 -1.13053 0
M  V30 33055 H 3225.97 3.69433 -1.78738 0
M  V30 33056 H 3225.5 3.93281 -0.0968302 0
M  V30 33057 H 3227.52 4.91249 0.699212 0
M  V30 33058 N 3226.69 0.633512 1.44307 0
M  V30 33059 C 3228.11 0.299338 1.56768 0
M  V30 33060 C 3228.31 -1.19741 1.62063 0
M  V30 33061 O 3227.36 -1.98155 1.56496 0
M  V30 33062 C 3228.68 0.993357 2.83818 0
M  V30 33063 C 3230.23 0.971727 2.97534 0
M  V30 33064 C 3230.7 1.64626 4.2739 0
M  V30 33065 N 3232.19 1.61296 4.34209 0
M  V30 33066 C 3232.93 2.10379 5.33412 0
M  V30 33067 N 3232.42 2.67664 6.39005 0
M  V30 33068 N 3234.22 2.00994 5.24936 0
M  V30 33069 H 3226.37 1.60504 1.39113 0
M  V30 33070 H 3228.63 0.673863 0.666792 0
M  V30 33071 H 3228.34 2.04829 2.85899 0
M  V30 33072 H 3228.21 0.532603 3.73421 0
M  V30 33073 H 3230.6 -0.0747335 2.95005 0
M  V30 33074 H 3230.68 1.47099 2.09274 0
M  V30 33075 H 3230.32 2.69218 4.30679 0
M  V30 33076 H 3230.25 1.1218 5.14513 0
M  V30 33077 H 3232.74 1.19474 3.58517 0
M  V30 33078 H 3233.06 3.02844 7.10989 0
M  V30 33079 H 3231.4 2.71716 6.39684 0
M  V30 33080 H 3234.59 1.55961 4.41355 0
M  V30 33081 H 3234.76 2.39557 6.02093 0
M  V30 33082 N 3228.17 -1.53093 0.374204 0
M  V30 33083 C 3229.4 -2.05798 -0.213289 0
M  V30 33084 C 3229.81 -1.24708 -1.41751 0
M  V30 33085 O 3229.17 -0.2899 -1.80183 0
M  V30 33086 C 3229.22 -3.56514 -0.598305 0
M  V30 33087 O 3228.94 -4.34531 0.55806 0
M  V30 33088 C 3230.44 -4.25509 -1.24327 0
M  V30 33089 H 3227.66 -0.670048 -0.0357281 0
M  V30 33090 H 3230.21 -1.97376 0.535069 0
M  V30 33091 H 3228.36 -3.65059 -1.29657 0
M  V30 33092 H 3228.78 -5.23927 0.245003 0
M  V30 33093 H 3230.25 -5.32255 -1.46316 0
M  V30 33094 H 3230.73 -3.7977 -2.20616 0
M  V30 33095 H 3231.33 -4.21241 -0.586195 0
M  V30 33096 N 3229.65 -0.103603 -1.57259 0
M  V30 33097 C 3230.6 0.869701 -2.15729 0
M  V30 33098 C 3231.59 1.28623 -1.10238 0
M  V30 33099 O 3232.8 1.25977 -1.28569 0
M  V30 33100 H 3229.17 0.298523 -0.690209 0
M  V30 33101 H 3231.14 0.351932 -2.96317 0
M  V30 33102 C 3229.89 2.11588 -2.75909 0
M  V30 33103 H 3229.21 1.80427 -3.56772 0
M  V30 33104 H 3230.65 2.7773 -3.20378 0
M  V30 33105 C 3229.11 2.89552 -1.72224 0
M  V30 33106 O 3229.64 3.84396 -1.16629 0
M  V30 33107 N 3227.85 2.53252 -1.42519 0
M  V30 33108 H 3227.4 1.76195 -1.87918 0
M  V30 33109 H 3227.35 3.05716 -0.733836 0
M  V30 33110 N 3231.13 1.56679 0.170126 0
M  V30 33111 C 3232.37 1.81702 0.884809 0
M  V30 33112 C 3232.7 0.680795 1.8273 0
M  V30 33113 O 3231.97 -0.29926 1.93601 0
M  V30 33114 H 3230.55 0.670291 0.329726 0
M  V30 33115 H 3233.21 1.9416 0.169657 0
M  V30 33116 H 3232.3 2.75792 1.46099 0
M  V30 33117 N 3232.6 -0.43872 1.5137 0
M  V30 33118 C 3233.85 -1.19003 1.64214 0
M  V30 33119 C 3234.18 -1.90897 0.35664 0
M  V30 33120 O 3233.46 -1.8354 -0.64369 0
M  V30 33121 C 3233.74 -2.20812 2.84454 0
M  V30 33122 C 3233.59 -1.5301 4.22975 0
M  V30 33123 C 3234.91 -3.21808 3.00213 0
M  V30 33124 H 3232.03 -0.431278 0.597636 0
M  V30 33125 H 3234.67 -0.479454 1.83851 0
M  V30 33126 H 3232.82 -2.81413 2.67841 0
M  V30 33127 H 3234.5 -0.957575 4.51252 0
M  V30 33128 H 3232.74 -0.832481 4.25737 0
M  V30 33129 H 3233.41 -2.27149 5.03098 0
M  V30 33130 H 3235.89 -2.7126 3.15527 0
M  V30 33131 H 3234.76 -3.90339 3.85911 0
M  V30 33132 H 3235.02 -3.87832 2.12223 0
M  V30 33133 N 3234.08 -1.41493 -0.694073 0
M  V30 33134 C 3235.32 -1.424 -1.46634 0
M  V30 33135 C 3235.69 -0.0321593 -1.91973 0
M  V30 33136 O 3236.89 0.0839852 -2.68669 0
M  V30 33137 C 3235.16 -2.40396 -2.6447 0
M  V30 33138 S 3236.72 -2.59845 -3.5359 0
M  V30 33139 H 3233.54 -0.504435 -0.501065 0
M  V30 33140 H 3236.14 -1.77943 -0.809729 0
M  V30 33141 H 3234.84 -3.40321 -2.29368 0
M  V30 33142 H 3234.37 -2.06212 -3.35023 0
M  V30 33143 H 3236.39 -1.86698 -4.59737 0
M  V30 33144 N 3235.56 0.928479 -1.27346 0
M  V30 33145 C 3236.81 1.67857 -1.13807 0
M  V30 33146 C 3237.14 1.9162 0.315516 0
M  V30 33147 O 3236.41 1.50601 1.23084 0
M  V30 33148 C 3236.7 3.04558 -1.92136 0
M  V30 33149 C 3236.55 2.88042 -3.45474 0
M  V30 33150 C 3237.87 4.04876 -1.7252 0
M  V30 33151 H 3234.99 0.609184 -0.414806 0
M  V30 33152 H 3237.63 1.0775 -1.56492 0
M  V30 33153 H 3235.78 3.55865 -1.55859 0
M  V30 33154 H 3237.45 2.43858 -3.91575 0
M  V30 33155 H 3235.7 2.234 -3.71853 0
M  V30 33156 H 3236.37 3.85054 -3.95521 0
M  V30 33157 H 3238.84 3.62577 -2.04149 0
M  V30 33158 H 3237.72 4.98517 -2.29721 0
M  V30 33159 H 3237.98 4.36949 -0.672933 0
M  V30 33160 N 3237.04 1.09355 1.13486 0
M  V30 33161 C 3238.32 0.741591 1.80997 0
M  V30 33162 C 3238.7 -0.77347 1.9642 0
M  V30 33163 O 3238.04 -1.69561 1.53171 0
M  V30 33164 C 3238.25 1.47978 3.16075 0
M  V30 33165 C 3239.6 1.64511 3.91435 0
M  V30 33166 O 3240.63 1.44223 3.25696 0
M  V30 33167 O 3239.48 1.98063 5.09346 0
M  V30 33168 H 3236.58 0.266311 0.782948 0
M  V30 33169 H 3239.12 1.19571 1.20419 0
M  V30 33170 H 3237.9 2.51142 3.00072 0
M  V30 33171 H 3237.52 1.01778 3.84353 0
M  V30 33172 N 3238.52 -1.307 0.880644 0
M  V30 33173 C 3239.76 -1.9698 0.507001 0
M  V30 33174 C 3240.12 -1.68283 -0.932664 0
M  V30 33175 O 3239.41 -0.974738 -1.64953 0
M  V30 33176 C 3239.61 -3.5021 0.713264 0
M  V30 33177 C 3239.43 -3.93801 2.17143 0
M  V30 33178 C 3238.2 -4.19616 2.81515 0
M  V30 33179 C 3240.4 -4.06948 3.1448 0
M  V30 33180 N 3238.38 -4.49636 4.17972 0
M  V30 33181 C 3239.76 -4.40802 4.35998 0
M  V30 33182 C 3241.81 -3.8936 3.10327 0
M  V30 33183 C 3240.51 -4.58902 5.53897 0
M  V30 33184 C 3242.54 -4.0866 4.27494 0
M  V30 33185 C 3241.9 -4.42854 5.47777 0
M  V30 33186 H 3238 -0.745927 0.234769 0
M  V30 33187 H 3240.58 -1.58018 1.13748 0
M  V30 33188 H 3238.76 -3.88238 0.112307 0
M  V30 33189 H 3240.49 -4.03534 0.306951 0
M  V30 33190 H 3237.24 -4.12655 2.32406 0
M  V30 33191 H 3237.67 -4.68787 4.88434 0
M  V30 33192 H 3242.31 -3.62003 2.18434 0
M  V30 33193 H 3240.03 -4.85103 6.46298 0
M  V30 33194 H 3243.61 -3.96525 4.25745 0
M  V30 33195 H 3242.49 -4.57482 6.3693 0
M  V30 33196 N 3240 -0.641156 -1.43969 0
M  V30 33197 C 3241.41 -0.307647 -1.56607 0
M  V30 33198 C 3241.61 1.18879 -1.62696 0
M  V30 33199 O 3240.67 1.97322 -1.57544 0
M  V30 33200 C 3241.98 -1.00839 -2.83288 0
M  V30 33201 C 3243.53 -0.987492 -2.97014 0
M  V30 33202 C 3244 -1.6689 -4.26511 0
M  V30 33203 N 3245.49 -1.63596 -4.33348 0
M  V30 33204 C 3246.23 -2.13205 -5.32289 0
M  V30 33205 N 3245.73 -2.71049 -6.37577 0
M  V30 33206 N 3247.52 -2.03775 -5.23863 0
M  V30 33207 H 3239.67 -1.61239 -1.38259 0
M  V30 33208 H 3241.93 -0.67739 -0.663209 0
M  V30 33209 H 3241.64 -2.06342 -2.84809 0
M  V30 33210 H 3241.51 -0.552399 -3.73133 0
M  V30 33211 H 3243.9 0.0590876 -2.95041 0
M  V30 33212 H 3243.98 -1.48207 -2.08491 0
M  V30 33213 H 3243.62 -2.71498 -4.29245 0
M  V30 33214 H 3243.55 -1.14907 -5.1391 0
M  V30 33215 H 3246.05 -1.21374 -3.57878 0
M  V30 33216 H 3246.36 -3.0661 -7.09373 0
M  V30 33217 H 3244.7 -2.75105 -6.38234 0
M  V30 33218 H 3247.89 -1.58299 -4.40521 0
M  V30 33219 H 3248.07 -2.42747 -6.00814 0
M  V30 33220 N 3241.47 1.52892 -0.382318 0
M  V30 33221 C 3242.7 2.05908 0.202372 0
M  V30 33222 C 3243.12 1.25458 1.41088 0
M  V30 33223 O 3242.47 0.299452 1.80026 0
M  V30 33224 C 3242.52 3.56827 0.579389 0
M  V30 33225 O 3242.25 4.34229 -0.581096 0
M  V30 33226 C 3243.75 4.26162 1.22069 0
M  V30 33227 H 3240.97 0.670228 0.0321741 0
M  V30 33228 H 3243.51 1.97089 -0.545529 0
M  V30 33229 H 3241.67 3.65741 1.27719 0
M  V30 33230 H 3242.08 5.2379 -0.272785 0
M  V30 33231 H 3243.55 5.33024 1.43491 0
M  V30 33232 H 3244.03 3.80935 2.18599 0
M  V30 33233 H 3244.64 4.21546 0.563848 0
M  V30 33234 N 3242.95 0.111941 1.57202 0
M  V30 33235 C 3244.36 -0.414559 1.82039 0
M  V30 33236 C 3244.71 -1.67072 1.02866 0
M  V30 33237 O 3243.84 -2.14795 0.263106 0
M  V30 33238 C 3244.43 -0.758895 3.30191 0
M  V30 33239 C 3242.99 -1.23006 3.55734 0
M  V30 33240 C 3242.14 -0.235177 2.76301 0
M  V30 33241 H 3245.09 0.337169 1.55077 0
M  V30 33242 H 3245.11 -1.61695 3.44434 0
M  V30 33243 H 3244.62 0.155541 3.87788 0
M  V30 33244 H 3242.72 -2.16164 3.03487 0
M  V30 33245 H 3242.84 -1.18026 4.64335 0
M  V30 33246 H 3241.2 -0.720779 2.44288 0
M  V30 33247 H 3241.98 0.672233 3.36654 0
M  V30 33248 N 3244.43 -1.56767 -0.161814 0
M  V30 33249 C 3245.71 -1.73419 -0.904724 0
M  V30 33250 C 3246.09 -0.675943 -1.99986 0
M  V30 33251 O 3245.43 0.307672 -2.26419 0
M  V30 33252 C 3245.64 -3.16959 -1.46076 0
M  V30 33253 C 3246.99 -3.78202 -1.92998 0
M  V30 33254 O 3248.02 -3.20296 -1.5585 0
M  V30 33255 O 3246.88 -4.79898 -2.61457 0
M  V30 33256 H 3243.97 -0.708535 -0.426506 0
M  V30 33257 H 3246.52 -1.69046 -0.148899 0
M  V30 33258 H 3245.29 -3.85469 -0.673019 0
M  V30 33259 H 3244.91 -3.25697 -2.28051 0
M  V30 33260 N 3245.91 0.430686 -1.51601 0
M  V30 33261 C 3247.15 1.17956 -1.64598 0
M  V30 33262 C 3247.48 1.91037 -0.365415 0
M  V30 33263 O 3246.74 1.84562 0.650794 0
M  V30 33264 C 3247.04 2.21604 -2.80404 0
M  V30 33265 C 3246.7 1.65487 -4.19434 0
M  V30 33266 C 3245.36 1.49907 -4.57254 0
M  V30 33267 C 3247.72 1.24295 -5.06162 0
M  V30 33268 C 3245.04 0.916174 -5.79502 0
M  V30 33269 C 3247.4 0.674327 -6.28996 0
M  V30 33270 C 3246.06 0.505474 -6.65583 0
M  V30 33271 H 3245.33 0.431631 -0.602308 0
M  V30 33272 H 3247.98 0.469693 -1.85651 0
M  V30 33273 H 3246.28 2.98654 -2.536 0
M  V30 33274 H 3247.98 2.7938 -2.87659 0
M  V30 33275 H 3244.57 1.78592 -3.89619 0
M  V30 33276 H 3248.75 1.3515 -4.77544 0
M  V30 33277 H 3244.01 0.773173 -6.06492 0
M  V30 33278 H 3248.18 0.346657 -6.95537 0
M  V30 33279 H 3245.81 0.0516852 -7.60182 0
M  V30 33280 N 3247.39 1.4186 0.686559 0
M  V30 33281 C 3248.63 1.43176 1.45877 0
M  V30 33282 C 3248.99 0.0423397 1.91953 0
M  V30 33283 O 3250.19 -0.0697358 2.6871 0
M  V30 33284 C 3248.46 2.41795 2.63192 0
M  V30 33285 S 3250.02 2.61716 3.52207 0
M  V30 33286 H 3246.84 0.507086 0.498383 0
M  V30 33287 H 3249.44 1.7837 0.800281 0
M  V30 33288 H 3248.14 3.41533 2.2756 0
M  V30 33289 H 3247.68 2.07986 3.33924 0
M  V30 33290 H 3249.69 1.89133 4.58741 0
M  V30 33291 N 3248.86 -0.921712 1.27837 0
M  V30 33292 C 3249.83 -2.00467 1.11111 0
M  V30 33293 C 3250.83 -1.60712 0.0532312 0
M  V30 33294 O 3252.02 -1.71626 0.298338 0
M  V30 33295 C 3249.15 -3.33754 0.694328 0
M  V30 33296 H 3250.34 -2.16735 2.07283 0
M  V30 33297 H 3247.89 -1.10331 1.1071 0
M  V30 33298 H 3248.63 -3.23187 -0.268504 0
M  V30 33299 H 3248.41 -3.63968 1.45842 0
M  V30 33300 H 3249.9 -4.13271 0.599723 0
M  V30 33301 N 3250.34 -1.09956 -1.12905 0
M  V30 33302 C 3251.27 -0.687807 -2.17588 0
M  V30 33303 C 3252.25 0.308416 -1.59648 0
M  V30 33304 O 3253.44 0.208494 -1.87343 0
M  V30 33305 C 3250.56 -0.0141114 -3.38697 0
M  V30 33306 C 3249.61 -0.973015 -4.15253 0
M  V30 33307 S 3250.44 -2.48785 -4.742 0
M  V30 33308 C 3251.6 -1.82672 -5.9865 0
M  V30 33309 H 3251.83 -1.5746 -2.52178 0
M  V30 33310 H 3249.36 -0.916073 -1.24288 0
M  V30 33311 H 3251.32 0.368271 -4.08845 0
M  V30 33312 H 3249.98 0.849402 -3.02397 0
M  V30 33313 H 3249.18 -0.448803 -5.01998 0
M  V30 33314 H 3248.78 -1.29706 -3.50788 0
M  V30 33315 H 3251.07 -1.154 -6.676 0
M  V30 33316 H 3252.01 -2.67355 -6.55688 0
M  V30 33317 H 3252.42 -1.29334 -5.49484 0
M  V30 33318 N 3251.82 1.30231 -0.887563 0
M  V30 33319 C 3253.04 2.00734 -0.521597 0
M  V30 33320 C 3253.47 1.66075 0.883217 0
M  V30 33321 O 3252.83 0.878759 1.5858 0
M  V30 33322 C 3252.88 3.5361 -0.706583 0
M  V30 33323 O 3251.98 4.11663 0.246375 0
M  V30 33324 H 3251.32 0.631489 -0.205227 0
M  V30 33325 H 3253.85 1.66016 -1.19582 0
M  V30 33326 H 3253.86 4.03466 -0.606572 0
M  V30 33327 H 3252.54 3.78174 -1.73083 0
M  V30 33328 H 3251.11 3.72766 0.0998407 0
M  V30 33329 N 3253.3 0.648782 1.43627 0
M  V30 33330 C 3254.54 0.163914 2.03742 0
M  V30 33331 C 3254.9 -1.19788 1.50049 0
M  V30 33332 O 3256.1 -1.7759 2.0178 0
M  V30 33333 C 3254.37 0.168912 3.57001 0
M  V30 33334 S 3255.93 -0.248758 4.38094 0
M  V30 33335 H 3252.75 0.0697639 0.707569 0
M  V30 33336 H 3255.35 0.856125 1.75758 0
M  V30 33337 H 3254.06 1.16284 3.93581 0
M  V30 33338 H 3253.59 -0.54398 3.89621 0
M  V30 33339 H 3255.6 -1.48873 4.7334 0
M  V30 33340 N 3254.78 -1.52688 0.390421 0
M  V30 33341 C 3256.19 -1.86514 -0.0833612 0
M  V30 33342 C 3256.54 -1.31005 -1.46055 0
M  V30 33343 O 3255.66 -0.641845 -2.06662 0
M  V30 33344 C 3256.26 -3.38431 -0.158042 0
M  V30 33345 C 3254.82 -3.71965 -0.57612 0
M  V30 33346 C 3253.96 -2.76067 0.261204 0
M  V30 33347 H 3256.92 -1.46581 0.608251 0
M  V30 33348 H 3256.94 -3.67744 -0.976958 0
M  V30 33349 H 3256.45 -3.78802 0.844432 0
M  V30 33350 H 3254.55 -3.37164 -1.58592 0
M  V30 33351 H 3254.66 -4.77938 -0.333493 0
M  V30 33352 H 3253.03 -2.53225 -0.273692 0
M  V30 33353 H 3253.81 -3.19275 1.26168 0
M  V30 33354 N 3256.25 -0.120276 -1.5714 0
M  V30 33355 C 3257.67 0.404899 -1.82257 0
M  V30 33356 C 3258.02 1.66524 -1.03751 0
M  V30 33357 O 3257.14 2.14652 -0.274493 0
M  V30 33358 C 3257.74 0.741373 -3.30589 0
M  V30 33359 C 3256.3 1.21118 -3.56381 0
M  V30 33360 C 3255.44 0.220521 -2.76422 0
M  V30 33361 H 3258.39 -0.345388 -1.54896 0
M  V30 33362 H 3258.41 1.59866 -3.45287 0
M  V30 33363 H 3257.93 -0.176105 -3.877 0
M  V30 33364 H 3256.03 2.14551 -3.04629 0
M  V30 33365 H 3256.14 1.15562 -4.64954 0
M  V30 33366 H 3254.5 0.707814 -2.44667 0
M  V30 33367 H 3255.29 -0.690077 -3.36293 0
M  V30 33368 N 3257.73 1.56851 0.153498 0
M  V30 33369 C 3258.96 1.87508 0.88631 0
M  V30 33370 C 3259.38 0.708595 1.74243 0
M  V30 33371 O 3258.74 -0.341966 1.78046 0
M  V30 33372 C 3258.79 3.16706 1.72422 0
M  V30 33373 O 3257.89 3.00183 2.82779 0
M  V30 33374 H 3257.23 0.61625 0.247248 0
M  V30 33375 H 3259.76 2.04076 0.146271 0
M  V30 33376 H 3259.77 3.48563 2.12056 0
M  V30 33377 H 3258.45 4.01212 1.09551 0
M  V30 33378 H 3257.03 2.7972 2.46599 0
M  V30 33379 N 3259.21 -0.42264 1.51827 0
M  V30 33380 C 3260.14 -1.52114 1.77154 0
M  V30 33381 C 3261.12 -1.58323 0.621922 0
M  V30 33382 O 3262.31 -1.73815 0.866148 0
M  V30 33383 C 3259.44 -2.90065 1.90997 0
M  V30 33384 C 3258.39 -2.98712 3.06521 0
M  V30 33385 C 3257.72 -4.38786 3.05567 0
M  V30 33386 C 3259.02 -2.71437 4.46227 0
M  V30 33387 H 3260.71 -1.3117 2.69137 0
M  V30 33388 H 3258.26 -0.629584 1.29508 0
M  V30 33389 H 3260.21 -3.66886 2.07298 0
M  V30 33390 H 3258.93 -3.12272 0.956743 0
M  V30 33391 H 3257.59 -2.24333 2.89949 0
M  V30 33392 H 3257.24 -4.57982 2.07993 0
M  V30 33393 H 3256.94 -4.45498 3.83151 0
M  V30 33394 H 3258.46 -5.17561 3.2398 0
M  V30 33395 H 3259.88 -3.37986 4.63075 0
M  V30 33396 H 3258.28 -2.89542 5.25628 0
M  V30 33397 H 3259.35 -1.66952 4.55253 0
M  V30 33398 N 3260.69 -1.42222 -0.679027 0
M  V30 33399 C 3261.93 -1.42677 -1.44122 0
M  V30 33400 C 3262.27 -0.0414721 -1.94156 0
M  V30 33401 O 3261.54 0.93358 -1.7063 0
M  V30 33402 C 3261.83 -2.44761 -2.64129 0
M  V30 33403 C 3261.68 -3.92464 -2.19755 0
M  V30 33404 C 3263 -2.43887 -3.66343 0
M  V30 33405 H 3260.12 -0.51955 -0.52272 0
M  V30 33406 H 3262.76 -1.73608 -0.772036 0
M  V30 33407 H 3260.91 -2.18515 -3.21222 0
M  V30 33408 H 3262.58 -4.29674 -1.67862 0
M  V30 33409 H 3260.82 -4.06534 -1.5137 0
M  V30 33410 H 3261.49 -4.59464 -3.05936 0
M  V30 33411 H 3263.97 -2.67217 -3.18958 0
M  V30 33412 H 3262.85 -3.17301 -4.47897 0
M  V30 33413 H 3263.11 -1.46333 -4.1718 0
M  V30 33414 N 3262.17 0.91492 -1.28324 0
M  V30 33415 C 3263.4 1.69527 -1.18086 0
M  V30 33416 C 3263.8 1.8736 0.263241 0
M  V30 33417 O 3263.15 1.39957 1.18986 0
M  V30 33418 C 3263.21 3.10829 -1.80626 0
M  V30 33419 C 3262.87 3.16286 -3.29867 0
M  V30 33420 C 3263.87 2.97571 -4.26319 0
M  V30 33421 C 3261.56 3.38837 -3.70803 0
M  V30 33422 C 3263.55 3.01316 -5.61683 0
M  V30 33423 C 3261.24 3.42215 -5.06293 0
M  V30 33424 C 3262.23 3.23474 -6.01542 0
M  V30 33425 O 3261.92 3.26611 -7.34561 0
M  V30 33426 H 3261.65 0.536753 -0.410941 0
M  V30 33427 H 3264.21 1.15364 -1.69942 0
M  V30 33428 H 3262.44 3.66529 -1.23262 0
M  V30 33429 H 3264.13 3.70885 -1.64922 0
M  V30 33430 H 3264.89 2.79977 -3.96028 0
M  V30 33431 H 3260.77 3.52469 -2.9713 0
M  V30 33432 H 3264.32 2.86607 -6.36005 0
M  V30 33433 H 3260.21 3.59336 -5.36235 0
M  V30 33434 H 3260.98 3.42981 -7.43173 0
M  V30 33435 N 3263.64 1.10553 1.1232 0
M  V30 33436 C 3264.59 0.750356 2.20165 0
M  V30 33437 C 3265.59 -0.254037 1.67484 0
M  V30 33438 O 3266.79 -0.114278 1.79637 0
M  V30 33439 H 3263.17 0.224722 0.717638 0
M  V30 33440 H 3265.14 1.66877 2.47375 0
M  V30 33441 C 3263.89 0.199712 3.47126 0
M  V30 33442 H 3263.21 0.963803 3.88009 0
M  V30 33443 H 3264.65 -0.0107288 4.23999 0
M  V30 33444 C 3263.11 -1.06786 3.19528 0
M  V30 33445 O 3263.64 -2.14917 3.39372 0
M  V30 33446 N 3261.85 -0.986984 2.73326 0
M  V30 33447 H 3261.39 -0.106951 2.57378 0
M  V30 33448 H 3261.35 -1.8358 2.55237 0
M  V30 33449 N 3265.12 -1.29758 0.894457 0
M  V30 33450 C 3266.07 -2.25456 0.33965 0
M  V30 33451 C 3267.06 -1.51664 -0.5373 0
M  V30 33452 O 3268.25 -1.72869 -0.380174 0
M  V30 33453 C 3265.38 -3.40515 -0.436434 0
M  V30 33454 C 3264.46 -4.21651 0.455139 0
M  V30 33455 N 3264.85 -4.81143 1.55996 0
M  V30 33456 C 3263.15 -4.45288 0.251972 0
M  V30 33457 C 3263.85 -5.42013 2.11179 0
M  V30 33458 N 3262.83 -5.25116 1.4055 0
M  V30 33459 H 3266.63 -2.69009 1.1837 0
M  V30 33460 H 3264.15 -1.44308 0.744921 0
M  V30 33461 H 3266.14 -4.0813 -0.850606 0
M  V30 33462 H 3264.8 -2.985 -1.27781 0
M  V30 33463 H 3265.81 -4.80081 1.94275 0
M  V30 33464 H 3262.49 -4.13842 -0.551463 0
M  V30 33465 H 3263.88 -5.99189 3.0401 0
M  V30 33466 N 3266.6 -0.65639 -1.4328 0
M  V30 33467 C 3267.84 -0.174717 -2.03652 0
M  V30 33468 C 3268.2 1.18991 -1.50682 0
M  V30 33469 O 3269.41 1.76518 -2.02719 0
M  V30 33470 C 3267.68 -0.187842 -3.56906 0
M  V30 33471 S 3269.24 0.225522 -4.3822 0
M  V30 33472 H 3266.05 -0.0735154 -0.707189 0
M  V30 33473 H 3268.66 -0.865434 -1.75301 0
M  V30 33474 H 3267.36 -1.1837 -3.92959 0
M  V30 33475 H 3266.89 0.52331 -3.89904 0
M  V30 33476 H 3268.91 1.46361 -4.74123 0
M  V30 33477 N 3268.08 1.52478 -0.398513 0
M  V30 33478 C 3268.99 2.3045 0.439287 0
M  V30 33479 C 3270.01 1.3774 1.06319 0
M  V30 33480 O 3271.18 1.70812 1.06701 0
M  V30 33481 C 3268.25 3.10297 1.5465 0
M  V30 33482 C 3267.31 4.1873 0.94675 0
M  V30 33483 C 3266.54 4.9476 2.0012 0
M  V30 33484 O 3266.76 4.70977 3.21771 0
M  V30 33485 O 3265.7 5.79875 1.61335 0
M  V30 33486 H 3269.52 3.03066 -0.196171 0
M  V30 33487 H 3267.11 1.48519 -0.161987 0
M  V30 33488 H 3268.99 3.60053 2.18952 0
M  V30 33489 H 3267.67 2.40486 2.16675 0
M  V30 33490 H 3266.57 3.73148 0.266736 0
M  V30 33491 H 3267.91 4.90803 0.370578 0
M  V30 33492 N 3269.56 0.128608 1.57074 0
M  V30 33493 C 3270.51 -0.829381 2.1238 0
M  V30 33494 C 3271.49 -1.22179 1.04696 0
M  V30 33495 O 3272.68 -1.19127 1.30911 0
M  V30 33496 C 3269.81 -2.07571 2.7344 0
M  V30 33497 C 3268.9 -1.70723 3.8822 0
M  V30 33498 N 3269.29 -1.046 4.94866 0
M  V30 33499 C 3267.59 -2.00118 3.98583 0
M  V30 33500 C 3268.29 -0.871036 5.75142 0
M  V30 33501 N 3267.26 -1.39909 5.25287 0
M  V30 33502 H 3271.07 -0.314765 2.9221 0
M  V30 33503 H 3268.58 -0.0735503 1.62233 0
M  V30 33504 H 3270.58 -2.7718 3.11411 0
M  V30 33505 H 3269.24 -2.59567 1.95077 0
M  V30 33506 H 3270.25 -0.708871 5.13026 0
M  V30 33507 H 3266.93 -2.54094 3.31274 0
M  V30 33508 H 3268.32 -0.351278 6.70981 0
M  V30 33509 N 3271.04 -1.5693 -0.145178 0
M  V30 33510 C 3272.28 -1.83086 -0.85579 0
M  V30 33511 C 3272.6 -0.709779 -1.81624 0
M  V30 33512 O 3271.87 0.268422 -1.94052 0
M  V30 33513 H 3270.45 -0.675452 -0.31902 0
M  V30 33514 H 3273.12 -1.94406 -0.138746 0
M  V30 33515 H 3272.21 -2.78082 -1.41693 0
M  V30 33516 N 3272.51 0.414582 -1.52049 0
M  V30 33517 C 3273.75 1.17126 -1.67514 0
M  V30 33518 C 3274.12 1.87917 -0.393863 0
M  V30 33519 O 3275.32 2.65426 -0.424542 0
M  V30 33520 C 3273.59 2.14352 -2.85986 0
M  V30 33521 S 3275.15 2.982 -3.21904 0
M  V30 33522 H 3271.97 0.396867 -0.58993 0
M  V30 33523 H 3274.57 0.459375 -1.90026 0
M  V30 33524 H 3273.27 1.61023 -3.77491 0
M  V30 33525 H 3272.8 2.90088 -2.6573 0
M  V30 33526 H 3274.82 4.16244 -2.70102 0
M  V30 33527 N 3273.99 1.4258 0.671475 0
M  V30 33528 C 3275.4 1.38483 1.25217 0
M  V30 33529 C 3275.75 0.0797534 1.96038 0
M  V30 33530 O 3274.88 -0.821406 2.00205 0
M  V30 33531 C 3275.47 2.50846 2.27731 0
M  V30 33532 C 3274.03 2.50072 2.8132 0
M  V30 33533 C 3273.18 2.29469 1.5569 0
M  V30 33534 H 3276.13 1.51746 0.464647 0
M  V30 33535 H 3276.15 2.21288 3.09535 0
M  V30 33536 H 3275.66 3.45818 1.76158 0
M  V30 33537 H 3273.76 1.58928 3.37006 0
M  V30 33538 H 3273.88 3.47224 3.3011 0
M  V30 33539 H 3272.24 1.77791 1.8238 0
M  V30 33540 H 3273.02 3.265 1.06078 0
M  V30 33541 N 3275.47 -0.908102 1.28807 0
M  V30 33542 C 3276.89 -1.18747 1.06636 0
M  V30 33543 C 3277.09 -2.00624 -0.187694 0
M  V30 33544 O 3276.14 -2.36378 -0.887799 0
M  V30 33545 C 3277.45 -1.91657 2.31707 0
M  V30 33546 C 3279 -2.04517 2.36942 0
M  V30 33547 C 3279.48 -2.80836 3.61794 0
M  V30 33548 N 3280.97 -2.88395 3.62467 0
M  V30 33549 C 3281.7 -3.47962 4.55752 0
M  V30 33550 N 3281.2 -4.08764 5.5936 0
M  V30 33551 N 3282.99 -3.45556 4.43337 0
M  V30 33552 H 3275.14 -0.361603 2.09299 0
M  V30 33553 H 3277.41 -0.222652 0.921483 0
M  V30 33554 H 3277.11 -1.38925 3.23098 0
M  V30 33555 H 3276.99 -2.92178 2.38561 0
M  V30 33556 H 3279.37 -2.56428 1.46044 0
M  V30 33557 H 3279.45 -1.03155 2.34079 0
M  V30 33558 H 3279.1 -2.29604 4.53039 0
M  V30 33559 H 3279.03 -3.82526 3.61914 0
M  V30 33560 H 3281.52 -2.45203 2.87548 0
M  V30 33561 H 3281.83 -4.52213 6.26676 0
M  V30 33562 H 3280.18 -4.07251 5.6318 0
M  V30 33563 H 3283.37 -2.97269 3.61592 0
M  V30 33564 H 3283.54 -3.91686 5.16223 0
M  V30 33565 N 3276.95 -1.11147 -1.11732 0
M  V30 33566 C 3277.9 -0.736171 -2.15788 0
M  V30 33567 C 3278.88 0.258292 -1.58813 0
M  V30 33568 O 3280.07 0.0658768 -1.76877 0
M  V30 33569 C 3277.2 -0.177657 -3.4284 0
M  V30 33570 C 3276.29 -1.1996 -4.0678 0
M  V30 33571 N 3276.68 -2.39279 -4.45622 0
M  V30 33572 C 3274.98 -1.04183 -4.33661 0
M  V30 33573 C 3275.68 -3.0443 -4.95678 0
M  V30 33574 N 3274.65 -2.31921 -4.91644 0
M  V30 33575 H 3278.46 -1.64435 -2.43595 0
M  V30 33576 H 3275.97 -0.99027 -1.28714 0
M  V30 33577 H 3277.97 0.109328 -4.16757 0
M  V30 33578 H 3276.63 0.725145 -3.16499 0
M  V30 33579 H 3277.64 -2.76755 -4.37752 0
M  V30 33580 H 3274.32 -0.195206 -4.17043 0
M  V30 33581 H 3275.71 -4.05968 -5.35387 0
M  V30 33582 N 3278.43 1.29282 -0.901326 0
M  V30 33583 C 3279.67 1.97274 -0.535006 0
M  V30 33584 C 3280.03 1.69483 0.902197 0
M  V30 33585 O 3281.23 2.30942 1.37547 0
M  V30 33586 C 3279.5 3.47839 -0.821156 0
M  V30 33587 S 3281.06 4.3522 -0.559388 0
M  V30 33588 H 3277.88 0.682752 -0.198421 0
M  V30 33589 H 3280.48 1.57063 -1.16411 0
M  V30 33590 H 3279.18 3.65559 -1.86534 0
M  V30 33591 H 3278.72 3.92987 -0.180229 0
M  V30 33592 H 3280.73 4.92621 0.594853 0
M  V30 33593 N 3279.9 0.663979 1.4293 0
M  V30 33594 C 3281.18 0.111208 1.95284 0
M  V30 33595 C 3281.56 -1.3714 1.60487 0
M  V30 33596 O 3280.91 -2.10223 0.895462 0
M  V30 33597 C 3281.12 0.36885 3.47045 0
M  V30 33598 C 3282.47 0.279548 4.23679 0
M  V30 33599 O 3283.49 0.301999 3.54917 0
M  V30 33600 O 3282.35 0.212456 5.46087 0
M  V30 33601 H 3279.44 -0.00340264 0.826993 0
M  V30 33602 H 3281.99 0.737962 1.52814 0
M  V30 33603 H 3280.76 1.39632 3.65539 0
M  V30 33604 H 3280.38 -0.290444 3.96538 0
M  V30 33605 N 3281.38 -1.52265 0.406593 0
M  V30 33606 C 3282.63 -2.01386 -0.169681 0
M  V30 33607 C 3282.95 -1.29419 -1.45862 0
M  V30 33608 O 3282.22 -0.41936 -1.91359 0
M  V30 33609 H 3280.8 -0.744106 -0.0656944 0
M  V30 33610 H 3283.46 -1.87205 0.542253 0
M  V30 33611 H 3282.56 -3.09928 -0.367604 0
M  V30 33612 N 3282.86 -0.136936 -1.57004 0
M  V30 33613 C 3283.81 0.823746 -2.17525 0
M  V30 33614 C 3284.8 1.26256 -1.12942 0
M  V30 33615 O 3286.01 1.23221 -1.31212 0
M  V30 33616 H 3282.38 0.283815 -0.696386 0
M  V30 33617 H 3284.35 0.289 -2.96997 0
M  V30 33618 C 3283.1 2.05688 -2.80335 0
M  V30 33619 H 3282.43 1.72819 -3.60519 0
M  V30 33620 H 3283.87 2.70872 -3.26197 0
M  V30 33621 C 3282.33 2.85834 -1.78327 0
M  V30 33622 O 3282.86 3.81836 -1.24757 0
M  V30 33623 N 3281.06 2.50172 -1.47858 0
M  V30 33624 H 3280.61 1.7217 -1.91613 0
M  V30 33625 H 3280.57 3.04091 -0.798518 0
M  V30 33626 N 3284.34 1.57005 0.136853 0
M  V30 33627 C 3285.58 1.84173 0.848999 0
M  V30 33628 C 3285.92 0.720059 1.80357 0
M  V30 33629 O 3285.19 -0.27555 1.92538 0
M  V30 33630 C 3285.48 3.21874 1.61459 0
M  V30 33631 C 3285.33 4.44618 0.680824 0
M  V30 33632 C 3286.65 3.56919 2.57482 0
M  V30 33633 H 3283.77 0.669925 0.307197 0
M  V30 33634 H 3286.41 1.89659 0.113828 0
M  V30 33635 H 3284.56 3.17329 2.24131 0
M  V30 33636 H 3286.23 4.61255 0.0643284 0
M  V30 33637 H 3284.47 4.33799 -0.00891254 0
M  V30 33638 H 3285.14 5.37596 1.25277 0
M  V30 33639 H 3287.62 3.6214 2.04924 0
M  V30 33640 H 3286.5 4.5428 3.08093 0
M  V30 33641 H 3286.76 2.83403 3.39316 0
M  V30 33642 N 3285.82 -0.406513 1.52267 0
M  V30 33643 C 3287.04 -1.17942 1.706 0
M  V30 33644 C 3287.47 -1.83446 0.415825 0
M  V30 33645 O 3286.82 -1.70115 -0.626938 0
M  V30 33646 C 3286.87 -2.21628 2.84453 0
M  V30 33647 O 3285.98 -3.27828 2.50205 0
M  V30 33648 H 3285.32 -0.344167 0.567843 0
M  V30 33649 H 3287.85 -0.476176 1.98982 0
M  V30 33650 H 3287.86 -2.65914 3.09441 0
M  V30 33651 H 3286.53 -1.73335 3.78058 0
M  V30 33652 H 3285.11 -2.88803 2.35897 0
M  V30 33653 N 3287.29 -1.42934 -0.663904 0
M  V30 33654 C 3288.52 -1.47614 -1.45688 0
M  V30 33655 C 3288.94 -0.0920636 -1.87875 0
M  V30 33656 O 3288.3 0.911892 -1.56698 0
M  V30 33657 C 3288.35 -2.41804 -2.67513 0
M  V30 33658 O 3287.45 -1.89692 -3.66184 0
M  V30 33659 H 3286.8 -0.49971 -0.437248 0
M  V30 33660 H 3289.33 -1.87738 -0.813364 0
M  V30 33661 H 3289.34 -2.5875 -3.15456 0
M  V30 33662 H 3288.01 -3.42354 -2.36149 0
M  V30 33663 H 3286.59 -1.82355 -3.25271 0
M  V30 33664 N 3288.77 0.901258 -1.29287 0
M  V30 33665 C 3290.01 1.66592 -1.18434 0
M  V30 33666 C 3290.38 1.90228 0.260278 0
M  V30 33667 O 3291.58 2.64264 0.491753 0
M  V30 33668 C 3289.85 2.97965 -1.97362 0
M  V30 33669 S 3291.41 3.89007 -2.03026 0
M  V30 33670 H 3288.23 0.571976 -0.422333 0
M  V30 33671 H 3290.83 1.07102 -1.63552 0
M  V30 33672 H 3289.53 2.78474 -3.01464 0
M  V30 33673 H 3289.06 3.62495 -1.52842 0
M  V30 33674 H 3291.08 4.82789 -1.14581 0
M  V30 33675 N 3290.25 1.11738 1.11141 0
M  V30 33676 C 3291.5 0.866444 1.82585 0
M  V30 33677 C 3291.82 -0.60956 1.85228 0
M  V30 33678 O 3291.09 -1.44286 1.32508 0
M  V30 33679 H 3289.67 0.317552 0.676143 0
M  V30 33680 H 3292.33 1.41039 1.34514 0
M  V30 33681 H 3291.43 1.24141 2.86348 0
M  V30 33682 N 3291.73 -1.28802 0.90817 0
M  V30 33683 C 3293.01 -1.90172 0.457595 0
M  V30 33684 C 3293.39 -1.82366 -1.06329 0
M  V30 33685 O 3292.73 -1.25592 -1.9089 0
M  V30 33686 C 3292.94 -3.34909 0.981683 0
M  V30 33687 C 3294.29 -4.11907 1.03044 0
M  V30 33688 O 3295.32 -3.43847 0.929938 0
M  V30 33689 O 3294.17 -5.3355 1.18266 0
M  V30 33690 H 3291.27 -0.81435 0.144095 0
M  V30 33691 H 3293.81 -1.37209 0.998589 0
M  V30 33692 H 3292.59 -3.34787 2.02567 0
M  V30 33693 H 3292.21 -3.95363 0.421191 0
M  V30 33694 N 3293.21 -0.67155 -1.42576 0
M  V30 33695 C 3294.16 0.0314885 -2.27978 0
M  V30 33696 C 3295.14 0.776772 -1.40908 0
M  V30 33697 O 3296.33 0.656219 -1.64386 0
M  V30 33698 C 3293.46 0.984342 -3.28885 0
M  V30 33699 C 3292.55 0.236572 -4.2344 0
M  V30 33700 N 3292.94 -0.756802 -5.00106 0
M  V30 33701 C 3291.24 0.475473 -4.43458 0
M  V30 33702 C 3291.94 -1.20231 -5.69139 0
M  V30 33703 N 3290.91 -0.532897 -5.40982 0
M  V30 33704 H 3294.72 -0.730505 -2.84677 0
M  V30 33705 H 3292.23 -0.500344 -1.545 0
M  V30 33706 H 3294.23 1.50295 -3.88866 0
M  V30 33707 H 3292.89 1.7462 -2.73748 0
M  V30 33708 H 3293.9 -1.13622 -5.05283 0
M  V30 33709 H 3290.57 1.21708 -3.99366 0
M  V30 33710 H 3291.96 -2.02529 -6.40649 0
M  V30 33711 N 3294.68 1.52047 -0.414663 0
M  V30 33712 C 3296.1 1.86623 0.0536779 0
M  V30 33713 C 3296.45 1.33312 1.43952 0
M  V30 33714 O 3295.57 0.674642 2.05615 0
M  V30 33715 C 3296.17 3.3864 0.104181 0
M  V30 33716 C 3294.73 3.72834 0.516871 0
M  V30 33717 C 3293.87 2.75617 -0.305091 0
M  V30 33718 H 3296.82 1.45595 -0.631494 0
M  V30 33719 H 3296.84 3.69252 0.91833 0
M  V30 33720 H 3296.36 3.77411 -0.904589 0
M  V30 33721 H 3294.46 3.39644 1.53208 0
M  V30 33722 H 3294.57 4.78408 0.257416 0
M  V30 33723 H 3292.93 2.53629 0.233372 0
M  V30 33724 H 3293.72 3.17227 -1.31231 0
M  V30 33725 N 3296.16 0.145261 1.56929 0
M  V30 33726 C 3297.39 -0.516528 2.00865 0
M  V30 33727 C 3297.81 -1.5774 1.02469 0
M  V30 33728 O 3297.17 -1.813 0.000177307 0
M  V30 33729 C 3297.22 -1.09557 3.43554 0
M  V30 33730 O 3296.32 -2.21049 3.48154 0
M  V30 33731 H 3295.66 -0.12651 0.651837 0
M  V30 33732 H 3298.19 0.241481 2.0317 0
M  V30 33733 H 3298.2 -1.42466 3.82318 0
M  V30 33734 H 3296.88 -0.318677 4.14677 0
M  V30 33735 H 3295.46 -1.89381 3.21231 0
M  V30 33736 N 3297.64 -1.57075 -0.128525 0
M  V30 33737 C 3298.55 -2.02929 -1.17715 0
M  V30 33738 C 3299.57 -0.947957 -1.4591 0
M  V30 33739 O 3300.74 -1.25879 -1.57215 0
M  V30 33740 C 3297.81 -2.41637 -2.48621 0
M  V30 33741 C 3296.87 -3.63808 -2.27908 0
M  V30 33742 C 3296.1 -4.0066 -3.52572 0
M  V30 33743 O 3296.33 -3.3796 -4.59499 0
M  V30 33744 O 3295.26 -4.93814 -3.44139 0
M  V30 33745 H 3299.09 -2.92482 -0.817794 0
M  V30 33746 H 3296.67 -1.45512 -0.338623 0
M  V30 33747 H 3298.55 -2.67311 -3.25765 0
M  V30 33748 H 3297.23 -1.55234 -2.8405 0
M  V30 33749 H 3296.13 -3.43297 -1.48654 0
M  V30 33750 H 3297.47 -4.50887 -1.97388 0
M  V30 33751 N 3299.12 0.398432 -1.5248 0
M  V30 33752 C 3300.37 1.14212 -1.66733 0
M  V30 33753 C 3300.69 1.90748 -0.404991 0
M  V30 33754 O 3299.96 1.87105 0.580402 0
M  V30 33755 H 3298.54 0.424611 -0.614585 0
M  V30 33756 H 3301.2 0.453026 -1.89562 0
M  V30 33757 H 3300.3 1.85027 -2.5134 0
M  V30 33758 N 3300.6 1.43284 0.656314 0
M  V30 33759 C 3301.84 1.46238 1.42807 0
M  V30 33760 C 3302.2 0.0830463 1.9182 0
M  V30 33761 O 3303.4 -0.0127229 2.68797 0
M  V30 33762 C 3301.67 2.47324 2.58003 0
M  V30 33763 S 3303.23 2.69128 3.46577 0
M  V30 33764 H 3300.05 0.517543 0.487514 0
M  V30 33765 H 3302.65 1.80027 0.762266 0
M  V30 33766 H 3301.36 3.46283 2.20265 0
M  V30 33767 H 3300.89 2.15022 3.29438 0
M  V30 33768 H 3302.9 1.98821 4.54626 0
M  V30 33769 N 3302.08 -0.894389 1.29763 0
M  V30 33770 C 3303.32 -1.64537 1.18042 0
M  V30 33771 C 3303.65 -1.9266 -0.266936 0
M  V30 33772 O 3302.91 -1.53918 -1.20863 0
M  V30 33773 C 3303.2 -2.99865 1.94463 0
M  V30 33774 C 3302.87 -2.9133 3.44148 0
M  V30 33775 C 3301.53 -2.88709 3.84968 0
M  V30 33776 C 3303.88 -2.80147 4.39508 0
M  V30 33777 C 3301.21 -2.72732 5.19456 0
M  V30 33778 C 3303.56 -2.65708 5.74092 0
M  V30 33779 C 3302.23 -2.61457 6.14163 0
M  V30 33780 H 3301.5 -0.602082 0.431947 0
M  V30 33781 H 3304.15 -1.0406 1.6076 0
M  V30 33782 H 3302.45 -3.64239 1.44352 0
M  V30 33783 H 3304.15 -3.56913 1.82794 0
M  V30 33784 H 3300.74 -2.94174 3.11704 0
M  V30 33785 H 3304.92 -2.81244 4.0892 0
M  V30 33786 H 3300.18 -2.67848 5.49606 0
M  V30 33787 H 3304.35 -2.56027 6.47629 0
M  V30 33788 H 3301.98 -2.48834 7.18321 0
M  V30 33789 N 3303.55 -1.12326 -1.10547 0
M  V30 33790 C 3304.79 -0.887927 -1.84107 0
M  V30 33791 C 3305.16 0.575868 -1.8316 0
M  V30 33792 O 3306.36 0.928323 -2.52261 0
M  V30 33793 C 3304.63 -1.44551 -3.26863 0
M  V30 33794 S 3306.19 -1.34854 -4.17564 0
M  V30 33795 H 3303.01 -0.32034 -0.634747 0
M  V30 33796 H 3305.61 -1.43256 -1.33034 0
M  V30 33797 H 3304.31 -2.50448 -3.25122 0
M  V30 33798 H 3303.84 -0.898317 -3.83006 0
M  V30 33799 H 3305.86 -0.31923 -4.95172 0
M  V30 33800 N 3305.03 1.28319 -0.914988 0
M  V30 33801 C 3306.44 1.7696 -0.595151 0
M  V30 33802 C 3306.79 1.74876 0.88955 0
M  V30 33803 O 3305.92 1.34421 1.69588 0
M  V30 33804 C 3306.51 3.2134 -1.07358 0
M  V30 33805 C 3305.07 3.67699 -0.804642 0
M  V30 33806 C 3304.22 2.48051 -1.2396 0
M  V30 33807 H 3307.17 1.14765 -1.09612 0
M  V30 33808 H 3307.19 3.78224 -0.415572 0
M  V30 33809 H 3306.7 3.22825 -2.15419 0
M  V30 33810 H 3304.8 3.71673 0.262704 0
M  V30 33811 H 3304.92 4.57782 -1.41325 0
M  V30 33812 H 3303.28 2.46045 -0.658317 0
M  V30 33813 H 3304.06 2.52254 -2.32858 0
M  V30 33814 N 3306.51 0.679102 1.42218 0
M  V30 33815 C 3307.92 0.279909 1.8459 0
M  V30 33816 C 3308.27 -1.17878 1.56841 0
M  V30 33817 O 3307.4 -1.90293 1.03042 0
M  V30 33818 C 3307.99 0.501244 3.35072 0
M  V30 33819 C 3306.55 0.156131 3.76076 0
M  V30 33820 C 3305.7 0.791596 2.65761 0
M  V30 33821 H 3308.65 0.880955 1.32003 0
M  V30 33822 H 3308.67 -0.245282 3.79709 0
M  V30 33823 H 3308.18 1.56298 3.55236 0
M  V30 33824 H 3306.28 -0.901986 3.61518 0
M  V30 33825 H 3306.4 0.599656 4.75332 0
M  V30 33826 H 3304.76 0.222558 2.53726 0
M  V30 33827 H 3305.54 1.85687 2.88748 0
M  V30 33828 N 3307.99 -1.51825 0.42272 0
M  V30 33829 C 3309.26 -1.94493 -0.207826 0
M  V30 33830 C 3309.64 -1.3605 -1.61411 0
M  V30 33831 O 3308.99 -0.541696 -2.21986 0
M  V30 33832 C 3309.2 -3.48424 -0.200396 0
M  V30 33833 C 3310.55 -4.22585 -0.413125 0
M  V30 33834 O 3311.57 -3.55104 -0.279158 0
M  V30 33835 O 3310.43 -5.42273 -0.678374 0
M  V30 33836 H 3307.53 -0.815433 -0.137836 0
M  V30 33837 H 3310.07 -1.62781 0.479645 0
M  V30 33838 H 3308.85 -3.83379 0.78333 0
M  V30 33839 H 3308.47 -3.86537 -0.931396 0
M  V30 33840 N 3309.47 -0.153581 -1.5685 0
M  V30 33841 C 3310.41 0.783588 -2.17091 0
M  V30 33842 C 3311.38 1.2395 -1.10569 0
M  V30 33843 O 3312.57 1.31086 -1.38641 0
M  V30 33844 C 3309.71 2.01468 -2.80187 0
M  V30 33845 C 3308.82 1.60396 -4.0112 0
M  V30 33846 C 3307.96 2.78735 -4.52195 0
M  V30 33847 C 3306.99 2.34069 -5.65578 0
M  V30 33848 N 3306.13 3.45439 -6.11242 0
M  V30 33849 H 3310.97 0.263075 -2.96837 0
M  V30 33850 H 3308.51 0.118134 -1.46625 0
M  V30 33851 H 3310.47 2.73648 -3.14917 0
M  V30 33852 H 3309.1 2.50919 -2.03075 0
M  V30 33853 H 3308.15 0.779565 -3.72326 0
M  V30 33854 H 3309.46 1.23596 -4.83245 0
M  V30 33855 H 3308.61 3.59097 -4.89014 0
M  V30 33856 H 3307.35 3.18784 -3.69091 0
M  V30 33857 H 3306.36 1.52149 -5.28328 0
M  V30 33858 H 3307.58 1.95098 -6.50472 0
M  V30 33859 H 3305.53 3.85097 -5.31071 0
M  V30 33860 H 3305.45 3.12675 -6.8831 0
M  V30 33861 H 3306.71 4.26138 -6.52707 0
M  V30 33862 N 3310.94 1.57141 0.120193 0
M  V30 33863 C 3312.19 1.85064 0.829417 0
M  V30 33864 C 3312.52 0.739147 1.79584 0
M  V30 33865 O 3311.8 -0.255113 1.9282 0
M  V30 33866 C 3312.08 3.23568 1.58037 0
M  V30 33867 C 3311.93 4.45315 0.633628 0
M  V30 33868 C 3313.25 3.5963 2.53682 0
M  V30 33869 H 3310.37 0.673145 0.300075 0
M  V30 33870 H 3313.01 1.89769 0.0937059 0
M  V30 33871 H 3311.16 3.19688 2.20753 0
M  V30 33872 H 3312.84 4.61297 0.0154025 0
M  V30 33873 H 3311.08 4.33765 -0.0549222 0
M  V30 33874 H 3311.75 5.38895 1.19568 0
M  V30 33875 H 3314.23 3.64293 2.01071 0
M  V30 33876 H 3313.1 4.57522 3.03257 0
M  V30 33877 H 3313.36 2.86986 3.36291 0
M  V30 33878 N 3312.42 -0.39034 1.5269 0
M  V30 33879 C 3313.36 -1.49833 1.7212 0
M  V30 33880 C 3314.33 -1.52319 0.569013 0
M  V30 33881 O 3315.52 -1.70745 0.798653 0
M  V30 33882 C 3312.64 -2.88304 1.77759 0
M  V30 33883 C 3311.69 -3.0365 2.99498 0
M  V30 33884 S 3312.52 -2.7499 4.595 0
M  V30 33885 C 3313.68 -4.15657 4.67953 0
M  V30 33886 H 3313.91 -1.33125 2.65829 0
M  V30 33887 H 3311.45 -0.583128 1.42965 0
M  V30 33888 H 3313.4 -3.681 1.81694 0
M  V30 33889 H 3312.06 -3.02339 0.851459 0
M  V30 33890 H 3311.26 -4.05003 2.9998 0
M  V30 33891 H 3310.86 -2.31745 2.93548 0
M  V30 33892 H 3313.15 -5.09566 4.46485 0
M  V30 33893 H 3314.09 -4.2019 5.69953 0
M  V30 33894 H 3314.5 -4.01504 3.96806 0
M  V30 33895 N 3313.9 -1.4363 -0.648706 0
M  V30 33896 C 3314.83 -1.5195 -1.77295 0
M  V30 33897 C 3315.81 -0.373814 -1.65942 0
M  V30 33898 O 3317 -0.591629 -1.84969 0
M  V30 33899 C 3314.13 -1.44643 -3.15746 0
M  V30 33900 C 3313.08 -2.57508 -3.41868 0
M  V30 33901 C 3312.41 -2.35254 -4.80166 0
M  V30 33902 C 3313.71 -3.99737 -3.36166 0
M  V30 33903 H 3315.4 -2.46048 -1.70589 0
M  V30 33904 H 3312.95 -1.18422 -0.819285 0
M  V30 33905 H 3314.9 -1.49067 -3.94153 0
M  V30 33906 H 3313.62 -0.470523 -3.23193 0
M  V30 33907 H 3312.28 -2.52444 -2.65833 0
M  V30 33908 H 3311.93 -1.35896 -4.84295 0
M  V30 33909 H 3311.63 -3.10914 -4.98604 0
M  V30 33910 H 3313.15 -2.41469 -5.60825 0
M  V30 33911 H 3314.57 -4.06264 -4.04503 0
M  V30 33912 H 3312.97 -4.75459 -3.6614 0
M  V30 33913 H 3314.04 -4.24553 -2.3427 0
M  V30 33914 N 3315.38 0.887495 -1.30236 0
M  V30 33915 C 3316.29 2.02577 -1.1832 0
M  V30 33916 C 3317.3 1.73691 -0.103688 0
M  V30 33917 O 3318.48 1.98871 -0.318135 0
M  V30 33918 C 3315.55 3.35522 -0.873281 0
M  V30 33919 C 3314.61 3.77847 -2.0379 0
M  V30 33920 C 3313.84 5.04447 -1.74267 0
M  V30 33921 O 3314.06 5.66459 -0.669395 0
M  V30 33922 O 3313 5.43119 -2.59433 0
M  V30 33923 H 3316.82 2.15557 -2.13937 0
M  V30 33924 H 3314.41 1.01308 -1.09805 0
M  V30 33925 H 3316.29 4.15281 -0.715536 0
M  V30 33926 H 3314.96 3.23657 0.0529991 0
M  V30 33927 H 3313.87 2.98802 -2.25096 0
M  V30 33928 H 3315.2 3.94313 -2.94581 0
M  V30 33929 N 3316.86 1.12911 1.0995 0
M  V30 33930 C 3318.1 0.885761 1.81655 0
M  V30 33931 C 3318.43 -0.58988 1.85864 0
M  V30 33932 O 3317.7 -1.42872 1.34031 0
M  V30 33933 H 3316.28 0.324706 0.672737 0
M  V30 33934 H 3318.94 1.42458 1.3301 0
M  V30 33935 H 3318.03 1.27172 2.85015 0
M  V30 33936 N 3318.33 -1.27832 0.92178 0
M  V30 33937 C 3319.56 -1.9928 0.574635 0
M  V30 33938 C 3319.98 -1.68358 -0.838875 0
M  V30 33939 O 3319.34 -0.920495 -1.56194 0
M  V30 33940 C 3319.39 -3.51612 0.800088 0
M  V30 33941 O 3318.49 -4.12172 -0.137143 0
M  V30 33942 H 3317.84 -0.625825 0.221898 0
M  V30 33943 H 3320.37 -1.62787 1.23941 0
M  V30 33944 H 3320.38 -4.01716 0.71333 0
M  V30 33945 H 3319.05 -3.73452 1.83048 0
M  V30 33946 H 3317.63 -3.729 -0.000973171 0
M  V30 33947 N 3319.81 -0.686634 -1.41856 0
M  V30 33948 C 3321.05 -0.217875 -2.03235 0
M  V30 33949 C 3321.42 1.15768 -1.53172 0
M  V30 33950 O 3322.62 1.72178 -2.06418 0
M  V30 33951 C 3320.89 -0.263505 -3.56427 0
M  V30 33952 S 3322.45 0.132518 -4.386 0
M  V30 33953 H 3319.27 -0.0884994 -0.705471 0
M  V30 33954 H 3321.87 -0.902423 -1.73426 0
M  V30 33955 H 3320.57 -1.26679 -3.9036 0
M  V30 33956 H 3320.1 0.440487 -3.90926 0
M  V30 33957 H 3322.12 1.36271 -4.77121 0
M  V30 33958 N 3321.29 1.51599 -0.430766 0
M  V30 33959 C 3322.54 2.02329 0.138098 0
M  V30 33960 C 3322.87 1.31469 1.42932 0
M  V30 33961 O 3322.14 0.427584 1.89742 0
M  V30 33962 C 3322.43 3.58259 0.363614 0
M  V30 33963 C 3322.28 4.39744 -0.945797 0
M  V30 33964 C 3323.6 4.25178 1.13629 0
M  V30 33965 H 3320.72 0.735388 0.0487158 0
M  V30 33966 H 3323.36 1.81296 -0.568476 0
M  V30 33967 H 3321.51 3.76312 0.965486 0
M  V30 33968 H 3323.18 4.33356 -1.58114 0
M  V30 33969 H 3321.43 4.05091 -1.5519 0
M  V30 33970 H 3322.1 5.46989 -0.742127 0
M  V30 33971 H 3324.57 4.11356 0.626536 0
M  V30 33972 H 3323.45 5.34175 1.26285 0
M  V30 33973 H 3323.71 3.85592 2.16266 0
M  V30 33974 N 3322.77 0.161897 1.56766 0
M  V30 33975 C 3324.18 -0.356434 1.83266 0
M  V30 33976 C 3324.53 -1.63715 1.08129 0
M  V30 33977 O 3323.66 -2.13849 0.331308 0
M  V30 33978 C 3324.25 -0.653463 3.32438 0
M  V30 33979 C 3322.81 -1.11626 3.59467 0
M  V30 33980 C 3321.96 -0.147155 2.76909 0
M  V30 33981 H 3324.91 0.386335 1.53926 0
M  V30 33982 H 3324.93 -1.50655 3.49404 0
M  V30 33983 H 3324.44 0.278835 3.87097 0
M  V30 33984 H 3322.54 -2.06399 3.1021 0
M  V30 33985 H 3322.65 -1.03194 4.67855 0
M  V30 33986 H 3321.02 -0.642696 2.46458 0
M  V30 33987 H 3321.8 0.778996 3.34345 0
M  V30 33988 N 3324.25 -1.57203 -0.111858 0
M  V30 33989 C 3325.16 -2.04167 -1.15556 0
M  V30 33990 C 3326.17 -0.96338 -1.44897 0
M  V30 33991 O 3327.35 -1.27539 -1.55871 0
M  V30 33992 C 3324.41 -2.44261 -2.46044 0
M  V30 33993 C 3323.47 -3.66205 -2.24037 0
M  V30 33994 C 3322.71 -4.04377 -3.48303 0
M  V30 33995 O 3322.93 -3.42814 -4.55889 0
M  V30 33996 O 3321.86 -4.97436 -3.38882 0
M  V30 33997 H 3325.69 -2.93333 -0.786727 0
M  V30 33998 H 3323.28 -1.45863 -0.32317 0
M  V30 33999 H 3325.16 -2.70751 -3.22912 0
M  V30 34000 H 3323.83 -1.58238 -2.82387 0
M  V30 34001 H 3322.74 -3.44854 -1.45004 0
M  V30 34002 H 3324.07 -4.52955 -1.92594 0
M  V30 34003 N 3325.72 0.382237 -1.52894 0
M  V30 34004 C 3326.63 1.49147 -1.81087 0
M  V30 34005 C 3327.65 1.59383 -0.698073 0
M  V30 34006 O 3328.83 1.75592 -0.986381 0
M  V30 34007 C 3325.89 2.84605 -1.97992 0
M  V30 34008 C 3324.95 2.84034 -3.21905 0
M  V30 34009 C 3324.19 4.13031 -3.37995 0
M  V30 34010 O 3324.41 5.08339 -2.58742 0
M  V30 34011 O 3323.34 4.19858 -4.3128 0
M  V30 34012 H 3327.17 1.28252 -2.75291 0
M  V30 34013 H 3324.75 0.570735 -1.38069 0
M  V30 34014 H 3326.64 3.64897 -2.1078 0
M  V30 34015 H 3325.31 3.05512 -1.06978 0
M  V30 34016 H 3324.22 2.02499 -3.14555 0
M  V30 34017 H 3325.55 2.6808 -4.12788 0
M  V30 34018 N 3327.2 1.43972 0.64108 0
M  V30 34019 C 3328.17 1.49726 1.73536 0
M  V30 34020 C 3329.17 0.380466 1.56234 0
M  V30 34021 O 3330.36 0.642702 1.6191 0
M  V30 34022 C 3327.49 1.36159 3.12528 0
M  V30 34023 H 3328.68 2.47192 1.69812 0
M  V30 34024 H 3326.23 1.30917 0.853844 0
M  V30 34025 H 3326.97 0.397476 3.21855 0
M  V30 34026 H 3326.75 2.17129 3.26492 0
M  V30 34027 H 3328.24 1.43144 3.923 0
M  V30 34028 N 3328.68 -0.880575 1.30704 0
M  V30 34029 C 3329.92 -1.64686 1.21069 0
M  V30 34030 C 3330.29 -1.90618 -0.229982 0
M  V30 34031 O 3331.49 -2.65012 -0.449649 0
M  V30 34032 C 3329.76 -2.94787 2.02077 0
M  V30 34033 S 3331.32 -3.85727 2.09189 0
M  V30 34034 H 3328.13 -0.565184 0.431379 0
M  V30 34035 H 3330.74 -1.04487 1.65236 0
M  V30 34036 H 3329.44 -2.73643 3.05856 0
M  V30 34037 H 3328.97 -3.60018 1.5859 0
M  V30 34038 H 3330.99 -4.80905 1.22247 0
M  V30 34039 N 3330.16 -1.13492 -1.09349 0
M  V30 34040 C 3331.39 -0.920356 -1.85303 0
M  V30 34041 C 3331.8 0.530851 -1.81183 0
M  V30 34042 O 3331.16 1.36748 -1.20856 0
M  V30 34043 C 3331.21 -1.40104 -3.33246 0
M  V30 34044 O 3330.93 -2.79537 -3.37328 0
M  V30 34045 C 3332.43 -1.22502 -4.26038 0
M  V30 34046 H 3329.65 -0.328144 -0.585288 0
M  V30 34047 H 3332.2 -1.50767 -1.38165 0
M  V30 34048 H 3330.35 -0.856707 -3.77809 0
M  V30 34049 H 3330.77 -3.00893 -4.29609 0
M  V30 34050 H 3332.24 -1.61009 -5.27996 0
M  V30 34051 H 3332.72 -0.166794 -4.38883 0
M  V30 34052 H 3333.32 -1.75742 -3.87292 0
M  V30 34053 N 3331.64 1.27341 -0.928546 0
M  V30 34054 C 3332.57 2.25933 -0.385602 0
M  V30 34055 C 3333.58 1.55434 0.484151 0
M  V30 34056 O 3334.77 1.76018 0.296637 0
M  V30 34057 C 3331.87 3.3568 0.466057 0
M  V30 34058 C 3331.04 4.35706 -0.3846 0
M  V30 34059 C 3330.1 5.24643 0.404552 0
M  V30 34060 O 3329.13 5.68889 -0.188043 0
M  V30 34061 N 3330.33 5.54922 1.70417 0
M  V30 34062 H 3333.1 2.73157 -1.23311 0
M  V30 34063 H 3330.66 1.40977 -0.796064 0
M  V30 34064 H 3332.65 3.92123 1.00108 0
M  V30 34065 H 3331.22 2.8805 1.21432 0
M  V30 34066 H 3330.44 3.78515 -1.10091 0
M  V30 34067 H 3331.73 4.99543 -0.966121 0
M  V30 34068 H 3331.13 5.20833 2.20793 0
M  V30 34069 H 3329.68 6.14061 2.18569 0
M  V30 34070 N 3333.12 0.694147 1.4149 0
M  V30 34071 C 3334.36 0.22865 2.03117 0
M  V30 34072 C 3334.72 -1.14954 1.53784 0
M  V30 34073 O 3335.92 -1.71081 2.07328 0
M  V30 34074 C 3334.19 0.282404 3.56283 0
M  V30 34075 S 3335.75 -0.109256 4.38664 0
M  V30 34076 H 3332.57 0.0922394 0.704991 0
M  V30 34077 H 3335.17 0.911608 1.72945 0
M  V30 34078 H 3333.87 1.28747 3.89682 0
M  V30 34079 H 3333.41 -0.419749 3.91154 0
M  V30 34080 H 3335.42 -1.33739 4.77837 0
M  V30 34081 N 3334.59 -1.51368 0.438799 0
M  V30 34082 C 3335.84 -2.01289 -0.128688 0
M  V30 34083 C 3336.16 -1.32748 -1.43657 0
M  V30 34084 O 3337.36 -1.73646 -2.08709 0
M  V30 34085 C 3335.82 -3.5881 -0.279881 0
M  V30 34086 C 3335.43 -4.36289 1.01765 0
M  V30 34087 C 3337.17 -4.16873 -0.80106 0
M  V30 34088 C 3335.08 -5.85518 0.832021 0
M  V30 34089 H 3334.01 -0.752214 -0.0518682 0
M  V30 34090 H 3336.66 -1.74462 0.568784 0
M  V30 34091 H 3335.04 -3.82089 -1.04039 0
M  V30 34092 H 3336.21 -4.24755 1.78661 0
M  V30 34093 H 3334.53 -3.89685 1.46747 0
M  V30 34094 H 3337.13 -5.26076 -0.956456 0
M  V30 34095 H 3337.47 -3.76142 -1.78389 0
M  V30 34096 H 3338 -3.97677 -0.0988234 0
M  V30 34097 H 3334.74 -6.30664 1.78728 0
M  V30 34098 H 3334.26 -5.99712 0.10289 0
M  V30 34099 H 3335.94 -6.45174 0.485795 0
M  V30 34100 N 3336.07 -0.170208 -1.56678 0
M  V30 34101 C 3337.32 0.474091 -1.96461 0
M  V30 34102 C 3337.64 1.63853 -1.05722 0
M  V30 34103 O 3336.91 1.95511 -0.12335 0
M  V30 34104 H 3335.49 0.178136 -0.725449 0
M  V30 34105 H 3338.15 -0.251133 -1.93275 0
M  V30 34106 H 3337.25 0.834841 -3.00727 0
M  V30 34107 N 3337.55 1.5726 0.10352 0
M  V30 34108 C 3338.46 2.04777 1.14472 0
M  V30 34109 C 3339.48 0.97105 1.44384 0
M  V30 34110 O 3340.65 1.28364 1.55192 0
M  V30 34111 C 3337.72 2.45562 2.44745 0
M  V30 34112 C 3336.78 3.67388 2.22091 0
M  V30 34113 C 3336.01 4.06219 3.46153 0
M  V30 34114 O 3336.23 3.45227 4.54064 0
M  V30 34115 O 3335.17 4.99226 3.36239 0
M  V30 34116 H 3338.99 2.93746 0.771159 0
M  V30 34117 H 3336.58 1.46032 0.31543 0
M  V30 34118 H 3338.46 2.7246 3.21471 0
M  V30 34119 H 3337.14 1.59733 2.81544 0
M  V30 34120 H 3336.04 3.45619 1.43173 0
M  V30 34121 H 3337.38 4.5397 1.90189 0
M  V30 34122 N 3339.03 -0.374123 1.53095 0
M  V30 34123 C 3340.3 -1.1328 1.59458 0
M  V30 34124 C 3340.68 -2.07336 0.396857 0
M  V30 34125 O 3340.03 -2.20107 -0.61362 0
M  V30 34126 C 3340.24 -1.87942 2.94073 0
M  V30 34127 C 3341.59 -2.42779 3.48344 0
M  V30 34128 O 3342.61 -1.9808 2.96045 0
M  V30 34129 O 3341.47 -3.24469 4.39752 0
M  V30 34130 H 3338.57 -0.51916 0.643741 0
M  V30 34131 H 3341.11 -0.378076 1.65435 0
M  V30 34132 H 3339.89 -1.19249 3.72687 0
M  V30 34133 H 3339.51 -2.70343 2.91549 0
M  V30 34134 N 3340.51 -1.4431 -0.633436 0
M  V30 34135 C 3341.75 -1.46681 -1.39029 0
M  V30 34136 C 3342.07 -0.0997508 -1.94745 0
M  V30 34137 O 3341.34 0.867628 -1.75639 0
M  V30 34138 H 3339.92 -0.540102 -0.516041 0
M  V30 34139 H 3342.59 -1.8007 -0.745707 0
M  V30 34140 H 3341.68 -2.19089 -2.22276 0
M  V30 34141 N 3341.98 0.873632 -1.3117 0
M  V30 34142 C 3343.23 1.62879 -1.20824 0
M  V30 34143 C 3343.56 1.92786 0.23396 0
M  V30 34144 O 3342.84 1.55686 1.16586 0
M  V30 34145 C 3343.12 2.96135 -2.0488 0
M  V30 34146 C 3342.97 2.7313 -3.5738 0
M  V30 34147 C 3344.29 3.97195 -1.89537 0
M  V30 34148 H 3341.41 0.591042 -0.440271 0
M  V30 34149 H 3344.05 1.01016 -1.60922 0
M  V30 34150 H 3342.2 3.48935 -1.70812 0
M  V30 34151 H 3343.88 2.27031 -4.01565 0
M  V30 34152 H 3342.12 2.07428 -3.80994 0
M  V30 34153 H 3342.79 3.67932 -4.11497 0
M  V30 34154 H 3345.27 3.53592 -2.19343 0
M  V30 34155 H 3344.14 4.88325 -2.50659 0
M  V30 34156 H 3344.4 4.33701 -0.857652 0
M  V30 34157 N 3343.46 1.1407 1.08746 0
M  V30 34158 C 3344.39 0.782237 2.15438 0
M  V30 34159 C 3345.41 -0.199272 1.61576 0
M  V30 34160 O 3346.6 0.0219357 1.78487 0
M  V30 34161 C 3343.7 0.139889 3.38611 0
M  V30 34162 C 3342.87 1.15525 4.21868 0
M  V30 34163 C 3341.93 0.537308 5.2345 0
M  V30 34164 O 3340.95 1.19929 5.56422 0
M  V30 34165 N 3342.16 -0.687499 5.76415 0
M  V30 34166 H 3344.92 1.70036 2.46795 0
M  V30 34167 H 3342.48 1.03466 1.24525 0
M  V30 34168 H 3344.47 -0.285928 4.03689 0
M  V30 34169 H 3343.04 -0.681303 3.05085 0
M  V30 34170 H 3342.26 1.75812 3.52822 0
M  V30 34171 H 3343.55 1.84127 4.74315 0
M  V30 34172 H 3342.95 -1.24397 5.51853 0
M  V30 34173 H 3341.51 -1.05588 6.43191 0
M  V30 34174 N 3344.94 -1.26847 0.935286 0
M  V30 34175 C 3345.89 -2.24261 0.411205 0
M  V30 34176 C 3346.87 -1.53296 -0.488777 0
M  V30 34177 O 3348.07 -1.73991 -0.324984 0
M  V30 34178 C 3345.2 -3.41731 -0.327881 0
M  V30 34179 C 3344.28 -4.19989 0.589054 0
M  V30 34180 N 3344.67 -4.75937 1.71224 0
M  V30 34181 C 3342.97 -4.44261 0.393509 0
M  V30 34182 C 3343.67 -5.3502 2.28316 0
M  V30 34183 N 3342.65 -5.20378 1.57185 0
M  V30 34184 H 3346.45 -2.65107 1.26868 0
M  V30 34185 H 3343.96 -1.41865 0.790454 0
M  V30 34186 H 3345.96 -4.1063 -0.720332 0
M  V30 34187 H 3344.62 -3.02414 -1.1822 0
M  V30 34188 H 3345.63 -4.73657 2.0945 0
M  V30 34189 H 3342.31 -4.15387 -0.419523 0
M  V30 34190 H 3343.7 -5.89214 3.22919 0
M  V30 34191 N 3346.42 -0.701641 -1.4112 0
M  V30 34192 C 3347.35 -0.00092113 -2.292 0
M  V30 34193 C 3348.36 0.738167 -1.45103 0
M  V30 34194 O 3349.55 0.587861 -1.68542 0
M  V30 34195 C 3346.65 1.02286 -3.23096 0
M  V30 34196 C 3345.83 0.352155 -4.3598 0
M  V30 34197 C 3344.88 1.27938 -5.1041 0
M  V30 34198 O 3343.91 0.769461 -5.63975 0
M  V30 34199 N 3345.11 2.61138 -5.18447 0
M  V30 34200 H 3347.88 -0.757145 -2.89978 0
M  V30 34201 H 3345.44 -0.548153 -1.52338 0
M  V30 34202 H 3347.43 1.64502 -3.69758 0
M  V30 34203 H 3346 1.68056 -2.63583 0
M  V30 34204 H 3345.22 -0.449989 -3.91623 0
M  V30 34205 H 3346.51 -0.113971 -5.08672 0
M  V30 34206 H 3345.91 3.05078 -4.76386 0
M  V30 34207 H 3344.46 3.18534 -5.68664 0
M  V30 34208 N 3347.9 1.51133 -0.446821 0
M  V30 34209 C 3349.14 2.02165 0.116458 0
M  V30 34210 C 3349.47 1.33041 1.41881 0
M  V30 34211 O 3348.73 0.437105 1.90756 0
M  V30 34212 C 3349.03 3.55449 0.372952 0
M  V30 34213 C 3348.69 4.42916 -0.844737 0
M  V30 34214 C 3347.35 4.66542 -1.17865 0
M  V30 34215 C 3349.71 4.94172 -1.65662 0
M  V30 34216 C 3347.03 5.38667 -2.32496 0
M  V30 34217 C 3349.39 5.67555 -2.794 0
M  V30 34218 C 3348.05 5.89441 -3.13234 0
M  V30 34219 H 3347.32 0.739774 0.0426149 0
M  V30 34220 H 3349.97 1.81991 -0.595953 0
M  V30 34221 H 3348.27 3.74005 1.16736 0
M  V30 34222 H 3349.97 3.92477 0.822356 0
M  V30 34223 H 3346.56 4.24732 -0.574553 0
M  V30 34224 H 3350.74 4.75795 -1.41185 0
M  V30 34225 H 3346 5.53825 -2.59013 0
M  V30 34226 H 3350.17 6.06258 -3.42673 0
M  V30 34227 H 3347.8 6.45108 -4.02169 0
M  V30 34228 N 3349.37 0.178515 1.56586 0
M  V30 34229 C 3350.3 -0.744447 2.21315 0
M  V30 34230 C 3351.29 -1.23375 1.17101 0
M  V30 34231 O 3352.47 -1.28561 1.45553 0
M  V30 34232 C 3349.6 -1.97098 2.85954 0
M  V30 34233 C 3348.55 -1.61725 3.96269 0
M  V30 34234 C 3347.88 -2.91903 4.47992 0
M  V30 34235 C 3349.18 -0.839778 5.15505 0
M  V30 34236 H 3350.87 -0.204885 2.98698 0
M  V30 34237 H 3348.42 -0.0971053 1.43672 0
M  V30 34238 H 3350.37 -2.62174 3.29913 0
M  V30 34239 H 3349.1 -2.5348 2.0595 0
M  V30 34240 H 3347.76 -0.990146 3.52975 0
M  V30 34241 H 3347.4 -3.4634 3.64771 0
M  V30 34242 H 3347.1 -2.68986 5.22418 0
M  V30 34243 H 3348.63 -3.57996 4.94643 0
M  V30 34244 H 3350.04 -1.39328 5.56112 0
M  V30 34245 H 3348.44 -0.709369 5.95893 0
M  V30 34246 H 3349.51 0.162482 4.84628 0
M  V30 34247 N 3350.85 -1.57312 -0.0951784 0
M  V30 34248 C 3351.76 -2.05381 -1.13384 0
M  V30 34249 C 3352.78 -0.978694 -1.43867 0
M  V30 34250 O 3353.95 -1.29185 -1.5451 0
M  V30 34251 C 3351.02 -2.46856 -2.43439 0
M  V30 34252 C 3350.08 -3.68561 -2.2014 0
M  V30 34253 C 3349.31 -4.08049 -3.43994 0
M  V30 34254 O 3349.54 -3.47631 -4.52227 0
M  V30 34255 O 3348.47 -5.01002 -3.33587 0
M  V30 34256 H 3352.3 -2.94151 -0.75557 0
M  V30 34257 H 3349.88 -1.46197 -0.307682 0
M  V30 34258 H 3351.76 -2.74161 -3.20022 0
M  V30 34259 H 3350.44 -1.61224 -2.80693 0
M  V30 34260 H 3349.35 -3.46373 -1.41338 0
M  V30 34261 H 3350.68 -4.54972 -1.87779 0
M  V30 34262 N 3352.33 0.365999 -1.53291 0
M  V30 34263 C 3353.29 1.43114 -1.79028 0
M  V30 34264 C 3354.29 1.46599 -0.660702 0
M  V30 34265 O 3355.48 1.47367 -0.928901 0
M  V30 34266 C 3352.62 2.82235 -1.91197 0
M  V30 34267 H 3353.81 1.21568 -2.74156 0
M  V30 34268 H 3351.36 0.599107 -1.44362 0
M  V30 34269 H 3352.1 3.09096 -0.981345 0
M  V30 34270 H 3351.88 2.81104 -2.73355 0
M  V30 34271 H 3353.37 3.59371 -2.12702 0
M  V30 34272 N 3353.81 1.44644 0.625774 0
M  V30 34273 C 3355.05 1.4892 1.38544 0
M  V30 34274 C 3355.41 0.122053 1.92012 0
M  V30 34275 O 3354.7 -0.863491 1.71039 0
M  V30 34276 C 3354.9 2.48922 2.56462 0
M  V30 34277 C 3354.73 3.95226 2.14538 0
M  V30 34278 C 3353.5 4.63357 2.01564 0
M  V30 34279 C 3355.69 4.84287 1.73119 0
M  V30 34280 N 3353.68 5.94462 1.53259 0
M  V30 34281 C 3355.05 6.04878 1.36099 0
M  V30 34282 C 3357.1 4.71305 1.60548 0
M  V30 34283 C 3355.8 7.13926 0.87763 0
M  V30 34284 C 3357.83 5.80384 1.13617 0
M  V30 34285 C 3357.19 7.00118 0.775494 0
M  V30 34286 H 3353.29 0.599958 0.501572 0
M  V30 34287 H 3355.88 1.81004 0.717327 0
M  V30 34288 H 3354.05 2.1882 3.20893 0
M  V30 34289 H 3355.78 2.4346 3.23279 0
M  V30 34290 H 3352.53 4.18247 2.22185 0
M  V30 34291 H 3352.96 6.64128 1.3139 0
M  V30 34292 H 3357.6 3.79166 1.87063 0
M  V30 34293 H 3355.32 8.05869 0.599999 0
M  V30 34294 H 3358.9 5.72367 1.04341 0
M  V30 34295 H 3357.78 7.83086 0.41791 0
M  V30 34296 N 3355.29 -0.866663 1.31631 0
M  V30 34297 C 3356.53 -1.62236 1.21686 0
M  V30 34298 C 3356.87 -1.92907 -0.223733 0
M  V30 34299 O 3356.14 -1.56302 -1.15758 0
M  V30 34300 C 3356.42 -2.95045 2.06448 0
M  V30 34301 C 3356.28 -2.71231 3.58823 0
M  V30 34302 C 3357.6 -3.96184 1.91641 0
M  V30 34303 H 3354.71 -0.588699 0.443399 0
M  V30 34304 H 3357.36 -1.00161 1.61455 0
M  V30 34305 H 3355.51 -3.48024 1.7266 0
M  V30 34306 H 3357.18 -2.24898 4.02764 0
M  V30 34307 H 3355.42 -2.05404 3.82088 0
M  V30 34308 H 3356.09 -3.65745 4.13442 0
M  V30 34309 H 3358.57 -3.52424 2.21216 0
M  V30 34310 H 3357.44 -4.86989 2.53245 0
M  V30 34311 H 3357.71 -4.3324 0.88064 0
M  V30 34312 N 3356.77 -1.14645 -1.0814 0
M  V30 34313 C 3358.18 -0.927015 -1.6206 0
M  V30 34314 C 3358.53 0.533545 -1.88806 0
M  V30 34315 O 3357.65 1.40302 -1.64756 0
M  V30 34316 C 3358.25 -1.67635 -2.94422 0
M  V30 34317 C 3356.81 -1.50241 -3.45115 0
M  V30 34318 C 3355.95 -1.69709 -2.19304 0
M  V30 34319 H 3358.9 -1.29786 -0.913303 0
M  V30 34320 H 3358.93 -1.14114 -3.62985 0
M  V30 34321 H 3358.44 -2.73932 -2.74923 0
M  V30 34322 H 3356.54 -0.463032 -3.69712 0
M  V30 34323 H 3356.65 -2.27416 -4.21686 0
M  V30 34324 H 3355.02 -1.12295 -2.28609 0
M  V30 34325 H 3355.8 -2.77355 -2.0231 0
M  V30 34326 N 3358.24 1.26349 -0.942 0
M  V30 34327 C 3359.52 1.88892 -0.507855 0
M  V30 34328 C 3359.9 1.85121 1.01457 0
M  V30 34329 O 3359.25 1.30609 1.87493 0
M  V30 34330 C 3359.46 3.32188 -1.07013 0
M  V30 34331 C 3360.81 4.0903 -1.13929 0
M  V30 34332 O 3361.83 3.4126 -1.02078 0
M  V30 34333 O 3360.69 5.30227 -1.32371 0
M  V30 34334 H 3357.78 0.810243 -0.165636 0
M  V30 34335 H 3360.33 1.34513 -1.03462 0
M  V30 34336 H 3359.1 3.29299 -2.11372 0
M  V30 34337 H 3358.72 3.94107 -0.525866 0
M  V30 34338 N 3359.72 0.709115 1.40746 0
M  V30 34339 C 3360.67 0.028967 2.27982 0
M  V30 34340 C 3361.66 -0.739139 1.42918 0
M  V30 34341 O 3362.85 -0.612404 1.66068 0
M  V30 34342 C 3359.98 -0.896798 3.3138 0
M  V30 34343 C 3359.06 -0.124222 4.23918 0
M  V30 34344 N 3359.45 0.889131 4.97924 0
M  V30 34345 C 3357.75 -0.35773 4.44563 0
M  V30 34346 C 3358.45 1.35278 5.65752 0
M  V30 34347 N 3357.43 0.676142 5.39379 0
M  V30 34348 H 3361.23 0.805725 2.8264 0
M  V30 34349 H 3358.74 0.541132 1.53119 0
M  V30 34350 H 3360.74 -1.39932 3.92714 0
M  V30 34351 H 3359.4 -1.673 2.78282 0
M  V30 34352 H 3360.41 1.26979 5.02092 0
M  V30 34353 H 3357.09 -1.11077 4.02453 0
M  V30 34354 H 3358.48 2.19443 6.35055 0
M  V30 34355 N 3361.2 -1.50894 0.454829 0
M  V30 34356 C 3362.13 -2.25964 -0.383786 0
M  V30 34357 C 3363.14 -1.30655 -0.97124 0
M  V30 34358 O 3364.33 -1.56284 -0.862406 0
M  V30 34359 C 3361.43 -3.01344 -1.55064 0
M  V30 34360 C 3360.61 -4.23885 -1.07892 0
M  V30 34361 C 3359.67 -4.81696 -2.11792 0
M  V30 34362 O 3358.69 -5.4306 -1.70513 0
M  V30 34363 N 3359.89 -4.67262 -3.44451 0
M  V30 34364 H 3362.66 -2.98573 0.259698 0
M  V30 34365 H 3360.22 -1.59377 0.284689 0
M  V30 34366 H 3362.21 -3.36902 -2.2423 0
M  V30 34367 H 3360.78 -2.31636 -2.09913 0
M  V30 34368 H 3360 -3.9362 -0.213703 0
M  V30 34369 H 3361.29 -5.03369 -0.741412 0
M  V30 34370 H 3360.69 -4.18423 -3.80708 0
M  V30 34371 H 3359.24 -5.07134 -4.09461 0
M  V30 34372 N 3362.68 -0.186817 -1.56489 0
M  V30 34373 C 3364.09 0.327233 -1.8381 0
M  V30 34374 C 3364.44 1.61974 -1.1072 0
M  V30 34375 O 3363.56 2.13295 -0.365288 0
M  V30 34376 C 3364.16 0.600492 -3.33436 0
M  V30 34377 C 3362.72 1.05893 -3.61197 0
M  V30 34378 C 3361.87 0.103082 -2.77108 0
M  V30 34379 H 3364.82 -0.410774 -1.53292 0
M  V30 34380 H 3364.84 1.45078 -3.51757 0
M  V30 34381 H 3364.35 -0.340383 -3.86604 0
M  V30 34382 H 3362.45 2.01438 -3.13454 0
M  V30 34383 H 3362.56 0.957375 -4.69437 0
M  V30 34384 H 3360.93 0.603405 -2.47449 0
M  V30 34385 H 3361.71 -0.832089 -3.33063 0
M  V30 34386 N 3364.16 1.57361 0.0868344 0
M  V30 34387 C 3365.4 1.88334 0.794325 0
M  V30 34388 C 3365.76 0.778814 1.75495 0
M  V30 34389 O 3366.96 0.971196 2.50642 0
M  V30 34390 C 3365.23 3.24547 1.4968 0
M  V30 34391 S 3366.79 3.77234 2.24143 0
M  V30 34392 H 3363.61 0.659983 0.264468 0
M  V30 34393 H 3366.21 1.95433 0.0510703 0
M  V30 34394 H 3364.91 4.02849 0.783643 0
M  V30 34395 H 3364.45 3.20608 2.27979 0
M  V30 34396 H 3366.46 3.51313 3.5042 0
M  V30 34397 N 3365.63 -0.357865 1.53483 0
M  V30 34398 C 3366.57 -1.45907 1.76759 0
M  V30 34399 C 3367.58 -1.49325 0.648528 0
M  V30 34400 O 3368.77 -1.52665 0.924959 0
M  V30 34401 C 3365.87 -2.84637 1.83943 0
M  V30 34402 C 3365.04 -3.04825 3.13688 0
M  V30 34403 C 3364.1 -4.23714 3.12014 0
M  V30 34404 O 3363.13 -4.18517 3.85787 0
M  V30 34405 N 3364.33 -5.31523 2.33375 0
M  V30 34406 H 3367.09 -1.26316 2.7178 0
M  V30 34407 H 3364.65 -0.547646 1.52356 0
M  V30 34408 H 3366.65 -3.62322 1.80292 0
M  V30 34409 H 3365.22 -2.97438 0.961727 0
M  V30 34410 H 3364.44 -2.14733 3.3058 0
M  V30 34411 H 3365.72 -3.15187 3.99418 0
M  V30 34412 H 3365.12 -5.3861 1.72963 0
M  V30 34413 H 3363.68 -6.07755 2.35535 0
M  V30 34414 N 3367.11 -1.44974 -0.618094 0
M  V30 34415 C 3368.36 -1.47717 -1.37341 0
M  V30 34416 C 3368.67 -0.118819 -1.95239 0
M  V30 34417 O 3369.88 -0.0238459 -2.7149 0
M  V30 34418 C 3368.34 -2.6012 -2.48728 0
M  V30 34419 C 3367.94 -4.02221 -1.97287 0
M  V30 34420 C 3369.69 -2.72099 -3.25826 0
M  V30 34421 C 3367.59 -5.06025 -3.06093 0
M  V30 34422 H 3366.52 -0.549626 -0.516166 0
M  V30 34423 H 3369.18 -1.71081 -0.663587 0
M  V30 34424 H 3367.56 -2.3002 -3.22346 0
M  V30 34425 H 3368.73 -4.4195 -1.30447 0
M  V30 34426 H 3367.05 -3.946 -1.32965 0
M  V30 34427 H 3369.64 -3.46822 -4.06962 0
M  V30 34428 H 3369.99 -1.78366 -3.76153 0
M  V30 34429 H 3370.52 -3.01673 -2.59303 0
M  V30 34430 H 3367.26 -6.0143 -2.60695 0
M  V30 34431 H 3366.78 -4.70875 -3.71533 0
M  V30 34432 H 3368.46 -5.30307 -3.70652 0
M  V30 34433 N 3368.59 0.85967 -1.32089 0
M  V30 34434 C 3369.83 1.62739 -1.23674 0
M  V30 34435 C 3370.19 1.90959 0.199627 0
M  V30 34436 O 3371.39 2.65694 0.407431 0
M  V30 34437 C 3369.67 2.91535 -2.06742 0
M  V30 34438 S 3371.22 3.82351 -2.15299 0
M  V30 34439 H 3368.04 0.55825 -0.440316 0
M  V30 34440 H 3370.64 1.01845 -1.66877 0
M  V30 34441 H 3369.35 2.68742 -3.10171 0
M  V30 34442 H 3368.88 3.57449 -1.64297 0
M  V30 34443 H 3370.89 4.789 -1.29882 0
M  V30 34444 N 3370.07 1.15217 1.0753 0
M  V30 34445 C 3371.3 0.94972 1.83815 0
M  V30 34446 C 3371.71 -0.501959 1.82005 0
M  V30 34447 O 3371.07 -1.34808 1.23016 0
M  V30 34448 C 3371.12 1.45388 3.30975 0
M  V30 34449 O 3370.84 2.84869 3.32839 0
M  V30 34450 C 3372.34 1.29265 4.24035 0
M  V30 34451 H 3369.56 0.337414 0.579994 0
M  V30 34452 H 3372.1 1.52946 1.35749 0
M  V30 34453 H 3370.26 0.916704 3.76398 0
M  V30 34454 H 3370.67 3.07689 4.24768 0
M  V30 34455 H 3372.15 1.69389 5.25368 0
M  V30 34456 H 3372.62 0.236596 4.38562 0
M  V30 34457 H 3373.23 1.81881 3.84447 0
M  V30 34458 N 3371.55 -1.25848 0.948687 0
M  V30 34459 C 3372.79 -1.95152 0.607854 0
M  V30 34460 C 3373.15 -1.72714 -0.838673 0
M  V30 34461 O 3374.35 -2.35888 -1.28881 0
M  V30 34462 C 3372.62 -3.44551 0.949688 0
M  V30 34463 S 3374.18 -4.32844 0.720532 0
M  V30 34464 H 3371 -0.674917 0.223624 0
M  V30 34465 H 3373.6 -1.52634 1.2216 0
M  V30 34466 H 3372.31 -3.58384 1.99973 0
M  V30 34467 H 3371.84 -3.92047 0.325959 0
M  V30 34468 H 3373.85 -4.9449 -0.41161 0
M  V30 34469 N 3373.02 -0.716569 -1.40368 0
M  V30 34470 C 3373.95 -0.0793944 -2.33365 0
M  V30 34471 C 3374.94 0.744455 -1.52944 0
M  V30 34472 O 3376.12 0.69318 -1.81407 0
M  V30 34473 C 3373.25 0.84237 -3.36929 0
M  V30 34474 C 3372.2 0.124067 -4.2782 0
M  V30 34475 C 3371.53 1.16161 -5.2193 0
M  V30 34476 C 3372.83 -1.02233 -5.12197 0
M  V30 34477 H 3374.52 -0.856165 -2.86897 0
M  V30 34478 H 3372.07 -0.413162 -1.37946 0
M  V30 34479 H 3374.02 1.29752 -4.00927 0
M  V30 34480 H 3372.75 1.65105 -2.81794 0
M  V30 34481 H 3371.41 -0.311266 -3.65276 0
M  V30 34482 H 3371.05 1.96337 -4.63099 0
M  V30 34483 H 3370.75 0.685875 -5.83583 0
M  V30 34484 H 3372.28 1.61684 -5.88804 0
M  V30 34485 H 3373.69 -0.646499 -5.69643 0
M  V30 34486 H 3372.09 -1.4265 -5.82899 0
M  V30 34487 H 3373.16 -1.85254 -4.48117 0
M  V30 34488 N 3374.5 1.50651 -0.462825 0
M  V30 34489 C 3375.73 2.07181 0.0952362 0
M  V30 34490 C 3376.15 1.32535 1.33476 0
M  V30 34491 O 3375.51 0.370596 1.77472 0
M  V30 34492 C 3375.56 3.58691 0.370529 0
M  V30 34493 O 3374.66 3.85973 1.45253 0
M  V30 34494 H 3374 0.663934 -0.00933869 0
M  V30 34495 H 3376.53 1.9395 -0.651492 0
M  V30 34496 H 3376.54 4.03361 0.61348 0
M  V30 34497 H 3375.22 4.12441 -0.535291 0
M  V30 34498 H 3373.8 3.53148 1.19754 0
M  V30 34499 N 3375.98 0.195113 1.56388 0
M  V30 34500 C 3377.23 -0.442775 1.9719 0
M  V30 34501 C 3377.55 -1.62151 1.08315 0
M  V30 34502 O 3376.82 -1.9529 0.154439 0
M  V30 34503 H 3375.4 -0.166572 0.728191 0
M  V30 34504 H 3378.06 0.281849 1.92851 0
M  V30 34505 H 3377.16 -0.786892 3.02017 0
M  V30 34506 N 3377.46 -1.57404 -0.0784879 0
M  V30 34507 C 3378.87 -1.53611 -0.433116 0
M  V30 34508 C 3379.07 -0.914315 -1.79562 0
M  V30 34509 O 3378.13 -0.513942 -2.47214 0
M  V30 34510 C 3379.44 -2.98285 -0.380334 0
M  V30 34511 C 3380.99 -3.09586 -0.461002 0
M  V30 34512 C 3381.47 -4.55899 -0.438196 0
M  V30 34513 N 3382.96 -4.6051 -0.498467 0
M  V30 34514 C 3383.69 -5.7119 -0.502928 0
M  V30 34515 N 3383.19 -6.91254 -0.462602 0
M  V30 34516 N 3384.98 -5.59413 -0.548984 0
M  V30 34517 H 3377.13 -1.96193 0.813758 0
M  V30 34518 H 3379.4 -0.897712 0.30466 0
M  V30 34519 H 3379.1 -3.47309 0.553993 0
M  V30 34520 H 3378.98 -3.57835 -1.19307 0
M  V30 34521 H 3381.36 -2.6054 -1.38575 0
M  V30 34522 H 3381.44 -2.52959 0.380182 0
M  V30 34523 H 3381.09 -5.05601 0.482677 0
M  V30 34524 H 3381.02 -5.10382 -1.29682 0
M  V30 34525 H 3383.51 -3.74106 -0.534153 0
M  V30 34526 H 3383.82 -7.71371 -0.469747 0
M  V30 34527 H 3382.17 -6.93672 -0.429393 0
M  V30 34528 H 3385.36 -4.64516 -0.578134 0
M  V30 34529 H 3385.53 -6.4567 -0.548992 0
M  V30 34530 N 3378.94 0.34972 -1.53671 0
M  V30 34531 C 3379.88 1.42919 -1.81226 0
M  V30 34532 C 3380.85 1.5253 -0.657563 0
M  V30 34533 O 3382.04 1.68166 -0.90137 0
M  V30 34534 C 3379.18 2.79655 -2.02205 0
M  V30 34535 C 3378.29 2.78885 -3.2992 0
M  V30 34536 C 3377.43 4.07299 -3.41 0
M  V30 34537 C 3376.47 4.00733 -4.62687 0
M  V30 34538 N 3375.6 5.20825 -4.70835 0
M  V30 34539 H 3380.44 1.18722 -2.7333 0
M  V30 34540 H 3377.98 0.575227 -1.35387 0
M  V30 34541 H 3379.94 3.5911 -2.12357 0
M  V30 34542 H 3378.57 3.02218 -1.13421 0
M  V30 34543 H 3377.62 1.91571 -3.28641 0
M  V30 34544 H 3378.93 2.6991 -4.19464 0
M  V30 34545 H 3378.09 4.95176 -3.50551 0
M  V30 34546 H 3376.82 4.19047 -2.49501 0
M  V30 34547 H 3375.83 3.11241 -4.5322 0
M  V30 34548 H 3377.05 3.90573 -5.55545 0
M  V30 34549 H 3375 5.33129 -3.82242 0
M  V30 34550 H 3374.92 5.14082 -5.54306 0
M  V30 34551 H 3376.19 6.1049 -4.84688 0
M  V30 34552 N 3380.41 1.45299 0.610397 0
M  V30 34553 C 3381.66 1.4939 1.37151 0
M  V30 34554 C 3381.99 0.134059 1.93737 0
M  V30 34555 O 3381.27 -0.851107 1.7489 0
M  V30 34556 C 3381.55 2.57084 2.5215 0
M  V30 34557 C 3381.4 4.02502 2.00779 0
M  V30 34558 C 3382.72 2.61088 3.5429 0
M  V30 34559 H 3379.84 0.543898 0.497336 0
M  V30 34560 H 3382.48 1.77093 0.688327 0
M  V30 34561 H 3380.63 2.33592 3.1043 0
M  V30 34562 H 3382.31 4.37194 1.4717 0
M  V30 34563 H 3380.55 4.13293 1.31801 0
M  V30 34564 H 3381.22 4.73537 2.83666 0
M  V30 34565 H 3383.7 2.8213 3.05846 0
M  V30 34566 H 3382.57 3.38309 4.32248 0
M  V30 34567 H 3382.83 1.6607 4.09723 0
M  V30 34568 N 3381.89 -0.852653 1.32543 0
M  V30 34569 C 3382.84 -1.9828 1.21605 0
M  V30 34570 C 3383.83 -1.68971 0.120414 0
M  V30 34571 O 3385.04 -1.77754 0.283472 0
M  V30 34572 H 3381.42 -0.65067 0.377005 0
M  V30 34573 H 3383.39 -2.04632 2.17183 0
M  V30 34574 C 3382.14 -3.34241 0.958024 0
M  V30 34575 H 3381.46 -3.57324 1.7933 0
M  V30 34576 H 3382.9 -4.1386 0.921746 0
M  V30 34577 C 3381.36 -3.35188 -0.339212 0
M  V30 34578 O 3381.89 -3.7832 -1.35043 0
M  V30 34579 N 3380.09 -2.88338 -0.361893 0
M  V30 34580 H 3379.64 -2.53432 0.461542 0
M  V30 34581 H 3379.6 -2.89354 -1.22971 0
M  V30 34582 N 3383.37 -1.15786 -1.06918 0
M  V30 34583 C 3384.61 -0.94605 -1.81188 0
M  V30 34584 C 3384.97 0.517305 -1.849 0
M  V30 34585 O 3386.18 0.847598 -2.55087 0
M  V30 34586 C 3384.45 -1.54877 -3.22099 0
M  V30 34587 S 3386.01 -1.4807 -4.13063 0
M  V30 34588 H 3382.82 -0.340372 -0.624234 0
M  V30 34589 H 3385.43 -1.47416 -1.28409 0
M  V30 34590 H 3384.13 -2.60664 -3.16989 0
M  V30 34591 H 3383.66 -1.01971 -3.79954 0
M  V30 34592 H 3385.68 -0.476604 -4.93906 0
M  V30 34593 N 3384.85 1.25343 -0.955348 0
M  V30 34594 C 3386.08 1.97148 -0.627728 0
M  V30 34595 C 3386.49 1.70998 0.800319 0
M  V30 34596 O 3385.85 0.986444 1.53543 0
M  V30 34597 C 3385.9 3.50682 -0.877737 0
M  V30 34598 O 3385.62 3.7593 -2.24963 0
M  V30 34599 C 3387.12 4.39715 -0.562602 0
M  V30 34600 H 3384.34 0.628398 -0.23528 0
M  V30 34601 H 3386.89 1.59494 -1.27992 0
M  V30 34602 H 3385.04 3.86444 -0.271945 0
M  V30 34603 H 3385.45 4.70385 -2.3203 0
M  V30 34604 H 3386.93 5.46346 -0.788068 0
M  V30 34605 H 3387.41 4.36312 0.502853 0
M  V30 34606 H 3388.01 4.0952 -1.14775 0
M  V30 34607 N 3386.33 0.724003 1.39986 0
M  V30 34608 C 3387.56 0.277056 2.05037 0
M  V30 34609 C 3387.97 -1.08418 1.54567 0
M  V30 34610 O 3387.33 -1.68298 0.705824 0
M  V30 34611 C 3387.38 0.257573 3.60581 0
M  V30 34612 O 3387.1 1.56507 4.09191 0
M  V30 34613 C 3388.6 -0.206894 4.42817 0
M  V30 34614 H 3385.82 0.122974 0.659635 0
M  V30 34615 H 3388.36 0.984571 1.79239 0
M  V30 34616 H 3386.52 -0.400969 3.85319 0
M  V30 34617 H 3386.93 1.47121 5.03444 0
M  V30 34618 H 3388.41 -0.169373 5.5174 0
M  V30 34619 H 3388.88 -1.25038 4.21025 0
M  V30 34620 H 3389.49 0.421679 4.23204 0
M  V30 34621 N 3387.81 -1.50403 0.470808 0
M  V30 34622 C 3388.74 -2.26358 -0.359798 0
M  V30 34623 C 3389.75 -1.31678 -0.957327 0
M  V30 34624 O 3390.94 -1.5719 -0.845782 0
M  V30 34625 C 3388.04 -3.02972 -1.51859 0
M  V30 34626 C 3387.21 -4.25005 -1.0339 0
M  V30 34627 C 3386.27 -4.83915 -2.06671 0
M  V30 34628 O 3385.3 -5.44838 -1.64744 0
M  V30 34629 N 3386.5 -4.70889 -3.39476 0
M  V30 34630 H 3389.26 -2.9828 0.291351 0
M  V30 34631 H 3386.83 -1.59066 0.301577 0
M  V30 34632 H 3388.82 -3.39261 -2.20644 0
M  V30 34633 H 3387.39 -2.3385 -2.07444 0
M  V30 34634 H 3386.61 -3.93825 -0.171943 0
M  V30 34635 H 3387.9 -5.04127 -0.687982 0
M  V30 34636 H 3387.29 -4.22437 -3.76249 0
M  V30 34637 H 3385.85 -5.11448 -4.04059 0
M  V30 34638 N 3389.28 -0.203404 -1.56282 0
M  V30 34639 C 3390.69 0.307719 -1.84147 0
M  V30 34640 C 3391.05 1.6079 -1.12432 0
M  V30 34641 O 3390.17 2.12895 -0.38789 0
M  V30 34642 C 3390.77 0.565093 -3.34054 0
M  V30 34643 C 3389.32 1.02057 -3.623 0
M  V30 34644 C 3388.47 0.0736856 -2.77202 0
M  V30 34645 H 3391.42 -0.42701 -1.52847 0
M  V30 34646 H 3391.44 1.41339 -3.53276 0
M  V30 34647 H 3390.96 -0.381368 -3.86222 0
M  V30 34648 H 3389.06 1.98102 -3.15573 0
M  V30 34649 H 3389.17 0.907531 -4.70426 0
M  V30 34650 H 3387.53 0.577126 -2.48075 0
M  V30 34651 H 3388.32 -0.867368 -3.32162 0
M  V30 34652 N 3390.76 1.57444 0.0701393 0
M  V30 34653 C 3392 1.89166 0.774305 0
M  V30 34654 C 3392.37 0.797384 1.74659 0
M  V30 34655 O 3393.57 0.997726 2.49597 0
M  V30 34656 C 3391.84 3.26116 1.46229 0
M  V30 34657 S 3393.4 3.7959 2.20129 0
M  V30 34658 H 3390.21 0.662751 0.257453 0
M  V30 34659 H 3392.82 1.95476 0.0303391 0
M  V30 34660 H 3391.52 4.03657 0.740871 0
M  V30 34661 H 3391.05 3.23008 2.24565 0
M  V30 34662 H 3393.07 3.55009 3.46674 0
M  V30 34663 N 3392.24 -0.341566 1.53854 0
M  V30 34664 C 3393.65 -0.917064 1.62625 0
M  V30 34665 C 3394 -1.89488 0.508815 0
M  V30 34666 O 3393.13 -2.13365 -0.361133 0
M  V30 34667 C 3393.72 -1.67007 2.94778 0
M  V30 34668 C 3392.28 -2.19455 3.05804 0
M  V30 34669 C 3391.43 -1.01429 2.58084 0
M  V30 34670 H 3394.38 -0.119646 1.58248 0
M  V30 34671 H 3394.4 -2.53308 2.83929 0
M  V30 34672 H 3393.91 -0.958155 3.76086 0
M  V30 34673 H 3392.01 -2.93817 2.29134 0
M  V30 34674 H 3392.13 -2.45691 4.11306 0
M  V30 34675 H 3390.49 -1.38827 2.13539 0
M  V30 34676 H 3391.27 -0.316973 3.41834 0
M  V30 34677 N 3393.72 -1.45621 -0.602683 0
M  V30 34678 C 3394.95 -1.53428 -1.38807 0
M  V30 34679 C 3395.36 -0.168543 -1.88046 0
M  V30 34680 O 3394.72 0.830762 -1.62495 0
M  V30 34681 C 3394.77 -2.52272 -2.58923 0
M  V30 34682 O 3394.49 -3.8354 -2.11729 0
M  V30 34683 C 3395.99 -2.69826 -3.51723 0
M  V30 34684 H 3393.21 -0.519462 -0.424735 0
M  V30 34685 H 3395.75 -1.90852 -0.734557 0
M  V30 34686 H 3393.91 -2.17907 -3.20305 0
M  V30 34687 H 3394.32 -4.37164 -2.89806 0
M  V30 34688 H 3395.8 -3.42953 -4.32536 0
M  V30 34689 H 3396.27 -1.76031 -4.0238 0
M  V30 34690 H 3396.88 -3.05207 -2.9619 0
M  V30 34691 N 3395.2 0.845612 -1.32993 0
M  V30 34692 C 3396.16 1.93648 -1.2261 0
M  V30 34693 C 3397.16 1.60128 -0.14684 0
M  V30 34694 O 3398.35 1.69595 -0.397893 0
M  V30 34695 C 3395.48 3.29138 -0.887735 0
M  V30 34696 H 3396.67 2.04281 -2.19566 0
M  V30 34697 H 3394.23 1.03689 -1.16954 0
M  V30 34698 H 3394.96 3.24202 0.0796207 0
M  V30 34699 H 3394.75 3.54846 -1.66814 0
M  V30 34700 H 3396.24 4.09072 -0.839651 0
M  V30 34701 N 3396.67 1.16351 1.06302 0
M  V30 34702 C 3397.62 0.870003 2.13775 0
M  V30 34703 C 3398.59 -0.181512 1.65105 0
M  V30 34704 O 3399.78 -0.0467369 1.90743 0
M  V30 34705 C 3396.92 0.377138 3.43033 0
M  V30 34706 C 3396.03 1.49147 4.05437 0
M  V30 34707 C 3395.16 0.95363 5.2257 0
M  V30 34708 C 3394.2 2.04417 5.76958 0
M  V30 34709 N 3393.34 1.52193 6.85406 0
M  V30 34710 H 3398.18 1.79039 2.38221 0
M  V30 34711 H 3395.72 0.893157 1.16881 0
M  V30 34712 H 3397.67 0.0730159 4.17136 0
M  V30 34713 H 3396.3 -0.506303 3.18805 0
M  V30 34714 H 3395.36 1.91156 3.28882 0
M  V30 34715 H 3396.67 2.31442 4.41855 0
M  V30 34716 H 3395.82 0.602685 6.03699 0
M  V30 34717 H 3394.56 0.0999827 4.87598 0
M  V30 34718 H 3393.57 2.40382 4.94466 0
M  V30 34719 H 3394.79 2.90178 6.13982 0
M  V30 34720 H 3392.74 0.690812 6.52353 0
M  V30 34721 H 3392.65 2.28105 7.20766 0
M  V30 34722 H 3393.92 1.19956 7.70215 0
M  V30 34723 N 3398.15 -1.24835 0.961982 0
M  V30 34724 C 3399.11 -2.23847 0.492482 0
M  V30 34725 C 3400.11 -1.55542 -0.407853 0
M  V30 34726 O 3401.3 -1.73 -0.204113 0
M  V30 34727 C 3398.44 -3.39685 -0.287519 0
M  V30 34728 H 3399.63 -2.66896 1.36771 0
M  V30 34729 H 3397.18 -1.37349 0.745991 0
M  V30 34730 H 3397.92 -3.02067 -1.1801 0
M  V30 34731 H 3397.7 -3.90458 0.3585 0
M  V30 34732 H 3399.19 -4.13191 -0.605224 0
M  V30 34733 N 3399.63 -0.731417 -1.396 0
M  V30 34734 C 3401.04 -0.348226 -1.83424 0
M  V30 34735 C 3401.39 1.11976 -1.61108 0
M  V30 34736 O 3400.52 1.86337 -1.10034 0
M  V30 34737 C 3401.11 -0.625259 -3.3298 0
M  V30 34738 C 3399.67 -0.295602 -3.75237 0
M  V30 34739 C 3398.82 -0.889686 -2.6264 0
M  V30 34740 H 3401.77 -0.929341 -1.28643 0
M  V30 34741 H 3401.79 0.104187 -3.80357 0
M  V30 34742 H 3401.3 -1.69374 -3.4919 0
M  V30 34743 H 3399.4 0.76719 -3.64616 0
M  V30 34744 H 3399.52 -0.775659 -4.72779 0
M  V30 34745 H 3397.88 -0.316573 -2.52725 0
M  V30 34746 H 3398.66 -1.96275 -2.81657 0
M  V30 34747 N 3401.11 1.50152 -0.478778 0
M  V30 34748 C 3402.34 2.06778 0.0710122 0
M  V30 34749 C 3402.75 1.34177 1.32823 0
M  V30 34750 O 3402.11 0.413336 1.77758 0
M  V30 34751 C 3402.16 3.59789 0.351288 0
M  V30 34752 O 3401.88 4.29655 -0.856073 0
M  V30 34753 C 3403.38 4.33063 0.947193 0
M  V30 34754 H 3400.6 0.670918 -0.010515 0
M  V30 34755 H 3403.15 1.93221 -0.669766 0
M  V30 34756 H 3401.3 3.73123 1.04201 0
M  V30 34757 H 3401.71 5.20995 -0.605344 0
M  V30 34758 H 3403.19 5.4107 1.09302 0
M  V30 34759 H 3403.67 3.94066 1.9393 0
M  V30 34760 H 3404.27 4.24278 0.294619 0
M  V30 34761 N 3402.59 0.211689 1.56172 0
M  V30 34762 C 3403.83 -0.424637 1.9994 0
M  V30 34763 C 3404.19 -1.57644 1.09601 0
M  V30 34764 O 3405.39 -2.2781 1.42674 0
M  V30 34765 C 3403.66 -0.857436 3.46962 0
M  V30 34766 S 3405.22 -1.48926 4.12755 0
M  V30 34767 H 3402.04 -0.135167 0.698034 0
M  V30 34768 H 3404.64 0.318659 1.92885 0
M  V30 34769 H 3403.35 -0.00932586 4.10399 0
M  V30 34770 H 3402.88 -1.63379 3.5787 0
M  V30 34771 H 3404.89 -2.77825 4.1113 0
M  V30 34772 N 3404.06 -1.57479 -0.0617887 0
M  V30 34773 C 3405.31 -1.87365 -0.757536 0
M  V30 34774 C 3405.63 -0.805056 -1.77606 0
M  V30 34775 O 3404.9 0.165182 -1.95202 0
M  V30 34776 H 3403.48 -0.691413 -0.282768 0
M  V30 34777 H 3406.15 -1.94868 -0.0355011 0
M  V30 34778 H 3405.24 -2.85202 -1.26753 0
M  V30 34779 N 3405.54 0.333401 -1.54033 0
M  V30 34780 C 3406.47 1.41527 -1.85722 0
M  V30 34781 C 3407.45 1.54428 -0.713171 0
M  V30 34782 O 3408.64 1.68469 -0.966014 0
M  V30 34783 C 3405.77 2.78436 -2.07583 0
M  V30 34784 C 3404.72 2.80333 -3.23416 0
M  V30 34785 C 3404.05 4.20224 -3.3063 0
M  V30 34786 C 3405.35 2.44959 -4.61294 0
M  V30 34787 H 3407.04 1.15256 -2.76327 0
M  V30 34788 H 3404.59 0.553007 -1.32958 0
M  V30 34789 H 3406.54 3.54176 -2.28336 0
M  V30 34790 H 3405.27 3.06163 -1.13718 0
M  V30 34791 H 3403.92 2.07046 -3.02535 0
M  V30 34792 H 3403.57 4.45077 -2.34341 0
M  V30 34793 H 3403.27 4.22402 -4.08474 0
M  V30 34794 H 3404.8 4.97791 -3.53605 0
M  V30 34795 H 3406.21 3.10413 -4.81993 0
M  V30 34796 H 3404.61 2.58404 -5.41615 0
M  V30 34797 H 3405.68 1.40126 -4.64212 0
M  V30 34798 N 3407.02 1.45939 0.594952 0
M  V30 34799 C 3408.26 1.52163 1.36476 0
M  V30 34800 C 3408.62 0.164329 1.91295 0
M  V30 34801 O 3409.83 0.101295 2.68609 0
M  V30 34802 C 3408.1 2.58044 2.47281 0
M  V30 34803 S 3409.66 2.83585 3.3485 0
M  V30 34804 H 3406.47 0.537754 0.465125 0
M  V30 34805 H 3409.08 1.83098 0.685225 0
M  V30 34806 H 3407.78 3.55313 2.05379 0
M  V30 34807 H 3407.31 2.28801 3.20021 0
M  V30 34808 H 3409.33 2.17924 4.45784 0
M  V30 34809 N 3408.5 -0.838547 1.3344 0
M  V30 34810 C 3409.41 -1.98046 1.25757 0
M  V30 34811 C 3410.42 -1.73186 0.168081 0
M  V30 34812 O 3411.6 -1.97554 0.391726 0
M  V30 34813 C 3408.67 -3.32049 0.997206 0
M  V30 34814 C 3407.73 -3.70023 2.17673 0
M  V30 34815 C 3406.96 -4.97631 1.92869 0
M  V30 34816 O 3407.18 -5.63584 0.879171 0
M  V30 34817 O 3406.12 -5.33116 2.79412 0
M  V30 34818 H 3409.94 -2.07468 2.2179 0
M  V30 34819 H 3407.53 -0.971625 1.13489 0
M  V30 34820 H 3409.41 -4.12339 0.869172 0
M  V30 34821 H 3408.08 -3.2363 0.0671605 0
M  V30 34822 H 3406.99 -2.90242 2.3603 0
M  V30 34823 H 3408.32 -3.83108 3.09013 0
M  V30 34824 N 3409.98 -1.16914 -1.05683 0
M  V30 34825 C 3411.22 -0.95587 -1.7886 0
M  V30 34826 C 3411.56 0.514612 -1.87258 0
M  V30 34827 O 3410.83 1.3819 -1.36871 0
M  V30 34828 C 3411.11 -1.59157 -3.23019 0
M  V30 34829 C 3410.97 -3.13382 -3.22664 0
M  V30 34830 C 3412.29 -1.29135 -4.20728 0
M  V30 34831 H 3409.4 -0.348674 -0.649304 0
M  V30 34832 H 3412.05 -1.44337 -1.23559 0
M  V30 34833 H 3410.2 -1.17703 -3.70241 0
M  V30 34834 H 3411.87 -3.6386 -2.83556 0
M  V30 34835 H 3410.11 -3.46391 -2.61143 0
M  V30 34836 H 3410.78 -3.52986 -4.24388 0
M  V30 34837 H 3413.26 -1.65024 -3.81977 0
M  V30 34838 H 3412.13 -1.76208 -5.19848 0
M  V30 34839 H 3412.4 -0.211268 -4.41595 0
M  V30 34840 N 3411.45 1.24323 -0.968589 0
M  V30 34841 C 3412.42 2.23582 -0.504346 0
M  V30 34842 C 3413.42 1.55756 0.399598 0
M  V30 34843 O 3414.61 1.73106 0.194935 0
M  V30 34844 C 3411.74 3.39833 0.2695 0
M  V30 34845 H 3412.93 2.66167 -1.38185 0
M  V30 34846 H 3410.49 1.36951 -0.753265 0
M  V30 34847 H 3411.22 3.02688 1.16406 0
M  V30 34848 H 3411.01 3.90262 -0.379202 0
M  V30 34849 H 3412.5 4.13506 0.583303 0
M  V30 34850 N 3412.93 0.73881 1.3921 0
M  V30 34851 C 3414.35 0.4148 1.54115 0
M  V30 34852 C 3414.55 -1.07389 1.70499 0
M  V30 34853 O 3413.6 -1.86 1.70763 0
M  V30 34854 C 3414.92 1.20115 2.75668 0
M  V30 34855 C 3416.47 1.18975 2.89506 0
M  V30 34856 C 3416.94 1.95875 4.14001 0
M  V30 34857 N 3418.43 1.9306 4.21049 0
M  V30 34858 C 3419.17 2.49367 5.16337 0
M  V30 34859 N 3418.66 3.14327 6.1739 0
M  V30 34860 N 3420.46 2.39379 5.0858 0
M  V30 34861 H 3412.61 1.70381 1.26824 0
M  V30 34862 H 3414.87 0.721468 0.61497 0
M  V30 34863 H 3414.58 2.25472 2.69918 0
M  V30 34864 H 3414.45 0.80813 3.68441 0
M  V30 34865 H 3416.84 0.1443 2.94747 0
M  V30 34866 H 3416.92 1.62217 1.97786 0
M  V30 34867 H 3416.56 3.00423 4.09522 0
M  V30 34868 H 3416.49 1.50036 5.04774 0
M  V30 34869 H 3418.98 1.45739 3.48667 0
M  V30 34870 H 3419.3 3.54749 6.86566 0
M  V30 34871 H 3417.64 3.18418 6.17766 0
M  V30 34872 H 3420.83 1.8827 4.2857 0
M  V30 34873 H 3421 2.83559 5.82665 0
M  V30 34874 N 3414.41 -1.49895 0.486734 0
M  V30 34875 C 3415.34 -2.31706 -0.288858 0
M  V30 34876 C 3416.32 -1.39322 -0.975877 0
M  V30 34877 O 3417.51 -1.68238 -0.970036 0
M  V30 34878 C 3414.64 -3.19474 -1.36212 0
M  V30 34879 C 3413.59 -4.20536 -0.795811 0
M  V30 34880 C 3412.92 -4.97145 -1.96853 0
M  V30 34881 C 3414.22 -5.21903 0.203513 0
M  V30 34882 H 3415.91 -2.96796 0.393986 0
M  V30 34883 H 3413.46 -1.42729 0.19092 0
M  V30 34884 H 3415.41 -3.75511 -1.91231 0
M  V30 34885 H 3414.13 -2.52299 -2.07395 0
M  V30 34886 H 3412.79 -3.65623 -0.267473 0
M  V30 34887 H 3412.44 -4.2643 -2.66771 0
M  V30 34888 H 3412.14 -5.65517 -1.59575 0
M  V30 34889 H 3413.66 -5.56022 -2.52333 0
M  V30 34890 H 3415.08 -5.72719 -0.258044 0
M  V30 34891 H 3413.48 -5.98085 0.491379 0
M  V30 34892 H 3414.55 -4.71688 1.12422 0
M  V30 34893 N 3415.89 -0.219968 -1.56057 0
M  V30 34894 C 3417.31 0.135448 -1.59024 0
M  V30 34895 C 3417.51 1.59081 -1.23675 0
M  V30 34896 O 3416.56 2.33073 -0.971238 0
M  V30 34897 C 3417.87 -0.189408 -3.00103 0
M  V30 34898 C 3419.42 -0.131518 -3.12724 0
M  V30 34899 C 3419.9 -0.430027 -4.55977 0
M  V30 34900 N 3421.39 -0.379541 -4.61642 0
M  V30 34901 C 3422.12 -0.584031 -5.70418 0
M  V30 34902 N 3421.62 -0.850209 -6.87563 0
M  V30 34903 N 3423.41 -0.516576 -5.59721 0
M  V30 34904 H 3415.56 -1.16938 -1.77311 0
M  V30 34905 H 3417.83 -0.468598 -0.824088 0
M  V30 34906 H 3417.53 -1.19946 -3.30614 0
M  V30 34907 H 3417.41 0.496344 -3.7392 0
M  V30 34908 H 3419.79 0.869173 -2.8201 0
M  V30 34909 H 3419.87 -0.850722 -2.41239 0
M  V30 34910 H 3419.52 -1.42815 -4.87408 0
M  V30 34911 H 3419.45 0.310351 -5.25685 0
M  V30 34912 H 3421.94 -0.181439 -3.77464 0
M  V30 34913 H 3422.25 -0.994386 -7.66376 0
M  V30 34914 H 3420.6 -0.887386 -6.89312 0
M  V30 34915 H 3423.79 -0.308866 -4.6708 0
M  V30 34916 H 3423.96 -0.679349 -6.44429 0
M  V30 34917 N 3417.37 1.57509 0.0534363 0
M  V30 34918 C 3418.3 2.01698 1.0886 0
M  V30 34919 C 3419.31 0.925789 1.33914 0
M  V30 34920 O 3420.5 1.20345 1.31831 0
M  V30 34921 C 3417.6 2.35648 2.43563 0
M  V30 34922 C 3416.77 3.66845 2.38208 0
M  V30 34923 C 3415.83 3.88258 3.55165 0
M  V30 34924 O 3414.86 4.59623 3.35761 0
M  V30 34925 N 3416.06 3.32018 4.76177 0
M  V30 34926 H 3418.83 2.91116 0.712141 0
M  V30 34927 H 3416.39 1.60084 0.241801 0
M  V30 34928 H 3418.38 2.47131 3.20482 0
M  V30 34929 H 3416.95 1.52026 2.73142 0
M  V30 34930 H 3416.17 3.65946 1.46551 0
M  V30 34931 H 3417.46 4.52957 2.31749 0
M  V30 34932 H 3416.86 2.74127 4.94844 0
M  V30 34933 H 3415.41 3.4892 5.50543 0
M  V30 34934 N 3418.85 -0.325228 1.54208 0
M  V30 34935 C 3419.79 -1.42033 1.842 0
M  V30 34936 C 3420.79 -1.53628 0.713777 0
M  V30 34937 O 3421.99 -1.56034 0.897413 0
M  V30 34938 H 3418.37 -0.473937 0.583856 0
M  V30 34939 H 3420.34 -1.1396 2.75782 0
M  V30 34940 C 3419.09 -2.78277 2.08464 0
M  V30 34941 H 3418.41 -2.70128 2.94739 0
M  V30 34942 H 3419.85 -3.53976 2.33404 0
M  V30 34943 C 3418.31 -3.25321 0.875672 0
M  V30 34944 O 3418.84 -4.01612 0.0841093 0
M  V30 34945 N 3417.05 -2.82344 0.687771 0
M  V30 34946 H 3416.59 -2.20422 1.33311 0
M  V30 34947 H 3416.55 -3.14172 -0.119632 0
M  V30 34948 N 3420.32 -1.46252 -0.587204 0
M  V30 34949 C 3421.29 -1.56063 -1.6786 0
M  V30 34950 C 3422.29 -0.438189 -1.54714 0
M  V30 34951 O 3423.48 -0.702351 -1.59414 0
M  V30 34952 C 3420.61 -1.47664 -3.07259 0
M  V30 34953 H 3421.8 -2.53324 -1.60521 0
M  V30 34954 H 3419.35 -1.33996 -0.804667 0
M  V30 34955 H 3420.09 -0.516657 -3.20158 0
M  V30 34956 H 3419.87 -2.29097 -3.18209 0
M  V30 34957 H 3421.36 -1.57606 -3.86717 0
M  V30 34958 N 3421.8 0.831459 -1.33883 0
M  V30 34959 C 3423.08 1.57234 -1.16348 0
M  V30 34960 C 3423.46 2.09401 0.267267 0
M  V30 34961 O 3422.81 1.9013 1.26739 0
M  V30 34962 C 3423.02 2.7004 -2.21087 0
M  V30 34963 C 3424.36 3.39029 -2.55626 0
M  V30 34964 O 3425.39 2.80288 -2.19811 0
M  V30 34965 O 3424.25 4.45085 -3.17114 0
M  V30 34966 H 3421.34 0.693538 -0.450482 0
M  V30 34967 H 3423.89 0.873571 -1.45488 0
M  V30 34968 H 3422.66 2.29185 -3.17159 0
M  V30 34969 H 3422.28 3.47574 -1.93076 0
M  V30 34970 N 3423.28 1.17472 1.05062 0
M  V30 34971 C 3424.21 0.850381 2.12841 0
M  V30 34972 C 3425.22 -0.147767 1.62128 0
M  V30 34973 O 3426.41 0.0787088 1.78326 0
M  V30 34974 C 3423.51 0.247545 3.37995 0
M  V30 34975 C 3422.69 1.28888 4.17979 0
M  V30 34976 C 3421.75 0.703567 5.21475 0
M  V30 34977 O 3420.77 1.37571 5.52325 0
M  V30 34978 N 3421.97 -0.503769 5.7831 0
M  V30 34979 H 3424.74 1.77802 2.41261 0
M  V30 34980 H 3422.3 1.07375 1.2117 0
M  V30 34981 H 3424.29 -0.157353 4.04394 0
M  V30 34982 H 3422.86 -0.583898 3.07098 0
M  V30 34983 H 3422.08 1.86948 3.4705 0
M  V30 34984 H 3423.37 1.99124 4.68217 0
M  V30 34985 H 3422.77 -1.06777 5.55531 0
M  V30 34986 H 3421.32 -0.850715 6.46224 0
M  V30 34987 N 3424.76 -1.23807 0.975168 0
M  V30 34988 C 3426 -1.93819 0.649112 0
M  V30 34989 C 3426.36 -1.74455 -0.801849 0
M  V30 34990 O 3427.56 -2.38569 -1.23848 0
M  V30 34991 C 3425.83 -3.42459 1.02256 0
M  V30 34992 S 3427.39 -4.31218 0.812182 0
M  V30 34993 H 3424.21 -0.670022 0.23789 0
M  V30 34994 H 3426.81 -1.50009 1.2537 0
M  V30 34995 H 3425.52 -3.54062 2.07529 0
M  V30 34996 H 3425.05 -3.91268 0.409045 0
M  V30 34997 H 3427.06 -4.95252 -0.306629 0
M  V30 34998 N 3426.24 -0.746182 -1.38816 0
M  V30 34999 C 3427.48 -0.303878 -2.02129 0
M  V30 35000 C 3427.84 1.09167 -1.57945 0
M  V30 35001 O 3429.04 1.63268 -2.13535 0
M  V30 35002 C 3427.31 -0.414441 -3.54989 0
M  V30 35003 S 3428.87 -0.0536266 -4.38767 0
M  V30 35004 H 3425.69 -0.118341 -0.701082 0
M  V30 35005 H 3428.29 -0.975167 -1.69442 0
M  V30 35006 H 3426.99 -1.43121 -3.84636 0
M  V30 35007 H 3426.53 0.274286 -3.92443 0
M  V30 35008 H 3428.54 1.15912 -4.82472 0
M  V30 35009 N 3427.71 1.49635 -0.494676 0
M  V30 35010 C 3429.12 1.86645 -0.0453222 0
M  V30 35011 C 3429.48 1.40755 1.36683 0
M  V30 35012 O 3428.6 0.782685 2.0175 0
M  V30 35013 C 3429.2 3.38716 -0.075471 0
M  V30 35014 C 3427.75 3.7505 0.318513 0
M  V30 35015 C 3426.9 2.73612 -0.45076 0
M  V30 35016 H 3429.85 1.42043 -0.707783 0
M  V30 35017 H 3429.87 3.73601 0.721306 0
M  V30 35018 H 3429.39 3.72085 -1.10337 0
M  V30 35019 H 3427.49 3.47288 1.34989 0
M  V30 35020 H 3427.6 4.791 0.00345995 0
M  V30 35021 H 3425.96 2.54509 0.0986007 0
M  V30 35022 H 3426.75 3.09825 -1.47862 0
M  V30 35023 N 3429.19 0.228241 1.55939 0
M  V30 35024 C 3430.1 -0.6903 2.24214 0
M  V30 35025 C 3431.12 -1.20836 1.25199 0
M  V30 35026 O 3432.29 -1.24856 1.58028 0
M  V30 35027 C 3429.36 -1.87868 2.91387 0
M  V30 35028 C 3428.42 -1.40194 4.05764 0
M  V30 35029 C 3427.65 -2.53367 4.69724 0
M  V30 35030 O 3427.88 -3.71661 4.32694 0
M  V30 35031 O 3426.81 -2.24188 5.58591 0
M  V30 35032 H 3430.64 -0.138639 3.03383 0
M  V30 35033 H 3428.22 -0.00248878 1.494 0
M  V30 35034 H 3430.1 -2.57256 3.33762 0
M  V30 35035 H 3428.78 -2.41831 2.15173 0
M  V30 35036 H 3427.68 -0.67588 3.67944 0
M  V30 35037 H 3429.02 -0.908606 4.83741 0
M  V30 35038 N 3430.67 -1.57536 -0.0450825 0
M  V30 35039 C 3431.9 -1.92498 -0.750197 0
M  V30 35040 C 3432.31 -0.824976 -1.70267 0
M  V30 35041 O 3431.65 0.208624 -1.82512 0
M  V30 35042 C 3431.71 -3.23144 -1.57538 0
M  V30 35043 C 3431.38 -4.5013 -0.789416 0
M  V30 35044 C 3432.37 -5.1981 -0.0967453 0
M  V30 35045 C 3430.06 -4.96689 -0.748688 0
M  V30 35046 C 3432.05 -6.34317 0.62613 0
M  V30 35047 C 3429.74 -6.11096 -0.0220577 0
M  V30 35048 C 3430.74 -6.79763 0.664126 0
M  V30 35049 O 3430.43 -7.91984 1.37899 0
M  V30 35050 H 3430.16 -0.640264 -0.216884 0
M  V30 35051 H 3432.71 -2.05397 -0.0115219 0
M  V30 35052 H 3430.94 -3.06528 -2.35749 0
M  V30 35053 H 3432.63 -3.43553 -2.16162 0
M  V30 35054 H 3433.4 -4.84853 -0.119344 0
M  V30 35055 H 3429.28 -4.43096 -1.27227 0
M  V30 35056 H 3432.82 -6.8785 1.16227 0
M  V30 35057 H 3428.72 -6.455 0.00252053 0
M  V30 35058 H 3429.49 -8.08254 1.29101 0
M  V30 35059 N 3432.15 0.317045 -1.54378 0
M  V30 35060 C 3433.06 1.41332 -1.8725 0
M  V30 35061 C 3434.07 1.56279 -0.765044 0
M  V30 35062 O 3435.25 1.7125 -1.05997 0
M  V30 35063 C 3432.32 2.75951 -2.09885 0
M  V30 35064 C 3431.38 2.70125 -3.33663 0
M  V30 35065 C 3430.61 3.98324 -3.55209 0
M  V30 35066 O 3430.83 4.96908 -2.80069 0
M  V30 35067 O 3429.77 4.01188 -4.487 0
M  V30 35068 H 3433.59 1.16461 -2.80483 0
M  V30 35069 H 3431.18 0.511662 -1.40365 0
M  V30 35070 H 3433.06 3.55629 -2.26066 0
M  V30 35071 H 3431.73 3.007 -1.19839 0
M  V30 35072 H 3430.64 1.88976 -3.22861 0
M  V30 35073 H 3431.97 2.50331 -4.23787 0
M  V30 35074 N 3433.63 1.46561 0.57944 0
M  V30 35075 C 3434.87 1.53602 1.34855 0
M  V30 35076 C 3435.23 0.184609 1.9111 0
M  V30 35077 O 3436.43 0.129778 2.68487 0
M  V30 35078 C 3434.7 2.60652 2.44531 0
M  V30 35079 S 3436.26 2.87121 3.31824 0
M  V30 35080 H 3433.08 0.542657 0.459395 0
M  V30 35081 H 3435.68 1.83815 0.665766 0
M  V30 35082 H 3434.39 3.57472 2.01599 0
M  V30 35083 H 3433.92 2.32182 3.17577 0
M  V30 35084 H 3435.93 2.2264 4.43448 0
M  V30 35085 N 3435.1 -0.824347 1.34322 0
M  V30 35086 C 3436.35 -1.58282 1.26785 0
M  V30 35087 C 3436.68 -1.93521 -0.162248 0
M  V30 35088 O 3435.96 -1.59905 -1.10727 0
M  V30 35089 C 3436.24 -2.88327 2.1573 0
M  V30 35090 C 3436.09 -2.59678 3.6727 0
M  V30 35091 C 3437.41 -3.89887 2.04148 0
M  V30 35092 H 3434.53 -0.574294 0.461904 0
M  V30 35093 H 3437.17 -0.94974 1.6456 0
M  V30 35094 H 3435.32 -3.42355 1.83645 0
M  V30 35095 H 3437 -2.11971 4.09715 0
M  V30 35096 H 3435.24 -1.93144 3.8843 0
M  V30 35097 H 3435.91 -3.52406 4.24869 0
M  V30 35098 H 3438.39 -3.45208 2.32316 0
M  V30 35099 H 3437.26 -4.78686 2.6861 0
M  V30 35100 H 3437.52 -4.30219 1.01803 0
M  V30 35101 N 3436.58 -1.18028 -1.04437 0
M  V30 35102 C 3437.82 -0.98427 -1.79141 0
M  V30 35103 C 3438.19 0.477969 -1.85956 0
M  V30 35104 O 3439.39 0.7933 -2.56827 0
M  V30 35105 C 3437.66 -1.61674 -3.18742 0
M  V30 35106 S 3439.22 -1.56798 -4.09829 0
M  V30 35107 H 3436.04 -0.353536 -0.616874 0
M  V30 35108 H 3438.64 -1.50106 -1.25253 0
M  V30 35109 H 3437.34 -2.6733 -3.11389 0
M  V30 35110 H 3436.87 -1.10008 -3.77706 0
M  V30 35111 H 3438.89 -0.581261 -4.92784 0
M  V30 35112 N 3438.06 1.23288 -0.98172 0
M  V30 35113 C 3439.34 1.87181 -0.567692 0
M  V30 35114 C 3439.72 1.88255 0.955161 0
M  V30 35115 O 3439.07 1.36508 1.83243 0
M  V30 35116 C 3439.28 3.28616 -1.17527 0
M  V30 35117 C 3440.62 4.05198 -1.26884 0
M  V30 35118 O 3441.65 3.3784 -1.12883 0
M  V30 35119 O 3440.51 5.25747 -1.49173 0
M  V30 35120 H 3437.6 0.804563 -0.191329 0
M  V30 35121 H 3440.15 1.31153 -1.07689 0
M  V30 35122 H 3438.92 3.22407 -2.21741 0
M  V30 35123 H 3438.54 3.92235 -0.650982 0
M  V30 35124 N 3439.54 0.753533 1.38418 0
M  V30 35125 C 3440.95 0.377363 1.82847 0
M  V30 35126 C 3441.3 -1.09398 1.62869 0
M  V30 35127 O 3440.43 -1.84563 1.12984 0
M  V30 35128 C 3441.02 0.678154 3.31944 0
M  V30 35129 C 3439.58 0.355262 3.7472 0
M  V30 35130 C 3438.73 0.931357 2.61192 0
M  V30 35131 H 3441.68 0.949689 1.27148 0
M  V30 35132 H 3441.7 -0.0436623 3.80475 0
M  V30 35133 H 3441.21 1.74908 3.46452 0
M  V30 35134 H 3439.31 -0.709085 3.65791 0
M  V30 35135 H 3439.42 0.850776 4.71486 0
M  V30 35136 H 3437.79 0.35674 2.52189 0
M  V30 35137 H 3438.57 2.00732 2.78499 0
M  V30 35138 N 3441.02 -1.49371 0.502605 0
M  V30 35139 C 3442.26 -2.02758 -0.0414067 0
M  V30 35140 C 3442.6 -1.38139 -1.36497 0
M  V30 35141 O 3441.87 -0.517625 -1.87486 0
M  V30 35142 C 3442.15 -3.59586 -0.19227 0
M  V30 35143 C 3442.01 -4.34731 1.15453 0
M  V30 35144 C 3443.33 -4.30115 -0.932143 0
M  V30 35145 H 3440.44 -0.736875 -0.013574 0
M  V30 35146 H 3443.09 -1.78378 0.654327 0
M  V30 35147 H 3441.24 -3.8049 -0.784844 0
M  V30 35148 H 3442.91 -4.25319 1.7861 0
M  V30 35149 H 3441.15 -3.97225 1.7434 0
M  V30 35150 H 3441.82 -5.42825 1.00226 0
M  V30 35151 H 3444.3 -4.13877 -0.429559 0
M  V30 35152 H 3443.17 -5.39592 -1.00655 0
M  V30 35153 H 3443.44 -3.95471 -1.97623 0
M  V30 35154 N 3442.49 -0.236508 -1.55815 0
M  V30 35155 C 3443.72 0.39854 -2.03535 0
M  V30 35156 C 3444.14 1.51497 -1.11491 0
M  V30 35157 O 3443.5 1.80991 -0.10588 0
M  V30 35158 C 3443.55 0.893405 -3.49357 0
M  V30 35159 O 3442.65 2.00374 -3.6045 0
M  V30 35160 H 3442 0.0882905 -0.658104 0
M  V30 35161 H 3444.53 -0.359524 -2.01416 0
M  V30 35162 H 3444.54 1.19934 -3.89974 0
M  V30 35163 H 3443.21 0.0763657 -4.1583 0
M  V30 35164 H 3441.79 1.7033 -3.31726 0
M  V30 35165 N 3443.97 1.57557 0.0367273 0
M  V30 35166 C 3445.21 1.90766 0.734006 0
M  V30 35167 C 3445.58 0.834252 1.72928 0
M  V30 35168 O 3446.78 1.05044 2.47425 0
M  V30 35169 C 3445.05 3.29145 1.39279 0
M  V30 35170 S 3446.61 3.84174 2.12028 0
M  V30 35171 H 3443.43 0.668063 0.243337 0
M  V30 35172 H 3446.03 1.95497 -0.0111312 0
M  V30 35173 H 3444.73 4.05138 0.655083 0
M  V30 35174 H 3444.26 3.27698 2.17663 0
M  V30 35175 H 3446.28 3.62283 3.39066 0
M  V30 35176 N 3445.45 -0.308854 1.54544 0
M  V30 35177 C 3446.73 -1.06415 1.64119 0
M  V30 35178 C 3447.11 -2.05466 0.484438 0
M  V30 35179 O 3446.46 -2.22511 -0.519713 0
M  V30 35180 C 3446.67 -1.75301 3.01779 0
M  V30 35181 C 3448.01 -2.27786 3.58328 0
M  V30 35182 O 3449.04 -1.85345 3.0418 0
M  V30 35183 O 3447.9 -3.05526 4.53119 0
M  V30 35184 H 3444.99 -0.49139 0.665181 0
M  V30 35185 H 3447.54 -0.307569 1.66889 0
M  V30 35186 H 3446.31 -1.03335 3.77409 0
M  V30 35187 H 3445.93 -2.57734 3.02752 0
M  V30 35188 N 3446.93 -1.46867 -0.571659 0
M  V30 35189 C 3447.86 -1.61134 -1.68991 0
M  V30 35190 C 3448.84 -0.461251 -1.63727 0
M  V30 35191 O 3450.03 -0.688845 -1.81572 0
M  V30 35192 C 3447.16 -1.61177 -3.07635 0
M  V30 35193 C 3446.11 -2.75267 -3.27737 0
M  V30 35194 C 3445.44 -2.60376 -4.67021 0
M  V30 35195 C 3446.74 -4.16995 -3.14504 0
M  V30 35196 H 3448.43 -2.54745 -1.57307 0
M  V30 35197 H 3445.98 -1.22598 -0.755361 0
M  V30 35198 H 3447.93 -1.69751 -3.85697 0
M  V30 35199 H 3446.65 -0.641179 -3.20244 0
M  V30 35200 H 3445.31 -2.66181 -2.52078 0
M  V30 35201 H 3444.96 -1.61376 -4.7641 0
M  V30 35202 H 3444.66 -3.36907 -4.81422 0
M  V30 35203 H 3446.18 -2.70857 -5.47237 0
M  V30 35204 H 3447.6 -4.27134 -3.82399 0
M  V30 35205 H 3445.99 -4.94199 -3.40422 0
M  V30 35206 H 3447.06 -4.36375 -2.11436 0
M  V30 35207 N 3448.41 0.817212 -1.34757 0
M  V30 35208 C 3449.82 1.39042 -1.24596 0
M  V30 35209 C 3450.17 1.95794 0.12615 0
M  V30 35210 O 3449.29 1.90493 1.02671 0
M  V30 35211 C 3449.89 2.52768 -2.25597 0
M  V30 35212 C 3448.45 3.05981 -2.1921 0
M  V30 35213 C 3447.6 1.78883 -2.11887 0
M  V30 35214 H 3450.55 0.62113 -1.4604 0
M  V30 35215 H 3450.57 3.31023 -1.87628 0
M  V30 35216 H 3450.08 2.11433 -3.2545 0
M  V30 35217 H 3448.18 3.51806 -1.22731 0
M  V30 35218 H 3448.29 3.64683 -3.10713 0
M  V30 35219 H 3446.66 2.00009 -1.57697 0
M  V30 35220 H 3447.44 1.39714 -3.13584 0
M  V30 35221 N 3449.89 1.1858 1.0381 0
M  V30 35222 C 3451.3 0.986524 1.58507 0
M  V30 35223 C 3451.65 -0.463103 1.90656 0
M  V30 35224 O 3450.77 -1.3409 1.69849 0
M  V30 35225 C 3451.37 1.78446 2.87997 0
M  V30 35226 C 3449.93 1.62946 3.39301 0
M  V30 35227 C 3449.07 1.77731 2.12854 0
M  V30 35228 H 3452.02 1.33086 0.864505 0
M  V30 35229 H 3452.05 1.27507 3.585 0
M  V30 35230 H 3451.56 2.83947 2.64567 0
M  V30 35231 H 3449.66 0.599929 3.67739 0
M  V30 35232 H 3449.77 2.4291 4.12955 0
M  V30 35233 H 3448.14 1.20703 2.24283 0
M  V30 35234 H 3448.92 2.84672 1.91877 0
M  V30 35235 N 3451.36 -1.22766 0.988245 0
M  V30 35236 C 3452.61 -1.91675 0.662474 0
M  V30 35237 C 3452.94 -1.76825 -0.802899 0
M  V30 35238 O 3452.22 -1.13417 -1.58009 0
M  V30 35239 C 3452.5 -3.44041 1.06338 0
M  V30 35240 C 3452.35 -3.67962 2.58697 0
M  V30 35241 C 3453.67 -4.35808 0.613134 0
M  V30 35242 H 3450.79 -0.696086 0.242144 0
M  V30 35243 H 3453.43 -1.44734 1.23093 0
M  V30 35244 H 3451.58 -3.84151 0.57969 0
M  V30 35245 H 3453.26 -3.37285 3.147 0
M  V30 35246 H 3451.5 -3.12403 3.00977 0
M  V30 35247 H 3452.17 -4.74651 2.81799 0
M  V30 35248 H 3454.65 -4.03188 1.02853 0
M  V30 35249 H 3453.52 -5.41101 0.921996 0
M  V30 35250 H 3453.78 -4.39417 -0.486333 0
M  V30 35251 N 3452.84 -0.760864 -1.38017 0
M  V30 35252 C 3454.25 -0.387054 -1.82644 0
M  V30 35253 C 3454.6 1.08533 -1.63447 0
M  V30 35254 O 3453.73 1.83961 -1.13961 0
M  V30 35255 C 3454.32 -0.695748 -3.31579 0
M  V30 35256 C 3452.88 -0.375129 -3.74526 0
M  V30 35257 C 3452.03 -0.945196 -2.60694 0
M  V30 35258 H 3454.98 -0.956419 -1.26643 0
M  V30 35259 H 3455 0.0234842 -3.80493 0
M  V30 35260 H 3454.51 -1.76743 -3.45519 0
M  V30 35261 H 3452.61 0.689677 -3.66161 0
M  V30 35262 H 3452.73 -0.875768 -4.71028 0
M  V30 35263 H 3451.09 -0.370109 -2.51997 0
M  V30 35264 H 3451.87 -2.02206 -2.77431 0
M  V30 35265 N 3454.32 1.49102 -0.510519 0
M  V30 35266 C 3455.27 2.26246 0.282258 0
M  V30 35267 C 3456.25 1.31501 0.927164 0
M  V30 35268 O 3457.45 1.56163 0.833188 0
M  V30 35269 C 3454.57 3.16051 1.3404 0
M  V30 35270 C 3453.66 4.18262 0.701261 0
M  V30 35271 N 3454.05 5.05398 -0.201682 0
M  V30 35272 C 3452.35 4.35529 0.960746 0
M  V30 35273 C 3453.05 5.78915 -0.568484 0
M  V30 35274 N 3452.03 5.4356 0.065859 0
M  V30 35275 H 3455.83 2.90988 -0.412691 0
M  V30 35276 H 3453.34 1.59069 -0.327228 0
M  V30 35277 H 3455.34 3.69958 1.92189 0
M  V30 35278 H 3454 2.52862 2.03693 0
M  V30 35279 H 3455.01 5.14719 -0.573094 0
M  V30 35280 H 3451.69 3.83541 1.64931 0
M  V30 35281 H 3453.08 6.59051 -1.30775 0
M  V30 35282 N 3455.8 0.244768 1.55688 0
M  V30 35283 C 3457.04 -0.382131 2.00796 0
M  V30 35284 C 3457.4 -1.55284 1.1292 0
M  V30 35285 O 3458.6 -2.24733 1.47475 0
M  V30 35286 C 3456.87 -0.783647 3.48703 0
M  V30 35287 S 3458.43 -1.40137 4.15821 0
M  V30 35288 H 3455.25 -0.12033 0.700744 0
M  V30 35289 H 3457.85 0.359501 1.92166 0
M  V30 35290 H 3456.56 0.0777279 4.10326 0
M  V30 35291 H 3456.09 -1.55751 3.61255 0
M  V30 35292 H 3458.1 -2.69042 4.1693 0
M  V30 35293 N 3457.28 -1.57574 -0.0283712 0
M  V30 35294 C 3458.19 -2.10005 -1.04571 0
M  V30 35295 C 3459.2 -1.03883 -1.39586 0
M  V30 35296 O 3460.38 -1.35622 -1.48891 0
M  V30 35297 C 3457.44 -2.56959 -2.3275 0
M  V30 35298 C 3456.5 -3.77566 -2.0431 0
M  V30 35299 C 3455.74 -4.22271 -3.26378 0
M  V30 35300 O 3455.96 -3.66498 -4.37076 0
M  V30 35301 O 3454.89 -5.147 -3.12037 0
M  V30 35302 H 3458.72 -2.97091 -0.630131 0
M  V30 35303 H 3456.3 -1.47371 -0.245397 0
M  V30 35304 H 3458.19 -2.87487 -3.08106 0
M  V30 35305 H 3456.86 -1.72984 -2.73602 0
M  V30 35306 H 3455.77 -3.52056 -1.2652 0
M  V30 35307 H 3457.1 -4.62527 -1.68313 0
M  V30 35308 N 3458.75 0.300654 -1.54706 0
M  V30 35309 C 3460.17 0.646333 -1.45927 0
M  V30 35310 C 3460.37 1.90703 -0.650753 0
M  V30 35311 O 3459.43 2.52001 -0.158591 0
M  V30 35312 C 3460.74 0.799008 -2.8989 0
M  V30 35313 C 3462.29 0.89487 -2.99935 0
M  V30 35314 C 3462.76 1.07954 -4.45095 0
M  V30 35315 N 3464.25 1.14574 -4.48806 0
M  V30 35316 C 3464.99 1.30693 -5.58307 0
M  V30 35317 N 3464.48 1.43707 -6.77732 0
M  V30 35318 N 3466.28 1.33584 -5.45996 0
M  V30 35319 H 3458.43 -0.527653 -2.05742 0
M  V30 35320 H 3460.69 -0.174431 -0.931814 0
M  V30 35321 H 3460.4 -0.0564572 -3.51655 0
M  V30 35322 H 3460.27 1.6879 -3.37327 0
M  V30 35323 H 3462.66 1.74082 -2.38284 0
M  V30 35324 H 3462.74 -0.0180423 -2.55794 0
M  V30 35325 H 3462.38 0.238355 -5.0734 0
M  V30 35326 H 3462.31 2.00668 -4.86867 0
M  V30 35327 H 3464.8 1.05867 -3.62768 0
M  V30 35328 H 3465.12 1.55763 -7.5694 0
M  V30 35329 H 3463.46 1.40762 -6.80596 0
M  V30 35330 H 3466.65 1.23027 -4.51644 0
M  V30 35331 H 3466.83 1.45802 -6.31384 0
M  V30 35332 N 3460.23 1.47168 0.563863 0
M  V30 35333 C 3461.48 1.53148 1.31872 0
M  V30 35334 C 3461.8 0.192552 1.94047 0
M  V30 35335 O 3461.07 -0.782841 1.79578 0
M  V30 35336 H 3459.65 0.564108 0.489684 0
M  V30 35337 H 3462.31 1.83423 0.658944 0
M  V30 35338 H 3461.41 2.29444 2.1157 0
M  V30 35339 N 3461.71 -0.810054 1.35188 0
M  V30 35340 C 3462.64 -1.93639 1.30484 0
M  V30 35341 C 3463.62 -1.69146 0.179905 0
M  V30 35342 O 3464.81 -1.90558 0.374317 0
M  V30 35343 C 3461.94 -3.30323 1.07257 0
M  V30 35344 C 3460.89 -3.6929 2.16354 0
M  V30 35345 C 3460.22 -5.04098 1.78297 0
M  V30 35346 C 3461.52 -3.80032 3.58292 0
M  V30 35347 H 3463.21 -1.97832 2.24728 0
M  V30 35348 H 3460.76 -0.950416 1.08181 0
M  V30 35349 H 3462.71 -4.08717 1.02607 0
M  V30 35350 H 3461.43 -3.26463 0.0945777 0
M  V30 35351 H 3460.09 -2.93179 2.20095 0
M  V30 35352 H 3459.74 -4.96738 0.79125 0
M  V30 35353 H 3459.44 -5.3114 2.51325 0
M  V30 35354 H 3460.96 -5.84935 1.75165 0
M  V30 35355 H 3462.38 -4.48665 3.56892 0
M  V30 35356 H 3460.78 -4.1854 4.30051 0
M  V30 35357 H 3461.85 -2.81678 3.94696 0
M  V30 35358 N 3463.19 -1.19129 -1.0318 0
M  V30 35359 C 3464.12 -0.884135 -2.11461 0
M  V30 35360 C 3465.13 0.121955 -1.62343 0
M  V30 35361 O 3466.32 -0.107069 -1.78179 0
M  V30 35362 C 3463.42 -0.301286 -3.37558 0
M  V30 35363 C 3462.6 -1.35521 -4.15876 0
M  V30 35364 C 3461.65 -0.78644 -5.2029 0
M  V30 35365 O 3460.68 -1.46341 -5.50066 0
M  V30 35366 N 3461.88 0.411701 -5.79038 0
M  V30 35367 H 3464.65 -1.81617 -2.38401 0
M  V30 35368 H 3462.21 -1.09289 -1.19447 0
M  V30 35369 H 3464.2 0.0929973 -4.04593 0
M  V30 35370 H 3462.77 0.534967 -3.07988 0
M  V30 35371 H 3461.99 -1.92446 -3.44032 0
M  V30 35372 H 3463.28 -2.06548 -4.6499 0
M  V30 35373 H 3462.68 0.979255 -5.5716 0
M  V30 35374 H 3461.23 0.747798 -6.47496 0
M  V30 35375 N 3464.67 1.2224 -0.994741 0
M  V30 35376 C 3466.08 1.72817 -0.706486 0
M  V30 35377 C 3466.43 1.80179 0.776535 0
M  V30 35378 O 3465.55 1.44934 1.60696 0
M  V30 35379 C 3466.15 3.13862 -1.27577 0
M  V30 35380 C 3464.71 3.61837 -1.03686 0
M  V30 35381 C 3463.85 2.39665 -1.39484 0
M  V30 35382 H 3466.81 1.07562 -1.16688 0
M  V30 35383 H 3466.83 3.74815 -0.655267 0
M  V30 35384 H 3466.34 3.08472 -2.35513 0
M  V30 35385 H 3464.44 3.72591 0.0258024 0
M  V30 35386 H 3464.55 4.47867 -1.70153 0
M  V30 35387 H 3462.92 2.41361 -0.81346 0
M  V30 35388 H 3463.7 2.36935 -2.48429 0
M  V30 35389 N 3466.14 0.768172 1.37611 0
M  V30 35390 C 3467.37 0.342147 2.04051 0
M  V30 35391 C 3467.79 -1.03446 1.57938 0
M  V30 35392 O 3467.14 -1.65968 0.75901 0
M  V30 35393 C 3467.2 0.372159 3.59579 0
M  V30 35394 O 3466.92 1.69446 4.04005 0
M  V30 35395 C 3468.42 -0.0659105 4.43251 0
M  V30 35396 H 3465.64 0.143898 0.655389 0
M  V30 35397 H 3468.18 1.0411 1.76015 0
M  V30 35398 H 3466.34 -0.27818 3.864 0
M  V30 35399 H 3466.75 1.63063 4.98509 0
M  V30 35400 H 3468.22 0.00624478 5.52 0
M  V30 35401 H 3468.7 -1.1158 4.2479 0
M  V30 35402 H 3469.31 0.556104 4.21649 0
M  V30 35403 N 3467.62 -1.48829 0.518419 0
M  V30 35404 C 3468.55 -2.32267 -0.239644 0
M  V30 35405 C 3469.53 -1.41361 -0.946105 0
M  V30 35406 O 3470.72 -1.70258 -0.934132 0
M  V30 35407 C 3467.85 -3.22291 -1.29405 0
M  V30 35408 C 3466.8 -4.2213 -0.706429 0
M  V30 35409 C 3466.13 -5.01208 -1.86264 0
M  V30 35410 C 3467.43 -5.21354 0.31417 0
M  V30 35411 H 3469.12 -2.95894 0.456852 0
M  V30 35412 H 3466.67 -1.42292 0.221151 0
M  V30 35413 H 3468.62 -3.79483 -1.83223 0
M  V30 35414 H 3467.35 -2.56641 -2.01997 0
M  V30 35415 H 3466 -3.66108 -0.189859 0
M  V30 35416 H 3465.65 -4.31992 -2.57666 0
M  V30 35417 H 3465.35 -5.68775 -1.47544 0
M  V30 35418 H 3466.88 -5.61249 -2.40483 0
M  V30 35419 H 3468.29 -5.73137 -0.136503 0
M  V30 35420 H 3466.69 -5.96908 0.618131 0
M  V30 35421 H 3467.76 -4.69197 1.22402 0
M  V30 35422 N 3469.1 -0.253021 -1.55556 0
M  V30 35423 C 3470.33 0.373986 -2.03492 0
M  V30 35424 C 3470.74 1.51092 -1.1321 0
M  V30 35425 O 3470.1 1.81901 -0.147737 0
M  V30 35426 C 3470.15 0.875986 -3.50726 0
M  V30 35427 O 3469.87 -0.215651 -4.37569 0
M  V30 35428 C 3471.37 1.57306 -4.14451 0
M  V30 35429 H 3468.59 0.0881527 -0.665184 0
M  V30 35430 H 3471.14 -0.378671 -2.00964 0
M  V30 35431 H 3469.29 1.5788 -3.53769 0
M  V30 35432 H 3469.71 0.166532 -5.24236 0
M  V30 35433 H 3471.18 1.87596 -5.19145 0
M  V30 35434 H 3471.66 2.49712 -3.61304 0
M  V30 35435 H 3472.26 0.914662 -4.15348 0
M  V30 35436 N 3470.58 1.57587 0.0200142 0
M  V30 35437 C 3471.53 2.08246 1.03616 0
M  V30 35438 C 3472.52 0.998143 1.3687 0
M  V30 35439 O 3473.73 1.18296 1.35669 0
M  V30 35440 H 3470.1 0.664679 0.351719 0
M  V30 35441 H 3472.07 2.92646 0.583174 0
M  V30 35442 C 3470.82 2.5847 2.32569 0
M  V30 35443 H 3470.14 3.41527 2.07844 0
M  V30 35444 H 3471.58 2.97616 3.01994 0
M  V30 35445 C 3470.04 1.48991 3.02164 0
M  V30 35446 O 3470.57 0.86132 3.92357 0
M  V30 35447 N 3468.78 1.22224 2.63647 0
M  V30 35448 H 3468.33 1.73525 1.90386 0
M  V30 35449 H 3468.28 0.491883 3.10528 0
M  V30 35450 N 3472.06 -0.292445 1.54863 0
M  V30 35451 C 3473.47 -0.864862 1.6546 0
M  V30 35452 C 3473.82 -1.87773 0.568841 0
M  V30 35453 O 3472.94 -2.14406 -0.29307 0
M  V30 35454 C 3473.54 -1.57545 2.99942 0
M  V30 35455 C 3472.1 -2.09615 3.12631 0
M  V30 35456 C 3471.24 -0.931667 2.61181 0
M  V30 35457 H 3474.2 -0.0692401 1.58549 0
M  V30 35458 H 3474.22 -2.44147 2.91844 0
M  V30 35459 H 3473.73 -0.838021 3.78944 0
M  V30 35460 H 3471.83 -2.86379 2.38365 0
M  V30 35461 H 3471.94 -2.32481 4.18915 0
M  V30 35462 H 3470.31 -1.31963 2.17848 0
M  V30 35463 H 3471.09 -0.208061 3.42669 0
M  V30 35464 N 3473.53 -1.47465 -0.55605 0
M  V30 35465 C 3474.78 -1.53845 -1.31058 0
M  V30 35466 C 3475.1 -0.20284 -1.93942 0
M  V30 35467 O 3474.37 0.773306 -1.79991 0
M  V30 35468 H 3472.95 -0.566697 -0.486686 0
M  V30 35469 H 3475.62 -1.8377 -0.649208 0
M  V30 35470 H 3474.71 -2.30563 -2.1035 0
M  V30 35471 N 3475.01 0.802873 -1.35616 0
M  V30 35472 C 3475.92 1.94642 -1.30964 0
M  V30 35473 C 3476.94 1.7268 -0.213939 0
M  V30 35474 O 3478.12 1.96446 -0.443966 0
M  V30 35475 C 3475.18 3.29289 -1.08489 0
M  V30 35476 C 3474.24 3.64122 -2.27407 0
M  V30 35477 C 3473.47 4.92343 -2.05995 0
M  V30 35478 O 3473.7 5.61055 -1.02829 0
M  V30 35479 O 3472.63 5.25521 -2.93448 0
M  V30 35480 H 3476.46 2.01515 -2.27212 0
M  V30 35481 H 3474.04 0.941194 -1.16025 0
M  V30 35482 H 3475.92 4.09889 -0.97819 0
M  V30 35483 H 3474.6 3.23338 -0.152942 0
M  V30 35484 H 3473.51 2.83882 -2.43643 0
M  V30 35485 H 3474.84 3.7478 -3.19062 0
M  V30 35486 N 3476.49 1.19674 1.02547 0
M  V30 35487 C 3477.73 1.01264 1.77552 0
M  V30 35488 C 3478.1 -0.448325 1.86692 0
M  V30 35489 O 3479.3 -0.752341 2.58057 0
M  V30 35490 C 3477.57 1.66725 3.16129 0
M  V30 35491 S 3479.13 1.63298 4.07283 0
M  V30 35492 H 3475.94 0.363305 0.611171 0
M  V30 35493 H 3478.55 1.5208 1.22849 0
M  V30 35494 H 3477.25 2.7225 3.07097 0
M  V30 35495 H 3476.78 1.16003 3.75908 0
M  V30 35496 H 3478.8 0.659585 4.91797 0
M  V30 35497 N 3477.97 -1.21711 1.00121 0
M  V30 35498 C 3479.39 -1.4277 0.713368 0
M  V30 35499 C 3479.59 -1.88468 -0.71289 0
M  V30 35500 O 3478.64 -2.0438 -1.48273 0
M  V30 35501 C 3479.95 -2.46231 1.72601 0
M  V30 35502 C 3481.5 -2.60019 1.74239 0
M  V30 35503 C 3481.98 -3.66708 2.74388 0
M  V30 35504 N 3483.47 -3.74175 2.73033 0
M  V30 35505 C 3484.2 -4.56343 3.47187 0
M  V30 35506 N 3483.7 -5.42438 4.30967 0
M  V30 35507 N 3485.49 -4.50731 3.35854 0
M  V30 35508 H 3477.64 -0.903577 1.92222 0
M  V30 35509 H 3479.91 -0.458996 0.829474 0
M  V30 35510 H 3479.61 -2.19617 2.74702 0
M  V30 35511 H 3479.49 -3.44972 1.52559 0
M  V30 35512 H 3481.87 -2.85971 0.728311 0
M  V30 35513 H 3481.95 -1.61524 1.98352 0
M  V30 35514 H 3481.6 -3.41501 3.75951 0
M  V30 35515 H 3481.53 -4.6479 2.47543 0
M  V30 35516 H 3484.02 -3.12665 2.12247 0
M  V30 35517 H 3484.33 -6.0218 4.84354 0
M  V30 35518 H 3482.68 -5.41992 4.35051 0
M  V30 35519 H 3485.87 -3.82499 2.69837 0
M  V30 35520 H 3486.04 -5.14535 3.93901 0
M  V30 35521 N 3479.45 -0.775459 -1.37202 0
M  V30 35522 C 3480.86 -0.406404 -1.82223 0
M  V30 35523 C 3481.21 1.06793 -1.64589 0
M  V30 35524 O 3480.33 1.82742 -1.15906 0
M  V30 35525 C 3480.93 -0.730877 -3.30823 0
M  V30 35526 C 3479.49 -0.414831 -3.74107 0
M  V30 35527 C 3478.64 -0.972793 -2.59677 0
M  V30 35528 H 3481.59 -0.969797 -1.25621 0
M  V30 35529 H 3481.61 -0.0168735 -3.80496 0
M  V30 35530 H 3481.12 -1.80398 -3.43625 0
M  V30 35531 H 3479.22 0.650801 -3.66872 0
M  V30 35532 H 3479.33 -0.925678 -4.70072 0
M  V30 35533 H 3477.7 -0.396816 -2.5159 0
M  V30 35534 H 3478.48 -2.05137 -2.7527 0
M  V30 35535 N 3480.93 1.48552 -0.526305 0
M  V30 35536 C 3481.87 2.31232 0.251897 0
M  V30 35537 C 3482.87 1.40996 0.938966 0
M  V30 35538 O 3484.07 1.57921 0.86377 0
M  V30 35539 H 3480.45 0.745308 0.100101 0
M  V30 35540 H 3482.42 2.94754 -0.465065 0
M  V30 35541 C 3481.17 3.2296 1.28811 0
M  V30 35542 H 3480.49 3.92338 0.76883 0
M  V30 35543 H 3481.93 3.83703 1.8041 0
M  V30 35544 C 3480.39 2.44311 2.31978 0
M  V30 35545 O 3480.92 2.16529 3.38346 0
M  V30 35546 N 3479.13 2.05873 2.05097 0
M  V30 35547 H 3478.67 2.28667 1.18614 0
M  V30 35548 H 3478.63 1.53562 2.74347 0
M  V30 35549 N 3482.4 0.261267 1.55419 0
M  V30 35550 C 3483.65 -0.359452 1.99284 0
M  V30 35551 C 3483.98 -1.56892 1.14957 0
M  V30 35552 O 3483.23 -1.94636 0.20383 0
M  V30 35553 C 3483.53 -0.798959 3.48355 0
M  V30 35554 C 3483.2 0.304339 4.49872 0
M  V30 35555 C 3481.86 0.607321 4.77352 0
M  V30 35556 C 3484.21 1.04847 5.10545 0
M  V30 35557 C 3481.54 1.65826 5.62778 0
M  V30 35558 C 3483.89 2.08903 5.97111 0
M  V30 35559 C 3482.56 2.39851 6.22919 0
M  V30 35560 H 3481.83 -0.131533 0.729233 0
M  V30 35561 H 3484.47 0.372091 1.8785 0
M  V30 35562 H 3482.78 -1.60995 3.57194 0
M  V30 35563 H 3484.48 -1.28975 3.79693 0
M  V30 35564 H 3481.07 0.0580616 4.28561 0
M  V30 35565 H 3485.25 0.827652 4.8935 0
M  V30 35566 H 3480.51 1.90321 5.81023 0
M  V30 35567 H 3484.68 2.67046 6.43163 0
M  V30 35568 H 3482.31 3.21422 6.88906 0
M  V30 35569 N 3483.88 -1.57596 -0.0116567 0
M  V30 35570 C 3485.11 -1.94328 -0.710226 0
M  V30 35571 C 3485.52 -0.862447 -1.6795 0
M  V30 35572 O 3484.88 0.159666 -1.818 0
M  V30 35573 C 3484.93 -3.31048 -1.45222 0
M  V30 35574 O 3484.65 -4.34981 -0.521834 0
M  V30 35575 C 3486.15 -3.82169 -2.24637 0
M  V30 35576 H 3483.37 -0.640952 -0.198548 0
M  V30 35577 H 3485.92 -2.04468 0.0359974 0
M  V30 35578 H 3484.07 -3.22252 -2.15018 0
M  V30 35579 H 3484.49 -5.14004 -1.04406 0
M  V30 35580 H 3485.96 -4.80294 -2.7207 0
M  V30 35581 H 3486.44 -3.14266 -3.06812 0
M  V30 35582 H 3487.04 -3.94104 -1.59882 0
M  V30 35583 N 3485.36 0.284228 -1.55016 0
M  V30 35584 C 3486.6 1.02508 -1.76837 0
M  V30 35585 C 3486.96 1.83903 -0.551707 0
M  V30 35586 O 3488.16 2.60873 -0.647965 0
M  V30 35587 C 3486.44 1.89343 -3.03124 0
M  V30 35588 S 3487.99 2.69846 -3.46018 0
M  V30 35589 H 3484.81 0.345442 -0.621442 0
M  V30 35590 H 3487.41 0.296674 -1.93236 0
M  V30 35591 H 3486.12 1.28451 -3.8978 0
M  V30 35592 H 3485.65 2.66523 -2.8936 0
M  V30 35593 H 3487.66 3.91855 -3.04407 0
M  V30 35594 N 3486.84 1.47758 0.548222 0
M  V30 35595 C 3487.8 1.60459 1.63663 0
M  V30 35596 C 3488.8 0.479055 1.53498 0
M  V30 35597 O 3489.99 0.74437 1.57495 0
M  V30 35598 C 3487.12 1.55759 3.03236 0
M  V30 35599 H 3488.32 2.57491 1.53748 0
M  V30 35600 H 3485.87 1.36082 0.768858 0
M  V30 35601 H 3486.6 0.601359 3.18676 0
M  V30 35602 H 3486.39 2.37454 3.12023 0
M  V30 35603 H 3487.88 1.67803 3.82403 0
M  V30 35604 N 3488.32 -0.79567 1.3604 0
M  V30 35605 C 3489.56 -1.56653 1.31298 0
M  V30 35606 C 3489.92 -1.91694 -0.10829 0
M  V30 35607 O 3491.12 -2.67336 -0.280201 0
M  V30 35608 C 3489.39 -2.81339 2.20416 0
M  V30 35609 S 3490.95 -3.71643 2.33296 0
M  V30 35610 H 3487.77 -0.536606 0.466449 0
M  V30 35611 H 3490.37 -0.937667 1.71546 0
M  V30 35612 H 3489.07 -2.53637 3.2264 0
M  V30 35613 H 3488.61 -3.49203 1.81164 0
M  V30 35614 H 3490.62 -4.72158 1.52584 0
M  V30 35615 N 3489.79 -1.20217 -1.0191 0
M  V30 35616 C 3491.21 -0.956481 -1.27764 0
M  V30 35617 C 3491.41 0.365452 -1.98158 0
M  V30 35618 O 3490.47 1.09459 -2.27541 0
M  V30 35619 C 3491.78 -2.13736 -2.11513 0
M  V30 35620 C 3493.33 -2.17806 -2.24788 0
M  V30 35621 C 3493.8 -3.35372 -3.11913 0
M  V30 35622 N 3495.29 -3.3537 -3.19501 0
M  V30 35623 C 3496.03 -4.22985 -3.87132 0
M  V30 35624 N 3495.52 -5.20773 -4.56911 0
M  V30 35625 N 3497.32 -4.10833 -3.83631 0
M  V30 35626 H 3489.47 -2.05252 -0.54639 0
M  V30 35627 H 3491.73 -0.898018 -0.303757 0
M  V30 35628 H 3491.44 -3.09456 -1.67122 0
M  V30 35629 H 3491.31 -2.11619 -3.12245 0
M  V30 35630 H 3493.7 -1.2265 -2.68405 0
M  V30 35631 H 3493.78 -2.23972 -1.23572 0
M  V30 35632 H 3493.42 -4.30814 -2.69002 0
M  V30 35633 H 3493.35 -3.26443 -4.1321 0
M  V30 35634 H 3495.84 -2.64591 -2.69814 0
M  V30 35635 H 3496.16 -5.83956 -5.06177 0
M  V30 35636 H 3494.5 -5.24712 -4.55744 0
M  V30 35637 H 3497.69 -3.33709 -3.28262 0
M  V30 35638 H 3497.87 -4.79326 -4.36063 0
M  V30 35639 N 3491.27 1.21178 -1.00765 0
M  V30 35640 C 3492.22 2.23643 -0.570296 0
M  V30 35641 C 3493.19 1.61087 0.40501 0
M  V30 35642 O 3494.37 1.88323 0.306462 0
M  V30 35643 C 3491.51 3.44971 0.0942644 0
M  V30 35644 C 3490.63 4.21991 -0.924537 0
M  V30 35645 C 3489.76 5.30693 -0.231962 0
M  V30 35646 C 3488.8 5.99447 -1.23813 0
M  V30 35647 N 3487.94 6.99759 -0.572848 0
M  V30 35648 H 3492.78 2.60414 -1.44873 0
M  V30 35649 H 3490.32 1.27971 -0.725391 0
M  V30 35650 H 3492.27 4.14234 0.496616 0
M  V30 35651 H 3490.9 3.0892 0.936403 0
M  V30 35652 H 3489.96 3.51881 -1.44512 0
M  V30 35653 H 3491.27 4.69293 -1.69012 0
M  V30 35654 H 3490.42 6.06278 0.226359 0
M  V30 35655 H 3489.16 4.84404 0.566007 0
M  V30 35656 H 3488.17 5.22632 -1.70693 0
M  V30 35657 H 3489.39 6.47822 -2.03723 0
M  V30 35658 H 3487.34 6.55678 0.205416 0
M  V30 35659 H 3487.25 7.45143 -1.27665 0
M  V30 35660 H 3488.52 7.79378 -0.13782 0
M  V30 35661 N 3492.75 0.782725 1.36789 0
M  V30 35662 C 3493.66 0.177511 2.33927 0
M  V30 35663 C 3494.68 -0.666774 1.60718 0
M  V30 35664 O 3495.85 -0.584128 1.92743 0
M  V30 35665 C 3492.92 -0.682881 3.39908 0
M  V30 35666 C 3491.98 0.179129 4.28926 0
M  V30 35667 C 3491.21 -0.640293 5.29845 0
M  V30 35668 O 3491.43 -1.87671 5.38642 0
M  V30 35669 O 3490.37 -0.0437106 6.01884 0
M  V30 35670 H 3494.19 0.980492 2.87437 0
M  V30 35671 H 3491.78 0.544065 1.39141 0
M  V30 35672 H 3493.66 -1.17372 4.04724 0
M  V30 35673 H 3492.34 -1.46386 2.88709 0
M  V30 35674 H 3491.24 0.716576 3.67173 0
M  V30 35675 H 3492.58 0.923462 4.83459 0
M  V30 35676 N 3494.23 -1.48271 0.534176 0
M  V30 35677 C 3495.14 -2.3347 -0.230021 0
M  V30 35678 C 3496.15 -1.46753 -0.934863 0
M  V30 35679 O 3497.33 -1.79725 -0.90889 0
M  V30 35680 C 3494.4 -3.22961 -1.26085 0
M  V30 35681 C 3493.46 -4.25554 -0.565908 0
M  V30 35682 C 3492.69 -5.10768 -1.54762 0
M  V30 35683 O 3492.91 -4.98034 -2.78061 0
M  V30 35684 O 3491.85 -5.92045 -1.08472 0
M  V30 35685 H 3495.67 -3.00069 0.468235 0
M  V30 35686 H 3493.26 -1.46458 0.295046 0
M  V30 35687 H 3495.14 -3.78304 -1.85646 0
M  V30 35688 H 3493.81 -2.59017 -1.94144 0
M  V30 35689 H 3492.72 -3.74034 0.0703048 0
M  V30 35690 H 3494.05 -4.92146 0.0728142 0
M  V30 35691 N 3495.71 -0.269505 -1.55279 0
M  V30 35692 C 3496.95 0.350138 -2.01379 0
M  V30 35693 C 3497.31 1.53468 -1.15376 0
M  V30 35694 O 3498.51 2.22358 -1.51031 0
M  V30 35695 C 3496.78 0.728072 -3.49906 0
M  V30 35696 S 3498.34 1.33504 -4.17998 0
M  V30 35697 H 3495.16 0.109167 -0.702569 0
M  V30 35698 H 3497.76 -0.390028 -1.9157 0
M  V30 35699 H 3496.47 -0.142997 -4.10151 0
M  V30 35700 H 3496 1.49984 -3.63687 0
M  V30 35701 H 3498.01 2.62375 -4.21158 0
M  V30 35702 N 3497.18 1.576 0.00329885 0
M  V30 35703 C 3498.13 2.08214 0.995774 0
M  V30 35704 C 3499.1 0.976828 1.3434 0
M  V30 35705 O 3500.29 1.24905 1.44234 0
M  V30 35706 C 3497.43 2.58743 2.28355 0
M  V30 35707 C 3496.54 3.83163 1.99524 0
M  V30 35708 C 3495.67 4.22206 3.22359 0
M  V30 35709 C 3494.71 5.39472 2.892 0
M  V30 35710 N 3493.85 5.73824 4.04562 0
M  V30 35711 H 3498.69 2.92744 0.557218 0
M  V30 35712 H 3496.23 1.44721 0.263487 0
M  V30 35713 H 3498.19 2.86116 3.03634 0
M  V30 35714 H 3496.82 1.77092 2.69886 0
M  V30 35715 H 3495.87 3.62718 1.14628 0
M  V30 35716 H 3497.18 4.68543 1.71081 0
M  V30 35717 H 3496.33 4.50844 4.05986 0
M  V30 35718 H 3495.07 3.35528 3.53938 0
M  V30 35719 H 3494.08 5.10561 2.0398 0
M  V30 35720 H 3495.3 6.27823 2.58872 0
M  V30 35721 H 3493.25 4.90104 4.36044 0
M  V30 35722 H 3493.17 6.5377 3.79632 0
M  V30 35723 H 3494.43 6.07051 4.88988 0
M  V30 35724 N 3498.66 -0.276003 1.55164 0
M  V30 35725 C 3500.08 -0.623036 1.46937 0
M  V30 35726 C 3500.28 -1.89643 0.68101 0
M  V30 35727 O 3499.33 -2.51717 0.198662 0
M  V30 35728 C 3500.65 -0.752788 2.91125 0
M  V30 35729 C 3502.2 -0.84704 3.01321 0
M  V30 35730 C 3502.67 -1.00859 4.46757 0
M  V30 35731 N 3504.16 -1.07419 4.50572 0
M  V30 35732 C 3504.9 -1.21794 5.60316 0
M  V30 35733 N 3504.39 -1.32907 6.79932 0
M  V30 35734 N 3506.19 -1.2488 5.48052 0
M  V30 35735 H 3498.34 0.560318 2.04876 0
M  V30 35736 H 3500.6 0.189233 0.928921 0
M  V30 35737 H 3500.31 0.112395 3.5152 0
M  V30 35738 H 3500.18 -1.63402 3.3997 0
M  V30 35739 H 3502.57 -1.70269 2.41024 0
M  V30 35740 H 3502.65 0.0587346 2.55733 0
M  V30 35741 H 3502.29 -0.157611 5.07655 0
M  V30 35742 H 3502.22 -1.92897 4.89998 0
M  V30 35743 H 3504.71 -1.00083 3.64406 0
M  V30 35744 H 3505.03 -1.43701 7.59322 0
M  V30 35745 H 3503.37 -1.29917 6.82749 0
M  V30 35746 H 3506.56 -1.15827 4.53544 0
M  V30 35747 H 3506.73 -1.35739 6.33624 0
M  V30 35748 N 3500.14 -1.48046 -0.540378 0
M  V30 35749 C 3501.39 -1.55764 -1.29867 0
M  V30 35750 C 3501.72 -0.226341 -1.92876 0
M  V30 35751 O 3500.99 0.766696 -1.78751 0
M  V30 35752 C 3501.28 -2.68822 -2.39597 0
M  V30 35753 C 3501.13 -4.11623 -1.81347 0
M  V30 35754 C 3502.45 -2.77694 -3.41429 0
M  V30 35755 H 3499.57 -0.567008 -0.47082 0
M  V30 35756 H 3502.21 -1.80176 -0.603049 0
M  V30 35757 H 3500.36 -2.48137 -2.98932 0
M  V30 35758 H 3502.03 -4.43718 -1.26144 0
M  V30 35759 H 3500.28 -4.1911 -1.11933 0
M  V30 35760 H 3500.95 -4.86532 -2.6075 0
M  V30 35761 H 3503.42 -2.96401 -2.92037 0
M  V30 35762 H 3502.3 -3.58547 -4.15614 0
M  V30 35763 H 3502.56 -1.85429 -4.01333 0
M  V30 35764 N 3501.62 0.788444 -1.3646 0
M  V30 35765 C 3502.84 1.58244 -1.34066 0
M  V30 35766 C 3503.27 1.87949 0.0754603 0
M  V30 35767 O 3502.63 1.47963 1.0477 0
M  V30 35768 C 3502.67 2.87966 -2.17043 0
M  V30 35769 O 3501.78 3.81609 -1.56359 0
M  V30 35770 H 3501.12 0.479975 -0.458824 0
M  V30 35771 H 3503.65 0.977175 -1.79757 0
M  V30 35772 H 3503.66 3.37226 -2.29657 0
M  V30 35773 H 3502.33 2.65673 -3.19986 0
M  V30 35774 H 3500.91 3.40206 -1.52691 0
M  V30 35775 N 3503.1 1.20755 1.01271 0
M  V30 35776 C 3504.51 1.01992 1.56379 0
M  V30 35777 C 3504.86 -0.422558 1.91596 0
M  V30 35778 O 3503.98 -1.30457 1.72655 0
M  V30 35779 C 3504.58 1.84515 2.84147 0
M  V30 35780 C 3503.14 1.70107 3.35769 0
M  V30 35781 C 3502.28 1.82206 2.09036 0
M  V30 35782 H 3505.24 1.3489 0.836081 0
M  V30 35783 H 3505.26 1.35083 3.55715 0
M  V30 35784 H 3504.77 2.89495 2.58485 0
M  V30 35785 H 3502.87 0.677796 3.66383 0
M  V30 35786 H 3502.98 2.51614 4.07709 0
M  V30 35787 H 3501.35 1.25433 2.21673 0
M  V30 35788 H 3502.13 2.88678 1.85795 0
M  V30 35789 N 3504.58 -1.20642 1.01406 0
M  V30 35790 C 3505.99 -1.71671 0.733891 0
M  V30 35791 C 3506.34 -1.81391 -0.747772 0
M  V30 35792 O 3505.46 -1.47472 -1.5837 0
M  V30 35793 C 3506.06 -3.11793 1.32554 0
M  V30 35794 C 3504.62 -3.60142 1.09429 0
M  V30 35795 C 3503.76 -2.37416 1.43279 0
M  V30 35796 H 3506.71 -1.05692 1.18385 0
M  V30 35797 H 3506.74 -3.73725 0.714814 0
M  V30 35798 H 3506.25 -3.04686 2.40391 0
M  V30 35799 H 3504.35 -3.72585 0.0334768 0
M  V30 35800 H 3504.46 -4.45103 1.77256 0
M  V30 35801 H 3502.83 -2.40036 0.851756 0
M  V30 35802 H 3503.61 -2.32952 2.52167 0
M  V30 35803 N 3506.05 -0.789968 -1.36372 0
M  V30 35804 C 3507.28 -0.373431 -2.0401 0
M  V30 35805 C 3507.7 1.00228 -1.59173 0
M  V30 35806 O 3507.06 1.6458 -0.76046 0
M  V30 35807 C 3507.11 -0.446146 -3.57829 0
M  V30 35808 O 3506.21 0.546708 -4.0876 0
M  V30 35809 H 3505.55 -0.158506 -0.644804 0
M  V30 35810 H 3508.08 -1.07123 -1.74315 0
M  V30 35811 H 3508.09 -0.309949 -4.06821 0
M  V30 35812 H 3506.77 -1.44969 -3.89816 0
M  V30 35813 H 3505.35 0.372126 -3.71039 0
M  V30 35814 N 3507.53 1.47986 -0.542031 0
M  V30 35815 C 3508.77 2.04395 -0.014507 0
M  V30 35816 C 3509.14 1.40889 1.30439 0
M  V30 35817 O 3510.34 1.88255 1.91868 0
M  V30 35818 C 3508.61 3.5728 0.0925654 0
M  V30 35819 S 3510.17 4.35103 0.568411 0
M  V30 35820 H 3506.98 0.710776 -0.0178424 0
M  V30 35821 H 3509.59 1.81547 -0.725326 0
M  V30 35822 H 3508.29 4.0103 -0.871959 0
M  V30 35823 H 3507.82 3.84601 0.8274 0
M  V30 35824 H 3509.84 4.61188 1.83084 0
M  V30 35825 N 3509.01 0.277736 1.55133 0
M  V30 35826 C 3510.42 -0.21951 1.85405 0
M  V30 35827 C 3510.77 -1.55243 1.19976 0
M  V30 35828 O 3509.9 -2.10802 0.489023 0
M  V30 35829 C 3510.49 -0.405068 3.3637 0
M  V30 35830 C 3509.05 -0.846545 3.66757 0
M  V30 35831 C 3508.2 0.058655 2.77238 0
M  V30 35832 H 3511.15 0.499449 1.50636 0
M  V30 35833 H 3511.17 -1.24322 3.59617 0
M  V30 35834 H 3510.68 0.565205 3.83962 0
M  V30 35835 H 3508.78 -1.8282 3.24666 0
M  V30 35836 H 3508.9 -0.682051 4.7422 0
M  V30 35837 H 3507.26 -0.458109 2.50546 0
M  V30 35838 H 3508.04 1.02486 3.27645 0
M  V30 35839 N 3510.49 -1.57599 0.00505908 0
M  V30 35840 C 3511.9 -1.78808 -0.537074 0
M  V30 35841 C 3512.25 -0.912976 -1.73664 0
M  V30 35842 O 3511.37 -0.116813 -2.16084 0
M  V30 35843 C 3511.97 -3.24284 -0.981103 0
M  V30 35844 C 3510.53 -3.46571 -1.46851 0
M  V30 35845 C 3509.68 -2.7407 -0.42204 0
M  V30 35846 H 3512.63 -1.57007 0.23121 0
M  V30 35847 H 3512.65 -3.32674 -1.84684 0
M  V30 35848 H 3512.16 -3.8795 -0.107839 0
M  V30 35849 H 3510.26 -2.88126 -2.3625 0
M  V30 35850 H 3510.37 -4.5526 -1.49248 0
M  V30 35851 H 3508.74 -2.38837 -0.884811 0
M  V30 35852 H 3509.52 -3.40438 0.442345 0
M  V30 35853 N 3511.97 0.267771 -1.55309 0
M  V30 35854 C 3512.92 1.33353 -1.84935 0
M  V30 35855 C 3513.9 1.44455 -0.70863 0
M  V30 35856 O 3515.09 1.48048 -0.970095 0
M  V30 35857 C 3512.22 2.69286 -2.12932 0
M  V30 35858 C 3511.31 2.62273 -3.33277 0
M  V30 35859 N 3511.7 2.24881 -4.53059 0
M  V30 35860 C 3510 2.93325 -3.35971 0
M  V30 35861 C 3510.7 2.27988 -5.3516 0
M  V30 35862 N 3509.67 2.66669 -4.73697 0
M  V30 35863 H 3513.47 1.0346 -2.75088 0
M  V30 35864 H 3510.99 0.476407 -1.55255 0
M  V30 35865 H 3512.99 3.46172 -2.32315 0
M  V30 35866 H 3511.65 3.00063 -1.24066 0
M  V30 35867 H 3512.66 1.96772 -4.79063 0
M  V30 35868 H 3509.33 3.28779 -2.57314 0
M  V30 35869 H 3510.72 2.01596 -6.40943 0
M  V30 35870 N 3513.44 1.48331 0.532519 0
M  V30 35871 C 3514.86 1.34395 0.860819 0
M  V30 35872 C 3515.06 0.353048 1.98383 0
M  V30 35873 O 3514.12 -0.226644 2.51481 0
M  V30 35874 C 3515.43 2.7436 1.23074 0
M  V30 35875 C 3516.98 2.82829 1.34077 0
M  V30 35876 C 3517.45 4.2349 1.74413 0
M  V30 35877 N 3518.94 4.26151 1.8152 0
M  V30 35878 C 3519.68 5.31925 2.14111 0
M  V30 35879 N 3519.17 6.47979 2.45143 0
M  V30 35880 N 3520.97 5.19317 2.15095 0
M  V30 35881 H 3513.12 2.11374 -0.208501 0
M  V30 35882 H 3515.38 0.947505 -0.0306366 0
M  V30 35883 H 3515.09 3.4842 0.479199 0
M  V30 35884 H 3514.96 3.07721 2.18145 0
M  V30 35885 H 3517.35 2.09026 2.08308 0
M  V30 35886 H 3517.43 2.53091 0.371326 0
M  V30 35887 H 3517.07 4.97808 1.00743 0
M  V30 35888 H 3517 4.50671 2.72403 0
M  V30 35889 H 3519.49 3.42439 1.59826 0
M  V30 35890 H 3519.81 7.24431 2.69109 0
M  V30 35891 H 3518.15 6.51258 2.42668 0
M  V30 35892 H 3521.34 4.27669 1.90307 0
M  V30 35893 H 3521.52 6.01852 2.40162 0
M  V30 35894 N 3514.92 -0.781196 1.36876 0
M  V30 35895 C 3515.85 -1.90828 1.34563 0
M  V30 35896 C 3516.83 -1.68726 0.215743 0
M  V30 35897 O 3518.02 -1.89722 0.414653 0
M  V30 35898 C 3515.15 -3.27974 1.14239 0
M  V30 35899 C 3514.1 -3.64617 2.24139 0
M  V30 35900 C 3513.43 -5.00202 1.88949 0
M  V30 35901 C 3514.73 -3.72346 3.66273 0
M  V30 35902 H 3516.42 -1.93021 2.28874 0
M  V30 35903 H 3513.97 -0.927256 1.10172 0
M  V30 35904 H 3515.92 -4.06449 1.11253 0
M  V30 35905 H 3514.64 -3.26189 0.163804 0
M  V30 35906 H 3513.3 -2.88444 2.26264 0
M  V30 35907 H 3512.95 -4.94947 0.896438 0
M  V30 35908 H 3512.65 -5.25689 2.62534 0
M  V30 35909 H 3514.18 -5.81088 1.87533 0
M  V30 35910 H 3515.59 -4.40994 3.66329 0
M  V30 35911 H 3513.99 -4.09324 4.38832 0
M  V30 35912 H 3515.06 -2.73243 4.00582 0
M  V30 35913 N 3516.4 -1.21291 -1.0063 0
M  V30 35914 C 3517.81 -1.0282 -1.55836 0
M  V30 35915 C 3518.16 0.412391 -1.91817 0
M  V30 35916 O 3517.29 1.2954 -1.73345 0
M  V30 35917 C 3517.88 -1.86019 -2.83165 0
M  V30 35918 C 3516.44 -1.71885 -3.34862 0
M  V30 35919 C 3515.59 -1.83312 -2.08067 0
M  V30 35920 H 3518.54 -1.35332 -0.828915 0
M  V30 35921 H 3518.56 -1.36967 -3.54993 0
M  V30 35922 H 3518.07 -2.90862 -2.56946 0
M  V30 35923 H 3516.17 -0.697217 -3.66019 0
M  V30 35924 H 3516.29 -2.53773 -4.06369 0
M  V30 35925 H 3514.65 -1.26607 -2.21004 0
M  V30 35926 H 3515.43 -2.89659 -1.84262 0
M  V30 35927 N 3517.88 1.20103 -1.02045 0
M  V30 35928 C 3519.11 1.93543 -0.731349 0
M  V30 35929 C 3519.52 1.75 0.708552 0
M  V30 35930 O 3518.88 1.06645 1.48098 0
M  V30 35931 C 3518.93 3.45537 -1.06239 0
M  V30 35932 O 3518.65 3.63476 -2.44574 0
M  V30 35933 C 3520.15 4.36115 -0.794894 0
M  V30 35934 H 3517.37 0.615043 -0.268259 0
M  V30 35935 H 3519.91 1.52485 -1.36266 0
M  V30 35936 H 3518.07 3.84459 -0.476409 0
M  V30 35937 H 3518.48 4.57424 -2.56638 0
M  V30 35938 H 3519.96 5.414 -1.07657 0
M  V30 35939 H 3520.43 4.38364 0.270867 0
M  V30 35940 H 3521.04 4.02861 -1.36321 0
M  V30 35941 N 3519.36 0.797189 1.35951 0
M  V30 35942 C 3520.29 0.215318 2.32505 0
M  V30 35943 C 3521.27 -0.654018 1.57024 0
M  V30 35944 O 3522.45 -0.586235 1.8514 0
M  V30 35945 C 3519.58 -0.644497 3.41268 0
M  V30 35946 C 3518.54 0.125576 4.27816 0
M  V30 35947 C 3517.86 -0.855335 5.27814 0
M  V30 35948 C 3519.16 1.31922 5.05365 0
M  V30 35949 H 3520.86 1.02198 2.81418 0
M  V30 35950 H 3518.4 0.492886 1.35302 0
M  V30 35951 H 3520.36 -1.06156 4.0781 0
M  V30 35952 H 3519.08 -1.48395 2.90941 0
M  V30 35953 H 3517.74 0.523703 3.6284 0
M  V30 35954 H 3517.39 -1.69003 4.73758 0
M  V30 35955 H 3517.09 -0.344463 5.86589 0
M  V30 35956 H 3518.61 -1.2708 5.97229 0
M  V30 35957 H 3520.02 0.977518 5.64905 0
M  V30 35958 H 3518.42 1.76392 5.7359 0
M  V30 35959 H 3519.49 2.11065 4.36554 0
M  V30 35960 N 3520.83 -1.47696 0.549872 0
M  V30 35961 C 3522.25 -1.58224 0.209113 0
M  V30 35962 C 3522.45 -1.54943 -1.28821 0
M  V30 35963 O 3521.51 -1.44897 -2.06788 0
M  V30 35964 C 3522.82 -2.89039 0.829269 0
M  V30 35965 C 3524.37 -3.02608 0.799824 0
M  V30 35966 C 3524.84 -4.36113 1.39892 0
M  V30 35967 N 3526.33 -4.4273 1.36177 0
M  V30 35968 C 3527.07 -5.44579 1.79502 0
M  V30 35969 N 3526.56 -6.53279 2.30648 0
M  V30 35970 N 3528.36 -5.3558 1.70617 0
M  V30 35971 H 3520.51 -1.48072 1.52278 0
M  V30 35972 H 3522.77 -0.704271 0.634591 0
M  V30 35973 H 3522.48 -2.97155 1.88128 0
M  V30 35974 H 3522.35 -3.75857 0.317982 0
M  V30 35975 H 3524.74 -2.94094 -0.243473 0
M  V30 35976 H 3524.82 -2.17351 1.34879 0
M  V30 35977 H 3524.46 -4.45383 2.44124 0
M  V30 35978 H 3524.39 -5.2009 0.825454 0
M  V30 35979 H 3526.88 -3.64768 0.987569 0
M  V30 35980 H 3527.2 -7.27158 2.6165 0
M  V30 35981 H 3525.54 -6.54188 2.34655 0
M  V30 35982 H 3528.73 -4.49558 1.30442 0
M  V30 35983 H 3528.91 -6.14818 2.04701 0
M  V30 35984 N 3522.31 -0.285959 -1.54984 0
M  V30 35985 C 3523.26 0.596783 -2.22951 0
M  V30 35986 C 3524.23 1.14134 -1.20676 0
M  V30 35987 O 3525.41 1.18864 -1.49251 0
M  V30 35988 C 3522.55 1.76997 -2.96253 0
M  V30 35989 C 3521.67 1.25824 -4.1327 0
M  V30 35990 C 3520.8 2.39409 -4.74191 0
M  V30 35991 C 3519.84 1.85294 -5.8338 0
M  V30 35992 N 3518.98 2.92393 -6.38319 0
M  V30 35993 H 3523.82 0.010558 -2.97998 0
M  V30 35994 H 3521.36 -0.00655626 -1.47099 0
M  V30 35995 H 3523.31 2.45974 -3.36976 0
M  V30 35996 H 3521.94 2.32806 -2.2361 0
M  V30 35997 H 3521 0.461212 -3.77594 0
M  V30 35998 H 3522.31 0.821962 -4.91981 0
M  V30 35999 H 3521.46 3.1636 -5.17688 0
M  V30 36000 H 3520.2 2.86357 -3.9478 0
M  V30 36001 H 3519.21 1.06826 -5.39322 0
M  V30 36002 H 3520.43 1.39268 -6.64666 0
M  V30 36003 H 3518.38 3.38703 -5.61797 0
M  V30 36004 H 3518.29 2.53216 -7.12333 0
M  V30 36005 H 3519.56 3.69287 -6.86474 0
M  V30 36006 N 3523.79 1.57594 -0.0134169 0
M  V30 36007 C 3525.02 1.95433 0.67922 0
M  V30 36008 C 3525.43 0.889058 1.66557 0
M  V30 36009 O 3524.79 -0.130723 1.82031 0
M  V30 36010 C 3524.84 3.33316 1.39937 0
M  V30 36011 O 3524.56 4.35756 0.452566 0
M  V30 36012 C 3526.06 3.85694 2.18528 0
M  V30 36013 H 3523.28 0.64403 0.188326 0
M  V30 36014 H 3525.83 2.04385 -0.068522 0
M  V30 36015 H 3523.98 3.25632 2.09864 0
M  V30 36016 H 3524.4 5.156 0.962153 0
M  V30 36017 H 3525.87 4.84561 2.64394 0
M  V30 36018 H 3526.35 3.19107 3.01773 0
M  V30 36019 H 3526.95 3.96598 1.53591 0
M  V30 36020 N 3525.27 -0.259531 1.55448 0
M  V30 36021 C 3526.2 -1.3437 1.85681 0
M  V30 36022 C 3527.21 -1.44898 0.74218 0
M  V30 36023 O 3528.4 -1.46474 1.02018 0
M  V30 36024 C 3525.5 -2.72362 2.01673 0
M  V30 36025 C 3524.68 -2.84259 3.32439 0
M  V30 36026 C 3523.73 -4.03013 3.38329 0
M  V30 36027 O 3522.76 -3.93136 4.11622 0
M  V30 36028 N 3523.96 -5.15605 2.66706 0
M  V30 36029 H 3526.73 -1.08776 2.79263 0
M  V30 36030 H 3524.29 -0.449645 1.55531 0
M  V30 36031 H 3526.28 -3.50122 2.02969 0
M  V30 36032 H 3524.85 -2.9072 1.14894 0
M  V30 36033 H 3524.07 -1.93275 3.43567 0
M  V30 36034 H 3525.36 -2.89148 4.18654 0
M  V30 36035 H 3524.76 -5.26519 2.06867 0
M  V30 36036 H 3523.31 -5.91546 2.73709 0
M  V30 36037 N 3526.75 -1.48611 -0.524645 0
M  V30 36038 C 3527.99 -1.58501 -1.29061 0
M  V30 36039 C 3528.35 -0.255412 -1.90294 0
M  V30 36040 O 3529.55 -0.229336 -2.6782 0
M  V30 36041 C 3527.82 -2.69548 -2.34688 0
M  V30 36042 S 3529.38 -2.99239 -3.20939 0
M  V30 36043 H 3526.2 -0.559334 -0.438938 0
M  V30 36044 H 3528.8 -1.86159 -0.597086 0
M  V30 36045 H 3527.51 -3.64708 -1.88193 0
M  V30 36046 H 3527.04 -2.43809 -3.0874 0
M  V30 36047 H 3529.05 -2.38945 -4.34879 0
M  V30 36048 N 3528.22 0.773926 -1.37289 0
M  V30 36049 C 3529.46 1.54545 -1.33773 0
M  V30 36050 C 3529.83 1.91842 0.0777797 0
M  V30 36051 O 3531.03 2.67748 0.237635 0
M  V30 36052 C 3529.3 2.77797 -2.24864 0
M  V30 36053 S 3530.86 3.67884 -2.39179 0
M  V30 36054 H 3527.68 0.529117 -0.474927 0
M  V30 36055 H 3530.28 0.910257 -1.73016 0
M  V30 36056 H 3528.98 2.48472 -3.26634 0
M  V30 36057 H 3528.51 3.46277 -1.86697 0
M  V30 36058 H 3530.53 4.6967 -1.60076 0
M  V30 36059 N 3529.7 1.21823 0.99985 0
M  V30 36060 C 3530.98 0.947243 1.71133 0
M  V30 36061 C 3531.36 -0.539565 2.04088 0
M  V30 36062 O 3530.71 -1.50577 1.71868 0
M  V30 36063 C 3530.92 1.83765 2.96701 0
M  V30 36064 C 3532.27 2.08958 3.69623 0
M  V30 36065 O 3533.29 1.81156 3.06693 0
M  V30 36066 O 3532.15 2.56008 4.82827 0
M  V30 36067 H 3529.24 0.355642 0.746624 0
M  V30 36068 H 3531.79 1.32776 1.05682 0
M  V30 36069 H 3530.56 2.84366 2.68797 0
M  V30 36070 H 3530.18 1.45828 3.69892 0
M  V30 36071 N 3531.18 -1.1956 1.0268 0
M  V30 36072 C 3532.09 -2.26374 0.615778 0
M  V30 36073 C 3533.11 -1.70413 -0.351496 0
M  V30 36074 O 3534.28 -2.00303 -0.209897 0
M  V30 36075 C 3531.35 -3.46688 -0.0291526 0
M  V30 36076 C 3530.41 -4.17839 0.985358 0
M  V30 36077 C 3529.64 -5.32408 0.371109 0
M  V30 36078 O 3529.86 -5.6438 -0.826491 0
M  V30 36079 O 3528.8 -5.91894 1.09292 0
M  V30 36080 H 3532.62 -2.63769 1.50531 0
M  V30 36081 H 3530.21 -1.26374 0.79687 0
M  V30 36082 H 3532.09 -4.19602 -0.388856 0
M  V30 36083 H 3530.77 -3.11146 -0.892724 0
M  V30 36084 H 3529.67 -3.47053 1.39661 0
M  V30 36085 H 3531.01 -4.57345 1.81923 0
M  V30 36086 N 3532.66 -0.804387 -1.35526 0
M  V30 36087 C 3533.89 -0.395553 -2.02778 0
M  V30 36088 C 3534.3 0.997543 -1.60766 0
M  V30 36089 O 3533.64 1.65377 -0.799766 0
M  V30 36090 C 3533.7 -0.396967 -3.57302 0
M  V30 36091 C 3533.37 -1.7402 -4.22571 0
M  V30 36092 C 3534.36 -2.69813 -4.44406 0
M  V30 36093 C 3532.05 -2.0236 -4.59734 0
M  V30 36094 C 3534.04 -3.92133 -5.02505 0
M  V30 36095 C 3531.73 -3.24943 -5.17547 0
M  V30 36096 C 3532.73 -4.19647 -5.38874 0
M  V30 36097 O 3532.41 -5.40067 -5.95469 0
M  V30 36098 H 3532.15 -0.159142 -0.657001 0
M  V30 36099 H 3534.7 -1.0887 -1.74174 0
M  V30 36100 H 3532.93 0.352768 -3.85088 0
M  V30 36101 H 3534.62 -0.0107468 -4.05899 0
M  V30 36102 H 3535.39 -2.49209 -4.16077 0
M  V30 36103 H 3531.26 -1.29458 -4.4245 0
M  V30 36104 H 3534.81 -4.66064 -5.19066 0
M  V30 36105 H 3530.71 -3.45419 -5.45304 0
M  V30 36106 H 3531.47 -5.41334 -6.13922 0
M  V30 36107 N 3534.14 1.47403 -0.557697 0
M  V30 36108 C 3535.05 2.33806 0.192849 0
M  V30 36109 C 3536.06 1.48221 0.911398 0
M  V30 36110 O 3537.24 1.81148 0.880182 0
M  V30 36111 C 3534.3 3.24926 1.20931 0
M  V30 36112 C 3533.37 4.264 0.498134 0
M  V30 36113 C 3532.6 5.13166 1.46617 0
M  V30 36114 O 3532.82 5.02395 2.70102 0
M  V30 36115 O 3531.76 5.93696 0.990392 0
M  V30 36116 H 3535.58 2.99286 -0.515914 0
M  V30 36117 H 3533.17 1.4597 -0.318309 0
M  V30 36118 H 3535.05 3.81209 1.79604 0
M  V30 36119 H 3533.72 2.62073 1.89998 0
M  V30 36120 H 3532.63 3.73875 -0.129801 0
M  V30 36121 H 3533.96 4.91968 -0.151101 0
M  V30 36122 N 3535.62 0.294175 1.5483 0
M  V30 36123 C 3536.86 -0.318056 2.0191 0
M  V30 36124 C 3537.22 -1.51613 1.17803 0
M  V30 36125 O 3538.42 -2.19927 1.5455 0
M  V30 36126 C 3536.69 -0.672313 3.5102 0
M  V30 36127 S 3538.25 -1.26837 4.20069 0
M  V30 36128 H 3535.07 -0.0979757 0.704217 0
M  V30 36129 H 3537.67 0.420456 1.90925 0
M  V30 36130 H 3536.37 0.208231 4.09871 0
M  V30 36131 H 3535.91 -1.44179 3.66027 0
M  V30 36132 H 3537.92 -2.55642 4.25278 0
M  V30 36133 N 3537.09 -1.57585 0.0217743 0
M  V30 36134 C 3538.06 -2.08698 -0.94751 0
M  V30 36135 C 3539.06 -1.00058 -1.25877 0
M  V30 36136 O 3540.25 -1.26244 -1.20033 0
M  V30 36137 C 3537.38 -2.54669 -2.26619 0
M  V30 36138 H 3538.57 -2.95618 -0.504964 0
M  V30 36139 H 3536.12 -1.54656 -0.226125 0
M  V30 36140 H 3536.86 -1.71057 -2.75518 0
M  V30 36141 H 3536.64 -3.34032 -2.05341 0
M  V30 36142 H 3538.13 -2.94464 -2.96109 0
M  V30 36143 N 3538.57 0.251283 -1.55584 0
M  V30 36144 C 3539.81 0.98734 -1.78972 0
M  V30 36145 C 3540.18 1.82691 -0.590591 0
M  V30 36146 O 3541.38 2.5944 -0.703154 0
M  V30 36147 C 3539.65 1.82871 -3.07072 0
M  V30 36148 S 3541.21 2.62446 -3.51664 0
M  V30 36149 H 3538.02 0.332183 -0.62863 0
M  V30 36150 H 3540.63 0.255619 -1.93822 0
M  V30 36151 H 3539.33 1.20155 -3.92417 0
M  V30 36152 H 3538.86 2.60326 -2.94948 0
M  V30 36153 H 3540.88 3.8531 -3.12651 0
M  V30 36154 N 3540.05 1.48887 0.516757 0
M  V30 36155 C 3541 1.64855 1.6409 0
M  V30 36156 C 3541.99 0.514713 1.61391 0
M  V30 36157 O 3543.2 0.69386 1.66089 0
M  V30 36158 H 3539.57 0.519553 0.543663 0
M  V30 36159 H 3541.54 2.59243 1.47769 0
M  V30 36160 C 3540.29 1.71776 3.02305 0
M  V30 36161 H 3539.62 2.58391 3.05081 0
M  V30 36162 H 3541.06 1.86989 3.80541 0
M  V30 36163 C 3539.51 0.459195 3.33756 0
M  V30 36164 O 3540.04 -0.422107 3.99476 0
M  V30 36165 N 3538.25 0.326887 2.88756 0
M  V30 36166 H 3537.8 1.04504 2.3545 0
M  V30 36167 H 3537.76 -0.514159 3.10167 0
M  V30 36168 N 3541.53 -0.766635 1.37697 0
M  V30 36169 C 3542.77 -1.53833 1.34591 0
M  V30 36170 C 3543.13 -1.91881 -0.0676047 0
M  V30 36171 O 3544.33 -2.6787 -0.223432 0
M  V30 36172 C 3542.6 -2.766 2.26334 0
M  V30 36173 S 3544.16 -3.66611 2.41127 0
M  V30 36174 H 3540.98 -0.526591 0.477727 0
M  V30 36175 H 3543.58 -0.901069 1.73496 0
M  V30 36176 H 3542.29 -2.46737 3.27947 0
M  V30 36177 H 3541.82 -3.45282 1.88531 0
M  V30 36178 H 3543.83 -4.68815 1.62564 0
M  V30 36179 N 3543.01 -1.22351 -0.993375 0
M  V30 36180 C 3544.25 -1.04934 -1.73542 0
M  V30 36181 C 3544.58 0.414628 -1.89722 0
M  V30 36182 O 3543.86 1.30741 -1.44004 0
M  V30 36183 C 3544.14 -1.76056 -3.14128 0
M  V30 36184 C 3544 -3.30045 -3.05599 0
M  V30 36185 C 3545.31 -1.51256 -4.13291 0
M  V30 36186 H 3542.43 -0.382602 -0.629908 0
M  V30 36187 H 3545.08 -1.50684 -1.15734 0
M  V30 36188 H 3543.23 -1.37163 -3.63481 0
M  V30 36189 H 3544.9 -3.78379 -2.6387 0
M  V30 36190 H 3543.14 -3.59747 -2.42415 0
M  V30 36191 H 3543.81 -3.74986 -4.0508 0
M  V30 36192 H 3546.29 -1.85039 -3.72692 0
M  V30 36193 H 3545.16 -2.03516 -5.09777 0
M  V30 36194 H 3545.42 -0.445051 -4.39854 0
M  V30 36195 N 3544.48 1.19014 -1.03313 0
M  V30 36196 C 3545.43 2.24426 -0.611209 0
M  V30 36197 C 3546.43 1.65568 0.358274 0
M  V30 36198 O 3547.63 1.78571 0.226389 0
M  V30 36199 H 3544.01 0.730286 -0.179406 0
M  V30 36200 H 3545.98 2.57327 -1.51081 0
M  V30 36201 C 3544.73 3.47695 0.0177515 0
M  V30 36202 H 3544.05 3.93277 -0.719279 0
M  V30 36203 H 3545.49 4.23102 0.275852 0
M  V30 36204 C 3543.95 3.12225 1.26559 0
M  V30 36205 O 3544.48 3.25268 2.35719 0
M  V30 36206 N 3542.68 2.66619 1.15597 0
M  V30 36207 H 3542.23 2.56205 0.267691 0
M  V30 36208 H 3542.19 2.43257 1.99181 0
M  V30 36209 N 3545.96 0.811563 1.35098 0
M  V30 36210 C 3547.19 0.405841 2.0339 0
M  V30 36211 C 3547.61 -0.976831 1.60747 0
M  V30 36212 O 3546.97 -1.6335 0.786547 0
M  V30 36213 C 3547.02 0.503017 3.57074 0
M  V30 36214 O 3546.12 -0.481609 4.09578 0
M  V30 36215 H 3545.46 0.168744 0.6422 0
M  V30 36216 H 3547.99 1.09883 1.72589 0
M  V30 36217 H 3548 0.374631 4.06276 0
M  V30 36218 H 3546.68 1.51152 3.87461 0
M  V30 36219 H 3545.25 -0.31305 3.71584 0
M  V30 36220 N 3547.44 -1.47105 0.565506 0
M  V30 36221 C 3548.67 -2.0684 0.0496662 0
M  V30 36222 C 3549.08 -1.41693 -1.24774 0
M  V30 36223 O 3548.44 -0.51627 -1.75045 0
M  V30 36224 C 3548.49 -3.61225 -0.140923 0
M  V30 36225 O 3548.21 -4.23932 1.10512 0
M  V30 36226 C 3549.71 -4.37848 -0.693094 0
M  V30 36227 H 3546.93 -0.669163 0.0496135 0
M  V30 36228 H 3549.48 -1.88987 0.78128 0
M  V30 36229 H 3547.63 -3.78564 -0.822695 0
M  V30 36230 H 3548.05 -5.16579 0.908069 0
M  V30 36231 H 3549.52 -5.46522 -0.775704 0
M  V30 36232 H 3550 -4.04702 -1.70625 0
M  V30 36233 H 3550.6 -4.25274 -0.0467513 0
M  V30 36234 N 3548.92 -0.302382 -1.54672 0
M  V30 36235 C 3550.16 0.306943 -2.00464 0
M  V30 36236 C 3550.5 1.53433 -1.19046 0
M  V30 36237 O 3549.77 1.92655 -0.267289 0
M  V30 36238 C 3550.06 0.662166 -3.5396 0
M  V30 36239 C 3549.91 -0.574457 -4.46117 0
M  V30 36240 C 3551.23 1.48814 -4.14177 0
M  V30 36241 H 3548.35 0.11009 -0.728731 0
M  V30 36242 H 3550.99 -0.414754 -1.85418 0
M  V30 36243 H 3549.14 1.27704 -3.66912 0
M  V30 36244 H 3550.81 -1.21292 -4.45068 0
M  V30 36245 H 3549.05 -1.20743 -4.16658 0
M  V30 36246 H 3549.72 -0.281748 -5.5128 0
M  V30 36247 H 3552.2 0.968602 -4.04669 0
M  V30 36248 H 3551.08 1.70547 -5.21733 0
M  V30 36249 H 3551.34 2.47778 -3.6614 0
M  V30 36250 N 3550.4 1.57571 -0.0301311 0
M  V30 36251 C 3551.62 1.96551 0.662011 0
M  V30 36252 C 3552.05 0.906609 1.6481 0
M  V30 36253 O 3551.4 -0.132383 1.80816 0
M  V30 36254 C 3551.45 3.34624 1.34383 0
M  V30 36255 O 3550.56 3.3106 2.45913 0
M  V30 36256 H 3549.9 0.640842 0.173831 0
M  V30 36257 H 3552.43 2.04392 -0.092284 0
M  V30 36258 H 3552.44 3.70878 1.70039 0
M  V30 36259 H 3551.11 4.11237 0.62102 0
M  V30 36260 H 3549.69 3.06524 2.12361 0
M  V30 36261 N 3551.87 -0.243029 1.55715 0
M  V30 36262 C 3553.11 -0.977835 1.79493 0
M  V30 36263 C 3553.48 -1.82375 0.600271 0
M  V30 36264 O 3554.68 -2.59064 0.716903 0
M  V30 36265 C 3552.95 -1.8124 3.08037 0
M  V30 36266 S 3554.51 -2.60577 3.53051 0
M  V30 36267 H 3551.33 -0.328844 0.630383 0
M  V30 36268 H 3553.93 -0.245337 1.93954 0
M  V30 36269 H 3552.63 -1.18072 3.93049 0
M  V30 36270 H 3552.16 -2.58758 2.96324 0
M  V30 36271 H 3554.18 -3.83647 3.1469 0
M  V30 36272 N 3553.35 -1.49159 -0.508854 0
M  V30 36273 C 3554.76 -1.51541 -1.09051 0
M  V30 36274 C 3555.11 -0.297133 -1.93937 0
M  V30 36275 O 3554.24 0.593813 -2.08093 0
M  V30 36276 C 3554.83 -2.74602 -1.98442 0
M  V30 36277 C 3553.39 -2.79788 -2.51785 0
M  V30 36278 C 3552.54 -2.4535 -1.29223 0
M  V30 36279 H 3555.49 -1.5597 -0.29312 0
M  V30 36280 H 3555.51 -2.54319 -2.83023 0
M  V30 36281 H 3555.02 -3.63253 -1.36633 0
M  V30 36282 H 3553.13 -1.95397 -3.17255 0
M  V30 36283 H 3553.24 -3.81761 -2.89474 0
M  V30 36284 H 3551.6 -1.96959 -1.6149 0
M  V30 36285 H 3552.39 -3.36267 -0.69134 0
M  V30 36286 N 3554.83 0.759322 -1.38102 0
M  V30 36287 C 3555.76 1.88663 -1.37581 0
M  V30 36288 C 3556.74 1.68362 -0.242558 0
M  V30 36289 O 3557.93 1.89038 -0.444784 0
M  V30 36290 C 3555.06 3.26115 -1.19442 0
M  V30 36291 C 3554.01 3.61005 -2.29911 0
M  V30 36292 C 3553.34 4.97133 -1.96883 0
M  V30 36293 C 3554.64 3.66472 -3.7215 0
M  V30 36294 H 3556.33 1.89355 -2.31916 0
M  V30 36295 H 3553.88 0.909611 -1.11634 0
M  V30 36296 H 3555.83 4.04628 -1.17705 0
M  V30 36297 H 3554.55 3.25887 -0.215677 0
M  V30 36298 H 3553.21 2.84808 -2.30825 0
M  V30 36299 H 3552.86 4.93459 -0.975066 0
M  V30 36300 H 3552.56 5.21446 -2.70865 0
M  V30 36301 H 3554.08 5.78031 -1.96754 0
M  V30 36302 H 3555.5 4.35111 -3.73298 0
M  V30 36303 H 3553.9 4.02291 -4.45289 0
M  V30 36304 H 3554.97 2.66835 -4.04879 0
M  V30 36305 N 3556.31 1.22876 0.986873 0
M  V30 36306 C 3557.56 1.05487 1.72386 0
M  V30 36307 C 3557.88 -0.410041 1.9064 0
M  V30 36308 O 3557.15 -1.29447 1.47038 0
M  V30 36309 H 3555.73 0.387349 0.638725 0
M  V30 36310 H 3558.39 1.54487 1.18826 0
M  V30 36311 H 3557.49 1.53759 2.71597 0
M  V30 36312 N 3557.79 -1.18464 1.03942 0
M  V30 36313 C 3559.02 -1.92076 0.760942 0
M  V30 36314 C 3559.42 -1.76341 -0.685591 0
M  V30 36315 O 3558.77 -1.08966 -1.47892 0
M  V30 36316 C 3558.83 -3.4395 1.04589 0
M  V30 36317 C 3558.49 -3.83462 2.48608 0
M  V30 36318 C 3559.49 -3.87348 3.46782 0
M  V30 36319 C 3557.18 -4.14793 2.83287 0
M  V30 36320 C 3559.17 -4.22013 4.77685 0
M  V30 36321 C 3556.86 -4.4913 4.14397 0
M  V30 36322 C 3557.85 -4.52716 5.11407 0
M  V30 36323 O 3557.54 -4.86252 6.40167 0
M  V30 36324 H 3557.27 -0.616641 0.277002 0
M  V30 36325 H 3559.83 -1.51238 1.38983 0
M  V30 36326 H 3558.06 -3.85022 0.359875 0
M  V30 36327 H 3559.75 -3.98809 0.755406 0
M  V30 36328 H 3560.51 -3.6328 3.21329 0
M  V30 36329 H 3556.39 -4.1118 2.08451 0
M  V30 36330 H 3559.94 -4.24727 5.53401 0
M  V30 36331 H 3555.83 -4.72658 4.39619 0
M  V30 36332 H 3556.6 -5.0416 6.44799 0
M  V30 36333 N 3559.26 -0.818716 -1.34665 0
M  V30 36334 C 3560.19 -0.25228 -2.32133 0
M  V30 36335 C 3561.18 0.628954 -1.58045 0
M  V30 36336 O 3562.36 0.556707 -1.86049 0
M  V30 36337 C 3559.49 0.590123 -3.4225 0
M  V30 36338 C 3558.44 -0.193622 -4.27562 0
M  V30 36339 C 3557.77 0.771256 -5.29108 0
M  V30 36340 C 3559.07 -1.39945 -5.03202 0
M  V30 36341 H 3560.76 -1.06662 -2.79756 0
M  V30 36342 H 3558.31 -0.514349 -1.34501 0
M  V30 36343 H 3560.26 0.996544 -4.09447 0
M  V30 36344 H 3558.99 1.43747 -2.93265 0
M  V30 36345 H 3557.65 -0.581361 -3.61961 0
M  V30 36346 H 3557.29 1.61444 -4.76387 0
M  V30 36347 H 3556.99 0.251098 -5.87063 0
M  V30 36348 H 3558.52 1.17562 -5.99176 0
M  V30 36349 H 3559.93 -1.06727 -5.63278 0
M  V30 36350 H 3558.33 -1.85495 -5.70711 0
M  V30 36351 H 3559.4 -2.17984 -4.33141 0
M  V30 36352 N 3560.74 1.46803 -0.573299 0
M  V30 36353 C 3561.71 2.28675 0.155026 0
M  V30 36354 C 3562.71 1.37863 0.827681 0
M  V30 36355 O 3563.9 1.60334 0.681077 0
M  V30 36356 C 3561.03 3.17992 1.22858 0
M  V30 36357 H 3562.22 2.94542 -0.564357 0
M  V30 36358 H 3559.77 1.52758 -0.330882 0
M  V30 36359 H 3560.51 2.56851 1.97985 0
M  V30 36360 H 3560.29 3.84843 0.750869 0
M  V30 36361 H 3561.78 3.79638 1.73967 0
M  V30 36362 N 3562.22 0.31058 1.54509 0
M  V30 36363 C 3563.45 -0.300977 2.05205 0
M  V30 36364 C 3563.87 -1.46005 1.18592 0
M  V30 36365 O 3563.23 -1.80279 0.192112 0
M  V30 36366 C 3563.28 -0.725705 3.53222 0
M  V30 36367 O 3562.38 -1.82949 3.69599 0
M  V30 36368 H 3561.72 -0.056791 0.661567 0
M  V30 36369 H 3564.25 0.455213 1.99472 0
M  V30 36370 H 3564.26 -1.01191 3.95252 0
M  V30 36371 H 3562.94 0.122119 4.15721 0
M  V30 36372 H 3561.51 -1.54309 3.39475 0
M  V30 36373 N 3563.7 -1.57553 0.0384871 0
M  V30 36374 C 3564.93 -1.96489 -0.648043 0
M  V30 36375 C 3565.34 -0.915443 -1.65121 0
M  V30 36376 O 3564.7 0.101747 -1.82216 0
M  V30 36377 C 3564.75 -3.355 -1.34617 0
M  V30 36378 O 3564.47 -4.36421 -0.383184 0
M  V30 36379 C 3565.97 -3.89122 -2.12365 0
M  V30 36380 H 3563.19 -0.646944 -0.178056 0
M  V30 36381 H 3565.74 -2.0425 0.101029 0
M  V30 36382 H 3563.89 -3.28929 -2.04657 0
M  V30 36383 H 3564.31 -5.17065 -0.880004 0
M  V30 36384 H 3565.78 -4.88706 -2.56652 0
M  V30 36385 H 3566.26 -3.23868 -2.96658 0
M  V30 36386 H 3566.86 -3.98991 -1.47263 0
M  V30 36387 N 3565.18 0.234767 -1.55842 0
M  V30 36388 C 3566.14 1.27427 -1.90513 0
M  V30 36389 C 3567.14 1.40472 -0.782568 0
M  V30 36390 O 3568.33 1.38964 -1.05045 0
M  V30 36391 C 3565.46 2.65015 -2.14429 0
M  V30 36392 H 3566.66 0.978953 -2.83472 0
M  V30 36393 H 3564.21 0.474604 -1.4892 0
M  V30 36394 H 3564.94 2.99667 -1.23977 0
M  V30 36395 H 3564.73 2.56926 -2.96195 0
M  V30 36396 H 3566.22 3.40051 -2.42394 0
M  V30 36397 N 3566.66 1.49427 0.500936 0
M  V30 36398 C 3567.88 1.62626 1.27908 0
M  V30 36399 C 3568.3 0.297684 1.86438 0
M  V30 36400 O 3567.66 -0.716849 1.67832 0
M  V30 36401 C 3567.71 2.6951 2.40929 0
M  V30 36402 O 3567.43 3.97214 1.84804 0
M  V30 36403 C 3568.93 2.93414 3.323 0
M  V30 36404 H 3566.15 0.547488 0.387941 0
M  V30 36405 H 3568.69 1.95459 0.601338 0
M  V30 36406 H 3566.85 2.39455 3.04533 0
M  V30 36407 H 3567.26 4.5609 2.59003 0
M  V30 36408 H 3568.74 3.71935 4.07883 0
M  V30 36409 H 3569.21 2.03332 3.89298 0
M  V30 36410 H 3569.82 3.24886 2.74462 0
M  V30 36411 N 3568.13 -0.751987 1.38502 0
M  V30 36412 C 3569.08 -1.88713 1.35978 0
M  V30 36413 C 3570.08 -1.67613 0.245421 0
M  V30 36414 O 3571.28 -1.75161 0.414544 0
M  V30 36415 H 3567.66 -0.620912 0.424232 0
M  V30 36416 H 3569.63 -1.87958 2.31763 0
M  V30 36417 C 3568.38 -3.26214 1.20332 0
M  V30 36418 H 3567.7 -3.43038 2.05342 0
M  V30 36419 H 3569.14 -4.05882 1.2262 0
M  V30 36420 C 3567.6 -3.36781 -0.0896437 0
M  V30 36421 O 3568.13 -3.87295 -1.06608 0
M  V30 36422 N 3566.33 -2.90228 -0.147014 0
M  V30 36423 H 3565.88 -2.4931 0.64826 0
M  V30 36424 H 3565.84 -2.97678 -1.01168 0
M  V30 36425 N 3569.61 -1.23398 -0.980343 0
M  V30 36426 C 3570.89 -0.974349 -1.69605 0
M  V30 36427 C 3571.27 0.507028 -2.04921 0
M  V30 36428 O 3570.62 1.47824 -1.74242 0
M  V30 36429 C 3570.83 -1.88462 -2.9374 0
M  V30 36430 C 3572.17 -2.14812 -3.66252 0
M  V30 36431 O 3573.2 -1.86013 -3.03773 0
M  V30 36432 O 3572.06 -2.63657 -4.78693 0
M  V30 36433 H 3569.15 -0.367475 -0.740872 0
M  V30 36434 H 3571.7 -1.3444 -1.03556 0
M  V30 36435 H 3570.47 -2.88606 -2.64239 0
M  V30 36436 H 3570.09 -1.51694 -3.67525 0
M  V30 36437 N 3571.09 1.17911 -1.04569 0
M  V30 36438 C 3572.33 1.89705 -0.76101 0
M  V30 36439 C 3572.69 1.78833 0.698773 0
M  V30 36440 O 3573.89 2.45384 1.09728 0
M  V30 36441 C 3572.17 3.35915 -1.22048 0
M  V30 36442 S 3573.72 4.25749 -1.06221 0
M  V30 36443 H 3570.54 0.655012 -0.27655 0
M  V30 36444 H 3573.14 1.42444 -1.33903 0
M  V30 36445 H 3571.85 3.4136 -2.27819 0
M  V30 36446 H 3571.38 3.88217 -0.63647 0
M  V30 36447 H 3573.39 4.96197 0.0173614 0
M  V30 36448 N 3572.57 0.825847 1.34229 0
M  V30 36449 C 3573.82 0.41449 1.97804 0
M  V30 36450 C 3574.14 -1.02662 1.65788 0
M  V30 36451 O 3573.41 -1.71318 0.950099 0
M  V30 36452 H 3571.99 0.150278 0.731728 0
M  V30 36453 H 3574.65 1.05594 1.63817 0
M  V30 36454 H 3573.74 0.535883 3.07465 0
M  V30 36455 N 3574.05 -1.46497 0.581077 0
M  V30 36456 C 3575.29 -2.04285 0.0686936 0
M  V30 36457 C 3575.65 -1.44298 -1.26658 0
M  V30 36458 O 3576.85 -1.93276 -1.86809 0
M  V30 36459 C 3575.12 -3.574 0.00219362 0
M  V30 36460 S 3576.68 -4.36457 -0.452851 0
M  V30 36461 H 3573.5 -0.710053 0.0366811 0
M  V30 36462 H 3576.1 -1.7956 0.773205 0
M  V30 36463 H 3574.8 -3.98577 0.977978 0
M  V30 36464 H 3574.34 -3.86659 -0.725139 0
M  V30 36465 H 3576.35 -4.6588 -1.70792 0
M  V30 36466 N 3575.52 -0.31877 -1.54343 0
M  V30 36467 C 3576.75 0.287342 -2.04895 0
M  V30 36468 C 3577.17 1.46155 -1.19517 0
M  V30 36469 O 3576.52 1.81111 -0.224754 0
M  V30 36470 C 3576.57 0.726442 -3.54126 0
M  V30 36471 O 3576.3 -0.401044 -4.36261 0
M  V30 36472 C 3577.8 1.39586 -4.2075 0
M  V30 36473 H 3575.02 0.0598607 -0.668325 0
M  V30 36474 H 3577.56 -0.463566 -1.99177 0
M  V30 36475 H 3575.72 1.42733 -3.60147 0
M  V30 36476 H 3576.13 -0.0559636 -5.2447 0
M  V30 36477 H 3577.6 1.65409 -5.26634 0
M  V30 36478 H 3578.08 2.34163 -3.7157 0
M  V30 36479 H 3578.69 0.737675 -4.18854 0
M  V30 36480 N 3577 1.5753 -0.0468419 0
M  V30 36481 C 3578.23 1.9683 0.637613 0
M  V30 36482 C 3578.64 0.924187 1.64634 0
M  V30 36483 O 3578 -0.0920819 1.82268 0
M  V30 36484 C 3578.05 3.3621 1.32836 0
M  V30 36485 O 3577.77 4.36618 0.360034 0
M  V30 36486 C 3579.27 3.90243 2.10298 0
M  V30 36487 H 3576.49 0.64788 0.174623 0
M  V30 36488 H 3579.04 2.04194 -0.11186 0
M  V30 36489 H 3577.19 3.3001 2.02909 0
M  V30 36490 H 3577.61 5.17524 0.85257 0
M  V30 36491 H 3579.08 4.90061 2.54056 0
M  V30 36492 H 3579.56 3.25437 2.94937 0
M  V30 36493 H 3580.16 3.99766 1.45144 0
M  V30 36494 N 3578.48 -0.226499 1.55964 0
M  V30 36495 C 3579.71 -0.968641 1.82825 0
M  V30 36496 C 3580.12 -1.78144 0.625313 0
M  V30 36497 O 3579.48 -1.77923 -0.406139 0
M  V30 36498 C 3579.53 -1.89018 3.08147 0
M  V30 36499 O 3579.25 -1.11025 4.23798 0
M  V30 36500 C 3580.75 -2.74663 3.47958 0
M  V30 36501 H 3577.97 -0.284115 0.607881 0
M  V30 36502 H 3580.52 -0.243222 2.03048 0
M  V30 36503 H 3578.67 -2.56962 2.89913 0
M  V30 36504 H 3579.09 -1.73537 4.9496 0
M  V30 36505 H 3580.56 -3.35036 4.38696 0
M  V30 36506 H 3581.04 -3.46809 2.69482 0
M  V30 36507 H 3581.64 -2.12141 3.68614 0
M  V30 36508 N 3579.96 -1.4969 -0.493005 0
M  V30 36509 C 3581.19 -1.63302 -1.27044 0
M  V30 36510 C 3581.6 -0.307567 -1.86278 0
M  V30 36511 O 3580.96 0.707939 -1.6821 0
M  V30 36512 C 3581.01 -2.70784 -2.39496 0
M  V30 36513 O 3580.73 -3.98189 -1.82695 0
M  V30 36514 C 3582.23 -2.95172 -3.30739 0
M  V30 36515 H 3579.45 -0.549537 -0.385032 0
M  V30 36516 H 3582 -1.95775 -0.590964 0
M  V30 36517 H 3580.15 -2.41066 -3.03259 0
M  V30 36518 H 3580.56 -4.57457 -2.5658 0
M  V30 36519 H 3582.04 -3.74092 -4.05905 0
M  V30 36520 H 3582.52 -2.05394 -3.88214 0
M  V30 36521 H 3583.12 -3.26337 -2.72735 0
M  V30 36522 N 3581.44 0.744631 -1.38899 0
M  V30 36523 C 3582.68 1.51672 -1.37021 0
M  V30 36524 C 3583.04 1.91964 0.0370696 0
M  V30 36525 O 3584.24 2.68191 0.180788 0
M  V30 36526 C 3582.51 2.72965 -2.30706 0
M  V30 36527 S 3584.07 3.62728 -2.46929 0
M  V30 36528 H 3580.89 0.518924 -0.486044 0
M  V30 36529 H 3583.49 0.873353 -1.74908 0
M  V30 36530 H 3582.2 2.41488 -3.31831 0
M  V30 36531 H 3581.73 3.42239 -1.94 0
M  V30 36532 H 3583.74 4.66169 -1.70002 0
M  V30 36533 N 3582.91 1.23916 0.973785 0
M  V30 36534 C 3583.84 1.05071 2.08524 0
M  V30 36535 C 3584.83 -0.0344462 1.70065 0
M  V30 36536 O 3586.01 0.131466 1.93755 0
M  V30 36537 C 3583.14 0.648225 3.41197 0
M  V30 36538 C 3582.09 1.68147 3.93587 0
M  V30 36539 C 3581.42 1.13423 5.22532 0
M  V30 36540 C 3582.72 3.07604 4.2211 0
M  V30 36541 H 3584.41 1.98038 2.24547 0
M  V30 36542 H 3581.96 0.953565 1.07903 0
M  V30 36543 H 3583.91 0.503413 4.18382 0
M  V30 36544 H 3582.64 -0.317124 3.25057 0
M  V30 36545 H 3581.3 1.81439 3.18552 0
M  V30 36546 H 3580.94 0.159666 5.02747 0
M  V30 36547 H 3580.64 1.82466 5.58552 0
M  V30 36548 H 3582.17 1.00141 6.02332 0
M  V30 36549 H 3583.58 2.97576 4.90022 0
M  V30 36550 H 3581.98 3.73945 4.69346 0
M  V30 36551 H 3583.05 3.56099 3.29122 0
M  V30 36552 N 3584.39 -1.17355 1.05193 0
M  V30 36553 C 3585.8 -1.69249 0.788135 0
M  V30 36554 C 3586.15 -1.83678 -0.689685 0
M  V30 36555 O 3585.28 -1.52436 -1.53598 0
M  V30 36556 C 3585.87 -3.07418 1.42406 0
M  V30 36557 C 3584.43 -3.56478 1.20831 0
M  V30 36558 C 3583.58 -2.32738 1.5076 0
M  V30 36559 H 3586.53 -1.01872 1.21687 0
M  V30 36560 H 3586.55 -3.71262 0.83335 0
M  V30 36561 H 3586.06 -2.96884 2.49963 0
M  V30 36562 H 3584.17 -3.7229 0.151995 0
M  V30 36563 H 3584.28 -4.39239 1.91327 0
M  V30 36564 H 3582.64 -2.37205 0.92769 0
M  V30 36565 H 3583.43 -2.24812 2.5945 0
M  V30 36566 N 3585.87 -0.832954 -1.3379 0
M  V30 36567 C 3587.15 -0.347989 -1.9248 0
M  V30 36568 C 3587.53 1.16594 -1.7598 0
M  V30 36569 O 3586.88 1.97766 -1.14459 0
M  V30 36570 C 3587.09 -0.78837 -3.39979 0
M  V30 36571 C 3588.43 -0.792973 -4.1713 0
M  V30 36572 O 3589.46 -0.731594 -3.48606 0
M  V30 36573 O 3588.32 -0.875317 -5.39445 0
M  V30 36574 H 3585.41 -0.0972453 -0.821263 0
M  V30 36575 H 3587.96 -0.918412 -1.427 0
M  V30 36576 H 3586.73 -1.83071 -3.45833 0
M  V30 36577 H 3586.35 -0.194193 -3.97125 0
M  V30 36578 N 3587.35 1.46186 -0.588837 0
M  V30 36579 C 3588.3 2.3037 0.140892 0
M  V30 36580 C 3589.27 1.40986 0.878191 0
M  V30 36581 O 3590.45 1.69931 0.867649 0
M  V30 36582 C 3587.59 3.25565 1.14462 0
M  V30 36583 C 3586.7 4.30049 0.41014 0
M  V30 36584 C 3585.84 5.12366 1.40194 0
M  V30 36585 C 3584.88 6.08594 0.654203 0
M  V30 36586 N 3584.01 6.83758 1.59436 0
M  V30 36587 H 3588.85 2.92241 -0.583028 0
M  V30 36588 H 3586.39 1.44022 -0.299328 0
M  V30 36589 H 3588.35 3.79206 1.7395 0
M  V30 36590 H 3586.98 2.65488 1.83618 0
M  V30 36591 H 3586.03 3.79216 -0.299889 0
M  V30 36592 H 3587.34 4.98496 -0.174131 0
M  V30 36593 H 3586.5 5.70315 2.06943 0
M  V30 36594 H 3585.24 4.43894 2.02014 0
M  V30 36595 H 3584.24 5.49793 -0.0270338 0
M  V30 36596 H 3585.47 6.79087 0.0413091 0
M  V30 36597 H 3583.41 6.1799 2.20055 0
M  V30 36598 H 3583.33 7.48489 1.06305 0
M  V30 36599 H 3584.6 7.4626 2.25202 0
M  V30 36600 N 3588.83 0.32695 1.54171 0
M  V30 36601 C 3590.07 -0.275012 2.00927 0
M  V30 36602 C 3590.41 -1.5152 1.21472 0
M  V30 36603 O 3589.68 -1.92205 0.297905 0
M  V30 36604 C 3589.96 -0.605771 3.54968 0
M  V30 36605 C 3589.82 0.645357 4.45146 0
M  V30 36606 C 3591.14 -1.42206 4.16492 0
M  V30 36607 H 3588.25 -0.0984822 0.73039 0
M  V30 36608 H 3590.9 0.4442 1.84735 0
M  V30 36609 H 3589.05 -1.2185 3.68897 0
M  V30 36610 H 3590.72 1.28357 4.43082 0
M  V30 36611 H 3588.96 1.27357 4.14684 0
M  V30 36612 H 3589.63 0.369417 5.50762 0
M  V30 36613 H 3592.11 -0.9041 4.06159 0
M  V30 36614 H 3590.98 -1.62225 5.2438 0
M  V30 36615 H 3591.25 -2.41921 3.70036 0
M  V30 36616 N 3590.3 -1.57503 0.0551955 0
M  V30 36617 C 3591.54 -1.94721 -0.621535 0
M  V30 36618 C 3591.91 -0.933655 -1.6777 0
M  V30 36619 O 3593.11 -1.19291 -2.4088 0
M  V30 36620 C 3591.38 -3.36705 -1.19852 0
M  V30 36621 S 3592.94 -3.95882 -1.89269 0
M  V30 36622 H 3589.76 -0.681114 -0.203973 0
M  V30 36623 H 3592.36 -1.95099 0.125093 0
M  V30 36624 H 3591.06 -4.08268 -0.417761 0
M  V30 36625 H 3590.59 -3.39831 -1.98187 0
M  V30 36626 H 3592.61 -3.81435 -3.17367 0
M  V30 36627 N 3591.78 0.218225 -1.56082 0
M  V30 36628 C 3593.03 0.943522 -1.79515 0
M  V30 36629 C 3593.36 1.83854 -0.6254 0
M  V30 36630 O 3592.64 1.90847 0.375192 0
M  V30 36631 C 3592.92 1.77961 -3.13052 0
M  V30 36632 C 3592.77 0.910862 -4.40481 0
M  V30 36633 C 3594.09 2.75674 -3.43062 0
M  V30 36634 H 3591.21 0.341582 -0.653063 0
M  V30 36635 H 3593.85 0.212193 -1.88811 0
M  V30 36636 H 3592 2.40312 -3.05258 0
M  V30 36637 H 3593.67 0.303841 -4.60298 0
M  V30 36638 H 3591.92 0.216437 -4.3326 0
M  V30 36639 H 3592.59 1.53033 -5.30363 0
M  V30 36640 H 3595.06 2.23459 -3.51006 0
M  V30 36641 H 3593.94 3.31275 -4.37662 0
M  V30 36642 H 3594.2 3.53579 -2.65395 0
M  V30 36643 N 3593.26 1.4995 0.485059 0
M  V30 36644 C 3594.21 1.64182 1.58204 0
M  V30 36645 C 3595.2 0.496871 1.53036 0
M  V30 36646 O 3596.39 0.75061 1.60296 0
M  V30 36647 C 3593.52 1.72642 2.96732 0
M  V30 36648 C 3592.6 2.92767 3.06836 0
M  V30 36649 N 3592.99 4.16637 2.86788 0
M  V30 36650 C 3591.29 2.91035 3.37956 0
M  V30 36651 C 3591.99 4.9747 3.01493 0
M  V30 36652 N 3590.97 4.31148 3.31078 0
M  V30 36653 H 3594.77 2.57659 1.41382 0
M  V30 36654 H 3592.28 1.46942 0.691517 0
M  V30 36655 H 3594.28 1.80939 3.75589 0
M  V30 36656 H 3592.94 0.803128 3.14611 0
M  V30 36657 H 3593.95 4.46361 2.62645 0
M  V30 36658 H 3590.63 2.08149 3.61912 0
M  V30 36659 H 3592.02 6.05926 2.90351 0
M  V30 36660 N 3594.74 -0.737255 1.39292 0
M  V30 36661 C 3596.16 -1.04251 1.20847 0
M  V30 36662 C 3596.36 -2.01384 0.0684867 0
M  V30 36663 O 3595.41 -2.45735 -0.580571 0
M  V30 36664 C 3596.72 -1.60695 2.54161 0
M  V30 36665 C 3598.27 -1.72787 2.60986 0
M  V30 36666 C 3598.75 -2.3264 3.94515 0
M  V30 36667 N 3600.24 -2.40053 3.96143 0
M  V30 36668 C 3600.97 -2.87297 4.96234 0
M  V30 36669 N 3600.47 -3.34455 6.06722 0
M  V30 36670 N 3602.26 -2.86486 4.83614 0
M  V30 36671 H 3594.41 -0.0930043 2.12196 0
M  V30 36672 H 3596.68 -0.103883 0.942291 0
M  V30 36673 H 3596.38 -0.967891 3.38119 0
M  V30 36674 H 3596.26 -2.59533 2.73719 0
M  V30 36675 H 3598.64 -2.35815 1.77412 0
M  V30 36676 H 3598.72 -0.726075 2.45279 0
M  V30 36677 H 3598.37 -1.7024 4.78519 0
M  V30 36678 H 3598.3 -3.33492 4.07542 0
M  V30 36679 H 3600.79 -2.06719 3.16347 0
M  V30 36680 H 3601.1 -3.69008 6.79009 0
M  V30 36681 H 3599.45 -3.32469 6.10319 0
M  V30 36682 H 3602.64 -2.48966 3.96401 0
M  V30 36683 H 3602.81 -3.22991 5.61766 0
M  V30 36684 N 3596.22 -1.24431 -0.967199 0
M  V30 36685 C 3597.44 -1.11229 -1.75051 0
M  V30 36686 C 3597.87 0.331106 -1.85163 0
M  V30 36687 O 3597.23 1.23972 -1.3229 0
M  V30 36688 C 3597.27 -1.75738 -3.14879 0
M  V30 36689 O 3596.38 -1.02849 -3.99369 0
M  V30 36690 H 3595.72 -0.38907 -0.538071 0
M  V30 36691 H 3598.25 -1.64749 -1.21322 0
M  V30 36692 H 3598.26 -1.81515 -3.65399 0
M  V30 36693 H 3596.93 -2.80759 -3.06834 0
M  V30 36694 H 3595.51 -1.04862 -3.57852 0
M  V30 36695 N 3597.7 1.16795 -1.05814 0
M  V30 36696 C 3598.92 1.91118 -0.792553 0
M  V30 36697 C 3599.34 1.77166 0.652518 0
M  V30 36698 O 3598.7 1.11302 1.44631 0
M  V30 36699 C 3598.75 3.41982 -1.17178 0
M  V30 36700 O 3598.47 3.55512 -2.56014 0
M  V30 36701 C 3599.97 4.33365 -0.933239 0
M  V30 36702 H 3597.19 0.606197 -0.287691 0
M  V30 36703 H 3599.73 1.48073 -1.41049 0
M  V30 36704 H 3597.89 3.82749 -0.598481 0
M  V30 36705 H 3598.3 4.49028 -2.71061 0
M  V30 36706 H 3599.78 5.37701 -1.24826 0
M  V30 36707 H 3600.25 4.39004 0.131268 0
M  V30 36708 H 3600.86 3.9832 -1.49069 0
M  V30 36709 N 3599.17 0.840037 1.33346 0
M  V30 36710 C 3600.42 0.432615 1.97006 0
M  V30 36711 C 3600.74 -1.01375 1.6728 0
M  V30 36712 O 3601.94 -1.52591 2.24563 0
M  V30 36713 C 3600.4 0.722642 3.5257 0
M  V30 36714 C 3600.01 2.18376 3.91172 0
M  V30 36715 C 3601.75 0.382228 4.22776 0
M  V30 36716 C 3599.66 2.41778 5.3972 0
M  V30 36717 H 3598.59 0.158037 0.737252 0
M  V30 36718 H 3601.24 1.02878 1.51948 0
M  V30 36719 H 3599.62 0.0560875 3.9596 0
M  V30 36720 H 3600.79 2.89089 3.58837 0
M  V30 36721 H 3599.11 2.48727 3.33952 0
M  V30 36722 H 3601.71 0.534682 5.3202 0
M  V30 36723 H 3602.05 -0.674895 4.10793 0
M  V30 36724 H 3602.58 1.00406 3.8492 0
M  V30 36725 H 3599.32 3.4606 5.56707 0
M  V30 36726 H 3598.84 1.75627 5.73511 0
M  V30 36727 H 3600.52 2.2499 6.0662 0
M  V30 36728 N 3600.65 -1.45872 0.596582 0
M  V30 36729 C 3601.88 -2.06389 0.0933933 0
M  V30 36730 C 3602.29 -1.44369 -1.22288 0
M  V30 36731 O 3601.63 -0.548162 -1.75331 0
M  V30 36732 C 3601.69 -3.59257 -0.132193 0
M  V30 36733 C 3601.36 -4.43549 1.10059 0
M  V30 36734 C 3602.36 -4.79219 2.01606 0
M  V30 36735 C 3600.04 -4.84473 1.32633 0
M  V30 36736 C 3602.03 -5.54655 3.14064 0
M  V30 36737 C 3599.72 -5.59665 2.45394 0
M  V30 36738 C 3600.72 -5.94672 3.35938 0
M  V30 36739 O 3600.41 -6.68342 4.46738 0
M  V30 36740 H 3600.14 -0.673251 0.0609062 0
M  V30 36741 H 3602.69 -1.88277 0.821042 0
M  V30 36742 H 3600.92 -3.75728 -0.914612 0
M  V30 36743 H 3602.61 -4.01653 -0.58561 0
M  V30 36744 H 3603.38 -4.4817 1.85387 0
M  V30 36745 H 3599.26 -4.56667 0.630602 0
M  V30 36746 H 3602.8 -5.81898 3.84761 0
M  V30 36747 H 3598.7 -5.90128 2.6157 0
M  V30 36748 H 3599.47 -6.86781 4.4528 0
M  V30 36749 N 3602.13 -0.335122 -1.53996 0
M  V30 36750 C 3603.54 0.150547 -1.86092 0
M  V30 36751 C 3603.89 1.50683 -1.25655 0
M  V30 36752 O 3603.02 2.08842 -0.566924 0
M  V30 36753 C 3603.61 0.279947 -3.37641 0
M  V30 36754 C 3602.17 0.709842 -3.69646 0
M  V30 36755 C 3601.32 -0.16151 -2.76829 0
M  V30 36756 H 3604.27 -0.555012 -1.48679 0
M  V30 36757 H 3604.29 1.1089 -3.63983 0
M  V30 36758 H 3603.8 -0.707321 -3.816 0
M  V30 36759 H 3601.9 1.70644 -3.31227 0
M  V30 36760 H 3602.02 0.505578 -4.76425 0
M  V30 36761 H 3600.38 0.364804 -2.52074 0
M  V30 36762 H 3601.16 -1.14576 -3.23616 0
M  V30 36763 N 3603.61 1.57472 -0.0635475 0
M  V30 36764 C 3604.85 1.9346 0.60835 0
M  V30 36765 C 3605.19 0.943171 1.69758 0
M  V30 36766 O 3604.46 -0.0289225 1.94478 0
M  V30 36767 C 3604.74 3.39765 1.19296 0
M  V30 36768 C 3604.6 4.49663 0.110941 0
M  V30 36769 C 3605.92 3.86715 2.10094 0
M  V30 36770 H 3603.04 0.7035 0.219675 0
M  V30 36771 H 3605.68 1.89569 -0.127836 0
M  V30 36772 H 3603.83 3.43212 1.82038 0
M  V30 36773 H 3605.5 4.58341 -0.521686 0
M  V30 36774 H 3603.74 4.30177 -0.559484 0
M  V30 36775 H 3604.41 5.4915 0.560236 0
M  V30 36776 H 3606.89 3.85223 1.57298 0
M  V30 36777 H 3605.77 4.89713 2.47937 0
M  V30 36778 H 3606.03 3.24182 3.00597 0
M  V30 36779 N 3605.09 -0.209945 1.56195 0
M  V30 36780 C 3606.33 -0.930764 1.79391 0
M  V30 36781 C 3606.65 -1.84403 0.634071 0
M  V30 36782 O 3605.92 -1.92776 -0.348434 0
M  V30 36783 H 3604.5 -0.346678 0.661682 0
M  V30 36784 H 3607.17 -0.219015 1.93666 0
M  V30 36785 H 3606.26 -1.53071 2.71985 0
M  V30 36786 N 3606.56 -1.50205 -0.4771 0
M  V30 36787 C 3607.5 -1.64776 -1.59316 0
M  V30 36788 C 3608.51 -0.529454 -1.5395 0
M  V30 36789 O 3609.7 -0.802416 -1.59448 0
M  V30 36790 C 3606.8 -1.6106 -2.98182 0
M  V30 36791 C 3605.97 -2.88823 -3.28481 0
M  V30 36792 C 3605.03 -2.77833 -4.46873 0
M  V30 36793 O 3604.06 -3.51786 -4.47476 0
M  V30 36794 N 3605.26 -1.90983 -5.48184 0
M  V30 36795 H 3608.02 -2.6104 -1.47235 0
M  V30 36796 H 3605.58 -1.47594 -0.665414 0
M  V30 36797 H 3607.58 -1.51329 -3.75342 0
M  V30 36798 H 3606.15 -0.725562 -3.04063 0
M  V30 36799 H 3605.37 -3.12726 -2.39991 0
M  V30 36800 H 3606.65 -3.73476 -3.45533 0
M  V30 36801 H 3606.05 -1.30201 -5.50513 0
M  V30 36802 H 3604.61 -1.87159 -6.24351 0
M  V30 36803 N 3608.04 0.729857 -1.39681 0
M  V30 36804 C 3609.29 1.48952 -1.37185 0
M  V30 36805 C 3609.62 1.94476 0.0305386 0
M  V30 36806 O 3608.87 1.6748 1.01237 0
M  V30 36807 C 3609.17 2.73976 -2.29504 0
M  V30 36808 C 3608.84 2.47292 -3.77038 0
M  V30 36809 C 3607.5 2.39724 -4.17236 0
M  V30 36810 C 3609.85 2.24589 -4.70329 0
M  V30 36811 C 3607.18 2.07502 -5.4878 0
M  V30 36812 C 3609.53 1.93882 -6.02156 0
M  V30 36813 C 3608.2 1.84787 -6.41413 0
M  V30 36814 H 3607.47 0.545053 -0.501995 0
M  V30 36815 H 3610.11 0.837264 -1.72227 0
M  V30 36816 H 3608.42 3.43969 -1.87598 0
M  V30 36817 H 3610.11 3.3202 -2.24863 0
M  V30 36818 H 3606.7 2.54063 -3.45181 0
M  V30 36819 H 3610.89 2.294 -4.40101 0
M  V30 36820 H 3606.14 1.98986 -5.78113 0
M  V30 36821 H 3610.32 1.75325 -6.73969 0
M  V30 36822 H 3607.95 1.59585 -7.43261 0
M  V30 36823 N 3609.52 1.24942 0.960587 0
M  V30 36824 C 3610.77 1.10506 1.70763 0
M  V30 36825 C 3611.12 -0.351351 1.89165 0
M  V30 36826 O 3610.41 -1.25565 1.4472 0
M  V30 36827 C 3610.61 1.78624 3.09561 0
M  V30 36828 C 3610.44 3.30739 3.04699 0
M  V30 36829 C 3609.21 3.99974 3.08786 0
M  V30 36830 C 3611.41 4.27226 2.86325 0
M  V30 36831 N 3609.39 5.38912 2.94019 0
M  V30 36832 C 3610.76 5.53209 2.79928 0
M  V30 36833 C 3612.81 4.17714 2.7096 0
M  V30 36834 C 3611.52 6.70768 2.59736 0
M  V30 36835 C 3613.54 5.34959 2.52137 0
M  V30 36836 C 3612.9 6.59878 2.46455 0
M  V30 36837 H 3609 0.459038 0.633094 0
M  V30 36838 H 3611.59 1.57958 1.1383 0
M  V30 36839 H 3609.76 1.33676 3.64672 0
M  V30 36840 H 3611.49 1.56984 3.73012 0
M  V30 36841 H 3608.25 3.51191 3.17745 0
M  V30 36842 H 3608.67 6.11811 2.89856 0
M  V30 36843 H 3613.31 3.21888 2.74131 0
M  V30 36844 H 3611.03 7.6671 2.55307 0
M  V30 36845 H 3614.62 5.29455 2.41182 0
M  V30 36846 H 3613.5 7.49072 2.32078 0
M  V30 36847 N 3611 -1.16233 1.06432 0
M  V30 36848 C 3611.91 -2.24301 0.687485 0
M  V30 36849 C 3612.92 -1.71445 -0.297102 0
M  V30 36850 O 3614.1 -2.0087 -0.146066 0
M  V30 36851 C 3611.17 -3.46605 0.0811582 0
M  V30 36852 C 3610.23 -4.14492 1.11779 0
M  V30 36853 C 3609.46 -5.30958 0.540303 0
M  V30 36854 O 3609.68 -5.66724 -0.64652 0
M  V30 36855 O 3608.62 -5.88118 1.28067 0
M  V30 36856 H 3612.44 -2.58846 1.58846 0
M  V30 36857 H 3610.03 -1.23775 0.836671 0
M  V30 36858 H 3611.91 -4.20627 -0.255166 0
M  V30 36859 H 3610.58 -3.13829 -0.793283 0
M  V30 36860 H 3609.49 -3.42434 1.50632 0
M  V30 36861 H 3610.82 -4.51326 1.96381 0
M  V30 36862 N 3612.48 -0.847097 -1.32899 0
M  V30 36863 C 3613.39 -0.288919 -2.32814 0
M  V30 36864 C 3614.4 0.589335 -1.63716 0
M  V30 36865 O 3615.58 0.491503 -1.95311 0
M  V30 36866 C 3612.64 0.519928 -3.42779 0
M  V30 36867 C 3611.7 -0.383571 -4.27583 0
M  V30 36868 C 3610.94 0.386768 -5.32297 0
M  V30 36869 O 3611.16 1.61758 -5.46983 0
M  V30 36870 O 3610.09 -0.243506 -6.01407 0
M  V30 36871 H 3613.92 -1.11651 -2.82432 0
M  V30 36872 H 3611.51 -0.609831 -1.36387 0
M  V30 36873 H 3613.39 0.979285 -4.09863 0
M  V30 36874 H 3612.06 1.32445 -2.95364 0
M  V30 36875 H 3610.97 -0.890943 -3.63336 0
M  V30 36876 H 3612.3 -1.15308 -4.78503 0
M  V30 36877 N 3613.95 1.45554 -0.604309 0
M  V30 36878 C 3615.2 2.01862 -0.0980277 0
M  V30 36879 C 3615.52 1.47565 1.27473 0
M  V30 36880 O 3614.79 0.668644 1.84136 0
M  V30 36881 H 3613.37 0.74626 -0.0332481 0
M  V30 36882 H 3616.04 1.78394 -0.784967 0
M  V30 36883 H 3615.13 3.12067 -0.0453265 0
M  V30 36884 N 3615.43 0.343284 1.53816 0
M  V30 36885 C 3616.67 -0.253659 2.0282 0
M  V30 36886 C 3617.04 -1.47788 1.22567 0
M  V30 36887 O 3618.24 -2.14899 1.61468 0
M  V30 36888 C 3616.51 -0.560299 3.52981 0
M  V30 36889 S 3618.07 -1.13409 4.23891 0
M  V30 36890 H 3614.89 -0.075522 0.706978 0
M  V30 36891 H 3617.49 0.480984 1.89491 0
M  V30 36892 H 3616.19 0.338523 4.09001 0
M  V30 36893 H 3615.72 -1.32461 3.70429 0
M  V30 36894 H 3617.74 -2.41982 4.33196 0
M  V30 36895 N 3616.91 -1.57436 0.0718977 0
M  V30 36896 C 3618.19 -1.84896 -0.6382 0
M  V30 36897 C 3618.57 -0.964376 -1.87784 0
M  V30 36898 O 3617.92 -0.0306925 -2.28479 0
M  V30 36899 C 3618.13 -3.35082 -0.975758 0
M  V30 36900 C 3619.47 -4.02594 -1.3492 0
M  V30 36901 O 3620.5 -3.39828 -1.06748 0
M  V30 36902 O 3619.36 -5.13299 -1.8758 0
M  V30 36903 H 3616.45 -0.763838 -0.316987 0
M  V30 36904 H 3619 -1.69388 0.102837 0
M  V30 36905 H 3617.77 -3.91184 -0.095326 0
M  V30 36906 H 3617.39 -3.55852 -1.77355 0
M  V30 36907 N 3618.39 0.201658 -1.56305 0
M  V30 36908 C 3619.63 0.924429 -1.80505 0
M  V30 36909 C 3619.97 1.83181 -0.644865 0
M  V30 36910 O 3619.24 1.91234 0.354929 0
M  V30 36911 C 3619.53 1.74631 -3.14922 0
M  V30 36912 C 3619.38 0.864092 -4.41422 0
M  V30 36913 C 3620.7 2.7202 -3.45967 0
M  V30 36914 H 3617.82 0.334636 -0.656649 0
M  V30 36915 H 3620.46 0.192155 -1.89026 0
M  V30 36916 H 3618.61 2.37061 -3.07789 0
M  V30 36917 H 3620.28 0.255003 -4.60595 0
M  V30 36918 H 3618.52 0.170472 -4.33465 0
M  V30 36919 H 3619.19 1.47399 -5.31956 0
M  V30 36920 H 3621.67 2.19723 -3.53357 0
M  V30 36921 H 3620.55 3.26614 -4.41151 0
M  V30 36922 H 3620.81 3.50744 -2.6913 0
M  V30 36923 N 3619.87 1.50456 0.469128 0
M  V30 36924 C 3621.11 1.63182 1.23089 0
M  V30 36925 C 3621.47 0.325862 1.89215 0
M  V30 36926 O 3622.67 0.328578 2.66784 0
M  V30 36927 C 3620.94 2.78073 2.24522 0
M  V30 36928 S 3622.5 3.10944 3.09612 0
M  V30 36929 H 3619.32 0.575239 0.417877 0
M  V30 36930 H 3621.92 1.88247 0.527583 0
M  V30 36931 H 3620.63 3.71441 1.74527 0
M  V30 36932 H 3620.16 2.551 2.99479 0
M  V30 36933 H 3622.17 2.54921 4.25711 0
M  V30 36934 N 3621.34 -0.722439 1.40066 0
M  V30 36935 C 3622.57 -1.5116 1.41273 0
M  V30 36936 C 3622.99 -1.88797 0.0105756 0
M  V30 36937 O 3622.34 -1.54972 -0.96384 0
M  V30 36938 C 3622.4 -2.79127 2.29718 0
M  V30 36939 O 3622.12 -2.43084 3.64475 0
M  V30 36940 C 3623.62 -3.73071 2.39443 0
M  V30 36941 H 3620.84 -0.466719 0.482094 0
M  V30 36942 H 3623.38 -0.891704 1.84035 0
M  V30 36943 H 3621.54 -3.37418 1.90336 0
M  V30 36944 H 3621.95 -3.25376 4.11377 0
M  V30 36945 H 3623.42 -4.5972 3.05551 0
M  V30 36946 H 3623.9 -4.157 1.41738 0
M  V30 36947 H 3624.51 -3.20694 2.79348 0
M  V30 36948 N 3622.82 -1.2545 -0.953947 0
M  V30 36949 C 3624.06 -1.11444 -1.71346 0
M  V30 36950 C 3624.43 0.338715 -1.88989 0
M  V30 36951 O 3625.63 0.600606 -2.62004 0
M  V30 36952 C 3623.9 -1.84872 -3.05871 0
M  V30 36953 S 3625.46 -1.86766 -3.97069 0
M  V30 36954 H 3622.28 -0.39832 -0.58895 0
M  V30 36955 H 3624.88 -1.58984 -1.13773 0
M  V30 36956 H 3623.58 -2.89691 -2.90701 0
M  V30 36957 H 3623.11 -1.37722 -3.68505 0
M  V30 36958 H 3625.13 -0.945195 -4.87114 0
M  V30 36959 N 3624.3 1.15667 -1.07047 0
M  V30 36960 C 3625.53 1.90267 -0.812779 0
M  V30 36961 C 3625.94 1.77848 0.633691 0
M  V30 36962 O 3625.3 1.1283 1.43442 0
M  V30 36963 C 3625.35 3.4072 -1.20799 0
M  V30 36964 O 3625.07 3.52776 -2.5977 0
M  V30 36965 C 3626.57 4.32351 -0.97915 0
M  V30 36966 H 3623.79 0.603112 -0.294104 0
M  V30 36967 H 3626.34 1.46568 -1.42611 0
M  V30 36968 H 3624.49 3.82093 -0.639043 0
M  V30 36969 H 3624.91 4.46128 -2.75808 0
M  V30 36970 H 3626.38 5.36347 -1.30522 0
M  V30 36971 H 3626.86 4.39118 0.084698 0
M  V30 36972 H 3627.46 3.96716 -1.53285 0
M  V30 36973 N 3625.78 0.854133 1.32447 0
M  V30 36974 C 3627.06 0.378567 1.91902 0
M  V30 36975 C 3627.44 -1.13779 1.77813 0
M  V30 36976 O 3626.78 -1.9592 1.17591 0
M  V30 36977 C 3626.99 0.842358 3.38682 0
M  V30 36978 C 3628.34 0.859234 4.15815 0
M  V30 36979 O 3629.37 0.786962 3.47398 0
M  V30 36980 O 3628.23 0.961028 5.37984 0
M  V30 36981 H 3625.32 0.110299 0.819612 0
M  V30 36982 H 3627.87 0.940999 1.41221 0
M  V30 36983 H 3626.64 1.8855 3.42877 0
M  V30 36984 H 3626.26 0.257348 3.96766 0
M  V30 36985 N 3627.26 -1.45231 0.61202 0
M  V30 36986 C 3628.19 -2.27685 -0.153174 0
M  V30 36987 C 3629.17 -1.37402 -0.86945 0
M  V30 36988 O 3630.35 -1.66834 -0.877424 0
M  V30 36989 C 3627.48 -3.1588 -1.22218 0
M  V30 36990 C 3626.53 -4.22136 -0.608549 0
M  V30 36991 S 3627.36 -5.32274 0.586941 0
M  V30 36992 C 3628.51 -6.24037 -0.482547 0
M  V30 36993 H 3628.75 -2.92236 0.546367 0
M  V30 36994 H 3626.28 -1.49138 0.399658 0
M  V30 36995 H 3628.24 -3.67249 -1.83407 0
M  V30 36996 H 3626.9 -2.50586 -1.89381 0
M  V30 36997 H 3626.09 -4.83786 -1.41303 0
M  V30 36998 H 3625.69 -3.73931 -0.0717032 0
M  V30 36999 H 3627.99 -6.63701 -1.36041 0
M  V30 37000 H 3628.93 -7.08032 0.0979048 0
M  V30 37001 H 3629.34 -5.58804 -0.799866 0
M  V30 37002 N 3628.74 -0.351436 -1.53632 0
M  V30 37003 C 3629.65 0.509945 -2.28991 0
M  V30 37004 C 3630.66 1.10505 -1.34405 0
M  V30 37005 O 3631.84 1.11903 -1.6745 0
M  V30 37006 C 3628.9 1.64119 -3.05395 0
M  V30 37007 C 3627.96 1.07506 -4.15621 0
M  V30 37008 C 3627.2 2.1524 -4.88372 0
M  V30 37009 O 3627.42 3.36102 -4.6086 0
M  V30 37010 O 3626.35 1.7909 -5.74639 0
M  V30 37011 H 3630.18 -0.102883 -3.03526 0
M  V30 37012 H 3627.76 -0.11624 -1.48947 0
M  V30 37013 H 3629.65 2.2992 -3.5315 0
M  V30 37014 H 3628.32 2.23968 -2.33709 0
M  V30 37015 H 3627.23 0.381355 -3.72151 0
M  V30 37016 H 3628.56 0.521327 -4.89431 0
M  V30 37017 N 3630.21 1.57396 -0.0802459 0
M  V30 37018 C 3631.49 1.85231 0.628386 0
M  V30 37019 C 3631.87 0.974321 1.8727 0
M  V30 37020 O 3631.22 0.0428089 2.2846 0
M  V30 37021 C 3631.43 3.35595 0.957974 0
M  V30 37022 C 3632.78 4.03304 1.32783 0
M  V30 37023 O 3633.8 3.4039 1.04945 0
M  V30 37024 O 3632.66 5.14287 1.84856 0
M  V30 37025 H 3629.75 0.765508 0.312932 0
M  V30 37026 H 3632.3 1.69331 -0.111818 0
M  V30 37027 H 3631.07 3.91229 0.0745792 0
M  V30 37028 H 3630.69 3.56788 1.75466 0
M  V30 37029 N 3631.69 -0.193366 1.56409 0
M  V30 37030 C 3632.65 -1.22331 1.93824 0
M  V30 37031 C 3633.65 -1.38348 0.819537 0
M  V30 37032 O 3634.84 -1.36131 1.08693 0
M  V30 37033 C 3631.98 -2.59237 2.2138 0
M  V30 37034 H 3633.17 -0.903451 2.85968 0
M  V30 37035 H 3630.72 -0.434954 1.50126 0
M  V30 37036 H 3631.46 -2.96274 1.31879 0
M  V30 37037 H 3631.24 -2.48982 3.02903 0
M  V30 37038 H 3632.73 -3.33505 2.51325 0
M  V30 37039 N 3633.17 -1.50702 -0.461142 0
M  V30 37040 C 3634.42 -1.62429 -1.21428 0
M  V30 37041 C 3634.75 -0.328262 -1.91406 0
M  V30 37042 O 3634.02 0.670866 -1.82564 0
M  V30 37043 C 3634.31 -2.81144 -2.25011 0
M  V30 37044 C 3634.16 -4.20657 -1.59273 0
M  V30 37045 C 3635.48 -2.95402 -3.26229 0
M  V30 37046 H 3632.6 -0.591168 -0.440102 0
M  V30 37047 H 3635.24 -1.83119 -0.506694 0
M  V30 37048 H 3633.39 -2.63634 -2.85358 0
M  V30 37049 H 3635.06 -4.49781 -1.02446 0
M  V30 37050 H 3633.3 -4.24454 -0.89559 0
M  V30 37051 H 3633.98 -4.9967 -2.34593 0
M  V30 37052 H 3636.45 -3.11465 -2.75914 0
M  V30 37053 H 3635.33 -3.80074 -3.96024 0
M  V30 37054 H 3635.59 -2.06442 -3.9094 0
M  V30 37055 N 3634.65 0.715001 -1.40447 0
M  V30 37056 C 3635.58 1.83866 -1.35162 0
M  V30 37057 C 3636.56 1.61079 -0.221912 0
M  V30 37058 O 3637.74 1.84083 -0.405667 0
M  V30 37059 C 3634.87 3.20215 -1.10364 0
M  V30 37060 C 3633.92 3.61828 -2.25793 0
M  V30 37061 S 3634.75 3.68875 -3.8819 0
M  V30 37062 C 3635.9 5.07983 -3.65656 0
M  V30 37063 H 3636.14 1.88069 -2.30255 0
M  V30 37064 H 3633.67 0.881837 -1.2674 0
M  V30 37065 H 3635.63 3.98938 -0.967413 0
M  V30 37066 H 3634.29 3.13644 -0.169233 0
M  V30 37067 H 3633.48 4.60831 -2.04086 0
M  V30 37068 H 3633.08 2.90364 -2.35722 0
M  V30 37069 H 3635.38 5.94918 -3.24159 0
M  V30 37070 H 3636.32 5.34726 -4.64192 0
M  V30 37071 H 3636.73 4.78604 -2.99331 0
M  V30 37072 N 3636.13 1.25954 0.947281 0
M  V30 37073 C 3637.37 1.10918 1.68943 0
M  V30 37074 C 3637.69 -0.349182 1.91848 0
M  V30 37075 O 3636.96 -1.24704 1.51082 0
M  V30 37076 H 3635.54 0.407473 0.626079 0
M  V30 37077 H 3638.21 1.58189 1.13851 0
M  V30 37078 H 3637.3 1.62321 2.66567 0
M  V30 37079 N 3637.6 -1.15097 1.07659 0
M  V30 37080 C 3638.53 -2.22082 0.72124 0
M  V30 37081 C 3639.52 -1.67561 -0.292778 0
M  V30 37082 O 3640.7 -1.93499 -0.164838 0
M  V30 37083 C 3637.83 -3.47087 0.121591 0
M  V30 37084 C 3636.78 -4.14587 1.06311 0
M  V30 37085 C 3636.11 -5.33705 0.326058 0
M  V30 37086 C 3637.41 -4.63995 2.39804 0
M  V30 37087 H 3639.1 -2.52062 1.6157 0
M  V30 37088 H 3636.65 -1.21155 0.778303 0
M  V30 37089 H 3638.6 -4.21171 -0.138963 0
M  V30 37090 H 3637.33 -3.16448 -0.807966 0
M  V30 37091 H 3635.99 -3.42447 1.30864 0
M  V30 37092 H 3635.63 -4.99323 -0.607059 0
M  V30 37093 H 3635.33 -5.7981 0.953654 0
M  V30 37094 H 3636.86 -6.10556 0.0733768 0
M  V30 37095 H 3638.27 -5.2959 2.19561 0
M  V30 37096 H 3636.67 -5.20773 2.98187 0
M  V30 37097 H 3637.74 -3.79467 3.01882 0
M  V30 37098 N 3639.08 -0.861145 -1.31993 0
M  V30 37099 C 3640.5 -0.551871 -1.49755 0
M  V30 37100 C 3640.7 0.916025 -1.79475 0
M  V30 37101 O 3639.75 1.69871 -1.86816 0
M  V30 37102 C 3641.07 -1.44447 -2.63734 0
M  V30 37103 C 3642.62 -1.44557 -2.77619 0
M  V30 37104 C 3643.09 -2.32353 -3.94685 0
M  V30 37105 N 3644.58 -2.30185 -4.01957 0
M  V30 37106 C 3645.32 -2.94842 -4.91788 0
M  V30 37107 N 3644.81 -3.68636 -5.86583 0
M  V30 37108 N 3646.61 -2.84196 -4.84963 0
M  V30 37109 H 3638.76 -1.81107 -1.10969 0
M  V30 37110 H 3641.02 -0.773906 -0.547516 0
M  V30 37111 H 3640.73 -2.48857 -2.48521 0
M  V30 37112 H 3640.6 -1.13657 -3.59669 0
M  V30 37113 H 3642.99 -0.409085 -2.92251 0
M  V30 37114 H 3643.07 -1.79366 -1.82377 0
M  V30 37115 H 3642.71 -3.36074 -3.80811 0
M  V30 37116 H 3642.64 -1.94874 -4.89216 0
M  V30 37117 H 3645.13 -1.76539 -3.34129 0
M  V30 37118 H 3645.45 -4.15122 -6.51839 0
M  V30 37119 H 3643.79 -3.72744 -5.86589 0
M  V30 37120 H 3646.98 -2.26091 -4.09879 0
M  V30 37121 H 3647.15 -3.34867 -5.54769 0
M  V30 37122 N 3640.56 1.44905 -0.619713 0
M  V30 37123 C 3641.81 2.02446 -0.119846 0
M  V30 37124 C 3642.14 1.48549 1.25088 0
M  V30 37125 O 3641.41 0.664974 1.82779 0
M  V30 37126 C 3641.7 3.59977 -0.0940838 0
M  V30 37127 C 3641.55 4.24181 -1.49634 0
M  V30 37128 C 3642.87 4.36162 0.587403 0
M  V30 37129 H 3639.99 0.735623 -0.0450248 0
M  V30 37130 H 3642.63 1.72614 -0.794006 0
M  V30 37131 H 3640.78 3.85523 0.480005 0
M  V30 37132 H 3642.45 4.0978 -2.11844 0
M  V30 37133 H 3640.7 3.82115 -2.05355 0
M  V30 37134 H 3641.37 5.33144 -1.43044 0
M  V30 37135 H 3643.84 4.15981 0.0993132 0
M  V30 37136 H 3642.72 5.45884 0.574576 0
M  V30 37137 H 3642.98 4.09925 1.65572 0
M  V30 37138 N 3642.04 0.359579 1.53443 0
M  V30 37139 C 3643 -0.477372 2.24174 0
M  V30 37140 C 3644 -1.01461 1.24749 0
M  V30 37141 O 3645.19 -0.901316 1.4907 0
M  V30 37142 C 3642.32 -1.66662 2.97383 0
M  V30 37143 H 3643.52 0.14146 2.99566 0
M  V30 37144 H 3641.07 0.11117 1.55904 0
M  V30 37145 H 3641.8 -2.3237 2.26218 0
M  V30 37146 H 3641.59 -1.28841 3.70327 0
M  V30 37147 H 3643.08 -2.25988 3.51169 0
M  V30 37148 N 3643.52 -1.57351 0.0885919 0
M  V30 37149 C 3644.45 -2.1068 -0.90258 0
M  V30 37150 C 3645.46 -1.0426 -1.25035 0
M  V30 37151 O 3646.65 -1.31725 -1.2046 0
M  V30 37152 C 3643.75 -2.5662 -2.21358 0
M  V30 37153 C 3642.92 -3.86802 -2.04212 0
M  V30 37154 C 3641.98 -4.18658 -3.18766 0
M  V30 37155 O 3641.01 -4.87986 -2.93016 0
M  V30 37156 N 3642.21 -3.73542 -4.4435 0
M  V30 37157 H 3644.98 -2.96346 -0.447147 0
M  V30 37158 H 3642.54 -1.61611 -0.0966894 0
M  V30 37159 H 3644.53 -2.74981 -2.9693 0
M  V30 37160 H 3643.1 -1.76001 -2.58346 0
M  V30 37161 H 3642.32 -3.77654 -1.13008 0
M  V30 37162 H 3643.61 -4.71982 -1.90026 0
M  V30 37163 H 3643 -3.17566 -4.68154 0
M  V30 37164 H 3641.56 -3.9707 -5.16893 0
M  V30 37165 N 3644.99 0.185069 -1.5651 0
M  V30 37166 C 3646.23 0.910544 -1.82999 0
M  V30 37167 C 3646.6 1.80022 -0.667545 0
M  V30 37168 O 3647.8 2.56224 -0.812559 0
M  V30 37169 C 3646.07 1.69682 -3.14552 0
M  V30 37170 S 3647.63 2.47294 -3.62479 0
M  V30 37171 H 3644.45 0.305222 -0.642153 0
M  V30 37172 H 3647.05 0.173183 -1.94731 0
M  V30 37173 H 3645.75 1.03403 -3.9716 0
M  V30 37174 H 3645.28 2.47582 -3.05724 0
M  V30 37175 H 3647.3 3.71703 -3.28712 0
M  V30 37176 N 3646.47 1.50945 0.453144 0
M  V30 37177 C 3647.7 1.66893 1.23133 0
M  V30 37178 C 3648.12 0.359217 1.84638 0
M  V30 37179 O 3647.48 -0.678953 1.68107 0
M  V30 37180 C 3647.53 2.77503 2.3027 0
M  V30 37181 O 3646.63 2.40005 3.35367 0
M  V30 37182 H 3645.97 0.556991 0.361465 0
M  V30 37183 H 3648.5 1.97423 0.537139 0
M  V30 37184 H 3648.51 3.01118 2.75304 0
M  V30 37185 H 3647.19 3.72549 1.84878 0
M  V30 37186 H 3645.77 2.26905 2.9592 0
M  V30 37187 N 3647.95 -0.707543 1.40825 0
M  V30 37188 C 3648.88 -1.83263 1.3765 0
M  V30 37189 C 3649.9 -1.60364 0.280575 0
M  V30 37190 O 3651.08 -1.70089 0.541483 0
M  V30 37191 C 3648.18 -3.19814 1.12126 0
M  V30 37192 C 3647.36 -3.69842 2.33529 0
M  V30 37193 C 3646.42 -4.85029 2.04043 0
M  V30 37194 O 3645.44 -4.97263 2.7698 0
M  V30 37195 N 3646.64 -5.71409 1.02332 0
M  V30 37196 H 3649.41 -1.86482 2.34615 0
M  V30 37197 H 3646.97 -0.889401 1.35282 0
M  V30 37198 H 3648.96 -3.9448 0.903732 0
M  V30 37199 H 3647.53 -3.11693 0.237996 0
M  V30 37200 H 3646.75 -2.86217 2.7106 0
M  V30 37201 H 3648.04 -4.00004 3.14443 0
M  V30 37202 H 3647.44 -5.64143 0.41941 0
M  V30 37203 H 3646 -6.46026 0.865685 0
M  V30 37204 N 3649.43 -1.26454 -0.940588 0
M  V30 37205 C 3650.38 -1.08063 -2.03939 0
M  V30 37206 C 3651.35 0.0145096 -1.66094 0
M  V30 37207 O 3652.53 -0.145371 -1.90245 0
M  V30 37208 C 3649.67 -0.720287 -3.37499 0
M  V30 37209 C 3648.78 -1.89174 -3.88378 0
M  V30 37210 C 3647.92 -1.47445 -5.10327 0
M  V30 37211 C 3646.96 -2.61418 -5.53468 0
M  V30 37212 N 3646.09 -2.20367 -6.6662 0
M  V30 37213 H 3650.93 -2.02094 -2.19003 0
M  V30 37214 H 3648.47 -1.0062 -1.07304 0
M  V30 37215 H 3650.43 -0.49225 -4.14286 0
M  V30 37216 H 3649.06 0.183044 -3.22281 0
M  V30 37217 H 3648.11 -2.23269 -3.07986 0
M  V30 37218 H 3649.42 -2.74715 -4.16333 0
M  V30 37219 H 3648.58 -1.2069 -5.94575 0
M  V30 37220 H 3647.32 -0.589958 -4.84119 0
M  V30 37221 H 3646.32 -2.88902 -4.67777 0
M  V30 37222 H 3647.55 -3.50468 -5.81678 0
M  V30 37223 H 3645.49 -1.34352 -6.42095 0
M  V30 37224 H 3645.41 -2.99451 -6.94165 0
M  V30 37225 H 3646.68 -1.96825 -7.54242 0
M  V30 37226 N 3650.91 1.14525 -1.08268 0
M  V30 37227 C 3652.32 1.671 -0.832731 0
M  V30 37228 C 3652.67 1.85443 0.640743 0
M  V30 37229 O 3651.79 1.56455 1.49502 0
M  V30 37230 C 3652.39 3.03534 -1.50507 0
M  V30 37231 C 3650.95 3.53149 -1.3024 0
M  V30 37232 C 3650.09 2.28659 -1.56877 0
M  V30 37233 H 3653.05 0.986096 -1.24346 0
M  V30 37234 H 3653.07 3.68922 -0.931491 0
M  V30 37235 H 3652.58 2.90152 -2.57746 0
M  V30 37236 H 3650.68 3.71756 -0.250648 0
M  V30 37237 H 3650.79 4.34012 -2.02905 0
M  V30 37238 H 3649.16 2.34662 -0.990255 0
M  V30 37239 H 3649.94 2.17854 -2.6532 0
M  V30 37240 N 3652.39 0.868133 1.31534 0
M  V30 37241 C 3653.63 0.484627 1.98572 0
M  V30 37242 C 3653.99 -0.945037 1.67132 0
M  V30 37243 O 3655.19 -1.4338 2.27367 0
M  V30 37244 C 3653.46 0.732367 3.49816 0
M  V30 37245 S 3655.02 0.448446 4.36502 0
M  V30 37246 H 3651.84 0.180981 0.68758 0
M  V30 37247 H 3654.44 1.12376 1.59975 0
M  V30 37248 H 3653.14 1.7717 3.70188 0
M  V30 37249 H 3652.68 0.0801578 3.93318 0
M  V30 37250 H 3654.69 -0.72003 4.90948 0
M  V30 37251 N 3653.86 -1.44574 0.627389 0
M  V30 37252 C 3654.77 -2.3446 -0.0810771 0
M  V30 37253 C 3655.79 -1.52401 -0.839641 0
M  V30 37254 O 3656.97 -1.85142 -0.792751 0
M  V30 37255 C 3654.03 -3.30325 -1.0529 0
M  V30 37256 C 3653.09 -4.28291 -0.294126 0
M  V30 37257 C 3652.32 -5.19577 -1.21966 0
M  V30 37258 O 3652.55 -5.1471 -2.45825 0
M  V30 37259 O 3651.48 -5.97745 -0.706004 0
M  V30 37260 H 3655.31 -2.96484 0.658119 0
M  V30 37261 H 3652.89 -1.44285 0.38759 0
M  V30 37262 H 3654.77 -3.89344 -1.61211 0
M  V30 37263 H 3653.45 -2.7084 -1.77278 0
M  V30 37264 H 3652.36 -3.7283 0.308034 0
M  V30 37265 H 3653.69 -4.90687 0.385653 0
M  V30 37266 N 3655.34 -0.367711 -1.5325 0
M  V30 37267 C 3656.62 0.277808 -1.93617 0
M  V30 37268 C 3657 1.66211 -1.30143 0
M  V30 37269 O 3656.35 2.23795 -0.461316 0
M  V30 37270 C 3656.56 0.325876 -3.47475 0
M  V30 37271 C 3657.9 0.565202 -4.20821 0
M  V30 37272 O 3658.93 0.406995 -3.53867 0
M  V30 37273 O 3657.79 0.873427 -5.39475 0
M  V30 37274 H 3654.88 0.167144 -0.809933 0
M  V30 37275 H 3657.43 -0.42065 -1.64404 0
M  V30 37276 H 3656.2 -0.644609 -3.85954 0
M  V30 37277 H 3655.82 1.07014 -3.82928 0
M  V30 37278 N 3656.82 1.57302 -0.0969353 0
M  V30 37279 C 3658.04 1.99182 0.578051 0
M  V30 37280 C 3658.47 0.975695 1.60816 0
M  V30 37281 O 3657.83 -0.0555736 1.81215 0
M  V30 37282 C 3657.88 3.40023 1.2007 0
M  V30 37283 O 3656.98 3.41192 2.3165 0
M  V30 37284 H 3656.32 0.647638 0.146494 0
M  V30 37285 H 3658.85 2.03816 -0.17889 0
M  V30 37286 H 3658.86 3.77757 1.54156 0
M  V30 37287 H 3657.54 4.13501 0.446042 0
M  V30 37288 H 3656.11 3.15255 1.99169 0
M  V30 37289 N 3658.3 -0.176766 1.56606 0
M  V30 37290 C 3659.54 -0.900826 1.83479 0
M  V30 37291 C 3659.9 -1.79665 0.677083 0
M  V30 37292 O 3661.1 -2.5579 0.826136 0
M  V30 37293 C 3659.37 -1.68012 3.15447 0
M  V30 37294 S 3660.93 -2.45369 3.63785 0
M  V30 37295 H 3657.75 -0.301812 0.643763 0
M  V30 37296 H 3660.35 -0.162853 1.94821 0
M  V30 37297 H 3659.06 -1.01295 3.97703 0
M  V30 37298 H 3658.59 -2.45957 3.07032 0
M  V30 37299 H 3660.6 -3.69954 3.30678 0
M  V30 37300 N 3659.78 -1.51183 -0.445132 0
M  V30 37301 C 3661.19 -1.39185 -0.780999 0
M  V30 37302 C 3661.39 -0.468111 -1.95987 0
M  V30 37303 O 3660.45 0.0796379 -2.52374 0
M  V30 37304 C 3661.76 -2.81069 -1.06869 0
M  V30 37305 C 3663.31 -2.90165 -1.17359 0
M  V30 37306 C 3663.78 -4.32939 -1.49426 0
M  V30 37307 N 3665.27 -4.36009 -1.56366 0
M  V30 37308 C 3666.01 -5.43503 -1.82734 0
M  V30 37309 N 3665.51 -6.61169 -2.06947 0
M  V30 37310 N 3667.3 -5.30975 -1.84451 0
M  V30 37311 H 3659.45 -2.09799 0.331384 0
M  V30 37312 H 3661.71 -0.944107 0.0858268 0
M  V30 37313 H 3661.42 -3.50621 -0.275245 0
M  V30 37314 H 3661.29 -3.19917 -1.99833 0
M  V30 37315 H 3663.68 -2.20815 -1.95767 0
M  V30 37316 H 3663.76 -2.54825 -0.223135 0
M  V30 37317 H 3663.4 -5.02835 -0.715485 0
M  V30 37318 H 3663.33 -4.65786 -2.45664 0
M  V30 37319 H 3665.83 -3.51174 -1.39589 0
M  V30 37320 H 3666.14 -7.38889 -2.26414 0
M  V30 37321 H 3664.48 -6.64299 -2.04285 0
M  V30 37322 H 3667.67 -4.38037 -1.65049 0
M  V30 37323 H 3667.85 -6.14831 -2.04664 0
M  V30 37324 N 3661.25 0.700065 -1.41198 0
M  V30 37325 C 3662.48 1.49397 -1.43858 0
M  V30 37326 C 3662.9 1.88048 -0.0442208 0
M  V30 37327 O 3662.26 1.54326 0.951476 0
M  V30 37328 C 3662.31 2.7358 -2.34918 0
M  V30 37329 O 3661.41 3.70893 -1.80312 0
M  V30 37330 H 3660.75 0.449824 -0.48842 0
M  V30 37331 H 3663.28 0.860879 -1.85607 0
M  V30 37332 H 3663.29 3.21938 -2.50639 0
M  V30 37333 H 3661.97 2.44785 -3.36234 0
M  V30 37334 H 3660.55 3.29806 -1.74018 0
M  V30 37335 N 3662.73 1.26951 0.933869 0
M  V30 37336 C 3663.98 1.12704 1.67757 0
M  V30 37337 C 3664.3 -0.328815 1.92208 0
M  V30 37338 O 3663.57 -1.23094 1.52396 0
M  V30 37339 H 3662.15 0.414091 0.621722 0
M  V30 37340 H 3664.81 1.59388 1.12167 0
M  V30 37341 H 3663.91 1.6514 2.64831 0
M  V30 37342 N 3664.21 -1.13949 1.08873 0
M  V30 37343 C 3665.46 -1.85096 0.821319 0
M  V30 37344 C 3665.78 -1.83211 -0.652987 0
M  V30 37345 O 3665.04 -1.26136 -1.49627 0
M  V30 37346 C 3665.34 -3.33133 1.29449 0
M  V30 37347 C 3665 -3.55203 2.77743 0
M  V30 37348 C 3663.67 -3.60935 3.18244 0
M  V30 37349 C 3666.02 -3.63638 3.73386 0
M  V30 37350 C 3663.35 -3.72629 4.53172 0
M  V30 37351 C 3665.7 -3.76858 5.08095 0
M  V30 37352 C 3664.36 -3.8084 5.48194 0
M  V30 37353 H 3663.63 -0.677315 0.300542 0
M  V30 37354 H 3666.28 -1.34565 1.36251 0
M  V30 37355 H 3664.58 -3.85977 0.672987 0
M  V30 37356 H 3666.28 -3.86619 1.06427 0
M  V30 37357 H 3662.87 -3.51393 2.45399 0
M  V30 37358 H 3667.06 -3.58495 3.43213 0
M  V30 37359 H 3662.31 -3.73976 4.83686 0
M  V30 37360 H 3666.49 -3.82327 5.82065 0
M  V30 37361 H 3664.11 -3.89654 6.52743 0
M  V30 37362 N 3665.69 -0.875096 -1.31072 0
M  V30 37363 C 3666.92 -0.503214 -2.00687 0
M  V30 37364 C 3667.33 0.905685 -1.65659 0
M  V30 37365 O 3666.69 1.59411 -0.888496 0
M  V30 37366 C 3666.74 -0.656722 -3.55485 0
M  V30 37367 O 3666.46 -2.01014 -3.89262 0
M  V30 37368 C 3667.96 -0.286528 -4.42373 0
M  V30 37369 H 3665.18 -0.195523 -0.641881 0
M  V30 37370 H 3667.72 -1.17767 -1.67186 0
M  V30 37371 H 3665.88 -0.0297533 -3.87389 0
M  V30 37372 H 3666.29 -2.02161 -4.83974 0
M  V30 37373 H 3667.77 -0.444872 -5.50204 0
M  V30 37374 H 3668.24 0.774713 -4.32313 0
M  V30 37375 H 3668.85 -0.88941 -4.15896 0
M  V30 37376 N 3667.17 1.44239 -0.635047 0
M  V30 37377 C 3668.4 2.06069 -0.148081 0
M  V30 37378 C 3668.8 1.4756 1.18417 0
M  V30 37379 O 3668.15 0.594455 1.73816 0
M  V30 37380 C 3668.21 3.59481 0.0368961 0
M  V30 37381 C 3667.87 4.40475 -1.2178 0
M  V30 37382 C 3668.87 4.73705 -2.14241 0
M  V30 37383 C 3666.56 4.80786 -1.45431 0
M  V30 37384 C 3668.55 5.46134 -3.28659 0
M  V30 37385 C 3666.24 5.52962 -2.60146 0
M  V30 37386 C 3667.23 5.85556 -3.51586 0
M  V30 37387 O 3666.92 6.56262 -4.64301 0
M  V30 37388 H 3666.65 0.671399 -0.0787349 0
M  V30 37389 H 3669.21 1.86034 -0.870671 0
M  V30 37390 H 3667.44 3.78021 0.814672 0
M  V30 37391 H 3669.13 4.03065 0.478913 0
M  V30 37392 H 3669.89 4.43098 -1.97204 0
M  V30 37393 H 3665.77 4.54834 -0.751458 0
M  V30 37394 H 3669.32 5.71492 -4.00053 0
M  V30 37395 H 3665.21 5.82986 -2.77124 0
M  V30 37396 H 3665.98 6.74734 -4.63332 0
M  V30 37397 N 3668.64 0.375833 1.53053 0
M  V30 37398 C 3669.89 -0.21095 2.017 0
M  V30 37399 C 3670.22 -1.47579 1.26231 0
M  V30 37400 O 3669.5 -1.9116 0.358903 0
M  V30 37401 C 3669.78 -0.492534 3.56716 0
M  V30 37402 C 3669.63 0.78665 4.42868 0
M  V30 37403 C 3670.95 -1.28884 4.20805 0
M  V30 37404 H 3668.07 -0.0751955 0.733154 0
M  V30 37405 H 3670.71 0.502747 1.83228 0
M  V30 37406 H 3668.86 -1.10052 3.72587 0
M  V30 37407 H 3670.54 1.42389 4.38775 0
M  V30 37408 H 3668.78 1.40485 4.10422 0
M  V30 37409 H 3669.45 0.544451 5.49308 0
M  V30 37410 H 3671.93 -0.774426 4.0883 0
M  V30 37411 H 3670.8 -1.4546 5.29276 0
M  V30 37412 H 3671.06 -2.30026 3.77545 0
M  V30 37413 N 3670.12 -1.57248 0.105276 0
M  V30 37414 C 3671.05 -2.17601 -0.846877 0
M  V30 37415 C 3672.03 -1.11218 -1.28704 0
M  V30 37416 O 3673.22 -1.39398 -1.3521 0
M  V30 37417 C 3670.35 -2.76448 -2.10223 0
M  V30 37418 C 3669.3 -3.88293 -1.80034 0
M  V30 37419 C 3668.63 -4.33888 -3.12483 0
M  V30 37420 C 3669.93 -5.11026 -1.07934 0
M  V30 37421 H 3671.62 -2.97417 -0.344 0
M  V30 37422 H 3669.17 -1.43063 -0.16402 0
M  V30 37423 H 3671.12 -3.17324 -2.77278 0
M  V30 37424 H 3669.85 -1.93901 -2.62811 0
M  V30 37425 H 3668.5 -3.47972 -1.15373 0
M  V30 37426 H 3668.15 -3.48218 -3.62979 0
M  V30 37427 H 3667.85 -5.09301 -2.93063 0
M  V30 37428 H 3669.38 -4.77404 -3.8068 0
M  V30 37429 H 3670.79 -5.49007 -1.65118 0
M  V30 37430 H 3669.19 -5.91935 -0.98657 0
M  V30 37431 H 3670.26 -4.84858 -0.0637659 0
M  V30 37432 N 3671.6 0.168458 -1.56697 0
M  V30 37433 C 3672.55 1.21322 -1.93042 0
M  V30 37434 C 3673.53 1.39656 -0.799064 0
M  V30 37435 O 3674.73 1.41579 -1.06228 0
M  V30 37436 C 3671.86 2.55199 -2.29627 0
M  V30 37437 C 3670.94 2.40547 -3.49282 0
M  V30 37438 N 3671.33 1.95613 -4.66443 0
M  V30 37439 C 3669.63 2.71365 -3.53945 0
M  V30 37440 C 3670.33 1.93493 -5.48576 0
M  V30 37441 N 3669.31 2.36004 -4.89697 0
M  V30 37442 H 3673.11 0.857561 -2.8111 0
M  V30 37443 H 3670.62 0.376707 -1.57971 0
M  V30 37444 H 3672.62 3.30697 -2.5386 0
M  V30 37445 H 3671.28 2.91565 -1.42898 0
M  V30 37446 H 3672.29 1.65907 -4.90607 0
M  V30 37447 H 3668.97 3.11749 -2.77702 0
M  V30 37448 H 3670.36 1.60427 -6.52467 0
M  V30 37449 N 3673.08 1.51417 0.437109 0
M  V30 37450 C 3673.99 1.75592 1.55578 0
M  V30 37451 C 3675 0.64016 1.61796 0
M  V30 37452 O 3676.18 0.922437 1.79034 0
M  V30 37453 C 3673.25 1.87603 2.91558 0
M  V30 37454 C 3672.31 3.11456 2.95455 0
M  V30 37455 C 3671.54 3.22885 4.24948 0
M  V30 37456 O 3671.76 2.40247 5.17337 0
M  V30 37457 O 3670.7 4.15864 4.35133 0
M  V30 37458 H 3674.52 2.70488 1.38093 0
M  V30 37459 H 3672.11 1.35921 0.620139 0
M  V30 37460 H 3673.99 1.97488 3.72259 0
M  V30 37461 H 3672.66 0.958944 3.0917 0
M  V30 37462 H 3671.57 3.0705 2.13708 0
M  V30 37463 H 3672.9 4.02855 2.82787 0
M  V30 37464 N 3674.56 -0.692567 1.41567 0
M  V30 37465 C 3675.8 -1.44975 1.40807 0
M  V30 37466 C 3676.13 -1.94991 0.0191382 0
M  V30 37467 O 3675.4 -1.71901 -0.939513 0
M  V30 37468 H 3673.98 -0.537933 0.518302 0
M  V30 37469 H 3676.64 -0.819529 1.76833 0
M  V30 37470 H 3675.73 -2.31145 2.0971 0
M  V30 37471 N 3676.03 -1.27445 -0.927123 0
M  V30 37472 C 3676.94 -1.12035 -2.0612 0
M  V30 37473 C 3677.96 -0.0502284 -1.73927 0
M  V30 37474 O 3679.14 -0.256831 -1.99756 0
M  V30 37475 C 3676.2 -0.769693 -3.38048 0
M  V30 37476 C 3675.26 -1.92075 -3.83935 0
M  V30 37477 C 3674.5 -1.58673 -5.09567 0
M  V30 37478 O 3674.72 -0.494889 -5.68249 0
M  V30 37479 O 3673.65 -2.42609 -5.5084 0
M  V30 37480 H 3677.48 -2.07207 -2.22034 0
M  V30 37481 H 3675.06 -1.06638 -1.04636 0
M  V30 37482 H 3676.95 -0.587496 -4.17285 0
M  V30 37483 H 3675.62 0.1525 -3.23341 0
M  V30 37484 H 3674.53 -2.15801 -3.05583 0
M  V30 37485 H 3675.86 -2.82317 -4.03185 0
M  V30 37486 N 3677.51 1.1337 -1.09476 0
M  V30 37487 C 3678.75 1.86307 -0.840786 0
M  V30 37488 C 3679.12 1.81636 0.622295 0
M  V30 37489 O 3680.32 2.49817 0.992221 0
M  V30 37490 C 3678.59 3.30436 -1.36186 0
M  V30 37491 S 3680.15 4.20861 -1.24183 0
M  V30 37492 H 3676.97 0.642694 -0.304082 0
M  V30 37493 H 3679.57 1.36636 -1.39824 0
M  V30 37494 H 3678.27 3.3139 -2.42092 0
M  V30 37495 H 3677.8 3.85168 -0.800553 0
M  V30 37496 H 3679.82 4.95824 -0.193108 0
M  V30 37497 N 3678.99 0.882035 1.30606 0
M  V30 37498 C 3680.23 0.505661 1.98047 0
M  V30 37499 C 3680.59 -0.927257 1.68125 0
M  V30 37500 O 3681.8 -1.4096 2.28875 0
M  V30 37501 C 3680.07 0.769428 3.49019 0
M  V30 37502 S 3681.63 0.494718 4.36002 0
M  V30 37503 H 3678.44 0.188264 0.685622 0
M  V30 37504 H 3681.05 1.14067 1.58774 0
M  V30 37505 H 3679.75 1.81086 3.68288 0
M  V30 37506 H 3679.28 0.12187 3.93211 0
M  V30 37507 H 3681.3 -0.667918 4.91684 0
M  V30 37508 N 3680.47 -1.439 0.642688 0
M  V30 37509 C 3681.72 -2.01531 0.151513 0
M  V30 37510 C 3682.04 -1.50893 -1.23516 0
M  V30 37511 O 3681.31 -0.717229 -1.82298 0
M  V30 37512 H 3679.89 -0.745116 0.0530222 0
M  V30 37513 H 3682.55 -1.7625 0.831989 0
M  V30 37514 H 3681.65 -3.11837 0.12805 0
M  V30 37515 N 3681.95 -0.383945 -1.52852 0
M  V30 37516 C 3683.36 -0.0336671 -1.59564 0
M  V30 37517 C 3683.56 1.45094 -1.39821 0
M  V30 37518 O 3682.62 2.21481 -1.21253 0
M  V30 37519 C 3683.93 -0.506053 -2.96411 0
M  V30 37520 C 3685.48 -0.461849 -3.09574 0
M  V30 37521 C 3685.96 -0.910338 -4.48862 0
M  V30 37522 N 3687.45 -0.866133 -4.5503 0
M  V30 37523 C 3688.18 -1.18463 -5.61029 0
M  V30 37524 N 3687.68 -1.57333 -6.74699 0
M  V30 37525 N 3689.47 -1.10623 -5.51107 0
M  V30 37526 H 3681.62 -1.35052 -1.63935 0
M  V30 37527 H 3683.88 -0.553208 -0.769848 0
M  V30 37528 H 3683.59 -1.54273 -3.16058 0
M  V30 37529 H 3683.46 0.0976981 -3.77073 0
M  V30 37530 H 3685.85 0.565735 -2.89626 0
M  V30 37531 H 3685.93 -1.10133 -2.30877 0
M  V30 37532 H 3685.58 -1.93613 -4.69549 0
M  V30 37533 H 3685.51 -0.247917 -5.26016 0
M  V30 37534 H 3688 -0.580028 -3.73422 0
M  V30 37535 H 3688.31 -1.80013 -7.51542 0
M  V30 37536 H 3686.66 -1.61215 -6.76043 0
M  V30 37537 H 3689.85 -0.801612 -4.61185 0
M  V30 37538 H 3690.02 -1.35777 -6.33616 0
M  V30 37539 N 3683.43 1.5719 -0.113614 0
M  V30 37540 C 3684.67 1.96894 0.548837 0
M  V30 37541 C 3685.03 0.995279 1.6419 0
M  V30 37542 O 3686.23 1.28149 2.36286 0
M  V30 37543 C 3684.5 3.40921 1.07273 0
M  V30 37544 S 3686.06 4.02634 1.74446 0
M  V30 37545 H 3682.88 0.688215 0.178553 0
M  V30 37546 H 3685.48 1.94501 -0.197416 0
M  V30 37547 H 3684.18 4.09537 0.265947 0
M  V30 37548 H 3683.72 3.46953 1.85438 0
M  V30 37549 H 3685.73 3.92951 3.02991 0
M  V30 37550 N 3684.9 -0.160146 1.56784 0
M  V30 37551 C 3685.83 -1.20009 2.003 0
M  V30 37552 C 3686.81 -1.45545 0.880382 0
M  V30 37553 O 3688 -1.56689 1.14726 0
M  V30 37554 C 3685.13 -2.5364 2.37242 0
M  V30 37555 C 3684.08 -2.42652 3.52568 0
M  V30 37556 C 3683.41 -3.80875 3.75284 0
M  V30 37557 C 3684.71 -1.92174 4.85661 0
M  V30 37558 H 3686.4 -0.838311 2.87424 0
M  V30 37559 H 3683.95 -0.401813 1.3828 0
M  V30 37560 H 3685.9 -3.26605 2.66284 0
M  V30 37561 H 3684.63 -2.91628 1.4704 0
M  V30 37562 H 3683.29 -1.7214 3.23672 0
M  V30 37563 H 3682.93 -4.16275 2.82354 0
M  V30 37564 H 3682.63 -3.74388 4.52888 0
M  V30 37565 H 3684.16 -4.55408 4.06738 0
M  V30 37566 H 3685.57 -2.54922 5.13505 0
M  V30 37567 H 3683.97 -1.96609 5.66979 0
M  V30 37568 H 3685.04 -0.876658 4.7691 0
M  V30 37569 N 3686.38 -1.51647 -0.429072 0
M  V30 37570 C 3687.79 -1.57109 -1.00865 0
M  V30 37571 C 3688.14 -0.399517 -1.92089 0
M  V30 37572 O 3687.27 0.482672 -2.10948 0
M  V30 37573 C 3687.86 -2.84735 -1.83607 0
M  V30 37574 C 3686.42 -2.92741 -2.366 0
M  V30 37575 C 3685.57 -2.51855 -1.16035 0
M  V30 37576 H 3688.52 -1.57304 -0.210032 0
M  V30 37577 H 3688.54 -2.68964 -2.69145 0
M  V30 37578 H 3688.05 -3.69985 -1.17186 0
M  V30 37579 H 3686.15 -2.1194 -3.06451 0
M  V30 37580 H 3686.27 -3.96569 -2.68831 0
M  V30 37581 H 3684.63 -2.05243 -1.50823 0
M  V30 37582 H 3685.41 -3.39459 -0.512121 0
M  V30 37583 N 3687.86 0.685049 -1.41932 0
M  V30 37584 C 3689.08 1.47863 -1.45435 0
M  V30 37585 C 3689.51 1.87991 -0.0641633 0
M  V30 37586 O 3688.87 1.55327 0.935054 0
M  V30 37587 C 3688.92 2.71073 -2.37806 0
M  V30 37588 O 3688.02 3.68959 -1.84235 0
M  V30 37589 H 3687.36 0.444619 -0.493164 0
M  V30 37590 H 3689.89 0.841144 -1.8651 0
M  V30 37591 H 3689.9 3.19262 -2.54039 0
M  V30 37592 H 3688.58 2.41205 -3.38811 0
M  V30 37593 H 3687.15 3.27942 -1.77506 0
M  V30 37594 N 3689.34 1.27935 0.920351 0
M  V30 37595 C 3690.3 1.11325 2.00348 0
M  V30 37596 C 3691.3 0.0549414 1.60706 0
M  V30 37597 O 3692.49 0.300164 1.71594 0
M  V30 37598 C 3689.62 0.697879 3.3368 0
M  V30 37599 H 3690.82 2.07513 2.16514 0
M  V30 37600 H 3688.37 1.10827 1.10214 0
M  V30 37601 H 3689.1 -0.265065 3.23215 0
M  V30 37602 H 3688.89 1.46229 3.63812 0
M  V30 37603 H 3690.38 0.60412 4.13207 0
M  V30 37604 N 3690.82 -1.12788 1.10076 0
M  V30 37605 C 3692.06 -1.85858 0.850654 0
M  V30 37606 C 3692.42 -1.81963 -0.612653 0
M  V30 37607 O 3693.62 -2.50339 -0.978959 0
M  V30 37608 C 3691.89 -3.29709 1.37936 0
M  V30 37609 S 3693.45 -4.20196 1.26413 0
M  V30 37610 H 3690.27 -0.641072 0.307486 0
M  V30 37611 H 3692.87 -1.35893 1.40547 0
M  V30 37612 H 3691.57 -3.30102 2.43846 0
M  V30 37613 H 3691.11 -3.84738 0.820968 0
M  V30 37614 H 3693.12 -4.95715 0.2194 0
M  V30 37615 N 3692.29 -0.888949 -1.30136 0
M  V30 37616 C 3693.2 -0.362841 -2.31777 0
M  V30 37617 C 3694.22 0.536951 -1.65508 0
M  V30 37618 O 3695.4 0.429117 -1.96775 0
M  V30 37619 C 3692.46 0.410612 -3.4426 0
M  V30 37620 C 3691.52 -0.519409 -4.26146 0
M  V30 37621 C 3690.75 0.217226 -5.33258 0
M  V30 37622 O 3690.98 1.44274 -5.51852 0
M  V30 37623 O 3689.91 -0.434716 -6.00328 0
M  V30 37624 H 3693.74 -1.2058 -2.78737 0
M  V30 37625 H 3691.32 -0.652913 -1.34378 0
M  V30 37626 H 3693.2 0.848395 -4.12771 0
M  V30 37627 H 3691.88 1.22981 -2.99428 0
M  V30 37628 H 3690.79 -1.00608 -3.60318 0
M  V30 37629 H 3692.12 -1.30472 -4.74592 0
M  V30 37630 N 3693.77 1.43557 -0.65031 0
M  V30 37631 C 3695.02 2.02146 -0.162761 0
M  V30 37632 C 3695.35 1.51169 1.21909 0
M  V30 37633 O 3694.63 0.703595 1.81328 0
M  V30 37634 C 3694.91 3.59697 -0.170419 0
M  V30 37635 C 3694.76 4.20912 -1.58597 0
M  V30 37636 C 3696.08 4.3731 0.494755 0
M  V30 37637 H 3693.2 0.734503 -0.0606184 0
M  V30 37638 H 3695.84 1.70891 -0.830441 0
M  V30 37639 H 3693.99 3.86455 0.398122 0
M  V30 37640 H 3695.66 4.05195 -2.20488 0
M  V30 37641 H 3693.91 3.77673 -2.13414 0
M  V30 37642 H 3694.58 5.2999 -1.54321 0
M  V30 37643 H 3697.05 4.16099 0.011055 0
M  V30 37644 H 3695.93 5.4698 0.458657 0
M  V30 37645 H 3696.19 4.13345 1.56839 0
M  V30 37646 N 3695.25 0.392045 1.52646 0
M  V30 37647 C 3696.5 -0.189545 2.01912 0
M  V30 37648 C 3696.83 -1.46231 1.27789 0
M  V30 37649 O 3696.1 -1.90769 0.379157 0
M  V30 37650 C 3696.39 -0.454672 3.57218 0
M  V30 37651 C 3696.24 0.833578 4.42008 0
M  V30 37652 C 3697.56 -1.24413 4.22149 0
M  V30 37653 H 3694.68 -0.0674152 0.73391 0
M  V30 37654 H 3697.32 0.522153 1.82684 0
M  V30 37655 H 3695.47 -1.06094 3.73733 0
M  V30 37656 H 3697.14 1.47035 4.3724 0
M  V30 37657 H 3695.38 1.4483 4.08909 0
M  V30 37658 H 3696.06 0.602681 5.487 0
M  V30 37659 H 3698.53 -0.731021 4.09628 0
M  V30 37660 H 3697.41 -1.39838 5.30789 0
M  V30 37661 H 3697.67 -2.26009 3.79964 0
M  V30 37662 N 3696.73 -1.57127 0.121948 0
M  V30 37663 C 3697.96 -1.99648 -0.542977 0
M  V30 37664 C 3698.37 -1.00168 -1.60037 0
M  V30 37665 O 3697.73 0.0050148 -1.82499 0
M  V30 37666 C 3697.78 -3.42164 -1.16644 0
M  V30 37667 O 3697.5 -4.37839 -0.151308 0
M  V30 37668 C 3699 -3.99832 -1.9144 0
M  V30 37669 H 3696.22 -0.655473 -0.143513 0
M  V30 37670 H 3698.77 -2.03428 0.209156 0
M  V30 37671 H 3696.92 -3.39315 -1.86933 0
M  V30 37672 H 3697.33 -5.21003 -0.604682 0
M  V30 37673 H 3698.81 -5.01624 -2.30386 0
M  V30 37674 H 3699.29 -3.39138 -2.79074 0
M  V30 37675 H 3699.89 -4.06236 -1.25906 0
M  V30 37676 N 3698.21 0.151829 -1.56867 0
M  V30 37677 C 3699.45 0.863543 -1.82722 0
M  V30 37678 C 3699.78 1.81923 -0.702074 0
M  V30 37679 O 3699.05 1.93937 0.276646 0
M  V30 37680 H 3697.63 0.321881 -0.674093 0
M  V30 37681 H 3700.29 0.146986 -1.94345 0
M  V30 37682 H 3699.38 1.42871 -2.77479 0
M  V30 37683 N 3699.68 1.51872 0.421024 0
M  V30 37684 C 3700.91 1.69467 1.19565 0
M  V30 37685 C 3701.33 0.398301 1.83835 0
M  V30 37686 O 3700.69 -0.643142 1.69509 0
M  V30 37687 C 3700.74 2.82325 2.24332 0
M  V30 37688 O 3699.84 2.47065 3.30201 0
M  V30 37689 H 3699.19 0.564533 0.349569 0
M  V30 37690 H 3701.72 1.98518 0.495142 0
M  V30 37691 H 3701.73 3.0689 2.68855 0
M  V30 37692 H 3700.4 3.76387 1.76934 0
M  V30 37693 H 3698.98 2.3313 2.91041 0
M  V30 37694 N 3701.16 -0.677513 1.42294 0
M  V30 37695 C 3702.57 -1.25803 1.37951 0
M  V30 37696 C 3702.92 -1.9607 0.0714425 0
M  V30 37697 O 3702.05 -1.99855 -0.829886 0
M  V30 37698 C 3702.64 -2.28793 2.49879 0
M  V30 37699 C 3701.2 -2.82378 2.48877 0
M  V30 37700 C 3700.35 -1.56661 2.28807 0
M  V30 37701 H 3703.3 -0.471075 1.51547 0
M  V30 37702 H 3703.32 -3.1047 2.19974 0
M  V30 37703 H 3702.83 -1.77623 3.45068 0
M  V30 37704 H 3700.94 -3.37676 1.57498 0
M  V30 37705 H 3701.05 -3.31578 3.45822 0
M  V30 37706 H 3699.41 -1.83132 1.77017 0
M  V30 37707 H 3700.2 -1.07461 3.26048 0
M  V30 37708 N 3702.64 -1.28421 -0.913554 0
M  V30 37709 C 3704.06 -1.06132 -1.19198 0
M  V30 37710 C 3704.26 0.196197 -2.00543 0
M  V30 37711 O 3703.31 0.897811 -2.35999 0
M  V30 37712 C 3704.63 -2.30892 -1.92638 0
M  V30 37713 C 3706.17 -2.36073 -2.0552 0
M  V30 37714 C 3706.65 -3.606 -2.82368 0
M  V30 37715 N 3708.14 -3.61241 -2.89929 0
M  V30 37716 C 3708.87 -4.54273 -3.49891 0
M  V30 37717 N 3708.37 -5.57623 -4.11131 0
M  V30 37718 N 3710.16 -4.41868 -3.47432 0
M  V30 37719 H 3702.31 -2.09144 -0.370473 0
M  V30 37720 H 3704.58 -0.92053 -0.226556 0
M  V30 37721 H 3704.28 -3.22507 -1.40294 0
M  V30 37722 H 3704.16 -2.37321 -2.93187 0
M  V30 37723 H 3706.54 -1.44956 -2.57044 0
M  V30 37724 H 3706.63 -2.33639 -1.04146 0
M  V30 37725 H 3706.27 -4.52062 -2.31523 0
M  V30 37726 H 3706.2 -3.60289 -3.84057 0
M  V30 37727 H 3708.69 -2.86506 -2.46419 0
M  V30 37728 H 3709 -6.24754 -4.54866 0
M  V30 37729 H 3707.35 -5.61449 -4.09635 0
M  V30 37730 H 3710.54 -3.60328 -2.98799 0
M  V30 37731 H 3710.71 -5.14558 -3.93871 0
M  V30 37732 N 3704.12 1.12202 -1.10672 0
M  V30 37733 C 3705.37 1.83403 -0.848982 0
M  V30 37734 C 3705.69 1.84638 0.627208 0
M  V30 37735 O 3704.96 1.31125 1.45544 0
M  V30 37736 H 3703.54 0.679143 -0.311086 0
M  V30 37737 H 3706.2 1.35853 -1.39749 0
M  V30 37738 H 3705.3 2.8752 -1.21403 0
M  V30 37739 N 3705.6 0.895838 1.29663 0
M  V30 37740 C 3706.87 0.439427 1.906 0
M  V30 37741 C 3707.25 -1.08065 1.81343 0
M  V30 37742 O 3706.6 -1.9208 1.23765 0
M  V30 37743 C 3706.81 0.949681 3.3583 0
M  V30 37744 C 3708.16 0.991088 4.12871 0
M  V30 37745 O 3709.18 0.897085 3.44718 0
M  V30 37746 O 3708.04 1.1317 5.34654 0
M  V30 37747 H 3705.14 0.136318 0.815688 0
M  V30 37748 H 3707.68 0.98545 1.38156 0
M  V30 37749 H 3706.45 1.99363 3.36705 0
M  V30 37750 H 3706.08 0.383445 3.95747 0
M  V30 37751 N 3707.07 -1.43211 0.657914 0
M  V30 37752 C 3708.3 -2.06622 0.17948 0
M  V30 37753 C 3708.72 -1.49017 -1.14785 0
M  V30 37754 O 3708.08 -0.60195 -1.71015 0
M  V30 37755 C 3708.13 -3.60442 0.106889 0
M  V30 37756 O 3707.23 -4.01787 -0.929549 0
M  V30 37757 H 3706.58 -0.656873 0.0970246 0
M  V30 37758 H 3709.11 -1.83636 0.902165 0
M  V30 37759 H 3709.12 -4.07931 -0.0748783 0
M  V30 37760 H 3707.79 -4.01745 1.07581 0
M  V30 37761 H 3706.37 -3.65879 -0.72019 0
M  V30 37762 N 3708.55 -0.400135 -1.52436 0
M  V30 37763 C 3709.48 0.464999 -2.24434 0
M  V30 37764 C 3710.5 1.01771 -1.27069 0
M  V30 37765 O 3711.69 0.918188 -1.53074 0
M  V30 37766 C 3708.79 1.65827 -2.95558 0
M  V30 37767 C 3707.96 1.23103 -4.19719 0
M  V30 37768 C 3707.02 2.2902 -4.73747 0
M  V30 37769 O 3706.04 1.8998 -5.3656 0
M  V30 37770 N 3707.25 3.61072 -4.5454 0
M  V30 37771 H 3710.01 -0.151891 -2.99315 0
M  V30 37772 H 3707.57 -0.227047 -1.603 0
M  V30 37773 H 3709.56 2.3623 -3.28599 0
M  V30 37774 H 3708.13 2.18127 -2.23918 0
M  V30 37775 H 3707.35 0.355468 -3.92594 0
M  V30 37776 H 3708.64 0.922399 -5.00369 0
M  V30 37777 H 3708.04 3.95545 -4.04426 0
M  V30 37778 H 3706.6 4.27478 -4.92043 0
M  V30 37779 N 3710.03 1.57061 -0.13028 0
M  V30 37780 C 3711.26 2.00363 0.535672 0
M  V30 37781 C 3711.68 1.00959 1.5871 0
M  V30 37782 O 3711.04 -0.0171227 1.81292 0
M  V30 37783 C 3711.09 3.42493 1.1283 0
M  V30 37784 O 3710.19 3.46029 2.24361 0
M  V30 37785 H 3709.53 0.6506 0.132724 0
M  V30 37786 H 3712.06 2.03391 -0.222083 0
M  V30 37787 H 3712.07 3.80941 1.46108 0
M  V30 37788 H 3710.75 4.14354 0.358231 0
M  V30 37789 H 3709.32 3.19409 1.92438 0
M  V30 37790 N 3711.51 -0.143508 1.56945 0
M  V30 37791 C 3712.73 -0.874352 1.88069 0
M  V30 37792 C 3713.16 -1.73788 0.719676 0
M  V30 37793 O 3712.52 -1.7826 -0.330622 0
M  V30 37794 C 3712.57 -1.70402 3.17798 0
M  V30 37795 O 3711.67 -2.80862 3.01978 0
M  V30 37796 H 3711.01 -0.243319 0.617812 0
M  V30 37797 H 3713.54 -0.133273 2.04165 0
M  V30 37798 H 3713.55 -2.09832 3.49906 0
M  V30 37799 H 3712.23 -1.06994 4.01902 0
M  V30 37800 H 3710.8 -2.44813 2.81284 0
M  V30 37801 N 3712.99 -1.52093 -0.412964 0
M  V30 37802 C 3714.23 -1.67166 -1.15875 0
M  V30 37803 C 3714.59 -0.394805 -1.88306 0
M  V30 37804 O 3713.88 0.610582 -1.81611 0
M  V30 37805 C 3714.08 -2.82971 -2.18316 0
M  V30 37806 C 3713.9 -4.21796 -1.55944 0
M  V30 37807 C 3712.67 -4.87378 -1.3338 0
M  V30 37808 C 3714.87 -5.04035 -1.0224 0
M  V30 37809 N 3712.85 -6.10248 -0.668609 0
M  V30 37810 C 3714.23 -6.18109 -0.483902 0
M  V30 37811 C 3716.28 -4.89392 -0.916497 0
M  V30 37812 C 3714.98 -7.19143 0.15012 0
M  V30 37813 C 3717.01 -5.90657 -0.296334 0
M  V30 37814 C 3716.37 -7.04019 0.231507 0
M  V30 37815 H 3712.47 -0.665392 -0.410825 0
M  V30 37816 H 3715.05 -1.89388 -0.451694 0
M  V30 37817 H 3713.23 -2.62372 -2.86384 0
M  V30 37818 H 3714.96 -2.871 -2.85229 0
M  V30 37819 H 3711.71 -4.45673 -1.60227 0
M  V30 37820 H 3712.14 -6.7608 -0.352748 0
M  V30 37821 H 3716.78 -4.0198 -1.31042 0
M  V30 37822 H 3714.5 -8.06184 0.556113 0
M  V30 37823 H 3718.08 -5.81399 -0.215962 0
M  V30 37824 H 3716.96 -7.81035 0.703826 0
M  V30 37825 N 3714.47 0.669957 -1.42651 0
M  V30 37826 C 3715.41 1.78337 -1.46507 0
M  V30 37827 C 3716.38 1.63057 -0.316507 0
M  V30 37828 O 3717.57 1.83541 -0.521277 0
M  V30 37829 C 3714.71 3.16399 -1.37789 0
M  V30 37830 C 3713.82 3.42932 -2.6272 0
M  V30 37831 C 3712.96 4.70748 -2.46109 0
M  V30 37832 C 3711.99 4.90332 -3.66389 0
M  V30 37833 N 3711.13 6.09392 -3.48692 0
M  V30 37834 H 3715.97 1.74376 -2.41654 0
M  V30 37835 H 3713.51 0.851194 -1.19971 0
M  V30 37836 H 3715.47 3.96188 -1.30732 0
M  V30 37837 H 3714.1 3.19472 -0.462347 0
M  V30 37838 H 3713.15 2.57361 -2.80124 0
M  V30 37839 H 3714.46 3.53295 -3.52114 0
M  V30 37840 H 3713.61 5.58636 -2.36665 0
M  V30 37841 H 3712.35 4.62677 -1.54212 0
M  V30 37842 H 3711.36 4.00884 -3.76261 0
M  V30 37843 H 3712.58 5.00245 -4.59273 0
M  V30 37844 H 3710.53 6.02485 -2.59516 0
M  V30 37845 H 3710.45 6.20638 -4.31677 0
M  V30 37846 H 3711.71 6.99946 -3.43068 0
M  V30 37847 N 3715.94 1.28904 0.90673 0
M  V30 37848 C 3717.17 1.19455 1.69545 0
M  V30 37849 C 3717.59 -0.242386 1.86532 0
M  V30 37850 O 3716.95 -1.17519 1.38054 0
M  V30 37851 C 3717 1.90561 3.06135 0
M  V30 37852 O 3716.1 1.21786 3.94007 0
M  V30 37853 H 3715.44 0.414299 0.518895 0
M  V30 37854 H 3717.97 1.70349 1.13324 0
M  V30 37855 H 3717.98 1.98742 3.56322 0
M  V30 37856 H 3716.66 2.95079 2.93089 0
M  V30 37857 H 3715.24 1.21816 3.52442 0
M  V30 37858 N 3717.42 -1.11614 1.11266 0
M  V30 37859 C 3718.67 -1.83584 0.861671 0
M  V30 37860 C 3719 -1.84332 -0.611189 0
M  V30 37861 O 3718.28 -1.29508 -1.45114 0
M  V30 37862 C 3718.56 -3.3085 1.42163 0
M  V30 37863 C 3718.41 -3.38507 2.96198 0
M  V30 37864 C 3719.73 -4.26868 1.07106 0
M  V30 37865 H 3716.85 -0.666539 0.314475 0
M  V30 37866 H 3719.49 -1.30889 1.37724 0
M  V30 37867 H 3717.64 -3.75855 0.98312 0
M  V30 37868 H 3719.31 -3.02074 3.48639 0
M  V30 37869 H 3717.56 -2.78784 3.32358 0
M  V30 37870 H 3718.23 -4.42151 3.30465 0
M  V30 37871 H 3720.7 -3.90034 1.44959 0
M  V30 37872 H 3719.58 -5.28299 1.48966 0
M  V30 37873 H 3719.84 -4.42096 -0.0184043 0
M  V30 37874 N 3718.9 -0.902701 -1.29186 0
M  V30 37875 C 3720.15 -0.529111 -1.95051 0
M  V30 37876 C 3720.47 0.92821 -1.71491 0
M  V30 37877 O 3719.74 1.65487 -1.04837 0
M  V30 37878 H 3718.32 -0.192684 -0.721721 0
M  V30 37879 H 3720.98 -1.14965 -1.57382 0
M  V30 37880 H 3720.08 -0.714232 -3.03818 0
M  V30 37881 N 3720.38 1.4286 -0.6655 0
M  V30 37882 C 3721.6 2.06524 -0.190435 0
M  V30 37883 C 3722.03 1.49624 1.13993 0
M  V30 37884 O 3721.39 0.611011 1.70694 0
M  V30 37885 C 3721.43 3.6038 -0.126003 0
M  V30 37886 O 3720.54 4.02275 0.908229 0
M  V30 37887 H 3719.88 0.656349 -0.100507 0
M  V30 37888 H 3722.41 1.83155 -0.911891 0
M  V30 37889 H 3722.42 4.07965 0.0532436 0
M  V30 37890 H 3721.09 4.01169 -1.0971 0
M  V30 37891 H 3719.67 3.66256 0.700777 0
M  V30 37892 N 3721.86 0.408213 1.52221 0
M  V30 37893 C 3722.79 -0.45309 2.24677 0
M  V30 37894 C 3723.8 -1.01096 1.27607 0
M  V30 37895 O 3724.99 -0.910057 1.53559 0
M  V30 37896 C 3722.09 -1.64257 2.96434 0
M  V30 37897 C 3721.26 -1.20875 4.20366 0
M  V30 37898 C 3720.32 -2.26504 4.74955 0
M  V30 37899 O 3719.35 -1.87132 5.37559 0
M  V30 37900 N 3720.55 -3.58657 4.56449 0
M  V30 37901 H 3723.31 0.167762 2.9923 0
M  V30 37902 H 3720.88 0.235545 1.60177 0
M  V30 37903 H 3722.87 -2.34484 3.29848 0
M  V30 37904 H 3721.44 -2.16936 2.25072 0
M  V30 37905 H 3720.66 -0.334643 3.92777 0
M  V30 37906 H 3721.95 -0.895851 5.00851 0
M  V30 37907 H 3721.34 -3.93395 4.06518 0
M  V30 37908 H 3719.9 -4.24862 4.94303 0
M  V30 37909 N 3723.33 -1.56989 0.138607 0
M  V30 37910 C 3724.58 -1.96928 -0.509007 0
M  V30 37911 C 3724.93 -1.02177 -1.63026 0
M  V30 37912 O 3724.23 -0.0552856 -1.9152 0
M  V30 37913 C 3724.42 -3.41019 -1.06963 0
M  V30 37914 C 3724.25 -4.497 -0.00421651 0
M  V30 37915 C 3723.02 -5.0343 0.434337 0
M  V30 37916 C 3725.22 -5.08287 0.78413 0
M  V30 37917 N 3723.2 -5.95707 1.48347 0
M  V30 37918 C 3724.57 -5.96693 1.68396 0
M  V30 37919 C 3726.63 -4.90885 0.832849 0
M  V30 37920 C 3725.33 -6.69561 2.62832 0
M  V30 37921 C 3727.36 -5.64448 1.765 0
M  V30 37922 C 3726.72 -6.52555 2.65237 0
M  V30 37923 H 3722.82 -0.766422 -0.155312 0
M  V30 37924 H 3725.4 -1.93322 0.231267 0
M  V30 37925 H 3723.57 -3.45235 -1.77954 0
M  V30 37926 H 3725.3 -3.68037 -1.68317 0
M  V30 37927 H 3722.06 -4.73585 0.038183 0
M  V30 37928 H 3722.48 -6.4655 2.00754 0
M  V30 37929 H 3727.12 -4.22494 0.160889 0
M  V30 37930 H 3724.84 -7.37186 3.31032 0
M  V30 37931 H 3728.43 -5.52982 1.80839 0
M  V30 37932 H 3727.31 -7.0848 3.36193 0
M  V30 37933 N 3724.81 0.135183 -1.57019 0
M  V30 37934 C 3725.77 1.15053 -1.98231 0
M  V30 37935 C 3726.77 1.35211 -0.870319 0
M  V30 37936 O 3727.96 1.32003 -1.1367 0
M  V30 37937 C 3725.1 2.50842 -2.30849 0
M  V30 37938 H 3726.29 0.796694 -2.89124 0
M  V30 37939 H 3723.84 0.378936 -1.51637 0
M  V30 37940 H 3724.58 2.91176 -1.42784 0
M  V30 37941 H 3724.36 2.37569 -3.11935 0
M  V30 37942 H 3725.85 3.23948 -2.63529 0
M  V30 37943 N 3726.29 1.5231 0.404892 0
M  V30 37944 C 3727.52 1.70725 1.17761 0
M  V30 37945 C 3727.94 0.417777 1.83402 0
M  V30 37946 O 3727.3 -0.625127 1.70182 0
M  V30 37947 C 3727.35 2.84689 2.21325 0
M  V30 37948 O 3726.45 2.50553 3.27562 0
M  V30 37949 H 3725.79 0.568209 0.343562 0
M  V30 37950 H 3728.32 1.99032 0.474058 0
M  V30 37951 H 3728.33 3.09724 2.65584 0
M  V30 37952 H 3727.01 3.78242 1.72932 0
M  V30 37953 H 3725.58 2.36204 2.88552 0
M  V30 37954 N 3727.77 -0.662382 1.43004 0
M  V30 37955 C 3729.18 -1.24333 1.39277 0
M  V30 37956 C 3729.53 -1.95983 0.0922343 0
M  V30 37957 O 3728.66 -2.00724 -0.808642 0
M  V30 37958 C 3729.25 -2.26129 2.52291 0
M  V30 37959 C 3727.81 -2.79722 2.51858 0
M  V30 37960 C 3726.96 -1.54226 2.30456 0
M  V30 37961 H 3729.91 -0.454975 1.52038 0
M  V30 37962 H 3729.93 -3.08119 2.23255 0
M  V30 37963 H 3729.44 -1.73953 3.46932 0
M  V30 37964 H 3727.54 -3.35987 1.6107 0
M  V30 37965 H 3727.65 -3.27892 3.49319 0
M  V30 37966 H 3726.02 -1.81244 1.78949 0
M  V30 37967 H 3726.8 -1.03997 3.27169 0
M  V30 37968 N 3729.25 -1.29383 -0.899882 0
M  V30 37969 C 3730.16 -1.16382 -2.03697 0
M  V30 37970 C 3731.17 -0.0871097 -1.73782 0
M  V30 37971 O 3732.35 -0.299144 -1.99166 0
M  V30 37972 C 3729.41 -0.841225 -3.3634 0
M  V30 37973 C 3728.47 -2.00175 -3.79774 0
M  V30 37974 C 3727.71 -1.69446 -5.06087 0
M  V30 37975 O 3727.93 -0.615312 -5.67071 0
M  V30 37976 O 3726.86 -2.54238 -5.4557 0
M  V30 37977 H 3730.69 -2.1187 -2.17588 0
M  V30 37978 H 3728.28 -1.08833 -1.02351 0
M  V30 37979 H 3730.16 -0.675876 -4.15945 0
M  V30 37980 H 3728.83 0.0838807 -3.23591 0
M  V30 37981 H 3727.74 -2.22234 -3.00937 0
M  V30 37982 H 3729.07 -2.90805 -3.97106 0
M  V30 37983 N 3730.72 1.11022 -1.11856 0
M  V30 37984 C 3731.67 2.19274 -0.775999 0
M  V30 37985 C 3732.67 1.67769 0.234473 0
M  V30 37986 O 3733.87 1.79758 0.0933056 0
M  V30 37987 H 3730.25 0.714966 -0.233082 0
M  V30 37988 H 3732.22 2.45411 -1.69753 0
M  V30 37989 C 3730.97 3.46869 -0.240209 0
M  V30 37990 H 3730.29 3.86858 -1.00902 0
M  V30 37991 H 3731.73 4.23982 -0.0387545 0
M  V30 37992 C 3730.19 3.20753 1.0305 0
M  V30 37993 O 3730.72 3.41857 2.10942 0
M  V30 37994 N 3728.93 2.74459 0.955018 0
M  V30 37995 H 3728.47 2.57485 0.0769071 0
M  V30 37996 H 3728.43 2.57362 1.80588 0
M  V30 37997 N 3732.2 0.90954 1.28706 0
M  V30 37998 C 3733.61 0.587644 1.77211 0
M  V30 37999 C 3733.96 -0.896955 1.74497 0
M  V30 38000 O 3733.09 -1.70156 1.33701 0
M  V30 38001 C 3733.68 1.05995 3.21793 0
M  V30 38002 C 3732.24 0.789048 3.68037 0
M  V30 38003 C 3731.39 1.22907 2.48574 0
M  V30 38004 H 3734.34 1.09124 1.15228 0
M  V30 38005 H 3734.36 0.399535 3.78397 0
M  V30 38006 H 3733.87 2.14049 3.23736 0
M  V30 38007 H 3731.98 -0.278457 3.71558 0
M  V30 38008 H 3732.09 1.39384 4.58377 0
M  V30 38009 H 3730.45 0.647881 2.46322 0
M  V30 38010 H 3731.24 2.31786 2.53239 0
M  V30 38011 N 3733.68 -1.42505 0.673067 0
M  V30 38012 C 3734.92 -2.03434 0.198472 0
M  V30 38013 C 3735.28 -1.52061 -1.17224 0
M  V30 38014 O 3736.49 -2.04765 -1.7414 0
M  V30 38015 C 3734.76 -3.56663 0.229482 0
M  V30 38016 S 3736.32 -4.38453 -0.174364 0
M  V30 38017 H 3733.13 -0.706283 0.0817636 0
M  V30 38018 H 3735.74 -1.74279 0.885834 0
M  V30 38019 H 3734.44 -3.91551 1.22948 0
M  V30 38020 H 3733.97 -3.90488 -0.47777 0
M  V30 38021 H 3735.99 -4.75799 -1.40818 0
M  V30 38022 N 3735.16 -0.41628 -1.52003 0
M  V30 38023 C 3736.09 0.39663 -2.30107 0
M  V30 38024 C 3737.07 1.03981 -1.34618 0
M  V30 38025 O 3738.25 1.04746 -1.6353 0
M  V30 38026 C 3735.38 1.50967 -3.12772 0
M  V30 38027 C 3734.34 0.991117 -4.16366 0
M  V30 38028 C 3733.66 2.1983 -4.87421 0
M  V30 38029 C 3734.96 0.0401681 -5.22285 0
M  V30 38030 H 3736.66 -0.255106 -2.98311 0
M  V30 38031 H 3734.2 -0.124131 -1.43464 0
M  V30 38032 H 3736.16 2.0854 -3.66182 0
M  V30 38033 H 3734.88 2.18939 -2.4235 0
M  V30 38034 H 3733.54 0.437739 -3.63977 0
M  V30 38035 H 3733.19 2.86373 -4.13521 0
M  V30 38036 H 3732.89 1.85782 -5.57457 0
M  V30 38037 H 3734.41 2.77996 -5.43646 0
M  V30 38038 H 3735.83 0.524926 -5.70892 0
M  V30 38039 H 3734.22 -0.211847 -5.99726 0
M  V30 38040 H 3735.29 -0.902961 -4.76419 0
M  V30 38041 N 3736.64 1.56914 -0.146931 0
M  V30 38042 C 3737.89 1.95297 0.50416 0
M  V30 38043 C 3738.2 1.03429 1.66017 0
M  V30 38044 O 3739.4 1.31392 2.37589 0
M  V30 38045 C 3737.86 3.47182 0.948287 0
M  V30 38046 C 3737.47 4.47635 -0.180789 0
M  V30 38047 C 3739.21 3.94433 1.56917 0
M  V30 38048 C 3737.12 5.90729 0.281603 0
M  V30 38049 H 3736.05 0.729115 0.192114 0
M  V30 38050 H 3738.7 1.82037 -0.231264 0
M  V30 38051 H 3737.08 3.55775 1.73897 0
M  V30 38052 H 3738.26 4.50737 -0.957724 0
M  V30 38053 H 3736.57 4.10301 -0.710079 0
M  V30 38054 H 3739.17 4.98779 1.92675 0
M  V30 38055 H 3739.51 3.35981 2.4581 0
M  V30 38056 H 3740.04 3.88757 0.843388 0
M  V30 38057 H 3736.78 6.53 -0.571954 0
M  V30 38058 H 3736.3 5.90987 1.02442 0
M  V30 38059 H 3737.98 6.42827 0.733633 0
M  V30 38060 N 3738.11 -0.126854 1.57089 0
M  V30 38061 C 3739.06 -1.17502 2.00739 0
M  V30 38062 C 3740.06 -1.43325 0.903011 0
M  V30 38063 O 3741.26 -1.4338 1.08822 0
M  V30 38064 H 3737.64 -0.395992 0.639292 0
M  V30 38065 H 3739.61 -0.780322 2.88017 0
M  V30 38066 C 3738.36 -2.49565 2.42101 0
M  V30 38067 H 3737.68 -2.3053 3.26643 0
M  V30 38068 H 3739.12 -3.21485 2.76448 0
M  V30 38069 C 3737.58 -3.11574 1.28153 0
M  V30 38070 O 3738.11 -3.97296 0.593215 0
M  V30 38071 N 3736.32 -2.7133 1.0406 0
M  V30 38072 H 3735.86 -2.01717 1.60212 0
M  V30 38073 H 3735.82 -3.1315 0.28013 0
M  V30 38074 N 3739.59 -1.52523 -0.396809 0
M  V30 38075 C 3740.5 -1.79655 -1.50868 0
M  V30 38076 C 3741.52 -0.682832 -1.60042 0
M  V30 38077 O 3742.69 -0.969581 -1.76525 0
M  V30 38078 C 3739.76 -1.95268 -2.86481 0
M  V30 38079 C 3738.82 -3.1918 -2.87093 0
M  V30 38080 C 3738.05 -3.34039 -4.16238 0
M  V30 38081 O 3738.28 -2.53879 -5.10785 0
M  V30 38082 O 3737.21 -4.27254 -4.23955 0
M  V30 38083 H 3741.04 -2.74055 -1.30873 0
M  V30 38084 H 3738.62 -1.37518 -0.583884 0
M  V30 38085 H 3740.5 -2.07288 -3.66892 0
M  V30 38086 H 3739.18 -1.04058 -3.06519 0
M  V30 38087 H 3738.09 -3.12608 -2.05492 0
M  V30 38088 H 3739.42 -4.10211 -2.72007 0
M  V30 38089 N 3741.07 0.654789 -1.43354 0
M  V30 38090 C 3742.31 1.42651 -1.4639 0
M  V30 38091 C 3742.68 1.91811 -0.0850875 0
M  V30 38092 O 3743.88 2.68798 0.00986239 0
M  V30 38093 C 3742.15 2.5774 -2.47598 0
M  V30 38094 S 3743.71 3.4629 -2.69497 0
M  V30 38095 H 3740.52 0.486963 -0.518061 0
M  V30 38096 H 3743.13 0.76035 -1.80108 0
M  V30 38097 H 3741.83 2.19896 -3.46517 0
M  V30 38098 H 3741.36 3.29209 -2.15372 0
M  V30 38099 H 3743.38 4.54414 -1.99305 0
M  V30 38100 N 3742.55 1.29858 0.893007 0
M  V30 38101 C 3743.8 1.18392 1.64654 0
M  V30 38102 C 3744.13 -0.262553 1.92417 0
M  V30 38103 O 3743.4 -1.18884 1.53938 0
M  V30 38104 C 3743.69 2.00461 2.99144 0
M  V30 38105 C 3743.54 3.53286 2.78405 0
M  V30 38106 C 3744.86 1.8362 3.99965 0
M  V30 38107 H 3741.98 0.431448 0.597513 0
M  V30 38108 H 3744.62 1.59404 1.03394 0
M  V30 38109 H 3742.77 1.65614 3.51432 0
M  V30 38110 H 3744.44 3.98151 2.32967 0
M  V30 38111 H 3742.68 3.77872 2.13061 0
M  V30 38112 H 3743.36 4.0599 3.74001 0
M  V30 38113 H 3745.83 2.1407 3.5681 0
M  V30 38114 H 3744.71 2.43382 4.91992 0
M  V30 38115 H 3744.97 0.793174 4.34927 0
M  V30 38116 N 3744.03 -1.10427 1.12443 0
M  V30 38117 C 3745.44 -1.34415 0.860505 0
M  V30 38118 C 3745.64 -1.94956 -0.509359 0
M  V30 38119 O 3744.7 -2.18929 -1.25803 0
M  V30 38120 C 3746.01 -2.26574 1.97698 0
M  V30 38121 C 3747.56 -2.40111 2.00787 0
M  V30 38122 C 3748.04 -3.35599 3.11669 0
M  V30 38123 N 3749.53 -3.43167 3.11112 0
M  V30 38124 C 3750.26 -4.17023 3.93547 0
M  V30 38125 N 3749.76 -4.93765 4.85971 0
M  V30 38126 N 3751.55 -4.12642 3.81684 0
M  V30 38127 H 3743.7 -0.695 2.00708 0
M  V30 38128 H 3745.96 -0.368603 0.873405 0
M  V30 38129 H 3745.67 -1.89301 2.96409 0
M  V30 38130 H 3745.54 -3.26882 1.88223 0
M  V30 38131 H 3747.93 -2.76654 1.02697 0
M  V30 38132 H 3748.01 -1.39618 2.14338 0
M  V30 38133 H 3747.66 -2.99782 4.09992 0
M  V30 38134 H 3747.59 -4.35972 2.95357 0
M  V30 38135 H 3750.08 -2.88438 2.44155 0
M  V30 38136 H 3750.39 -5.47519 5.45383 0
M  V30 38137 H 3748.74 -4.92889 4.89985 0
M  V30 38138 H 3751.93 -3.51783 3.08814 0
M  V30 38139 H 3752.1 -4.69942 4.4616 0
M  V30 38140 N 3745.51 -0.916353 -1.28221 0
M  V30 38141 C 3746.75 -0.551673 -1.95152 0
M  V30 38142 C 3747.08 0.902799 -1.71939 0
M  V30 38143 O 3746.36 1.64242 -1.04187 0
M  V30 38144 C 3746.64 -0.864709 -3.49564 0
M  V30 38145 C 3746.5 -2.3721 -3.82167 0
M  V30 38146 C 3747.81 -0.36267 -4.38603 0
M  V30 38147 H 3744.93 -0.201903 -0.708805 0
M  V30 38148 H 3747.58 -1.14607 -1.51543 0
M  V30 38149 H 3745.73 -0.35885 -3.86839 0
M  V30 38150 H 3747.4 -2.94878 -3.54746 0
M  V30 38151 H 3745.64 -2.82601 -3.29119 0
M  V30 38152 H 3746.31 -2.54167 -4.90003 0
M  V30 38153 H 3748.79 -0.796054 -4.08414 0
M  V30 38154 H 3747.66 -0.610756 -5.45492 0
M  V30 38155 H 3747.92 0.73706 -4.35913 0
M  V30 38156 N 3746.98 1.42146 -0.680615 0
M  V30 38157 C 3747.93 2.30799 -0.00589983 0
M  V30 38158 C 3748.9 1.46285 0.786752 0
M  V30 38159 O 3750.09 1.75105 0.757822 0
M  V30 38160 C 3747.23 3.32185 0.935261 0
M  V30 38161 C 3746.34 4.31786 0.135815 0
M  V30 38162 C 3745.47 5.20245 1.07325 0
M  V30 38163 C 3744.51 6.11522 0.265836 0
M  V30 38164 N 3743.65 6.92513 1.15629 0
M  V30 38165 H 3748.49 2.87942 -0.767702 0
M  V30 38166 H 3746.03 1.41827 -0.390315 0
M  V30 38167 H 3747.98 3.89501 1.49482 0
M  V30 38168 H 3746.61 2.76628 1.66363 0
M  V30 38169 H 3745.67 3.76541 -0.540449 0
M  V30 38170 H 3746.98 4.96379 -0.490803 0
M  V30 38171 H 3746.13 5.82322 1.70254 0
M  V30 38172 H 3744.87 4.55843 1.73375 0
M  V30 38173 H 3743.88 5.48508 -0.376627 0
M  V30 38174 H 3745.1 6.77975 -0.390649 0
M  V30 38175 H 3743.05 6.30734 1.80308 0
M  V30 38176 H 3742.96 7.53734 0.58489 0
M  V30 38177 H 3744.23 7.59072 1.77286 0
M  V30 38178 N 3748.46 0.424336 1.5178 0
M  V30 38179 C 3749.37 -0.400109 2.31163 0
M  V30 38180 C 3750.39 -1.03966 1.39524 0
M  V30 38181 O 3751.56 -1.03787 1.72599 0
M  V30 38182 C 3748.63 -1.49361 3.12877 0
M  V30 38183 C 3747.69 -0.875542 4.20277 0
M  V30 38184 C 3746.92 -1.91694 4.98086 0
M  V30 38185 O 3747.15 -3.13731 4.76371 0
M  V30 38186 O 3746.08 -1.5147 5.82529 0
M  V30 38187 H 3749.91 0.247582 3.02689 0
M  V30 38188 H 3747.49 0.187172 1.48223 0
M  V30 38189 H 3749.37 -2.12809 3.63717 0
M  V30 38190 H 3748.05 -2.12562 2.44129 0
M  V30 38191 H 3746.95 -0.203363 3.73547 0
M  V30 38192 H 3748.29 -0.28722 4.91361 0
M  V30 38193 N 3749.94 -1.56833 0.15525 0
M  V30 38194 C 3750.85 -2.2075 -0.79414 0
M  V30 38195 C 3751.87 -1.19426 -1.26544 0
M  V30 38196 O 3753.04 -1.52032 -1.32092 0
M  V30 38197 C 3750.11 -2.82306 -2.01256 0
M  V30 38198 C 3749.17 -3.98782 -1.58969 0
M  V30 38199 C 3748.4 -4.57393 -2.75003 0
M  V30 38200 O 3748.62 -4.14885 -3.91441 0
M  V30 38201 O 3747.56 -5.47524 -2.50001 0
M  V30 38202 H 3751.38 -3.02406 -0.280011 0
M  V30 38203 H 3748.97 -1.49226 -0.0721785 0
M  V30 38204 H 3750.85 -3.21398 -2.72545 0
M  V30 38205 H 3749.53 -2.03657 -2.51606 0
M  V30 38206 H 3748.43 -3.6439 -0.846784 0
M  V30 38207 H 3749.77 -4.78976 -1.13327 0
M  V30 38208 N 3751.42 0.118521 -1.57154 0
M  V30 38209 C 3752.66 0.827447 -1.85152 0
M  V30 38210 C 3753 1.79505 -0.741058 0
M  V30 38211 O 3752.27 1.92847 0.253061 0
M  V30 38212 C 3752.55 1.57692 -3.23736 0
M  V30 38213 C 3752.41 0.628889 -4.45382 0
M  V30 38214 C 3753.73 2.53299 -3.599 0
M  V30 38215 H 3750.85 0.299358 -0.673464 0
M  V30 38216 H 3753.49 0.0916864 -1.89779 0
M  V30 38217 H 3751.64 2.20412 -3.19923 0
M  V30 38218 H 3753.31 0.0104935 -4.61299 0
M  V30 38219 H 3751.55 -0.0595382 -4.33759 0
M  V30 38220 H 3752.22 1.18994 -5.39022 0
M  V30 38221 H 3754.7 2.00684 -3.64507 0
M  V30 38222 H 3753.58 3.0277 -4.57844 0
M  V30 38223 H 3753.84 3.35985 -2.87344 0
M  V30 38224 N 3752.9 1.52731 0.388715 0
M  V30 38225 C 3754.14 1.67789 1.13372 0
M  V30 38226 C 3754.47 0.417959 1.89956 0
M  V30 38227 O 3753.73 -0.59965 1.86287 0
M  V30 38228 C 3754.02 2.86409 2.13787 0
M  V30 38229 C 3753.69 4.23838 1.53858 0
M  V30 38230 C 3752.35 4.61214 1.3724 0
M  V30 38231 C 3754.7 5.09397 1.10289 0
M  V30 38232 C 3752.03 5.81809 0.756017 0
M  V30 38233 C 3754.38 6.30616 0.500612 0
M  V30 38234 C 3753.05 6.66724 0.321733 0
M  V30 38235 H 3752.32 0.613982 0.414857 0
M  V30 38236 H 3754.97 1.86875 0.418318 0
M  V30 38237 H 3753.27 2.6174 2.91547 0
M  V30 38238 H 3754.97 2.95254 2.71341 0
M  V30 38239 H 3751.56 3.94396 1.6778 0
M  V30 38240 H 3755.74 4.81089 1.2193 0
M  V30 38241 H 3751 6.08393 0.605627 0
M  V30 38242 H 3755.17 6.96228 0.154716 0
M  V30 38243 H 3752.8 7.60036 -0.15797 0
M  V30 38244 N 3754.37 -0.647178 1.43699 0
M  V30 38245 C 3755.62 -1.40289 1.4492 0
M  V30 38246 C 3755.94 -1.95439 0.0794587 0
M  V30 38247 O 3757.14 -2.71482 -0.0308574 0
M  V30 38248 C 3755.6 -2.53918 2.55056 0
M  V30 38249 C 3755.21 -2.0535 3.98165 0
M  V30 38250 C 3756.95 -3.31242 2.65479 0
M  V30 38251 C 3754.86 -3.16226 4.99755 0
M  V30 38252 H 3753.79 -0.527134 0.539115 0
M  V30 38253 H 3756.44 -0.697921 1.6971 0
M  V30 38254 H 3754.82 -3.26915 2.23479 0
M  V30 38255 H 3755.99 -1.39325 4.39232 0
M  V30 38256 H 3754.31 -1.40889 3.91841 0
M  V30 38257 H 3756.91 -4.13867 3.38553 0
M  V30 38258 H 3757.25 -3.7967 1.70751 0
M  V30 38259 H 3757.78 -2.65329 2.96387 0
M  V30 38260 H 3754.52 -2.72759 5.96056 0
M  V30 38261 H 3754.04 -3.80944 4.63294 0
M  V30 38262 H 3755.72 -3.81261 5.22732 0
M  V30 38263 N 3755.85 -1.3033 -0.886108 0
M  V30 38264 C 3756.78 -1.12428 -1.99731 0
M  V30 38265 C 3757.8 -0.0678525 -1.62659 0
M  V30 38266 O 3758.99 -0.313754 -1.75721 0
M  V30 38267 C 3756.09 -0.69218 -3.31756 0
M  V30 38268 C 3755.26 -1.83011 -3.97273 0
M  V30 38269 C 3754.32 -1.38675 -5.07598 0
M  V30 38270 O 3753.34 -2.09377 -5.29292 0
M  V30 38271 N 3754.55 -0.265141 -5.79894 0
M  V30 38272 H 3757.31 -2.08134 -2.15639 0
M  V30 38273 H 3754.87 -1.2245 -1.05913 0
M  V30 38274 H 3756.86 -0.378611 -4.02925 0
M  V30 38275 H 3755.43 0.172809 -3.12122 0
M  V30 38276 H 3754.65 -2.31185 -3.19291 0
M  V30 38277 H 3755.94 -2.59272 -4.37785 0
M  V30 38278 H 3755.34 0.324022 -5.64771 0
M  V30 38279 H 3753.9 -0.0110189 -6.51799 0
M  V30 38280 N 3757.33 1.0983 -1.13028 0
M  V30 38281 C 3758.26 2.16175 -0.761644 0
M  V30 38282 C 3759.28 1.61378 0.214681 0
M  V30 38283 O 3760.46 1.78499 -0.00490315 0
M  V30 38284 C 3757.56 3.38729 -0.107572 0
M  V30 38285 C 3756.74 4.22951 -1.11494 0
M  V30 38286 C 3755.8 5.23938 -0.487335 0
M  V30 38287 O 3754.82 5.57541 -1.14615 0
M  V30 38288 N 3756.02 5.75732 0.74247 0
M  V30 38289 H 3758.79 2.48406 -1.67673 0
M  V30 38290 H 3756.35 1.25507 -1.02273 0
M  V30 38291 H 3758.34 4.03397 0.324436 0
M  V30 38292 H 3756.91 3.04421 0.710384 0
M  V30 38293 H 3756.13 3.54484 -1.72438 0
M  V30 38294 H 3757.42 4.7605 -1.79593 0
M  V30 38295 H 3756.82 5.50641 1.29657 0
M  V30 38296 H 3755.38 6.42154 1.1172 0
M  V30 38297 N 3758.81 0.92314 1.27734 0
M  V30 38298 C 3760.22 0.622692 1.46951 0
M  V30 38299 C 3760.42 -0.829352 1.83641 0
M  V30 38300 O 3759.48 -1.60764 1.94708 0
M  V30 38301 C 3760.79 1.56865 2.56542 0
M  V30 38302 C 3762.34 1.57638 2.70406 0
M  V30 38303 C 3762.82 2.5092 3.83149 0
M  V30 38304 N 3764.31 2.491 3.90517 0
M  V30 38305 C 3765.04 3.1797 4.77161 0
M  V30 38306 N 3764.54 3.96203 5.68327 0
M  V30 38307 N 3766.33 3.07011 4.70851 0
M  V30 38308 H 3758.48 1.86195 1.02201 0
M  V30 38309 H 3760.75 0.799147 0.509968 0
M  V30 38310 H 3760.45 2.60431 2.36365 0
M  V30 38311 H 3760.33 1.30688 3.53837 0
M  V30 38312 H 3762.71 0.548056 2.89966 0
M  V30 38313 H 3762.79 1.87863 1.73612 0
M  V30 38314 H 3762.44 3.5386 3.64343 0
M  V30 38315 H 3762.37 2.17993 4.79361 0
M  V30 38316 H 3764.86 1.9228 3.25326 0
M  V30 38317 H 3765.17 4.45749 6.3129 0
M  V30 38318 H 3763.52 4.00307 5.68137 0
M  V30 38319 H 3766.71 2.45389 3.98625 0
M  V30 38320 H 3766.88 3.60954 5.3816 0
M  V30 38321 N 3760.29 -1.41783 0.688143 0
M  V30 38322 C 3761.23 -2.32599 0.00665124 0
M  V30 38323 C 3762.23 -1.50558 -0.776449 0
M  V30 38324 O 3763.43 -1.66542 -0.682908 0
M  V30 38325 H 3759.81 -0.751816 -0.0166483 0
M  V30 38326 H 3761.78 -2.87759 0.789769 0
M  V30 38327 C 3760.53 -3.35275 -0.921192 0
M  V30 38328 H 3759.85 -3.98452 -0.328028 0
M  V30 38329 H 3761.29 -4.01377 -1.36648 0
M  V30 38330 C 3759.75 -2.68579 -2.03388 0
M  V30 38331 O 3760.28 -2.52791 -3.12185 0
M  V30 38332 N 3758.49 -2.27392 -1.80946 0
M  V30 38333 H 3758.03 -2.40433 -0.92465 0
M  V30 38334 H 3757.99 -1.83101 -2.55581 0
M  V30 38335 N 3761.76 -0.432379 -1.51553 0
M  V30 38336 C 3763.01 0.135945 -2.02344 0
M  V30 38337 C 3763.34 1.42792 -1.31621 0
M  V30 38338 O 3762.62 1.89696 -0.429603 0
M  V30 38339 C 3762.9 0.359802 -3.58298 0
M  V30 38340 C 3762.75 -0.950476 -4.39643 0
M  V30 38341 C 3764.07 1.13177 -4.25299 0
M  V30 38342 H 3761.19 0.0479332 -0.73544 0
M  V30 38343 H 3763.83 -0.570405 -1.81236 0
M  V30 38344 H 3761.98 0.961481 -3.76414 0
M  V30 38345 H 3763.66 -1.58576 -4.33188 0
M  V30 38346 H 3761.9 -1.55621 -4.04925 0
M  V30 38347 H 3762.57 -0.747948 -5.46909 0
M  V30 38348 H 3765.05 0.622158 -4.11422 0
M  V30 38349 H 3763.92 1.25716 -5.3431 0
M  V30 38350 H 3764.18 2.15856 -3.85822 0
M  V30 38351 N 3763.24 1.56749 -0.163565 0
M  V30 38352 C 3764.47 2.01454 0.493051 0
M  V30 38353 C 3764.89 1.04302 1.56533 0
M  V30 38354 O 3764.25 0.0213358 1.81287 0
M  V30 38355 C 3764.3 3.4481 1.0554 0
M  V30 38356 O 3763.4 3.5071 2.16971 0
M  V30 38357 H 3762.74 0.653269 0.118894 0
M  V30 38358 H 3765.27 2.02874 -0.265175 0
M  V30 38359 H 3765.28 3.83955 1.37995 0
M  V30 38360 H 3763.96 4.15021 0.27026 0
M  V30 38361 H 3762.54 3.23419 1.85619 0
M  V30 38362 N 3764.72 -0.110185 1.57214 0
M  V30 38363 C 3765.96 -0.822196 1.87134 0
M  V30 38364 C 3766.32 -1.76632 0.752676 0
M  V30 38365 O 3767.53 -2.52056 0.933881 0
M  V30 38366 C 3765.8 -1.54481 3.22289 0
M  V30 38367 S 3767.36 -2.29718 3.73865 0
M  V30 38368 H 3764.17 -0.274236 0.655984 0
M  V30 38369 H 3766.78 -0.0800769 1.95336 0
M  V30 38370 H 3765.48 -0.84336 4.01641 0
M  V30 38371 H 3765.01 -2.32713 3.17188 0
M  V30 38372 H 3767.03 -3.55596 3.46072 0
M  V30 38373 N 3766.2 -1.52935 -0.38061 0
M  V30 38374 C 3767.61 -1.60238 -0.958154 0
M  V30 38375 C 3767.96 -0.460427 -1.90721 0
M  V30 38376 O 3767.09 0.415316 -2.12377 0
M  V30 38377 C 3767.68 -2.90432 -1.74455 0
M  V30 38378 C 3766.24 -3.0012 -2.27167 0
M  V30 38379 C 3765.39 -2.55419 -1.07964 0
M  V30 38380 H 3768.34 -1.57893 -0.159881 0
M  V30 38381 H 3768.36 -2.7739 -2.60452 0
M  V30 38382 H 3767.87 -3.73526 -1.05356 0
M  V30 38383 H 3765.97 -2.21582 -2.99553 0
M  V30 38384 H 3766.08 -4.0492 -2.56079 0
M  V30 38385 H 3764.45 -2.09937 -1.44217 0
M  V30 38386 H 3765.23 -3.40916 -0.403865 0
M  V30 38387 N 3767.68 0.639548 -1.4404 0
M  V30 38388 C 3768.61 1.76487 -1.46237 0
M  V30 38389 C 3769.62 1.58843 -0.356767 0
M  V30 38390 O 3770.81 1.67312 -0.622018 0
M  V30 38391 C 3767.91 3.141 -1.27257 0
M  V30 38392 C 3767.08 3.58279 -2.50908 0
M  V30 38393 C 3766.14 4.74741 -2.26952 0
M  V30 38394 O 3765.17 4.83482 -3.0039 0
M  V30 38395 N 3766.37 5.65876 -1.29478 0
M  V30 38396 H 3769.14 1.75076 -2.43246 0
M  V30 38397 H 3766.7 0.823843 -1.39372 0
M  V30 38398 H 3768.69 3.89719 -1.09091 0
M  V30 38399 H 3767.26 3.10202 -0.386437 0
M  V30 38400 H 3766.48 2.72958 -2.84407 0
M  V30 38401 H 3767.77 3.84546 -3.3317 0
M  V30 38402 H 3767.16 5.615 -0.688092 0
M  V30 38403 H 3765.72 6.4116 -1.17293 0
M  V30 38404 N 3769.15 1.30798 0.879184 0
M  V30 38405 C 3770.08 1.2025 2.00156 0
M  V30 38406 C 3771.07 0.0917989 1.69852 0
M  V30 38407 O 3772.25 0.274826 1.92246 0
M  V30 38408 C 3769.38 0.899531 3.35449 0
M  V30 38409 C 3768.33 1.96879 3.8003 0
M  V30 38410 C 3767.66 1.5187 5.12679 0
M  V30 38411 C 3768.96 3.38068 3.9813 0
M  V30 38412 H 3770.65 2.14148 2.09239 0
M  V30 38413 H 3768.2 1.03098 1.00533 0
M  V30 38414 H 3770.15 0.812372 4.13495 0
M  V30 38415 H 3768.88 -0.0751316 3.26514 0
M  V30 38416 H 3767.54 2.04569 3.04216 0
M  V30 38417 H 3767.18 0.532151 5.00177 0
M  V30 38418 H 3766.88 2.23395 5.43478 0
M  V30 38419 H 3768.41 1.44544 5.93245 0
M  V30 38420 H 3769.82 3.33105 4.66599 0
M  V30 38421 H 3768.22 4.0773 4.40314 0
M  V30 38422 H 3769.29 3.79532 3.01801 0
M  V30 38423 N 3770.63 -1.09229 1.13608 0
M  V30 38424 C 3771.54 -2.19474 0.828741 0
M  V30 38425 C 3772.56 -1.72987 -0.187468 0
M  V30 38426 O 3773.74 -2.01392 -0.0180248 0
M  V30 38427 C 3770.8 -3.45387 0.301422 0
M  V30 38428 C 3769.86 -4.06545 1.37913 0
M  V30 38429 C 3769.09 -5.26447 0.876879 0
M  V30 38430 O 3769.32 -5.69689 -0.284796 0
M  V30 38431 O 3768.25 -5.78783 1.6521 0
M  V30 38432 H 3772.08 -2.4822 1.74987 0
M  V30 38433 H 3769.66 -1.18203 0.913694 0
M  V30 38434 H 3771.54 -4.21398 0.0128533 0
M  V30 38435 H 3770.22 -3.18239 -0.592093 0
M  V30 38436 H 3769.13 -3.32161 1.72104 0
M  V30 38437 H 3770.46 -4.37923 2.24686 0
M  V30 38438 N 3772.11 -0.929901 -1.27242 0
M  V30 38439 C 3773.36 -0.57234 -1.94556 0
M  V30 38440 C 3773.69 0.884511 -1.72887 0
M  V30 38441 O 3772.97 1.63127 -1.05923 0
M  V30 38442 C 3773.25 -0.901736 -3.48627 0
M  V30 38443 C 3773.1 -2.4125 -3.79629 0
M  V30 38444 C 3774.42 -0.40917 -4.38194 0
M  V30 38445 H 3771.54 -0.209409 -0.706624 0
M  V30 38446 H 3774.18 -1.16208 -1.50319 0
M  V30 38447 H 3772.33 -0.399859 -3.86437 0
M  V30 38448 H 3774 -2.98624 -3.51598 0
M  V30 38449 H 3772.25 -2.86076 -3.26103 0
M  V30 38450 H 3772.92 -2.5935 -4.8728 0
M  V30 38451 H 3775.39 -0.839327 -4.07547 0
M  V30 38452 H 3774.27 -0.668578 -5.44813 0
M  V30 38453 H 3774.53 0.690784 -4.3667 0
M  V30 38454 N 3773.59 1.41416 -0.695653 0
M  V30 38455 C 3775 1.84251 -0.301433 0
M  V30 38456 C 3775.35 1.58206 1.1604 0
M  V30 38457 O 3774.48 1.05256 1.89077 0
M  V30 38458 C 3775.07 3.34464 -0.540315 0
M  V30 38459 C 3773.63 3.75868 -0.20001 0
M  V30 38460 C 3772.78 2.64819 -0.822557 0
M  V30 38461 H 3775.73 1.30966 -0.896301 0
M  V30 38462 H 3775.75 3.79969 0.200952 0
M  V30 38463 H 3775.26 3.53388 -1.60433 0
M  V30 38464 H 3773.36 3.62546 0.859734 0
M  V30 38465 H 3773.48 4.746 -0.655088 0
M  V30 38466 H 3771.84 2.53449 -0.252154 0
M  V30 38467 H 3772.62 2.86561 -1.89044 0
M  V30 38468 N 3775.07 0.44041 1.51321 0
M  V30 38469 C 3776.31 -0.125212 2.02413 0
M  V30 38470 C 3776.65 -1.42092 1.32376 0
M  V30 38471 O 3775.92 -1.89466 0.439657 0
M  V30 38472 C 3776.2 -0.340795 3.58484 0
M  V30 38473 C 3776.06 0.973778 4.39133 0
M  V30 38474 C 3777.38 -1.1092 4.25893 0
M  V30 38475 H 3774.5 -0.0440323 0.735683 0
M  V30 38476 H 3777.14 0.580008 1.80931 0
M  V30 38477 H 3775.29 -0.941505 3.76919 0
M  V30 38478 H 3776.96 1.60871 4.32341 0
M  V30 38479 H 3775.2 1.57766 4.04094 0
M  V30 38480 H 3775.87 0.776941 5.46505 0
M  V30 38481 H 3778.35 -0.600331 4.11747 0
M  V30 38482 H 3777.23 -1.22881 5.34969 0
M  V30 38483 H 3777.49 -2.13806 3.86961 0
M  V30 38484 N 3776.55 -1.5666 0.171876 0
M  V30 38485 C 3777.79 -1.98795 -0.475384 0
M  V30 38486 C 3778.15 -1.05553 -1.60382 0
M  V30 38487 O 3779.35 -1.36831 -2.31367 0
M  V30 38488 C 3777.62 -3.44668 -0.945458 0
M  V30 38489 S 3779.18 -4.08831 -1.59382 0
M  V30 38490 H 3776 -0.694368 -0.152888 0
M  V30 38491 H 3778.6 -1.93634 0.269468 0
M  V30 38492 H 3777.3 -4.10242 -0.113767 0
M  V30 38493 H 3776.84 -3.53596 -1.72434 0
M  V30 38494 H 3778.85 -4.03926 -2.88198 0
M  V30 38495 N 3778.02 0.101846 -1.57271 0
M  V30 38496 C 3779.43 0.657116 -1.74754 0
M  V30 38497 C 3779.79 1.79456 -0.793084 0
M  V30 38498 O 3778.91 2.16379 0.0300178 0
M  V30 38499 C 3779.51 1.19879 -3.16882 0
M  V30 38500 C 3778.06 1.70019 -3.35813 0
M  V30 38501 C 3777.21 0.606959 -2.70576 0
M  V30 38502 H 3780.16 -0.124185 -1.58213 0
M  V30 38503 H 3780.18 2.06823 -3.19381 0
M  V30 38504 H 3779.7 0.370722 -3.86325 0
M  V30 38505 H 3777.8 2.55249 -2.71439 0
M  V30 38506 H 3777.91 1.79783 -4.44089 0
M  V30 38507 H 3776.27 1.04477 -2.32286 0
M  V30 38508 H 3777.06 -0.21042 -3.42655 0
M  V30 38509 N 3779.5 1.53135 0.372494 0
M  V30 38510 C 3780.73 1.73185 1.14113 0
M  V30 38511 C 3781.15 0.456585 1.82474 0
M  V30 38512 O 3780.51 -0.588889 1.7147 0
M  V30 38513 C 3780.56 2.89319 2.15236 0
M  V30 38514 O 3779.66 2.57445 3.22174 0
M  V30 38515 H 3779 0.575368 0.331432 0
M  V30 38516 H 3781.53 1.99993 0.431734 0
M  V30 38517 H 3781.54 3.15288 2.58955 0
M  V30 38518 H 3780.22 3.81825 1.6487 0
M  V30 38519 H 3778.79 2.42272 2.83476 0
M  V30 38520 N 3780.98 -0.6319 1.44377 0
M  V30 38521 C 3782.23 -1.38873 1.46829 0
M  V30 38522 C 3782.55 -1.94734 0.101823 0
M  V30 38523 O 3781.82 -1.75731 -0.865759 0
M  V30 38524 H 3780.4 -0.515466 0.540651 0
M  V30 38525 H 3783.06 -0.74379 1.80149 0
M  V30 38526 H 3782.16 -2.22043 2.19325 0
M  V30 38527 N 3782.46 -1.31262 -0.872235 0
M  V30 38528 C 3783.7 -1.20818 -1.62509 0
M  V30 38529 C 3784.03 0.234198 -1.93085 0
M  V30 38530 O 3783.29 1.18233 -1.55947 0
M  V30 38531 C 3783.59 -1.99525 -2.96521 0
M  V30 38532 C 3783.25 -3.49043 -2.85447 0
M  V30 38533 C 3781.91 -3.89813 -2.82134 0
M  V30 38534 C 3784.27 -4.442 -2.72646 0
M  V30 38535 C 3781.59 -5.2401 -2.63876 0
M  V30 38536 C 3783.95 -5.7852 -2.55926 0
M  V30 38537 C 3782.61 -6.18513 -2.50995 0
M  V30 38538 H 3781.88 -0.442104 -0.594664 0
M  V30 38539 H 3784.53 -1.62503 -1.01316 0
M  V30 38540 H 3782.83 -1.50514 -3.61736 0
M  V30 38541 H 3784.53 -1.88826 -3.53759 0
M  V30 38542 H 3781.12 -3.16652 -2.88841 0
M  V30 38543 H 3785.3 -4.13634 -2.74263 0
M  V30 38544 H 3780.56 -5.54073 -2.58481 0
M  V30 38545 H 3784.73 -6.51881 -2.44997 0
M  V30 38546 H 3782.36 -7.22441 -2.36606 0
M  V30 38547 N 3783.94 1.08625 -1.14186 0
M  V30 38548 C 3784.87 2.15355 -0.784529 0
M  V30 38549 C 3785.88 1.61597 0.197553 0
M  V30 38550 O 3787.07 1.78484 -0.0238351 0
M  V30 38551 C 3784.17 3.38596 -0.143493 0
M  V30 38552 C 3783.34 4.21745 -1.15974 0
M  V30 38553 C 3782.4 5.23392 -0.542878 0
M  V30 38554 O 3781.43 5.56294 -1.20522 0
M  V30 38555 N 3782.63 5.76487 0.681364 0
M  V30 38556 H 3785.39 2.46614 -1.70299 0
M  V30 38557 H 3782.96 1.24415 -1.03598 0
M  V30 38558 H 3784.95 4.03719 0.281632 0
M  V30 38559 H 3783.52 3.05158 0.678056 0
M  V30 38560 H 3782.74 3.52635 -1.76188 0
M  V30 38561 H 3784.03 4.74119 -1.84632 0
M  V30 38562 H 3783.42 5.51985 1.23809 0
M  V30 38563 H 3781.98 6.43303 1.04903 0
M  V30 38564 N 3785.41 0.936635 1.26747 0
M  V30 38565 C 3786.34 0.460253 2.28919 0
M  V30 38566 C 3787.33 -0.484106 1.63066 0
M  V30 38567 O 3788.51 -0.386939 1.90306 0
M  V30 38568 C 3785.64 -0.279587 3.46173 0
M  V30 38569 C 3784.59 0.577784 4.24082 0
M  V30 38570 C 3783.92 -0.291749 5.33903 0
M  V30 38571 C 3785.22 1.84682 4.88559 0
M  V30 38572 H 3786.91 1.31416 2.69017 0
M  V30 38573 H 3784.46 0.633356 1.29324 0
M  V30 38574 H 3786.41 -0.623858 4.16756 0
M  V30 38575 H 3785.14 -1.1676 3.05016 0
M  V30 38576 H 3783.8 0.904886 3.55257 0
M  V30 38577 H 3783.44 -1.17898 4.88988 0
M  V30 38578 H 3783.14 0.278475 5.8694 0
M  V30 38579 H 3784.67 -0.631392 6.07327 0
M  V30 38580 H 3786.08 1.57007 5.51382 0
M  V30 38581 H 3784.48 2.36125 5.51693 0
M  V30 38582 H 3785.55 2.56096 4.11756 0
M  V30 38583 N 3786.89 -1.41045 0.703143 0
M  V30 38584 C 3788.12 -2.05946 0.245124 0
M  V30 38585 C 3788.54 -1.52593 -1.09986 0
M  V30 38586 O 3787.9 -0.656052 -1.69014 0
M  V30 38587 C 3787.95 -3.59919 0.221507 0
M  V30 38588 O 3787.05 -4.04541 -0.801253 0
M  V30 38589 H 3786.39 -0.653454 0.117873 0
M  V30 38590 H 3788.92 -1.80673 0.96013 0
M  V30 38591 H 3788.93 -4.07963 0.0549399 0
M  V30 38592 H 3787.61 -3.98119 1.20308 0
M  V30 38593 H 3786.19 -3.67985 -0.603424 0
M  V30 38594 N 3788.37 -0.448429 -1.51086 0
M  V30 38595 C 3789.61 0.113338 -2.04086 0
M  V30 38596 C 3789.97 1.38994 -1.32456 0
M  V30 38597 O 3791.18 2.03265 -1.75888 0
M  V30 38598 C 3789.45 0.315807 -3.56002 0
M  V30 38599 S 3791.01 0.839386 -4.30697 0
M  V30 38600 H 3787.82 0.0266403 -0.710501 0
M  V30 38601 H 3790.43 -0.610378 -1.85727 0
M  V30 38602 H 3789.13 -0.619471 -4.05698 0
M  V30 38603 H 3788.66 1.06629 -3.78674 0
M  V30 38604 H 3790.68 2.11566 -4.48837 0
M  V30 38605 N 3789.85 1.56567 -0.180181 0
M  V30 38606 C 3790.8 2.1839 0.746628 0
M  V30 38607 C 3791.77 1.12657 1.22056 0
M  V30 38608 O 3792.95 1.40846 1.28713 0
M  V30 38609 C 3790.09 2.83566 1.96683 0
M  V30 38610 C 3789.2 4.03784 1.53565 0
M  V30 38611 C 3788.34 4.56861 2.7102 0
M  V30 38612 C 3787.38 5.69469 2.24435 0
M  V30 38613 N 3786.51 6.17017 3.35015 0
M  V30 38614 H 3791.35 2.9724 0.212655 0
M  V30 38615 H 3788.89 1.46804 0.0932302 0
M  V30 38616 H 3790.85 3.19516 2.68264 0
M  V30 38617 H 3789.48 2.07305 2.47436 0
M  V30 38618 H 3788.53 3.73596 0.716257 0
M  V30 38619 H 3789.84 4.85273 1.15376 0
M  V30 38620 H 3789 4.95038 3.50745 0
M  V30 38621 H 3787.74 3.74448 3.12474 0
M  V30 38622 H 3786.74 5.30835 1.4316 0
M  V30 38623 H 3787.97 6.5369 1.84029 0
M  V30 38624 H 3785.91 5.37531 3.76028 0
M  V30 38625 H 3785.83 6.93518 3.00947 0
M  V30 38626 H 3787.1 6.59846 4.14998 0
M  V30 38627 N 3791.33 -0.0935042 1.57322 0
M  V30 38628 C 3792.55 -0.810211 1.90376 0
M  V30 38629 C 3792.97 -1.72204 0.774041 0
M  V30 38630 O 3792.33 -1.80725 -0.253887 0
M  V30 38631 C 3792.38 -1.62223 3.23057 0
M  V30 38632 O 3792.1 -0.747081 4.31683 0
M  V30 38633 C 3793.6 -2.44185 3.69984 0
M  V30 38634 H 3790.82 -0.231574 0.629773 0
M  V30 38635 H 3793.36 -0.0702625 2.04379 0
M  V30 38636 H 3791.52 -2.31467 3.10647 0
M  V30 38637 H 3791.93 -1.30965 5.07886 0
M  V30 38638 H 3793.41 -2.96651 4.65513 0
M  V30 38639 H 3793.88 -3.22722 2.97904 0
M  V30 38640 H 3794.49 -1.80137 3.85267 0
M  V30 38641 N 3792.8 -1.5333 -0.364368 0
M  V30 38642 C 3794.03 -1.73788 -1.13193 0
M  V30 38643 C 3794.45 -0.466256 -1.8223 0
M  V30 38644 O 3793.81 0.579787 -1.71779 0
M  V30 38645 C 3793.86 -2.90457 -2.13699 0
M  V30 38646 O 3792.96 -2.5915 -3.20804 0
M  V30 38647 H 3792.31 -0.577118 -0.328376 0
M  V30 38648 H 3794.84 -2.00219 -0.421122 0
M  V30 38649 H 3794.85 -3.16657 -2.57279 0
M  V30 38650 H 3793.52 -3.82694 -1.62843 0
M  V30 38651 H 3792.1 -2.43772 -2.82188 0
M  V30 38652 N 3794.28 0.624234 -1.4471 0
M  V30 38653 C 3795.25 1.71777 -1.51741 0
M  V30 38654 C 3796.25 1.55779 -0.398673 0
M  V30 38655 O 3797.44 1.61149 -0.661553 0
M  V30 38656 C 3794.57 3.10917 -1.39797 0
M  V30 38657 H 3795.76 1.66916 -2.49157 0
M  V30 38658 H 3793.31 0.838507 -1.31904 0
M  V30 38659 H 3794.05 3.21369 -0.435011 0
M  V30 38660 H 3793.83 3.23936 -2.20925 0
M  V30 38661 H 3795.32 3.90603 -1.47713 0
M  V30 38662 N 3795.76 1.31723 0.865262 0
M  V30 38663 C 3797 1.22983 1.63262 0
M  V30 38664 C 3797.36 -0.20772 1.90873 0
M  V30 38665 O 3798.57 -0.41869 2.65519 0
M  V30 38666 C 3796.84 2.05504 2.92409 0
M  V30 38667 S 3798.4 2.13676 3.8326 0
M  V30 38668 H 3795.21 0.437946 0.560111 0
M  V30 38669 H 3797.82 1.66444 1.02551 0
M  V30 38670 H 3796.52 3.09029 2.70054 0
M  V30 38671 H 3796.05 1.6278 3.58143 0
M  V30 38672 H 3798.07 1.27851 4.79446 0
M  V30 38673 N 3797.24 -1.08018 1.14761 0
M  V30 38674 C 3798.48 -1.82083 0.928717 0
M  V30 38675 C 3798.84 -1.84398 -0.534925 0
M  V30 38676 O 3800.04 -2.54266 -0.871901 0
M  V30 38677 C 3798.31 -3.23562 1.51796 0
M  V30 38678 S 3799.87 -4.14457 1.44122 0
M  V30 38679 H 3796.69 -0.627454 0.3344 0
M  V30 38680 H 3799.29 -1.2981 1.46184 0
M  V30 38681 H 3798 -3.19462 2.57628 0
M  V30 38682 H 3797.53 -3.8091 0.98341 0
M  V30 38683 H 3799.54 -4.94338 0.429452 0
M  V30 38684 N 3798.72 -0.943344 -1.26249 0
M  V30 38685 C 3800.13 -0.634422 -1.7559 0
M  V30 38686 C 3800.48 0.850375 -1.76814 0
M  V30 38687 O 3799.6 1.66551 -1.38165 0
M  V30 38688 C 3800.2 -1.1449 -3.18869 0
M  V30 38689 C 3798.76 -0.886349 -3.65815 0
M  V30 38690 C 3797.9 -1.29454 -2.45228 0
M  V30 38691 H 3800.86 -1.12141 -1.12295 0
M  V30 38692 H 3800.88 -0.49972 -3.77204 0
M  V30 38693 H 3800.39 -2.22557 -3.17947 0
M  V30 38694 H 3798.49 0.179847 -3.72166 0
M  V30 38695 H 3798.6 -1.51488 -4.5452 0
M  V30 38696 H 3796.97 -0.712962 -2.44518 0
M  V30 38697 H 3797.75 -2.38419 -2.47005 0
M  V30 38698 N 3800.2 1.4067 -0.710613 0
M  V30 38699 C 3801.42 2.05813 -0.256043 0
M  V30 38700 C 3801.85 1.53175 1.09175 0
M  V30 38701 O 3801.2 0.665006 1.68663 0
M  V30 38702 C 3801.25 3.59796 -0.240591 0
M  V30 38703 O 3800.36 4.04961 0.779788 0
M  V30 38704 H 3799.7 0.652819 -0.121337 0
M  V30 38705 H 3802.23 1.80161 -0.969698 0
M  V30 38706 H 3802.24 4.07928 -0.0765744 0
M  V30 38707 H 3800.91 3.97475 -1.22418 0
M  V30 38708 H 3799.49 3.683 0.5839 0
M  V30 38709 N 3801.67 0.456435 1.50846 0
M  V30 38710 C 3802.91 -0.102513 2.04143 0
M  V30 38711 C 3803.28 -1.3829 1.33192 0
M  V30 38712 O 3804.48 -2.02329 1.76964 0
M  V30 38713 C 3802.75 -0.296922 3.56164 0
M  V30 38714 S 3804.31 -0.816534 4.31136 0
M  V30 38715 H 3801.13 -0.022872 0.710632 0
M  V30 38716 H 3803.73 0.620219 1.85401 0
M  V30 38717 H 3802.43 0.640978 4.05364 0
M  V30 38718 H 3801.96 -1.04619 3.79234 0
M  V30 38719 H 3803.98 -2.09182 4.49952 0
M  V30 38720 N 3803.15 -1.56469 0.188482 0
M  V30 38721 C 3804.57 -1.58719 -0.16746 0
M  V30 38722 C 3804.77 -1.20444 -1.61541 0
M  V30 38723 O 3803.82 -0.924082 -2.34983 0
M  V30 38724 C 3805.14 -3.00424 0.128907 0
M  V30 38725 C 3806.68 -3.12925 0.0684851 0
M  V30 38726 C 3807.16 -4.56751 0.338072 0
M  V30 38727 N 3808.65 -4.62313 0.286454 0
M  V30 38728 C 3809.39 -5.71479 0.468987 0
M  V30 38729 N 3808.88 -6.89137 0.71151 0
M  V30 38730 N 3810.67 -5.60648 0.403701 0
M  V30 38731 H 3802.83 -1.79631 1.13342 0
M  V30 38732 H 3805.09 -0.833361 0.451899 0
M  V30 38733 H 3804.79 -3.32964 1.13261 0
M  V30 38734 H 3804.67 -3.72844 -0.571579 0
M  V30 38735 H 3807.06 -2.80201 -0.925815 0
M  V30 38736 H 3807.14 -2.42904 0.801946 0
M  V30 38737 H 3806.78 -4.90186 1.32966 0
M  V30 38738 H 3806.71 -5.24953 -0.416201 0
M  V30 38739 H 3809.2 -3.77753 0.105352 0
M  V30 38740 H 3809.51 -7.68224 0.839778 0
M  V30 38741 H 3807.86 -6.9096 0.748326 0
M  V30 38742 H 3811.05 -4.67607 0.214698 0
M  V30 38743 H 3811.22 -6.45667 0.549375 0
M  V30 38744 N 3804.63 0.0851597 -1.5737 0
M  V30 38745 C 3805.87 0.79232 -1.88419 0
M  V30 38746 C 3806.23 1.75412 -0.780681 0
M  V30 38747 O 3807.43 2.50538 -0.973863 0
M  V30 38748 C 3805.71 1.49334 -3.24706 0
M  V30 38749 S 3807.26 2.23742 -3.77472 0
M  V30 38750 H 3804.08 0.263765 -0.660264 0
M  V30 38751 H 3806.68 0.0489905 -1.95439 0
M  V30 38752 H 3805.39 0.779355 -4.02932 0
M  V30 38753 H 3804.92 2.27637 -3.2085 0
M  V30 38754 H 3806.93 3.50046 -3.51685 0
M  V30 38755 N 3806.11 1.53521 0.356231 0
M  V30 38756 C 3807.02 1.83592 1.46052 0
M  V30 38757 C 3808.03 0.725025 1.58175 0
M  V30 38758 O 3809.21 1.01604 1.73892 0
M  V30 38759 C 3806.27 2.02794 2.81203 0
M  V30 38760 C 3805.34 3.2668 2.78529 0
M  V30 38761 C 3804.57 3.44957 4.07235 0
M  V30 38762 O 3804.79 2.67333 5.03874 0
M  V30 38763 O 3803.73 4.38344 4.12478 0
M  V30 38764 H 3807.55 2.77428 1.23561 0
M  V30 38765 H 3805.14 1.39018 0.547219 0
M  V30 38766 H 3807.02 2.16943 3.61267 0
M  V30 38767 H 3805.69 1.12148 3.03652 0
M  V30 38768 H 3804.6 3.17947 1.97131 0
M  V30 38769 H 3805.93 4.17279 2.61035 0
M  V30 38770 N 3807.59 -0.616551 1.45039 0
M  V30 38771 C 3809 -0.936336 1.29247 0
M  V30 38772 C 3809.2 -2.00079 0.238914 0
M  V30 38773 O 3808.26 -2.49771 -0.370221 0
M  V30 38774 C 3809.57 -1.38577 2.66865 0
M  V30 38775 C 3811.12 -1.50046 2.74691 0
M  V30 38776 C 3811.59 -1.98368 4.12812 0
M  V30 38777 N 3813.08 -2.05616 4.15062 0
M  V30 38778 C 3813.82 -2.44207 5.18797 0
M  V30 38779 N 3813.32 -2.81831 6.32885 0
M  V30 38780 N 3815.11 -2.44468 5.06154 0
M  V30 38781 H 3807.26 0.0871678 2.12221 0
M  V30 38782 H 3809.52 -0.0236492 0.947705 0
M  V30 38783 H 3809.23 -0.67785 3.45106 0
M  V30 38784 H 3809.1 -2.35402 2.9473 0
M  V30 38785 H 3811.49 -2.19931 1.9676 0
M  V30 38786 H 3811.57 -0.515587 2.5055 0
M  V30 38787 H 3811.21 -1.29073 4.91226 0
M  V30 38788 H 3811.14 -2.97753 4.34339 0
M  V30 38789 H 3813.64 -1.79165 3.32729 0
M  V30 38790 H 3813.95 -3.10134 7.07839 0
M  V30 38791 H 3812.29 -2.79548 6.363 0
M  V30 38792 H 3815.48 -2.14475 4.16075 0
M  V30 38793 H 3815.66 -2.74219 5.87118 0
M  V30 38794 N 3809.06 -1.3218 -0.858264 0
M  V30 38795 C 3810 -1.15147 -1.97019 0
M  V30 38796 C 3810.97 -0.0518665 -1.62517 0
M  V30 38797 O 3812.16 -0.210498 -1.87321 0
M  V30 38798 C 3809.29 -0.761945 -3.30018 0
M  V30 38799 C 3808.33 -1.86627 -3.835 0
M  V30 38800 S 3809.16 -3.47391 -4.07529 0
M  V30 38801 C 3810.32 -3.10402 -5.43509 0
M  V30 38802 H 3810.55 -2.09276 -2.11166 0
M  V30 38803 H 3808.09 -1.16799 -1.00981 0
M  V30 38804 H 3810.04 -0.543965 -4.0688 0
M  V30 38805 H 3808.71 0.160424 -3.1369 0
M  V30 38806 H 3807.9 -1.54663 -4.79683 0
M  V30 38807 H 3807.5 -2.03991 -3.1347 0
M  V30 38808 H 3809.79 -2.60022 -6.25616 0
M  V30 38809 H 3810.74 -4.05592 -5.80432 0
M  V30 38810 H 3811.14 -2.4752 -5.0734 0
M  V30 38811 N 3810.54 1.07407 -1.15332 0
M  V30 38812 C 3811.45 2.18128 -0.863552 0
M  V30 38813 C 3812.47 1.73264 0.159924 0
M  V30 38814 O 3813.64 2.01395 -0.0140172 0
M  V30 38815 C 3810.71 3.44864 -0.356332 0
M  V30 38816 C 3809.77 4.04299 -1.44363 0
M  V30 38817 C 3809 5.24985 -0.960521 0
M  V30 38818 O 3809.23 5.7007 0.194127 0
M  V30 38819 O 3808.16 5.76081 -1.74397 0
M  V30 38820 H 3811.99 2.45405 -1.78913 0
M  V30 38821 H 3809.57 1.16735 -0.932383 0
M  V30 38822 H 3811.45 4.21324 -0.0798924 0
M  V30 38823 H 3810.13 3.19141 0.541389 0
M  V30 38824 H 3809.03 3.29381 -1.77367 0
M  V30 38825 H 3810.37 4.34294 -2.31625 0
M  V30 38826 N 3812.02 0.950026 1.25747 0
M  V30 38827 C 3812.98 0.471099 2.24306 0
M  V30 38828 C 3813.98 -0.422677 1.55145 0
M  V30 38829 O 3815.17 -0.220612 1.72797 0
M  V30 38830 C 3812.3 -0.319919 3.39396 0
M  V30 38831 H 3813.5 1.34218 2.68189 0
M  V30 38832 H 3811.05 0.732851 1.38054 0
M  V30 38833 H 3811.79 -1.20887 3.00927 0
M  V30 38834 H 3811.57 0.321225 3.90782 0
M  V30 38835 H 3813.06 -0.644624 4.12595 0
M  V30 38836 N 3813.5 -1.40291 0.718063 0
M  V30 38837 C 3814.74 -2.027 0.263092 0
M  V30 38838 C 3815.1 -1.55713 -1.12327 0
M  V30 38839 O 3816.3 -2.10202 -1.67537 0
M  V30 38840 C 3814.57 -3.55752 0.342835 0
M  V30 38841 S 3816.13 -4.38786 -0.0347851 0
M  V30 38842 H 3812.95 -0.703324 0.104192 0
M  V30 38843 H 3815.55 -1.71373 0.940831 0
M  V30 38844 H 3814.26 -3.87441 1.35343 0
M  V30 38845 H 3813.79 -3.9181 -0.353298 0
M  V30 38846 H 3815.8 -4.80038 -1.25609 0
M  V30 38847 N 3814.98 -0.464428 -1.50602 0
M  V30 38848 C 3815.91 0.379035 -2.2503 0
M  V30 38849 C 3816.89 1.00189 -1.28066 0
M  V30 38850 O 3818.07 1.03912 -1.57272 0
M  V30 38851 C 3815.2 1.53052 -3.02147 0
M  V30 38852 C 3814.24 1.02569 -4.13983 0
M  V30 38853 S 3815.08 -0.0542394 -5.35473 0
M  V30 38854 C 3816.23 1.10127 -6.16135 0
M  V30 38855 H 3816.47 -0.252783 -2.96223 0
M  V30 38856 H 3814 -0.249232 -1.52375 0
M  V30 38857 H 3815.96 2.1905 -3.47171 0
M  V30 38858 H 3814.62 2.13383 -2.30492 0
M  V30 38859 H 3813.81 1.88754 -4.6732 0
M  V30 38860 H 3813.41 0.443532 -3.71361 0
M  V30 38861 H 3815.71 2.01426 -6.46865 0
M  V30 38862 H 3816.65 0.607306 -7.05491 0
M  V30 38863 H 3817.06 1.35209 -5.48068 0
M  V30 38864 N 3816.45 1.56367 -0.196777 0
M  V30 38865 C 3817.38 2.22169 0.718568 0
M  V30 38866 C 3818.37 1.18532 1.22 0
M  V30 38867 O 3819.55 1.47044 1.26853 0
M  V30 38868 C 3816.68 2.88235 1.93748 0
M  V30 38869 C 3815.63 3.98129 1.57089 0
M  V30 38870 C 3814.96 4.51368 2.86655 0
M  V30 38871 C 3816.26 5.1645 0.779559 0
M  V30 38872 H 3817.95 2.98917 0.170012 0
M  V30 38873 H 3815.5 1.43776 0.0803315 0
M  V30 38874 H 3817.45 3.32951 2.58306 0
M  V30 38875 H 3816.18 2.08894 2.51059 0
M  V30 38876 H 3814.84 3.54107 0.948885 0
M  V30 38877 H 3814.48 3.68788 3.42059 0
M  V30 38878 H 3814.18 5.25521 2.62871 0
M  V30 38879 H 3815.71 4.98787 3.52198 0
M  V30 38880 H 3817.12 5.577 1.32828 0
M  V30 38881 H 3815.52 5.9668 0.639777 0
M  V30 38882 H 3816.59 4.84405 -0.219029 0
M  V30 38883 N 3817.93 -0.0768128 1.57413 0
M  V30 38884 C 3818.88 -1.11057 2.04375 0
M  V30 38885 C 3819.87 -1.4038 0.948152 0
M  V30 38886 O 3821.08 -1.39846 1.13328 0
M  V30 38887 H 3817.46 -0.375453 0.651567 0
M  V30 38888 H 3819.43 -0.688297 2.90353 0
M  V30 38889 C 3818.18 -2.41736 2.49918 0
M  V30 38890 H 3817.5 -2.20022 3.33812 0
M  V30 38891 H 3818.94 -3.12527 2.86536 0
M  V30 38892 C 3817.4 -3.07339 1.38001 0
M  V30 38893 O 3817.93 -3.95207 0.719312 0
M  V30 38894 N 3816.13 -2.67882 1.1264 0
M  V30 38895 H 3815.68 -1.96518 1.66548 0
M  V30 38896 H 3815.64 -3.121 0.379615 0
M  V30 38897 N 3819.41 -1.53708 -0.348084 0
M  V30 38898 C 3820.66 -1.70398 -1.08668 0
M  V30 38899 C 3820.98 -0.467486 -1.89313 0
M  V30 38900 O 3820.25 0.518572 -1.88912 0
M  V30 38901 H 3818.83 -0.628213 -0.404175 0
M  V30 38902 H 3821.49 -1.90949 -0.390457 0
M  V30 38903 H 3820.59 -2.57287 -1.76663 0
M  V30 38904 N 3820.89 0.608851 -1.45364 0
M  V30 38905 C 3822.12 1.39456 -1.52839 0
M  V30 38906 C 3822.53 1.88116 -0.16057 0
M  V30 38907 O 3821.89 1.62141 0.837643 0
M  V30 38908 C 3821.94 2.5999 -2.51172 0
M  V30 38909 O 3821.66 2.13352 -3.82639 0
M  V30 38910 C 3823.16 3.52864 -2.68332 0
M  V30 38911 H 3820.38 0.426933 -0.517657 0
M  V30 38912 H 3822.93 0.74264 -1.90539 0
M  V30 38913 H 3821.08 3.21226 -2.16547 0
M  V30 38914 H 3821.49 2.91657 -4.35932 0
M  V30 38915 H 3822.97 4.33986 -3.41116 0
M  V30 38916 H 3823.45 4.03123 -1.74324 0
M  V30 38917 H 3824.05 2.97482 -3.03949 0
M  V30 38918 N 3822.37 1.32633 0.851242 0
M  V30 38919 C 3823.61 1.23571 1.60805 0
M  V30 38920 C 3823.95 -0.201205 1.93155 0
M  V30 38921 O 3823.22 -1.13926 1.57642 0
M  V30 38922 C 3823.5 2.09877 2.92615 0
M  V30 38923 C 3823.36 3.61964 2.67025 0
M  V30 38924 C 3824.68 1.96251 3.93921 0
M  V30 38925 H 3821.79 0.450239 0.583484 0
M  V30 38926 H 3824.44 1.62613 0.982702 0
M  V30 38927 H 3822.59 1.7671 3.45985 0
M  V30 38928 H 3824.26 4.05361 2.20182 0
M  V30 38929 H 3822.5 3.8446 2.00931 0
M  V30 38930 H 3823.17 4.17683 3.60895 0
M  V30 38931 H 3825.65 2.25313 3.49819 0
M  V30 38932 H 3824.52 2.58911 4.84 0
M  V30 38933 H 3824.79 0.931141 4.32183 0
M  V30 38934 N 3823.84 -1.06794 1.159 0
M  V30 38935 C 3825.09 -1.78882 0.931879 0
M  V30 38936 C 3825.41 -1.87943 -0.541937 0
M  V30 38937 O 3826.61 -2.56609 -0.886803 0
M  V30 38938 C 3825.07 -3.21482 1.61794 0
M  V30 38939 C 3824.68 -3.20605 3.12916 0
M  V30 38940 C 3826.42 -3.9814 1.47259 0
M  V30 38941 C 3824.33 -4.57893 3.74283 0
M  V30 38942 H 3823.26 -0.670436 0.34501 0
M  V30 38943 H 3825.91 -1.19825 1.38976 0
M  V30 38944 H 3824.29 -3.80767 1.08776 0
M  V30 38945 H 3825.46 -2.70931 3.72737 0
M  V30 38946 H 3823.78 -2.57445 3.27278 0
M  V30 38947 H 3826.38 -4.99616 1.90493 0
M  V30 38948 H 3826.72 -4.14167 0.420839 0
M  V30 38949 H 3827.25 -3.45364 1.97405 0
M  V30 38950 H 3823.99 -4.4707 4.79384 0
M  V30 38951 H 3823.51 -5.07781 3.19247 0
M  V30 38952 H 3825.19 -5.26856 3.75542 0
M  V30 38953 N 3825.32 -0.956681 -1.25241 0
M  V30 38954 C 3826.57 -0.611362 -1.92631 0
M  V30 38955 C 3826.89 0.854639 -1.75274 0
M  V30 38956 O 3826.16 1.60892 -1.11761 0
M  V30 38957 H 3824.74 -0.223121 -0.7129 0
M  V30 38958 H 3827.4 -1.21537 -1.52364 0
M  V30 38959 H 3826.5 -0.842449 -3.00515 0
M  V30 38960 N 3826.8 1.39908 -0.725493 0
M  V30 38961 C 3828.21 1.8357 -0.340447 0
M  V30 38962 C 3828.56 1.60632 1.12658 0
M  V30 38963 O 3827.69 1.09243 1.86802 0
M  V30 38964 C 3828.28 3.33242 -0.611138 0
M  V30 38965 C 3826.84 3.75359 -0.279693 0
M  V30 38966 C 3825.99 2.63015 -0.878544 0
M  V30 38967 H 3828.94 1.29036 -0.923879 0
M  V30 38968 H 3828.96 3.8031 0.12031 0
M  V30 38969 H 3828.47 3.49905 -1.67893 0
M  V30 38970 H 3826.57 3.64288 0.782639 0
M  V30 38971 H 3826.69 4.73104 -0.755611 0
M  V30 38972 H 3825.05 2.52857 -0.305857 0
M  V30 38973 H 3825.83 2.82487 -1.9508 0
M  V30 38974 N 3828.28 0.472408 1.50353 0
M  V30 38975 C 3829.53 -0.0819651 2.01934 0
M  V30 38976 C 3829.85 -1.40097 1.35638 0
M  V30 38977 O 3829.12 -1.89355 0.50216 0
M  V30 38978 H 3827.7 -0.0332811 0.746258 0
M  V30 38979 H 3830.36 0.623131 1.8467 0
M  V30 38980 H 3829.46 -0.232511 3.11233 0
M  V30 38981 N 3829.76 -1.5626 0.205067 0
M  V30 38982 C 3830.7 -2.1955 -0.711789 0
M  V30 38983 C 3831.67 -1.14584 -1.20248 0
M  V30 38984 O 3832.86 -1.42875 -1.26456 0
M  V30 38985 C 3830 -2.86659 -1.92147 0
M  V30 38986 C 3829.11 -4.06176 -1.47122 0
M  V30 38987 C 3828.25 -4.61114 -2.63717 0
M  V30 38988 C 3827.29 -5.72968 -2.15347 0
M  V30 38989 N 3826.42 -6.22268 -3.25156 0
M  V30 38990 H 3831.26 -2.97541 -0.165339 0
M  V30 38991 H 3828.8 -1.46934 -0.0698631 0
M  V30 38992 H 3830.76 -3.23743 -2.63146 0
M  V30 38993 H 3829.39 -2.11215 -2.44107 0
M  V30 38994 H 3828.44 -3.74688 -0.656731 0
M  V30 38995 H 3829.75 -4.87047 -1.07641 0
M  V30 38996 H 3828.91 -5.00556 -3.42825 0
M  V30 38997 H 3827.65 -3.79372 -3.06477 0
M  V30 38998 H 3826.65 -5.33045 -1.34697 0
M  V30 38999 H 3827.88 -6.56535 -1.73606 0
M  V30 39000 H 3825.82 -5.43445 -3.67428 0
M  V30 39001 H 3825.74 -6.98218 -2.89876 0
M  V30 39002 H 3827.01 -6.66365 -4.04448 0
M  V30 39003 N 3831.24 0.0684638 -1.57451 0
M  V30 39004 C 3832.46 0.779821 -1.91641 0
M  V30 39005 C 3832.88 1.7095 -0.801339 0
M  V30 39006 O 3832.24 1.81106 0.225103 0
M  V30 39007 C 3832.29 1.57063 -3.25597 0
M  V30 39008 O 3832.01 0.678309 -4.32817 0
M  V30 39009 C 3833.51 2.38268 -3.73822 0
M  V30 39010 H 3830.73 0.221526 -0.633378 0
M  V30 39011 H 3833.27 0.0377387 -2.04465 0
M  V30 39012 H 3831.43 2.26495 -3.14291 0
M  V30 39013 H 3831.84 1.22868 -5.09906 0
M  V30 39014 H 3833.32 2.89208 -4.70173 0
M  V30 39015 H 3833.79 3.17942 -3.03001 0
M  V30 39016 H 3834.4 1.73985 -3.88084 0
M  V30 39017 N 3832.71 1.5389 0.339928 0
M  V30 39018 C 3833.96 1.71564 1.08136 0
M  V30 39019 C 3834.29 0.479325 1.88192 0
M  V30 39020 O 3833.57 -0.523669 1.87318 0
M  V30 39021 C 3833.85 2.98136 2.01958 0
M  V30 39022 C 3833.7 4.31983 1.25341 0
M  V30 39023 C 3835.02 3.20392 3.01723 0
M  V30 39024 H 3832.14 0.624271 0.391733 0
M  V30 39025 H 3834.78 1.86566 0.359576 0
M  V30 39026 H 3832.93 2.85477 2.63506 0
M  V30 39027 H 3834.61 4.56499 0.663799 0
M  V30 39028 H 3832.85 4.30229 0.555465 0
M  V30 39029 H 3833.52 5.16732 1.94145 0
M  V30 39030 H 3836 3.32406 2.50291 0
M  V30 39031 H 3834.87 4.10342 3.64569 0
M  V30 39032 H 3835.13 2.36856 3.73299 0
M  V30 39033 N 3834.19 -0.601133 1.45685 0
M  V30 39034 C 3835.12 -1.72543 1.49345 0
M  V30 39035 C 3836.1 -1.58806 0.349212 0
M  V30 39036 O 3837.29 -1.80277 0.550666 0
M  V30 39037 C 3834.41 -3.10432 1.3546 0
M  V30 39038 C 3833.46 -3.42741 2.53832 0
M  V30 39039 S 3834.29 -3.36861 4.16275 0
M  V30 39040 C 3835.45 -4.77319 4.04867 0
M  V30 39041 H 3835.68 -1.69177 2.44472 0
M  V30 39042 H 3833.21 -0.778334 1.33347 0
M  V30 39043 H 3835.17 -3.89989 1.28137 0
M  V30 39044 H 3833.83 -3.11307 0.417935 0
M  V30 39045 H 3833.03 -4.43156 2.4006 0
M  V30 39046 H 3832.63 -2.70714 2.5805 0
M  V30 39047 H 3834.92 -5.67277 3.7041 0
M  V30 39048 H 3835.86 -4.96148 5.05216 0
M  V30 39049 H 3836.27 -4.53304 3.36416 0
M  V30 39050 N 3835.67 -1.33083 -0.844196 0
M  V30 39051 C 3836.92 -1.23588 -1.59402 0
M  V30 39052 C 3837.23 0.198174 -1.94594 0
M  V30 39053 O 3838.44 0.415091 -2.68308 0
M  V30 39054 C 3836.89 -2.16518 -2.87486 0
M  V30 39055 C 3836.5 -3.65063 -2.59678 0
M  V30 39056 C 3838.25 -2.15883 -3.65506 0
M  V30 39057 C 3836.15 -4.49924 -3.83826 0
M  V30 39058 H 3835.08 -0.459013 -0.598183 0
M  V30 39059 H 3837.73 -1.58113 -0.931271 0
M  V30 39060 H 3836.12 -1.74919 -3.55273 0
M  V30 39061 H 3837.29 -4.15069 -2.00136 0
M  V30 39062 H 3835.6 -3.67934 -1.94971 0
M  V30 39063 H 3838.2 -2.76517 -4.57649 0
M  V30 39064 H 3838.54 -1.15251 -4.00029 0
M  V30 39065 H 3839.08 -2.55816 -3.04636 0
M  V30 39066 H 3835.82 -5.51411 -3.54438 0
M  V30 39067 H 3835.34 -4.04664 -4.42727 0
M  V30 39068 H 3837.02 -4.63457 -4.5146 0
M  V30 39069 N 3837.15 1.06178 -1.16464 0
M  V30 39070 C 3838.42 1.75823 -0.857069 0
M  V30 39071 C 3838.8 2.0101 0.64485 0
M  V30 39072 O 3838.15 1.63814 1.59302 0
M  V30 39073 C 3838.36 3.05846 -1.68105 0
M  V30 39074 C 3839.71 3.79979 -1.89476 0
M  V30 39075 O 3840.73 3.1569 -1.6498 0
M  V30 39076 O 3839.59 4.95474 -2.30581 0
M  V30 39077 H 3836.69 0.76409 -0.316378 0
M  V30 39078 H 3839.23 1.12436 -1.27107 0
M  V30 39079 H 3838.01 2.83206 -2.70019 0
M  V30 39080 H 3837.63 3.76968 -1.26417 0
M  V30 39081 N 3838.63 0.96331 1.24732 0
M  V30 39082 C 3839.87 0.623722 1.9297 0
M  V30 39083 C 3840.2 -0.838362 1.75172 0
M  V30 39084 O 3839.48 -1.60262 1.10211 0
M  V30 39085 C 3839.76 0.993851 3.46114 0
M  V30 39086 C 3839.62 2.51231 3.73099 0
M  V30 39087 C 3840.93 0.525205 4.36955 0
M  V30 39088 H 3838.05 0.22807 0.700823 0
M  V30 39089 H 3840.7 1.20152 1.47185 0
M  V30 39090 H 3838.85 0.502176 3.85241 0
M  V30 39091 H 3840.52 3.07841 3.43557 0
M  V30 39092 H 3838.76 2.94621 3.18403 0
M  V30 39093 H 3839.43 2.72178 4.80232 0
M  V30 39094 H 3841.91 0.947086 4.05178 0
M  V30 39095 H 3840.78 0.812791 5.42849 0
M  V30 39096 H 3841.04 -0.574766 4.38348 0
M  V30 39097 N 3840.1 -1.39522 0.732902 0
M  V30 39098 C 3841.34 -2.02409 0.284577 0
M  V30 39099 C 3841.71 -1.56896 -1.1067 0
M  V30 39100 O 3842.91 -2.11967 -1.65298 0
M  V30 39101 C 3841.18 -3.55368 0.380548 0
M  V30 39102 S 3842.74 -4.38798 0.011756 0
M  V30 39103 H 3839.56 -0.70218 0.111646 0
M  V30 39104 H 3842.16 -1.70365 0.958954 0
M  V30 39105 H 3840.86 -3.85984 1.39444 0
M  V30 39106 H 3840.39 -3.92163 -0.311721 0
M  V30 39107 H 3842.41 -4.81343 -1.20511 0
M  V30 39108 N 3841.58 -0.480375 -1.501 0
M  V30 39109 C 3842.81 0.0688116 -2.06786 0
M  V30 39110 C 3843.22 1.3268 -1.34318 0
M  V30 39111 O 3842.58 1.77714 -0.415227 0
M  V30 39112 C 3842.63 0.347459 -3.59826 0
M  V30 39113 O 3842.35 -0.860645 -4.29563 0
M  V30 39114 C 3843.85 0.942584 -4.33163 0
M  V30 39115 H 3841.07 -0.011229 -0.670906 0
M  V30 39116 H 3843.62 -0.671822 -1.9315 0
M  V30 39117 H 3841.77 1.03804 -3.73234 0
M  V30 39118 H 3842.19 -0.610888 -5.2093 0
M  V30 39119 H 3843.66 1.08726 -5.41186 0
M  V30 39120 H 3844.14 1.93511 -3.94272 0
M  V30 39121 H 3844.74 0.290104 -4.24309 0
M  V30 39122 N 3843.06 1.56149 -0.213351 0
M  V30 39123 C 3844.29 2.02474 0.425653 0
M  V30 39124 C 3844.7 1.09329 1.53924 0
M  V30 39125 O 3844.06 0.101396 1.82218 0
M  V30 39126 C 3844.11 3.48383 0.96496 0
M  V30 39127 O 3843.83 4.37976 -0.104222 0
M  V30 39128 C 3845.33 4.10314 1.67803 0
M  V30 39129 H 3842.55 0.662725 0.105053 0
M  V30 39130 H 3845.1 2.01862 -0.327404 0
M  V30 39131 H 3843.25 3.49637 1.66832 0
M  V30 39132 H 3843.67 5.23642 0.299893 0
M  V30 39133 H 3845.14 5.14203 2.00748 0
M  V30 39134 H 3845.62 3.54832 2.58826 0
M  V30 39135 H 3846.22 4.12886 1.02007 0
M  V30 39136 N 3844.54 -0.0601128 1.57485 0
M  V30 39137 C 3845.78 -0.762244 1.89655 0
M  V30 39138 C 3846.14 -1.74148 0.808489 0
M  V30 39139 O 3847.34 -2.48957 1.0136 0
M  V30 39140 C 3845.61 -1.4415 3.27041 0
M  V30 39141 S 3847.17 -2.17708 3.80984 0
M  V30 39142 H 3843.99 -0.253228 0.664377 0
M  V30 39143 H 3846.59 -0.0178917 1.95492 0
M  V30 39144 H 3845.3 -0.715154 4.04121 0
M  V30 39145 H 3844.83 -2.22504 3.24431 0
M  V30 39146 H 3846.84 -3.44406 3.5721 0
M  V30 39147 N 3846.02 -1.54068 -0.331762 0
M  V30 39148 C 3847.43 -1.44595 -0.675603 0
M  V30 39149 C 3847.63 -0.612199 -1.91975 0
M  V30 39150 O 3846.69 -0.107787 -2.5227 0
M  V30 39151 C 3848 -2.88222 -0.857252 0
M  V30 39152 C 3849.55 -2.98071 -0.955118 0
M  V30 39153 C 3850.02 -4.4283 -1.169 0
M  V30 39154 N 3851.52 -4.46407 -1.23593 0
M  V30 39155 C 3852.25 -5.55561 -1.41915 0
M  V30 39156 N 3851.75 -6.74699 -1.57333 0
M  V30 39157 N 3853.54 -5.43194 -1.44557 0
M  V30 39158 H 3845.69 -2.06763 0.486094 0
M  V30 39159 H 3847.95 -0.935139 0.155622 0
M  V30 39160 H 3847.66 -3.51697 -0.0144041 0
M  V30 39161 H 3847.53 -3.33858 -1.75552 0
M  V30 39162 H 3849.92 -2.34729 -1.78848 0
M  V30 39163 H 3850 -2.55778 -0.0334975 0
M  V30 39164 H 3849.65 -5.06757 -0.340523 0
M  V30 39165 H 3849.58 -4.82726 -2.10437 0
M  V30 39166 H 3852.07 -3.60561 -1.13155 0
M  V30 39167 H 3852.38 -7.53648 -1.70982 0
M  V30 39168 H 3850.72 -6.77622 -1.54446 0
M  V30 39169 H 3853.92 -4.49073 -1.32102 0
M  V30 39170 H 3854.09 -6.28318 -1.58494 0
M  V30 39171 N 3847.49 0.593399 -1.46002 0
M  V30 39172 C 3848.73 1.36314 -1.52308 0
M  V30 39173 C 3849.1 1.91278 -0.166365 0
M  V30 39174 O 3850.3 2.68598 -0.104153 0
M  V30 39175 C 3848.57 2.47007 -2.58307 0
M  V30 39176 S 3850.13 3.34548 -2.83942 0
M  V30 39177 H 3846.95 0.464552 -0.538249 0
M  V30 39178 H 3849.55 0.683276 -1.83171 0
M  V30 39179 H 3848.25 2.05001 -3.55532 0
M  V30 39180 H 3847.78 3.19778 -2.29141 0
M  V30 39181 H 3849.8 4.45552 -2.18399 0
M  V30 39182 N 3848.97 1.33529 0.837127 0
M  V30 39183 C 3849.91 1.18267 1.95162 0
M  V30 39184 C 3850.88 0.077715 1.62414 0
M  V30 39185 O 3852.07 0.240273 1.86962 0
M  V30 39186 C 3849.19 0.814352 3.28764 0
M  V30 39187 C 3848.24 1.92705 3.80483 0
M  V30 39188 S 3849.07 3.5383 4.01951 0
M  V30 39189 C 3850.23 3.19009 5.38502 0
M  V30 39190 H 3850.46 2.12609 2.07809 0
M  V30 39191 H 3848 1.18391 0.991105 0
M  V30 39192 H 3849.95 0.608627 4.05963 0
M  V30 39193 H 3848.61 -0.110498 3.13906 0
M  V30 39194 H 3847.81 1.62275 4.77161 0
M  V30 39195 H 3847.41 2.08953 3.10185 0
M  V30 39196 H 3849.7 2.69942 6.214 0
M  V30 39197 H 3850.64 4.14774 5.73906 0
M  V30 39198 H 3851.05 2.5556 5.03338 0
M  V30 39199 N 3850.45 -1.05559 1.17026 0
M  V30 39200 C 3851.7 -1.78758 0.957773 0
M  V30 39201 C 3852.03 -1.87312 -0.512619 0
M  V30 39202 O 3851.3 -1.37018 -1.38045 0
M  V30 39203 C 3851.59 -3.22849 1.59501 0
M  V30 39204 C 3851.44 -3.2233 3.13725 0
M  V30 39205 C 3852.76 -4.2059 1.29583 0
M  V30 39206 H 3849.88 -0.648932 0.349365 0
M  V30 39207 H 3852.52 -1.23405 1.44469 0
M  V30 39208 H 3850.67 -3.70115 1.18097 0
M  V30 39209 H 3852.34 -2.83168 3.64161 0
M  V30 39210 H 3850.59 -2.60774 3.46669 0
M  V30 39211 H 3851.26 -4.24012 3.53438 0
M  V30 39212 H 3853.73 -3.81801 1.6543 0
M  V30 39213 H 3852.61 -5.1966 1.76761 0
M  V30 39214 H 3852.87 -4.41572 0.215967 0
M  V30 39215 N 3851.93 -0.969911 -1.2422 0
M  V30 39216 C 3852.86 -0.459676 -2.24543 0
M  V30 39217 C 3853.87 0.432786 -1.56942 0
M  V30 39218 O 3855.06 0.238606 -1.76898 0
M  V30 39219 C 3852.16 0.355441 -3.37031 0
M  V30 39220 C 3851.34 -0.527642 -4.34206 0
M  V30 39221 C 3850.39 0.231842 -5.25689 0
M  V30 39222 O 3849.42 -0.374979 -5.67964 0
M  V30 39223 N 3850.62 1.5208 -5.60225 0
M  V30 39224 H 3853.39 -1.32225 -2.68955 0
M  V30 39225 H 3850.95 -0.841984 -1.38283 0
M  V30 39226 H 3852.94 0.871615 -3.95202 0
M  V30 39227 H 3851.51 1.11896 -2.91887 0
M  V30 39228 H 3850.73 -1.22477 -3.74691 0
M  V30 39229 H 3852.02 -1.12984 -4.96097 0
M  V30 39230 H 3851.42 2.0355 -5.27811 0
M  V30 39231 H 3849.97 1.98262 -6.20915 0
M  V30 39232 N 3853.41 1.39131 -0.740291 0
M  V30 39233 C 3854.65 2.00702 -0.290988 0
M  V30 39234 C 3854.99 1.58615 1.12048 0
M  V30 39235 O 3854.26 0.817488 1.76486 0
M  V30 39236 C 3854.54 3.57885 -0.398828 0
M  V30 39237 C 3854.4 4.09974 -1.85045 0
M  V30 39238 C 3855.72 4.39571 0.21564 0
M  V30 39239 H 3852.83 0.729161 -0.107207 0
M  V30 39240 H 3855.48 1.65264 -0.93744 0
M  V30 39241 H 3853.63 3.88204 0.151545 0
M  V30 39242 H 3855.3 3.90352 -2.45811 0
M  V30 39243 H 3853.54 3.63336 -2.37 0
M  V30 39244 H 3854.21 5.19103 -1.87714 0
M  V30 39245 H 3856.69 4.15327 -0.253591 0
M  V30 39246 H 3855.56 5.4879 0.109869 0
M  V30 39247 H 3855.83 4.22482 1.30235 0
M  V30 39248 N 3854.88 0.488329 1.49844 0
M  V30 39249 C 3856.13 -0.0605427 2.02009 0
M  V30 39250 C 3856.45 -1.38651 1.37117 0
M  V30 39251 O 3855.72 -1.88811 0.522215 0
M  V30 39252 H 3854.3 -0.0253642 0.746569 0
M  V30 39253 H 3856.97 0.642683 1.83999 0
M  V30 39254 H 3856.06 -0.199487 3.11462 0
M  V30 39255 N 3856.36 -1.56034 0.221629 0
M  V30 39256 C 3857.61 -1.98599 -0.41066 0
M  V30 39257 C 3857.94 -1.10915 -1.5941 0
M  V30 39258 O 3857.22 -0.166853 -1.93783 0
M  V30 39259 C 3857.5 -3.50042 -0.845137 0
M  V30 39260 C 3857.35 -4.48498 0.341945 0
M  V30 39261 C 3858.67 -4.05887 -1.70128 0
M  V30 39262 H 3855.79 -0.722029 -0.147795 0
M  V30 39263 H 3858.43 -1.87322 0.317879 0
M  V30 39264 H 3856.58 -3.59783 -1.4659 0
M  V30 39265 H 3858.25 -4.50768 0.980093 0
M  V30 39266 H 3856.5 -4.22367 0.989368 0
M  V30 39267 H 3857.17 -5.52 -0.00499532 0
M  V30 39268 H 3859.64 -3.99092 -1.1775 0
M  V30 39269 H 3858.52 -5.12169 -1.97418 0
M  V30 39270 H 3858.78 -3.52775 -2.66462 0
M  V30 39271 N 3857.84 0.0517601 -1.57515 0
M  V30 39272 C 3859.09 0.745989 -1.87398 0
M  V30 39273 C 3859.4 1.77716 -0.817084 0
M  V30 39274 O 3860.61 2.52238 -1.0044 0
M  V30 39275 C 3859.06 1.37777 -3.32484 0
M  V30 39276 C 3858.67 0.38413 -4.4635 0
M  V30 39277 C 3860.42 2.0532 -3.71543 0
M  V30 39278 C 3858.32 1.02297 -5.82485 0
M  V30 39279 H 3857.25 0.282367 -0.699132 0
M  V30 39280 H 3859.9 -0.000277779 -1.835 0
M  V30 39281 H 3858.29 2.17298 -3.31055 0
M  V30 39282 H 3859.46 -0.38272 -4.59208 0
M  V30 39283 H 3857.78 -0.187946 -4.15976 0
M  V30 39284 H 3860.37 2.53928 -4.70558 0
M  V30 39285 H 3860.72 2.86148 -3.02366 0
M  V30 39286 H 3861.25 1.32604 -3.75048 0
M  V30 39287 H 3857.99 0.254589 -6.55005 0
M  V30 39288 H 3857.51 1.7602 -5.73391 0
M  V30 39289 H 3859.19 1.53698 -6.28479 0
M  V30 39290 N 3859.32 1.54242 0.323587 0
M  V30 39291 C 3860.54 1.76728 1.08545 0
M  V30 39292 C 3860.97 0.514407 1.80929 0
M  V30 39293 O 3860.33 -0.534039 1.73256 0
M  V30 39294 C 3860.38 2.9602 2.05923 0
M  V30 39295 O 3859.48 2.67564 3.1382 0
M  V30 39296 H 3858.82 0.585621 0.31296 0
M  V30 39297 H 3861.35 2.01265 0.367889 0
M  V30 39298 H 3861.36 3.23367 2.48793 0
M  V30 39299 H 3860.04 3.86877 1.52639 0
M  V30 39300 H 3858.61 2.51168 2.75625 0
M  V30 39301 N 3860.8 -0.585648 1.46314 0
M  V30 39302 C 3862.05 -1.34131 1.51173 0
M  V30 39303 C 3862.37 -1.94311 0.163725 0
M  V30 39304 O 3861.64 -1.78397 -0.809413 0
M  V30 39305 H 3860.22 -0.498005 0.556777 0
M  V30 39306 H 3862.88 -0.686101 1.82424 0
M  V30 39307 H 3861.97 -2.14953 2.26278 0
M  V30 39308 N 3862.28 -1.33971 -0.830033 0
M  V30 39309 C 3863.52 -1.25927 -1.58583 0
M  V30 39310 C 3863.85 0.172651 -1.93732 0
M  V30 39311 O 3863.11 1.13212 -1.5963 0
M  V30 39312 C 3863.4 -2.08858 -2.90023 0
M  V30 39313 C 3863.07 -3.57948 -2.74198 0
M  V30 39314 C 3861.73 -3.98591 -2.69589 0
M  V30 39315 C 3864.08 -4.52649 -2.58376 0
M  V30 39316 C 3861.41 -5.3214 -2.47071 0
M  V30 39317 C 3863.76 -5.86369 -2.37391 0
M  V30 39318 C 3862.43 -6.26185 -2.3119 0
M  V30 39319 H 3861.7 -0.460799 -0.580298 0
M  V30 39320 H 3864.35 -1.65644 -0.960949 0
M  V30 39321 H 3862.65 -1.61946 -3.56764 0
M  V30 39322 H 3864.35 -1.99985 -3.47573 0
M  V30 39323 H 3860.94 -3.25681 -2.78621 0
M  V30 39324 H 3865.12 -4.22151 -2.60965 0
M  V30 39325 H 3860.38 -5.62016 -2.40723 0
M  V30 39326 H 3864.55 -6.59346 -2.24134 0
M  V30 39327 H 3862.18 -7.29603 -2.13502 0
M  V30 39328 N 3863.75 1.04937 -1.17584 0
M  V30 39329 C 3864.7 2.12745 -0.894892 0
M  V30 39330 C 3865.67 1.65306 0.162232 0
M  V30 39331 O 3866.86 1.90784 0.0244732 0
M  V30 39332 C 3864 3.4257 -0.417145 0
M  V30 39333 C 3863.11 4.03669 -1.53868 0
M  V30 39334 C 3862.24 5.21421 -1.01455 0
M  V30 39335 C 3861.28 5.74533 -2.11137 0
M  V30 39336 N 3860.42 6.83583 -1.60181 0
M  V30 39337 H 3865.26 2.36115 -1.81807 0
M  V30 39338 H 3862.8 1.1583 -0.906736 0
M  V30 39339 H 3864.75 4.17022 -0.121693 0
M  V30 39340 H 3863.38 3.19374 0.469063 0
M  V30 39341 H 3862.44 3.26629 -1.94981 0
M  V30 39342 H 3863.75 4.39124 -2.36583 0
M  V30 39343 H 3862.9 6.02955 -0.673098 0
M  V30 39344 H 3861.64 4.87448 -0.156881 0
M  V30 39345 H 3860.65 4.91627 -2.46136 0
M  V30 39346 H 3861.87 6.10553 -2.97324 0
M  V30 39347 H 3859.82 6.51502 -0.766897 0
M  V30 39348 H 3859.73 7.18055 -2.36501 0
M  V30 39349 H 3861 7.68762 -1.28937 0
M  V30 39350 N 3865.23 0.976485 1.23703 0
M  V30 39351 C 3866.16 0.532849 2.27339 0
M  V30 39352 C 3867.14 -0.431983 1.64523 0
M  V30 39353 O 3868.33 -0.326199 1.91441 0
M  V30 39354 C 3865.46 -0.169313 3.46887 0
M  V30 39355 C 3864.41 0.71241 4.22029 0
M  V30 39356 C 3863.74 -0.121744 5.34561 0
M  V30 39357 C 3865.04 2.00131 4.82436 0
M  V30 39358 H 3866.73 1.39908 2.647 0
M  V30 39359 H 3864.28 0.674178 1.27243 0
M  V30 39360 H 3866.23 -0.490954 4.1853 0
M  V30 39361 H 3864.95 -1.06997 3.08576 0
M  V30 39362 H 3863.61 1.01745 3.52198 0
M  V30 39363 H 3863.26 -1.02281 4.92491 0
M  V30 39364 H 3862.96 0.465065 5.85757 0
M  V30 39365 H 3864.49 -0.437856 6.09028 0
M  V30 39366 H 3865.9 1.74469 5.46107 0
M  V30 39367 H 3864.3 2.53557 5.43901 0
M  V30 39368 H 3865.37 2.69066 4.034 0
M  V30 39369 N 3866.71 -1.38737 0.747659 0
M  V30 39370 C 3867.62 -2.34303 0.11792 0
M  V30 39371 C 3868.64 -1.58969 -0.70746 0
M  V30 39372 O 3869.81 -1.91194 -0.632991 0
M  V30 39373 C 3866.88 -3.3806 -0.769164 0
M  V30 39374 C 3865.94 -4.29243 0.0699113 0
M  V30 39375 C 3865.17 -5.28044 -0.774928 0
M  V30 39376 O 3865.39 -5.33692 -2.01319 0
M  V30 39377 O 3864.33 -6.01578 -0.196872 0
M  V30 39378 H 3868.15 -2.89839 0.907023 0
M  V30 39379 H 3865.74 -1.40481 0.508478 0
M  V30 39380 H 3867.62 -4.01606 -1.27634 0
M  V30 39381 H 3866.3 -2.8489 -1.53686 0
M  V30 39382 H 3865.2 -3.68878 0.622901 0
M  V30 39383 H 3866.54 -4.85653 0.800125 0
M  V30 39384 N 3868.19 -0.496268 -1.49583 0
M  V30 39385 C 3869.43 0.0483525 -2.04343 0
M  V30 39386 C 3869.79 1.3471 -1.36811 0
M  V30 39387 O 3870.99 1.97566 -1.82266 0
M  V30 39388 C 3869.26 0.202387 -3.56827 0
M  V30 39389 S 3870.82 0.701939 -4.33149 0
M  V30 39390 H 3867.64 0.00402282 -0.710989 0
M  V30 39391 H 3870.24 -0.669157 -1.83691 0
M  V30 39392 H 3868.95 -0.748227 -4.03522 0
M  V30 39393 H 3868.48 0.945276 -3.81874 0
M  V30 39394 H 3870.49 1.97179 -4.5534 0
M  V30 39395 N 3869.67 1.55914 -0.2299 0
M  V30 39396 C 3871.08 1.59107 0.125319 0
M  V30 39397 C 3871.28 1.24685 1.5829 0
M  V30 39398 O 3870.34 0.986059 2.3245 0
M  V30 39399 C 3871.65 2.99976 -0.208513 0
M  V30 39400 C 3873.2 3.12633 -0.151428 0
M  V30 39401 C 3873.67 4.55694 -0.459052 0
M  V30 39402 N 3875.16 4.61391 -0.408928 0
M  V30 39403 C 3875.9 5.70035 -0.620339 0
M  V30 39404 N 3875.4 6.87008 -0.893972 0
M  V30 39405 N 3877.19 5.59381 -0.552205 0
M  V30 39406 H 3869.34 1.76563 -1.18065 0
M  V30 39407 H 3871.6 0.821087 -0.473835 0
M  V30 39408 H 3871.31 3.29844 -1.22049 0
M  V30 39409 H 3871.18 3.74229 0.472525 0
M  V30 39410 H 3873.57 2.82557 0.851199 0
M  V30 39411 H 3873.65 2.40693 -0.866066 0
M  V30 39412 H 3873.29 4.86489 -1.45916 0
M  V30 39413 H 3873.22 5.25872 0.276873 0
M  V30 39414 H 3875.72 3.77341 -0.20547 0
M  V30 39415 H 3876.03 7.65727 -1.04316 0
M  V30 39416 H 3874.37 6.88733 -0.931259 0
M  V30 39417 H 3877.56 4.66874 -0.338601 0
M  V30 39418 H 3877.74 6.43983 -0.720369 0
M  V30 39419 N 3871.14 -0.043406 1.5754 0
M  V30 39420 C 3872.09 -1.04844 2.05612 0
M  V30 39421 C 3873.06 -1.36783 0.942323 0
M  V30 39422 O 3874.25 -1.47366 1.21194 0
M  V30 39423 C 3871.39 -2.34866 2.52848 0
M  V30 39424 C 3870.5 -2.09211 3.77961 0
M  V30 39425 C 3869.63 -3.33 4.13865 0
M  V30 39426 C 3868.67 -3.02836 5.31937 0
M  V30 39427 N 3867.81 -4.19035 5.63342 0
M  V30 39428 H 3872.65 -0.63154 2.91231 0
M  V30 39429 H 3870.19 -0.300233 1.44004 0
M  V30 39430 H 3872.14 -3.10817 2.78296 0
M  V30 39431 H 3870.77 -2.74305 1.70166 0
M  V30 39432 H 3869.83 -1.23822 3.59684 0
M  V30 39433 H 3871.14 -1.8295 4.64037 0
M  V30 39434 H 3870.29 -4.17329 4.40366 0
M  V30 39435 H 3869.03 -3.62362 3.26412 0
M  V30 39436 H 3868.04 -2.16907 5.05204 0
M  V30 39437 H 3869.26 -2.74766 6.21032 0
M  V30 39438 H 3867.21 -4.48375 4.78848 0
M  V30 39439 H 3867.12 -3.96147 6.43897 0
M  V30 39440 H 3868.39 -5.04278 5.9441 0
M  V30 39441 N 3872.62 -1.54412 -0.315402 0
M  V30 39442 C 3873.85 -1.76981 -1.0717 0
M  V30 39443 C 3874.26 -0.522317 -1.81431 0
M  V30 39444 O 3873.62 0.507317 -1.75307 0
M  V30 39445 C 3873.67 -2.96822 -2.06347 0
M  V30 39446 O 3873.39 -4.16749 -1.35101 0
M  V30 39447 C 3874.89 -3.31666 -2.9413 0
M  V30 39448 H 3872.11 -0.590622 -0.318444 0
M  V30 39449 H 3874.66 -2.01323 -0.359049 0
M  V30 39450 H 3872.81 -2.74729 -2.73135 0
M  V30 39451 H 3873.23 -4.84215 -2.01585 0
M  V30 39452 H 3874.7 -4.188 -3.59598 0
M  V30 39453 H 3875.18 -2.49188 -3.61665 0
M  V30 39454 H 3875.78 -3.55867 -2.32893 0
M  V30 39455 N 3874.1 0.57788 -1.46623 0
M  V30 39456 C 3875.33 1.36183 -1.55762 0
M  V30 39457 C 3875.74 1.87733 -0.200436 0
M  V30 39458 O 3875.1 1.63882 0.803062 0
M  V30 39459 C 3875.15 2.54603 -2.56631 0
M  V30 39460 O 3874.87 2.05188 -3.87078 0
M  V30 39461 C 3876.37 3.47092 -2.75757 0
M  V30 39462 H 3873.59 0.415857 -0.526597 0
M  V30 39463 H 3876.14 0.702057 -1.92071 0
M  V30 39464 H 3874.29 3.1656 -2.23312 0
M  V30 39465 H 3874.71 2.82345 -4.4202 0
M  V30 39466 H 3876.18 4.26653 -3.50245 0
M  V30 39467 H 3876.66 3.99334 -1.82836 0
M  V30 39468 H 3877.26 2.90967 -3.1019 0
M  V30 39469 N 3875.58 1.34409 0.822917 0
M  V30 39470 C 3876.82 1.28115 1.59267 0
M  V30 39471 C 3877.18 -0.14689 1.91437 0
M  V30 39472 O 3878.38 -0.334006 2.66717 0
M  V30 39473 C 3876.65 2.14703 2.85723 0
M  V30 39474 S 3878.21 2.25761 3.76268 0
M  V30 39475 H 3875.03 0.455543 0.545895 0
M  V30 39476 H 3877.63 1.69622 0.972039 0
M  V30 39477 H 3876.34 3.17464 2.60086 0
M  V30 39478 H 3875.87 1.74092 3.52783 0
M  V30 39479 H 3877.88 1.4304 4.75136 0
M  V30 39480 N 3877.06 -1.04312 1.18139 0
M  V30 39481 C 3878 -2.14377 0.902522 0
M  V30 39482 C 3879 -1.68851 -0.13626 0
M  V30 39483 O 3880.2 -1.79996 0.0116572 0
M  V30 39484 H 3876.58 -0.700161 0.27437 0
M  V30 39485 H 3878.55 -2.35096 1.83772 0
M  V30 39486 C 3877.3 -3.44879 0.442036 0
M  V30 39487 H 3876.62 -3.80317 1.23285 0
M  V30 39488 H 3878.06 -4.23035 0.285882 0
M  V30 39489 C 3876.52 -3.26215 -0.841739 0
M  V30 39490 O 3877.05 -3.53574 -1.90652 0
M  V30 39491 N 3875.26 -2.7956 -0.793376 0
M  V30 39492 H 3874.8 -2.57496 0.073345 0
M  V30 39493 H 3874.76 -2.67453 -1.65276 0
M  V30 39494 N 3878.53 -0.983032 -1.23184 0
M  V30 39495 C 3879.95 -0.689964 -1.73483 0
M  V30 39496 C 3880.3 0.793692 -1.7943 0
M  V30 39497 O 3879.42 1.62072 -1.43394 0
M  V30 39498 C 3880.02 -1.24576 -3.15065 0
M  V30 39499 C 3878.58 -1.00228 -3.6281 0
M  V30 39500 C 3877.72 -1.37191 -2.40985 0
M  V30 39501 H 3880.67 -1.15657 -1.0867 0
M  V30 39502 H 3880.69 -0.619472 -3.75423 0
M  V30 39503 H 3880.21 -2.32559 -3.10705 0
M  V30 39504 H 3878.31 0.0613547 -3.72549 0
M  V30 39505 H 3878.42 -1.65871 -4.4947 0
M  V30 39506 H 3876.78 -0.790392 -2.42126 0
M  V30 39507 H 3877.57 -2.46157 -2.39294 0
M  V30 39508 N 3880.01 1.38338 -0.755006 0
M  V30 39509 C 3881.25 2.01931 -0.316742 0
M  V30 39510 C 3881.62 1.58636 1.08159 0
M  V30 39511 O 3882.82 2.1457 1.61905 0
M  V30 39512 C 3881.09 3.54718 -0.437036 0
M  V30 39513 S 3882.65 4.38724 -0.0815635 0
M  V30 39514 H 3879.47 0.700315 -0.122803 0
M  V30 39515 H 3882.07 1.68818 -0.985937 0
M  V30 39516 H 3880.77 3.83716 -1.45567 0
M  V30 39517 H 3880.3 3.92609 0.249292 0
M  V30 39518 H 3882.32 4.832 1.12838 0
M  V30 39519 N 3881.49 0.504194 1.49317 0
M  V30 39520 C 3882.9 0.0572057 1.86612 0
M  V30 39521 C 3883.25 -1.35784 1.41623 0
M  V30 39522 O 3882.38 -2.01247 0.795516 0
M  V30 39523 C 3882.97 0.0970369 3.38661 0
M  V30 39524 C 3881.53 -0.294626 3.75245 0
M  V30 39525 C 3880.68 0.468173 2.73319 0
M  V30 39526 H 3883.63 0.716813 1.41589 0
M  V30 39527 H 3883.65 -0.697503 3.74052 0
M  V30 39528 H 3883.16 1.12704 3.71375 0
M  V30 39529 H 3881.26 -1.32775 3.4814 0
M  V30 39530 H 3881.38 0.0270463 4.79092 0
M  V30 39531 H 3879.74 -0.0823931 2.54567 0
M  V30 39532 H 3880.52 1.49832 3.08877 0
M  V30 39533 N 3882.97 -1.5579 0.238166 0
M  V30 39534 C 3883.9 -2.23996 -0.659412 0
M  V30 39535 C 3884.88 -1.21725 -1.18815 0
M  V30 39536 O 3886.06 -1.50356 -1.2291 0
M  V30 39537 C 3883.19 -2.9327 -1.86037 0
M  V30 39538 C 3882.15 -4.02154 -1.46478 0
M  V30 39539 C 3881.47 -4.5881 -2.74587 0
M  V30 39540 C 3882.77 -5.18335 -0.642357 0
M  V30 39541 H 3884.47 -2.99263 -0.0906996 0
M  V30 39542 H 3882.01 -1.43938 -0.0421837 0
M  V30 39543 H 3883.97 -3.39682 -2.49387 0
M  V30 39544 H 3882.69 -2.15477 -2.45432 0
M  V30 39545 H 3881.35 -3.56498 -0.854666 0
M  V30 39546 H 3881 -3.77727 -3.32161 0
M  V30 39547 H 3880.7 -5.32306 -2.48845 0
M  V30 39548 H 3882.22 -5.0795 -3.3885 0
M  V30 39549 H 3883.64 -5.61026 -1.17995 0
M  V30 39550 H 3882.03 -5.98166 -0.481353 0
M  V30 39551 H 3883.1 -4.83654 0.347383 0
M  V30 39552 N 3884.45 0.0350506 -1.57561 0
M  V30 39553 C 3885.69 0.725625 -1.88624 0
M  V30 39554 C 3886.02 1.76214 -0.835086 0
M  V30 39555 O 3885.29 1.95455 0.132026 0
M  V30 39556 H 3883.87 0.270992 -0.696112 0
M  V30 39557 H 3886.53 0.00242082 -1.949 0
M  V30 39558 H 3885.62 1.21894 -2.87312 0
M  V30 39559 N 3885.92 1.54577 0.307209 0
M  V30 39560 C 3887.15 1.77289 1.06076 0
M  V30 39561 C 3887.56 0.529427 1.81642 0
M  V30 39562 O 3886.91 -0.510118 1.76475 0
M  V30 39563 C 3886.97 2.92341 2.09229 0
M  V30 39564 C 3886.63 4.30658 1.52914 0
M  V30 39565 C 3887.63 5.10915 0.962397 0
M  V30 39566 C 3885.31 4.77244 1.56664 0
M  V30 39567 C 3887.31 6.35875 0.440638 0
M  V30 39568 C 3884.99 6.02168 1.04101 0
M  V30 39569 C 3885.99 6.81318 0.478975 0
M  V30 39570 O 3885.68 8.03891 -0.0387015 0
M  V30 39571 H 3885.41 0.59512 0.320637 0
M  V30 39572 H 3887.97 2.02327 0.353948 0
M  V30 39573 H 3886.2 2.62913 2.83573 0
M  V30 39574 H 3887.89 3.02687 2.70436 0
M  V30 39575 H 3888.65 4.76071 0.926374 0
M  V30 39576 H 3884.53 4.15669 1.9935 0
M  V30 39577 H 3888.07 6.976 0.00129586 0
M  V30 39578 H 3883.97 6.365 1.07416 0
M  V30 39579 H 3884.74 8.18465 0.0751844 0
M  V30 39580 N 3887.4 -0.570096 1.46927 0
M  V30 39581 C 3888.35 -1.67821 1.58445 0
M  V30 39582 C 3889.32 -1.60489 0.428081 0
M  V30 39583 O 3890.5 -1.79514 0.646477 0
M  V30 39584 C 3887.64 -3.06155 1.59258 0
M  V30 39585 C 3886.76 -3.24019 2.85719 0
M  V30 39586 C 3885.89 -4.52676 2.77953 0
M  V30 39587 C 3884.93 -4.63927 3.99297 0
M  V30 39588 N 3884.07 -5.83924 3.89843 0
M  V30 39589 H 3888.91 -1.57315 2.53093 0
M  V30 39590 H 3886.45 -0.766526 1.2555 0
M  V30 39591 H 3888.4 -3.86241 1.57714 0
M  V30 39592 H 3887.03 -3.15528 0.681326 0
M  V30 39593 H 3886.09 -2.37452 2.97188 0
M  V30 39594 H 3887.4 -3.28199 3.75615 0
M  V30 39595 H 3886.55 -5.41006 2.74586 0
M  V30 39596 H 3885.29 -4.50954 1.85719 0
M  V30 39597 H 3884.3 -3.74012 4.02983 0
M  V30 39598 H 3885.52 -4.67418 4.92643 0
M  V30 39599 H 3883.47 -5.83176 3.00403 0
M  V30 39600 H 3883.38 -5.89426 4.73406 0
M  V30 39601 H 3884.65 -6.7465 3.90471 0
M  V30 39602 N 3888.88 -1.34844 -0.815777 0
M  V30 39603 C 3889.79 -1.291 -1.95883 0
M  V30 39604 C 3890.81 -0.197452 -1.72876 0
M  V30 39605 O 3891.98 -0.425201 -1.9686 0
M  V30 39606 C 3889.05 -1.05342 -3.30309 0
M  V30 39607 C 3888.11 -2.23922 -3.66275 0
M  V30 39608 C 3887.34 -2.01288 -4.94286 0
M  V30 39609 O 3887.57 -0.974702 -5.6201 0
M  V30 39610 O 3886.5 -2.8842 -5.28297 0
M  V30 39611 H 3890.33 -2.25279 -2.03674 0
M  V30 39612 H 3887.91 -1.15122 -0.952222 0
M  V30 39613 H 3889.79 -0.939033 -4.10804 0
M  V30 39614 H 3888.47 -0.122081 -3.2347 0
M  V30 39615 H 3887.37 -2.40923 -2.86194 0
M  V30 39616 H 3888.71 -3.15471 -3.77808 0
M  V30 39617 N 3890.36 1.03684 -1.1869 0
M  V30 39618 C 3891.27 2.15271 -0.932511 0
M  V30 39619 C 3892.29 1.73685 0.10472 0
M  V30 39620 O 3893.46 2.01249 -0.0780824 0
M  V30 39621 C 3890.53 3.43556 -0.465867 0
M  V30 39622 C 3889.59 3.99502 -1.57153 0
M  V30 39623 C 3888.82 5.21664 -1.12705 0
M  V30 39624 O 3889.04 5.70399 0.0126654 0
M  V30 39625 O 3887.98 5.70241 -1.92637 0
M  V30 39626 H 3891.8 2.39589 -1.8663 0
M  V30 39627 H 3889.39 1.13709 -0.969049 0
M  V30 39628 H 3891.27 4.20857 -0.213893 0
M  V30 39629 H 3889.95 3.20701 0.439583 0
M  V30 39630 H 3888.85 3.23571 -1.87756 0
M  V30 39631 H 3890.19 4.26705 -2.45324 0
M  V30 39632 N 3891.84 0.989551 1.22661 0
M  V30 39633 C 3892.79 0.529904 2.26484 0
M  V30 39634 C 3893.78 -0.41773 1.64169 0
M  V30 39635 O 3894.99 -0.290618 1.77638 0
M  V30 39636 H 3891.36 0.152962 0.736279 0
M  V30 39637 H 3893.33 1.41706 2.62606 0
M  V30 39638 C 3892.08 -0.143087 3.47405 0
M  V30 39639 H 3891.4 0.577031 3.95614 0
M  V30 39640 H 3892.84 -0.428205 4.21832 0
M  V30 39641 C 3891.3 -1.37733 3.0746 0
M  V30 39642 O 3891.83 -2.47292 3.16559 0
M  V30 39643 N 3890.04 -1.25134 2.62278 0
M  V30 39644 H 3889.59 -0.359882 2.55074 0
M  V30 39645 H 3889.54 -2.07822 2.35919 0
M  V30 39646 N 3893.32 -1.37936 0.762332 0
M  V30 39647 C 3894.26 -2.32237 0.129938 0
M  V30 39648 C 3895.26 -1.54462 -0.69555 0
M  V30 39649 O 3896.46 -1.69928 -0.593667 0
M  V30 39650 H 3892.84 -0.751641 0.0232272 0
M  V30 39651 H 3894.81 -2.83168 0.941193 0
M  V30 39652 C 3893.56 -3.39687 -0.742175 0
M  V30 39653 H 3892.88 -3.99631 -0.116357 0
M  V30 39654 H 3894.32 -4.08056 -1.1518 0
M  V30 39655 C 3892.78 -2.78983 -1.88865 0
M  V30 39656 O 3893.31 -2.68984 -2.98346 0
M  V30 39657 N 3891.52 -2.36664 -1.68638 0
M  V30 39658 H 3891.06 -2.44996 -0.795902 0
M  V30 39659 H 3891.02 -1.96391 -2.45515 0
M  V30 39660 N 3894.79 -0.512106 -1.49048 0
M  V30 39661 C 3896.02 0.0249339 -2.06885 0
M  V30 39662 C 3896.44 1.29801 -1.37102 0
M  V30 39663 O 3895.79 1.76793 -0.452829 0
M  V30 39664 C 3895.84 0.271056 -3.60482 0
M  V30 39665 O 3895.57 -0.951568 -4.27641 0
M  V30 39666 C 3897.07 0.850491 -4.35065 0
M  V30 39667 H 3894.29 -0.0254574 -0.670517 0
M  V30 39668 H 3896.83 -0.712641 -1.91681 0
M  V30 39669 H 3894.99 0.958636 -3.75352 0
M  V30 39670 H 3895.4 -0.721247 -5.19517 0
M  V30 39671 H 3896.87 0.972226 -5.43371 0
M  V30 39672 H 3897.35 1.85104 -3.98288 0
M  V30 39673 H 3897.96 0.200036 -4.24829 0
M  V30 39674 N 3896.27 1.55662 -0.246424 0
M  V30 39675 C 3897.52 1.98539 0.377704 0
M  V30 39676 C 3897.84 1.13588 1.58502 0
M  V30 39677 O 3897.11 0.218563 1.94677 0
M  V30 39678 H 3895.69 0.733274 0.142541 0
M  V30 39679 H 3898.35 1.9182 -0.345102 0
M  V30 39680 H 3897.45 3.04441 0.68717 0
M  V30 39681 N 3897.75 -0.0266943 1.57577 0
M  V30 39682 C 3898.66 -1.04348 2.10116 0
M  V30 39683 C 3899.68 -1.39476 1.04032 0
M  V30 39684 O 3900.85 -1.48747 1.3578 0
M  V30 39685 C 3897.92 -2.32477 2.57207 0
M  V30 39686 C 3896.98 -2.03908 3.77783 0
M  V30 39687 C 3896.21 -3.25928 4.22619 0
M  V30 39688 O 3896.43 -4.36686 3.66963 0
M  V30 39689 O 3895.37 -3.11489 5.15032 0
M  V30 39690 H 3899.19 -0.626969 2.97158 0
M  V30 39691 H 3896.78 -0.243829 1.47397 0
M  V30 39692 H 3898.66 -3.078 2.87815 0
M  V30 39693 H 3897.34 -2.73418 1.73275 0
M  V30 39694 H 3896.24 -1.26146 3.5219 0
M  V30 39695 H 3897.58 -1.67821 4.62706 0
M  V30 39696 N 3899.23 -1.54738 -0.299007 0
M  V30 39697 C 3900.47 -1.75851 -1.04191 0
M  V30 39698 C 3900.83 -0.534133 -1.84421 0
M  V30 39699 O 3902.03 -0.623042 -2.6148 0
M  V30 39700 C 3900.3 -3.01303 -1.92227 0
M  V30 39701 S 3901.86 -3.43427 -2.73136 0
M  V30 39702 H 3898.68 -0.618118 -0.351357 0
M  V30 39703 H 3901.28 -1.92944 -0.3151 0
M  V30 39704 H 3899.99 -3.88537 -1.32165 0
M  V30 39705 H 3899.52 -2.86803 -2.69272 0
M  V30 39706 H 3901.53 -3.00654 -3.94742 0
M  V30 39707 N 3900.71 0.562296 -1.47228 0
M  V30 39708 C 3901.95 1.33053 -1.55165 0
M  V30 39709 C 3902.31 1.90882 -0.2069 0
M  V30 39710 O 3903.51 2.68317 -0.161103 0
M  V30 39711 C 3901.78 2.41472 -2.63488 0
M  V30 39712 S 3903.34 3.2845 -2.90974 0
M  V30 39713 H 3900.16 0.453031 -0.547982 0
M  V30 39714 H 3902.76 0.644269 -1.84579 0
M  V30 39715 H 3901.46 1.97414 -3.598 0
M  V30 39716 H 3901 3.14845 -2.35873 0
M  V30 39717 H 3903.01 4.40819 -2.278 0
M  V30 39718 N 3902.18 1.35274 0.808615 0
M  V30 39719 C 3903.43 1.2818 1.56251 0
M  V30 39720 C 3903.75 -0.144117 1.94467 0
M  V30 39721 O 3903.02 -1.08008 1.63435 0
M  V30 39722 H 3901.6 0.471464 0.579423 0
M  V30 39723 H 3904.26 1.69354 0.964645 0
M  V30 39724 H 3903.36 1.8963 2.47885 0
M  V30 39725 N 3903.66 -1.03053 1.19239 0
M  V30 39726 C 3905.08 -1.28671 0.944246 0
M  V30 39727 C 3905.28 -1.97801 -0.384344 0
M  V30 39728 O 3904.33 -2.26486 -1.11625 0
M  V30 39729 C 3905.65 -2.13543 2.11707 0
M  V30 39730 C 3907.2 -2.26856 2.15651 0
M  V30 39731 C 3907.67 -3.15099 3.32381 0
M  V30 39732 N 3909.16 -3.22687 3.32306 0
M  V30 39733 C 3909.9 -3.91151 4.19271 0
M  V30 39734 N 3909.39 -4.61859 5.16389 0
M  V30 39735 N 3911.19 -3.87533 4.07154 0
M  V30 39736 H 3903.34 -0.565951 2.04721 0
M  V30 39737 H 3905.6 -0.312312 0.895078 0
M  V30 39738 H 3905.31 -1.70067 3.07848 0
M  V30 39739 H 3905.18 -3.1425 2.0863 0
M  V30 39740 H 3907.57 -2.69563 1.20083 0
M  V30 39741 H 3907.65 -1.25704 2.22783 0
M  V30 39742 H 3907.29 -2.73101 4.28227 0
M  V30 39743 H 3907.22 -4.16306 3.22486 0
M  V30 39744 H 3909.71 -2.72327 2.62005 0
M  V30 39745 H 3910.03 -5.11726 5.79099 0
M  V30 39746 H 3908.37 -4.6073 5.20339 0
M  V30 39747 H 3911.56 -3.31432 3.30561 0
M  V30 39748 H 3911.73 -4.40617 4.75143 0
M  V30 39749 N 3905.14 -0.996042 -1.22134 0
M  V30 39750 C 3906.38 -0.681916 -1.9269 0
M  V30 39751 C 3906.74 0.772123 -1.7579 0
M  V30 39752 O 3907.95 1.19781 -2.40636 0
M  V30 39753 C 3906.22 -1.08054 -3.40675 0
M  V30 39754 S 3907.78 -0.885257 -4.29777 0
M  V30 39755 H 3904.59 -0.249228 -0.665888 0
M  V30 39756 H 3907.2 -1.27898 -1.47859 0
M  V30 39757 H 3905.9 -2.13509 -3.50488 0
M  V30 39758 H 3905.43 -0.475397 -3.90517 0
M  V30 39759 H 3907.45 0.222525 -4.95701 0
M  V30 39760 N 3906.62 1.37529 -0.769636 0
M  V30 39761 C 3907.55 2.32892 -0.16843 0
M  V30 39762 C 3908.53 1.55675 0.685522 0
M  V30 39763 O 3909.71 1.83922 0.623418 0
M  V30 39764 C 3906.84 3.399 0.713123 0
M  V30 39765 C 3905.8 4.27982 -0.0393561 0
M  V30 39766 C 3905.12 5.25984 0.961503 0
M  V30 39767 C 3906.42 5.0792 -1.21713 0
M  V30 39768 H 3908.12 2.8342 -0.965072 0
M  V30 39769 H 3905.66 1.36268 -0.465526 0
M  V30 39770 H 3907.62 4.05588 1.14351 0
M  V30 39771 H 3906.34 2.87892 1.54226 0
M  V30 39772 H 3905 3.63822 -0.450493 0
M  V30 39773 H 3904.65 4.70257 1.78513 0
M  V30 39774 H 3904.35 5.85776 0.462576 0
M  V30 39775 H 3905.87 5.94548 1.39087 0
M  V30 39776 H 3907.29 5.6676 -0.863505 0
M  V30 39777 H 3905.68 5.77028 -1.648 0
M  V30 39778 H 3906.75 4.40718 -2.02227 0
M  V30 39779 N 3908.1 0.520003 1.48774 0
M  V30 39780 C 3909.51 0.0769953 1.86541 0
M  V30 39781 C 3909.86 -1.34275 1.43055 0
M  V30 39782 O 3908.98 -2.00392 0.816816 0
M  V30 39783 C 3909.58 0.132951 3.38539 0
M  V30 39784 C 3908.14 -0.254809 3.75537 0
M  V30 39785 C 3907.28 0.497136 2.72807 0
M  V30 39786 H 3910.24 0.73179 1.40821 0
M  V30 39787 H 3910.26 -0.657791 3.74771 0
M  V30 39788 H 3909.77 1.16637 3.70159 0
M  V30 39789 H 3907.87 -1.29075 3.49529 0
M  V30 39790 H 3907.98 0.0778589 4.79037 0
M  V30 39791 H 3906.35 -0.0553883 2.5464 0
M  V30 39792 H 3907.13 1.531 3.07271 0
M  V30 39793 N 3909.57 -1.55529 0.254676 0
M  V30 39794 C 3910.8 -2.03532 -0.37182 0
M  V30 39795 C 3911.22 -1.13371 -1.50972 0
M  V30 39796 O 3910.57 -0.149672 -1.81885 0
M  V30 39797 C 3910.63 -3.50819 -0.872253 0
M  V30 39798 O 3910.35 -4.37546 0.220307 0
M  V30 39799 C 3911.85 -4.14618 -1.56865 0
M  V30 39800 H 3909.07 -0.665278 -0.0874448 0
M  V30 39801 H 3911.61 -2.00923 0.380809 0
M  V30 39802 H 3909.77 -3.53937 -1.57504 0
M  V30 39803 H 3910.18 -5.24253 -0.160954 0
M  V30 39804 H 3911.65 -5.19344 -1.87044 0
M  V30 39805 H 3912.13 -3.61569 -2.49328 0
M  V30 39806 H 3912.74 -4.15445 -0.910241 0
M  V30 39807 N 3911.05 0.0183372 -1.57589 0
M  V30 39808 C 3912.02 1.00032 -2.06219 0
M  V30 39809 C 3913.02 1.28383 -0.968218 0
M  V30 39810 O 3914.21 1.23207 -1.23149 0
M  V30 39811 C 3911.34 2.33027 -2.48819 0
M  V30 39812 H 3912.53 0.580034 -2.94237 0
M  V30 39813 H 3910.08 0.265411 -1.5403 0
M  V30 39814 H 3910.82 2.79782 -1.63989 0
M  V30 39815 H 3910.6 2.13776 -3.28698 0
M  V30 39816 H 3912.09 3.03507 -2.86833 0
M  V30 39817 N 3912.53 1.54894 0.290797 0
M  V30 39818 C 3913.77 1.76401 1.03257 0
M  V30 39819 C 3914.13 0.543906 1.84135 0
M  V30 39820 O 3915.34 0.6369 2.61146 0
M  V30 39821 C 3913.61 3.02318 1.90626 0
M  V30 39822 S 3915.17 3.44871 2.71311 0
M  V30 39823 H 3911.98 0.619972 0.348074 0
M  V30 39824 H 3914.59 1.93108 0.304863 0
M  V30 39825 H 3913.29 3.89232 1.30102 0
M  V30 39826 H 3912.82 2.88227 2.67747 0
M  V30 39827 H 3914.84 3.02744 3.93142 0
M  V30 39828 N 3914.01 -0.55448 1.47524 0
M  V30 39829 C 3915.24 -1.33687 1.57909 0
M  V30 39830 C 3915.65 -1.8739 0.230277 0
M  V30 39831 O 3915.01 -1.65138 -0.776888 0
M  V30 39832 C 3915.06 -2.50488 2.60649 0
M  V30 39833 O 3914.78 -1.99004 3.90293 0
M  V30 39834 C 3916.28 -3.42661 2.81244 0
M  V30 39835 H 3913.5 -0.407426 0.533146 0
M  V30 39836 H 3916.05 -0.671411 1.93164 0
M  V30 39837 H 3914.2 -3.12967 2.2832 0
M  V30 39838 H 3914.61 -2.75277 4.46456 0
M  V30 39839 H 3916.09 -4.21027 3.56988 0
M  V30 39840 H 3916.57 -3.96375 1.89165 0
M  V30 39841 H 3917.17 -2.85996 3.1478 0
M  V30 39842 N 3915.49 -1.35701 -0.80143 0
M  V30 39843 C 3916.74 -1.28596 -1.55389 0
M  V30 39844 C 3917.05 0.136165 -1.95125 0
M  V30 39845 O 3918.25 0.32952 -2.69493 0
M  V30 39846 C 3916.71 -2.25555 -2.80452 0
M  V30 39847 C 3916.32 -3.7314 -2.47933 0
M  V30 39848 C 3918.06 -2.27402 -3.58453 0
M  V30 39849 C 3915.97 -4.61907 -3.69318 0
M  V30 39850 H 3914.9 -0.477811 -0.583277 0
M  V30 39851 H 3917.55 -1.60995 -0.880497 0
M  V30 39852 H 3915.93 -1.86134 -3.49529 0
M  V30 39853 H 3917.11 -4.21226 -1.86829 0
M  V30 39854 H 3915.42 -3.7395 -1.83167 0
M  V30 39855 H 3918.02 -2.90936 -4.4862 0
M  V30 39856 H 3918.36 -1.27919 -3.9616 0
M  V30 39857 H 3918.89 -2.65378 -2.96343 0
M  V30 39858 H 3915.63 -5.62408 -3.36716 0
M  V30 39859 H 3915.15 -4.18544 -4.29629 0
M  V30 39860 H 3916.83 -4.77586 -4.36487 0
M  V30 39861 N 3916.96 1.02419 -1.19783 0
M  V30 39862 C 3917.9 2.10894 -0.897581 0
M  V30 39863 C 3918.91 1.62417 0.111616 0
M  V30 39864 O 3920.1 1.78107 -0.118412 0
M  V30 39865 C 3917.2 3.37359 -0.322773 0
M  V30 39866 C 3916.37 4.15004 -1.38167 0
M  V30 39867 C 3915.43 5.19779 -0.819553 0
M  V30 39868 O 3914.46 5.49123 -1.4984 0
M  V30 39869 N 3915.66 5.79289 0.374823 0
M  V30 39870 H 3918.42 2.3724 -1.83132 0
M  V30 39871 H 3915.98 1.18748 -1.10047 0
M  V30 39872 H 3917.98 4.04644 0.0672334 0
M  V30 39873 H 3916.55 3.08323 0.515346 0
M  V30 39874 H 3915.77 3.428 -1.94633 0
M  V30 39875 H 3917.05 4.63665 -2.09504 0
M  V30 39876 H 3916.45 5.57772 0.943758 0
M  V30 39877 H 3915.01 6.47959 0.706554 0
M  V30 39878 N 3918.44 1.0025 1.21604 0
M  V30 39879 C 3919.37 0.580951 2.26157 0
M  V30 39880 C 3920.35 -0.396988 1.65403 0
M  V30 39881 O 3921.54 -0.285518 1.9209 0
M  V30 39882 C 3918.67 -0.0956954 3.47168 0
M  V30 39883 C 3917.62 0.801769 4.20423 0
M  V30 39884 C 3916.95 -0.00832843 5.34699 0
M  V30 39885 C 3918.25 2.1032 4.78083 0
M  V30 39886 H 3919.94 1.45491 2.61673 0
M  V30 39887 H 3917.49 0.701017 1.25785 0
M  V30 39888 H 3919.44 -0.402067 4.19478 0
M  V30 39889 H 3918.17 -1.00427 3.10776 0
M  V30 39890 H 3916.83 1.09193 3.49961 0
M  V30 39891 H 3916.47 -0.918119 4.9455 0
M  V30 39892 H 3916.17 0.589208 5.84638 0
M  V30 39893 H 3917.7 -0.308573 6.0982 0
M  V30 39894 H 3919.11 1.86014 5.42284 0
M  V30 39895 H 3917.51 2.65037 5.38401 0
M  V30 39896 H 3918.58 2.77562 3.97602 0
M  V30 39897 N 3919.92 -1.37119 0.776919 0
M  V30 39898 C 3921.34 -1.52913 0.457142 0
M  V30 39899 C 3921.54 -1.73395 -1.02647 0
M  V30 39900 O 3920.59 -1.75828 -1.81221 0
M  V30 39901 C 3921.91 -2.72251 1.27671 0
M  V30 39902 C 3923.45 -2.86115 1.26914 0
M  V30 39903 C 3923.93 -4.08442 2.07217 0
M  V30 39904 N 3925.42 -4.15565 2.04598 0
M  V30 39905 C 3926.16 -5.09264 2.63511 0
M  V30 39906 N 3925.65 -6.08487 3.31233 0
M  V30 39907 N 3927.44 -5.01786 2.53313 0
M  V30 39908 H 3919.6 -1.22077 1.73813 0
M  V30 39909 H 3921.86 -0.59484 0.738153 0
M  V30 39910 H 3921.56 -2.63597 2.32829 0
M  V30 39911 H 3921.44 -3.66073 0.909428 0
M  V30 39912 H 3923.83 -2.94237 0.225528 0
M  V30 39913 H 3923.91 -1.93237 1.6761 0
M  V30 39914 H 3923.55 -4.01082 3.11602 0
M  V30 39915 H 3923.48 -5.00444 1.639 0
M  V30 39916 H 3925.97 -3.44515 1.55299 0
M  V30 39917 H 3926.28 -6.76522 3.73547 0
M  V30 39918 H 3924.63 -6.0875 3.35333 0
M  V30 39919 H 3927.82 -4.23215 2.00017 0
M  V30 39920 H 3927.99 -5.74623 2.9952 0
M  V30 39921 N 3921.4 -0.527886 -1.48496 0
M  V30 39922 C 3922.65 0.0069622 -2.02099 0
M  V30 39923 C 3922.97 1.34967 -1.40744 0
M  V30 39924 O 3922.24 1.8736 -0.572092 0
M  V30 39925 H 3920.82 0.00556132 -0.746979 0
M  V30 39926 H 3923.48 -0.691241 -1.8223 0
M  V30 39927 H 3922.58 0.116838 -3.11881 0
M  V30 39928 N 3922.88 1.55391 -0.26292 0
M  V30 39929 C 3924.13 1.98929 0.356625 0
M  V30 39930 C 3924.45 1.15262 1.57288 0
M  V30 39931 O 3923.72 0.239198 1.94434 0
M  V30 39932 H 3922.3 0.734745 0.134755 0
M  V30 39933 H 3924.96 1.91444 -0.365428 0
M  V30 39934 H 3924.05 3.05153 0.654841 0
M  V30 39935 N 3924.36 -0.00997961 1.57597 0
M  V30 39936 C 3925.29 -1.03256 2.04624 0
M  V30 39937 C 3926.3 -1.3131 0.962366 0
M  V30 39938 O 3927.49 -1.28462 1.23935 0
M  V30 39939 C 3924.59 -2.36972 2.42276 0
M  V30 39940 C 3923.76 -2.28001 3.73275 0
M  V30 39941 C 3922.82 -3.44323 3.97905 0
M  V30 39942 O 3921.85 -3.22958 4.68707 0
M  V30 39943 N 3923.05 -4.66839 3.45023 0
M  V30 39944 H 3925.81 -0.631589 2.92969 0
M  V30 39945 H 3923.38 -0.197562 1.6069 0
M  V30 39946 H 3925.37 -3.13545 2.55875 0
M  V30 39947 H 3923.94 -2.68846 1.59501 0
M  V30 39948 H 3923.16 -1.36404 3.69848 0
M  V30 39949 H 3924.45 -2.1917 4.59176 0
M  V30 39950 H 3923.84 -4.87096 2.87669 0
M  V30 39951 H 3922.4 -5.40712 3.6397 0
M  V30 39952 N 3925.83 -1.55046 -0.282578 0
M  V30 39953 C 3927.08 -1.74407 -1.01317 0
M  V30 39954 C 3927.4 -0.547166 -1.87791 0
M  V30 39955 O 3928.6 -0.622977 -2.64256 0
M  V30 39956 C 3927.06 -3.08638 -1.85123 0
M  V30 39957 C 3926.67 -4.35866 -1.03562 0
M  V30 39958 C 3928.41 -3.37352 -2.5767 0
M  V30 39959 C 3926.32 -5.6114 -1.86751 0
M  V30 39960 H 3925.25 -0.65007 -0.382002 0
M  V30 39961 H 3927.9 -1.81514 -0.269275 0
M  V30 39962 H 3926.28 -2.95544 -2.63571 0
M  V30 39963 H 3927.45 -4.59848 -0.29598 0
M  V30 39964 H 3925.77 -4.14224 -0.425135 0
M  V30 39965 H 3928.37 -4.28153 -3.20296 0
M  V30 39966 H 3928.71 -2.57052 -3.2746 0
M  V30 39967 H 3929.24 -3.51501 -1.86258 0
M  V30 39968 H 3925.98 -6.4416 -1.21399 0
M  V30 39969 H 3925.5 -5.41315 -2.58338 0
M  V30 39970 H 3927.18 -5.99084 -2.44351 0
M  V30 39971 N 3927.31 0.546649 -1.47816 0
M  V30 39972 C 3928.24 1.66882 -1.55646 0
M  V30 39973 C 3929.22 1.574 -0.407911 0
M  V30 39974 O 3930.41 1.78109 -0.617195 0
M  V30 39975 C 3927.53 3.05191 -1.46889 0
M  V30 39976 C 3926.58 3.33084 -2.66378 0
M  V30 39977 S 3927.41 3.21179 -4.2849 0
M  V30 39978 C 3928.57 4.61964 -4.22303 0
M  V30 39979 H 3928.8 1.59987 -2.50582 0
M  V30 39980 H 3926.33 0.728307 -1.36143 0
M  V30 39981 H 3928.29 3.84964 -1.42523 0
M  V30 39982 H 3926.95 3.09541 -0.533187 0
M  V30 39983 H 3926.15 4.33941 -2.56343 0
M  V30 39984 H 3925.75 2.6095 -2.6792 0
M  V30 39985 H 3928.04 5.53138 -3.91208 0
M  V30 39986 H 3928.98 4.77055 -5.23282 0
M  V30 39987 H 3929.39 4.40506 -3.53009 0
M  V30 39988 N 3928.79 1.36124 0.794222 0
M  V30 39989 C 3930.02 1.33231 1.58295 0
M  V30 39990 C 3930.43 -0.0875095 1.88597 0
M  V30 39991 O 3929.79 -1.04304 1.49756 0
M  V30 39992 C 3929.84 2.14909 2.90683 0
M  V30 39993 O 3929.56 3.51355 2.61689 0
M  V30 39994 C 3931.06 2.19741 3.85005 0
M  V30 39995 H 3928.28 0.457199 0.491131 0
M  V30 39996 H 3930.83 1.79155 0.986097 0
M  V30 39997 H 3928.98 1.72552 3.46849 0
M  V30 39998 H 3929.4 3.9392 3.46306 0
M  V30 39999 H 3930.87 2.81258 4.74972 0
M  V30 40000 H 3931.35 1.19954 4.22502 0
M  V30 40001 H 3931.95 2.62312 3.34772 0
M  V30 40002 N 3930.27 -1.01782 1.20325 0
M  V30 40003 C 3931.2 -2.12176 0.974856 0
M  V30 40004 C 3932.18 -1.6983 -0.0957338 0
M  V30 40005 O 3933.36 -1.94102 0.0615304 0
M  V30 40006 C 3930.49 -3.43312 0.524799 0
M  V30 40007 C 3929.45 -3.99393 1.53849 0
M  V30 40008 C 3928.77 -5.26281 0.945113 0
M  V30 40009 C 3930.07 -4.32925 2.92187 0
M  V30 40010 H 3931.77 -2.31541 1.89814 0
M  V30 40011 H 3929.31 -1.11271 0.914045 0
M  V30 40012 H 3931.27 -4.19925 0.352255 0
M  V30 40013 H 3929.99 -3.23702 -0.434104 0
M  V30 40014 H 3928.65 -3.24886 1.69837 0
M  V30 40015 H 3928.3 -5.02995 -0.0216825 0
M  V30 40016 H 3928 -5.64767 1.62211 0
M  V30 40017 H 3929.52 -6.05551 0.78361 0
M  V30 40018 H 3930.94 -5.00431 2.79717 0
M  V30 40019 H 3929.33 -4.82521 3.56781 0
M  V30 40020 H 3930.4 -3.41746 3.44003 0
M  V30 40021 N 3931.75 -1.00894 -1.21071 0
M  V30 40022 C 3932.69 -0.572676 -2.23582 0
M  V30 40023 C 3933.66 0.403296 -1.6113 0
M  V30 40024 O 3934.85 0.304458 -1.88355 0
M  V30 40025 C 3931.99 0.0905933 -3.44981 0
M  V30 40026 C 3931.1 -0.929027 -4.21892 0
M  V30 40027 C 3930.24 -0.23761 -5.30668 0
M  V30 40028 C 3929.27 -1.24451 -5.99315 0
M  V30 40029 N 3928.41 -0.580295 -6.99698 0
M  V30 40030 H 3933.25 -1.4515 -2.6026 0
M  V30 40031 H 3930.79 -0.726752 -1.27893 0
M  V30 40032 H 3932.75 0.492208 -4.14286 0
M  V30 40033 H 3931.38 0.933115 -3.09019 0
M  V30 40034 H 3930.43 -1.44886 -3.51727 0
M  V30 40035 H 3931.74 -1.69512 -4.69113 0
M  V30 40036 H 3930.89 0.219907 -6.06301 0
M  V30 40037 H 3929.63 0.560852 -4.84464 0
M  V30 40038 H 3928.64 -1.71249 -5.2245 0
M  V30 40039 H 3929.86 -2.04412 -6.47605 0
M  V30 40040 H 3927.81 0.198438 -6.557 0
M  V30 40041 H 3927.73 -1.28457 -7.45007 0
M  V30 40042 H 3928.99 -0.146114 -7.79363 0
M  V30 40043 N 3933.22 1.36705 -0.78418 0
M  V30 40044 C 3934.64 1.52668 -0.465245 0
M  V30 40045 C 3934.84 1.73937 1.01726 0
M  V30 40046 O 3933.9 1.76786 1.80286 0
M  V30 40047 C 3935.21 2.7157 -1.29113 0
M  V30 40048 C 3936.76 2.85438 -1.28429 0
M  V30 40049 C 3937.23 4.07338 -2.0938 0
M  V30 40050 N 3938.72 4.14474 -2.06799 0
M  V30 40051 C 3939.46 5.07859 -2.66208 0
M  V30 40052 N 3938.95 6.06722 -3.34455 0
M  V30 40053 N 3940.75 5.00435 -2.55971 0
M  V30 40054 H 3932.9 1.21153 -1.74458 0
M  V30 40055 H 3935.16 0.590917 -0.741297 0
M  V30 40056 H 3934.87 2.62359 -2.34224 0
M  V30 40057 H 3934.74 3.65585 -0.928829 0
M  V30 40058 H 3937.13 2.94113 -0.241129 0
M  V30 40059 H 3937.21 1.92345 -1.68633 0
M  V30 40060 H 3936.85 3.99424 -3.13725 0
M  V30 40061 H 3936.78 4.99568 -1.66551 0
M  V30 40062 H 3939.27 3.43687 -1.57124 0
M  V30 40063 H 3939.59 6.74532 -3.7713 0
M  V30 40064 H 3937.93 6.06963 -3.38556 0
M  V30 40065 H 3941.12 4.22148 -2.02258 0
M  V30 40066 H 3941.3 5.73027 -3.02563 0
M  V30 40067 N 3934.7 0.535753 1.48214 0
M  V30 40068 C 3935.98 -0.0609033 1.95505 0
M  V30 40069 C 3936.36 -1.50718 1.47809 0
M  V30 40070 O 3935.71 -2.17281 0.70718 0
M  V30 40071 C 3935.92 0.0623223 3.48944 0
M  V30 40072 C 3937.27 -0.0940058 4.24496 0
M  V30 40073 O 3938.29 -0.0111906 3.56198 0
M  V30 40074 O 3937.15 -0.268451 5.4584 0
M  V30 40075 H 3934.24 -0.0760934 0.823492 0
M  V30 40076 H 3936.79 0.60076 1.5871 0
M  V30 40077 H 3935.56 1.06956 3.76399 0
M  V30 40078 H 3935.18 -0.63793 3.92449 0
M  V30 40079 N 3936.18 -1.5525 0.271158 0
M  V30 40080 C 3937.09 -2.26033 -0.628206 0
M  V30 40081 C 3938.11 -1.28484 -1.17337 0
M  V30 40082 O 3939.28 -1.61411 -1.2045 0
M  V30 40083 C 3936.35 -2.96457 -1.79761 0
M  V30 40084 C 3935.41 -4.09475 -1.28951 0
M  V30 40085 C 3934.64 -4.76532 -2.40318 0
M  V30 40086 O 3934.86 -4.42779 -3.59588 0
M  V30 40087 O 3933.8 -5.64561 -2.08698 0
M  V30 40088 H 3937.62 -3.0365 -0.0549222 0
M  V30 40089 H 3935.21 -1.4935 0.0387122 0
M  V30 40090 H 3937.09 -3.4073 -2.47954 0
M  V30 40091 H 3935.77 -2.2176 -2.35806 0
M  V30 40092 H 3934.67 -3.69668 -0.574155 0
M  V30 40093 H 3936.01 -4.86063 -0.774859 0
M  V30 40094 N 3937.66 0.00162173 -1.576 0
M  V30 40095 C 3938.89 0.697838 -1.94776 0
M  V30 40096 C 3939.3 1.67398 -0.873124 0
M  V30 40097 O 3938.66 1.81898 0.148087 0
M  V30 40098 C 3938.71 1.43112 -3.31966 0
M  V30 40099 O 3938.43 0.494126 -4.35304 0
M  V30 40100 C 3939.93 2.22199 -3.83592 0
M  V30 40101 H 3937.15 0.194463 -0.642203 0
M  V30 40102 H 3939.7 -0.049016 -2.04441 0
M  V30 40103 H 3937.85 2.12962 -3.23614 0
M  V30 40104 H 3938.26 1.01131 -5.14658 0
M  V30 40105 H 3939.74 2.69006 -4.82016 0
M  V30 40106 H 3940.22 3.04804 -3.16213 0
M  V30 40107 H 3940.82 1.57369 -3.95114 0
M  V30 40108 N 3939.14 1.55194 0.274352 0
M  V30 40109 C 3940.07 1.90989 1.34333 0
M  V30 40110 C 3941.05 0.771608 1.51592 0
M  V30 40111 O 3942.23 1.02963 1.64658 0
M  V30 40112 C 3939.36 2.18062 2.70308 0
M  V30 40113 C 3938.32 3.33882 2.67781 0
M  V30 40114 C 3937.64 3.46432 4.07295 0
M  V30 40115 C 3938.94 4.7031 2.2717 0
M  V30 40116 H 3940.64 2.80526 1.04622 0
M  V30 40117 H 3938.18 1.34972 0.501843 0
M  V30 40118 H 3940.14 2.41691 3.45201 0
M  V30 40119 H 3938.86 1.25324 3.01598 0
M  V30 40120 H 3937.52 3.10219 1.95345 0
M  V30 40121 H 3937.17 2.51162 4.35806 0
M  V30 40122 H 3936.87 4.24302 4.06499 0
M  V30 40123 H 3938.39 3.72351 4.83929 0
M  V30 40124 H 3939.8 4.93492 2.91785 0
M  V30 40125 H 3938.2 5.51086 2.37538 0
M  V30 40126 H 3939.27 4.69223 1.22301 0
M  V30 40127 N 3940.61 -0.538802 1.48104 0
M  V30 40128 C 3941.55 -1.65993 1.58047 0
M  V30 40129 C 3942.56 -1.56008 0.465343 0
M  V30 40130 O 3943.75 -1.62629 0.735797 0
M  V30 40131 C 3940.85 -3.04587 1.48593 0
M  V30 40132 C 3940.02 -3.40143 2.74993 0
M  V30 40133 C 3939.08 -4.57979 2.59117 0
M  V30 40134 O 3938.11 -4.6164 3.32982 0
M  V30 40135 N 3939.31 -5.55612 1.68152 0
M  V30 40136 H 3942.07 -1.57904 2.54728 0
M  V30 40137 H 3939.63 -0.725875 1.44716 0
M  V30 40138 H 3941.63 -3.81278 1.35679 0
M  V30 40139 H 3940.2 -3.06803 0.599211 0
M  V30 40140 H 3939.42 -2.52717 3.02535 0
M  V30 40141 H 3940.7 -3.60681 3.58869 0
M  V30 40142 H 3940.1 -5.55426 1.07326 0
M  V30 40143 H 3938.66 -6.31556 1.61182 0
M  V30 40144 N 3942.09 -1.36544 -0.786992 0
M  V30 40145 C 3943.37 -1.21455 -1.53323 0
M  V30 40146 C 3943.75 0.198276 -2.10167 0
M  V30 40147 O 3943.1 1.20419 -1.94195 0
M  V30 40148 C 3943.31 -2.29846 -2.62625 0
M  V30 40149 C 3944.66 -2.66634 -3.30441 0
M  V30 40150 O 3945.68 -2.28908 -2.7291 0
M  V30 40151 O 3944.54 -3.31576 -4.34419 0
M  V30 40152 H 3941.63 -0.47304 -0.678352 0
M  V30 40153 H 3944.18 -1.48282 -0.825266 0
M  V30 40154 H 3942.95 -3.24523 -2.18633 0
M  V30 40155 H 3942.57 -2.04399 -3.41038 0
M  V30 40156 N 3943.57 1.01143 -1.20863 0
M  V30 40157 C 3944.82 1.74476 -1.01993 0
M  V30 40158 C 3945.14 1.89775 0.448367 0
M  V30 40159 O 3944.41 1.44401 1.32383 0
M  V30 40160 H 3942.99 0.6464 -0.374401 0
M  V30 40161 H 3945.65 1.21915 -1.52062 0
M  V30 40162 H 3944.75 2.74639 -1.48255 0
M  V30 40163 N 3945.05 1.01535 1.20534 0
M  V30 40164 C 3946.29 0.712485 1.9158 0
M  V30 40165 C 3946.65 -0.744058 1.76997 0
M  V30 40166 O 3947.85 -1.15938 2.42512 0
M  V30 40167 C 3946.12 1.1346 3.38912 0
M  V30 40168 S 3947.68 0.953519 4.28315 0
M  V30 40169 H 3944.5 0.25979 0.661838 0
M  V30 40170 H 3947.1 1.30234 1.45806 0
M  V30 40171 H 3945.81 2.19058 3.47047 0
M  V30 40172 H 3945.34 0.537464 3.89711 0
M  V30 40173 H 3947.35 -0.143635 4.95992 0
M  V30 40174 N 3946.53 -1.36288 0.791419 0
M  V30 40175 C 3947.8 -1.93459 0.288636 0
M  V30 40176 C 3948.18 -1.72312 -1.2195 0
M  V30 40177 O 3947.53 -1.08324 -2.01192 0
M  V30 40178 C 3947.74 -3.42243 0.683452 0
M  V30 40179 C 3949.09 -4.19371 0.664328 0
M  V30 40180 O 3950.11 -3.50691 0.62405 0
M  V30 40181 O 3948.97 -5.41881 0.709021 0
M  V30 40182 H 3946.07 -0.823865 0.071945 0
M  V30 40183 H 3948.61 -1.45457 0.874097 0
M  V30 40184 H 3947.38 -3.51299 1.7235 0
M  V30 40185 H 3947.01 -3.97535 0.0719826 0
M  V30 40186 N 3948.01 -0.543606 -1.47928 0
M  V30 40187 C 3949.23 -0.0189551 -2.06891 0
M  V30 40188 C 3949.65 1.26864 -1.39825 0
M  V30 40189 O 3949.01 1.75793 -0.490228 0
M  V30 40190 C 3949.06 0.194532 -3.60976 0
M  V30 40191 O 3948.78 -1.04206 -4.25526 0
M  V30 40192 C 3950.28 0.758016 -4.36771 0
M  V30 40193 H 3947.5 -0.0396743 -0.669826 0
M  V30 40194 H 3950.04 -0.753139 -1.90126 0
M  V30 40195 H 3948.2 0.878803 -3.77301 0
M  V30 40196 H 3948.61 -0.831282 -5.17871 0
M  V30 40197 H 3950.09 0.85675 -5.45311 0
M  V30 40198 H 3950.56 1.76614 -4.02125 0
M  V30 40199 H 3951.17 0.109878 -4.25158 0
M  V30 40200 N 3949.48 1.55104 -0.279387 0
M  V30 40201 C 3950.43 2.19384 0.620843 0
M  V30 40202 C 3951.42 1.15983 1.1152 0
M  V30 40203 O 3952.61 1.41782 1.05956 0
M  V30 40204 C 3949.74 2.92171 1.80252 0
M  V30 40205 C 3948.82 4.02866 1.32514 0
M  V30 40206 N 3949.22 5.02643 0.564217 0
M  V30 40207 C 3947.51 4.16014 1.60774 0
M  V30 40208 C 3948.21 5.80859 0.3127 0
M  V30 40209 N 3947.19 5.36325 0.886344 0
M  V30 40210 H 3950.99 2.93883 0.0316879 0
M  V30 40211 H 3948.51 1.62187 -0.0831416 0
M  V30 40212 H 3950.5 3.36674 2.45878 0
M  V30 40213 H 3949.16 2.19184 2.39559 0
M  V30 40214 H 3950.17 5.17469 0.211152 0
M  V30 40215 H 3946.85 3.5422 2.20985 0
M  V30 40216 H 3948.24 6.71243 -0.297003 0
M  V30 40217 N 3950.96 0.0067362 1.57599 0
M  V30 40218 C 3952.21 -0.676697 1.90859 0
M  V30 40219 C 3952.54 -1.73404 0.880986 0
M  V30 40220 O 3951.79 -1.95372 -0.113304 0
M  V30 40221 C 3952.09 -1.35127 3.30871 0
M  V30 40222 C 3951.76 -0.42648 4.48879 0
M  V30 40223 C 3950.42 -0.171876 4.80893 0
M  V30 40224 C 3952.77 0.209853 5.20777 0
M  V30 40225 C 3950.1 0.727242 5.82175 0
M  V30 40226 C 3952.45 1.09689 6.23018 0
M  V30 40227 C 3951.11 1.3606 6.53486 0
M  V30 40228 H 3950.38 -0.247621 0.698402 0
M  V30 40229 H 3953.03 0.0637084 1.91394 0
M  V30 40230 H 3951.34 -2.16589 3.26491 0
M  V30 40231 H 3953.03 -1.88624 3.53867 0
M  V30 40232 H 3949.62 -0.635091 4.23869 0
M  V30 40233 H 3953.81 0.026176 4.96293 0
M  V30 40234 H 3949.06 0.939496 6.04139 0
M  V30 40235 H 3953.24 1.59627 6.77858 0
M  V30 40236 H 3950.86 2.05899 7.31785 0
M  V30 40237 N 3952.44 -1.55337 -0.266118 0
M  V30 40238 C 3953.68 -1.78022 -1.00437 0
M  V30 40239 C 3954.04 -0.573132 -1.83246 0
M  V30 40240 O 3955.24 -0.678366 -2.60099 0
M  V30 40241 C 3953.52 -3.05313 -1.85793 0
M  V30 40242 S 3955.07 -3.49144 -2.6579 0
M  V30 40243 H 3951.89 -0.625432 -0.338166 0
M  V30 40244 H 3954.49 -1.93569 -0.274103 0
M  V30 40245 H 3953.2 -3.91253 -1.23894 0
M  V30 40246 H 3952.73 -2.9245 -2.63128 0
M  V30 40247 H 3954.74 -3.0896 -3.88276 0
M  V30 40248 N 3953.92 0.53094 -1.48387 0
M  V30 40249 C 3954.86 1.63561 -1.62838 0
M  V30 40250 C 3955.83 1.59297 -0.470481 0
M  V30 40251 O 3957.02 1.77737 -0.693844 0
M  V30 40252 C 3954.16 3.01825 -1.67319 0
M  V30 40253 C 3953.27 3.1633 -2.9421 0
M  V30 40254 C 3952.41 4.45147 -2.89858 0
M  V30 40255 C 3951.45 4.53177 -4.11457 0
M  V30 40256 N 3950.58 5.73382 -4.05188 0
M  V30 40257 H 3955.42 1.50549 -2.57175 0
M  V30 40258 H 3952.96 0.732969 -1.27538 0
M  V30 40259 H 3954.92 3.81924 -1.67899 0
M  V30 40260 H 3953.55 3.1361 -0.764743 0
M  V30 40261 H 3952.6 2.29489 -3.03379 0
M  V30 40262 H 3953.91 3.18125 -3.84185 0
M  V30 40263 H 3953.07 5.33536 -2.88833 0
M  V30 40264 H 3951.81 4.45872 -1.9761 0
M  V30 40265 H 3950.81 3.63196 -4.12757 0
M  V30 40266 H 3952.04 4.54192 -5.04863 0
M  V30 40267 H 3949.98 5.75006 -3.15759 0
M  V30 40268 H 3949.9 5.76667 -4.88867 0
M  V30 40269 H 3951.17 6.6406 -4.08221 0
M  V30 40270 N 3955.4 1.36959 0.779739 0
M  V30 40271 C 3956.64 1.31921 1.54028 0
M  V30 40272 C 3956.97 -0.0985344 1.9395 0
M  V30 40273 O 3956.25 -1.0541 1.63459 0
M  V30 40274 C 3956.53 2.25093 2.81079 0
M  V30 40275 C 3956.39 3.75609 2.47462 0
M  V30 40276 C 3957.7 2.16856 3.82964 0
M  V30 40277 H 3954.82 0.480535 0.558798 0
M  V30 40278 H 3957.47 1.67593 0.895122 0
M  V30 40279 H 3955.62 1.94802 3.36132 0
M  V30 40280 H 3957.29 4.16462 1.98386 0
M  V30 40281 H 3955.53 3.9457 1.80269 0
M  V30 40282 H 3956.2 4.36226 3.38247 0
M  V30 40283 H 3958.68 2.4354 3.37383 0
M  V30 40284 H 3957.55 2.84203 4.69596 0
M  V30 40285 H 3957.81 1.15892 4.2664 0
M  V30 40286 N 3956.87 -1.00501 1.21398 0
M  V30 40287 C 3957.82 -2.11397 0.970267 0
M  V30 40288 C 3958.82 -1.69199 -0.0824722 0
M  V30 40289 O 3960.02 -1.79868 0.0689158 0
M  V30 40290 H 3956.4 -0.691077 0.296507 0
M  V30 40291 H 3958.37 -2.29131 1.91159 0
M  V30 40292 C 3957.12 -3.43298 0.551532 0
M  V30 40293 H 3956.44 -3.76202 1.35322 0
M  V30 40294 H 3957.88 -4.21911 0.420323 0
M  V30 40295 C 3956.34 -3.28728 -0.73753 0
M  V30 40296 O 3956.87 -3.59461 -1.79307 0
M  V30 40297 N 3955.07 -2.81943 -0.704034 0
M  V30 40298 H 3954.62 -2.57132 0.155228 0
M  V30 40299 H 3954.58 -2.72576 -1.56684 0
M  V30 40300 N 3958.35 -1.02172 -1.19994 0
M  V30 40301 C 3959.26 -0.606176 -2.26633 0
M  V30 40302 C 3960.28 0.358716 -1.70262 0
M  V30 40303 O 3961.45 0.218386 -2.00212 0
M  V30 40304 C 3958.52 0.0438487 -3.46672 0
M  V30 40305 C 3957.58 -0.967636 -4.18253 0
M  V30 40306 C 3956.81 -0.348537 -5.32561 0
M  V30 40307 O 3957.04 0.850409 -5.64025 0
M  V30 40308 O 3955.97 -1.06782 -5.92352 0
M  V30 40309 H 3959.8 -1.49412 -2.64405 0
M  V30 40310 H 3957.38 -0.791505 -1.26711 0
M  V30 40311 H 3959.26 0.40664 -4.19433 0
M  V30 40312 H 3957.94 0.905905 -3.10765 0
M  V30 40313 H 3956.84 -1.38189 -3.47642 0
M  V30 40314 H 3958.18 -1.79983 -4.58113 0
M  V30 40315 N 3959.83 1.35866 -0.798635 0
M  V30 40316 C 3961.25 1.52166 -0.481412 0
M  V30 40317 C 3961.45 1.75006 0.998749 0
M  V30 40318 O 3960.5 1.78688 1.784 0
M  V30 40319 C 3961.81 2.70185 -1.31987 0
M  V30 40320 C 3963.36 2.8406 -1.3145 0
M  V30 40321 C 3963.84 4.05094 -2.13689 0
M  V30 40322 N 3965.33 4.12257 -2.11183 0
M  V30 40323 C 3966.06 5.05007 -2.7158 0
M  V30 40324 N 3965.56 6.03141 -3.40871 0
M  V30 40325 N 3967.35 4.97692 -2.61264 0
M  V30 40326 H 3959.5 1.19296 -1.75733 0
M  V30 40327 H 3961.77 0.583021 -0.747523 0
M  V30 40328 H 3961.47 2.5986 -2.36993 0
M  V30 40329 H 3961.35 3.6458 -0.967552 0
M  V30 40330 H 3963.73 2.93841 -0.27231 0
M  V30 40331 H 3963.81 1.90546 -1.70663 0
M  V30 40332 H 3963.46 3.96074 -3.17944 0
M  V30 40333 H 3963.39 4.97773 -1.7184 0
M  V30 40334 H 3965.88 3.42001 -1.6076 0
M  V30 40335 H 3966.19 6.70494 -3.84263 0
M  V30 40336 H 3964.54 6.03338 -3.44975 0
M  V30 40337 H 3967.73 4.19979 -2.06724 0
M  V30 40338 H 3967.9 5.69786 -3.08623 0
M  V30 40339 N 3961.31 0.551443 1.47638 0
M  V30 40340 C 3962.56 0.0251908 2.02084 0
M  V30 40341 C 3962.88 -1.3271 1.42874 0
M  V30 40342 O 3962.15 -1.86427 0.601827 0
M  V30 40343 H 3960.73 0.00632318 0.746973 0
M  V30 40344 H 3963.39 0.720145 1.81108 0
M  V30 40345 H 3962.48 -0.067206 3.12028 0
M  V30 40346 N 3962.79 -1.54953 0.287609 0
M  V30 40347 C 3963.7 -2.26686 -0.604196 0
M  V30 40348 C 3964.71 -1.29721 -1.15968 0
M  V30 40349 O 3965.89 -1.6268 -1.18732 0
M  V30 40350 C 3962.95 -2.98347 -1.76606 0
M  V30 40351 C 3962.01 -4.1082 -1.24601 0
M  V30 40352 C 3961.25 -4.79055 -2.3525 0
M  V30 40353 O 3961.47 -4.46568 -3.54871 0
M  V30 40354 O 3960.4 -5.66742 -2.02699 0
M  V30 40355 H 3964.23 -3.03692 -0.0227129 0
M  V30 40356 H 3961.82 -1.493 0.0545505 0
M  V30 40357 H 3963.7 -3.4334 -2.44326 0
M  V30 40358 H 3962.37 -2.24248 -2.3344 0
M  V30 40359 H 3961.28 -3.70256 -0.534914 0
M  V30 40360 H 3962.61 -4.86857 -0.723262 0
M  V30 40361 N 3964.26 -0.0150939 -1.57593 0
M  V30 40362 C 3965.49 0.676158 -1.95222 0
M  V30 40363 C 3965.9 1.66993 -0.889379 0
M  V30 40364 O 3965.25 1.83175 0.138793 0
M  V30 40365 C 3965.31 1.45086 -3.28923 0
M  V30 40366 C 3964.97 0.616991 -4.52816 0
M  V30 40367 C 3965.97 -0.101777 -5.198 0
M  V30 40368 C 3963.65 0.558518 -4.99185 0
M  V30 40369 C 3965.65 -0.867841 -6.31464 0
M  V30 40370 C 3963.33 -0.211261 -6.10735 0
M  V30 40371 C 3964.33 -0.92316 -6.76732 0
M  V30 40372 O 3964.02 -1.68035 -7.86142 0
M  V30 40373 H 3963.75 0.192282 -0.648077 0
M  V30 40374 H 3966.31 -0.0669024 -2.05291 0
M  V30 40375 H 3964.54 2.23874 -3.15305 0
M  V30 40376 H 3966.23 2.02888 -3.51555 0
M  V30 40377 H 3966.99 -0.065849 -4.84955 0
M  V30 40378 H 3962.87 1.10218 -4.4763 0
M  V30 40379 H 3966.41 -1.42403 -6.82911 0
M  V30 40380 H 3962.31 -0.248956 -6.4502 0
M  V30 40381 H 3963.08 -1.59864 -8.02736 0
M  V30 40382 N 3965.74 1.55476 0.257876 0
M  V30 40383 C 3966.99 1.76793 0.987439 0
M  V30 40384 C 3967.32 0.577444 1.85731 0
M  V30 40385 O 3966.57 -0.439613 1.90698 0
M  V30 40386 C 3966.87 3.03497 1.88744 0
M  V30 40387 C 3966.54 4.35353 1.17384 0
M  V30 40388 C 3965.2 4.71186 0.976579 0
M  V30 40389 C 3967.55 5.16912 0.667208 0
M  V30 40390 C 3964.88 5.86123 0.260211 0
M  V30 40391 C 3967.23 6.3259 -0.0356395 0
M  V30 40392 C 3965.9 6.67052 -0.244476 0
M  V30 40393 H 3965.17 0.646933 0.361329 0
M  V30 40394 H 3967.81 1.89748 0.258435 0
M  V30 40395 H 3966.12 2.85507 2.68315 0
M  V30 40396 H 3967.81 3.17188 2.45342 0
M  V30 40397 H 3964.4 4.07196 1.33751 0
M  V30 40398 H 3968.59 4.89692 0.807185 0
M  V30 40399 H 3963.84 6.11337 0.0878316 0
M  V30 40400 H 3968.02 6.95034 -0.435897 0
M  V30 40401 H 3965.65 7.55963 -0.801536 0
M  V30 40402 N 3967.22 -0.523064 1.48667 0
M  V30 40403 C 3968.47 -1.27787 1.58247 0
M  V30 40404 C 3968.82 -1.90688 0.256066 0
M  V30 40405 O 3968.11 -1.7666 -0.741735 0
M  V30 40406 C 3968.31 -2.38422 2.66251 0
M  V30 40407 C 3968.14 -1.86366 4.09265 0
M  V30 40408 C 3966.91 -1.68659 4.76322 0
M  V30 40409 C 3969.11 -1.3882 4.95211 0
M  V30 40410 N 3967.09 -1.11301 6.03726 0
M  V30 40411 C 3968.46 -0.934545 6.12916 0
M  V30 40412 C 3970.51 -1.27187 4.81381 0
M  V30 40413 C 3969.22 -0.376093 7.18316 0
M  V30 40414 C 3971.24 -0.727408 5.86909 0
M  V30 40415 C 3970.6 -0.283866 7.03828 0
M  V30 40416 H 3966.7 -0.458376 0.633573 0
M  V30 40417 H 3969.29 -0.588959 1.85578 0
M  V30 40418 H 3967.46 -3.04801 2.4073 0
M  V30 40419 H 3969.19 -3.05457 2.65477 0
M  V30 40420 H 3965.95 -1.92384 4.32765 0
M  V30 40421 H 3966.37 -0.846129 6.71692 0
M  V30 40422 H 3971.01 -1.60082 3.91323 0
M  V30 40423 H 3968.73 -0.0348276 8.08092 0
M  V30 40424 H 3972.32 -0.640482 5.78264 0
M  V30 40425 H 3971.2 0.130878 7.84091 0
M  V30 40426 N 3968.7 -1.37371 -0.772465 0
M  V30 40427 C 3969.61 -1.35267 -1.91677 0
M  V30 40428 C 3970.62 -0.252351 -1.7216 0
M  V30 40429 O 3971.8 -0.487615 -1.95408 0
M  V30 40430 C 3968.87 -1.15797 -3.2679 0
M  V30 40431 C 3967.93 -2.35462 -3.58966 0
M  V30 40432 C 3967.16 -2.16911 -4.87632 0
M  V30 40433 O 3967.38 -1.15301 -5.58625 0
M  V30 40434 O 3966.32 -3.05081 -5.18854 0
M  V30 40435 H 3970.14 -2.31645 -1.96404 0
M  V30 40436 H 3967.73 -1.18093 -0.915115 0
M  V30 40437 H 3969.61 -1.06925 -4.07609 0
M  V30 40438 H 3968.28 -0.224929 -3.22918 0
M  V30 40439 H 3967.19 -2.49906 -2.78385 0
M  V30 40440 H 3968.52 -3.27331 -3.6758 0
M  V30 40441 N 3970.18 0.998553 -1.21929 0
M  V30 40442 C 3971.12 2.08758 -0.984319 0
M  V30 40443 C 3972.09 1.65845 0.0919737 0
M  V30 40444 O 3973.28 1.90716 -0.0564669 0
M  V30 40445 C 3970.42 3.40492 -0.562066 0
M  V30 40446 C 3969.53 3.9678 -1.70851 0
M  V30 40447 C 3968.67 5.16649 -1.23479 0
M  V30 40448 C 3967.71 5.65061 -2.35315 0
M  V30 40449 N 3966.84 6.76175 -1.8903 0
M  V30 40450 H 3971.68 2.28192 -1.91657 0
M  V30 40451 H 3969.22 1.1188 -0.955048 0
M  V30 40452 H 3971.18 4.16131 -0.298457 0
M  V30 40453 H 3969.81 3.21076 0.333183 0
M  V30 40454 H 3968.86 3.18065 -2.08659 0
M  V30 40455 H 3970.17 4.28695 -2.54995 0
M  V30 40456 H 3969.33 5.99557 -0.928226 0
M  V30 40457 H 3968.06 4.86344 -0.363483 0
M  V30 40458 H 3967.07 4.80745 -2.66766 0
M  V30 40459 H 3968.29 5.97393 -3.22952 0
M  V30 40460 H 3966.24 6.47663 -1.04253 0
M  V30 40461 H 3966.16 7.07378 -2.66743 0
M  V30 40462 H 3967.43 7.62602 -1.61426 0
M  V30 40463 N 3971.65 1.02807 1.1945 0
M  V30 40464 C 3973.07 0.744994 1.41145 0
M  V30 40465 C 3973.27 -0.670731 1.90009 0
M  V30 40466 O 3972.33 -1.43684 2.07632 0
M  V30 40467 C 3973.64 1.78043 2.42325 0
M  V30 40468 C 3975.19 1.79988 2.56073 0
M  V30 40469 C 3975.66 2.82489 3.60505 0
M  V30 40470 N 3977.15 2.81301 3.68 0
M  V30 40471 C 3977.89 3.57266 4.48496 0
M  V30 40472 N 3977.38 4.42943 5.32704 0
M  V30 40473 N 3979.18 3.45811 4.43138 0
M  V30 40474 H 3971.33 1.94187 0.860535 0
M  V30 40475 H 3973.59 0.839492 0.440406 0
M  V30 40476 H 3973.3 2.79526 2.13443 0
M  V30 40477 H 3973.17 1.60205 3.41488 0
M  V30 40478 H 3975.56 0.791832 2.84278 0
M  V30 40479 H 3975.64 2.01901 1.57066 0
M  V30 40480 H 3975.28 3.83465 3.33042 0
M  V30 40481 H 3975.21 2.57835 4.59161 0
M  V30 40482 H 3977.7 2.19159 3.0786 0
M  V30 40483 H 3978.02 4.97648 5.91242 0
M  V30 40484 H 3976.36 4.47016 5.32167 0
M  V30 40485 H 3979.55 2.7829 3.76394 0
M  V30 40486 H 3979.73 4.05265 5.05633 0
M  V30 40487 N 3973.13 -1.35441 0.805829 0
M  V30 40488 C 3974.38 -1.99085 0.386414 0
M  V30 40489 C 3974.71 -1.63781 -1.04353 0
M  V30 40490 O 3973.99 -0.900761 -1.72385 0
M  V30 40491 C 3974.27 -3.55574 0.569125 0
M  V30 40492 C 3974.12 -4.00678 2.04394 0
M  V30 40493 C 3975.44 -4.401 -0.00566933 0
M  V30 40494 H 3972.56 -0.723215 0.141874 0
M  V30 40495 H 3975.2 -1.60603 1.01522 0
M  V30 40496 H 3973.35 -3.88485 0.033845 0
M  V30 40497 H 3975.02 -3.7818 2.64155 0
M  V30 40498 H 3973.27 -3.51615 2.54066 0
M  V30 40499 H 3973.94 -5.09555 2.12267 0
M  V30 40500 H 3976.41 -4.13644 0.451459 0
M  V30 40501 H 3975.29 -5.48689 0.152091 0
M  V30 40502 H 3975.55 -4.28215 -1.09929 0
M  V30 40503 N 3974.61 -0.559265 -1.47343 0
M  V30 40504 C 3975.84 -0.0408976 -2.0686 0
M  V30 40505 C 3976.25 1.25374 -1.41162 0
M  V30 40506 O 3975.61 1.75263 -0.508845 0
M  V30 40507 C 3975.66 0.156235 -3.61162 0
M  V30 40508 O 3975.38 -1.08714 -4.24397 0
M  V30 40509 C 3976.88 0.711648 -4.37551 0
M  V30 40510 H 3974.1 -0.0467764 -0.669368 0
M  V30 40511 H 3976.65 -0.773262 -1.89317 0
M  V30 40512 H 3974.8 0.838736 -3.78212 0
M  V30 40513 H 3975.22 -0.886163 -5.1696 0
M  V30 40514 H 3976.69 0.798865 -5.46189 0
M  V30 40515 H 3977.17 1.72339 -4.03975 0
M  V30 40516 H 3977.77 0.0647786 -4.25251 0
M  V30 40517 N 3976.09 1.54799 -0.295822 0
M  V30 40518 C 3977.34 1.9964 0.314349 0
M  V30 40519 C 3977.66 1.18573 1.54808 0
M  V30 40520 O 3976.93 0.280387 1.93883 0
M  V30 40521 H 3975.51 0.737438 0.11914 0
M  V30 40522 H 3978.17 1.90625 -0.405954 0
M  V30 40523 H 3977.27 3.06473 0.589967 0
M  V30 40524 N 3977.57 0.0234513 1.57583 0
M  V30 40525 C 3978.81 -0.660641 1.93429 0
M  V30 40526 C 3979.17 -1.69617 0.899664 0
M  V30 40527 O 3980.37 -2.43234 1.14414 0
M  V30 40528 C 3978.64 -1.26611 3.34222 0
M  V30 40529 S 3980.2 -1.97207 3.91988 0
M  V30 40530 H 3977.02 -0.217654 0.676866 0
M  V30 40531 H 3979.62 0.0857594 1.95312 0
M  V30 40532 H 3978.33 -0.499932 4.07344 0
M  V30 40533 H 3977.86 -2.04994 3.35769 0
M  V30 40534 H 3979.87 -3.24987 3.74964 0
M  V30 40535 N 3979.05 -1.5561 -0.249627 0
M  V30 40536 C 3980.46 -1.67782 -0.818904 0
M  V30 40537 C 3980.81 -0.620407 -1.86133 0
M  V30 40538 O 3979.93 0.233831 -2.15133 0
M  V30 40539 C 3980.53 -3.04172 -1.49213 0
M  V30 40540 C 3979.09 -3.18293 -2.00914 0
M  V30 40541 C 3978.23 -2.6365 -0.859287 0
M  V30 40542 H 3981.18 -1.5868 -0.0254907 0
M  V30 40543 H 3981.21 -2.98465 -2.36006 0
M  V30 40544 H 3980.72 -3.81111 -0.733201 0
M  V30 40545 H 3978.82 -2.46172 -2.79697 0
M  V30 40546 H 3978.93 -4.25166 -2.2084 0
M  V30 40547 H 3977.3 -2.21404 -1.25906 0
M  V30 40548 H 3978.08 -3.43112 -0.113484 0
M  V30 40549 N 3980.52 0.515172 -1.48942 0
M  V30 40550 C 3981.93 1.09692 -1.51078 0
M  V30 40551 C 3982.29 1.94061 -0.288909 0
M  V30 40552 O 3981.41 2.0784 0.602629 0
M  V30 40553 C 3982.01 1.99604 -2.73758 0
M  V30 40554 C 3980.56 2.52969 -2.78718 0
M  V30 40555 C 3979.71 1.30261 -2.448 0
M  V30 40556 H 3982.66 0.299729 -1.55844 0
M  V30 40557 H 3982.68 2.84099 -2.53117 0
M  V30 40558 H 3982.2 1.38172 -3.62671 0
M  V30 40559 H 3980.3 3.1808 -1.94051 0
M  V30 40560 H 3980.41 2.9109 -3.8053 0
M  V30 40561 H 3978.77 1.62324 -1.96273 0
M  V30 40562 H 3979.56 0.705589 -3.35971 0
M  V30 40563 N 3982 1.37779 0.765169 0
M  V30 40564 C 3983.25 1.3335 1.52395 0
M  V30 40565 C 3983.58 -0.0800217 1.94335 0
M  V30 40566 O 3982.83 -1.05467 1.64849 0
M  V30 40567 C 3983.13 2.22457 2.79728 0
M  V30 40568 C 3982.8 3.70622 2.56807 0
M  V30 40569 C 3981.46 4.11 2.50265 0
M  V30 40570 C 3983.81 4.64461 2.36486 0
M  V30 40571 C 3981.14 5.43322 2.21401 0
M  V30 40572 C 3983.49 5.97027 2.09144 0
M  V30 40573 C 3982.15 6.36502 2.01051 0
M  V30 40574 H 3981.42 0.487961 0.557651 0
M  V30 40575 H 3984.07 1.7004 0.880824 0
M  V30 40576 H 3982.38 1.78783 3.48631 0
M  V30 40577 H 3984.07 2.1634 3.37636 0
M  V30 40578 H 3980.66 3.38604 2.62765 0
M  V30 40579 H 3984.85 4.34121 2.40526 0
M  V30 40580 H 3980.1 5.72862 2.13634 0
M  V30 40581 H 3984.28 6.69289 1.92421 0
M  V30 40582 H 3981.9 7.38959 1.78449 0
M  V30 40583 N 3983.48 -0.992073 1.22457 0
M  V30 40584 C 3984.76 -1.70527 0.958121 0
M  V30 40585 C 3985.14 -2.04427 -0.526559 0
M  V30 40586 O 3984.48 -1.72823 -1.4948 0
M  V30 40587 C 3984.69 -2.95525 1.85651 0
M  V30 40588 C 3986.04 -3.68285 2.11308 0
M  V30 40589 O 3987.07 -3.05534 1.83105 0
M  V30 40590 O 3985.93 -4.81188 2.59077 0
M  V30 40591 H 3983.02 -0.744345 0.360388 0
M  V30 40592 H 3985.57 -1.04834 1.33446 0
M  V30 40593 H 3984.34 -2.66981 2.86071 0
M  V30 40594 H 3983.96 -3.68956 1.4818 0
M  V30 40595 N 3984.96 -1.03439 -1.18904 0
M  V30 40596 C 3985.87 -0.630179 -2.25978 0
M  V30 40597 C 3986.88 0.340638 -1.70633 0
M  V30 40598 O 3988.06 0.197139 -2.00433 0
M  V30 40599 C 3985.12 0.00707701 -3.46699 0
M  V30 40600 C 3984.19 -1.01194 -4.17203 0
M  V30 40601 C 3983.42 -0.405002 -5.32161 0
M  V30 40602 O 3983.64 0.790538 -5.64895 0
M  V30 40603 O 3982.58 -1.13059 -5.91186 0
M  V30 40604 H 3986.4 -1.52208 -2.62805 0
M  V30 40605 H 3983.99 -0.8049 -1.25864 0
M  V30 40606 H 3985.87 0.362131 -4.19841 0
M  V30 40607 H 3984.54 0.872894 -3.11709 0
M  V30 40608 H 3983.45 -1.41868 -3.46156 0
M  V30 40609 H 3984.78 -1.84831 -4.56178 0
M  V30 40610 N 3986.44 1.35011 -0.813001 0
M  V30 40611 C 3987.39 2.27117 -0.200415 0
M  V30 40612 C 3988.37 1.48074 0.629515 0
M  V30 40613 O 3989.56 1.70205 0.485721 0
M  V30 40614 C 3986.69 3.37188 0.64493 0
M  V30 40615 C 3985.78 4.23651 -0.195081 0
M  V30 40616 N 3986.17 4.89823 -1.26124 0
M  V30 40617 C 3984.47 4.45994 0.0222327 0
M  V30 40618 C 3985.17 5.5397 -1.77461 0
M  V30 40619 N 3984.14 5.32763 -1.08005 0
M  V30 40620 H 3987.94 2.75777 -1.0161 0
M  V30 40621 H 3985.46 1.48614 -0.654803 0
M  V30 40622 H 3987.46 4.0213 1.09988 0
M  V30 40623 H 3986.12 2.9008 1.45889 0
M  V30 40624 H 3987.13 4.91116 -1.64396 0
M  V30 40625 H 3983.8 4.09669 0.804817 0
M  V30 40626 H 3985.19 6.16744 -2.66602 0
M  V30 40627 N 3987.91 0.567071 1.47044 0
M  V30 40628 C 3988.86 -0.175075 2.30135 0
M  V30 40629 C 3989.83 -0.899024 1.39667 0
M  V30 40630 O 3991.02 -0.892779 1.68624 0
M  V30 40631 C 3988.16 -1.19283 3.2383 0
M  V30 40632 C 3987.27 -0.473936 4.29392 0
M  V30 40633 C 3986.4 -1.47784 5.10229 0
M  V30 40634 C 3985.44 -0.744477 6.07556 0
M  V30 40635 N 3984.58 -1.69569 6.81315 0
M  V30 40636 H 3989.42 0.53958 2.93074 0
M  V30 40637 H 3986.96 0.277915 1.44451 0
M  V30 40638 H 3988.91 -1.7956 3.76582 0
M  V30 40639 H 3987.54 -1.87539 2.62733 0
M  V30 40640 H 3986.6 0.243561 3.79619 0
M  V30 40641 H 3987.91 0.100109 4.987 0
M  V30 40642 H 3987.06 -2.15387 5.6718 0
M  V30 40643 H 3985.8 -2.08581 4.40846 0
M  V30 40644 H 3984.81 -0.0545865 5.49773 0
M  V30 40645 H 3986.03 -0.142116 6.78951 0
M  V30 40646 H 3983.98 -2.29205 6.14655 0
M  V30 40647 H 3983.89 -1.17405 7.46828 0
M  V30 40648 H 3985.16 -2.36255 7.42835 0
M  V30 40649 N 3989.39 -1.5464 0.304027 0
M  V30 40650 C 3990.63 -2.02109 -0.305193 0
M  V30 40651 C 3991 -1.18766 -1.5086 0
M  V30 40652 O 3992.2 -1.55947 -2.18938 0
M  V30 40653 C 3990.47 -3.51441 -0.649949 0
M  V30 40654 S 3992.03 -4.20868 -1.2416 0
M  V30 40655 H 3988.84 -0.704827 -0.0934897 0
M  V30 40656 H 3991.45 -1.90654 0.432604 0
M  V30 40657 H 3990.15 -4.0973 0.234325 0
M  V30 40658 H 3989.68 -3.66938 -1.41846 0
M  V30 40659 H 3991.7 -4.26898 -2.52929 0
M  V30 40660 N 3990.87 -0.0318079 -1.57568 0
M  V30 40661 C 3991.8 0.947462 -2.13414 0
M  V30 40662 C 3992.78 1.33752 -1.05093 0
M  V30 40663 O 3993.97 1.41566 -1.32939 0
M  V30 40664 C 3991.1 2.2289 -2.66341 0
M  V30 40665 C 3990.05 1.97951 -3.79472 0
M  V30 40666 C 3989.38 3.32383 -4.18838 0
M  V30 40667 C 3990.68 1.31655 -5.05435 0
M  V30 40668 H 3992.37 0.482365 -2.95489 0
M  V30 40669 H 3989.92 0.230578 -1.42142 0
M  V30 40670 H 3991.87 2.91779 -3.04044 0
M  V30 40671 H 3990.59 2.7157 -1.81431 0
M  V30 40672 H 3989.25 1.31479 -3.42212 0
M  V30 40673 H 3988.9 3.78827 -3.30906 0
M  V30 40674 H 3988.6 3.16502 -4.95076 0
M  V30 40675 H 3990.12 4.02536 -4.59127 0
M  V30 40676 H 3991.54 1.90548 -5.40707 0
M  V30 40677 H 3989.93 1.26162 -5.86688 0
M  V30 40678 H 3991 0.289875 -4.84033 0
M  V30 40679 N 3992.35 1.55741 0.241371 0
M  V30 40680 C 3993.31 1.89971 1.28233 0
M  V30 40681 C 3994.31 0.776606 1.40803 0
M  V30 40682 O 3995.5 1.04455 1.39409 0
M  V30 40683 C 3992.63 2.13303 2.65922 0
M  V30 40684 H 3993.83 2.83055 0.990961 0
M  V30 40685 H 3991.38 1.48718 0.480913 0
M  V30 40686 H 3992.11 1.22706 3.00189 0
M  V30 40687 H 3991.9 2.95103 2.58179 0
M  V30 40688 H 3993.39 2.4095 3.41076 0
M  V30 40689 N 3993.83 -0.507266 1.49213 0
M  V30 40690 C 3994.74 -1.636 1.68143 0
M  V30 40691 C 3995.75 -1.64606 0.563988 0
M  V30 40692 O 3996.93 -1.83142 0.837917 0
M  V30 40693 C 3993.99 -2.99992 1.73798 0
M  V30 40694 C 3993.05 -3.09662 2.97335 0
M  V30 40695 C 3992.29 -4.39547 3.02711 0
M  V30 40696 O 3992.51 -5.27981 2.15853 0
M  V30 40697 O 3991.44 -4.54059 3.95113 0
M  V30 40698 H 3995.27 -1.50561 2.63752 0
M  V30 40699 H 3992.86 -0.682869 1.32881 0
M  V30 40700 H 3994.74 -3.81066 1.79908 0
M  V30 40701 H 3993.41 -3.13307 0.813677 0
M  V30 40702 H 3992.32 -2.27798 2.96747 0
M  V30 40703 H 3993.65 -3.01272 3.89225 0
M  V30 40704 N 3995.3 -1.38182 -0.757851 0
M  V30 40705 C 3996.55 -1.33891 -1.51386 0
M  V30 40706 C 3996.87 0.0718425 -1.94868 0
M  V30 40707 O 3996.14 1.01868 -1.67331 0
M  V30 40708 H 3994.72 -0.492644 -0.561525 0
M  V30 40709 H 3997.39 -1.72817 -0.901126 0
M  V30 40710 H 3996.48 -1.98699 -2.40676 0
M  V30 40711 N 3996.78 0.985565 -1.22981 0
M  V30 40712 C 3998.03 1.72273 -1.05671 0
M  V30 40713 C 3998.35 1.90684 0.408012 0
M  V30 40714 O 3997.62 1.47176 1.2929 0
M  V30 40715 H 3996.2 0.638313 -0.388028 0
M  V30 40716 H 3998.86 1.18662 -1.54614 0
M  V30 40717 H 3997.96 2.71433 -1.54048 0
M  V30 40718 N 3998.26 1.04068 1.18353 0
M  V30 40719 C 3999.21 0.631753 2.21985 0
M  V30 40720 C 4000.18 -0.360433 1.62142 0
M  V30 40721 O 4001.36 -0.254412 1.89096 0
M  V30 40722 C 3998.5 0.000904226 3.451 0
M  V30 40723 C 3997.62 1.04056 4.19281 0
M  V30 40724 C 3996.75 0.378224 5.29852 0
M  V30 40725 C 3995.79 1.40297 5.95805 0
M  V30 40726 N 3994.93 0.765603 6.97913 0
M  V30 40727 H 3999.77 1.52 2.5632 0
M  V30 40728 H 3997.3 0.760406 1.25922 0
M  V30 40729 H 3999.26 -0.382194 4.15446 0
M  V30 40730 H 3997.89 -0.850856 3.11384 0
M  V30 40731 H 3996.94 1.5416 3.47762 0
M  V30 40732 H 3998.26 1.8189 4.64454 0
M  V30 40733 H 3997.41 -0.0590794 6.06671 0
M  V30 40734 H 3996.15 -0.432207 4.85781 0
M  V30 40735 H 3995.15 1.85041 5.17726 0
M  V30 40736 H 3996.38 2.2151 6.41958 0
M  V30 40737 H 3994.32 -0.0245211 6.55995 0
M  V30 40738 H 3994.24 1.48165 7.41339 0
M  V30 40739 H 3995.51 0.352697 7.78702 0
M  V30 40740 N 3999.74 -1.34578 0.820149 0
M  V30 40741 C 4000.99 -1.97626 0.403322 0
M  V30 40742 C 4001.3 -1.65756 -1.03847 0
M  V30 40743 O 4002.51 -2.22273 -1.55908 0
M  V30 40744 C 4000.96 -3.53604 0.670223 0
M  V30 40745 C 4000.57 -3.94371 2.12545 0
M  V30 40746 C 4002.31 -4.23297 0.319424 0
M  V30 40747 C 4000.22 -5.43249 2.33739 0
M  V30 40748 H 3999.15 -0.739517 0.147075 0
M  V30 40749 H 4001.8 -1.53459 1.00611 0
M  V30 40750 H 4000.18 -3.96 -0.00269935 0
M  V30 40751 H 4001.36 -3.63089 2.83731 0
M  V30 40752 H 3999.67 -3.37607 2.43742 0
M  V30 40753 H 4002.27 -5.32755 0.455644 0
M  V30 40754 H 4002.61 -4.09746 -0.735803 0
M  V30 40755 H 4003.15 -3.86368 0.946811 0
M  V30 40756 H 3999.89 -5.61783 3.37757 0
M  V30 40757 H 3999.41 -5.76055 1.67094 0
M  V30 40758 H 4001.08 -6.09894 2.1596 0
M  V30 40759 N 4001.22 -0.574861 -1.46742 0
M  V30 40760 C 4002.15 0.211069 -2.27222 0
M  V30 40761 C 4003.13 0.904137 -1.35145 0
M  V30 40762 O 4004.31 0.919598 -1.64547 0
M  V30 40763 C 4001.44 1.30217 -3.12668 0
M  V30 40764 C 4000.48 0.715784 -4.20451 0
M  V30 40765 S 4001.32 -0.45129 -5.33595 0
M  V30 40766 C 4002.47 0.641205 -6.22607 0
M  V30 40767 H 4002.71 -0.471818 -2.93532 0
M  V30 40768 H 4000.24 -0.361573 -1.50107 0
M  V30 40769 H 4002.2 1.92694 -3.62463 0
M  V30 40770 H 4000.86 1.95697 -2.45685 0
M  V30 40771 H 4000.05 1.5357 -4.80034 0
M  V30 40772 H 3999.65 0.166843 -3.73628 0
M  V30 40773 H 4001.95 1.52888 -6.60024 0
M  V30 40774 H 4002.89 0.0823171 -7.08052 0
M  V30 40775 H 4003.3 0.94182 -5.56588 0
M  V30 40776 N 4002.69 1.54476 -0.312224 0
M  V30 40777 C 4003.64 2.23932 0.558855 0
M  V30 40778 C 4004.61 1.22596 1.12069 0
M  V30 40779 O 4005.8 1.51247 1.16314 0
M  V30 40780 C 4002.94 2.99215 1.71943 0
M  V30 40781 C 4002.05 4.15346 1.18791 0
M  V30 40782 C 4001.18 4.78186 2.31326 0
M  V30 40783 C 4000.22 5.86441 1.75365 0
M  V30 40784 N 3999.36 6.43189 2.81517 0
M  V30 40785 H 4004.2 2.97973 -0.0400232 0
M  V30 40786 H 4001.74 1.47066 -0.0315226 0
M  V30 40787 H 4003.7 3.41102 2.40219 0
M  V30 40788 H 4002.33 2.27529 2.28977 0
M  V30 40789 H 4001.38 3.78322 0.397056 0
M  V30 40790 H 4002.69 4.93305 0.738339 0
M  V30 40791 H 4001.84 5.22983 3.07528 0
M  V30 40792 H 4000.58 3.99583 2.79615 0
M  V30 40793 H 3999.59 5.41058 0.976563 0
M  V30 40794 H 4000.81 6.66934 1.27967 0
M  V30 40795 H 3998.76 5.67465 3.29119 0
M  V30 40796 H 3998.68 7.16528 2.41089 0
M  V30 40797 H 3999.94 6.92643 3.57583 0
M  V30 40798 N 4004.17 0.0401637 1.57549 0
M  V30 40799 C 4005.42 -0.635462 1.91428 0
M  V30 40800 C 4005.73 -1.7265 0.919308 0
M  V30 40801 O 4006.94 -2.45953 1.14975 0
M  V30 40802 C 4005.4 -1.18158 3.39951 0
M  V30 40803 C 4005 -0.123241 4.4783 0
M  V30 40804 C 4006.75 -1.83309 3.82881 0
M  V30 40805 C 4004.66 -0.681624 5.87459 0
M  V30 40806 H 4003.59 -0.241125 0.714405 0
M  V30 40807 H 4006.24 0.107263 1.83186 0
M  V30 40808 H 4004.62 -1.97627 3.43161 0
M  V30 40809 H 4005.79 0.6498 4.56195 0
M  V30 40810 H 4004.11 0.430152 4.14172 0
M  V30 40811 H 4006.7 -2.26061 4.84562 0
M  V30 40812 H 4007.05 -2.68033 3.18534 0
M  V30 40813 H 4007.58 -1.10512 3.82141 0
M  V30 40814 H 4004.32 0.127731 6.55376 0
M  V30 40815 H 4003.84 -1.4229 5.82678 0
M  V30 40816 H 4005.52 -1.16795 6.36371 0
M  V30 40817 N 4005.65 -1.55866 -0.233109 0
M  V30 40818 C 4007.06 -1.68641 -0.801063 0
M  V30 40819 C 4007.41 -0.640114 -1.85464 0
M  V30 40820 O 4006.54 0.211001 -2.15369 0
M  V30 40821 C 4007.13 -3.05738 -1.45979 0
M  V30 40822 C 4005.69 -3.20406 -1.97527 0
M  V30 40823 C 4004.84 -2.64547 -0.831275 0
M  V30 40824 H 4007.79 -1.58698 -0.00865918 0
M  V30 40825 H 4007.81 -3.00952 -2.32827 0
M  V30 40826 H 4007.32 -3.81867 -0.692738 0
M  V30 40827 H 4005.42 -2.49125 -2.7707 0
M  V30 40828 H 4005.54 -4.27485 -2.16318 0
M  V30 40829 H 4003.9 -2.22727 -1.2355 0
M  V30 40830 H 4004.68 -3.43213 -0.0770862 0
M  V30 40831 N 4007.13 0.499346 -1.4948 0
M  V30 40832 C 4008.38 1.25089 -1.58736 0
M  V30 40833 C 4008.7 1.93026 -0.276735 0
M  V30 40834 O 4007.97 1.82812 0.704026 0
M  V30 40835 H 4006.55 0.464696 -0.584865 0
M  V30 40836 H 4009.21 0.578575 -1.86114 0
M  V30 40837 H 4008.31 2.01394 -2.38426 0
M  V30 40838 N 4008.61 1.38582 0.750513 0
M  V30 40839 C 4009.84 1.38199 1.53976 0
M  V30 40840 C 4010.25 -0.0274645 1.8878 0
M  V30 40841 O 4009.61 -0.994867 1.52999 0
M  V30 40842 C 4009.66 2.24048 2.83699 0
M  V30 40843 O 4009.38 3.59503 2.50378 0
M  V30 40844 C 4010.88 2.31878 3.77819 0
M  V30 40845 H 4008.1 0.472593 0.476337 0
M  V30 40846 H 4010.64 1.82201 0.928602 0
M  V30 40847 H 4008.8 1.835 3.41184 0
M  V30 40848 H 4009.21 4.04738 3.33598 0
M  V30 40849 H 4010.69 2.96226 4.65783 0
M  V30 40850 H 4011.16 1.33334 4.18472 0
M  V30 40851 H 4011.77 2.7283 3.26257 0
M  V30 40852 N 4010.09 -0.979029 1.23502 0
M  V30 40853 C 4011.33 -1.73557 1.07969 0
M  V30 40854 C 4011.69 -1.88268 -0.376723 0
M  V30 40855 O 4012.89 -2.60741 -0.653272 0
M  V30 40856 C 4011.16 -3.09534 1.78672 0
M  V30 40857 S 4012.72 -4.00751 1.78729 0
M  V30 40858 H 4009.54 -0.596856 0.386374 0
M  V30 40859 H 4012.14 -1.16953 1.56659 0
M  V30 40860 H 4010.84 -2.96479 2.83775 0
M  V30 40861 H 4010.38 -3.71205 1.3027 0
M  V30 40862 H 4012.39 -4.8892 0.846861 0
M  V30 40863 N 4011.56 -1.04695 -1.178 0
M  V30 40864 C 4012.8 -0.763028 -1.89624 0
M  V30 40865 C 4013.17 0.696869 -1.78907 0
M  V30 40866 O 4014.37 1.09467 -2.455 0
M  V30 40867 C 4012.64 -1.22406 -3.35785 0
M  V30 40868 S 4014.2 -1.06674 -4.25636 0
M  V30 40869 H 4011.02 -0.277247 -0.654718 0
M  V30 40870 H 4013.62 -1.34054 -1.42301 0
M  V30 40871 H 4012.32 -2.28182 -3.41117 0
M  V30 40872 H 4011.85 -0.640601 -3.88149 0
M  V30 40873 H 4013.87 0.012081 -4.96199 0
M  V30 40874 N 4013.04 1.34141 -0.827275 0
M  V30 40875 C 4014.32 1.92625 -0.339827 0
M  V30 40876 C 4014.7 1.75485 1.17339 0
M  V30 40877 O 4014.05 1.1362 1.98249 0
M  V30 40878 C 4014.26 3.4031 -0.773951 0
M  V30 40879 C 4015.6 4.17462 -0.775283 0
M  V30 40880 O 4016.63 3.48913 -0.71681 0
M  V30 40881 O 4015.49 5.39811 -0.852442 0
M  V30 40882 H 4012.58 0.821668 -0.093763 0
M  V30 40883 H 4015.13 1.43088 -0.912355 0
M  V30 40884 H 4013.9 3.46606 -1.81603 0
M  V30 40885 H 4013.52 3.97204 -0.177357 0
M  V30 40886 N 4014.52 0.582635 1.46435 0
M  V30 40887 C 4015.75 0.073802 2.06768 0
M  V30 40888 C 4016.16 -1.23112 1.43139 0
M  V30 40889 O 4015.52 -1.74431 0.536664 0
M  V30 40890 C 4015.57 -0.098757 3.61365 0
M  V30 40891 O 4015.29 1.15452 4.22614 0
M  V30 40892 C 4016.79 -0.641948 4.38627 0
M  V30 40893 H 4014.01 0.0574196 0.668539 0
M  V30 40894 H 4016.56 0.803283 1.88063 0
M  V30 40895 H 4014.71 -0.778459 3.79498 0
M  V30 40896 H 4015.13 0.968294 5.15485 0
M  V30 40897 H 4016.6 -0.71187 5.47391 0
M  V30 40898 H 4017.08 -1.6589 4.06666 0
M  V30 40899 H 4017.68 0.00288328 4.253 0
M  V30 40900 N 4016 -1.54309 0.320412 0
M  V30 40901 C 4017.24 -2.02421 -0.28374 0
M  V30 40902 C 4017.6 -1.20359 -1.49592 0
M  V30 40903 O 4018.8 -1.5826 -2.17272 0
M  V30 40904 C 4017.07 -3.5211 -0.612637 0
M  V30 40905 S 4018.63 -4.22161 -1.19689 0
M  V30 40906 H 4015.45 -0.705779 -0.0860088 0
M  V30 40907 H 4018.05 -1.90184 0.452801 0
M  V30 40908 H 4016.76 -4.09459 0.277769 0
M  V30 40909 H 4016.29 -3.68422 -1.37946 0
M  V30 40910 H 4018.3 -4.29556 -2.48387 0
M  V30 40911 N 4017.48 -0.0485183 -1.57525 0
M  V30 40912 C 4018.39 0.942038 -2.14855 0
M  V30 40913 C 4019.4 1.34353 -1.10568 0
M  V30 40914 O 4020.58 1.42099 -1.42723 0
M  V30 40915 C 4017.64 2.1994 -2.68006 0
M  V30 40916 C 4016.7 1.85651 -3.87082 0
M  V30 40917 C 4015.94 3.05393 -4.37688 0
M  V30 40918 O 4016.16 4.1868 -3.8738 0
M  V30 40919 O 4015.09 2.86562 -5.29307 0
M  V30 40920 H 4018.92 0.484477 -2.99811 0
M  V30 40921 H 4016.5 0.173226 -1.48392 0
M  V30 40922 H 4018.39 2.93717 -3.02173 0
M  V30 40923 H 4017.06 2.64839 -1.86123 0
M  V30 40924 H 4015.97 1.09199 -3.57808 0
M  V30 40925 H 4017.3 1.45554 -4.70186 0
M  V30 40926 N 4018.95 1.55988 0.224839 0
M  V30 40927 C 4019.86 1.95309 1.29967 0
M  V30 40928 C 4020.88 0.85647 1.51461 0
M  V30 40929 O 4022.06 1.15976 1.64656 0
M  V30 40930 C 4019.12 2.25897 2.63005 0
M  V30 40931 C 4018.18 3.4911 2.49841 0
M  V30 40932 C 4017.41 3.78229 3.76535 0
M  V30 40933 O 4017.64 3.09074 4.79405 0
M  V30 40934 O 4016.57 4.71725 3.73844 0
M  V30 40935 H 4020.4 2.86902 0.996042 0
M  V30 40936 H 4017.98 1.43155 0.427432 0
M  V30 40937 H 4019.86 2.4678 3.41581 0
M  V30 40938 H 4018.54 1.37479 2.93055 0
M  V30 40939 H 4017.45 3.3351 1.69476 0
M  V30 40940 H 4018.78 4.379 2.24731 0
M  V30 40941 N 4020.43 -0.491412 1.49743 0
M  V30 40942 C 4021.84 -1.07275 1.52804 0
M  V30 40943 C 4022.19 -1.93577 0.319746 0
M  V30 40944 O 4021.32 -2.08772 -0.569487 0
M  V30 40945 C 4021.91 -1.95224 2.76899 0
M  V30 40946 C 4020.47 -2.48503 2.82707 0
M  V30 40947 C 4019.62 -1.2635 2.46842 0
M  V30 40948 H 4022.57 -0.274898 1.56301 0
M  V30 40949 H 4022.59 -2.80036 2.57604 0
M  V30 40950 H 4022.1 -1.32385 3.64823 0
M  V30 40951 H 4020.2 -3.14953 1.99087 0
M  V30 40952 H 4020.32 -2.84999 3.85113 0
M  V30 40953 H 4018.68 -1.59181 1.98831 0
M  V30 40954 H 4019.46 -0.65205 3.37051 0
M  V30 40955 N 4021.91 -1.38978 -0.743153 0
M  V30 40956 C 4022.82 -1.39302 -1.88765 0
M  V30 40957 C 4023.84 -0.288812 -1.71586 0
M  V30 40958 O 4025.01 -0.528954 -1.9433 0
M  V30 40959 C 4022.08 -1.22703 -3.2426 0
M  V30 40960 C 4021.14 -2.43023 -3.5389 0
M  V30 40961 C 4020.37 -2.27206 -4.82921 0
M  V30 40962 O 4020.59 -1.27124 -5.56054 0
M  V30 40963 O 4019.53 -3.16018 -5.12266 0
M  V30 40964 H 4023.35 -2.35759 -1.91446 0
M  V30 40965 H 4020.94 -1.20008 -0.88986 0
M  V30 40966 H 4022.82 -1.15547 -4.05249 0
M  V30 40967 H 4021.5 -0.293374 -3.22368 0
M  V30 40968 H 4020.4 -2.55754 -2.73021 0
M  V30 40969 H 4021.74 -3.35054 -3.60554 0
M  V30 40970 N 4023.39 0.972465 -1.2402 0
M  V30 40971 C 4024.63 1.72982 -1.08888 0
M  V30 40972 C 4024.99 1.88465 0.366733 0
M  V30 40973 O 4026.19 2.61084 0.639435 0
M  V30 40974 C 4024.46 3.08582 -1.80311 0
M  V30 40975 S 4026.02 3.99798 -1.80851 0
M  V30 40976 H 4022.84 0.594798 -0.389533 0
M  V30 40977 H 4025.44 1.16121 -1.57277 0
M  V30 40978 H 4024.15 2.9497 -2.85344 0
M  V30 40979 H 4023.68 3.70509 -1.32236 0
M  V30 40980 H 4025.69 4.88464 -0.872778 0
M  V30 40981 N 4024.87 1.05318 1.17243 0
M  V30 40982 C 4025.81 0.649213 2.23356 0
M  V30 40983 C 4026.81 -0.330121 1.66152 0
M  V30 40984 O 4028.01 -0.196047 1.78929 0
M  V30 40985 H 4024.39 0.191775 0.727136 0
M  V30 40986 H 4026.36 1.55427 2.54725 0
M  V30 40987 C 4025.11 0.041266 3.47676 0
M  V30 40988 H 4024.43 0.785927 3.91999 0
M  V30 40989 H 4025.87 -0.203999 4.23509 0
M  V30 40990 C 4024.33 -1.21241 3.14328 0
M  V30 40991 O 4024.86 -2.30164 3.29222 0
M  V30 40992 N 4023.07 -1.11055 2.68542 0
M  V30 40993 H 4022.61 -0.224167 2.56623 0
M  V30 40994 H 4022.57 -1.95024 2.46603 0
M  V30 40995 N 4026.34 -1.33701 0.834377 0
M  V30 40996 C 4027.62 -1.92442 0.350037 0
M  V30 40997 C 4028 -1.76104 -1.16406 0
M  V30 40998 O 4027.35 -1.1467 -1.97644 0
M  V30 40999 C 4027.56 -3.39895 0.791988 0
M  V30 41000 C 4028.91 -4.17045 0.797412 0
M  V30 41001 O 4029.93 -3.48528 0.735303 0
M  V30 41002 O 4028.79 -5.39351 0.881057 0
M  V30 41003 H 4025.88 -0.821159 0.0981192 0
M  V30 41004 H 4028.43 -1.42602 0.91993 0
M  V30 41005 H 4027.2 -3.45638 1.83439 0
M  V30 41006 H 4026.83 -3.97105 0.198419 0
M  V30 41007 N 4027.82 -0.590393 -1.46124 0
M  V30 41008 C 4029.07 -0.0765897 -2.01555 0
M  V30 41009 C 4029.38 1.29419 -1.46663 0
M  V30 41010 O 4030.59 1.89977 -1.93962 0
M  V30 41011 C 4029.05 -0.0863001 -3.59797 0
M  V30 41012 C 4028.65 -1.45587 -4.23684 0
M  V30 41013 C 4030.4 0.373158 -4.22857 0
M  V30 41014 C 4028.31 -1.42289 -5.74028 0
M  V30 41015 H 4027.24 -0.0248633 -0.75359 0
M  V30 41016 H 4029.89 -0.743179 -1.67777 0
M  V30 41017 H 4028.27 0.646606 -3.90685 0
M  V30 41018 H 4029.44 -2.20912 -4.04394 0
M  V30 41019 H 4027.76 -1.85599 -3.72749 0
M  V30 41020 H 4030.35 0.416743 -5.33073 0
M  V30 41021 H 4030.7 1.3923 -3.92327 0
M  V30 41022 H 4031.23 -0.305929 -3.96622 0
M  V30 41023 H 4027.97 -2.41909 -6.09229 0
M  V30 41024 H 4027.49 -0.711967 -5.95559 0
M  V30 41025 H 4029.17 -1.1391 -6.36894 0
M  V30 41026 N 4029.3 1.54136 -0.328591 0
M  V30 41027 C 4030.53 2.05074 0.274289 0
M  V30 41028 C 4030.94 1.20445 1.45391 0
M  V30 41029 O 4030.3 0.236282 1.80964 0
M  V30 41030 C 4030.35 3.54581 0.703879 0
M  V30 41031 O 4030.07 4.35996 -0.428815 0
M  V30 41032 C 4031.57 4.2163 1.36904 0
M  V30 41033 H 4028.79 0.668692 0.055604 0
M  V30 41034 H 4031.34 1.98877 -0.476239 0
M  V30 41035 H 4029.49 3.61049 1.40437 0
M  V30 41036 H 4029.91 5.24424 -0.0893575 0
M  V30 41037 H 4031.38 5.27677 1.62052 0
M  V30 41038 H 4031.86 3.73053 2.31793 0
M  V30 41039 H 4032.46 4.19315 0.71099 0
M  V30 41040 N 4030.78 0.0568716 1.57497 0
M  V30 41041 C 4031.74 -0.900786 2.10757 0
M  V30 41042 C 4032.74 -1.23617 1.02837 0
M  V30 41043 O 4033.93 -1.17191 1.28887 0
M  V30 41044 C 4031.06 -2.2089 2.59654 0
M  V30 41045 H 4032.26 -0.438989 2.9667 0
M  V30 41046 H 4029.81 -0.191619 1.55121 0
M  V30 41047 H 4030.54 -2.71639 1.77151 0
M  V30 41048 H 4030.33 -1.97849 3.38523 0
M  V30 41049 H 4031.82 -2.89476 3.00987 0
M  V30 41050 N 4032.26 -1.56105 -0.216564 0
M  V30 41051 C 4033.67 -1.49208 -0.566484 0
M  V30 41052 C 4033.87 -0.752915 -1.86905 0
M  V30 41053 O 4032.93 -0.294617 -2.50775 0
M  V30 41054 C 4034.24 -2.93786 -0.641094 0
M  V30 41055 C 4035.79 -3.04335 -0.731385 0
M  V30 41056 C 4036.26 -4.50281 -0.837297 0
M  V30 41057 N 4037.76 -4.54345 -0.901388 0
M  V30 41058 C 4038.49 -5.64557 -1.00313 0
M  V30 41059 N 4037.99 -6.8451 -1.06852 0
M  V30 41060 N 4039.78 -5.5242 -1.03866 0
M  V30 41061 H 4031.93 -2.02588 0.638127 0
M  V30 41062 H 4034.19 -0.92102 0.224559 0
M  V30 41063 H 4033.9 -3.50835 0.246516 0
M  V30 41064 H 4033.77 -3.45961 -1.50303 0
M  V30 41065 H 4036.16 -2.47348 -1.60943 0
M  V30 41066 H 4036.24 -2.55322 0.156325 0
M  V30 41067 H 4035.89 -5.07887 0.0363155 0
M  V30 41068 H 4035.82 -4.97005 -1.7405 0
M  V30 41069 H 4038.31 -3.67961 -0.860974 0
M  V30 41070 H 4038.62 -7.64255 -1.14607 0
M  V30 41071 H 4036.96 -6.87211 -1.03756 0
M  V30 41072 H 4040.16 -4.57635 -0.984268 0
M  V30 41073 H 4040.33 -6.38344 -1.1145 0
M  V30 41074 N 4033.73 0.483463 -1.50001 0
M  V30 41075 C 4034.66 1.59127 -1.70882 0
M  V30 41076 C 4035.65 1.607 -0.557634 0
M  V30 41077 O 4036.83 1.77163 -0.795421 0
M  V30 41078 C 4033.96 2.97524 -1.79156 0
M  V30 41079 C 4032.91 3.10818 -2.94238 0
M  V30 41080 C 4032.24 4.5074 -2.87642 0
M  V30 41081 C 4033.54 2.89194 -4.3493 0
M  V30 41082 H 4035.23 1.41907 -2.63634 0
M  V30 41083 H 4032.78 0.681248 -1.26866 0
M  V30 41084 H 4034.73 3.7494 -1.92349 0
M  V30 41085 H 4033.46 3.15873 -0.830162 0
M  V30 41086 H 4032.12 2.35832 -2.80676 0
M  V30 41087 H 4031.76 4.6599 -1.89374 0
M  V30 41088 H 4031.46 4.60573 -3.64893 0
M  V30 41089 H 4032.99 5.30193 -3.02866 0
M  V30 41090 H 4034.4 3.56368 -4.49082 0
M  V30 41091 H 4032.8 3.10483 -5.13537 0
M  V30 41092 H 4033.87 1.85157 -4.48157 0
M  V30 41093 N 4035.21 1.39371 0.735772 0
M  V30 41094 C 4036.14 1.33929 1.85999 0
M  V30 41095 C 4037.16 0.248209 1.60897 0
M  V30 41096 O 4038.35 0.507104 1.71145 0
M  V30 41097 C 4035.45 1.0566 3.22008 0
M  V30 41098 C 4034.62 2.2603 3.74472 0
M  V30 41099 C 4033.68 1.9423 4.89041 0
M  V30 41100 O 4032.7 2.66905 5.02743 0
M  V30 41101 N 4033.91 0.907985 5.73355 0
M  V30 41102 H 4036.67 2.30811 1.91171 0
M  V30 41103 H 4034.23 1.33463 0.916476 0
M  V30 41104 H 4036.22 0.824071 3.96221 0
M  V30 41105 H 4034.79 0.175149 3.12109 0
M  V30 41106 H 4034.01 2.65239 2.9162 0
M  V30 41107 H 4035.3 3.0632 4.06258 0
M  V30 41108 H 4034.7 0.305664 5.64874 0
M  V30 41109 H 4033.26 0.735351 6.47639 0
M  V30 41110 N 4036.69 -0.965875 1.24534 0
M  V30 41111 C 4037.92 -1.74147 1.1116 0
M  V30 41112 C 4038.33 -1.86147 -0.338509 0
M  V30 41113 O 4037.67 -1.3505 -1.24528 0
M  V30 41114 C 4037.73 -3.17853 1.67957 0
M  V30 41115 C 4037.4 -3.29318 3.16857 0
M  V30 41116 C 4038.4 -3.14504 4.13984 0
M  V30 41117 C 4036.08 -3.535 3.56851 0
M  V30 41118 C 4038.07 -3.237 5.49087 0
M  V30 41119 C 4035.76 -3.62334 4.92095 0
M  V30 41120 C 4036.76 -3.47446 5.88022 0
M  V30 41121 O 4036.45 -3.55939 7.20807 0
M  V30 41122 H 4036.18 -0.552873 0.388983 0
M  V30 41123 H 4038.73 -1.22116 1.65157 0
M  V30 41124 H 4036.96 -3.71197 1.08395 0
M  V30 41125 H 4038.65 -3.77228 1.49846 0
M  V30 41126 H 4039.42 -2.95704 3.84427 0
M  V30 41127 H 4035.3 -3.64154 2.82689 0
M  V30 41128 H 4038.84 -3.11997 6.23942 0
M  V30 41129 H 4034.74 -3.80648 5.21323 0
M  V30 41130 H 4035.51 -3.72642 7.28752 0
M  V30 41131 N 4038.17 -1.05938 -1.16683 0
M  V30 41132 C 4039.42 -0.775094 -1.87404 0
M  V30 41133 C 4039.75 0.696511 -1.8128 0
M  V30 41134 O 4039.02 1.50997 -1.22598 0
M  V30 41135 C 4039.31 -1.26575 -3.37121 0
M  V30 41136 C 4039.16 -2.80085 -3.51956 0
M  V30 41137 C 4040.48 -0.870771 -4.314 0
M  V30 41138 H 4037.6 -0.28304 -0.680483 0
M  V30 41139 H 4040.24 -1.31468 -1.37172 0
M  V30 41140 H 4038.39 -0.80672 -3.80032 0
M  V30 41141 H 4040.06 -3.34168 -3.18008 0
M  V30 41142 H 4038.3 -3.18992 -2.93984 0
M  V30 41143 H 4038.98 -3.09479 -4.57085 0
M  V30 41144 H 4041.45 -1.26607 -3.96371 0
M  V30 41145 H 4040.33 -1.2416 -5.34673 0
M  V30 41146 H 4040.59 0.224615 -4.41529 0
M  V30 41147 N 4039.65 1.33256 -0.841456 0
M  V30 41148 C 4040.59 2.29161 -0.274527 0
M  V30 41149 C 4041.56 1.54449 0.611116 0
M  V30 41150 O 4042.75 1.82736 0.548836 0
M  V30 41151 C 4039.89 3.40814 0.542215 0
M  V30 41152 C 4039 4.30432 -0.36774 0
M  V30 41153 C 4038.14 5.29201 0.460354 0
M  V30 41154 C 4037.18 6.1046 -0.447829 0
M  V30 41155 N 4036.31 7.01265 0.342291 0
M  V30 41156 H 4041.15 2.77047 -1.09767 0
M  V30 41157 H 4038.69 1.36319 -0.552759 0
M  V30 41158 H 4040.65 4.04254 1.03125 0
M  V30 41159 H 4039.28 2.94114 1.3303 0
M  V30 41160 H 4038.33 3.6769 -0.975097 0
M  V30 41161 H 4039.64 4.87292 -1.06529 0
M  V30 41162 H 4038.8 5.98181 1.0131 0
M  V30 41163 H 4037.54 4.72926 1.19133 0
M  V30 41164 H 4036.54 5.40395 -1.01257 0
M  V30 41165 H 4037.77 6.68819 -1.17721 0
M  V30 41166 H 4035.71 6.47435 1.0566 0
M  V30 41167 H 4035.63 7.55418 -0.296489 0
M  V30 41168 H 4036.9 7.74549 0.877195 0
M  V30 41169 N 4041.13 0.598134 1.45809 0
M  V30 41170 C 4042.37 0.0897796 2.02601 0
M  V30 41171 C 4042.7 -1.27279 1.46675 0
M  V30 41172 O 4041.98 -1.83747 0.637767 0
M  V30 41173 C 4042.26 0.0406345 3.60077 0
M  V30 41174 C 4042.12 1.4332 4.26356 0
M  V30 41175 C 4043.43 -0.652087 4.35242 0
M  V30 41176 H 4040.55 0.0340995 0.736211 0
M  V30 41177 H 4043.2 0.768294 1.73774 0
M  V30 41178 H 4041.35 -0.537183 3.84768 0
M  V30 41179 H 4043.02 2.05737 4.1288 0
M  V30 41180 H 4041.26 1.99659 3.85121 0
M  V30 41181 H 4041.93 1.35114 5.35209 0
M  V30 41182 H 4044.41 -0.161055 4.15788 0
M  V30 41183 H 4043.28 -0.65555 5.44971 0
M  V30 41184 H 4043.54 -1.71639 4.07422 0
M  V30 41185 N 4042.6 -1.5396 0.33676 0
M  V30 41186 C 4043.85 -2.00404 -0.261308 0
M  V30 41187 C 4044.17 -1.22635 -1.5161 0
M  V30 41188 O 4043.44 -0.331693 -1.93072 0
M  V30 41189 H 4042.02 -0.740337 -0.0995464 0
M  V30 41190 H 4044.68 -1.89482 0.456352 0
M  V30 41191 H 4043.78 -3.0793 -0.508503 0
M  V30 41192 N 4044.08 -0.0652232 -1.57465 0
M  V30 41193 C 4045.31 0.618064 -1.97977 0
M  V30 41194 C 4045.73 1.62749 -0.943097 0
M  V30 41195 O 4045.09 1.81066 0.0920726 0
M  V30 41196 C 4045.14 1.26896 -3.37535 0
M  V30 41197 O 4044.24 2.38477 -3.36456 0
M  V30 41198 H 4043.58 0.159513 -0.644555 0
M  V30 41199 H 4046.11 -0.13779 -2.04135 0
M  V30 41200 H 4046.12 1.61735 -3.74574 0
M  V30 41201 H 4044.8 0.529261 -4.12519 0
M  V30 41202 H 4043.37 2.05481 -3.11179 0
M  V30 41203 N 4045.56 1.56218 0.208282 0
M  V30 41204 C 4046.8 1.81627 0.93761 0
M  V30 41205 C 4047.16 0.640747 1.80993 0
M  V30 41206 O 4048.36 0.774433 2.57402 0
M  V30 41207 C 4046.64 3.11998 1.74333 0
M  V30 41208 S 4048.19 3.58768 2.52648 0
M  V30 41209 H 4045.01 0.637551 0.314721 0
M  V30 41210 H 4047.61 1.94453 0.202072 0
M  V30 41211 H 4046.32 3.95581 1.09287 0
M  V30 41212 H 4045.85 3.02015 2.52093 0
M  V30 41213 H 4047.86 3.23158 3.76542 0
M  V30 41214 N 4047.04 -0.475502 1.50256 0
M  V30 41215 C 4047.98 -1.57405 1.68797 0
M  V30 41216 C 4048.95 -1.57442 0.52928 0
M  V30 41217 O 4050.14 -1.75039 0.759332 0
M  V30 41218 C 4047.28 -2.95407 1.78406 0
M  V30 41219 C 4046.39 -3.05193 3.05747 0
M  V30 41220 C 4045.53 -4.34083 3.06179 0
M  V30 41221 C 4044.57 -4.37594 4.27993 0
M  V30 41222 N 4043.7 -5.57949 4.26189 0
M  V30 41223 H 4048.54 -1.40901 2.62585 0
M  V30 41224 H 4046.08 -0.685129 1.30171 0
M  V30 41225 H 4048.04 -3.75429 1.81958 0
M  V30 41226 H 4046.67 -3.10556 0.88061 0
M  V30 41227 H 4045.72 -2.18072 3.11687 0
M  V30 41228 H 4047.03 -3.03647 3.95727 0
M  V30 41229 H 4046.19 -5.22448 3.08436 0
M  V30 41230 H 4044.93 -4.38231 2.14022 0
M  V30 41231 H 4043.93 -3.47627 4.25953 0
M  V30 41232 H 4045.16 -4.35141 5.21372 0
M  V30 41233 H 4043.1 -5.62891 3.36883 0
M  V30 41234 H 4043.02 -5.58126 5.09933 0
M  V30 41235 H 4044.29 -6.48452 4.32586 0
M  V30 41236 N 4048.52 -1.39759 -0.72837 0
M  V30 41237 C 4049.74 -1.40819 -1.52266 0
M  V30 41238 C 4050.17 -0.00632473 -1.88099 0
M  V30 41239 O 4049.52 0.982375 -1.52378 0
M  V30 41240 C 4049.57 -2.29358 -2.78258 0
M  V30 41241 O 4048.68 -1.72803 -3.7445 0
M  V30 41242 H 4048.02 -0.479258 -0.459573 0
M  V30 41243 H 4050.55 -1.83835 -0.898099 0
M  V30 41244 H 4050.56 -2.44101 -3.26923 0
M  V30 41245 H 4049.23 -3.31234 -2.5151 0
M  V30 41246 H 4047.81 -1.67338 -3.33245 0
M  V30 41247 N 4049.99 0.959257 -1.25044 0
M  V30 41248 C 4050.9 2.08904 -1.06753 0
M  V30 41249 C 4051.92 1.73999 -0.00594864 0
M  V30 41250 O 4053.1 2.00345 -0.205911 0
M  V30 41251 C 4050.16 3.39898 -0.683413 0
M  V30 41252 C 4049.22 3.88699 -1.82241 0
M  V30 41253 C 4048.45 5.1344 -1.45653 0
M  V30 41254 O 4048.68 5.69324 -0.350112 0
M  V30 41255 O 4047.61 5.56836 -2.28512 0
M  V30 41256 H 4051.44 2.27235 -2.01489 0
M  V30 41257 H 4049.02 1.07316 -1.0394 0
M  V30 41258 H 4050.9 4.18645 -0.481109 0
M  V30 41259 H 4049.58 3.22848 0.234739 0
M  V30 41260 H 4048.49 3.10976 -2.07954 0
M  V30 41261 H 4049.82 4.10239 -2.71964 0
M  V30 41262 N 4051.47 1.06556 1.16119 0
M  V30 41263 C 4052.72 0.785022 1.8699 0
M  V30 41264 C 4053.05 -0.686887 1.81647 0
M  V30 41265 O 4052.33 -1.50345 1.23397 0
M  V30 41266 C 4052.61 1.28361 3.36445 0
M  V30 41267 C 4052.46 2.81947 3.50465 0
M  V30 41268 C 4053.78 0.893637 4.30932 0
M  V30 41269 H 4050.9 0.286645 0.678973 0
M  V30 41270 H 4053.54 1.32194 1.36472 0
M  V30 41271 H 4051.69 0.826862 3.79599 0
M  V30 41272 H 4053.36 3.3585 3.16232 0
M  V30 41273 H 4051.61 3.20546 2.92289 0
M  V30 41274 H 4052.28 3.11899 4.55437 0
M  V30 41275 H 4054.75 1.28707 3.95694 0
M  V30 41276 H 4053.63 1.26993 5.34007 0
M  V30 41277 H 4053.89 -0.201196 4.41642 0
M  V30 41278 N 4052.95 -1.32808 0.848511 0
M  V30 41279 C 4053.86 -2.32783 0.291396 0
M  V30 41280 C 4054.88 -1.63778 -0.587592 0
M  V30 41281 O 4056.05 -1.95363 -0.489424 0
M  V30 41282 C 4053.12 -3.42834 -0.51628 0
M  V30 41283 C 4052.18 -4.27542 0.388121 0
M  V30 41284 C 4051.41 -5.32338 -0.381103 0
M  V30 41285 O 4051.63 -5.47155 -1.61176 0
M  V30 41286 O 4050.57 -6.01381 0.249906 0
M  V30 41287 H 4054.39 -2.82313 1.11952 0
M  V30 41288 H 4051.98 -1.36322 0.611282 0
M  V30 41289 H 4053.86 -4.09967 -0.974923 0
M  V30 41290 H 4052.54 -2.95505 -1.32131 0
M  V30 41291 H 4051.44 -3.63241 0.894809 0
M  V30 41292 H 4052.78 -4.7838 1.15817 0
M  V30 41293 N 4054.43 -0.605858 -1.45489 0
M  V30 41294 C 4055.67 -0.100523 -2.02551 0
M  V30 41295 C 4056.01 1.265 -1.47348 0
M  V30 41296 O 4055.28 1.83406 -0.647503 0
M  V30 41297 C 4055.57 -0.0597297 -3.6005 0
M  V30 41298 C 4055.42 -1.45579 -4.2559 0
M  V30 41299 C 4056.74 0.628996 -4.35582 0
M  V30 41300 H 4053.86 -0.0380033 -0.73602 0
M  V30 41301 H 4056.5 -0.777498 -1.73364 0
M  V30 41302 H 4054.65 0.51677 -3.85048 0
M  V30 41303 H 4056.32 -2.07924 -4.11783 0
M  V30 41304 H 4054.56 -2.01699 -3.84057 0
M  V30 41305 H 4055.23 -1.37951 -5.34484 0
M  V30 41306 H 4057.71 0.139003 -4.15868 0
M  V30 41307 H 4056.59 0.62664 -5.45311 0
M  V30 41308 H 4056.85 1.69476 -4.08326 0
M  V30 41309 N 4055.91 1.53779 -0.34492 0
M  V30 41310 C 4057.18 1.93183 0.30652 0
M  V30 41311 C 4057.56 1.27661 1.68125 0
M  V30 41312 O 4056.91 0.428042 2.24455 0
M  V30 41313 C 4057.12 3.46953 0.377423 0
M  V30 41314 C 4058.47 4.19936 0.627611 0
M  V30 41315 O 4059.49 3.53224 0.459482 0
M  V30 41316 O 4058.35 5.38119 0.953416 0
M  V30 41317 H 4055.45 0.807363 0.179149 0
M  V30 41318 H 4057.99 1.6501 -0.396197 0
M  V30 41319 H 4056.76 3.86868 -0.587243 0
M  V30 41320 H 4056.39 3.81297 1.12687 0
M  V30 41321 N 4057.38 0.0735731 1.57428 0
M  V30 41322 C 4058.63 -0.594715 1.92733 0
M  V30 41323 C 4058.95 -1.70661 0.955723 0
M  V30 41324 O 4060.15 -2.43459 1.20166 0
M  V30 41325 C 4058.61 -1.10921 3.42381 0
M  V30 41326 C 4058.22 -0.028222 4.47991 0
M  V30 41327 C 4059.96 -1.75146 3.86683 0
M  V30 41328 C 4057.87 -0.556862 5.88772 0
M  V30 41329 H 4056.8 -0.225917 0.719359 0
M  V30 41330 H 4059.45 0.146095 1.82917 0
M  V30 41331 H 4057.83 -1.90304 3.47276 0
M  V30 41332 H 4059 0.74642 4.54714 0
M  V30 41333 H 4057.32 0.517908 4.13167 0
M  V30 41334 H 4059.92 -2.15732 4.89248 0
M  V30 41335 H 4060.26 -2.61216 3.24148 0
M  V30 41336 H 4060.79 -1.02382 3.84399 0
M  V30 41337 H 4057.53 0.266717 6.54957 0
M  V30 41338 H 4057.05 -1.29899 5.85565 0
M  V30 41339 H 4058.73 -1.0327 6.38705 0
M  V30 41340 N 4058.86 -1.56326 -0.199995 0
M  V30 41341 C 4059.81 -1.90558 -1.25186 0
M  V30 41342 C 4060.8 -0.770765 -1.41237 0
M  V30 41343 O 4061.99 -1.03354 -1.4369 0
M  V30 41344 C 4059.12 -2.24438 -2.59773 0
M  V30 41345 C 4058.2 -3.44365 -2.47535 0
M  V30 41346 N 4058.59 -4.62407 -2.04971 0
M  V30 41347 C 4056.89 -3.48406 -2.78441 0
M  V30 41348 C 4057.59 -5.44566 -2.04506 0
M  V30 41349 N 4056.57 -4.84843 -2.45822 0
M  V30 41350 H 4060.37 -2.79326 -0.914024 0
M  V30 41351 H 4057.89 -1.57179 -0.408457 0
M  V30 41352 H 4059.88 -2.47146 -3.35745 0
M  V30 41353 H 4058.54 -1.36995 -2.94385 0
M  V30 41354 H 4059.55 -4.87165 -1.75758 0
M  V30 41355 H 4056.23 -2.71365 -3.17281 0
M  V30 41356 H 4057.62 -6.49102 -1.7354 0
M  V30 41357 N 4060.34 0.467527 -1.50506 0
M  V30 41358 C 4061.57 1.24073 -1.65195 0
M  V30 41359 C 4061.98 1.8619 -0.336135 0
M  V30 41360 O 4061.32 1.70157 0.692269 0
M  V30 41361 C 4061.38 2.38716 -2.68802 0
M  V30 41362 C 4061.05 1.97209 -4.12259 0
M  V30 41363 C 4062.04 1.49258 -4.98014 0
M  V30 41364 C 4059.73 2.05821 -4.58196 0
M  V30 41365 C 4061.72 1.10466 -6.27755 0
M  V30 41366 C 4059.41 1.6664 -5.87941 0
M  V30 41367 C 4060.41 1.19042 -6.72546 0
M  V30 41368 O 4060.1 0.804056 -7.99869 0
M  V30 41369 H 4059.83 0.381245 -0.558237 0
M  V30 41370 H 4062.38 0.564055 -1.97503 0
M  V30 41371 H 4060.61 3.09567 -2.31744 0
M  V30 41372 H 4062.3 3.00671 -2.72676 0
M  V30 41373 H 4063.07 1.42023 -4.6374 0
M  V30 41374 H 4058.95 2.41818 -3.92486 0
M  V30 41375 H 4062.49 0.732432 -6.93744 0
M  V30 41376 H 4058.39 1.73535 -6.21736 0
M  V30 41377 H 4059.16 0.93259 -8.1317 0
M  V30 41378 N 4061.82 1.40143 0.720948 0
M  V30 41379 C 4063.06 1.39576 1.49325 0
M  V30 41380 C 4063.42 -0.00448184 1.91999 0
M  V30 41381 O 4064.62 -0.135241 2.6846 0
M  V30 41382 C 4062.89 2.35305 2.6901 0
M  V30 41383 S 4064.45 2.5305 3.58485 0
M  V30 41384 H 4061.27 0.494781 0.5106 0
M  V30 41385 H 4063.87 1.76365 0.84354 0
M  V30 41386 H 4062.58 3.35882 2.35821 0
M  V30 41387 H 4062.11 1.99781 3.38897 0
M  V30 41388 H 4064.12 1.7789 4.63217 0
M  V30 41389 N 4063.3 -0.952612 1.25551 0
M  V30 41390 C 4064.23 -2.05302 1.01901 0
M  V30 41391 C 4065.24 -1.62791 -0.0167322 0
M  V30 41392 O 4066.43 -1.77113 0.222052 0
M  V30 41393 C 4063.53 -3.34904 0.518915 0
M  V30 41394 C 4062.7 -4.06243 1.62128 0
M  V30 41395 C 4061.76 -5.14116 1.12121 0
M  V30 41396 O 4060.79 -5.39453 1.81601 0
M  V30 41397 N 4061.99 -5.80489 -0.0364434 0
M  V30 41398 H 4064.76 -2.2616 1.96652 0
M  V30 41399 H 4062.32 -1.1213 1.16783 0
M  V30 41400 H 4064.31 -4.04348 0.1688 0
M  V30 41401 H 4062.88 -3.10803 -0.334708 0
M  V30 41402 H 4062.1 -3.30869 2.14288 0
M  V30 41403 H 4063.39 -4.50662 2.36181 0
M  V30 41404 H 4062.78 -5.62326 -0.616956 0
M  V30 41405 H 4061.34 -6.50976 -0.327574 0
M  V30 41406 N 4064.77 -1.0717 -1.15553 0
M  V30 41407 C 4066.02 -0.792183 -1.85927 0
M  V30 41408 C 4066.34 0.683688 -1.82622 0
M  V30 41409 O 4065.61 1.49507 -1.26588 0
M  V30 41410 H 4064.19 -0.290055 -0.688387 0
M  V30 41411 H 4066.86 -1.35506 -1.40086 0
M  V30 41412 H 4065.95 -1.12505 -2.91117 0
M  V30 41413 N 4066.25 1.32356 -0.855542 0
M  V30 41414 C 4067.2 2.28857 -0.298817 0
M  V30 41415 C 4068.17 1.55089 0.5947 0
M  V30 41416 O 4069.36 1.83308 0.529423 0
M  V30 41417 C 4066.5 3.4137 0.506036 0
M  V30 41418 C 4065.61 4.30018 -0.413372 0
M  V30 41419 C 4064.74 5.2966 0.404199 0
M  V30 41420 C 4063.78 6.0995 -0.512551 0
M  V30 41421 N 4062.92 7.01589 0.267894 0
M  V30 41422 H 4067.76 2.75868 -1.12699 0
M  V30 41423 H 4065.3 1.35725 -0.567186 0
M  V30 41424 H 4067.25 4.05325 0.988313 0
M  V30 41425 H 4065.88 2.95508 1.29903 0
M  V30 41426 H 4064.94 3.66635 -1.01404 0
M  V30 41427 H 4066.25 4.86134 -1.11691 0
M  V30 41428 H 4065.4 5.99222 0.949601 0
M  V30 41429 H 4064.14 4.74163 1.1411 0
M  V30 41430 H 4063.15 5.39291 -1.06983 0
M  V30 41431 H 4064.37 6.67533 -1.24808 0
M  V30 41432 H 4062.32 6.48519 0.987872 0
M  V30 41433 H 4062.23 7.55061 -0.376594 0
M  V30 41434 H 4063.5 7.75435 0.794994 0
M  V30 41435 N 4067.73 0.613565 1.45166 0
M  V30 41436 C 4068.97 0.114182 2.04081 0
M  V30 41437 C 4069.34 -1.23412 1.47083 0
M  V30 41438 O 4070.54 -1.82458 1.97389 0
M  V30 41439 C 4068.81 0.0818053 3.57306 0
M  V30 41440 S 4070.37 -0.355516 4.37357 0
M  V30 41441 H 4067.18 0.0524887 0.70906 0
M  V30 41442 H 4069.79 0.813011 1.77793 0
M  V30 41443 H 4068.49 1.06652 3.963 0
M  V30 41444 H 4068.02 -0.638829 3.88178 0
M  V30 41445 H 4070.04 -1.60372 4.69569 0
M  V30 41446 N 4069.21 -1.53594 0.353071 0
M  V30 41447 C 4070.17 -2.23969 -0.486871 0
M  V30 41448 C 4071.17 -1.24317 -1.01989 0
M  V30 41449 O 4072.36 -1.48687 -0.907627 0
M  V30 41450 C 4069.49 -2.96674 -1.67921 0
M  V30 41451 H 4070.69 -2.99623 0.128759 0
M  V30 41452 H 4068.24 -1.5595 0.104561 0
M  V30 41453 H 4068.98 -2.25231 -2.33327 0
M  V30 41454 H 4068.76 -3.69778 -1.3041 0
M  V30 41455 H 4070.25 -3.50207 -2.27474 0
M  V30 41456 N 4070.69 -0.0819208 -1.57387 0
M  V30 41457 C 4071.91 0.597031 -1.98621 0
M  V30 41458 C 4072.34 1.6174 -0.960305 0
M  V30 41459 O 4071.7 1.81154 0.072863 0
M  V30 41460 C 4071.74 1.23309 -3.38862 0
M  V30 41461 O 4070.85 2.34895 -3.38966 0
M  V30 41462 H 4070.19 0.152667 -0.646211 0
M  V30 41463 H 4072.72 -0.159434 -2.03978 0
M  V30 41464 H 4072.73 1.57753 -3.76268 0
M  V30 41465 H 4071.4 0.485478 -4.13057 0
M  V30 41466 H 4069.98 2.02169 -3.13341 0
M  V30 41467 N 4072.17 1.5643 0.191702 0
M  V30 41468 C 4073.11 1.94815 1.23757 0
M  V30 41469 C 4074.08 0.809204 1.45056 0
M  V30 41470 O 4075.27 1.06764 1.58133 0
M  V30 41471 C 4072.41 2.29585 2.57652 0
M  V30 41472 C 4071.52 3.5656 2.43904 0
M  V30 41473 C 4070.66 3.80636 3.70526 0
M  V30 41474 C 4069.69 5.01025 3.51625 0
M  V30 41475 N 4068.83 5.21338 4.70267 0
M  V30 41476 H 4073.67 2.83982 0.903227 0
M  V30 41477 H 4071.21 1.40533 0.434626 0
M  V30 41478 H 4073.17 2.47761 3.35664 0
M  V30 41479 H 4071.8 1.43554 2.89123 0
M  V30 41480 H 4070.85 3.46412 1.57173 0
M  V30 41481 H 4072.16 4.44728 2.25873 0
M  V30 41482 H 4071.31 3.9907 4.56977 0
M  V30 41483 H 4070.05 2.90805 3.91515 0
M  V30 41484 H 4069.06 4.82511 2.63559 0
M  V30 41485 H 4070.28 5.92369 3.32078 0
M  V30 41486 H 4068.23 4.34455 4.91513 0
M  V30 41487 H 4068.15 6.03692 4.55074 0
M  V30 41488 H 4069.41 5.44234 5.58059 0
M  V30 41489 N 4073.64 -0.459538 1.50751 0
M  V30 41490 C 4074.61 -1.53849 1.69892 0
M  V30 41491 C 4075.61 -1.50384 0.569334 0
M  V30 41492 O 4076.8 -1.52799 0.836554 0
M  V30 41493 C 4073.93 -2.93454 1.73486 0
M  V30 41494 H 4075.12 -1.38191 2.66164 0
M  V30 41495 H 4072.67 -0.686716 1.40406 0
M  V30 41496 H 4073.41 -3.14544 0.789481 0
M  V30 41497 H 4073.19 -2.97376 2.55558 0
M  V30 41498 H 4074.68 -3.71766 1.90209 0
M  V30 41499 N 4075.12 -1.40523 -0.713506 0
M  V30 41500 C 4076.05 -1.35357 -1.83722 0
M  V30 41501 C 4077.03 -0.223626 -1.61055 0
M  V30 41502 O 4078.22 -0.407626 -1.8404 0
M  V30 41503 C 4075.34 -1.10704 -3.20097 0
M  V30 41504 C 4074.39 -2.26178 -3.61588 0
M  V30 41505 S 4075.22 -3.88582 -3.68462 0
M  V30 41506 C 4076.38 -3.66197 -5.07593 0
M  V30 41507 H 4076.61 -2.30455 -1.87824 0
M  V30 41508 H 4074.14 -1.26834 -0.880488 0
M  V30 41509 H 4076.1 -0.971658 -3.98835 0
M  V30 41510 H 4074.76 -0.172571 -3.13626 0
M  V30 41511 H 4073.96 -2.04576 -4.60613 0
M  V30 41512 H 4073.56 -2.36031 -2.90113 0
M  V30 41513 H 4075.85 -3.24792 -5.94572 0
M  V30 41514 H 4076.79 -4.64761 -5.34231 0
M  V30 41515 H 4077.2 -2.9984 -4.78285 0
M  V30 41516 N 4076.6 0.94594 -1.26054 0
M  V30 41517 C 4077.83 1.72356 -1.13916 0
M  V30 41518 C 4078.24 1.86662 0.308852 0
M  V30 41519 O 4077.58 1.37014 1.22364 0
M  V30 41520 C 4077.64 3.15141 -1.72992 0
M  V30 41521 C 4077.31 3.24236 -3.22056 0
M  V30 41522 C 4078.3 3.07878 -4.18935 0
M  V30 41523 C 4075.99 3.47778 -3.6243 0
M  V30 41524 C 4077.98 3.14924 -5.54168 0
M  V30 41525 C 4075.67 3.54459 -4.97797 0
M  V30 41526 C 4076.67 3.38047 -5.93475 0
M  V30 41527 O 4076.36 3.44427 -7.26378 0
M  V30 41528 H 4076.09 0.546615 -0.397729 0
M  V30 41529 H 4078.64 1.19473 -1.67079 0
M  V30 41530 H 4076.87 3.69426 -1.14287 0
M  V30 41531 H 4078.56 3.74796 -1.55828 0
M  V30 41532 H 4079.33 2.89551 -3.89083 0
M  V30 41533 H 4075.21 3.5961 -2.88447 0
M  V30 41534 H 4078.75 3.02031 -6.28827 0
M  V30 41535 H 4074.65 3.72306 -5.27313 0
M  V30 41536 H 4075.41 3.61001 -7.34588 0
M  V30 41537 N 4078.08 1.07781 1.14983 0
M  V30 41538 C 4079.3 0.824969 1.90287 0
M  V30 41539 C 4079.73 -0.616493 1.7771 0
M  V30 41540 O 4079.09 -1.43128 1.11284 0
M  V30 41541 C 4079.13 1.24354 3.3848 0
M  V30 41542 O 4078.24 0.391526 4.10537 0
M  V30 41543 H 4077.58 0.300173 0.592277 0
M  V30 41544 H 4080.11 1.43757 1.45585 0
M  V30 41545 H 4080.12 1.22162 3.89282 0
M  V30 41546 H 4078.79 2.29341 3.46952 0
M  V30 41547 H 4077.37 0.476312 3.69845 0
M  V30 41548 N 4079.56 -1.31901 0.862549 0
M  V30 41549 C 4080.8 -1.96243 0.465991 0
M  V30 41550 C 4081.12 -1.68976 -0.985213 0
M  V30 41551 O 4082.32 -2.2712 -1.48757 0
M  V30 41552 C 4080.78 -3.51293 0.78238 0
M  V30 41553 C 4080.39 -3.87409 2.24984 0
M  V30 41554 C 4082.13 -4.22066 0.453931 0
M  V30 41555 C 4080.04 -5.35538 2.50904 0
M  V30 41556 H 4078.97 -0.734463 0.170528 0
M  V30 41557 H 4081.62 -1.5018 1.05442 0
M  V30 41558 H 4080 -3.95808 0.123286 0
M  V30 41559 H 4081.18 -3.53878 2.95138 0
M  V30 41560 H 4079.49 -3.29682 2.54359 0
M  V30 41561 H 4082.09 -5.31036 0.624905 0
M  V30 41562 H 4082.43 -4.11879 -0.605073 0
M  V30 41563 H 4082.96 -3.8316 1.06925 0
M  V30 41564 H 4079.7 -5.50753 3.55459 0
M  V30 41565 H 4079.22 -5.70448 1.85336 0
M  V30 41566 H 4080.9 -6.02714 2.35254 0
M  V30 41567 N 4081.03 -0.621255 -1.44838 0
M  V30 41568 C 4082.31 -0.0531855 -1.95528 0
M  V30 41569 C 4082.69 1.41843 -1.56345 0
M  V30 41570 O 4082.04 2.12789 -0.832659 0
M  V30 41571 C 4082.25 -0.265661 -3.47987 0
M  V30 41572 C 4083.6 -0.153647 -4.24322 0
M  V30 41573 O 4084.62 -0.196502 -3.55658 0
M  V30 41574 O 4083.48 -0.050246 -5.46477 0
M  V30 41575 H 4080.57 0.027952 -0.826527 0
M  V30 41576 H 4083.12 -0.692271 -1.54938 0
M  V30 41577 H 4081.89 -1.28719 -3.69523 0
M  V30 41578 H 4081.52 0.408036 -3.95501 0
M  V30 41579 N 4082.51 1.53405 -0.361211 0
M  V30 41580 C 4083.76 2.00374 0.230942 0
M  V30 41581 C 4084.07 1.25266 1.50225 0
M  V30 41582 O 4085.28 1.62801 2.17274 0
M  V30 41583 C 4083.74 3.56921 0.46209 0
M  V30 41584 C 4083.34 4.40902 -0.794341 0
M  V30 41585 C 4085.09 4.12257 1.01214 0
M  V30 41586 C 4083 5.88993 -0.533018 0
M  V30 41587 H 4081.93 0.7486 0.0900754 0
M  V30 41588 H 4084.58 1.7713 -0.479276 0
M  V30 41589 H 4082.96 3.763 1.23346 0
M  V30 41590 H 4084.13 4.33296 -1.56817 0
M  V30 41591 H 4082.45 3.96647 -1.26729 0
M  V30 41592 H 4085.04 5.20528 1.2229 0
M  V30 41593 H 4085.39 3.66578 1.97297 0
M  V30 41594 H 4085.92 3.96659 0.301043 0
M  V30 41595 H 4082.66 6.38941 -1.46406 0
M  V30 41596 H 4082.18 5.99458 0.20239 0
M  V30 41597 H 4083.86 6.4681 -0.156886 0
M  V30 41598 N 4083.99 0.0902663 1.57341 0
M  V30 41599 C 4084.94 -0.887959 2.14984 0
M  V30 41600 C 4085.93 -1.29553 1.09144 0
M  V30 41601 O 4087.14 -1.27062 1.27496 0
M  V30 41602 H 4083.51 -0.304364 0.687653 0
M  V30 41603 H 4085.48 -0.377042 2.96008 0
M  V30 41604 C 4084.23 -2.1392 2.74105 0
M  V30 41605 H 4083.56 -1.83446 3.55229 0
M  V30 41606 H 4085 -2.80437 3.18012 0
M  V30 41607 C 4083.46 -2.91002 1.69763 0
M  V30 41608 O 4083.99 -3.85371 1.13366 0
M  V30 41609 N 4082.19 -2.54452 1.40366 0
M  V30 41610 H 4081.74 -1.77782 1.86417 0
M  V30 41611 H 4081.7 -3.06327 0.707891 0
M  V30 41612 N 4085.47 -1.56529 -0.183403 0
M  V30 41613 C 4086.75 -1.72156 -0.928537 0
M  V30 41614 C 4087.13 -0.648319 -2.00898 0
M  V30 41615 O 4086.47 0.338846 -2.25974 0
M  V30 41616 C 4086.68 -3.14915 -1.5043 0
M  V30 41617 C 4088.03 -3.75507 -1.98191 0
M  V30 41618 O 4089.06 -3.18117 -1.60249 0
M  V30 41619 O 4087.91 -4.7625 -2.68046 0
M  V30 41620 H 4085.01 -0.70259 -0.43623 0
M  V30 41621 H 4087.55 -1.68824 -0.172181 0
M  V30 41622 H 4086.33 -3.84505 -0.726077 0
M  V30 41623 H 4085.95 -3.22523 -2.32518 0
M  V30 41624 N 4086.95 0.451537 -1.50993 0
M  V30 41625 C 4088.19 1.20391 -1.63199 0
M  V30 41626 C 4088.53 1.91193 -0.340443 0
M  V30 41627 O 4087.8 1.82988 0.659228 0
M  V30 41628 C 4088.08 2.23216 -2.82571 0
M  V30 41629 C 4087.94 1.56591 -4.21663 0
M  V30 41630 C 4089.26 3.24342 -2.97474 0
M  V30 41631 H 4086.37 0.436329 -0.593958 0
M  V30 41632 H 4089.02 0.495024 -1.83438 0
M  V30 41633 H 4087.17 2.83674 -2.65446 0
M  V30 41634 H 4088.84 0.995798 -4.50424 0
M  V30 41635 H 4087.08 0.868546 -4.25016 0
M  V30 41636 H 4087.75 2.31407 -5.01154 0
M  V30 41637 H 4090.23 2.73926 -3.13216 0
M  V30 41638 H 4089.1 3.93596 -3.82587 0
M  V30 41639 H 4089.37 3.89617 -2.08928 0
M  V30 41640 N 4088.42 1.409 0.706044 0
M  V30 41641 C 4089.36 1.37845 1.83116 0
M  V30 41642 C 4090.37 0.282281 1.60334 0
M  V30 41643 O 4091.56 0.543292 1.70031 0
M  V30 41644 C 4088.66 1.12467 3.19694 0
M  V30 41645 C 4087.83 2.33922 3.69593 0
M  V30 41646 C 4086.89 2.04559 4.84811 0
M  V30 41647 O 4085.92 2.77509 4.96968 0
M  V30 41648 N 4087.12 1.0294 5.713 0
M  V30 41649 H 4089.88 2.34814 1.86233 0
M  V30 41650 H 4087.44 1.35377 0.88796 0
M  V30 41651 H 4089.44 0.90793 3.94384 0
M  V30 41652 H 4088.01 0.241313 3.11667 0
M  V30 41653 H 4087.23 2.71365 2.85928 0
M  V30 41654 H 4088.51 3.14869 3.99669 0
M  V30 41655 H 4087.91 0.425413 5.64098 0
M  V30 41656 H 4086.47 0.872559 6.45933 0
M  V30 41657 N 4089.9 -0.939242 1.26554 0
M  V30 41658 C 4091.18 -1.6631 1.02958 0
M  V30 41659 C 4091.56 -2.06477 -0.43938 0
M  V30 41660 O 4090.91 -1.79008 -1.42016 0
M  V30 41661 C 4091.12 -2.87385 1.98018 0
M  V30 41662 C 4092.47 -3.58992 2.26738 0
M  V30 41663 O 4093.49 -2.97493 1.95899 0
M  V30 41664 O 4092.35 -4.69766 2.79252 0
M  V30 41665 H 4089.44 -0.72839 0.391634 0
M  V30 41666 H 4091.99 -0.9908 1.37772 0
M  V30 41667 H 4090.76 -2.54608 2.97137 0
M  V30 41668 H 4090.38 -3.62339 1.63695 0
M  V30 41669 N 4091.38 -1.08389 -1.14409 0
M  V30 41670 C 4092.31 -0.671604 -2.1914 0
M  V30 41671 C 4093.33 0.281228 -1.60353 0
M  V30 41672 O 4094.51 0.0689108 -1.78367 0
M  V30 41673 C 4091.61 0.0325851 -3.38884 0
M  V30 41674 C 4090.79 -0.939099 -4.272 0
M  V30 41675 C 4089.85 -0.270268 -5.25505 0
M  V30 41676 O 4088.87 -0.91462 -5.61804 0
M  V30 41677 N 4090.07 0.979901 -5.7217 0
M  V30 41678 H 4092.84 -1.57258 -2.55127 0
M  V30 41679 H 4090.4 -0.969954 -1.29628 0
M  V30 41680 H 4092.39 0.490964 -4.01711 0
M  V30 41681 H 4090.96 0.835655 -3.01223 0
M  V30 41682 H 4090.18 -1.57632 -3.61311 0
M  V30 41683 H 4091.47 -1.59754 -4.83069 0
M  V30 41684 H 4090.87 1.52315 -5.44809 0
M  V30 41685 H 4089.43 1.38178 -6.36985 0
M  V30 41686 N 4092.86 1.31442 -0.869532 0
M  V30 41687 C 4094.1 1.9852 -0.48674 0
M  V30 41688 C 4094.46 1.67232 0.943258 0
M  V30 41689 O 4095.66 2.27519 1.43138 0
M  V30 41690 C 4093.93 3.49738 -0.736089 0
M  V30 41691 S 4095.49 4.36454 -0.453091 0
M  V30 41692 H 4092.31 0.687387 -0.181713 0
M  V30 41693 H 4094.91 1.59855 -1.12546 0
M  V30 41694 H 4093.62 3.69999 -1.77564 0
M  V30 41695 H 4093.15 3.9331 -0.0843433 0
M  V30 41696 H 4095.16 4.91024 0.714805 0
M  V30 41697 N 4094.34 0.628927 1.44507 0
M  V30 41698 C 4095.56 0.137814 2.06942 0
M  V30 41699 C 4095.99 -1.17764 1.46674 0
M  V30 41700 O 4095.34 -1.72193 0.567372 0
M  V30 41701 C 4095.39 0.0342476 3.60584 0
M  V30 41702 O 4094.5 -1.01031 3.99833 0
M  V30 41703 H 4093.84 0.0837705 0.658695 0
M  V30 41704 H 4096.37 0.864983 1.85416 0
M  V30 41705 H 4096.38 -0.157051 4.07698 0
M  V30 41706 H 4095.05 0.994654 4.03831 0
M  V30 41707 H 4093.63 -0.79376 3.64354 0
M  V30 41708 N 4095.82 -1.53211 0.369342 0
M  V30 41709 C 4097.06 -2.03221 -0.219198 0
M  V30 41710 C 4097.42 -1.25057 -1.45687 0
M  V30 41711 O 4098.62 -1.65092 -2.12127 0
M  V30 41712 C 4096.89 -3.53881 -0.500306 0
M  V30 41713 S 4098.45 -4.25755 -1.06198 0
M  V30 41714 H 4095.27 -0.708158 -0.0635114 0
M  V30 41715 H 4097.87 -1.88647 0.513078 0
M  V30 41716 H 4096.57 -4.08368 0.407895 0
M  V30 41717 H 4096.11 -3.72624 -1.26155 0
M  V30 41718 H 4098.12 -4.37241 -2.34595 0
M  V30 41719 N 4097.29 -0.0986092 -1.57291 0
M  V30 41720 C 4098.53 0.567601 -1.96361 0
M  V30 41721 C 4098.9 1.65132 -0.979566 0
M  V30 41722 O 4100.1 2.37498 -1.25889 0
M  V30 41723 C 4098.37 1.10521 -3.39882 0
M  V30 41724 S 4099.93 1.7828 -4.00951 0
M  V30 41725 H 4096.75 0.185112 -0.68648 0
M  V30 41726 H 4099.35 -0.178848 -1.9468 0
M  V30 41727 H 4098.05 0.305014 -4.09265 0
M  V30 41728 H 4097.58 1.88741 -3.45167 0
M  V30 41729 H 4099.6 3.06727 -3.90042 0
M  V30 41730 N 4098.77 1.56624 0.175099 0
M  V30 41731 C 4100 1.86269 0.912066 0
M  V30 41732 C 4100.42 0.684516 1.75203 0
M  V30 41733 O 4099.78 -0.36647 1.77558 0
M  V30 41734 C 4099.83 3.143 1.76771 0
M  V30 41735 O 4098.93 2.96258 2.86889 0
M  V30 41736 H 4098.27 0.612784 0.255717 0
M  V30 41737 H 4100.8 2.03856 0.17438 0
M  V30 41738 H 4100.81 3.45608 2.16839 0
M  V30 41739 H 4099.49 3.99665 1.1507 0
M  V30 41740 H 4098.06 2.76295 2.50431 0
M  V30 41741 N 4100.25 -0.443523 1.5123 0
M  V30 41742 C 4101.66 -1.02359 1.56139 0
M  V30 41743 C 4102.01 -1.92462 0.381169 0
M  V30 41744 O 4101.14 -2.10478 -0.50278 0
M  V30 41745 C 4101.73 -1.86315 2.8297 0
M  V30 41746 C 4100.29 -2.39383 2.9047 0
M  V30 41747 C 4099.44 -1.18433 2.50737 0
M  V30 41748 H 4102.39 -0.225033 1.57096 0
M  V30 41749 H 4102.41 -2.71699 2.66383 0
M  V30 41750 H 4101.92 -1.20711 3.6885 0
M  V30 41751 H 4100.02 -3.0846 2.09006 0
M  V30 41752 H 4100.14 -2.72603 3.93985 0
M  V30 41753 H 4098.5 -1.52774 2.03794 0
M  V30 41754 H 4099.28 -0.544489 3.38955 0
M  V30 41755 N 4101.73 -1.41272 -0.698562 0
M  V30 41756 C 4102.96 -1.43819 -1.48741 0
M  V30 41757 C 4103.37 -0.0426189 -1.88752 0
M  V30 41758 O 4102.73 0.937397 -1.56586 0
M  V30 41759 C 4102.78 -2.34423 -2.75188 0
M  V30 41760 O 4102.5 -3.68548 -2.36863 0
M  V30 41761 C 4104 -2.45741 -3.68953 0
M  V30 41762 H 4101.22 -0.489946 -0.458469 0
M  V30 41763 H 4103.76 -1.85522 -0.860339 0
M  V30 41764 H 4101.92 -1.96036 -3.34139 0
M  V30 41765 H 4102.33 -4.1684 -3.18347 0
M  V30 41766 H 4103.81 -3.1331 -4.54468 0
M  V30 41767 H 4104.28 -1.48774 -4.13235 0
M  V30 41768 H 4104.89 -2.84751 -3.15907 0
M  V30 41769 N 4103.21 0.932517 -1.27051 0
M  V30 41770 C 4104.62 1.2076 -1.04351 0
M  V30 41771 C 4104.82 2.00229 0.225946 0
M  V30 41772 O 4103.88 2.3464 0.932746 0
M  V30 41773 C 4105.19 1.96044 -2.28007 0
M  V30 41774 C 4106.74 2.09002 -2.32996 0
M  V30 41775 C 4107.21 2.8769 -3.56369 0
M  V30 41776 N 4108.7 2.9526 -3.56898 0
M  V30 41777 C 4109.44 3.56596 -4.49028 0
M  V30 41778 N 4108.94 4.19364 -5.51458 0
M  V30 41779 N 4110.73 3.53953 -4.36662 0
M  V30 41780 H 4102.88 0.401479 -2.08571 0
M  V30 41781 H 4105.14 0.240197 -0.917066 0
M  V30 41782 H 4104.85 1.45066 -3.20388 0
M  V30 41783 H 4104.72 2.96678 -2.32942 0
M  V30 41784 H 4107.11 2.59168 -1.41124 0
M  V30 41785 H 4107.19 1.07603 -2.32067 0
M  V30 41786 H 4106.83 2.38208 -4.48575 0
M  V30 41787 H 4106.76 3.89363 -3.54548 0
M  V30 41788 H 4109.26 2.50645 -2.82817 0
M  V30 41789 H 4109.57 4.6409 -6.17932 0
M  V30 41790 H 4107.91 4.17924 -5.55306 0
M  V30 41791 H 4111.1 3.04116 -3.55853 0
M  V30 41792 H 4111.28 4.01466 -5.08654 0
M  V30 41793 N 4104.68 1.08995 1.13833 0
M  V30 41794 C 4105.91 0.844956 1.8886 0
M  V30 41795 C 4106.33 -0.603413 1.78898 0
M  V30 41796 O 4105.68 -1.41506 1.15249 0
M  V30 41797 C 4105.73 1.26565 3.3862 0
M  V30 41798 O 4105.46 2.65721 3.48316 0
M  V30 41799 C 4106.96 1.05239 4.30627 0
M  V30 41800 H 4104.18 0.304298 0.598033 0
M  V30 41801 H 4106.72 1.45078 1.44127 0
M  V30 41802 H 4104.88 0.703804 3.80953 0
M  V30 41803 H 4105.29 2.83341 4.41382 0
M  V30 41804 H 4106.76 1.39607 5.34054 0
M  V30 41805 H 4107.24 -0.0101536 4.39199 0
M  V30 41806 H 4107.85 1.59997 3.94057 0
M  V30 41807 N 4106.16 -1.30979 0.87649 0
M  V30 41808 C 4107.07 -2.32113 0.340707 0
M  V30 41809 C 4108.09 -1.64988 -0.55272 0
M  V30 41810 O 4109.26 -1.96357 -0.447874 0
M  V30 41811 C 4106.33 -3.43852 -0.443444 0
M  V30 41812 C 4105.39 -4.26622 0.478721 0
M  V30 41813 C 4104.62 -5.33026 -0.268101 0
M  V30 41814 O 4104.85 -5.50451 -1.49534 0
M  V30 41815 O 4103.78 -6.00716 0.377411 0
M  V30 41816 H 4107.61 -2.79874 1.17915 0
M  V30 41817 H 4105.19 -1.34995 0.640061 0
M  V30 41818 H 4107.07 -4.11943 -0.887744 0
M  V30 41819 H 4105.75 -2.98241 -1.25833 0
M  V30 41820 H 4104.65 -3.61261 0.971657 0
M  V30 41821 H 4105.99 -4.75816 1.25938 0
M  V30 41822 N 4107.64 -0.636582 -1.44171 0
M  V30 41823 C 4109.05 -0.224987 -1.85339 0
M  V30 41824 C 4109.4 1.22482 -1.53273 0
M  V30 41825 O 4108.53 1.93268 -0.973475 0
M  V30 41826 C 4109.12 -0.401551 -3.36412 0
M  V30 41827 C 4107.68 -0.0444172 -3.76374 0
M  V30 41828 C 4106.83 -0.712351 -2.67994 0
M  V30 41829 H 4109.78 -0.841379 -1.3456 0
M  V30 41830 H 4109.8 0.357898 -3.78813 0
M  V30 41831 H 4109.31 -1.45683 -3.59719 0
M  V30 41832 H 4107.41 1.00891 -3.58681 0
M  V30 41833 H 4107.53 -0.45828 -4.76903 0
M  V30 41834 H 4105.89 -0.147137 -2.54275 0
M  V30 41835 H 4106.67 -1.77033 -2.94133 0
M  V30 41836 N 4109.12 1.53013 -0.377462 0
M  V30 41837 C 4110.05 2.22492 0.507222 0
M  V30 41838 C 4111.03 1.22121 1.07356 0
M  V30 41839 O 4112.21 1.51066 1.12744 0
M  V30 41840 C 4109.34 2.92891 1.70096 0
M  V30 41841 C 4108.39 4.07433 1.26098 0
M  V30 41842 S 4109.22 5.34905 0.252357 0
M  V30 41843 C 4110.37 6.08821 1.45215 0
M  V30 41844 H 4110.61 2.97185 -0.0828086 0
M  V30 41845 H 4108.14 1.53552 -0.161603 0
M  V30 41846 H 4110.1 3.34063 2.38563 0
M  V30 41847 H 4108.76 2.179 2.26226 0
M  V30 41848 H 4107.95 4.55749 2.15194 0
M  V30 41849 H 4107.55 3.68213 0.655373 0
M  V30 41850 H 4109.85 6.34274 2.38122 0
M  V30 41851 H 4110.79 7.00858 1.01014 0
M  V30 41852 H 4111.2 5.3943 1.66359 0
M  V30 41853 N 4110.6 0.106949 1.57237 0
M  V30 41854 C 4111.53 -0.877931 2.11719 0
M  V30 41855 C 4112.54 -1.2381 1.05712 0
M  V30 41856 O 4113.73 -1.18915 1.33122 0
M  V30 41857 C 4110.83 -2.18348 2.59186 0
M  V30 41858 C 4110 -1.99684 3.89159 0
M  V30 41859 C 4109.06 -3.13859 4.2235 0
M  V30 41860 O 4108.09 -2.87301 4.91372 0
M  V30 41861 N 4109.29 -4.3996 3.78702 0
M  V30 41862 H 4112.06 -0.412531 2.96847 0
M  V30 41863 H 4109.62 -0.0778221 1.61713 0
M  V30 41864 H 4111.61 -2.93701 2.78428 0
M  V30 41865 H 4110.18 -2.56274 1.79004 0
M  V30 41866 H 4109.4 -1.08593 3.78947 0
M  V30 41867 H 4110.69 -1.84505 4.74168 0
M  V30 41868 H 4110.08 -4.64416 3.23008 0
M  V30 41869 H 4108.64 -5.12224 4.03076 0
M  V30 41870 N 4112.07 -1.56715 -0.166791 0
M  V30 41871 C 4113.32 -1.8252 -0.883991 0
M  V30 41872 C 4113.65 -0.685509 -1.81699 0
M  V30 41873 O 4112.93 0.312243 -1.91977 0
M  V30 41874 C 4113.21 -3.18734 -1.67573 0
M  V30 41875 C 4113.06 -4.43237 -0.765549 0
M  V30 41876 C 4114.38 -3.5194 -2.64246 0
M  V30 41877 H 4111.5 -0.66394 -0.319926 0
M  V30 41878 H 4114.14 -1.89407 -0.150001 0
M  V30 41879 H 4112.29 -3.12994 -2.30146 0
M  V30 41880 H 4113.97 -4.61048 -0.152341 0
M  V30 41881 H 4112.21 -4.33737 -0.0738735 0
M  V30 41882 H 4112.88 -5.35108 -1.35513 0
M  V30 41883 H 4115.36 -3.58163 -2.11798 0
M  V30 41884 H 4114.23 -4.48317 -3.16706 0
M  V30 41885 H 4114.49 -2.76876 -3.44662 0
M  V30 41886 N 4113.55 0.435497 -1.51463 0
M  V30 41887 C 4114.52 1.51126 -1.72318 0
M  V30 41888 C 4115.52 1.49459 -0.593187 0
M  V30 41889 O 4116.71 1.51448 -0.860757 0
M  V30 41890 C 4113.84 2.90657 -1.78132 0
M  V30 41891 H 4115.03 1.33939 -2.68329 0
M  V30 41892 H 4112.58 0.664292 -1.41481 0
M  V30 41893 H 4113.32 3.13248 -0.839422 0
M  V30 41894 H 4113.1 2.93273 -2.60257 0
M  V30 41895 H 4114.59 3.68693 -1.96099 0
M  V30 41896 N 4115.03 1.41641 0.69106 0
M  V30 41897 C 4115.96 1.4662 1.81728 0
M  V30 41898 C 4116.94 0.324387 1.66978 0
M  V30 41899 O 4118.13 0.536456 1.86643 0
M  V30 41900 C 4115.26 1.35206 3.19901 0
M  V30 41901 C 4114.21 2.47245 3.49362 0
M  V30 41902 C 4113.54 2.20896 4.86938 0
M  V30 41903 C 4114.84 3.89581 3.47885 0
M  V30 41904 H 4116.53 2.40875 1.77818 0
M  V30 41905 H 4114.08 1.15937 0.85408 0
M  V30 41906 H 4116.03 1.373 3.98405 0
M  V30 41907 H 4114.75 0.374369 3.24447 0
M  V30 41908 H 4113.41 2.44441 2.73211 0
M  V30 41909 H 4113.06 1.21459 4.88116 0
M  V30 41910 H 4112.76 2.95975 5.07614 0
M  V30 41911 H 4114.28 2.24713 5.67747 0
M  V30 41912 H 4115.7 3.94076 4.16385 0
M  V30 41913 H 4114.1 4.6438 3.80093 0
M  V30 41914 H 4115.17 4.17412 2.4677 0
M  V30 41915 N 4116.51 -0.925766 1.27543 0
M  V30 41916 C 4117.46 -2.01286 1.07088 0
M  V30 41917 C 4118.44 -1.609 -0.00171342 0
M  V30 41918 O 4119.63 -1.75664 0.217047 0
M  V30 41919 C 4116.76 -3.35619 0.722139 0
M  V30 41920 C 4115.85 -3.82443 1.83298 0
M  V30 41921 N 4116.24 -4.01759 3.07284 0
M  V30 41922 C 4114.54 -4.11496 1.72009 0
M  V30 41923 C 4115.24 -4.40784 3.79584 0
M  V30 41924 N 4114.22 -4.48365 3.07359 0
M  V30 41925 H 4118.02 -2.14253 2.01178 0
M  V30 41926 H 4115.53 -1.11274 1.18287 0
M  V30 41927 H 4117.53 -4.13166 0.556708 0
M  V30 41928 H 4116.19 -3.24013 -0.211117 0
M  V30 41929 H 4117.2 -3.88013 3.43025 0
M  V30 41930 H 4113.88 -4.08593 0.857801 0
M  V30 41931 H 4115.27 -4.63792 4.86155 0
M  V30 41932 N 4117.99 -1.09597 -1.13253 0
M  V30 41933 C 4119.23 -0.842768 -1.86217 0
M  V30 41934 C 4119.59 0.620361 -1.81702 0
M  V30 41935 O 4120.79 0.989562 -2.49922 0
M  V30 41936 C 4119.06 -1.36537 -3.30291 0
M  V30 41937 S 4120.62 -1.24631 -4.20729 0
M  V30 41938 H 4117.44 -0.304766 -0.64237 0
M  V30 41939 H 4120.04 -1.39969 -1.36488 0
M  V30 41940 H 4118.75 -2.42445 -3.31132 0
M  V30 41941 H 4118.28 -0.804651 -3.85083 0
M  V30 41942 H 4120.29 -0.198385 -4.95803 0
M  V30 41943 N 4119.46 1.30512 -0.883424 0
M  V30 41944 C 4120.69 2.00363 -0.515983 0
M  V30 41945 C 4121.11 1.66232 0.895119 0
M  V30 41946 O 4120.46 0.898628 1.58842 0
M  V30 41947 C 4120.52 3.55059 -0.679344 0
M  V30 41948 O 4120.24 3.87974 -2.03489 0
M  V30 41949 C 4121.74 4.42182 -0.31469 0
M  V30 41950 H 4118.96 0.640623 -0.199606 0
M  V30 41951 H 4121.5 1.66432 -1.1883 0
M  V30 41952 H 4119.66 3.87362 -0.0544192 0
M  V30 41953 H 4120.07 4.82677 -2.05239 0
M  V30 41954 H 4121.54 5.4991 -0.479897 0
M  V30 41955 H 4122.02 4.32798 0.747171 0
M  V30 41956 H 4122.63 4.15321 -0.915873 0
M  V30 41957 N 4120.94 0.644219 1.43832 0
M  V30 41958 C 4121.89 -0.0648775 2.3251 0
M  V30 41959 C 4122.88 -0.822379 1.48099 0
M  V30 41960 O 4124.09 -0.733798 1.64364 0
M  V30 41961 H 4120.47 -0.0397592 0.750948 0
M  V30 41962 H 4122.44 0.700908 2.90051 0
M  V30 41963 C 4121.19 -1.02386 3.32284 0
M  V30 41964 H 4120.51 -0.4504 3.97255 0
M  V30 41965 H 4121.95 -1.48926 3.96985 0
M  V30 41966 C 4120.41 -2.11551 2.62198 0
M  V30 41967 O 4120.94 -3.19811 2.43072 0
M  V30 41968 N 4119.14 -1.87853 2.2172 0
M  V30 41969 H 4118.69 -0.998147 2.37476 0
M  V30 41970 H 4118.65 -2.6109 1.75155 0
M  V30 41971 N 4122.42 -1.52811 0.385571 0
M  V30 41972 C 4123.67 -2.01133 -0.197418 0
M  V30 41973 C 4123.99 -1.27397 -1.47632 0
M  V30 41974 O 4123.26 -0.392949 -1.91919 0
M  V30 41975 H 4121.84 -0.74313 -0.0759427 0
M  V30 41976 H 4124.5 -1.87934 0.516403 0
M  V30 41977 H 4123.6 -3.09392 -0.41028 0
M  V30 41978 N 4123.9 -0.115287 -1.57178 0
M  V30 41979 C 4125.12 0.554766 -1.99843 0
M  V30 41980 C 4125.55 1.59666 -0.994397 0
M  V30 41981 O 4124.91 1.81267 0.0344212 0
M  V30 41982 C 4124.95 1.16093 -3.41401 0
M  V30 41983 O 4124.06 2.27653 -3.43872 0
M  V30 41984 H 4123.4 0.138926 -0.649304 0
M  V30 41985 H 4125.93 -0.202665 -2.03594 0
M  V30 41986 H 4125.94 1.49737 -3.7953 0
M  V30 41987 H 4124.61 0.397754 -4.13994 0
M  V30 41988 H 4123.19 1.95477 -3.17558 0
M  V30 41989 N 4125.38 1.56801 0.158477 0
M  V30 41990 C 4126.62 1.82986 0.874299 0
M  V30 41991 C 4126.96 0.695135 1.81333 0
M  V30 41992 O 4126.23 -0.302057 1.9214 0
M  V30 41993 C 4126.51 3.19618 1.6588 0
M  V30 41994 C 4126.37 4.43637 0.742032 0
M  V30 41995 C 4127.69 3.53337 2.62376 0
M  V30 41996 H 4124.81 0.665627 0.3164 0
M  V30 41997 H 4127.45 1.89484 0.139954 0
M  V30 41998 H 4125.6 3.1421 2.28483 0
M  V30 41999 H 4127.27 4.61123 0.127888 0
M  V30 42000 H 4125.51 4.3377 0.0508703 0
M  V30 42001 H 4126.18 5.35819 1.32673 0
M  V30 42002 H 4128.66 3.59282 2.09895 0
M  V30 42003 H 4127.54 4.49991 3.14324 0
M  V30 42004 H 4127.8 2.787 3.43189 0
M  V30 42005 N 4126.86 -0.427458 1.51692 0
M  V30 42006 C 4128.1 -1.1778 1.65093 0
M  V30 42007 C 4128.43 -1.90627 0.370817 0
M  V30 42008 O 4127.71 -1.84013 -0.630032 0
M  V30 42009 C 4127.99 -2.18692 2.86087 0
M  V30 42010 C 4127.85 -1.49863 4.241 0
M  V30 42011 C 4129.16 -3.19568 3.02596 0
M  V30 42012 H 4126.28 -0.426825 0.600824 0
M  V30 42013 H 4128.93 -0.465778 1.84202 0
M  V30 42014 H 4127.08 -2.79415 2.69925 0
M  V30 42015 H 4128.75 -0.924013 4.51951 0
M  V30 42016 H 4126.99 -0.800819 4.26344 0
M  V30 42017 H 4127.66 -2.23404 5.04772 0
M  V30 42018 H 4130.14 -2.68908 3.17534 0
M  V30 42019 H 4129.01 -3.8746 3.88801 0
M  V30 42020 H 4129.27 -3.86244 2.151 0
M  V30 42021 N 4128.33 -1.42005 -0.683539 0
M  V30 42022 C 4129.56 -1.45177 -1.46994 0
M  V30 42023 C 4129.97 -0.0589869 -1.89108 0
M  V30 42024 O 4129.31 0.934709 -1.58142 0
M  V30 42025 C 4129.38 -2.30821 -2.75612 0
M  V30 42026 C 4129.04 -3.78818 -2.55628 0
M  V30 42027 C 4130.04 -4.70687 -2.20794 0
M  V30 42028 C 4127.72 -4.22991 -2.70894 0
M  V30 42029 C 4129.72 -6.04718 -2.01481 0
M  V30 42030 C 4127.4 -5.57084 -2.51198 0
M  V30 42031 C 4128.4 -6.47764 -2.16543 0
M  V30 42032 O 4128.09 -7.79381 -1.97029 0
M  V30 42033 H 4127.82 -0.496179 -0.459111 0
M  V30 42034 H 4130.38 -1.87075 -0.848056 0
M  V30 42035 H 4128.61 -1.83757 -3.4025 0
M  V30 42036 H 4130.29 -2.25551 -3.37463 0
M  V30 42037 H 4131.06 -4.37847 -2.08603 0
M  V30 42038 H 4126.94 -3.52707 -2.96848 0
M  V30 42039 H 4130.48 -6.7546 -1.74355 0
M  V30 42040 H 4126.38 -5.895 -2.62982 0
M  V30 42041 H 4127.15 -7.90649 -2.11697 0
M  V30 42042 N 4129.81 0.918989 -1.28033 0
M  V30 42043 C 4130.76 2.00715 -1.08154 0
M  V30 42044 C 4131.75 1.60899 -0.00681952 0
M  V30 42045 O 4132.94 1.75547 -0.22636 0
M  V30 42046 C 4130.07 3.35231 -0.739927 0
M  V30 42047 C 4129.15 3.81466 -1.85323 0
M  V30 42048 N 4129.54 4.00124 -3.0941 0
M  V30 42049 C 4127.84 4.10578 -1.74189 0
M  V30 42050 C 4128.54 4.38765 -3.81916 0
M  V30 42051 N 4127.52 4.46729 -3.09733 0
M  V30 42052 H 4131.32 2.13183 -2.02312 0
M  V30 42053 H 4128.83 1.10646 -1.18875 0
M  V30 42054 H 4130.83 4.12865 -0.578611 0
M  V30 42055 H 4129.49 3.2412 0.193931 0
M  V30 42056 H 4130.5 3.86189 -3.45078 0
M  V30 42057 H 4127.18 4.08132 -0.879458 0
M  V30 42058 H 4128.57 4.61207 -4.88608 0
M  V30 42059 N 4131.29 1.10196 1.12671 0
M  V30 42060 C 4132.2 0.760859 2.21919 0
M  V30 42061 C 4133.22 -0.240574 1.72329 0
M  V30 42062 O 4134.39 -0.0799455 2.01241 0
M  V30 42063 C 4131.46 0.195071 3.46151 0
M  V30 42064 C 4130.52 1.25346 4.10593 0
M  V30 42065 C 4129.75 0.714578 5.28895 0
M  V30 42066 O 4129.97 -0.459843 5.68543 0
M  V30 42067 O 4128.91 1.47334 5.83589 0
M  V30 42068 H 4132.73 1.67271 2.53484 0
M  V30 42069 H 4130.32 0.876913 1.20957 0
M  V30 42070 H 4132.2 -0.116735 4.21238 0
M  V30 42071 H 4130.88 -0.689674 3.16268 0
M  V30 42072 H 4129.78 1.61809 3.37296 0
M  V30 42073 H 4131.12 2.11113 4.44626 0
M  V30 42074 N 4132.77 -1.30042 0.890333 0
M  V30 42075 C 4134.01 -1.96224 0.512243 0
M  V30 42076 C 4134.35 -1.70086 -0.937257 0
M  V30 42077 O 4133.62 -1.00857 -1.66307 0
M  V30 42078 C 4133.9 -3.51235 0.794105 0
M  V30 42079 C 4133.76 -3.86868 2.29462 0
M  V30 42080 C 4135.08 -4.39245 0.274229 0
M  V30 42081 H 4132.2 -0.712729 0.187581 0
M  V30 42082 H 4134.84 -1.53821 1.1153 0
M  V30 42083 H 4132.99 -3.87484 0.280839 0
M  V30 42084 H 4134.66 -3.60615 2.87671 0
M  V30 42085 H 4132.9 -3.34746 2.75913 0
M  V30 42086 H 4133.57 -4.95024 2.44243 0
M  V30 42087 H 4136.05 -4.09935 0.713607 0
M  V30 42088 H 4134.93 -5.46611 0.500729 0
M  V30 42089 H 4135.19 -4.34339 -0.824736 0
M  V30 42090 N 4134.25 -0.651838 -1.43488 0
M  V30 42091 C 4135.18 0.0270682 -2.33484 0
M  V30 42092 C 4136.16 0.813401 -1.49391 0
M  V30 42093 O 4137.34 0.775155 -1.78059 0
M  V30 42094 C 4134.47 0.995084 -3.32739 0
M  V30 42095 C 4133.43 0.318961 -4.2681 0
M  V30 42096 C 4132.75 1.39833 -5.16092 0
M  V30 42097 C 4134.05 -0.787783 -5.16325 0
M  V30 42098 H 4135.75 -0.724492 -2.90502 0
M  V30 42099 H 4133.29 -0.34985 -1.39686 0
M  V30 42100 H 4135.24 1.47893 -3.94595 0
M  V30 42101 H 4133.97 1.77779 -2.73975 0
M  V30 42102 H 4132.63 -0.14443 -3.66315 0
M  V30 42103 H 4132.28 2.17243 -4.53668 0
M  V30 42104 H 4131.98 0.95119 -5.7985 0
M  V30 42105 H 4133.5 1.88357 -5.80822 0
M  V30 42106 H 4134.91 -0.386154 -5.71998 0
M  V30 42107 H 4133.31 -1.1593 -5.88796 0
M  V30 42108 H 4134.38 -1.64634 -4.56096 0
M  V30 42109 N 4135.72 1.52604 -0.39367 0
M  V30 42110 C 4136.67 2.28122 0.454206 0
M  V30 42111 C 4137.67 1.32195 1.05929 0
M  V30 42112 O 4138.87 1.49716 0.99926 0
M  V30 42113 H 4135.25 0.733622 0.165236 0
M  V30 42114 H 4137.22 2.97701 -0.204136 0
M  V30 42115 C 4135.97 3.10385 1.56704 0
M  V30 42116 H 4135.29 3.8406 1.11077 0
M  V30 42117 H 4136.73 3.66357 2.13444 0
M  V30 42118 C 4135.19 2.22971 2.52558 0
M  V30 42119 O 4135.72 1.85945 3.56072 0
M  V30 42120 N 4133.92 1.87045 2.22402 0
M  V30 42121 H 4133.47 2.17354 1.38257 0
M  V30 42122 H 4133.43 1.28848 2.86785 0
M  V30 42123 N 4137.2 0.12362 1.57114 0
M  V30 42124 C 4138.16 -0.810586 2.14388 0
M  V30 42125 C 4139.16 -1.19144 1.07987 0
M  V30 42126 O 4140.35 -1.11619 1.33741 0
M  V30 42127 C 4137.49 -2.09679 2.68789 0
M  V30 42128 H 4138.68 -0.312766 2.98265 0
M  V30 42129 H 4136.23 -0.125654 1.55794 0
M  V30 42130 H 4136.97 -2.63881 1.88513 0
M  V30 42131 H 4136.75 -1.83313 3.4661 0
M  V30 42132 H 4138.24 -2.7645 3.12994 0
M  V30 42133 N 4138.68 -1.56883 -0.15016 0
M  V30 42134 C 4139.61 -1.93171 -1.21492 0
M  V30 42135 C 4140.59 -0.797141 -1.4172 0
M  V30 42136 O 4141.77 -1.05245 -1.56383 0
M  V30 42137 C 4138.9 -2.201 -2.57436 0
M  V30 42138 C 4137.95 -3.42749 -2.53822 0
M  V30 42139 S 4138.78 -4.96416 -2.00826 0
M  V30 42140 C 4139.94 -5.26464 -3.38506 0
M  V30 42141 H 4140.17 -2.83181 -0.905307 0
M  V30 42142 H 4137.7 -1.50248 -0.35564 0
M  V30 42143 H 4139.66 -2.36296 -3.3567 0
M  V30 42144 H 4138.32 -1.3076 -2.85588 0
M  V30 42145 H 4137.51 -3.58859 -3.53888 0
M  V30 42146 H 4137.12 -3.25779 -1.83695 0
M  V30 42147 H 4139.41 -5.19738 -4.34602 0
M  V30 42148 H 4140.35 -6.27943 -3.27252 0
M  V30 42149 H 4140.76 -4.53986 -3.35495 0
M  V30 42150 N 4140.16 0.419408 -1.51917 0
M  V30 42151 C 4141.07 1.53518 -1.77396 0
M  V30 42152 C 4142.08 1.61038 -0.658999 0
M  V30 42153 O 4143.26 1.77945 -0.943269 0
M  V30 42154 C 4140.33 2.89348 -1.90993 0
M  V30 42155 C 4139.39 2.918 -3.14883 0
M  V30 42156 C 4138.62 4.21151 -3.27823 0
M  V30 42157 O 4138.84 5.14498 -2.46269 0
M  V30 42158 O 4137.78 4.3025 -4.20913 0
M  V30 42159 H 4141.6 1.34927 -2.72082 0
M  V30 42160 H 4139.19 0.604235 -1.36636 0
M  V30 42161 H 4141.07 3.69929 -2.01819 0
M  V30 42162 H 4139.74 3.0803 -0.99496 0
M  V30 42163 H 4138.65 2.1011 -3.09523 0
M  V30 42164 H 4139.98 2.78066 -4.06128 0
M  V30 42165 N 4141.64 1.42366 0.675998 0
M  V30 42166 C 4142.88 1.44256 1.44809 0
M  V30 42167 C 4143.24 0.0566036 1.91917 0
M  V30 42168 O 4144.44 -0.0497646 2.68754 0
M  V30 42169 C 4142.71 2.43745 2.61387 0
M  V30 42170 S 4144.27 2.64326 3.50253 0
M  V30 42171 H 4141.09 0.510775 0.4946 0
M  V30 42172 H 4143.69 1.7896 0.787003 0
M  V30 42173 H 4142.4 3.43214 2.25016 0
M  V30 42174 H 4141.93 2.10462 3.3237 0
M  V30 42175 H 4143.94 1.92537 4.57323 0
M  V30 42176 N 4143.11 -0.912187 1.28518 0
M  V30 42177 C 4144.06 -2.01481 1.12579 0
M  V30 42178 C 4145.03 -1.66085 0.022492 0
M  V30 42179 O 4146.22 -1.89874 0.187713 0
M  V30 42180 C 4143.36 -3.35811 0.795288 0
M  V30 42181 C 4142.47 -3.84067 1.97778 0
M  V30 42182 C 4141.6 -5.06916 1.58777 0
M  V30 42183 C 4140.64 -5.47508 2.73681 0
M  V30 42184 N 4139.78 -6.61546 2.35161 0
M  V30 42185 H 4144.62 -2.14447 2.06922 0
M  V30 42186 H 4142.16 -1.05036 1.02985 0
M  V30 42187 H 4144.12 -4.13087 0.584411 0
M  V30 42188 H 4142.75 -3.22608 -0.11121 0
M  V30 42189 H 4141.8 -3.02936 2.30074 0
M  V30 42190 H 4143.11 -4.1011 2.83921 0
M  V30 42191 H 4142.26 -5.91739 1.33904 0
M  V30 42192 H 4141 -4.82684 0.697651 0
M  V30 42193 H 4140.01 -4.61226 2.9925 0
M  V30 42194 H 4141.23 -5.73727 3.63338 0
M  V30 42195 H 4139.18 -6.38943 1.48622 0
M  V30 42196 H 4139.1 -6.87322 3.14839 0
M  V30 42197 H 4140.36 -7.4967 2.13577 0
M  V30 42198 N 4144.59 -1.10792 -1.12085 0
M  V30 42199 C 4145.83 -0.862471 -1.85313 0
M  V30 42200 C 4146.2 0.601055 -1.82349 0
M  V30 42201 O 4147.4 0.962999 -2.50958 0
M  V30 42202 C 4145.67 -1.40033 -3.28825 0
M  V30 42203 S 4147.23 -1.29086 -4.19383 0
M  V30 42204 H 4144.05 -0.311562 -0.639101 0
M  V30 42205 H 4146.65 -1.41409 -1.34995 0
M  V30 42206 H 4145.35 -2.45943 -3.28542 0
M  V30 42207 H 4144.88 -0.845449 -3.84208 0
M  V30 42208 H 4146.9 -0.25096 -4.95565 0
M  V30 42209 N 4146.07 1.29568 -0.897217 0
M  V30 42210 C 4147.3 2.00341 -0.5365 0
M  V30 42211 C 4147.72 1.66727 0.870851 0
M  V30 42212 O 4147.08 0.89052 1.57922 0
M  V30 42213 C 4147.13 3.53075 -0.732843 0
M  V30 42214 O 4146.23 4.11835 0.215775 0
M  V30 42215 H 4145.57 0.629946 -0.209915 0
M  V30 42216 H 4148.1 1.65123 -1.20812 0
M  V30 42217 H 4148.11 4.03004 -0.636539 0
M  V30 42218 H 4146.79 3.76877 -1.75888 0
M  V30 42219 H 4145.36 3.7283 0.0721356 0
M  V30 42220 N 4147.55 0.659438 1.4314 0
M  V30 42221 C 4148.96 0.254444 1.84958 0
M  V30 42222 C 4149.31 -1.20028 1.55202 0
M  V30 42223 O 4148.44 -1.91695 1.0041 0
M  V30 42224 C 4149.03 0.45502 3.35731 0
M  V30 42225 C 4147.59 0.104289 3.76255 0
M  V30 42226 C 4146.74 0.754896 2.66827 0
M  V30 42227 H 4149.69 0.86268 1.33205 0
M  V30 42228 H 4149.71 -0.297587 3.79335 0
M  V30 42229 H 4149.22 1.51387 3.57356 0
M  V30 42230 H 4147.32 -0.951721 3.6024 0
M  V30 42231 H 4147.43 0.534093 4.76114 0
M  V30 42232 H 4145.8 0.187571 2.54008 0
M  V30 42233 H 4146.58 1.8169 2.91279 0
M  V30 42234 N 4149.03 -1.52393 0.401757 0
M  V30 42235 C 4150.44 -1.59514 0.0522867 0
M  V30 42236 C 4150.64 -1.41505 -1.43453 0
M  V30 42237 O 4149.7 -1.23829 -2.20051 0
M  V30 42238 C 4151.01 -2.958 0.540611 0
M  V30 42239 C 4152.56 -3.09014 0.497946 0
M  V30 42240 C 4153.03 -4.47769 0.96266 0
M  V30 42241 N 4154.53 -4.53988 0.919178 0
M  V30 42242 C 4155.26 -5.59609 1.25002 0
M  V30 42243 N 4154.76 -6.72816 1.65196 0
M  V30 42244 N 4156.55 -5.49778 1.17047 0
M  V30 42245 H 4148.7 -1.62347 1.36956 0
M  V30 42246 H 4150.96 -0.763339 0.562154 0
M  V30 42247 H 4150.67 -3.14236 1.57951 0
M  V30 42248 H 4150.54 -3.77162 -0.0536853 0
M  V30 42249 H 4152.93 -2.90267 -0.531896 0
M  V30 42250 H 4153.01 -2.29576 1.1282 0
M  V30 42251 H 4152.66 -4.67258 1.99079 0
M  V30 42252 H 4152.59 -5.25691 0.309289 0
M  V30 42253 H 4155.08 -3.7272 0.623568 0
M  V30 42254 H 4155.39 -7.4939 1.88772 0
M  V30 42255 H 4153.73 -6.74116 1.69094 0
M  V30 42256 H 4156.93 -4.60218 0.85538 0
M  V30 42257 H 4157.1 -6.31988 1.43162 0
M  V30 42258 N 4150.5 -0.131951 -1.57047 0
M  V30 42259 C 4151.45 0.813431 -2.15991 0
M  V30 42260 C 4152.42 1.25462 -1.0885 0
M  V30 42261 O 4153.61 1.32984 -1.36821 0
M  V30 42262 C 4150.75 2.0531 -2.77384 0
M  V30 42263 C 4149.86 1.65909 -3.98871 0
M  V30 42264 C 4148.99 2.84941 -4.4831 0
M  V30 42265 C 4148.03 2.41841 -5.62298 0
M  V30 42266 N 4147.17 3.5383 -6.06423 0
M  V30 42267 H 4152.01 0.303957 -2.96446 0
M  V30 42268 H 4149.55 0.138329 -1.46448 0
M  V30 42269 H 4151.51 2.77962 -3.11116 0
M  V30 42270 H 4150.14 2.53694 -1.99598 0
M  V30 42271 H 4149.19 0.830802 -3.71217 0
M  V30 42272 H 4150.5 1.30244 -4.81496 0
M  V30 42273 H 4149.65 3.65802 -4.84019 0
M  V30 42274 H 4148.39 3.2384 -3.64662 0
M  V30 42275 H 4147.4 1.59416 -5.26181 0
M  V30 42276 H 4148.62 2.04044 -6.47721 0
M  V30 42277 H 4146.57 3.92379 -5.25713 0
M  V30 42278 H 4146.49 3.22131 -6.83935 0
M  V30 42279 H 4147.75 4.35092 -6.46773 0
M  V30 42280 N 4151.98 1.5696 0.141838 0
M  V30 42281 C 4153.22 1.8544 0.859732 0
M  V30 42282 C 4153.59 0.716936 1.78112 0
M  V30 42283 O 4154.79 0.882909 2.53886 0
M  V30 42284 C 4153.06 3.19111 1.60943 0
M  V30 42285 S 4154.62 3.69161 2.37204 0
M  V30 42286 H 4151.44 0.650326 0.287397 0
M  V30 42287 H 4154.04 1.95135 0.119416 0
M  V30 42288 H 4152.74 3.9986 0.924109 0
M  V30 42289 H 4152.27 3.12435 2.39056 0
M  V30 42290 H 4154.29 3.38837 3.62497 0
M  V30 42291 N 4153.46 -0.411345 1.52137 0
M  V30 42292 C 4154.69 -1.18483 1.70225 0
M  V30 42293 C 4155.11 -1.83577 0.409998 0
M  V30 42294 O 4154.47 -1.69915 -0.632336 0
M  V30 42295 C 4154.52 -2.2253 2.83748 0
M  V30 42296 O 4153.62 -3.28621 2.49162 0
M  V30 42297 H 4152.96 -0.345968 0.566747 0
M  V30 42298 H 4155.49 -0.482491 1.9883 0
M  V30 42299 H 4155.5 -2.66895 3.08595 0
M  V30 42300 H 4154.18 -1.74534 3.77506 0
M  V30 42301 H 4152.75 -2.8955 2.34979 0
M  V30 42302 N 4154.94 -1.42722 -0.668439 0
M  V30 42303 C 4155.89 -1.46697 -1.78181 0
M  V30 42304 C 4156.86 -0.318242 -1.63023 0
M  V30 42305 O 4158.04 -0.52323 -1.83486 0
M  V30 42306 C 4155.18 -1.38126 -3.16252 0
M  V30 42307 C 4154.29 -2.63084 -3.42652 0
M  V30 42308 C 4153.43 -2.4661 -4.70486 0
M  V30 42309 C 4152.47 -3.66911 -4.89942 0
M  V30 42310 N 4151.61 -3.4934 -6.09021 0
M  V30 42311 H 4156.45 -2.4184 -1.74119 0
M  V30 42312 H 4153.98 -1.20062 -0.849916 0
M  V30 42313 H 4155.94 -1.31153 -3.96049 0
M  V30 42314 H 4154.57 -0.465746 -3.19422 0
M  V30 42315 H 4153.62 -2.80398 -2.57063 0
M  V30 42316 H 4154.93 -3.5249 -3.5292 0
M  V30 42317 H 4154.09 -2.37259 -5.58384 0
M  V30 42318 H 4152.83 -1.54704 -4.62513 0
M  V30 42319 H 4151.83 -3.76687 -4.00483 0
M  V30 42320 H 4153.06 -4.59806 -4.99756 0
M  V30 42321 H 4151 -2.60157 -6.02208 0
M  V30 42322 H 4150.92 -4.32337 -6.20178 0
M  V30 42323 H 4152.19 -3.43813 -6.99581 0
M  V30 42324 O 4156.46 0.811151 -1.39652 0
M  V30 42325 H 4157.15 1.4555 -1.27808 0
M  V30 END ATOM
M  V30 BEGIN BOND
M  V30 END BOND
M  V30 END CTAB
M  END
$$$$
