drugbank_target|Q05901 Neuronal acetylcholine receptor subunit beta-3 (DB00184; DB00898)
 OpenBabel12092120353D

  0  0  0     0  0            999 V3000
M  V30 BEGIN CTAB
M  V30 COUNTS 7521 7621 0 0 0
M  V30 BEGIN ATOM
M  V30 1 H -0.908 1.98254 -0.117106 0
M  V30 2 N 0 1.576 0 0
M  V30 3 C 0.933 2.03868 1.02534 0
M  V30 4 C 1.911 0.928543 1.3348 0
M  V30 5 O 3.095 1.19667 1.45644 0
M  V30 6 C 0.222 2.43627 2.35294 0
M  V30 7 C -0.732 3.65373 2.2001 0
M  V30 8 S 0.101 5.13292 1.52614 0
M  V30 9 C 1.257 5.56322 2.86805 0
M  V30 10 H 1.49 2.90518 0.631377 0
M  V30 11 H -0.977 1.52953 0.210867 0
M  V30 12 H 0.981 2.67203 3.11629 0
M  V30 13 H -0.358 1.57376 2.7183 0
M  V30 14 H -1.165 3.90944 3.18086 0
M  V30 15 H -1.563 3.418 1.51819 0
M  V30 16 H 0.729 5.58782 3.83104 0
M  V30 17 H 1.672 6.56266 2.65933 0
M  V30 18 H 2.08 4.83886 2.90714 0
M  V30 19 N 1.4781 -0.272755 1.55222 0
M  V30 20 C 2.4081 -1.34136 1.91127 0
M  V30 21 C 3.3891 -1.51513 0.773168 0
M  V30 22 O 4.5741 -1.64552 1.03132 0
M  V30 23 C 1.7041 -2.70083 2.1834 0
M  V30 24 C 0.6581 -2.67437 3.34158 0
M  V30 25 C -0.0159 -4.06938 3.46851 0
M  V30 26 C 1.2841 -2.26686 4.70543 0
M  V30 27 H 2.9781 -1.04333 2.80633 0
M  V30 28 H 0.5241 -0.500454 1.35024 0
M  V30 29 H 2.4771 -3.44952 2.42046 0
M  V30 30 H 1.2011 -3.01469 1.25634 0
M  V30 31 H -0.1399 -1.95026 3.1042 0
M  V30 32 H -0.4919 -4.35547 2.51611 0
M  V30 33 H -0.7919 -4.06062 4.2472 0
M  V30 34 H 0.7321 -4.83545 3.72849 0
M  V30 35 H 2.1461 -2.91277 4.93792 0
M  V30 36 H 0.5431 -2.36971 5.5133 0
M  V30 37 H 1.6131 -1.21818 4.69349 0
M  V30 38 N 2.9562 -1.48159 -0.537278 0
M  V30 39 C 4.3672 -1.49429 -1.11928 0
M  V30 40 C 4.7182 -0.26 -1.9447 0
M  V30 41 O 3.8432 0.633489 -2.0692 0
M  V30 42 C 4.4382 -2.70758 -2.03656 0
M  V30 43 C 2.9972 -2.74923 -2.57088 0
M  V30 44 C 2.1442 -2.42835 -1.3389 0
M  V30 45 H 5.0952 -1.55381 -0.322886 0
M  V30 46 H 5.1162 -2.48861 -2.87834 0
M  V30 47 H 4.6282 -3.60575 -1.43553 0
M  V30 48 H 2.7292 -1.89296 -3.20933 0
M  V30 49 H 2.8422 -3.76157 -2.9672 0
M  V30 50 H 1.2062 -1.93836 -1.65226 0
M  V30 51 H 1.9892 -3.34884 -0.755504 0
M  V30 52 N 4.4343 0.785586 -1.36625 0
M  V30 53 C 5.7113 1.53198 -1.21613 0
M  V30 54 C 6.0913 2.10187 0.196113 0
M  V30 55 O 5.4393 1.94318 1.20219 0
M  V30 56 C 5.6493 2.62388 -2.30116 0
M  V30 57 C 6.9973 3.30167 -2.66974 0
M  V30 58 O 8.0213 2.72674 -2.29188 0
M  V30 59 O 6.8803 4.34077 -3.32023 0
M  V30 60 H 3.9743 0.677865 -0.473738 0
M  V30 61 H 6.5203 0.823739 -1.48367 0
M  V30 62 H 5.2923 2.18299 -3.24748 0
M  V30 63 H 4.9153 3.40827 -2.0475 0
M  V30 64 N 5.9124 1.20967 1.01018 0
M  V30 65 C 7.1594 1.02374 1.74716 0
M  V30 66 C 7.4874 -0.443375 1.89379 0
M  V30 67 O 6.7424 -1.34535 1.42123 0
M  V30 68 C 7.0414 1.65997 3.16512 0
M  V30 69 C 6.7074 3.15831 3.2181 0
M  V30 70 C 5.3694 3.56719 3.22963 0
M  V30 71 C 7.7214 4.11816 3.19464 0
M  V30 72 C 5.0494 4.92107 3.19449 0
M  V30 73 C 7.4014 5.47158 3.17491 0
M  V30 74 C 6.0654 5.87451 3.16951 0
M  V30 75 H 5.3354 0.374614 0.639332 0
M  V30 76 H 7.9824 1.50485 1.18434 0
M  V30 77 H 6.2874 1.10166 3.75993 0
M  V30 78 H 7.9844 1.49119 3.72242 0
M  V30 79 H 4.5744 2.83263 3.21652 0
M  V30 80 H 8.7584 3.81257 3.17737 0
M  V30 81 H 4.0144 5.22579 3.17366 0
M  V30 82 H 8.1884 6.21274 3.14629 0
M  V30 83 H 5.8154 6.92329 3.13983 0
M  V30 84 N 7.3905 -1.2043 1.01659 0
M  V30 85 C 8.3235 -2.21924 0.531521 0
M  V30 86 C 9.3015 -1.57054 -0.421032 0
M  V30 87 O 10.4855 -1.85389 -0.341035 0
M  V30 88 C 7.6125 -3.37942 -0.226496 0
M  V30 89 C 6.6585 -4.21115 0.67561 0
M  V30 90 S 7.4915 -4.90674 2.14475 0
M  V30 91 C 8.6475 -6.10113 1.3969 0
M  V30 92 H 8.8805 -2.62725 1.3915 0
M  V30 93 H 6.4135 -1.30481 0.825479 0
M  V30 94 H 8.3715 -4.05196 -0.657738 0
M  V30 95 H 7.0325 -2.956 -1.06205 0
M  V30 96 H 6.2255 -5.03918 0.091108 0
M  V30 97 H 5.8275 -3.59115 1.04463 0
M  V30 98 H 8.1195 -6.7411 0.676897 0
M  V30 99 H 9.0625 -6.73022 2.20107 0
M  V30 100 H 9.4705 -5.57283 0.899786 0
M  V30 101 N 8.8686 -0.792821 -1.36206 0
M  V30 102 C 9.7986 -0.207853 -2.32573 0
M  V30 103 C 10.7796 0.659055 -1.56813 0
M  V30 104 O 11.9646 0.592176 -1.84951 0
M  V30 105 C 9.0946 0.655449 -3.41059 0
M  V30 106 C 8.0486 -0.111842 -4.27854 0
M  V30 107 C 7.3746 0.872274 -5.27537 0
M  V30 108 C 8.6746 -1.30299 -5.05786 0
M  V30 109 H 10.3686 -1.01294 -2.81744 0
M  V30 110 H 7.9146 -0.48854 -1.3546 0
M  V30 111 H 9.8676 1.07464 -4.07467 0
M  V30 112 H 8.5916 1.49328 -2.90463 0
M  V30 113 H 7.2506 -0.512053 -3.63006 0
M  V30 114 H 6.8986 1.70523 -4.73214 0
M  V30 115 H 6.5986 0.363291 -5.86476 0
M  V30 116 H 8.1226 1.28996 -5.96818 0
M  V30 117 H 9.5366 -0.959379 -5.65216 0
M  V30 118 H 7.9336 -1.7455 -5.74154 0
M  V30 119 H 9.0036 -2.09663 -4.37229 0
M  V30 120 N 10.3467 1.47872 -0.545128 0
M  V30 121 C 11.5927 2.02793 -0.0166104 0
M  V30 122 C 11.9257 1.41987 1.32489 0
M  V30 123 O 11.2007 0.571045 1.85928 0
M  V30 124 C 11.4837 3.59989 0.0893294 0
M  V30 125 C 11.3367 4.3125 -1.27841 0
M  V30 126 C 12.6557 4.32606 0.808724 0
M  V30 127 H 9.7747 0.736962 -0.00751035 0
M  V30 128 H 12.4167 1.76433 -0.705085 0
M  V30 129 H 10.5667 3.82579 0.675681 0
M  V30 130 H 12.2387 4.20035 -1.90704 0
M  V30 131 H 10.4817 3.92076 -1.85632 0
M  V30 132 H 11.1527 5.39736 -1.15713 0
M  V30 133 H 13.6287 4.14936 0.310992 0
M  V30 134 H 12.5047 5.42251 0.851782 0
M  V30 135 H 12.7657 4.00963 1.86229 0
M  V30 136 N 11.8248 0.280983 1.55075 0
M  V30 137 C 12.7548 -0.597469 2.25727 0
M  V30 138 C 13.7358 -1.15417 1.24952 0
M  V30 139 O 14.9208 -1.18722 1.53684 0
M  V30 140 C 12.0508 -1.7789 2.98283 0
M  V30 141 C 11.0048 -1.35347 4.06036 0
M  V30 142 C 10.3308 -2.61846 4.66198 0
M  V30 143 C 11.6308 -0.499354 5.19907 0
M  V30 144 H 13.3248 -0.00824265 2.99399 0
M  V30 145 H 10.8708 -0.0025244 1.44 0
M  V30 146 H 12.8238 -2.39937 3.46422 0
M  V30 147 H 11.5478 -2.39405 2.22155 0
M  V30 148 H 10.2068 -0.756156 3.58717 0
M  V30 149 H 9.8548 -3.21632 3.86732 0
M  V30 150 H 9.5548 -2.3409 5.38958 0
M  V30 151 H 11.0788 -3.24732 5.1709 0
M  V30 152 H 12.4928 -1.02498 5.64063 0
M  V30 153 H 10.8898 -0.316424 5.99265 0
M  V30 154 H 11.9598 0.480459 4.82514 0
M  V30 155 N 13.3029 -1.57598 0.00835791 0
M  V30 156 C 14.5519 -1.90107 -0.673968 0
M  V30 157 C 14.8649 -0.884275 -1.7447 0
M  V30 158 O 16.0709 -1.09987 -2.48224 0
M  V30 159 C 14.5269 -3.37497 -1.24995 0
M  V30 160 C 14.1349 -4.47491 -0.2136 0
M  V30 161 C 15.8789 -3.79104 -1.90999 0
M  V30 162 C 13.7859 -5.85963 -0.80005 0
M  V30 163 H 12.7159 -0.709393 -0.255495 0
M  V30 164 H 15.3669 -1.83365 0.0702693 0
M  V30 165 H 13.7489 -3.39102 -2.04513 0
M  V30 166 H 14.9229 -4.57414 0.557596 0
M  V30 167 H 13.2379 -4.14956 0.346474 0
M  V30 168 H 15.8349 -4.79901 -2.35795 0
M  V30 169 H 16.1779 -3.1306 -2.74407 0
M  V30 170 H 16.7109 -3.79833 -1.18203 0
M  V30 171 H 13.4499 -6.555 -0.00456708 0
M  V30 172 H 12.9699 -5.79687 -1.54021 0
M  V30 173 H 14.6489 -6.33884 -1.29615 0
M  V30 174 N 14.781 0.264519 -1.55364 0
M  V30 175 C 16.027 0.99646 -1.76631 0
M  V30 176 C 16.36 1.85632 -0.570478 0
M  V30 177 O 15.635 1.89647 0.43175 0
M  V30 178 C 15.918 1.87187 -3.07625 0
M  V30 179 C 15.771 1.04138 -4.37579 0
M  V30 180 C 17.09 2.85749 -3.34717 0
M  V30 181 H 14.209 0.360841 -0.642622 0
M  V30 182 H 16.851 0.268218 -1.88097 0
M  V30 183 H 15.001 2.49279 -2.9798 0
M  V30 184 H 16.673 0.440517 -4.59192 0
M  V30 185 H 14.916 0.345115 -4.32425 0
M  V30 186 H 15.587 1.68729 -5.2558 0
M  V30 187 H 18.063 2.33793 -3.4421 0
M  V30 188 H 16.939 3.44136 -4.27623 0
M  V30 189 H 17.2 3.61311 -2.54768 0
M  V30 190 N 16.2591 1.48442 0.529413 0
M  V30 191 C 17.1891 1.65902 1.64313 0
M  V30 192 C 18.1701 0.507897 1.6234 0
M  V30 193 O 19.3551 0.740503 1.79528 0
M  V30 194 C 16.4851 1.69911 3.02898 0
M  V30 195 C 15.4391 2.8453 3.19729 0
M  V30 196 C 14.7651 2.73629 4.59381 0
M  V30 197 C 16.0651 4.25821 3.02447 0
M  V30 198 H 17.7591 2.5914 1.49955 0
M  V30 199 H 15.3051 1.24709 0.719982 0
M  V30 200 H 17.2581 1.80715 3.80684 0
M  V30 201 H 15.9821 0.732524 3.18279 0
M  V30 202 H 14.6411 2.73283 2.44361 0
M  V30 203 H 14.2891 1.74938 4.71599 0
M  V30 204 H 13.9891 3.50541 4.71588 0
M  V30 205 H 15.5131 2.86401 5.39265 0
M  V30 206 H 16.9271 4.37898 3.70024 0
M  V30 207 H 15.3241 5.03735 3.26146 0
M  V30 208 H 16.3941 4.42244 1.98867 0
M  V30 209 N 17.7372 -0.778329 1.37039 0
M  V30 210 C 18.9852 -1.53361 1.31623 0
M  V30 211 C 19.3062 -1.94739 -0.100831 0
M  V30 212 O 18.5762 -1.65797 -1.04347 0
M  V30 213 H 17.1562 -0.568794 0.484234 0
M  V30 214 H 19.8182 -0.926742 1.71457 0
M  V30 215 H 18.9142 -2.43606 1.95096 0
M  V30 216 N 19.2153 -1.21501 -1.00376 0
M  V30 217 C 20.4643 -1.02718 -1.73586 0
M  V30 218 C 20.7773 0.439589 -1.90596 0
M  V30 219 O 21.9833 0.746848 -2.61026 0
M  V30 220 C 20.4393 -1.78929 -3.1227 0
M  V30 221 C 20.0473 -3.29783 -3.03228 0
M  V30 222 C 21.7913 -1.68557 -3.89601 0
M  V30 223 C 19.6983 -3.98479 -4.36999 0
M  V30 224 H 18.6283 -0.380733 -0.650814 0
M  V30 225 H 21.2793 -1.45248 -1.1214 0
M  V30 226 H 19.6613 -1.29192 -3.74333 0
M  V30 227 H 20.8353 -3.86832 -2.50395 0
M  V30 228 H 19.1503 -3.40711 -2.39385 0
M  V30 229 H 21.7473 -2.17211 -4.88593 0
M  V30 230 H 22.0903 -0.644021 -4.11288 0
M  V30 231 H 22.6233 -2.15778 -3.34193 0
M  V30 232 H 19.3623 -5.02841 -4.20513 0
M  V30 233 H 18.8823 -3.46219 -4.89788 0
M  V30 234 H 20.5613 -4.03462 -5.05794 0
M  V30 235 N 20.6934 1.19889 -1.02296 0
M  V30 236 C 22.1044 1.71124 -0.746568 0
M  V30 237 C 22.4554 1.81939 0.734335 0
M  V30 238 O 21.5804 1.48639 1.57275 0
M  V30 239 C 22.1754 3.10804 -1.34857 0
M  V30 240 C 20.7344 3.59323 -1.1209 0
M  V30 241 C 19.8814 2.3635 -1.45031 0
M  V30 242 H 22.8324 1.04813 -1.19163 0
M  V30 243 H 22.8534 3.73186 -0.742437 0
M  V30 244 H 22.3654 3.029 -2.42638 0
M  V30 245 H 20.4664 3.7255 -0.0610337 0
M  V30 246 H 20.5794 4.4378 -1.80544 0
M  V30 247 H 18.9434 2.39399 -0.869487 0
M  V30 248 H 19.7264 2.31081 -2.53883 0
M  V30 249 N 22.1715 0.800033 1.35784 0
M  V30 250 C 23.3965 0.388511 2.03729 0
M  V30 251 C 23.8215 -0.990481 1.5991 0
M  V30 252 O 23.1795 -1.64013 0.772612 0
M  V30 253 C 23.2275 0.4726 3.5749 0
M  V30 254 O 22.3315 -0.51646 4.09153 0
M  V30 255 H 21.6725 0.163271 0.643614 0
M  V30 256 H 24.2025 1.0841 1.73518 0
M  V30 257 H 24.2125 0.34003 4.06581 0
M  V30 258 H 22.8875 1.47848 3.88734 0
M  V30 259 H 21.4645 -0.344673 3.71304 0
M  V30 260 N 23.6496 -1.47581 0.552962 0
M  V30 261 C 24.8746 -2.07378 0.0300593 0
M  V30 262 C 25.2996 -1.40355 -1.25229 0
M  V30 263 O 24.6576 -0.477099 -1.7491 0
M  V30 264 C 24.7056 -3.60274 -0.153231 0
M  V30 265 O 23.8096 -3.94041 -1.21678 0
M  V30 266 H 23.1506 -0.662158 0.0494182 0
M  V30 267 H 25.6806 -1.89662 0.767434 0
M  V30 268 H 25.6906 -4.0633 -0.368761 0
M  V30 269 H 24.3656 -4.08455 0.783397 0
M  V30 270 H 22.9426 -3.59735 -0.982079 0
M  V30 271 N 25.1277 -0.289203 -1.54924 0
M  V30 272 C 26.0907 0.579144 -2.21762 0
M  V30 273 C 27.0907 1.07047 -1.1999 0
M  V30 274 O 28.2807 0.968384 -1.44803 0
M  V30 275 C 25.4127 1.80055 -2.8947 0
M  V30 276 H 26.6057 -0.00464908 -2.999 0
M  V30 277 H 24.1587 -0.0399306 -1.56249 0
M  V30 278 H 24.8937 2.42449 -2.15381 0
M  V30 279 H 24.6787 1.45602 -3.64064 0
M  V30 280 H 26.1687 2.41773 -3.40493 0
M  V30 281 N 26.6058 1.57591 -0.0167156 0
M  V30 282 C 27.8338 1.95575 0.675128 0
M  V30 283 C 28.2488 0.892542 1.6637 0
M  V30 284 O 27.6058 -0.126912 1.82058 0
M  V30 285 C 27.6568 3.33608 1.39239 0
M  V30 286 O 27.3778 4.3585 0.443444 0
M  V30 287 C 28.8788 3.86151 2.17721 0
M  V30 288 H 26.0988 0.644423 0.186978 0
M  V30 289 H 28.6428 2.0437 -0.0728 0
M  V30 290 H 26.7978 3.2607 2.09182 0
M  V30 291 H 27.2118 5.158 0.951358 0
M  V30 292 H 28.6858 4.85114 2.63379 0
M  V30 293 H 29.1628 3.19738 3.01105 0
M  V30 294 H 29.7688 3.96918 1.52761 0
M  V30 295 N 28.0839 -0.256276 1.55502 0
M  V30 296 C 29.3119 -1.00342 1.8094 0
M  V30 297 C 29.7269 -1.79307 0.59114 0
M  V30 298 O 29.0839 -1.77114 -0.440081 0
M  V30 299 C 29.1349 -1.94875 3.04476 0
M  V30 300 O 28.8559 -1.19107 4.21598 0
M  V30 301 C 30.3569 -2.81266 3.42644 0
M  V30 302 H 27.5769 -0.295685 0.602338 0
M  V30 303 H 30.1209 -0.281998 2.02546 0
M  V30 304 H 28.2759 -2.62457 2.84947 0
M  V30 305 H 28.6899 -1.82969 4.91551 0
M  V30 306 H 30.1639 -3.43362 4.32211 0
M  V30 307 H 30.6409 -3.51897 2.62802 0
M  V30 308 H 31.2469 -2.1915 3.64491 0
M  V30 309 N 29.562 -1.4872 -0.521534 0
M  V30 310 C 30.81 -1.56857 -1.27437 0
M  V30 311 C 31.131 -0.247982 -1.93417 0
M  V30 312 O 30.401 0.731151 -1.81744 0
M  V30 313 H 28.981 -0.577885 -0.473347 0
M  V30 314 H 31.643 -1.85233 -0.606205 0
M  V30 315 H 30.739 -2.35402 -2.0492 0
M  V30 316 N 31.0401 0.771051 -1.3745 0
M  V30 317 C 32.2871 1.52963 -1.32697 0
M  V30 318 C 32.6151 1.94299 0.0883274 0
M  V30 319 O 31.8701 1.64397 1.0617 0
M  V30 320 C 32.1691 2.80676 -2.2126 0
M  V30 321 C 31.8351 2.58389 -3.69521 0
M  V30 322 C 30.4971 2.52019 -4.09927 0
M  V30 323 C 32.8491 2.38469 -4.63446 0
M  V30 324 C 30.1771 2.23721 -5.42371 0
M  V30 325 C 32.5291 2.11694 -5.96128 0
M  V30 326 C 31.1931 2.03769 -6.35637 0
M  V30 327 H 30.4631 0.559732 -0.485573 0
M  V30 328 H 33.1101 0.888083 -1.69662 0
M  V30 329 H 31.4151 3.49392 -1.77291 0
M  V30 330 H 33.1121 3.38557 -2.14895 0
M  V30 331 H 29.7021 2.6421 -3.37478 0
M  V30 332 H 33.8861 2.4238 -4.33089 0
M  V30 333 H 29.1421 2.16081 -5.71943 0
M  V30 334 H 33.3161 1.9528 -6.6846 0
M  V30 335 H 30.9431 1.81606 -7.38189 0
M  V30 336 N 32.5182 1.22032 0.997298 0
M  V30 337 C 33.4662 0.983634 2.10778 0
M  V30 338 C 34.4602 -0.0717564 1.69248 0
M  V30 339 O 35.6662 0.080304 1.79821 0
M  V30 340 H 32.0412 0.300877 0.689186 0
M  V30 341 H 34.0122 1.92606 2.27916 0
M  V30 342 C 32.7612 0.57326 3.42942 0
M  V30 343 H 32.0842 1.37702 3.75338 0
M  V30 344 H 33.5242 0.447031 4.21637 0
M  V30 345 C 31.9832 -0.7167 3.29188 0
M  V30 346 O 32.5132 -1.77027 3.60589 0
M  V30 347 N 30.7192 -0.686167 2.82383 0
M  V30 348 H 30.2662 0.171507 2.57028 0
M  V30 349 H 30.2242 -1.54955 2.73562 0
M  V30 350 N 33.9963 -1.19345 1.0293 0
M  V30 351 C 35.2213 -1.93538 0.745511 0
M  V30 352 C 35.6463 -1.75007 -0.689511 0
M  V30 353 O 35.0043 -1.05265 -1.47611 0
M  V30 354 C 35.0523 -3.43336 1.10239 0
M  V30 355 O 34.1563 -4.11806 0.221289 0
M  V30 356 H 33.4973 -0.604193 0.275404 0
M  V30 357 H 36.0273 -1.5141 1.37609 0
M  V30 358 H 36.0373 -3.94004 1.05947 0
M  V30 359 H 34.7123 -3.56146 2.14786 0
M  V30 360 H 33.2893 -3.715 0.322842 0
M  V30 361 N 35.4744 -0.807222 -1.35358 0
M  V30 362 C 36.7234 -0.384376 -1.98004 0
M  V30 363 C 37.0364 1.0543 -1.64754 0
M  V30 364 O 38.2424 1.58029 -2.20769 0
M  V30 365 C 36.6984 -0.636326 -3.5423 0
M  V30 366 C 36.3064 -2.08759 -3.96388 0
M  V30 367 C 38.0504 -0.278869 -4.23583 0
M  V30 368 C 35.9574 -2.28525 -5.45463 0
M  V30 369 H 34.8874 -0.139986 -0.740891 0
M  V30 370 H 37.5384 -0.991369 -1.54415 0
M  V30 371 H 35.9204 0.0406256 -3.95979 0
M  V30 372 H 37.0944 -2.8024 -3.6579 0
M  V30 373 H 35.4094 -2.40497 -3.39926 0
M  V30 374 H 38.0064 -0.404599 -5.33167 0
M  V30 375 H 38.3494 0.775012 -4.09022 0
M  V30 376 H 38.8824 -0.909764 -3.87257 0
M  V30 377 H 35.6214 -3.32361 -5.64992 0
M  V30 378 H 35.1414 -1.61569 -5.77629 0
M  V30 379 H 36.8204 -2.10109 -6.11934 0
M  V30 380 N 36.9525 1.47285 -0.560781 0
M  V30 381 C 37.9155 2.28535 0.174488 0
M  V30 382 C 38.9155 1.37153 0.839388 0
M  V30 383 O 40.1055 1.59748 0.694702 0
M  V30 384 C 37.2375 3.16934 1.25561 0
M  V30 385 H 38.4305 2.95012 -0.539262 0
M  V30 386 H 35.9835 1.53034 -0.317865 0
M  V30 387 H 36.7185 2.55157 2.00164 0
M  V30 388 H 36.5035 3.8419 0.783604 0
M  V30 389 H 37.9935 3.78143 1.77193 0
M  V30 390 N 38.4306 0.297415 1.54768 0
M  V30 391 C 39.3406 -0.58983 2.27064 0
M  V30 392 C 40.3566 -1.15144 1.30453 0
M  V30 393 O 41.5326 -1.17699 1.63428 0
M  V30 394 C 38.5976 -1.74714 2.9946 0
M  V30 395 C 37.6586 -1.21997 4.11601 0
M  V30 396 C 36.8916 -2.32212 4.80535 0
M  V30 397 O 37.1146 -3.52036 4.48806 0
M  V30 398 O 36.0486 -1.99106 5.68014 0
M  V30 399 H 39.8746 -0.00348199 3.037 0
M  V30 400 H 37.4596 0.0640035 1.49263 0
M  V30 401 H 39.3416 -2.42147 3.44881 0
M  V30 402 H 38.0166 -2.32016 2.25722 0
M  V30 403 H 36.9236 -0.511458 3.70587 0
M  V30 404 H 38.2566 -0.692419 4.87305 0
M  V30 405 N 39.9087 -1.5758 0.0250728 0
M  V30 406 C 40.8567 -2.11125 -0.97617 0
M  V30 407 C 41.8507 -1.03689 -1.33959 0
M  V30 408 O 43.0567 -1.22128 -1.3223 0
M  V30 409 H 39.4317 -0.674468 -0.332561 0
M  V30 410 H 41.4027 -2.94194 -0.499223 0
M  V30 411 C 40.1517 -2.65017 -2.2508 0
M  V30 412 H 39.4747 -3.47333 -1.9799 0
M  V30 413 H 40.9147 -3.06133 -2.93357 0
M  V30 414 C 39.3737 -1.57574 -2.97779 0
M  V30 415 O 39.9037 -0.973203 -3.89733 0
M  V30 416 N 38.1097 -1.29716 -2.60043 0
M  V30 417 H 37.6567 -1.789 -1.85345 0
M  V30 418 H 37.6147 -0.58051 -3.08994 0
M  V30 419 N 41.3868 0.248026 -1.55636 0
M  V30 420 C 42.2968 1.32859 -1.93354 0
M  V30 421 C 43.3128 1.52719 -0.833838 0
M  V30 422 O 44.4888 1.66363 -1.13513 0
M  V30 423 C 41.5538 2.66337 -2.21958 0
M  V30 424 C 40.6148 2.55008 -3.45354 0
M  V30 425 C 39.8478 3.82121 -3.72584 0
M  V30 426 O 40.0708 4.83951 -3.01907 0
M  V30 427 O 39.0048 3.80822 -4.6611 0
M  V30 428 H 42.8308 1.03862 -2.85388 0
M  V30 429 H 40.4158 0.448686 -1.42503 0
M  V30 430 H 42.2978 3.45216 -2.4167 0
M  V30 431 H 40.9728 2.95068 -1.33103 0
M  V30 432 H 39.8798 1.7442 -3.30951 0
M  V30 433 H 41.2128 2.31222 -4.34508 0
M  V30 434 N 42.8649 1.48995 0.513639 0
M  V30 435 C 44.1419 1.48338 1.27495 0
M  V30 436 C 44.5219 0.204065 2.10111 0
M  V30 437 O 43.8699 -0.813881 2.13514 0
M  V30 438 C 44.0799 2.75498 2.14247 0
M  V30 439 C 45.4279 3.24484 2.73852 0
M  V30 440 O 46.4519 2.76528 2.24523 0
M  V30 441 O 45.3109 4.07974 3.6362 0
M  V30 442 H 42.4049 0.593149 0.576284 0
M  V30 443 H 44.9509 1.61246 0.528948 0
M  V30 444 H 43.7229 3.60109 1.53092 0
M  V30 445 H 43.3459 2.6539 2.96064 0
M  V30 446 N 44.343 -0.763751 1.37857 0
M  V30 447 C 45.306 -1.85889 1.34081 0
M  V30 448 C 46.306 -1.58949 0.243277 0
M  V30 449 O 47.496 -1.66882 0.499589 0
M  V30 450 C 44.628 -3.23176 1.08489 0
M  V30 451 H 45.821 -1.90648 2.31502 0
M  V30 452 H 43.374 -0.964367 1.23003 0
M  V30 453 H 44.109 -3.24091 0.116318 0
M  V30 454 H 43.894 -3.44124 1.8794 0
M  V30 455 H 45.384 -4.03254 1.08517 0
M  V30 456 N 45.8211 -1.22559 -0.990812 0
M  V30 457 C 46.7511 -1.0218 -2.09956 0
M  V30 458 C 47.7321 0.0579394 -1.70001 0
M  V30 459 O 48.9171 -0.104684 -1.93918 0
M  V30 460 C 46.0471 -0.601023 -3.4206 0
M  V30 461 C 45.0011 -1.62694 -3.95872 0
M  V30 462 C 44.3271 -1.06193 -5.24049 0
M  V30 463 C 45.6271 -3.01743 -4.2632 0
M  V30 464 H 47.3211 -1.94916 -2.27262 0
M  V30 465 H 44.8671 -0.938566 -1.09211 0
M  V30 466 H 46.8201 -0.445561 -4.19038 0
M  V30 467 H 45.5441 0.362005 -3.24588 0
M  V30 468 H 44.2031 -1.77021 -3.21028 0
M  V30 469 H 43.8511 -0.0901903 -5.02919 0
M  V30 470 H 43.5511 -1.74732 -5.61019 0
M  V30 471 H 45.0751 -0.918092 -6.03658 0
M  V30 472 H 46.4891 -2.90777 -4.94087 0
M  V30 473 H 44.8861 -3.67425 -4.74467 0
M  V30 474 H 45.9561 -3.51518 -3.34011 0
M  V30 475 N 47.2992 1.18797 -1.03562 0
M  V30 476 C 48.2292 2.24472 -0.643019 0
M  V30 477 C 49.2102 1.66433 0.351283 0
M  V30 478 O 50.3952 1.92803 0.232505 0
M  V30 479 C 47.5252 3.473 4.24935e-05 0
M  V30 480 C 46.4792 4.18055 -0.917257 0
M  V30 481 C 45.8052 5.34519 -0.138941 0
M  V30 482 C 47.1052 4.72109 -2.23407 0
M  V30 483 H 48.7992 2.57566 -1.52643 0
M  V30 484 H 46.3452 1.23806 -0.735394 0
M  V30 485 H 48.2982 4.20426 0.286383 0
M  V30 486 H 47.0222 3.13424 0.918299 0
M  V30 487 H 45.6812 3.46821 -1.1879 0
M  V30 488 H 45.3292 4.96891 0.781562 0
M  V30 489 H 45.0292 5.82794 -0.750005 0
M  V30 490 H 46.5532 6.10438 0.1405 0
M  V30 491 H 47.9672 5.36955 -2.00879 0
M  V30 492 H 46.3642 5.30897 -2.79765 0
M  V30 493 H 47.4342 3.89807 -2.88407 0
M  V30 494 N 48.7773 0.814389 1.34928 0
M  V30 495 C 50.1933 0.499084 1.51596 0
M  V30 496 C 50.3933 -0.978319 1.76157 0
M  V30 497 O 49.4493 -1.76309 1.80752 0
M  V30 498 C 50.7623 1.35121 2.68631 0
M  V30 499 C 52.3103 1.34746 2.82511 0
M  V30 500 C 52.7853 2.18388 4.0258 0
M  V30 501 N 54.2763 2.15966 4.09772 0
M  V30 502 C 55.0113 2.77437 5.01813 0
M  V30 503 N 54.5073 3.47866 5.99134 0
M  V30 504 N 56.3003 2.67037 4.94619 0
M  V30 505 H 48.4513 1.7711 1.17243 0
M  V30 506 H 50.7143 0.754256 0.574284 0
M  V30 507 H 50.4203 2.40001 2.57085 0
M  V30 508 H 50.2943 1.00991 3.63429 0
M  V30 509 H 52.6813 0.30648 2.93504 0
M  V30 510 H 52.7623 1.72869 1.88547 0
M  V30 511 H 52.4063 3.2253 3.92347 0
M  V30 512 H 52.3363 1.77621 4.9574 0
M  V30 513 H 54.8273 1.64729 3.40107 0
M  V30 514 H 55.1403 3.92038 6.65977 0
M  V30 515 H 53.4853 3.51972 5.99284 0
M  V30 516 H 56.6763 2.11597 4.17546 0
M  V30 517 H 56.8493 3.15232 5.66156 0
M  V30 518 N 50.2554 -1.46986 0.568584 0
M  V30 519 C 51.2054 -2.27179 -0.193339 0
M  V30 520 C 52.1894 -1.35035 -0.874895 0
M  V30 521 O 53.3814 -1.5931 -0.771322 0
M  V30 522 C 50.5104 -3.21063 -1.21546 0
M  V30 523 C 49.5964 -4.2069 -0.536738 0
M  V30 524 N 49.9874 -5.04218 0.399673 0
M  V30 525 C 48.2854 -4.38961 -0.789254 0
M  V30 526 C 48.9864 -5.76242 0.795017 0
M  V30 527 N 47.9624 -5.434 0.1473 0
M  V30 528 H 51.7644 -2.89146 0.526458 0
M  V30 529 H 49.2784 -1.57664 0.389342 0
M  V30 530 H 51.2754 -3.77209 -1.77536 0
M  V30 531 H 49.9354 -2.60654 -1.93623 0
M  V30 532 H 50.9464 -5.12077 0.774454 0
M  V30 533 H 47.6234 -3.89713 -1.49767 0
M  V30 534 H 49.0134 -6.53417 1.56513 0
M  V30 535 N 51.7335 -0.305618 -1.54608 0
M  V30 536 C 52.6635 0.561482 -2.26649 0
M  V30 537 C 53.6445 1.13415 -1.26772 0
M  V30 538 O 54.8295 1.16262 -1.55553 0
M  V30 539 C 51.9595 1.73122 -3.01075 0
M  V30 540 C 50.9135 1.2887 -4.08138 0
M  V30 541 C 50.2395 2.54396 -4.70305 0
M  V30 542 C 51.5395 0.416578 -5.20636 0
M  V30 543 H 53.2335 -0.0393902 -2.99374 0
M  V30 544 H 50.7795 -0.020385 -1.43986 0
M  V30 545 H 52.7325 2.34396 -3.50195 0
M  V30 546 H 51.4565 2.3584 -2.25936 0
M  V30 547 H 50.1155 0.698991 -3.59875 0
M  V30 548 H 49.7635 3.15439 -3.918 0
M  V30 549 H 49.4635 2.25486 -5.42614 0
M  V30 550 H 50.9875 3.16464 -5.2219 0
M  V30 551 H 52.4015 0.935116 -5.65622 0
M  V30 552 H 50.7985 0.221046 -5.99693 0
M  V30 553 H 51.8685 -0.557162 -4.81688 0
M  V30 554 N 53.2116 1.57565 -0.0334293 0
M  V30 555 C 54.4586 1.91978 0.644272 0
M  V30 556 C 54.7866 0.910231 1.71887 0
M  V30 557 O 54.0416 -0.0801961 1.95536 0
M  V30 558 C 54.3406 3.33112 1.29504 0
M  V30 559 C 54.0066 4.49537 0.350388 0
M  V30 560 C 52.6686 4.81115 0.0903974 0
M  V30 561 C 55.0206 5.20347 -0.298032 0
M  V30 562 C 52.3486 5.8086 -0.825746 0
M  V30 563 C 54.7006 6.2107 -1.20226 0
M  V30 564 C 53.3646 6.51088 -1.4711 0
M  V30 565 H 52.6346 0.702496 0.235756 0
M  V30 566 H 55.2816 1.91259 -0.0961176 0
M  V30 567 H 53.5866 3.30113 2.11028 0
M  V30 568 H 55.2836 3.57011 1.82603 0
M  V30 569 H 51.8736 4.24883 0.563205 0
M  V30 570 H 56.0576 4.96178 -0.110234 0
M  V30 571 H 51.3136 6.02461 -1.04169 0
M  V30 572 H 55.4876 6.75057 -1.71086 0
M  V30 573 H 53.1146 7.28193 -2.18264 0
M  V30 574 N 54.6897 -0.239769 1.55765 0
M  V30 575 C 55.6217 -1.32001 1.87372 0
M  V30 576 C 56.6347 -1.43944 0.760522 0
M  V30 577 O 57.8237 -1.45167 1.0387 0
M  V30 578 C 54.9237 -2.69779 2.05115 0
M  V30 579 C 54.0967 -2.80014 3.36022 0
M  V30 580 C 53.1557 -3.98684 3.4342 0
M  V30 581 O 52.1817 -3.87877 4.16582 0
M  V30 582 N 53.3837 -5.12176 2.73232 0
M  V30 583 H 56.1487 -1.0522 2.80622 0
M  V30 584 H 53.7097 -0.429857 1.56089 0
M  V30 585 H 55.7017 -3.47517 2.07399 0
M  V30 586 H 54.2717 -2.89237 1.18577 0
M  V30 587 H 53.4917 -1.88896 3.45994 0
M  V30 588 H 54.7797 -2.83808 4.22292 0
M  V30 589 H 54.1777 -5.2385 2.13536 0
M  V30 590 H 52.7347 -5.88022 2.81199 0
M  V30 591 N 56.1678 -1.49265 -0.50573 0
M  V30 592 C 57.4158 -1.582 -1.25766 0
M  V30 593 C 57.7368 -0.268482 -1.93143 0
M  V30 594 O 57.0068 0.711833 -1.8251 0
M  V30 595 H 55.5868 -0.582873 -0.467191 0
M  V30 596 H 58.2488 -1.85865 -0.586525 0
M  V30 597 H 57.3448 -2.37563 -2.02412 0
M  V30 598 N 57.6459 0.756429 -1.3826 0
M  V30 599 C 58.8759 1.54341 -1.3734 0
M  V30 600 C 59.2839 1.89159 0.0393917 0
M  V30 601 O 58.6269 1.5307 1.01565 0
M  V30 602 C 58.6889 2.87238 -2.16182 0
M  V30 603 C 58.3529 2.74973 -3.65019 0
M  V30 604 C 59.3499 2.44962 -4.58574 0
M  V30 605 C 57.0349 2.92515 -4.08338 0
M  V30 606 C 59.0289 2.32642 -5.93428 0
M  V30 607 C 56.7159 2.79815 -5.43274 0
M  V30 608 C 57.7139 2.49921 -6.35632 0
M  V30 609 O 57.4019 2.37275 -7.68086 0
M  V30 610 H 57.1339 0.484281 -0.471643 0
M  V30 611 H 59.6879 0.944152 -1.82414 0
M  V30 612 H 57.9179 3.49342 -1.65822 0
M  V30 613 H 59.6069 3.48731 -2.07705 0
M  V30 614 H 60.3729 2.31081 -4.26412 0
M  V30 615 H 56.2519 3.14781 -3.368 0
M  V30 616 H 59.7959 2.0923 -6.65484 0
M  V30 617 H 55.6929 2.93269 -5.75034 0
M  V30 618 H 56.4609 2.52509 -7.78577 0
M  V30 619 N 59.124 1.23083 0.984299 0
M  V30 620 C 60.056 0.96636 2.07832 0
M  V30 621 C 61.069 -0.0582135 1.62696 0
M  V30 622 O 62.258 0.176843 1.77622 0
M  V30 623 C 59.358 0.433397 3.36117 0
M  V30 624 C 58.531 1.51722 4.10243 0
M  V30 625 C 57.59 0.989821 5.16807 0
M  V30 626 O 56.616 1.67794 5.43906 0
M  V30 627 N 57.818 -0.184367 5.80207 0
M  V30 628 H 60.583 1.90824 2.31098 0
M  V30 629 H 58.144 1.13888 1.1507 0
M  V30 630 H 60.136 0.065699 4.04647 0
M  V30 631 H 58.706 -0.413806 3.09849 0
M  V30 632 H 57.926 2.05786 3.36223 0
M  V30 633 H 59.214 2.24619 4.56534 0
M  V30 634 H 58.612 -0.760062 5.60571 0
M  V30 635 H 57.169 -0.493366 6.4993 0
M  V30 636 N 60.6021 -1.18246 1.0419 0
M  V30 637 C 61.5491 -2.2192 0.634037 0
M  V30 638 C 62.5191 -1.62179 -0.358765 0
M  V30 639 O 63.7041 -1.89122 -0.252466 0
M  V30 640 C 60.8441 -3.451 0.00445535 0
M  V30 641 C 59.9571 -4.19174 1.04487 0
M  V30 642 C 59.0921 -5.29813 0.383676 0
M  V30 643 C 58.1311 -5.9566 1.4091 0
M  V30 644 N 57.2681 -6.97834 0.772784 0
M  V30 645 H 62.1081 -2.56164 1.52263 0
M  V30 646 H 59.6451 -1.25843 0.761701 0
M  V30 647 H 61.6031 -4.15485 -0.377919 0
M  V30 648 H 60.2331 -3.11472 -0.847652 0
M  V30 649 H 59.2851 -3.47604 1.54518 0
M  V30 650 H 60.5971 -4.64267 1.82368 0
M  V30 651 H 59.7511 -6.06677 -0.0528366 0
M  V30 652 H 58.4901 -4.85825 -0.427208 0
M  V30 653 H 57.4951 -5.17535 1.85574 0
M  V30 654 H 58.7201 -6.4173 2.22171 0
M  V30 655 H 56.6661 -6.55998 -0.0177708 0
M  V30 656 H 56.5831 -7.41186 1.48928 0
M  V30 657 H 57.8511 -7.78665 0.36071 0
M  V30 658 N 62.0802 -0.821533 -1.34494 0
M  V30 659 C 63.3262 -0.418729 -1.99043 0
M  V30 660 C 63.6812 1.00672 -1.6396 0
M  V30 661 O 62.9742 1.69132 -0.900271 0
M  V30 662 C 63.1682 -0.556512 -3.53041 0
M  V30 663 C 62.9972 -1.9938 -4.03085 0
M  V30 664 C 61.7672 -2.62539 -4.31742 0
M  V30 665 C 63.9652 -2.96035 -4.20556 0
M  V30 666 N 61.9472 -3.97523 -4.67813 0
M  V30 667 C 63.3182 -4.15924 -4.59791 0
M  V30 668 C 65.3732 -2.9267 -4.02801 0
M  V30 669 C 64.0762 -5.32899 -4.83126 0
M  V30 670 C 66.1022 -4.08861 -4.27302 0
M  V30 671 C 65.4642 -5.275 -4.66822 0
M  V30 672 H 61.5632 -0.201299 -0.755647 0
M  V30 673 H 64.1472 -1.06594 -1.62929 0
M  V30 674 H 62.3182 0.0607924 -3.88352 0
M  V30 675 H 64.0502 -0.126842 -4.04501 0
M  V30 676 H 60.8052 -2.13789 -4.22601 0
M  V30 677 H 61.2292 -4.67061 -4.90085 0
M  V30 678 H 65.8712 -2.02088 -3.71376 0
M  V30 679 H 63.5892 -6.24041 -5.13418 0
M  V30 680 H 67.1752 -4.07654 -4.15101 0
M  V30 681 H 66.0552 -6.15913 -4.85408 0
M  V30 682 N 63.5583 1.46682 -0.576371 0
M  V30 683 C 64.8043 2.02712 -0.0596221 0
M  V30 684 C 65.1373 1.44765 1.29448 0
M  V30 685 O 64.4123 0.610355 1.84675 0
M  V30 686 C 64.6953 3.60098 0.0129503 0
M  V30 687 C 64.5483 4.28441 -1.3696 0
M  V30 688 C 65.8673 4.34224 0.71678 0
M  V30 689 H 62.9863 0.736637 -0.0231407 0
M  V30 690 H 65.6283 1.74898 -0.742351 0
M  V30 691 H 63.7783 3.83926 0.594378 0
M  V30 692 H 65.4503 4.15896 -1.9957 0
M  V30 693 H 63.6933 3.8805 -1.93907 0
M  V30 694 H 64.3643 5.3716 -1.27135 0
M  V30 695 H 66.8403 4.15503 0.222908 0
M  V30 696 H 65.7163 5.43936 0.73657 0
M  V30 697 H 65.9773 4.04823 1.77682 0
M  V30 698 N 65.0364 0.313813 1.54444 0
M  V30 699 C 66.4524 -0.0391619 1.59552 0
M  V30 700 C 66.6524 -1.51322 1.33056 0
M  V30 701 O 65.7084 -2.26782 1.11022 0
M  V30 702 C 67.0214 0.370302 2.98411 0
M  V30 703 C 68.5694 0.320139 3.11358 0
M  V30 704 C 69.0444 0.704617 4.52547 0
M  V30 705 N 70.5354 0.657645 4.58508 0
M  V30 706 C 71.2704 0.927453 5.6585 0
M  V30 707 N 70.7664 1.26389 6.81174 0
M  V30 708 N 72.5594 0.853662 5.5558 0
M  V30 709 H 64.7104 1.27433 1.69925 0
M  V30 710 H 66.9734 0.517511 0.794284 0
M  V30 711 H 66.6794 1.39694 3.22767 0
M  V30 712 H 66.5534 -0.269619 3.76235 0
M  V30 713 H 68.9404 -0.697275 2.86744 0
M  V30 714 H 69.0214 0.99486 2.35661 0
M  V30 715 H 68.6654 1.7199 4.77893 0
M  V30 716 H 68.5954 0.00768843 5.26599 0
M  V30 717 H 71.0864 0.409067 3.75679 0
M  V30 718 H 71.3994 1.4554 7.58972 0
M  V30 719 H 69.7444 1.30206 6.82694 0
M  V30 720 H 72.9354 0.590383 4.64362 0
M  V30 721 H 73.1084 1.0673 6.3915 0
M  V30 722 N 66.5145 -1.57545 0.0417849 0
M  V30 723 C 67.9255 -1.80011 -0.495259 0
M  V30 724 C 68.2765 -0.953199 -1.71489 0
M  V30 725 O 67.4015 -0.167138 -2.15754 0
M  V30 726 C 67.9965 -3.26482 -0.905265 0
M  V30 727 C 66.5555 -3.499 -1.38734 0
M  V30 728 C 65.7025 -2.74979 -0.358056 0
M  V30 729 H 68.6535 -1.56425 0.267736 0
M  V30 730 H 68.6745 -3.36887 -1.76882 0
M  V30 731 H 68.1865 -3.88096 -0.017401 0
M  V30 732 H 66.2875 -2.93553 -2.29471 0
M  V30 733 H 66.4005 -4.58615 -1.38598 0
M  V30 734 H 64.7645 -2.40834 -0.828912 0
M  V30 735 H 65.5475 -3.39315 0.521561 0
M  V30 736 N 67.9926 0.231505 -1.5589 0
M  V30 737 C 69.2386 0.95877 -1.78705 0
M  V30 738 C 69.5716 1.8438 -0.609725 0
M  V30 739 O 68.8466 1.90521 0.391426 0
M  V30 740 C 69.1296 1.8062 -3.11526 0
M  V30 741 C 68.9826 0.948328 -4.39689 0
M  V30 742 C 70.3016 2.78585 -3.40703 0
M  V30 743 H 67.4206 0.347129 -0.650131 0
M  V30 744 H 70.0626 0.228259 -1.88624 0
M  V30 745 H 68.2126 2.42902 -3.03201 0
M  V30 746 H 69.8846 0.343016 -4.60023 0
M  V30 747 H 68.1276 0.253314 -4.3306 0
M  V30 748 H 68.7986 1.57543 -5.29041 0
M  V30 749 H 71.2746 2.26439 -3.49091 0
M  V30 750 H 70.1506 3.34988 -4.34826 0
M  V30 751 H 70.4116 3.55825 -2.62375 0
M  V30 752 N 69.4707 1.49531 0.497807 0
M  V30 753 C 70.4007 1.6935 1.60757 0
M  V30 754 C 71.3817 0.542218 1.61227 0
M  V30 755 O 72.5667 0.778417 1.77917 0
M  V30 756 C 69.6967 1.76298 2.99226 0
M  V30 757 C 68.6507 2.91248 3.13622 0
M  V30 758 C 67.9767 2.83312 4.53474 0
M  V30 759 C 69.2767 4.3214 2.93346 0
M  V30 760 H 70.9707 2.62263 1.44425 0
M  V30 761 H 68.5167 1.26208 0.693367 0
M  V30 762 H 70.4697 1.88749 3.76765 0
M  V30 763 H 69.1937 0.799871 3.16654 0
M  V30 764 H 67.8527 2.78404 2.38509 0
M  V30 765 H 67.5007 1.84902 4.67782 0
M  V30 766 H 67.2007 3.60465 4.64046 0
M  V30 767 H 68.7247 2.97775 5.33069 0
M  V30 768 H 70.1387 4.45649 3.60652 0
M  V30 769 H 68.5357 5.1054 3.15387 0
M  V30 770 H 69.6057 4.46363 1.89441 0
M  V30 771 N 70.9488 -0.749086 1.3866 0
M  V30 772 C 71.8988 -1.85368 1.32751 0
M  V30 773 C 72.8828 -1.59511 0.210945 0
M  V30 774 O 74.0748 -1.71255 0.447299 0
M  V30 775 C 71.2038 -3.23131 1.15935 0
M  V30 776 C 70.2898 -3.54864 2.32233 0
M  V30 777 N 70.6808 -3.57625 3.57684 0
M  V30 778 C 68.9788 -3.85154 2.24883 0
M  V30 779 C 69.6798 -3.86753 4.34508 0
M  V30 780 N 68.6558 -4.03812 3.63918 0
M  V30 781 H 72.4578 -1.85787 2.27729 0
M  V30 782 H 69.9718 -0.946658 1.31955 0
M  V30 783 H 71.9688 -4.02185 1.09786 0
M  V30 784 H 70.6288 -3.23961 0.218947 0
M  V30 785 H 71.6398 -3.39276 3.91295 0
M  V30 786 H 68.3168 -3.93672 1.39027 0
M  V30 787 H 69.7068 -3.95474 5.43185 0
M  V30 788 N 72.4269 -1.23603 -0.977757 0
M  V30 789 C 73.6519 -1.09735 -1.75991 0
M  V30 790 C 74.0769 0.346858 -1.84874 0
M  V30 791 O 73.4349 1.25093 -1.3123 0
M  V30 792 C 73.4829 -1.73051 -3.16363 0
M  V30 793 O 72.5869 -0.994452 -4.0023 0
M  V30 794 H 71.9279 -0.384476 -0.541364 0
M  V30 795 H 74.4579 -1.6371 -1.2272 0
M  V30 796 H 74.4679 -1.78398 -3.66931 0
M  V30 797 H 73.1429 -2.78137 -3.09213 0
M  V30 798 H 71.7199 -1.01812 -3.58732 0
M  V30 799 N 73.905 1.17692 -1.04816 0
M  V30 800 C 74.853 2.23632 -0.63966 0
M  V30 801 C 75.847 1.6601 0.337219 0
M  V30 802 O 77.053 1.78844 0.203693 0
M  V30 803 H 73.428 0.727949 -0.188665 0
M  V30 804 H 75.399 2.55387 -1.54337 0
M  V30 805 C 74.148 3.4769 -0.0264051 0
M  V30 806 H 73.471 3.92331 -0.769164 0
M  V30 807 H 74.911 4.23418 0.222098 0
M  V30 808 C 73.37 3.13807 1.22584 0
M  V30 809 O 73.9 3.28236 2.31569 0
M  V30 810 N 72.106 2.68065 1.12202 0
M  V30 811 H 71.653 2.56525 0.235133 0
M  V30 812 H 71.611 2.45767 1.96076 0
M  V30 813 N 75.3831 0.828654 1.34056 0
M  V30 814 C 76.6601 0.341809 1.9259 0
M  V30 815 C 77.0401 -1.17158 1.75605 0
M  V30 816 O 76.3881 -1.98132 1.13824 0
M  V30 817 C 76.5981 0.777453 3.4023 0
M  V30 818 C 77.9461 0.779579 4.17382 0
M  V30 819 O 78.9701 0.7204 3.48839 0
M  V30 820 O 77.8291 0.857996 5.39723 0
M  V30 821 H 74.9231 0.0946085 0.821571 0
M  V30 822 H 77.4691 0.913827 1.42994 0
M  V30 823 H 76.2411 1.8196 3.46419 0
M  V30 824 H 75.8641 0.181444 3.97186 0
M  V30 825 N 76.8612 -1.46375 0.584142 0
M  V30 826 C 78.0892 -2.06761 0.0759296 0
M  V30 827 C 78.5042 -1.43266 -1.22965 0
M  V30 828 O 77.8612 -0.538458 -1.74376 0
M  V30 829 C 77.9122 -3.61375 -0.0950384 0
M  V30 830 O 77.6332 -4.22495 1.15887 0
M  V30 831 C 79.1342 -4.38693 -0.637434 0
M  V30 832 H 76.3542 -0.668479 0.0581075 0
M  V30 833 H 78.8982 -1.8798 0.805218 0
M  V30 834 H 77.0532 -3.79578 -0.774554 0
M  V30 835 H 77.4672 -5.15385 0.973598 0
M  V30 836 H 78.9412 -5.47464 -0.706237 0
M  V30 837 H 79.4182 -4.06836 -1.65472 0
M  V30 838 H 80.0242 -4.25299 0.00725967 0
M  V30 839 N 78.3393 -0.321999 -1.54275 0
M  V30 840 C 79.5883 0.281931 -1.9972 0
M  V30 841 C 79.9013 1.53369 -1.21397 0
M  V30 842 O 81.1073 2.21352 -1.57211 0
M  V30 843 C 79.5633 0.5529 -3.55628 0
M  V30 844 C 79.1713 -0.681721 -4.42783 0
M  V30 845 C 80.9153 1.11687 -4.09544 0
M  V30 846 C 78.8223 -0.382742 -5.9016 0
M  V30 847 H 77.7523 0.109124 -0.746062 0
M  V30 848 H 80.4033 -0.43398 -1.78294 0
M  V30 849 H 78.7853 1.32896 -3.73035 0
M  V30 850 H 79.9593 -1.45723 -4.37151 0
M  V30 851 H 78.2743 -1.1658 -3.99748 0
M  V30 852 H 80.8713 1.35515 -5.17242 0
M  V30 853 H 81.2143 2.06575 -3.61431 0
M  V30 854 H 81.7473 0.402032 -3.95763 0
M  V30 855 H 78.4863 -1.30076 -6.42464 0
M  V30 856 H 78.0063 0.355094 -5.98748 0
M  V30 857 H 79.6853 0.00800157 -6.47 0
M  V30 858 N 79.8174 1.5752 -0.0501392 0
M  V30 859 C 80.7644 2.1147 0.924603 0
M  V30 860 C 81.7344 1.02182 1.30951 0
M  V30 861 O 82.9194 1.29723 1.39916 0
M  V30 862 C 80.0594 2.66337 2.19451 0
M  V30 863 C 79.1724 3.89708 1.86418 0
M  V30 864 C 78.3074 4.32893 3.07859 0
M  V30 865 C 77.3464 5.48967 2.70742 0
M  V30 866 N 76.4834 5.87211 3.84874 0
M  V30 867 H 81.3234 2.94465 0.457639 0
M  V30 868 H 78.8604 1.45531 0.214266 0
M  V30 869 H 80.8184 2.96247 2.93758 0
M  V30 870 H 79.4484 1.86141 2.63726 0
M  V30 871 H 78.5004 3.66396 1.02264 0
M  V30 872 H 79.8124 4.74074 1.55096 0
M  V30 873 H 78.9664 4.6435 3.90466 0
M  V30 874 H 77.7054 3.47336 3.42358 0
M  V30 875 H 76.7104 5.17183 1.86551 0
M  V30 876 H 77.9354 6.3624 2.37436 0
M  V30 877 H 75.8814 5.04607 4.19175 0
M  V30 878 H 75.7984 6.66266 3.57247 0
M  V30 879 H 77.0664 6.23282 4.68123 0
M  V30 880 N 81.2955 -0.223234 1.56011 0
M  V30 881 C 82.5415 -0.949279 1.79211 0
M  V30 882 C 82.8745 -1.84054 0.619494 0
M  V30 883 O 82.1495 -1.90726 -0.381317 0
M  V30 884 C 82.4325 -1.78965 3.12479 0
M  V30 885 C 82.2855 -0.924997 4.40186 0
M  V30 886 C 83.6045 -2.76774 3.42175 0
M  V30 887 H 80.7235 -0.343676 0.651963 0
M  V30 888 H 83.3655 -0.218253 1.88742 0
M  V30 889 H 81.5155 -2.41291 3.04485 0
M  V30 890 H 83.1875 -0.318615 4.60198 0
M  V30 891 H 81.4305 -0.230344 4.33188 0
M  V30 892 H 82.1015 -1.54735 5.29869 0
M  V30 893 H 84.5775 -2.24584 3.50287 0
M  V30 894 H 83.4535 -3.32678 4.36597 0
M  V30 895 H 83.7145 -3.54429 2.64258 0
M  V30 896 N 82.7736 -1.49793 -0.48987 0
M  V30 897 C 84.0036 -1.6333 -1.26518 0
M  V30 898 C 84.4116 -0.308392 -1.8667 0
M  V30 899 O 83.7546 0.717512 -1.69108 0
M  V30 900 C 83.8166 -2.6522 -2.4269 0
M  V30 901 C 83.4806 -4.09279 -2.03321 0
M  V30 902 C 84.4776 -4.95738 -1.56652 0
M  V30 903 C 82.1626 -4.55082 -2.12616 0
M  V30 904 C 84.1566 -6.26041 -1.19795 0
M  V30 905 C 81.8436 -5.85396 -1.75371 0
M  V30 906 C 82.8416 -6.707 -1.29036 0
M  V30 907 O 82.5296 -7.98584 -0.92299 0
M  V30 908 H 82.2616 -0.552502 -0.389509 0
M  V30 909 H 84.8156 -1.96642 -0.593381 0
M  V30 910 H 83.0456 -2.27112 -3.12981 0
M  V30 911 H 84.7346 -2.68171 -3.04695 0
M  V30 912 H 85.5006 -4.61575 -1.48908 0
M  V30 913 H 81.3796 -3.88844 -2.47631 0
M  V30 914 H 84.9236 -6.92578 -0.835582 0
M  V30 915 H 80.8206 -6.19085 -1.82768 0
M  V30 916 H 81.5886 -8.11692 -1.05349 0
M  V30 917 N 84.2517 0.741722 -1.39055 0
M  V30 918 C 85.4987 1.50114 -1.35912 0
M  V30 919 C 85.8267 1.94443 0.0470937 0
M  V30 920 O 85.0817 1.66612 1.02659 0
M  V30 921 C 85.3807 2.7592 -2.27163 0
M  V30 922 C 85.0467 2.50493 -3.74919 0
M  V30 923 C 83.7087 2.43267 -4.1518 0
M  V30 924 C 86.0607 2.28585 -4.684 0
M  V30 925 C 83.3887 2.12166 -5.46994 0
M  V30 926 C 85.7407 1.99002 -6.00484 0
M  V30 927 C 84.4047 1.90241 -6.39816 0
M  V30 928 H 83.6747 0.549306 -0.497336 0
M  V30 929 H 86.3217 0.851896 -1.71508 0
M  V30 930 H 84.6267 3.45553 -1.84663 0
M  V30 931 H 86.3237 3.33923 -2.22028 0
M  V30 932 H 82.9137 2.56992 -3.43006 0
M  V30 933 H 87.0977 2.33139 -4.38132 0
M  V30 934 H 82.3537 2.03901 -5.76398 0
M  V30 935 H 86.5277 1.81057 -6.72452 0
M  V30 936 H 84.1547 1.65907 -7.41875 0
M  V30 937 N 85.7298 1.2412 0.971189 0
M  V30 938 C 86.9778 1.07668 1.71032 0
M  V30 939 C 87.2988 -0.385797 1.91146 0
M  V30 940 O 86.5688 -1.27569 1.4867 0
M  V30 941 H 85.1488 0.395429 0.633755 0
M  V30 942 H 87.8108 1.55984 1.16855 0
M  V30 943 H 86.9068 1.57195 2.69622 0
M  V30 944 N 87.2079 -1.17134 1.05439 0
M  V30 945 C 88.1379 -2.2342 0.678649 0
M  V30 946 C 89.1189 -1.66971 -0.32476 0
M  V30 947 O 90.3039 -1.93149 -0.201802 0
M  V30 948 C 87.4339 -3.47256 0.0552099 0
M  V30 949 C 86.3879 -4.16543 0.98365 0
M  V30 950 C 85.7139 -5.34231 0.223961 0
M  V30 951 C 87.0139 -4.68495 2.3089 0
M  V30 952 H 88.7079 -2.55105 1.56722 0
M  V30 953 H 86.2539 -1.2262 0.754998 0
M  V30 954 H 88.2069 -4.20828 -0.21946 0
M  V30 955 H 86.9309 -3.14846 -0.868319 0
M  V30 956 H 85.5899 -3.44887 1.24293 0
M  V30 957 H 85.2379 -4.98071 -0.702412 0
M  V30 958 H 84.9379 -5.81527 0.842627 0
M  V30 959 H 86.4619 -6.10585 -0.0433671 0
M  V30 960 H 87.8759 -5.33691 2.09396 0
M  V30 961 H 86.2729 -5.26379 2.88176 0
M  V30 962 H 87.3429 -3.85169 2.94572 0
M  V30 963 N 88.686 -0.835752 -1.33615 0
M  V30 964 C 89.633 -0.26473 -2.29277 0
M  V30 965 C 90.603 0.617712 -1.54187 0
M  V30 966 O 91.788 0.556641 -1.825 0
M  V30 967 C 88.928 0.556777 -3.40579 0
M  V30 968 C 88.041 -0.349339 -4.30585 0
M  V30 969 C 87.176 0.482969 -5.29 0
M  V30 970 C 86.215 -0.421732 -6.10645 0
M  V30 971 N 85.352 0.372262 -7.01112 0
M  V30 972 H 90.192 -1.08582 -2.77514 0
M  V30 973 H 87.729 -0.546927 -1.36554 0
M  V30 974 H 89.687 1.04852 -4.03809 0
M  V30 975 H 88.317 1.34286 -2.93542 0
M  V30 976 H 87.369 -0.959372 -3.68104 0
M  V30 977 H 88.681 -1.04445 -4.87742 0
M  V30 978 H 87.835 1.03866 -5.97743 0
M  V30 979 H 86.574 1.21153 -4.72412 0
M  V30 980 H 85.579 -0.989464 -5.40823 0
M  V30 981 H 86.804 -1.14861 -6.69316 0
M  V30 982 H 84.75 1.08426 -6.46977 0
M  V30 983 H 84.667 -0.264198 -7.55538 0
M  V30 984 H 85.935 0.910293 -7.74167 0
M  V30 985 N 90.1641 1.46063 -0.591896 0
M  V30 986 C 91.4131 2.01547 -0.0786637 0
M  V30 987 C 91.7261 1.46796 1.29268 0
M  V30 988 O 92.9321 1.94157 1.89777 0
M  V30 989 C 91.3881 3.59787 -0.0900024 0
M  V30 990 C 90.9961 4.23534 -1.46023 0
M  V30 991 C 92.7401 4.22895 0.368806 0
M  V30 992 C 90.6471 5.73881 -1.4288 0
M  V30 993 H 89.5771 0.753564 -0.0256388 0
M  V30 994 H 92.2281 1.677 -0.744905 0
M  V30 995 H 90.6101 3.90752 0.642586 0
M  V30 996 H 91.7841 4.04167 -2.21328 0
M  V30 997 H 90.0991 3.72558 -1.85982 0
M  V30 998 H 92.6961 5.33116 0.411258 0
M  V30 999 H 93.0391 3.9247 1.38827 0
M  V30 1000 H 93.5721 3.9659 -0.31001 0
M  V30 1001 H 90.3111 6.0898 -2.42536 0
M  V30 1002 H 89.8311 5.95486 -0.718095 0
M  V30 1003 H 91.5101 6.36776 -1.14565 0
M  V30 1004 N 91.6422 0.330177 1.54103 0
M  V30 1005 C 92.8672 -0.274893 2.0557 0
M  V30 1006 C 93.2922 -1.44487 1.20437 0
M  V30 1007 O 92.6502 -1.80021 0.214991 0
M  V30 1008 C 92.6982 -0.68079 3.54115 0
M  V30 1009 O 91.8022 -1.7824 3.71893 0
M  V30 1010 H 91.1432 -0.0483849 0.662235 0
M  V30 1011 H 93.6732 0.480508 1.98878 0
M  V30 1012 H 93.6832 -0.961635 3.96505 0
M  V30 1013 H 92.3582 0.174903 4.15532 0
M  V30 1014 H 90.9352 -1.49985 3.41407 0
M  V30 1015 N 93.1203 -1.57491 0.0584922 0
M  V30 1016 C 94.0523 -2.08916 -0.942694 0
M  V30 1017 C 95.0653 -1.0185 -1.27006 0
M  V30 1018 O 96.2543 -1.29398 -1.22957 0
M  V30 1019 C 93.3543 -2.52341 -2.26224 0
M  V30 1020 C 92.5273 -3.82827 -2.1157 0
M  V30 1021 C 91.5863 -4.12487 -3.26712 0
M  V30 1022 O 90.6123 -4.82295 -3.02292 0
M  V30 1023 N 91.8143 -3.64978 -4.5141 0
M  V30 1024 H 94.5793 -2.95437 -0.503722 0
M  V30 1025 H 92.1403 -1.61397 -0.12757 0
M  V30 1026 H 94.1323 -2.69254 -3.02133 0
M  V30 1027 H 92.7023 -1.7103 -2.61663 0
M  V30 1028 H 91.9223 -3.75425 -1.20208 0
M  V30 1029 H 93.2103 -4.68263 -1.99015 0
M  V30 1030 H 92.6083 -3.08558 -4.7414 0
M  V30 1031 H 91.1653 -3.87115 -5.2439 0
M  V30 1032 N 94.5984 0.214957 -1.56127 0
M  V30 1033 C 95.5284 1.2695 -1.95974 0
M  V30 1034 C 96.5094 1.48539 -0.828868 0
M  V30 1035 O 97.6944 1.60611 -1.09168 0
M  V30 1036 C 94.8244 2.61794 -2.28214 0
M  V30 1037 C 93.7784 2.54851 -3.43853 0
M  V30 1038 C 93.1044 3.93785 -3.61715 0
M  V30 1039 C 94.4044 2.09065 -4.78632 0
M  V30 1040 H 96.0984 0.93846 -2.84312 0
M  V30 1041 H 93.6444 0.449996 -1.36788 0
M  V30 1042 H 95.5974 3.35731 -2.54682 0
M  V30 1043 H 94.3214 2.96599 -1.36736 0
M  V30 1044 H 92.9804 1.8337 -3.17444 0
M  V30 1045 H 92.6284 4.25908 -2.67602 0
M  V30 1046 H 92.3284 3.90019 -4.39498 0
M  V30 1047 H 93.8524 4.69374 -3.90539 0
M  V30 1048 H 95.2664 2.7275 -5.04262 0
M  V30 1049 H 93.6634 2.16346 -5.59745 0
M  V30 1050 H 94.7334 1.04315 -4.73547 0
M  V30 1051 N 96.0765 1.50051 0.48192 0
M  V30 1052 C 97.3225 1.60736 1.2366 0
M  V30 1053 C 97.6555 0.301786 1.91841 0
M  V30 1054 O 96.9305 -0.696025 1.8162 0
M  V30 1055 C 97.2135 2.78009 2.28874 0
M  V30 1056 C 97.0665 4.18416 1.65069 0
M  V30 1057 C 98.3855 2.90867 3.30279 0
M  V30 1058 H 95.5045 0.585031 0.448228 0
M  V30 1059 H 98.1465 1.82402 0.531946 0
M  V30 1060 H 96.2965 2.59667 2.88973 0
M  V30 1061 H 97.9685 4.48322 1.0865 0
M  V30 1062 H 96.2115 4.23177 0.954148 0
M  V30 1063 H 96.8825 4.96381 2.41474 0
M  V30 1064 H 99.3585 3.07623 2.80191 0
M  V30 1065 H 98.2345 3.74566 4.01238 0
M  V30 1066 H 98.4955 2.01021 3.93755 0
M  V30 1067 N 97.5546 -0.734337 1.39446 0
M  V30 1068 C 98.8316 -1.48579 1.27215 0
M  V30 1069 C 99.2116 -2.1077 -0.117968 0
M  V30 1070 O 98.5596 -1.98646 -1.12924 0
M  V30 1071 C 98.7696 -2.53667 2.39696 0
M  V30 1072 C 100.118 -3.20031 2.79044 0
M  V30 1073 O 101.142 -2.6398 2.39151 0
M  V30 1074 O 100.001 -4.21455 3.47905 0
M  V30 1075 H 97.0946 -0.659816 0.49857 0
M  V30 1076 H 99.6406 -0.768106 1.51322 0
M  V30 1077 H 98.4126 -2.06096 3.32626 0
M  V30 1078 H 98.0356 -3.32994 2.17258 0
M  V30 1079 N 99.0327 -1.24633 -0.964593 0
M  V30 1080 C 100.279 -1.08949 -1.71049 0
M  V30 1081 C 100.612 0.370302 -1.90637 0
M  V30 1082 O 99.8867 1.27349 -1.47011 0
M  V30 1083 C 100.17 -1.83329 -3.0994 0
M  V30 1084 C 100.023 -3.37077 -2.97824 0
M  V30 1085 C 101.342 -1.60846 -4.09654 0
M  V30 1086 H 98.4607 -0.397178 -0.620821 0
M  V30 1087 H 101.103 -1.5334 -1.12191 0
M  V30 1088 H 99.2527 -1.45597 -3.60186 0
M  V30 1089 H 100.925 -3.84425 -2.5498 0
M  V30 1090 H 99.1677 -3.65298 -2.33965 0
M  V30 1091 H 99.8387 -3.84324 -3.96231 0
M  V30 1092 H 102.315 -1.93674 -3.68279 0
M  V30 1093 H 101.191 -2.1534 -5.04896 0
M  V30 1094 H 101.452 -0.547434 -4.38698 0
M  V30 1095 N 100.511 1.16574 -1.06058 0
M  V30 1096 C 101.788 1.83048 -0.689416 0
M  V30 1097 C 102.168 1.94122 0.829443 0
M  V30 1098 O 101.516 1.48249 1.7388 0
M  V30 1099 C 101.726 3.20186 -1.38859 0
M  V30 1100 C 103.074 3.95989 -1.53226 0
M  V30 1101 O 104.098 3.29696 -1.3483 0
M  V30 1102 O 102.957 5.14813 -1.83384 0
M  V30 1103 H 100.051 0.790258 -0.243764 0
M  V30 1104 H 102.597 1.23797 -1.16071 0
M  V30 1105 H 101.369 3.07146 -2.4244 0
M  V30 1106 H 100.992 3.87112 -0.907216 0
M  V30 1107 N 101.989 0.842826 1.3317 0
M  V30 1108 C 102.899 0.281444 2.32906 0
M  V30 1109 C 103.915 -0.594587 1.63526 0
M  V30 1110 O 105.091 -0.49777 1.95152 0
M  V30 1111 C 102.156 -0.530929 3.42611 0
M  V30 1112 C 101.217 0.369843 4.27704 0
M  V30 1113 C 100.45 -0.403853 5.3217 0
M  V30 1114 O 100.673 -1.63513 5.46461 0
M  V30 1115 O 99.6069 0.224199 6.01482 0
M  V30 1116 H 103.433 1.10744 2.82789 0
M  V30 1117 H 101.018 0.60545 1.36582 0
M  V30 1118 H 102.9 -0.992437 4.09547 0
M  V30 1119 H 101.575 -1.33392 2.94938 0
M  V30 1120 H 100.482 0.879275 3.6362 0
M  V30 1121 H 101.815 1.13771 4.78871 0
M  V30 1122 N 103.467 -1.45747 0.599634 0
M  V30 1123 C 104.414 -2.30467 -0.123849 0
M  V30 1124 C 105.384 -1.41632 -0.86774 0
M  V30 1125 O 106.569 -1.70568 -0.855056 0
M  V30 1126 C 103.709 -3.26402 -1.12051 0
M  V30 1127 C 102.822 -4.3034 -0.37832 0
M  V30 1128 C 101.957 -5.13389 -1.364 0
M  V30 1129 C 100.996 -6.09061 -0.609171 0
M  V30 1130 N 100.133 -6.84918 -1.54374 0
M  V30 1131 H 104.973 -2.91802 0.604627 0
M  V30 1132 H 102.51 -1.43797 0.309972 0
M  V30 1133 H 104.468 -3.80482 -1.7114 0
M  V30 1134 H 103.098 -2.66839 -1.8165 0
M  V30 1135 H 102.15 -3.78984 0.327929 0
M  V30 1136 H 103.462 -4.98354 0.210997 0
M  V30 1137 H 102.616 -5.7183 -2.02719 0
M  V30 1138 H 101.355 -4.45376 -1.98725 0
M  V30 1139 H 100.36 -5.49758 0.0676979 0
M  V30 1140 H 101.585 -6.79099 0.00891991 0
M  V30 1141 H 99.531 -6.19601 -2.15478 0
M  V30 1142 H 99.448 -7.49254 -1.00766 0
M  V30 1143 H 100.716 -7.47906 -2.19676 0
M  V30 1144 N 104.945 -0.338344 -1.53925 0
M  V30 1145 C 105.893 0.536231 -2.26335 0
M  V30 1146 C 106.887 1.1063 -1.28286 0
M  V30 1147 O 108.093 1.05264 -1.46012 0
M  V30 1148 H 104.468 0.191602 -0.727181 0
M  V30 1149 H 106.439 -0.0965747 -2.98244 0
M  V30 1150 C 105.188 1.67803 -3.04528 0
M  V30 1151 H 104.511 1.24864 -3.79801 0
M  V30 1152 H 105.951 2.26526 -3.58416 0
M  V30 1153 C 104.41 2.60439 -2.13712 0
M  V30 1154 O 104.94 3.6255 -1.72975 0
M  V30 1155 N 103.146 2.29006 -1.78898 0
M  V30 1156 H 102.693 1.46011 -2.12223 0
M  V30 1157 H 102.651 2.91248 -1.18416 0
M  V30 1158 N 106.423 1.57458 -0.0668435 0
M  V30 1159 C 107.355 2.09413 0.931601 0
M  V30 1160 C 108.368 1.02522 1.26464 0
M  V30 1161 O 109.557 1.30049 1.22269 0
M  V30 1162 C 106.657 2.53537 2.24882 0
M  V30 1163 C 105.83 3.83944 2.09537 0
M  V30 1164 C 104.889 4.14214 3.2452 0
M  V30 1165 O 103.915 4.83891 2.9973 0
M  V30 1166 N 105.117 3.67367 4.49469 0
M  V30 1167 H 107.882 2.95699 0.488048 0
M  V30 1168 H 105.443 1.61462 0.119009 0
M  V30 1169 H 107.435 2.70853 3.00701 0
M  V30 1170 H 106.005 1.72415 2.60753 0
M  V30 1171 H 105.225 3.76057 1.18215 0
M  V30 1172 H 106.513 4.69312 1.96529 0
M  V30 1173 H 105.911 3.11068 4.72497 0
M  V30 1174 H 104.468 3.89891 5.2233 0
M  V30 1175 N 107.901 -0.206675 1.56239 0
M  V30 1176 C 108.831 -1.25909 1.96645 0
M  V30 1177 C 109.812 -1.48097 0.836734 0
M  V30 1178 O 110.997 -1.6003 1.10019 0
M  V30 1179 C 108.127 -2.6058 2.29599 0
M  V30 1180 C 107.081 -2.53024 3.452 0
M  V30 1181 C 106.407 -3.91861 3.63798 0
M  V30 1182 C 107.707 -2.06524 4.79734 0
M  V30 1183 H 109.401 -0.923369 2.84806 0
M  V30 1184 H 106.947 -0.442735 1.37025 0
M  V30 1185 H 108.9 -3.34375 2.56459 0
M  V30 1186 H 107.624 -2.95869 1.38307 0
M  V30 1187 H 106.283 -1.81684 3.18412 0
M  V30 1188 H 105.931 -4.24483 2.69857 0
M  V30 1189 H 105.631 -3.87683 4.4156 0
M  V30 1190 H 107.155 -4.67296 3.93022 0
M  V30 1191 H 108.569 -2.70072 5.05702 0
M  V30 1192 H 106.966 -2.13374 5.60885 0
M  V30 1193 H 108.036 -1.01802 4.74093 0
M  V30 1194 N 109.379 -1.50304 -0.473955 0
M  V30 1195 C 110.312 -1.63595 -1.59097 0
M  V30 1196 C 111.29 -0.484142 -1.55225 0
M  V30 1197 O 112.474 -0.703271 -1.7489 0
M  V30 1198 C 109.601 -1.61589 -2.97669 0
M  V30 1199 C 108.647 -2.82295 -3.19705 0
M  V30 1200 S 109.48 -4.43635 -2.99913 0
M  V30 1201 C 110.636 -4.44317 -4.40832 0
M  V30 1202 H 110.869 -2.58082 -1.47583 0
M  V30 1203 H 108.402 -1.39531 -0.661087 0
M  V30 1204 H 110.36 -1.61116 -3.7756 0
M  V30 1205 H 109.021 -0.683421 -3.06575 0
M  V30 1206 H 108.214 -2.77188 -4.20931 0
M  V30 1207 H 107.816 -2.8032 -2.47582 0
M  V30 1208 H 110.108 -4.17703 -5.33414 0
M  V30 1209 H 111.051 -5.45911 -4.50984 0
M  V30 1210 H 111.459 -3.74059 -4.22777 0
M  V30 1211 N 110.857 0.726932 -1.39834 0
M  V30 1212 C 112.085 1.51613 -1.40787 0
M  V30 1213 C 112.5 1.88799 -0.00451505 0
M  V30 1214 O 111.857 1.54662 0.968809 0
M  V30 1215 C 111.908 2.79863 -2.28821 0
M  V30 1216 O 111.629 2.44253 -3.63692 0
M  V30 1217 C 113.13 3.73837 -2.38245 0
M  V30 1218 H 110.35 0.468264 -0.480593 0
M  V30 1219 H 112.894 0.897607 -1.83748 0
M  V30 1220 H 111.049 3.38027 -1.89252 0
M  V30 1221 H 111.463 3.26695 -4.1033 0
M  V30 1222 H 112.937 4.60699 -3.04073 0
M  V30 1223 H 113.414 4.16153 -1.40403 0
M  V30 1224 H 114.02 3.21589 -2.78317 0
M  V30 1225 N 112.336 1.25143 0.95797 0
M  V30 1226 C 113.564 1.12424 1.73691 0
M  V30 1227 C 113.979 -0.322304 1.86029 0
M  V30 1228 O 113.336 -1.22186 1.35561 0
M  V30 1229 C 113.387 1.76933 3.15241 0
M  V30 1230 O 113.108 3.15932 3.03511 0
M  V30 1231 C 114.609 1.6995 4.09429 0
M  V30 1232 H 111.829 0.3923 0.544373 0
M  V30 1233 H 114.373 1.6544 1.20207 0
M  V30 1234 H 112.528 1.27895 3.6568 0
M  V30 1235 H 112.942 3.47598 3.9278 0
M  V30 1236 H 114.416 2.19753 5.06372 0
M  V30 1237 H 114.893 0.662619 4.34173 0
M  V30 1238 H 115.499 2.18461 3.64904 0
M  V30 1239 N 113.814 -1.1601 1.06675 0
M  V30 1240 C 114.762 -2.22586 0.675157 0
M  V30 1241 C 115.756 -1.66525 -0.310766 0
M  V30 1242 O 116.962 -1.79145 -0.175215 0
M  V30 1243 H 113.337 -0.724855 0.200223 0
M  V30 1244 H 115.308 -2.52899 1.58381 0
M  V30 1245 C 114.057 -3.47604 0.0817162 0
M  V30 1246 H 113.38 -3.91058 0.831484 0
M  V30 1247 H 114.82 -4.23718 -0.154708 0
M  V30 1248 C 113.279 -3.15718 -1.17576 0
M  V30 1249 O 113.809 -3.31878 -2.26318 0
M  V30 1250 N 112.015 -2.69816 -1.07923 0
M  V30 1251 H 111.562 -2.56866 -0.194293 0
M  V30 1252 H 111.52 -2.48855 -1.92141 0
M  V30 1253 N 115.292 -0.849877 -1.32721 0
M  V30 1254 C 116.538 -0.451591 -1.97708 0
M  V30 1255 C 116.871 0.989175 -1.6712 0
M  V30 1256 O 116.146 1.69334 -0.956891 0
M  V30 1257 C 116.429 -0.685598 -3.53513 0
M  V30 1258 C 116.282 -2.17444 -3.93749 0
M  V30 1259 C 117.601 -0.138874 -4.39881 0
M  V30 1260 H 114.72 -0.16555 -0.718166 0
M  V30 1261 H 117.362 -1.06742 -1.57182 0
M  V30 1262 H 115.512 -0.161416 -3.88165 0
M  V30 1263 H 117.184 -2.76433 -3.693 0
M  V30 1264 H 115.427 -2.65476 -3.43081 0
M  V30 1265 H 116.098 -2.28888 -5.02309 0
M  V30 1266 H 118.574 -0.587068 -4.11938 0
M  V30 1267 H 117.45 -0.332213 -5.47894 0
M  V30 1268 H 117.711 0.95806 -4.31594 0
M  V30 1269 N 116.77 1.45427 -0.607355 0
M  V30 1270 C 118.016 2.03097 -0.111035 0
M  V30 1271 C 118.371 1.46735 1.24445 0
M  V30 1272 O 117.664 0.632478 1.8086 0
M  V30 1273 C 117.858 3.57398 -0.0129263 0
M  V30 1274 C 117.687 4.28726 -1.35735 0
M  V30 1275 C 116.457 4.66659 -1.93798 0
M  V30 1276 C 118.655 4.60699 -2.28607 0
M  V30 1277 N 116.637 5.22845 -3.21723 0
M  V30 1278 C 118.008 5.17716 -3.41131 0
M  V30 1279 C 120.063 4.42638 -2.27982 0
M  V30 1280 C 118.766 5.58576 -4.53194 0
M  V30 1281 C 120.792 4.84531 -3.39093 0
M  V30 1282 C 120.154 5.4164 -4.50339 0
M  V30 1283 H 116.253 0.777476 -0.083994 0
M  V30 1284 H 118.837 1.77249 -0.805655 0
M  V30 1285 H 117.008 3.82907 0.650914 0
M  V30 1286 H 118.74 4.01722 0.490033 0
M  V30 1287 H 115.495 4.50207 -1.47007 0
M  V30 1288 H 115.919 5.55438 -3.87063 0
M  V30 1289 H 120.561 3.97798 -1.43235 0
M  V30 1290 H 118.279 6.02382 -5.38667 0
M  V30 1291 H 121.865 4.72289 -3.39757 0
M  V30 1292 H 120.745 5.73461 -5.34895 0
M  V30 1293 N 118.248 0.346503 1.53744 0
M  V30 1294 C 119.178 -0.501193 2.28058 0
M  V30 1295 C 120.159 -1.10014 1.29734 0
M  V30 1296 O 121.344 -1.12097 1.58581 0
M  V30 1297 C 118.474 -1.65078 3.05559 0
M  V30 1298 C 117.428 -1.18003 4.11411 0
M  V30 1299 C 116.754 -2.41837 4.76884 0
M  V30 1300 C 118.054 -0.278394 5.21558 0
M  V30 1301 H 119.748 0.11875 2.99164 0
M  V30 1302 H 117.294 0.0585531 1.43881 0
M  V30 1303 H 119.247 -2.25028 3.56287 0
M  V30 1304 H 117.971 -2.29767 2.32109 0
M  V30 1305 H 116.63 -0.603331 3.61601 0
M  V30 1306 H 116.278 -3.0494 4.00026 0
M  V30 1307 H 115.978 -2.1102 5.48402 0
M  V30 1308 H 117.502 -3.02508 5.30397 0
M  V30 1309 H 118.916 -0.784823 5.67903 0
M  V30 1310 H 117.313 -0.0619707 6.00068 0
M  V30 1311 H 118.383 0.684677 4.80042 0
M  V30 1312 N 119.726 -1.57421 0.075193 0
M  V30 1313 C 120.673 -2.12915 -0.890843 0
M  V30 1314 C 121.643 -1.04252 -1.29309 0
M  V30 1315 O 122.828 -1.31933 -1.37834 0
M  V30 1316 C 119.968 -2.69795 -2.15186 0
M  V30 1317 C 119.081 -3.92624 -1.80194 0
M  V30 1318 C 118.216 -4.37736 -3.00933 0
M  V30 1319 C 117.255 -5.53205 -2.61974 0
M  V30 1320 N 116.392 -5.9326 -3.75483 0
M  V30 1321 H 121.232 -2.95156 -0.410735 0
M  V30 1322 H 118.769 -1.45854 -0.191086 0
M  V30 1323 H 120.727 -3.00883 -2.89008 0
M  V30 1324 H 119.357 -1.90313 -2.60731 0
M  V30 1325 H 118.409 -3.67977 -0.964218 0
M  V30 1326 H 119.721 -4.76482 -1.47534 0
M  V30 1327 H 118.875 -4.70503 -3.8303 0
M  V30 1328 H 117.614 -3.52739 -3.36789 0
M  V30 1329 H 116.619 -5.20086 -1.783 0
M  V30 1330 H 117.844 -6.39936 -2.27284 0
M  V30 1331 H 115.79 -5.11212 -4.11094 0
M  V30 1332 H 115.707 -6.71865 -3.46602 0
M  V30 1333 H 116.975 -6.30651 -4.58148 0
M  V30 1334 N 121.204 0.198386 -1.56346 0
M  V30 1335 C 122.136 1.26987 -1.90806 0
M  V30 1336 C 123.149 1.41877 -0.798419 0
M  V30 1337 O 124.338 1.42362 -1.07682 0
M  V30 1338 C 121.438 2.64246 -2.12196 0
M  V30 1339 C 120.611 2.71007 -3.43328 0
M  V30 1340 C 119.67 3.89439 -3.5387 0
M  V30 1341 O 118.696 3.76695 -4.26719 0
M  V30 1342 N 119.898 5.04752 -2.86715 0
M  V30 1343 H 122.663 0.977433 -2.83313 0
M  V30 1344 H 120.224 0.388322 -1.57174 0
M  V30 1345 H 122.216 3.41896 -2.1654 0
M  V30 1346 H 120.786 2.85992 -1.26204 0
M  V30 1347 H 120.006 1.79657 -3.50881 0
M  V30 1348 H 121.294 2.72512 -4.29668 0
M  V30 1349 H 120.692 5.18004 -2.2735 0
M  V30 1350 H 119.249 5.8036 -2.96691 0
M  V30 1351 N 122.682 1.50554 0.465978 0
M  V30 1352 C 123.592 1.72585 1.58907 0
M  V30 1353 C 124.608 0.60911 1.6299 0
M  V30 1354 O 125.784 0.88804 1.80765 0
M  V30 1355 C 122.849 1.81995 2.95091 0
M  V30 1356 C 121.91 3.05751 3.01355 0
M  V30 1357 C 121.143 3.14702 4.31043 0
M  V30 1358 O 121.366 2.30313 5.21835 0
M  V30 1359 O 120.3 4.07468 4.43005 0
M  V30 1360 H 124.126 2.67799 1.43239 0
M  V30 1361 H 121.711 1.34711 0.646013 0
M  V30 1362 H 123.593 1.90335 3.75966 0
M  V30 1363 H 122.268 0.899659 3.10947 0
M  V30 1364 H 121.175 3.02908 2.19539 0
M  V30 1365 H 122.508 3.97375 2.90437 0
M  V30 1366 N 124.16 -0.719506 1.40217 0
M  V30 1367 C 125.406 -1.48034 1.39491 0
M  V30 1368 C 125.761 -1.92399 -0.00443536 0
M  V30 1369 O 125.054 -1.64993 -0.974061 0
M  V30 1370 C 125.248 -2.72271 2.31524 0
M  V30 1371 C 125.077 -2.40055 3.80268 0
M  V30 1372 C 123.847 -2.31588 4.49105 0
M  V30 1373 C 126.045 -2.04581 4.71859 0
M  V30 1374 N 124.027 -1.92006 5.83101 0
M  V30 1375 C 125.398 -1.75568 5.94623 0
M  V30 1376 C 127.453 -1.91183 4.59732 0
M  V30 1377 C 126.156 -1.34505 7.06612 0
M  V30 1378 C 128.182 -1.51524 5.71659 0
M  V30 1379 C 127.544 -1.23406 6.93506 0
M  V30 1380 H 123.643 -0.539927 0.565688 0
M  V30 1381 H 126.227 -0.834764 1.75897 0
M  V30 1382 H 124.398 -3.34584 1.97251 0
M  V30 1383 H 126.13 -3.38584 2.21682 0
M  V30 1384 H 122.885 -2.49199 4.02737 0
M  V30 1385 H 123.309 -1.74764 6.54054 0
M  V30 1386 H 127.951 -2.11584 3.66049 0
M  V30 1387 H 125.669 -1.12846 8.00182 0
M  V30 1388 H 129.255 -1.41741 5.6427 0
M  V30 1389 H 128.135 -0.931788 7.78645 0
M  V30 1390 N 125.638 -1.25649 -0.95132 0
M  V30 1391 C 126.866 -1.13343 -1.73092 0
M  V30 1392 C 127.281 0.312434 -1.86197 0
M  V30 1393 O 126.638 1.21465 -1.36207 0
M  V30 1394 C 126.689 -1.78602 -3.14299 0
M  V30 1395 O 126.41 -3.17537 -3.01831 0
M  V30 1396 C 127.911 -1.72119 -4.08522 0
M  V30 1397 H 125.131 -0.395181 -0.542285 0
M  V30 1398 H 127.675 -1.66076 -1.19328 0
M  V30 1399 H 125.83 -1.29832 -3.64996 0
M  V30 1400 H 126.244 -3.49676 -3.90931 0
M  V30 1401 H 127.718 -2.22435 -5.052 0
M  V30 1402 H 128.195 -0.685635 -4.33815 0
M  V30 1403 H 128.801 -2.20393 -3.63741 0
M  V30 1404 N 127.117 1.15442 -1.07289 0
M  V30 1405 C 128.394 1.82306 -0.708792 0
M  V30 1406 C 128.774 1.94991 0.808807 0
M  V30 1407 O 128.122 1.50085 1.72298 0
M  V30 1408 C 128.332 3.18695 -1.42247 0
M  V30 1409 C 129.68 3.94341 -1.57417 0
M  V30 1410 O 130.704 3.28247 -1.38319 0
M  V30 1411 O 129.563 5.12839 -1.88834 0
M  V30 1412 H 126.657 0.787628 -0.252132 0
M  V30 1413 H 129.203 1.22559 -1.17377 0
M  V30 1414 H 127.975 3.04557 -2.45684 0
M  V30 1415 H 127.598 3.86128 -0.948223 0
M  V30 1416 N 128.595 0.856903 1.32268 0
M  V30 1417 C 129.545 0.274899 2.26337 0
M  V30 1418 C 130.529 -0.580543 1.50062 0
M  V30 1419 O 131.721 -0.429559 1.71708 0
M  V30 1420 C 128.85 -0.533841 3.39124 0
M  V30 1421 C 127.936 0.334114 4.22782 0
M  V30 1422 N 128.327 1.42143 4.85416 0
M  V30 1423 C 126.625 0.124256 4.45827 0
M  V30 1424 C 127.326 1.95559 5.47843 0
M  V30 1425 N 126.302 1.25444 5.28928 0
M  V30 1426 H 130.104 1.10612 2.72291 0
M  V30 1427 H 127.618 0.703258 1.46383 0
M  V30 1428 H 129.615 -0.96722 4.05525 0
M  V30 1429 H 128.275 -1.36283 2.94715 0
M  V30 1430 H 129.286 1.80436 4.85451 0
M  V30 1431 H 125.963 -0.669837 4.12092 0
M  V30 1432 H 127.353 2.86714 6.07655 0
M  V30 1433 N 130.073 -1.45103 0.615059 0
M  V30 1434 C 131.02 -2.30586 -0.0993978 0
M  V30 1435 C 131.99 -1.42544 -0.852669 0
M  V30 1436 O 133.175 -1.71465 -0.836917 0
M  V30 1437 C 130.315 -3.27572 -1.08583 0
M  V30 1438 C 129.428 -4.30717 -0.332656 0
M  V30 1439 C 128.563 -5.14807 -1.30947 0
M  V30 1440 C 127.602 -6.09673 -0.544538 0
M  V30 1441 N 126.739 -6.86517 -1.47101 0
M  V30 1442 H 131.579 -2.91144 0.635542 0
M  V30 1443 H 129.116 -1.4346 0.325206 0
M  V30 1444 H 131.074 -3.82276 -1.67095 0
M  V30 1445 H 129.704 -2.68751 -1.78809 0
M  V30 1446 H 128.756 -3.78615 0.368107 0
M  V30 1447 H 130.068 -4.98102 0.263842 0
M  V30 1448 H 129.222 -5.73948 -1.96643 0
M  V30 1449 H 127.961 -4.47458 -1.9399 0
M  V30 1450 H 126.966 -5.49656 0.126003 0
M  V30 1451 H 128.191 -6.79052 0.080947 0
M  V30 1452 H 126.137 -6.21851 -2.08895 0
M  V30 1453 H 126.054 -7.50281 -0.928137 0
M  V30 1454 H 127.322 -7.50194 -2.11731 0
M  V30 1455 N 131.551 -0.354651 -1.53558 0
M  V30 1456 C 132.481 0.489091 -2.2832 0
M  V30 1457 C 133.462 1.09324 -1.30316 0
M  V30 1458 O 134.647 1.11255 -1.59173 0
M  V30 1459 C 131.777 1.63456 -3.0643 0
M  V30 1460 C 130.731 1.1582 -4.12031 0
M  V30 1461 C 130.057 2.39305 -4.7816 0
M  V30 1462 C 131.357 0.250731 -5.21698 0
M  V30 1463 H 133.051 -0.134614 -2.99097 0
M  V30 1464 H 130.597 -0.0661826 -1.43848 0
M  V30 1465 H 132.55 2.23136 -3.57475 0
M  V30 1466 H 131.274 2.28533 -2.33325 0
M  V30 1467 H 129.933 0.584146 -3.61916 0
M  V30 1468 H 129.581 3.02814 -4.01637 0
M  V30 1469 H 129.281 2.08109 -5.49513 0
M  V30 1470 H 130.805 2.99691 -5.31994 0
M  V30 1471 H 132.219 0.754695 -5.68311 0
M  V30 1472 H 130.616 0.0301468 -6.00092 0
M  V30 1473 H 131.686 -0.710125 -4.79672 0
M  V30 1474 N 133.029 1.57378 -0.0835403 0
M  V30 1475 C 134.445 1.57246 0.273109 0
M  V30 1476 C 134.645 1.09385 1.69225 0
M  V30 1477 O 133.701 0.765051 2.40631 0
M  V30 1478 C 135.014 3.00614 0.0720628 0
M  V30 1479 C 136.562 3.12684 0.1407 0
M  V30 1480 C 137.037 4.57989 -0.0322094 0
M  V30 1481 N 138.528 4.63194 0.0230085 0
M  V30 1482 C 139.263 5.73335 -0.0861941 0
M  V30 1483 N 138.759 6.9235 -0.24958 0
M  V30 1484 N 140.552 5.62093 -0.0282886 0
M  V30 1485 H 132.703 1.86801 -1.0109 0
M  V30 1486 H 134.966 0.861687 -0.395222 0
M  V30 1487 H 134.672 3.39786 -0.907662 0
M  V30 1488 H 134.546 3.68193 0.81936 0
M  V30 1489 H 136.933 2.73391 1.11092 0
M  V30 1490 H 137.014 2.47719 -0.637896 0
M  V30 1491 H 136.658 4.97973 -0.999247 0
M  V30 1492 H 136.588 5.21 0.765937 0
M  V30 1493 H 139.079 3.77613 0.14722 0
M  V30 1494 H 139.392 7.72117 -0.324733 0
M  V30 1495 H 137.737 6.94415 -0.285097 0
M  V30 1496 H 140.928 4.67997 0.0981408 0
M  V30 1497 H 141.101 6.47895 -0.116845 0
M  V30 1498 N 134.507 -0.190092 1.56449 0
M  V30 1499 C 135.753 -0.906472 1.82084 0
M  V30 1500 C 136.108 -1.80677 0.661335 0
M  V30 1501 O 135.401 -1.88501 -0.343237 0
M  V30 1502 C 135.595 -1.75382 3.1141 0
M  V30 1503 C 135.424 -0.937053 4.39829 0
M  V30 1504 C 134.194 -0.619507 5.01488 0
M  V30 1505 C 136.392 -0.2874 5.13496 0
M  V30 1506 N 134.374 0.215367 6.13522 0
M  V30 1507 C 135.745 0.409454 6.18646 0
M  V30 1508 C 137.8 -0.203639 4.97483 0
M  V30 1509 C 136.503 1.1821 7.0952 0
M  V30 1510 C 138.529 0.555622 5.88784 0
M  V30 1511 C 137.891 1.24091 6.93384 0
M  V30 1512 H 133.99 -0.310931 0.717528 0
M  V30 1513 H 136.574 -0.174821 1.93914 0
M  V30 1514 H 134.745 -2.45703 3.00806 0
M  V30 1515 H 136.477 -2.41006 3.25112 0
M  V30 1516 H 133.232 -0.945126 4.64074 0
M  V30 1517 H 133.656 0.622562 6.74131 0
M  V30 1518 H 138.298 -0.719099 4.1664 0
M  V30 1519 H 136.016 1.70897 7.89823 0
M  V30 1520 H 139.602 0.621854 5.78467 0
M  V30 1521 H 138.482 1.81901 7.62812 0
M  V30 1522 N 135.985 -1.50799 -0.457987 0
M  V30 1523 C 136.933 -1.71162 -1.575 0
M  V30 1524 C 137.927 -0.577592 -1.59249 0
M  V30 1525 O 139.133 -0.758443 -1.63241 0
M  V30 1526 H 135.508 -0.540468 -0.522875 0
M  V30 1527 H 137.479 -2.64837 -1.37492 0
M  V30 1528 C 136.228 -1.83496 -2.95338 0
M  V30 1529 H 135.551 -2.70153 -2.94716 0
M  V30 1530 H 136.991 -2.01765 -3.72917 0
M  V30 1531 C 135.45 -0.589694 -3.31699 0
M  V30 1532 O 135.98 0.265163 -4.00824 0
M  V30 1533 N 134.186 -0.439845 -2.87252 0
M  V30 1534 H 133.733 -1.13655 -2.31172 0
M  V30 1535 H 133.691 0.392159 -3.11945 0
M  V30 1536 N 137.463 0.71206 -1.40597 0
M  V30 1537 C 138.874 1.29135 -1.34837 0
M  V30 1538 C 139.225 1.96186 -0.0235395 0
M  V30 1539 O 138.35 1.97768 0.878444 0
M  V30 1540 C 138.945 2.34827 -2.44217 0
M  V30 1541 C 137.504 2.88371 -2.41907 0
M  V30 1542 C 136.651 1.62202 -2.24913 0
M  V30 1543 H 139.602 0.507944 -1.50352 0
M  V30 1544 H 139.623 3.15749 -2.12327 0
M  V30 1545 H 139.135 1.85996 -3.40627 0
M  V30 1546 H 137.236 3.41422 -1.49204 0
M  V30 1547 H 137.349 3.39925 -3.37621 0
M  V30 1548 H 135.713 1.874 -1.72492 0
M  V30 1549 H 136.496 1.15391 -3.23326 0
M  V30 1550 N 138.941 1.26152 0.944643 0
M  V30 1551 C 140.218 1.02247 1.66748 0
M  V30 1552 C 140.598 -0.448202 2.06287 0
M  V30 1553 O 139.946 -1.42779 1.78399 0
M  V30 1554 C 140.156 1.96788 2.88228 0
M  V30 1555 C 141.504 2.25201 3.59958 0
M  V30 1556 O 142.528 1.94626 2.98327 0
M  V30 1557 O 141.387 2.77242 4.70956 0
M  V30 1558 H 138.481 0.388517 0.730057 0
M  V30 1559 H 141.027 1.37348 0.99668 0
M  V30 1560 H 139.799 2.96047 2.55875 0
M  V30 1561 H 139.422 1.62145 3.63035 0
M  V30 1562 N 140.419 -1.14872 1.07899 0
M  V30 1563 C 141.696 -1.81928 0.71845 0
M  V30 1564 C 142.076 -1.95417 -0.798455 0
M  V30 1565 O 141.424 -1.50997 -1.715 0
M  V30 1566 C 141.634 -3.17937 1.43935 0
M  V30 1567 C 142.982 -3.93501 1.59506 0
M  V30 1568 O 144.006 -3.27509 1.40058 0
M  V30 1569 O 142.865 -5.1183 1.91551 0
M  V30 1570 H 139.959 -0.78628 0.256305 0
M  V30 1571 H 142.505 -1.21934 1.18026 0
M  V30 1572 H 141.277 -3.0325 2.47295 0
M  V30 1573 H 140.9 -3.85619 0.968687 0
M  V30 1574 N 141.898 -0.863906 -1.31812 0
M  V30 1575 C 143.128 -0.485406 -2.00817 0
M  V30 1576 C 143.536 0.925007 -1.65046 0
M  V30 1577 O 142.879 1.61653 -0.872574 0
M  V30 1578 C 142.941 -0.555589 -3.55181 0
M  V30 1579 C 142.605 -1.92654 -4.14407 0
M  V30 1580 C 143.602 -2.89324 -4.31958 0
M  V30 1581 C 141.287 -2.2262 -4.50273 0
M  V30 1582 C 143.281 -4.14108 -4.84555 0
M  V30 1583 C 140.968 -3.47654 -5.02573 0
M  V30 1584 C 141.966 -4.43214 -5.19664 0
M  V30 1585 O 141.654 -5.66033 -5.70843 0
M  V30 1586 H 141.386 -0.188224 -0.649267 0
M  V30 1587 H 143.94 -1.16514 -1.69156 0
M  V30 1588 H 142.17 0.181037 -3.86276 0
M  V30 1589 H 143.859 -0.19138 -4.05449 0
M  V30 1590 H 144.625 -2.6748 -4.04573 0
M  V30 1591 H 140.504 -1.4902 -4.3625 0
M  V30 1592 H 144.048 -4.88703 -4.9781 0
M  V30 1593 H 139.945 -3.69345 -5.29391 0
M  V30 1594 H 140.713 -5.6812 -5.89222 0
M  V30 1595 N 143.376 1.44774 -0.622745 0
M  V30 1596 C 144.624 2.01721 -0.123655 0
M  V30 1597 C 144.945 1.49172 1.25589 0
M  V30 1598 O 144.215 0.691974 1.83272 0
M  V30 1599 H 142.795 0.745777 -0.0427225 0
M  V30 1600 H 145.457 1.77382 -0.807559 0
M  V30 1601 H 144.553 3.11984 -0.0849534 0
M  V30 1602 N 144.854 0.36279 1.53368 0
M  V30 1603 C 146.102 -0.227326 2.00817 0
M  V30 1604 C 146.423 -1.49511 1.25186 0
M  V30 1605 O 145.693 -1.92482 0.364348 0
M  V30 1606 H 144.273 -0.0869923 0.741917 0
M  V30 1607 H 146.935 0.488381 1.88682 0
M  V30 1608 H 146.031 -0.456273 3.08747 0
M  V30 1609 N 146.332 -1.57332 0.0918853 0
M  V30 1610 C 147.581 -1.93412 -0.572249 0
M  V30 1611 C 147.894 -0.975515 -1.69538 0
M  V30 1612 O 149.1 -1.22991 -2.42045 0
M  V30 1613 C 147.556 -3.43648 -1.0693 0
M  V30 1614 C 147.164 -4.47994 0.0239049 0
M  V30 1615 C 148.908 -3.88695 -1.70635 0
M  V30 1616 C 146.815 -5.89381 -0.488319 0
M  V30 1617 H 145.745 -0.721939 -0.217532 0
M  V30 1618 H 148.396 -1.82735 0.167369 0
M  V30 1619 H 146.778 -3.49466 -1.8625 0
M  V30 1620 H 147.952 -4.53815 0.799277 0
M  V30 1621 H 146.267 -4.12536 0.565946 0
M  V30 1622 H 148.864 -4.91725 -2.10025 0
M  V30 1623 H 149.207 -3.27166 -2.57426 0
M  V30 1624 H 149.74 -3.85564 -0.979023 0
M  V30 1625 H 146.479 -6.54602 0.342906 0
M  V30 1626 H 145.999 -5.87037 -1.23077 0
M  V30 1627 H 147.678 -6.39863 -0.958317 0
M  V30 1628 N 147.81 0.181792 -1.56548 0
M  V30 1629 C 148.76 1.22961 -1.92002 0
M  V30 1630 C 149.744 1.40331 -0.787146 0
M  V30 1631 O 150.936 1.42478 -1.05019 0
M  V30 1632 C 148.065 2.57144 -2.27446 0
M  V30 1633 C 147.151 2.43512 -3.47222 0
M  V30 1634 N 147.542 1.99577 -4.64761 0
M  V30 1635 C 145.84 2.74368 -3.51622 0
M  V30 1636 C 146.541 1.98156 -5.46909 0
M  V30 1637 N 145.517 2.40164 -4.8767 0
M  V30 1638 H 149.319 0.881462 -2.8037 0
M  V30 1639 H 146.833 0.390141 -1.57644 0
M  V30 1640 H 148.83 3.32847 -2.51035 0
M  V30 1641 H 147.49 2.92771 -1.40411 0
M  V30 1642 H 148.501 1.70078 -4.89177 0
M  V30 1643 H 145.178 3.14102 -2.75038 0
M  V30 1644 H 146.568 1.65975 -6.51077 0
M  V30 1645 N 149.288 1.51039 0.449983 0
M  V30 1646 C 150.513 1.6715 1.22783 0
M  V30 1647 C 150.938 0.363081 1.84563 0
M  V30 1648 O 150.296 -0.675433 1.68249 0
M  V30 1649 C 150.344 2.77985 2.29689 0
M  V30 1650 O 149.448 2.40707 3.34864 0
M  V30 1651 H 148.789 0.557746 0.360299 0
M  V30 1652 H 151.319 1.97535 0.533005 0
M  V30 1653 H 151.329 3.01693 2.74673 0
M  V30 1654 H 150.004 3.72935 1.84098 0
M  V30 1655 H 148.581 2.27523 2.95445 0
M  V30 1656 N 150.766 -0.704594 1.40972 0
M  V30 1657 C 152.015 -1.46018 1.39146 0
M  V30 1658 C 152.328 -1.956 0.000589254 0
M  V30 1659 O 153.534 -2.71137 -0.1403 0
M  V30 1660 C 151.99 -2.63996 2.4461 0
M  V30 1661 C 151.598 -2.21238 3.89561 0
M  V30 1662 C 153.342 -3.41677 2.51907 0
M  V30 1663 C 151.249 -3.3612 4.86598 0
M  V30 1664 H 150.179 -0.548444 0.517422 0
M  V30 1665 H 152.83 -0.765784 1.66757 0
M  V30 1666 H 151.212 -3.3566 2.10115 0
M  V30 1667 H 152.386 -1.56923 4.33257 0
M  V30 1668 H 150.701 -1.56574 3.85841 0
M  V30 1669 H 153.298 -4.27182 3.2159 0
M  V30 1670 H 153.641 -3.86247 1.55303 0
M  V30 1671 H 154.174 -2.77064 2.85448 0
M  V30 1672 H 150.913 -2.96572 5.84573 0
M  V30 1673 H 150.433 -3.99315 4.47557 0
M  V30 1674 H 152.112 -4.02029 5.06934 0
M  V30 1675 N 152.244 -1.26651 -0.937939 0
M  V30 1676 C 153.191 -1.0849 -2.03712 0
M  V30 1677 C 154.161 0.011033 -1.66096 0
M  V30 1678 O 155.346 -0.149353 -1.90215 0
M  V30 1679 C 152.486 -0.72735 -3.37348 0
M  V30 1680 C 151.599 -1.89986 -3.87981 0
M  V30 1681 C 150.734 -1.48513 -5.10017 0
M  V30 1682 C 149.773 -2.62575 -5.5292 0
M  V30 1683 N 148.91 -2.21762 -6.66158 0
M  V30 1684 H 153.75 -2.02551 -2.18579 0
M  V30 1685 H 151.287 -1.00844 -1.07093 0
M  V30 1686 H 153.245 -0.50092 -4.14182 0
M  V30 1687 H 151.875 0.176298 -3.22318 0
M  V30 1688 H 150.927 -2.23913 -3.07518 0
M  V30 1689 H 152.239 -2.75586 -4.15757 0
M  V30 1690 H 151.393 -1.21934 -5.94321 0
M  V30 1691 H 150.132 -0.60009 -4.83994 0
M  V30 1692 H 149.137 -2.8988 -4.67172 0
M  V30 1693 H 150.362 -3.51685 -5.80943 0
M  V30 1694 H 148.308 -1.35696 -6.41812 0
M  V30 1695 H 148.225 -3.00903 -6.93537 0
M  V30 1696 H 149.493 -1.98403 -7.53828 0
M  V30 1697 N 153.722 1.14298 -1.08507 0
M  V30 1698 C 154.968 1.85633 -0.816581 0
M  V30 1699 C 155.301 1.82784 0.656021 0
M  V30 1700 O 154.576 1.25926 1.48233 0
M  V30 1701 C 154.859 3.34223 -1.34041 0
M  V30 1702 C 154.712 3.45639 -2.87843 0
M  V30 1703 C 156.031 4.29356 -0.9665 0
M  V30 1704 H 153.15 0.67402 -0.298104 0
M  V30 1705 H 155.792 1.34214 -1.34487 0
M  V30 1706 H 153.942 3.78144 -0.89104 0
M  V30 1707 H 155.614 3.10498 -3.41158 0
M  V30 1708 H 153.857 2.86817 -3.25451 0
M  V30 1709 H 154.528 4.50089 -3.19569 0
M  V30 1710 H 157.004 3.93457 -1.35391 0
M  V30 1711 H 155.88 5.3178 -1.3602 0
M  V30 1712 H 156.141 4.41919 0.126362 0
M  V30 1713 N 155.201 0.870884 1.31352 0
M  V30 1714 C 156.612 0.534714 1.78879 0
M  V30 1715 C 156.963 -0.948423 1.71754 0
M  V30 1716 O 156.088 -1.74055 1.28584 0
M  V30 1717 C 156.683 0.963839 3.24801 0
M  V30 1718 C 155.242 0.679311 3.70219 0
M  V30 1719 C 154.389 1.15465 2.52117 0
M  V30 1720 H 157.34 1.05651 1.18421 0
M  V30 1721 H 157.361 0.286892 3.79417 0
M  V30 1722 H 156.873 2.04332 3.29955 0
M  V30 1723 H 154.974 -0.388769 3.70566 0
M  V30 1724 H 155.087 1.25698 4.62317 0
M  V30 1725 H 153.451 0.574383 2.48139 0
M  V30 1726 H 154.234 2.24157 2.60016 0
M  V30 1727 N 156.679 -1.44442 0.630414 0
M  V30 1728 C 157.904 -2.06927 0.139944 0
M  V30 1729 C 158.329 -1.46795 -1.17613 0
M  V30 1730 O 157.687 -0.569144 -1.72135 0
M  V30 1731 C 157.735 -3.6058 0.0379581 0
M  V30 1732 O 156.839 -3.99937 -1.0062 0
M  V30 1733 H 156.18 -0.658608 0.0844483 0
M  V30 1734 H 158.71 -1.85327 0.866891 0
M  V30 1735 H 158.72 -4.07714 -0.152856 0
M  V30 1736 H 157.395 -4.03728 0.998809 0
M  V30 1737 H 155.972 -3.64436 -0.79001 0
M  V30 1738 N 158.157 -0.370918 -1.53173 0
M  V30 1739 C 159.067 0.480823 -2.2962 0
M  V30 1740 C 160.083 1.08789 -1.35798 0
M  V30 1741 O 161.259 1.09768 -1.68858 0
M  V30 1742 C 158.324 1.60227 -3.07454 0
M  V30 1743 C 157.385 1.0222 -4.16953 0
M  V30 1744 C 156.618 2.0902 -4.91066 0
M  V30 1745 O 156.841 3.30222 -4.65091 0
M  V30 1746 O 155.775 1.71778 -5.76867 0
M  V30 1747 H 159.601 -0.141421 -3.03371 0
M  V30 1748 H 157.186 -0.135146 -1.48787 0
M  V30 1749 H 159.068 2.25417 -3.56041 0
M  V30 1750 H 157.743 2.20982 -2.36535 0
M  V30 1751 H 156.65 0.334064 -3.72605 0
M  V30 1752 H 157.983 0.459131 -4.90054 0
M  V30 1753 N 159.635 1.57281 -0.100228 0
M  V30 1754 C 160.86 1.99302 0.573881 0
M  V30 1755 C 161.285 0.979059 1.60611 0
M  V30 1756 O 160.643 -0.0517803 1.81226 0
M  V30 1757 C 160.691 3.40274 1.19358 0
M  V30 1758 O 159.795 3.41676 2.30935 0
M  V30 1759 H 159.136 0.647944 0.145138 0
M  V30 1760 H 161.666 2.03779 -0.183156 0
M  V30 1761 H 161.676 3.78078 1.53365 0
M  V30 1762 H 160.351 4.13594 0.437385 0
M  V30 1763 H 158.928 3.15672 1.98509 0
M  V30 1764 N 161.113 -0.173488 1.56642 0
M  V30 1765 C 162.043 -1.2171 1.99271 0
M  V30 1766 C 163.024 -1.46289 0.867959 0
M  V30 1767 O 164.209 -1.5766 1.13388 0
M  V30 1768 C 161.339 -2.55651 2.35074 0
M  V30 1769 C 160.293 -2.45645 3.50489 0
M  V30 1770 C 159.619 -3.84056 3.72028 0
M  V30 1771 C 160.919 -1.96302 4.84007 0
M  V30 1772 H 162.613 -0.86275 2.867 0
M  V30 1773 H 160.159 -0.413571 1.37933 0
M  V30 1774 H 162.112 -3.2886 2.63494 0
M  V30 1775 H 160.836 -2.92869 1.44552 0
M  V30 1776 H 159.495 -1.7489 3.22194 0
M  V30 1777 H 159.143 -4.18664 2.788 0
M  V30 1778 H 158.843 -3.7823 4.49684 0
M  V30 1779 H 160.367 -4.58854 4.02846 0
M  V30 1780 H 161.781 -2.59284 5.11317 0
M  V30 1781 H 160.178 -2.01429 5.65284 0
M  V30 1782 H 161.248 -0.917226 4.76146 0
M  V30 1783 N 162.591 -1.51276 -0.441967 0
M  V30 1784 C 163.837 -1.6492 -1.1905 0
M  V30 1785 C 164.192 -0.358731 -1.89026 0
M  V30 1786 O 163.485 0.645193 -1.8041 0
M  V30 1787 C 163.679 -2.78746 -2.23686 0
M  V30 1788 C 163.508 -4.18737 -1.63979 0
M  V30 1789 C 162.278 -4.84739 -1.42674 0
M  V30 1790 C 164.476 -5.01988 -1.11858 0
M  V30 1791 N 162.458 -6.08858 -0.785159 0
M  V30 1792 C 163.829 -6.17071 -0.601989 0
M  V30 1793 C 165.884 -4.87551 -1.0099 0
M  V30 1794 C 164.587 -7.19299 0.0126012 0
M  V30 1795 C 166.613 -5.89983 -0.409206 0
M  V30 1796 C 165.975 -7.04333 0.0968651 0
M  V30 1797 H 162.074 -0.657416 -0.423471 0
M  V30 1798 H 164.658 -1.8849 -0.48782 0
M  V30 1799 H 162.829 -2.56848 -2.91348 0
M  V30 1800 H 164.561 -2.81595 -2.90666 0
M  V30 1801 H 161.316 -4.42528 -1.68719 0
M  V30 1802 H 161.74 -6.75282 -0.481942 0
M  V30 1803 H 166.382 -3.99401 -1.38703 0
M  V30 1804 H 164.1 -8.071 0.401879 0
M  V30 1805 H 167.686 -5.8088 -0.327079 0
M  V30 1806 H 166.566 -7.82238 0.554373 0
M  V30 1807 N 164.069 0.697108 -1.41344 0
M  V30 1808 C 164.999 1.82353 -1.45841 0
M  V30 1809 C 165.98 1.67115 -0.317247 0
M  V30 1810 O 167.165 1.86871 -0.528474 0
M  V30 1811 C 164.295 3.20476 -1.33838 0
M  V30 1812 C 163.249 3.50415 -2.4575 0
M  V30 1813 C 162.575 4.87878 -2.18813 0
M  V30 1814 C 163.875 3.49546 -3.88091 0
M  V30 1815 H 165.569 1.78846 -2.40113 0
M  V30 1816 H 163.115 0.859028 -1.15571 0
M  V30 1817 H 165.068 3.98988 -1.35596 0
M  V30 1818 H 163.792 3.24604 -0.360498 0
M  V30 1819 H 162.451 2.74253 -2.43271 0
M  V30 1820 H 162.099 4.8863 -1.19371 0
M  V30 1821 H 161.799 5.08875 -2.93803 0
M  V30 1822 H 163.323 5.68702 -2.22284 0
M  V30 1823 H 164.737 4.18066 -3.92293 0
M  V30 1824 H 163.134 3.82075 -4.62751 0
M  V30 1825 H 164.204 2.48552 -4.16353 0
M  V30 1826 N 165.547 1.27147 0.931209 0
M  V30 1827 C 166.958 1.12044 1.49342 0
M  V30 1828 C 167.309 -0.295795 1.93957 0
M  V30 1829 O 166.434 -1.18835 1.80852 0
M  V30 1830 C 167.029 2.02781 2.71414 0
M  V30 1831 C 165.588 1.91794 3.2387 0
M  V30 1832 C 164.735 1.95543 1.96617 0
M  V30 1833 H 167.686 1.40091 0.745672 0
M  V30 1834 H 167.707 1.58156 3.46074 0
M  V30 1835 H 167.219 3.05848 2.38911 0
M  V30 1836 H 165.32 0.916992 3.6114 0
M  V30 1837 H 165.433 2.77852 3.90302 0
M  V30 1838 H 163.797 1.39722 2.12955 0
M  V30 1839 H 164.58 3.00259 1.66432 0
M  V30 1840 N 167.025 -1.13721 1.09112 0
M  V30 1841 C 168.302 -1.81155 0.737706 0
M  V30 1842 C 168.682 -1.96253 -0.777683 0
M  V30 1843 O 168.03 -1.52807 -1.69889 0
M  V30 1844 C 168.24 -3.16392 1.47299 0
M  V30 1845 C 169.588 -3.91787 1.63671 0
M  V30 1846 O 170.612 -3.26005 1.43524 0
M  V30 1847 O 169.471 -5.0977 1.96969 0
M  V30 1848 H 166.565 -0.783518 0.26463 0
M  V30 1849 H 169.111 -1.20676 1.19312 0
M  V30 1850 H 167.883 -3.0061 2.50498 0
M  V30 1851 H 167.506 -3.8457 1.00953 0
M  V30 1852 N 168.503 -0.877838 -1.30888 0
M  V30 1853 C 169.752 -0.488793 -1.95688 0
M  V30 1854 C 170.065 0.965485 -1.70111 0
M  V30 1855 O 171.271 1.46104 -2.28836 0
M  V30 1856 C 169.727 -0.823201 -3.50359 0
M  V30 1857 C 169.335 -2.29477 -3.84765 0
M  V30 1858 C 171.079 -0.503009 -4.21509 0
M  V30 1859 C 168.986 -2.57118 -5.32583 0
M  V30 1860 H 167.916 -0.179062 -0.732429 0
M  V30 1861 H 170.567 -1.07183 -1.48943 0
M  V30 1862 H 168.949 -0.169331 -3.95638 0
M  V30 1863 H 170.123 -2.99236 -3.5042 0
M  V30 1864 H 168.438 -2.58178 -3.267 0
M  V30 1865 H 171.035 -0.68665 -5.30273 0
M  V30 1866 H 171.378 0.557109 -4.12555 0
M  V30 1867 H 171.911 -1.11376 -3.8189 0
M  V30 1868 H 168.65 -3.61843 -5.4658 0
M  V30 1869 H 168.17 -1.91961 -5.68253 0
M  V30 1870 H 169.849 -2.42251 -5.99936 0
M  V30 1871 N 169.982 1.44106 -0.638065 0
M  V30 1872 C 171.228 2.02277 -0.145546 0
M  V30 1873 C 171.561 1.50125 1.23191 0
M  V30 1874 O 170.836 0.688133 1.8192 0
M  V30 1875 C 171.119 3.59829 -0.139791 0
M  V30 1876 C 170.972 4.22247 -1.55008 0
M  V30 1877 C 172.291 4.36873 0.531966 0
M  V30 1878 H 169.41 0.734992 -0.0543632 0
M  V30 1879 H 172.052 1.71592 -0.815863 0
M  V30 1880 H 170.202 3.86102 0.431007 0
M  V30 1881 H 171.874 4.07057 -2.1703 0
M  V30 1882 H 170.117 3.79476 -2.10191 0
M  V30 1883 H 170.788 5.31284 -1.49804 0
M  V30 1884 H 173.264 4.16074 0.0464781 0
M  V30 1885 H 172.14 5.4657 0.505206 0
M  V30 1886 H 172.401 4.11995 1.60352 0
M  V30 1887 N 171.46 0.379036 1.52974 0
M  V30 1888 C 172.39 -0.452706 2.29069 0
M  V30 1889 C 173.371 -1.07237 1.32039 0
M  V30 1890 O 174.556 -1.08708 1.60923 0
M  V30 1891 C 171.686 -1.5856 3.08992 0
M  V30 1892 C 170.64 -1.0925 4.13822 0
M  V30 1893 C 169.966 -2.31668 4.81907 0
M  V30 1894 C 171.266 -0.167702 5.22031 0
M  V30 1895 H 172.96 0.182181 2.98845 0
M  V30 1896 H 170.506 0.0890592 1.43724 0
M  V30 1897 H 172.459 -2.1742 3.6098 0
M  V30 1898 H 171.183 -2.24792 2.36931 0
M  V30 1899 H 169.842 -0.526494 3.628 0
M  V30 1900 H 169.49 -2.96386 4.06404 0
M  V30 1901 H 169.19 -1.9934 5.52754 0
M  V30 1902 H 170.714 -2.91189 5.36695 0
M  V30 1903 H 172.128 -0.664186 5.6944 0
M  V30 1904 H 170.525 0.0653265 6.00064 0
M  V30 1905 H 171.595 0.786347 4.78482 0
M  V30 1906 N 172.938 -1.57226 0.108567 0
M  V30 1907 C 174.185 -1.94833 -0.551943 0
M  V30 1908 C 174.513 -0.991204 -1.67348 0
M  V30 1909 O 173.768 -0.0131878 -1.95696 0
M  V30 1910 C 174.067 -3.38911 -1.13463 0
M  V30 1911 C 173.733 -4.50696 -0.135509 0
M  V30 1912 C 172.395 -4.80998 0.139252 0
M  V30 1913 C 174.747 -5.18333 0.545957 0
M  V30 1914 C 172.075 -5.76259 1.10194 0
M  V30 1915 C 174.427 -6.14627 1.49721 0
M  V30 1916 C 173.091 -6.43327 1.78006 0
M  V30 1917 H 172.361 -0.712944 -0.20197 0
M  V30 1918 H 175.008 -1.90582 0.18726 0
M  V30 1919 H 173.313 -3.39805 -1.95037 0
M  V30 1920 H 175.01 -3.65317 -1.65362 0
M  V30 1921 H 171.6 -4.27087 -0.359846 0
M  V30 1922 H 175.784 -4.95087 0.346842 0
M  V30 1923 H 171.04 -5.96804 1.32795 0
M  V30 1924 H 175.214 -6.66126 2.03099 0
M  V30 1925 H 172.841 -7.1695 2.52759 0
M  V30 1926 N 174.416 0.165178 -1.56732 0
M  V30 1927 C 175.326 1.22423 -2.00125 0
M  V30 1928 C 176.342 1.48084 -0.913619 0
M  V30 1929 O 177.518 1.60112 -1.22172 0
M  V30 1930 C 174.583 2.54197 -2.35764 0
M  V30 1931 C 173.644 2.36343 -3.58386 0
M  V30 1932 C 172.877 3.61834 -3.92316 0
M  V30 1933 O 173.1 4.67267 -3.27135 0
M  V30 1934 O 172.034 3.55579 -4.85641 0
M  V30 1935 H 175.86 0.885886 -2.90492 0
M  V30 1936 H 173.445 0.372518 -1.44681 0
M  V30 1937 H 175.327 3.3192 -2.59629 0
M  V30 1938 H 174.002 2.87598 -1.48557 0
M  V30 1939 H 172.909 1.56632 -3.39731 0
M  V30 1940 H 174.242 2.07865 -4.46154 0
M  V30 1941 N 175.894 1.51508 0.433938 0
M  V30 1942 C 176.842 1.73646 1.54757 0
M  V30 1943 C 177.836 0.602854 1.5831 0
M  V30 1944 O 179.042 0.784318 1.62014 0
M  V30 1945 H 175.417 0.548718 0.51421 0
M  V30 1946 H 177.388 2.66991 1.33261 0
M  V30 1947 C 176.137 1.88172 2.92381 0
M  V30 1948 H 175.46 2.74808 2.90381 0
M  V30 1949 H 176.9 2.07672 3.6966 0
M  V30 1950 C 175.359 0.64239 3.30719 0
M  V30 1951 O 175.889 -0.201362 4.01195 0
M  V30 1952 N 174.095 0.485489 2.86516 0
M  V30 1953 H 173.642 1.17318 2.29334 0
M  V30 1954 H 173.6 -0.342482 3.12529 0
M  V30 1955 N 177.372 -0.689602 1.41712 0
M  V30 1956 C 178.335 -1.78521 1.43746 0
M  V30 1957 C 179.335 -1.57436 0.327191 0
M  V30 1958 O 180.525 -1.64 0.587348 0
M  V30 1959 C 177.657 -3.16971 1.25467 0
M  V30 1960 H 178.85 -1.78108 2.41283 0
M  V30 1961 H 176.403 -0.89781 1.27942 0
M  V30 1962 H 177.138 -3.23019 0.287948 0
M  V30 1963 H 176.923 -3.33678 2.05917 0
M  V30 1964 H 178.413 -3.96935 1.2974 0
M  V30 1965 N 178.85 -1.27639 -0.924453 0
M  V30 1966 C 180.127 -1.04887 -1.651 0
M  V30 1967 C 180.507 0.415327 -2.06974 0
M  V30 1968 O 179.855 1.39923 -1.80648 0
M  V30 1969 C 180.065 -2.01348 -2.85061 0
M  V30 1970 C 181.413 -2.30899 -3.56329 0
M  V30 1971 O 182.437 -1.99348 -2.95193 0
M  V30 1972 O 181.296 -2.84699 -4.66485 0
M  V30 1973 H 178.39 -0.400083 -0.723784 0
M  V30 1974 H 180.936 -1.38916 -0.974703 0
M  V30 1975 H 179.708 -3.0008 -2.51133 0
M  V30 1976 H 179.331 -1.679 -3.6041 0
M  V30 1977 N 180.328 1.1314 -1.09713 0
M  V30 1978 C 181.576 1.84119 -0.833338 0
M  V30 1979 C 181.897 1.84097 0.642904 0
M  V30 1980 O 181.167 1.29881 1.46655 0
M  V30 1981 H 179.747 0.681766 -0.305293 0
M  V30 1982 H 182.409 1.37038 -1.38588 0
M  V30 1983 H 181.505 2.88543 -1.18951 0
M  V30 1984 N 181.806 0.884767 1.30421 0
M  V30 1985 C 183.222 0.57874 1.48737 0
M  V30 1986 C 183.422 -0.883567 1.81095 0
M  V30 1987 O 182.478 -1.6648 1.89844 0
M  V30 1988 C 183.791 1.49171 2.61091 0
M  V30 1989 C 185.339 1.49532 2.74971 0
M  V30 1990 C 185.814 2.39421 3.90438 0
M  V30 1991 N 187.305 2.37383 3.97748 0
M  V30 1992 C 188.04 3.03647 4.86401 0
M  V30 1993 N 187.536 3.79136 5.79852 0
M  V30 1994 N 189.329 2.9288 4.79768 0
M  V30 1995 H 181.48 1.83075 1.0769 0
M  V30 1996 H 183.743 0.783637 0.533495 0
M  V30 1997 H 183.449 2.53291 2.44001 0
M  V30 1998 H 183.323 1.20113 3.57565 0
M  V30 1999 H 185.71 0.46163 2.91467 0
M  V30 2000 H 185.791 1.8262 1.79119 0
M  V30 2001 H 185.435 3.42874 3.74699 0
M  V30 2002 H 185.365 2.03649 4.85628 0
M  V30 2003 H 187.856 1.82525 3.30897 0
M  V30 2004 H 188.169 4.26789 6.4426 0
M  V30 2005 H 186.514 3.83243 5.79784 0
M  V30 2006 H 189.705 2.33433 4.05742 0
M  V30 2007 H 189.878 3.448 5.4865 0
M  V30 2008 N 183.284 -1.43765 0.645699 0
M  V30 2009 C 184.531 -2.01898 0.15604 0
M  V30 2010 C 184.859 -1.50887 -1.22733 0
M  V30 2011 O 184.114 -0.689271 -1.8316 0
M  V30 2012 C 184.413 -3.57238 0.107679 0
M  V30 2013 C 184.079 -4.27564 1.43178 0
M  V30 2014 C 182.741 -4.46492 1.7944 0
M  V30 2015 C 185.093 -4.67454 2.30513 0
M  V30 2016 C 182.421 -5.02573 3.02716 0
M  V30 2017 C 184.773 -5.24901 3.53074 0
M  V30 2018 C 183.437 -5.42046 3.89541 0
M  V30 2019 H 182.707 -0.738797 0.057099 0
M  V30 2020 H 185.354 -1.72341 0.834912 0
M  V30 2021 H 183.659 -3.86293 -0.654618 0
M  V30 2022 H 185.356 -3.99965 -0.287938 0
M  V30 2023 H 181.946 -4.13171 1.13963 0
M  V30 2024 H 186.13 -4.5253 2.0379 0
M  V30 2025 H 181.386 -5.14033 3.31028 0
M  V30 2026 H 185.56 -5.54758 4.20971 0
M  V30 2027 H 183.187 -5.85268 4.85145 0
M  V30 2028 N 184.763 -0.387143 -1.52771 0
M  V30 2029 C 185.673 0.456442 -2.30117 0
M  V30 2030 C 186.689 1.07342 -1.36944 0
M  V30 2031 O 187.865 1.07971 -1.70013 0
M  V30 2032 C 184.93 1.56957 -3.09136 0
M  V30 2033 C 183.991 0.977916 -4.18014 0
M  V30 2034 C 183.224 2.038 -4.93256 0
M  V30 2035 O 183.447 3.25271 -4.68567 0
M  V30 2036 O 182.381 1.6565 -5.78657 0
M  V30 2037 H 186.207 -0.17359 -3.03203 0
M  V30 2038 H 183.792 -0.150919 -1.48636 0
M  V30 2039 H 185.674 2.21628 -3.58412 0
M  V30 2040 H 184.349 2.18461 -2.38865 0
M  V30 2041 H 183.256 0.294525 -3.72939 0
M  V30 2042 H 184.589 0.407128 -4.90513 0
M  V30 2043 N 186.241 1.57166 -0.116904 0
M  V30 2044 C 187.489 1.94737 0.540533 0
M  V30 2045 C 187.81 1.00096 1.67349 0
M  V30 2046 O 187.08 0.0568854 1.95817 0
M  V30 2047 H 185.66 0.718981 0.202669 0
M  V30 2048 H 188.322 1.94017 -0.185353 0
M  V30 2049 H 187.418 2.97719 0.936483 0
M  V30 2050 N 187.719 -0.156864 1.56817 0
M  V30 2051 C 188.944 -0.890331 1.87318 0
M  V30 2052 C 189.369 -1.74394 0.704855 0
M  V30 2053 O 188.727 -1.77972 -0.345786 0
M  V30 2054 C 188.775 -1.73102 3.16336 0
M  V30 2055 O 187.879 -2.83422 2.99576 0
M  V30 2056 H 187.22 -0.24857 0.615718 0
M  V30 2057 H 189.75 -0.150649 2.04045 0
M  V30 2058 H 189.76 -2.12803 3.48107 0
M  V30 2059 H 188.435 -1.10412 4.00976 0
M  V30 2060 H 187.012 -2.47199 2.7919 0
M  V30 2061 N 189.197 -1.51736 -0.425897 0
M  V30 2062 C 190.127 -1.76827 -1.52494 0
M  V30 2063 C 191.108 -0.618524 -1.58456 0
M  V30 2064 O 192.293 -0.862416 -1.74 0
M  V30 2065 C 189.423 -1.90374 -2.90474 0
M  V30 2066 C 188.377 -3.0588 -2.99369 0
M  V30 2067 C 187.703 -3.04625 -4.3944 0
M  V30 2068 C 189.003 -4.45644 -2.72394 0
M  V30 2069 H 190.697 -2.68855 -1.31748 0
M  V30 2070 H 188.243 -1.29372 -0.632362 0
M  V30 2071 H 190.196 -2.0651 -3.6733 0
M  V30 2072 H 188.92 -0.95004 -3.12477 0
M  V30 2073 H 187.579 -2.89467 -2.24954 0
M  V30 2074 H 187.227 -2.0701 -4.58428 0
M  V30 2075 H 186.927 -3.82195 -4.46319 0
M  V30 2076 H 188.451 -3.22869 -5.18255 0
M  V30 2077 H 189.865 -4.62348 -3.38979 0
M  V30 2078 H 188.262 -5.25006 -2.9067 0
M  V30 2079 H 189.332 -4.54893 -1.67929 0
M  V30 2080 N 190.675 0.682077 -1.42076 0
M  V30 2081 C 191.608 1.80666 -1.3941 0
M  V30 2082 C 192.586 1.60518 -0.25939 0
M  V30 2083 O 193.77 1.83088 -0.448456 0
M  V30 2084 C 190.897 3.17556 -1.17796 0
M  V30 2085 C 189.943 3.56468 -2.34164 0
M  V30 2086 S 190.776 3.59729 -3.96681 0
M  V30 2087 C 191.932 4.99323 -3.77395 0
M  V30 2088 H 192.165 1.82652 -2.34575 0
M  V30 2089 H 189.698 0.852062 -1.2876 0
M  V30 2090 H 191.656 3.96575 -1.06012 0
M  V30 2091 H 190.317 3.13164 -0.242279 0
M  V30 2092 H 189.51 4.5595 -2.1477 0
M  V30 2093 H 189.112 2.84792 -2.42425 0
M  V30 2094 H 191.404 5.87202 -3.37935 0
M  V30 2095 H 192.347 5.23763 -4.76527 0
M  V30 2096 H 192.755 4.71498 -3.10403 0
M  V30 2097 N 192.153 1.28127 0.917671 0
M  V30 2098 C 193.381 1.17892 1.70026 0
M  V30 2099 C 193.796 -0.262958 1.8696 0
M  V30 2100 O 193.153 -1.17811 1.3938 0
M  V30 2101 C 193.204 1.86872 3.09453 0
M  V30 2102 O 192.925 3.25428 2.93306 0
M  V30 2103 C 194.426 1.8289 4.03815 0
M  V30 2104 H 191.646 0.40942 0.531617 0
M  V30 2105 H 194.19 1.69181 1.14883 0
M  V30 2106 H 192.345 1.39464 3.61426 0
M  V30 2107 H 192.759 3.59918 3.81523 0
M  V30 2108 H 194.233 2.35751 4.99125 0
M  V30 2109 H 194.71 0.800412 4.31845 0
M  V30 2110 H 195.316 2.29959 3.57769 0
M  V30 2111 N 193.631 -1.12557 1.10312 0
M  V30 2112 C 194.578 -2.18247 0.750781 0
M  V30 2113 C 195.548 -1.63853 -0.272293 0
M  V30 2114 O 196.733 -1.90195 -0.151862 0
M  V30 2115 C 193.873 -3.44591 0.187379 0
M  V30 2116 C 192.986 -4.13046 1.2656 0
M  V30 2117 C 192.121 -5.27034 0.663978 0
M  V30 2118 C 191.16 -5.87353 1.72287 0
M  V30 2119 N 190.297 -6.92757 1.1416 0
M  V30 2120 H 195.137 -2.47732 1.65628 0
M  V30 2121 H 192.674 -1.21629 0.827337 0
M  V30 2122 H 194.632 -4.16904 -0.157148 0
M  V30 2123 H 193.262 -3.15527 -0.681355 0
M  V30 2124 H 192.314 -3.38924 1.72727 0
M  V30 2125 H 193.626 -4.53947 2.06721 0
M  V30 2126 H 192.78 -6.06104 0.268824 0
M  V30 2127 H 191.519 -4.87407 -0.169082 0
M  V30 2128 H 190.524 -5.06971 2.12746 0
M  V30 2129 H 191.749 -6.29051 2.55875 0
M  V30 2130 H 189.695 -6.5517 0.329984 0
M  V30 2131 H 189.612 -7.3225 1.88007 0
M  V30 2132 H 190.88 -7.75658 0.772956 0
M  V30 2133 N 195.109 -0.891671 -1.2995 0
M  V30 2134 C 196.355 -0.514261 -1.96171 0
M  V30 2135 C 196.688 0.935506 -1.70182 0
M  V30 2136 O 195.963 1.66204 -1.01028 0
M  V30 2137 C 196.246 -0.797719 -3.51153 0
M  V30 2138 C 196.099 -2.2986 -3.86632 0
M  V30 2139 C 197.418 -0.278749 -4.39216 0
M  V30 2140 H 194.537 -0.188314 -0.712535 0
M  V30 2141 H 197.179 -1.11689 -1.53706 0
M  V30 2142 H 195.329 -0.284826 -3.87455 0
M  V30 2143 H 197.001 -2.88042 -3.60319 0
M  V30 2144 H 195.244 -2.76257 -3.34462 0
M  V30 2145 H 195.915 -2.44753 -4.94773 0
M  V30 2146 H 198.391 -0.717825 -4.09862 0
M  V30 2147 H 197.267 -0.506353 -5.46559 0
M  V30 2148 H 197.528 0.820266 -4.34424 0
M  V30 2149 N 196.587 1.43421 -0.653314 0
M  V30 2150 C 197.836 2.01032 -0.164076 0
M  V30 2151 C 198.149 1.52147 1.22926 0
M  V30 2152 O 199.355 2.02031 1.81371 0
M  V30 2153 C 197.811 3.59082 -0.24252 0
M  V30 2154 C 197.419 4.1696 -1.63855 0
M  V30 2155 C 199.163 4.24079 0.18911 0
M  V30 2156 C 197.07 5.67304 -1.67092 0
M  V30 2157 H 196 0.751798 -0.0575769 0
M  V30 2158 H 198.651 1.6439 -0.815362 0
M  V30 2159 H 197.033 3.93125 0.476276 0
M  V30 2160 H 198.207 3.94416 -2.38271 0
M  V30 2161 H 196.522 3.64335 -2.01616 0
M  V30 2162 H 199.119 5.34381 0.184775 0
M  V30 2163 H 199.462 3.98005 1.22056 0
M  V30 2164 H 199.995 3.94918 -0.477938 0
M  V30 2165 H 196.734 5.98145 -2.68146 0
M  V30 2166 H 196.254 5.91904 -0.970014 0
M  V30 2167 H 197.933 6.31344 -1.4147 0
M  V30 2168 N 198.065 0.39524 1.52563 0
M  V30 2169 C 199.311 -0.185318 2.01952 0
M  V30 2170 C 199.644 -1.45964 1.28095 0
M  V30 2171 O 198.919 -1.90689 0.38315 0
M  V30 2172 C 199.202 -0.447193 3.57312 0
M  V30 2173 C 199.055 0.842828 4.41833 0
M  V30 2174 C 200.374 -1.23529 4.22408 0
M  V30 2175 H 197.493 -0.0658788 0.73405 0
M  V30 2176 H 200.135 0.525975 1.82575 0
M  V30 2177 H 198.285 -1.05312 3.73954 0
M  V30 2178 H 199.957 1.4795 4.36931 0
M  V30 2179 H 198.2 1.45686 4.08605 0
M  V30 2180 H 198.871 0.614165 5.48573 0
M  V30 2181 H 201.347 -0.722445 4.0978 0
M  V30 2182 H 200.223 -1.38727 5.3108 0
M  V30 2183 H 200.484 -2.25213 3.80436 0
M  V30 2184 N 199.544 -1.57102 0.125237 0
M  V30 2185 C 200.491 -2.15641 -0.822655 0
M  V30 2186 C 201.461 -1.08313 -1.25927 0
M  V30 2187 O 202.646 -1.36251 -1.33567 0
M  V30 2188 C 199.786 -2.76504 -2.06494 0
M  V30 2189 C 198.899 -3.98158 -1.67612 0
M  V30 2190 C 198.034 -4.47088 -2.86854 0
M  V30 2191 C 197.073 -5.6126 -2.44242 0
M  V30 2192 N 196.21 -6.04905 -3.56419 0
M  V30 2193 H 201.05 -2.96313 -0.316625 0
M  V30 2194 H 198.587 -1.46388 -0.144588 0
M  V30 2195 H 200.545 -3.09925 -2.79289 0
M  V30 2196 H 199.175 -1.98512 -2.54545 0
M  V30 2197 H 198.227 -3.70858 -0.846661 0
M  V30 2198 H 199.539 -4.80934 -1.32301 0
M  V30 2199 H 198.693 -4.82451 -3.67867 0
M  V30 2200 H 197.432 -3.63275 -3.25396 0
M  V30 2201 H 196.437 -5.25495 -1.61663 0
M  V30 2202 H 197.662 -6.46843 -2.0681 0
M  V30 2203 H 195.608 -5.24032 -3.94623 0
M  V30 2204 H 195.525 -6.82552 -3.25051 0
M  V30 2205 H 196.793 -6.44907 -4.37853 0
M  V30 2206 N 201.022 0.148545 -1.56898 0
M  V30 2207 C 202.247 0.880385 -1.87787 0
M  V30 2208 C 202.672 1.74018 -0.714093 0
M  V30 2209 O 202.03 1.78153 0.336343 0
M  V30 2210 C 202.078 1.71422 -3.17249 0
M  V30 2211 O 201.182 2.8183 -3.01074 0
M  V30 2212 H 200.523 0.245301 -0.617028 0
M  V30 2213 H 203.053 0.139826 -2.04122 0
M  V30 2214 H 203.063 2.10954 -3.49231 0
M  V30 2215 H 201.738 1.08284 -4.01556 0
M  V30 2216 H 200.315 2.45715 -2.80497 0
M  V30 2217 N 202.5 1.5196 0.417844 0
M  V30 2218 C 203.448 1.75278 1.52907 0
M  V30 2219 C 204.442 0.619611 1.57662 0
M  V30 2220 O 205.648 0.801457 1.61173 0
M  V30 2221 H 202.023 0.554141 0.508362 0
M  V30 2222 H 203.994 2.68389 1.30422 0
M  V30 2223 C 202.743 1.91262 2.90369 0
M  V30 2224 H 202.066 2.77872 2.8745 0
M  V30 2225 H 203.506 2.11581 3.67436 0
M  V30 2226 C 201.965 0.677431 3.30019 0
M  V30 2227 O 202.495 -0.158799 4.01386 0
M  V30 2228 N 200.701 0.515851 2.85985 0
M  V30 2229 H 200.248 1.19744 2.28077 0
M  V30 2230 H 200.206 -0.309315 3.12875 0
M  V30 2231 N 203.978 -0.674533 1.42435 0
M  V30 2232 C 205.226 -1.43175 1.42637 0
M  V30 2233 C 205.547 -1.94951 0.0438992 0
M  V30 2234 O 204.817 -1.7308 -0.917607 0
M  V30 2235 H 203.397 -0.531307 0.525092 0
M  V30 2236 H 206.059 -0.797006 1.77859 0
M  V30 2237 H 205.155 -2.28463 2.12629 0
M  V30 2238 N 205.456 -1.28612 -0.910864 0
M  V30 2239 C 206.684 -1.18792 -1.69399 0
M  V30 2240 C 207.099 0.253039 -1.87097 0
M  V30 2241 O 206.456 1.17071 -1.40003 0
M  V30 2242 C 206.507 -1.88511 -3.08457 0
M  V30 2243 O 206.228 -3.26979 -2.91576 0
M  V30 2244 C 207.729 -1.85029 -4.02839 0
M  V30 2245 H 204.949 -0.412233 -0.529438 0
M  V30 2246 H 207.493 -1.69788 -1.13984 0
M  V30 2247 H 205.648 -1.41379 -3.60681 0
M  V30 2248 H 206.062 -3.61936 -3.79608 0
M  V30 2249 H 207.536 -2.38395 -4.97867 0
M  V30 2250 H 208.013 -0.823303 -4.31414 0
M  V30 2251 H 208.619 -2.31853 -3.56545 0
M  V30 2252 N 206.934 1.1197 -1.10907 0
M  V30 2253 C 208.18 1.8386 -0.855773 0
M  V30 2254 C 208.513 1.84134 0.617103 0
M  V30 2255 O 207.788 1.29041 1.45529 0
M  V30 2256 C 208.071 3.31305 -1.411 0
M  V30 2257 C 207.924 3.39456 -2.9511 0
M  V30 2258 C 209.243 4.2721 -1.05736 0
M  V30 2259 H 206.362 0.667545 -0.312334 0
M  V30 2260 H 209.004 1.31331 -1.37303 0
M  V30 2261 H 207.154 3.76169 -0.97105 0
M  V30 2262 H 208.826 3.03191 -3.47668 0
M  V30 2263 H 207.069 2.79849 -3.31462 0
M  V30 2264 H 207.74 4.43209 -3.29044 0
M  V30 2265 H 210.216 3.90497 -1.43706 0
M  V30 2266 H 209.092 5.28775 -1.47269 0
M  V30 2267 H 209.353 4.42088 0.0325958 0
M  V30 2268 N 208.412 0.89855 1.29475 0
M  V30 2269 C 209.658 0.524658 1.95896 0
M  V30 2270 C 209.991 -0.926468 1.70676 0
M  V30 2271 O 209.266 -1.65665 1.01908 0
M  V30 2272 C 209.549 0.81633 3.50725 0
M  V30 2273 C 209.402 2.31907 3.85408 0
M  V30 2274 C 210.721 0.302038 4.39062 0
M  V30 2275 H 207.84 0.19209 0.711527 0
M  V30 2276 H 210.482 1.12502 1.53112 0
M  V30 2277 H 208.632 0.305369 3.87298 0
M  V30 2278 H 210.304 2.89949 3.58786 0
M  V30 2279 H 208.547 2.78027 3.32992 0
M  V30 2280 H 209.218 2.47373 4.93468 0
M  V30 2281 H 211.694 0.739551 4.09475 0
M  V30 2282 H 210.57 0.535331 5.46283 0
M  V30 2283 H 210.831 -0.797216 4.34853 0
M  V30 2284 N 209.89 -1.43072 0.660911 0
M  V30 2285 C 211.136 -2.02545 0.186337 0
M  V30 2286 C 211.491 -1.51253 -1.18913 0
M  V30 2287 O 210.784 -0.699167 -1.78388 0
M  V30 2288 C 210.978 -3.57103 0.145563 0
M  V30 2289 C 210.807 -4.23393 1.51554 0
M  V30 2290 C 209.577 -4.59144 2.10984 0
M  V30 2291 C 211.775 -4.51897 2.45548 0
M  V30 2292 N 209.757 -5.10545 3.40907 0
M  V30 2293 C 211.128 -5.04698 3.6011 0
M  V30 2294 C 213.183 -4.33872 2.44253 0
M  V30 2295 C 211.886 -5.41371 4.73613 0
M  V30 2296 C 213.912 -4.71612 3.56842 0
M  V30 2297 C 213.274 -5.24553 4.70131 0
M  V30 2298 H 209.373 -0.773823 0.112792 0
M  V30 2299 H 211.957 -1.74137 0.870885 0
M  V30 2300 H 210.128 -3.85059 -0.508353 0
M  V30 2301 H 211.86 -4.03264 -0.340598 0
M  V30 2302 H 208.615 -4.4444 1.63615 0
M  V30 2303 H 209.039 -5.40689 4.07411 0
M  V30 2304 H 213.681 -3.92208 1.579 0
M  V30 2305 H 211.399 -5.81975 5.60652 0
M  V30 2306 H 214.985 -4.59354 3.57051 0
M  V30 2307 H 213.865 -5.53213 5.5581 0
M  V30 2308 N 211.368 -0.403325 -1.52352 0
M  V30 2309 C 212.596 0.174012 -2.06167 0
M  V30 2310 C 213.011 1.39347 -1.27388 0
M  V30 2311 O 212.368 1.79597 -0.324201 0
M  V30 2312 C 212.419 0.530223 -3.5759 0
M  V30 2313 O 212.14 -0.640806 -4.33388 0
M  V30 2314 C 213.641 1.16192 -4.27802 0
M  V30 2315 H 210.861 0.0229464 -0.670608 0
M  V30 2316 H 213.405 -0.572604 -1.9632 0
M  V30 2317 H 211.56 1.22673 -3.67464 0
M  V30 2318 H 211.974 -0.344851 -5.23365 0
M  V30 2319 H 213.448 1.36141 -5.34948 0
M  V30 2320 H 213.925 2.13335 -3.83907 0
M  V30 2321 H 214.531 0.505775 -4.22282 0
M  V30 2322 N 212.846 1.57033 -0.133567 0
M  V30 2323 C 214.257 1.82593 0.389464 0
M  V30 2324 C 214.608 1.05156 1.6564 0
M  V30 2325 O 213.733 0.292644 2.14412 0
M  V30 2326 C 214.328 3.31204 0.713377 0
M  V30 2327 C 212.887 3.57393 1.18098 0
M  V30 2328 C 212.034 2.76598 0.197126 0
M  V30 2329 H 214.985 1.54598 -0.358481 0
M  V30 2330 H 215.006 3.46627 1.56939 0
M  V30 2331 H 214.518 3.87537 -0.2089 0
M  V30 2332 H 212.619 3.06433 2.11966 0
M  V30 2333 H 212.732 4.65915 1.11624 0
M  V30 2334 H 211.096 2.45257 0.687088 0
M  V30 2335 H 211.879 3.35697 -0.718504 0
M  V30 2336 N 214.325 -0.140222 1.56975 0
M  V30 2337 C 215.736 -0.699596 1.73097 0
M  V30 2338 C 216.087 -1.8134 0.749022 0
M  V30 2339 O 215.212 -2.16241 -0.0828503 0
M  V30 2340 C 215.807 -1.27582 3.1386 0
M  V30 2341 C 214.366 -1.78169 3.31561 0
M  V30 2342 C 213.513 -0.672855 2.69013 0
M  V30 2343 H 216.464 0.0855115 1.58469 0
M  V30 2344 H 216.485 -2.14561 3.14235 0
M  V30 2345 H 215.997 -0.464955 3.85305 0
M  V30 2346 H 214.098 -2.61801 2.65124 0
M  V30 2347 H 214.211 -1.90574 4.39566 0
M  V30 2348 H 212.575 -1.10118 2.29665 0
M  V30 2349 H 213.358 0.126679 3.43066 0
M  V30 2350 N 215.803 -1.52179 -0.40978 0
M  V30 2351 C 216.766 -1.74853 -1.48186 0
M  V30 2352 C 217.766 -0.618417 -1.48433 0
M  V30 2353 O 218.956 -0.886286 -1.49969 0
M  V30 2354 C 216.088 -1.8303 -2.87598 0
M  V30 2355 H 217.281 -2.70559 -1.29374 0
M  V30 2356 H 214.834 -1.42586 -0.640233 0
M  V30 2357 H 215.569 -0.89236 -3.11781 0
M  V30 2358 H 215.354 -2.65187 -2.88822 0
M  V30 2359 H 216.844 -2.02316 -3.65319 0
M  V30 2360 N 217.281 0.66697 -1.42791 0
M  V30 2361 C 218.506 1.46004 -1.47301 0
M  V30 2362 C 218.931 1.87894 -0.0880317 0
M  V30 2363 O 218.289 1.56502 0.915253 0
M  V30 2364 C 218.337 2.68031 -2.41229 0
M  V30 2365 O 217.441 3.6659 -1.88906 0
M  V30 2366 H 216.782 0.43832 -0.49877 0
M  V30 2367 H 219.312 0.817391 -1.87563 0
M  V30 2368 H 219.322 3.1601 -2.58073 0
M  V30 2369 H 217.997 2.36883 -3.41847 0
M  V30 2370 H 216.574 3.25661 -1.81656 0
M  V30 2371 N 218.759 1.29093 0.90403 0
M  V30 2372 C 219.989 1.19516 1.68522 0
M  V30 2373 C 220.397 -0.24738 1.87576 0
M  V30 2374 O 219.74 -1.17798 1.40959 0
M  V30 2375 C 219.802 1.83249 3.0929 0
M  V30 2376 C 219.466 3.32531 3.13484 0
M  V30 2377 C 220.463 4.28821 2.93953 0
M  V30 2378 C 218.148 3.73656 3.35688 0
M  V30 2379 C 220.142 5.64212 2.96553 0
M  V30 2380 C 217.829 5.0917 3.37919 0
M  V30 2381 C 218.827 6.04258 3.18373 0
M  V30 2382 O 218.515 7.37298 3.20385 0
M  V30 2383 H 218.247 0.415467 0.533257 0
M  V30 2384 H 220.801 1.70912 1.13922 0
M  V30 2385 H 219.031 1.26358 3.65473 0
M  V30 2386 H 220.72 1.68054 3.69476 0
M  V30 2387 H 221.486 3.98382 2.76616 0
M  V30 2388 H 217.365 3.00101 3.49943 0
M  V30 2389 H 220.909 6.38407 2.81216 0
M  V30 2390 H 216.806 5.39256 3.54787 0
M  V30 2391 H 217.574 7.46048 3.36681 0
M  V30 2392 N 220.237 -1.11381 1.11499 0
M  V30 2393 C 221.184 -2.17439 0.773887 0
M  V30 2394 C 222.154 -1.64132 -0.254899 0
M  V30 2395 O 223.339 -1.90345 -0.13168 0
M  V30 2396 C 220.479 -3.44373 0.223917 0
M  V30 2397 C 219.592 -4.1168 1.30934 0
M  V30 2398 C 218.727 -5.263 0.71984 0
M  V30 2399 C 217.766 -5.85493 1.78507 0
M  V30 2400 N 216.903 -6.91507 1.21502 0
M  V30 2401 H 221.743 -2.45962 1.68246 0
M  V30 2402 H 219.28 -1.20744 0.840191 0
M  V30 2403 H 221.238 -4.17047 -0.112921 0
M  V30 2404 H 219.868 -3.16232 -0.647851 0
M  V30 2405 H 218.92 -3.37073 1.76312 0
M  V30 2406 H 220.232 -4.51729 2.11524 0
M  V30 2407 H 219.386 -6.05785 0.333094 0
M  V30 2408 H 218.125 -4.87559 -0.117377 0
M  V30 2409 H 217.13 -5.04686 2.18111 0
M  V30 2410 H 218.355 -6.26301 2.62533 0
M  V30 2411 H 216.301 -6.54783 0.399455 0
M  V30 2412 H 216.218 -7.30214 1.95763 0
M  V30 2413 H 217.486 -7.74795 0.855181 0
M  V30 2414 N 221.715 -0.905404 -1.28997 0
M  V30 2415 C 222.94 -0.549175 -1.99997 0
M  V30 2416 C 223.365 0.860276 -1.67275 0
M  V30 2417 O 222.723 1.57355 -0.900502 0
M  V30 2418 C 222.771 -0.755185 -3.52604 0
M  V30 2419 O 221.875 0.189692 -4.11964 0
M  V30 2420 H 221.216 -0.213899 -0.628604 0
M  V30 2421 H 223.746 -1.21856 -1.64354 0
M  V30 2422 H 223.756 -0.662045 -4.02593 0
M  V30 2423 H 222.431 -1.78271 -3.75755 0
M  V30 2424 H 221.008 0.0485257 -3.72868 0
M  V30 2425 N 223.193 1.4272 -0.668489 0
M  V30 2426 C 224.418 2.06484 -0.194758 0
M  V30 2427 C 224.843 1.49862 1.13679 0
M  V30 2428 O 224.201 0.614582 1.70565 0
M  V30 2429 C 224.249 3.60353 -0.133546 0
M  V30 2430 O 223.353 4.02464 0.899806 0
M  V30 2431 H 222.694 0.656137 -0.10188 0
M  V30 2432 H 225.224 1.82964 -0.915722 0
M  V30 2433 H 225.234 4.07976 0.0447041 0
M  V30 2434 H 223.909 4.00938 -1.1055 0
M  V30 2435 H 222.486 3.66402 0.693109 0
M  V30 2436 N 224.671 0.411399 1.52136 0
M  V30 2437 C 225.911 -0.163143 2.03748 0
M  V30 2438 C 226.275 -1.42187 1.29022 0
M  V30 2439 O 227.476 -2.075 1.70872 0
M  V30 2440 C 225.747 -0.402651 3.55125 0
M  V30 2441 S 227.306 -0.944315 4.28519 0
M  V30 2442 H 224.124 -0.0439833 0.709638 0
M  V30 2443 H 226.726 0.56484 1.87163 0
M  V30 2444 H 225.43 0.520212 4.0709 0
M  V30 2445 H 224.961 -1.15844 3.75957 0
M  V30 2446 H 226.976 -2.22463 4.43536 0
M  V30 2447 N 226.149 -1.5696 0.141893 0
M  V30 2448 C 227.377 -2.00322 -0.517579 0
M  V30 2449 C 227.792 -1.02193 -1.58752 0
M  V30 2450 O 227.149 -0.0181619 -1.82491 0
M  V30 2451 C 227.2 -3.43618 -1.12289 0
M  V30 2452 O 226.921 -4.37995 -0.0956929 0
M  V30 2453 C 228.422 -4.02231 -1.86347 0
M  V30 2454 H 225.642 -0.657243 -0.135177 0
M  V30 2455 H 228.186 -2.03146 0.234973 0
M  V30 2456 H 226.341 -3.41662 -1.82609 0
M  V30 2457 H 226.755 -5.21729 -0.538469 0
M  V30 2458 H 228.229 -5.04509 -2.23997 0
M  V30 2459 H 228.706 -3.42655 -2.74744 0
M  V30 2460 H 229.312 -4.07802 -1.20737 0
M  V30 2461 N 227.627 0.131896 -1.57047 0
M  V30 2462 C 228.56 1.19236 -1.94571 0
M  V30 2463 C 229.538 1.40782 -0.813576 0
M  V30 2464 O 230.722 1.55148 -1.07058 0
M  V30 2465 C 227.849 2.54858 -2.23081 0
M  V30 2466 C 226.895 2.49817 -3.45679 0
M  V30 2467 S 227.728 1.95036 -4.98719 0
M  V30 2468 C 228.884 3.32357 -5.30367 0
M  V30 2469 H 229.117 0.872297 -2.84215 0
M  V30 2470 H 226.65 0.338134 -1.50652 0
M  V30 2471 H 228.608 3.32898 -2.40185 0
M  V30 2472 H 227.269 2.84047 -1.34074 0
M  V30 2473 H 226.462 3.49688 -3.62952 0
M  V30 2474 H 226.064 1.79892 -3.27895 0
M  V30 2475 H 228.356 4.28525 -5.2476 0
M  V30 2476 H 229.299 3.19923 -6.31708 0
M  V30 2477 H 229.707 3.3019 -4.57859 0
M  V30 2478 N 229.106 1.52395 0.401703 0
M  V30 2479 C 230.383 1.57387 1.16141 0
M  V30 2480 C 230.763 0.359359 2.08019 0
M  V30 2481 O 230.111 -0.65326 2.18963 0
M  V30 2482 C 230.321 2.90631 1.93221 0
M  V30 2483 C 231.669 3.43904 2.49028 0
M  V30 2484 O 232.693 2.92421 2.03393 0
M  V30 2485 O 231.552 4.33823 3.32356 0
M  V30 2486 H 228.646 0.634262 0.530698 0
M  V30 2487 H 231.192 1.64725 0.407883 0
M  V30 2488 H 229.964 3.70473 1.25958 0
M  V30 2489 H 229.587 2.8662 2.75563 0
M  V30 2490 N 230.584 -0.659388 1.43143 0
M  V30 2491 C 231.83 -1.42145 1.44647 0
M  V30 2492 C 232.163 -1.9408 0.0681907 0
M  V30 2493 O 231.438 -1.71899 -0.910007 0
M  V30 2494 C 231.721 -2.60735 2.48373 0
M  V30 2495 C 231.574 -2.14332 3.95451 0
M  V30 2496 C 232.893 -3.62951 2.48906 0
M  V30 2497 H 230.012 -0.51552 0.526696 0
M  V30 2498 H 232.654 -0.748069 1.74654 0
M  V30 2499 H 230.804 -3.18184 2.22916 0
M  V30 2500 H 232.476 -1.61932 4.31944 0
M  V30 2501 H 230.719 -1.4576 4.08578 0
M  V30 2502 H 231.39 -2.99583 4.63631 0
M  V30 2503 H 233.866 -3.1525 2.71582 0
M  V30 2504 H 232.742 -4.43487 3.23435 0
M  V30 2505 H 233.003 -4.15126 1.52061 0
M  V30 2506 N 232.062 -1.29571 -0.897171 0
M  V30 2507 C 233.29 -1.20583 -1.68129 0
M  V30 2508 C 233.705 0.233181 -1.87354 0
M  V30 2509 O 233.062 1.15579 -1.41236 0
M  V30 2510 C 233.113 -1.91772 -3.06441 0
M  V30 2511 O 232.834 -3.30053 -2.88091 0
M  V30 2512 C 234.335 -1.89291 -4.00854 0
M  V30 2513 H 231.555 -0.417826 -0.525036 0
M  V30 2514 H 234.099 -1.70987 -1.12177 0
M  V30 2515 H 232.254 -1.45196 -3.59161 0
M  V30 2516 H 232.668 -3.65942 -3.75748 0
M  V30 2517 H 234.142 -2.43662 -4.95311 0
M  V30 2518 H 234.619 -0.869014 -4.30517 0
M  V30 2519 H 235.225 -2.35622 -3.54066 0
M  V30 2520 N 233.54 1.10788 -1.12088 0
M  V30 2521 C 234.787 1.82671 -0.873931 0
M  V30 2522 C 235.115 1.85004 0.600311 0
M  V30 2523 O 234.37 1.30365 1.45957 0
M  V30 2524 C 234.669 3.29294 -1.38926 0
M  V30 2525 C 234.335 3.47113 -2.87791 0
M  V30 2526 C 232.997 3.51684 -3.28439 0
M  V30 2527 C 235.349 3.52808 -3.83635 0
M  V30 2528 C 232.677 3.59513 -4.63646 0
M  V30 2529 C 235.029 3.62169 -5.18668 0
M  V30 2530 C 233.693 3.65003 -5.58864 0
M  V30 2531 H 232.963 0.668441 -0.319794 0
M  V30 2532 H 235.61 1.30613 -1.40045 0
M  V30 2533 H 233.915 3.83894 -0.783122 0
M  V30 2534 H 235.612 3.83416 -1.17443 0
M  V30 2535 H 232.202 3.4423 -2.5535 0
M  V30 2536 H 236.386 3.4853 -3.53328 0
M  V30 2537 H 231.642 3.59987 -4.94185 0
M  V30 2538 H 235.816 3.6552 -5.92763 0
M  V30 2539 H 233.443 3.70822 -6.63623 0
M  V30 2540 N 235.018 0.912232 1.28515 0
M  V30 2541 C 236.265 0.544599 1.95039 0
M  V30 2542 C 236.593 -0.911435 1.71823 0
M  V30 2543 O 235.848 -1.66317 1.03137 0
M  V30 2544 C 236.147 0.798392 3.48368 0
M  V30 2545 C 235.813 2.23374 3.91682 0
M  V30 2546 C 234.475 2.62617 4.03219 0
M  V30 2547 C 236.827 3.16786 4.13879 0
M  V30 2548 C 234.155 3.94429 4.3433 0
M  V30 2549 C 236.507 4.48161 4.46469 0
M  V30 2550 C 235.171 4.8726 4.56217 0
M  V30 2551 H 234.441 0.199283 0.7137 0
M  V30 2552 H 237.088 1.15327 1.52879 0
M  V30 2553 H 235.393 0.106908 3.91654 0
M  V30 2554 H 237.09 0.493141 3.97956 0
M  V30 2555 H 233.68 1.91922 3.83228 0
M  V30 2556 H 237.864 2.87677 4.0442 0
M  V30 2557 H 233.12 4.24426 4.40082 0
M  V30 2558 H 237.294 5.20559 4.62592 0
M  V30 2559 H 234.921 5.89431 4.80078 0
M  V30 2560 N 236.496 -1.42363 0.676048 0
M  V30 2561 C 237.907 -1.84649 0.275948 0
M  V30 2562 C 238.258 -1.56588 -1.18214 0
M  V30 2563 O 237.383 -1.02634 -1.90513 0
M  V30 2564 C 237.978 -3.35178 0.494053 0
M  V30 2565 C 236.537 -3.76109 0.148061 0
M  V30 2566 C 235.684 -2.65931 0.785891 0
M  V30 2567 H 238.635 -1.32192 0.878121 0
M  V30 2568 H 238.656 -3.79655 -0.25343 0
M  V30 2569 H 238.168 -3.55571 1.55535 0
M  V30 2570 H 236.269 -3.61323 -0.909742 0
M  V30 2571 H 236.382 -4.7546 0.589454 0
M  V30 2572 H 234.746 -2.53773 0.217113 0
M  V30 2573 H 235.529 -2.89146 1.85067 0
M  V30 2574 N 237.974 -0.419461 -1.51915 0
M  V30 2575 C 239.221 0.152939 -2.01922 0
M  V30 2576 C 239.549 1.4426 -1.30458 0
M  V30 2577 O 238.804 1.91514 -0.402593 0
M  V30 2578 C 239.103 0.437067 -3.54717 0
M  V30 2579 C 238.769 -0.764632 -4.44369 0
M  V30 2580 C 237.431 -1.09423 -4.68594 0
M  V30 2581 C 239.783 -1.56713 -4.97082 0
M  V30 2582 C 237.111 -2.22732 -5.42777 0
M  V30 2583 C 239.463 -2.69107 -5.72507 0
M  V30 2584 C 238.127 -3.02541 -5.95 0
M  V30 2585 H 237.397 0.0559644 -0.738884 0
M  V30 2586 H 240.044 -0.562998 -1.83037 0
M  V30 2587 H 238.349 1.23469 -3.71837 0
M  V30 2588 H 240.046 0.893083 -3.90928 0
M  V30 2589 H 236.636 -0.497775 -4.257 0
M  V30 2590 H 240.82 -1.32571 -4.78266 0
M  V30 2591 H 236.076 -2.48971 -5.58411 0
M  V30 2592 H 240.25 -3.31671 -6.12346 0
M  V30 2593 H 237.877 -3.90457 -6.52264 0
M  V30 2594 N 239.452 1.56882 -0.150215 0
M  V30 2595 C 240.729 1.87844 0.545327 0
M  V30 2596 C 241.109 1.0567 1.82749 0
M  V30 2597 O 240.457 0.144442 2.28043 0
M  V30 2598 C 240.667 3.39526 0.80767 0
M  V30 2599 C 242.015 4.08814 1.14703 0
M  V30 2600 O 243.039 3.44723 0.896917 0
M  V30 2601 O 241.898 5.22004 1.61784 0
M  V30 2602 H 238.992 0.778677 0.278553 0
M  V30 2603 H 241.538 1.68666 -0.187068 0
M  V30 2604 H 240.31 3.91173 -0.0996096 0
M  V30 2605 H 239.933 3.64243 1.59413 0
M  V30 2606 N 240.93 -0.123565 1.57115 0
M  V30 2607 C 242.346 -0.476961 1.52306 0
M  V30 2608 C 242.546 -1.82109 0.86248 0
M  V30 2609 O 241.602 -2.48586 0.442884 0
M  V30 2610 C 242.915 -0.465661 2.97073 0
M  V30 2611 C 244.463 -0.549534 3.08138 0
M  V30 2612 C 244.938 -0.568669 4.54456 0
M  V30 2613 N 246.429 -0.630237 4.58892 0
M  V30 2614 C 247.164 -0.666415 5.69514 0
M  V30 2615 N 246.66 -0.660514 6.89644 0
M  V30 2616 N 248.453 -0.709077 5.5761 0
M  V30 2617 H 240.604 0.757198 1.98445 0
M  V30 2618 H 242.867 0.278808 0.906074 0
M  V30 2619 H 242.573 0.454232 3.48754 0
M  V30 2620 H 242.447 -1.29513 3.54269 0
M  V30 2621 H 244.834 -1.45985 2.56461 0
M  V30 2622 H 244.915 0.307532 2.53945 0
M  V30 2623 H 244.559 0.337581 5.06777 0
M  V30 2624 H 244.489 -1.44256 5.06456 0
M  V30 2625 H 246.98 -0.641146 3.72421 0
M  V30 2626 H 247.293 -0.690616 7.69708 0
M  V30 2627 H 245.638 -0.628012 6.92157 0
M  V30 2628 H 248.829 -0.711019 4.62668 0
M  V30 2629 H 249.002 -0.733804 6.43832 0
M  V30 2630 N 242.408 -1.52605 -0.393616 0
M  V30 2631 C 243.34 -1.73303 -1.49995 0
M  V30 2632 C 244.353 -0.613473 -1.50799 0
M  V30 2633 O 245.542 -0.889049 -1.54784 0
M  V30 2634 C 242.642 -1.77245 -2.88855 0
M  V30 2635 C 241.815 -3.06483 -3.12069 0
M  V30 2636 C 240.874 -3.02033 -4.30886 0
M  V30 2637 O 239.9 -3.75907 -4.27414 0
M  V30 2638 N 241.102 -2.20897 -5.36828 0
M  V30 2639 H 243.867 -2.68756 -1.32629 0
M  V30 2640 H 241.428 -1.51036 -0.583083 0
M  V30 2641 H 243.42 -1.7178 -3.66434 0
M  V30 2642 H 241.99 -0.891993 -2.99603 0
M  V30 2643 H 241.21 -3.25474 -2.22396 0
M  V30 2644 H 242.498 -3.91947 -3.2443 0
M  V30 2645 H 241.896 -1.60336 -5.42502 0
M  V30 2646 H 240.453 -2.21275 -6.13091 0
M  V30 2647 N 243.887 0.651787 -1.4349 0
M  V30 2648 C 244.835 1.78586 -1.49029 0
M  V30 2649 C 245.829 1.65448 -0.363767 0
M  V30 2650 O 247.035 1.71777 -0.537821 0
M  V30 2651 H 243.41 0.589236 -0.467231 0
M  V30 2652 H 245.381 1.71035 -2.44519 0
M  V30 2653 C 244.13 3.16851 -1.43181 0
M  V30 2654 H 243.453 3.27598 -2.29171 0
M  V30 2655 H 244.893 3.96156 -1.51118 0
M  V30 2656 C 243.352 3.36568 -0.149616 0
M  V30 2657 O 243.882 3.93885 0.788509 0
M  V30 2658 N 242.088 2.90539 -0.0593484 0
M  V30 2659 H 241.635 2.4408 -0.823575 0
M  V30 2660 H 241.593 3.04108 0.797853 0
M  V30 2661 N 245.365 1.30045 0.890287 0
M  V30 2662 C 246.605 1.19839 1.65584 0
M  V30 2663 C 246.969 -0.244175 1.90441 0
M  V30 2664 O 248.17 -0.469378 2.6467 0
M  V30 2665 C 246.441 1.99876 2.96284 0
M  V30 2666 S 248 2.06309 3.87275 0
M  V30 2667 H 244.818 0.427157 0.568382 0
M  V30 2668 H 247.42 1.64453 1.05715 0
M  V30 2669 H 246.124 3.03809 2.75913 0
M  V30 2670 H 245.655 1.55903 3.61189 0
M  V30 2671 H 247.67 1.18661 4.81803 0
M  V30 2672 N 246.843 -1.10192 1.12674 0
M  V30 2673 C 248.068 -1.86523 0.906853 0
M  V30 2674 C 248.493 -1.80221 -0.538711 0
M  V30 2675 O 247.851 -1.17396 -1.38158 0
M  V30 2676 C 247.899 -3.32758 1.3894 0
M  V30 2677 O 247.003 -4.08449 0.5695 0
M  V30 2678 H 246.344 -0.578678 0.325619 0
M  V30 2679 H 248.874 -1.39203 1.49946 0
M  V30 2680 H 248.884 -3.83608 1.38958 0
M  V30 2681 H 247.559 -3.36661 2.44197 0
M  V30 2682 H 246.136 -3.67427 0.636528 0
M  V30 2683 N 248.321 -0.919034 -1.28029 0
M  V30 2684 C 249.254 -0.355887 -2.25408 0
M  V30 2685 C 250.232 0.542874 -1.5327 0
M  V30 2686 O 251.416 0.485338 -1.82145 0
M  V30 2687 C 248.543 0.490759 -3.35126 0
M  V30 2688 C 247.589 -0.343358 -4.25116 0
M  V30 2689 S 248.422 -1.75344 -5.05979 0
M  V30 2690 C 249.578 -0.914244 -6.19187 0
M  V30 2691 H 249.811 -1.18123 -2.72826 0
M  V30 2692 H 247.344 -0.720636 -1.36551 0
M  V30 2693 H 249.302 0.973404 -3.98792 0
M  V30 2694 H 247.963 1.29054 -2.86363 0
M  V30 2695 H 247.156 0.304266 -5.03081 0
M  V30 2696 H 246.758 -0.759851 -3.662 0
M  V30 2697 H 249.05 -0.146282 -6.77342 0
M  V30 2698 H 249.993 -1.66661 -6.88208 0
M  V30 2699 H 250.401 -0.460082 -5.62622 0
M  V30 2700 N 249.799 1.42003 -0.683588 0
M  V30 2701 C 250.746 2.30798 -0.0107309 0
M  V30 2702 C 251.716 1.4645 0.783688 0
M  V30 2703 O 252.901 1.75263 0.754156 0
M  V30 2704 C 250.041 3.3238 0.928306 0
M  V30 2705 C 249.154 4.31814 0.126776 0
M  V30 2706 C 248.289 5.20468 1.06236 0
M  V30 2707 C 247.328 6.11577 0.253035 0
M  V30 2708 N 246.465 6.92754 1.14179 0
M  V30 2709 H 251.305 2.8778 -0.773727 0
M  V30 2710 H 248.842 1.41745 -0.393283 0
M  V30 2711 H 250.8 3.89813 1.48666 0
M  V30 2712 H 249.43 2.76976 1.65783 0
M  V30 2713 H 248.482 3.76427 -0.54833 0
M  V30 2714 H 249.794 4.96276 -0.501192 0
M  V30 2715 H 248.948 5.82677 1.69035 0
M  V30 2716 H 247.687 4.56204 1.7242 0
M  V30 2717 H 246.692 5.48428 -0.388108 0
M  V30 2718 H 247.917 6.77892 -0.404839 0
M  V30 2719 H 245.863 6.3111 1.78987 0
M  V30 2720 H 245.78 7.53855 0.569111 0
M  V30 2721 H 247.048 7.59441 1.75697 0
M  V30 2722 N 251.277 0.427512 1.51691 0
M  V30 2723 C 252.524 -0.142229 2.02 0
M  V30 2724 C 252.852 -1.43566 1.31221 0
M  V30 2725 O 252.107 -1.91298 0.412744 0
M  V30 2726 C 252.406 -0.418249 3.54944 0
M  V30 2727 C 252.072 0.788187 4.43958 0
M  V30 2728 C 250.734 1.11906 4.68007 0
M  V30 2729 C 253.086 1.59347 4.96244 0
M  V30 2730 C 250.414 2.25608 5.41588 0
M  V30 2731 C 252.766 2.7214 5.71072 0
M  V30 2732 C 251.43 3.05692 5.93387 0
M  V30 2733 H 250.7 -0.0520451 0.73917 0
M  V30 2734 H 253.347 0.572697 1.82736 0
M  V30 2735 H 251.652 -1.21496 3.72486 0
M  V30 2736 H 253.349 -0.872339 3.91397 0
M  V30 2737 H 249.939 0.520344 4.2543 0
M  V30 2738 H 254.123 1.35106 4.77556 0
M  V30 2739 H 249.379 2.51929 5.57083 0
M  V30 2740 H 253.553 3.34914 6.10578 0
M  V30 2741 H 251.18 3.9391 6.50184 0
M  V30 2742 N 252.755 -1.56801 0.158532 0
M  V30 2743 C 254.003 -1.96102 -0.488712 0
M  V30 2744 C 254.324 -1.04498 -1.64636 0
M  V30 2745 O 253.594 -0.108783 -1.95598 0
M  V30 2746 H 252.174 -0.724102 -0.183535 0
M  V30 2747 H 254.836 -1.93457 0.236728 0
M  V30 2748 H 253.932 -3.00097 -0.857219 0
M  V30 2749 N 254.233 0.115231 -1.57178 0
M  V30 2750 C 255.458 0.840354 -1.89612 0
M  V30 2751 C 255.883 1.72464 -0.750845 0
M  V30 2752 O 255.241 1.78826 0.298478 0
M  V30 2753 C 255.289 1.64654 -3.20814 0
M  V30 2754 O 254.393 2.7538 -3.06985 0
M  V30 2755 H 253.734 0.232158 -0.622092 0
M  V30 2756 H 256.264 0.0964977 -2.04372 0
M  V30 2757 H 256.274 2.03499 -3.53627 0
M  V30 2758 H 254.949 0.997416 -4.03763 0
M  V30 2759 H 253.526 2.3971 -2.85646 0
M  V30 2760 N 255.711 1.52812 0.385517 0
M  V30 2761 C 256.957 1.69225 1.12847 0
M  V30 2762 C 257.312 0.42864 1.87564 0
M  V30 2763 O 256.605 -0.57779 1.8268 0
M  V30 2764 C 256.799 2.86856 2.13187 0
M  V30 2765 C 256.628 4.24535 1.48325 0
M  V30 2766 C 255.398 4.89701 1.24585 0
M  V30 2767 C 257.596 5.05794 0.931501 0
M  V30 2768 N 255.578 6.11353 0.558644 0
M  V30 2769 C 256.949 6.1888 0.372552 0
M  V30 2770 C 259.004 4.90963 0.828248 0
M  V30 2771 C 257.707 7.18757 -0.279556 0
M  V30 2772 C 259.733 5.91095 0.189956 0
M  V30 2773 C 259.095 7.03489 -0.358207 0
M  V30 2774 H 255.194 0.67268 0.39878 0
M  V30 2775 H 257.778 1.9017 0.417528 0
M  V30 2776 H 255.949 2.67484 2.81614 0
M  V30 2777 H 257.681 2.92188 2.80014 0
M  V30 2778 H 254.436 4.48485 1.52178 0
M  V30 2779 H 254.86 6.76606 0.230983 0
M  V30 2780 H 259.502 4.04274 1.23784 0
M  V30 2781 H 257.22 8.05052 -0.701152 0
M  V30 2782 H 260.806 5.81694 0.111264 0
M  V30 2783 H 259.686 7.79642 -0.844314 0
M  V30 2784 N 257.189 -0.644168 1.43834 0
M  V30 2785 C 258.417 -1.43147 1.49387 0
M  V30 2786 C 258.832 -1.88452 0.114583 0
M  V30 2787 O 258.189 -1.60047 -0.876989 0
M  V30 2788 C 258.24 -2.66046 2.44748 0
M  V30 2789 O 257.961 -2.22633 3.77314 0
M  V30 2790 C 259.462 -3.59311 2.59635 0
M  V30 2791 H 256.682 -0.439447 0.507077 0
M  V30 2792 H 259.226 -0.78895 1.88669 0
M  V30 2793 H 257.381 -3.26418 2.08638 0
M  V30 2794 H 257.795 -3.02216 4.28679 0
M  V30 2795 H 259.269 -4.42187 3.30416 0
M  V30 2796 H 259.746 -4.07259 1.64427 0
M  V30 2797 H 260.352 -3.04816 2.96593 0
M  V30 2798 N 258.668 -1.30515 -0.883378 0
M  V30 2799 C 259.898 -1.22182 -1.66599 0
M  V30 2800 C 260.306 0.217507 -1.87946 0
M  V30 2801 O 259.649 1.1554 -1.42815 0
M  V30 2802 C 259.711 -1.88146 -3.06335 0
M  V30 2803 C 259.375 -3.37476 -3.08154 0
M  V30 2804 C 260.372 -4.33443 -2.87094 0
M  V30 2805 C 258.057 -3.7895 -3.29701 0
M  V30 2806 C 260.051 -5.68858 -2.8754 0
M  V30 2807 C 257.738 -5.14482 -3.29776 0
M  V30 2808 C 258.736 -6.09246 -3.0872 0
M  V30 2809 O 258.424 -7.42302 -3.08615 0
M  V30 2810 H 258.156 -0.423898 -0.52658 0
M  V30 2811 H 260.71 -1.72703 -1.11188 0
M  V30 2812 H 258.94 -1.32157 -3.63416 0
M  V30 2813 H 260.629 -1.7391 -3.66756 0
M  V30 2814 H 261.395 -4.02733 -2.70243 0
M  V30 2815 H 257.274 -3.05631 -3.45124 0
M  V30 2816 H 260.818 -6.428 -2.71024 0
M  V30 2817 H 256.715 -5.44832 -3.46163 0
M  V30 2818 H 257.483 -7.5131 -3.24769 0
M  V30 2819 N 260.146 1.09593 -1.13257 0
M  V30 2820 C 261.423 1.78293 -0.804432 0
M  V30 2821 C 261.803 1.99004 0.70431 0
M  V30 2822 O 261.151 1.59007 1.641 0
M  V30 2823 C 261.361 3.10707 -1.5894 0
M  V30 2824 C 262.709 3.85443 -1.78099 0
M  V30 2825 O 263.733 3.20454 -1.55525 0
M  V30 2826 O 262.592 5.02108 -2.15753 0
M  V30 2827 H 259.686 0.773156 -0.293528 0
M  V30 2828 H 262.232 1.16164 -1.23709 0
M  V30 2829 H 261.004 2.91106 -2.61482 0
M  V30 2830 H 260.627 3.80558 -1.15157 0
M  V30 2831 N 261.624 0.925811 1.2754 0
M  V30 2832 C 262.872 0.564138 1.94067 0
M  V30 2833 C 263.193 -0.897188 1.73134 0
M  V30 2834 O 262.463 -1.63573 1.07799 0
M  V30 2835 H 261.043 0.205645 0.718136 0
M  V30 2836 H 263.705 1.1778 1.55287 0
M  V30 2837 H 262.801 0.76881 3.02483 0
M  V30 2838 N 263.102 -1.41638 0.69111 0
M  V30 2839 C 264.33 -2.05628 0.22909 0
M  V30 2840 C 264.745 -1.51992 -1.11999 0
M  V30 2841 O 264.102 -0.666322 -1.69901 0
M  V30 2842 C 264.153 -3.61084 0.173283 0
M  V30 2843 O 263.874 -4.12735 1.46907 0
M  V30 2844 C 265.375 -4.42213 -0.310266 0
M  V30 2845 H 262.595 -0.662327 0.107534 0
M  V30 2846 H 265.139 -1.81489 0.942438 0
M  V30 2847 H 263.294 -3.84278 -0.490858 0
M  V30 2848 H 263.708 -5.06743 1.35322 0
M  V30 2849 H 265.182 -5.51194 -0.298196 0
M  V30 2850 H 265.659 -4.1799 -1.34838 0
M  V30 2851 H 266.265 -4.24074 0.322716 0
M  V30 2852 N 264.58 -0.43555 -1.51462 0
M  V30 2853 C 265.513 0.421989 -2.24264 0
M  V30 2854 C 266.491 1.02619 -1.26127 0
M  V30 2855 O 267.675 1.069 -1.55257 0
M  V30 2856 C 264.802 1.588 -2.99166 0
M  V30 2857 C 263.848 1.10465 -4.11946 0
M  V30 2858 S 264.681 0.048146 -5.35478 0
M  V30 2859 C 265.837 1.21887 -6.13917 0
M  V30 2860 H 266.07 -0.196102 -2.96653 0
M  V30 2861 H 263.603 -0.220054 -1.52824 0
M  V30 2862 H 265.561 2.25647 -3.42919 0
M  V30 2863 H 264.222 2.1775 -2.26371 0
M  V30 2864 H 263.415 1.97654 -4.63626 0
M  V30 2865 H 263.017 0.51445 -3.70445 0
M  V30 2866 H 265.309 2.13756 -6.42895 0
M  V30 2867 H 266.252 0.742076 -7.04201 0
M  V30 2868 H 266.66 1.45663 -5.45383 0
M  V30 2869 N 266.058 1.56714 -0.166846 0
M  V30 2870 C 267.304 1.97039 0.479962 0
M  V30 2871 C 267.637 1.05264 1.63197 0
M  V30 2872 O 266.912 0.0988833 1.94248 0
M  V30 2873 C 267.195 3.46867 0.967212 0
M  V30 2874 C 267.048 4.49421 -0.18466 0
M  V30 2875 C 268.367 3.9968 1.84238 0
M  V30 2876 H 265.486 0.71641 0.172992 0
M  V30 2877 H 268.128 1.8832 -0.252079 0
M  V30 2878 H 266.278 3.54428 1.59101 0
M  V30 2879 H 267.95 4.53924 -0.821621 0
M  V30 2880 H 266.193 4.25573 -0.840837 0
M  V30 2881 H 266.864 5.51644 0.198317 0
M  V30 2882 H 269.34 3.94723 1.31655 0
M  V30 2883 H 268.216 5.04941 2.15234 0
M  V30 2884 H 268.477 3.43226 2.78654 0
M  V30 2885 N 267.536 -0.106894 1.57237 0
M  V30 2886 C 268.813 -0.843526 1.76477 0
M  V30 2887 C 269.193 -1.97499 0.745464 0
M  V30 2888 O 268.541 -2.27357 -0.228306 0
M  V30 2889 C 268.751 -1.34903 3.21873 0
M  V30 2890 C 270.099 -1.79654 3.8472 0
M  V30 2891 O 271.123 -1.44554 3.2555 0
M  V30 2892 O 269.982 -2.44515 4.88748 0
M  V30 2893 H 267.076 -0.401468 0.723016 0
M  V30 2894 H 269.622 -0.0896927 1.69463 0
M  V30 2895 H 268.394 -0.53781 3.87586 0
M  V30 2896 H 268.017 -2.16522 3.33473 0
M  V30 2897 N 269.014 -1.53014 -0.377408 0
M  V30 2898 C 269.944 -1.81589 -1.46791 0
M  V30 2899 C 270.925 -0.668622 -1.56408 0
M  V30 2900 O 272.11 -0.917337 -1.71168 0
M  V30 2901 C 269.24 -1.99519 -2.8427 0
M  V30 2902 C 268.194 -3.15249 -2.89486 0
M  V30 2903 C 267.52 -3.18451 -4.29527 0
M  V30 2904 C 268.82 -4.54084 -2.58079 0
M  V30 2905 H 270.514 -2.7291 -1.23127 0
M  V30 2906 H 268.06 -1.31319 -0.590883 0
M  V30 2907 H 270.013 -2.18092 -3.60575 0
M  V30 2908 H 268.737 -1.04897 -3.09296 0
M  V30 2909 H 267.396 -2.96477 -2.15631 0
M  V30 2910 H 267.044 -2.2149 -4.5161 0
M  V30 2911 H 266.744 -3.962 -4.33934 0
M  V30 2912 H 268.268 -3.39193 -5.07721 0
M  V30 2913 H 269.682 -4.72899 -3.24098 0
M  V30 2914 H 268.079 -5.33987 -2.7382 0
M  V30 2915 H 269.149 -4.60006 -1.53372 0
M  V30 2916 N 270.492 0.636531 -1.44174 0
M  V30 2917 C 271.741 1.39213 -1.45954 0
M  V30 2918 C 272.054 1.95374 -0.0939119 0
M  V30 2919 O 273.26 2.71498 0.0107767 0
M  V30 2920 C 271.716 2.52025 -2.56927 0
M  V30 2921 C 271.324 2.024 -3.99673 0
M  V30 2922 C 273.068 3.29269 -2.67922 0
M  V30 2923 C 270.975 3.12521 -5.0208 0
M  V30 2924 H 269.905 0.523132 -0.542999 0
M  V30 2925 H 272.556 0.685349 -1.70221 0
M  V30 2926 H 270.938 3.25253 -2.25891 0
M  V30 2927 H 272.112 1.36073 -4.40251 0
M  V30 2928 H 270.427 1.37987 -3.92872 0
M  V30 2929 H 273.024 4.11352 -3.41605 0
M  V30 2930 H 273.367 3.78397 -1.73555 0
M  V30 2931 H 273.9 2.63129 -2.98342 0
M  V30 2932 H 270.639 2.68343 -5.98057 0
M  V30 2933 H 270.159 3.77507 -4.66099 0
M  V30 2934 H 271.838 3.77385 -5.25538 0
M  V30 2935 N 271.97 1.30982 0.876444 0
M  V30 2936 C 272.9 1.20668 1.99903 0
M  V30 2937 C 273.881 0.095354 1.69833 0
M  V30 2938 O 275.066 0.27885 1.92188 0
M  V30 2939 C 272.196 0.90655 3.3526 0
M  V30 2940 C 271.15 1.97675 3.79617 0
M  V30 2941 C 270.476 1.52943 5.1236 0
M  V30 2942 C 271.776 3.389 3.97422 0
M  V30 2943 H 273.47 2.14586 2.0879 0
M  V30 2944 H 271.016 1.03308 1.00317 0
M  V30 2945 H 272.969 0.821025 4.13324 0
M  V30 2946 H 271.693 -0.0682969 3.26529 0
M  V30 2947 H 270.352 2.05205 3.03787 0
M  V30 2948 H 270 0.54262 5.00065 0
M  V30 2949 H 269.7 2.24532 5.43009 0
M  V30 2950 H 271.224 1.45786 5.92941 0
M  V30 2951 H 272.638 3.34081 4.659 0
M  V30 2952 H 271.035 4.0865 4.3946 0
M  V30 2953 H 272.105 3.80163 3.01006 0
M  V30 2954 N 273.449 -1.08991 1.13837 0
M  V30 2955 C 274.698 -1.80631 0.897509 0
M  V30 2956 C 275.011 -1.86872 -0.57777 0
M  V30 2957 O 276.217 -2.54866 -0.935701 0
M  V30 2958 C 274.673 -3.24517 1.55618 0
M  V30 2959 C 274.281 -3.26529 3.0673 0
M  V30 2960 C 276.025 -4.00882 1.3962 0
M  V30 2961 C 273.932 -4.64965 3.65461 0
M  V30 2962 H 272.862 -0.67691 0.332129 0
M  V30 2963 H 275.513 -1.2246 1.3666 0
M  V30 2964 H 273.895 -3.82778 1.01476 0
M  V30 2965 H 275.069 -2.78008 3.67489 0
M  V30 2966 H 273.384 -2.63656 3.22296 0
M  V30 2967 H 275.981 -5.03167 1.80906 0
M  V30 2968 H 276.324 -4.14896 0.341578 0
M  V30 2969 H 276.857 -3.49075 1.90766 0
M  V30 2970 H 273.596 -4.56153 4.70749 0
M  V30 2971 H 273.116 -5.13792 3.09481 0
M  V30 2972 H 274.795 -5.3394 3.654 0
M  V30 2973 N 274.927 -0.932562 -1.27047 0
M  V30 2974 C 275.875 -0.42603 -2.28665 0
M  V30 2975 C 276.869 0.49219 -1.62092 0
M  V30 2976 O 278.075 0.371355 -1.76128 0
M  V30 2977 H 274.45 -0.119213 -0.742491 0
M  V30 2978 H 276.421 -1.29579 -2.68797 0
M  V30 2979 C 275.17 0.301426 -3.46391 0
M  V30 2980 H 274.493 -0.39595 -3.97834 0
M  V30 2981 H 275.933 0.6202 -4.1944 0
M  V30 2982 C 274.392 1.51616 -3.00856 0
M  V30 2983 O 274.922 2.61476 -3.04948 0
M  V30 2984 N 273.128 1.36969 -2.56296 0
M  V30 2985 H 272.675 0.475873 -2.53166 0
M  V30 2986 H 272.633 2.18368 -2.26192 0
M  V30 2987 N 276.405 1.4127 -0.698611 0
M  V30 2988 C 277.315 2.34573 -0.0357891 0
M  V30 2989 C 278.331 1.56393 0.762701 0
M  V30 2990 O 279.507 1.8886 0.699564 0
M  V30 2991 C 276.572 3.35159 0.887089 0
M  V30 2992 C 275.633 4.29225 0.0804634 0
M  V30 2993 C 274.866 5.25006 0.959387 0
M  V30 2994 O 275.089 5.26314 2.19886 0
M  V30 2995 O 274.023 6.00519 0.407439 0
M  V30 2996 H 277.849 2.92838 -0.804957 0
M  V30 2997 H 275.434 1.42175 -0.458966 0
M  V30 2998 H 277.316 3.9689 1.41621 0
M  V30 2999 H 275.991 2.79333 1.6357 0
M  V30 3000 H 274.898 3.70833 -0.493328 0
M  V30 3001 H 276.231 4.88157 -0.629547 0
M  V30 3002 N 277.883 0.443576 1.51229 0
M  V30 3003 C 278.831 -0.37904 2.29491 0
M  V30 3004 C 279.825 -1.0153 1.35603 0
M  V30 3005 O 281.031 -0.94955 1.52917 0
M  V30 3006 H 277.406 -0.141053 0.738653 0
M  V30 3007 H 279.377 0.301799 2.9687 0
M  V30 3008 C 278.126 -1.46426 3.15364 0
M  V30 3009 H 277.449 -0.984037 3.87501 0
M  V30 3010 H 278.889 -2.01297 3.7317 0
M  V30 3011 C 277.348 -2.45099 2.31146 0
M  V30 3012 O 277.878 -3.49773 1.9754 0
M  V30 3013 N 276.084 -2.16139 1.94249 0
M  V30 3014 H 275.631 -1.31044 2.21777 0
M  V30 3015 H 275.589 -2.82398 1.38198 0
M  V30 3016 N 279.361 -1.56624 0.175154 0
M  V30 3017 C 280.607 -1.9729 -0.469506 0
M  V30 3018 C 280.94 -1.06128 -1.62636 0
M  V30 3019 O 280.215 -0.109183 -1.94193 0
M  V30 3020 C 280.498 -3.47375 -0.948804 0
M  V30 3021 C 280.351 -4.49317 0.208491 0
M  V30 3022 C 281.67 -4.00652 -1.82116 0
M  V30 3023 H 278.789 -0.717317 -0.16919 0
M  V30 3024 H 281.431 -1.88184 0.262062 0
M  V30 3025 H 279.581 -3.55267 -1.57219 0
M  V30 3026 H 281.253 -4.53482 0.845682 0
M  V30 3027 H 279.496 -4.25121 0.863395 0
M  V30 3028 H 280.167 -5.51741 -0.169059 0
M  V30 3029 H 282.643 -3.95416 -1.2956 0
M  V30 3030 H 281.519 -5.06075 -2.12554 0
M  V30 3031 H 281.78 -3.44699 -2.7683 0
M  V30 3032 N 280.839 0.0985539 -1.57292 0
M  V30 3033 C 282.116 0.834155 -1.76921 0
M  V30 3034 C 282.496 1.97101 -0.755928 0
M  V30 3035 O 281.844 2.27474 0.216245 0
M  V30 3036 C 282.054 1.33194 -3.22584 0
M  V30 3037 C 283.402 1.77611 -3.85668 0
M  V30 3038 O 284.426 1.42825 -3.26312 0
M  V30 3039 O 283.285 2.4192 -4.90038 0
M  V30 3040 H 280.379 0.397628 -0.725135 0
M  V30 3041 H 282.925 0.0807044 -1.69508 0
M  V30 3042 H 281.697 0.517248 -3.87866 0
M  V30 3043 H 281.32 2.1475 -3.34616 0
M  V30 3044 N 282.317 1.53212 0.369288 0
M  V30 3045 C 283.733 1.42902 0.710712 0
M  V30 3046 C 283.933 0.565135 1.93413 0
M  V30 3047 O 282.989 0.0461484 2.52458 0
M  V30 3048 C 284.302 2.86042 0.927382 0
M  V30 3049 C 285.85 2.9565 1.02762 0
M  V30 3050 C 286.325 4.39843 1.27679 0
M  V30 3051 N 287.816 4.43256 1.34457 0
M  V30 3052 C 288.551 5.51929 1.55439 0
M  V30 3053 N 288.047 6.70655 1.73762 0
M  V30 3054 N 289.84 5.39502 1.57779 0
M  V30 3055 H 281.991 2.07888 -0.435457 0
M  V30 3056 H 284.254 0.938661 -0.132739 0
M  V30 3057 H 283.96 3.51557 0.100287 0
M  V30 3058 H 283.834 3.29472 1.83653 0
M  V30 3059 H 286.221 2.30291 1.84527 0
M  V30 3060 H 286.302 2.5562 0.0959504 0
M  V30 3061 H 285.946 5.05774 0.464175 0
M  V30 3062 H 285.876 4.77443 2.22162 0
M  V30 3063 H 288.367 3.5769 1.21926 0
M  V30 3064 H 288.68 7.49248 1.89335 0
M  V30 3065 H 287.025 6.73648 1.70948 0
M  V30 3066 H 290.216 4.45713 1.43029 0
M  V30 3067 H 290.389 6.2426 1.7379 0
M  V30 3068 N 283.795 -0.628877 1.44509 0
M  V30 3069 C 284.742 -1.74074 1.51549 0
M  V30 3070 C 285.712 -1.62084 0.363021 0
M  V30 3071 O 286.897 -1.81975 0.573567 0
M  V30 3072 C 284.037 -3.12328 1.46784 0
M  V30 3073 C 283.15 -3.35277 2.72422 0
M  V30 3074 C 282.285 -4.63515 2.59475 0
M  V30 3075 C 281.324 -4.7965 3.80266 0
M  V30 3076 N 280.461 -5.99168 3.65981 0
M  V30 3077 H 285.301 -1.67392 2.46544 0
M  V30 3078 H 282.838 -0.816527 1.22357 0
M  V30 3079 H 284.796 -3.92286 1.42012 0
M  V30 3080 H 283.426 -3.18018 0.553544 0
M  V30 3081 H 282.478 -2.49242 2.87372 0
M  V30 3082 H 283.79 -3.43078 3.62076 0
M  V30 3083 H 282.944 -5.51638 2.52548 0
M  V30 3084 H 281.683 -4.58076 1.67384 0
M  V30 3085 H 280.688 -3.89957 3.87574 0
M  V30 3086 H 281.913 -4.86902 4.73395 0
M  V30 3087 H 279.859 -5.94814 2.76644 0
M  V30 3088 H 279.776 -6.08035 4.49254 0
M  V30 3089 H 281.044 -6.89846 3.6295 0
M  V30 3090 N 285.273 -1.31445 -0.869486 0
M  V30 3091 C 286.55 -1.11795 -1.60503 0
M  V30 3092 C 286.93 0.327168 -2.08549 0
M  V30 3093 O 286.278 1.32135 -1.8642 0
M  V30 3094 C 286.488 -2.13258 -2.76265 0
M  V30 3095 C 287.836 -2.45805 -3.46215 0
M  V30 3096 O 288.86 -2.11688 -2.86473 0
M  V30 3097 O 287.719 -3.04228 -4.5399 0
M  V30 3098 H 284.813 -0.430421 -0.706163 0
M  V30 3099 H 287.359 -1.42925 -0.914907 0
M  V30 3100 H 286.131 -3.10461 -2.3818 0
M  V30 3101 H 285.754 -1.83035 -3.52964 0
M  V30 3102 N 286.751 1.08385 -1.14413 0
M  V30 3103 C 287.998 1.80776 -0.912482 0
M  V30 3104 C 288.326 1.86236 0.560934 0
M  V30 3105 O 287.581 1.33431 1.43159 0
M  V30 3106 C 287.88 3.26273 -1.45879 0
M  V30 3107 C 287.546 3.4093 -2.95089 0
M  V30 3108 C 286.208 3.44638 -3.35824 0
M  V30 3109 C 288.56 3.44591 -3.91033 0
M  V30 3110 C 285.888 3.49597 -4.71167 0
M  V30 3111 C 288.24 3.51086 -5.26233 0
M  V30 3112 C 286.904 3.53067 -5.6648 0
M  V30 3113 H 286.174 0.661507 -0.333901 0
M  V30 3114 H 288.821 1.27613 -1.42784 0
M  V30 3115 H 287.126 3.82146 -0.864376 0
M  V30 3116 H 288.823 3.80839 -1.2555 0
M  V30 3117 H 285.413 3.38736 -2.62594 0
M  V30 3118 H 289.597 3.40957 -3.60641 0
M  V30 3119 H 284.853 3.49424 -5.0171 0
M  V30 3120 H 289.027 3.52864 -6.00383 0
M  V30 3121 H 286.654 3.56662 -6.71339 0
M  V30 3122 N 288.23 0.939286 1.26551 0
M  V30 3123 C 289.477 0.585847 1.9384 0
M  V30 3124 C 289.805 -0.874784 1.73718 0
M  V30 3125 O 289.06 -1.64092 1.06642 0
M  V30 3126 C 289.359 0.872106 3.46596 0
M  V30 3127 C 289.025 2.31632 3.86856 0
M  V30 3128 C 287.687 2.71111 3.97558 0
M  V30 3129 C 290.039 3.25494 4.07066 0
M  V30 3130 C 287.367 4.03553 4.25866 0
M  V30 3131 C 289.719 4.57531 4.36862 0
M  V30 3132 C 288.383 4.96828 4.45778 0
M  V30 3133 H 287.653 0.214377 0.709312 0
M  V30 3134 H 290.3 1.18544 1.50398 0
M  V30 3135 H 288.605 0.18996 3.91339 0
M  V30 3136 H 290.302 0.577442 3.96821 0
M  V30 3137 H 286.892 2.00008 3.79071 0
M  V30 3138 H 291.076 2.9619 3.98227 0
M  V30 3139 H 286.332 4.33665 4.30981 0
M  V30 3140 H 290.506 5.30254 4.51446 0
M  V30 3141 H 288.133 5.99482 4.67468 0
M  V30 3142 N 289.708 -1.40897 0.706093 0
M  V30 3143 C 290.985 -1.94868 0.169099 0
M  V30 3144 C 291.365 -1.64485 -1.32318 0
M  V30 3145 O 290.713 -0.95744 -2.07474 0
M  V30 3146 C 290.923 -3.45798 0.471654 0
M  V30 3147 C 292.271 -4.22663 0.405127 0
M  V30 3148 O 293.295 -3.53865 0.407168 0
M  V30 3149 O 292.154 -5.45216 0.374383 0
M  V30 3150 H 289.248 -0.82673 0.0211352 0
M  V30 3151 H 291.794 -1.50558 0.782976 0
M  V30 3152 H 290.566 -3.61235 1.50416 0
M  V30 3153 H 290.189 -3.97225 -0.172666 0
M  V30 3154 N 291.186 -0.45159 -1.50991 0
M  V30 3155 C 292.134 0.366864 -2.29689 0
M  V30 3156 C 293.128 1.00809 -1.36139 0
M  V30 3157 O 294.334 0.941427 -1.53418 0
M  V30 3158 H 290.709 0.137133 -0.739391 0
M  V30 3159 H 292.68 -0.317538 -2.96706 0
M  V30 3160 C 291.429 1.44751 -3.16137 0
M  V30 3161 H 290.752 0.963473 -3.88017 0
M  V30 3162 H 292.192 1.99315 -3.74232 0
M  V30 3163 C 290.651 2.43869 -2.32442 0
M  V30 3164 O 291.181 3.4872 -1.99392 0
M  V30 3165 N 289.387 2.15105 -1.95392 0
M  V30 3166 H 288.934 1.29866 -2.22469 0
M  V30 3167 H 288.892 2.81661 -1.39693 0
M  V30 3168 N 292.664 1.56529 -0.183458 0
M  V30 3169 C 293.912 1.96855 0.457452 0
M  V30 3170 C 294.233 1.07104 1.62953 0
M  V30 3171 O 293.503 0.139887 1.954 0
M  V30 3172 H 292.083 0.72693 0.171992 0
M  V30 3173 H 294.745 1.93056 -0.267476 0
M  V30 3174 H 293.841 3.01423 0.809368 0
M  V30 3175 N 294.142 -0.090211 1.57342 0
M  V30 3176 C 295.052 -1.12735 2.05738 0
M  V30 3177 C 296.068 -1.43557 0.983231 0
M  V30 3178 O 297.244 -1.54101 1.29672 0
M  V30 3179 C 294.309 -2.42659 2.47624 0
M  V30 3180 C 293.37 -2.18975 3.69254 0
M  V30 3181 C 292.603 -3.42704 4.09133 0
M  V30 3182 O 292.826 -4.51127 3.49057 0
M  V30 3183 O 291.76 -3.32003 5.02053 0
M  V30 3184 H 295.586 -0.746279 2.94388 0
M  V30 3185 H 293.171 -0.303064 1.46294 0
M  V30 3186 H 295.053 -3.19155 2.7517 0
M  V30 3187 H 293.728 -2.80182 1.62109 0
M  V30 3188 H 292.635 -1.40244 3.46818 0
M  V30 3189 H 293.968 -1.86342 4.55563 0
M  V30 3190 N 295.62 -1.53406 -0.361157 0
M  V30 3191 C 296.866 -1.70999 -1.1014 0
M  V30 3192 C 297.221 -0.458425 -1.86859 0
M  V30 3193 O 296.514 0.548654 -1.83577 0
M  V30 3194 C 296.708 -2.90211 -2.08596 0
M  V30 3195 C 296.537 -4.26841 -1.41553 0
M  V30 3196 C 295.307 -4.91621 -1.16778 0
M  V30 3197 C 297.505 -5.07212 -0.850915 0
M  V30 3198 N 295.487 -6.12164 -0.461312 0
M  V30 3199 C 296.858 -6.19394 -0.274046 0
M  V30 3200 C 298.913 -4.92218 -0.750036 0
M  V30 3201 C 297.616 -7.18221 0.393868 0
M  V30 3202 C 299.642 -5.91322 -0.095894 0
M  V30 3203 C 299.004 -7.0283 0.470081 0
M  V30 3204 H 295.103 -0.678939 -0.388028 0
M  V30 3205 H 297.687 -1.90811 -0.38722 0
M  V30 3206 H 295.858 -2.71931 -2.77323 0
M  V30 3207 H 297.59 -2.96606 -2.7533 0
M  V30 3208 H 294.345 -4.50849 -1.45024 0
M  V30 3209 H 294.769 -6.76888 -0.123312 0
M  V30 3210 H 299.411 -4.06192 -1.17337 0
M  V30 3211 H 297.129 -8.03835 0.82914 0
M  V30 3212 H 300.715 -5.81797 -0.0187075 0
M  V30 3213 H 299.595 -7.782 0.968241 0
M  V30 3214 N 297.098 0.621204 -1.44841 0
M  V30 3215 C 298.008 1.7612 -1.5498 0
M  V30 3216 C 299.024 1.68477 -0.434927 0
M  V30 3217 O 300.2 1.89076 -0.693693 0
M  V30 3218 C 297.265 3.1254 -1.50065 0
M  V30 3219 C 296.326 3.31741 -2.72482 0
M  V30 3220 C 295.559 4.61653 -2.67792 0
M  V30 3221 O 295.782 5.431 -1.74352 0
M  V30 3222 O 294.716 4.83271 -3.58794 0
M  V30 3223 H 298.542 1.70518 -2.51311 0
M  V30 3224 H 296.127 0.783643 -1.27198 0
M  V30 3225 H 298.009 3.93844 -1.49882 0
M  V30 3226 H 296.684 3.18663 -0.568806 0
M  V30 3227 H 295.591 2.50077 -2.7823 0
M  V30 3228 H 296.924 3.30486 -3.64746 0
M  V30 3229 N 298.576 1.31904 0.862503 0
M  V30 3230 C 299.825 1.21373 1.61094 0
M  V30 3231 C 300.138 -0.22504 1.94301 0
M  V30 3232 O 301.344 -0.452121 2.67709 0
M  V30 3233 C 299.8 2.12525 2.9045 0
M  V30 3234 C 299.408 3.61441 2.64697 0
M  V30 3235 C 301.152 2.10813 3.68454 0
M  V30 3236 C 299.059 4.44578 3.90006 0
M  V30 3237 H 297.989 0.450705 0.604468 0
M  V30 3238 H 300.64 1.56811 0.953027 0
M  V30 3239 H 299.022 1.69994 3.57656 0
M  V30 3240 H 300.196 4.12264 2.05851 0
M  V30 3241 H 298.511 3.65205 2.00036 0
M  V30 3242 H 301.108 2.70167 4.61426 0
M  V30 3243 H 301.451 1.09713 4.01583 0
M  V30 3244 H 301.984 2.51583 3.08141 0
M  V30 3245 H 298.723 5.46461 3.62023 0
M  V30 3246 H 298.243 3.98508 4.48276 0
M  V30 3247 H 299.922 4.57176 4.5782 0
M  V30 3248 N 300.054 -1.07777 1.14986 0
M  V30 3249 C 300.984 -2.16865 0.865557 0
M  V30 3250 C 301.965 -1.69123 -0.182083 0
M  V30 3251 O 303.15 -1.94164 -0.0373815 0
M  V30 3252 C 300.28 -3.45539 0.349313 0
M  V30 3253 C 299.234 -4.06708 1.33313 0
M  V30 3254 C 298.56 -5.30411 0.675918 0
M  V30 3255 C 299.86 -4.47241 2.69764 0
M  V30 3256 H 301.554 -2.40905 1.77778 0
M  V30 3257 H 299.1 -1.15781 0.856203 0
M  V30 3258 H 301.053 -4.21174 0.137983 0
M  V30 3259 H 299.777 -3.21072 -0.598362 0
M  V30 3260 H 298.436 -3.33112 1.53075 0
M  V30 3261 H 298.084 -5.02232 -0.277767 0
M  V30 3262 H 297.784 -5.72293 1.33244 0
M  V30 3263 H 299.308 -6.08755 0.474262 0
M  V30 3264 H 300.722 -5.14025 2.53873 0
M  V30 3265 H 299.119 -5.00062 3.3175 0
M  V30 3266 H 300.189 -3.58818 3.26156 0
M  V30 3267 N 301.532 -0.945985 -1.26051 0
M  V30 3268 C 302.48 -0.450259 -2.282 0
M  V30 3269 C 303.474 0.47497 -1.62605 0
M  V30 3270 O 304.68 0.352653 -1.76512 0
M  V30 3271 H 301.055 -0.127081 -0.741184 0
M  V30 3272 H 303.026 -1.32422 -2.67408 0
M  V30 3273 C 301.775 0.26467 -3.46691 0
M  V30 3274 H 301.098 -0.438123 -3.97392 0
M  V30 3275 H 302.538 0.575678 -4.20074 0
M  V30 3276 C 300.997 1.48416 -3.02447 0
M  V30 3277 O 301.527 2.58227 -3.07704 0
M  V30 3278 N 299.733 1.34243 -2.57735 0
M  V30 3279 H 299.28 0.448994 -2.53657 0
M  V30 3280 H 299.238 2.15957 -2.28495 0
M  V30 3281 N 303.011 1.40521 -0.713556 0
M  V30 3282 C 303.974 2.29098 -0.0684347 0
M  V30 3283 C 304.974 1.45268 0.689472 0
M  V30 3284 O 306.164 1.66205 0.521677 0
M  V30 3285 C 303.296 3.28446 0.913024 0
M  V30 3286 H 304.489 2.87645 -0.84855 0
M  V30 3287 H 302.042 1.48809 -0.47809 0
M  V30 3288 H 302.777 2.74913 1.72027 0
M  V30 3289 H 302.562 3.90327 0.372472 0
M  V30 3290 H 304.052 3.94777 1.36165 0
M  V30 3291 N 304.489 0.459591 1.5075 0
M  V30 3292 C 305.436 -0.340524 2.28274 0
M  V30 3293 C 306.406 -0.997371 1.32822 0
M  V30 3294 O 307.591 -1.01202 1.61749 0
M  V30 3295 C 304.731 -1.42317 3.14388 0
M  V30 3296 C 303.844 -0.782251 4.24859 0
M  V30 3297 C 302.979 -1.84182 4.98247 0
M  V30 3298 C 302.018 -1.18053 6.00608 0
M  V30 3299 N 301.155 -2.18244 6.67319 0
M  V30 3300 H 305.995 0.326899 2.96202 0
M  V30 3301 H 303.532 0.173057 1.46078 0
M  V30 3302 H 305.49 -2.06241 3.62658 0
M  V30 3303 H 304.12 -2.05992 2.4853 0
M  V30 3304 H 303.172 -0.0307404 3.80388 0
M  V30 3305 H 304.484 -0.259663 4.98124 0
M  V30 3306 H 303.638 -2.55714 5.50177 0
M  V30 3307 H 302.377 -2.39819 4.24662 0
M  V30 3308 H 301.382 -0.450776 5.47949 0
M  V30 3309 H 302.607 -0.631202 6.7616 0
M  V30 3310 H 300.553 -2.72919 5.96533 0
M  V30 3311 H 300.47 -1.70938 7.36421 0
M  V30 3312 H 301.738 -2.89191 7.23871 0
M  V30 3313 N 305.967 -1.56429 0.191757 0
M  V30 3314 C 307.215 -1.97095 -0.447006 0
M  V30 3315 C 307.536 -1.07967 -1.62383 0
M  V30 3316 O 306.806 -0.150248 -1.95323 0
M  V30 3317 H 305.386 -0.727832 -0.168135 0
M  V30 3318 H 308.048 -1.92911 0.27771 0
M  V30 3319 H 307.144 -3.01848 -0.793371 0
M  V30 3320 N 307.445 0.0818655 -1.57387 0
M  V30 3321 C 308.378 1.12986 -1.98266 0
M  V30 3322 C 309.356 1.38123 -0.857954 0
M  V30 3323 O 310.54 1.51663 -1.1194 0
M  V30 3324 C 307.667 2.47632 -2.31076 0
M  V30 3325 C 306.713 2.38693 -3.53452 0
M  V30 3326 S 307.546 1.79071 -5.04672 0
M  V30 3327 C 308.702 3.15316 -5.40673 0
M  V30 3328 H 308.935 0.781435 -2.86846 0
M  V30 3329 H 306.468 0.290034 -1.51651 0
M  V30 3330 H 308.426 3.25089 -2.50654 0
M  V30 3331 H 307.087 2.79638 -1.43043 0
M  V30 3332 H 306.28 3.37964 -3.73893 0
M  V30 3333 H 305.882 1.69369 -3.33452 0
M  V30 3334 H 308.174 4.11613 -5.38127 0
M  V30 3335 H 309.117 2.99664 -6.41566 0
M  V30 3336 H 309.525 3.15457 -4.68132 0
M  V30 3337 N 308.923 1.53595 0.353017 0
M  V30 3338 C 309.87 1.80919 1.43308 0
M  V30 3339 C 310.84 0.654288 1.5267 0
M  V30 3340 O 312.025 0.897759 1.6836 0
M  V30 3341 C 309.165 2.01605 2.80089 0
M  V30 3342 C 308.278 3.29321 2.79593 0
M  V30 3343 C 307.413 3.40125 4.0803 0
M  V30 3344 C 306.452 4.61826 4.01725 0
M  V30 3345 N 305.589 4.69716 5.21834 0
M  V30 3346 H 310.429 2.73074 1.19308 0
M  V30 3347 H 307.966 1.35263 0.578131 0
M  V30 3348 H 309.924 2.11586 3.59565 0
M  V30 3349 H 308.554 1.12772 3.0246 0
M  V30 3350 H 307.606 3.28229 1.92276 0
M  V30 3351 H 308.918 4.18884 2.70809 0
M  V30 3352 H 308.072 3.49488 4.95927 0
M  V30 3353 H 306.811 2.48601 4.19582 0
M  V30 3354 H 305.816 4.52552 3.12213 0
M  V30 3355 H 307.041 5.54705 3.91764 0
M  V30 3356 H 304.987 3.81097 5.33948 0
M  V30 3357 H 304.904 5.53202 5.1527 0
M  V30 3358 H 306.172 4.83376 6.11529 0
M  V30 3359 N 310.401 -0.613514 1.45168 0
M  V30 3360 C 311.649 -1.36997 1.48581 0
M  V30 3361 C 311.97 -1.94589 0.126545 0
M  V30 3362 O 311.24 -1.76816 -0.843372 0
M  V30 3363 H 309.82 -0.508558 0.547154 0
M  V30 3364 H 312.482 -0.720853 1.81079 0
M  V30 3365 H 311.578 -2.1924 2.22127 0
M  V30 3366 N 311.879 -1.3236 -0.855495 0
M  V30 3367 C 312.827 -1.2118 -1.9854 0
M  V30 3368 C 313.821 -0.116788 -1.68997 0
M  V30 3369 O 315.027 -0.279657 -1.77814 0
M  V30 3370 H 311.402 -0.375608 -0.651477 0
M  V30 3371 H 313.373 -2.16743 -2.05098 0
M  V30 3372 C 312.122 -0.950849 -3.34446 0
M  V30 3373 H 311.445 -1.78563 -3.57708 0
M  V30 3374 H 312.885 -0.912863 -4.14057 0
M  V30 3375 C 311.344 0.346404 -3.35114 0
M  V30 3376 O 311.874 1.35855 -3.7803 0
M  V30 3377 N 310.08 0.36808 -2.88259 0
M  V30 3378 H 309.627 -0.456102 -2.5353 0
M  V30 3379 H 309.585 1.23591 -2.89089 0
M  V30 3380 N 313.357 1.07166 -1.15556 0
M  V30 3381 C 314.773 1.31899 -0.898603 0
M  V30 3382 C 314.973 1.96333 0.453383 0
M  V30 3383 O 314.029 2.22438 1.19489 0
M  V30 3384 C 315.342 2.20826 -2.04099 0
M  V30 3385 C 316.89 2.34269 -2.07574 0
M  V30 3386 C 317.365 3.26546 -3.21141 0
M  V30 3387 N 318.856 3.34127 -3.20801 0
M  V30 3388 C 319.591 4.05595 -4.05315 0
M  V30 3389 N 319.087 4.79661 -4.99897 0
M  V30 3390 N 320.88 4.01555 -3.93332 0
M  V30 3391 H 313.031 0.637302 -2.02613 0
M  V30 3392 H 315.294 0.343468 -0.883591 0
M  V30 3393 H 315 1.80744 -3.01703 0
M  V30 3394 H 314.874 3.21364 -1.97496 0
M  V30 3395 H 317.261 2.73603 -1.10568 0
M  V30 3396 H 317.342 1.33429 -2.18244 0
M  V30 3397 H 316.986 2.87931 -4.184 0
M  V30 3398 H 316.916 4.27345 -3.07708 0
M  V30 3399 H 319.407 2.81336 -2.52306 0
M  V30 3400 H 319.72 5.31694 -5.60822 0
M  V30 3401 H 318.065 4.78671 -5.03884 0
M  V30 3402 H 321.256 3.42806 -3.18751 0
M  V30 3403 H 321.429 4.56987 -4.5942 0
M  V30 3404 N 314.835 0.952656 1.25548 0
M  V30 3405 C 316.251 0.656769 1.4546 0
M  V30 3406 C 316.451 -0.78633 1.85524 0
M  V30 3407 O 315.507 -1.56183 1.98402 0
M  V30 3408 C 316.82 1.62801 2.52817 0
M  V30 3409 C 318.368 1.63897 2.66659 0
M  V30 3410 C 318.843 2.5978 3.77198 0
M  V30 3411 N 320.334 2.58133 3.84606 0
M  V30 3412 C 321.069 3.29003 4.69621 0
M  V30 3413 N 320.565 4.09339 5.58939 0
M  V30 3414 N 322.358 3.179 4.63569 0
M  V30 3415 H 314.509 1.88526 0.978344 0
M  V30 3416 H 316.772 0.810815 0.491206 0
M  V30 3417 H 316.478 2.65869 2.30232 0
M  V30 3418 H 316.352 1.38898 3.50695 0
M  V30 3419 H 318.739 0.615481 2.8861 0
M  V30 3420 H 318.82 1.91858 1.69187 0
M  V30 3421 H 318.464 3.62254 3.55997 0
M  V30 3422 H 318.394 2.29105 4.7415 0
M  V30 3423 H 320.885 1.99809 3.20757 0
M  V30 3424 H 321.198 4.6034 6.20731 0
M  V30 3425 H 319.543 4.13438 5.58654 0
M  V30 3426 H 322.734 2.54612 3.92798 0
M  V30 3427 H 322.907 3.73398 5.29602 0
M  V30 3428 N 316.313 -1.40141 0.720998 0
M  V30 3429 C 317.59 -1.94677 0.189757 0
M  V30 3430 C 317.97 -1.65879 -1.30566 0
M  V30 3431 O 317.318 -0.979391 -2.06447 0
M  V30 3432 C 317.528 -3.45279 0.508304 0
M  V30 3433 C 318.876 -4.22209 0.449934 0
M  V30 3434 O 319.9 -3.53413 0.444677 0
M  V30 3435 O 318.759 -5.44788 0.432189 0
M  V30 3436 H 315.853 -0.826459 0.0299026 0
M  V30 3437 H 318.399 -1.49719 0.7989 0
M  V30 3438 H 317.171 -3.59619 1.54239 0
M  V30 3439 H 316.794 -3.97386 -0.130525 0
M  V30 3440 N 317.792 -0.46758 -1.50504 0
M  V30 3441 C 319.04 0.0884469 -2.01906 0
M  V30 3442 C 319.361 1.40532 -1.35188 0
M  V30 3443 O 318.631 1.89515 -0.496079 0
M  V30 3444 H 317.211 0.0356765 -0.746148 0
M  V30 3445 H 319.873 -0.6172 -1.84869 0
M  V30 3446 H 318.969 0.2425 -3.11156 0
M  V30 3447 N 319.27 1.56325 -0.20005 0
M  V30 3448 C 320.516 1.98012 0.438059 0
M  V30 3449 C 320.849 1.08702 1.60927 0
M  V30 3450 O 320.124 0.140064 1.93995 0
M  V30 3451 C 320.407 3.48841 0.893419 0
M  V30 3452 C 320.26 4.48928 -0.279947 0
M  V30 3453 C 321.579 4.03498 1.75719 0
M  V30 3454 H 318.698 0.719918 0.157757 0
M  V30 3455 H 321.34 1.87743 -0.291968 0
M  V30 3456 H 319.49 3.57723 1.51547 0
M  V30 3457 H 321.162 4.52079 -0.91772 0
M  V30 3458 H 319.405 4.23694 -0.930919 0
M  V30 3459 H 320.076 5.5194 0.0812601 0
M  V30 3460 H 322.552 3.97427 1.23253 0
M  V30 3461 H 321.428 5.09393 2.04476 0
M  V30 3462 H 321.689 3.4906 2.71311 0
M  V30 3463 N 320.748 -0.0735177 1.57428 0
M  V30 3464 C 321.978 -0.78483 1.91112 0
M  V30 3465 C 322.386 -1.71729 0.7941 0
M  V30 3466 O 321.729 -1.82105 -0.241542 0
M  V30 3467 C 321.791 -1.63346 3.20247 0
M  V30 3468 C 321.455 -0.870557 4.48632 0
M  V30 3469 C 322.452 -0.19058 5.19551 0
M  V30 3470 C 320.137 -0.838242 4.95256 0
M  V30 3471 C 322.131 0.511503 6.35344 0
M  V30 3472 C 319.818 -0.132386 6.10957 0
M  V30 3473 C 320.816 0.541288 6.80852 0
M  V30 3474 O 320.504 1.23578 7.94345 0
M  V30 3475 H 320.236 -0.228408 0.636244 0
M  V30 3476 H 322.79 -0.0486039 2.05342 0
M  V30 3477 H 321.02 -2.41245 3.02222 0
M  V30 3478 H 322.709 -2.22329 3.39595 0
M  V30 3479 H 323.475 -0.206864 4.84559 0
M  V30 3480 H 319.354 -1.35206 4.40727 0
M  V30 3481 H 322.898 1.03789 6.89836 0
M  V30 3482 H 318.795 -0.114023 6.45399 0
M  V30 3483 H 319.563 1.14487 8.10454 0
M  V30 3484 N 322.226 -1.5378 -0.344866 0
M  V30 3485 C 323.451 -1.75211 -1.10977 0
M  V30 3486 C 323.876 -0.48936 -1.81623 0
M  V30 3487 O 323.234 0.557925 -1.72502 0
M  V30 3488 C 323.282 -2.93147 -2.09993 0
M  V30 3489 O 322.386 -2.63203 -3.17487 0
M  V30 3490 H 321.727 -0.581241 -0.321021 0
M  V30 3491 H 324.257 -2.00738 -0.395661 0
M  V30 3492 H 324.267 -3.19898 -2.53237 0
M  V30 3493 H 322.942 -3.84731 -1.5797 0
M  V30 3494 H 321.519 -2.47336 -2.79069 0
M  V30 3495 N 323.704 0.605807 -1.45491 0
M  V30 3496 C 324.934 1.38934 -1.52908 0
M  V30 3497 C 325.342 1.88513 -0.161086 0
M  V30 3498 O 324.685 1.62962 0.847891 0
M  V30 3499 C 324.747 2.62737 -2.45376 0
M  V30 3500 C 324.411 2.34785 -3.92078 0
M  V30 3501 C 325.408 1.95038 -4.8193 0
M  V30 3502 C 323.093 2.47642 -4.37011 0
M  V30 3503 C 325.087 1.68511 -6.14722 0
M  V30 3504 C 322.774 2.20728 -5.69844 0
M  V30 3505 C 323.772 1.81225 -6.58519 0
M  V30 3506 O 323.46 1.54627 -7.88889 0
M  V30 3507 H 323.192 0.431629 -0.520262 0
M  V30 3508 H 325.746 0.74573 -1.91384 0
M  V30 3509 H 323.976 3.29824 -2.01874 0
M  V30 3510 H 325.665 3.24783 -2.43456 0
M  V30 3511 H 326.431 1.84639 -4.48479 0
M  V30 3512 H 322.31 2.77356 -3.68232 0
M  V30 3513 H 325.854 1.37602 -6.83894 0
M  V30 3514 H 321.751 2.30744 -6.02849 0
M  V30 3515 H 322.519 1.68665 -8.00933 0
M  V30 3516 N 325.182 1.32811 0.848464 0
M  V30 3517 C 326.593 1.21315 1.41914 0
M  V30 3518 C 326.944 -0.171847 1.95446 0
M  V30 3519 O 326.069 -1.07093 1.88043 0
M  V30 3520 C 326.664 2.19631 2.57968 0
M  V30 3521 C 325.223 2.12003 3.11017 0
M  V30 3522 C 324.37 2.07651 1.83783 0
M  V30 3523 H 327.321 1.44549 0.655071 0
M  V30 3524 H 327.342 1.79845 3.35315 0
M  V30 3525 H 326.854 3.20423 2.18976 0
M  V30 3526 H 324.955 1.14481 3.54577 0
M  V30 3527 H 325.068 3.02111 3.71841 0
M  V30 3528 H 323.432 1.52983 2.03638 0
M  V30 3529 H 324.215 3.10235 1.47 0
M  V30 3530 N 326.66 -1.06551 1.16123 0
M  V30 3531 C 327.907 -1.79302 0.941126 0
M  V30 3532 C 328.235 -1.87105 -0.531235 0
M  V30 3533 O 327.49 -1.35692 -1.41018 0
M  V30 3534 C 327.789 -3.23911 1.51052 0
M  V30 3535 C 327.455 -3.36193 3.00475 0
M  V30 3536 C 326.117 -3.39252 3.41265 0
M  V30 3537 C 328.469 -3.38326 3.96465 0
M  V30 3538 C 325.797 -3.42057 4.76669 0
M  V30 3539 C 328.149 -3.4267 5.31752 0
M  V30 3540 C 326.813 -3.4401 5.72026 0
M  V30 3541 H 326.083 -0.656111 0.344382 0
M  V30 3542 H 328.73 -1.25325 1.44796 0
M  V30 3543 H 327.035 -3.80723 0.925063 0
M  V30 3544 H 328.732 -3.78793 1.31593 0
M  V30 3545 H 325.322 -3.34516 2.6795 0
M  V30 3546 H 329.506 -3.35176 3.6602 0
M  V30 3547 H 324.762 -3.41398 5.07206 0
M  V30 3548 H 328.936 -3.43268 6.05921 0
M  V30 3549 H 326.563 -3.45937 6.76928 0
M  V30 3550 N 328.138 -0.959301 -1.25041 0
M  V30 3551 C 329.387 -0.612254 -1.92183 0
M  V30 3552 C 329.7 0.855347 -1.75907 0
M  V30 3553 O 330.906 1.31256 -2.37664 0
M  V30 3554 C 329.362 -1.04435 -3.44414 0
M  V30 3555 C 328.97 -2.53482 -3.69393 0
M  V30 3556 C 330.714 -0.770055 -4.17457 0
M  V30 3557 C 328.621 -2.90468 -5.15153 0
M  V30 3558 H 327.551 -0.225279 -0.719559 0
M  V30 3559 H 330.202 -1.16438 -1.41825 0
M  V30 3560 H 328.584 -0.4206 -3.9376 0
M  V30 3561 H 329.758 -3.20916 -3.30681 0
M  V30 3562 H 328.073 -2.78432 -3.0962 0
M  V30 3563 H 330.67 -1.02249 -5.24832 0
M  V30 3564 H 331.013 0.293611 -4.15263 0
M  V30 3565 H 331.546 -1.35437 -3.74034 0
M  V30 3566 H 328.285 -3.95871 -5.22462 0
M  V30 3567 H 327.805 -2.27711 -5.54894 0
M  V30 3568 H 329.484 -2.79914 -5.83315 0
M  V30 3569 N 329.616 1.39756 -0.72842 0
M  V30 3570 C 330.844 2.04948 -0.283528 0
M  V30 3571 C 331.259 1.54908 1.0793 0
M  V30 3572 O 330.616 0.711135 1.68075 0
M  V30 3573 C 330.667 3.60498 -0.268957 0
M  V30 3574 O 330.388 4.08695 -1.57798 0
M  V30 3575 C 331.889 4.4288 0.192912 0
M  V30 3576 H 329.109 0.659243 -0.125056 0
M  V30 3577 H 331.653 1.78927 -0.990226 0
M  V30 3578 H 329.808 3.85444 0.388801 0
M  V30 3579 H 330.222 5.02977 -1.48709 0
M  V30 3580 H 331.696 5.51791 0.151952 0
M  V30 3581 H 332.173 4.21418 1.23708 0
M  V30 3582 H 332.779 4.23069 -0.435039 0
M  V30 3583 N 331.094 0.475555 1.50254 0
M  V30 3584 C 332.324 -0.0753399 2.06463 0
M  V30 3585 C 332.732 -1.33661 1.33908 0
M  V30 3586 O 332.075 -1.79219 0.403257 0
M  V30 3587 C 332.137 -0.424921 3.5698 0
M  V30 3588 C 331.801 0.734965 4.51051 0
M  V30 3589 C 332.798 1.61827 4.94073 0
M  V30 3590 C 330.483 0.926557 4.9368 0
M  V30 3591 C 332.477 2.67754 5.78434 0
M  V30 3592 C 330.164 1.98904 5.77824 0
M  V30 3593 C 331.162 2.8629 6.20103 0
M  V30 3594 O 330.85 3.90708 7.02568 0
M  V30 3595 H 330.582 0.00576308 0.675975 0
M  V30 3596 H 333.136 0.664662 1.94349 0
M  V30 3597 H 331.366 -1.21817 3.67012 0
M  V30 3598 H 333.055 -0.911422 3.95535 0
M  V30 3599 H 333.821 1.48196 4.61804 0
M  V30 3600 H 329.7 0.25584 4.6029 0
M  V30 3601 H 333.244 3.35992 6.11355 0
M  V30 3602 H 329.141 2.12541 6.09505 0
M  V30 3603 H 329.909 3.87751 7.20827 0
M  V30 3604 N 332.573 -1.56217 0.208337 0
M  V30 3605 C 333.798 -2.02782 -0.435222 0
M  V30 3606 C 334.223 -1.08738 -1.53485 0
M  V30 3607 O 333.581 -0.0731855 -1.81152 0
M  V30 3608 C 333.629 -3.47687 -0.956335 0
M  V30 3609 O 332.733 -3.56773 -2.06849 0
M  V30 3610 H 332.074 -0.656403 -0.100158 0
M  V30 3611 H 334.604 -2.02033 0.3231 0
M  V30 3612 H 334.614 -3.87745 -1.26955 0
M  V30 3613 H 333.289 -4.15624 -0.15143 0
M  V30 3614 H 331.866 -3.28597 -1.76292 0
M  V30 3615 N 334.051 0.0651679 -1.57465 0
M  V30 3616 C 335.298 0.763063 -1.87573 0
M  V30 3617 C 335.626 1.77242 -0.800961 0
M  V30 3618 O 334.881 1.94651 0.202316 0
M  V30 3619 C 335.18 1.50081 -3.24362 0
M  V30 3620 C 334.846 0.630816 -4.46466 0
M  V30 3621 C 333.508 0.391082 -4.79608 0
M  V30 3622 C 335.86 0.0279465 -5.21193 0
M  V30 3623 C 333.188 -0.460894 -5.84887 0
M  V30 3624 C 335.54 -0.811522 -6.27373 0
M  V30 3625 C 334.204 -1.06106 -6.59013 0
M  V30 3626 H 333.474 0.279224 -0.686378 0
M  V30 3627 H 336.121 0.0236726 -1.91485 0
M  V30 3628 H 334.426 2.31258 -3.16271 0
M  V30 3629 H 336.123 2.04571 -3.44894 0
M  V30 3630 H 332.713 0.8278 -4.2053 0
M  V30 3631 H 336.897 0.200262 -4.95896 0
M  V30 3632 H 332.153 -0.662907 -6.07796 0
M  V30 3633 H 336.327 -1.28537 -6.84435 0
M  V30 3634 H 333.954 -1.723 -7.40417 0
M  V30 3635 N 335.529 1.53961 0.336706 0
M  V30 3636 C 336.775 1.7179 1.07777 0
M  V30 3637 C 337.108 0.483263 1.88091 0
M  V30 3638 O 336.383 -0.519747 1.87427 0
M  V30 3639 C 336.666 2.98558 2.01334 0
M  V30 3640 C 336.519 4.32245 1.24437 0
M  V30 3641 C 337.838 3.21023 3.01052 0
M  V30 3642 H 334.957 0.625089 0.390426 0
M  V30 3643 H 337.599 1.86641 0.35567 0
M  V30 3644 H 335.749 2.86028 2.62908 0
M  V30 3645 H 337.421 4.56637 0.654243 0
M  V30 3646 H 335.664 4.30344 0.546458 0
M  V30 3647 H 336.335 5.17137 1.93063 0
M  V30 3648 H 338.811 3.32929 2.49595 0
M  V30 3649 H 337.687 4.11104 3.6371 0
M  V30 3650 H 337.948 2.37637 3.72802 0
M  V30 3651 N 337.007 -0.598083 1.45811 0
M  V30 3652 C 337.937 -1.71873 1.58057 0
M  V30 3653 C 338.918 -1.64533 0.431615 0
M  V30 3654 O 340.103 -1.82787 0.65595 0
M  V30 3655 C 337.233 -3.10495 1.55597 0
M  V30 3656 C 336.187 -3.32654 2.69305 0
M  V30 3657 C 335.513 -4.71646 2.51902 0
M  V30 3658 C 336.813 -3.21981 4.11248 0
M  V30 3659 H 338.507 -1.61881 2.51863 0
M  V30 3660 H 336.053 -0.777372 1.21214 0
M  V30 3661 H 338.006 -3.88699 1.6276 0
M  V30 3662 H 336.73 -3.2135 0.583255 0
M  V30 3663 H 335.389 -2.56843 2.61586 0
M  V30 3664 H 335.037 -4.79246 1.52748 0
M  V30 3665 H 334.737 -4.87426 3.2816 0
M  V30 3666 H 336.261 -5.52038 2.60933 0
M  V30 3667 H 337.675 -3.90049 4.20161 0
M  V30 3668 H 336.072 -3.49289 4.87972 0
M  V30 3669 H 337.142 -2.1928 4.32486 0
M  V30 3670 N 338.485 -1.33259 -0.841409 0
M  V30 3671 C 339.901 -1.12538 -1.13169 0
M  V30 3672 C 340.101 0.0854037 -2.01319 0
M  V30 3673 O 339.157 0.766417 -2.40587 0
M  V30 3674 C 340.47 -2.41156 -1.79623 0
M  V30 3675 C 342.018 -2.47038 -1.922 0
M  V30 3676 C 342.493 -3.7561 -2.6207 0
M  V30 3677 N 343.984 -3.76667 -2.69585 0
M  V30 3678 C 344.719 -4.72861 -3.2433 0
M  V30 3679 N 344.215 -5.79428 -3.79783 0
M  V30 3680 N 346.008 -4.6034 -3.22558 0
M  V30 3681 H 338.159 -2.10868 -0.254676 0
M  V30 3682 H 340.422 -0.931615 -0.175493 0
M  V30 3683 H 340.128 -3.29747 -1.22311 0
M  V30 3684 H 340.002 -2.53114 -2.79666 0
M  V30 3685 H 342.389 -1.58898 -2.48667 0
M  V30 3686 H 342.47 -2.39022 -0.911148 0
M  V30 3687 H 342.114 -4.64131 -2.06263 0
M  V30 3688 H 342.044 -3.80902 -3.63622 0
M  V30 3689 H 344.535 -2.99648 -2.30259 0
M  V30 3690 H 344.848 -6.48867 -4.19752 0
M  V30 3691 H 343.193 -5.83166 -3.78078 0
M  V30 3692 H 346.384 -3.76244 -2.78492 0
M  V30 3693 H 346.557 -5.35478 -3.64921 0
M  V30 3694 N 339.963 1.05934 -1.16686 0
M  V30 3695 C 341.379 1.30938 -0.912542 0
M  V30 3696 C 341.579 1.96803 0.432533 0
M  V30 3697 O 340.635 2.23693 1.17123 0
M  V30 3698 C 341.948 2.18649 -2.06429 0
M  V30 3699 C 343.496 2.32055 -2.10047 0
M  V30 3700 C 343.971 3.23122 -3.24586 0
M  V30 3701 N 345.462 3.30706 -3.24327 0
M  V30 3702 C 346.197 4.01273 -4.09594 0
M  V30 3703 N 345.693 4.74332 -5.04956 0
M  V30 3704 N 347.486 3.97361 -3.97569 0
M  V30 3705 H 339.637 0.615777 -2.03278 0
M  V30 3706 H 341.9 0.334077 -0.887185 0
M  V30 3707 H 341.606 1.77534 -3.03603 0
M  V30 3708 H 341.48 3.19252 -2.00894 0
M  V30 3709 H 343.867 2.72415 -1.13464 0
M  V30 3710 H 343.948 1.31107 -2.19647 0
M  V30 3711 H 343.592 2.83477 -4.2143 0
M  V30 3712 H 343.522 4.24057 -3.12223 0
M  V30 3713 H 346.013 2.78644 -2.55276 0
M  V30 3714 H 346.326 5.25716 -5.6643 0
M  V30 3715 H 344.671 4.733 -5.08933 0
M  V30 3716 H 347.862 3.39405 -3.22369 0
M  V30 3717 H 348.035 4.52089 -4.64241 0
M  V30 3718 N 341.441 0.965919 1.2453 0
M  V30 3719 C 342.371 0.513476 2.27784 0
M  V30 3720 C 343.352 -0.445974 1.6415 0
M  V30 3721 O 344.537 -0.342485 1.91156 0
M  V30 3722 C 341.667 -0.198839 3.4673 0
M  V30 3723 C 340.621 0.676456 4.2262 0
M  V30 3724 C 339.947 -0.167248 5.34438 0
M  V30 3725 C 341.247 1.96017 4.84123 0
M  V30 3726 H 342.941 1.3765 2.65881 0
M  V30 3727 H 340.487 0.663321 1.27813 0
M  V30 3728 H 342.44 -0.526567 4.18097 0
M  V30 3729 H 341.164 -1.0962 3.07654 0
M  V30 3730 H 339.823 0.98743 3.53052 0
M  V30 3731 H 339.471 -1.0647 4.91603 0
M  V30 3732 H 339.171 0.415181 5.86131 0
M  V30 3733 H 340.695 -0.489688 6.08633 0
M  V30 3734 H 342.109 1.69814 5.47573 0
M  V30 3735 H 340.506 2.48918 5.4604 0
M  V30 3736 H 341.576 2.65622 4.05676 0
M  V30 3737 N 342.919 -1.39368 0.735821 0
M  V30 3738 C 344.33 -1.83313 0.354015 0
M  V30 3739 C 344.681 -1.61461 -1.11466 0
M  V30 3740 O 343.806 -1.10621 -1.85989 0
M  V30 3741 C 344.401 -3.32781 0.635769 0
M  V30 3742 C 342.96 -3.75142 0.307448 0
M  V30 3743 C 342.107 -2.62358 0.897974 0
M  V30 3744 H 345.058 -1.28349 0.933398 0
M  V30 3745 H 345.079 -3.80388 -0.0921773 0
M  V30 3746 H 344.591 -3.48654 1.70476 0
M  V30 3747 H 342.692 -3.64857 -0.755674 0
M  V30 3748 H 342.805 -4.72532 0.790583 0
M  V30 3749 H 341.169 -2.52624 0.324551 0
M  V30 3750 H 341.952 -2.81036 1.97164 0
M  V30 3751 N 344.397 -0.483516 -1.5 0
M  V30 3752 C 345.327 0.293829 -2.31644 0
M  V30 3753 C 346.308 0.978864 -1.39112 0
M  V30 3754 O 347.493 0.973644 -1.68029 0
M  V30 3755 C 344.623 1.36897 -3.19181 0
M  V30 3756 C 343.577 0.804833 -4.20365 0
M  V30 3757 C 342.903 1.9792 -4.96721 0
M  V30 3758 C 344.203 -0.192313 -5.21946 0
M  V30 3759 H 345.897 -0.387616 -2.9688 0
M  V30 3760 H 343.443 -0.187856 -1.42769 0
M  V30 3761 H 345.396 1.92037 -3.751 0
M  V30 3762 H 344.12 2.07936 -2.51853 0
M  V30 3763 H 342.779 0.275319 -3.65565 0
M  V30 3764 H 342.427 2.67686 -4.25856 0
M  V30 3765 H 342.127 1.60789 -5.65173 0
M  V30 3766 H 343.651 2.53526 -5.55479 0
M  V30 3767 H 345.065 0.270333 -5.72662 0
M  V30 3768 H 343.462 -0.478543 -5.98189 0
M  V30 3769 H 344.532 -1.11409 -4.71928 0
M  V30 3770 N 345.875 1.56104 -0.216619 0
M  V30 3771 C 347.122 1.98172 0.416416 0
M  V30 3772 C 347.45 1.10413 1.60122 0
M  V30 3773 O 346.705 0.147967 1.9514 0
M  V30 3774 C 347.004 3.45923 0.898464 0
M  V30 3775 C 346.67 4.50559 -0.175288 0
M  V30 3776 C 345.332 4.78897 -0.470271 0
M  V30 3777 C 347.684 5.1334 -0.901728 0
M  V30 3778 C 345.012 5.67299 -1.4963 0
M  V30 3779 C 347.364 6.02853 -1.91705 0
M  V30 3780 C 346.028 6.29537 -2.21901 0
M  V30 3781 H 345.298 0.725164 0.152377 0
M  V30 3782 H 347.945 1.88839 -0.318103 0
M  V30 3783 H 346.25 3.52434 1.71165 0
M  V30 3784 H 347.947 3.75841 1.39803 0
M  V30 3785 H 344.537 4.28551 0.0647806 0
M  V30 3786 H 348.721 4.91521 -0.687072 0
M  V30 3787 H 343.977 5.86239 -1.73592 0
M  V30 3788 H 348.151 6.50552 -2.48505 0
M  V30 3789 H 345.778 6.97835 -3.01548 0
M  V30 3790 N 347.353 -0.0568162 1.57498 0
M  V30 3791 C 348.583 -0.764515 1.91934 0
M  V30 3792 C 348.991 -1.70877 0.81227 0
M  V30 3793 O 348.334 -1.82351 -0.222213 0
M  V30 3794 C 348.396 -1.5994 3.21962 0
M  V30 3795 C 348.06 -0.822925 4.4953 0
M  V30 3796 C 349.057 -0.135464 5.19723 0
M  V30 3797 C 346.742 -0.785666 4.96117 0
M  V30 3798 C 348.736 0.578861 6.34766 0
M  V30 3799 C 346.423 -0.0675784 6.11063 0
M  V30 3800 C 347.421 0.613471 6.80239 0
M  V30 3801 O 347.109 1.31996 7.92989 0
M  V30 3802 H 346.841 -0.221647 0.63863 0
M  V30 3803 H 349.395 -0.0268218 2.05382 0
M  V30 3804 H 347.625 -2.38026 3.04763 0
M  V30 3805 H 349.314 -2.18715 3.41934 0
M  V30 3806 H 350.08 -0.155458 4.84751 0
M  V30 3807 H 345.959 -1.30524 4.42136 0
M  V30 3808 H 349.503 1.111 6.88696 0
M  V30 3809 H 345.4 -0.0455636 6.45484 0
M  V30 3810 H 346.168 1.23077 8.09194 0
M  V30 3811 N 348.832 -1.54138 -0.328536 0
M  V30 3812 C 350.06 -1.76062 -1.08673 0
M  V30 3813 C 350.475 -0.506852 -1.81869 0
M  V30 3814 O 349.832 0.522223 -1.74869 0
M  V30 3815 C 349.883 -2.95054 -2.08866 0
M  V30 3816 O 349.604 -4.15583 -1.38644 0
M  V30 3817 C 351.105 -3.2915 -2.96943 0
M  V30 3818 H 348.325 -0.587889 -0.323461 0
M  V30 3819 H 350.869 -2.0101 -0.376175 0
M  V30 3820 H 349.024 -2.72394 -2.75464 0
M  V30 3821 H 349.438 -4.82481 -2.05699 0
M  V30 3822 H 350.912 -4.15723 -3.63151 0
M  V30 3823 H 351.389 -2.461 -3.63774 0
M  V30 3824 H 351.995 -3.53871 -2.35914 0
M  V30 3825 N 350.31 0.590341 -1.46126 0
M  V30 3826 C 351.24 1.71032 -1.58966 0
M  V30 3827 C 352.221 1.64302 -0.440335 0
M  V30 3828 O 353.406 1.82436 -0.665634 0
M  V30 3829 C 350.536 3.09665 -1.57241 0
M  V30 3830 C 349.49 3.31221 -2.71066 0
M  V30 3831 C 348.816 4.70303 -2.54399 0
M  V30 3832 C 350.116 3.19796 -4.1295 0
M  V30 3833 H 351.81 1.60543 -2.52718 0
M  V30 3834 H 349.356 0.770933 -1.21625 0
M  V30 3835 H 351.309 3.87831 -1.64819 0
M  V30 3836 H 350.033 3.21036 -0.600289 0
M  V30 3837 H 348.692 2.55452 -2.62944 0
M  V30 3838 H 348.34 4.78429 -1.55288 0
M  V30 3839 H 348.04 4.85679 -3.30741 0
M  V30 3840 H 349.564 5.50647 -2.63857 0
M  V30 3841 H 350.978 3.87815 -4.22223 0
M  V30 3842 H 349.375 3.46696 -4.89818 0
M  V30 3843 H 350.445 2.16983 -4.33643 0
M  V30 3844 N 351.788 1.33704 0.83433 0
M  V30 3845 C 353.035 1.25417 1.58987 0
M  V30 3846 C 353.363 -0.178869 1.93676 0
M  V30 3847 O 352.618 -1.13723 1.59265 0
M  V30 3848 C 352.917 2.07926 2.90692 0
M  V30 3849 C 352.583 3.57066 2.75345 0
M  V30 3850 C 351.245 3.97724 2.70867 0
M  V30 3851 C 353.597 4.51817 2.59828 0
M  V30 3852 C 350.925 5.31344 2.48778 0
M  V30 3853 C 353.277 5.85604 2.39272 0
M  V30 3854 C 351.941 6.25439 2.33199 0
M  V30 3855 H 351.211 0.458934 0.581774 0
M  V30 3856 H 353.858 1.65335 0.966261 0
M  V30 3857 H 352.163 1.608 3.57282 0
M  V30 3858 H 353.86 1.98868 3.48213 0
M  V30 3859 H 350.45 3.24785 2.79665 0
M  V30 3860 H 354.634 4.21311 2.62319 0
M  V30 3861 H 349.89 5.61241 2.42526 0
M  V30 3862 H 354.064 6.58623 2.2625 0
M  V30 3863 H 351.691 7.28914 2.15843 0
M  V30 3864 N 353.266 -1.05314 1.17247 0
M  V30 3865 C 354.196 -2.1498 0.911362 0
M  V30 3866 C 355.177 -1.69471 -0.146169 0
M  V30 3867 O 356.362 -1.942 0.003812 0
M  V30 3868 C 353.492 -3.4472 0.422528 0
M  V30 3869 C 352.446 -4.03789 1.4191 0
M  V30 3870 C 351.772 -5.28858 0.788274 0
M  V30 3871 C 353.072 -4.41418 2.7919 0
M  V30 3872 H 354.766 -2.3708 1.82848 0
M  V30 3873 H 352.312 -1.13938 0.880569 0
M  V30 3874 H 354.265 -4.20787 0.227289 0
M  V30 3875 H 352.989 -3.22269 -0.530123 0
M  V30 3876 H 351.648 -3.2979 1.60106 0
M  V30 3877 H 351.296 -5.02709 -0.171173 0
M  V30 3878 H 350.996 -5.69338 1.45353 0
M  V30 3879 H 352.52 -6.07612 0.603282 0
M  V30 3880 H 353.934 -5.08524 2.64719 0
M  V30 3881 H 352.331 -4.92913 3.42282 0
M  V30 3882 H 353.401 -3.51819 3.33693 0
M  V30 3883 N 354.744 -0.972509 -1.24016 0
M  V30 3884 C 355.993 -0.632603 -1.91523 0
M  V30 3885 C 356.306 0.836641 -1.76804 0
M  V30 3886 O 357.512 1.28728 -2.39043 0
M  V30 3887 C 355.968 -1.08082 -3.43287 0
M  V30 3888 C 355.576 -2.57386 -3.66683 0
M  V30 3889 C 357.32 -0.814288 -4.16617 0
M  V30 3890 C 355.227 -2.95915 -5.12043 0
M  V30 3891 H 354.157 -0.232898 -0.717129 0
M  V30 3892 H 356.808 -1.17936 -1.40582 0
M  V30 3893 H 355.19 -0.462339 -3.93292 0
M  V30 3894 H 356.364 -3.24405 -3.27258 0
M  V30 3895 H 354.679 -2.81701 -3.06649 0
M  V30 3896 H 357.276 -1.0781 -5.23718 0
M  V30 3897 H 357.619 0.24955 -4.15551 0
M  V30 3898 H 358.152 -1.39397 -3.72577 0
M  V30 3899 H 354.891 -4.0139 -5.18234 0
M  V30 3900 H 354.411 -2.33584 -5.52448 0
M  V30 3901 H 356.09 -2.86086 -5.80314 0
M  V30 3902 N 356.222 1.38976 -0.743202 0
M  V30 3903 C 357.471 1.99581 -0.291592 0
M  V30 3904 C 357.784 1.59656 1.13001 0
M  V30 3905 O 358.99 2.13157 1.68156 0
M  V30 3906 C 357.446 3.56813 -0.470391 0
M  V30 3907 C 357.054 4.05695 -1.90041 0
M  V30 3908 C 358.798 4.24423 -0.0809709 0
M  V30 3909 C 356.705 5.5553 -2.02832 0
M  V30 3910 H 355.635 0.746615 -0.105272 0
M  V30 3911 H 358.286 1.58872 -0.918258 0
M  V30 3912 H 356.668 3.95359 0.225299 0
M  V30 3913 H 357.842 3.78464 -2.62872 0
M  V30 3914 H 356.157 3.50775 -2.24379 0
M  V30 3915 H 358.754 5.34474 -0.155445 0
M  V30 3916 H 359.097 4.04962 0.96497 0
M  V30 3917 H 359.63 3.9108 -0.728124 0
M  V30 3918 H 356.369 5.79881 -3.05643 0
M  V30 3919 H 355.889 5.84537 -1.34448 0
M  V30 3920 H 357.568 6.21069 -1.81335 0
M  V30 3921 N 357.7 0.491464 1.49741 0
M  V30 3922 C 359.111 0.0413169 1.86654 0
M  V30 3923 C 359.462 -1.36985 1.40462 0
M  V30 3924 O 358.587 -2.01917 0.778354 0
M  V30 3925 C 359.182 0.0682023 3.38731 0
M  V30 3926 C 357.741 -0.32656 3.74981 0
M  V30 3927 C 356.888 0.444888 2.73708 0
M  V30 3928 H 359.839 0.704733 1.42194 0
M  V30 3929 H 359.86 -0.729322 3.73445 0
M  V30 3930 H 359.372 1.09539 3.72321 0
M  V30 3931 H 357.473 -1.35734 3.46997 0
M  V30 3932 H 357.586 -0.013741 4.79098 0
M  V30 3933 H 355.95 -0.104062 2.54487 0
M  V30 3934 H 356.733 1.47197 3.10142 0
M  V30 3935 N 359.178 -1.55987 0.224894 0
M  V30 3936 C 360.418 -2.00293 -0.407706 0
M  V30 3937 C 360.782 -1.1093 -1.56711 0
M  V30 3938 O 361.983 -1.44597 -2.26595 0
M  V30 3939 C 360.254 -3.47675 -0.82805 0
M  V30 3940 S 361.813 -4.14 -1.45429 0
M  V30 3941 H 358.631 -0.699152 -0.129256 0
M  V30 3942 H 361.233 -1.92609 0.334967 0
M  V30 3943 H 359.937 -4.10392 0.0253964 0
M  V30 3944 H 359.468 -3.59239 -1.60345 0
M  V30 3945 H 361.483 -4.13465 -2.74337 0
M  V30 3946 N 360.656 0.0484629 -1.57525 0
M  V30 3947 C 361.586 1.0549 -2.08313 0
M  V30 3948 C 362.567 1.38929 -0.981463 0
M  V30 3949 O 363.752 1.48151 -1.25558 0
M  V30 3950 C 360.882 2.36162 -2.54646 0
M  V30 3951 C 359.836 2.17016 -3.68901 0
M  V30 3952 C 359.162 3.53278 -4.01371 0
M  V30 3953 C 360.462 1.57219 -4.98076 0
M  V30 3954 H 362.156 0.632195 -2.92649 0
M  V30 3955 H 359.702 0.302654 -1.40784 0
M  V30 3956 H 361.655 3.06882 -2.88793 0
M  V30 3957 H 360.379 2.80456 -1.67368 0
M  V30 3958 H 359.038 1.48733 -3.35073 0
M  V30 3959 H 358.686 3.95185 -3.11188 0
M  V30 3960 H 358.386 3.41299 -4.78318 0
M  V30 3961 H 359.91 4.25391 -4.38035 0
M  V30 3962 H 361.324 2.17832 -5.30304 0
M  V30 3963 H 359.721 1.55871 -5.79503 0
M  V30 3964 H 360.791 0.535956 -4.81929 0
M  V30 3965 N 362.134 1.5431 0.320358 0
M  V30 3966 C 363.382 1.72327 1.05583 0
M  V30 3967 C 363.703 0.50149 1.88441 0
M  V30 3968 O 362.973 -0.48448 1.89815 0
M  V30 3969 H 361.553 0.635387 0.3928 0
M  V30 3970 H 364.215 1.91621 0.356019 0
M  V30 3971 H 363.311 2.60426 1.72003 0
M  V30 3972 N 363.613 -0.582584 1.46437 0
M  V30 3973 C 364.543 -1.70187 1.59871 0
M  V30 3974 C 365.524 -1.64066 0.449042 0
M  V30 3975 O 366.709 -1.82081 0.6753 0
M  V30 3976 C 363.839 -3.08827 1.58881 0
M  V30 3977 C 362.793 -3.29779 2.72819 0
M  V30 3978 C 362.119 -4.68947 2.5689 0
M  V30 3979 C 363.419 -3.17601 4.1464 0
M  V30 3980 H 365.113 -1.592 2.53566 0
M  V30 3981 H 362.659 -0.764472 1.22032 0
M  V30 3982 H 364.612 -3.86951 1.66873 0
M  V30 3983 H 363.336 -3.20713 0.617306 0
M  V30 3984 H 361.995 -2.54054 2.64296 0
M  V30 3985 H 361.643 -4.77599 1.57823 0
M  V30 3986 H 361.343 -4.83919 3.33312 0
M  V30 3987 H 362.867 -5.4924 2.66773 0
M  V30 3988 H 364.281 -3.8557 4.24274 0
M  V30 3989 H 362.678 -3.44094 4.9165 0
M  V30 3990 H 363.748 -2.14681 4.34788 0
M  V30 3991 N 365.091 -1.34144 -0.827227 0
M  V30 3992 C 366.316 -1.29476 -1.62021 0
M  V30 3993 C 366.741 0.129292 -1.87655 0
M  V30 3994 O 366.099 1.08967 -1.449 0
M  V30 3995 C 366.147 -2.08702 -2.94068 0
M  V30 3996 O 365.251 -1.45359 -3.85933 0
M  V30 3997 H 364.592 -0.444881 -0.492927 0
M  V30 3998 H 367.122 -1.76882 -1.02829 0
M  V30 3999 H 367.132 -2.19898 -3.43669 0
M  V30 4000 H 365.807 -3.12241 -2.74734 0
M  V30 4001 H 364.384 -1.42879 -3.44442 0
M  V30 4002 N 366.569 1.04691 -1.17803 0
M  V30 4003 C 367.816 1.77782 -0.969532 0
M  V30 4004 C 368.144 1.87926 0.501401 0
M  V30 4005 O 367.399 1.37918 1.38842 0
M  V30 4006 C 367.698 3.21467 -1.56186 0
M  V30 4007 C 367.364 3.3137 -3.05786 0
M  V30 4008 C 366.026 3.3378 -3.46619 0
M  V30 4009 C 368.378 3.31976 -4.01797 0
M  V30 4010 C 365.706 3.34431 -4.82051 0
M  V30 4011 C 368.058 3.34167 -5.37136 0
M  V30 4012 C 366.722 3.34866 -5.77426 0
M  V30 4013 H 365.992 0.650549 -0.354777 0
M  V30 4014 H 368.639 1.23006 -1.46772 0
M  V30 4015 H 366.944 3.79203 -0.985515 0
M  V30 4016 H 368.641 3.76652 -1.37602 0
M  V30 4017 H 365.231 3.3021 -2.73238 0
M  V30 4018 H 369.415 3.29311 -3.71306 0
M  V30 4019 H 364.671 3.33285 -5.12573 0
M  V30 4020 H 368.845 3.33585 -6.11305 0
M  V30 4021 H 366.472 3.35124 -6.82346 0
M  V30 4022 N 368.047 0.979072 1.23499 0
M  V30 4023 C 368.977 0.537606 2.27227 0
M  V30 4024 C 369.958 -0.428539 1.64613 0
M  V30 4025 O 371.143 -0.322191 1.91509 0
M  V30 4026 C 368.273 -0.162052 3.46922 0
M  V30 4027 C 367.227 0.721242 4.21879 0
M  V30 4028 C 366.553 -0.110555 5.34586 0
M  V30 4029 C 367.853 2.01141 4.82016 0
M  V30 4030 H 369.547 1.40462 2.64406 0
M  V30 4031 H 367.093 0.67684 1.27102 0
M  V30 4032 H 369.046 -0.482192 4.18632 0
M  V30 4033 H 367.77 -1.06351 3.08799 0
M  V30 4034 H 366.429 1.02482 3.51984 0
M  V30 4035 H 366.077 -1.0125 4.92704 0
M  V30 4036 H 365.777 0.477325 5.85658 0
M  V30 4037 H 367.301 -0.425107 6.09118 0
M  V30 4038 H 368.715 1.75612 5.45741 0
M  V30 4039 H 367.112 2.54695 5.43369 0
M  V30 4040 H 368.182 2.69909 4.02836 0
M  V30 4041 N 369.525 -1.3858 0.750561 0
M  V30 4042 C 370.753 -2.04471 0.316098 0
M  V30 4043 C 371.168 -1.56606 -1.05452 0
M  V30 4044 O 370.525 -0.737784 -1.66922 0
M  V30 4045 C 370.576 -3.60025 0.326275 0
M  V30 4046 O 370.297 -4.06133 1.6428 0
M  V30 4047 C 371.798 -4.43131 -0.122429 0
M  V30 4048 H 369.018 -0.65717 0.135528 0
M  V30 4049 H 371.562 -1.77329 1.01857 0
M  V30 4050 H 369.717 -3.86014 -0.327431 0
M  V30 4051 H 370.131 -5.00547 1.56693 0
M  V30 4052 H 371.605 -5.51963 -0.0641473 0
M  V30 4053 H 372.082 -4.23333 -1.16988 0
M  V30 4054 H 372.688 -4.22323 0.50229 0
M  V30 4055 N 371.003 -0.499398 -1.49478 0
M  V30 4056 C 372.249 0.0457576 -2.02748 0
M  V30 4057 C 372.582 1.36793 -1.37846 0
M  V30 4058 O 371.857 1.87596 -0.513601 0
M  V30 4059 C 372.14 0.199986 -3.59544 0
M  V30 4060 C 371.993 -1.1452 -4.34977 0
M  V30 4061 C 373.312 0.94137 -4.29914 0
M  V30 4062 H 370.431 0.0151552 -0.736844 0
M  V30 4063 H 373.073 -0.650498 -1.78518 0
M  V30 4064 H 371.223 0.793007 -3.8032 0
M  V30 4065 H 372.895 -1.77697 -4.25701 0
M  V30 4066 H 371.138 -1.73488 -3.97598 0
M  V30 4067 H 371.809 -0.990607 -5.43039 0
M  V30 4068 H 374.285 0.43844 -4.13784 0
M  V30 4069 H 373.161 1.01812 -5.39375 0
M  V30 4070 H 373.422 1.98471 -3.95046 0
M  V30 4071 N 372.481 1.55866 -0.233164 0
M  V30 4072 C 373.411 2.23783 0.666599 0
M  V30 4073 C 374.392 1.21343 1.19205 0
M  V30 4074 O 375.577 1.4996 1.23392 0
M  V30 4075 C 372.707 2.92671 1.86978 0
M  V30 4076 C 371.661 4.01682 1.47768 0
M  V30 4077 C 370.987 4.57926 2.76058 0
M  V30 4078 C 372.287 5.18126 0.658993 0
M  V30 4079 H 373.981 2.99232 0.100306 0
M  V30 4080 H 371.527 1.43924 0.046804 0
M  V30 4081 H 373.48 3.3888 2.50476 0
M  V30 4082 H 372.204 2.14688 2.46123 0
M  V30 4083 H 370.863 3.56222 0.866106 0
M  V30 4084 H 370.511 3.76659 3.33372 0
M  V30 4085 H 370.211 5.31505 2.50552 0
M  V30 4086 H 371.735 5.06859 3.40479 0
M  V30 4087 H 373.149 5.60644 1.19795 0
M  V30 4088 H 371.546 5.98009 0.500552 0
M  V30 4089 H 372.616 4.83763 -0.331856 0
M  V30 4090 N 373.959 -0.0401083 1.57549 0
M  V30 4091 C 375.205 -0.734211 1.89043 0
M  V30 4092 C 375.538 -1.75591 0.829535 0
M  V30 4093 O 374.813 -1.93868 -0.156706 0
M  V30 4094 C 375.096 -1.41374 3.31188 0
M  V30 4095 C 374.949 -0.406299 4.47961 0
M  V30 4096 C 376.268 -2.35061 3.72068 0
M  V30 4097 H 373.387 -0.265447 0.687537 0
M  V30 4098 H 376.029 0.00294087 1.9 0
M  V30 4099 H 374.179 -2.04206 3.30503 0
M  V30 4100 H 375.851 0.219255 4.60779 0
M  V30 4101 H 374.094 0.275485 4.32924 0
M  V30 4102 H 374.765 -0.920022 5.44279 0
M  V30 4103 H 377.241 -1.82282 3.74049 0
M  V30 4104 H 376.117 -2.79593 4.72355 0
M  V30 4105 H 376.378 -3.21258 3.0372 0
M  V30 4106 N 375.437 -1.54477 -0.31217 0
M  V30 4107 C 376.684 -1.73227 -1.04875 0
M  V30 4108 C 377.012 -0.512042 -1.87639 0
M  V30 4109 O 376.267 0.506131 -1.89042 0
M  V30 4110 C 376.566 -2.967 -1.99258 0
M  V30 4111 C 376.232 -4.30974 -1.32559 0
M  V30 4112 C 374.894 -4.67477 -1.141 0
M  V30 4113 C 377.246 -5.14258 -0.847835 0
M  V30 4114 C 374.574 -5.84852 -0.465326 0
M  V30 4115 C 376.926 -6.32327 -0.185931 0
M  V30 4116 C 375.59 -6.67499 0.0107077 0
M  V30 4117 H 374.86 -0.633881 -0.383765 0
M  V30 4118 H 377.507 -1.88727 -0.324731 0
M  V30 4119 H 375.812 -2.75935 -2.7815 0
M  V30 4120 H 377.509 -3.08401 -2.563 0
M  V30 4121 H 374.099 -4.02262 -1.4793 0
M  V30 4122 H 378.283 -4.86565 -0.978192 0
M  V30 4123 H 373.539 -6.10654 -0.301883 0
M  V30 4124 H 377.713 -6.96135 0.192211 0
M  V30 4125 H 375.34 -7.58306 0.536287 0
M  V30 4126 N 376.915 0.57481 -1.46744 0
M  V30 4127 C 378.145 1.35659 -1.55821 0
M  V30 4128 C 378.553 1.88129 -0.201036 0
M  V30 4129 O 377.896 1.64723 0.813134 0
M  V30 4130 C 377.958 2.57473 -2.50894 0
M  V30 4131 C 377.622 2.26415 -3.9697 0
M  V30 4132 C 378.619 1.84771 -4.85958 0
M  V30 4133 C 376.304 2.38316 -4.42166 0
M  V30 4134 C 378.298 1.55434 -6.18158 0
M  V30 4135 C 375.985 2.08591 -5.74398 0
M  V30 4136 C 376.983 1.67216 -6.62214 0
M  V30 4137 O 376.671 1.37859 -7.91991 0
M  V30 4138 H 376.403 0.420496 -0.529301 0
M  V30 4139 H 378.957 0.704967 -1.92923 0
M  V30 4140 H 377.187 3.25468 -2.08824 0
M  V30 4141 H 378.876 3.19546 -2.50291 0
M  V30 4142 H 379.642 1.75085 -4.52295 0
M  V30 4143 H 375.521 2.69483 -3.74032 0
M  V30 4144 H 379.065 1.23065 -6.86659 0
M  V30 4145 H 374.962 2.17905 -6.07608 0
M  V30 4146 H 375.73 1.51638 -8.04331 0
M  V30 4147 N 378.394 1.34581 0.820102 0
M  V30 4148 C 379.324 1.29038 1.94606 0
M  V30 4149 C 380.305 0.1673 1.69275 0
M  V30 4150 O 381.49 0.360112 1.90832 0
M  V30 4151 C 378.62 1.04793 3.31113 0
M  V30 4152 C 377.574 2.13597 3.70891 0
M  V30 4153 C 376.9 1.74537 5.05412 0
M  V30 4154 C 378.2 3.55451 3.8269 0
M  V30 4155 H 379.894 2.23248 1.99501 0
M  V30 4156 H 377.44 1.0747 0.958449 0
M  V30 4157 H 379.393 0.995592 4.0947 0
M  V30 4158 H 378.117 0.0702565 3.26524 0
M  V30 4159 H 376.776 2.17905 2.9481 0
M  V30 4160 H 376.424 0.754226 4.97313 0
M  V30 4161 H 376.124 2.47361 5.32997 0
M  V30 4162 H 377.648 1.70803 5.86224 0
M  V30 4163 H 379.062 3.5354 4.51312 0
M  V30 4164 H 377.459 4.26922 4.21732 0
M  V30 4165 H 378.529 3.92587 2.84611 0
M  V30 4166 N 379.872 -1.04064 1.18357 0
M  V30 4167 C 381.283 -1.58719 0.98312 0
M  V30 4168 C 381.634 -1.90556 -0.467193 0
M  V30 4169 O 380.759 -1.69561 -1.34454 0
M  V30 4170 C 381.354 -2.88379 1.77828 0
M  V30 4171 C 379.913 -3.3965 1.62218 0
M  V30 4172 C 379.06 -2.13235 1.77274 0
M  V30 4173 H 382.011 -0.867359 1.32901 0
M  V30 4174 H 382.032 -3.58773 1.26737 0
M  V30 4175 H 381.544 -2.65176 2.83379 0
M  V30 4176 H 379.645 -3.67866 0.592036 0
M  V30 4177 H 379.758 -4.13475 2.42023 0
M  V30 4178 H 378.122 -2.24542 1.20221 0
M  V30 4179 H 378.905 -1.92487 2.8426 0
M  V30 4180 N 381.35 -0.985608 -1.22978 0
M  V30 4181 C 382.575 -0.675254 -1.961 0
M  V30 4182 C 383 0.752154 -1.72407 0
M  V30 4183 O 382.358 1.5131 -0.998751 0
M  V30 4184 C 382.406 -0.977899 -3.47087 0
M  V30 4185 O 381.51 -0.072685 -4.12336 0
M  V30 4186 H 380.851 -0.253443 -0.613728 0
M  V30 4187 H 383.381 -1.32061 -1.56272 0
M  V30 4188 H 383.391 -0.916739 -3.97567 0
M  V30 4189 H 382.066 -2.01807 -3.63657 0
M  V30 4190 H 380.643 -0.188703 -3.72422 0
M  V30 4191 N 382.828 1.3818 -0.7579 0
M  V30 4192 C 384.105 1.94106 -0.241306 0
M  V30 4193 C 384.485 1.69282 1.26122 0
M  V30 4194 O 383.833 1.03378 2.03777 0
M  V30 4195 C 384.043 3.43809 -0.59967 0
M  V30 4196 C 385.391 4.20868 -0.561717 0
M  V30 4197 O 386.415 3.5211 -0.538222 0
M  V30 4198 O 385.274 5.43451 -0.576478 0
M  V30 4199 H 382.368 0.825376 -0.0518042 0
M  V30 4200 H 384.914 1.47548 -0.838315 0
M  V30 4201 H 383.686 3.55403 -1.6372 0
M  V30 4202 H 383.309 3.97592 0.0251197 0
M  V30 4203 N 384.306 0.507319 1.49211 0
M  V30 4204 C 385.216 -0.272136 2.33016 0
M  V30 4205 C 386.232 -0.961206 1.45041 0
M  V30 4206 O 387.408 -0.941191 1.78055 0
M  V30 4207 C 384.473 -1.31895 3.20631 0
M  V30 4208 C 383.534 -0.642648 4.24463 0
M  V30 4209 C 382.767 -1.63959 5.07891 0
M  V30 4210 O 382.99 -2.87007 4.92933 0
M  V30 4211 O 381.924 -1.19143 5.8999 0
M  V30 4212 H 385.75 0.413982 3.00865 0
M  V30 4213 H 383.335 0.268556 1.46966 0
M  V30 4214 H 385.217 -1.92446 3.7489 0
M  V30 4215 H 383.892 -1.98788 2.5547 0
M  V30 4216 H 382.799 0.00276252 3.741 0
M  V30 4217 H 384.132 -0.0160534 4.92197 0
M  V30 4218 N 385.784 -1.5574 0.241426 0
M  V30 4219 C 387.032 -1.98417 -0.384075 0
M  V30 4220 C 387.353 -1.13078 -1.58866 0
M  V30 4221 O 386.623 -0.212312 -1.94746 0
M  V30 4222 H 385.203 -0.732813 -0.144894 0
M  V30 4223 H 387.865 -1.9193 0.338943 0
M  V30 4224 H 386.961 -3.04219 -0.696939 0
M  V30 4225 N 387.262 0.0317525 -1.57568 0
M  V30 4226 C 388.172 1.05021 -2.0978 0
M  V30 4227 C 389.188 1.39809 -1.03583 0
M  V30 4228 O 390.364 1.49182 -1.35302 0
M  V30 4229 C 387.429 2.33301 -2.56459 0
M  V30 4230 C 386.49 2.0512 -3.77127 0
M  V30 4231 C 385.723 3.27283 -4.2157 0
M  V30 4232 O 385.946 4.37861 -3.65559 0
M  V30 4233 O 384.88 3.13141 -5.14029 0
M  V30 4234 H 388.706 0.636505 -2.96955 0
M  V30 4235 H 386.291 0.248559 -1.47318 0
M  V30 4236 H 388.173 3.08722 -2.86825 0
M  V30 4237 H 386.848 2.73973 -1.72397 0
M  V30 4238 H 385.755 1.27276 -3.51784 0
M  V30 4239 H 387.088 1.69305 -4.62165 0
M  V30 4240 N 388.74 1.54641 0.303973 0
M  V30 4241 C 389.687 1.85386 1.37479 0
M  V30 4242 C 390.657 0.702528 1.50512 0
M  V30 4243 O 391.842 0.950867 1.65418 0
M  V30 4244 C 388.982 2.10413 2.73533 0
M  V30 4245 C 388.095 3.38049 2.68974 0
M  V30 4246 C 387.23 3.52934 3.97002 0
M  V30 4247 C 386.269 4.74373 3.86829 0
M  V30 4248 N 385.406 4.8608 5.06627 0
M  V30 4249 H 390.246 2.76732 1.1056 0
M  V30 4250 H 387.783 1.37034 0.534805 0
M  V30 4251 H 389.741 2.22919 3.52652 0
M  V30 4252 H 388.371 1.22338 2.98719 0
M  V30 4253 H 387.423 3.3418 1.81736 0
M  V30 4254 H 388.735 4.27288 2.57346 0
M  V30 4255 H 387.889 3.65088 4.84557 0
M  V30 4256 H 386.628 2.61824 4.1146 0
M  V30 4257 H 385.633 4.62255 2.97658 0
M  V30 4258 H 386.858 5.66888 3.73918 0
M  V30 4259 H 384.804 3.97891 5.21554 0
M  V30 4260 H 384.721 5.69315 4.9741 0
M  V30 4261 H 385.989 5.02587 5.95841 0
M  V30 4262 N 390.218 -0.567019 1.47046 0
M  V30 4263 C 391.148 -1.68482 1.61667 0
M  V30 4264 C 392.129 -1.6358 0.466418 0
M  V30 4265 O 393.314 -1.81354 0.694574 0
M  V30 4266 C 390.444 -3.07124 1.62148 0
M  V30 4267 C 389.398 -3.26867 2.76301 0
M  V30 4268 C 388.724 -4.66196 2.61849 0
M  V30 4269 C 390.024 -3.13186 4.17986 0
M  V30 4270 H 391.718 -1.56502 2.5524 0
M  V30 4271 H 389.264 -0.751486 1.22836 0
M  V30 4272 H 391.217 -3.8516 1.70968 0
M  V30 4273 H 389.941 -3.2004 0.651287 0
M  V30 4274 H 388.6 -2.51237 2.66975 0
M  V30 4275 H 388.248 -4.75898 1.62879 0
M  V30 4276 H 387.948 -4.80356 3.38425 0
M  V30 4277 H 389.472 -5.46379 2.72584 0
M  V30 4278 H 390.886 -3.81049 4.2834 0
M  V30 4279 H 389.283 -3.3886 4.95272 0
M  V30 4280 H 390.353 -2.10057 4.3704 0
M  V30 4281 N 391.696 -1.35014 -0.812953 0
M  V30 4282 C 392.921 -1.31187 -1.60639 0
M  V30 4283 C 393.346 0.109382 -1.87782 0
M  V30 4284 O 392.704 1.07424 -1.46047 0
M  V30 4285 C 392.752 -2.11809 -2.91838 0
M  V30 4286 O 391.856 -1.49444 -3.8437 0
M  V30 4287 H 391.197 -0.450084 -0.488181 0
M  V30 4288 H 393.727 -1.77963 -1.00947 0
M  V30 4289 H 393.737 -2.23531 -3.41318 0
M  V30 4290 H 392.412 -3.15137 -2.71407 0
M  V30 4291 H 390.989 -1.46524 -3.42907 0
M  V30 4292 N 393.175 1.03435 -1.18907 0
M  V30 4293 C 394.105 2.13503 -0.945448 0
M  V30 4294 C 395.086 1.69682 0.119189 0
M  V30 4295 O 396.271 1.94169 -0.034707 0
M  V30 4296 C 393.401 3.44004 -0.477316 0
M  V30 4297 C 392.355 4.0148 -1.48316 0
M  V30 4298 C 391.681 5.27537 -0.872311 0
M  V30 4299 C 392.981 4.36921 -2.86177 0
M  V30 4300 H 394.675 2.34141 -1.86597 0
M  V30 4301 H 392.221 1.12523 -0.898584 0
M  V30 4302 H 394.174 4.20372 -0.294204 0
M  V30 4303 H 392.898 3.23072 0.478786 0
M  V30 4304 H 391.557 3.27201 -1.65332 0
M  V30 4305 H 391.205 5.02917 0.0911752 0
M  V30 4306 H 390.905 5.66954 -1.54393 0
M  V30 4307 H 392.429 6.06576 -0.699871 0
M  V30 4308 H 393.843 5.04248 -2.72776 0
M  V30 4309 H 392.24 4.87405 -3.50081 0
M  V30 4310 H 393.31 3.46466 -3.39248 0
M  V30 4311 N 394.653 0.992116 1.22453 0
M  V30 4312 C 395.878 0.685644 1.95739 0
M  V30 4313 C 396.303 -0.743 1.72804 0
M  V30 4314 O 395.661 -1.50778 1.00676 0
M  V30 4315 C 395.709 0.996293 3.46564 0
M  V30 4316 O 394.813 0.0945512 4.12292 0
M  V30 4317 H 394.154 0.256694 0.612376 0
M  V30 4318 H 396.684 1.32888 1.5557 0
M  V30 4319 H 396.694 0.93781 3.97076 0
M  V30 4320 H 395.369 2.03733 3.62582 0
M  V30 4321 H 393.946 0.208451 3.72317 0
M  V30 4322 N 396.131 -1.37776 0.765217 0
M  V30 4323 C 397.359 -2.04124 0.337767 0
M  V30 4324 C 397.774 -1.57715 -1.03785 0
M  V30 4325 O 397.131 -0.755447 -1.6613 0
M  V30 4326 C 397.182 -3.59658 0.364442 0
M  V30 4327 O 396.903 -4.04367 1.68579 0
M  V30 4328 C 398.404 -4.43236 -0.0754221 0
M  V30 4329 H 395.624 -0.655696 0.142491 0
M  V30 4330 H 398.168 -1.76238 1.03732 0
M  V30 4331 H 396.323 -3.86339 -0.286471 0
M  V30 4332 H 396.737 -4.98857 1.61993 0
M  V30 4333 H 398.211 -5.52 -0.00560067 0
M  V30 4334 H 398.688 -4.2455 -1.12491 0
M  V30 4335 H 399.294 -4.21767 0.547055 0
M  V30 4336 N 397.609 -0.515225 -1.4894 0
M  V30 4337 C 398.834 0.022727 -2.07388 0
M  V30 4338 C 399.259 1.2876 -1.37122 0
M  V30 4339 O 398.617 1.76067 -0.432431 0
M  V30 4340 C 398.665 0.244869 -3.59768 0
M  V30 4341 O 397.769 1.31667 -3.90817 0
M  V30 4342 H 397.11 -0.0325506 -0.663202 0
M  V30 4343 H 399.64 -0.718918 -1.91553 0
M  V30 4344 H 399.65 0.47205 -4.0526 0
M  V30 4345 H 398.325 -0.679194 -4.10317 0
M  V30 4346 H 396.902 1.07331 -3.5712 0
M  V30 4347 N 399.087 1.5561 -0.249682 0
M  V30 4348 C 400.333 1.99306 0.374841 0
M  V30 4349 C 400.666 1.13767 1.57387 0
M  V30 4350 O 399.941 0.201711 1.93451 0
M  V30 4351 C 400.224 3.51507 0.781986 0
M  V30 4352 C 400.077 4.4781 -0.422629 0
M  V30 4353 C 401.396 4.08884 1.62793 0
M  V30 4354 H 398.515 0.724572 0.134773 0
M  V30 4355 H 401.157 1.86719 -0.351549 0
M  V30 4356 H 399.307 3.62363 1.4009 0
M  V30 4357 H 400.979 4.48931 -1.06108 0
M  V30 4358 H 399.222 4.20518 -1.06524 0
M  V30 4359 H 399.893 5.51919 -0.0943766 0
M  V30 4360 H 402.369 4.01147 1.10547 0
M  V30 4361 H 401.245 5.1564 1.88166 0
M  V30 4362 H 401.506 3.57515 2.60068 0
M  V30 4363 N 400.565 -0.0233959 1.57583 0
M  V30 4364 C 401.495 -1.02162 2.09965 0
M  V30 4365 C 402.476 -1.3735 1.00344 0
M  V30 4366 O 403.661 -1.46135 1.27899 0
M  V30 4367 C 400.791 -2.32081 2.58371 0
M  V30 4368 C 399.745 -2.1112 3.72307 0
M  V30 4369 C 399.071 -3.46848 4.06941 0
M  V30 4370 C 400.371 -1.49276 5.00514 0
M  V30 4371 H 402.065 -0.585557 2.93618 0
M  V30 4372 H 399.611 -0.280218 1.41247 0
M  V30 4373 H 401.564 -3.02249 2.93639 0
M  V30 4374 H 400.288 -2.77758 1.71808 0
M  V30 4375 H 398.947 -1.43384 3.37397 0
M  V30 4376 H 398.595 -3.90184 3.17436 0
M  V30 4377 H 398.295 -3.33646 4.83688 0
M  V30 4378 H 399.819 -4.18369 4.44747 0
M  V30 4379 H 401.233 -2.09368 5.33702 0
M  V30 4380 H 399.63 -1.46632 5.8191 0
M  V30 4381 H 400.7 -0.459217 4.82721 0
M  V30 4382 N 402.043 -1.548 -0.295768 0
M  V30 4383 C 403.289 -1.74588 -1.03184 0
M  V30 4384 C 403.622 -0.532962 -1.86744 0
M  V30 4385 O 402.897 0.469872 -1.88739 0
M  V30 4386 C 403.18 -3.03791 -1.93347 0
M  V30 4387 C 403.033 -4.35392 -1.12933 0
M  V30 4388 C 404.352 -3.28892 -2.92435 0
M  V30 4389 H 401.471 -0.635221 -0.373715 0
M  V30 4390 H 404.113 -1.87519 -0.30606 0
M  V30 4391 H 402.263 -2.92898 -2.55232 0
M  V30 4392 H 403.935 -4.58211 -0.532943 0
M  V30 4393 H 402.178 -4.31642 -0.432168 0
M  V30 4394 H 402.849 -5.22074 -1.79284 0
M  V30 4395 H 405.325 -3.39429 -2.4068 0
M  V30 4396 H 404.201 -4.20603 -3.52682 0
M  V30 4397 H 404.462 -2.47437 -3.6637 0
M  V30 4398 N 403.521 0.559213 -1.47345 0
M  V30 4399 C 404.746 1.34676 -1.57725 0
M  V30 4400 C 405.171 1.86723 -0.227164 0
M  V30 4401 O 404.529 1.6286 0.796642 0
M  V30 4402 C 404.577 2.49399 -2.60447 0
M  V30 4403 O 403.681 3.51567 -2.15578 0
M  V30 4404 H 403.022 0.400115 -0.52991 0
M  V30 4405 H 405.552 0.676009 -1.93109 0
M  V30 4406 H 405.562 2.95996 -2.80803 0
M  V30 4407 H 404.237 2.10873 -3.58477 0
M  V30 4408 H 402.814 3.11289 -2.05313 0
M  V30 4409 N 404.999 1.35443 0.805782 0
M  V30 4410 C 405.929 1.31095 1.93226 0
M  V30 4411 C 406.91 0.185244 1.69088 0
M  V30 4412 O 408.095 0.380332 1.90439 0
M  V30 4413 C 405.225 1.08299 3.29983 0
M  V30 4414 C 404.179 2.17519 3.68605 0
M  V30 4415 C 403.505 1.79887 5.03532 0
M  V30 4416 C 404.805 3.5949 3.78898 0
M  V30 4417 H 406.499 2.25352 1.97122 0
M  V30 4418 H 404.045 1.0848 0.946996 0
M  V30 4419 H 405.998 1.03897 4.08391 0
M  V30 4420 H 404.722 0.104885 3.26432 0
M  V30 4421 H 403.381 2.2102 2.92482 0
M  V30 4422 H 403.029 0.80693 4.96485 0
M  V30 4423 H 402.729 2.53001 5.30344 0
M  V30 4424 H 404.253 1.77011 5.84379 0
M  V30 4425 H 405.667 3.58307 4.47536 0
M  V30 4426 H 404.064 4.31371 4.1718 0
M  V30 4427 H 405.134 3.95584 2.80431 0
M  V30 4428 N 406.477 -1.02803 1.19454 0
M  V30 4429 C 407.705 -1.79841 1.02297 0
M  V30 4430 C 408.12 -1.83879 -0.428259 0
M  V30 4431 O 407.477 -1.28345 -1.29745 0
M  V30 4432 C 407.528 -3.24852 1.58598 0
M  V30 4433 O 407.249 -3.21097 2.98041 0
M  V30 4434 C 408.75 -4.18485 1.46236 0
M  V30 4435 H 405.97 -0.565936 0.360496 0
M  V30 4436 H 408.514 -1.2948 1.58288 0
M  V30 4437 H 406.669 -3.72401 1.06753 0
M  V30 4438 H 407.083 -4.12033 3.24545 0
M  V30 4439 H 408.557 -5.18121 1.90407 0
M  V30 4440 H 409.034 -4.37254 0.41301 0
M  V30 4441 H 409.64 -3.76811 1.97215 0
M  V30 4442 N 407.956 -0.998596 -1.21925 0
M  V30 4443 C 409.202 -0.678667 -1.91107 0
M  V30 4444 C 409.535 0.78791 -1.77498 0
M  V30 4445 O 408.81 1.57043 -1.1475 0
M  V30 4446 C 409.093 -1.09245 -3.43129 0
M  V30 4447 C 408.946 -2.61801 -3.6576 0
M  V30 4448 C 410.265 -0.649984 -4.35274 0
M  V30 4449 H 407.384 -0.248025 -0.694012 0
M  V30 4450 H 410.026 -1.24314 -1.43688 0
M  V30 4451 H 408.176 -0.612171 -3.83647 0
M  V30 4452 H 409.848 -3.17543 -3.34611 0
M  V30 4453 H 408.091 -3.03609 -3.09845 0
M  V30 4454 H 408.762 -2.85804 -4.7225 0
M  V30 4455 H 411.238 -1.0626 -4.02303 0
M  V30 4456 H 410.114 -0.967743 -5.40302 0
M  V30 4457 H 410.375 0.449139 -4.39813 0
M  V30 4458 N 409.434 1.37368 -0.772513 0
M  V30 4459 C 410.681 1.99673 -0.337182 0
M  V30 4460 C 411.009 1.61324 1.0865 0
M  V30 4461 O 410.264 0.851377 1.7621 0
M  V30 4462 C 410.563 3.54817 -0.428876 0
M  V30 4463 C 410.229 4.12936 -1.81092 0
M  V30 4464 C 408.891 4.28523 -2.1891 0
M  V30 4465 C 411.243 4.44801 -2.71664 0
M  V30 4466 C 408.571 4.73277 -3.46735 0
M  V30 4467 C 410.923 4.90981 -3.98899 0
M  V30 4468 C 409.587 5.04773 -4.36761 0
M  V30 4469 H 408.857 0.730656 -0.123384 0
M  V30 4470 H 411.504 1.64124 -0.986686 0
M  V30 4471 H 409.809 3.90618 0.304167 0
M  V30 4472 H 411.506 4.00933 -0.0733334 0
M  V30 4473 H 408.096 4.01233 -1.50699 0
M  V30 4474 H 412.28 4.32344 -2.43706 0
M  V30 4475 H 407.536 4.82142 -3.75964 0
M  V30 4476 H 411.71 5.14603 -4.69208 0
M  V30 4477 H 409.337 5.39211 -5.35868 0
M  V30 4478 N 410.912 0.523116 1.48665 0
M  V30 4479 C 411.842 -0.23231 2.32342 0
M  V30 4480 C 412.823 -0.941637 1.41659 0
M  V30 4481 O 414.008 -0.928751 1.70552 0
M  V30 4482 C 411.138 -1.28387 3.22698 0
M  V30 4483 C 410.092 -0.693098 4.22351 0
M  V30 4484 C 409.418 -1.8468 5.01794 0
M  V30 4485 C 410.718 0.33063 5.21252 0
M  V30 4486 H 412.412 0.466192 2.95748 0
M  V30 4487 H 409.958 0.225643 1.42221 0
M  V30 4488 H 411.911 -1.82024 3.80059 0
M  V30 4489 H 410.635 -2.01186 2.57278 0
M  V30 4490 H 409.294 -0.178299 3.66166 0
M  V30 4491 H 408.942 -2.56301 4.32804 0
M  V30 4492 H 408.642 -1.45747 5.69238 0
M  V30 4493 H 410.166 -2.38709 5.62006 0
M  V30 4494 H 411.58 -0.118407 5.73178 0
M  V30 4495 H 409.977 0.636974 5.9671 0
M  V30 4496 H 411.047 1.23883 4.68808 0
M  V30 4497 N 412.39 -1.55475 0.257931 0
M  V30 4498 C 413.32 -2.24815 -0.630912 0
M  V30 4499 C 414.301 -1.23224 -1.17259 0
M  V30 4500 O 415.486 -1.51904 -1.20991 0
M  V30 4501 C 412.616 -2.95609 -1.82298 0
M  V30 4502 C 411.57 -4.03982 -1.41359 0
M  V30 4503 C 410.896 -4.6226 -2.68738 0
M  V30 4504 C 412.196 -5.19109 -0.57648 0
M  V30 4505 H 413.89 -2.99354 -0.0526878 0
M  V30 4506 H 411.436 -1.4398 -0.023901 0
M  V30 4507 H 413.389 -3.42822 -2.45054 0
M  V30 4508 H 412.113 -2.18577 -2.42676 0
M  V30 4509 H 410.772 -3.57555 -0.809324 0
M  V30 4510 H 410.42 -3.81915 -3.27338 0
M  V30 4511 H 410.12 -5.35424 -2.42065 0
M  V30 4512 H 411.644 -5.12212 -3.32372 0
M  V30 4513 H 413.058 -5.62479 -1.10861 0
M  V30 4514 H 411.455 -5.98729 -0.405351 0
M  V30 4515 H 412.525 -4.83174 0.408776 0
M  V30 4516 N 413.868 0.0150385 -1.57593 0
M  V30 4517 C 415.114 0.704043 -1.90187 0
M  V30 4518 C 415.447 1.74249 -0.857366 0
M  V30 4519 O 414.722 1.94092 0.125843 0
M  V30 4520 C 415.005 1.36087 -3.33395 0
M  V30 4521 C 414.858 0.334981 -4.48551 0
M  V30 4522 C 416.177 2.29112 -3.7576 0
M  V30 4523 H 413.296 0.254475 -0.691673 0
M  V30 4524 H 415.938 -0.0331678 -1.89971 0
M  V30 4525 H 414.088 1.98922 -3.3371 0
M  V30 4526 H 415.76 -0.292534 -4.60372 0
M  V30 4527 H 414.003 -0.344325 -4.32431 0
M  V30 4528 H 414.674 0.833316 -5.45674 0
M  V30 4529 H 417.15 1.76308 -3.76902 0
M  V30 4530 H 416.026 2.72043 -4.76743 0
M  V30 4531 H 416.287 3.16385 -3.08793 0
M  V30 4532 N 415.346 1.54954 0.287554 0
M  V30 4533 C 416.595 1.74081 1.01877 0
M  V30 4534 C 416.908 0.541135 1.87966 0
M  V30 4535 O 418.114 0.614491 2.64455 0
M  V30 4536 C 416.57 3.08042 1.86113 0
M  V30 4537 C 416.178 4.35531 1.04961 0
M  V30 4538 C 417.922 3.36523 2.58752 0
M  V30 4539 C 415.829 5.60538 1.88551 0
M  V30 4540 H 414.759 0.64884 0.384087 0
M  V30 4541 H 417.41 1.81426 0.275101 0
M  V30 4542 H 415.792 2.94696 2.64519 0
M  V30 4543 H 416.966 4.59751 0.31074 0
M  V30 4544 H 415.281 4.14085 0.43843 0
M  V30 4545 H 417.878 4.27122 3.21668 0
M  V30 4546 H 418.221 2.56 3.28283 0
M  V30 4547 H 418.754 3.50901 1.87386 0
M  V30 4548 H 415.493 6.43767 1.23466 0
M  V30 4549 H 415.013 5.40483 2.60074 0
M  V30 4550 H 416.692 5.98297 2.46273 0
M  V30 4551 N 416.824 -0.551391 1.4764 0
M  V30 4552 C 417.734 -1.68525 1.63207 0
M  V30 4553 C 418.75 -1.6621 0.514815 0
M  V30 4554 O 419.926 -1.85551 0.783113 0
M  V30 4555 C 416.991 -3.05025 1.64805 0
M  V30 4556 C 416.052 -3.18362 2.88 0
M  V30 4557 C 415.285 -4.4835 2.89513 0
M  V30 4558 O 415.508 -5.34163 2.00065 0
M  V30 4559 O 414.442 -4.65602 3.81443 0
M  V30 4560 H 418.268 -1.58333 2.59161 0
M  V30 4561 H 415.853 -0.722063 1.30792 0
M  V30 4562 H 417.735 -3.86245 1.68502 0
M  V30 4563 H 416.41 -3.15587 0.720197 0
M  V30 4564 H 415.317 -2.36518 2.89845 0
M  V30 4565 H 416.65 -3.12707 3.80099 0
M  V30 4566 N 418.302 -1.35869 -0.798587 0
M  V30 4567 C 419.212 -1.31578 -1.94228 0
M  V30 4568 C 420.228 -0.21939 -1.72611 0
M  V30 4569 O 421.404 -0.450167 -1.96305 0
M  V30 4570 C 418.469 -1.09528 -3.28944 0
M  V30 4571 C 417.53 -2.28556 -3.63402 0
M  V30 4572 C 416.763 -2.07549 -4.9169 0
M  V30 4573 O 416.986 -1.046 -5.60727 0
M  V30 4574 O 415.92 -2.95106 -5.24591 0
M  V30 4575 H 419.746 -2.27847 -2.00796 0
M  V30 4576 H 417.331 -1.16322 -0.937526 0
M  V30 4577 H 419.213 -0.991127 -4.09579 0
M  V30 4578 H 417.888 -0.16315 -3.23289 0
M  V30 4579 H 416.795 -2.44538 -2.83112 0
M  V30 4580 H 418.128 -3.20244 -3.73771 0
M  V30 4581 N 419.78 1.02168 -1.19998 0
M  V30 4582 C 421.029 1.75091 -1.0013 0
M  V30 4583 C 421.342 1.89923 0.467835 0
M  V30 4584 O 422.548 2.59888 0.785515 0
M  V30 4585 C 421.004 3.14892 -1.74273 0
M  V30 4586 C 420.612 3.0809 -3.25245 0
M  V30 4587 C 422.356 3.9206 -1.62755 0
M  V30 4588 C 420.263 4.42867 -3.91948 0
M  V30 4589 H 419.193 0.656394 -0.37103 0
M  V30 4590 H 421.844 1.14284 -1.43567 0
M  V30 4591 H 420.226 3.7621 -1.2362 0
M  V30 4592 H 421.4 2.5611 -3.83072 0
M  V30 4593 H 419.715 2.44416 -3.3712 0
M  V30 4594 H 422.312 4.91764 -2.09934 0
M  V30 4595 H 422.655 4.12199 -0.582894 0
M  V30 4596 H 423.188 3.37359 -2.10793 0
M  V30 4597 H 419.927 4.27931 -4.96543 0
M  V30 4598 H 419.447 4.94874 -3.3891 0
M  V30 4599 H 421.126 5.11728 -3.95909 0
M  V30 4600 N 421.258 1.00505 1.21394 0
M  V30 4601 C 422.507 0.683159 1.89778 0
M  V30 4602 C 422.82 -0.789471 1.7896 0
M  V30 4603 O 424.026 -1.22344 2.42372 0
M  V30 4604 C 422.482 1.17146 3.40301 0
M  V30 4605 C 422.09 2.67017 3.5973 0
M  V30 4606 C 423.834 0.924461 4.14311 0
M  V30 4607 C 421.741 3.09387 5.04017 0
M  V30 4608 H 420.671 0.25183 0.710702 0
M  V30 4609 H 423.322 1.21622 1.37406 0
M  V30 4610 H 421.704 0.566451 3.91928 0
M  V30 4611 H 422.878 3.32968 3.18542 0
M  V30 4612 H 421.193 2.89732 2.99073 0
M  V30 4613 H 423.79 1.21658 5.20676 0
M  V30 4614 H 424.133 -0.139286 4.16067 0
M  V30 4615 H 424.666 1.49226 3.6875 0
M  V30 4616 H 421.405 4.14989 5.07409 0
M  V30 4617 H 420.925 2.48149 5.46061 0
M  V30 4618 H 422.604 3.01371 5.72525 0
M  V30 4619 N 422.737 -1.36956 0.779787 0
M  V30 4620 C 424.148 -1.82094 0.412156 0
M  V30 4621 C 424.499 -1.64926 -1.06273 0
M  V30 4622 O 423.624 -1.16483 -1.82375 0
M  V30 4623 C 424.219 -3.3059 0.741319 0
M  V30 4624 C 422.778 -3.73974 0.426641 0
M  V30 4625 C 421.925 -2.59368 0.980987 0
M  V30 4626 H 424.876 -1.25314 0.973758 0
M  V30 4627 H 424.897 -3.80489 0.028887 0
M  V30 4628 H 424.409 -3.43054 1.81482 0
M  V30 4629 H 422.51 -3.67076 -0.639215 0
M  V30 4630 H 422.623 -4.69778 0.940515 0
M  V30 4631 H 420.987 -2.51463 0.404757 0
M  V30 4632 H 421.77 -2.74621 2.06005 0
M  V30 4633 N 424.215 -0.530993 -1.48385 0
M  V30 4634 C 425.44 0.000729535 -2.074 0
M  V30 4635 C 425.865 1.27298 -1.3848 0
M  V30 4636 O 425.223 1.75599 -0.451081 0
M  V30 4637 C 425.271 0.206697 -3.60007 0
M  V30 4638 O 424.375 1.27514 -3.92191 0
M  V30 4639 H 423.716 -0.039583 -0.662819 0
M  V30 4640 H 426.246 -0.739194 -1.9078 0
M  V30 4641 H 426.256 0.42904 -4.05738 0
M  V30 4642 H 424.931 -0.722675 -4.09573 0
M  V30 4643 H 423.508 1.03537 -3.58238 0
M  V30 4644 N 425.693 1.55336 -0.266172 0
M  V30 4645 C 426.918 2.04258 0.359661 0
M  V30 4646 C 427.343 1.14359 1.49344 0
M  V30 4647 O 426.701 0.140369 1.80756 0
M  V30 4648 C 426.749 3.50997 0.826635 0
M  V30 4649 O 425.853 3.64204 1.93466 0
M  V30 4650 H 425.194 0.659668 0.075727 0
M  V30 4651 H 427.724 2.00694 -0.39786 0
M  V30 4652 H 427.734 3.9219 1.12477 0
M  V30 4653 H 426.409 4.159 -0.00293032 0
M  V30 4654 H 424.986 3.34913 1.63974 0
M  V30 4655 N 427.171 -0.0066808 1.57599 0
M  V30 4656 C 428.396 -0.707738 1.94951 0
M  V30 4657 C 428.821 -1.66882 0.867868 0
M  V30 4658 O 428.179 -1.80457 -0.17458 0
M  V30 4659 C 428.227 -1.42162 3.31394 0
M  V30 4660 O 427.331 -2.53578 3.25226 0
M  V30 4661 H 426.672 -0.188752 0.636607 0
M  V30 4662 H 429.202 0.0445193 2.04552 0
M  V30 4663 H 429.212 -1.78655 3.66806 0
M  V30 4664 H 427.887 -0.716903 4.09675 0
M  V30 4665 H 426.464 -2.19463 3.01481 0
M  V30 4666 N 428.649 -1.55105 -0.279332 0
M  V30 4667 C 429.596 -1.8755 -1.34513 0
M  V30 4668 C 430.566 -0.726384 -1.49375 0
M  V30 4669 O 431.751 -0.977063 -1.63884 0
M  V30 4670 C 428.891 -2.14738 -2.70151 0
M  V30 4671 C 428.004 -3.42285 -2.63562 0
M  V30 4672 C 427.139 -3.59206 -3.91337 0
M  V30 4673 C 426.178 -4.80467 -3.79233 0
M  V30 4674 N 425.315 -4.94079 -4.98829 0
M  V30 4675 H 430.155 -2.78456 -1.06143 0
M  V30 4676 H 427.692 -1.37867 -0.512936 0
M  V30 4677 H 429.65 -2.28501 -3.49061 0
M  V30 4678 H 428.28 -1.27075 -2.96735 0
M  V30 4679 H 427.332 -3.37029 -1.76397 0
M  V30 4680 H 428.644 -4.31328 -2.50515 0
M  V30 4681 H 427.798 -3.72751 -4.78687 0
M  V30 4682 H 426.537 -2.68337 -4.07243 0
M  V30 4683 H 425.542 -4.66932 -2.90266 0
M  V30 4684 H 426.767 -5.72765 -3.64852 0
M  V30 4685 H 424.713 -4.06139 -5.15158 0
M  V30 4686 H 424.63 -5.77156 -4.8829 0
M  V30 4687 H 425.898 -5.12003 -5.8777 0
M  V30 4688 N 430.127 0.543554 -1.4793 0
M  V30 4689 C 431.373 1.30201 -1.55485 0
M  V30 4690 C 431.706 1.92925 -0.222201 0
M  V30 4691 O 430.981 1.78586 0.77053 0
M  V30 4692 C 431.264 2.40174 -2.68307 0
M  V30 4693 C 431.117 1.8223 -4.11233 0
M  V30 4694 C 432.436 3.42024 -2.76961 0
M  V30 4695 H 429.555 0.472036 -0.565996 0
M  V30 4696 H 432.197 0.606914 -1.80046 0
M  V30 4697 H 430.347 2.99463 -2.47495 0
M  V30 4698 H 432.019 1.27096 -4.43446 0
M  V30 4699 H 430.262 1.12832 -4.18869 0
M  V30 4700 H 430.933 2.61793 -4.85972 0
M  V30 4701 H 433.409 2.92672 -2.95774 0
M  V30 4702 H 432.285 4.16383 -3.57654 0
M  V30 4703 H 432.546 4.0173 -1.84568 0
M  V30 4704 N 431.605 1.3629 0.791371 0
M  V30 4705 C 432.854 1.29742 1.54434 0
M  V30 4706 C 433.167 -0.121729 1.95221 0
M  V30 4707 O 434.373 -0.309579 2.69729 0
M  V30 4708 C 432.829 2.27623 2.78776 0
M  V30 4709 C 432.437 3.74963 2.45166 0
M  V30 4710 C 434.181 2.30047 3.56761 0
M  V30 4711 C 432.088 4.64626 3.65891 0
M  V30 4712 H 431.018 0.482113 0.579727 0
M  V30 4713 H 433.669 1.61642 0.868565 0
M  V30 4714 H 432.051 1.88714 3.48142 0
M  V30 4715 H 433.225 4.22596 1.83709 0
M  V30 4716 H 431.54 3.75295 1.80396 0
M  V30 4717 H 434.137 2.94247 4.46456 0
M  V30 4718 H 434.48 1.30846 3.95203 0
M  V30 4719 H 435.013 2.67563 2.94372 0
M  V30 4720 H 431.752 5.64883 3.32547 0
M  V30 4721 H 431.272 4.2171 4.26521 0
M  V30 4722 H 432.951 4.80801 4.32943 0
M  V30 4723 N 433.083 -1.0153 1.20538 0
M  V30 4724 C 434.494 -1.56598 1.01657 0
M  V30 4725 C 434.845 -1.91505 -0.426668 0
M  V30 4726 O 433.97 -1.72375 -1.30827 0
M  V30 4727 C 434.565 -2.84542 1.83905 0
M  V30 4728 C 433.124 -3.36133 1.69386 0
M  V30 4729 C 432.271 -2.09427 1.81757 0
M  V30 4730 H 435.222 -0.838974 1.34711 0
M  V30 4731 H 435.243 -3.56004 1.34319 0
M  V30 4732 H 434.755 -2.59105 2.8894 0
M  V30 4733 H 432.856 -3.66528 0.669933 0
M  V30 4734 H 432.969 -4.08248 2.50739 0
M  V30 4735 H 431.333 -2.21941 1.24957 0
M  V30 4736 H 432.116 -1.86414 2.88279 0
M  V30 4737 N 434.561 -1.01147 -1.20859 0
M  V30 4738 C 435.491 -0.597663 -2.25722 0
M  V30 4739 C 436.472 0.384744 -1.65692 0
M  V30 4740 O 437.657 0.271303 -1.92296 0
M  V30 4741 C 434.787 0.0700149 -3.47229 0
M  V30 4742 C 433.741 -0.832843 -4.19819 0
M  V30 4743 C 433.067 -0.0312202 -5.34691 0
M  V30 4744 C 434.367 -2.1385 -4.76514 0
M  V30 4745 H 436.061 -1.47423 -2.60589 0
M  V30 4746 H 433.607 -0.710301 -1.25263 0
M  V30 4747 H 435.56 0.37103 -4.19763 0
M  V30 4748 H 434.284 0.981259 -3.11511 0
M  V30 4749 H 432.943 -1.11778 -3.49144 0
M  V30 4750 H 432.591 0.881515 -4.95215 0
M  V30 4751 H 432.291 -0.632434 -5.84187 0
M  V30 4752 H 433.815 0.26346 -6.10031 0
M  V30 4753 H 435.229 -1.9002 -5.40893 0
M  V30 4754 H 433.626 -2.69012 -5.36426 0
M  V30 4755 H 434.696 -2.80495 -3.95538 0
M  V30 4756 N 436.039 1.36541 -0.78704 0
M  V30 4757 C 437.288 1.98552 -0.35494 0
M  V30 4758 C 437.601 1.63171 1.07864 0
M  V30 4759 O 438.807 2.18399 1.61289 0
M  V30 4760 C 437.263 3.55136 -0.583671 0
M  V30 4761 C 436.871 3.99444 -2.02851 0
M  V30 4762 C 438.615 4.2395 -0.215957 0
M  V30 4763 C 436.522 5.48796 -2.20403 0
M  V30 4764 H 435.452 0.742888 -0.128972 0
M  V30 4765 H 438.103 1.5587 -0.968337 0
M  V30 4766 H 436.485 3.95875 0.0994046 0
M  V30 4767 H 437.659 3.6991 -2.74779 0
M  V30 4768 H 435.974 3.43459 -2.35425 0
M  V30 4769 H 438.571 5.33709 -0.325405 0
M  V30 4770 H 438.914 4.07827 0.835646 0
M  V30 4771 H 439.447 3.88565 -0.852175 0
M  V30 4772 H 436.186 5.69864 -3.23937 0
M  V30 4773 H 435.706 5.79964 -1.52977 0
M  V30 4774 H 437.385 6.14986 -2.01002 0
M  V30 4775 N 437.518 0.538854 1.48102 0
M  V30 4776 C 438.766 0.00798599 2.02098 0
M  V30 4777 C 439.087 -1.33922 1.41739 0
M  V30 4778 O 438.357 -1.86932 0.585934 0
M  V30 4779 H 436.937 -3.62179e-05 0.747 0
M  V30 4780 H 439.599 0.7047 1.81714 0
M  V30 4781 H 438.695 -0.0937672 3.11959 0
M  V30 4782 N 438.996 -1.55193 0.274407 0
M  V30 4783 C 439.906 -2.26164 -0.623473 0
M  V30 4784 C 440.922 -1.28729 -1.17068 0
M  V30 4785 O 442.098 -1.61663 -1.20112 0
M  V30 4786 C 439.163 -2.96833 -1.7914 0
M  V30 4787 C 438.224 -4.09745 -1.28093 0
M  V30 4788 C 437.457 -4.77034 -2.3932 0
M  V30 4789 O 437.68 -4.4353 -3.5866 0
M  V30 4790 O 436.614 -5.64996 -2.07516 0
M  V30 4791 H 440.44 -3.03661 -0.0485661 0
M  V30 4792 H 438.025 -1.49341 0.0418382 0
M  V30 4793 H 439.907 -3.41248 -2.4724 0
M  V30 4794 H 438.582 -2.22253 -2.35341 0
M  V30 4795 H 437.489 -3.69787 -0.566416 0
M  V30 4796 H 438.822 -4.86224 -0.764683 0
M  V30 4797 N 440.474 -0.00167713 -1.576 0
M  V30 4798 C 441.704 0.692754 -1.94639 0
M  V30 4799 C 442.112 1.67744 -0.87513 0
M  V30 4800 O 441.455 1.8305 0.154382 0
M  V30 4801 C 441.517 1.47881 -3.27676 0
M  V30 4802 C 441.181 0.655518 -4.52274 0
M  V30 4803 C 442.178 -0.0575214 -5.19868 0
M  V30 4804 C 439.863 0.600994 -4.98692 0
M  V30 4805 C 441.857 -0.814052 -6.3218 0
M  V30 4806 C 439.544 -0.15926 -6.10892 0
M  V30 4807 C 440.542 -0.865515 -6.77494 0
M  V30 4808 O 440.23 -1.61336 -7.87544 0
M  V30 4809 H 439.962 0.197792 -0.646417 0
M  V30 4810 H 442.516 -0.049423 -2.05341 0
M  V30 4811 H 440.746 2.2655 -3.13388 0
M  V30 4812 H 442.435 2.05874 -3.49816 0
M  V30 4813 H 443.201 -0.0245611 -4.84994 0
M  V30 4814 H 439.08 1.14025 -4.46676 0
M  V30 4815 H 442.624 -1.36584 -6.84098 0
M  V30 4816 H 438.521 -0.194035 -6.45208 0
M  V30 4817 H 439.289 -1.53025 -8.04068 0
M  V30 4818 N 441.952 1.55251 0.271103 0
M  V30 4819 C 442.882 1.9127 1.33933 0
M  V30 4820 C 443.863 0.77478 1.5143 0
M  V30 4821 O 445.048 1.03307 1.64442 0
M  V30 4822 C 442.178 2.18627 2.69851 0
M  V30 4823 C 441.132 3.34442 2.67081 0
M  V30 4824 C 440.458 3.47284 4.06569 0
M  V30 4825 C 441.758 4.70784 2.26185 0
M  V30 4826 H 443.452 2.80744 1.04035 0
M  V30 4827 H 440.998 1.35077 0.499017 0
M  V30 4828 H 442.951 2.42413 3.44694 0
M  V30 4829 H 441.675 1.25955 3.01335 0
M  V30 4830 H 440.334 3.10627 1.94695 0
M  V30 4831 H 439.982 2.52074 4.35279 0
M  V30 4832 H 439.682 4.25152 4.0561 0
M  V30 4833 H 441.206 3.73363 4.83148 0
M  V30 4834 H 442.62 4.94102 2.90751 0
M  V30 4835 H 441.017 5.51582 2.36384 0
M  V30 4836 H 442.087 4.69478 1.21319 0
M  V30 4837 N 443.43 -0.535701 1.48216 0
M  V30 4838 C 444.36 -1.65014 1.65204 0
M  V30 4839 C 445.341 -1.62554 0.501011 0
M  V30 4840 O 446.526 -1.7984 0.732886 0
M  V30 4841 C 443.656 -3.03616 1.68626 0
M  V30 4842 C 442.61 -3.20932 2.83172 0
M  V30 4843 C 441.936 -4.60537 2.71679 0
M  V30 4844 C 443.236 -3.04249 4.24535 0
M  V30 4845 H 444.93 -1.51053 2.58502 0
M  V30 4846 H 442.476 -0.725262 1.24402 0
M  V30 4847 H 444.429 -3.81446 1.79099 0
M  V30 4848 H 443.153 -3.18587 0.719026 0
M  V30 4849 H 441.812 -2.45517 2.72244 0
M  V30 4850 H 441.46 -4.72336 1.72937 0
M  V30 4851 H 441.16 -4.73069 3.48538 0
M  V30 4852 H 442.684 -5.40475 2.84112 0
M  V30 4853 H 444.098 -3.71877 4.36326 0
M  V30 4854 H 442.495 -3.28278 5.02348 0
M  V30 4855 H 443.565 -2.00739 4.41397 0
M  V30 4856 N 444.908 -1.36708 -0.784132 0
M  V30 4857 C 446.155 -1.31231 -1.54222 0
M  V30 4858 C 446.483 0.106864 -1.94206 0
M  V30 4859 O 445.738 1.07734 -1.63376 0
M  V30 4860 C 446.037 -2.18571 -2.82774 0
M  V30 4861 C 445.703 -3.67039 -2.61903 0
M  V30 4862 C 444.365 -4.07503 -2.55919 0
M  V30 4863 C 446.717 -4.61149 -2.4288 0
M  V30 4864 C 444.045 -5.40211 -2.28886 0
M  V30 4865 C 446.397 -5.94081 -2.17373 0
M  V30 4866 C 445.061 -6.33664 -2.09825 0
M  V30 4867 H 444.331 -0.48021 -0.56434 0
M  V30 4868 H 446.978 -1.68807 -0.904233 0
M  V30 4869 H 445.283 -1.73949 -3.51068 0
M  V30 4870 H 446.98 -2.11655 -3.40592 0
M  V30 4871 H 443.57 -3.34941 -2.67418 0
M  V30 4872 H 447.754 -4.30756 -2.46501 0
M  V30 4873 H 443.01 -5.69855 -2.21529 0
M  V30 4874 H 447.184 -6.66566 -2.01649 0
M  V30 4875 H 444.811 -7.36423 -1.88641 0
M  V30 4876 N 446.386 1.0089 -1.21074 0
M  V30 4877 C 447.635 1.74019 -1.01981 0
M  V30 4878 C 447.948 1.90408 0.447665 0
M  V30 4879 O 449.154 2.60707 0.757906 0
M  V30 4880 C 447.61 3.13026 -1.77603 0
M  V30 4881 C 447.218 3.04623 -3.28495 0
M  V30 4882 C 448.962 3.90312 -1.66904 0
M  V30 4883 C 446.869 4.38685 -3.96623 0
M  V30 4884 H 445.799 0.652422 -0.377971 0
M  V30 4885 H 448.45 1.12755 -1.44771 0
M  V30 4886 H 446.832 3.74878 -1.27604 0
M  V30 4887 H 448.006 2.52032 -3.85767 0
M  V30 4888 H 446.321 2.40827 -3.39693 0
M  V30 4889 H 448.918 4.8951 -2.15138 0
M  V30 4890 H 449.261 4.11558 -0.62658 0
M  V30 4891 H 449.794 3.35104 -2.14359 0
M  V30 4892 H 446.533 4.22641 -5.01054 0
M  V30 4893 H 446.053 4.91252 -3.4414 0
M  V30 4894 H 447.732 5.075 -4.01314 0
M  V30 4895 N 447.864 1.01787 1.20321 0
M  V30 4896 C 448.797 0.533882 2.21867 0
M  V30 4897 C 449.775 -0.419361 1.57099 0
M  V30 4898 O 450.959 -0.339062 1.85426 0
M  V30 4899 C 448.086 -0.222899 3.37966 0
M  V30 4900 C 447.132 0.680091 4.21043 0
M  V30 4901 S 447.965 2.14997 4.90445 0
M  V30 4902 C 449.121 1.40339 6.09964 0
M  V30 4903 H 449.354 1.39429 2.62577 0
M  V30 4904 H 446.887 0.826867 1.30393 0
M  V30 4905 H 448.845 -0.653425 4.05266 0
M  V30 4906 H 447.506 -1.0589 2.95713 0
M  V30 4907 H 446.699 0.0964704 5.03908 0
M  V30 4908 H 446.301 1.04845 3.59004 0
M  V30 4909 H 448.593 0.68407 6.74038 0
M  V30 4910 H 449.536 2.20823 6.72787 0
M  V30 4911 H 449.944 0.905716 5.57187 0
M  V30 4912 N 449.342 -1.36122 0.79427 0
M  V30 4913 C 450.591 -1.98361 0.365464 0
M  V30 4914 C 450.904 -1.6374 -1.06997 0
M  V30 4915 O 452.11 -2.19251 -1.60129 0
M  V30 4916 C 450.566 -3.54821 0.602496 0
M  V30 4917 C 450.174 -3.98362 2.04967 0
M  V30 4918 C 451.918 -4.2383 0.238437 0
M  V30 4919 C 449.825 -5.47619 2.2331 0
M  V30 4920 H 448.755 -0.742193 0.13291 0
M  V30 4921 H 451.406 -1.55354 0.976589 0
M  V30 4922 H 449.788 -3.95922 -0.078409 0
M  V30 4923 H 450.962 -3.68447 2.76737 0
M  V30 4924 H 449.277 -3.42206 2.37243 0
M  V30 4925 H 451.874 -5.33529 0.353705 0
M  V30 4926 H 452.217 -4.08264 -0.814006 0
M  V30 4927 H 452.75 -3.88108 0.872769 0
M  V30 4928 H 449.489 -5.68138 3.26955 0
M  V30 4929 H 449.009 -5.79145 1.5605 0
M  V30 4930 H 450.688 -6.13911 2.0426 0
M  V30 4931 N 450.82 -0.546701 -1.47814 0
M  V30 4932 C 452.067 -0.0187407 -2.02491 0
M  V30 4933 C 452.395 1.32685 -1.42215 0
M  V30 4934 O 451.65 1.87413 -0.563454 0
M  V30 4935 C 451.949 0.134869 -3.57145 0
M  V30 4936 C 451.615 -1.13849 -4.3629 0
M  V30 4937 C 450.277 -1.48743 -4.57634 0
M  V30 4938 C 452.629 -1.98277 -4.82012 0
M  V30 4939 C 449.957 -2.67932 -5.21948 0
M  V30 4940 C 452.309 -3.16659 -5.4764 0
M  V30 4941 C 450.973 -3.51879 -5.67219 0
M  V30 4942 H 450.243 -0.0068577 -0.740968 0
M  V30 4943 H 452.89 -0.716097 -1.77607 0
M  V30 4944 H 451.195 0.915118 -3.80963 0
M  V30 4945 H 452.892 0.558556 -3.97091 0
M  V30 4946 H 449.482 -0.856767 -4.19949 0
M  V30 4947 H 453.666 -1.72628 -4.6531 0
M  V30 4948 H 448.922 -2.95401 -5.35302 0
M  V30 4949 H 453.096 -3.82374 -5.82033 0
M  V30 4950 H 450.723 -4.44331 -6.16825 0
M  V30 4951 N 452.299 1.55045 -0.282633 0
M  V30 4952 C 453.545 2.00056 0.332481 0
M  V30 4953 C 453.878 1.1708 1.54939 0
M  V30 4954 O 453.153 0.2427 1.9298 0
M  V30 4955 C 453.436 3.53086 0.70725 0
M  V30 4956 C 453.289 4.46813 -0.517521 0
M  V30 4957 C 454.608 4.12245 1.54084 0
M  V30 4958 H 451.727 0.727268 0.119373 0
M  V30 4959 H 454.369 1.85932 -0.391076 0
M  V30 4960 H 452.519 3.65253 1.32372 0
M  V30 4961 H 454.191 4.46579 -1.15607 0
M  V30 4962 H 452.434 4.18163 -1.1542 0
M  V30 4963 H 453.105 5.51595 -0.211426 0
M  V30 4964 H 455.581 4.03401 1.02013 0
M  V30 4965 H 454.457 5.19515 1.77186 0
M  V30 4966 H 454.718 3.62951 2.52427 0
M  V30 4967 N 453.777 0.010035 1.57597 0
M  V30 4968 C 455.005 -0.683413 1.95287 0
M  V30 4969 C 455.42 -1.66747 0.885481 0
M  V30 4970 O 454.777 -1.82003 -0.134629 0
M  V30 4971 C 454.828 -1.40652 3.33015 0
M  V30 4972 O 454.549 -0.461916 4.35658 0
M  V30 4973 C 456.05 -2.19356 3.85225 0
M  V30 4974 H 453.27 -0.189708 0.643624 0
M  V30 4975 H 455.814 0.0641359 2.04399 0
M  V30 4976 H 453.969 -2.10562 3.2518 0
M  V30 4977 H 454.383 -0.973215 5.15392 0
M  V30 4978 H 455.857 -2.65433 4.83993 0
M  V30 4979 H 456.334 -3.02457 3.18459 0
M  V30 4980 H 456.94 -1.54442 3.96267 0
M  V30 4981 N 455.255 -1.55392 -0.262866 0
M  V30 4982 C 456.185 -1.91978 -1.32917 0
M  V30 4983 C 457.166 -0.7828 -1.51017 0
M  V30 4984 O 458.351 -1.04178 -1.63892 0
M  V30 4985 C 455.481 -2.20055 -2.68687 0
M  V30 4986 C 454.435 -3.35854 -2.65304 0
M  V30 4987 C 453.761 -3.49435 -4.04721 0
M  V30 4988 C 455.061 -4.71977 -2.23685 0
M  V30 4989 H 456.755 -2.81292 -1.02544 0
M  V30 4990 H 454.301 -1.3534 -0.491846 0
M  V30 4991 H 456.254 -2.44237 -3.43404 0
M  V30 4992 H 454.978 -1.27551 -3.00663 0
M  V30 4993 H 453.637 -3.11655 -1.93045 0
M  V30 4994 H 453.285 -2.54379 -4.33936 0
M  V30 4995 H 452.985 -4.27297 -4.0335 0
M  V30 4996 H 454.509 -3.7592 -4.81161 0
M  V30 4997 H 455.923 -4.95637 -2.88127 0
M  V30 4998 H 454.32 -5.52828 -2.33456 0
M  V30 4999 H 455.39 -4.70115 -1.18827 0
M  V30 5000 N 456.733 0.527833 -1.48498 0
M  V30 5001 C 457.958 1.313 -1.60546 0
M  V30 5002 C 458.383 1.86199 -0.26672 0
M  V30 5003 O 457.741 1.64513 0.761918 0
M  V30 5004 C 457.789 2.43818 -2.65678 0
M  V30 5005 O 456.893 3.46916 -2.22987 0
M  V30 5006 H 456.234 0.388784 -0.538277 0
M  V30 5007 H 458.764 0.634896 -1.945 0
M  V30 5008 H 458.774 2.89973 -2.87018 0
M  V30 5009 H 457.449 2.03222 -3.62869 0
M  V30 5010 H 456.026 3.06864 -2.11869 0
M  V30 5011 N 458.211 1.37122 0.776871 0
M  V30 5012 C 459.46 1.31373 1.53049 0
M  V30 5013 C 459.773 -0.101016 1.95339 0
M  V30 5014 O 460.979 -0.280953 2.70042 0
M  V30 5015 C 459.435 2.30567 2.76346 0
M  V30 5016 C 459.043 3.77543 2.41175 0
M  V30 5017 C 460.787 2.33818 3.54301 0
M  V30 5018 C 458.694 4.68481 3.60943 0
M  V30 5019 H 457.624 0.488234 0.574581 0
M  V30 5020 H 460.275 1.62554 0.851372 0
M  V30 5021 H 458.657 1.92396 3.46121 0
M  V30 5022 H 459.831 4.24521 1.79216 0
M  V30 5023 H 458.146 3.77187 1.76405 0
M  V30 5024 H 460.743 2.98965 4.4331 0
M  V30 5025 H 461.086 1.3503 3.93793 0
M  V30 5026 H 461.619 2.7067 2.91518 0
M  V30 5027 H 458.358 5.68378 3.26537 0
M  V30 5028 H 457.878 4.2621 4.22025 0
M  V30 5029 H 459.557 4.85366 4.27819 0
M  V30 5030 N 459.689 -1.00246 1.21608 0
M  V30 5031 C 460.938 -1.73476 1.02902 0
M  V30 5032 C 461.251 -1.90643 -0.437561 0
M  V30 5033 O 462.457 -2.61105 -0.74407 0
M  V30 5034 C 460.913 -3.12079 1.79261 0
M  V30 5035 C 460.521 -3.02877 3.30106 0
M  V30 5036 C 462.265 -3.89421 1.68972 0
M  V30 5037 C 460.172 -4.36575 3.98944 0
M  V30 5038 H 459.102 -0.650408 0.381425 0
M  V30 5039 H 461.753 -1.11985 1.45367 0
M  V30 5040 H 460.135 -3.74196 1.2959 0
M  V30 5041 H 461.309 -2.49983 3.87098 0
M  V30 5042 H 459.624 -2.39022 3.40965 0
M  V30 5043 H 462.221 -4.88362 2.17731 0
M  V30 5044 H 462.564 -4.1122 0.648397 0
M  V30 5045 H 463.097 -3.33963 2.16133 0
M  V30 5046 H 459.836 -4.19978 5.03288 0
M  V30 5047 H 459.356 -4.8942 3.4674 0
M  V30 5048 H 461.035 -5.05364 4.04 0
M  V30 5049 N 461.167 -1.02423 -1.1978 0
M  V30 5050 C 462.413 -0.719051 -1.89625 0
M  V30 5051 C 462.746 0.750083 -1.7913 0
M  V30 5052 O 462.021 1.54574 -1.18056 0
M  V30 5053 C 462.304 -1.16499 -3.40735 0
M  V30 5054 C 462.157 -2.695 -3.60125 0
M  V30 5055 C 463.476 -0.742166 -4.33797 0
M  V30 5056 H 460.595 -0.26269 -0.688595 0
M  V30 5057 H 463.237 -1.27333 -1.41018 0
M  V30 5058 H 461.387 -0.69341 -3.82262 0
M  V30 5059 H 463.059 -3.24569 -3.278 0
M  V30 5060 H 461.302 -3.10113 -3.03336 0
M  V30 5061 H 461.973 -2.95757 -4.66081 0
M  V30 5062 H 464.449 -1.1477 -3.99959 0
M  V30 5063 H 463.325 -1.08213 -5.38127 0
M  V30 5064 H 463.586 0.355747 -4.40666 0
M  V30 5065 N 462.645 1.35699 -0.801477 0
M  V30 5066 C 463.873 2.03157 -0.391768 0
M  V30 5067 C 464.288 1.60412 0.995668 0
M  V30 5068 O 463.645 0.799228 1.64069 0
M  V30 5069 C 463.696 3.58566 -0.459671 0
M  V30 5070 O 463.417 3.99756 -1.7924 0
M  V30 5071 C 464.918 4.4328 -0.0421205 0
M  V30 5072 H 462.138 0.651688 -0.159825 0
M  V30 5073 H 464.682 1.73426 -1.08368 0
M  V30 5074 H 462.837 3.86963 0.183939 0
M  V30 5075 H 463.251 4.94387 -1.75162 0
M  V30 5076 H 464.725 5.51821 -0.140754 0
M  V30 5077 H 465.202 4.27383 1.01196 0
M  V30 5078 H 465.808 4.20168 -0.658687 0
M  V30 5079 N 464.123 0.554532 1.47522 0
M  V30 5080 C 465.369 0.0295227 2.02779 0
M  V30 5081 C 465.702 -1.31582 1.42828 0
M  V30 5082 O 464.977 -1.85561 0.582872 0
M  V30 5083 C 465.26 -0.0664057 3.60039 0
M  V30 5084 C 465.113 1.30585 4.30427 0
M  V30 5085 C 466.432 -0.781162 4.33112 0
M  V30 5086 H 463.551 0.0122027 0.736899 0
M  V30 5087 H 466.193 0.716305 1.7598 0
M  V30 5088 H 464.343 -0.651307 3.83002 0
M  V30 5089 H 466.015 1.93374 4.18813 0
M  V30 5090 H 464.258 1.88125 3.90886 0
M  V30 5091 H 464.929 1.19147 5.38988 0
M  V30 5092 H 467.405 -0.284565 4.15126 0
M  V30 5093 H 466.281 -0.817237 5.42782 0
M  V30 5094 H 466.542 -1.83672 4.0214 0
M  V30 5095 N 465.601 -1.54893 0.290851 0
M  V30 5096 C 466.848 -1.99933 -0.321391 0
M  V30 5097 C 467.176 -1.17927 -1.54672 0
M  V30 5098 O 466.431 -0.240902 -1.94212 0
M  V30 5099 C 466.73 -3.49815 -0.732397 0
M  V30 5100 C 466.396 -4.4921 0.390056 0
M  V30 5101 C 465.058 -4.76107 0.698223 0
M  V30 5102 C 467.41 -5.08453 1.14562 0
M  V30 5103 C 464.738 -5.59514 1.76526 0
M  V30 5104 C 467.09 -5.9302 2.2025 0
M  V30 5105 C 465.754 -6.18232 2.51684 0
M  V30 5106 H 465.024 -0.731608 -0.117605 0
M  V30 5107 H 467.671 -1.87107 0.407839 0
M  V30 5108 H 465.976 -3.60199 -1.54155 0
M  V30 5109 H 467.673 -3.82083 -1.21712 0
M  V30 5110 H 464.263 -4.28372 0.13976 0
M  V30 5111 H 468.447 -4.87683 0.920801 0
M  V30 5112 H 463.703 -5.77289 2.01364 0
M  V30 5113 H 467.877 -6.37955 2.7926 0
M  V30 5114 H 465.504 -6.82653 3.34499 0
M  V30 5115 N 467.08 -0.0183926 -1.57589 0
M  V30 5116 C 468.326 0.663543 -1.91638 0
M  V30 5117 C 468.659 1.72392 -0.894134 0
M  V30 5118 O 467.934 1.94316 0.0846449 0
M  V30 5119 C 468.217 1.28984 -3.36207 0
M  V30 5120 C 468.07 0.239761 -4.49161 0
M  V30 5121 C 469.389 2.2109 -3.80536 0
M  V30 5122 H 466.508 0.239746 -0.696915 0
M  V30 5123 H 469.15 -0.073456 -1.89858 0
M  V30 5124 H 467.3 1.91799 -3.37854 0
M  V30 5125 H 468.972 -0.390119 -4.59647 0
M  V30 5126 H 467.215 -0.435972 -4.31604 0
M  V30 5127 H 467.886 0.717383 -5.47319 0
M  V30 5128 H 470.362 1.68273 -3.80557 0
M  V30 5129 H 469.238 2.61869 -4.82406 0
M  V30 5130 H 469.499 3.09764 -3.15434 0
M  V30 5131 N 468.558 1.5553 0.254621 0
M  V30 5132 C 469.807 1.76202 0.981612 0
M  V30 5133 C 470.12 0.580883 1.86776 0
M  V30 5134 O 471.326 0.670448 2.63092 0
M  V30 5135 C 469.782 3.11921 1.79537 0
M  V30 5136 C 469.39 4.37659 0.956991 0
M  V30 5137 C 471.134 3.41936 2.51555 0
M  V30 5138 C 469.041 5.64411 1.76619 0
M  V30 5139 H 467.971 0.656841 0.370237 0
M  V30 5140 H 470.622 1.81969 0.236556 0
M  V30 5141 H 469.004 3.00241 2.58208 0
M  V30 5142 H 470.178 4.60307 0.21315 0
M  V30 5143 H 468.493 4.14922 0.350497 0
M  V30 5144 H 471.09 4.33849 3.12536 0
M  V30 5145 H 471.433 2.62905 3.22779 0
M  V30 5146 H 471.966 3.54797 1.799 0
M  V30 5147 H 468.705 6.46241 1.09783 0
M  V30 5148 H 468.225 5.45877 2.48551 0
M  V30 5149 H 469.904 6.03386 2.33527 0
M  V30 5150 N 470.036 -0.519951 1.48776 0
M  V30 5151 C 470.984 -1.64443 1.64503 0
M  V30 5152 C 471.978 -1.61501 0.511248 0
M  V30 5153 O 473.184 -1.66238 0.690294 0
M  V30 5154 H 469.559 -0.544776 0.518385 0
M  V30 5155 H 471.53 -1.48325 2.58925 0
M  V30 5156 C 470.279 -3.02673 1.71127 0
M  V30 5157 H 469.602 -3.05635 2.57735 0
M  V30 5158 H 471.042 -3.80941 1.86172 0
M  V30 5159 C 469.501 -3.33854 0.452032 0
M  V30 5160 O 470.031 -3.99385 -0.430678 0
M  V30 5161 N 468.237 -2.88825 0.32069 0
M  V30 5162 H 467.784 -2.35674 1.03998 0
M  V30 5163 H 467.742 -3.10056 -0.520814 0
M  V30 5164 N 471.514 -1.37532 -0.769588 0
M  V30 5165 C 472.76 -1.33057 -1.53048 0
M  V30 5166 C 473.093 0.0841865 -1.94017 0
M  V30 5167 O 472.368 1.04198 -1.64235 0
M  V30 5168 C 472.651 -2.27166 -2.79406 0
M  V30 5169 C 472.504 -3.77429 -2.44677 0
M  V30 5170 C 473.823 -2.19683 -3.81349 0
M  V30 5171 H 470.942 -0.484655 -0.555228 0
M  V30 5172 H 473.584 -1.68251 -0.882702 0
M  V30 5173 H 471.734 -1.97283 -3.34682 0
M  V30 5174 H 473.406 -4.17918 -1.953 0
M  V30 5175 H 471.649 -3.95892 -1.77346 0
M  V30 5176 H 472.32 -4.38716 -3.35011 0
M  V30 5177 H 474.796 -2.46029 -3.35573 0
M  V30 5178 H 473.672 -2.87668 -4.67481 0
M  V30 5179 H 473.933 -1.19045 -4.25771 0
M  V30 5180 N 472.992 0.995999 -1.22138 0
M  V30 5181 C 473.942 2.06988 -0.956042 0
M  V30 5182 C 474.926 1.60636 0.0921576 0
M  V30 5183 O 476.118 1.76607 -0.117958 0
M  V30 5184 C 473.247 3.39148 -0.532335 0
M  V30 5185 C 472.333 3.92142 -1.61509 0
M  V30 5186 N 472.724 4.18397 -2.84214 0
M  V30 5187 C 471.022 4.20514 -1.48606 0
M  V30 5188 C 471.723 4.61425 -3.54206 0
M  V30 5189 N 470.699 4.64934 -2.81669 0
M  V30 5190 H 474.501 2.25223 -1.88816 0
M  V30 5191 H 472.015 1.17748 -1.11845 0
M  V30 5192 H 474.012 4.15642 -0.323574 0
M  V30 5193 H 472.672 3.22314 0.392921 0
M  V30 5194 H 473.683 4.06682 -3.20671 0
M  V30 5195 H 470.36 4.12769 -0.626762 0
M  V30 5196 H 471.75 4.90387 -4.59315 0
M  V30 5197 N 474.47 1.03057 1.19235 0
M  V30 5198 C 475.42 0.583386 2.2041 0
M  V30 5199 C 476.404 -0.368776 1.56617 0
M  V30 5200 O 477.596 -0.189471 1.75983 0
M  V30 5201 C 474.725 -0.0626534 3.43243 0
M  V30 5202 C 473.811 0.91205 4.14177 0
M  V30 5203 N 474.202 2.07514 4.61272 0
M  V30 5204 C 472.5 0.735859 4.39888 0
M  V30 5205 C 473.201 2.69003 5.15764 0
M  V30 5206 N 472.177 1.96954 5.06666 0
M  V30 5207 H 475.979 1.46988 2.54503 0
M  V30 5208 H 473.493 0.897785 1.35328 0
M  V30 5209 H 475.49 -0.400653 4.1497 0
M  V30 5210 H 474.15 -0.944813 3.1065 0
M  V30 5211 H 475.161 2.45448 4.56043 0
M  V30 5212 H 471.838 -0.0970656 4.17387 0
M  V30 5213 H 473.228 3.67514 5.6248 0
M  V30 5214 N 475.948 -1.35272 0.808662 0
M  V30 5215 C 477.364 -1.51806 0.492653 0
M  V30 5216 C 477.564 -1.7574 -0.985778 0
M  V30 5217 O 476.62 -1.80003 -1.77074 0
M  V30 5218 C 477.933 -2.69202 1.33981 0
M  V30 5219 C 479.481 -2.8308 1.33547 0
M  V30 5220 C 479.956 -4.03502 2.16679 0
M  V30 5221 N 481.447 -4.10684 2.14227 0
M  V30 5222 C 482.182 -5.02984 2.75308 0
M  V30 5223 N 481.678 -6.00603 3.45323 0
M  V30 5224 N 483.471 -4.95746 2.64938 0
M  V30 5225 H 475.622 -1.17993 1.76611 0
M  V30 5226 H 477.885 -0.577476 0.751814 0
M  V30 5227 H 477.591 -2.581 2.38909 0
M  V30 5228 H 477.465 -3.63854 0.994491 0
M  V30 5229 H 479.852 -2.93631 0.294036 0
M  V30 5230 H 479.933 -1.89278 1.72068 0
M  V30 5231 H 479.577 -3.93711 3.20864 0
M  V30 5232 H 479.507 -4.96489 1.75517 0
M  V30 5233 H 481.998 -3.40802 1.63285 0
M  V30 5234 H 482.311 -6.67633 3.89212 0
M  V30 5235 H 480.656 -6.0077 3.49428 0
M  V30 5236 H 483.847 -4.18439 2.09825 0
M  V30 5237 H 484.02 -5.67487 3.12829 0
M  V30 5238 N 477.426 -0.562348 -1.47226 0
M  V30 5239 C 478.651 -0.0432632 -2.07355 0
M  V30 5240 C 479.076 1.24332 -1.41149 0
M  V30 5241 O 478.434 1.74603 -0.488226 0
M  V30 5242 C 478.482 0.130288 -3.60365 0
M  V30 5243 O 477.586 1.19166 -3.94808 0
M  V30 5244 H 476.927 -0.0536334 -0.66183 0
M  V30 5245 H 479.457 -0.779495 -1.89169 0
M  V30 5246 H 479.467 0.342881 -4.06557 0
M  V30 5247 H 478.142 -0.809389 -4.07948 0
M  V30 5248 H 476.719 0.959153 -3.60354 0
M  V30 5249 N 478.904 1.54736 -0.299062 0
M  V30 5250 C 480.129 2.04975 0.316254 0
M  V30 5251 C 480.554 1.17501 1.46885 0
M  V30 5252 O 479.912 0.178678 1.80417 0
M  V30 5253 C 479.96 3.52672 0.751997 0
M  V30 5254 O 479.064 3.68226 1.85697 0
M  V30 5255 H 478.405 0.661126 0.0617175 0
M  V30 5256 H 480.935 1.99805 -0.440341 0
M  V30 5257 H 480.945 3.94488 1.04133 0
M  V30 5258 H 479.62 4.158 -0.0911482 0
M  V30 5259 H 478.197 3.38316 1.56834 0
M  V30 5260 N 480.382 0.0267497 1.57577 0
M  V30 5261 C 481.607 -0.666227 1.96408 0
M  V30 5262 C 482.032 -1.65004 0.903071 0
M  V30 5263 O 481.39 -1.80787 -0.136263 0
M  V30 5264 C 481.438 -1.35101 3.34335 0
M  V30 5265 O 480.542 -2.46623 3.30531 0
M  V30 5266 H 479.883 -0.175206 0.640468 0
M  V30 5267 H 482.413 0.0878977 2.04411 0
M  V30 5268 H 482.423 -1.70834 3.70513 0
M  V30 5269 H 481.098 -0.629844 4.11103 0
M  V30 5270 H 479.675 -2.13019 3.06068 0
M  V30 5271 N 481.861 -1.55662 -0.24637 0
M  V30 5272 C 483.089 -1.81575 -0.991876 0
M  V30 5273 C 483.504 -0.602545 -1.78927 0
M  V30 5274 O 482.861 0.428795 -1.77391 0
M  V30 5275 C 482.912 -3.05711 -1.92933 0
M  V30 5276 O 482.633 -4.22348 -1.1642 0
M  V30 5277 C 484.134 -3.44428 -2.79078 0
M  V30 5278 H 481.354 -0.604209 -0.291844 0
M  V30 5279 H 483.898 -2.02722 -0.269095 0
M  V30 5280 H 482.053 -2.86612 -2.60638 0
M  V30 5281 H 482.467 -4.92706 -1.79835 0
M  V30 5282 H 483.941 -4.34388 -3.40603 0
M  V30 5283 H 484.418 -2.65037 -3.50217 0
M  V30 5284 H 485.024 -3.65879 -2.16824 0
M  V30 5285 N 483.339 0.512053 -1.4905 0
M  V30 5286 C 484.569 1.28928 -1.61434 0
M  V30 5287 C 484.977 1.87107 -0.280647 0
M  V30 5288 O 484.32 1.68024 0.742537 0
M  V30 5289 C 484.382 2.466 -2.61588 0
M  V30 5290 C 484.046 2.09375 -4.06216 0
M  V30 5291 C 485.043 1.63994 -4.93358 0
M  V30 5292 C 482.728 2.19348 -4.51876 0
M  V30 5293 C 484.722 1.29076 -6.24194 0
M  V30 5294 C 482.409 1.84041 -5.82728 0
M  V30 5295 C 483.407 1.38978 -6.68711 0
M  V30 5296 O 483.095 1.04144 -7.97126 0
M  V30 5297 H 482.827 0.397668 -0.546659 0
M  V30 5298 H 485.381 0.622507 -1.9574 0
M  V30 5299 H 483.611 3.16318 -2.22441 0
M  V30 5300 H 485.3 3.08642 -2.63619 0
M  V30 5301 H 486.066 1.55744 -4.59313 0
M  V30 5302 H 481.945 2.53376 -3.85125 0
M  V30 5303 H 485.489 0.938303 -6.91261 0
M  V30 5304 H 481.386 1.91938 -6.16304 0
M  V30 5305 H 482.154 1.17387 -8.10039 0
M  V30 5306 N 484.817 1.37938 0.762283 0
M  V30 5307 C 485.767 1.30976 1.86626 0
M  V30 5308 C 486.751 0.195714 1.59705 0
M  V30 5309 O 487.943 0.430937 1.71674 0
M  V30 5310 C 485.072 1.12847 3.24223 0
M  V30 5311 C 484.158 2.28836 3.57064 0
M  V30 5312 N 484.549 3.54256 3.61022 0
M  V30 5313 C 482.847 2.21198 3.87282 0
M  V30 5314 C 483.548 4.30798 3.90881 0
M  V30 5315 N 482.524 3.60049 4.07266 0
M  V30 5316 H 486.326 2.25946 1.87951 0
M  V30 5317 H 483.84 1.31046 0.959206 0
M  V30 5318 H 485.837 1.05943 4.03214 0
M  V30 5319 H 484.497 0.188024 3.24155 0
M  V30 5320 H 485.508 3.8804 3.42995 0
M  V30 5321 H 482.185 1.35264 3.94981 0
M  V30 5322 H 483.575 5.39386 4.00639 0
M  V30 5323 N 486.295 -0.989507 1.22664 0
M  V30 5324 C 487.706 -1.54406 1.04955 0
M  V30 5325 C 488.057 -1.92366 -0.385951 0
M  V30 5326 O 487.182 -1.75111 -1.27142 0
M  V30 5327 C 487.777 -2.80578 1.89899 0
M  V30 5328 C 486.336 -3.32464 1.76478 0
M  V30 5329 C 485.483 -2.05524 1.86159 0
M  V30 5330 H 488.434 -0.810211 1.3646 0
M  V30 5331 H 488.455 -3.53075 1.4184 0
M  V30 5332 H 487.967 -2.52918 2.94371 0
M  V30 5333 H 486.068 -3.65024 0.747528 0
M  V30 5334 H 486.181 -4.02838 2.59342 0
M  V30 5335 H 484.545 -2.19241 1.29636 0
M  V30 5336 H 485.328 -1.80258 2.92168 0
M  V30 5337 N 487.773 -1.03688 -1.18687 0
M  V30 5338 C 488.706 -0.569112 -2.2099 0
M  V30 5339 C 489.684 0.394315 -1.57746 0
M  V30 5340 O 490.868 0.309519 -1.85941 0
M  V30 5341 C 487.995 0.169104 -3.38278 0
M  V30 5342 C 487.041 -0.746989 -4.19908 0
M  V30 5343 S 487.874 -2.22773 -4.86963 0
M  V30 5344 C 489.03 -1.50025 -6.07654 0
M  V30 5345 H 489.263 -1.43589 -2.60326 0
M  V30 5346 H 486.796 -0.847507 -1.29061 0
M  V30 5347 H 488.754 0.588868 -4.06254 0
M  V30 5348 H 487.415 1.01172 -2.9736 0
M  V30 5349 H 486.608 -0.176626 -5.0369 0
M  V30 5350 H 486.21 -1.10543 -3.5729 0
M  V30 5351 H 488.502 -0.791217 -6.72864 0
M  V30 5352 H 489.445 -2.31498 -6.69189 0
M  V30 5353 H 489.853 -0.994245 -5.55675 0
M  V30 5354 N 489.251 1.34841 -0.815825 0
M  V30 5355 C 490.214 2.27959 -0.238185 0
M  V30 5356 C 491.214 1.49983 0.579816 0
M  V30 5357 O 492.404 1.69617 0.396953 0
M  V30 5358 C 489.536 3.34314 0.666876 0
M  V30 5359 H 490.729 2.80558 -1.05958 0
M  V30 5360 H 488.282 1.44852 -0.587156 0
M  V30 5361 H 489.017 2.86916 1.5116 0
M  V30 5362 H 488.802 3.92014 0.0819106 0
M  V30 5363 H 490.292 4.0379 1.06506 0
M  V30 5364 N 490.729 0.570148 1.46925 0
M  V30 5365 C 492.14 0.1402 1.86173 0
M  V30 5366 C 492.491 -1.29347 1.47526 0
M  V30 5367 O 491.616 -1.97508 0.884292 0
M  V30 5368 C 492.211 0.247661 3.37894 0
M  V30 5369 C 490.77 -0.127332 3.76185 0
M  V30 5370 C 489.917 0.589349 2.70965 0
M  V30 5371 H 492.868 0.779117 1.38259 0
M  V30 5372 H 492.889 -0.530341 3.76786 0
M  V30 5373 H 492.401 1.29121 3.65991 0
M  V30 5374 H 490.502 -1.17149 3.53704 0
M  V30 5375 H 490.615 0.240238 4.78497 0
M  V30 5376 H 488.979 0.0309824 2.54681 0
M  V30 5377 H 489.762 1.6343 3.01903 0
M  V30 5378 N 492.207 -1.54576 0.307264 0
M  V30 5379 C 493.453 -2.01272 -0.293453 0
M  V30 5380 C 493.808 -1.19178 -1.51044 0
M  V30 5381 O 493.101 -0.261704 -1.89804 0
M  V30 5382 C 493.295 -3.50572 -0.695253 0
M  V30 5383 C 493.124 -4.47118 0.481249 0
M  V30 5384 C 491.894 -4.958 0.97524 0
M  V30 5385 C 494.092 -4.96853 1.32823 0
M  V30 5386 N 492.074 -5.76212 2.11785 0
M  V30 5387 C 493.445 -5.75028 2.31824 0
M  V30 5388 C 495.5 -4.79026 1.35788 0
M  V30 5389 C 494.203 -6.37276 3.33574 0
M  V30 5390 C 496.229 -5.42097 2.364 0
M  V30 5391 C 495.591 -6.2011 3.34129 0
M  V30 5392 H 491.69 -0.778709 -0.0716705 0
M  V30 5393 H 494.274 -1.89695 0.438602 0
M  V30 5394 H 492.445 -3.62427 -1.39647 0
M  V30 5395 H 494.177 -3.84056 -1.27604 0
M  V30 5396 H 490.932 -4.70405 0.549184 0
M  V30 5397 H 491.356 -6.21101 2.69375 0
M  V30 5398 H 495.998 -4.18288 0.616021 0
M  V30 5399 H 493.716 -6.97144 4.08676 0
M  V30 5400 H 497.302 -5.30229 2.39475 0
M  V30 5401 H 496.182 -6.68049 4.10707 0
M  V30 5402 N 493.685 -0.035106 -1.57561 0
M  V30 5403 C 494.931 0.64318 -1.92331 0
M  V30 5404 C 495.264 1.71434 -0.912368 0
M  V30 5405 O 494.539 1.94395 0.0640303 0
M  V30 5406 C 494.822 1.25411 -3.37556 0
M  V30 5407 C 494.675 0.192109 -4.4939 0
M  V30 5408 C 495.994 2.17041 -3.82859 0
M  V30 5409 H 493.113 0.232341 -0.699419 0
M  V30 5410 H 495.755 -0.0935889 -1.89769 0
M  V30 5411 H 493.905 1.88205 -3.39869 0
M  V30 5412 H 495.577 -0.438849 -4.59208 0
M  V30 5413 H 493.82 -0.481725 -4.31117 0
M  V30 5414 H 494.491 0.659292 -5.48049 0
M  V30 5415 H 496.967 1.64228 -3.8232 0
M  V30 5416 H 495.843 2.56738 -4.85157 0
M  V30 5417 H 496.104 3.06401 -3.18702 0
M  V30 5418 N 495.163 1.55791 0.238111 0
M  V30 5419 C 496.11 1.9105 1.29493 0
M  V30 5420 C 497.08 0.765733 1.47397 0
M  V30 5421 O 498.265 1.02017 1.61236 0
M  V30 5422 C 495.405 2.21826 2.64362 0
M  V30 5423 C 494.518 3.49153 2.54394 0
M  V30 5424 C 493.653 3.69455 3.81676 0
M  V30 5425 C 492.692 4.90353 3.66361 0
M  V30 5426 N 491.829 5.07131 4.85554 0
M  V30 5427 H 496.669 2.81172 0.987233 0
M  V30 5428 H 494.206 1.39179 0.476203 0
M  V30 5429 H 496.164 2.37675 3.4288 0
M  V30 5430 H 494.794 1.34897 2.93262 0
M  V30 5431 H 493.846 3.41587 1.67399 0
M  V30 5432 H 495.158 4.37818 2.38991 0
M  V30 5433 H 494.312 3.85311 4.68636 0
M  V30 5434 H 493.051 2.7904 3.99985 0
M  V30 5435 H 492.056 4.74464 2.77784 0
M  V30 5436 H 493.281 5.82237 3.49538 0
M  V30 5437 H 491.227 4.19654 5.04209 0
M  V30 5438 H 491.144 5.89899 4.72816 0
M  V30 5439 H 492.412 5.27407 5.73988 0
M  V30 5440 N 496.642 -0.504142 1.49319 0
M  V30 5441 C 498.058 -0.835039 1.36012 0
M  V30 5442 C 498.258 -1.97674 0.390808 0
M  V30 5443 O 497.314 -2.51867 -0.178655 0
M  V30 5444 C 498.627 -1.17821 2.76656 0
M  V30 5445 C 500.175 -1.2866 2.85334 0
M  V30 5446 C 500.65 -1.66307 4.26739 0
M  V30 5447 N 502.141 -1.73362 4.29534 0
M  V30 5448 C 502.876 -2.0393 5.35911 0
M  V30 5449 N 502.372 -2.32744 6.52535 0
M  V30 5450 N 504.165 -2.05155 5.23324 0
M  V30 5451 H 496.316 0.248764 2.10938 0
M  V30 5452 H 498.579 0.0486962 0.946748 0
M  V30 5453 H 498.285 -0.412682 3.4927 0
M  V30 5454 H 498.159 -2.12239 3.11825 0
M  V30 5455 H 500.546 -2.04285 2.1296 0
M  V30 5456 H 500.627 -0.323004 2.53752 0
M  V30 5457 H 500.271 -0.91234 4.99639 0
M  V30 5458 H 500.201 -2.63761 4.55782 0
M  V30 5459 H 502.692 -1.53268 3.45424 0
M  V30 5460 H 503.005 -2.55248 7.2943 0
M  V30 5461 H 501.35 -2.30207 6.55767 0
M  V30 5462 H 504.541 -1.82119 4.3122 0
M  V30 5463 H 504.714 -2.28644 6.06322 0
M  V30 5464 N 498.12 -1.38341 -0.754957 0
M  V30 5465 C 499.05 -1.38176 -1.88227 0
M  V30 5466 C 500.031 -0.247873 -1.68284 0
M  V30 5467 O 501.216 -0.45075 -1.88896 0
M  V30 5468 C 498.346 -1.20471 -3.25736 0
M  V30 5469 C 497.3 -2.3105 -3.60278 0
M  V30 5470 C 496.626 -1.98452 -4.96509 0
M  V30 5471 C 497.926 -3.73305 -3.65295 0
M  V30 5472 H 499.62 -2.32512 -1.88622 0
M  V30 5473 H 497.166 -1.1192 -0.906082 0
M  V30 5474 H 499.119 -1.18982 -4.04254 0
M  V30 5475 H 497.843 -0.225965 -3.25817 0
M  V30 5476 H 496.502 -2.31723 -2.84078 0
M  V30 5477 H 496.15 -0.990641 -4.93148 0
M  V30 5478 H 495.85 -2.7251 -5.20588 0
M  V30 5479 H 497.374 -1.98578 -5.77407 0
M  V30 5480 H 498.788 -3.7467 -4.3393 0
M  V30 5481 H 497.185 -4.46557 -4.00883 0
M  V30 5482 H 498.255 -4.05719 -2.65556 0
M  V30 5483 N 499.598 0.982988 -1.23187 0
M  V30 5484 C 500.845 1.72392 -1.06241 0
M  V30 5485 C 501.173 1.9032 0.40108 0
M  V30 5486 O 500.428 1.45084 1.31336 0
M  V30 5487 C 500.727 3.12736 -1.73006 0
M  V30 5488 C 500.393 3.14695 -3.22921 0
M  V30 5489 C 499.055 3.14937 -3.63824 0
M  V30 5490 C 501.407 3.10211 -4.1883 0
M  V30 5491 C 498.735 3.08408 -4.99101 0
M  V30 5492 C 501.087 3.05224 -5.54095 0
M  V30 5493 C 499.751 3.03787 -5.94365 0
M  V30 5494 H 499.021 0.630829 -0.388762 0
M  V30 5495 H 501.668 1.15053 -1.53085 0
M  V30 5496 H 499.973 3.73446 -1.18514 0
M  V30 5497 H 501.67 3.68828 -1.57374 0
M  V30 5498 H 498.26 3.15262 -2.90358 0
M  V30 5499 H 502.444 3.09166 -3.8824 0
M  V30 5500 H 497.7 3.05646 -5.29519 0
M  V30 5501 H 501.874 3.00712 -6.28128 0
M  V30 5502 H 499.501 2.98483 -6.99151 0
M  V30 5503 N 501.076 1.04316 1.18135 0
M  V30 5504 C 502.006 0.657299 2.24058 0
M  V30 5505 C 502.987 -0.340678 1.66654 0
M  V30 5506 O 504.172 -0.220223 1.92947 0
M  V30 5507 C 501.302 0.0220715 3.47293 0
M  V30 5508 C 500.256 0.943857 4.17463 0
M  V30 5509 C 499.582 0.172973 5.3442 0
M  V30 5510 C 500.882 2.26409 4.70677 0
M  V30 5511 H 502.576 1.5428 2.56589 0
M  V30 5512 H 500.122 0.743263 1.23335 0
M  V30 5513 H 502.075 -0.259607 4.206 0
M  V30 5514 H 500.799 -0.898323 3.14003 0
M  V30 5515 H 499.458 1.20996 3.46057 0
M  V30 5516 H 499.106 -0.749907 4.97379 0
M  V30 5517 H 498.806 0.787098 5.82304 0
M  V30 5518 H 500.33 -0.101628 6.10515 0
M  V30 5519 H 501.744 2.04294 5.35665 0
M  V30 5520 H 500.141 2.8314 5.29105 0
M  V30 5521 H 501.211 2.90883 3.87962 0
M  V30 5522 N 502.554 -1.34406 0.822964 0
M  V30 5523 C 503.486 -2.28305 0.202375 0
M  V30 5524 C 504.499 -1.5103 -0.60777 0
M  V30 5525 O 505.688 -1.73057 -0.437444 0
M  V30 5526 C 502.788 -3.30836 -0.734911 0
M  V30 5527 C 501.961 -4.37388 0.0324177 0
M  V30 5528 C 501.02 -5.1968 -0.825803 0
M  V30 5529 O 500.046 -5.68556 -0.270771 0
M  V30 5530 N 501.248 -5.39393 -2.14558 0
M  V30 5531 H 504.013 -2.82201 1.00909 0
M  V30 5532 H 501.574 -1.4693 0.67993 0
M  V30 5533 H 503.566 -3.82786 -1.31365 0
M  V30 5534 H 502.136 -2.77334 -1.44238 0
M  V30 5535 H 501.356 -3.86152 0.792469 0
M  V30 5536 H 502.644 -5.05702 0.560633 0
M  V30 5537 H 502.042 -5.01357 -2.62025 0
M  V30 5538 H 500.599 -5.94461 -2.67318 0
M  V30 5539 N 504.032 -0.577932 -1.46621 0
M  V30 5540 C 504.979 0.158048 -2.30258 0
M  V30 5541 C 505.949 0.888669 -1.40328 0
M  V30 5542 O 507.134 0.880283 -1.6928 0
M  V30 5543 C 504.274 1.16884 -3.24703 0
M  V30 5544 C 503.387 0.442163 -4.29731 0
M  V30 5545 C 502.522 1.44007 -5.11308 0
M  V30 5546 C 501.561 0.69952 -6.0809 0
M  V30 5547 N 500.698 1.64525 -6.82551 0
M  V30 5548 H 505.538 -0.561242 -2.92667 0
M  V30 5549 H 503.075 -0.288591 -1.44241 0
M  V30 5550 H 505.033 1.7677 -3.779 0
M  V30 5551 H 503.663 1.85591 -2.64113 0
M  V30 5552 H 502.715 -0.271632 -3.79429 0
M  V30 5553 H 504.027 -0.136992 -4.98612 0
M  V30 5554 H 503.181 2.11186 -5.68758 0
M  V30 5555 H 501.92 2.05315 -4.42377 0
M  V30 5556 H 500.925 0.0139217 -5.49798 0
M  V30 5557 H 502.15 0.091894 -6.79038 0
M  V30 5558 H 500.096 2.24653 -6.16334 0
M  V30 5559 H 500.013 1.11878 -7.47676 0
M  V30 5560 H 501.281 2.30754 -7.44562 0
M  V30 5561 N 505.51 1.54411 -0.315457 0
M  V30 5562 C 506.44 2.27002 0.547039 0
M  V30 5563 C 507.421 1.27492 1.12605 0
M  V30 5564 O 508.606 1.5629 1.15269 0
M  V30 5565 C 505.736 3.02171 1.71201 0
M  V30 5566 C 504.69 4.0895 1.26268 0
M  V30 5567 C 504.016 4.71915 2.51396 0
M  V30 5568 C 505.316 5.20891 0.383419 0
M  V30 5569 H 507.01 2.99343 -0.0584517 0
M  V30 5570 H 504.556 1.4397 -0.0295527 0
M  V30 5571 H 506.509 3.51681 2.32161 0
M  V30 5572 H 505.233 2.27433 2.34397 0
M  V30 5573 H 503.892 3.60312 0.676062 0
M  V30 5574 H 503.54 3.93801 3.12937 0
M  V30 5575 H 503.24 5.44039 2.22026 0
M  V30 5576 H 504.764 5.24195 3.13133 0
M  V30 5577 H 506.178 5.66206 0.899082 0
M  V30 5578 H 504.575 5.99821 0.182857 0
M  V30 5579 H 505.645 4.81324 -0.587821 0
M  V30 5580 N 506.988 0.0434614 1.5754 0
M  V30 5581 C 508.399 -0.493343 1.80064 0
M  V30 5582 C 508.75 -1.71388 0.955023 0
M  V30 5583 O 507.875 -2.15736 0.169434 0
M  V30 5584 C 508.47 -0.90179 3.26578 0
M  V30 5585 C 507.029 -1.38362 3.50047 0
M  V30 5586 C 506.176 -0.355129 2.75017 0
M  V30 5587 H 509.127 0.2694 1.56397 0
M  V30 5588 H 509.148 -1.76523 3.37075 0
M  V30 5589 H 508.66 -0.013271 3.88098 0
M  V30 5590 H 506.761 -2.29159 2.93798 0
M  V30 5591 H 506.874 -1.3811 4.58762 0
M  V30 5592 H 505.238 -0.826348 2.40922 0
M  V30 5593 H 506.021 0.525172 3.39259 0
M  V30 5594 N 508.466 -1.55915 -0.229846 0
M  V30 5595 C 509.413 -1.91734 -1.28478 0
M  V30 5596 C 510.383 -0.773539 -1.46988 0
M  V30 5597 O 511.568 -1.02871 -1.60693 0
M  V30 5598 C 508.708 -2.23224 -2.63182 0
M  V30 5599 C 507.821 -3.50497 -2.52539 0
M  V30 5600 C 506.956 -3.71474 -3.79711 0
M  V30 5601 C 505.995 -4.92289 -3.63755 0
M  V30 5602 N 505.132 -5.09698 -4.82858 0
M  V30 5603 H 509.972 -2.81692 -0.972308 0
M  V30 5604 H 507.509 -1.39429 -0.468815 0
M  V30 5605 H 509.467 -2.3949 -3.41614 0
M  V30 5606 H 508.097 -1.36451 -2.92542 0
M  V30 5607 H 507.149 -3.4247 -1.65585 0
M  V30 5608 H 508.461 -4.39079 -2.36666 0
M  V30 5609 H 507.615 -3.87791 -4.66586 0
M  V30 5610 H 506.354 -2.81157 -3.985 0
M  V30 5611 H 505.359 -4.7593 -2.75264 0
M  V30 5612 H 506.584 -5.84083 -3.46445 0
M  V30 5613 H 504.53 -4.22322 -5.01976 0
M  V30 5614 H 504.447 -5.92399 -4.69681 0
M  V30 5615 H 505.715 -5.30443 -5.71183 0
M  V30 5616 N 509.944 0.496216 -1.49584 0
M  V30 5617 C 510.874 1.60576 -1.69521 0
M  V30 5618 C 511.855 1.61169 -0.543933 0
M  V30 5619 O 513.04 1.77834 -0.78031 0
M  V30 5620 C 510.17 2.99038 -1.76616 0
M  V30 5621 C 509.124 3.13312 -2.91581 0
M  V30 5622 C 508.45 4.53172 -2.83794 0
M  V30 5623 C 509.75 2.92886 -4.32452 0
M  V30 5624 H 511.444 1.44146 -2.62416 0
M  V30 5625 H 508.99 0.692024 -1.26282 0
M  V30 5626 H 510.943 3.76564 -1.8915 0
M  V30 5627 H 509.667 3.16568 -0.80324 0
M  V30 5628 H 508.326 2.38213 -2.78658 0
M  V30 5629 H 507.974 4.67585 -1.854 0
M  V30 5630 H 507.674 4.63662 -3.60958 0
M  V30 5631 H 509.198 5.32752 -2.98342 0
M  V30 5632 H 510.612 3.60178 -4.46032 0
M  V30 5633 H 509.009 3.14844 -5.10875 0
M  V30 5634 H 510.079 1.88966 -4.46565 0
M  V30 5635 N 511.423 1.38739 0.74761 0
M  V30 5636 C 512.353 1.39173 1.87492 0
M  V30 5637 C 513.334 0.256794 1.6815 0
M  V30 5638 O 514.519 0.460762 1.88655 0
M  V30 5639 C 511.649 1.22197 3.25093 0
M  V30 5640 C 510.603 2.32957 3.59047 0
M  V30 5641 C 509.929 2.01082 4.95449 0
M  V30 5642 C 511.229 3.75237 3.6331 0
M  V30 5643 H 512.923 2.3351 1.87386 0
M  V30 5644 H 510.469 1.12399 0.900134 0
M  V30 5645 H 512.422 1.21124 4.03617 0
M  V30 5646 H 511.146 0.243241 3.25693 0
M  V30 5647 H 509.805 2.33226 2.82845 0
M  V30 5648 H 509.453 1.01678 4.92616 0
M  V30 5649 H 509.153 2.75267 5.19136 0
M  V30 5650 H 510.677 2.01638 5.76346 0
M  V30 5651 H 512.091 3.76966 4.31937 0
M  V30 5652 H 510.488 4.48677 3.98509 0
M  V30 5653 H 511.558 4.07122 2.634 0
M  V30 5654 N 512.901 -0.976442 1.23707 0
M  V30 5655 C 514.141 -1.73331 1.08332 0
M  V30 5656 C 514.505 -1.88346 -0.372781 0
M  V30 5657 O 515.706 -2.60877 -0.647813 0
M  V30 5658 C 513.977 -3.09159 1.7932 0
M  V30 5659 S 515.536 -4.00376 1.79567 0
M  V30 5660 H 512.354 -0.596045 0.387622 0
M  V30 5661 H 514.956 -1.16625 1.56904 0
M  V30 5662 H 513.66 -2.95884 2.84395 0
M  V30 5663 H 513.191 -3.70932 1.31046 0
M  V30 5664 H 515.206 -4.88742 0.857094 0
M  V30 5665 N 514.379 -1.04941 -1.1758 0
M  V30 5666 C 515.312 -0.592518 -2.20373 0
M  V30 5667 C 516.29 0.377561 -1.58156 0
M  V30 5668 O 517.474 0.28978 -1.86259 0
M  V30 5669 C 514.601 0.133215 -3.38438 0
M  V30 5670 C 513.647 -0.791484 -4.19092 0
M  V30 5671 S 514.48 -2.27925 -4.84572 0
M  V30 5672 C 515.636 -1.56462 -6.06028 0
M  V30 5673 H 515.869 -1.46342 -2.58788 0
M  V30 5674 H 513.402 -0.861148 -1.28155 0
M  V30 5675 H 515.36 0.545746 -4.06856 0
M  V30 5676 H 514.021 0.980124 -2.98416 0
M  V30 5677 H 513.214 -0.230039 -5.03475 0
M  V30 5678 H 512.816 -1.14326 -3.56098 0
M  V30 5679 H 515.108 -0.862539 -6.71987 0
M  V30 5680 H 516.051 -2.38583 -6.66696 0
M  V30 5681 H 516.459 -1.05313 -5.5459 0
M  V30 5682 N 515.857 1.33968 -0.830081 0
M  V30 5683 C 516.804 2.29387 -0.255008 0
M  V30 5684 C 517.774 1.53923 0.624243 0
M  V30 5685 O 518.959 1.82262 0.564372 0
M  V30 5686 C 516.099 3.4034 0.571209 0
M  V30 5687 C 515.212 4.30729 -0.331083 0
M  V30 5688 C 514.347 5.2879 0.505389 0
M  V30 5689 C 513.386 6.10819 -0.395843 0
M  V30 5690 N 512.523 7.00948 0.401979 0
M  V30 5691 H 517.363 2.77972 -1.07404 0
M  V30 5692 H 514.9 1.36785 -0.541133 0
M  V30 5693 H 516.858 4.03361 1.06562 0
M  V30 5694 H 515.488 2.9297 1.35529 0
M  V30 5695 H 514.54 3.68507 -0.943759 0
M  V30 5696 H 515.852 4.88181 -1.02377 0
M  V30 5697 H 515.006 5.97297 1.06399 0
M  V30 5698 H 513.745 4.71894 1.23155 0
M  V30 5699 H 512.75 5.41238 -0.966529 0
M  V30 5700 H 513.975 6.69797 -1.12023 0
M  V30 5701 H 511.921 6.46512 1.11168 0
M  V30 5702 H 511.838 7.55643 -0.232167 0
M  V30 5703 H 513.106 7.73774 0.943102 0
M  V30 5704 N 517.335 0.585699 1.46312 0
M  V30 5705 C 518.612 0.00542031 1.95599 0
M  V30 5706 C 518.992 -1.45619 1.52834 0
M  V30 5707 O 518.34 -2.14759 0.780446 0
M  V30 5708 C 518.55 0.180601 3.48532 0
M  V30 5709 C 519.898 0.049979 4.24571 0
M  V30 5710 O 520.922 0.109589 3.56031 0
M  V30 5711 O 519.781 -0.0832226 5.46437 0
M  V30 5712 H 516.875 -0.0481281 0.825598 0
M  V30 5713 H 519.421 0.654227 1.56582 0
M  V30 5714 H 518.193 1.19657 3.72556 0
M  V30 5715 H 517.816 -0.504498 3.94386 0
M  V30 5716 N 518.813 -1.54241 0.323641 0
M  V30 5717 C 519.763 -2.21071 -0.557833 0
M  V30 5718 C 520.747 -1.19126 -1.08157 0
M  V30 5719 O 521.939 -1.44755 -1.01857 0
M  V30 5720 C 519.068 -2.97208 -1.71821 0
M  V30 5721 C 518.154 -4.06491 -1.20936 0
M  V30 5722 N 518.545 -5.04052 -0.420202 0
M  V30 5723 C 516.843 -4.20443 -1.48808 0
M  V30 5724 C 517.544 -5.81516 -0.146413 0
M  V30 5725 N 516.52 -5.38641 -0.732562 0
M  V30 5726 H 520.322 -2.93853 0.0523921 0
M  V30 5727 H 517.836 -1.61883 0.129502 0
M  V30 5728 H 519.833 -3.4357 -2.36146 0
M  V30 5729 H 518.493 -2.25947 -2.33191 0
M  V30 5730 H 519.504 -5.17862 -0.0630401 0
M  V30 5731 H 516.181 -3.60396 -2.10762 0
M  V30 5732 H 517.571 -6.70119 0.488895 0
M  V30 5733 N 520.291 -0.0518155 -1.57515 0
M  V30 5734 C 521.537 0.622745 -1.93002 0
M  V30 5735 C 521.87 1.70456 -0.930499 0
M  V30 5736 O 521.145 1.94452 0.0434086 0
M  V30 5737 C 521.428 1.21824 -3.38867 0
M  V30 5738 C 521.281 0.144434 -4.49568 0
M  V30 5739 C 522.6 2.12968 -3.8514 0
M  V30 5740 H 519.719 0.22491 -0.701844 0
M  V30 5741 H 522.361 -0.113711 -1.89659 0
M  V30 5742 H 520.511 1.8459 -3.41846 0
M  V30 5743 H 522.183 -0.48753 -4.58717 0
M  V30 5744 H 520.426 -0.527424 -4.30582 0
M  V30 5745 H 521.097 0.601127 -5.48717 0
M  V30 5746 H 523.573 1.60163 -3.8404 0
M  V30 5747 H 522.449 2.51578 -4.87852 0
M  V30 5748 H 522.71 3.03004 -3.21934 0
M  V30 5749 N 521.769 1.56035 0.221574 0
M  V30 5750 C 523.046 1.69837 0.970301 0
M  V30 5751 C 523.426 0.599065 2.02421 0
M  V30 5752 O 522.774 -0.393929 2.25079 0
M  V30 5753 C 522.984 3.11148 1.58076 0
M  V30 5754 C 524.332 3.70555 2.07302 0
M  V30 5755 O 525.356 3.14109 1.6797 0
M  V30 5756 O 524.215 4.69562 2.79596 0
M  V30 5757 H 521.309 0.691727 0.453257 0
M  V30 5758 H 523.855 1.68353 0.213358 0
M  V30 5759 H 522.627 3.82617 0.819759 0
M  V30 5760 H 522.25 3.16749 2.40324 0
M  V30 5761 N 523.247 -0.488276 1.49845 0
M  V30 5762 C 524.663 -0.820566 1.3689 0
M  V30 5763 C 524.863 -1.97248 0.411752 0
M  V30 5764 O 523.919 -2.52042 -0.151931 0
M  V30 5765 C 525.232 -1.1488 2.77891 0
M  V30 5766 C 526.78 -1.25626 2.86683 0
M  V30 5767 C 527.255 -1.61772 4.28479 0
M  V30 5768 N 528.746 -1.68797 4.31349 0
M  V30 5769 C 529.481 -1.98235 5.38043 0
M  V30 5770 N 528.977 -2.2581 6.54967 0
M  V30 5771 N 530.77 -1.99593 5.2547 0
M  V30 5772 H 522.921 0.271123 2.10662 0
M  V30 5773 H 525.184 0.058735 0.946179 0
M  V30 5774 H 524.89 -0.375614 3.49688 0
M  V30 5775 H 524.764 -2.08919 3.14058 0
M  V30 5776 H 527.151 -2.02014 2.15114 0
M  V30 5777 H 527.232 -0.296072 2.54081 0
M  V30 5778 H 526.876 -0.859295 5.00578 0
M  V30 5779 H 526.806 -2.58912 4.58554 0
M  V30 5780 H 529.297 -1.49595 3.4703 0
M  V30 5781 H 529.61 -2.47497 7.32096 0
M  V30 5782 H 527.955 -2.23239 6.58171 0
M  V30 5783 H 531.146 -1.77535 4.33127 0
M  V30 5784 H 531.319 -2.222 6.08713 0
M  V30 5785 N 524.725 -1.39134 -0.740242 0
M  V30 5786 C 525.955 -1.39132 -1.52728 0
M  V30 5787 C 526.363 0.0173133 -1.89192 0
M  V30 5788 O 525.706 0.997715 -1.54244 0
M  V30 5789 C 525.768 -2.1952 -2.84695 0
M  V30 5790 C 525.432 -3.68203 -2.70695 0
M  V30 5791 C 526.429 -4.61401 -2.39593 0
M  V30 5792 C 524.114 -4.11724 -2.8773 0
M  V30 5793 C 526.108 -5.96102 -2.25701 0
M  V30 5794 C 523.795 -5.46503 -2.73456 0
M  V30 5795 C 524.793 -6.38506 -2.42486 0
M  V30 5796 O 524.481 -7.70803 -2.28295 0
M  V30 5797 H 524.213 -0.477263 -0.478744 0
M  V30 5798 H 526.767 -1.83504 -0.922799 0
M  V30 5799 H 524.997 -1.69888 -3.47383 0
M  V30 5800 H 526.686 -2.1176 -3.46284 0
M  V30 5801 H 527.452 -4.29079 -2.26088 0
M  V30 5802 H 523.331 -3.4045 -3.10829 0
M  V30 5803 H 526.875 -6.6788 -2.0145 0
M  V30 5804 H 522.772 -5.78417 -2.86538 0
M  V30 5805 H 523.54 -7.8147 -2.43405 0
M  V30 5806 N 526.204 0.969867 -1.24223 0
M  V30 5807 C 527.429 1.75289 -1.10853 0
M  V30 5808 C 527.854 1.85091 0.335079 0
M  V30 5809 O 527.212 1.32024 1.24255 0
M  V30 5810 C 527.26 3.15255 -1.75062 0
M  V30 5811 O 526.364 3.99589 -1.01992 0
M  V30 5812 H 525.705 0.538904 -0.387915 0
M  V30 5813 H 528.235 1.21675 -1.64488 0
M  V30 5814 H 528.245 3.65787 -1.80731 0
M  V30 5815 H 526.92 3.07436 -2.801 0
M  V30 5816 H 525.497 3.58077 -1.04094 0
M  V30 5817 N 527.682 1.05563 1.17022 0
M  V30 5818 C 528.907 0.788437 1.91829 0
M  V30 5819 C 529.332 -0.650356 1.76499 0
M  V30 5820 O 528.69 -1.45229 1.08527 0
M  V30 5821 C 528.738 1.1786 3.40795 0
M  V30 5822 O 527.842 0.312965 4.11211 0
M  V30 5823 H 527.183 0.288794 0.597908 0
M  V30 5824 H 529.713 1.40948 1.48307 0
M  V30 5825 H 529.723 1.14697 3.91546 0
M  V30 5826 H 528.398 2.22666 3.51273 0
M  V30 5827 H 526.975 0.405515 3.70689 0
M  V30 5828 N 529.16 -1.33526 0.837174 0
M  V30 5829 C 530.571 -1.80182 0.489017 0
M  V30 5830 C 530.922 -1.69285 -0.991826 0
M  V30 5831 O 530.047 -1.24113 -1.77271 0
M  V30 5832 C 530.642 -3.27149 0.880866 0
M  V30 5833 C 529.201 -3.71828 0.584872 0
M  V30 5834 C 528.348 -2.54974 1.09011 0
M  V30 5835 H 531.299 -1.21071 1.02603 0
M  V30 5836 H 531.32 -3.80024 0.190239 0
M  V30 5837 H 530.832 -3.35048 1.95869 0
M  V30 5838 H 528.933 -3.69457 -0.48295 0
M  V30 5839 H 529.046 -4.65366 1.13892 0
M  V30 5840 H 527.41 -2.4952 0.511047 0
M  V30 5841 H 528.193 -2.65637 2.17467 0
M  V30 5842 N 530.638 -0.59345 -1.46 0
M  V30 5843 C 531.548 0.135817 -2.34207 0
M  V30 5844 C 532.564 0.875008 -1.50398 0
M  V30 5845 O 533.74 0.835778 -1.83239 0
M  V30 5846 C 530.805 1.12977 -3.27776 0
M  V30 5847 C 529.866 0.394081 -4.27487 0
M  V30 5848 C 529.099 1.34068 -5.16586 0
M  V30 5849 O 529.322 2.5778 -5.08828 0
M  V30 5850 O 528.256 0.845426 -5.95933 0
M  V30 5851 H 532.082 -0.588691 -2.9794 0
M  V30 5852 H 529.667 -0.353784 -1.45151 0
M  V30 5853 H 531.549 1.70261 -3.85473 0
M  V30 5854 H 530.224 1.83556 -2.66625 0
M  V30 5855 H 529.131 -0.220869 -3.73447 0
M  V30 5856 H 530.464 -0.270939 -4.91454 0
M  V30 5857 N 532.116 1.54067 -0.331816 0
M  V30 5858 C 533.063 2.24623 0.530372 0
M  V30 5859 C 534.033 1.24009 1.10503 0
M  V30 5860 O 535.218 1.52712 1.14384 0
M  V30 5861 C 532.358 3.01374 1.68129 0
M  V30 5862 C 531.471 4.16821 1.13507 0
M  V30 5863 C 530.606 4.81085 2.25234 0
M  V30 5864 C 529.645 5.88621 1.67903 0
M  V30 5865 N 528.782 6.46713 2.73326 0
M  V30 5866 H 533.622 2.97898 -0.0778607 0
M  V30 5867 H 531.159 1.47014 -0.0501965 0
M  V30 5868 H 533.117 3.44125 2.35868 0
M  V30 5869 H 531.747 2.30419 2.26069 0
M  V30 5870 H 530.799 3.78796 0.348979 0
M  V30 5871 H 532.111 4.94203 0.675633 0
M  V30 5872 H 531.265 5.26846 3.00862 0
M  V30 5873 H 530.004 4.03102 2.74518 0
M  V30 5874 H 529.009 5.42254 0.907773 0
M  V30 5875 H 530.234 6.68506 1.19487 0
M  V30 5876 H 528.18 5.71599 3.21886 0
M  V30 5877 H 528.097 7.19532 2.3197 0
M  V30 5878 H 529.365 6.97129 3.48758 0
M  V30 5879 N 533.594 0.0601682 1.57485 0
M  V30 5880 C 534.504 -0.926121 2.15546 0
M  V30 5881 C 535.52 -1.33532 1.11558 0
M  V30 5882 O 536.696 -1.4104 1.4377 0
M  V30 5883 C 533.761 -2.17952 2.69625 0
M  V30 5884 C 532.822 -1.82783 3.88444 0
M  V30 5885 C 532.055 -3.02148 4.39935 0
M  V30 5886 O 532.278 -4.15803 3.90466 0
M  V30 5887 O 531.212 -2.82639 5.31412 0
M  V30 5888 H 535.038 -0.462289 3.00161 0
M  V30 5889 H 532.623 -0.162246 1.48516 0
M  V30 5890 H 534.505 -2.91474 3.04337 0
M  V30 5891 H 533.18 -2.63456 1.88077 0
M  V30 5892 H 532.087 -1.06549 3.58606 0
M  V30 5893 H 533.42 -1.42072 4.7125 0
M  V30 5894 N 535.072 -1.5615 -0.213296 0
M  V30 5895 C 535.982 -1.96265 -1.28519 0
M  V30 5896 C 536.998 -0.86765 -1.50824 0
M  V30 5897 O 538.174 -1.17191 -1.63793 0
M  V30 5898 C 535.239 -2.27836 -2.61327 0
M  V30 5899 C 534.3 -3.50949 -2.47252 0
M  V30 5900 C 533.533 -3.81004 -3.73727 0
M  V30 5901 O 533.756 -3.12612 -4.77106 0
M  V30 5902 O 532.69 -4.74477 -3.70344 0
M  V30 5903 H 536.516 -2.87631 -0.974795 0
M  V30 5904 H 534.101 -1.43467 -0.416832 0
M  V30 5905 H 535.983 -2.49299 -3.39747 0
M  V30 5906 H 534.658 -1.39643 -2.9203 0
M  V30 5907 H 533.565 -3.34754 -1.67004 0
M  V30 5908 H 534.898 -4.39551 -2.21486 0
M  V30 5909 N 536.55 0.480323 -1.50102 0
M  V30 5910 C 537.775 1.26126 -1.64642 0
M  V30 5911 C 538.2 1.85257 -0.325823 0
M  V30 5912 O 537.558 1.66854 0.709194 0
M  V30 5913 C 537.606 2.35243 -2.73301 0
M  V30 5914 O 536.71 3.39646 -2.33911 0
M  V30 5915 H 536.051 0.371463 -0.550374 0
M  V30 5916 H 538.581 0.572696 -1.96421 0
M  V30 5917 H 538.591 2.80695 -2.96098 0
M  V30 5918 H 537.266 1.91574 -3.6915 0
M  V30 5919 H 535.843 2.99969 -2.21525 0
M  V30 5920 N 538.028 1.39524 0.732853 0
M  V30 5921 C 538.96 1.34318 1.85718 0
M  V30 5922 C 539.973 0.251576 1.60844 0
M  V30 5923 O 541.162 0.510685 1.71039 0
M  V30 5924 C 538.262 1.06334 3.21786 0
M  V30 5925 C 537.435 2.26813 3.73998 0
M  V30 5926 C 536.494 1.95253 4.88634 0
M  V30 5927 O 535.52 2.67957 5.02183 0
M  V30 5928 N 536.722 0.919984 5.73164 0
M  V30 5929 H 539.487 2.3121 1.90688 0
M  V30 5930 H 537.048 1.33654 0.91368 0
M  V30 5931 H 539.04 0.832363 3.96048 0
M  V30 5932 H 537.61 0.181682 3.12072 0
M  V30 5933 H 536.83 2.65849 2.91064 0
M  V30 5934 H 538.118 3.0717 4.05616 0
M  V30 5935 H 537.516 0.317487 5.64808 0
M  V30 5936 H 536.073 0.748905 6.47483 0
M  V30 5937 N 539.506 -0.963266 1.24736 0
M  V30 5938 C 540.917 -1.52145 1.08207 0
M  V30 5939 C 541.268 -1.93142 -0.345061 0
M  V30 5940 O 540.393 -1.77769 -1.23399 0
M  V30 5941 C 540.988 -2.76486 1.95808 0
M  V30 5942 C 539.547 -3.28646 1.8349 0
M  V30 5943 C 538.694 -2.01529 1.90476 0
M  V30 5944 H 541.645 -0.781083 1.38148 0
M  V30 5945 H 541.666 -3.49986 1.49297 0
M  V30 5946 H 541.178 -2.46617 2.99669 0
M  V30 5947 H 539.279 -3.63357 0.824787 0
M  V30 5948 H 539.392 -3.97246 2.67829 0
M  V30 5949 H 537.756 -2.16442 1.34258 0
M  V30 5950 H 538.539 -1.7402 2.95926 0
M  V30 5951 N 540.985 -1.06182 -1.16461 0
M  V30 5952 C 542.231 -0.779015 -1.87241 0
M  V30 5953 C 542.564 0.692715 -1.81425 0
M  V30 5954 O 541.839 1.5074 -1.22913 0
M  V30 5955 C 542.122 -1.2728 -3.36856 0
M  V30 5956 C 541.975 -2.80821 -3.51368 0
M  V30 5957 C 543.294 -0.879799 -4.31216 0
M  V30 5958 H 540.413 -0.284464 -0.679889 0
M  V30 5959 H 543.055 -1.31755 -1.36896 0
M  V30 5960 H 541.205 -0.814673 -3.79862 0
M  V30 5961 H 542.877 -3.34833 -3.17308 0
M  V30 5962 H 541.12 -3.19606 -2.93316 0
M  V30 5963 H 541.791 -3.10435 -4.56436 0
M  V30 5964 H 544.267 -1.27436 -3.96105 0
M  V30 5965 H 543.143 -1.25278 -5.34412 0
M  V30 5966 H 543.404 0.215372 -4.41575 0
M  V30 5967 N 542.463 1.3308 -0.844243 0
M  V30 5968 C 543.709 1.97898 -0.443206 0
M  V30 5969 C 544.042 1.66699 0.99625 0
M  V30 5970 O 543.317 0.949704 1.69738 0
M  V30 5971 C 543.6 3.53801 -0.670606 0
M  V30 5972 C 543.453 3.94667 -2.15772 0
M  V30 5973 C 544.772 4.39936 -0.120226 0
M  V30 5974 H 541.891 0.718861 -0.162504 0
M  V30 5975 H 544.533 1.57633 -1.06075 0
M  V30 5976 H 542.683 3.88229 -0.14496 0
M  V30 5977 H 544.355 3.70469 -2.74865 0
M  V30 5978 H 542.598 3.44203 -2.6402 0
M  V30 5979 H 543.269 5.03275 -2.26757 0
M  V30 5980 H 545.745 4.12183 -0.5696 0
M  V30 5981 H 544.621 5.4803 -0.308984 0
M  V30 5982 H 544.882 4.31184 0.976347 0
M  V30 5983 N 543.941 0.601185 1.45683 0
M  V30 5984 C 544.888 -0.121396 2.30481 0
M  V30 5985 C 545.858 -0.866232 1.41724 0
M  V30 5986 O 547.043 -0.85324 1.70659 0
M  V30 5987 C 544.183 -1.11704 3.26521 0
M  V30 5988 C 543.296 -0.373741 4.3038 0
M  V30 5989 C 542.431 -1.35854 5.13534 0
M  V30 5990 C 541.47 -0.602689 6.09126 0
M  V30 5991 N 540.607 -1.53645 6.85082 0
M  V30 5992 H 545.447 0.607732 2.91737 0
M  V30 5993 H 542.984 0.311502 1.43764 0
M  V30 5994 H 544.942 -1.70735 3.80664 0
M  V30 5995 H 543.572 -1.81366 2.67032 0
M  V30 5996 H 542.624 0.331962 3.78949 0
M  V30 5997 H 543.936 0.2163 4.98331 0
M  V30 5998 H 543.09 -2.02111 5.72046 0
M  V30 5999 H 541.829 -1.98251 4.45587 0
M  V30 6000 H 540.834 0.0735482 5.49751 0
M  V30 6001 H 542.059 0.0161467 6.79098 0
M  V30 6002 H 540.005 -2.14819 6.1983 0
M  V30 6003 H 539.922 -0.999688 7.49361 0
M  V30 6004 H 541.19 -2.1888 7.48139 0
M  V30 6005 N 545.419 -1.53889 0.339982 0
M  V30 6006 C 546.667 -2.00458 -0.257112 0
M  V30 6007 C 546.988 -1.22953 -1.51353 0
M  V30 6008 O 546.258 -0.335734 -1.93002 0
M  V30 6009 H 544.838 -0.740544 -0.0979965 0
M  V30 6010 H 547.5 -1.89386 0.460317 0
M  V30 6011 H 546.596 -3.08035 -0.502057 0
M  V30 6012 N 546.897 -0.0685191 -1.57451 0
M  V30 6013 C 547.844 0.899861 -2.12535 0
M  V30 6014 C 548.814 1.29749 -1.03703 0
M  V30 6015 O 549.999 1.38392 -1.31348 0
M  V30 6016 C 547.139 2.16328 -2.6888 0
M  V30 6017 C 546.252 1.81857 -3.91857 0
M  V30 6018 C 545.387 3.02786 -4.36457 0
M  V30 6019 C 544.426 2.64317 -5.5209 0
M  V30 6020 N 543.563 3.77994 -5.91663 0
M  V30 6021 H 548.403 0.423243 -2.94979 0
M  V30 6022 H 545.94 0.197268 -1.45771 0
M  V30 6023 H 547.898 2.90281 -2.99655 0
M  V30 6024 H 546.528 2.61536 -1.89206 0
M  V30 6025 H 545.58 0.979808 -3.67565 0
M  V30 6026 H 546.892 1.49553 -4.75852 0
M  V30 6027 H 546.046 3.85021 -4.68875 0
M  V30 6028 H 544.785 3.38281 -3.51308 0
M  V30 6029 H 543.79 1.80503 -5.19325 0
M  V30 6030 H 545.015 2.29995 -6.38967 0
M  V30 6031 H 542.961 4.13258 -5.09464 0
M  V30 6032 H 542.878 3.49447 -6.7039 0
M  V30 6033 H 544.146 4.60818 -6.28703 0
M  V30 6034 N 548.375 1.56261 0.205012 0
M  V30 6035 C 549.621 1.80306 0.9283 0
M  V30 6036 C 549.954 0.640932 1.83319 0
M  V30 6037 O 549.229 -0.359032 1.91158 0
M  V30 6038 C 549.512 3.14547 1.75306 0
M  V30 6039 C 549.365 4.41236 0.873562 0
M  V30 6040 C 550.684 3.45382 2.72762 0
M  V30 6041 H 547.803 0.655929 0.336044 0
M  V30 6042 H 550.445 1.88984 0.196211 0
M  V30 6043 H 548.595 3.0728 2.37721 0
M  V30 6044 H 550.267 4.60539 0.264887 0
M  V30 6045 H 548.51 4.33427 0.179773 0
M  V30 6046 H 549.181 5.31639 1.48541 0
M  V30 6047 H 551.657 3.52884 2.20481 0
M  V30 6048 H 550.533 4.40449 3.2756 0
M  V30 6049 H 550.794 2.68377 3.51321 0
M  V30 6050 N 549.853 -0.472356 1.50355 0
M  V30 6051 C 550.783 -1.57859 1.72055 0
M  V30 6052 C 551.764 -1.60283 0.569505 0
M  V30 6053 O 552.949 -1.7657 0.808503 0
M  V30 6054 C 550.079 -2.96191 1.81351 0
M  V30 6055 C 549.033 -3.08633 2.96529 0
M  V30 6056 C 548.359 -4.486 2.90968 0
M  V30 6057 C 549.659 -2.85969 4.37057 0
M  V30 6058 H 551.353 -1.39953 2.64676 0
M  V30 6059 H 548.899 -0.671846 1.27367 0
M  V30 6060 H 550.852 -3.73507 1.95117 0
M  V30 6061 H 549.576 -3.15251 0.853502 0
M  V30 6062 H 548.235 -2.33749 2.82413 0
M  V30 6063 H 547.883 -4.64577 1.92815 0
M  V30 6064 H 547.583 -4.57861 3.68289 0
M  V30 6065 H 549.107 -5.27938 3.0678 0
M  V30 6066 H 550.521 -3.53036 4.51706 0
M  V30 6067 H 548.918 -3.06677 5.15819 0
M  V30 6068 H 549.988 -1.81838 4.49514 0
M  V30 6069 N 551.331 -1.39911 -0.725443 0
M  V30 6070 C 552.241 -1.41688 -1.8698 0
M  V30 6071 C 553.257 -0.310579 -1.71206 0
M  V30 6072 O 554.433 -0.55359 -1.93642 0
M  V30 6073 C 551.498 -1.26811 -3.22676 0
M  V30 6074 C 550.559 -2.47497 -3.50776 0
M  V30 6075 C 549.792 -2.3332 -4.79997 0
M  V30 6076 O 550.015 -1.34175 -5.54394 0
M  V30 6077 O 548.949 -3.22498 -5.08211 0
M  V30 6078 H 552.775 -2.38171 -1.88436 0
M  V30 6079 H 550.36 -1.21128 -0.874548 0
M  V30 6080 H 552.242 -1.20684 -4.03749 0
M  V30 6081 H 550.917 -0.334289 -3.21969 0
M  V30 6082 H 549.824 -2.59201 -2.69751 0
M  V30 6083 H 551.157 -3.39606 -3.5627 0
M  V30 6084 N 552.809 0.956637 -1.25245 0
M  V30 6085 C 553.756 2.053 -1.05454 0
M  V30 6086 C 554.726 1.66062 0.0356889 0
M  V30 6087 O 555.911 1.90415 -0.121099 0
M  V30 6088 C 553.051 3.38391 -0.677191 0
M  V30 6089 C 552.164 3.90758 -1.84206 0
M  V30 6090 C 551.299 5.12165 -1.40926 0
M  V30 6091 C 550.338 5.56757 -2.54338 0
M  V30 6092 N 549.475 6.69376 -2.11848 0
M  V30 6093 H 554.315 2.21562 -1.99284 0
M  V30 6094 H 551.852 1.08578 -0.992434 0
M  V30 6095 H 553.81 4.1488 -0.43938 0
M  V30 6096 H 552.44 3.22021 0.224127 0
M  V30 6097 H 551.492 3.10808 -2.19323 0
M  V30 6098 H 552.804 4.19802 -2.69383 0
M  V30 6099 H 551.958 5.96065 -1.13098 0
M  V30 6100 H 550.697 4.84832 -0.528175 0
M  V30 6101 H 549.702 4.71423 -2.82913 0
M  V30 6102 H 550.927 5.861 -3.43022 0
M  V30 6103 H 548.873 6.43756 -1.26153 0
M  V30 6104 H 548.79 6.97927 -2.90574 0
M  V30 6105 H 550.058 7.5669 -1.87191 0
M  V30 6106 N 554.287 1.06798 1.15896 0
M  V30 6107 C 555.234 0.683314 2.20453 0
M  V30 6108 C 556.204 -0.32255 1.62938 0
M  V30 6109 O 557.389 -0.210276 1.89638 0
M  V30 6110 C 554.529 0.0813266 3.45004 0
M  V30 6111 C 553.642 1.13799 4.16742 0
M  V30 6112 C 552.777 0.501598 5.28826 0
M  V30 6113 C 551.816 1.54144 5.92373 0
M  V30 6114 N 550.953 0.928038 6.9594 0
M  V30 6115 H 555.793 1.57932 2.52708 0
M  V30 6116 H 553.33 0.789544 1.24115 0
M  V30 6117 H 555.288 -0.285274 4.16224 0
M  V30 6118 H 553.918 -0.77806 3.13283 0
M  V30 6119 H 552.97 1.62223 3.44075 0
M  V30 6120 H 554.282 1.92664 4.60089 0
M  V30 6121 H 553.436 0.0823162 6.06644 0
M  V30 6122 H 552.175 -0.318883 4.86656 0
M  V30 6123 H 551.18 1.97056 5.13273 0
M  V30 6124 H 552.405 2.3641 6.36621 0
M  V30 6125 H 550.351 0.12836 6.55874 0
M  V30 6126 H 550.268 1.65401 7.37685 0
M  V30 6127 H 551.536 0.534071 7.77668 0
M  V30 6128 N 555.766 -1.3263 0.851289 0
M  V30 6129 C 556.713 -2.28952 0.291469 0
M  V30 6130 C 557.683 -1.54897 -0.599676 0
M  V30 6131 O 558.868 -1.83137 -0.535305 0
M  V30 6132 C 556.008 -3.41206 -0.516992 0
M  V30 6133 C 555.121 -4.30148 0.399566 0
M  V30 6134 C 554.256 -5.29527 -0.4212 0
M  V30 6135 C 553.295 -6.10112 0.492969 0
M  V30 6136 N 552.432 -7.01499 -0.290414 0
M  V30 6137 H 557.272 -2.76228 1.11813 0
M  V30 6138 H 554.809 -1.35907 0.562826 0
M  V30 6139 H 556.767 -4.05005 -1.00132 0
M  V30 6140 H 555.397 -2.9509 -1.30851 0
M  V30 6141 H 554.449 -3.66959 1.00227 0
M  V30 6142 H 555.761 -4.8649 1.1013 0
M  V30 6143 H 554.915 -5.98914 -0.968832 0
M  V30 6144 H 553.654 -4.73794 -1.15632 0
M  V30 6145 H 552.659 -5.39632 1.05251 0
M  V30 6146 H 553.884 -6.6793 1.22664 0
M  V30 6147 H 551.83 -6.48199 -1.00868 0
M  V30 6148 H 551.747 -7.55178 0.352354 0
M  V30 6149 H 553.015 -7.75176 -0.819882 0
M  V30 6150 N 557.244 -0.608902 -1.45362 0
M  V30 6151 C 558.176 0.147318 -2.28726 0
M  V30 6152 C 559.189 0.830468 -1.40025 0
M  V30 6153 O 560.378 0.695636 -1.64387 0
M  V30 6154 C 557.478 1.22968 -3.15804 0
M  V30 6155 C 556.651 0.633391 -4.3279 0
M  V30 6156 C 555.71 1.60682 -5.01067 0
M  V30 6157 O 554.736 1.13261 -5.57818 0
M  V30 6158 N 555.938 2.94123 -5.00472 0
M  V30 6159 H 558.703 -0.568014 -2.94268 0
M  V30 6160 H 556.264 -0.448479 -1.55564 0
M  V30 6161 H 558.256 1.88072 -3.58345 0
M  V30 6162 H 556.826 1.84752 -2.52162 0
M  V30 6163 H 556.046 -0.195762 -3.93714 0
M  V30 6164 H 557.334 0.215255 -5.08344 0
M  V30 6165 H 556.732 3.3525 -4.55657 0
M  V30 6166 H 555.289 3.54646 -5.46872 0
M  V30 6167 N 558.722 1.53707 -0.348139 0
M  V30 6168 C 559.669 2.25173 0.506518 0
M  V30 6169 C 560.639 1.25174 1.09182 0
M  V30 6170 O 561.824 1.53917 1.12757 0
M  V30 6171 C 558.964 3.03141 1.64923 0
M  V30 6172 C 558.077 4.18002 1.0908 0
M  V30 6173 C 557.212 4.83447 2.20119 0
M  V30 6174 C 556.251 5.90369 1.61651 0
M  V30 6175 N 555.388 6.49575 2.66451 0
M  V30 6176 H 560.228 2.97799 -0.109452 0
M  V30 6177 H 557.765 1.46953 -0.0657866 0
M  V30 6178 H 559.723 3.46607 2.32205 0
M  V30 6179 H 558.353 2.32803 2.23612 0
M  V30 6180 H 557.405 3.79145 0.308783 0
M  V30 6181 H 558.717 4.94892 0.623178 0
M  V30 6182 H 557.871 5.30008 2.95257 0
M  V30 6183 H 556.61 4.05991 2.70227 0
M  V30 6184 H 555.615 5.43186 0.850209 0
M  V30 6185 H 556.84 6.69735 1.1239 0
M  V30 6186 H 554.786 5.74981 3.15805 0
M  V30 6187 H 554.703 7.21952 2.24325 0
M  V30 6188 H 555.971 7.00789 3.41344 0
M  V30 6189 N 560.2 0.0768682 1.57412 0
M  V30 6190 C 561.132 -0.918248 2.10002 0
M  V30 6191 C 562.145 -1.25808 1.03325 0
M  V30 6192 O 563.334 -1.21438 1.30824 0
M  V30 6193 C 560.434 -2.23263 2.54964 0
M  V30 6194 C 559.607 -2.07088 3.8527 0
M  V30 6195 C 558.666 -3.21876 4.16272 0
M  V30 6196 O 557.692 -2.96643 4.8579 0
M  V30 6197 N 558.894 -4.4712 3.70221 0
M  V30 6198 H 561.659 -0.469209 2.96004 0
M  V30 6199 H 559.22 -0.108725 1.61535 0
M  V30 6200 H 561.212 -2.9897 2.72762 0
M  V30 6201 H 559.782 -2.59649 1.74072 0
M  V30 6202 H 559.002 -1.15818 3.76802 0
M  V30 6203 H 560.29 -1.93537 4.70554 0
M  V30 6204 H 559.688 -4.70506 3.1407 0
M  V30 6205 H 558.245 -5.19837 3.93209 0
M  V30 6206 N 561.678 -1.56367 -0.196722 0
M  V30 6207 C 562.608 -1.97442 -1.24655 0
M  V30 6208 C 563.589 -0.846147 -1.47561 0
M  V30 6209 O 564.774 -1.11035 -1.59326 0
M  V30 6210 C 561.904 -2.31253 -2.59112 0
M  V30 6211 C 560.858 -3.46804 -2.50821 0
M  V30 6212 C 560.184 -3.66286 -3.89536 0
M  V30 6213 C 561.484 -4.8104 -2.03465 0
M  V30 6214 H 563.178 -2.85388 -0.905216 0
M  V30 6215 H 560.724 -1.37304 -0.434002 0
M  V30 6216 H 562.677 -2.58583 -3.32736 0
M  V30 6217 H 561.401 -1.40188 -2.94983 0
M  V30 6218 H 560.06 -3.19563 -1.79653 0
M  V30 6219 H 559.708 -2.72555 -4.22756 0
M  V30 6220 H 559.408 -4.4402 -3.84864 0
M  V30 6221 H 560.932 -3.9599 -4.64784 0
M  V30 6222 H 562.346 -5.07411 -2.66846 0
M  V30 6223 H 560.743 -5.62232 -2.09798 0
M  V30 6224 H 561.813 -4.74732 -0.98781 0
M  V30 6225 N 563.156 0.464375 -1.50603 0
M  V30 6226 C 564.381 1.24372 -1.65971 0
M  V30 6227 C 564.806 1.84901 -0.345453 0
M  V30 6228 O 564.164 1.67596 0.691457 0
M  V30 6229 C 564.212 2.32331 -2.7578 0
M  V30 6230 O 563.316 3.37146 -2.375 0
M  V30 6231 H 562.657 0.365604 -0.554283 0
M  V30 6232 H 565.187 0.55183 -1.97018 0
M  V30 6233 H 565.197 2.77539 -2.99059 0
M  V30 6234 H 563.872 1.87648 -3.71162 0
M  V30 6235 H 562.449 2.97602 -2.24694 0
M  V30 6236 N 564.634 1.40294 0.718013 0
M  V30 6237 C 565.911 1.2894 1.47084 0
M  V30 6238 C 566.291 -0.0933625 2.10893 0
M  V30 6239 O 565.639 -1.10598 1.99951 0
M  V30 6240 C 565.849 2.4264 2.50852 0
M  V30 6241 C 567.197 2.8276 3.16752 0
M  V30 6242 O 568.221 2.42215 2.61171 0
M  V30 6243 O 567.08 3.528 4.17366 0
M  V30 6244 H 564.174 0.506236 0.653952 0
M  V30 6245 H 566.72 1.52208 0.750394 0
M  V30 6246 H 565.492 3.35009 2.022 0
M  V30 6247 H 565.115 2.21129 3.30435 0
M  V30 6248 N 566.112 -0.949982 1.2575 0
M  V30 6249 C 567.36 -1.6918 1.10555 0
M  V30 6250 C 567.681 -1.91773 -0.353298 0
M  V30 6251 O 566.951 -1.50814 -1.25027 0
M  V30 6252 H 565.531 -0.626952 0.406129 0
M  V30 6253 H 568.193 -1.1419 1.57945 0
M  V30 6254 H 567.289 -2.66915 1.61749 0
M  V30 6255 N 567.59 -1.07411 -1.15328 0
M  V30 6256 C 568.5 -0.706438 -2.23711 0
M  V30 6257 C 569.516 0.282586 -1.7169 0
M  V30 6258 O 570.692 0.129066 -2.00986 0
M  V30 6259 C 567.757 -0.11048 -3.46524 0
M  V30 6260 C 566.818 -1.15282 -4.13532 0
M  V30 6261 C 566.051 -0.585205 -5.30482 0
M  V30 6262 O 566.274 0.598549 -5.67251 0
M  V30 6263 O 565.208 -1.33039 -5.87013 0
M  V30 6264 H 569.034 -1.61031 -2.57493 0
M  V30 6265 H 566.619 -0.847113 -1.23062 0
M  V30 6266 H 568.501 0.21957 -4.20828 0
M  V30 6267 H 567.176 0.766703 -3.14489 0
M  V30 6268 H 566.083 -1.53523 -3.41147 0
M  V30 6269 H 567.416 -2.00192 -4.49649 0
M  V30 6270 N 569.068 1.32177 -0.85831 0
M  V30 6271 C 570.015 2.28794 -0.303607 0
M  V30 6272 C 570.985 1.55213 0.591453 0
M  V30 6273 O 572.17 1.83418 0.525585 0
M  V30 6274 C 569.31 3.41475 0.49889 0
M  V30 6275 C 568.423 4.2993 -0.422373 0
M  V30 6276 C 567.558 5.29743 0.393111 0
M  V30 6277 C 566.597 6.09842 -0.525317 0
M  V30 6278 N 565.734 7.01643 0.253208 0
M  V30 6279 H 570.574 2.75631 -1.13276 0
M  V30 6280 H 568.111 1.35606 -0.570026 0
M  V30 6281 H 570.069 4.05531 0.979826 0
M  V30 6282 H 568.699 2.95779 1.29284 0
M  V30 6283 H 567.751 3.66422 -1.02171 0
M  V30 6284 H 569.063 4.85899 -1.12709 0
M  V30 6285 H 568.217 5.9942 0.937056 0
M  V30 6286 H 566.956 4.744 1.13117 0
M  V30 6287 H 565.961 5.39066 -1.08112 0
M  V30 6288 H 567.186 6.6727 -1.26205 0
M  V30 6289 H 565.132 6.48725 0.974295 0
M  V30 6290 H 565.049 7.54981 -0.392398 0
M  V30 6291 H 566.317 7.756 0.778761 0
M  V30 6292 N 570.547 0.616602 1.45037 0
M  V30 6293 C 571.793 0.115501 2.02471 0
M  V30 6294 C 572.126 -1.25406 1.4828 0
M  V30 6295 O 571.401 -1.82922 0.661051 0
M  V30 6296 C 571.684 0.0863588 3.59996 0
M  V30 6297 C 571.537 1.48723 4.24501 0
M  V30 6298 C 572.856 -0.596762 4.36035 0
M  V30 6299 H 569.975 0.0434461 0.735718 0
M  V30 6300 H 572.617 0.7903 1.72784 0
M  V30 6301 H 570.767 -0.488277 3.85419 0
M  V30 6302 H 572.439 2.10964 4.10234 0
M  V30 6303 H 570.682 2.04534 3.82555 0
M  V30 6304 H 571.353 1.419 5.3345 0
M  V30 6305 H 573.829 -0.10824 4.15959 0
M  V30 6306 H 572.705 -0.586289 5.4576 0
M  V30 6307 H 572.966 -1.66451 4.09569 0
M  V30 6308 N 572.025 -1.5352 0.356285 0
M  V30 6309 C 572.955 -2.28372 -0.486661 0
M  V30 6310 C 573.936 -1.30432 -1.09185 0
M  V30 6311 O 575.121 -1.59291 -1.11085 0
M  V30 6312 C 572.251 -3.06604 -1.63129 0
M  V30 6313 C 571.205 -4.12154 -1.15381 0
M  V30 6314 C 570.531 -4.78415 -2.38796 0
M  V30 6315 C 571.831 -5.21724 -0.245179 0
M  V30 6316 H 573.525 -2.99083 0.137797 0
M  V30 6317 H 571.071 -1.43841 0.0677134 0
M  V30 6318 H 573.024 -3.57712 -2.22755 0
M  V30 6319 H 571.748 -2.33568 -2.28284 0
M  V30 6320 H 570.407 -3.61978 -0.580294 0
M  V30 6321 H 570.055 -4.01959 -3.02387 0
M  V30 6322 H 569.755 -5.49734 -2.07524 0
M  V30 6323 H 571.279 -5.32313 -2.99125 0
M  V30 6324 H 572.693 -5.68391 -0.748646 0
M  V30 6325 H 571.09 -6.00095 -0.0237608 0
M  V30 6326 H 572.16 -4.79596 0.715229 0
M  V30 6327 N 573.503 -0.0852151 -1.57369 0
M  V30 6328 C 574.749 0.581666 -1.94279 0
M  V30 6329 C 575.082 1.68444 -0.966446 0
M  V30 6330 O 574.357 1.945 0.00215277 0
M  V30 6331 C 574.64 1.14609 -3.41375 0
M  V30 6332 C 574.493 0.0490414 -4.49773 0
M  V30 6333 C 575.812 2.04751 -3.8957 0
M  V30 6334 H 572.931 0.209972 -0.706456 0
M  V30 6335 H 575.573 -0.153915 -1.89376 0
M  V30 6336 H 573.723 1.77297 -3.45685 0
M  V30 6337 H 575.395 -0.584721 -4.57579 0
M  V30 6338 H 573.638 -0.618638 -4.29366 0
M  V30 6339 H 574.309 0.484601 -5.49869 0
M  V30 6340 H 576.785 1.51981 -3.87351 0
M  V30 6341 H 575.661 2.41173 -4.93079 0
M  V30 6342 H 575.922 2.96107 -3.28288 0
M  V30 6343 N 574.981 1.5647 0.188427 0
M  V30 6344 C 575.944 1.9421 1.21718 0
M  V30 6345 C 576.944 0.823901 1.38089 0
M  V30 6346 O 578.134 1.09122 1.35787 0
M  V30 6347 C 575.266 2.22197 2.58537 0
M  V30 6348 H 576.459 2.86252 0.894418 0
M  V30 6349 H 574.012 1.50263 0.430211 0
M  V30 6350 H 574.747 1.32814 2.95856 0
M  V30 6351 H 574.532 3.03688 2.48025 0
M  V30 6352 H 576.022 2.52376 3.3271 0
M  V30 6353 N 576.459 -0.456382 1.50847 0
M  V30 6354 C 577.706 -1.20736 1.62571 0
M  V30 6355 C 578.034 -1.9163 0.332904 0
M  V30 6356 O 577.289 -1.8343 -0.682058 0
M  V30 6357 C 577.588 -2.26336 2.76599 0
M  V30 6358 C 577.254 -1.7259 4.16562 0
M  V30 6359 C 575.916 -1.57654 4.54641 0
M  V30 6360 C 578.268 -1.32877 5.03977 0
M  V30 6361 C 575.596 -1.0145 5.77862 0
M  V30 6362 C 577.948 -0.7811 6.27759 0
M  V30 6363 C 576.612 -0.618488 6.64628 0
M  V30 6364 H 575.882 -0.441803 0.594888 0
M  V30 6365 H 578.529 -0.501169 1.84826 0
M  V30 6366 H 576.834 -3.0292 2.48489 0
M  V30 6367 H 578.531 -2.84227 2.82871 0
M  V30 6368 H 575.121 -1.85187 3.86528 0
M  V30 6369 H 579.305 -1.43245 4.75179 0
M  V30 6370 H 574.561 -0.876109 6.0509 0
M  V30 6371 H 578.735 -0.464783 6.94847 0
M  V30 6372 H 576.362 -0.180838 7.59985 0
M  V30 6373 N 577.937 -1.40673 -0.710563 0
M  V30 6374 C 578.867 -1.44095 -1.83736 0
M  V30 6375 C 579.848 -0.301286 -1.67411 0
M  V30 6376 O 581.033 -0.510618 -1.87367 0
M  V30 6377 C 578.163 -1.30773 -3.21738 0
M  V30 6378 C 577.117 -2.42395 -3.52745 0
M  V30 6379 C 576.443 -2.14147 -4.89944 0
M  V30 6380 C 577.743 -3.84738 -3.53234 0
M  V30 6381 H 579.437 -2.38396 -1.81129 0
M  V30 6382 H 576.983 -1.14746 -0.870017 0
M  V30 6383 H 578.936 -1.31783 -4.00264 0
M  V30 6384 H 577.66 -0.329507 -3.24934 0
M  V30 6385 H 576.319 -2.40643 -2.76562 0
M  V30 6386 H 575.967 -1.14703 -4.89747 0
M  V30 6387 H 575.667 -2.88934 -5.11655 0
M  V30 6388 H 577.191 -2.16848 -5.70797 0
M  V30 6389 H 578.605 -3.88286 -4.2179 0
M  V30 6390 H 577.002 -4.59085 -3.86473 0
M  V30 6391 H 578.072 -4.13962 -2.52514 0
M  V30 6392 N 579.415 0.9433 -1.26252 0
M  V30 6393 C 580.325 2.07532 -1.09397 0
M  V30 6394 C 581.341 1.73977 -0.0280449 0
M  V30 6395 O 582.517 2.00067 -0.231337 0
M  V30 6396 C 579.582 3.39002 -0.726523 0
M  V30 6397 C 578.643 3.86353 -1.87163 0
M  V30 6398 C 577.876 5.11549 -1.52162 0
M  V30 6399 O 578.099 5.68834 -0.422385 0
M  V30 6400 O 577.033 5.53889 -2.35565 0
M  V30 6401 H 580.859 2.24658 -2.04359 0
M  V30 6402 H 578.444 1.05988 -1.05295 0
M  V30 6403 H 580.326 4.18 -0.534236 0
M  V30 6404 H 579.001 3.2312 0.193721 0
M  V30 6405 H 577.908 3.0831 -2.11886 0
M  V30 6406 H 579.241 4.06752 -2.77152 0
M  V30 6407 N 580.893 1.08022 1.14757 0
M  V30 6408 C 581.84 0.706657 2.19716 0
M  V30 6409 C 582.81 -0.30525 1.63271 0
M  V30 6410 O 583.995 -0.19015 1.8985 0
M  V30 6411 C 581.135 0.117914 3.44898 0
M  V30 6412 C 580.248 1.18212 4.15512 0
M  V30 6413 C 579.383 0.557659 5.28265 0
M  V30 6414 C 578.422 1.60418 5.90705 0
M  V30 6415 N 577.559 1.0018 6.94916 0
M  V30 6416 H 582.399 1.60603 2.51019 0
M  V30 6417 H 579.936 0.802664 1.23271 0
M  V30 6418 H 581.894 -0.241112 4.16503 0
M  V30 6419 H 580.524 -0.744788 3.1409 0
M  V30 6420 H 579.576 1.65863 3.42335 0
M  V30 6421 H 580.888 1.97533 4.5802 0
M  V30 6422 H 580.042 0.146654 6.06523 0
M  V30 6423 H 578.781 -0.267249 4.86967 0
M  V30 6424 H 577.786 2.02489 5.11154 0
M  V30 6425 H 579.011 2.43149 6.34078 0
M  V30 6426 H 576.957 0.197917 6.55701 0
M  V30 6427 H 576.874 1.73216 7.35889 0
M  V30 6428 H 578.142 0.616523 7.77058 0
M  V30 6429 N 582.371 -1.3172 0.865308 0
M  V30 6430 C 583.334 -2.26918 0.322627 0
M  V30 6431 C 584.334 -1.52031 -0.523751 0
M  V30 6432 O 585.524 -1.70973 -0.333727 0
M  V30 6433 C 582.656 -3.36558 -0.542338 0
M  V30 6434 H 583.849 -2.76432 1.16298 0
M  V30 6435 H 581.402 -1.42573 0.640512 0
M  V30 6436 H 582.137 -2.92329 -1.40407 0
M  V30 6437 H 581.922 -3.92048 0.0636395 0
M  V30 6438 H 583.412 -4.07465 -0.91446 0
M  V30 6439 N 583.85 -0.624285 -1.44708 0
M  V30 6440 C 584.812 0.0749638 -2.29077 0
M  V30 6441 C 585.812 0.778965 -1.40673 0
M  V30 6442 O 587.003 0.624591 -1.62618 0
M  V30 6443 C 584.135 1.11663 -3.22094 0
M  V30 6444 H 585.327 -0.667013 -2.92388 0
M  V30 6445 H 582.88 -0.384098 -1.51507 0
M  V30 6446 H 583.615 1.88881 -2.63618 0
M  V30 6447 H 583.401 0.61583 -3.87234 0
M  V30 6448 H 584.891 1.60585 -3.8549 0
M  V30 6449 N 585.328 1.53329 -0.364422 0
M  V30 6450 C 586.605 1.93557 0.281962 0
M  V30 6451 C 586.985 1.29786 1.6649 0
M  V30 6452 O 586.333 0.456512 2.23893 0
M  V30 6453 C 586.543 3.47405 0.333331 0
M  V30 6454 C 587.891 4.20699 0.574231 0
M  V30 6455 O 588.915 3.53779 0.414588 0
M  V30 6456 O 587.774 5.39287 0.885002 0
M  V30 6457 H 584.868 0.809573 0.168881 0
M  V30 6458 H 587.414 1.64494 -0.417121 0
M  V30 6459 H 586.186 3.86091 -0.636326 0
M  V30 6460 H 585.809 3.82697 1.07836 0
M  V30 6461 N 586.806 0.0935595 1.57322 0
M  V30 6462 C 588.031 -0.582324 1.99057 0
M  V30 6463 C 588.456 -1.61025 0.972242 0
M  V30 6464 O 587.814 -1.81202 -0.0594622 0
M  V30 6465 C 587.862 -1.20799 3.39765 0
M  V30 6466 O 586.966 -2.32382 3.40694 0
M  V30 6467 H 586.307 -0.147884 0.647323 0
M  V30 6468 H 588.837 0.174516 2.03854 0
M  V30 6469 H 588.847 -1.54966 3.77425 0
M  V30 6470 H 587.522 -0.454914 4.13405 0
M  V30 6471 H 586.099 -1.99845 3.14827 0
M  V30 6472 N 588.284 -1.56567 -0.180126 0
M  V30 6473 C 589.533 -1.80685 -0.896426 0
M  V30 6474 C 589.846 -0.669335 -1.83791 0
M  V30 6475 O 591.052 -0.795209 -2.59593 0
M  V30 6476 C 589.508 -3.20132 -1.6445 0
M  V30 6477 C 589.116 -4.41727 -0.747088 0
M  V30 6478 C 590.86 -3.53549 -2.34955 0
M  V30 6479 C 588.767 -5.72195 -1.49489 0
M  V30 6480 H 587.697 -0.673758 -0.338477 0
M  V30 6481 H 590.348 -1.8289 -0.149467 0
M  V30 6482 H 588.73 -3.12218 -2.43589 0
M  V30 6483 H 589.904 -4.608 0.00671129 0
M  V30 6484 H 588.219 -4.16122 -0.152134 0
M  V30 6485 H 590.816 -4.48267 -2.91481 0
M  V30 6486 H 591.159 -2.78006 -3.09868 0
M  V30 6487 H 591.692 -3.62976 -1.62768 0
M  V30 6488 H 588.431 -6.50743 -0.788251 0
M  V30 6489 H 587.951 -5.57115 -2.22224 0
M  V30 6490 H 589.63 -6.1384 -2.04472 0
M  V30 6491 N 589.762 0.448376 -1.51087 0
M  V30 6492 C 591.178 0.783984 -1.39017 0
M  V30 6493 C 591.378 1.96087 -0.463904 0
M  V30 6494 O 590.434 2.52357 0.0850534 0
M  V30 6495 C 591.747 1.07471 -2.80839 0
M  V30 6496 C 593.295 1.17981 -2.89913 0
M  V30 6497 C 593.77 1.50354 -4.32617 0
M  V30 6498 N 595.261 1.57301 -4.35673 0
M  V30 6499 C 595.996 1.839 -5.4311 0
M  V30 6500 N 595.492 2.08365 -6.60724 0
M  V30 6501 N 597.285 1.8559 -5.30578 0
M  V30 6502 H 589.436 -0.326881 -2.0987 0
M  V30 6503 H 591.699 -0.0838006 -0.944289 0
M  V30 6504 H 591.405 0.282768 -3.50561 0
M  V30 6505 H 591.279 2.00519 -3.19487 0
M  V30 6506 H 593.666 1.9624 -2.20395 0
M  V30 6507 H 593.747 0.228603 -2.54776 0
M  V30 6508 H 593.391 0.726273 -5.0268 0
M  V30 6509 H 593.321 2.46663 -4.65258 0
M  V30 6510 H 595.812 1.40342 -3.50874 0
M  V30 6511 H 596.125 2.27999 -7.38401 0
M  V30 6512 H 594.47 2.0571 -6.63859 0
M  V30 6513 H 597.661 1.65989 -4.37682 0
M  V30 6514 H 597.834 2.05983 -6.1439 0
M  V30 6515 N 591.24 1.41047 0.703093 0
M  V30 6516 C 592.47 1.43133 1.48985 0
M  V30 6517 C 592.878 0.0328537 1.89171 0
M  V30 6518 O 592.221 -0.956469 1.56835 0
M  V30 6519 C 592.283 2.26991 2.78775 0
M  V30 6520 C 591.947 3.7525 2.60837 0
M  V30 6521 C 592.944 4.67591 2.27276 0
M  V30 6522 C 590.629 4.19208 2.76712 0
M  V30 6523 C 592.623 6.01877 2.09817 0
M  V30 6524 C 590.31 5.53561 2.5887 0
M  V30 6525 C 591.308 6.4471 2.25472 0
M  V30 6526 O 590.996 7.76584 2.07778 0
M  V30 6527 H 590.728 0.489788 0.465922 0
M  V30 6528 H 593.282 1.85886 0.873822 0
M  V30 6529 H 591.512 1.79038 3.42757 0
M  V30 6530 H 593.201 2.20867 3.40547 0
M  V30 6531 H 593.967 4.34923 2.14633 0
M  V30 6532 H 589.846 3.48572 3.01693 0
M  V30 6533 H 593.39 6.72986 1.83671 0
M  V30 6534 H 589.287 5.85811 2.71102 0
M  V30 6535 H 590.055 7.87649 2.22601 0
M  V30 6536 N 592.718 -0.936591 1.26751 0
M  V30 6537 C 593.967 -1.67778 1.11953 0
M  V30 6538 C 594.28 -1.92694 -0.33589 0
M  V30 6539 O 595.486 -2.64682 -0.604618 0
M  V30 6540 C 593.942 -3.02138 1.95551 0
M  V30 6541 C 593.55 -2.84953 3.45696 0
M  V30 6542 C 595.294 -3.79917 1.89377 0
M  V30 6543 C 593.201 -4.14814 4.21525 0
M  V30 6544 H 592.131 -0.629275 0.415366 0
M  V30 6545 H 594.782 -1.04122 1.51099 0
M  V30 6546 H 593.164 -3.668 1.49243 0
M  V30 6547 H 594.338 -2.29112 3.99805 0
M  V30 6548 H 592.653 -2.20612 3.53156 0
M  V30 6549 H 595.25 -4.76134 2.43312 0
M  V30 6550 H 595.593 -4.07204 0.865464 0
M  V30 6551 H 596.126 -3.22037 2.33532 0
M  V30 6552 H 592.865 -3.92709 5.24843 0
M  V30 6553 H 592.385 -4.70352 3.72195 0
M  V30 6554 H 594.064 -4.83239 4.3022 0
M  V30 6555 N 594.196 -1.08629 -1.14182 0
M  V30 6556 C 595.421 -0.83902 -1.89671 0
M  V30 6557 C 595.846 0.603332 -1.78161 0
M  V30 6558 O 595.204 1.42301 -1.12339 0
M  V30 6559 C 595.252 -1.26854 -3.37551 0
M  V30 6560 O 594.356 -0.42188 -4.10236 0
M  V30 6561 H 593.697 -0.304545 -0.590041 0
M  V30 6562 H 596.227 -1.4483 -1.44518 0
M  V30 6563 H 596.237 -1.25038 -3.88368 0
M  V30 6564 H 594.912 -2.31901 -3.45246 0
M  V30 6565 H 593.489 -0.503654 -3.69483 0
M  V30 6566 N 595.674 1.31259 -0.872281 0
M  V30 6567 C 597.09 1.49283 -0.564521 0
M  V30 6568 C 597.29 1.80243 0.900807 0
M  V30 6569 O 596.346 1.88246 1.68284 0
M  V30 6570 C 597.659 2.62503 -1.46673 0
M  V30 6571 C 599.207 2.76386 -1.46901 0
M  V30 6572 C 599.682 3.92705 -2.35684 0
M  V30 6573 N 601.173 3.99995 -2.33577 0
M  V30 6574 C 601.908 4.89276 -2.98992 0
M  V30 6575 N 601.404 5.83443 -3.73585 0
M  V30 6576 N 603.197 4.82541 -2.88289 0
M  V30 6577 H 595.348 1.09432 -1.82039 0
M  V30 6578 H 597.611 0.540949 -0.77851 0
M  V30 6579 H 597.317 2.46407 -2.50951 0
M  V30 6580 H 597.191 3.58695 -1.16696 0
M  V30 6581 H 599.578 2.91894 -0.433796 0
M  V30 6582 H 599.659 1.80853 -1.80903 0
M  V30 6583 H 599.303 3.77954 -3.39283 0
M  V30 6584 H 599.233 4.87549 -1.99006 0
M  V30 6585 H 601.724 3.32624 -1.7936 0
M  V30 6586 H 602.037 6.48303 -4.20622 0
M  V30 6587 H 600.382 5.83415 -3.77694 0
M  V30 6588 H 603.573 4.07951 -2.2955 0
M  V30 6589 H 603.746 5.51916 -3.39549 0
M  V30 6590 N 597.152 0.631951 1.44375 0
M  V30 6591 C 598.102 -0.0943862 2.27805 0
M  V30 6592 C 599.086 -0.815359 1.38711 0
M  V30 6593 O 600.278 -0.701331 1.62513 0
M  V30 6594 C 597.407 -1.07472 3.26044 0
M  V30 6595 C 596.493 -0.353329 4.22626 0
M  V30 6596 N 596.884 0.618512 5.02004 0
M  V30 6597 C 595.182 -0.597662 4.41977 0
M  V30 6598 C 595.883 1.0448 5.7224 0
M  V30 6599 N 594.859 0.383413 5.42246 0
M  V30 6600 H 598.661 0.651672 2.86584 0
M  V30 6601 H 596.175 0.45752 1.55822 0
M  V30 6602 H 598.172 -1.60969 3.84571 0
M  V30 6603 H 596.832 -1.82107 2.68825 0
M  V30 6604 H 597.843 0.996356 5.08226 0
M  V30 6605 H 594.52 -1.32682 3.95856 0
M  V30 6606 H 595.91 1.84773 6.45994 0
M  V30 6607 N 598.631 -1.53133 0.372548 0
M  V30 6608 C 599.877 -2.01654 -0.215277 0
M  V30 6609 C 600.21 -1.25914 -1.47849 0
M  V30 6610 O 599.485 -0.3548 -1.91237 0
M  V30 6611 C 599.768 -3.56609 -0.500187 0
M  V30 6612 C 599.621 -4.43036 0.777145 0
M  V30 6613 C 600.94 -4.20528 -1.29786 0
M  V30 6614 H 598.059 -0.732991 -0.0767686 0
M  V30 6615 H 600.701 -1.83335 0.498814 0
M  V30 6616 H 598.851 -3.7235 -1.10852 0
M  V30 6617 H 600.523 -4.39079 1.41447 0
M  V30 6618 H 598.766 -4.10723 1.39604 0
M  V30 6619 H 599.437 -5.49424 0.532662 0
M  V30 6620 H 601.913 -4.08663 -0.783198 0
M  V30 6621 H 600.789 -5.28962 -1.46596 0
M  V30 6622 H 601.05 -3.77051 -2.30836 0
M  V30 6623 N 600.109 -0.101901 -1.5727 0
M  V30 6624 C 601.056 0.854577 -2.14396 0
M  V30 6625 C 602.026 1.27521 -1.06432 0
M  V30 6626 O 603.211 1.35575 -1.34253 0
M  V30 6627 C 600.351 2.10576 -2.73408 0
M  V30 6628 C 599.464 1.73504 -3.95626 0
M  V30 6629 C 598.599 2.9346 -4.42781 0
M  V30 6630 C 597.638 2.52547 -5.57572 0
M  V30 6631 N 596.775 3.65359 -5.99547 0
M  V30 6632 H 601.615 0.360578 -2.9581 0
M  V30 6633 H 599.152 0.166303 -1.46157 0
M  V30 6634 H 601.11 2.83859 -3.05745 0
M  V30 6635 H 599.74 2.57463 -1.94711 0
M  V30 6636 H 598.792 0.901622 -3.6956 0
M  V30 6637 H 600.104 1.39426 -4.78917 0
M  V30 6638 H 599.258 3.74988 -4.76937 0
M  V30 6639 H 597.997 3.30753 -3.58404 0
M  V30 6640 H 597.002 1.69446 -5.23037 0
M  V30 6641 H 598.227 2.1639 -6.43702 0
M  V30 6642 H 596.173 4.02358 -5.18116 0
M  V30 6643 H 596.09 3.35148 -6.77652 0
M  V30 6644 H 597.358 4.47378 -6.38336 0
M  V30 6645 N 601.587 1.56661 0.17182 0
M  V30 6646 C 602.534 1.96371 1.21273 0
M  V30 6647 C 603.504 0.82756 1.44016 0
M  V30 6648 O 604.689 1.08764 1.56764 0
M  V30 6649 C 601.829 2.32838 2.54716 0
M  V30 6650 C 600.942 3.59628 2.39356 0
M  V30 6651 C 600.077 3.85311 3.65662 0
M  V30 6652 C 599.116 5.0545 3.45234 0
M  V30 6653 N 598.253 5.27268 4.63608 0
M  V30 6654 H 603.093 2.85106 0.86709 0
M  V30 6655 H 600.63 1.41073 0.416744 0
M  V30 6656 H 602.588 2.52004 3.3249 0
M  V30 6657 H 601.218 1.47214 2.87277 0
M  V30 6658 H 600.27 3.4838 1.52761 0
M  V30 6659 H 601.582 4.4756 2.20207 0
M  V30 6660 H 600.736 4.04841 4.51872 0
M  V30 6661 H 599.475 2.95753 3.8779 0
M  V30 6662 H 598.48 4.85819 2.5741 0
M  V30 6663 H 599.705 5.96538 3.24529 0
M  V30 6664 H 597.651 4.40662 4.85956 0
M  V30 6665 H 597.568 6.09422 4.4737 0
M  V30 6666 H 598.836 5.51277 5.51103 0
M  V30 6667 N 603.065 -0.440357 1.51323 0
M  V30 6668 C 603.975 -1.55955 1.75258 0
M  V30 6669 C 604.991 -1.61933 0.636687 0
M  V30 6670 O 606.167 -1.79231 0.918593 0
M  V30 6671 C 603.232 -2.9196 1.86977 0
M  V30 6672 C 602.293 -2.96122 3.10822 0
M  V30 6673 C 601.526 -4.2564 3.21973 0
M  V30 6674 O 601.749 -5.17851 2.39137 0
M  V30 6675 O 600.683 -4.36025 4.14929 0
M  V30 6676 H 604.509 -1.38673 2.70191 0
M  V30 6677 H 602.094 -0.623055 1.35788 0
M  V30 6678 H 603.976 -3.72682 1.96688 0
M  V30 6679 H 602.651 -3.09375 0.952307 0
M  V30 6680 H 601.558 -2.14366 3.06591 0
M  V30 6681 H 602.891 -2.83651 4.02247 0
M  V30 6682 N 604.543 -1.41418 -0.695603 0
M  V30 6683 C 605.493 -1.39731 -1.80165 0
M  V30 6684 C 606.477 -0.271689 -1.5859 0
M  V30 6685 O 607.669 -0.512354 -1.69422 0
M  V30 6686 C 604.798 -1.28187 -3.1847 0
M  V30 6687 C 603.884 -2.45612 -3.45739 0
M  V30 6688 N 604.275 -3.71077 -3.43708 0
M  V30 6689 C 602.573 -2.39424 -3.76288 0
M  V30 6690 C 603.274 -4.48957 -3.69882 0
M  V30 6691 N 602.25 -3.7907 -3.89624 0
M  V30 6692 H 606.052 -2.34656 -1.76957 0
M  V30 6693 H 603.566 -1.35473 -0.89559 0
M  V30 6694 H 605.563 -1.2506 -3.977 0
M  V30 6695 H 604.223 -0.342468 -3.22889 0
M  V30 6696 H 605.234 -4.03963 -3.2409 0
M  V30 6697 H 601.911 -1.53955 -3.88077 0
M  V30 6698 H 603.301 -5.57887 -3.74448 0
M  V30 6699 N 606.021 0.929856 -1.27246 0
M  V30 6700 C 607.268 1.67731 -1.13457 0
M  V30 6701 C 607.596 1.9185 0.319998 0
M  V30 6702 O 606.851 1.50524 1.25064 0
M  V30 6703 C 607.15 3.05116 -1.86115 0
M  V30 6704 C 606.816 3.00715 -3.35978 0
M  V30 6705 C 605.478 2.99222 -3.76855 0
M  V30 6706 C 607.83 2.92168 -4.3161 0
M  V30 6707 C 605.158 2.86962 -5.11732 0
M  V30 6708 C 607.51 2.81449 -5.66542 0
M  V30 6709 C 606.174 2.78305 -6.06715 0
M  V30 6710 H 605.444 0.613772 -0.415168 0
M  V30 6711 H 608.091 1.08456 -1.57827 0
M  V30 6712 H 606.396 3.68083 -1.34246 0
M  V30 6713 H 608.093 3.61822 -1.72876 0
M  V30 6714 H 604.683 3.02664 -3.03468 0
M  V30 6715 H 608.867 2.92421 -4.01003 0
M  V30 6716 H 604.123 2.82913 -5.42006 0
M  V30 6717 H 608.297 2.738 -6.40317 0
M  V30 6718 H 605.924 2.68561 -7.11181 0
M  V30 6719 N 607.499 1.09233 1.13605 0
M  V30 6720 C 608.748 0.82205 1.84188 0
M  V30 6721 C 609.061 -0.654548 1.84323 0
M  V30 6722 O 610.267 -1.04029 2.50779 0
M  V30 6723 C 608.723 1.42066 3.30674 0
M  V30 6724 C 608.331 2.92965 3.38933 0
M  V30 6725 C 610.075 1.22924 4.06313 0
M  V30 6726 C 607.982 3.45922 4.79679 0
M  V30 6727 H 606.912 0.303854 0.690064 0
M  V30 6728 H 609.563 1.31479 1.28006 0
M  V30 6729 H 607.945 0.855613 3.86646 0
M  V30 6730 H 609.119 3.55679 2.92966 0
M  V30 6731 H 607.434 3.11118 2.76757 0
M  V30 6732 H 610.031 1.59945 5.10217 0
M  V30 6733 H 610.374 0.169726 4.15954 0
M  V30 6734 H 610.907 1.76168 3.56665 0
M  V30 6735 H 607.646 4.51484 4.75229 0
M  V30 6736 H 607.166 2.87971 5.26149 0
M  V30 6737 H 608.845 3.43009 5.48592 0
M  V30 6738 N 608.977 -1.30795 0.87923 0
M  V30 6739 C 610.202 -2.01063 0.508769 0
M  V30 6740 C 610.627 -1.65508 -0.893803 0
M  V30 6741 O 609.985 -0.868616 -1.59138 0
M  V30 6742 C 610.033 -3.54054 0.683991 0
M  V30 6743 O 609.137 -4.11498 -0.272654 0
M  V30 6744 H 608.478 -0.632786 0.201191 0
M  V30 6745 H 611.008 -1.66776 1.18519 0
M  V30 6746 H 611.018 -4.03845 0.580798 0
M  V30 6747 H 609.693 -3.79271 1.70665 0
M  V30 6748 H 608.27 -3.72695 -0.12364 0
M  V30 6749 N 610.455 -0.639598 -1.44038 0
M  V30 6750 C 611.387 0.0987684 -2.28987 0
M  V30 6751 C 612.4 0.80058 -1.41755 0
M  V30 6752 O 613.589 0.660611 -1.65826 0
M  V30 6753 C 610.689 1.16242 -3.18341 0
M  V30 6754 C 609.862 0.541447 -4.34036 0
M  V30 6755 C 608.921 1.50017 -5.04362 0
M  V30 6756 O 607.947 1.01403 -5.60095 0
M  V30 6757 N 609.149 2.83441 -5.06598 0
M  V30 6758 H 611.914 -0.630305 -2.92997 0
M  V30 6759 H 609.475 -0.481376 -1.54578 0
M  V30 6760 H 611.467 1.80429 -3.62253 0
M  V30 6761 H 610.037 1.79362 -2.56024 0
M  V30 6762 H 609.257 -0.27923 -3.9321 0
M  V30 6763 H 610.545 0.107379 -5.08687 0
M  V30 6764 H 609.943 3.2551 -4.62666 0
M  V30 6765 H 608.5 3.42966 -5.54272 0
M  V30 6766 N 611.933 1.52934 -0.380664 0
M  V30 6767 C 613.179 2.01765 0.20458 0
M  V30 6768 C 613.512 1.26696 1.47179 0
M  V30 6769 O 612.787 0.364936 1.91046 0
M  V30 6770 C 613.07 3.56869 0.481269 0
M  V30 6771 C 612.923 4.42617 -0.800629 0
M  V30 6772 C 614.242 4.2121 1.27554 0
M  V30 6773 H 611.361 0.733388 0.0728803 0
M  V30 6774 H 614.003 1.83068 -0.50853 0
M  V30 6775 H 612.153 3.72932 1.08875 0
M  V30 6776 H 613.825 4.38323 -1.43773 0
M  V30 6777 H 612.068 4.09977 -1.4178 0
M  V30 6778 H 612.739 5.49134 -0.561791 0
M  V30 6779 H 615.215 4.09072 0.761514 0
M  V30 6780 H 614.091 5.29732 1.43788 0
M  V30 6781 H 614.352 3.78269 2.28833 0
M  V30 6782 N 613.412 0.11024 1.57214 0
M  V30 6783 C 614.658 -0.550684 1.9518 0
M  V30 6784 C 614.991 -1.66885 0.993122 0
M  V30 6785 O 614.266 -1.94479 0.0287907 0
M  V30 6786 C 614.549 -1.09163 3.43155 0
M  V30 6787 C 614.402 0.0225198 4.49794 0
M  V30 6788 C 615.721 -1.98527 3.92778 0
M  V30 6789 H 612.84 -0.198706 0.709708 0
M  V30 6790 H 615.482 0.184024 1.89107 0
M  V30 6791 H 613.632 -1.71775 3.48462 0
M  V30 6792 H 615.304 0.657443 4.56591 0
M  V30 6793 H 613.547 0.686868 4.28328 0
M  V30 6794 H 614.218 -0.39706 5.5057 0
M  V30 6795 H 616.694 -1.458 3.8972 0
M  V30 6796 H 615.57 -2.33298 4.96853 0
M  V30 6797 H 615.831 -2.90846 3.32958 0
M  V30 6798 N 614.89 -1.56749 -0.16351 0
M  V30 6799 C 615.822 -1.93587 -1.22705 0
M  V30 6800 C 616.835 -0.829824 -1.40063 0
M  V30 6801 O 618.024 -1.10826 -1.39928 0
M  V30 6802 C 615.124 -2.1803 -2.59454 0
M  V30 6803 C 614.297 -3.4928 -2.63292 0
M  V30 6804 C 613.356 -3.62457 -3.8146 0
M  V30 6805 O 612.382 -4.35004 -3.67096 0
M  V30 6806 N 613.584 -2.97888 -4.9824 0
M  V30 6807 H 616.349 -2.8542 -0.914081 0
M  V30 6808 H 613.91 -1.58 -0.353214 0
M  V30 6809 H 615.902 -2.24102 -3.36987 0
M  V30 6810 H 614.472 -1.32543 -2.8311 0
M  V30 6811 H 613.692 -3.54795 -1.71796 0
M  V30 6812 H 614.98 -4.35632 -2.62873 0
M  V30 6813 H 614.378 -2.38833 -5.12811 0
M  V30 6814 H 612.935 -3.09545 -5.73607 0
M  V30 6815 N 616.368 0.432326 -1.51554 0
M  V30 6816 C 617.645 1.19288 -1.55015 0
M  V30 6817 C 618.025 2.08701 -0.317375 0
M  V30 6818 O 617.373 2.17602 0.697243 0
M  V30 6819 C 617.583 1.99037 -2.86679 0
M  V30 6820 C 618.931 2.55907 -3.38817 0
M  V30 6821 O 619.955 2.09243 -2.88263 0
M  V30 6822 O 618.814 3.41029 -4.27038 0
M  V30 6823 H 615.908 0.543369 -0.623441 0
M  V30 6824 H 618.454 0.440988 -1.6387 0
M  V30 6825 H 617.226 1.33397 -3.6786 0
M  V30 6826 H 616.849 2.81281 -2.8101 0
M  V30 6827 N 617.846 1.41785 0.688094 0
M  V30 6828 C 619.092 1.42753 1.4489 0
M  V30 6829 C 619.447 0.0384235 1.92362 0
M  V30 6830 O 618.74 -0.937066 1.67122 0
M  V30 6831 C 618.934 2.37532 2.67046 0
M  V30 6832 C 618.763 3.85521 2.31525 0
M  V30 6833 C 617.533 4.54152 2.21527 0
M  V30 6834 C 619.731 4.76299 1.94019 0
M  V30 6835 N 617.713 5.87233 1.78969 0
M  V30 6836 C 619.084 5.98386 1.62279 0
M  V30 6837 C 621.139 4.63877 1.80895 0
M  V30 6838 C 619.842 7.09433 1.18732 0
M  V30 6839 C 621.868 5.74893 1.38752 0
M  V30 6840 C 621.23 6.96083 1.07927 0
M  V30 6841 H 617.329 0.577575 0.527192 0
M  V30 6842 H 619.913 1.77713 0.795375 0
M  V30 6843 H 618.084 2.04656 3.30107 0
M  V30 6844 H 619.816 2.29169 3.33562 0
M  V30 6845 H 616.571 4.08188 2.40166 0
M  V30 6846 H 616.995 6.57785 1.60151 0
M  V30 6847 H 621.637 3.70671 2.03378 0
M  V30 6848 H 619.355 8.02497 0.949937 0
M  V30 6849 H 622.941 5.67287 1.29136 0
M  V30 6850 H 621.821 7.80527 0.758111 0
M  V30 6851 N 619.324 -0.923095 1.27737 0
M  V30 6852 C 620.271 -2.02432 1.1086 0
M  V30 6853 C 621.241 -1.66098 0.00835195 0
M  V30 6854 O 622.426 -1.90027 0.171542 0
M  V30 6855 C 619.566 -3.36476 0.766671 0
M  V30 6856 C 618.679 -3.85737 1.94501 0
M  V30 6857 C 617.814 -5.08249 1.54455 0
M  V30 6858 C 616.853 -5.49818 2.6901 0
M  V30 6859 N 615.99 -6.63524 2.29521 0
M  V30 6860 H 620.83 -2.16201 2.05089 0
M  V30 6861 H 618.367 -1.05909 1.02087 0
M  V30 6862 H 620.325 -4.13569 0.549223 0
M  V30 6863 H 618.955 -3.22502 -0.13867 0
M  V30 6864 H 618.007 -3.04883 2.27487 0
M  V30 6865 H 619.319 -4.12513 2.80419 0
M  V30 6866 H 618.473 -5.92857 1.28862 0
M  V30 6867 H 617.212 -4.83261 0.656534 0
M  V30 6868 H 616.217 -4.63757 2.95313 0
M  V30 6869 H 617.442 -5.76799 3.5844 0
M  V30 6870 H 615.388 -6.40185 1.43177 0
M  V30 6871 H 615.305 -6.89978 3.08977 0
M  V30 6872 H 616.573 -7.51461 2.07187 0
M  V30 6873 N 620.802 -1.09834 -1.13024 0
M  V30 6874 C 622.049 -0.83695 -1.84395 0
M  V30 6875 C 622.377 0.637463 -1.83757 0
M  V30 6876 O 621.632 1.48554 -1.27398 0
M  V30 6877 C 621.931 -1.32263 -3.32026 0
M  V30 6878 C 621.597 -2.80739 -3.52841 0
M  V30 6879 C 620.259 -3.21286 -3.5823 0
M  V30 6880 C 622.611 -3.76449 -3.60466 0
M  V30 6881 C 619.939 -4.56308 -3.68781 0
M  V30 6882 C 622.291 -5.11266 -3.72546 0
M  V30 6883 C 620.955 -5.51397 -3.76189 0
M  V30 6884 H 620.225 -0.306262 -0.674748 0
M  V30 6885 H 622.872 -1.37385 -1.33408 0
M  V30 6886 H 621.177 -0.705618 -3.85394 0
M  V30 6887 H 622.874 -1.09695 -3.85705 0
M  V30 6888 H 619.464 -2.48363 -3.49305 0
M  V30 6889 H 623.648 -3.46234 -3.55578 0
M  V30 6890 H 618.904 -4.86832 -3.69871 0
M  V30 6891 H 623.078 -5.85279 -3.77388 0
M  V30 6892 H 620.705 -6.56017 -3.84117 0
M  V30 6893 N 622.28 1.30327 -0.886154 0
M  V30 6894 C 623.526 1.96388 -0.505941 0
M  V30 6895 C 623.859 1.69784 0.942712 0
M  V30 6896 O 623.134 1.00322 1.6663 0
M  V30 6897 C 623.417 3.51488 -0.782826 0
M  V30 6898 C 623.27 3.87603 -2.28219 0
M  V30 6899 C 624.589 4.39331 -0.260128 0
M  V30 6900 H 621.708 0.713327 -0.185292 0
M  V30 6901 H 624.35 1.54178 -1.11036 0
M  V30 6902 H 622.5 3.87572 -0.268399 0
M  V30 6903 H 624.172 3.61537 -2.86512 0
M  V30 6904 H 622.415 3.3563 -2.74837 0
M  V30 6905 H 623.086 4.95806 -2.42653 0
M  V30 6906 H 625.562 4.10162 -0.700444 0
M  V30 6907 H 624.438 5.46769 -0.483179 0
M  V30 6908 H 624.699 4.34072 0.838674 0
M  V30 6909 N 623.758 0.647228 1.43697 0
M  V30 6910 C 624.721 -0.0385101 2.29168 0
M  V30 6911 C 625.721 -0.756487 1.41894 0
M  V30 6912 O 626.911 -0.598641 1.63591 0
M  V30 6913 C 624.043 -1.06524 3.23829 0
M  V30 6914 H 625.236 0.713445 2.9129 0
M  V30 6915 H 622.789 0.408153 1.50877 0
M  V30 6916 H 623.524 -1.84664 2.66589 0
M  V30 6917 H 623.309 -0.554147 3.88164 0
M  V30 6918 H 624.799 -1.54432 3.87996 0
M  V30 6919 N 625.236 -1.5273 0.388769 0
M  V30 6920 C 626.168 -2.24081 -0.481704 0
M  V30 6921 C 627.181 -1.26307 -1.02715 0
M  V30 6922 O 628.37 -1.52386 -0.929565 0
M  V30 6923 C 625.47 -2.94315 -1.68024 0
M  V30 6924 C 624.643 -4.18791 -1.26226 0
M  V30 6925 C 623.702 -4.72028 -2.32542 0
M  V30 6926 O 622.728 -5.35129 -1.93972 0
M  V30 6927 N 623.93 -4.51838 -3.64448 0
M  V30 6928 H 626.695 -2.9942 0.129591 0
M  V30 6929 H 624.256 -1.60465 0.2151 0
M  V30 6930 H 626.248 -3.26831 -2.38671 0
M  V30 6931 H 624.818 -2.22287 -2.19789 0
M  V30 6932 H 624.038 -3.92318 -0.384703 0
M  V30 6933 H 625.326 -4.99668 -0.959647 0
M  V30 6934 H 624.724 -4.01468 -3.98547 0
M  V30 6935 H 623.281 -4.88845 -4.31131 0
M  V30 6936 N 626.714 -0.118576 -1.57153 0
M  V30 6937 C 627.96 0.540326 -1.95469 0
M  V30 6938 C 628.293 1.66356 -1.00196 0
M  V30 6939 O 627.568 1.94461 -0.039104 0
M  V30 6940 C 627.851 1.07342 -3.43729 0
M  V30 6941 C 627.704 -0.0463732 -4.49776 0
M  V30 6942 C 629.023 1.96442 -3.93826 0
M  V30 6943 H 626.142 0.19494 -0.710751 0
M  V30 6944 H 628.784 -0.19405 -1.89006 0
M  V30 6945 H 626.934 1.69925 -3.49368 0
M  V30 6946 H 628.606 -0.681648 -4.56236 0
M  V30 6947 H 626.849 -0.709574 -4.27957 0
M  V30 6948 H 627.52 0.367856 -5.50773 0
M  V30 6949 H 629.996 1.43731 -3.90488 0
M  V30 6950 H 628.872 2.3066 -4.98084 0
M  V30 6951 H 629.133 2.89077 -3.34495 0
M  V30 6952 N 628.193 1.56834 0.155195 0
M  V30 6953 C 629.123 2.00678 1.19376 0
M  V30 6954 C 630.104 0.884973 1.45266 0
M  V30 6955 O 631.289 1.1522 1.56326 0
M  V30 6956 C 628.419 2.38042 2.5289 0
M  V30 6957 C 627.373 3.53332 2.41538 0
M  V30 6958 C 626.699 3.76485 3.79688 0
M  V30 6959 C 627.999 4.86265 1.9064 0
M  V30 6960 H 629.693 2.87688 0.829232 0
M  V30 6961 H 627.239 1.38407 0.397445 0
M  V30 6962 H 629.192 2.67314 3.25763 0
M  V30 6963 H 627.916 1.4796 2.91162 0
M  V30 6964 H 626.575 3.24213 1.71117 0
M  V30 6965 H 626.223 2.83667 4.15382 0
M  V30 6966 H 625.923 4.54068 3.72956 0
M  V30 6967 H 627.447 4.08174 4.54122 0
M  V30 6968 H 628.861 5.14308 2.53299 0
M  V30 6969 H 627.258 5.67597 1.94818 0
M  V30 6970 H 628.328 4.77184 0.861596 0
M  V30 6971 N 629.671 -0.424282 1.51781 0
M  V30 6972 C 630.948 -1.18464 1.55646 0
M  V30 6973 C 631.328 -2.08529 0.328438 0
M  V30 6974 O 630.676 -2.17969 -0.685693 0
M  V30 6975 C 630.886 -1.97514 2.87731 0
M  V30 6976 C 632.234 -2.54106 3.40169 0
M  V30 6977 O 633.258 -2.07711 2.89369 0
M  V30 6978 O 632.117 -3.38759 4.28841 0
M  V30 6979 H 629.211 -0.540055 0.626314 0
M  V30 6980 H 631.757 -0.432291 1.64102 0
M  V30 6981 H 630.529 -1.31444 3.68562 0
M  V30 6982 H 630.152 -2.79787 2.82498 0
M  V30 6983 N 631.149 -1.42148 -0.680565 0
M  V30 6984 C 632.565 -1.24947 -0.992995 0
M  V30 6985 C 632.765 -0.149527 -2.00944 0
M  V30 6986 O 631.821 0.481145 -2.47873 0
M  V30 6987 C 633.134 -2.60426 -1.5033 0
M  V30 6988 C 634.682 -2.67733 -1.62137 0
M  V30 6989 C 635.157 -4.03564 -2.16565 0
M  V30 6990 N 636.648 -4.05488 -2.23905 0
M  V30 6991 C 637.383 -5.07401 -2.67081 0
M  V30 6992 N 636.879 -6.19698 -3.09751 0
M  V30 6993 N 638.672 -4.94758 -2.66778 0
M  V30 6994 H 630.823 -2.12399 -0.0074788 0
M  V30 6995 H 633.086 -0.94571 -0.0658529 0
M  V30 6996 H 632.792 -3.41743 -0.830947 0
M  V30 6997 H 632.666 -2.83949 -2.483 0
M  V30 6998 H 635.053 -1.86765 -2.2848 0
M  V30 6999 H 635.134 -2.48004 -0.626713 0
M  V30 7000 H 634.778 -4.84987 -1.50833 0
M  V30 7001 H 634.708 -4.20641 -3.1681 0
M  V30 7002 H 637.199 -3.24415 -1.93812 0
M  V30 7003 H 637.512 -6.93318 -3.41365 0
M  V30 7004 H 635.857 -6.23212 -3.07623 0
M  V30 7005 H 639.048 -4.06105 -2.32801 0
M  V30 7006 H 639.221 -5.74317 -3.00107 0
M  V30 7007 N 632.627 0.916307 -1.28225 0
M  V30 7008 C 633.876 1.65975 -1.14608 0
M  V30 7009 C 634.189 1.93204 0.305191 0
M  V30 7010 O 635.395 2.65611 0.562432 0
M  V30 7011 C 633.851 2.98989 -2.00333 0
M  V30 7012 C 633.459 2.79417 -3.50186 0
M  V30 7013 C 635.203 3.76856 -1.95397 0
M  V30 7014 C 633.11 4.08056 -4.28071 0
M  V30 7015 H 632.04 0.622587 -0.425324 0
M  V30 7016 H 634.691 1.01705 -1.52736 0
M  V30 7017 H 633.073 3.6438 -1.5506 0
M  V30 7018 H 634.247 2.22723 -4.034 0
M  V30 7019 H 632.562 2.14966 -3.56621 0
M  V30 7020 H 635.159 4.72203 -2.50856 0
M  V30 7021 H 635.502 4.05776 -0.930137 0
M  V30 7022 H 636.035 3.1828 -2.38626 0
M  V30 7023 H 632.774 3.8431 -5.31024 0
M  V30 7024 H 632.294 4.64371 -3.79631 0
M  V30 7025 H 633.973 4.76333 -4.37854 0
M  V30 7026 N 634.105 1.10431 1.1244 0
M  V30 7027 C 635.352 0.846717 1.83948 0
M  V30 7028 C 635.68 -0.627709 1.84093 0
M  V30 7029 O 634.935 -1.47876 1.28184 0
M  V30 7030 C 635.234 1.34022 3.3132 0
M  V30 7031 C 634.9 2.82606 3.51347 0
M  V30 7032 C 633.562 3.23182 3.56521 0
M  V30 7033 C 635.914 3.78356 3.58464 0
M  V30 7034 C 633.242 4.58258 3.66356 0
M  V30 7035 C 635.594 5.13234 3.69829 0
M  V30 7036 C 634.258 5.53384 3.73259 0
M  V30 7037 H 633.528 0.309836 0.673114 0
M  V30 7038 H 636.175 1.38091 1.32677 0
M  V30 7039 H 634.48 0.726047 3.85014 0
M  V30 7040 H 636.177 1.11739 3.85118 0
M  V30 7041 H 632.767 2.50212 3.47983 0
M  V30 7042 H 636.951 3.48115 3.53737 0
M  V30 7043 H 632.207 4.88787 3.67284 0
M  V30 7044 H 636.381 5.87272 3.74279 0
M  V30 7045 H 634.008 6.58045 3.80633 0
M  V30 7046 N 635.583 -1.29855 0.893053 0
M  V30 7047 C 636.513 -2.3035 0.382249 0
M  V30 7048 C 637.494 -1.61328 -0.539203 0
M  V30 7049 O 638.679 -1.88882 -0.451342 0
M  V30 7050 C 635.809 -3.45024 -0.396983 0
M  V30 7051 C 634.763 -4.258 0.433437 0
M  V30 7052 C 634.089 -5.32605 -0.472889 0
M  V30 7053 C 635.389 -4.94549 1.67984 0
M  V30 7054 H 637.083 -2.73325 1.22205 0
M  V30 7055 H 634.629 -1.314 0.589073 0
M  V30 7056 H 636.582 -4.14398 -0.765024 0
M  V30 7057 H 635.306 -3.00875 -1.2705 0
M  V30 7058 H 633.965 -3.58125 0.783723 0
M  V30 7059 H 633.613 -4.84702 -1.34435 0
M  V30 7060 H 633.313 -5.87547 0.0789958 0
M  V30 7061 H 634.837 -6.04832 -0.837269 0
M  V30 7062 H 636.251 -5.56395 1.38192 0
M  V30 7063 H 634.648 -5.59393 2.17254 0
M  V30 7064 H 635.718 -4.20215 2.41965 0
M  V30 7065 N 637.061 -0.65484 -1.43351 0
M  V30 7066 C 638.307 -0.177749 -2.02622 0
M  V30 7067 C 638.662 1.19553 -1.50748 0
M  V30 7068 O 637.955 1.78683 -0.691599 0
M  V30 7069 C 638.149 -0.130424 -3.57162 0
M  V30 7070 C 637.978 -1.49757 -4.24032 0
M  V30 7071 C 636.748 -2.09036 -4.60035 0
M  V30 7072 C 638.946 -2.4363 -4.52934 0
M  V30 7073 N 636.928 -3.3874 -5.11985 0
M  V30 7074 C 638.299 -3.57968 -5.0622 0
M  V30 7075 C 640.354 -2.42412 -4.34903 0
M  V30 7076 C 639.057 -4.71314 -5.43374 0
M  V30 7077 C 641.083 -3.5484 -4.7312 0
M  V30 7078 C 640.445 -4.67903 -5.26541 0
M  V30 7079 H 636.544 -0.10951 -0.774294 0
M  V30 7080 H 639.128 -0.863495 -1.74505 0
M  V30 7081 H 637.299 0.524671 -3.8484 0
M  V30 7082 H 639.031 0.35769 -4.03116 0
M  V30 7083 H 635.786 -1.61729 -4.4513 0
M  V30 7084 H 636.21 -4.05116 -5.42412 0
M  V30 7085 H 640.852 -1.56236 -3.92874 0
M  V30 7086 H 638.57 -5.5818 -5.84346 0
M  V30 7087 H 642.156 -3.55101 -4.60863 0
M  V30 7088 H 641.036 -5.5346 -5.55564 0
M  V30 7089 N 638.539 1.52521 -0.396863 0
M  V30 7090 C 639.469 2.29582 0.425941 0
M  V30 7091 C 640.45 1.33281 1.05689 0
M  V30 7092 O 641.635 1.62181 1.06823 0
M  V30 7093 C 638.765 3.10821 1.54943 0
M  V30 7094 C 637.719 4.15069 1.04413 0
M  V30 7095 C 637.045 4.84578 2.26028 0
M  V30 7096 C 638.345 5.22191 0.106767 0
M  V30 7097 H 640.039 2.98612 -0.217045 0
M  V30 7098 H 637.585 1.43611 -0.105826 0
M  V30 7099 H 639.538 3.63492 2.13193 0
M  V30 7100 H 638.262 2.39538 2.22011 0
M  V30 7101 H 636.921 3.63389 0.484118 0
M  V30 7102 H 636.569 4.09835 2.91623 0
M  V30 7103 H 636.269 5.55043 1.92876 0
M  V30 7104 H 637.793 5.40056 2.84906 0
M  V30 7105 H 639.207 5.70176 0.597685 0
M  V30 7106 H 637.604 5.99947 -0.135352 0
M  V30 7107 H 638.674 4.77531 -0.842134 0
M  V30 7108 N 640.017 0.126909 1.57088 0
M  V30 7109 C 641.264 -0.529168 1.95464 0
M  V30 7110 C 641.592 -1.6618 1.01067 0
M  V30 7111 O 640.847 -1.95667 0.0360254 0
M  V30 7112 C 641.146 -1.095 3.40212 0
M  V30 7113 C 640.812 -0.0829015 4.50824 0
M  V30 7114 C 639.474 0.195377 4.80803 0
M  V30 7115 C 641.826 0.606411 5.1766 0
M  V30 7116 C 639.154 1.16912 5.74933 0
M  V30 7117 C 641.506 1.56884 6.12838 0
M  V30 7118 C 640.17 1.85502 6.41206 0
M  V30 7119 H 639.44 -0.193636 0.715252 0
M  V30 7120 H 642.087 0.209489 1.90351 0
M  V30 7121 H 640.392 -1.91058 3.42059 0
M  V30 7122 H 642.089 -1.61087 3.67222 0
M  V30 7123 H 638.679 -0.309979 4.27478 0
M  V30 7124 H 642.863 0.404597 4.94648 0
M  V30 7125 H 638.119 1.3975 5.95214 0
M  V30 7126 H 642.293 2.10859 6.6371 0
M  V30 7127 H 639.92 2.61109 7.13951 0
M  V30 7128 N 641.495 -1.56914 -0.146875 0
M  V30 7129 C 642.425 -2.01308 -1.1831 0
M  V30 7130 C 643.406 -0.892664 -1.44795 0
M  V30 7131 O 644.591 -1.16048 -1.55713 0
M  V30 7132 C 641.721 -2.3938 -2.51624 0
M  V30 7133 C 640.675 -3.54608 -2.3966 0
M  V30 7134 C 640.001 -3.78493 -3.77686 0
M  V30 7135 C 641.301 -4.87269 -1.88058 0
M  V30 7136 H 642.995 -2.88123 -0.813964 0
M  V30 7137 H 640.541 -1.38615 -0.3901 0
M  V30 7138 H 642.494 -2.69037 -3.24341 0
M  V30 7139 H 641.218 -1.49502 -2.90373 0
M  V30 7140 H 639.877 -3.25116 -1.69396 0
M  V30 7141 H 639.525 -2.85866 -4.13871 0
M  V30 7142 H 639.225 -4.56039 -3.70543 0
M  V30 7143 H 640.749 -4.10576 -4.51951 0
M  V30 7144 H 642.163 -5.15644 -2.50568 0
M  V30 7145 H 640.56 -5.68622 -1.91805 0
M  V30 7146 H 641.63 -4.77634 -0.836277 0
M  V30 7147 N 642.974 0.416227 -1.52004 0
M  V30 7148 C 644.223 1.16088 -1.64944 0
M  V30 7149 C 644.536 1.91835 -0.381928 0
M  V30 7150 O 645.742 2.6867 -0.391013 0
M  V30 7151 C 644.198 2.1124 -2.91386 0
M  V30 7152 C 643.806 1.41042 -4.25219 0
M  V30 7153 C 645.55 2.86008 -3.13688 0
M  V30 7154 C 643.457 2.34801 -5.42791 0
M  V30 7155 H 642.387 0.437041 -0.61442 0
M  V30 7156 H 645.038 0.425971 -1.78487 0
M  V30 7157 H 643.42 2.88254 -2.71525 0
M  V30 7158 H 644.594 0.694416 -4.55538 0
M  V30 7159 H 642.909 0.78344 -4.08964 0
M  V30 7160 H 645.506 3.56286 -3.98703 0
M  V30 7161 H 645.849 3.48556 -2.27628 0
M  V30 7162 H 646.382 2.16095 -3.33988 0
M  V30 7163 H 643.121 1.7691 -6.31176 0
M  V30 7164 H 642.641 3.04395 -5.16821 0
M  V30 7165 H 644.32 2.9548 -5.75587 0
M  V30 7166 N 644.452 1.42507 0.673017 0
M  V30 7167 C 645.698 1.43284 1.43519 0
M  V30 7168 C 646.031 0.049668 1.94136 0
M  V30 7169 O 645.306 -0.926369 1.71022 0
M  V30 7170 C 645.589 2.45874 2.63093 0
M  V30 7171 C 645.442 3.93388 2.18096 0
M  V30 7172 C 646.761 2.45431 3.6531 0
M  V30 7173 H 643.88 0.521752 0.520522 0
M  V30 7174 H 646.522 1.73932 0.764701 0
M  V30 7175 H 644.672 2.19869 3.20296 0
M  V30 7176 H 646.344 4.30379 1.66046 0
M  V30 7177 H 644.587 4.07169 1.49652 0
M  V30 7178 H 645.258 4.60752 3.03993 0
M  V30 7179 H 647.734 2.68561 3.17827 0
M  V30 7180 H 646.61 3.19189 4.46553 0
M  V30 7181 H 646.871 1.48092 4.16559 0
M  V30 7182 N 645.93 -0.909495 1.28709 0
M  V30 7183 C 647.155 -1.69801 1.1909 0
M  V30 7184 C 647.58 -1.86479 -0.246388 0
M  V30 7185 O 646.938 -1.37802 -1.17815 0
M  V30 7186 C 646.986 -3.06543 1.89904 0
M  V30 7187 O 646.09 -3.94268 1.2094 0
M  V30 7188 H 645.431 -0.519783 0.413185 0
M  V30 7189 H 647.961 -1.13689 1.70106 0
M  V30 7190 H 647.971 -3.56748 1.97977 0
M  V30 7191 H 646.646 -2.93722 2.94449 0
M  V30 7192 H 645.223 -3.52702 1.2106 0
M  V30 7193 N 647.408 -1.11026 -1.11852 0
M  V30 7194 C 648.654 -0.857729 -1.83768 0
M  V30 7195 C 648.987 0.615143 -1.842 0
M  V30 7196 O 648.262 1.45391 -1.29196 0
M  V30 7197 C 648.545 -1.41453 -3.31154 0
M  V30 7198 C 648.398 -2.95471 -3.39142 0
M  V30 7199 C 649.717 -1.0619 -4.27097 0
M  V30 7200 H 646.836 -0.313044 -0.667212 0
M  V30 7201 H 649.478 -1.37443 -1.31185 0
M  V30 7202 H 647.628 -0.975052 -3.76065 0
M  V30 7203 H 649.3 -3.4799 -3.02821 0
M  V30 7204 H 647.543 -3.31759 -2.79497 0
M  V30 7205 H 648.214 -3.29515 -4.42859 0
M  V30 7206 H 650.69 -1.44122 -3.90344 0
M  V30 7207 H 649.566 -1.47832 -5.28618 0
M  V30 7208 H 649.827 0.0278912 -4.42091 0
M  V30 7209 N 648.886 1.2938 -0.899927 0
M  V30 7210 C 650.114 1.99691 -0.541386 0
M  V30 7211 C 650.529 1.67355 0.873936 0
M  V30 7212 O 649.886 0.918728 1.57688 0
M  V30 7213 C 649.937 3.54168 -0.72438 0
M  V30 7214 O 649.658 3.85359 -2.08399 0
M  V30 7215 C 651.159 4.41746 -0.370819 0
M  V30 7216 H 648.379 0.638037 -0.207726 0
M  V30 7217 H 650.923 1.6491 -1.20934 0
M  V30 7218 H 649.078 3.87261 -0.103607 0
M  V30 7219 H 649.492 4.80032 -2.11352 0
M  V30 7220 H 650.966 5.49256 -0.549693 0
M  V30 7221 H 651.443 4.33712 0.692148 0
M  V30 7222 H 652.049 4.14125 -0.968543 0
M  V30 7223 N 650.364 0.662433 1.43002 0
M  V30 7224 C 651.612 0.179237 2.01304 0
M  V30 7225 C 651.933 -1.21428 1.52579 0
M  V30 7226 O 651.203 -1.81294 0.742252 0
M  V30 7227 H 649.783 0.0632725 0.744316 0
M  V30 7228 H 652.445 0.856169 1.75088 0
M  V30 7229 H 651.541 0.170957 3.11631 0
M  V30 7230 N 651.842 -1.52309 0.404946 0
M  V30 7231 C 653.067 -2.06666 -0.1743 0
M  V30 7232 C 653.492 -1.27341 -1.38441 0
M  V30 7233 O 652.85 -0.302539 -1.78758 0
M  V30 7234 C 652.898 -3.57014 -0.507262 0
M  V30 7235 O 652.002 -3.80144 -1.59889 0
M  V30 7236 H 651.343 -0.663807 -0.0160273 0
M  V30 7237 H 653.873 -1.96297 0.576937 0
M  V30 7238 H 653.883 -4.00724 -0.767098 0
M  V30 7239 H 652.558 -4.14184 0.377368 0
M  V30 7240 H 651.135 -3.48316 -1.33155 0
M  V30 7241 N 653.32 -0.135238 -1.57019 0
M  V30 7242 C 654.566 0.519563 -1.96032 0
M  V30 7243 C 654.899 1.65284 -1.01955 0
M  V30 7244 O 654.174 1.94408 -0.059727 0
M  V30 7245 C 654.457 1.0369 -3.44848 0
M  V30 7246 C 654.31 -0.0940754 -4.49702 0
M  V30 7247 C 655.629 1.92254 -3.95887 0
M  V30 7248 H 652.748 0.18739 -0.712779 0
M  V30 7249 H 655.39 -0.214086 -1.8879 0
M  V30 7250 H 653.54 1.66209 -3.5115 0
M  V30 7251 H 655.212 -0.73 -4.55487 0
M  V30 7252 H 653.455 -0.754924 -4.27181 0
M  V30 7253 H 654.126 0.309419 -5.51132 0
M  V30 7254 H 656.602 1.39581 -3.9199 0
M  V30 7255 H 655.478 2.25364 -5.00502 0
M  V30 7256 H 655.739 2.85513 -3.37543 0
M  V30 7257 N 654.798 1.5699 0.138552 0
M  V30 7258 C 655.728 2.01933 1.17241 0
M  V30 7259 C 656.709 0.90033 1.44319 0
M  V30 7260 O 657.894 1.16872 1.55095 0
M  V30 7261 C 655.024 2.40711 2.50351 0
M  V30 7262 C 653.978 3.55874 2.37776 0
M  V30 7263 C 653.304 3.80491 3.75674 0
M  V30 7264 C 654.604 4.8826 1.85472 0
M  V30 7265 H 656.298 2.88551 0.798672 0
M  V30 7266 H 653.844 1.3882 0.382743 0
M  V30 7267 H 655.797 2.70754 3.22909 0
M  V30 7268 H 654.521 1.5104 2.89576 0
M  V30 7269 H 653.18 3.2601 1.67669 0
M  V30 7270 H 652.828 2.88057 4.12349 0
M  V30 7271 H 652.528 4.57998 3.68119 0
M  V30 7272 H 654.052 4.12967 4.49767 0
M  V30 7273 H 655.466 5.16965 2.4783 0
M  V30 7274 H 653.863 5.69631 1.88787 0
M  V30 7275 H 654.933 4.78071 0.810935 0
M  V30 7276 N 656.276 -0.40816 1.52223 0
M  V30 7277 C 657.525 -1.15212 1.65557 0
M  V30 7278 C 657.838 -1.9163 0.392096 0
M  V30 7279 O 659.044 -2.68458 0.405256 0
M  V30 7280 C 657.5 -2.09691 2.92502 0
M  V30 7281 C 657.108 -1.38785 4.25961 0
M  V30 7282 C 658.852 -2.8434 3.152 0
M  V30 7283 C 656.759 -2.31919 5.44029 0
M  V30 7284 H 655.689 -0.433776 0.616729 0
M  V30 7285 H 658.34 -0.4165 1.78711 0
M  V30 7286 H 656.722 -2.8681 2.7305 0
M  V30 7287 H 657.896 -0.670248 4.55899 0
M  V30 7288 H 656.211 -0.761741 4.09373 0
M  V30 7289 H 658.808 -3.54166 4.00587 0
M  V30 7290 H 659.151 -3.47344 2.29473 0
M  V30 7291 H 659.684 -2.14321 3.35129 0
M  V30 7292 H 656.423 -1.7356 6.32105 0
M  V30 7293 H 655.943 -3.0165 5.18428 0
M  V30 7294 H 657.622 -2.92424 5.77146 0
M  V30 7295 N 657.755 -1.42862 -0.66545 0
M  V30 7296 C 659.002 -1.4383 -1.42546 0
M  V30 7297 C 659.33 -0.0581114 -1.94413 0
M  V30 7298 O 658.585 0.935002 -1.71919 0
M  V30 7299 C 658.884 -2.4175 -2.63233 0
M  V30 7300 C 658.55 -3.87915 -2.29854 0
M  V30 7301 C 657.212 -4.27726 -2.20463 0
M  V30 7302 C 659.564 -4.80074 -2.02924 0
M  V30 7303 C 656.892 -5.57666 -1.82279 0
M  V30 7304 C 659.244 -6.10366 -1.66242 0
M  V30 7305 C 657.908 -6.49167 -1.55367 0
M  V30 7306 H 657.178 -0.52631 -0.521612 0
M  V30 7307 H 659.825 -1.75863 -0.757914 0
M  V30 7308 H 658.13 -2.03077 -3.35063 0
M  V30 7309 H 659.827 -2.39759 -3.21429 0
M  V30 7310 H 656.417 -3.564 -2.3807 0
M  V30 7311 H 660.601 -4.50097 -2.09108 0
M  V30 7312 H 655.857 -5.8658 -1.72436 0
M  V30 7313 H 660.031 -6.81258 -1.44432 0
M  V30 7314 H 657.658 -7.49761 -1.2555 0
M  V30 7315 N 659.233 0.902656 -1.29189 0
M  V30 7316 C 660.461 1.68639 -1.19869 0
M  V30 7317 C 660.876 1.87254 0.241121 0
M  V30 7318 O 660.233 1.40745 1.16177 0
M  V30 7319 C 660.284 3.07251 -1.90471 0
M  V30 7320 O 660.005 2.89488 -3.28829 0
M  V30 7321 C 661.506 4.01653 -1.8759 0
M  V30 7322 H 658.726 0.526802 -0.415596 0
M  V30 7323 H 661.27 1.12901 -1.7051 0
M  V30 7324 H 659.425 3.59774 -1.43672 0
M  V30 7325 H 659.839 3.77296 -3.64346 0
M  V30 7326 H 661.313 4.96339 -2.4156 0
M  V30 7327 H 661.79 4.30881 -0.850756 0
M  V30 7328 H 662.396 3.55061 -2.34119 0
M  V30 7329 N 660.711 1.11618 1.11262 0
M  V30 7330 C 662.122 0.881942 1.64556 0
M  V30 7331 C 662.473 -0.585442 1.87262 0
M  V30 7332 O 661.598 -1.44795 1.60821 0
M  V30 7333 C 662.193 1.59446 2.98935 0
M  V30 7334 C 660.752 1.40661 3.4913 0
M  V30 7335 C 659.899 1.63593 2.23903 0
M  V30 7336 H 662.85 1.27217 0.94877 0
M  V30 7337 H 662.871 1.04054 3.65996 0
M  V30 7338 H 662.383 2.66241 2.82378 0
M  V30 7339 H 660.484 0.360835 3.70849 0
M  V30 7340 H 660.597 2.15693 4.27801 0
M  V30 7341 H 658.961 1.05944 2.3162 0
M  V30 7342 H 659.744 2.71666 2.09886 0
M  V30 7343 N 662.189 -1.289 0.906776 0
M  V30 7344 C 663.152 -2.25777 0.394656 0
M  V30 7345 C 664.152 -1.53621 -0.475119 0
M  V30 7346 O 665.342 -1.71949 -0.279165 0
M  V30 7347 C 662.474 -3.38113 -0.43499 0
M  V30 7348 H 663.667 -2.72592 1.25033 0
M  V30 7349 H 661.22 -1.40463 0.685547 0
M  V30 7350 H 661.955 -2.96648 -1.31036 0
M  V30 7351 H 661.74 -3.91647 0.188334 0
M  V30 7352 H 663.23 -4.10168 -0.784365 0
M  V30 7353 N 663.667 -0.670007 -1.42649 0
M  V30 7354 C 664.597 -0.00258501 -2.335 0
M  V30 7355 C 665.578 0.794364 -1.50412 0
M  V30 7356 O 666.763 0.75248 -1.79029 0
M  V30 7357 C 663.893 0.952748 -3.33976 0
M  V30 7358 C 662.847 0.264733 -4.2718 0
M  V30 7359 C 662.173 1.33267 -5.17826 0
M  V30 7360 C 663.473 -0.853289 -5.15283 0
M  V30 7361 H 665.167 -0.761326 -2.89559 0
M  V30 7362 H 662.713 -0.367561 -1.3923 0
M  V30 7363 H 664.666 1.4287 -3.96442 0
M  V30 7364 H 663.39 1.74285 -2.7621 0
M  V30 7365 H 662.049 -0.190938 -3.66102 0
M  V30 7366 H 661.697 2.11464 -4.5639 0
M  V30 7367 H 661.397 0.877476 -5.81011 0
M  V30 7368 H 662.921 1.80965 -5.83167 0
M  V30 7369 H 664.335 -0.458763 -5.71462 0
M  V30 7370 H 662.732 -1.23398 -5.87276 0
M  V30 7371 H 663.802 -1.70412 -4.53969 0
M  V30 7372 N 665.145 1.52092 -0.413018 0
M  V30 7373 C 666.092 2.27119 0.410558 0
M  V30 7374 C 667.062 1.29692 1.03774 0
M  V30 7375 O 668.247 1.58561 1.06128 0
M  V30 7376 C 665.387 3.09863 1.51918 0
M  V30 7377 C 664.5 4.22252 0.912528 0
M  V30 7378 C 663.635 4.92348 1.99417 0
M  V30 7379 C 662.674 5.96694 1.36466 0
M  V30 7380 N 661.811 6.60292 2.38661 0
M  V30 7381 H 666.651 2.97067 -0.235661 0
M  V30 7382 H 664.188 1.46542 -0.128055 0
M  V30 7383 H 666.146 3.56144 2.17295 0
M  V30 7384 H 664.776 2.42078 2.13537 0
M  V30 7385 H 663.828 3.80113 0.147697 0
M  V30 7386 H 665.14 4.9709 0.412717 0
M  V30 7387 H 664.294 5.42054 2.72512 0
M  V30 7388 H 663.033 4.17087 2.52764 0
M  V30 7389 H 662.038 5.46304 0.61906 0
M  V30 7390 H 663.263 6.73899 0.838827 0
M  V30 7391 H 661.209 5.87858 2.91134 0
M  V30 7392 H 661.126 7.30816 1.93503 0
M  V30 7393 H 662.394 7.14635 3.11314 0
M  V30 7394 N 666.623 0.143563 1.56945 0
M  V30 7395 C 667.556 -0.835367 2.1236 0
M  V30 7396 C 668.534 -1.24466 1.04627 0
M  V30 7397 O 669.718 -1.34138 1.32436 0
M  V30 7398 C 666.845 -2.12123 2.64048 0
M  V30 7399 C 665.891 -1.85812 3.83896 0
M  V30 7400 S 666.724 -1.05222 5.25061 0
M  V30 7401 C 667.88 -2.34935 5.80135 0
M  V30 7402 H 668.113 -0.364109 2.95062 0
M  V30 7403 H 665.646 -0.0706601 1.54238 0
M  V30 7404 H 667.604 -2.85993 2.94479 0
M  V30 7405 H 666.265 -2.56364 1.81483 0
M  V30 7406 H 665.458 -2.81151 4.18294 0
M  V30 7407 H 665.06 -1.20052 3.54208 0
M  V30 7408 H 667.352 -3.3061 5.91357 0
M  V30 7409 H 668.295 -2.05046 6.77762 0
M  V30 7410 H 668.703 -2.45426 5.08356 0
M  V30 7411 N 668.101 -1.57061 -0.130224 0
M  V30 7412 C 669.347 -1.85412 -0.836295 0
M  V30 7413 C 669.702 -0.729831 -1.7802 0
M  V30 7414 O 668.995 0.271021 -1.89673 0
M  V30 7415 C 669.189 -3.17878 -1.63365 0
M  V30 7416 C 669.018 -4.43086 -0.768453 0
M  V30 7417 C 667.788 -5.03488 -0.427598 0
M  V30 7418 C 669.986 -5.14219 -0.0911495 0
M  V30 7419 N 667.968 -6.12253 0.449439 0
M  V30 7420 C 669.339 -6.16632 0.645341 0
M  V30 7421 C 671.394 -4.97898 -0.0135625 0
M  V30 7422 C 670.097 -7.0449 1.45212 0
M  V30 7423 C 672.123 -5.86234 0.780001 0
M  V30 7424 C 671.485 -6.88141 1.50472 0
M  V30 7425 H 667.584 -0.728875 -0.283311 0
M  V30 7426 H 670.168 -1.9444 -0.100662 0
M  V30 7427 H 668.339 -3.09967 -2.3404 0
M  V30 7428 H 670.071 -3.34076 -2.28419 0
M  V30 7429 H 666.826 -4.67344 -0.767264 0
M  V30 7430 H 667.25 -6.71263 0.879476 0
M  V30 7431 H 671.892 -4.19082 -0.559511 0
M  V30 7432 H 669.61 -7.82722 2.00926 0
M  V30 7433 H 673.196 -5.75671 0.842246 0
M  V30 7434 H 672.076 -7.55311 2.1089 0
M  V30 7435 N 669.579 0.400081 -1.52437 0
M  V30 7436 C 670.509 1.4947 -1.7939 0
M  V30 7437 C 671.49 1.57383 -0.645329 0
M  V30 7438 O 672.675 1.72511 -0.891826 0
M  V30 7439 C 669.805 2.87201 -1.95276 0
M  V30 7440 C 668.759 2.94134 -3.10917 0
M  V30 7441 C 668.085 4.34207 -3.1204 0
M  V30 7442 C 669.385 2.64791 -4.50203 0
M  V30 7443 H 671.079 1.27165 -2.71052 0
M  V30 7444 H 668.625 0.610312 -1.30427 0
M  V30 7445 H 670.578 3.63772 -2.12715 0
M  V30 7446 H 669.302 3.10819 -1.00294 0
M  V30 7447 H 667.961 2.20009 -2.93243 0
M  V30 7448 H 667.609 4.54848 -2.14761 0
M  V30 7449 H 667.309 4.39768 -3.89715 0
M  V30 7450 H 668.833 5.127 -3.31619 0
M  V30 7451 H 670.247 3.31083 -4.68035 0
M  V30 7452 H 668.644 2.81717 -5.29864 0
M  V30 7453 H 669.714 1.60184 -4.57678 0
M  V30 7454 N 671.057 1.43213 0.657864 0
M  V30 7455 C 672.007 1.44459 1.76396 0
M  V30 7456 C 672.991 0.313641 1.57814 0
M  V30 7457 O 674.183 0.557094 1.68004 0
M  V30 7458 C 671.312 1.36586 3.14959 0
M  V30 7459 C 670.398 2.54692 3.39106 0
M  V30 7460 N 670.789 3.80059 3.33749 0
M  V30 7461 C 669.087 2.49316 3.69807 0
M  V30 7462 C 669.788 4.58606 3.57849 0
M  V30 7463 N 668.764 3.89267 3.79437 0
M  V30 7464 H 672.566 2.39265 1.70673 0
M  V30 7465 H 670.08 1.378 0.859357 0
M  V30 7466 H 672.077 1.35561 3.94245 0
M  V30 7467 H 670.737 0.427956 3.21867 0
M  V30 7468 H 671.748 4.12414 3.13266 0
M  V30 7469 H 668.425 1.6419 3.83859 0
M  V30 7470 H 669.815 5.67619 3.59525 0
M  V30 7471 N 672.536 -0.895792 1.29666 0
M  V30 7472 C 673.761 -1.68528 1.20885 0
M  V30 7473 C 674.186 -1.8673 -0.226595 0
M  V30 7474 O 673.544 -1.39044 -1.16347 0
M  V30 7475 C 673.592 -3.04512 1.93144 0
M  V30 7476 O 672.696 -3.92963 1.25115 0
M  V30 7477 H 672.037 -0.515371 0.418675 0
M  V30 7478 H 674.567 -1.11878 1.71302 0
M  V30 7479 H 674.577 -3.54628 2.0175 0
M  V30 7480 H 673.252 -2.90582 2.97548 0
M  V30 7481 H 671.829 -3.51399 1.24794 0
M  V30 7482 N 674.014 -1.12206 -1.10668 0
M  V30 7483 C 675.244 -0.897332 -1.86095 0
M  V30 7484 C 675.652 0.556778 -1.80822 0
M  V30 7485 O 674.995 1.39658 -1.19337 0
M  V30 7486 C 675.057 -1.29095 -3.35522 0
M  V30 7487 C 674.721 -2.75586 -3.64556 0
M  V30 7488 C 675.718 -3.73785 -3.6136 0
M  V30 7489 C 673.403 -3.12432 -3.93309 0
M  V30 7490 C 675.397 -5.06845 -3.86506 0
M  V30 7491 C 673.084 -4.45675 -4.18111 0
M  V30 7492 C 674.082 -5.42691 -4.147 0
M  V30 7493 O 673.77 -6.73532 -4.38873 0
M  V30 7494 H 673.502 -0.320704 -0.595084 0
M  V30 7495 H 676.056 -1.49517 -1.40833 0
M  V30 7496 H 674.286 -0.636299 -3.81429 0
M  V30 7497 H 675.975 -1.04073 -3.92331 0
M  V30 7498 H 676.741 -3.46664 -3.39189 0
M  V30 7499 H 672.62 -2.3753 -3.95096 0
M  V30 7500 H 676.164 -5.82559 -3.83758 0
M  V30 7501 H 672.061 -4.72526 -4.39761 0
M  V30 7502 H 672.829 -6.79442 -4.564 0
M  V30 7503 N 675.492 1.28418 -0.913599 0
M  V30 7504 C 676.442 2.24928 -0.373042 0
M  V30 7505 C 677.426 1.52444 0.514753 0
M  V30 7506 O 678.618 1.73414 0.3545 0
M  V30 7507 C 675.747 3.41124 0.385896 0
M  V30 7508 C 674.833 4.20929 -0.51761 0
M  V30 7509 N 675.224 4.78777 -1.63113 0
M  V30 7510 C 673.522 4.44865 -0.317969 0
M  V30 7511 C 674.223 5.38822 -2.19193 0
M  V30 7512 N 673.199 5.22974 -1.48321 0
M  V30 7513 H 677.001 2.67224 -1.22346 0
M  V30 7514 H 674.515 1.43187 -0.766236 0
M  V30 7515 H 676.512 4.09347 0.789997 0
M  V30 7516 H 675.172 3.00362 1.23341 0
M  V30 7517 H 676.183 4.77148 -2.01372 0
M  V30 7518 H 672.86 4.14614 0.49004 0
M  V30 7519 H 674.25 5.94615 -3.12861 0
M  V30 7520 O 677.009 0.816646 1.39331 0
M  V30 7521 H 677.7 0.396491 1.89599 0
M  V30 END ATOM
M  V30 BEGIN BOND
M  V30 END BOND
M  V30 END CTAB
M  END
$$$$
