drugbank_target|O15264 Mitogen-activated protein kinase 13 (DB05157; DB12010)
 OpenBabel12092120313D

  0  0  0     0  0            999 V3000
M  V30 BEGIN CTAB
M  V30 COUNTS 5946 6015 0 0 0
M  V30 BEGIN ATOM
M  V30 1 H -0.908 1.98254 -0.117106 0
M  V30 2 N 0 1.576 0 0
M  V30 3 C 0.933 2.03868 1.02534 0
M  V30 4 C 1.911 0.928543 1.3348 0
M  V30 5 O 3.095 1.19667 1.45644 0
M  V30 6 C 0.222 2.43627 2.35294 0
M  V30 7 C -0.732 3.65373 2.2001 0
M  V30 8 S 0.101 5.13292 1.52614 0
M  V30 9 C 1.257 5.56322 2.86805 0
M  V30 10 H 1.49 2.90518 0.631377 0
M  V30 11 H -0.977 1.52953 0.210867 0
M  V30 12 H 0.981 2.67203 3.11629 0
M  V30 13 H -0.358 1.57376 2.7183 0
M  V30 14 H -1.165 3.90944 3.18086 0
M  V30 15 H -1.563 3.418 1.51819 0
M  V30 16 H 0.729 5.58782 3.83104 0
M  V30 17 H 1.672 6.56266 2.65933 0
M  V30 18 H 2.08 4.83886 2.90714 0
M  V30 19 N 1.4781 -0.272755 1.55222 0
M  V30 20 C 2.7031 -1.02683 1.80197 0
M  V30 21 C 3.1281 -1.79142 0.573551 0
M  V30 22 O 2.4861 -1.74917 -0.476849 0
M  V30 23 C 2.5341 -1.9609 3.02624 0
M  V30 24 O 1.6381 -3.04863 2.77727 0
M  V30 25 H 0.9791 -0.293557 0.595584 0
M  V30 26 H 3.5091 -0.30159 2.02365 0
M  V30 27 H 3.5191 -2.38039 3.31363 0
M  V30 28 H 2.1941 -1.39851 3.91682 0
M  V30 29 H 0.7711 -2.67228 2.60084 0
M  V30 30 N 2.9562 -1.48159 -0.537278 0
M  V30 31 C 3.8862 -1.65029 -1.6519 0
M  V30 32 C 4.8672 -0.499281 -1.62607 0
M  V30 33 O 6.0522 -0.730972 -1.79918 0
M  V30 34 C 3.1822 -1.68303 -3.03795 0
M  V30 35 C 2.1362 -2.8283 -3.21234 0
M  V30 36 C 1.4622 -2.71189 -4.60826 0
M  V30 37 C 2.7622 -4.24211 -3.04701 0
M  V30 38 H 4.4562 -2.58341 -1.51328 0
M  V30 39 H 2.0022 -1.24325 -0.726585 0
M  V30 40 H 3.9552 -1.78693 -3.81637 0
M  V30 41 H 2.6792 -0.715635 -3.18663 0
M  V30 42 H 1.3382 -2.71983 -2.45807 0
M  V30 43 H 0.9862 -1.72435 -4.7252 0
M  V30 44 H 0.6862 -3.48035 -4.7344 0
M  V30 45 H 2.2102 -2.83537 -5.40777 0
M  V30 46 H 3.6242 -4.3593 -3.72341 0
M  V30 47 H 2.0212 -5.01998 -3.28813 0
M  V30 48 H 3.0912 -4.41184 -2.01209 0
M  V30 49 N 4.4343 0.785586 -1.36625 0
M  V30 50 C 5.6833 1.53883 -1.30396 0
M  V30 51 C 5.9963 1.95271 0.113452 0
M  V30 52 O 7.2023 2.69858 0.298142 0
M  V30 53 C 5.6583 2.77808 -2.28802 0
M  V30 54 C 5.2663 2.43574 -3.75999 0
M  V30 55 C 7.0103 3.55783 -2.31558 0
M  V30 56 C 4.9173 3.63919 -4.66173 0
M  V30 57 H 3.8473 0.577678 -0.484566 0
M  V30 58 H 6.4983 0.861705 -1.62009 0
M  V30 59 H 4.8803 3.47339 -1.90188 0
M  V30 60 H 6.0543 1.81916 -4.23371 0
M  V30 61 H 4.3693 1.78803 -3.76056 0
M  V30 62 H 6.9663 4.45205 -2.96137 0
M  V30 63 H 7.3093 3.94644 -1.3252 0
M  V30 64 H 7.8423 2.93235 -2.68809 0
M  V30 65 H 4.5813 3.3015 -5.66287 0
M  V30 66 H 4.1013 4.2473 -4.23515 0
M  V30 67 H 5.7803 4.30901 -4.82632 0
M  V30 68 N 5.9124 1.20967 1.01018 0
M  V30 69 C 7.3284 0.965905 1.27053 0
M  V30 70 C 7.5284 -0.350785 1.98423 0
M  V30 71 O 6.5844 -1.07773 2.28344 0
M  V30 72 C 7.8974 2.15294 2.09926 0
M  V30 73 C 9.4454 2.19463 2.23171 0
M  V30 74 C 9.9204 3.3767 3.09424 0
M  V30 75 N 11.4114 3.37724 3.17012 0
M  V30 76 C 12.1464 4.25837 3.83993 0
M  V30 77 N 11.6424 5.24138 4.53047 0
M  V30 78 N 13.4354 4.1366 3.80581 0
M  V30 79 H 5.5864 2.0565 0.531194 0
M  V30 80 H 7.8494 0.90024 0.297106 0
M  V30 81 H 7.5554 3.10684 1.64828 0
M  V30 82 H 7.4294 2.13923 3.10672 0
M  V30 83 H 9.8164 1.24632 2.6749 0
M  V30 84 H 9.8974 2.2488 1.21912 0
M  V30 85 H 9.5414 4.32791 2.65808 0
M  V30 86 H 9.4714 3.29491 4.10784 0
M  V30 87 H 11.9624 2.6658 2.6785 0
M  V30 88 H 12.2754 5.87684 5.01844 0
M  V30 89 H 10.6204 5.28068 4.5185 0
M  V30 90 H 13.8114 3.36127 3.25785 0
M  V30 91 H 13.9844 4.82538 4.32505 0
M  V30 92 N 7.3905 -1.2043 1.01659 0
M  V30 93 C 8.3375 -2.23215 0.586822 0
M  V30 94 C 9.3075 -1.61382 -0.393085 0
M  V30 95 O 10.4925 -1.88544 -0.292525 0
M  V30 96 C 7.6325 -3.45032 -0.0687464 0
M  V30 97 C 6.7455 -4.21296 0.955724 0
M  V30 98 C 5.8805 -5.30507 0.271208 0
M  V30 99 C 4.9195 -5.98515 1.28244 0
M  V30 100 N 4.0565 -6.99316 0.62459 0
M  V30 101 H 8.8965 -2.59336 1.46796 0
M  V30 102 H 6.4335 -1.27431 0.734836 0
M  V30 103 H 8.3915 -4.1459 -0.465965 0
M  V30 104 H 7.0215 -3.09604 -0.913529 0
M  V30 105 H 6.0735 -3.50803 1.4711 0
M  V30 106 H 7.3855 -4.6803 1.72479 0
M  V30 107 H 6.5395 -6.06428 -0.18151 0
M  V30 108 H 5.2785 -4.8481 -0.530163 0
M  V30 109 H 4.2835 -5.21355 1.74554 0
M  V30 110 H 5.5085 -6.46298 2.08509 0
M  V30 111 H 3.4545 -6.55812 -0.156914 0
M  V30 112 H 3.3715 -7.44178 1.33172 0
M  V30 113 H 4.6395 -7.79255 0.195462 0
M  V30 114 N 8.8686 -0.792821 -1.36206 0
M  V30 115 C 9.8156 -0.191653 -2.30003 0
M  V30 116 C 10.7856 0.666453 -1.52143 0
M  V30 117 O 11.9706 0.61442 -1.80636 0
M  V30 118 C 9.1106 0.664848 -3.38635 0
M  V30 119 C 8.2236 -0.212175 -4.31479 0
M  V30 120 C 7.3586 0.651022 -5.27196 0
M  V30 121 C 6.3976 -0.227247 -6.11678 0
M  V30 122 N 5.5346 0.595127 -6.99573 0
M  V30 123 H 10.3746 -0.996978 -2.80828 0
M  V30 124 H 7.9116 -0.503206 -1.38225 0
M  V30 125 H 9.8696 1.17645 -4.00269 0
M  V30 126 H 8.4996 1.43557 -2.89122 0
M  V30 127 H 7.5516 -0.841777 -3.70969 0
M  V30 128 H 8.8636 -0.888751 -4.90818 0
M  V30 129 H 8.0176 1.2283 -5.94136 0
M  V30 130 H 6.7566 1.36121 -4.68319 0
M  V30 131 H 5.7616 -0.816904 -5.43697 0
M  V30 132 H 6.9866 -0.93509 -6.72631 0
M  V30 133 H 4.9326 1.28955 -6.432 0
M  V30 134 H 4.8496 -0.0236952 -7.55996 0
M  V30 135 H 6.1176 1.15613 -7.70879 0
M  V30 136 N 10.3467 1.47872 -0.545128 0
M  V30 137 C 11.5947 2.02093 -0.016553 0
M  V30 138 C 11.9157 1.42305 1.3332 0
M  V30 139 O 11.1857 0.593853 1.86682 0
M  V30 140 H 9.7657 0.746993 -0.00313038 0
M  V30 141 H 12.4277 1.81414 -0.712397 0
M  V30 142 H 11.5237 3.11996 0.0805422 0
M  V30 143 N 11.8248 0.280983 1.55075 0
M  V30 144 C 13.0718 -0.334115 1.99725 0
M  V30 145 C 13.3998 -1.5542 1.1694 0
M  V30 146 O 12.6548 -1.94361 0.228531 0
M  V30 147 C 12.9538 -0.754656 3.49342 0
M  V30 148 C 12.6198 0.361445 4.49449 0
M  V30 149 C 11.2818 0.667893 4.76542 0
M  V30 150 C 13.6338 1.11322 5.09173 0
M  V30 151 C 10.9618 1.7296 5.60626 0
M  V30 152 C 13.3138 2.1647 5.9441 0
M  V30 153 C 11.9778 2.47742 6.19822 0
M  V30 154 H 11.2478 -0.122261 0.730844 0
M  V30 155 H 13.8948 0.395917 1.87363 0
M  V30 156 H 12.1998 -1.56446 3.5921 0
M  V30 157 H 13.8968 -1.24142 3.813 0
M  V30 158 H 10.4868 0.112481 4.28452 0
M  V30 159 H 14.6708 0.88973 4.8826 0
M  V30 160 H 9.9268 1.97684 5.78559 0
M  V30 161 H 14.1008 2.75193 6.3972 0
M  V30 162 H 11.7278 3.30145 6.84769 0
M  V30 163 N 13.3029 -1.57598 0.00835791 0
M  V30 164 C 14.5329 -1.94931 -0.684496 0
M  V30 165 C 14.9409 -0.882233 -1.67372 0
M  V30 166 O 14.2839 0.146621 -1.83114 0
M  V30 167 C 14.3459 -3.283 -1.4649 0
M  V30 168 C 14.0099 -4.52548 -0.63634 0
M  V30 169 C 15.0069 -5.19839 0.0795586 0
M  V30 170 C 12.6919 -4.98942 -0.579849 0
M  V30 171 C 14.6859 -6.3183 0.840843 0
M  V30 172 C 12.3729 -6.10819 0.185155 0
M  V30 173 C 13.3709 -6.77121 0.894227 0
M  V30 174 O 13.0589 -7.86853 1.64673 0
M  V30 175 H 12.7909 -0.647249 -0.19505 0
M  V30 176 H 15.3449 -2.05318 0.0581272 0
M  V30 177 H 13.5749 -3.14345 -2.2522 0
M  V30 178 H 15.2639 -3.50685 -2.04389 0
M  V30 179 H 16.0299 -4.84979 0.0451202 0
M  V30 180 H 11.9089 -4.47155 -1.1213 0
M  V30 181 H 15.4529 -6.83513 1.39483 0
M  V30 182 H 11.3499 -6.4512 0.221384 0
M  V30 183 H 12.1179 -8.03412 1.56432 0
M  V30 184 N 14.781 0.264519 -1.55364 0
M  V30 185 C 15.728 1.32717 -1.88825 0
M  V30 186 C 16.698 1.48675 -0.740605 0
M  V30 187 O 17.883 1.62945 -0.992657 0
M  V30 188 C 15.023 2.68089 -2.17307 0
M  V30 189 C 14.136 2.60284 -3.44785 0
M  V30 190 C 13.271 3.87892 -3.62924 0
M  V30 191 C 12.31 3.74631 -4.84064 0
M  V30 192 N 11.447 4.94092 -4.98816 0
M  V30 193 H 16.287 1.03481 -2.79456 0
M  V30 194 H 13.824 0.499757 -1.3835 0
M  V30 195 H 15.782 3.46864 -2.31821 0
M  V30 196 H 14.412 2.95509 -1.299 0
M  V30 197 H 13.464 1.73173 -3.38697 0
M  V30 198 H 14.776 2.46388 -4.33698 0
M  V30 199 H 13.93 4.75109 -3.77302 0
M  V30 200 H 12.669 4.04664 -2.7221 0
M  V30 201 H 11.674 2.85797 -4.69681 0
M  V30 202 H 12.899 3.5937 -5.76221 0
M  V30 203 H 10.845 5.11259 -4.11036 0
M  V30 204 H 10.762 4.8276 -5.81789 0
M  V30 205 H 12.03 5.82857 -5.17588 0
M  V30 206 N 16.2591 1.48442 0.529413 0
M  V30 207 C 17.1911 1.59095 1.64989 0
M  V30 208 C 18.2041 0.475212 1.5571 0
M  V30 209 O 19.3931 0.746081 1.6216 0
M  V30 210 C 16.4931 1.50518 3.0364 0
M  V30 211 C 15.6661 2.77142 3.38395 0
M  V30 212 C 14.7251 2.62012 4.56329 0
M  V30 213 O 13.7511 3.35898 4.59522 0
M  V30 214 N 14.9531 1.71667 5.54536 0
M  V30 215 H 17.7181 2.55723 1.56287 0
M  V30 216 H 15.2791 1.45173 0.716697 0
M  V30 217 H 17.2711 1.38091 3.80412 0
M  V30 218 H 15.8411 0.618627 3.06418 0
M  V30 219 H 15.0611 3.0413 2.50796 0
M  V30 220 H 16.3491 3.61146 3.58401 0
M  V30 221 H 15.7471 1.10841 5.54735 0
M  V30 222 H 14.3041 1.65178 6.30523 0
M  V30 223 N 17.7372 -0.778329 1.37039 0
M  V30 224 C 19.0142 -1.52551 1.22424 0
M  V30 225 C 19.3942 -2.10288 -0.184964 0
M  V30 226 O 18.7422 -1.94953 -1.19187 0
M  V30 227 C 18.9522 -2.61164 2.31504 0
M  V30 228 C 20.3002 -3.28746 2.68721 0
M  V30 229 O 21.3242 -2.71455 2.30631 0
M  V30 230 O 20.1832 -4.3231 3.3432 0
M  V30 231 H 17.2772 -0.675343 0.477326 0
M  V30 232 H 19.8232 -0.815859 1.48801 0
M  V30 233 H 18.5952 -2.16574 3.25901 0
M  V30 234 H 18.2182 -3.39737 2.06554 0
M  V30 235 N 19.2153 -1.21501 -1.00376 0
M  V30 236 C 20.4613 -1.03452 -1.74429 0
M  V30 237 C 20.7943 0.430764 -1.89362 0
M  V30 238 O 20.0693 1.31962 -1.42886 0
M  V30 239 C 20.3523 -1.73375 -3.15615 0
M  V30 240 C 20.2053 -3.27431 -3.08397 0
M  V30 241 C 21.5243 -1.47732 -4.14564 0
M  V30 242 H 18.6433 -0.377226 -0.633143 0
M  V30 243 H 21.2853 -1.49693 -1.17013 0
M  V30 244 H 19.4353 -1.34064 -3.64636 0
M  V30 245 H 21.1073 -3.76119 -2.67081 0
M  V30 246 H 19.3503 -3.5767 -2.45468 0
M  V30 247 H 20.0213 -3.71524 -4.08258 0
M  V30 248 H 22.4973 -1.8186 -3.74254 0
M  V30 249 H 21.3733 -1.99169 -5.11491 0
M  V30 250 H 21.6343 -0.407589 -4.40217 0
M  V30 251 N 20.6934 1.19889 -1.02296 0
M  V30 252 C 21.6414 2.24938 -0.592081 0
M  V30 253 C 22.6354 1.65257 0.372357 0
M  V30 254 O 23.8414 1.78371 0.241583 0
M  V30 255 H 20.2164 0.731787 -0.173182 0
M  V30 256 H 22.1874 2.58603 -1.48885 0
M  V30 257 C 20.9364 3.47668 0.047351 0
M  V30 258 H 20.2594 3.93875 -0.685772 0
M  V30 259 H 21.6994 4.22852 0.311862 0
M  V30 260 C 20.1584 3.11136 1.29212 0
M  V30 261 O 20.6884 3.2325 2.38479 0
M  V30 262 N 18.8944 2.65625 1.17863 0
M  V30 263 H 18.4414 2.55968 0.289493 0
M  V30 264 H 18.3994 2.41553 2.01245 0
M  V30 265 N 22.1715 0.800033 1.35784 0
M  V30 266 C 23.1185 0.203848 2.29898 0
M  V30 267 C 24.0885 -0.658375 1.52495 0
M  V30 268 O 25.2735 -0.604832 1.8096 0
M  V30 269 C 22.4135 -0.64688 3.38983 0
M  V30 270 C 21.5265 0.235054 4.3136 0
M  V30 271 C 20.6615 -0.623054 5.27533 0
M  V30 272 C 19.7005 0.259682 6.11549 0
M  V30 273 N 18.8375 -0.558019 6.99879 0
M  V30 274 H 23.6775 1.01186 2.80295 0
M  V30 275 H 21.2145 0.51053 1.37957 0
M  V30 276 H 23.1725 -1.15521 4.00887 0
M  V30 277 H 21.8025 -1.42021 2.89879 0
M  V30 278 H 20.8545 0.861438 3.70518 0
M  V30 279 H 22.1665 0.914768 4.9034 0
M  V30 280 H 21.3205 -1.19678 5.94779 0
M  V30 281 H 20.0595 -1.33636 4.69034 0
M  V30 282 H 19.0645 0.845726 5.43256 0
M  V30 283 H 20.2895 0.970748 6.72126 0
M  V30 284 H 18.2355 -1.25542 6.43875 0
M  V30 285 H 18.1525 0.0637872 7.55973 0
M  V30 286 H 19.4205 -1.11523 7.71481 0
M  V30 287 N 23.6496 -1.47581 0.552962 0
M  V30 288 C 24.8776 -2.06875 0.0320556 0
M  V30 289 C 25.2926 -1.40625 -1.25976 0
M  V30 290 O 24.6496 -0.501349 -1.75479 0
M  V30 291 C 24.7006 -3.61092 -0.17167 0
M  V30 292 O 24.4216 -4.24858 1.06899 0
M  V30 293 C 25.9226 -4.37242 -0.730344 0
M  V30 294 H 23.1426 -0.669561 0.043915 0
M  V30 295 H 25.6866 -1.89646 0.765163 0
M  V30 296 H 23.8416 -3.7785 -0.854894 0
M  V30 297 H 24.2556 -5.17334 0.864059 0
M  V30 298 H 25.7296 -5.45842 -0.822203 0
M  V30 299 H 26.2066 -4.03235 -1.74064 0
M  V30 300 H 26.8126 -4.25219 -0.0829543 0
M  V30 301 N 25.1277 -0.289203 -1.54924 0
M  V30 302 C 26.0907 0.579144 -2.21762 0
M  V30 303 C 27.0907 1.07047 -1.1999 0
M  V30 304 O 28.2807 0.968384 -1.44803 0
M  V30 305 C 25.4127 1.80055 -2.8947 0
M  V30 306 H 26.6057 -0.00464908 -2.999 0
M  V30 307 H 24.1587 -0.0399306 -1.56249 0
M  V30 308 H 24.8937 2.42449 -2.15381 0
M  V30 309 H 24.6787 1.45602 -3.64064 0
M  V30 310 H 26.1687 2.41773 -3.40493 0
M  V30 311 N 26.6058 1.57591 -0.0167156 0
M  V30 312 C 27.8518 1.92399 0.659861 0
M  V30 313 C 28.2068 0.892561 1.70444 0
M  V30 314 O 27.4998 -0.0930755 1.91374 0
M  V30 315 C 27.6938 3.3172 1.33029 0
M  V30 316 C 27.5228 4.48319 0.352174 0
M  V30 317 C 26.2928 5.05281 -0.0434883 0
M  V30 318 C 28.4908 5.12831 -0.388474 0
M  V30 319 N 26.4728 6.05399 -1.01807 0
M  V30 320 C 27.8438 6.07934 -1.2172 0
M  V30 321 C 29.8988 4.95858 -0.450513 0
M  V30 322 C 28.6018 6.87891 -2.10235 0
M  V30 323 C 30.6278 5.76413 -1.32295 0
M  V30 324 C 29.9898 6.71123 -2.13948 0
M  V30 325 H 26.0888 0.752106 0.21415 0
M  V30 326 H 28.6728 1.94532 -0.0809846 0
M  V30 327 H 26.8438 3.3043 2.04134 0
M  V30 328 H 28.5758 3.5391 1.9629 0
M  V30 329 H 25.3308 4.7246 0.328384 0
M  V30 330 H 25.7548 6.60145 -1.50123 0
M  V30 331 H 30.3968 4.22472 0.166512 0
M  V30 332 H 28.1148 7.60591 -2.72997 0
M  V30 333 H 31.7008 5.65317 -1.37508 0
M  V30 334 H 30.5808 7.3237 -2.80364 0
M  V30 335 N 28.0839 -0.256276 1.55502 0
M  V30 336 C 28.9939 -1.33882 1.92647 0
M  V30 337 C 30.0099 -1.53159 0.825727 0
M  V30 338 O 31.1859 -1.66963 1.12629 0
M  V30 339 C 28.2509 -2.6751 2.20543 0
M  V30 340 C 27.3119 -2.56836 3.43997 0
M  V30 341 C 26.5449 -3.84092 3.70553 0
M  V30 342 O 26.7679 -4.85545 2.99336 0
M  V30 343 O 25.7019 -3.83288 4.64084 0
M  V30 344 H 29.5279 -1.05374 2.84833 0
M  V30 345 H 27.1129 -0.456237 1.42263 0
M  V30 346 H 28.9949 -3.46492 2.39835 0
M  V30 347 H 27.6699 -2.9577 1.31536 0
M  V30 348 H 26.5769 -1.76172 3.30021 0
M  V30 349 H 27.9099 -2.33523 4.33275 0
M  V30 350 N 29.562 -1.4872 -0.521534 0
M  V30 351 C 30.492 -1.66771 -1.63431 0
M  V30 352 C 31.473 -0.516499 -1.62069 0
M  V30 353 O 32.658 -0.750013 -1.79132 0
M  V30 354 C 29.788 -1.71515 -3.01993 0
M  V30 355 C 28.742 -2.86222 -3.18216 0
M  V30 356 C 28.068 -2.76061 -4.57924 0
M  V30 357 C 29.368 -4.27419 -3.00184 0
M  V30 358 H 31.062 -2.59932 -1.48579 0
M  V30 359 H 28.608 -1.25089 -0.713358 0
M  V30 360 H 30.561 -1.82731 -3.7972 0
M  V30 361 H 29.285 -0.749393 -3.17886 0
M  V30 362 H 27.944 -2.74575 -2.42908 0
M  V30 363 H 27.592 -1.77437 -4.70665 0
M  V30 364 H 27.292 -3.53037 -4.69722 0
M  V30 365 H 28.816 -2.89256 -5.37739 0
M  V30 366 H 30.23 -4.39855 -3.67697 0
M  V30 367 H 28.627 -5.05458 -3.2347 0
M  V30 368 H 29.697 -4.43293 -1.96518 0
M  V30 369 N 31.0401 0.771051 -1.3745 0
M  V30 370 C 32.4511 1.34737 -1.29239 0
M  V30 371 C 32.8021 1.96109 0.0596908 0
M  V30 372 O 31.9271 1.93865 0.961534 0
M  V30 373 C 32.5221 2.44973 -2.34037 0
M  V30 374 C 31.0811 2.98372 -2.29458 0
M  V30 375 C 30.2281 1.71595 -2.17831 0
M  V30 376 H 33.1791 0.571256 -1.48062 0
M  V30 377 H 33.2001 3.24471 -1.98744 0
M  V30 378 H 32.7121 2.00276 -3.32432 0
M  V30 379 H 30.8131 3.47443 -1.34589 0
M  V30 380 H 30.9261 3.53939 -3.229 0
M  V30 381 H 29.2901 1.94547 -1.64388 0
M  V30 382 H 30.0731 1.29001 -3.18141 0
M  V30 383 N 32.5182 1.22032 0.997298 0
M  V30 384 C 33.4652 0.986467 2.08656 0
M  V30 385 C 34.4352 -0.0902671 1.65855 0
M  V30 386 O 35.6202 0.0584294 1.90711 0
M  V30 387 C 32.7602 0.565569 3.40434 0
M  V30 388 C 31.8732 1.71259 3.96604 0
M  V30 389 C 31.0082 1.24011 5.16522 0
M  V30 390 C 30.0472 2.35896 5.64818 0
M  V30 391 N 29.1842 1.89726 6.7598 0
M  V30 392 H 34.0242 1.91892 2.27994 0
M  V30 393 H 31.5612 0.956199 1.11782 0
M  V30 394 H 33.5192 0.302738 4.161 0
M  V30 395 H 32.1492 -0.329879 3.2111 0
M  V30 396 H 31.2012 2.08986 3.17851 0
M  V30 397 H 32.5132 2.55436 4.28432 0
M  V30 398 H 31.6672 0.934395 5.99461 0
M  V30 399 H 30.4062 0.368487 4.86306 0
M  V30 400 H 29.4112 2.67261 4.8047 0
M  V30 401 H 30.6362 3.23567 5.97061 0
M  V30 402 H 28.5822 1.0492 6.47555 0
M  V30 403 H 28.4992 2.67471 7.07103 0
M  V30 404 H 29.7672 1.62211 7.62435 0
M  V30 405 N 33.9963 -1.19345 1.0293 0
M  V30 406 C 35.2243 -1.92997 0.745644 0
M  V30 407 C 35.6393 -1.75519 -0.695589 0
M  V30 408 O 34.9963 -1.07737 -1.47306 0
M  V30 409 C 35.0473 -3.44741 1.08792 0
M  V30 410 O 34.7683 -3.61658 2.47256 0
M  V30 411 C 36.2693 -4.35515 0.827129 0
M  V30 412 H 33.4893 -0.613042 0.272801 0
M  V30 413 H 36.0333 -1.51473 1.3739 0
M  V30 414 H 34.1883 -3.84097 0.504832 0
M  V30 415 H 34.6023 -4.55514 2.60015 0
M  V30 416 H 36.0763 -5.40589 1.11658 0
M  V30 417 H 36.5533 -4.38552 -0.238436 0
M  V30 418 H 37.1593 -4.01841 1.39297 0
M  V30 419 N 35.4744 -0.807222 -1.35358 0
M  V30 420 C 36.7044 -0.399796 -2.02695 0
M  V30 421 C 37.1124 0.994176 -1.60974 0
M  V30 422 O 36.4554 1.65209 -0.803226 0
M  V30 423 C 36.5174 -0.404445 -3.57218 0
M  V30 424 C 36.1814 -1.74904 -4.22206 0
M  V30 425 C 37.1784 -2.70743 -4.4384 0
M  V30 426 C 34.8634 -2.03322 -4.5931 0
M  V30 427 C 36.8574 -3.93183 -5.01683 0
M  V30 428 C 34.5444 -3.26026 -5.16866 0
M  V30 429 C 35.5424 -4.20774 -5.37994 0
M  V30 430 O 35.2304 -5.41312 -5.94337 0
M  V30 431 H 34.9624 -0.160517 -0.656666 0
M  V30 432 H 37.5164 -1.09235 -1.73945 0
M  V30 433 H 35.7464 0.344707 -3.85161 0
M  V30 434 H 37.4354 -0.0192429 -4.05895 0
M  V30 435 H 38.2014 -2.5008 -4.15554 0
M  V30 436 H 34.0804 -1.30384 -4.42178 0
M  V30 437 H 37.6244 -4.6715 -5.1809 0
M  V30 438 H 33.5214 -3.46559 -5.44579 0
M  V30 439 H 34.2894 -5.42618 -6.12787 0
M  V30 440 N 36.9525 1.47285 -0.560781 0
M  V30 441 C 38.1985 2.02764 -0.0381184 0
M  V30 442 C 38.5315 1.43384 1.30976 0
M  V30 443 O 37.8065 0.590733 1.85312 0
M  V30 444 C 38.0895 3.60064 0.0511427 0
M  V30 445 C 37.9425 4.2987 -1.32408 0
M  V30 446 C 39.2615 4.33439 0.762795 0
M  V30 447 H 36.3805 0.736841 -0.0153264 0
M  V30 448 H 39.0225 1.75675 -0.723759 0
M  V30 449 H 37.1725 3.83274 0.635065 0
M  V30 450 H 38.8445 4.17989 -1.95148 0
M  V30 451 H 37.0875 3.90085 -1.8978 0
M  V30 452 H 37.7585 5.38478 -1.21431 0
M  V30 453 H 40.2345 4.15243 0.266965 0
M  V30 454 H 39.1105 5.43124 0.794221 0
M  V30 455 H 39.3715 4.02915 1.81966 0
M  V30 456 N 38.4306 0.297415 1.54768 0
M  V30 457 C 39.6556 -0.318435 2.04941 0
M  V30 458 C 40.0806 -1.4701 1.17345 0
M  V30 459 O 39.4386 -1.80436 0.176758 0
M  V30 460 C 39.4866 -0.755749 3.52592 0
M  V30 461 O 38.5906 -1.86088 3.68028 0
M  V30 462 H 37.9316 -0.062421 0.661059 0
M  V30 463 H 40.4616 0.438215 1.99852 0
M  V30 464 H 40.4716 -1.04552 3.94376 0
M  V30 465 H 39.1466 0.0867233 4.1581 0
M  V30 466 H 37.7236 -1.57193 3.38149 0
M  V30 467 N 39.9087 -1.5758 0.0250728 0
M  V30 468 C 41.3197 -1.79476 -0.514323 0
M  V30 469 C 41.6707 -0.934956 -1.72491 0
M  V30 470 O 40.7957 -0.144245 -2.15919 0
M  V30 471 C 41.3907 -3.25503 -0.939842 0
M  V30 472 C 39.9497 -3.48408 -1.42438 0
M  V30 473 C 39.0967 -2.74583 -0.387201 0
M  V30 474 H 42.0477 -1.567 0.25113 0
M  V30 475 H 42.0687 -3.34992 -1.80445 0
M  V30 476 H 41.5807 -3.88056 -0.0585628 0
M  V30 477 H 39.6817 -2.91103 -2.32572 0
M  V30 478 H 39.7947 -4.57119 -1.43455 0
M  V30 479 H 38.1587 -2.39942 -0.854409 0
M  V30 480 H 38.9417 -3.39849 0.485543 0
M  V30 481 N 41.3868 0.248026 -1.55636 0
M  V30 482 C 42.6148 0.993808 -1.81469 0
M  V30 483 C 43.0298 1.78991 -0.60064 0
M  V30 484 O 42.3868 1.77345 0.430682 0
M  V30 485 C 42.4378 1.93258 -3.05506 0
M  V30 486 O 42.1588 1.16869 -4.22224 0
M  V30 487 C 43.6598 2.79444 -3.4413 0
M  V30 488 H 40.8798 0.292486 -0.603898 0
M  V30 489 H 43.4238 0.271253 -2.02693 0
M  V30 490 H 41.5788 2.60943 -2.86335 0
M  V30 491 H 41.9928 1.80359 -4.92515 0
M  V30 492 H 43.4668 3.41066 -4.34026 0
M  V30 493 H 43.9438 3.50499 -2.64665 0
M  V30 494 H 44.5498 2.17214 -3.65648 0
M  V30 495 N 42.8649 1.48995 0.513639 0
M  V30 496 C 43.8149 1.61127 1.61314 0
M  V30 497 C 44.7989 0.467521 1.53958 0
M  V30 498 O 45.9909 0.719826 1.61702 0
M  V30 499 C 43.1199 1.66937 2.99978 0
M  V30 500 C 42.2059 2.86847 3.12377 0
M  V30 501 N 42.5969 4.11078 2.94701 0
M  V30 502 C 40.8949 2.84521 3.43459 0
M  V30 503 C 41.5959 4.91615 3.10949 0
M  V30 504 N 40.5719 4.24739 3.3926 0
M  V30 505 H 44.3739 2.54909 1.46282 0
M  V30 506 H 41.8879 1.45593 0.719483 0
M  V30 507 H 43.8849 1.73725 3.78979 0
M  V30 508 H 42.5449 0.742831 3.16089 0
M  V30 509 H 43.5559 4.41258 2.71131 0
M  V30 510 H 40.2329 2.01192 3.65825 0
M  V30 511 H 41.6229 6.00264 3.01882 0
M  V30 512 N 44.343 -0.763751 1.37857 0
M  V30 513 C 45.589 -1.52483 1.33704 0
M  V30 514 C 45.922 -1.94051 -0.0759612 0
M  V30 515 O 45.197 -1.64675 -1.03501 0
M  V30 516 C 45.48 -2.78441 2.28348 0
M  V30 517 C 45.333 -2.43075 3.78463 0
M  V30 518 C 46.652 -3.80415 2.21298 0
M  V30 519 H 43.771 -0.553169 0.487005 0
M  V30 520 H 46.413 -0.875562 1.68624 0
M  V30 521 H 44.563 -3.33842 1.987 0
M  V30 522 H 46.235 -1.93527 4.18742 0
M  V30 523 H 44.478 -1.75666 3.96641 0
M  V30 524 H 45.149 -3.33149 4.40132 0
M  V30 525 H 47.625 -3.34527 2.47449 0
M  V30 526 H 46.501 -4.66257 2.89647 0
M  V30 527 H 46.762 -4.25262 1.20849 0
M  V30 528 N 45.8211 -1.22559 -0.990812 0
M  V30 529 C 47.0691 -1.04933 -1.72724 0
M  V30 530 C 47.3901 0.416158 -1.90508 0
M  V30 531 O 46.6601 1.29918 -1.46622 0
M  V30 532 H 45.2401 -0.385296 -0.639965 0
M  V30 533 H 47.9021 -1.54105 -1.19322 0
M  V30 534 H 46.9981 -1.52886 -2.72089 0
M  V30 535 N 47.2992 1.18797 -1.03562 0
M  V30 536 C 48.5242 1.9314 -0.755764 0
M  V30 537 C 48.9492 1.7537 0.68022 0
M  V30 538 O 48.3072 1.06046 1.47051 0
M  V30 539 C 48.3552 3.42747 -1.12058 0
M  V30 540 O 47.4592 4.11683 -0.243124 0
M  V30 541 H 46.8002 0.602724 -0.278604 0
M  V30 542 H 49.3302 1.50678 -1.3841 0
M  V30 543 H 49.3402 3.93437 -1.08035 0
M  V30 544 H 48.0152 3.55002 -2.16672 0
M  V30 545 H 46.5922 3.71323 -0.342539 0
M  V30 546 N 48.7773 0.814389 1.34928 0
M  V30 547 C 50.0253 0.397636 1.9815 0
M  V30 548 C 50.3463 -1.04069 1.64908 0
M  V30 549 O 49.6163 -1.72121 0.93548 0
M  V30 550 H 48.1963 0.144043 0.732981 0
M  V30 551 H 50.8583 1.04195 1.6471 0
M  V30 552 H 49.9543 0.509688 3.0791 0
M  V30 553 N 50.2554 -1.46986 0.568584 0
M  V30 554 C 51.2184 -2.28624 -0.162366 0
M  V30 555 C 52.2184 -1.37596 -0.832103 0
M  V30 556 O 53.4084 -1.60115 -0.68622 0
M  V30 557 C 50.5404 -3.17596 -1.23878 0
M  V30 558 H 51.7334 -2.94722 0.554899 0
M  V30 559 H 49.2864 -1.52863 0.325976 0
M  V30 560 H 50.0214 -2.56214 -1.98808 0
M  V30 561 H 49.8064 -3.846 -0.763219 0
M  V30 562 H 51.2964 -3.79078 -1.75185 0
M  V30 563 N 51.7335 -0.305618 -1.54608 0
M  V30 564 C 52.9635 0.304333 -2.04346 0
M  V30 565 C 53.3715 1.47715 -1.18224 0
M  V30 566 O 52.7145 1.82591 -0.201577 0
M  V30 567 C 52.7765 0.819031 -3.50046 0
M  V30 568 C 52.4405 -0.22912 -4.56425 0
M  V30 569 C 53.4375 -1.05914 -5.08997 0
M  V30 570 C 51.1225 -0.372148 -5.0092 0
M  V30 571 C 53.1165 -2.01809 -6.04609 0
M  V30 572 C 50.8035 -1.33454 -5.9635 0
M  V30 573 C 51.8015 -2.15599 -6.48079 0
M  V30 574 O 51.4895 -3.10205 -7.41639 0
M  V30 575 H 51.2215 0.0693996 -0.672428 0
M  V30 576 H 53.7755 -0.444548 -2.00532 0
M  V30 577 H 52.0055 1.61852 -3.51199 0
M  V30 578 H 53.6945 1.34537 -3.82955 0
M  V30 579 H 54.4605 -0.959538 -4.75413 0
M  V30 580 H 50.3395 0.257304 -4.60281 0
M  V30 581 H 53.8835 -2.65966 -6.44909 0
M  V30 582 H 49.7805 -1.43485 -6.29351 0
M  V30 583 H 50.5485 -3.05237 -7.59455 0
M  V30 584 N 53.2116 1.57565 -0.0334293 0
M  V30 585 C 54.4596 1.91598 0.642999 0
M  V30 586 C 54.7806 0.910847 1.7242 0
M  V30 587 O 54.0506 -0.0469931 1.95844 0
M  V30 588 H 52.6306 0.707228 0.240496 0
M  V30 589 H 55.2926 1.94726 -0.0822488 0
M  V30 590 H 54.3886 2.92336 1.09298 0
M  V30 591 N 54.6897 -0.239769 1.55765 0
M  V30 592 C 55.9147 -0.988373 1.82335 0
M  V30 593 C 56.3397 -1.77886 0.611421 0
M  V30 594 O 55.6977 -1.75889 -0.439639 0
M  V30 595 C 55.7457 -1.89627 3.06715 0
M  V30 596 O 54.8497 -2.98904 2.84131 0
M  V30 597 H 54.1907 -0.280858 0.601677 0
M  V30 598 H 56.7207 -0.258597 2.02959 0
M  V30 599 H 56.7307 -2.30957 3.36338 0
M  V30 600 H 55.4057 -1.31511 3.9456 0
M  V30 601 H 53.9827 -2.61651 2.65694 0
M  V30 602 N 56.1678 -1.49265 -0.50573 0
M  V30 603 C 57.4138 -1.58748 -1.26202 0
M  V30 604 C 57.7468 -0.271227 -1.92297 0
M  V30 605 O 57.0218 0.724831 -1.80489 0
M  V30 606 C 57.3048 -2.74332 -2.33268 0
M  V30 607 C 57.1578 -4.15737 -1.71705 0
M  V30 608 C 58.4768 -2.85576 -3.34865 0
M  V30 609 H 55.5958 -0.577826 -0.457478 0
M  V30 610 H 58.2378 -1.81532 -0.560897 0
M  V30 611 H 56.3878 -2.55036 -2.93068 0
M  V30 612 H 58.0598 -4.46537 -1.15769 0
M  V30 613 H 56.3028 -4.21605 -1.02135 0
M  V30 614 H 56.9738 -4.92477 -2.49341 0
M  V30 615 H 59.4498 -3.03127 -2.8505 0
M  V30 616 H 58.3258 -3.68135 -4.07146 0
M  V30 617 H 58.5868 -1.94732 -3.96903 0
M  V30 618 N 57.6459 0.756429 -1.3826 0
M  V30 619 C 58.8859 1.52833 -1.35725 0
M  V30 620 C 59.2499 1.91926 0.0534106 0
M  V30 621 O 60.4509 2.68028 0.203613 0
M  V30 622 C 58.7219 2.74919 -2.28373 0
M  V30 623 S 60.2809 3.64817 -2.43832 0
M  V30 624 H 57.0989 0.523043 -0.481608 0
M  V30 625 H 59.7009 0.888212 -1.74158 0
M  V30 626 H 58.4049 2.44304 -3.29763 0
M  V30 627 H 57.9359 3.43878 -1.91079 0
M  V30 628 H 59.9509 4.676 -1.66027 0
M  V30 629 N 59.124 1.23083 0.984299 0
M  V30 630 C 60.349 1.088 1.76571 0
M  V30 631 C 60.774 -0.356657 1.84688 0
M  V30 632 O 60.132 -1.25788 1.30565 0
M  V30 633 C 60.18 1.71371 3.17277 0
M  V30 634 O 59.284 0.973213 4.00752 0
M  V30 635 H 58.625 0.381599 0.543395 0
M  V30 636 H 61.155 1.63057 1.23587 0
M  V30 637 H 61.165 1.76449 3.67872 0
M  V30 638 H 59.84 2.76493 3.10684 0
M  V30 639 H 58.417 0.999078 3.59267 0
M  V30 640 N 60.6021 -1.18246 1.0419 0
M  V30 641 C 61.5651 -2.20128 0.638452 0
M  V30 642 C 62.5651 -1.57885 -0.304805 0
M  V30 643 O 63.7551 -1.73967 -0.0900369 0
M  V30 644 C 60.8871 -3.4084 -0.0637751 0
M  V30 645 H 62.0801 -2.57336 1.54007 0
M  V30 646 H 59.6331 -1.32152 0.834598 0
M  V30 647 H 60.3681 -3.09166 -0.979136 0
M  V30 648 H 60.1531 -3.8726 0.614198 0
M  V30 649 H 61.6431 -4.16274 -0.332512 0
M  V30 650 N 62.0802 -0.821533 -1.34494 0
M  V30 651 C 63.3292 -0.405355 -1.97585 0
M  V30 652 C 63.6422 1.03677 -1.65863 0
M  V30 653 O 64.8482 1.55679 -2.22433 0
M  V30 654 C 63.3042 -0.673861 -3.53535 0
M  V30 655 C 62.9122 -2.12951 -3.94152 0
M  V30 656 C 64.6562 -0.32378 -4.23263 0
M  V30 657 C 62.5632 -2.34298 -5.43009 0
M  V30 658 H 61.4932 -0.147836 -0.739365 0
M  V30 659 H 64.1442 -1.00769 -1.53355 0
M  V30 660 H 62.5262 -0.00137554 -3.96 0
M  V30 661 H 63.7002 -2.84104 -3.62797 0
M  V30 662 H 62.0152 -2.44089 -3.37356 0
M  V30 663 H 64.6122 -0.461126 -5.32708 0
M  V30 664 H 64.9552 0.731586 -4.09821 0
M  V30 665 H 65.4882 -0.950786 -3.8627 0
M  V30 666 H 62.2272 -3.38335 -5.61435 0
M  V30 667 H 61.7472 -1.67687 -5.75883 0
M  V30 668 H 63.4262 -2.16588 -6.09671 0
M  V30 669 N 63.5583 1.46682 -0.576371 0
M  V30 670 C 64.8353 1.95599 0.00703437 0
M  V30 671 C 65.2153 1.51904 1.46589 0
M  V30 672 O 64.5633 0.766755 2.15251 0
M  V30 673 C 64.7733 3.4864 -0.158404 0
M  V30 674 C 66.1213 4.24594 -0.0229439 0
M  V30 675 O 67.1453 3.56094 -0.0869173 0
M  V30 676 O 66.0043 5.46373 0.118015 0
M  V30 677 H 63.0983 0.825275 0.053384 0
M  V30 678 H 65.6443 1.56996 -0.644244 0
M  V30 679 H 64.4163 3.7331 -1.17282 0
M  V30 680 H 64.0393 3.94057 0.5296 0
M  V30 681 N 65.0364 0.313813 1.54444 0
M  V30 682 C 65.9834 -0.55655 2.23989 0
M  V30 683 C 66.9534 -1.11943 1.22711 0
M  V30 684 O 68.1384 -1.16158 1.51367 0
M  V30 685 C 65.2784 -1.71635 2.99392 0
M  V30 686 C 64.3914 -1.18364 4.15468 0
M  V30 687 C 63.5264 -2.30834 4.78424 0
M  V30 688 C 62.5654 -1.74762 5.86622 0
M  V30 689 N 61.7024 -2.80855 6.43479 0
M  V30 690 H 66.5424 0.0430893 2.97969 0
M  V30 691 H 64.0794 0.0330359 1.47063 0
M  V30 692 H 66.0374 -2.39868 3.41349 0
M  V30 693 H 64.6674 -2.28742 2.27765 0
M  V30 694 H 63.7194 -0.393163 3.78363 0
M  V30 695 H 65.0314 -0.733262 4.93381 0
M  V30 696 H 64.1854 -3.0699 5.23299 0
M  V30 697 H 62.9244 -2.79204 3.99871 0
M  V30 698 H 61.9294 -0.970995 5.41158 0
M  V30 699 H 63.1544 -1.2728 6.67066 0
M  V30 700 H 61.1004 -3.28535 5.67804 0
M  V30 701 H 61.0174 -2.40351 7.16776 0
M  V30 702 H 62.2854 -3.5687 6.93011 0
M  V30 703 N 66.5145 -1.57545 0.0417849 0
M  V30 704 C 67.9305 -1.56467 -0.314704 0
M  V30 705 C 68.1305 -1.04859 -1.72066 0
M  V30 706 O 67.1865 -0.700983 -2.42575 0
M  V30 707 C 68.4995 -3.00317 -0.15174 0
M  V30 708 C 70.0475 -3.12201 -0.223553 0
M  V30 709 C 70.5225 -4.57913 -0.0892295 0
M  V30 710 N 72.0135 -4.6297 -0.145808 0
M  V30 711 C 72.7485 -5.73362 -0.0658459 0
M  V30 712 N 72.2445 -6.92769 0.0659282 0
M  V30 713 N 74.0375 -5.6197 -0.12075 0
M  V30 714 H 66.1885 -1.89416 0.961014 0
M  V30 715 H 68.4515 -0.871862 0.372237 0
M  V30 716 H 68.1575 -3.42073 0.817254 0
M  V30 717 H 68.0315 -3.65892 -0.916692 0
M  V30 718 H 70.4185 -2.70349 -1.18301 0
M  V30 719 H 70.4995 -2.49323 0.571994 0
M  V30 720 H 70.1435 -5.00448 0.866867 0
M  V30 721 H 70.0735 -5.18786 -0.903802 0
M  V30 722 H 72.5645 -3.7709 -0.247286 0
M  V30 723 H 72.8775 -7.72707 0.119905 0
M  V30 724 H 71.2225 -6.94927 0.100885 0
M  V30 725 H 74.4135 -4.67572 -0.222187 0
M  V30 726 H 74.5865 -6.47977 -0.0549735 0
M  V30 727 N 67.9926 0.231505 -1.5589 0
M  V30 728 C 69.2176 0.978689 -1.82856 0
M  V30 729 C 69.6426 1.77559 -0.620846 0
M  V30 730 O 69.0006 1.76119 0.430305 0
M  V30 731 C 69.0486 1.87997 -3.07716 0
M  V30 732 O 68.1526 2.97393 -2.85712 0
M  V30 733 H 67.4936 0.277663 -0.603158 0
M  V30 734 H 70.0236 0.24783 -2.03093 0
M  V30 735 H 70.0336 2.2917 -3.37558 0
M  V30 736 H 68.7086 1.29417 -3.95252 0
M  V30 737 H 67.2856 2.60238 -2.67078 0
M  V30 738 N 69.4707 1.49531 0.497807 0
M  V30 739 C 70.7187 1.58865 1.24926 0
M  V30 740 C 71.0397 0.278721 1.92998 0
M  V30 741 O 70.3097 -0.702144 1.82885 0
M  V30 742 H 68.8897 0.585343 0.464094 0
M  V30 743 H 71.5517 1.86174 0.57666 0
M  V30 744 H 70.6477 2.38633 2.01149 0
M  V30 745 N 70.9488 -0.749086 1.3866 0
M  V30 746 C 71.8588 -1.89358 1.38494 0
M  V30 747 C 72.8748 -1.71708 0.281476 0
M  V30 748 O 74.0508 -1.94554 0.520643 0
M  V30 749 C 71.1158 -3.24782 1.21316 0
M  V30 750 C 70.1768 -3.54926 2.41508 0
M  V30 751 C 69.4098 -4.83888 2.2514 0
M  V30 752 O 69.6328 -5.56592 1.24746 0
M  V30 753 O 68.5668 -5.13612 3.13826 0
M  V30 754 H 72.3928 -1.92452 2.34938 0
M  V30 755 H 69.9778 -0.894981 1.19626 0
M  V30 756 H 71.8598 -4.05739 1.13814 0
M  V30 757 H 70.5348 -3.2249 0.279592 0
M  V30 758 H 69.4418 -2.74112 2.54585 0
M  V30 759 H 70.7748 -3.61983 3.3351 0
M  V30 760 N 72.4269 -1.23603 -0.977757 0
M  V30 761 C 73.3739 -1.01954 -2.07061 0
M  V30 762 C 74.3439 0.0638697 -1.65977 0
M  V30 763 O 75.5289 -0.0887624 -1.90593 0
M  V30 764 C 72.6689 -0.619658 -3.39491 0
M  V30 765 C 71.7819 -1.77547 -3.93829 0
M  V30 766 C 70.9169 -1.32212 -5.14484 0
M  V30 767 C 69.9559 -2.44852 -5.60994 0
M  V30 768 N 69.0929 -2.00456 -6.72876 0
M  V30 769 H 73.9329 -1.95495 -2.24913 0
M  V30 770 H 71.4699 -0.973861 -1.10247 0
M  V30 771 H 73.4279 -0.368898 -4.15566 0
M  V30 772 H 72.0579 0.278752 -3.21594 0
M  V30 773 H 71.1099 -2.14016 -3.14486 0
M  V30 774 H 72.4219 -2.62219 -4.24314 0
M  V30 775 H 71.5759 -1.02965 -5.97899 0
M  V30 776 H 70.3149 -0.445808 -4.85658 0
M  V30 777 H 69.3199 -2.74871 -4.76157 0
M  V30 778 H 70.5449 -3.33024 -5.91837 0
M  V30 779 H 68.4909 -1.15208 -6.45804 0
M  V30 780 H 68.4079 -2.78687 -7.02759 0
M  V30 781 H 69.6759 -1.7432 -7.59758 0
M  V30 782 N 73.905 1.17692 -1.04816 0
M  V30 783 C 75.151 1.88137 -0.75711 0
M  V30 784 C 75.484 1.80604 0.713841 0
M  V30 785 O 74.759 1.21146 1.52164 0
M  V30 786 C 75.042 3.38318 -1.2334 0
M  V30 787 C 74.895 3.54622 -2.76701 0
M  V30 788 C 76.214 4.32214 -0.829415 0
M  V30 789 H 73.333 0.683163 -0.27651 0
M  V30 790 H 75.975 1.38424 -1.30149 0
M  V30 791 H 74.125 3.80787 -0.770286 0
M  V30 792 H 75.797 3.21194 -3.31107 0
M  V30 793 H 74.04 2.97026 -3.16161 0
M  V30 794 H 74.711 4.60028 -3.05088 0
M  V30 795 H 77.187 3.97565 -1.22805 0
M  V30 796 H 76.063 5.35838 -1.19033 0
M  V30 797 H 76.324 4.41294 0.266891 0
M  V30 798 N 75.3831 0.828654 1.34056 0
M  V30 799 C 76.3461 0.259927 2.27721 0
M  V30 800 C 77.3461 -0.565478 1.50529 0
M  V30 801 O 78.5361 -0.38075 1.69988 0
M  V30 802 C 75.6681 -0.634944 3.34935 0
M  V30 803 H 76.8611 1.0863 2.79534 0
M  V30 804 H 74.4141 0.600951 1.44285 0
M  V30 805 H 75.1491 -1.48416 2.88346 0
M  V30 806 H 74.9341 -0.0444999 3.92075 0
M  V30 807 H 76.4241 -1.02648 4.04788 0
M  V30 808 N 76.8612 -1.46375 0.584142 0
M  V30 809 C 78.1102 -2.01585 0.0679741 0
M  V30 810 C 78.4232 -1.46109 -1.30045 0
M  V30 811 O 79.6292 -1.93148 -1.90804 0
M  V30 812 C 78.0852 -3.5983 0.0709207 0
M  V30 813 C 77.6932 -4.24303 1.43775 0
M  V30 814 C 79.4372 -4.22693 -0.391228 0
M  V30 815 C 77.3442 -5.74631 1.39834 0
M  V30 816 H 76.2742 -0.753689 0.0216421 0
M  V30 817 H 78.9252 -1.68093 0.736001 0
M  V30 818 H 77.3072 -3.90405 -0.663299 0
M  V30 819 H 78.4812 -4.05335 2.19181 0
M  V30 820 H 76.7962 -3.73539 1.84004 0
M  V30 821 H 79.3932 -5.3289 -0.439524 0
M  V30 822 H 79.7362 -3.91728 -1.40906 0
M  V30 823 H 80.2692 -3.96749 0.288974 0
M  V30 824 H 77.0082 -6.10258 2.39303 0
M  V30 825 H 76.5282 -5.95858 0.686505 0
M  V30 826 H 78.2072 -6.37375 1.11187 0
M  V30 827 N 78.3393 -0.321999 -1.54275 0
M  V30 828 C 79.2863 0.544664 -2.24281 0
M  V30 829 C 80.2563 1.1129 -1.23303 0
M  V30 830 O 81.4413 1.15354 -1.51981 0
M  V30 831 C 78.5813 1.70045 -3.00298 0
M  V30 832 C 77.6943 1.16159 -4.1609 0
M  V30 833 C 76.8293 2.28293 -4.79641 0
M  V30 834 C 75.8683 1.71648 -5.8754 0
M  V30 835 N 75.0053 2.77438 -6.44959 0
M  V30 836 H 79.8453 -0.0588907 -2.97942 0
M  V30 837 H 77.3823 -0.0408345 -1.47043 0
M  V30 838 H 79.3403 2.38054 -3.42616 0
M  V30 839 H 77.9703 2.27531 -2.28975 0
M  V30 840 H 77.0223 0.373092 -3.78566 0
M  V30 841 H 78.3343 0.707087 -4.93763 0
M  V30 842 H 77.4883 3.0421 -5.2492 0
M  V30 843 H 76.2273 2.77079 -4.01346 0
M  V30 844 H 75.2323 0.942282 -5.41665 0
M  V30 845 H 76.4573 1.23741 -6.67731 0
M  V30 846 H 74.4033 3.25519 -5.69538 0
M  V30 847 H 74.3203 2.36547 -7.1804 0
M  V30 848 H 75.5883 3.53189 -6.94894 0
M  V30 849 N 79.8174 1.5752 -0.0501392 0
M  V30 850 C 80.7644 2.1147 0.924603 0
M  V30 851 C 81.7344 1.02182 1.30951 0
M  V30 852 O 82.9194 1.29723 1.39916 0
M  V30 853 C 80.0594 2.66337 2.19451 0
M  V30 854 C 79.1724 3.89708 1.86418 0
M  V30 855 C 78.3074 4.32893 3.07859 0
M  V30 856 C 77.3464 5.48967 2.70742 0
M  V30 857 N 76.4834 5.87211 3.84874 0
M  V30 858 H 81.3234 2.94465 0.457639 0
M  V30 859 H 78.8604 1.45531 0.214266 0
M  V30 860 H 80.8184 2.96247 2.93758 0
M  V30 861 H 79.4484 1.86141 2.63726 0
M  V30 862 H 78.5004 3.66396 1.02264 0
M  V30 863 H 79.8124 4.74074 1.55096 0
M  V30 864 H 78.9664 4.6435 3.90466 0
M  V30 865 H 77.7054 3.47336 3.42358 0
M  V30 866 H 76.7104 5.17183 1.86551 0
M  V30 867 H 77.9354 6.3624 2.37436 0
M  V30 868 H 75.8814 5.04607 4.19175 0
M  V30 869 H 75.7984 6.66266 3.57247 0
M  V30 870 H 77.0664 6.23282 4.68123 0
M  V30 871 N 81.2955 -0.223234 1.56011 0
M  V30 872 C 82.2255 -1.27988 1.95298 0
M  V30 873 C 83.2065 -1.48976 0.820979 0
M  V30 874 O 84.3915 -1.61188 1.08315 0
M  V30 875 C 81.5215 -2.63 2.26822 0
M  V30 876 C 80.4755 -2.56671 3.42497 0
M  V30 877 C 79.8015 -3.95697 3.59622 0
M  V30 878 C 81.1015 -2.11601 4.77517 0
M  V30 879 H 82.7955 -0.953525 2.8381 0
M  V30 880 H 80.3415 -0.457244 1.36548 0
M  V30 881 H 82.2945 -3.37077 2.52898 0
M  V30 882 H 81.0185 -2.9732 1.35161 0
M  V30 883 H 79.6775 -1.85051 3.16467 0
M  V30 884 H 79.3255 -4.27322 2.6534 0
M  V30 885 H 79.0255 -3.92345 4.37424 0
M  V30 886 H 80.5495 -4.71438 3.88044 0
M  V30 887 H 81.9635 -2.7542 5.02809 0
M  V30 888 H 80.3605 -2.19311 5.5859 0
M  V30 889 H 81.4305 -1.06824 4.72987 0
M  V30 890 N 82.7736 -1.49793 -0.48987 0
M  V30 891 C 83.9986 -1.63836 -1.27172 0
M  V30 892 C 84.4236 -0.31402 -1.8546 0
M  V30 893 O 83.7816 0.719803 -1.66399 0
M  V30 894 C 83.8296 -2.71797 -2.36978 0
M  V30 895 O 82.9336 -2.31744 -3.41128 0
M  V30 896 H 82.2746 -0.547997 -0.37496 0
M  V30 897 H 84.8046 -1.96053 -0.585191 0
M  V30 898 H 84.8146 -2.94305 -2.82575 0
M  V30 899 H 83.4896 -3.67923 -1.93921 0
M  V30 900 H 82.0666 -2.1961 -3.01373 0
M  V30 901 N 84.2517 0.741722 -1.39055 0
M  V30 902 C 85.6677 1.04638 -1.20512 0
M  V30 903 C 85.8677 2.01405 -0.0620218 0
M  V30 904 O 84.9237 2.45547 0.588457 0
M  V30 905 C 86.2367 1.6151 -2.53643 0
M  V30 906 C 87.7847 1.73623 -2.6043 0
M  V30 907 C 88.2597 2.33906 -3.93767 0
M  V30 908 N 89.7507 2.41323 -3.9537 0
M  V30 909 C 90.4857 2.88888 -4.95309 0
M  V30 910 N 89.9817 3.36401 -6.05645 0
M  V30 911 N 91.7747 2.88037 -4.82692 0
M  V30 912 H 83.9257 0.0998155 -2.12165 0
M  V30 913 H 86.1887 0.106907 -0.941953 0
M  V30 914 H 85.8947 0.978739 -3.37807 0
M  V30 915 H 85.7687 2.60411 -2.72885 0
M  V30 916 H 88.1557 2.36384 -1.76655 0
M  V30 917 H 88.2367 0.733945 -2.45045 0
M  V30 918 H 87.8807 1.71776 -4.7797 0
M  V30 919 H 87.8107 3.34799 -4.06469 0
M  V30 920 H 90.3017 2.07734 -3.15682 0
M  V30 921 H 90.6147 3.71186 -6.77821 0
M  V30 922 H 88.9597 3.34427 -6.09248 0
M  V30 923 H 92.1507 2.50237 -3.95599 0
M  V30 924 H 92.3237 3.24792 -5.60726 0
M  V30 925 N 85.7298 1.2412 0.971189 0
M  V30 926 C 87.1408 1.07236 1.52831 0
M  V30 927 C 87.4918 -0.357352 1.92918 0
M  V30 928 O 86.6168 -1.24528 1.76979 0
M  V30 929 C 87.2118 1.94043 2.77728 0
M  V30 930 C 85.7708 1.81394 3.29808 0
M  V30 931 C 84.9178 1.89189 2.02738 0
M  V30 932 H 87.8688 1.37648 0.789864 0
M  V30 933 H 87.8898 1.47066 3.5093 0
M  V30 934 H 87.4018 2.98093 2.4852 0
M  V30 935 H 85.5028 0.801634 3.63874 0
M  V30 936 H 85.6158 2.65294 3.98944 0
M  V30 937 H 83.9798 1.32877 2.17292 0
M  V30 938 H 84.7628 2.94812 1.759 0
M  V30 939 N 87.2079 -1.17134 1.05439 0
M  V30 940 C 88.4549 -1.87456 0.765942 0
M  V30 941 C 88.7829 -1.81189 -0.707153 0
M  V30 942 O 88.0379 -1.21633 -1.5331 0
M  V30 943 C 88.3369 -3.36833 1.19491 0
M  V30 944 C 88.0029 -3.63301 2.67063 0
M  V30 945 C 86.6649 -3.70234 3.07376 0
M  V30 946 C 89.0169 -3.74575 3.62413 0
M  V30 947 C 86.3449 -3.85933 4.41896 0
M  V30 948 C 88.6969 -3.91793 4.9667 0
M  V30 949 C 87.3609 -3.96966 5.36633 0
M  V30 950 H 86.6309 -0.685948 0.280278 0
M  V30 951 H 89.2779 -1.38556 1.32192 0
M  V30 952 H 87.5829 -3.87807 0.557969 0
M  V30 953 H 89.2799 -3.89611 0.948893 0
M  V30 954 H 85.8699 -3.58532 2.34846 0
M  V30 955 H 90.0539 -3.68537 3.32406 0
M  V30 956 H 85.3099 -3.88187 4.72357 0
M  V30 957 H 89.4839 -3.99458 5.70444 0
M  V30 958 H 87.1109 -4.08883 6.40874 0
M  V30 959 N 88.686 -0.835752 -1.33615 0
M  V30 960 C 89.618 -0.224151 -2.28101 0
M  V30 961 C 90.631 0.593331 -1.51603 0
M  V30 962 O 91.82 0.420911 -1.73466 0
M  V30 963 C 88.92 0.703309 -3.31522 0
M  V30 964 C 88.093 -0.0741528 -4.37337 0
M  V30 965 C 87.152 0.776176 -5.20444 0
M  V30 966 O 86.178 0.216506 -5.68788 0
M  V30 967 N 87.38 2.09401 -5.41416 0
M  V30 968 H 90.145 -1.03598 -2.81225 0
M  V30 969 H 87.706 -0.69392 -1.46275 0
M  V30 970 H 89.698 1.27707 -3.84022 0
M  V30 971 H 88.268 1.41585 -2.78698 0
M  V30 972 H 87.488 -0.82928 -3.85378 0
M  V30 973 H 88.776 -0.608863 -5.05144 0
M  V30 974 H 88.174 2.57229 -5.03835 0
M  V30 975 H 86.731 2.61633 -5.96985 0
M  V30 976 N 90.1641 1.46063 -0.591896 0
M  V30 977 C 91.3891 2.07226 -0.0850314 0
M  V30 978 C 91.8141 1.43625 1.21463 0
M  V30 979 O 91.1721 0.523305 1.73583 0
M  V30 980 C 91.2201 3.60554 0.0576567 0
M  V30 981 O 90.3241 3.97128 1.11188 0
M  V30 982 H 89.6651 0.660615 -0.0669568 0
M  V30 983 H 92.1951 1.8756 -0.81745 0
M  V30 984 H 92.2051 4.07165 0.2609 0
M  V30 985 H 90.8801 4.06235 -0.891416 0
M  V30 986 H 89.4571 3.62213 0.886356 0
M  V30 987 N 91.6422 0.330177 1.54103 0
M  V30 988 C 92.5522 -0.541534 2.28264 0
M  V30 989 C 93.5682 -1.12351 1.32866 0
M  V30 990 O 94.7442 -1.14206 1.65888 0
M  V30 991 C 91.8092 -1.68322 3.03098 0
M  V30 992 C 90.8702 -1.13238 4.14096 0
M  V30 993 C 90.1032 -2.21966 4.85352 0
M  V30 994 O 90.3262 -3.42437 4.56172 0
M  V30 995 O 89.2602 -1.87013 5.7211 0
M  V30 996 H 93.0862 0.060938 3.03639 0
M  V30 997 H 90.6712 0.09565 1.49093 0
M  V30 998 H 92.5532 -2.34777 3.49939 0
M  V30 999 H 91.2282 -2.27176 2.30593 0
M  V30 1000 H 90.1352 -0.432736 3.71589 0
M  V30 1001 H 91.4682 -0.588898 4.88664 0
M  V30 1002 N 93.1203 -1.57491 0.0584922 0
M  V30 1003 C 94.3693 -1.92155 -0.613146 0
M  V30 1004 C 94.6823 -0.939334 -1.71569 0
M  V30 1005 O 95.8883 -1.17829 -2.44599 0
M  V30 1006 C 94.3443 -3.41303 -1.14195 0
M  V30 1007 C 93.9523 -4.47944 -0.0711265 0
M  V30 1008 C 95.6963 -3.84988 -1.78841 0
M  V30 1009 C 93.6033 -5.88212 -0.613225 0
M  V30 1010 H 92.5333 -0.717162 -0.232796 0
M  V30 1011 H 95.1843 -1.83049 0.12857 0
M  V30 1012 H 93.5663 -3.45437 -1.93621 0
M  V30 1013 H 94.7403 -4.55408 0.702836 0
M  V30 1014 H 93.0553 -4.13644 0.478313 0
M  V30 1015 H 95.6523 -4.87159 -2.20408 0
M  V30 1016 H 95.9953 -3.21632 -2.64308 0
M  V30 1017 H 96.5283 -3.83401 -1.06059 0
M  V30 1018 H 93.2673 -6.55183 0.203978 0
M  V30 1019 H 92.7873 -5.84294 -1.35501 0
M  V30 1020 H 94.4663 -6.37687 -1.09383 0
M  V30 1021 N 94.5984 0.214957 -1.56127 0
M  V30 1022 C 95.8454 0.938372 -1.79446 0
M  V30 1023 C 96.1734 1.8407 -0.628378 0
M  V30 1024 O 95.4284 1.91837 0.386925 0
M  V30 1025 C 95.7274 1.80314 -3.0858 0
M  V30 1026 C 95.3934 1.05349 -4.3842 0
M  V30 1027 C 94.0554 0.846435 -4.73697 0
M  V30 1028 C 96.4074 0.524588 -5.18553 0
M  V30 1029 C 93.7354 0.098683 -5.86617 0
M  V30 1030 C 96.0874 -0.209853 -6.32252 0
M  V30 1031 C 94.7514 -0.428102 -6.66126 0
M  V30 1032 H 94.0214 0.343375 -0.656639 0
M  V30 1033 H 96.6684 0.206077 -1.90388 0
M  V30 1034 H 94.9734 2.6035 -2.92789 0
M  V30 1035 H 96.6704 2.36513 -3.23825 0
M  V30 1036 H 93.2604 1.22486 -4.10725 0
M  V30 1037 H 97.4444 0.672008 -4.91729 0
M  V30 1038 H 92.7004 -0.0805753 -6.11347 0
M  V30 1039 H 96.8744 -0.627157 -6.9357 0
M  V30 1040 H 94.5014 -1.00944 -7.53468 0
M  V30 1041 N 96.0765 1.50051 0.48192 0
M  V30 1042 C 97.0395 1.67584 1.5636 0
M  V30 1043 C 98.0395 0.546894 1.51214 0
M  V30 1044 O 99.2295 0.813725 1.54026 0
M  V30 1045 C 96.3615 1.691 2.96003 0
M  V30 1046 H 97.5545 2.64078 1.42136 0
M  V30 1047 H 95.1075 1.39369 0.707533 0
M  V30 1048 H 95.8425 0.742589 3.15684 0
M  V30 1049 H 95.6275 2.51105 3.01146 0
M  V30 1050 H 97.1175 1.84656 3.74556 0
M  V30 1051 N 97.5546 -0.734337 1.39446 0
M  V30 1052 C 98.5016 -1.84835 1.38219 0
M  V30 1053 C 99.4716 -1.64331 0.24179 0
M  V30 1054 O 100.657 -1.85728 0.437002 0
M  V30 1055 C 97.7966 -3.22355 1.23212 0
M  V30 1056 C 96.9096 -3.5456 2.46801 0
M  V30 1057 C 96.0446 -4.81485 2.24377 0
M  V30 1058 C 95.0836 -5.06536 3.43639 0
M  V30 1059 N 94.2206 -6.24665 3.20528 0
M  V30 1060 H 99.0606 -1.85219 2.33448 0
M  V30 1061 H 96.5976 -0.905039 1.15963 0
M  V30 1062 H 98.5556 -4.0174 1.12522 0
M  V30 1063 H 97.1856 -3.21248 0.316121 0
M  V30 1064 H 96.2376 -2.69872 2.68092 0
M  V30 1065 H 97.5496 -3.6899 3.3563 0
M  V30 1066 H 96.7036 -5.68852 2.10933 0
M  V30 1067 H 95.4426 -4.6923 1.32944 0
M  V30 1068 H 94.4476 -4.17632 3.5758 0
M  V30 1069 H 95.6726 -5.20676 4.35974 0
M  V30 1070 H 93.6186 -6.13696 2.3176 0
M  V30 1071 H 93.5356 -6.39685 4.02913 0
M  V30 1072 H 94.8036 -7.14868 3.10779 0
M  V30 1073 N 99.0327 -1.24633 -0.964593 0
M  V30 1074 C 100.449 -1.01239 -1.2338 0
M  V30 1075 C 100.649 0.2769 -1.99588 0
M  V30 1076 O 99.7047 0.992241 -2.32187 0
M  V30 1077 C 101.018 -2.22937 -2.01791 0
M  V30 1078 C 102.566 -2.27594 -2.14872 0
M  V30 1079 C 103.041 -3.48921 -2.96678 0
M  V30 1080 N 104.532 -3.49257 -3.04259 0
M  V30 1081 C 105.267 -4.39795 -3.67924 0
M  V30 1082 N 104.763 -5.40591 -4.33281 0
M  V30 1083 N 106.556 -4.275 -3.64966 0
M  V30 1084 H 98.7067 -2.0748 -0.454502 0
M  V30 1085 H 100.97 -0.910647 -0.26349 0
M  V30 1086 H 100.676 -3.16587 -1.53184 0
M  V30 1087 H 100.55 -2.25306 -3.02518 0
M  V30 1088 H 102.937 -1.34473 -2.6268 0
M  V30 1089 H 103.018 -2.2925 -1.13482 0
M  V30 1090 H 102.662 -4.42359 -2.49562 0
M  V30 1091 H 102.592 -3.4451 -3.98272 0
M  V30 1092 H 105.083 -2.76337 -2.57771 0
M  V30 1093 H 105.396 -6.05904 -4.79687 0
M  V30 1094 H 103.741 -5.44475 -4.3194 0
M  V30 1095 H 106.932 -3.47987 -3.13086 0
M  V30 1096 H 107.105 -4.98258 -4.14298 0
M  V30 1097 N 100.511 1.16574 -1.06058 0
M  V30 1098 C 101.474 2.19085 -0.673392 0
M  V30 1099 C 102.474 1.5835 0.279648 0
M  V30 1100 O 103.664 1.74088 0.0623488 0
M  V30 1101 C 100.796 3.40899 0.00954234 0
M  V30 1102 H 101.989 2.54853 -1.58081 0
M  V30 1103 H 99.5418 1.30808 -0.855516 0
M  V30 1104 H 100.277 3.10684 0.929826 0
M  V30 1105 H 100.062 3.86233 -0.67573 0
M  V30 1106 H 101.552 4.1675 0.266245 0
M  V30 1107 N 101.989 0.842826 1.3317 0
M  V30 1108 C 103.219 0.453397 2.01564 0
M  V30 1109 C 103.627 -0.951147 1.63554 0
M  V30 1110 O 102.97 -1.63021 0.846746 0
M  V30 1111 C 103.032 0.499013 3.5602 0
M  V30 1112 C 102.696 1.86037 4.1742 0
M  V30 1113 C 103.693 2.82416 4.36506 0
M  V30 1114 C 101.378 2.15428 4.53757 0
M  V30 1115 C 103.372 4.06346 4.91082 0
M  V30 1116 C 101.059 3.39615 5.0804 0
M  V30 1117 C 102.057 4.3489 5.26649 0
M  V30 1118 O 101.745 5.5688 5.79776 0
M  V30 1119 H 101.477 0.177871 0.652179 0
M  V30 1120 H 104.031 1.13808 1.70988 0
M  V30 1121 H 102.261 -0.242467 3.85939 0
M  V30 1122 H 103.95 0.126852 4.05702 0
M  V30 1123 H 104.716 2.6101 4.08777 0
M  V30 1124 H 100.595 1.42061 4.38565 0
M  V30 1125 H 104.139 4.80722 5.05522 0
M  V30 1126 H 100.036 3.60876 5.352 0
M  V30 1127 H 100.804 5.58674 5.98185 0
M  V30 1128 N 103.467 -1.45747 0.599634 0
M  V30 1129 C 104.883 -1.57424 0.26264 0
M  V30 1130 C 105.083 -1.59222 -1.23493 0
M  V30 1131 O 104.139 -1.51825 -2.01756 0
M  V30 1132 C 105.452 -2.86061 0.926795 0
M  V30 1133 C 107 -2.99722 0.901967 0
M  V30 1134 C 107.475 -4.31119 1.54598 0
M  V30 1135 N 108.966 -4.37858 1.5111 0
M  V30 1136 C 109.701 -5.3818 1.97863 0
M  V30 1137 N 109.197 -6.45083 2.52666 0
M  V30 1138 N 110.99 -5.29487 1.88679 0
M  V30 1139 H 103.141 -1.42823 1.57211 0
M  V30 1140 H 105.404 -0.68235 0.658105 0
M  V30 1141 H 105.11 -2.90605 1.98095 0
M  V30 1142 H 104.984 -3.74563 0.445238 0
M  V30 1143 H 107.371 -2.9475 -0.143617 0
M  V30 1144 H 107.452 -2.12652 1.42171 0
M  V30 1145 H 107.096 -4.36849 2.59085 0
M  V30 1146 H 107.026 -5.16992 1.00132 0
M  V30 1147 H 109.517 -3.61209 1.11068 0
M  V30 1148 H 109.83 -7.17869 2.86155 0
M  V30 1149 H 108.175 -6.45856 2.56701 0
M  V30 1150 H 111.366 -4.44877 1.4561 0
M  V30 1151 H 111.539 -6.07524 2.25429 0
M  V30 1152 N 104.945 -0.338344 -1.53925 0
M  V30 1153 C 105.855 0.529421 -2.28548 0
M  V30 1154 C 106.871 1.11645 -1.3346 0
M  V30 1155 O 108.047 1.13325 -1.66492 0
M  V30 1156 C 105.112 1.66713 -3.03987 0
M  V30 1157 C 104.173 1.11041 -4.14691 0
M  V30 1158 C 103.406 2.19389 -4.86522 0
M  V30 1159 O 103.629 3.40013 -4.57982 0
M  V30 1160 O 102.563 1.83976 -5.73094 0
M  V30 1161 H 106.389 -0.0770399 -3.03602 0
M  V30 1162 H 103.974 -0.103555 -1.49041 0
M  V30 1163 H 105.856 2.32918 -3.5118 0
M  V30 1164 H 104.531 2.25949 -2.31794 0
M  V30 1165 H 103.438 0.413024 -3.71813 0
M  V30 1166 H 104.771 0.562975 -4.8897 0
M  V30 1167 N 106.423 1.57458 -0.0668435 0
M  V30 1168 C 107.353 2.15468 0.899764 0
M  V30 1169 C 108.334 1.08042 1.31381 0
M  V30 1170 O 109.519 1.36054 1.38574 0
M  V30 1171 C 106.649 2.71232 2.16911 0
M  V30 1172 C 105.603 3.83781 1.89463 0
M  V30 1173 C 104.929 4.26127 3.22986 0
M  V30 1174 C 106.229 5.08238 1.20381 0
M  V30 1175 H 107.923 2.96488 0.416529 0
M  V30 1176 H 105.469 1.4262 0.198908 0
M  V30 1177 H 107.422 3.10458 2.84945 0
M  V30 1178 H 106.146 1.87426 2.67468 0
M  V30 1179 H 104.805 3.45051 1.23836 0
M  V30 1180 H 104.453 3.39249 3.71374 0
M  V30 1181 H 104.153 5.01993 3.05413 0
M  V30 1182 H 105.677 4.67966 3.92225 0
M  V30 1183 H 107.091 5.44811 1.78475 0
M  V30 1184 H 105.488 5.89349 1.13083 0
M  V30 1185 H 106.558 4.84558 0.182153 0
M  V30 1186 N 107.901 -0.206675 1.56239 0
M  V30 1187 C 108.831 -1.25909 1.96645 0
M  V30 1188 C 109.812 -1.48097 0.836734 0
M  V30 1189 O 110.997 -1.6003 1.10019 0
M  V30 1190 C 108.127 -2.6058 2.29599 0
M  V30 1191 C 107.081 -2.53024 3.452 0
M  V30 1192 C 106.407 -3.91861 3.63798 0
M  V30 1193 C 107.707 -2.06524 4.79734 0
M  V30 1194 H 109.401 -0.923369 2.84806 0
M  V30 1195 H 106.947 -0.442735 1.37025 0
M  V30 1196 H 108.9 -3.34375 2.56459 0
M  V30 1197 H 107.624 -2.95869 1.38307 0
M  V30 1198 H 106.283 -1.81684 3.18412 0
M  V30 1199 H 105.931 -4.24483 2.69857 0
M  V30 1200 H 105.631 -3.87683 4.4156 0
M  V30 1201 H 107.155 -4.67296 3.93022 0
M  V30 1202 H 108.569 -2.70072 5.05702 0
M  V30 1203 H 106.966 -2.13374 5.60885 0
M  V30 1204 H 108.036 -1.01802 4.74093 0
M  V30 1205 N 109.379 -1.50304 -0.473955 0
M  V30 1206 C 110.309 -1.71886 -1.58042 0
M  V30 1207 C 111.29 -0.567799 -1.60344 0
M  V30 1208 O 112.475 -0.806623 -1.76656 0
M  V30 1209 C 109.605 -1.81036 -2.96384 0
M  V30 1210 C 108.559 -2.962 -3.08949 0
M  V30 1211 C 107.885 -2.9049 -4.48909 0
M  V30 1212 C 109.185 -4.36752 -2.86434 0
M  V30 1213 H 110.879 -2.64527 -1.40234 0
M  V30 1214 H 108.425 -1.27295 -0.673201 0
M  V30 1215 H 110.378 -1.94719 -3.73714 0
M  V30 1216 H 109.102 -0.850147 -3.15341 0
M  V30 1217 H 107.761 -2.82164 -2.3405 0
M  V30 1218 H 107.409 -1.92321 -4.64781 0
M  V30 1219 H 107.109 -3.67802 -4.58253 0
M  V30 1220 H 108.633 -3.06218 -5.28264 0
M  V30 1221 H 110.047 -4.5133 -3.53517 0
M  V30 1222 H 108.444 -5.15493 -3.07225 0
M  V30 1223 H 109.514 -4.49321 -1.82316 0
M  V30 1224 N 110.857 0.726932 -1.39834 0
M  V30 1225 C 111.787 1.85405 -1.41941 0
M  V30 1226 C 112.768 1.67751 -0.281728 0
M  V30 1227 O 113.953 1.8795 -0.488717 0
M  V30 1228 C 111.083 3.23243 -1.2701 0
M  V30 1229 C 110.037 3.55549 -2.38262 0
M  V30 1230 C 109.363 4.9241 -2.08415 0
M  V30 1231 C 110.663 3.577 -3.80589 0
M  V30 1232 H 112.357 1.83899 -2.36266 0
M  V30 1233 H 109.903 0.883349 -1.13723 0
M  V30 1234 H 111.856 4.01775 -1.27103 0
M  V30 1235 H 110.58 3.25296 -0.291564 0
M  V30 1236 H 109.239 2.79351 -2.37399 0
M  V30 1237 H 108.887 4.91052 -1.0898 0
M  V30 1238 H 108.587 5.14992 -2.82943 0
M  V30 1239 H 110.111 5.73289 -2.10171 0
M  V30 1240 H 111.525 4.26293 -3.83337 0
M  V30 1241 H 109.922 3.91804 -4.54543 0
M  V30 1242 H 110.992 2.57328 -4.10987 0
M  V30 1243 N 112.336 1.25143 0.95797 0
M  V30 1244 C 113.283 1.05235 2.05412 0
M  V30 1245 C 114.253 -0.0374561 1.66058 0
M  V30 1246 O 115.438 0.119073 1.90428 0
M  V30 1247 C 112.578 0.673589 3.38462 0
M  V30 1248 C 111.691 1.8379 3.90954 0
M  V30 1249 C 110.826 1.40381 5.12315 0
M  V30 1250 C 109.865 2.53746 5.57027 0
M  V30 1251 N 109.002 2.11136 6.69601 0
M  V30 1252 H 113.842 1.99048 2.21774 0
M  V30 1253 H 111.379 0.991277 1.08683 0
M  V30 1254 H 113.337 0.434964 4.14926 0
M  V30 1255 H 111.967 -0.227554 3.21997 0
M  V30 1256 H 111.019 2.18992 3.11041 0
M  V30 1257 H 112.331 2.68937 4.20089 0
M  V30 1258 H 111.485 1.12464 5.96185 0
M  V30 1259 H 110.224 0.523015 4.84887 0
M  V30 1260 H 109.229 2.82412 4.71724 0
M  V30 1261 H 110.454 3.42398 5.86464 0
M  V30 1262 H 108.4 1.25468 6.4389 0
M  V30 1263 H 108.317 2.89832 6.98236 0
M  V30 1264 H 109.585 1.86385 7.56889 0
M  V30 1265 N 113.814 -1.1601 1.06675 0
M  V30 1266 C 114.764 -2.18512 0.650888 0
M  V30 1267 C 115.748 -1.57677 -0.320441 0
M  V30 1268 O 116.94 -1.76482 -0.135266 0
M  V30 1269 C 114.069 -3.43273 0.0429255 0
M  V30 1270 C 113.155 -4.11176 1.03898 0
M  V30 1271 N 113.546 -4.54672 2.216 0
M  V30 1272 C 111.844 -4.37417 0.870779 0
M  V30 1273 C 112.545 -5.07248 2.84736 0
M  V30 1274 N 111.521 -5.0037 2.12441 0
M  V30 1275 H 115.323 -2.49863 1.54745 0
M  V30 1276 H 112.837 -1.32503 0.938975 0
M  V30 1277 H 114.834 -4.16006 -0.272857 0
M  V30 1278 H 113.494 -3.13408 -0.84884 0
M  V30 1279 H 114.505 -4.4828 2.59356 0
M  V30 1280 H 111.182 -4.17488 0.0313293 0
M  V30 1281 H 112.572 -5.50912 3.84636 0
M  V30 1282 N 115.292 -0.849877 -1.32721 0
M  V30 1283 C 116.225 -0.235903 -2.26977 0
M  V30 1284 C 117.203 0.623355 -1.50177 0
M  V30 1285 O 118.387 0.581207 -1.79316 0
M  V30 1286 C 115.514 0.667712 -3.32053 0
M  V30 1287 C 114.56 -0.11753 -4.26338 0
M  V30 1288 S 115.393 -1.48277 -5.14562 0
M  V30 1289 C 116.549 -0.584741 -6.23163 0
M  V30 1290 H 116.782 -1.03495 -2.78704 0
M  V30 1291 H 114.315 -0.64724 -1.40179 0
M  V30 1292 H 116.273 1.18343 -3.93072 0
M  V30 1293 H 114.934 1.44052 -2.7912 0
M  V30 1294 H 114.127 0.57051 -5.00761 0
M  V30 1295 H 113.729 -0.564668 -3.69713 0
M  V30 1296 H 116.021 0.212968 -6.77165 0
M  V30 1297 H 116.964 -1.29947 -6.96074 0
M  V30 1298 H 117.372 -0.161202 -5.6427 0
M  V30 1299 N 116.77 1.45427 -0.607355 0
M  V30 1300 C 117.702 2.2871 0.149752 0
M  V30 1301 C 118.715 1.39937 0.831958 0
M  V30 1302 O 119.904 1.64313 0.697385 0
M  V30 1303 C 117.004 3.15673 1.23304 0
M  V30 1304 C 116.177 4.32722 0.637996 0
M  V30 1305 C 115.236 5.00895 1.61215 0
M  V30 1306 O 114.262 5.57697 1.13854 0
M  V30 1307 N 115.464 5.00159 2.94655 0
M  V30 1308 H 118.229 2.94328 -0.564882 0
M  V30 1309 H 115.79 1.55612 -0.446823 0
M  V30 1310 H 117.782 3.58144 1.88454 0
M  V30 1311 H 116.352 2.51965 1.8502 0
M  V30 1312 H 115.572 3.93734 -0.191572 0
M  V30 1313 H 116.86 5.08321 0.220665 0
M  V30 1314 H 116.258 4.553 3.35735 0
M  V30 1315 H 114.815 5.46495 3.55228 0
M  V30 1316 N 118.248 0.346503 1.53744 0
M  V30 1317 C 119.198 -0.524953 2.21874 0
M  V30 1318 C 120.182 -1.06376 1.20718 0
M  V30 1319 O 121.374 -0.996972 1.46251 0
M  V30 1320 C 118.503 -1.6739 2.99726 0
M  V30 1321 C 117.589 -1.14888 4.08242 0
M  V30 1322 N 117.98 -0.345329 5.0462 0
M  V30 1323 C 116.278 -1.4255 4.22606 0
M  V30 1324 C 116.979 -0.0600706 5.81669 0
M  V30 1325 N 115.955 -0.65252 5.39669 0
M  V30 1326 H 119.757 0.0960091 2.93743 0
M  V30 1327 H 117.271 0.15352 1.61673 0
M  V30 1328 H 119.268 -2.3102 3.47038 0
M  V30 1329 H 117.928 -2.29811 2.29384 0
M  V30 1330 H 118.939 0.0138439 5.17898 0
M  V30 1331 H 115.616 -2.05389 3.63486 0
M  V30 1332 H 117.006 0.588321 6.69319 0
M  V30 1333 N 119.726 -1.57421 0.075193 0
M  V30 1334 C 120.636 -2.1642 -0.905511 0
M  V30 1335 C 121.652 -1.12828 -1.32461 0
M  V30 1336 O 122.828 -1.45109 -1.39661 0
M  V30 1337 C 119.893 -2.71693 -2.15369 0
M  V30 1338 C 118.954 -3.90171 -1.79068 0
M  V30 1339 C 118.187 -4.42798 -2.97936 0
M  V30 1340 O 118.41 -3.94416 -4.12058 0
M  V30 1341 O 117.344 -5.34085 -2.77555 0
M  V30 1342 H 121.17 -3.00588 -0.433626 0
M  V30 1343 H 118.755 -1.48664 -0.148067 0
M  V30 1344 H 120.637 -3.07104 -2.88557 0
M  V30 1345 H 119.312 -1.90582 -2.61649 0
M  V30 1346 H 118.219 -3.59606 -1.03122 0
M  V30 1347 H 119.552 -4.72584 -1.37569 0
M  V30 1348 N 121.204 0.198386 -1.56346 0
M  V30 1349 C 122.152 1.26538 -1.95169 0
M  V30 1350 C 123.146 1.47295 -0.836685 0
M  V30 1351 O 124.352 1.48195 -1.02167 0
M  V30 1352 H 120.727 0.424744 -0.620561 0
M  V30 1353 H 122.698 0.910904 -2.84157 0
M  V30 1354 C 121.447 2.6035 -2.30463 0
M  V30 1355 H 120.77 2.45192 -3.15786 0
M  V30 1356 H 122.21 3.33762 -2.61494 0
M  V30 1357 C 120.669 3.17096 -1.13806 0
M  V30 1358 O 121.199 3.99588 -0.41135 0
M  V30 1359 N 119.405 2.75795 -0.915736 0
M  V30 1360 H 118.952 2.08816 -1.50843 0
M  V30 1361 H 118.91 3.14101 -0.136979 0
M  V30 1362 N 122.682 1.50554 0.465978 0
M  V30 1363 C 123.928 1.62038 1.21949 0
M  V30 1364 C 124.261 0.322116 1.9151 0
M  V30 1365 O 123.536 -0.676723 1.82348 0
M  V30 1366 C 123.819 2.80421 2.25912 0
M  V30 1367 C 123.672 4.20144 1.60622 0
M  V30 1368 C 124.991 2.94354 3.27176 0
M  V30 1369 H 122.11 0.589752 0.441998 0
M  V30 1370 H 124.752 1.82956 0.51257 0
M  V30 1371 H 122.902 2.62717 2.86203 0
M  V30 1372 H 124.574 4.49449 1.03889 0
M  V30 1373 H 122.817 4.24165 0.909211 0
M  V30 1374 H 123.488 4.98914 2.36196 0
M  V30 1375 H 125.964 3.10578 2.76913 0
M  V30 1376 H 124.84 3.788 3.97242 0
M  V30 1377 H 125.101 2.05186 3.916 0
M  V30 1378 N 124.16 -0.719506 1.40217 0
M  V30 1379 C 125.409 -1.47486 1.37589 0
M  V30 1380 C 125.722 -1.9559 -0.0201568 0
M  V30 1381 O 126.928 -2.70973 -0.169049 0
M  V30 1382 C 125.384 -2.66575 2.41796 0
M  V30 1383 C 124.992 -2.25358 3.87192 0
M  V30 1384 C 126.736 -3.4433 2.48269 0
M  V30 1385 C 124.643 -3.41262 4.83005 0
M  V30 1386 H 123.573 -0.553901 0.511576 0
M  V30 1387 H 126.224 -0.783427 1.65936 0
M  V30 1388 H 124.606 -3.3787 2.06543 0
M  V30 1389 H 125.78 -1.61509 4.31569 0
M  V30 1390 H 124.095 -1.60657 3.84159 0
M  V30 1391 H 126.692 -4.30569 3.17041 0
M  V30 1392 H 127.035 -3.87872 1.51198 0
M  V30 1393 H 127.568 -2.80076 2.82493 0
M  V30 1394 H 124.307 -3.02755 5.81394 0
M  V30 1395 H 123.827 -4.0404 4.43297 0
M  V30 1396 H 125.506 -4.07383 5.02641 0
M  V30 1397 N 125.638 -1.25649 -0.95132 0
M  V30 1398 C 126.886 -1.10375 -1.69298 0
M  V30 1399 C 127.207 0.355339 -1.91735 0
M  V30 1400 O 126.477 1.25188 -1.50681 0
M  V30 1401 H 125.057 -0.405461 -0.627384 0
M  V30 1402 H 127.719 -1.57823 -1.14358 0
M  V30 1403 H 126.815 -1.61465 -2.67087 0
M  V30 1404 N 127.117 1.15442 -1.07289 0
M  V30 1405 C 128.047 2.22312 -0.714107 0
M  V30 1406 C 129.028 1.67467 0.298155 0
M  V30 1407 O 130.213 1.93445 0.171048 0
M  V30 1408 C 127.343 3.47124 -0.110448 0
M  V30 1409 C 126.297 4.14926 -1.04979 0
M  V30 1410 C 125.623 5.33807 -0.308924 0
M  V30 1411 C 126.923 4.64762 -2.38314 0
M  V30 1412 H 128.617 2.5258 -1.6076 0
M  V30 1413 H 126.163 1.21404 -0.77441 0
M  V30 1414 H 128.116 4.21124 0.152482 0
M  V30 1415 H 126.84 3.16187 0.81812 0
M  V30 1416 H 125.499 3.42866 -1.29764 0
M  V30 1417 H 125.147 4.99126 0.623084 0
M  V30 1418 H 124.847 5.80113 -0.935036 0
M  V30 1419 H 126.371 6.10576 -0.0537771 0
M  V30 1420 H 127.785 5.30292 -2.1786 0
M  V30 1421 H 126.182 5.21728 -2.96514 0
M  V30 1422 H 127.252 3.80434 -3.00663 0
M  V30 1423 N 128.595 0.856903 1.32268 0
M  V30 1424 C 129.525 0.31858 2.31316 0
M  V30 1425 C 130.506 -0.583487 1.59779 0
M  V30 1426 O 131.691 -0.503259 1.87566 0
M  V30 1427 C 128.821 -0.491979 3.43798 0
M  V30 1428 C 127.775 0.315849 4.26833 0
M  V30 1429 C 127.101 -0.619586 5.31098 0
M  V30 1430 C 128.401 1.54282 4.98993 0
M  V30 1431 H 130.095 1.14621 2.76591 0
M  V30 1432 H 127.641 0.552613 1.32974 0
M  V30 1433 H 129.594 -0.879012 4.1213 0
M  V30 1434 H 128.318 -1.35299 2.97257 0
M  V30 1435 H 126.977 0.684664 3.6015 0
M  V30 1436 H 126.625 -1.47751 4.8081 0
M  V30 1437 H 126.325 -0.0830621 5.87541 0
M  V30 1438 H 127.849 -1.00375 6.02293 0
M  V30 1439 H 129.263 1.22796 5.59995 0
M  V30 1440 H 127.66 2.01745 5.65172 0
M  V30 1441 H 128.73 2.30285 4.26728 0
M  V30 1442 N 130.073 -1.45103 0.615059 0
M  V30 1443 C 131.35 -1.95549 0.0448276 0
M  V30 1444 C 131.73 -1.55737 -1.4251 0
M  V30 1445 O 131.078 -0.823556 -2.13143 0
M  V30 1446 C 131.288 -3.48098 0.250785 0
M  V30 1447 C 132.636 -4.24384 0.135509 0
M  V30 1448 O 133.66 -3.55738 0.181299 0
M  V30 1449 O 132.519 -5.46493 0.0268878 0
M  V30 1450 H 129.613 -0.8264 -0.0314845 0
M  V30 1451 H 132.159 -1.55232 0.685642 0
M  V30 1452 H 130.931 -3.7007 1.27139 0
M  V30 1453 H 130.554 -3.95323 -0.424937 0
M  V30 1454 N 131.551 -0.354651 -1.53558 0
M  V30 1455 C 132.797 0.238797 -2.01389 0
M  V30 1456 C 133.13 1.49309 -1.2418 0
M  V30 1457 O 132.405 1.91638 -0.332457 0
M  V30 1458 C 132.688 0.541771 -3.56001 0
M  V30 1459 C 132.541 -0.725388 -4.43912 0
M  V30 1460 C 133.86 1.34685 -4.18984 0
M  V30 1461 H 130.979 0.0853177 -0.732045 0
M  V30 1462 H 133.621 -0.477384 -1.83905 0
M  V30 1463 H 131.771 1.15189 -3.71031 0
M  V30 1464 H 133.443 -1.36313 -4.407 0
M  V30 1465 H 131.686 -1.34801 -4.12324 0
M  V30 1466 H 132.357 -0.468505 -5.50008 0
M  V30 1467 H 134.833 0.830837 -4.07721 0
M  V30 1468 H 133.709 1.52759 -5.27215 0
M  V30 1469 H 133.97 2.35221 -3.74331 0
M  V30 1470 N 133.029 1.57378 -0.0835403 0
M  V30 1471 C 134.276 1.9393 0.58287 0
M  V30 1472 C 134.604 0.964455 1.68904 0
M  V30 1473 O 133.859 -0.0179474 1.95692 0
M  V30 1474 C 134.158 3.37063 1.1884 0
M  V30 1475 C 133.824 4.50424 0.207194 0
M  V30 1476 C 132.486 4.81159 -0.0627115 0
M  V30 1477 C 134.838 5.19136 -0.463426 0
M  V30 1478 C 132.166 5.77939 -1.01012 0
M  V30 1479 C 134.518 6.16931 -1.39924 0
M  V30 1480 C 133.182 6.46078 -1.67749 0
M  V30 1481 H 132.452 0.70964 0.213287 0
M  V30 1482 H 135.099 1.90856 -0.156916 0
M  V30 1483 H 133.404 3.3666 2.00418 0
M  V30 1484 H 135.101 3.6264 1.71153 0
M  V30 1485 H 131.691 4.2646 0.427747 0
M  V30 1486 H 135.875 4.95576 -0.268034 0
M  V30 1487 H 131.131 5.98842 -1.23283 0
M  V30 1488 H 135.305 6.69273 -1.92476 0
M  V30 1489 H 132.932 7.2088 -2.41321 0
M  V30 1490 N 134.507 -0.190092 1.56449 0
M  V30 1491 C 135.735 -0.925772 1.85033 0
M  V30 1492 C 136.15 -1.76638 0.666658 0
M  V30 1493 O 135.507 -1.78822 -0.364565 0
M  V30 1494 C 135.558 -1.81786 3.12468 0
M  V30 1495 O 135.279 -1.01118 4.26271 0
M  V30 1496 C 136.78 -2.6648 3.54265 0
M  V30 1497 H 134 -0.269872 0.614337 0
M  V30 1498 H 136.544 -0.195837 2.0356 0
M  V30 1499 H 134.699 -2.50136 2.95822 0
M  V30 1500 H 135.113 -1.61956 4.98869 0
M  V30 1501 H 136.587 -3.24722 4.46385 0
M  V30 1502 H 137.064 -3.40434 2.77491 0
M  V30 1503 H 137.67 -2.03493 3.73458 0
M  V30 1504 N 135.985 -1.50799 -0.457987 0
M  V30 1505 C 137.396 -1.55152 -1.0385 0
M  V30 1506 C 137.747 -0.362719 -1.92818 0
M  V30 1507 O 136.872 0.522915 -2.09987 0
M  V30 1508 C 137.467 -2.81173 -1.89017 0
M  V30 1509 C 136.026 -2.88164 -2.42154 0
M  V30 1510 C 135.173 -2.49591 -1.20829 0
M  V30 1511 H 138.124 -1.56874 -0.240068 0
M  V30 1512 H 138.145 -2.63769 -2.74238 0
M  V30 1513 H 137.657 -3.67677 -1.24238 0
M  V30 1514 H 135.758 -2.06042 -3.10447 0
M  V30 1515 H 135.871 -3.91356 -2.76364 0
M  V30 1516 H 134.235 -2.02322 -1.54719 0
M  V30 1517 H 135.018 -3.38418 -0.576927 0
M  V30 1518 N 137.463 0.71206 -1.40597 0
M  V30 1519 C 138.426 1.80785 -1.40888 0
M  V30 1520 C 139.426 1.57937 -0.302103 0
M  V30 1521 O 140.616 1.64913 -0.561182 0
M  V30 1522 C 137.748 3.18927 -1.20409 0
M  V30 1523 H 138.941 1.81924 -2.38419 0
M  V30 1524 H 136.494 0.91805 -1.26497 0
M  V30 1525 H 137.229 3.23436 -0.236522 0
M  V30 1526 H 137.014 3.36911 -2.00582 0
M  V30 1527 H 138.504 3.98949 -1.23408 0
M  V30 1528 N 138.941 1.26152 0.944643 0
M  V30 1529 C 140.166 1.14363 1.7302 0
M  V30 1530 C 140.591 -0.29772 1.85729 0
M  V30 1531 O 139.949 -1.2157 1.34501 0
M  V30 1532 C 139.997 1.81378 3.11664 0
M  V30 1533 O 139.101 1.10022 3.97453 0
M  V30 1534 H 138.442 0.398694 0.53098 0
M  V30 1535 H 140.972 1.66906 1.18337 0
M  V30 1536 H 140.982 1.88064 3.62072 0
M  V30 1537 H 139.657 2.86237 3.0173 0
M  V30 1538 H 138.234 1.11287 3.55907 0
M  V30 1539 N 140.419 -1.14872 1.07899 0
M  V30 1540 C 141.644 -1.90202 0.826926 0
M  V30 1541 C 142.069 -1.77774 -0.614664 0
M  V30 1542 O 141.427 -1.11431 -1.43013 0
M  V30 1543 C 141.475 -3.38352 1.24702 0
M  V30 1544 O 140.579 -4.10497 0.39575 0
M  V30 1545 H 139.92 -0.591968 0.300782 0
M  V30 1546 H 142.45 -1.45437 1.43907 0
M  V30 1547 H 142.46 -3.89156 1.22563 0
M  V30 1548 H 141.135 -3.46715 2.29698 0
M  V30 1549 H 139.712 -3.69796 0.480117 0
M  V30 1550 N 141.898 -0.863906 -1.31812 0
M  V30 1551 C 142.828 -0.330843 -2.31144 0
M  V30 1552 C 143.809 0.575005 -1.60087 0
M  V30 1553 O 144.994 0.493304 -1.8783 0
M  V30 1554 C 142.124 0.47374 -3.44054 0
M  V30 1555 C 141.078 -0.338481 -4.26659 0
M  V30 1556 C 140.404 0.591412 -5.31419 0
M  V30 1557 C 141.704 -1.56926 -4.98168 0
M  V30 1558 H 143.398 -1.16086 -2.75979 0
M  V30 1559 H 140.944 -0.559657 -1.32679 0
M  V30 1560 H 142.897 0.857143 -4.12591 0
M  V30 1561 H 141.621 1.33721 -2.9797 0
M  V30 1562 H 140.28 -0.703754 -3.59782 0
M  V30 1563 H 139.928 1.45199 -4.81587 0
M  V30 1564 H 139.628 0.0519022 -5.87577 0
M  V30 1565 H 141.152 0.97179 -6.02817 0
M  V30 1566 H 142.566 -1.25764 -5.59336 0
M  V30 1567 H 140.963 -2.04739 -5.64094 0
M  V30 1568 H 142.033 -2.32544 -4.25501 0
M  V30 1569 N 143.376 1.44774 -0.622745 0
M  V30 1570 C 144.792 1.56986 -0.287652 0
M  V30 1571 C 144.992 1.61167 1.20944 0
M  V30 1572 O 144.048 1.55015 1.99315 0
M  V30 1573 C 145.361 2.84551 -0.972188 0
M  V30 1574 C 146.909 2.9825 -0.949536 0
M  V30 1575 C 147.384 4.28605 -1.61437 0
M  V30 1576 N 148.875 4.35399 -1.58057 0
M  V30 1577 C 149.61 5.34964 -2.064 0
M  V30 1578 N 149.106 6.40981 -2.62897 0
M  V30 1579 N 150.899 5.26419 -1.97078 0
M  V30 1580 H 143.05 1.40304 -1.59463 0
M  V30 1581 H 145.313 0.671794 -0.668878 0
M  V30 1582 H 145.019 2.87417 -2.02693 0
M  V30 1583 H 144.893 3.73807 -0.504771 0
M  V30 1584 H 147.28 2.94941 0.0967067 0
M  V30 1585 H 147.361 2.10364 -1.45536 0
M  V30 1586 H 147.005 4.32672 -2.66002 0
M  V30 1587 H 146.935 5.15334 -1.08344 0
M  V30 1588 H 149.426 3.59397 -1.16801 0
M  V30 1589 H 149.739 7.13225 -2.97539 0
M  V30 1590 H 148.084 6.4169 -2.66943 0
M  V30 1591 H 151.275 4.42504 -1.52669 0
M  V30 1592 H 151.448 6.03861 -2.35066 0
M  V30 1593 N 144.854 0.36279 1.53368 0
M  V30 1594 C 145.802 -0.500155 2.27159 0
M  V30 1595 C 146.796 -1.08575 1.3003 0
M  V30 1596 O 148.002 -1.02927 1.47668 0
M  V30 1597 H 144.377 -0.180009 0.730138 0
M  V30 1598 H 146.348 0.14401 2.98052 0
M  V30 1599 C 145.097 -1.62937 3.07159 0
M  V30 1600 H 144.42 -1.18806 3.8174 0
M  V30 1601 H 145.86 -2.20795 3.61975 0
M  V30 1602 C 144.319 -2.57007 2.17829 0
M  V30 1603 O 144.849 -3.59752 1.78721 0
M  V30 1604 N 143.055 -2.26131 1.82518 0
M  V30 1605 H 142.602 -1.42616 2.14519 0
M  V30 1606 H 142.56 -2.89327 1.23034 0
M  V30 1607 N 146.332 -1.57332 0.0918853 0
M  V30 1608 C 147.579 -1.94236 -0.572577 0
M  V30 1609 C 147.907 -0.973398 -1.6839 0
M  V30 1610 O 147.162 0.00756912 -1.95699 0
M  V30 1611 C 147.461 -3.37689 -1.17051 0
M  V30 1612 C 147.127 -4.50527 -0.183304 0
M  V30 1613 C 145.789 -4.81119 0.0882276 0
M  V30 1614 C 148.141 -5.18883 0.49095 0
M  V30 1615 C 145.469 -5.77395 1.04076 0
M  V30 1616 C 147.821 -6.1618 1.43193 0
M  V30 1617 C 146.485 -6.45179 1.71173 0
M  V30 1618 H 145.755 -0.710762 -0.209521 0
M  V30 1619 H 148.402 -1.9077 0.167036 0
M  V30 1620 H 146.707 -3.37718 -1.9863 0
M  V30 1621 H 148.404 -3.63543 -1.69227 0
M  V30 1622 H 144.994 -4.26681 -0.405124 0
M  V30 1623 H 149.178 -4.95427 0.294312 0
M  V30 1624 H 144.434 -5.98179 1.26457 0
M  V30 1625 H 148.608 -6.68243 1.96023 0
M  V30 1626 H 146.235 -7.1959 2.4514 0
M  V30 1627 N 147.81 0.181792 -1.56548 0
M  V30 1628 C 149.04 0.914618 -1.85252 0
M  V30 1629 C 149.448 1.76791 -0.673914 0
M  V30 1630 O 148.791 1.80009 0.366416 0
M  V30 1631 C 148.853 1.85019 -3.08234 0
M  V30 1632 C 148.517 1.17754 -4.41569 0
M  V30 1633 C 149.514 0.548035 -5.17003 0
M  V30 1634 C 147.199 1.17742 -4.88305 0
M  V30 1635 C 149.193 -0.0726128 -6.37359 0
M  V30 1636 C 146.88 0.552946 -6.08593 0
M  V30 1637 C 147.878 -0.070978 -6.82963 0
M  V30 1638 O 147.566 -0.685635 -8.00971 0
M  V30 1639 H 147.298 0.271695 -0.618998 0
M  V30 1640 H 149.852 0.189944 -2.0452 0
M  V30 1641 H 148.082 2.61491 -2.84885 0
M  V30 1642 H 149.771 2.45195 -3.23472 0
M  V30 1643 H 150.537 0.540174 -4.81982 0
M  V30 1644 H 146.416 1.65246 -4.30366 0
M  V30 1645 H 149.96 -0.560213 -6.95347 0
M  V30 1646 H 145.857 0.558354 -6.43081 0
M  V30 1647 H 146.625 -0.58385 -8.16415 0
M  V30 1648 N 149.288 1.51039 0.449983 0
M  V30 1649 C 150.565 1.53612 1.21089 0
M  V30 1650 C 150.945 0.292997 2.09057 0
M  V30 1651 O 150.293 -0.72259 2.16774 0
M  V30 1652 C 150.503 2.84337 2.0237 0
M  V30 1653 C 151.851 3.35807 2.59843 0
M  V30 1654 O 152.875 2.85802 2.12593 0
M  V30 1655 O 151.734 4.23029 3.45989 0
M  V30 1656 H 148.828 0.617057 0.550608 0
M  V30 1657 H 151.374 1.63344 0.460082 0
M  V30 1658 H 150.146 3.66278 1.37681 0
M  V30 1659 H 149.769 2.77708 2.84542 0
M  V30 1660 N 150.766 -0.704594 1.40972 0
M  V30 1661 C 152.013 -1.46458 1.39844 0
M  V30 1662 C 152.341 -1.94499 0.00447594 0
M  V30 1663 O 151.596 -1.69275 -0.982057 0
M  V30 1664 C 151.895 -2.698 2.34399 0
M  V30 1665 C 151.561 -2.40464 3.81429 0
M  V30 1666 C 150.223 -2.32174 4.21484 0
M  V30 1667 C 152.575 -2.16086 4.74296 0
M  V30 1668 C 149.903 -1.97589 5.52427 0
M  V30 1669 C 152.255 -1.83011 6.05549 0
M  V30 1670 C 150.919 -1.7321 6.44635 0
M  V30 1671 H 150.189 -0.535927 0.511725 0
M  V30 1672 H 152.836 -0.806124 1.73706 0
M  V30 1673 H 151.141 -3.40536 1.93759 0
M  V30 1674 H 152.838 -3.27919 2.30804 0
M  V30 1675 H 149.428 -2.47808 3.49699 0
M  V30 1676 H 153.612 -2.2144 4.4416 0
M  V30 1677 H 148.868 -1.88547 5.81601 0
M  V30 1678 H 153.042 -1.63164 6.77016 0
M  V30 1679 H 150.669 -1.46179 7.46013 0
M  V30 1680 N 152.244 -1.26651 -0.937939 0
M  V30 1681 C 153.474 -1.15006 -1.71631 0
M  V30 1682 C 153.882 0.297026 -1.86854 0
M  V30 1683 O 153.225 1.21493 -1.37786 0
M  V30 1684 C 153.287 -1.74984 -3.14039 0
M  V30 1685 C 152.951 -3.24103 -3.2219 0
M  V30 1686 C 153.948 -4.20877 -3.05219 0
M  V30 1687 C 151.633 -3.64625 -3.45476 0
M  V30 1688 C 153.627 -5.56151 -3.11408 0
M  V30 1689 C 151.314 -5.00032 -3.513 0
M  V30 1690 C 152.312 -5.95604 -3.34282 0
M  V30 1691 O 152 -7.28545 -3.3982 0
M  V30 1692 H 151.732 -0.401183 -0.544085 0
M  V30 1693 H 154.286 -1.67832 -1.18413 0
M  V30 1694 H 152.516 -1.16624 -3.68695 0
M  V30 1695 H 154.205 -1.58199 -3.73802 0
M  V30 1696 H 154.971 -3.90908 -2.87081 0
M  V30 1697 H 150.85 -2.90718 -3.57777 0
M  V30 1698 H 154.394 -6.30727 -2.98043 0
M  V30 1699 H 150.291 -5.29659 -3.68959 0
M  V30 1700 H 151.059 -7.3686 -3.56343 0
M  V30 1701 N 153.722 1.14298 -1.08507 0
M  V30 1702 C 154.652 2.21542 -0.737646 0
M  V30 1703 C 155.633 1.67773 0.280377 0
M  V30 1704 O 156.818 1.93616 0.150521 0
M  V30 1705 C 153.948 3.46988 -0.147259 0
M  V30 1706 C 152.902 4.13789 -1.09374 0
M  V30 1707 C 152.228 5.33449 -0.365524 0
M  V30 1708 C 153.528 4.62208 -2.4323 0
M  V30 1709 H 155.222 2.5086 -1.6343 0
M  V30 1710 H 152.768 1.20576 -0.787243 0
M  V30 1711 H 154.721 4.21262 0.107808 0
M  V30 1712 H 153.445 3.17037 0.784538 0
M  V30 1713 H 152.104 3.4147 -1.33393 0
M  V30 1714 H 151.752 4.99759 0.57011 0
M  V30 1715 H 151.452 5.79088 -0.996512 0
M  V30 1716 H 152.976 6.10485 -0.118534 0
M  V30 1717 H 154.39 5.27952 -2.23472 0
M  V30 1718 H 152.787 5.18553 -3.02031 0
M  V30 1719 H 153.857 3.77224 -3.04681 0
M  V30 1720 N 155.201 0.870884 1.31352 0
M  V30 1721 C 156.447 0.482987 1.96965 0
M  V30 1722 C 156.78 -0.962462 1.68672 0
M  V30 1723 O 156.055 -1.6779 0.98371 0
M  V30 1724 C 156.338 0.741752 3.52378 0
M  V30 1725 C 156.191 2.2368 3.9024 0
M  V30 1726 C 157.51 0.208838 4.39604 0
M  V30 1727 H 154.629 0.176955 0.715441 0
M  V30 1728 H 157.271 1.09229 1.55464 0
M  V30 1729 H 155.421 0.223149 3.87859 0
M  V30 1730 H 157.093 2.82273 3.64856 0
M  V30 1731 H 155.336 2.70901 3.38814 0
M  V30 1732 H 156.007 2.3685 4.98604 0
M  V30 1733 H 158.483 0.652529 4.10952 0
M  V30 1734 H 157.359 0.419336 5.47296 0
M  V30 1735 H 157.62 -0.889275 4.33064 0
M  V30 1736 N 156.679 -1.44442 0.630414 0
M  V30 1737 C 157.612 -2.27862 -0.124247 0
M  V30 1738 C 158.59 -1.38495 -0.851931 0
M  V30 1739 O 159.774 -1.67935 -0.856166 0
M  V30 1740 C 156.901 -3.17407 -1.18197 0
M  V30 1741 C 155.947 -4.22875 -0.554892 0
M  V30 1742 S 156.78 -5.31485 0.654489 0
M  V30 1743 C 157.936 -6.246 -0.40326 0
M  V30 1744 H 158.169 -2.91519 0.583435 0
M  V30 1745 H 155.702 -1.48618 0.418565 0
M  V30 1746 H 157.66 -3.69549 -1.78728 0
M  V30 1747 H 156.321 -2.52971 -1.86184 0
M  V30 1748 H 155.514 -4.85542 -1.35148 0
M  V30 1749 H 155.116 -3.73992 -0.0242105 0
M  V30 1750 H 157.408 -6.65375 -1.27602 0
M  V30 1751 H 158.351 -7.07851 0.187813 0
M  V30 1752 H 158.759 -5.59775 -0.728837 0
M  V30 1753 N 158.157 -0.370918 -1.53173 0
M  V30 1754 C 159.568 0.107139 -1.86392 0
M  V30 1755 C 159.919 1.47714 -1.29132 0
M  V30 1756 O 159.044 2.07464 -0.615439 0
M  V30 1757 C 159.639 0.201187 -3.38202 0
M  V30 1758 C 158.198 0.623507 -3.712 0
M  V30 1759 C 157.345 -0.225978 -2.76378 0
M  V30 1760 H 160.296 -0.58951 -1.47345 0
M  V30 1761 H 160.317 1.02377 -3.66468 0
M  V30 1762 H 159.829 -0.796058 -3.79848 0
M  V30 1763 H 157.93 1.62879 -3.35114 0
M  V30 1764 H 158.043 0.394414 -4.77474 0
M  V30 1765 H 156.407 0.305962 -2.52856 0
M  V30 1766 H 157.19 -1.22086 -3.20858 0
M  V30 1767 N 159.635 1.57281 -0.100228 0
M  V30 1768 C 160.882 1.94537 0.562268 0
M  V30 1769 C 161.21 0.982315 1.67871 0
M  V30 1770 O 160.465 0.00280936 1.957 0
M  V30 1771 C 160.764 3.38305 1.15259 0
M  V30 1772 C 160.43 4.50618 0.159409 0
M  V30 1773 C 159.092 4.81066 -0.113741 0
M  V30 1774 C 161.444 5.18615 -0.518461 0
M  V30 1775 C 158.772 5.76835 -1.07137 0
M  V30 1776 C 161.124 6.15412 -1.46459 0
M  V30 1777 C 159.788 6.44262 -1.74592 0
M  V30 1778 H 159.058 0.711863 0.205748 0
M  V30 1779 H 161.705 1.90679 -0.17715 0
M  V30 1780 H 160.01 3.38766 1.96836 0
M  V30 1781 H 161.707 3.64435 1.67297 0
M  V30 1782 H 158.297 4.2689 0.382491 0
M  V30 1783 H 162.481 4.95264 -0.320581 0
M  V30 1784 H 157.737 5.975 -1.29628 0
M  V30 1785 H 161.911 6.67194 -1.99564 0
M  V30 1786 H 159.538 7.1828 -2.48953 0
M  V30 1787 N 161.113 -0.173488 1.56642 0
M  V30 1788 C 162.046 -1.24353 1.91342 0
M  V30 1789 C 163.024 -1.4289 0.775965 0
M  V30 1790 O 164.208 -1.57932 1.02907 0
M  V30 1791 C 161.335 -2.60683 2.16245 0
M  V30 1792 C 160.381 -2.58894 3.38934 0
M  V30 1793 S 161.214 -2.0819 4.93373 0
M  V30 1794 C 162.37 -3.46302 5.21369 0
M  V30 1795 H 162.603 -0.947345 2.81803 0
M  V30 1796 H 160.136 -0.377958 1.49703 0
M  V30 1797 H 162.094 -3.39149 2.31275 0
M  V30 1798 H 160.755 -2.87502 1.26496 0
M  V30 1799 H 159.948 -3.59188 3.53553 0
M  V30 1800 H 159.55 -1.88522 3.2301 0
M  V30 1801 H 161.842 -4.42287 5.13214 0
M  V30 1802 H 162.785 -3.3656 6.23003 0
M  V30 1803 H 163.193 -3.42214 4.48943 0
M  V30 1804 N 162.591 -1.51276 -0.441967 0
M  V30 1805 C 163.523 -1.68444 -1.55433 0
M  V30 1806 C 164.536 -0.565187 -1.52674 0
M  V30 1807 O 165.725 -0.839356 -1.57534 0
M  V30 1808 C 162.825 -1.67966 -2.94348 0
M  V30 1809 C 161.998 -2.964 -3.21661 0
M  V30 1810 C 161.057 -2.88171 -4.40277 0
M  V30 1811 O 160.083 -3.62119 -4.39157 0
M  V30 1812 N 161.285 -2.03706 -5.43584 0
M  V30 1813 H 164.05 -2.644 -1.41112 0
M  V30 1814 H 161.611 -1.49104 -0.630838 0
M  V30 1815 H 163.603 -1.60035 -3.71713 0
M  V30 1816 H 162.173 -0.796225 -3.0229 0
M  V30 1817 H 161.393 -3.18234 -2.32638 0
M  V30 1818 H 162.681 -3.81427 -3.36736 0
M  V30 1819 H 162.079 -1.42995 -5.47329 0
M  V30 1820 H 160.636 -2.01658 -6.1982 0
M  V30 1821 N 164.069 0.697108 -1.41344 0
M  V30 1822 C 165.297 1.48593 -1.43972 0
M  V30 1823 C 165.712 1.88747 -0.0445612 0
M  V30 1824 O 165.069 1.56682 0.935785 0
M  V30 1825 C 165.12 2.74946 -2.34706 0
M  V30 1826 O 164.841 2.36484 -3.68791 0
M  V30 1827 C 166.342 3.687 -2.46121 0
M  V30 1828 H 163.562 0.457964 -0.490418 0
M  V30 1829 H 166.106 0.858429 -1.8561 0
M  V30 1830 H 164.261 3.33937 -1.9638 0
M  V30 1831 H 164.675 3.17918 -4.17167 0
M  V30 1832 H 166.149 4.54145 -3.13777 0
M  V30 1833 H 166.626 4.13081 -1.49199 0
M  V30 1834 H 167.232 3.15613 -2.85076 0
M  V30 1835 N 165.547 1.27147 0.931209 0
M  V30 1836 C 166.824 1.0401 1.65654 0
M  V30 1837 C 167.204 -0.426297 2.06751 0
M  V30 1838 O 166.552 -1.40879 1.79904 0
M  V30 1839 C 166.762 1.99834 2.86125 0
M  V30 1840 C 168.11 2.29007 3.57549 0
M  V30 1841 O 169.134 1.97779 2.96246 0
M  V30 1842 O 167.993 2.82222 4.67989 0
M  V30 1843 H 165.087 0.396239 0.725895 0
M  V30 1844 H 167.633 1.38397 0.982056 0
M  V30 1845 H 166.405 2.98744 2.52721 0
M  V30 1846 H 166.028 1.65987 3.61295 0
M  V30 1847 N 167.025 -1.13721 1.09112 0
M  V30 1848 C 167.955 -2.21148 0.749385 0
M  V30 1849 C 168.936 -1.6792 -0.271475 0
M  V30 1850 O 170.121 -1.93693 -0.140251 0
M  V30 1851 C 167.251 -3.46905 0.165659 0
M  V30 1852 C 166.205 -4.13203 1.11567 0
M  V30 1853 C 165.531 -5.33248 0.393809 0
M  V30 1854 C 166.831 -4.60912 2.45678 0
M  V30 1855 H 168.525 -2.4999 1.64758 0
M  V30 1856 H 166.071 -1.20156 0.793626 0
M  V30 1857 H 168.024 -4.21313 -0.085466 0
M  V30 1858 H 166.748 -3.17449 -0.767714 0
M  V30 1859 H 165.407 -3.40758 1.35202 0
M  V30 1860 H 165.055 -5.00054 -0.543599 0
M  V30 1861 H 164.755 -5.78552 1.02721 0
M  V30 1862 H 166.279 -6.10413 0.150908 0
M  V30 1863 H 167.693 -5.26759 2.26269 0
M  V30 1864 H 166.09 -5.16944 3.04776 0
M  V30 1865 H 167.16 -3.75603 3.06677 0
M  V30 1866 N 168.503 -0.877838 -1.30888 0
M  V30 1867 C 169.435 -0.296607 -2.27273 0
M  V30 1868 C 170.448 0.544799 -1.53414 0
M  V30 1869 O 171.637 0.365511 -1.74718 0
M  V30 1870 C 168.737 0.597481 -3.33592 0
M  V30 1871 C 167.91 -0.213251 -4.3688 0
M  V30 1872 C 166.969 0.610208 -5.2265 0
M  V30 1873 O 165.995 0.035441 -5.69189 0
M  V30 1874 N 167.197 1.92071 -5.47804 0
M  V30 1875 H 169.962 -1.12492 -2.77787 0
M  V30 1876 H 167.523 -0.740105 -1.43993 0
M  V30 1877 H 169.515 1.15425 -3.87891 0
M  V30 1878 H 168.085 1.32647 -2.83061 0
M  V30 1879 H 167.305 -0.951466 -3.82545 0
M  V30 1880 H 168.593 -0.769262 -5.02951 0
M  V30 1881 H 167.991 2.4107 -5.11763 0
M  V30 1882 H 166.548 2.42508 -6.05007 0
M  V30 1883 N 169.982 1.44106 -0.638065 0
M  V30 1884 C 170.929 2.30715 0.062701 0
M  V30 1885 C 171.899 1.43882 0.829883 0
M  V30 1886 O 173.084 1.72775 0.809532 0
M  V30 1887 C 170.224 3.29258 1.03358 0
M  V30 1888 C 169.337 4.31192 0.26409 0
M  V30 1889 C 168.472 5.16825 1.22741 0
M  V30 1890 C 167.511 6.10462 0.447475 0
M  V30 1891 N 166.648 6.8877 1.36161 0
M  V30 1892 H 171.488 2.90096 -0.681781 0
M  V30 1893 H 169.025 1.42925 -0.347988 0
M  V30 1894 H 170.983 3.84886 1.60992 0
M  V30 1895 H 169.613 2.71562 1.74511 0
M  V30 1896 H 168.665 3.77981 -0.428295 0
M  V30 1897 H 169.977 4.97619 -0.343052 0
M  V30 1898 H 169.131 5.77004 1.87487 0
M  V30 1899 H 167.87 4.50488 1.86847 0
M  V30 1900 H 166.875 5.49386 -0.213433 0
M  V30 1901 H 168.1 6.78837 -0.188968 0
M  V30 1902 H 166.046 6.25096 1.98975 0
M  V30 1903 H 165.963 7.51663 0.808656 0
M  V30 1904 H 167.231 7.53467 1.99769 0
M  V30 1905 N 171.46 0.379036 1.52974 0
M  V30 1906 C 172.709 -0.207612 2.00629 0
M  V30 1907 C 173.022 -1.48758 1.27006 0
M  V30 1908 O 174.228 -2.15365 1.65318 0
M  V30 1909 C 172.684 -0.42053 3.57435 0
M  V30 1910 C 172.292 0.845587 4.39948 0
M  V30 1911 C 174.036 -0.964102 4.13407 0
M  V30 1912 C 171.943 0.601513 5.88333 0
M  V30 1913 H 170.873 -0.0813591 0.749598 0
M  V30 1914 H 173.524 0.499853 1.76561 0
M  V30 1915 H 171.906 -1.18959 3.7771 0
M  V30 1916 H 173.08 1.61848 4.31442 0
M  V30 1917 H 171.395 1.31336 3.95145 0
M  V30 1918 H 173.992 -1.16225 5.21916 0
M  V30 1919 H 174.335 -1.93019 3.68849 0
M  V30 1920 H 174.868 -0.25487 3.96983 0
M  V30 1921 H 171.607 1.53831 6.37194 0
M  V30 1922 H 171.127 -0.132628 5.99653 0
M  V30 1923 H 172.806 0.232134 6.46583 0
M  V30 1924 N 172.938 -1.57226 0.108567 0
M  V30 1925 C 173.871 -2.10447 -0.882464 0
M  V30 1926 C 174.849 -1.01829 -1.26766 0
M  V30 1927 O 176.033 -1.29415 -1.37054 0
M  V30 1928 C 173.16 -2.59258 -2.17952 0
M  V30 1929 C 172.206 -3.79662 -1.94318 0
M  V30 1930 S 173.039 -5.22586 -1.16892 0
M  V30 1931 C 174.195 -5.74758 -2.47799 0
M  V30 1932 H 174.428 -2.94178 -0.429745 0
M  V30 1933 H 171.961 -1.54043 -0.105 0
M  V30 1934 H 173.919 -2.88036 -2.92482 0
M  V30 1935 H 172.58 -1.75728 -2.60343 0
M  V30 1936 H 171.773 -4.11928 -2.90399 0
M  V30 1937 H 171.375 -3.51446 -1.27913 0
M  V30 1938 H 173.667 -5.83846 -3.43701 0
M  V30 1939 H 174.61 -6.73027 -2.20093 0
M  V30 1940 H 175.018 -5.02763 -2.56689 0
M  V30 1941 N 174.416 0.165178 -1.56732 0
M  V30 1942 C 175.664 0.879068 -1.8198 0
M  V30 1943 C 175.985 1.82514 -0.686561 0
M  V30 1944 O 175.255 1.93694 0.293146 0
M  V30 1945 H 173.835 0.327608 -0.671329 0
M  V30 1946 H 176.497 0.163526 -1.94213 0
M  V30 1947 H 175.593 1.45228 -2.76252 0
M  V30 1948 N 175.894 1.51508 0.433938 0
M  V30 1949 C 176.827 1.67756 1.54704 0
M  V30 1950 C 177.805 0.525127 1.53887 0
M  V30 1951 O 178.989 0.749393 1.72963 0
M  V30 1952 C 176.116 1.69424 2.9328 0
M  V30 1953 C 175.162 2.90673 3.12108 0
M  V30 1954 S 175.995 4.51431 2.88046 0
M  V30 1955 C 177.151 4.55849 4.28897 0
M  V30 1956 H 177.384 2.61904 1.40689 0
M  V30 1957 H 174.917 1.41235 0.62386 0
M  V30 1958 H 176.875 1.7107 3.73156 0
M  V30 1959 H 175.536 0.764464 3.04655 0
M  V30 1960 H 174.729 2.88251 4.13434 0
M  V30 1961 H 174.331 2.86786 2.40062 0
M  V30 1962 H 176.623 4.31699 5.22152 0
M  V30 1963 H 177.566 5.57676 4.36351 0
M  V30 1964 H 177.974 3.85137 4.12711 0
M  V30 1965 N 177.372 -0.689602 1.41712 0
M  V30 1966 C 178.282 -1.83314 1.46401 0
M  V30 1967 C 179.298 -1.7036 0.35405 0
M  V30 1968 O 180.474 -1.92171 0.602692 0
M  V30 1969 C 177.539 -3.19344 1.34982 0
M  V30 1970 C 176.6 -3.44363 2.56344 0
M  V30 1971 C 175.833 -4.73904 2.45461 0
M  V30 1972 O 176.056 -5.508 1.48241 0
M  V30 1973 O 174.99 -4.99839 3.35328 0
M  V30 1974 H 178.816 -1.82314 2.42889 0
M  V30 1975 H 176.401 -0.843438 1.23315 0
M  V30 1976 H 178.283 -4.00547 1.3092 0
M  V30 1977 H 176.958 -3.21014 0.41612 0
M  V30 1978 H 175.865 -2.63067 2.65982 0
M  V30 1979 H 177.198 -3.47512 3.48563 0
M  V30 1980 N 178.85 -1.27639 -0.924453 0
M  V30 1981 C 180.097 -1.14167 -1.67249 0
M  V30 1982 C 180.425 0.311863 -1.91984 0
M  V30 1983 O 179.68 1.24425 -1.51053 0
M  V30 1984 C 179.979 -1.87407 -3.04325 0
M  V30 1985 C 179.645 -3.37249 -2.99289 0
M  V30 1986 C 178.307 -3.7812 -2.97622 0
M  V30 1987 C 180.659 -4.32845 -2.90336 0
M  V30 1988 C 177.987 -5.12944 -2.8479 0
M  V30 1989 C 180.339 -5.6773 -2.79045 0
M  V30 1990 C 179.003 -6.07889 -2.7573 0
M  V30 1991 H 178.273 -0.417766 -0.612007 0
M  V30 1992 H 180.92 -1.58286 -1.07786 0
M  V30 1993 H 179.225 -1.35805 -3.67511 0
M  V30 1994 H 180.922 -1.74408 -3.61086 0
M  V30 1995 H 177.512 -3.04748 -3.01374 0
M  V30 1996 H 181.696 -4.02239 -2.90719 0
M  V30 1997 H 176.952 -5.432 -2.80612 0
M  V30 1998 H 181.126 -6.41472 -2.71083 0
M  V30 1999 H 178.753 -7.12314 -2.65544 0
M  V30 2000 N 180.328 1.1314 -1.09713 0
M  V30 2001 C 181.553 1.88862 -0.857081 0
M  V30 2002 C 181.978 1.78729 0.586304 0
M  V30 2003 O 181.336 1.13692 1.41222 0
M  V30 2004 C 181.384 3.36325 -1.30069 0
M  V30 2005 O 180.488 4.09815 -0.461007 0
M  V30 2006 H 179.829 0.587108 -0.310162 0
M  V30 2007 H 182.359 1.43129 -1.46203 0
M  V30 2008 H 182.369 3.87157 -1.28738 0
M  V30 2009 H 181.044 3.43017 -2.35185 0
M  V30 2010 H 179.621 3.68986 -0.538888 0
M  V30 2011 N 181.806 0.884767 1.30421 0
M  V30 2012 C 182.716 0.355398 2.31892 0
M  V30 2013 C 183.732 -0.542261 1.65335 0
M  V30 2014 O 184.908 -0.435432 1.96637 0
M  V30 2015 C 181.973 -0.421661 3.44126 0
M  V30 2016 C 181.034 0.505727 4.26311 0
M  V30 2017 C 180.267 -0.234343 5.33185 0
M  V30 2018 O 180.49 -1.46045 5.51386 0
M  V30 2019 O 179.424 0.415443 6.00465 0
M  V30 2020 H 183.25 1.19685 2.79122 0
M  V30 2021 H 180.835 0.648596 1.34587 0
M  V30 2022 H 182.717 -0.861641 4.12497 0
M  V30 2023 H 181.392 -1.23942 2.99032 0
M  V30 2024 H 180.299 0.994513 3.60639 0
M  V30 2025 H 181.632 1.28948 4.75009 0
M  V30 2026 N 183.284 -1.43765 0.645699 0
M  V30 2027 C 184.194 -2.34544 -0.0512957 0
M  V30 2028 C 185.21 -1.53455 -0.82022 0
M  V30 2029 O 186.386 -1.86133 -0.769176 0
M  V30 2030 C 183.451 -3.31636 -1.01087 0
M  V30 2031 C 182.512 -4.2863 -0.239712 0
M  V30 2032 C 181.745 -5.21084 -1.15358 0
M  V30 2033 O 181.968 -5.1779 -2.39269 0
M  V30 2034 O 180.902 -5.98593 -0.630038 0
M  V30 2035 H 184.728 -2.95624 0.695718 0
M  V30 2036 H 182.313 -1.43781 0.405882 0
M  V30 2037 H 184.195 -3.9136 -1.56254 0
M  V30 2038 H 182.87 -2.73069 -1.73824 0
M  V30 2039 H 181.777 -3.72408 0.355356 0
M  V30 2040 H 183.11 -4.90157 0.447936 0
M  V30 2041 N 184.763 -0.387143 -1.52771 0
M  V30 2042 C 185.71 0.449048 -2.26389 0
M  V30 2043 C 186.68 1.05961 -1.27912 0
M  V30 2044 O 187.865 1.08804 -1.56737 0
M  V30 2045 C 185.005 1.57155 -3.0724 0
M  V30 2046 C 184.118 0.984066 -4.20643 0
M  V30 2047 C 183.253 2.07745 -4.88892 0
M  V30 2048 C 182.292 1.46574 -5.94292 0
M  V30 2049 N 181.429 2.49834 -6.56146 0
M  V30 2050 H 186.269 -0.185205 -2.97424 0
M  V30 2051 H 183.806 -0.103164 -1.46738 0
M  V30 2052 H 185.764 2.23309 -3.52405 0
M  V30 2053 H 184.394 2.17615 -2.38419 0
M  V30 2054 H 183.446 0.212193 -3.79808 0
M  V30 2055 H 184.758 0.497029 -4.96318 0
M  V30 2056 H 183.912 2.81673 -5.3735 0
M  V30 2057 H 182.651 2.59807 -4.12737 0
M  V30 2058 H 181.656 0.711696 -5.45174 0
M  V30 2059 H 182.881 0.953088 -6.72379 0
M  V30 2060 H 180.827 3.0107 -5.82832 0
M  V30 2061 H 180.744 2.05879 -7.27427 0
M  V30 2062 H 182.012 3.23399 -7.09249 0
M  V30 2063 N 186.241 1.57166 -0.116904 0
M  V30 2064 C 187.49 1.94298 0.541407 0
M  V30 2065 C 187.803 1.00236 1.67964 0
M  V30 2066 O 189.009 1.26826 2.40057 0
M  V30 2067 C 187.465 3.45306 1.01449 0
M  V30 2068 C 187.073 4.47899 -0.0951738 0
M  V30 2069 C 188.817 3.91361 1.6443 0
M  V30 2070 C 186.724 5.90083 0.394491 0
M  V30 2071 H 185.654 0.725308 0.206019 0
M  V30 2072 H 188.305 1.82446 -0.196419 0
M  V30 2073 H 186.687 3.52385 1.80667 0
M  V30 2074 H 187.861 4.52486 -0.871374 0
M  V30 2075 H 186.176 4.11583 -0.631505 0
M  V30 2076 H 188.773 4.95004 2.02176 0
M  V30 2077 H 189.116 3.3122 2.52189 0
M  V30 2078 H 189.649 3.87073 0.917559 0
M  V30 2079 H 186.388 6.53974 -0.447004 0
M  V30 2080 H 185.908 5.88921 1.13722 0
M  V30 2081 H 187.587 6.41307 0.856399 0
M  V30 2082 N 187.719 -0.156864 1.56817 0
M  V30 2083 C 188.651 -1.21883 1.94106 0
M  V30 2084 C 189.664 -1.3971 0.835754 0
M  V30 2085 O 190.853 -1.39457 1.11418 0
M  V30 2086 C 187.953 -2.58527 2.19127 0
M  V30 2087 C 187.126 -2.61809 3.50393 0
M  V30 2088 C 186.185 -3.7992 3.64071 0
M  V30 2089 O 185.211 -3.65249 4.36557 0
M  V30 2090 N 186.413 -4.96973 2.99997 0
M  V30 2091 H 189.178 -0.901974 2.85805 0
M  V30 2092 H 186.739 -0.346513 1.58148 0
M  V30 2093 H 188.731 -3.36034 2.25529 0
M  V30 2094 H 187.301 -2.82545 1.33742 0
M  V30 2095 H 186.521 -1.7029 3.5552 0
M  V30 2096 H 187.809 -2.61024 4.36742 0
M  V30 2097 H 187.207 -5.11794 2.41004 0
M  V30 2098 H 185.764 -5.7229 3.11974 0
M  V30 2099 N 189.197 -1.51736 -0.425897 0
M  V30 2100 C 190.427 -1.68549 -1.19476 0
M  V30 2101 C 190.835 -0.387288 -1.85194 0
M  V30 2102 O 190.178 0.645142 -1.71999 0
M  V30 2103 C 190.24 -2.75275 -2.31223 0
M  V30 2104 C 189.904 -4.17534 -1.8578 0
M  V30 2105 C 190.901 -5.01936 -1.35485 0
M  V30 2106 C 188.586 -4.6369 -1.93123 0
M  V30 2107 C 190.58 -6.30559 -0.931347 0
M  V30 2108 C 188.267 -5.92307 -1.50384 0
M  V30 2109 C 189.265 -6.75569 -1.00473 0
M  V30 2110 O 188.953 -8.0178 -0.583452 0
M  V30 2111 H 188.685 -0.568525 -0.365725 0
M  V30 2112 H 191.239 -1.98982 -0.509444 0
M  V30 2113 H 189.469 -2.40182 -3.03067 0
M  V30 2114 H 191.158 -2.80853 -2.93047 0
M  V30 2115 H 191.924 -4.67475 -1.29197 0
M  V30 2116 H 187.803 -3.98997 -2.30916 0
M  V30 2117 H 191.347 -6.95498 -0.541084 0
M  V30 2118 H 187.244 -6.2628 -1.56346 0
M  V30 2119 H 188.012 -8.1543 -0.708275 0
M  V30 2120 N 190.675 0.682077 -1.42076 0
M  V30 2121 C 191.605 1.80796 -1.47767 0
M  V30 2122 C 192.586 1.6677 -0.334954 0
M  V30 2123 O 193.771 1.863 -0.548264 0
M  V30 2124 C 190.901 3.19038 -1.37229 0
M  V30 2125 C 189.855 3.47789 -2.49453 0
M  V30 2126 C 189.181 4.8553 -2.23975 0
M  V30 2127 C 190.481 3.45411 -3.91776 0
M  V30 2128 H 192.175 1.7629 -2.41997 0
M  V30 2129 H 189.721 0.846721 -1.16476 0
M  V30 2130 H 191.674 3.97528 -1.39821 0
M  V30 2131 H 190.398 3.24204 -0.394907 0
M  V30 2132 H 189.057 2.71657 -2.46166 0
M  V30 2133 H 188.705 4.87337 -1.24547 0
M  V30 2134 H 188.405 5.0573 -2.99184 0
M  V30 2135 H 189.929 5.66312 -2.28304 0
M  V30 2136 H 191.343 4.13882 -3.96705 0
M  V30 2137 H 189.74 3.77145 -4.66778 0
M  V30 2138 H 190.81 2.44122 -4.18966 0
M  V30 2139 N 192.153 1.28127 0.917671 0
M  V30 2140 C 193.399 1.15223 1.66888 0
M  V30 2141 C 193.732 -0.299293 1.9188 0
M  V30 2142 O 193.007 -1.21805 1.51637 0
M  V30 2143 C 193.29 1.94706 3.02922 0
M  V30 2144 C 193.143 3.47898 2.85109 0
M  V30 2145 C 194.462 1.75939 4.03402 0
M  V30 2146 H 191.581 0.419946 0.605652 0
M  V30 2147 H 194.223 1.57398 1.06423 0
M  V30 2148 H 192.373 1.58864 3.54534 0
M  V30 2149 H 194.045 3.93624 2.40537 0
M  V30 2150 H 192.288 3.7373 2.20246 0
M  V30 2151 H 192.959 3.98765 3.81694 0
M  V30 2152 H 195.435 2.07209 3.60837 0
M  V30 2153 H 194.311 2.33931 4.96556 0
M  V30 2154 H 194.572 0.709877 4.36364 0
M  V30 2155 N 193.631 -1.12557 1.10312 0
M  V30 2156 C 194.861 -1.87592 0.865617 0
M  V30 2157 C 195.269 -1.79851 -0.587389 0
M  V30 2158 O 194.612 -1.16949 -1.41664 0
M  V30 2159 C 194.674 -3.37665 1.23381 0
M  V30 2160 C 194.338 -3.69181 2.69359 0
M  V30 2161 C 195.335 -3.67652 3.67597 0
M  V30 2162 C 193.02 -3.98555 3.05711 0
M  V30 2163 C 195.014 -3.95053 5.00212 0
M  V30 2164 C 192.701 -4.25616 4.38514 0
M  V30 2165 C 193.699 -4.23851 5.35574 0
M  V30 2166 O 193.387 -4.50242 6.65986 0
M  V30 2167 H 193.119 -0.600442 0.310557 0
M  V30 2168 H 195.673 -1.4335 1.47105 0
M  V30 2169 H 193.903 -3.82454 0.571467 0
M  V30 2170 H 195.592 -3.94041 0.973994 0
M  V30 2171 H 196.358 -3.45024 3.40857 0
M  V30 2172 H 192.237 -3.99071 2.30789 0
M  V30 2173 H 195.781 -3.93591 5.75962 0
M  V30 2174 H 191.678 -4.47718 4.64994 0
M  V30 2175 H 192.446 -4.67867 6.71597 0
M  V30 2176 N 195.109 -0.891671 -1.2995 0
M  V30 2177 C 196.041 -0.320695 -2.26945 0
M  V30 2178 C 197.054 0.528497 -1.53983 0
M  V30 2179 O 198.243 0.346959 -1.75096 0
M  V30 2180 C 195.343 0.562066 -3.34207 0
M  V30 2181 C 194.516 -0.259576 -4.36629 0
M  V30 2182 C 193.575 0.554739 -5.23268 0
M  V30 2183 O 192.601 -0.0249311 -5.69195 0
M  V30 2184 N 193.803 1.8625 -5.4981 0
M  V30 2185 H 196.568 -1.15432 -2.76578 0
M  V30 2186 H 194.129 -0.755336 -1.432 0
M  V30 2187 H 196.121 1.11304 -3.89093 0
M  V30 2188 H 194.691 1.29637 -2.84452 0
M  V30 2189 H 193.911 -0.991986 -3.81514 0
M  V30 2190 H 195.199 -0.822564 -5.02107 0
M  V30 2191 H 194.597 2.35628 -5.14292 0
M  V30 2192 H 193.154 2.36078 -6.07545 0
M  V30 2193 N 196.587 1.43421 -0.653314 0
M  V30 2194 C 197.52 2.2803 0.0879804 0
M  V30 2195 C 198.498 1.39833 0.82979 0
M  V30 2196 O 199.682 1.69275 0.829341 0
M  V30 2197 C 196.809 3.19247 1.13132 0
M  V30 2198 C 195.855 4.23704 0.487546 0
M  V30 2199 S 196.688 5.30377 -0.738961 0
M  V30 2200 C 197.844 6.25162 0.30384 0
M  V30 2201 H 198.077 2.90554 -0.629739 0
M  V30 2202 H 195.61 1.47934 -0.442156 0
M  V30 2203 H 197.568 3.72346 1.72827 0
M  V30 2204 H 196.229 2.55901 1.82136 0
M  V30 2205 H 195.422 4.87631 1.27407 0
M  V30 2206 H 195.024 3.73983 -0.0352915 0
M  V30 2207 H 197.316 6.67321 1.17 0
M  V30 2208 H 198.259 7.07463 -0.300402 0
M  V30 2209 H 198.667 5.60864 0.63969 0
M  V30 2210 N 198.065 0.39524 1.52563 0
M  V30 2211 C 198.995 -0.428384 2.29537 0
M  V30 2212 C 199.976 -1.05831 1.33169 0
M  V30 2213 O 201.161 -1.06995 1.62067 0
M  V30 2214 C 198.291 -1.55274 3.10656 0
M  V30 2215 C 197.245 -1.04855 4.14957 0
M  V30 2216 C 196.571 -2.26543 4.84337 0
M  V30 2217 C 197.871 -0.112324 5.22179 0
M  V30 2218 H 199.565 0.213867 2.98635 0
M  V30 2219 H 197.111 0.104298 1.43622 0
M  V30 2220 H 199.064 -2.1358 3.63265 0
M  V30 2221 H 197.788 -2.22266 2.39302 0
M  V30 2222 H 196.447 -0.487985 3.63338 0
M  V30 2223 H 196.095 -2.92059 4.09525 0
M  V30 2224 H 195.795 -1.93466 5.54837 0
M  V30 2225 H 197.319 -2.85481 5.39753 0
M  V30 2226 H 198.733 -0.603752 5.70112 0
M  V30 2227 H 197.13 0.128968 5.99961 0
M  V30 2228 H 198.2 0.837052 4.77621 0
M  V30 2229 N 199.544 -1.57102 0.125237 0
M  V30 2230 C 200.491 -2.15641 -0.822655 0
M  V30 2231 C 201.461 -1.08313 -1.25927 0
M  V30 2232 O 202.646 -1.36251 -1.33567 0
M  V30 2233 C 199.786 -2.76504 -2.06494 0
M  V30 2234 C 198.899 -3.98158 -1.67612 0
M  V30 2235 C 198.034 -4.47088 -2.86854 0
M  V30 2236 C 197.073 -5.6126 -2.44242 0
M  V30 2237 N 196.21 -6.04905 -3.56419 0
M  V30 2238 H 201.05 -2.96313 -0.316625 0
M  V30 2239 H 198.587 -1.46388 -0.144588 0
M  V30 2240 H 200.545 -3.09925 -2.79289 0
M  V30 2241 H 199.175 -1.98512 -2.54545 0
M  V30 2242 H 198.227 -3.70858 -0.846661 0
M  V30 2243 H 199.539 -4.80934 -1.32301 0
M  V30 2244 H 198.693 -4.82451 -3.67867 0
M  V30 2245 H 197.432 -3.63275 -3.25396 0
M  V30 2246 H 196.437 -5.25495 -1.61663 0
M  V30 2247 H 197.662 -6.46843 -2.0681 0
M  V30 2248 H 195.608 -5.24032 -3.94623 0
M  V30 2249 H 195.525 -6.82552 -3.25051 0
M  V30 2250 H 196.793 -6.44907 -4.37853 0
M  V30 2251 N 201.022 0.148545 -1.56898 0
M  V30 2252 C 202.27 0.859717 -1.82902 0
M  V30 2253 C 202.591 1.81775 -0.70588 0
M  V30 2254 O 201.861 1.93994 0.272586 0
M  V30 2255 H 200.441 0.320469 -0.674766 0
M  V30 2256 H 203.103 0.142918 -1.94375 0
M  V30 2257 H 202.199 1.4229 -2.77777 0
M  V30 2258 N 202.5 1.5196 0.417844 0
M  V30 2259 C 203.43 1.77634 1.51554 0
M  V30 2260 C 204.411 0.626918 1.58126 0
M  V30 2261 O 205.596 0.871632 1.7354 0
M  V30 2262 C 202.726 1.91911 2.8946 0
M  V30 2263 C 201.68 3.07463 2.97743 0
M  V30 2264 C 201.006 3.06951 4.37819 0
M  V30 2265 C 202.306 4.47082 2.70027 0
M  V30 2266 H 204 2.6955 1.3032 0
M  V30 2267 H 201.546 1.29706 0.625492 0
M  V30 2268 H 203.499 2.08455 3.6623 0
M  V30 2269 H 202.223 0.966598 3.11969 0
M  V30 2270 H 200.882 2.90656 2.23416 0
M  V30 2271 H 200.53 2.09438 4.57323 0
M  V30 2272 H 200.23 3.84556 4.44286 0
M  V30 2273 H 201.754 3.25613 5.16535 0
M  V30 2274 H 203.168 4.6414 3.36522 0
M  V30 2275 H 201.565 5.2654 2.87881 0
M  V30 2276 H 202.635 4.55777 1.65514 0
M  V30 2277 N 203.978 -0.674533 1.42435 0
M  V30 2278 C 204.925 -1.78807 1.45934 0
M  V30 2279 C 205.895 -1.63157 0.311271 0
M  V30 2280 O 207.08 -1.83707 0.515383 0
M  V30 2281 C 204.22 -3.16839 1.36773 0
M  V30 2282 C 203.333 -3.43774 2.61617 0
M  V30 2283 C 202.468 -4.71536 2.44597 0
M  V30 2284 C 201.507 -4.91505 3.64814 0
M  V30 2285 N 200.644 -6.10508 3.46734 0
M  V30 2286 H 205.484 -1.75151 2.41093 0
M  V30 2287 H 203.021 -0.85504 1.19697 0
M  V30 2288 H 204.979 -3.96606 1.29459 0
M  V30 2289 H 203.609 -3.19619 0.452089 0
M  V30 2290 H 202.661 -2.58259 2.79297 0
M  V30 2291 H 203.973 -3.54423 3.50978 0
M  V30 2292 H 203.127 -5.59393 2.3487 0
M  V30 2293 H 201.866 -4.6317 1.52726 0
M  V30 2294 H 200.871 -4.0209 3.74972 0
M  V30 2295 H 202.096 -5.01716 4.57665 0
M  V30 2296 H 200.042 -6.03315 2.5758 0
M  V30 2297 H 199.959 -6.2202 4.29682 0
M  V30 2298 H 201.227 -7.01044 3.40819 0
M  V30 2299 N 205.456 -1.28612 -0.910864 0
M  V30 2300 C 206.686 -1.1862 -1.69153 0
M  V30 2301 C 207.094 0.257324 -1.87442 0
M  V30 2302 O 206.437 1.18543 -1.40332 0
M  V30 2303 C 206.499 -1.81606 -3.10257 0
M  V30 2304 C 206.163 -3.30864 -3.15243 0
M  V30 2305 C 207.16 -4.27256 -2.96223 0
M  V30 2306 C 204.845 -3.71871 -3.37664 0
M  V30 2307 C 206.839 -5.62631 -2.99541 0
M  V30 2308 C 204.526 -5.07371 -3.40614 0
M  V30 2309 C 205.524 -6.02561 -3.21573 0
M  V30 2310 O 205.212 -7.35589 -3.2429 0
M  V30 2311 H 204.944 -0.412633 -0.535453 0
M  V30 2312 H 207.498 -1.70306 -1.14827 0
M  V30 2313 H 205.728 -1.24418 -3.66138 0
M  V30 2314 H 207.417 -1.66092 -3.70362 0
M  V30 2315 H 208.183 -3.9691 -2.78725 0
M  V30 2316 H 204.062 -2.98241 -3.5153 0
M  V30 2317 H 207.606 -6.36907 -2.84597 0
M  V30 2318 H 203.503 -5.37366 -3.57642 0
M  V30 2319 H 204.271 -7.44252 -3.40633 0
M  V30 2320 N 206.934 1.1197 -1.10907 0
M  V30 2321 C 208.183 1.82947 -0.849302 0
M  V30 2322 C 208.496 1.85275 0.627112 0
M  V30 2323 O 209.702 2.52296 1.00295 0
M  V30 2324 C 208.158 3.28529 -1.46959 0
M  V30 2325 C 207.766 3.34546 -2.97965 0
M  V30 2326 C 209.51 4.04443 -1.28942 0
M  V30 2327 C 207.417 4.74491 -3.53004 0
M  V30 2328 H 206.347 0.685477 -0.314065 0
M  V30 2329 H 208.998 1.2604 -1.33365 0
M  V30 2330 H 207.38 3.85333 -0.912917 0
M  V30 2331 H 208.554 2.87654 -3.59989 0
M  V30 2332 H 206.869 2.72108 -3.15192 0
M  V30 2333 H 209.466 5.07787 -1.67502 0
M  V30 2334 H 209.809 4.15656 -0.231456 0
M  V30 2335 H 210.342 3.5401 -1.81443 0
M  V30 2336 H 207.081 4.68474 -4.58489 0
M  V30 2337 H 206.601 5.21816 -2.9575 0
M  V30 2338 H 208.28 5.4344 -3.51115 0
M  V30 2339 N 208.412 0.89855 1.29475 0
M  V30 2340 C 209.362 0.346767 2.25348 0
M  V30 2341 C 210.346 -0.532509 1.51833 0
M  V30 2342 O 211.538 -0.374714 1.72988 0
M  V30 2343 C 208.667 -0.425681 3.40651 0
M  V30 2344 C 207.753 0.46845 4.21505 0
M  V30 2345 N 208.144 1.57514 4.80648 0
M  V30 2346 C 206.442 0.26603 4.45206 0
M  V30 2347 C 207.143 2.12889 5.41344 0
M  V30 2348 N 206.119 1.42208 5.24669 0
M  V30 2349 H 209.921 1.19219 2.68634 0
M  V30 2350 H 207.435 0.749473 1.44072 0
M  V30 2351 H 209.432 -0.837716 4.08397 0
M  V30 2352 H 208.092 -1.26838 2.98902 0
M  V30 2353 H 209.103 1.95789 4.79465 0
M  V30 2354 H 205.78 -0.538394 4.14014 0
M  V30 2355 H 207.17 3.05901 5.98226 0
M  V30 2356 N 209.89 -1.43072 0.660911 0
M  V30 2357 C 211.115 -2.06584 0.183805 0
M  V30 2358 C 211.54 -1.49257 -1.14472 0
M  V30 2359 O 210.898 -0.605528 -1.70889 0
M  V30 2360 C 210.946 -3.60418 0.114434 0
M  V30 2361 O 210.05 -4.01981 -0.921137 0
M  V30 2362 H 209.391 -0.656669 0.0983994 0
M  V30 2363 H 211.921 -1.83447 0.906006 0
M  V30 2364 H 211.931 -4.07946 -0.0663394 0
M  V30 2365 H 210.606 -4.01519 1.08422 0
M  V30 2366 H 209.183 -3.66029 -0.71253 0
M  V30 2367 N 211.368 -0.403325 -1.52352 0
M  V30 2368 C 212.331 0.413051 -2.25447 0
M  V30 2369 C 213.331 0.978513 -1.276 0
M  V30 2370 O 214.521 0.858305 -1.51587 0
M  V30 2371 C 211.653 1.58087 -3.02029 0
M  V30 2372 H 212.846 -0.227094 -2.99039 0
M  V30 2373 H 210.399 -0.155722 -1.55522 0
M  V30 2374 H 211.134 2.25804 -2.32772 0
M  V30 2375 H 210.919 1.18195 -3.73861 0
M  V30 2376 H 212.409 2.1585 -3.57489 0
M  V30 2377 N 212.846 1.57033 -0.133567 0
M  V30 2378 C 214.094 1.953 0.519848 0
M  V30 2379 C 214.415 1.01866 1.66278 0
M  V30 2380 O 213.685 0.0776513 1.95746 0
M  V30 2381 H 212.265 0.721091 0.195032 0
M  V30 2382 H 214.927 1.93809 -0.205921 0
M  V30 2383 H 214.023 2.98695 0.904854 0
M  V30 2384 N 214.325 -0.140222 1.56975 0
M  V30 2385 C 215.571 -0.852949 1.83991 0
M  V30 2386 C 215.904 -1.80512 0.716187 0
M  V30 2387 O 215.179 -1.92479 -0.279681 0
M  V30 2388 C 215.462 -1.6215 3.21527 0
M  V30 2389 C 215.315 -0.690363 4.4447 0
M  V30 2390 C 216.634 -2.58247 3.56366 0
M  V30 2391 H 213.753 -0.308634 0.669264 0
M  V30 2392 H 216.395 -0.117898 1.89634 0
M  V30 2393 H 214.545 -2.24812 3.16847 0
M  V30 2394 H 216.217 -0.0742264 4.6124 0
M  V30 2395 H 214.46 -0.000396433 4.338 0
M  V30 2396 H 215.131 -1.2643 5.37326 0
M  V30 2397 H 217.607 -2.05701 3.61699 0
M  V30 2398 H 216.483 -3.09067 4.53617 0
M  V30 2399 H 216.744 -3.39923 2.82674 0
M  V30 2400 N 215.803 -1.52179 -0.40978 0
M  V30 2401 C 217.049 -1.66453 -1.15851 0
M  V30 2402 C 217.382 -0.392972 -1.90182 0
M  V30 2403 O 216.657 0.608579 -1.84734 0
M  V30 2404 C 216.94 -2.88612 -2.15349 0
M  V30 2405 C 216.793 -4.25815 -1.44918 0
M  V30 2406 C 218.112 -3.06294 -3.16026 0
M  V30 2407 H 215.231 -0.60575 -0.419805 0
M  V30 2408 H 217.873 -1.84732 -0.444314 0
M  V30 2409 H 216.023 -2.73158 -2.76255 0
M  V30 2410 H 217.695 -4.52995 -0.871365 0
M  V30 2411 H 215.938 -4.27247 -0.751159 0
M  V30 2412 H 216.609 -5.07337 -2.17516 0
M  V30 2413 H 219.085 -3.20641 -2.65195 0
M  V30 2414 H 217.961 -3.93283 -3.8291 0
M  V30 2415 H 218.222 -2.19579 -3.83715 0
M  V30 2416 N 217.281 0.66697 -1.42791 0
M  V30 2417 C 218.231 1.77313 -1.43332 0
M  V30 2418 C 219.215 1.5801 -0.303586 0
M  V30 2419 O 220.407 1.68356 -0.546385 0
M  V30 2420 C 217.536 3.15822 -1.34578 0
M  V30 2421 C 216.622 3.40721 -2.52528 0
M  V30 2422 N 217.013 3.36162 -3.77927 0
M  V30 2423 C 215.311 3.71387 -2.46956 0
M  V30 2424 C 216.012 3.60762 -4.56318 0
M  V30 2425 N 214.988 3.81908 -3.86843 0
M  V30 2426 H 218.79 1.72193 -2.38174 0
M  V30 2427 H 216.304 0.868114 -1.3725 0
M  V30 2428 H 218.301 3.951 -1.33048 0
M  V30 2429 H 216.961 3.22133 -0.407453 0
M  V30 2430 H 217.972 3.15885 -4.10411 0
M  V30 2431 H 214.649 3.84897 -1.61743 0
M  V30 2432 H 216.039 3.63132 -5.65318 0
M  V30 2433 N 218.759 1.29093 0.90403 0
M  V30 2434 C 220.175 1.07011 1.1841 0
M  V30 2435 C 220.375 -0.181358 2.00682 0
M  V30 2436 O 219.431 -0.880331 2.36657 0
M  V30 2437 C 220.744 2.32311 1.90924 0
M  V30 2438 C 222.292 2.37587 2.03768 0
M  V30 2439 C 222.767 3.62679 2.79693 0
M  V30 2440 N 224.258 3.63376 2.87249 0
M  V30 2441 C 224.993 4.56848 3.46522 0
M  V30 2442 N 224.489 5.60648 4.06996 0
M  V30 2443 N 226.282 4.44426 3.44154 0
M  V30 2444 H 218.433 2.09412 0.354993 0
M  V30 2445 H 220.696 0.922181 0.219742 0
M  V30 2446 H 220.402 3.23536 1.37905 0
M  V30 2447 H 220.276 2.39483 2.91424 0
M  V30 2448 H 222.663 1.46853 2.55965 0
M  V30 2449 H 222.744 2.34403 1.02415 0
M  V30 2450 H 222.388 4.53762 2.28173 0
M  V30 2451 H 222.318 3.63119 3.81381 0
M  V30 2452 H 224.809 2.88321 2.44293 0
M  V30 2453 H 225.122 6.28101 4.50232 0
M  V30 2454 H 223.467 5.64463 4.05471 0
M  V30 2455 H 226.658 3.62529 2.96126 0
M  V30 2456 H 226.831 5.17457 3.90054 0
M  V30 2457 N 220.237 -1.11381 1.11499 0
M  V30 2458 C 221.514 -1.7955 0.775965 0
M  V30 2459 C 221.894 -1.97859 -0.73588 0
M  V30 2460 O 221.242 -1.56376 -1.66609 0
M  V30 2461 C 221.452 -3.13196 1.53977 0
M  V30 2462 C 222.8 -3.88227 1.71944 0
M  V30 2463 O 223.824 -3.22887 1.50407 0
M  V30 2464 O 222.683 -5.05477 2.07738 0
M  V30 2465 H 219.777 -0.777728 0.28119 0
M  V30 2466 H 222.323 -1.18118 1.21845 0
M  V30 2467 H 221.095 -2.95229 2.56818 0
M  V30 2468 H 220.718 -3.82342 1.09088 0
M  V30 2469 N 221.715 -0.905404 -1.28997 0
M  V30 2470 C 222.645 -0.404212 -2.29975 0
M  V30 2471 C 223.626 0.523784 -1.61835 0
M  V30 2472 O 224.811 0.433298 -1.89304 0
M  V30 2473 C 221.941 0.364042 -3.45387 0
M  V30 2474 C 220.895 -0.474048 -4.25367 0
M  V30 2475 C 220.221 0.422045 -5.33032 0
M  V30 2476 C 221.521 -1.72696 -4.92923 0
M  V30 2477 H 223.215 -1.24807 -2.72146 0
M  V30 2478 H 220.761 -0.601585 -1.30832 0
M  V30 2479 H 222.714 0.725447 -4.15109 0
M  V30 2480 H 221.438 1.24174 -3.02074 0
M  V30 2481 H 220.097 -0.81786 -3.57361 0
M  V30 2482 H 219.745 1.29804 -4.85963 0
M  V30 2483 H 219.445 -0.135057 -5.87445 0
M  V30 2484 H 220.969 0.779517 -6.05604 0
M  V30 2485 H 222.383 -1.43495 -5.55051 0
M  V30 2486 H 220.78 -2.22582 -5.57295 0
M  V30 2487 H 221.85 -2.45964 -4.17887 0
M  V30 2488 N 223.193 1.4272 -0.668489 0
M  V30 2489 C 224.14 2.30796 0.0137489 0
M  V30 2490 C 225.11 1.4561 0.799177 0
M  V30 2491 O 226.295 1.74453 0.772702 0
M  V30 2492 C 223.435 3.31377 0.963507 0
M  V30 2493 C 222.548 4.31655 0.172569 0
M  V30 2494 C 221.683 5.19312 1.1175 0
M  V30 2495 C 220.722 6.11274 0.317886 0
M  V30 2496 N 219.859 6.91504 1.2152 0
M  V30 2497 H 224.699 2.88585 -0.743161 0
M  V30 2498 H 222.236 1.42154 -0.378226 0
M  V30 2499 H 224.194 3.88214 1.52792 0
M  V30 2500 H 222.824 2.75202 1.68712 0
M  V30 2501 H 221.876 3.76988 -0.508374 0
M  V30 2502 H 223.188 4.96779 -0.448527 0
M  V30 2503 H 222.342 5.80851 1.75206 0
M  V30 2504 H 221.081 4.5435 1.77249 0
M  V30 2505 H 220.086 5.48809 -0.329918 0
M  V30 2506 H 221.311 6.78283 -0.332917 0
M  V30 2507 H 219.257 6.29176 1.85671 0
M  V30 2508 H 219.174 7.53209 0.649036 0
M  V30 2509 H 220.442 7.57535 1.83742 0
M  V30 2510 N 224.671 0.411399 1.52136 0
M  V30 2511 C 226.082 -0.0576826 1.86611 0
M  V30 2512 C 226.433 -1.44238 1.33003 0
M  V30 2513 O 225.558 -2.05759 0.670228 0
M  V30 2514 C 226.153 -0.111448 3.38617 0
M  V30 2515 C 224.712 -0.52487 3.72723 0
M  V30 2516 C 223.859 0.299176 2.75681 0
M  V30 2517 H 226.81 0.628368 1.4573 0
M  V30 2518 H 226.831 -0.926252 3.69054 0
M  V30 2519 H 226.343 0.896488 3.77604 0
M  V30 2520 H 224.444 -1.53936 3.39315 0
M  V30 2521 H 224.557 -0.267681 4.78352 0
M  V30 2522 H 222.921 -0.238814 2.53578 0
M  V30 2523 H 223.704 1.3055 3.17508 0
M  V30 2524 N 226.149 -1.5696 0.141893 0
M  V30 2525 C 227.397 -1.95573 -0.509484 0
M  V30 2526 C 227.718 -1.02746 -1.65736 0
M  V30 2527 O 226.988 -0.0880311 -1.95702 0
M  V30 2528 H 225.568 -0.722115 -0.191205 0
M  V30 2529 H 228.23 -1.93697 0.216196 0
M  V30 2530 H 227.326 -2.99171 -0.889 0
M  V30 2531 N 227.627 0.131896 -1.57047 0
M  V30 2532 C 228.575 1.18146 -2.0036 0
M  V30 2533 C 229.569 1.43614 -0.898406 0
M  V30 2534 O 230.775 1.43729 -1.08361 0
M  V30 2535 H 227.15 0.398042 -0.638018 0
M  V30 2536 H 229.121 0.789564 -2.87765 0
M  V30 2537 C 227.87 2.50341 -2.41298 0
M  V30 2538 H 227.193 2.31578 -3.25902 0
M  V30 2539 H 228.633 3.22371 -2.75414 0
M  V30 2540 C 227.092 3.11984 -1.27153 0
M  V30 2541 O 227.622 3.97484 -0.580459 0
M  V30 2542 N 225.828 2.71662 -1.03189 0
M  V30 2543 H 225.375 2.02231 -1.59564 0
M  V30 2544 H 225.333 3.13238 -0.270077 0
M  V30 2545 N 229.106 1.52395 0.401703 0
M  V30 2546 C 230.036 1.79231 1.49661 0
M  V30 2547 C 231.017 0.643654 1.57452 0
M  V30 2548 O 232.202 0.889989 1.72606 0
M  V30 2549 C 229.332 1.94971 2.87409 0
M  V30 2550 C 228.286 3.10604 2.94465 0
M  V30 2551 C 227.612 3.11577 4.34538 0
M  V30 2552 C 228.912 4.49921 2.6527 0
M  V30 2553 H 230.606 2.70917 1.27454 0
M  V30 2554 H 228.152 1.30362 0.6117 0
M  V30 2555 H 230.105 2.12328 3.63999 0
M  V30 2556 H 228.829 0.999632 3.10926 0
M  V30 2557 H 227.488 2.93009 2.20321 0
M  V30 2558 H 227.136 2.14277 4.55076 0
M  V30 2559 H 226.836 3.89247 4.40183 0
M  V30 2560 H 228.36 3.31073 5.13053 0
M  V30 2561 H 229.774 4.67683 3.31581 0
M  V30 2562 H 228.171 5.29564 2.82281 0
M  V30 2563 H 229.241 4.57507 1.60671 0
M  V30 2564 N 230.584 -0.659388 1.43143 0
M  V30 2565 C 231.547 -1.75432 1.47501 0
M  V30 2566 C 232.547 -1.56707 0.360512 0
M  V30 2567 O 233.737 -1.62717 0.622002 0
M  V30 2568 C 230.869 -3.14239 1.32162 0
M  V30 2569 H 232.062 -1.7295 2.45006 0
M  V30 2570 H 229.615 -0.870469 1.29817 0
M  V30 2571 H 230.35 -3.22336 0.356401 0
M  V30 2572 H 230.135 -3.29235 2.12948 0
M  V30 2573 H 231.625 -3.94094 1.3813 0
M  V30 2574 N 232.062 -1.29571 -0.897171 0
M  V30 2575 C 233.308 -1.17863 -1.65034 0
M  V30 2576 C 233.641 0.268729 -1.92332 0
M  V30 2577 O 232.916 1.19378 -1.53555 0
M  V30 2578 C 233.199 -1.995 -2.99786 0
M  V30 2579 C 233.052 -3.5239 -2.79538 0
M  V30 2580 C 234.371 -1.82335 -4.00552 0
M  V30 2581 H 231.49 -0.429528 -0.598895 0
M  V30 2582 H 234.132 -1.59072 -1.03905 0
M  V30 2583 H 232.282 -1.64485 -3.51962 0
M  V30 2584 H 233.954 -3.97401 -2.34244 0
M  V30 2585 H 232.197 -3.77187 -2.14273 0
M  V30 2586 H 232.868 -4.04787 -3.75302 0
M  V30 2587 H 235.344 -2.12924 -3.57495 0
M  V30 2588 H 234.22 -2.41801 -4.92771 0
M  V30 2589 H 234.481 -0.779209 -4.35179 0
M  V30 2590 N 233.54 1.10788 -1.12088 0
M  V30 2591 C 234.488 2.19111 -0.780587 0
M  V30 2592 C 235.482 1.67818 0.230961 0
M  V30 2593 O 236.688 1.79777 0.0895427 0
M  V30 2594 H 233.063 0.714477 -0.234578 0
M  V30 2595 H 235.034 2.45055 -1.70266 0
M  V30 2596 C 233.783 3.46818 -0.24747 0
M  V30 2597 H 233.106 3.86646 -1.01712 0
M  V30 2598 H 234.546 4.23973 -0.0476291 0
M  V30 2599 C 233.005 3.20968 1.02378 0
M  V30 2600 O 233.535 3.42298 2.10226 0
M  V30 2601 N 231.741 2.74658 0.949271 0
M  V30 2602 H 231.288 2.57501 0.0715173 0
M  V30 2603 H 231.246 2.57739 1.80049 0
M  V30 2604 N 235.018 0.912232 1.28515 0
M  V30 2605 C 235.928 0.404506 2.31086 0
M  V30 2606 C 236.944 -0.50707 1.66448 0
M  V30 2607 O 238.12 -0.393624 1.97516 0
M  V30 2608 C 235.185 -0.348572 3.44943 0
M  V30 2609 C 234.246 0.59604 4.25142 0
M  V30 2610 C 233.479 -0.121194 5.33562 0
M  V30 2611 O 233.702 -1.34317 5.5436 0
M  V30 2612 O 232.636 0.542716 5.99448 0
M  V30 2613 H 236.462 1.25579 2.76521 0
M  V30 2614 H 234.047 0.676998 1.33181 0
M  V30 2615 H 235.929 -0.77395 4.14232 0
M  V30 2616 H 234.604 -1.17571 3.01594 0
M  V30 2617 H 233.511 1.07079 3.58448 0
M  V30 2618 H 234.844 1.38995 4.72167 0
M  V30 2619 N 236.496 -1.42363 0.676048 0
M  V30 2620 C 237.773 -1.95183 0.127726 0
M  V30 2621 C 238.153 -1.61641 -1.35777 0
M  V30 2622 O 237.501 -0.913216 -2.09458 0
M  V30 2623 C 237.711 -3.46721 0.398199 0
M  V30 2624 C 239.059 -4.23427 0.315383 0
M  V30 2625 O 240.083 -3.54649 0.332016 0
M  V30 2626 O 238.942 -5.45888 0.25865 0
M  V30 2627 H 236.036 -0.826992 0.00359427 0
M  V30 2628 H 238.582 -1.52184 0.750864 0
M  V30 2629 H 237.354 -3.64344 1.4272 0
M  V30 2630 H 236.977 -3.96769 -0.256885 0
M  V30 2631 N 237.974 -0.419461 -1.51915 0
M  V30 2632 C 239.214 0.152336 -2.03832 0
M  V30 2633 C 239.578 1.41501 -1.29775 0
M  V30 2634 O 240.779 2.06591 -1.7197 0
M  V30 2635 C 239.05 0.383812 -3.55333 0
M  V30 2636 S 240.609 0.921577 -4.29013 0
M  V30 2637 H 237.427 0.0402193 -0.709862 0
M  V30 2638 H 240.029 -0.574758 -1.8686 0
M  V30 2639 H 238.733 -0.541794 -4.06808 0
M  V30 2640 H 238.264 1.13849 -3.76566 0
M  V30 2641 H 240.279 2.20108 -4.4471 0
M  V30 2642 N 239.452 1.56882 -0.150215 0
M  V30 2643 C 240.362 2.20494 0.801222 0
M  V30 2644 C 241.378 1.19019 1.26927 0
M  V30 2645 O 242.554 1.51607 1.32579 0
M  V30 2646 C 239.619 2.81659 2.02161 0
M  V30 2647 C 238.68 3.9827 1.60249 0
M  V30 2648 C 237.913 4.56508 2.7647 0
M  V30 2649 O 238.136 4.13627 3.92771 0
M  V30 2650 O 237.07 5.46719 2.51757 0
M  V30 2651 H 240.896 3.02315 0.289717 0
M  V30 2652 H 238.481 1.49202 0.0769684 0
M  V30 2653 H 240.363 3.20522 2.73576 0
M  V30 2654 H 239.038 2.02849 2.52258 0
M  V30 2655 H 237.945 3.64117 0.858477 0
M  V30 2656 H 239.278 4.78609 1.14864 0
M  V30 2657 N 240.93 -0.123565 1.57115 0
M  V30 2658 C 241.86 -1.15309 2.03042 0
M  V30 2659 C 242.841 -1.43454 0.914061 0
M  V30 2660 O 244.026 -1.53973 1.18347 0
M  V30 2661 C 241.156 -2.48043 2.43089 0
M  V30 2662 C 240.11 -2.3437 3.58127 0
M  V30 2663 C 239.436 -3.72026 3.84059 0
M  V30 2664 C 240.736 -1.80804 4.90007 0
M  V30 2665 H 242.43 -0.771102 2.893 0
M  V30 2666 H 239.976 -0.369479 1.39179 0
M  V30 2667 H 241.929 -3.20311 2.73823 0
M  V30 2668 H 240.653 -2.88122 1.53796 0
M  V30 2669 H 239.312 -1.64551 3.27595 0
M  V30 2670 H 238.96 -4.09582 2.91979 0
M  V30 2671 H 238.66 -3.63732 4.6149 0
M  V30 2672 H 240.184 -4.45806 4.1724 0
M  V30 2673 H 241.598 -2.42886 5.19307 0
M  V30 2674 H 239.995 -1.83343 5.71407 0
M  V30 2675 H 241.065 -0.76528 4.78823 0
M  V30 2676 N 242.408 -1.52605 -0.393616 0
M  V30 2677 C 243.355 -1.77055 -1.48054 0
M  V30 2678 C 244.325 -0.61358 -1.54352 0
M  V30 2679 O 245.51 -0.852806 -1.70681 0
M  V30 2680 C 242.65 -1.94108 -2.85335 0
M  V30 2681 C 241.763 -3.21792 -2.88226 0
M  V30 2682 C 240.898 -3.29188 -4.16904 0
M  V30 2683 C 239.937 -4.51013 -4.13828 0
M  V30 2684 N 239.074 -4.55716 -5.34105 0
M  V30 2685 H 243.914 -2.69815 -1.26506 0
M  V30 2686 H 241.451 -1.33683 -0.61379 0
M  V30 2687 H 243.409 -2.01979 -3.65049 0
M  V30 2688 H 242.039 -1.04713 -3.05344 0
M  V30 2689 H 241.091 -3.23015 -2.00911 0
M  V30 2690 H 242.403 -4.11557 -2.8182 0
M  V30 2691 H 241.557 -3.36216 -5.05018 0
M  V30 2692 H 240.296 -2.37389 -4.26026 0
M  V30 2693 H 239.301 -4.44115 -3.24102 0
M  V30 2694 H 240.526 -5.44123 -4.06333 0
M  V30 2695 H 238.472 -3.66807 -5.43865 0
M  V30 2696 H 238.389 -5.39346 -5.29756 0
M  V30 2697 H 239.657 -4.66993 -6.2413 0
M  V30 2698 N 243.887 0.651787 -1.4349 0
M  V30 2699 C 245.136 1.40754 -1.44469 0
M  V30 2700 C 245.449 1.95463 -0.0731845 0
M  V30 2701 O 246.655 2.71471 0.0395721 0
M  V30 2702 C 245.111 2.54735 -2.5424 0
M  V30 2703 C 244.719 2.06628 -3.97504 0
M  V30 2704 C 246.463 3.32092 -2.64414 0
M  V30 2705 C 244.37 3.17829 -4.98737 0
M  V30 2706 H 243.3 0.528862 -0.53742 0
M  V30 2707 H 245.951 0.703365 -1.69485 0
M  V30 2708 H 244.333 3.2763 -2.22428 0
M  V30 2709 H 245.507 1.40734 -4.38783 0
M  V30 2710 H 243.822 1.42146 -3.91387 0
M  V30 2711 H 246.419 4.14952 -3.37223 0
M  V30 2712 H 246.762 3.80217 -1.69532 0
M  V30 2713 H 247.295 2.66279 -2.95534 0
M  V30 2714 H 244.034 2.74671 -5.95177 0
M  V30 2715 H 243.554 3.82429 -4.62069 0
M  V30 2716 H 245.233 3.82937 -5.21505 0
M  V30 2717 N 245.365 1.30045 0.890287 0
M  V30 2718 C 246.295 1.18541 2.01172 0
M  V30 2719 C 247.276 0.0773356 1.69924 0
M  V30 2720 O 248.461 0.25845 1.92473 0
M  V30 2721 C 245.591 0.870941 3.36202 0
M  V30 2722 C 244.545 1.93637 3.81692 0
M  V30 2723 C 243.871 1.475 5.13953 0
M  V30 2724 C 245.171 3.34666 4.00994 0
M  V30 2725 H 246.865 2.12359 2.11054 0
M  V30 2726 H 244.411 1.02238 1.01407 0
M  V30 2727 H 246.364 0.777141 4.14172 0
M  V30 2728 H 245.088 -0.102926 3.26438 0
M  V30 2729 H 243.747 2.01972 3.05946 0
M  V30 2730 H 243.395 0.489551 5.00612 0
M  V30 2731 H 243.095 2.1876 5.4536 0
M  V30 2732 H 244.619 1.39489 5.94454 0
M  V30 2733 H 246.033 3.2912 4.69417 0
M  V30 2734 H 244.43 4.03966 4.43769 0
M  V30 2735 H 245.5 3.76949 3.05021 0
M  V30 2736 N 246.843 -1.10192 1.12674 0
M  V30 2737 C 248.12 -1.78717 0.794965 0
M  V30 2738 C 248.5 -1.98628 -0.714853 0
M  V30 2739 O 247.848 -1.58135 -1.64941 0
M  V30 2740 C 248.058 -3.11546 1.5729 0
M  V30 2741 C 249.406 -3.86382 1.76052 0
M  V30 2742 O 250.43 -3.21274 1.53823 0
M  V30 2743 O 249.289 -5.03246 2.13087 0
M  V30 2744 H 246.383 -0.774702 0.289423 0
M  V30 2745 H 248.929 -1.16819 1.23091 0
M  V30 2746 H 247.701 -2.92489 2.59935 0
M  V30 2747 H 247.324 -3.81164 1.13137 0
M  V30 2748 N 248.321 -0.919034 -1.28029 0
M  V30 2749 C 249.568 -0.554934 -1.94748 0
M  V30 2750 C 249.896 0.90231 -1.72304 0
M  V30 2751 O 249.151 1.65767 -1.04018 0
M  V30 2752 C 249.45 -0.816855 -3.4794 0
M  V30 2753 C 249.116 -2.25448 -3.90492 0
M  V30 2754 C 247.778 -2.64752 -4.01821 0
M  V30 2755 C 250.13 -3.18977 -4.12193 0
M  V30 2756 C 247.458 -3.96727 -4.32232 0
M  V30 2757 C 249.81 -4.50523 -4.44086 0
M  V30 2758 C 248.474 -4.89673 -4.53626 0
M  V30 2759 H 247.744 -0.203065 -0.712633 0
M  V30 2760 H 250.391 -1.16136 -1.52265 0
M  V30 2761 H 248.696 -0.127677 -3.91592 0
M  V30 2762 H 250.393 -0.514238 -3.97689 0
M  V30 2763 H 246.983 -1.93952 -3.82205 0
M  V30 2764 H 251.167 -2.89817 -4.02889 0
M  V30 2765 H 246.423 -4.26754 -4.37825 0
M  V30 2766 H 250.597 -5.23005 -4.59825 0
M  V30 2767 H 248.224 -5.91969 -4.76946 0
M  V30 2768 N 249.799 1.42003 -0.683588 0
M  V30 2769 C 251.047 2.01015 -0.209101 0
M  V30 2770 C 251.368 1.54365 1.19149 0
M  V30 2771 O 250.638 0.769083 1.80172 0
M  V30 2772 H 249.218 0.743294 -0.074315 0
M  V30 2773 H 251.88 1.73798 -0.882066 0
M  V30 2774 H 250.976 3.11343 -0.2172 0
M  V30 2775 N 251.277 0.427512 1.51691 0
M  V30 2776 C 252.207 -0.3796 2.30394 0
M  V30 2777 C 253.188 -1.02982 1.35384 0
M  V30 2778 O 254.373 -1.03534 1.643 0
M  V30 2779 C 251.503 -1.48649 3.1388 0
M  V30 2780 C 250.457 -0.960294 4.17088 0
M  V30 2781 C 249.783 -2.16219 4.89033 0
M  V30 2782 C 251.083 -0.00153679 5.223 0
M  V30 2783 H 252.777 0.277164 2.98114 0
M  V30 2784 H 250.323 0.134739 1.43368 0
M  V30 2785 H 252.276 -2.05826 3.67714 0
M  V30 2786 H 251 -2.1714 2.43962 0
M  V30 2787 H 249.659 -0.410806 3.64291 0
M  V30 2788 H 249.307 -2.83307 4.15628 0
M  V30 2789 H 249.007 -1.81654 5.58816 0
M  V30 2790 H 250.531 -2.73968 5.45687 0
M  V30 2791 H 251.945 -0.482687 5.71264 0
M  V30 2792 H 250.342 0.256199 5.99553 0
M  V30 2793 H 251.412 0.938174 4.75738 0
M  V30 2794 N 252.755 -1.56801 0.158532 0
M  V30 2795 C 253.718 -2.16138 -0.762705 0
M  V30 2796 C 254.718 -1.1061 -1.16713 0
M  V30 2797 O 255.908 -1.36191 -1.08617 0
M  V30 2798 C 253.04 -2.73386 -2.03649 0
M  V30 2799 H 254.233 -2.98886 -0.246354 0
M  V30 2800 H 251.786 -1.56035 -0.0909744 0
M  V30 2801 H 252.521 -1.94335 -2.59623 0
M  V30 2802 H 252.306 -3.50601 -1.75559 0
M  V30 2803 H 253.796 -3.19065 -2.6942 0
M  V30 2804 N 254.233 0.115231 -1.57178 0
M  V30 2805 C 255.649 0.468877 -1.52557 0
M  V30 2806 C 255.849 1.81649 -0.872125 0
M  V30 2807 O 254.905 2.48347 -0.45606 0
M  V30 2808 C 256.218 0.4499 -2.97315 0
M  V30 2809 C 257.766 0.533185 -3.08425 0
M  V30 2810 C 258.241 0.54456 -4.54751 0
M  V30 2811 N 259.732 0.605892 -4.5922 0
M  V30 2812 C 260.467 0.636203 -5.6986 0
M  V30 2813 N 259.963 0.623931 -6.89985 0
M  V30 2814 N 261.756 0.679496 -5.57978 0
M  V30 2815 H 253.907 -0.767712 -1.9804 0
M  V30 2816 H 256.17 -0.283609 -0.904583 0
M  V30 2817 H 255.876 -0.472721 -3.48509 0
M  V30 2818 H 255.75 1.27632 -3.5495 0
M  V30 2819 H 258.137 1.44623 -2.57232 0
M  V30 2820 H 258.218 -0.320995 -2.53778 0
M  V30 2821 H 257.862 -0.364452 -5.06591 0
M  V30 2822 H 257.792 1.41568 -5.07214 0
M  V30 2823 H 260.283 0.621386 -3.72756 0
M  V30 2824 H 260.596 0.649787 -7.70063 0
M  V30 2825 H 258.941 0.591296 -6.9248 0
M  V30 2826 H 262.132 0.686472 -4.63039 0
M  V30 2827 H 262.305 0.69965 -6.44212 0
M  V30 2828 N 255.711 1.52812 0.385517 0
M  V30 2829 C 256.661 1.74219 1.47078 0
M  V30 2830 C 257.645 0.59632 1.49442 0
M  V30 2831 O 258.837 0.85428 1.5502 0
M  V30 2832 C 255.966 1.9176 2.84751 0
M  V30 2833 C 255.052 3.12289 2.86943 0
M  V30 2834 N 255.443 4.34575 2.58802 0
M  V30 2835 C 253.741 3.12605 3.1811 0
M  V30 2836 C 254.442 5.162 2.68166 0
M  V30 2837 N 253.418 4.51964 3.02043 0
M  V30 2838 H 257.22 2.6639 1.24152 0
M  V30 2839 H 254.734 1.51166 0.593504 0
M  V30 2840 H 256.731 2.05218 3.62893 0
M  V30 2841 H 255.391 1.00805 3.08656 0
M  V30 2842 H 256.402 4.62649 2.32759 0
M  V30 2843 H 253.079 2.31472 3.47458 0
M  V30 2844 H 254.469 6.23689 2.49923 0
M  V30 2845 N 257.189 -0.644168 1.43834 0
M  V30 2846 C 258.152 -1.73857 1.49353 0
M  V30 2847 C 259.152 -1.56315 0.377112 0
M  V30 2848 O 260.342 -1.62048 0.639226 0
M  V30 2849 C 257.474 -3.12819 1.35488 0
M  V30 2850 H 258.667 -1.70342 2.46827 0
M  V30 2851 H 256.22 -0.856652 1.30733 0
M  V30 2852 H 256.955 -3.2194 0.390569 0
M  V30 2853 H 256.74 -3.26958 2.16428 0
M  V30 2854 H 258.23 -3.92606 1.42302 0
M  V30 2855 N 258.668 -1.30515 -0.883378 0
M  V30 2856 C 259.945 -1.10086 -1.6168 0
M  V30 2857 C 260.325 0.349269 -2.08191 0
M  V30 2858 O 259.673 1.34105 -1.85008 0
M  V30 2859 C 259.883 -2.10315 -2.78511 0
M  V30 2860 C 261.231 -2.42119 -3.48803 0
M  V30 2861 O 262.255 -2.08638 -2.88702 0
M  V30 2862 O 261.114 -2.99396 -4.57192 0
M  V30 2863 H 258.208 -0.422907 -0.710689 0
M  V30 2864 H 260.754 -1.41947 -0.930015 0
M  V30 2865 H 259.526 -3.07917 -2.41459 0
M  V30 2866 H 259.149 -1.79282 -3.54886 0
M  V30 2867 N 260.146 1.09593 -1.13257 0
M  V30 2868 C 261.109 2.14359 -0.811358 0
M  V30 2869 C 262.109 1.59808 0.178377 0
M  V30 2870 O 263.299 1.74132 -0.0484911 0
M  V30 2871 C 260.431 3.40269 -0.207276 0
M  V30 2872 H 261.624 2.44284 -1.73969 0
M  V30 2873 H 259.177 1.25102 -0.936973 0
M  V30 2874 H 259.912 3.15969 0.73036 0
M  V30 2875 H 259.697 3.81154 -0.919992 0
M  V30 2876 H 261.187 4.176 0.000667944 0
M  V30 2877 N 261.624 0.925811 1.2754 0
M  V30 2878 C 262.534 0.428993 2.30644 0
M  V30 2879 C 263.55 -0.489387 1.66976 0
M  V30 2880 O 264.726 -0.372653 1.97922 0
M  V30 2881 C 261.791 -0.311967 3.45294 0
M  V30 2882 C 260.852 0.641098 4.24486 0
M  V30 2883 C 260.085 -0.0645955 5.33661 0
M  V30 2884 O 260.308 -1.28429 5.55754 0
M  V30 2885 O 259.242 0.606265 5.98839 0
M  V30 2886 H 263.068 1.28504 2.75173 0
M  V30 2887 H 260.653 0.691086 1.32455 0
M  V30 2888 H 262.535 -0.729972 4.15029 0
M  V30 2889 H 261.21 -1.14365 3.02824 0
M  V30 2890 H 260.117 1.10874 3.57292 0
M  V30 2891 H 261.45 1.43995 4.70666 0
M  V30 2892 N 263.102 -1.41638 0.69111 0
M  V30 2893 C 264.035 -2.28183 -0.0274913 0
M  V30 2894 C 265.013 -1.41984 -0.792424 0
M  V30 2895 O 266.197 -1.71415 -0.784169 0
M  V30 2896 C 263.324 -3.22135 -1.04628 0
M  V30 2897 C 262.37 -4.24848 -0.375037 0
M  V30 2898 S 263.203 -5.28231 0.879321 0
M  V30 2899 C 264.359 -6.25748 -0.137983 0
M  V30 2900 H 264.592 -2.88782 0.706553 0
M  V30 2901 H 262.125 -1.46709 0.481222 0
M  V30 2902 H 264.083 -3.76797 -1.62894 0
M  V30 2903 H 262.744 -2.6064 -1.75287 0
M  V30 2904 H 261.937 -4.90837 -1.14433 0
M  V30 2905 H 261.539 -3.73758 0.134434 0
M  V30 2906 H 263.831 -6.70188 -0.992659 0
M  V30 2907 H 264.774 -7.06417 0.487867 0
M  V30 2908 H 265.182 -5.62363 -0.490762 0
M  V30 2909 N 264.58 -0.43555 -1.51462 0
M  V30 2910 C 265.808 0.130242 -2.0649 0
M  V30 2911 C 266.223 1.36614 -1.30315 0
M  V30 2912 O 265.58 1.78869 -0.362223 0
M  V30 2913 C 265.631 0.454253 -3.58635 0
M  V30 2914 O 265.352 -0.73259 -4.31931 0
M  V30 2915 C 266.853 1.07091 -4.3017 0
M  V30 2916 H 264.073 0.00871669 -0.670943 0
M  V30 2917 H 266.617 -0.614117 -1.95061 0
M  V30 2918 H 264.772 1.14851 -3.69984 0
M  V30 2919 H 265.186 -0.455787 -5.22516 0
M  V30 2920 H 266.66 1.24764 -5.37716 0
M  V30 2921 H 267.137 2.05144 -3.88346 0
M  V30 2922 H 267.743 0.416089 -4.2326 0
M  V30 2923 N 266.058 1.56714 -0.166846 0
M  V30 2924 C 267.306 1.96358 0.478305 0
M  V30 2925 C 267.627 1.0537 1.6408 0
M  V30 2926 O 266.897 0.119154 1.95537 0
M  V30 2927 H 265.477 0.725065 0.179692 0
M  V30 2928 H 268.139 1.93329 -0.246985 0
M  V30 2929 H 267.235 3.00547 0.841292 0
M  V30 2930 N 267.536 -0.106894 1.57237 0
M  V30 2931 C 268.766 -0.825191 1.89405 0
M  V30 2932 C 269.174 -1.73374 0.757496 0
M  V30 2933 O 268.517 -1.81552 -0.280115 0
M  V30 2934 C 268.579 -1.70102 3.1671 0
M  V30 2935 C 268.243 -0.965523 4.46684 0
M  V30 2936 C 269.24 -0.300741 5.19029 0
M  V30 2937 C 266.925 -0.943105 4.93367 0
M  V30 2938 C 268.919 0.376622 6.36286 0
M  V30 2939 C 266.606 -0.261949 6.10538 0
M  V30 2940 C 267.604 0.396748 6.81847 0
M  V30 2941 O 267.292 1.06701 7.96787 0
M  V30 2942 H 267.024 -0.241852 0.631255 0
M  V30 2943 H 269.578 -0.0921491 2.05193 0
M  V30 2944 H 267.808 -2.47601 2.97036 0
M  V30 2945 H 269.497 -2.29483 3.34802 0
M  V30 2946 H 270.263 -0.309599 4.84011 0
M  V30 2947 H 266.142 -1.44524 4.3776 0
M  V30 2948 H 269.686 0.891334 6.91882 0
M  V30 2949 H 265.583 -0.250896 6.45012 0
M  V30 2950 H 266.351 0.972707 8.127 0
M  V30 2951 N 269.014 -1.53014 -0.377408 0
M  V30 2952 C 270.26 -1.68872 -1.12294 0
M  V30 2953 C 270.593 -0.433224 -1.89306 0
M  V30 2954 O 269.868 0.569258 -1.85983 0
M  V30 2955 C 270.151 -2.93115 -2.09179 0
M  V30 2956 C 270.004 -4.28794 -1.35853 0
M  V30 2957 C 271.323 -3.12928 -3.09458 0
M  V30 2958 H 268.442 -0.614518 -0.406862 0
M  V30 2959 H 271.084 -1.85633 -0.40503 0
M  V30 2960 H 269.234 -2.78956 -2.70399 0
M  V30 2961 H 270.906 -4.54742 -0.775082 0
M  V30 2962 H 269.149 -4.28744 -0.660364 0
M  V30 2963 H 269.82 -5.11837 -2.06706 0
M  V30 2964 H 272.296 -3.26194 -2.58334 0
M  V30 2965 H 271.172 -4.01316 -3.74482 0
M  V30 2966 H 271.433 -2.27669 -3.78971 0
M  V30 2967 N 270.492 0.636531 -1.44174 0
M  V30 2968 C 271.738 1.39826 -1.4689 0
M  V30 2969 C 272.071 1.93947 -0.0990585 0
M  V30 2970 O 271.346 1.73325 0.882544 0
M  V30 2971 C 271.629 2.56751 -2.5249 0
M  V30 2972 C 271.482 2.08014 -3.98811 0
M  V30 2973 C 272.801 3.58946 -2.54649 0
M  V30 2974 H 269.92 0.507075 -0.53483 0
M  V30 2975 H 272.562 0.720188 -1.75822 0
M  V30 2976 H 270.712 3.14597 -2.2795 0
M  V30 2977 H 272.384 1.5504 -4.34466 0
M  V30 2978 H 270.627 1.39242 -4.10846 0
M  V30 2979 H 271.298 2.92169 -4.68339 0
M  V30 2980 H 273.774 3.1089 -2.76563 0
M  V30 2981 H 272.65 4.38286 -3.3045 0
M  V30 2982 H 272.911 4.12655 -1.58646 0
M  V30 2983 N 271.97 1.30982 0.876444 0
M  V30 2984 C 273.198 1.23242 1.6619 0
M  V30 2985 C 273.613 -0.203345 1.87702 0
M  V30 2986 O 272.97 -1.13317 1.43057 0
M  V30 2987 C 273.021 1.96623 3.03351 0
M  V30 2988 O 272.742 3.34594 2.82804 0
M  V30 2989 C 274.243 1.95644 3.97792 0
M  V30 2990 H 271.463 0.426126 0.518322 0
M  V30 2991 H 274.007 1.7275 1.09442 0
M  V30 2992 H 272.162 1.50892 3.56806 0
M  V30 2993 H 272.576 3.71873 3.69879 0
M  V30 2994 H 274.05 2.51511 4.91372 0
M  V30 2995 H 274.527 0.937395 4.2908 0
M  V30 2996 H 275.133 2.41225 3.50272 0
M  V30 2997 N 273.449 -1.08991 1.13837 0
M  V30 2998 C 274.865 -1.33312 0.877506 0
M  V30 2999 C 275.065 -1.95587 -0.48456 0
M  V30 3000 O 274.121 -2.20509 -1.23013 0
M  V30 3001 C 275.434 -2.24045 2.0056 0
M  V30 3002 C 276.982 -2.37542 2.03821 0
M  V30 3003 C 277.457 -3.31614 3.15905 0
M  V30 3004 N 278.948 -3.39189 3.15445 0
M  V30 3005 C 279.683 -4.11992 3.98811 0
M  V30 3006 N 279.179 -4.87553 4.92203 0
M  V30 3007 N 280.972 -4.07762 3.86894 0
M  V30 3008 H 273.123 -0.669456 2.01574 0
M  V30 3009 H 275.386 -0.357482 0.878015 0
M  V30 3010 H 275.092 -1.85521 2.98789 0
M  V30 3011 H 274.966 -3.24466 1.92359 0
M  V30 3012 H 277.353 -2.75327 1.06202 0
M  V30 3013 H 277.434 -1.36884 2.16093 0
M  V30 3014 H 277.078 -2.94551 4.13766 0
M  V30 3015 H 277.008 -4.32186 3.0087 0
M  V30 3016 H 279.499 -2.85314 2.47799 0
M  V30 3017 H 279.812 -5.40549 5.52292 0
M  V30 3018 H 278.157 -4.86627 4.96205 0
M  V30 3019 H 281.348 -3.47833 3.13257 0
M  V30 3020 H 281.521 -4.64238 4.52092 0
M  V30 3021 N 274.927 -0.932562 -1.27047 0
M  V30 3022 C 276.173 -0.585913 -1.94778 0
M  V30 3023 C 276.528 0.864142 -1.71902 0
M  V30 3024 O 275.821 1.60894 -1.04037 0
M  V30 3025 C 276.015 -0.853713 -3.47054 0
M  V30 3026 C 275.844 -2.32825 -3.84737 0
M  V30 3027 C 274.614 -2.98184 -4.07939 0
M  V30 3028 C 276.812 -3.30612 -3.93954 0
M  V30 3029 N 274.794 -4.3574 -4.3244 0
M  V30 3030 C 276.165 -4.53395 -4.22887 0
M  V30 3031 C 278.22 -3.25755 -3.76548 0
M  V30 3032 C 276.923 -5.71927 -4.36224 0
M  V30 3033 C 278.949 -4.43604 -3.91113 0
M  V30 3034 C 278.311 -5.65166 -4.20437 0
M  V30 3035 H 274.41 -0.264617 -0.735868 0
M  V30 3036 H 276.994 -1.20019 -1.53309 0
M  V30 3037 H 275.165 -0.268557 -3.8747 0
M  V30 3038 H 276.897 -0.469202 -4.01971 0
M  V30 3039 H 273.652 -2.48835 -4.02961 0
M  V30 3040 H 274.076 -5.06915 -4.48738 0
M  V30 3041 H 278.718 -2.32835 -3.52913 0
M  V30 3042 H 276.436 -6.65308 -4.58683 0
M  V30 3043 H 280.022 -4.41368 -3.79059 0
M  V30 3044 H 278.902 -6.54836 -4.31462 0
M  V30 3045 N 276.405 1.4127 -0.698611 0
M  V30 3046 C 277.635 2.05205 -0.239644 0
M  V30 3047 C 278.043 1.52684 1.11733 0
M  V30 3048 O 277.386 0.671222 1.70998 0
M  V30 3049 C 277.448 3.59289 -0.123126 0
M  V30 3050 C 277.112 4.34619 -1.41263 0
M  V30 3051 C 278.109 4.63701 -2.35111 0
M  V30 3052 C 275.794 4.73837 -1.66684 0
M  V30 3053 C 277.788 5.30966 -3.52639 0
M  V30 3054 C 275.475 5.40837 -2.84498 0
M  V30 3055 C 276.473 5.69329 -3.77298 0
M  V30 3056 O 276.161 6.34949 -4.93047 0
M  V30 3057 H 275.893 0.66723 -0.108537 0
M  V30 3058 H 278.447 1.81974 -0.952602 0
M  V30 3059 H 276.677 3.81272 0.645628 0
M  V30 3060 H 278.366 4.04797 0.299056 0
M  V30 3061 H 279.132 4.33882 -2.16729 0
M  V30 3062 H 275.011 4.51039 -0.953135 0
M  V30 3063 H 278.555 5.53121 -4.25091 0
M  V30 3064 H 274.452 5.70075 -3.02795 0
M  V30 3065 H 275.22 6.53445 -4.92902 0
M  V30 3066 N 277.883 0.443576 1.51229 0
M  V30 3067 C 279.299 0.0962001 1.5931 0
M  V30 3068 C 279.499 -1.39501 1.45402 0
M  V30 3069 O 278.555 -2.16557 1.29843 0
M  V30 3070 C 279.868 0.621875 2.94199 0
M  V30 3071 C 281.416 0.582865 3.07525 0
M  V30 3072 C 281.891 1.08562 4.44948 0
M  V30 3073 N 283.382 1.04387 4.51284 0
M  V30 3074 C 284.117 1.40368 5.55954 0
M  V30 3075 N 283.613 1.83664 6.68011 0
M  V30 3076 N 285.406 1.32145 5.46346 0
M  V30 3077 H 277.557 1.41376 1.58514 0
M  V30 3078 H 279.82 0.582965 0.747567 0
M  V30 3079 H 279.526 1.66546 3.09767 0
M  V30 3080 H 279.4 0.0502125 3.77167 0
M  V30 3081 H 281.787 -0.451749 2.91622 0
M  V30 3082 H 281.868 1.191 2.26382 0
M  V30 3083 H 281.512 2.11873 4.61598 0
M  V30 3084 H 281.442 0.453956 5.2464 0
M  V30 3085 H 283.933 0.725986 3.70861 0
M  V30 3086 H 284.246 2.0934 7.43906 0
M  V30 3087 H 282.591 1.87596 6.69203 0
M  V30 3088 H 285.782 0.981808 4.57688 0
M  V30 3089 H 285.955 1.60514 6.27805 0
M  V30 3090 N 279.361 -1.56624 0.175154 0
M  V30 3091 C 280.324 -2.16934 -0.739738 0
M  V30 3092 C 281.324 -1.11842 -1.15533 0
M  V30 3093 O 282.514 -1.37335 -1.07167 0
M  V30 3094 C 279.646 -2.75531 -2.00738 0
M  V30 3095 H 280.839 -2.99131 -0.214639 0
M  V30 3096 H 278.392 -1.56123 -0.0744197 0
M  V30 3097 H 279.127 -1.97078 -2.57548 0
M  V30 3098 H 278.912 -3.52444 -1.71831 0
M  V30 3099 H 280.402 -3.21904 -2.66021 0
M  V30 3100 N 280.839 0.0985539 -1.57292 0
M  V30 3101 C 282.25 0.653457 -1.74891 0
M  V30 3102 C 282.601 1.7929 -0.796838 0
M  V30 3103 O 281.726 2.16385 0.0254886 0
M  V30 3104 C 282.321 1.19216 -3.17133 0
M  V30 3105 C 280.88 1.69316 -3.36168 0
M  V30 3106 C 280.027 0.601294 -2.70702 0
M  V30 3107 H 282.978 -0.127497 -1.58187 0
M  V30 3108 H 282.999 2.06154 -3.19814 0
M  V30 3109 H 282.511 0.362635 -3.86402 0
M  V30 3110 H 280.612 2.5468 -2.71972 0
M  V30 3111 H 280.725 1.78853 -4.44464 0
M  V30 3112 H 279.089 1.0399 -2.32504 0
M  V30 3113 H 279.872 -0.217592 -3.4261 0
M  V30 3114 N 282.317 1.53212 0.369288 0
M  V30 3115 C 283.227 1.82342 1.47609 0
M  V30 3116 C 284.243 0.711532 1.58787 0
M  V30 3117 O 285.419 1.0012 1.74751 0
M  V30 3118 C 282.484 2.00393 2.8292 0
M  V30 3119 C 281.545 3.24297 2.81301 0
M  V30 3120 C 280.778 3.41478 4.10157 0
M  V30 3121 O 281.001 2.63033 5.06132 0
M  V30 3122 O 279.935 4.34817 4.16194 0
M  V30 3123 H 283.761 2.76366 1.25918 0
M  V30 3124 H 281.346 1.38547 0.559034 0
M  V30 3125 H 283.228 2.13859 3.63101 0
M  V30 3126 H 281.903 1.09559 3.04596 0
M  V30 3127 H 280.81 3.16257 1.99831 0
M  V30 3128 H 282.143 4.15041 2.64578 0
M  V30 3129 N 283.795 -0.628877 1.44509 0
M  V30 3130 C 285.041 -1.39045 1.47629 0
M  V30 3131 C 285.374 -1.93892 0.109343 0
M  V30 3132 O 284.649 -1.7379 -0.87334 0
M  V30 3133 C 284.932 -2.55408 2.53848 0
M  V30 3134 C 284.785 -2.05896 3.99909 0
M  V30 3135 C 286.104 -3.5759 2.56549 0
M  V30 3136 H 283.223 -0.504232 0.537512 0
M  V30 3137 H 285.865 -0.710854 1.76201 0
M  V30 3138 H 284.015 -3.13384 2.29615 0
M  V30 3139 H 285.687 -1.52734 4.35282 0
M  V30 3140 H 283.93 -1.37061 4.11578 0
M  V30 3141 H 284.601 -2.89681 4.69882 0
M  V30 3142 H 287.077 -3.09419 2.78207 0
M  V30 3143 H 285.953 -4.36527 3.32769 0
M  V30 3144 H 286.214 -4.11808 1.60832 0
M  V30 3145 N 285.273 -1.31445 -0.869486 0
M  V30 3146 C 286.522 -1.20517 -1.61736 0
M  V30 3147 C 286.835 0.235341 -1.94179 0
M  V30 3148 O 288.041 0.466312 -2.67465 0
M  V30 3149 C 286.497 -2.10982 -2.91573 0
M  V30 3150 C 286.105 -3.60032 -2.66611 0
M  V30 3151 C 287.849 -2.08856 -3.69567 0
M  V30 3152 C 285.756 -4.42503 -3.92358 0
M  V30 3153 H 284.686 -0.447493 -0.606849 0
M  V30 3154 H 287.337 -1.56303 -0.96133 0
M  V30 3155 H 285.719 -1.68095 -3.58553 0
M  V30 3156 H 286.893 -4.11167 -2.08035 0
M  V30 3157 H 285.208 -3.64139 -2.0197 0
M  V30 3158 H 287.805 -2.67716 -4.62852 0
M  V30 3159 H 288.148 -1.07582 -4.02159 0
M  V30 3160 H 288.681 -2.49945 -3.09471 0
M  V30 3161 H 285.42 -5.44533 -3.64916 0
M  V30 3162 H 284.94 -3.96125 -4.50383 0
M  V30 3163 H 286.619 -4.54741 -4.60238 0
M  V30 3164 N 286.751 1.08385 -1.14413 0
M  V30 3165 C 287.681 2.17321 -0.854044 0
M  V30 3166 C 288.662 1.69024 0.191049 0
M  V30 3167 O 289.847 1.94141 0.0476779 0
M  V30 3168 C 286.977 3.45719 -0.330983 0
M  V30 3169 C 285.931 4.07409 -1.31155 0
M  V30 3170 C 285.257 5.30762 -0.64778 0
M  V30 3171 C 286.557 4.48665 -2.67388 0
M  V30 3172 H 288.251 2.41845 -1.76498 0
M  V30 3173 H 285.797 1.16233 -0.850051 0
M  V30 3174 H 287.75 4.21241 -0.115645 0
M  V30 3175 H 286.474 3.2075 0.615381 0
M  V30 3176 H 285.133 3.33919 -1.51306 0
M  V30 3177 H 284.781 5.02078 0.304398 0
M  V30 3178 H 284.481 5.72992 -1.30207 0
M  V30 3179 H 286.005 6.08998 -0.441972 0
M  V30 3180 H 287.419 5.15364 -2.51143 0
M  V30 3181 H 285.816 5.01814 -3.29093 0
M  V30 3182 H 286.886 3.60543 -3.24248 0
M  V30 3183 N 288.23 0.939286 1.26551 0
M  V30 3184 C 289.455 0.602008 1.98471 0
M  V30 3185 C 289.88 -0.815624 1.69497 0
M  V30 3186 O 289.238 -1.54912 0.941905 0
M  V30 3187 C 289.286 0.848407 3.50477 0
M  V30 3188 O 288.39 -0.0804009 4.12322 0
M  V30 3189 H 287.731 0.23049 0.622712 0
M  V30 3190 H 290.261 1.2617 1.61066 0
M  V30 3191 H 290.271 0.768553 4.00696 0
M  V30 3192 H 288.946 1.88171 3.70897 0
M  V30 3193 H 287.523 0.0503508 3.72866 0
M  V30 3194 N 289.708 -1.40897 0.706093 0
M  V30 3195 C 290.954 -2.01849 0.250681 0
M  V30 3196 C 291.309 -1.5496 -1.14041 0
M  V30 3197 O 290.602 -0.755566 -1.76073 0
M  V30 3198 C 290.796 -3.5646 0.259099 0
M  V30 3199 C 290.625 -4.18357 1.64947 0
M  V30 3200 C 289.395 -4.522 2.25485 0
M  V30 3201 C 291.593 -4.43856 2.598 0
M  V30 3202 N 289.575 -4.9944 3.56977 0
M  V30 3203 C 290.946 -4.92986 3.75985 0
M  V30 3204 C 293.001 -4.25882 2.57933 0
M  V30 3205 C 291.704 -5.2603 4.90597 0
M  V30 3206 C 293.73 -4.6002 3.71665 0
M  V30 3207 C 293.092 -5.09331 4.86581 0
M  V30 3208 H 289.191 -0.769843 0.137353 0
M  V30 3209 H 291.775 -1.71278 0.925845 0
M  V30 3210 H 289.946 -3.86481 -0.385592 0
M  V30 3211 H 291.678 -4.04144 -0.21213 0
M  V30 3212 H 288.433 -4.3901 1.77671 0
M  V30 3213 H 288.857 -5.27454 4.24407 0
M  V30 3214 H 293.499 -3.86986 1.70298 0
M  V30 3215 H 291.217 -5.63843 5.78884 0
M  V30 3216 H 294.803 -4.47762 3.71484 0
M  V30 3217 H 293.683 -5.35251 5.73129 0
M  V30 3218 N 291.186 -0.45159 -1.50991 0
M  V30 3219 C 292.119 0.398179 -2.24699 0
M  V30 3220 C 293.097 1.01276 -1.27208 0
M  V30 3221 O 294.281 1.05247 -1.56382 0
M  V30 3222 C 291.408 1.55618 -3.00833 0
M  V30 3223 C 290.454 1.0609 -4.13095 0
M  V30 3224 S 291.287 -0.00865136 -5.35499 0
M  V30 3225 C 292.443 1.15369 -6.15175 0
M  V30 3226 H 292.676 -0.227555 -2.96428 0
M  V30 3227 H 290.209 -0.236251 -1.52582 0
M  V30 3228 H 292.167 2.21997 -3.45293 0
M  V30 3229 H 290.828 2.15337 -2.28667 0
M  V30 3230 H 290.021 1.92726 -4.65696 0
M  V30 3231 H 289.623 0.47513 -3.7097 0
M  V30 3232 H 291.915 2.06925 -6.45126 0
M  V30 3233 H 292.858 0.667344 -7.04948 0
M  V30 3234 H 293.266 1.3987 -5.46897 0
M  V30 3235 N 292.664 1.56529 -0.183458 0
M  V30 3236 C 293.614 2.1515 0.754605 0
M  V30 3237 C 294.598 1.08904 1.18443 0
M  V30 3238 O 295.79 1.34997 1.14476 0
M  V30 3239 C 292.919 2.80531 1.97881 0
M  V30 3240 C 292.005 3.93952 1.57043 0
M  V30 3241 N 292.396 4.98221 0.87231 0
M  V30 3242 C 290.694 4.05338 1.86057 0
M  V30 3243 C 291.395 5.77836 0.669377 0
M  V30 3244 N 290.371 5.29858 1.21454 0
M  V30 3245 H 294.173 2.93132 0.212387 0
M  V30 3246 H 291.687 1.62391 0.0167725 0
M  V30 3247 H 293.684 3.20914 2.6612 0
M  V30 3248 H 292.344 2.04035 2.52586 0
M  V30 3249 H 293.355 5.15191 0.529033 0
M  V30 3250 H 290.032 3.39957 2.42354 0
M  V30 3251 H 291.422 6.71799 0.116422 0
M  V30 3252 N 294.142 -0.090211 1.57342 0
M  V30 3253 C 295.372 -0.805055 1.90269 0
M  V30 3254 C 295.78 -1.72561 0.775842 0
M  V30 3255 O 295.123 -1.81839 -0.260843 0
M  V30 3256 C 295.185 -1.66734 3.18497 0
M  V30 3257 C 294.849 -0.918092 4.47683 0
M  V30 3258 C 295.846 -0.245674 5.19319 0
M  V30 3259 C 293.531 -0.890724 4.94339 0
M  V30 3260 C 295.525 0.444088 6.35851 0
M  V30 3261 C 293.212 -0.197179 6.10782 0
M  V30 3262 C 294.21 0.469044 6.81388 0
M  V30 3263 O 293.898 1.15146 7.95611 0
M  V30 3264 H 293.63 -0.235143 0.633785 0
M  V30 3265 H 296.184 -0.0703805 2.05279 0
M  V30 3266 H 294.414 -2.44437 2.99646 0
M  V30 3267 H 296.103 -2.25919 3.37217 0
M  V30 3268 H 296.869 -0.258246 4.84312 0
M  V30 3269 H 292.748 -1.39873 4.39268 0
M  V30 3270 H 296.292 0.964667 6.90898 0
M  V30 3271 H 292.189 -0.18247 6.45242 0
M  V30 3272 H 292.957 1.05885 8.11622 0
M  V30 3273 N 295.62 -1.53406 -0.361157 0
M  V30 3274 C 296.568 -1.80832 -1.46296 0
M  V30 3275 C 297.562 -0.677699 -1.55253 0
M  V30 3276 O 298.768 -0.860723 -1.58087 0
M  V30 3277 H 295.143 -0.572627 -0.487445 0
M  V30 3278 H 297.114 -2.73045 -1.20371 0
M  V30 3279 C 295.863 -2.01907 -2.8307 0
M  V30 3280 H 295.186 -2.88349 -2.76938 0
M  V30 3281 H 296.626 -2.25072 -3.59331 0
M  V30 3282 C 295.085 -0.799449 -3.27277 0
M  V30 3283 O 295.615 0.00971761 -4.01699 0
M  V30 3284 N 293.821 -0.621637 -2.83873 0
M  V30 3285 H 293.368 -1.28126 -2.23476 0
M  V30 3286 H 293.326 0.19298 -3.13807 0
M  V30 3287 N 297.098 0.621204 -1.44841 0
M  V30 3288 C 298.03 1.74615 -1.48466 0
M  V30 3289 C 299.043 1.58377 -0.37691 0
M  V30 3290 O 300.232 1.66508 -0.643215 0
M  V30 3291 C 297.332 3.12459 -1.31236 0
M  V30 3292 C 296.505 3.55064 -2.55438 0
M  V30 3293 C 295.564 4.71821 -2.32963 0
M  V30 3294 O 294.59 4.79628 -3.06505 0
M  V30 3295 N 295.792 5.64186 -1.36654 0
M  V30 3296 H 298.557 1.71973 -2.45449 0
M  V30 3297 H 296.118 0.806077 -1.40407 0
M  V30 3298 H 298.11 3.88302 -1.14032 0
M  V30 3299 H 296.68 3.09686 -0.4258 0
M  V30 3300 H 295.9 2.69324 -2.87851 0
M  V30 3301 H 297.188 3.80284 -3.38026 0
M  V30 3302 H 296.586 5.6058 -0.759344 0
M  V30 3303 H 295.143 6.39618 -1.25425 0
M  V30 3304 N 298.576 1.31904 0.862503 0
M  V30 3305 C 299.804 1.24998 1.64873 0
M  V30 3306 C 300.219 -0.183425 1.87907 0
M  V30 3307 O 299.576 -1.11794 1.44251 0
M  V30 3308 C 299.627 1.99829 3.01248 0
M  V30 3309 O 299.348 3.37575 2.79239 0
M  V30 3310 C 300.849 1.99852 3.95694 0
M  V30 3311 H 298.069 0.431599 0.513773 0
M  V30 3312 H 300.613 1.73901 1.07604 0
M  V30 3313 H 298.768 1.54668 3.55185 0
M  V30 3314 H 299.182 3.75776 3.65914 0
M  V30 3315 H 300.656 2.56709 4.88676 0
M  V30 3316 H 301.133 0.982852 4.28062 0
M  V30 3317 H 301.739 2.44926 3.47694 0
M  V30 3318 N 300.054 -1.07777 1.14986 0
M  V30 3319 C 301.3 -1.80557 0.923422 0
M  V30 3320 C 301.633 -1.86298 -0.548337 0
M  V30 3321 O 300.908 -1.34354 -1.40639 0
M  V30 3322 C 301.191 -3.25839 1.53299 0
M  V30 3323 C 301.044 -3.28269 3.07505 0
M  V30 3324 C 302.363 -4.22991 1.21518 0
M  V30 3325 H 299.482 -0.655493 0.336894 0
M  V30 3326 H 302.124 -1.26144 1.42083 0
M  V30 3327 H 300.274 -3.72306 1.10999 0
M  V30 3328 H 301.946 -2.90079 3.58681 0
M  V30 3329 H 300.189 -2.67355 3.4162 0
M  V30 3330 H 300.86 -4.30691 3.45266 0
M  V30 3331 H 303.336 -3.84894 1.581 0
M  V30 3332 H 302.212 -5.22945 1.66793 0
M  V30 3333 H 302.473 -4.41904 0.131505 0
M  V30 3334 N 301.532 -0.945985 -1.26051 0
M  V30 3335 C 302.809 -0.513816 -1.88731 0
M  V30 3336 C 303.189 1.00872 -1.8544 0
M  V30 3337 O 302.537 1.8708 -1.312 0
M  V30 3338 C 302.747 -1.08062 -3.31849 0
M  V30 3339 C 304.095 -1.1522 -4.08668 0
M  V30 3340 O 305.119 -1.03155 -3.40936 0
M  V30 3341 O 303.978 -1.34044 -5.29806 0
M  V30 3342 H 301.072 -0.168193 -0.809716 0
M  V30 3343 H 303.618 -1.03886 -1.34186 0
M  V30 3344 H 302.39 -2.1241 -3.2863 0
M  V30 3345 H 302.013 -0.538307 -3.93939 0
M  V30 3346 N 303.011 1.40521 -0.713556 0
M  V30 3347 C 304.26 2.00155 -0.249192 0
M  V30 3348 C 304.573 1.57224 1.16362 0
M  V30 3349 O 305.779 2.09542 1.72639 0
M  V30 3350 C 304.235 3.5773 -0.3946 0
M  V30 3351 C 303.843 4.09635 -1.81392 0
M  V30 3352 C 305.587 4.24499 0.00907364 0
M  V30 3353 C 303.494 5.59707 -1.91003 0
M  V30 3354 H 302.424 0.74868 -0.0894114 0
M  V30 3355 H 305.075 1.60784 -0.884352 0
M  V30 3356 H 303.457 3.94792 0.30911 0
M  V30 3357 H 304.631 3.83955 -2.54785 0
M  V30 3358 H 302.946 3.55456 -2.16888 0
M  V30 3359 H 305.543 5.34683 -0.0420404 0
M  V30 3360 H 305.886 4.02824 1.05065 0
M  V30 3361 H 306.419 3.92536 -0.645007 0
M  V30 3362 H 303.158 5.86234 -2.93275 0
M  V30 3363 H 302.678 5.87258 -1.22019 0
M  V30 3364 H 304.357 6.24776 -1.6812 0
M  V30 3365 N 304.489 0.459591 1.5075 0
M  V30 3366 C 305.735 -0.091664 2.03193 0
M  V30 3367 C 306.09 -1.38432 1.3362 0
M  V30 3368 O 305.383 -1.86257 0.449322 0
M  V30 3369 C 305.577 -0.342866 3.55752 0
M  V30 3370 C 305.406 0.923888 4.40107 0
M  V30 3371 C 304.176 1.46388 4.83631 0
M  V30 3372 C 306.374 1.81617 4.81165 0
M  V30 3373 N 304.356 2.68086 5.52271 0
M  V30 3374 C 305.727 2.87907 5.49099 0
M  V30 3375 C 307.782 1.82793 4.63132 0
M  V30 3376 C 306.485 3.95347 6.0091 0
M  V30 3377 C 308.511 2.89182 5.15876 0
M  V30 3378 C 307.873 3.94191 5.83774 0
M  V30 3379 H 303.972 0.00619247 0.781975 0
M  V30 3380 H 306.556 0.625233 1.84388 0
M  V30 3381 H 304.727 -1.0288 3.74527 0
M  V30 3382 H 306.459 -0.887445 3.9485 0
M  V30 3383 H 303.214 1.01466 4.62603 0
M  V30 3384 H 303.638 3.29857 5.91205 0
M  V30 3385 H 308.28 1.0293 4.1008 0
M  V30 3386 H 305.998 4.76035 6.53006 0
M  V30 3387 H 309.584 2.91061 5.0376 0
M  V30 3388 H 308.464 4.75161 6.23853 0
M  V30 3389 N 305.967 -1.56429 0.191757 0
M  V30 3390 C 307.192 -2.02309 -0.456706 0
M  V30 3391 C 307.617 -1.07103 -1.5463 0
M  V30 3392 O 306.975 -0.0539677 -1.8122 0
M  V30 3393 C 307.023 -3.46654 -0.993159 0
M  V30 3394 O 306.127 -3.54559 -2.10622 0
M  V30 3395 H 305.468 -0.655303 -0.107114 0
M  V30 3396 H 307.998 -2.02364 0.301653 0
M  V30 3397 H 308.008 -3.86377 -1.31061 0
M  V30 3398 H 306.683 -4.1544 -0.195504 0
M  V30 3399 H 305.26 -3.26708 -1.79767 0
M  V30 3400 N 307.445 0.0818655 -1.57387 0
M  V30 3401 C 308.691 0.784074 -1.8703 0
M  V30 3402 C 309.024 1.77729 -0.782689 0
M  V30 3403 O 308.299 1.93384 0.208051 0
M  V30 3404 C 308.582 1.50105 -3.27323 0
M  V30 3405 C 308.435 0.524925 -4.46727 0
M  V30 3406 C 309.754 2.44843 -3.65705 0
M  V30 3407 H 306.873 0.283582 -0.680257 0
M  V30 3408 H 309.515 0.0474352 -1.89941 0
M  V30 3409 H 307.665 2.12897 -3.24972 0
M  V30 3410 H 309.337 -0.0970111 -4.61198 0
M  V30 3411 H 307.58 -0.160606 -4.33503 0
M  V30 3412 H 308.251 1.064 -5.41648 0
M  V30 3413 H 310.727 1.92135 -3.69085 0
M  V30 3414 H 309.603 2.92018 -4.64776 0
M  V30 3415 H 309.864 3.29197 -2.95096 0
M  V30 3416 N 308.923 1.53595 0.353017 0
M  V30 3417 C 310.171 1.70049 1.09215 0
M  V30 3418 C 310.492 0.461406 1.89463 0
M  V30 3419 O 309.762 -0.524633 1.88744 0
M  V30 3420 H 308.342 0.626912 0.40619 0
M  V30 3421 H 311.004 1.90822 0.396585 0
M  V30 3422 H 310.1 2.56718 1.77488 0
M  V30 3423 N 310.401 -0.613514 1.45168 0
M  V30 3424 C 311.641 -1.38405 1.5041 0
M  V30 3425 C 312.005 -1.91489 0.139922 0
M  V30 3426 O 313.206 -2.68716 0.067033 0
M  V30 3427 C 311.477 -2.50552 2.5487 0
M  V30 3428 S 313.036 -3.38439 2.79292 0
M  V30 3429 H 309.854 -0.471945 0.531779 0
M  V30 3430 H 312.456 -0.708518 1.82209 0
M  V30 3431 H 311.16 -2.09894 3.52665 0
M  V30 3432 H 310.691 -3.22913 2.24701 0
M  V30 3433 H 312.706 -4.48527 2.12222 0
M  V30 3434 N 311.879 -1.3236 -0.855495 0
M  V30 3435 C 313.128 -1.22226 -1.60448 0
M  V30 3436 C 313.441 0.214733 -1.94418 0
M  V30 3437 O 314.647 0.437917 -2.67945 0
M  V30 3438 C 313.103 -2.14063 -2.89318 0
M  V30 3439 C 312.711 -3.62839 -2.62777 0
M  V30 3440 C 314.455 -2.12764 -3.67331 0
M  V30 3441 C 312.362 -4.4664 -3.87643 0
M  V30 3442 H 311.292 -0.453904 -0.602069 0
M  V30 3443 H 313.943 -1.57314 -0.944698 0
M  V30 3444 H 312.325 -1.71889 -3.5675 0
M  V30 3445 H 313.499 -4.1335 -2.03662 0
M  V30 3446 H 311.814 -3.66261 -1.98096 0
M  V30 3447 H 314.411 -2.72611 -4.59987 0
M  V30 3448 H 314.754 -1.11841 -4.00995 0
M  V30 3449 H 315.287 -2.53214 -3.06802 0
M  V30 3450 H 312.026 -5.48373 -3.5912 0
M  V30 3451 H 311.546 -4.0088 -4.46156 0
M  V30 3452 H 313.225 -4.59597 -4.55389 0
M  V30 3453 N 313.357 1.07166 -1.15556 0
M  V30 3454 C 314.29 2.13808 -0.797593 0
M  V30 3455 C 315.268 1.6101 0.226812 0
M  V30 3456 O 316.452 1.88161 0.112932 0
M  V30 3457 C 313.579 3.38187 -0.186371 0
M  V30 3458 C 312.625 4.09766 -1.18297 0
M  V30 3459 S 313.458 4.60932 -2.72584 0
M  V30 3460 C 314.614 5.88583 -2.12886 0
M  V30 3461 H 314.847 2.43843 -1.70083 0
M  V30 3462 H 312.38 1.19467 -0.978106 0
M  V30 3463 H 314.338 4.10189 0.159837 0
M  V30 3464 H 312.999 3.06326 0.694489 0
M  V30 3465 H 312.192 4.99065 -0.703562 0
M  V30 3466 H 311.794 3.43736 -1.47381 0
M  V30 3467 H 314.086 6.60866 -1.49208 0
M  V30 3468 H 315.029 6.41241 -3.0036 0
M  V30 3469 H 315.437 5.42194 -1.57116 0
M  V30 3470 N 314.835 0.952656 1.25548 0
M  V30 3471 C 315.798 0.475794 2.24207 0
M  V30 3472 C 316.798 -0.419428 1.55234 0
M  V30 3473 O 317.988 -0.216994 1.72843 0
M  V30 3474 C 315.12 -0.312814 3.39462 0
M  V30 3475 H 316.313 1.34779 2.67908 0
M  V30 3476 H 313.866 0.735739 1.37901 0
M  V30 3477 H 314.601 -1.20257 3.01179 0
M  V30 3478 H 314.386 0.329404 3.90714 0
M  V30 3479 H 315.876 -0.635986 4.12729 0
M  V30 3480 N 316.313 -1.40141 0.720998 0
M  V30 3481 C 317.223 -2.34486 0.0731031 0
M  V30 3482 C 318.239 -1.57587 -0.737723 0
M  V30 3483 O 319.415 -1.89949 -0.669429 0
M  V30 3484 C 316.48 -3.36528 -0.833656 0
M  V30 3485 C 315.541 -4.29298 -0.0121673 0
M  V30 3486 C 314.774 -5.26466 -0.875742 0
M  V30 3487 O 314.997 -5.29745 -2.11485 0
M  V30 3488 O 313.931 -6.01092 -0.31185 0
M  V30 3489 H 317.757 -2.9152 0.851444 0
M  V30 3490 H 315.342 -1.41427 0.481527 0
M  V30 3491 H 317.224 -3.99093 -1.35289 0
M  V30 3492 H 315.899 -2.81899 -1.59105 0
M  V30 3493 H 314.806 -3.70001 0.552262 0
M  V30 3494 H 316.139 -4.87094 0.707129 0
M  V30 3495 N 317.792 -0.46758 -1.50504 0
M  V30 3496 C 318.725 0.374324 -2.25109 0
M  V30 3497 C 319.703 0.99921 -1.28275 0
M  V30 3498 O 320.887 1.03583 -1.57489 0
M  V30 3499 C 318.014 1.52419 -3.02467 0
M  V30 3500 C 317.06 1.01702 -4.14197 0
M  V30 3501 S 317.893 -0.0654477 -5.3546 0
M  V30 3502 C 319.049 1.08837 -6.16365 0
M  V30 3503 H 319.282 -0.258983 -2.9617 0
M  V30 3504 H 316.815 -0.252421 -1.52323 0
M  V30 3505 H 318.773 2.18322 -3.47628 0
M  V30 3506 H 317.434 2.129 -2.30938 0
M  V30 3507 H 316.627 1.87776 -4.67714 0
M  V30 3508 H 316.229 0.435757 -3.71453 0
M  V30 3509 H 318.521 2.00071 -6.47285 0
M  V30 3510 H 319.464 0.592538 -7.05616 0
M  V30 3511 H 319.872 1.34061 -5.4835 0
M  V30 3512 N 319.27 1.56325 -0.20005 0
M  V30 3513 C 320.2 2.22318 0.713916 0
M  V30 3514 C 321.181 1.18788 1.21752 0
M  V30 3515 O 322.366 1.47309 1.26545 0
M  V30 3516 C 319.496 2.88639 1.93144 0
M  V30 3517 C 318.45 3.98457 1.56255 0
M  V30 3518 C 317.776 4.51967 2.85709 0
M  V30 3519 C 319.076 5.16612 0.768747 0
M  V30 3520 H 320.77 2.98952 0.163755 0
M  V30 3521 H 318.316 1.43792 0.0773219 0
M  V30 3522 H 320.269 3.33491 2.57608 0
M  V30 3523 H 318.993 2.09419 2.50621 0
M  V30 3524 H 317.652 3.54305 0.941471 0
M  V30 3525 H 317.3 3.69503 3.41287 0
M  V30 3526 H 317 5.26071 2.6177 0
M  V30 3527 H 318.524 4.99523 3.51154 0
M  V30 3528 H 319.938 5.57977 1.3166 0
M  V30 3529 H 318.335 5.96812 0.627286 0
M  V30 3530 H 319.405 4.84358 -0.229168 0
M  V30 3531 N 320.748 -0.0735177 1.57428 0
M  V30 3532 C 321.976 -0.785969 1.9139 0
M  V30 3533 C 322.391 -1.71207 0.795847 0
M  V30 3534 O 321.748 -1.81033 -0.230915 0
M  V30 3535 C 321.799 -1.58107 3.25091 0
M  V30 3536 O 321.52 -0.6922 4.32597 0
M  V30 3537 C 323.021 -2.39467 3.73055 0
M  V30 3538 H 320.241 -0.223558 0.632663 0
M  V30 3539 H 322.785 -0.044302 2.04452 0
M  V30 3540 H 320.94 -2.27503 3.13562 0
M  V30 3541 H 321.354 -1.24504 5.09508 0
M  V30 3542 H 322.828 -2.90716 4.69242 0
M  V30 3543 H 323.305 -3.18913 3.01979 0
M  V30 3544 H 323.911 -1.7523 3.87523 0
M  V30 3545 N 322.226 -1.5378 -0.344866 0
M  V30 3546 C 323.474 -1.70625 -1.08311 0
M  V30 3547 C 323.795 -0.471447 -1.89215 0
M  V30 3548 O 323.065 0.514616 -1.8902 0
M  V30 3549 H 321.645 -0.629058 -0.402859 0
M  V30 3550 H 324.307 -1.9103 -0.386459 0
M  V30 3551 H 323.403 -2.57656 -1.76124 0
M  V30 3552 N 323.704 0.605807 -1.45491 0
M  V30 3553 C 324.651 1.7164 -1.54299 0
M  V30 3554 C 325.621 1.61486 -0.388761 0
M  V30 3555 O 326.806 1.81039 -0.602445 0
M  V30 3556 C 323.946 3.09953 -1.51734 0
M  V30 3557 C 323.059 3.309 -2.77721 0
M  V30 3558 C 322.194 4.59329 -2.66816 0
M  V30 3559 C 321.233 4.7354 -3.87848 0
M  V30 3560 N 320.37 5.9327 -3.75467 0
M  V30 3561 H 325.21 1.63449 -2.49176 0
M  V30 3562 H 322.747 0.796957 -1.23641 0
M  V30 3563 H 324.705 3.89977 -1.48235 0
M  V30 3564 H 323.335 3.17098 -0.604068 0
M  V30 3565 H 322.387 2.44639 -2.913 0
M  V30 3566 H 323.699 3.37274 -3.67488 0
M  V30 3567 H 322.853 5.4755 -2.61292 0
M  V30 3568 H 321.592 4.55355 -1.74651 0
M  V30 3569 H 320.597 3.83741 -3.93729 0
M  V30 3570 H 321.822 4.79309 -4.81082 0
M  V30 3571 H 319.768 5.90338 -2.86072 0
M  V30 3572 H 319.685 6.00811 -4.5887 0
M  V30 3573 H 320.953 6.83984 -3.73879 0
M  V30 3574 N 325.182 1.32811 0.848464 0
M  V30 3575 C 326.41 1.26739 1.63538 0
M  V30 3576 C 326.825 -0.163484 1.88091 0
M  V30 3577 O 326.182 -1.10258 1.45429 0
M  V30 3578 C 326.233 2.03013 2.99112 0
M  V30 3579 O 325.954 3.40518 2.75643 0
M  V30 3580 C 327.455 2.04038 3.93552 0
M  V30 3581 H 324.675 0.437024 0.509167 0
M  V30 3582 H 327.219 1.75033 1.05753 0
M  V30 3583 H 325.374 1.58426 3.53525 0
M  V30 3584 H 325.788 3.79635 3.61908 0
M  V30 3585 H 327.262 2.61877 4.85926 0
M  V30 3586 H 327.739 1.0282 4.26995 0
M  V30 3587 H 328.345 2.486 3.45077 0
M  V30 3588 N 326.66 -1.06551 1.16123 0
M  V30 3589 C 327.59 -2.15935 0.88851 0
M  V30 3590 C 328.571 -1.69306 -0.164135 0
M  V30 3591 O 329.756 -1.94193 -0.0167857 0
M  V30 3592 C 326.886 -3.45149 0.385942 0
M  V30 3593 C 325.84 -4.05271 1.3762 0
M  V30 3594 C 325.166 -5.29664 0.732137 0
M  V30 3595 C 326.466 -4.44355 2.74493 0
M  V30 3596 H 328.16 -2.39006 1.80323 0
M  V30 3597 H 325.706 -1.14866 0.868435 0
M  V30 3598 H 327.659 -4.21004 0.182647 0
M  V30 3599 H 326.383 -3.21689 -0.564274 0
M  V30 3600 H 325.042 -3.3147 1.56599 0
M  V30 3601 H 324.69 -5.02499 -0.224483 0
M  V30 3602 H 324.39 -5.70848 1.39307 0
M  V30 3603 H 325.914 -6.08218 0.538802 0
M  V30 3604 H 327.328 -5.11303 2.59311 0
M  V30 3605 H 325.725 -4.96515 3.37035 0
M  V30 3606 H 326.795 -3.55339 3.29943 0
M  V30 3607 N 328.138 -0.959301 -1.25041 0
M  V30 3608 C 329.385 -0.616611 -1.92884 0
M  V30 3609 C 329.713 0.847036 -1.75087 0
M  V30 3610 O 328.968 1.62374 -1.09239 0
M  V30 3611 C 329.267 -0.927136 -3.45165 0
M  V30 3612 C 328.933 -2.37757 -3.83122 0
M  V30 3613 C 327.595 -2.77402 -3.93194 0
M  V30 3614 C 329.947 -3.31929 -4.01836 0
M  V30 3615 C 327.275 -4.10277 -4.19392 0
M  V30 3616 C 329.627 -4.64423 -4.29528 0
M  V30 3617 C 328.291 -5.03857 -4.37818 0
M  V30 3618 H 327.561 -0.225634 -0.705812 0
M  V30 3619 H 330.208 -1.20921 -1.48493 0
M  V30 3620 H 328.513 -0.252195 -3.90987 0
M  V30 3621 H 330.21 -0.6405 -3.95852 0
M  V30 3622 H 326.8 -2.06013 -3.75841 0
M  V30 3623 H 330.984 -3.02488 -3.93465 0
M  V30 3624 H 326.24 -4.40467 -4.24027 0
M  V30 3625 H 330.414 -5.37369 -4.42953 0
M  V30 3626 H 328.041 -6.06843 -4.57871 0
M  V30 3627 N 329.616 1.39756 -0.72842 0
M  V30 3628 C 330.563 2.30647 -0.0841519 0
M  V30 3629 C 331.533 1.48869 0.7367 0
M  V30 3630 O 332.718 1.77574 0.698015 0
M  V30 3631 C 329.858 3.35165 0.822091 0
M  V30 3632 C 328.971 4.31999 -0.0106663 0
M  V30 3633 C 328.106 5.23585 0.896241 0
M  V30 3634 C 327.145 6.12072 0.0583381 0
M  V30 3635 N 326.282 6.96035 0.920818 0
M  V30 3636 H 331.122 2.85173 -0.864891 0
M  V30 3637 H 328.659 1.40422 -0.438179 0
M  V30 3638 H 330.617 3.94345 1.36189 0
M  V30 3639 H 329.247 2.8211 1.56888 0
M  V30 3640 H 328.299 3.74492 -0.66781 0
M  V30 3641 H 329.611 4.9443 -0.658825 0
M  V30 3642 H 328.765 5.87759 1.50412 0
M  V30 3643 H 327.504 4.61459 1.57819 0
M  V30 3644 H 326.509 5.46916 -0.562389 0
M  V30 3645 H 327.734 6.76261 -0.6203 0
M  V30 3646 H 325.68 6.36485 1.58818 0
M  V30 3647 H 325.597 7.55284 0.32899 0
M  V30 3648 H 326.865 7.64646 1.51447 0
M  V30 3649 N 331.094 0.475555 1.50254 0
M  V30 3650 C 332.342 -0.077738 2.0195 0
M  V30 3651 C 332.663 -1.39813 1.35931 0
M  V30 3652 O 331.933 -1.89249 0.506123 0
M  V30 3653 H 330.513 -0.031719 0.746326 0
M  V30 3654 H 333.175 0.626995 1.84539 0
M  V30 3655 H 332.271 -0.225995 3.11281 0
M  V30 3656 N 332.573 -1.56217 0.208337 0
M  V30 3657 C 333.52 -2.19699 -0.707192 0
M  V30 3658 C 334.49 -1.14836 -1.20008 0
M  V30 3659 O 335.675 -1.4314 -1.26157 0
M  V30 3660 C 332.815 -2.87061 -1.91546 0
M  V30 3661 C 331.928 -4.06483 -1.46271 0
M  V30 3662 C 331.063 -4.61665 -2.62752 0
M  V30 3663 C 330.102 -5.73417 -2.14147 0
M  V30 3664 N 329.239 -6.22948 -3.23853 0
M  V30 3665 H 334.079 -2.97575 -0.159111 0
M  V30 3666 H 331.616 -1.46948 -0.0667874 0
M  V30 3667 H 333.574 -3.24294 -2.62468 0
M  V30 3668 H 332.204 -2.11725 -2.43664 0
M  V30 3669 H 331.256 -3.74825 -0.648886 0
M  V30 3670 H 332.568 -4.87271 -1.06622 0
M  V30 3671 H 331.722 -5.01272 -3.41776 0
M  V30 3672 H 330.461 -3.80013 -3.05682 0
M  V30 3673 H 329.466 -5.33326 -1.33581 0
M  V30 3674 H 330.691 -6.56897 -1.72232 0
M  V30 3675 H 328.637 -5.44213 -3.6629 0
M  V30 3676 H 328.554 -6.98823 -2.88414 0
M  V30 3677 H 329.822 -6.6721 -4.03052 0
M  V30 3678 N 334.051 0.0651679 -1.57465 0
M  V30 3679 C 335.328 0.79644 -1.78651 0
M  V30 3680 C 335.708 1.95454 -0.797566 0
M  V30 3681 O 335.056 2.27882 0.167946 0
M  V30 3682 C 335.266 1.26322 -3.25337 0
M  V30 3683 C 336.614 1.6939 -3.89348 0
M  V30 3684 O 337.638 1.35872 -3.29268 0
M  V30 3685 O 336.497 2.31471 -4.95059 0
M  V30 3686 H 333.591 0.382157 -0.733407 0
M  V30 3687 H 336.137 0.0447311 -1.69641 0
M  V30 3688 H 334.909 0.434859 -3.88876 0
M  V30 3689 H 334.532 2.07604 -3.39096 0
M  V30 3690 N 335.529 1.53961 0.336706 0
M  V30 3691 C 336.759 1.75229 1.09446 0
M  V30 3692 C 337.167 0.494602 1.82621 0
M  V30 3693 O 336.51 -0.543764 1.75468 0
M  V30 3694 C 336.572 2.88288 2.1478 0
M  V30 3695 C 336.236 4.27656 1.6112 0
M  V30 3696 C 337.233 5.08981 1.0599 0
M  V30 3697 C 334.918 4.74161 1.6576 0
M  V30 3698 C 336.912 6.34916 0.562129 0
M  V30 3699 C 334.599 6.00067 1.15595 0
M  V30 3700 C 335.597 6.80278 0.609147 0
M  V30 3701 O 335.285 8.03818 0.114999 0
M  V30 3702 H 335.017 0.588881 0.331956 0
M  V30 3703 H 337.571 2.01614 0.392566 0
M  V30 3704 H 335.801 2.57443 2.88548 0
M  V30 3705 H 337.49 2.97461 2.76174 0
M  V30 3706 H 338.256 4.74213 1.01722 0
M  V30 3707 H 334.135 4.11781 2.07261 0
M  V30 3708 H 337.679 6.9747 0.134668 0
M  V30 3709 H 333.576 6.3433 1.19566 0
M  V30 3710 H 334.344 8.18172 0.231651 0
M  V30 3711 N 337.007 -0.598083 1.45811 0
M  V30 3712 C 337.937 -1.71873 1.58057 0
M  V30 3713 C 338.918 -1.64533 0.431615 0
M  V30 3714 O 340.103 -1.82787 0.65595 0
M  V30 3715 C 337.233 -3.10495 1.55597 0
M  V30 3716 C 336.187 -3.32654 2.69305 0
M  V30 3717 C 335.513 -4.71646 2.51902 0
M  V30 3718 C 336.813 -3.21981 4.11248 0
M  V30 3719 H 338.507 -1.61881 2.51863 0
M  V30 3720 H 336.053 -0.777372 1.21214 0
M  V30 3721 H 338.006 -3.88699 1.6276 0
M  V30 3722 H 336.73 -3.2135 0.583255 0
M  V30 3723 H 335.389 -2.56843 2.61586 0
M  V30 3724 H 335.037 -4.79246 1.52748 0
M  V30 3725 H 334.737 -4.87426 3.2816 0
M  V30 3726 H 336.261 -5.52038 2.60933 0
M  V30 3727 H 337.675 -3.90049 4.20161 0
M  V30 3728 H 336.072 -3.49289 4.87972 0
M  V30 3729 H 337.142 -2.1928 4.32486 0
M  V30 3730 N 338.485 -1.33259 -0.841409 0
M  V30 3731 C 339.762 -1.15174 -1.58096 0
M  V30 3732 C 340.142 0.282858 -2.09196 0
M  V30 3733 O 339.49 1.28151 -1.89181 0
M  V30 3734 C 339.7 -2.1907 -2.71679 0
M  V30 3735 C 341.048 -2.53093 -3.40924 0
M  V30 3736 O 342.072 -2.17717 -2.81918 0
M  V30 3737 O 340.931 -3.1379 -4.47435 0
M  V30 3738 H 338.025 -0.445303 -0.696875 0
M  V30 3739 H 340.571 -1.44833 -0.884385 0
M  V30 3740 H 339.343 -3.15443 -2.31541 0
M  V30 3741 H 338.966 -1.90481 -3.49002 0
M  V30 3742 N 339.963 1.05934 -1.16686 0
M  V30 3743 C 340.895 2.13468 -0.834503 0
M  V30 3744 C 341.908 1.62013 0.15984 0
M  V30 3745 O 343.097 1.7838 -0.0654228 0
M  V30 3746 C 340.197 3.3817 -0.222361 0
M  V30 3747 C 339.37 4.18928 -1.25771 0
M  V30 3748 C 338.429 5.21985 -0.664703 0
M  V30 3749 O 337.455 5.53334 -1.33453 0
M  V30 3750 N 338.657 5.77919 0.546834 0
M  V30 3751 H 341.422 2.42578 -1.75999 0
M  V30 3752 H 338.983 1.21967 -1.06469 0
M  V30 3753 H 340.975 4.04266 0.187472 0
M  V30 3754 H 339.545 3.06655 0.606758 0
M  V30 3755 H 338.765 3.48433 -1.84358 0
M  V30 3756 H 340.053 4.69687 -1.95631 0
M  V30 3757 H 339.451 5.54721 1.10912 0
M  V30 3758 H 338.008 6.45573 0.898829 0
M  V30 3759 N 341.441 0.965919 1.2453 0
M  V30 3760 C 342.371 0.513476 2.27784 0
M  V30 3761 C 343.352 -0.445974 1.6415 0
M  V30 3762 O 344.537 -0.342485 1.91156 0
M  V30 3763 C 341.667 -0.198839 3.4673 0
M  V30 3764 C 340.621 0.676456 4.2262 0
M  V30 3765 C 339.947 -0.167248 5.34438 0
M  V30 3766 C 341.247 1.96017 4.84123 0
M  V30 3767 H 342.941 1.3765 2.65881 0
M  V30 3768 H 340.487 0.663321 1.27813 0
M  V30 3769 H 342.44 -0.526567 4.18097 0
M  V30 3770 H 341.164 -1.0962 3.07654 0
M  V30 3771 H 339.823 0.98743 3.53052 0
M  V30 3772 H 339.471 -1.0647 4.91603 0
M  V30 3773 H 339.171 0.415181 5.86131 0
M  V30 3774 H 340.695 -0.489688 6.08633 0
M  V30 3775 H 342.109 1.69814 5.47573 0
M  V30 3776 H 340.506 2.48918 5.4604 0
M  V30 3777 H 341.576 2.65622 4.05676 0
M  V30 3778 N 342.919 -1.39368 0.735821 0
M  V30 3779 C 344.147 -2.04795 0.294393 0
M  V30 3780 C 344.562 -1.55478 -1.07107 0
M  V30 3781 O 343.919 -0.720038 -1.67695 0
M  V30 3782 C 343.97 -3.6035 0.288071 0
M  V30 3783 O 343.691 -4.07852 1.59963 0
M  V30 3784 C 345.192 -4.42976 -0.169422 0
M  V30 3785 H 342.412 -0.658571 0.128551 0
M  V30 3786 H 344.956 -1.78399 0.999701 0
M  V30 3787 H 343.111 -3.85645 -0.368355 0
M  V30 3788 H 343.525 -5.02181 1.51375 0
M  V30 3789 H 344.999 -5.51864 -0.122687 0
M  V30 3790 H 345.476 -4.22068 -1.21472 0
M  V30 3791 H 346.082 -4.22832 0.457469 0
M  V30 3792 N 344.397 -0.483516 -1.5 0
M  V30 3793 C 345.329 0.340634 -2.26655 0
M  V30 3794 C 346.342 0.946152 -1.32483 0
M  V30 3795 O 347.531 0.832453 -1.579 0
M  V30 3796 C 344.631 1.4929 -3.04246 0
M  V30 3797 C 343.804 0.997903 -4.25865 0
M  V30 3798 C 342.863 2.02569 -4.85646 0
M  V30 3799 O 341.889 1.60128 -5.46212 0
M  V30 3800 N 343.091 3.3548 -4.73744 0
M  V30 3801 H 345.856 -0.316577 -2.98023 0
M  V30 3802 H 343.417 -0.315024 -1.58806 0
M  V30 3803 H 345.409 2.17766 -3.41116 0
M  V30 3804 H 343.979 2.05458 -2.35597 0
M  V30 3805 H 343.199 0.138617 -3.93956 0
M  V30 3806 H 344.487 0.645305 -5.04691 0
M  V30 3807 H 343.885 3.72661 -4.25605 0
M  V30 3808 H 342.442 3.99718 -5.14848 0
M  V30 3809 N 345.875 1.56104 -0.216619 0
M  V30 3810 C 347.124 1.97348 0.416744 0
M  V30 3811 C 347.437 1.10715 1.6125 0
M  V30 3812 O 348.643 1.41836 2.31506 0
M  V30 3813 C 347.099 3.51059 0.792835 0
M  V30 3814 C 346.707 4.46387 -0.379828 0
M  V30 3815 C 348.451 4.01026 1.39208 0
M  V30 3816 C 346.358 5.91397 0.0184223 0
M  V30 3817 H 345.288 0.736942 0.159475 0
M  V30 3818 H 347.939 1.80827 -0.31205 0
M  V30 3819 H 346.321 3.63162 1.57891 0
M  V30 3820 H 347.495 4.46029 -1.15737 0
M  V30 3821 H 345.81 4.06734 -0.891979 0
M  V30 3822 H 348.407 5.0686 1.70286 0
M  V30 3823 H 348.75 3.46587 2.30614 0
M  V30 3824 H 349.283 3.92125 0.669537 0
M  V30 3825 H 346.022 6.49807 -0.862002 0
M  V30 3826 H 345.542 5.94961 0.760384 0
M  V30 3827 H 347.221 6.45455 0.446818 0
M  V30 3828 N 347.353 -0.0568162 1.57498 0
M  V30 3829 C 348.283 -1.06593 2.0775 0
M  V30 3830 C 349.264 -1.39448 0.974082 0
M  V30 3831 O 350.449 -1.48815 1.24771 0
M  V30 3832 C 347.579 -2.37509 2.5339 0
M  V30 3833 C 346.533 -2.1897 3.67745 0
M  V30 3834 C 345.859 -3.55402 3.99492 0
M  V30 3835 C 347.159 -1.59859 4.97235 0
M  V30 3836 H 348.853 -0.647706 2.9231 0
M  V30 3837 H 346.399 -0.310116 1.40621 0
M  V30 3838 H 348.352 -3.08409 2.87162 0
M  V30 3839 H 347.076 -2.8134 1.65878 0
M  V30 3840 H 345.735 -1.50508 3.3428 0
M  V30 3841 H 345.383 -3.9683 3.09088 0
M  V30 3842 H 345.083 -3.43831 4.76502 0
M  V30 3843 H 346.607 -4.27708 4.35773 0
M  V30 3844 H 348.021 -2.20642 5.29141 0
M  V30 3845 H 346.418 -1.58942 5.78669 0
M  V30 3846 H 347.488 -0.561506 4.81638 0
M  V30 3847 N 348.832 -1.54138 -0.328536 0
M  V30 3848 C 349.779 -1.83176 -1.40411 0
M  V30 3849 C 350.749 -0.678494 -1.5161 0
M  V30 3850 O 351.934 -0.92443 -1.6691 0
M  V30 3851 C 349.074 -2.06035 -2.76846 0
M  V30 3852 C 348.187 -3.33727 -2.74318 0
M  V30 3853 C 347.322 -3.46574 -4.02567 0
M  V30 3854 C 346.361 -4.68159 -3.94327 0
M  V30 3855 N 345.498 -4.77959 -5.14296 0
M  V30 3856 H 350.338 -2.74938 -1.14948 0
M  V30 3857 H 347.875 -1.36166 -0.556538 0
M  V30 3858 H 349.833 -2.1728 -3.56153 0
M  V30 3859 H 348.463 -1.1757 -3.00628 0
M  V30 3860 H 347.515 -3.31246 -1.8703 0
M  V30 3861 H 348.827 -4.23139 -2.64111 0
M  V30 3862 H 347.981 -3.57333 -4.90304 0
M  V30 3863 H 346.72 -2.55245 -4.15574 0
M  V30 3864 H 345.725 -4.57461 -3.04974 0
M  V30 3865 H 346.95 -5.60868 -3.82889 0
M  V30 3866 H 344.896 -3.89544 -5.27818 0
M  V30 3867 H 344.813 -5.6133 -5.06404 0
M  V30 3868 H 346.081 -4.93044 -6.03761 0
M  V30 3869 N 350.31 0.590341 -1.46126 0
M  V30 3870 C 351.556 1.35082 -1.51264 0
M  V30 3871 C 351.889 1.93534 -0.160711 0
M  V30 3872 O 351.164 1.76045 0.826956 0
M  V30 3873 C 351.447 2.48588 -2.6053 0
M  V30 3874 C 351.3 1.95221 -4.05227 0
M  V30 3875 C 352.619 3.50662 -2.6594 0
M  V30 3876 H 349.738 0.489803 -0.550692 0
M  V30 3877 H 352.38 0.663887 -1.78024 0
M  V30 3878 H 350.53 3.07186 -2.37843 0
M  V30 3879 H 352.202 1.41139 -4.39178 0
M  V30 3880 H 350.445 1.26101 -4.15068 0
M  V30 3881 H 351.116 2.77121 -4.77397 0
M  V30 3882 H 353.592 3.01934 -2.86313 0
M  V30 3883 H 352.468 4.27551 -3.44226 0
M  V30 3884 H 352.729 4.07399 -1.71694 0
M  V30 3885 N 351.788 1.33704 0.83433 0
M  V30 3886 C 353.016 1.28467 1.62185 0
M  V30 3887 C 353.431 -0.143526 1.88254 0
M  V30 3888 O 352.788 -1.08709 1.4659 0
M  V30 3889 C 352.839 2.06174 2.96942 0
M  V30 3890 O 352.56 3.43422 2.72016 0
M  V30 3891 C 354.061 2.08201 3.91366 0
M  V30 3892 H 351.281 0.4424 0.504503 0
M  V30 3893 H 353.825 1.76145 1.03891 0
M  V30 3894 H 351.98 1.62167 3.51825 0
M  V30 3895 H 352.394 3.83453 3.57861 0
M  V30 3896 H 353.868 2.67017 4.83121 0
M  V30 3897 H 354.345 1.07343 4.2588 0
M  V30 3898 H 354.951 2.52246 3.42421 0
M  V30 3899 N 353.266 -1.05314 1.17247 0
M  V30 3900 C 354.514 -1.77941 0.958194 0
M  V30 3901 C 354.835 -1.88089 -0.514556 0
M  V30 3902 O 354.105 -1.39676 -1.37359 0
M  V30 3903 H 352.685 -0.659116 0.351533 0
M  V30 3904 H 355.347 -1.27166 1.47699 0
M  V30 3905 H 354.443 -2.79663 1.38546 0
M  V30 3906 N 354.744 -0.972509 -1.24016 0
M  V30 3907 C 355.99 -0.637978 -1.92504 0
M  V30 3908 C 356.323 0.825383 -1.75787 0
M  V30 3909 O 355.598 1.59442 -1.11393 0
M  V30 3910 C 355.881 -1.01942 -3.45369 0
M  V30 3911 C 355.734 -2.53983 -3.71231 0
M  V30 3912 C 357.053 -0.55751 -4.36555 0
M  V30 3913 H 354.172 -0.233248 -0.699117 0
M  V30 3914 H 356.814 -1.21238 -1.46292 0
M  V30 3915 H 354.964 -0.530656 -3.84859 0
M  V30 3916 H 356.636 -3.10374 -3.41271 0
M  V30 3917 H 354.879 -2.96968 -3.16216 0
M  V30 3918 H 355.55 -2.75723 -4.78206 0
M  V30 3919 H 358.026 -0.977029 -4.04467 0
M  V30 3920 H 356.902 -0.85292 -5.42233 0
M  V30 3921 H 357.163 0.542328 -4.38761 0
M  V30 3922 N 356.222 1.38976 -0.743202 0
M  V30 3923 C 357.633 1.83123 -0.363732 0
M  V30 3924 C 357.984 1.6205 1.10609 0
M  V30 3925 O 357.109 1.11606 1.854 0
M  V30 3926 C 357.704 3.32439 -0.653408 0
M  V30 3927 C 356.263 3.74974 -0.327338 0
M  V30 3928 C 355.41 2.61878 -0.911875 0
M  V30 3929 H 358.361 1.27852 -0.940191 0
M  V30 3930 H 358.382 3.80432 0.0720031 0
M  V30 3931 H 357.894 3.47745 -1.72323 0
M  V30 3932 H 355.995 3.65252 0.736314 0
M  V30 3933 H 356.108 4.72106 -0.815631 0
M  V30 3934 H 354.472 2.52448 -0.337944 0
M  V30 3935 H 355.255 2.79987 -1.98651 0
M  V30 3936 N 357.7 0.491464 1.49741 0
M  V30 3937 C 358.948 -0.0563141 2.02022 0
M  V30 3938 C 359.269 -1.38363 1.37407 0
M  V30 3939 O 358.539 -1.88702 0.526166 0
M  V30 3940 H 357.119 -0.0238014 0.746621 0
M  V30 3941 H 359.781 0.646533 1.83864 0
M  V30 3942 H 358.877 -0.192967 3.11503 0
M  V30 3943 N 359.178 -1.55987 0.224894 0
M  V30 3944 C 360.406 -2.02784 -0.410665 0
M  V30 3945 C 360.821 -1.10464 -1.53112 0
M  V30 3946 O 360.178 -0.114871 -1.82138 0
M  V30 3947 C 360.229 -3.49087 -0.939165 0
M  V30 3948 O 359.95 -4.37887 0.136614 0
M  V30 3949 C 361.451 -4.11543 -1.64763 0
M  V30 3950 H 358.671 -0.663484 -0.100148 0
M  V30 3951 H 361.215 -2.01614 0.342326 0
M  V30 3952 H 359.37 -3.50861 -1.64242 0
M  V30 3953 H 359.784 -5.23849 -0.261155 0
M  V30 3954 H 361.258 -5.15673 -1.96939 0
M  V30 3955 H 361.735 -3.56736 -2.56195 0
M  V30 3956 H 362.341 -4.13629 -0.989503 0
M  V30 3957 N 360.656 0.0484629 -1.57525 0
M  V30 3958 C 361.566 1.07241 -2.08654 0
M  V30 3959 C 362.582 1.409 -1.02095 0
M  V30 3960 O 363.758 1.50609 -1.33712 0
M  V30 3961 C 360.823 2.36008 -2.5397 0
M  V30 3962 C 359.884 2.09108 -3.7493 0
M  V30 3963 C 359.117 3.31736 -4.18075 0
M  V30 3964 O 359.34 4.41714 -3.60895 0
M  V30 3965 O 358.274 3.18576 -5.10679 0
M  V30 3966 H 362.1 0.667965 -2.96263 0
M  V30 3967 H 359.685 0.26417 -1.47046 0
M  V30 3968 H 361.567 3.11747 -2.83535 0
M  V30 3969 H 360.242 2.75786 -1.69481 0
M  V30 3970 H 359.149 1.31 -3.50414 0
M  V30 3971 H 360.482 1.74198 -4.60343 0
M  V30 3972 N 362.134 1.5431 0.320358 0
M  V30 3973 C 363.381 1.72668 1.05792 0
M  V30 3974 C 363.709 0.502084 1.87908 0
M  V30 3975 O 362.964 -0.516149 1.88771 0
M  V30 3976 C 363.263 2.95639 2.00828 0
M  V30 3977 C 362.929 4.30265 1.34843 0
M  V30 3978 C 361.591 4.66865 1.16578 0
M  V30 3979 C 363.943 5.13801 0.875095 0
M  V30 3980 C 361.271 5.84597 0.496336 0
M  V30 3981 C 363.623 6.32219 0.219463 0
M  V30 3982 C 362.287 6.67495 0.0246915 0
M  V30 3983 H 361.557 0.631837 0.387121 0
M  V30 3984 H 364.204 1.88552 0.334735 0
M  V30 3985 H 362.509 2.74456 2.79609 0
M  V30 3986 H 364.206 3.07038 2.57932 0
M  V30 3987 H 360.796 4.01472 1.50061 0
M  V30 3988 H 364.98 4.86039 1.00398 0
M  V30 3989 H 360.236 6.10486 0.334264 0
M  V30 3990 H 364.41 6.96227 -0.155291 0
M  V30 3991 H 362.037 7.5858 -0.496065 0
M  V30 3992 N 363.613 -0.582584 1.46437 0
M  V30 3993 C 364.859 -1.34278 1.51978 0
M  V30 3994 C 365.192 -1.93446 0.170973 0
M  V30 3995 O 364.467 -1.76481 -0.817608 0
M  V30 3996 C 364.75 -2.47203 2.61845 0
M  V30 3997 C 364.603 -1.93069 4.06257 0
M  V30 3998 C 365.922 -3.49247 2.67795 0
M  V30 3999 H 363.041 -0.486876 0.553282 0
M  V30 4000 H 365.683 -0.654437 1.78374 0
M  V30 4001 H 363.833 -3.0592 2.39469 0
M  V30 4002 H 365.505 -1.38808 4.3992 0
M  V30 4003 H 363.748 -1.23898 4.1573 0
M  V30 4004 H 364.419 -2.74586 4.7886 0
M  V30 4005 H 366.895 -3.00411 2.8791 0
M  V30 4006 H 365.771 -4.25719 3.46489 0
M  V30 4007 H 366.032 -4.06482 1.73852 0
M  V30 4008 N 365.091 -1.34144 -0.827227 0
M  V30 4009 C 366.023 -1.21206 -1.9453 0
M  V30 4010 C 367.036 -0.140176 -1.62195 0
M  V30 4011 O 368.225 -0.391647 -1.7415 0
M  V30 4012 C 365.325 -0.839141 -3.28347 0
M  V30 4013 C 364.498 -2.0051 -3.88734 0
M  V30 4014 C 363.557 -1.61128 -5.00923 0
M  V30 4015 O 362.583 -2.32726 -5.19449 0
M  V30 4016 N 363.785 -0.522958 -5.7814 0
M  V30 4017 H 366.55 -2.17525 -2.06162 0
M  V30 4018 H 364.111 -1.27043 -1.00358 0
M  V30 4019 H 366.103 -0.557556 -4.00841 0
M  V30 4020 H 364.673 0.0337293 -3.12582 0
M  V30 4021 H 363.893 -2.45166 -3.08686 0
M  V30 4022 H 365.181 -2.78498 -4.25812 0
M  V30 4023 H 364.579 0.0723518 -5.65654 0
M  V30 4024 H 363.136 -0.301089 -6.51104 0
M  V30 4025 N 366.569 1.04691 -1.17803 0
M  V30 4026 C 367.516 2.12557 -0.899343 0
M  V30 4027 C 368.486 1.65339 0.158771 0
M  V30 4028 O 369.671 1.90789 0.0204797 0
M  V30 4029 C 366.811 3.42481 -0.424315 0
M  V30 4030 C 365.924 4.03346 -1.54713 0
M  V30 4031 C 365.059 5.21208 -1.02546 0
M  V30 4032 C 364.098 5.74089 -2.12339 0
M  V30 4033 N 363.235 6.83247 -1.61612 0
M  V30 4034 H 368.075 2.35734 -1.823 0
M  V30 4035 H 365.612 1.1564 -0.909159 0
M  V30 4036 H 367.57 4.16996 -0.130421 0
M  V30 4037 H 366.2 3.19471 0.462377 0
M  V30 4038 H 365.252 3.2622 -1.95664 0
M  V30 4039 H 366.564 4.38628 -2.37501 0
M  V30 4040 H 365.718 6.02812 -0.685718 0
M  V30 4041 H 364.457 4.87414 -0.167084 0
M  V30 4042 H 363.462 4.91111 -2.47165 0
M  V30 4043 H 364.687 6.0993 -2.98601 0
M  V30 4044 H 362.633 6.5134 -0.780533 0
M  V30 4045 H 362.55 7.17559 -2.38003 0
M  V30 4046 H 363.818 7.68491 -1.30545 0
M  V30 4047 N 368.047 0.979072 1.23499 0
M  V30 4048 C 368.977 0.537606 2.27227 0
M  V30 4049 C 369.958 -0.428539 1.64613 0
M  V30 4050 O 371.143 -0.322191 1.91509 0
M  V30 4051 C 368.273 -0.162052 3.46922 0
M  V30 4052 C 367.227 0.721242 4.21879 0
M  V30 4053 C 366.553 -0.110555 5.34586 0
M  V30 4054 C 367.853 2.01141 4.82016 0
M  V30 4055 H 369.547 1.40462 2.64406 0
M  V30 4056 H 367.093 0.67684 1.27102 0
M  V30 4057 H 369.046 -0.482192 4.18632 0
M  V30 4058 H 367.77 -1.06351 3.08799 0
M  V30 4059 H 366.429 1.02482 3.51984 0
M  V30 4060 H 366.077 -1.0125 4.92704 0
M  V30 4061 H 365.777 0.477325 5.85658 0
M  V30 4062 H 367.301 -0.425107 6.09118 0
M  V30 4063 H 368.715 1.75612 5.45741 0
M  V30 4064 H 367.112 2.54695 5.43369 0
M  V30 4065 H 368.182 2.69909 4.02836 0
M  V30 4066 N 369.525 -1.3858 0.750561 0
M  V30 4067 C 370.473 -2.32339 0.110162 0
M  V30 4068 C 371.467 -1.53864 -0.708674 0
M  V30 4069 O 372.673 -1.69417 -0.608112 0
M  V30 4070 H 369.048 -0.751812 0.0168275 0
M  V30 4071 H 371.019 -2.83959 0.917053 0
M  V30 4072 C 369.768 -3.39043 -0.771067 0
M  V30 4073 H 369.091 -3.99517 -0.150374 0
M  V30 4074 H 370.531 -4.07061 -1.1865 0
M  V30 4075 C 368.99 -2.77365 -1.91234 0
M  V30 4076 O 369.52 -2.66434 -3.00626 0
M  V30 4077 N 367.726 -2.35219 -1.70646 0
M  V30 4078 H 367.273 -2.4431 -0.81673 0
M  V30 4079 H 367.231 -1.94294 -2.47178 0
M  V30 4080 N 371.003 -0.499398 -1.49478 0
M  V30 4081 C 372.28 0.108629 -1.95298 0
M  V30 4082 C 372.66 1.54282 -1.44084 0
M  V30 4083 O 372.008 2.18944 -0.653908 0
M  V30 4084 C 372.218 0.0229111 -3.48992 0
M  V30 4085 C 373.566 0.197643 -4.2414 0
M  V30 4086 O 374.59 0.0981735 -3.56065 0
M  V30 4087 O 373.449 0.401669 -5.45022 0
M  V30 4088 H 370.543 0.096181 -0.821388 0
M  V30 4089 H 373.089 -0.561822 -1.6013 0
M  V30 4090 H 371.861 -0.977321 -3.78899 0
M  V30 4091 H 371.484 0.733579 -3.90774 0
M  V30 4092 N 372.481 1.55866 -0.233164 0
M  V30 4093 C 373.428 2.20796 0.67215 0
M  V30 4094 C 374.398 1.16731 1.18166 0
M  V30 4095 O 375.583 1.45129 1.23864 0
M  V30 4096 C 372.723 2.90072 1.86955 0
M  V30 4097 C 371.836 4.08759 1.39786 0
M  V30 4098 C 370.971 4.65787 2.55374 0
M  V30 4099 C 370.01 5.76752 2.04998 0
M  V30 4100 N 369.147 6.28021 3.13901 0
M  V30 4101 H 373.987 2.9779 0.111749 0
M  V30 4102 H 371.524 1.47036 0.0434007 0
M  V30 4103 H 373.482 3.28428 2.57276 0
M  V30 4104 H 372.112 2.15575 2.40265 0
M  V30 4105 H 371.164 3.7581 0.589173 0
M  V30 4106 H 372.476 4.88906 0.98856 0
M  V30 4107 H 371.63 5.06646 3.33758 0
M  V30 4108 H 370.369 3.84828 2.99598 0
M  V30 4109 H 369.374 5.35383 1.25079 0
M  V30 4110 H 370.599 6.59553 1.61759 0
M  V30 4111 H 368.545 5.49971 3.57586 0
M  V30 4112 H 368.462 7.03323 2.7726 0
M  V30 4113 H 369.73 6.73538 3.92386 0
M  V30 4114 N 373.959 -0.0401083 1.57549 0
M  V30 4115 C 374.922 -1.02871 2.04817 0
M  V30 4116 C 375.922 -1.29708 0.950388 0
M  V30 4117 O 377.112 -1.24897 1.21435 0
M  V30 4118 C 374.244 -2.36443 2.45576 0
M  V30 4119 H 375.437 -0.620631 2.93408 0
M  V30 4120 H 372.99 -0.286667 1.53649 0
M  V30 4121 H 373.725 -2.82021 1.60108 0
M  V30 4122 H 373.51 -2.18296 3.25713 0
M  V30 4123 H 375 -3.07441 2.82612 0
M  V30 4124 N 375.437 -1.54477 -0.31217 0
M  V30 4125 C 376.4 -1.83923 -1.36766 0
M  V30 4126 C 377.4 -0.711563 -1.44199 0
M  V30 4127 O 378.59 -0.979866 -1.44029 0
M  V30 4128 C 375.722 -2.0095 -2.75376 0
M  V30 4129 H 376.915 -2.78239 -1.11906 0
M  V30 4130 H 374.468 -1.46369 -0.548257 0
M  V30 4131 H 375.203 -1.08883 -3.05475 0
M  V30 4132 H 374.988 -2.83018 -2.71373 0
M  V30 4133 H 376.478 -2.2514 -3.51713 0
M  V30 4134 N 376.915 0.57481 -1.46744 0
M  V30 4135 C 377.862 1.68329 -1.57905 0
M  V30 4136 C 378.832 1.60625 -0.422927 0
M  V30 4137 O 380.017 1.79721 -0.640711 0
M  V30 4138 C 377.157 3.06665 -1.58274 0
M  V30 4139 C 376.27 3.24935 -2.84678 0
M  V30 4140 C 375.405 4.53566 -2.76499 0
M  V30 4141 C 374.444 4.65207 -3.97806 0
M  V30 4142 N 373.581 5.85172 -3.87967 0
M  V30 4143 H 378.421 1.58127 -2.52587 0
M  V30 4144 H 375.958 0.770552 -1.25303 0
M  V30 4145 H 377.916 3.86745 -1.56473 0
M  V30 4146 H 376.546 3.15745 -0.671194 0
M  V30 4147 H 375.598 2.38405 -2.96424 0
M  V30 4148 H 376.91 3.29403 -3.7456 0
M  V30 4149 H 376.064 5.41885 -2.72848 0
M  V30 4150 H 374.803 4.51548 -1.8427 0
M  V30 4151 H 373.808 3.75304 -4.0178 0
M  V30 4152 H 375.033 4.68997 -4.9114 0
M  V30 4153 H 372.979 5.84137 -2.98529 0
M  V30 4154 H 372.896 5.90943 -4.71511 0
M  V30 4155 H 374.164 6.759 -3.88303 0
M  V30 4156 N 378.394 1.34581 0.820102 0
M  V30 4157 C 379.619 1.30333 1.61332 0
M  V30 4158 C 380.044 -0.119339 1.87721 0
M  V30 4159 O 379.402 -1.08197 1.45475 0
M  V30 4160 C 379.45 2.10258 2.92957 0
M  V30 4161 O 378.554 1.47404 3.85157 0
M  V30 4162 H 377.895 0.447488 0.490561 0
M  V30 4163 H 380.425 1.77425 1.01889 0
M  V30 4164 H 380.435 2.21718 3.42498 0
M  V30 4165 H 379.11 3.13693 2.73074 0
M  V30 4166 H 377.687 1.44703 3.43679 0
M  V30 4167 N 379.872 -1.04064 1.18357 0
M  V30 4168 C 381.102 -1.80654 1.00238 0
M  V30 4169 C 381.51 -1.83713 -0.452362 0
M  V30 4170 O 380.853 -1.27135 -1.32599 0
M  V30 4171 C 380.915 -3.27582 1.48088 0
M  V30 4172 C 380.579 -3.48184 2.96002 0
M  V30 4173 C 381.576 -3.39372 3.93856 0
M  V30 4174 C 379.261 -3.7478 3.34433 0
M  V30 4175 C 381.255 -3.5686 5.28138 0
M  V30 4176 C 378.942 -3.91915 4.68877 0
M  V30 4177 C 379.94 -3.82956 5.65539 0
M  V30 4178 O 379.628 -3.996 6.97549 0
M  V30 4179 H 379.36 -0.575751 0.354241 0
M  V30 4180 H 381.914 -1.32044 1.57333 0
M  V30 4181 H 380.144 -3.77161 0.853588 0
M  V30 4182 H 381.833 -3.8573 1.2636 0
M  V30 4183 H 382.599 -3.18789 3.65511 0
M  V30 4184 H 378.478 -3.80852 2.59756 0
M  V30 4185 H 382.022 -3.49783 6.03571 0
M  V30 4186 H 377.919 -4.11992 4.96923 0
M  V30 4187 H 378.687 -4.1676 7.04452 0
M  V30 4188 N 381.35 -0.985608 -1.22978 0
M  V30 4189 C 382.599 -0.652881 -1.90841 0
M  V30 4190 C 382.912 0.817842 -1.77681 0
M  V30 4191 O 384.118 1.26185 -2.40395 0
M  V30 4192 C 382.574 -1.11717 -3.42122 0
M  V30 4193 C 382.182 -2.6126 -3.63933 0
M  V30 4194 C 383.926 -0.85843 -4.1573 0
M  V30 4195 C 381.833 -3.0133 -5.08876 0
M  V30 4196 H 380.763 -0.240491 -0.714619 0
M  V30 4197 H 383.414 -1.1942 -1.39324 0
M  V30 4198 H 381.796 -0.504027 -3.92779 0
M  V30 4199 H 382.97 -3.27858 -3.23799 0
M  V30 4200 H 381.285 -2.84937 -3.03644 0
M  V30 4201 H 383.882 -1.13359 -5.22546 0
M  V30 4202 H 384.225 0.205461 -4.15793 0
M  V30 4203 H 384.758 -1.43341 -3.71077 0
M  V30 4204 H 381.497 -4.06864 -5.13947 0
M  V30 4205 H 381.017 -2.3943 -5.49939 0
M  V30 4206 H 382.696 -2.92224 -5.77247 0
M  V30 4207 N 382.828 1.3818 -0.7579 0
M  V30 4208 C 383.76 2.2901 -0.0932177 0
M  V30 4209 C 384.773 1.47958 0.679136 0
M  V30 4210 O 385.962 1.70773 0.519514 0
M  V30 4211 C 383.062 3.26953 0.89192 0
M  V30 4212 C 382.235 4.37045 0.176303 0
M  V30 4213 C 381.294 5.15148 1.07281 0
M  V30 4214 O 380.32 5.66616 0.541728 0
M  V30 4215 N 381.522 5.28542 2.40049 0
M  V30 4216 H 384.287 2.86694 -0.873303 0
M  V30 4217 H 381.848 1.50007 -0.609054 0
M  V30 4218 H 383.84 3.76083 1.49479 0
M  V30 4219 H 382.41 2.70136 1.57306 0
M  V30 4220 H 381.63 3.89493 -0.607328 0
M  V30 4221 H 382.918 5.07801 -0.318718 0
M  V30 4222 H 382.316 4.88285 2.85647 0
M  V30 4223 H 380.873 5.8103 2.95376 0
M  V30 4224 N 384.306 0.507319 1.49211 0
M  V30 4225 C 385.531 -0.033725 2.07373 0
M  V30 4226 C 385.956 -1.29485 1.36437 0
M  V30 4227 O 385.314 -1.76294 0.423087 0
M  V30 4228 C 385.362 -0.263945 3.59633 0
M  V30 4229 O 384.466 -1.33737 3.90113 0
M  V30 4230 H 383.807 0.0290331 0.663365 0
M  V30 4231 H 386.337 0.708749 1.91932 0
M  V30 4232 H 386.347 -0.493536 4.05004 0
M  V30 4233 H 385.022 0.657424 4.10671 0
M  V30 4234 H 383.599 -1.09224 3.56545 0
M  V30 4235 N 385.784 -1.5574 0.241426 0
M  V30 4236 C 386.714 -2.24133 -0.654722 0
M  V30 4237 C 387.695 -1.21974 -1.1856 0
M  V30 4238 O 388.88 -1.50612 -1.22595 0
M  V30 4239 C 386.01 -2.93659 -1.85423 0
M  V30 4240 C 384.964 -4.0246 -1.45636 0
M  V30 4241 C 384.29 -4.59383 -2.73626 0
M  V30 4242 C 385.59 -5.18468 -0.631506 0
M  V30 4243 H 387.284 -2.99281 -0.0844353 0
M  V30 4244 H 384.83 -1.43947 -0.0391707 0
M  V30 4245 H 386.783 -3.40203 -2.48676 0
M  V30 4246 H 385.507 -2.15991 -2.44981 0
M  V30 4247 H 384.166 -3.56676 -0.847202 0
M  V30 4248 H 383.814 -3.78422 -3.3137 0
M  V30 4249 H 383.514 -5.32826 -2.4773 0
M  V30 4250 H 385.038 -5.08658 -3.37786 0
M  V30 4251 H 386.452 -5.61272 -1.1682 0
M  V30 4252 H 384.849 -5.98266 -0.468831 0
M  V30 4253 H 385.919 -4.8358 0.357506 0
M  V30 4254 N 387.262 0.0317525 -1.57568 0
M  V30 4255 C 388.673 0.578692 -1.77505 0
M  V30 4256 C 389.024 1.75749 -0.872164 0
M  V30 4257 O 388.149 2.16298 -0.0663106 0
M  V30 4258 C 388.744 1.05658 -3.21904 0
M  V30 4259 C 387.303 1.54906 -3.43047 0
M  V30 4260 C 386.45 0.485939 -2.73009 0
M  V30 4261 H 389.401 -0.194475 -1.57504 0
M  V30 4262 H 389.422 1.92404 -3.28269 0
M  V30 4263 H 388.934 0.198422 -3.87592 0
M  V30 4264 H 387.035 2.42915 -2.82529 0
M  V30 4265 H 387.148 1.59841 -4.5165 0
M  V30 4266 H 385.512 0.940354 -2.36705 0
M  V30 4267 H 386.295 -0.362709 -3.41379 0
M  V30 4268 N 388.74 1.54641 0.303973 0
M  V30 4269 C 389.672 1.81754 1.39636 0
M  V30 4270 C 390.685 0.70035 1.46966 0
M  V30 4271 O 391.874 0.97778 1.49338 0
M  V30 4272 C 388.974 1.93785 2.7803 0
M  V30 4273 C 388.147 3.24156 2.93669 0
M  V30 4274 C 387.206 3.26641 4.12544 0
M  V30 4275 O 386.232 4.00187 4.04771 0
M  V30 4276 N 387.434 2.5182 5.23036 0
M  V30 4277 H 390.199 2.76031 1.16734 0
M  V30 4278 H 387.76 1.54178 0.494033 0
M  V30 4279 H 389.752 1.92852 3.55795 0
M  V30 4280 H 388.322 1.06515 2.93893 0
M  V30 4281 H 387.542 3.37887 2.03042 0
M  V30 4282 H 388.83 4.10195 3.01027 0
M  V30 4283 H 388.228 1.91692 5.32232 0
M  V30 4284 H 386.785 2.56644 5.99147 0
M  V30 4285 N 390.218 -0.567019 1.47046 0
M  V30 4286 C 391.446 -1.35027 1.56765 0
M  V30 4287 C 391.861 -1.8758 0.214316 0
M  V30 4288 O 391.218 -1.64471 -0.790919 0
M  V30 4289 C 391.269 -2.52698 2.58507 0
M  V30 4290 O 390.99 -2.0232 3.88585 0
M  V30 4291 C 392.491 -3.45043 2.78316 0
M  V30 4292 H 389.711 -0.41195 0.529658 0
M  V30 4293 H 392.255 -0.687832 1.92585 0
M  V30 4294 H 390.41 -3.149 2.25648 0
M  V30 4295 H 390.824 -2.79068 4.44096 0
M  V30 4296 H 392.298 -4.2405 3.53391 0
M  V30 4297 H 392.775 -3.97971 1.85784 0
M  V30 4298 H 393.381 -2.88665 3.12334 0
M  V30 4299 N 391.696 -1.35014 -0.812953 0
M  V30 4300 C 393.107 -1.25035 -1.38648 0
M  V30 4301 C 393.458 0.119967 -1.95833 0
M  V30 4302 O 392.583 1.02069 -1.90816 0
M  V30 4303 C 393.178 -2.26394 -2.52054 0
M  V30 4304 C 391.737 -2.20175 -3.05287 0
M  V30 4305 C 390.884 -2.12451 -1.78213 0
M  V30 4306 H 393.835 -1.46235 -0.616516 0
M  V30 4307 H 393.856 -1.88672 -3.30429 0
M  V30 4308 H 393.368 -3.26116 -2.10404 0
M  V30 4309 H 391.469 -1.23841 -3.51417 0
M  V30 4310 H 391.582 -3.11863 -3.63701 0
M  V30 4311 H 389.946 -1.58328 -1.9951 0
M  V30 4312 H 390.729 -3.14024 -1.38723 0
M  V30 4313 N 393.175 1.03435 -1.18907 0
M  V30 4314 C 394.591 1.28973 -0.940111 0
M  V30 4315 C 394.791 1.97676 0.390691 0
M  V30 4316 O 393.847 2.26127 1.12352 0
M  V30 4317 C 395.16 2.14221 -2.11021 0
M  V30 4318 C 396.708 2.27547 -2.14922 0
M  V30 4319 C 397.183 3.16164 -3.31367 0
M  V30 4320 N 398.674 3.23752 -3.31269 0
M  V30 4321 C 399.409 3.92495 -4.18014 0
M  V30 4322 N 398.905 4.63515 -5.14904 0
M  V30 4323 N 400.698 3.88838 -4.05908 0
M  V30 4324 H 392.849 0.57252 -2.04538 0
M  V30 4325 H 395.112 0.315184 -0.894071 0
M  V30 4326 H 394.818 1.71054 -3.073 0
M  V30 4327 H 394.692 3.14919 -2.0762 0
M  V30 4328 H 397.079 2.69947 -1.19217 0
M  V30 4329 H 397.16 1.26418 -2.22378 0
M  V30 4330 H 396.804 2.74474 -4.27348 0
M  V30 4331 H 396.734 4.17339 -3.21148 0
M  V30 4332 H 399.225 2.73167 -2.61129 0
M  V30 4333 H 399.538 5.13583 -5.77453 0
M  V30 4334 H 397.883 4.62398 -5.18857 0
M  V30 4335 H 401.074 3.32491 -3.29495 0
M  V30 4336 H 401.247 4.4214 -4.73726 0
M  V30 4337 N 394.653 0.992116 1.22453 0
M  V30 4338 C 395.6 0.541731 2.24352 0
M  V30 4339 C 396.57 -0.425519 1.60557 0
M  V30 4340 O 397.755 -0.330453 1.87917 0
M  V30 4341 C 394.895 -0.138248 3.44823 0
M  V30 4342 C 394.008 0.870649 4.23136 0
M  V30 4343 C 393.143 0.164269 5.30946 0
M  V30 4344 C 392.182 1.16159 6.00977 0
M  V30 4345 N 391.319 0.483568 7.00433 0
M  V30 4346 H 396.159 1.41541 2.62241 0
M  V30 4347 H 393.696 0.709013 1.28885 0
M  V30 4348 H 395.654 -0.5494 4.13567 0
M  V30 4349 H 394.284 -0.975721 3.077 0
M  V30 4350 H 393.336 1.40013 3.53696 0
M  V30 4351 H 394.648 1.63014 4.7141 0
M  V30 4352 H 393.802 -0.303653 6.0594 0
M  V30 4353 H 392.541 -0.627733 4.83643 0
M  V30 4354 H 391.546 1.64015 5.24766 0
M  V30 4355 H 392.771 1.95445 6.50368 0
M  V30 4356 H 390.717 -0.289012 6.55363 0
M  V30 4357 H 390.634 1.18152 7.4671 0
M  V30 4358 H 391.902 0.0384219 7.79491 0
M  V30 4359 N 396.131 -1.37776 0.765217 0
M  V30 4360 C 397.408 -1.93975 0.251596 0
M  V30 4361 C 397.788 -1.69949 -1.25222 0
M  V30 4362 O 397.136 -1.04457 -2.03226 0
M  V30 4363 C 397.346 -3.43487 0.617895 0
M  V30 4364 C 398.694 -4.20564 0.584029 0
M  V30 4365 O 399.718 -3.5182 0.556888 0
M  V30 4366 O 398.577 -5.43138 0.605291 0
M  V30 4367 H 395.671 -0.82509 0.0561806 0
M  V30 4368 H 398.217 -1.47101 0.846128 0
M  V30 4369 H 396.989 -3.5453 1.65602 0
M  V30 4370 H 396.612 -3.976 -0.00403411 0
M  V30 4371 N 397.609 -0.515225 -1.4894 0
M  V30 4372 C 398.856 0.024215 -2.02486 0
M  V30 4373 C 399.184 1.35671 -1.39368 0
M  V30 4374 O 398.439 1.88566 -0.523574 0
M  V30 4375 C 398.738 0.210595 -3.56779 0
M  V30 4376 C 398.404 -1.04569 -4.38607 0
M  V30 4377 C 397.066 -1.39002 -4.60686 0
M  V30 4378 C 399.418 -1.88008 -4.86109 0
M  V30 4379 C 396.746 -2.568 -5.27514 0
M  V30 4380 C 399.098 -3.04972 -5.54234 0
M  V30 4381 C 397.762 -3.39768 -5.74555 0
M  V30 4382 H 397.032 0.00886088 -0.740947 0
M  V30 4383 H 399.679 -0.678263 -1.79086 0
M  V30 4384 H 397.984 0.99572 -3.78936 0
M  V30 4385 H 399.681 0.642659 -3.95817 0
M  V30 4386 H 396.271 -0.767497 -4.21672 0
M  V30 4387 H 400.455 -1.62719 -4.68867 0
M  V30 4388 H 395.711 -2.8398 -5.41447 0
M  V30 4389 H 399.885 -3.69943 -5.90013 0
M  V30 4390 H 397.512 -4.31148 -6.26112 0
M  V30 4391 N 399.087 1.5561 -0.249682 0
M  V30 4392 C 400.315 2.03411 0.378352 0
M  V30 4393 C 400.73 1.12886 1.51335 0
M  V30 4394 O 400.087 0.143833 1.81932 0
M  V30 4395 C 400.138 3.50537 0.88351 0
M  V30 4396 O 399.859 4.37614 -0.20626 0
M  V30 4397 C 401.36 4.14113 1.58195 0
M  V30 4398 H 398.58 0.664994 0.08958 0
M  V30 4399 H 401.124 2.01044 -0.374357 0
M  V30 4400 H 399.279 3.5343 1.58639 0
M  V30 4401 H 399.693 5.24199 0.177782 0
M  V30 4402 H 401.167 5.18741 1.8871 0
M  V30 4403 H 401.644 3.60767 2.50487 0
M  V30 4404 H 402.25 4.15151 0.923573 0
M  V30 4405 N 400.565 -0.0233959 1.57583 0
M  V30 4406 C 401.497 -1.04994 2.03737 0
M  V30 4407 C 402.51 -1.32125 0.951152 0
M  V30 4408 O 403.699 -1.29512 1.22837 0
M  V30 4409 C 400.799 -2.39026 2.40249 0
M  V30 4410 C 399.972 -2.31171 3.7132 0
M  V30 4411 C 399.031 -3.47698 3.94959 0
M  V30 4412 O 398.057 -3.26937 4.65941 0
M  V30 4413 N 399.259 -4.6976 3.41037 0
M  V30 4414 H 402.024 -0.656507 2.92421 0
M  V30 4415 H 399.585 -0.211235 1.60516 0
M  V30 4416 H 401.577 -3.15712 2.53196 0
M  V30 4417 H 400.147 -2.70194 1.57207 0
M  V30 4418 H 399.367 -1.39547 3.68674 0
M  V30 4419 H 400.655 -2.23071 4.57293 0
M  V30 4420 H 400.053 -4.89528 2.83512 0
M  V30 4421 H 398.61 -5.43791 3.59353 0
M  V30 4422 N 402.043 -1.548 -0.295768 0
M  V30 4423 C 402.973 -1.89115 -1.36959 0
M  V30 4424 C 403.954 -0.75059 -1.52644 0
M  V30 4425 O 405.139 -1.00678 -1.66065 0
M  V30 4426 C 402.269 -2.14307 -2.73295 0
M  V30 4427 C 401.223 -3.30151 -2.72368 0
M  V30 4428 C 400.549 -3.40772 -4.12042 0
M  V30 4429 C 401.849 -4.67126 -2.33646 0
M  V30 4430 H 403.543 -2.79053 -1.08488 0
M  V30 4431 H 401.089 -1.34266 -0.520443 0
M  V30 4432 H 403.042 -2.36898 -3.48507 0
M  V30 4433 H 401.766 -1.21145 -3.03301 0
M  V30 4434 H 400.425 -3.0749 -1.99613 0
M  V30 4435 H 400.073 -2.45117 -4.39234 0
M  V30 4436 H 399.773 -4.18645 -4.12322 0
M  V30 4437 H 401.297 -3.6563 -4.89027 0
M  V30 4438 H 402.711 -4.89414 -2.98575 0
M  V30 4439 H 401.108 -5.47751 -2.45129 0
M  V30 4440 H 402.178 -4.67489 -1.28772 0
M  V30 4441 N 403.521 0.559213 -1.47345 0
M  V30 4442 C 404.768 1.31648 -1.53867 0
M  V30 4443 C 405.096 1.93468 -0.200104 0
M  V30 4444 O 404.351 1.78295 0.806799 0
M  V30 4445 C 404.65 2.44853 -2.6035 0
M  V30 4446 C 404.316 2.00876 -4.03683 0
M  V30 4447 C 402.978 1.88599 -4.42701 0
M  V30 4448 C 405.33 1.67279 -4.93626 0
M  V30 4449 C 402.658 1.41017 -5.69501 0
M  V30 4450 C 405.01 1.21169 -6.20887 0
M  V30 4451 C 403.674 1.07487 -6.58789 0
M  V30 4452 H 402.944 0.481734 -0.56304 0
M  V30 4453 H 405.591 0.627301 -1.80934 0
M  V30 4454 H 403.896 3.19318 -2.27032 0
M  V30 4455 H 405.593 3.03039 -2.62619 0
M  V30 4456 H 402.183 2.11374 -3.72853 0
M  V30 4457 H 406.367 1.75638 -4.64182 0
M  V30 4458 H 401.623 1.29086 -5.97618 0
M  V30 4459 H 405.797 0.942345 -6.89995 0
M  V30 4460 H 403.424 0.703946 -7.56934 0
M  V30 4461 N 404.999 1.35443 0.805782 0
M  V30 4462 C 406.41 1.25768 1.37983 0
M  V30 4463 C 406.761 -0.10958 1.95894 0
M  V30 4464 O 405.886 -1.01056 1.91355 0
M  V30 4465 C 406.481 2.27727 2.5085 0
M  V30 4466 C 405.04 2.2179 3.04115 0
M  V30 4467 C 404.187 2.13393 1.77084 0
M  V30 4468 H 407.138 1.4656 0.608752 0
M  V30 4469 H 407.159 1.90422 3.29424 0
M  V30 4470 H 406.671 3.27227 2.08671 0
M  V30 4471 H 404.772 1.25703 3.50756 0
M  V30 4472 H 404.885 3.13788 3.62042 0
M  V30 4473 H 403.249 1.59384 1.98668 0
M  V30 4474 H 404.032 3.14755 1.37056 0
M  V30 4475 N 406.477 -1.02803 1.19454 0
M  V30 4476 C 407.893 -1.28473 0.946937 0
M  V30 4477 C 408.093 -1.97881 -0.380202 0
M  V30 4478 O 407.149 -2.26719 -1.11151 0
M  V30 4479 C 408.462 -2.13099 2.12154 0
M  V30 4480 C 410.01 -2.26404 2.16126 0
M  V30 4481 C 410.485 -3.14402 3.33039 0
M  V30 4482 N 411.976 -3.21991 3.32981 0
M  V30 4483 C 412.711 -3.90272 4.20089 0
M  V30 4484 N 412.207 -4.60777 5.17355 0
M  V30 4485 N 414 -3.8668 4.07964 0
M  V30 4486 H 406.151 -0.561665 2.04839 0
M  V30 4487 H 408.414 -0.310438 0.89573 0
M  V30 4488 H 408.12 -1.69422 3.08203 0
M  V30 4489 H 407.994 -3.13813 2.09287 0
M  V30 4490 H 410.381 -2.69311 1.20647 0
M  V30 4491 H 410.462 -1.25237 2.23045 0
M  V30 4492 H 410.106 -2.72204 4.28798 0
M  V30 4493 H 410.036 -4.1563 3.23356 0
M  V30 4494 H 412.527 -2.71778 2.62574 0
M  V30 4495 H 412.84 -5.10513 5.80169 0
M  V30 4496 H 411.185 -4.5964 5.21302 0
M  V30 4497 H 414.376 -3.30739 3.31254 0
M  V30 4498 H 414.549 -4.39621 4.76064 0
M  V30 4499 N 407.956 -0.998596 -1.21925 0
M  V30 4500 C 408.919 -0.558679 -2.22287 0
M  V30 4501 C 409.919 0.361525 -1.56683 0
M  V30 4502 O 411.109 0.152695 -1.73529 0
M  V30 4503 C 408.241 0.18661 -3.40389 0
M  V30 4504 H 409.434 -1.4463 -2.62721 0
M  V30 4505 H 406.987 -0.786413 -1.35075 0
M  V30 4506 H 407.722 1.08996 -3.05435 0
M  V30 4507 H 407.507 -0.474188 -3.89222 0
M  V30 4508 H 408.997 0.482367 -4.14805 0
M  V30 4509 N 409.434 1.37368 -0.772513 0
M  V30 4510 C 410.659 2.0447 -0.347386 0
M  V30 4511 C 411.084 1.57882 1.0225 0
M  V30 4512 O 410.442 0.73941 1.65537 0
M  V30 4513 C 410.49 3.58369 -0.400479 0
M  V30 4514 O 409.594 4.0803 0.598789 0
M  V30 4515 H 408.935 0.646773 -0.15027 0
M  V30 4516 H 411.465 1.75667 -1.04892 0
M  V30 4517 H 411.475 4.07183 -0.258045 0
M  V30 4518 H 410.15 3.91633 -1.39986 0
M  V30 4519 H 408.727 3.70534 0.419411 0
M  V30 4520 N 410.912 0.523116 1.48665 0
M  V30 4521 C 412.323 0.0808997 1.86525 0
M  V30 4522 C 412.674 -1.33975 1.43336 0
M  V30 4523 O 411.799 -2.00221 0.821009 0
M  V30 4524 C 412.394 0.140037 3.3851 0
M  V30 4525 C 410.953 -0.246948 3.75589 0
M  V30 4526 C 410.1 0.502845 2.72703 0
M  V30 4527 H 413.051 0.734736 1.40667 0
M  V30 4528 H 413.072 -0.649945 3.74908 0
M  V30 4529 H 412.584 1.17412 3.69914 0
M  V30 4530 H 410.685 -1.28343 3.49798 0
M  V30 4531 H 410.798 0.0878859 4.79019 0
M  V30 4532 H 409.162 -0.0500581 2.54651 0
M  V30 4533 H 409.945 1.53743 3.0695 0
M  V30 4534 N 412.39 -1.55475 0.257931 0
M  V30 4535 C 413.322 -2.19192 -0.669881 0
M  V30 4536 C 414.335 -1.17148 -1.1305 0
M  V30 4537 O 415.524 -1.43959 -1.05537 0
M  V30 4538 C 412.624 -2.79016 -1.92363 0
M  V30 4539 C 411.797 -4.06586 -1.61265 0
M  V30 4540 C 410.856 -4.50622 -2.7171 0
M  V30 4541 O 409.882 -5.16765 -2.38627 0
M  V30 4542 N 411.084 -4.19325 -4.01431 0
M  V30 4543 H 413.849 -2.99441 -0.124635 0
M  V30 4544 H 411.41 -1.6171 0.0783311 0
M  V30 4545 H 413.402 -3.05427 -2.65511 0
M  V30 4546 H 411.972 -2.0286 -2.37837 0
M  V30 4547 H 411.192 -3.87646 -0.715811 0
M  V30 4548 H 412.48 -4.89737 -1.37967 0
M  V30 4549 H 411.878 -3.66247 -4.31138 0
M  V30 4550 H 410.435 -4.50547 -4.7101 0
M  V30 4551 N 413.868 0.0150385 -1.57593 0
M  V30 4552 C 414.831 0.995996 -2.06428 0
M  V30 4553 C 415.831 1.2818 -0.970903 0
M  V30 4554 O 417.021 1.22949 -1.23406 0
M  V30 4555 C 414.153 2.32506 -2.49307 0
M  V30 4556 H 415.346 0.573873 -2.94358 0
M  V30 4557 H 412.899 0.262186 -1.54085 0
M  V30 4558 H 413.634 2.79438 -1.64575 0
M  V30 4559 H 413.419 2.13087 -3.29145 0
M  V30 4560 H 414.909 3.02906 -2.87468 0
M  V30 4561 N 415.346 1.54954 0.287554 0
M  V30 4562 C 416.309 1.86076 1.33823 0
M  V30 4563 C 417.309 0.734414 1.43049 0
M  V30 4564 O 418.499 1.00266 1.42452 0
M  V30 4565 C 415.631 2.05305 2.72144 0
M  V30 4566 H 416.824 2.79984 1.07465 0
M  V30 4567 H 414.377 1.47223 0.524902 0
M  V30 4568 H 415.112 1.1373 3.03704 0
M  V30 4569 H 414.897 2.873 2.66836 0
M  V30 4570 H 416.387 2.30706 3.48087 0
M  V30 4571 N 416.824 -0.551391 1.4764 0
M  V30 4572 C 418.101 -1.31229 1.45046 0
M  V30 4573 C 418.481 -2.10563 0.150527 0
M  V30 4574 O 417.829 -2.11374 -0.867956 0
M  V30 4575 C 418.039 -2.21189 2.69956 0
M  V30 4576 C 419.387 -2.82021 3.1741 0
M  V30 4577 O 420.411 -2.31488 2.70724 0
M  V30 4578 O 419.27 -3.73885 3.98588 0
M  V30 4579 H 416.364 -0.591193 0.578291 0
M  V30 4580 H 418.91 -0.569813 1.59847 0
M  V30 4581 H 417.682 -1.62207 3.56096 0
M  V30 4582 H 417.305 -3.02722 2.57769 0
M  V30 4583 N 418.302 -1.35869 -0.798587 0
M  V30 4584 C 419.232 -1.32118 -1.92528 0
M  V30 4585 C 420.213 -0.194209 -1.68988 0
M  V30 4586 O 421.398 -0.390426 -1.90235 0
M  V30 4587 C 418.528 -1.10047 -3.29404 0
M  V30 4588 C 417.482 -2.19471 -3.67446 0
M  V30 4589 C 416.808 -1.82555 -5.02571 0
M  V30 4590 C 418.108 -3.61495 -3.76987 0
M  V30 4591 H 419.802 -2.26394 -1.95924 0
M  V30 4592 H 417.348 -1.08981 -0.94123 0
M  V30 4593 H 419.301 -1.06061 -4.07835 0
M  V30 4594 H 418.025 -0.122195 -3.26371 0
M  V30 4595 H 416.684 -2.22568 -2.91306 0
M  V30 4596 H 416.332 -0.833249 -4.9605 0
M  V30 4597 H 416.032 -2.5581 -5.28995 0
M  V30 4598 H 417.556 -1.80108 -5.83432 0
M  V30 4599 H 418.97 -3.60676 -4.4563 0
M  V30 4600 H 417.367 -4.33577 -4.14887 0
M  V30 4601 H 418.437 -3.97065 -2.78329 0
M  V30 4602 N 419.78 1.02168 -1.19998 0
M  V30 4603 C 420.71 2.12488 -0.96804 0
M  V30 4604 C 421.691 1.69799 0.101185 0
M  V30 4605 O 422.876 1.94121 -0.0552993 0
M  V30 4606 C 420.006 3.43479 -0.513776 0
M  V30 4607 C 418.96 3.99884 -1.52566 0
M  V30 4608 C 418.286 5.26582 -0.928214 0
M  V30 4609 C 419.586 4.33861 -2.90795 0
M  V30 4610 H 421.28 2.32149 -1.89069 0
M  V30 4611 H 418.826 1.11564 -0.910468 0
M  V30 4612 H 420.779 4.20036 -0.338774 0
M  V30 4613 H 419.503 3.23561 0.444493 0
M  V30 4614 H 418.162 3.25429 -1.68794 0
M  V30 4615 H 417.81 5.02986 0.0378289 0
M  V30 4616 H 417.51 5.65284 -1.60397 0
M  V30 4617 H 419.034 6.05799 -0.764167 0
M  V30 4618 H 420.448 5.01327 -2.78109 0
M  V30 4619 H 418.845 4.83664 -3.55231 0
M  V30 4620 H 419.915 3.42848 -3.42904 0
M  V30 4621 N 421.258 1.00505 1.21394 0
M  V30 4622 C 422.168 0.574806 2.27449 0
M  V30 4623 C 423.184 -0.382206 1.6975 0
M  V30 4624 O 424.36 -0.246027 1.99892 0
M  V30 4625 C 421.425 -0.0917414 3.46579 0
M  V30 4626 C 420.486 0.909758 4.1955 0
M  V30 4627 C 419.719 0.274924 5.32991 0
M  V30 4628 O 419.942 -0.928254 5.62796 0
M  V30 4629 O 418.876 0.985877 5.93771 0
M  V30 4630 H 422.702 1.45744 2.66444 0
M  V30 4631 H 420.287 0.773923 1.27792 0
M  V30 4632 H 422.169 -0.464551 4.18832 0
M  V30 4633 H 420.844 -0.948755 3.09484 0
M  V30 4634 H 419.751 1.33372 3.49518 0
M  V30 4635 H 421.084 1.73636 4.60555 0
M  V30 4636 N 422.737 -1.36956 0.779787 0
M  V30 4637 C 423.684 -2.30175 0.169697 0
M  V30 4638 C 424.654 -1.51501 -0.68094 0
M  V30 4639 O 425.839 -1.80042 -0.631629 0
M  V30 4640 C 422.979 -3.37985 -0.697131 0
M  V30 4641 C 422.092 -4.31661 0.170992 0
M  V30 4642 C 421.227 -5.2655 -0.701298 0
M  V30 4643 C 420.266 -6.11867 0.168869 0
M  V30 4644 N 419.403 -6.98973 -0.661855 0
M  V30 4645 H 424.243 -2.81767 0.970135 0
M  V30 4646 H 421.78 -1.38699 0.489994 0
M  V30 4647 H 423.738 -3.99128 -1.2146 0
M  V30 4648 H 422.368 -2.87739 -1.46309 0
M  V30 4649 H 421.42 -3.71756 0.80634 0
M  V30 4650 H 422.732 -4.91644 0.841875 0
M  V30 4651 H 421.886 -5.92937 -1.28494 0
M  V30 4652 H 420.625 -4.66998 -1.40584 0
M  V30 4653 H 419.63 -5.44452 0.764986 0
M  V30 4654 H 420.855 -6.73493 0.870863 0
M  V30 4655 H 418.801 -6.41941 -1.35086 0
M  V30 4656 H 418.718 -7.55984 -0.0484447 0
M  V30 4657 H 419.986 -7.6974 -1.22963 0
M  V30 4658 N 424.215 -0.530993 -1.48385 0
M  V30 4659 C 425.148 0.278511 -2.26494 0
M  V30 4660 C 426.126 0.943905 -1.32398 0
M  V30 4661 O 427.31 0.968098 -1.61741 0
M  V30 4662 C 424.437 1.39453 -3.08659 0
M  V30 4663 C 423.483 0.840434 -4.18137 0
M  V30 4664 S 424.316 -0.292496 -5.34701 0
M  V30 4665 C 425.472 0.825973 -6.20426 0
M  V30 4666 H 425.705 -0.384365 -2.94805 0
M  V30 4667 H 423.238 -0.316799 -1.51115 0
M  V30 4668 H 425.196 2.03382 -3.56575 0
M  V30 4669 H 423.857 2.02913 -2.3976 0
M  V30 4670 H 423.05 1.67769 -4.75257 0
M  V30 4671 H 422.652 0.277819 -3.72967 0
M  V30 4672 H 424.944 1.72438 -6.55188 0
M  V30 4673 H 425.887 0.292728 -7.07495 0
M  V30 4674 H 426.295 1.10683 -5.53543 0
M  V30 4675 N 425.693 1.55336 -0.266172 0
M  V30 4676 C 426.623 2.25146 0.618981 0
M  V30 4677 C 427.604 1.23845 1.16604 0
M  V30 4678 O 428.789 1.52544 1.20183 0
M  V30 4679 C 425.919 2.96572 1.80728 0
M  V30 4680 C 424.873 4.04726 1.39215 0
M  V30 4681 C 424.199 4.63678 2.66283 0
M  V30 4682 C 425.499 5.19407 0.548942 0
M  V30 4683 H 427.193 2.99377 0.0368116 0
M  V30 4684 H 424.739 1.43991 0.0162651 0
M  V30 4685 H 426.692 3.44116 2.43232 0
M  V30 4686 H 425.416 2.19861 2.41514 0
M  V30 4687 H 424.075 3.57979 0.790351 0
M  V30 4688 H 423.723 3.83646 3.25308 0
M  V30 4689 H 423.423 5.367 2.39222 0
M  V30 4690 H 424.947 5.13967 3.29651 0
M  V30 4691 H 426.361 5.63059 1.07876 0
M  V30 4692 H 424.758 5.98936 0.373593 0
M  V30 4693 H 425.828 4.8295 -0.434394 0
M  V30 4694 N 427.171 -0.0066808 1.57599 0
M  V30 4695 C 428.081 -1.01671 2.11424 0
M  V30 4696 C 429.097 -1.38143 1.05795 0
M  V30 4697 O 430.273 -1.47011 1.37658 0
M  V30 4698 C 427.338 -2.29192 2.60139 0
M  V30 4699 C 426.399 -1.99094 3.80342 0
M  V30 4700 C 425.632 -3.20535 4.26724 0
M  V30 4701 O 425.855 -4.3199 3.72479 0
M  V30 4702 O 424.789 -3.04924 5.18946 0
M  V30 4703 H 428.615 -0.589181 2.9793 0
M  V30 4704 H 426.2 -0.225091 1.47695 0
M  V30 4705 H 428.082 -3.0412 2.917 0
M  V30 4706 H 426.757 -2.71195 1.76733 0
M  V30 4707 H 425.664 -1.21663 3.53764 0
M  V30 4708 H 426.997 -1.61931 4.648 0
M  V30 4709 N 428.649 -1.55105 -0.279332 0
M  V30 4710 C 429.579 -1.90557 -1.34945 0
M  V30 4711 C 430.56 -0.766738 -1.51839 0
M  V30 4712 O 431.745 -1.02434 -1.64988 0
M  V30 4713 C 428.875 -2.17193 -2.71006 0
M  V30 4714 C 427.829 -3.33021 -2.68851 0
M  V30 4715 C 427.155 -3.45123 -4.08405 0
M  V30 4716 C 428.455 -4.69578 -2.28678 0
M  V30 4717 H 430.149 -2.80188 -1.05522 0
M  V30 4718 H 427.695 -1.34811 -0.506173 0
M  V30 4719 H 429.648 -2.40581 -3.45975 0
M  V30 4720 H 428.372 -1.24355 -3.01999 0
M  V30 4721 H 427.031 -3.0959 -1.9634 0
M  V30 4722 H 426.679 -2.49762 -4.3661 0
M  V30 4723 H 426.379 -4.22995 -4.07859 0
M  V30 4724 H 427.903 -3.70796 -4.85121 0
M  V30 4725 H 429.317 -4.92553 -2.93368 0
M  V30 4726 H 427.714 -5.5032 -2.39306 0
M  V30 4727 H 428.784 -4.68828 -1.23807 0
M  V30 4728 N 430.127 0.543554 -1.4793 0
M  V30 4729 C 431.404 1.30458 -1.4574 0
M  V30 4730 C 431.784 2.1048 -0.161692 0
M  V30 4731 O 431.132 2.11831 0.856734 0
M  V30 4732 C 431.342 2.19754 -2.71126 0
M  V30 4733 C 432.69 2.80334 -3.18901 0
M  V30 4734 O 433.714 2.30049 -2.71948 0
M  V30 4735 O 432.573 3.71766 -4.00565 0
M  V30 4736 H 429.667 0.588117 -0.581418 0
M  V30 4737 H 432.213 0.561328 -1.60147 0
M  V30 4738 H 430.985 1.60316 -3.56952 0
M  V30 4739 H 430.608 3.01351 -2.59371 0
M  V30 4740 N 431.605 1.3629 0.791371 0
M  V30 4741 C 432.851 1.30605 1.55146 0
M  V30 4742 C 433.184 -0.115042 1.93859 0
M  V30 4743 O 432.459 -1.06798 1.62556 0
M  V30 4744 C 432.742 2.22692 2.82985 0
M  V30 4745 C 432.595 3.73489 2.50651 0
M  V30 4746 C 433.914 2.13588 3.84796 0
M  V30 4747 H 431.033 0.475761 0.562868 0
M  V30 4748 H 433.675 1.66825 0.909358 0
M  V30 4749 H 431.825 1.91933 3.37778 0
M  V30 4750 H 433.497 4.14758 2.01924 0
M  V30 4751 H 431.74 3.93021 1.83622 0
M  V30 4752 H 432.411 4.3333 3.41949 0
M  V30 4753 H 434.887 2.40659 3.39445 0
M  V30 4754 H 433.763 2.80195 4.71998 0
M  V30 4755 H 434.024 1.12256 4.27611 0
M  V30 4756 N 433.083 -1.0153 1.20538 0
M  V30 4757 C 434.36 -1.72327 0.925343 0
M  V30 4758 C 434.74 -2.03383 -0.565547 0
M  V30 4759 O 434.088 -1.69934 -1.52757 0
M  V30 4760 C 434.298 -2.9902 1.79967 0
M  V30 4761 C 435.646 -3.72258 2.04228 0
M  V30 4762 O 436.67 -3.08979 1.77231 0
M  V30 4763 O 435.529 -4.86053 2.4983 0
M  V30 4764 H 432.623 -0.751099 0.346092 0
M  V30 4765 H 435.169 -1.07366 1.31417 0
M  V30 4766 H 433.941 -2.72402 2.80915 0
M  V30 4767 H 433.564 -3.71721 1.41099 0
M  V30 4768 N 434.561 -1.01147 -1.20859 0
M  V30 4769 C 435.508 -0.577354 -2.23462 0
M  V30 4770 C 436.478 0.399922 -1.61214 0
M  V30 4771 O 437.663 0.300515 -1.88419 0
M  V30 4772 C 434.803 0.083372 -3.44999 0
M  V30 4773 C 433.916 -0.937856 -4.21697 0
M  V30 4774 C 433.051 -0.248717 -5.30617 0
M  V30 4775 C 432.09 -1.25705 -5.99053 0
M  V30 4776 N 431.227 -0.594939 -6.99575 0
M  V30 4777 H 436.067 -1.45695 -2.59956 0
M  V30 4778 H 433.604 -0.729428 -1.27741 0
M  V30 4779 H 435.562 0.483535 -4.14388 0
M  V30 4780 H 434.192 0.926645 -3.09214 0
M  V30 4781 H 433.244 -1.45622 -3.51423 0
M  V30 4782 H 434.556 -1.70493 -4.68757 0
M  V30 4783 H 433.71 0.207215 -6.06346 0
M  V30 4784 H 432.449 0.55071 -4.84581 0
M  V30 4785 H 431.454 -1.72343 -5.2209 0
M  V30 4786 H 432.679 -2.05767 -6.47176 0
M  V30 4787 H 430.625 0.184713 -6.5574 0
M  V30 4788 H 430.542 -1.30017 -7.44736 0
M  V30 4789 H 431.81 -0.162427 -7.79331 0
M  V30 4790 N 436.039 1.36541 -0.78704 0
M  V30 4791 C 437.455 1.52571 -0.46844 0
M  V30 4792 C 437.655 1.7415 1.01361 0
M  V30 4793 O 436.711 1.77163 1.79915 0
M  V30 4794 C 438.024 2.71299 -1.29682 0
M  V30 4795 C 439.572 2.85169 -1.29027 0
M  V30 4796 C 440.047 4.06898 -2.10233 0
M  V30 4797 N 441.538 4.1404 -2.07666 0
M  V30 4798 C 442.273 5.07301 -2.67271 0
M  V30 4799 N 441.769 6.06021 -3.35724 0
M  V30 4800 N 443.562 4.99898 -2.57018 0
M  V30 4801 H 435.713 1.20788 -1.74711 0
M  V30 4802 H 437.976 0.589364 -0.742532 0
M  V30 4803 H 437.682 2.61868 -2.34773 0
M  V30 4804 H 437.556 3.6539 -0.936479 0
M  V30 4805 H 439.943 2.94062 -0.247284 0
M  V30 4806 H 440.024 1.91992 -1.69035 0
M  V30 4807 H 439.668 3.98766 -3.1456 0
M  V30 4808 H 439.598 4.99218 -1.67597 0
M  V30 4809 H 442.089 3.43357 -1.57843 0
M  V30 4810 H 442.402 6.73741 -3.78541 0
M  V30 4811 H 440.747 6.06253 -3.39826 0
M  V30 4812 H 443.938 4.21724 -2.03142 0
M  V30 4813 H 444.111 5.72392 -3.03761 0
M  V30 4814 N 437.518 0.538854 1.48102 0
M  V30 4815 C 438.448 -0.207654 2.32575 0
M  V30 4816 C 439.429 -0.926559 1.4265 0
M  V30 4817 O 440.614 -0.91061 1.71527 0
M  V30 4818 C 437.744 -1.24957 3.24042 0
M  V30 4819 C 436.698 -0.648263 4.23062 0
M  V30 4820 C 436.024 -1.79348 5.03725 0
M  V30 4821 C 437.324 0.385897 5.20872 0
M  V30 4822 H 439.018 0.497534 2.95237 0
M  V30 4823 H 436.564 0.240715 1.41974 0
M  V30 4824 H 438.517 -1.77983 3.81969 0
M  V30 4825 H 437.241 -1.98446 2.59397 0
M  V30 4826 H 435.9 -0.139452 3.66335 0
M  V30 4827 H 435.548 -2.51696 4.35498 0
M  V30 4828 H 435.248 -1.39702 5.70751 0
M  V30 4829 H 436.772 -2.32735 5.64506 0
M  V30 4830 H 438.186 -0.057607 5.73271 0
M  V30 4831 H 436.583 0.700227 5.96001 0
M  V30 4832 H 437.653 1.28848 4.67468 0
M  V30 4833 N 438.996 -1.55193 0.274407 0
M  V30 4834 C 440.224 -2.03987 -0.345943 0
M  V30 4835 C 440.639 -1.15279 -1.4952 0
M  V30 4836 O 439.996 -0.172759 -1.8168 0
M  V30 4837 C 440.047 -3.51898 -0.827631 0
M  V30 4838 O 439.768 -4.37231 0.275855 0
M  V30 4839 C 441.269 -4.16577 -1.51587 0
M  V30 4840 H 438.489 -0.666335 -0.0789892 0
M  V30 4841 H 441.033 -2.00423 0.406294 0
M  V30 4842 H 439.188 -3.55909 -1.52996 0
M  V30 4843 H 439.602 -5.24415 -0.0943638 0
M  V30 4844 H 441.076 -5.21678 -1.80433 0
M  V30 4845 H 441.553 -3.64707 -2.44716 0
M  V30 4846 H 442.159 -4.16568 -0.857409 0
M  V30 4847 N 440.474 -0.00167713 -1.576 0
M  V30 4848 C 441.437 0.974046 -2.07473 0
M  V30 4849 C 442.437 1.27143 -0.984444 0
M  V30 4850 O 443.627 1.21633 -1.24703 0
M  V30 4851 C 440.759 2.29849 -2.51759 0
M  V30 4852 H 441.952 0.54262 -2.9495 0
M  V30 4853 H 439.505 0.245829 -1.54355 0
M  V30 4854 H 440.24 2.77677 -1.67529 0
M  V30 4855 H 440.025 2.09584 -3.31386 0
M  V30 4856 H 441.515 2.9984 -2.90664 0
M  V30 4857 N 441.952 1.55251 0.271103 0
M  V30 4858 C 442.915 1.87484 1.31842 0
M  V30 4859 C 443.915 0.749545 1.42262 0
M  V30 4860 O 445.105 1.01771 1.4138 0
M  V30 4861 C 442.237 2.0818 2.69951 0
M  V30 4862 H 443.43 2.81108 1.0449 0
M  V30 4863 H 440.983 1.47771 0.509258 0
M  V30 4864 H 441.718 1.16944 3.02481 0
M  V30 4865 H 441.503 2.90114 2.63774 0
M  V30 4866 H 442.993 2.34385 3.4562 0
M  V30 4867 N 443.43 -0.535701 1.48216 0
M  V30 4868 C 444.362 -1.65662 1.58394 0
M  V30 4869 C 445.375 -1.5591 0.468607 0
M  V30 4870 O 446.564 -1.62475 0.7392 0
M  V30 4871 C 443.664 -3.04276 1.4923 0
M  V30 4872 C 442.837 -3.39567 2.75705 0
M  V30 4873 C 441.896 -4.57436 2.60075 0
M  V30 4874 O 440.922 -4.60942 3.33948 0
M  V30 4875 N 442.124 -5.55259 1.69315 0
M  V30 4876 H 444.889 -1.5737 2.55058 0
M  V30 4877 H 442.45 -0.722845 1.44867 0
M  V30 4878 H 444.442 -3.80994 1.36477 0
M  V30 4879 H 443.012 -3.06677 0.605632 0
M  V30 4880 H 442.232 -2.52083 3.03064 0
M  V30 4881 H 443.52 -3.59929 3.59623 0
M  V30 4882 H 442.918 -5.552 1.08489 0
M  V30 4883 H 441.475 -6.31218 1.62504 0
M  V30 4884 N 444.908 -1.36708 -0.784132 0
M  V30 4885 C 445.871 -1.31307 -1.87859 0
M  V30 4886 C 446.871 -0.219654 -1.59293 0
M  V30 4887 O 448.061 -0.47476 -1.67606 0
M  V30 4888 C 445.193 -1.03679 -3.24751 0
M  V30 4889 H 446.386 -2.28647 -1.94064 0
M  V30 4890 H 443.939 -1.21558 -0.98252 0
M  V30 4891 H 444.674 -0.0681936 -3.24228 0
M  V30 4892 H 444.459 -1.82811 -3.46876 0
M  V30 4893 H 445.949 -1.02518 -4.04821 0
M  V30 4894 N 446.386 1.0089 -1.21074 0
M  V30 4895 C 447.316 2.1145 -0.990523 0
M  V30 4896 C 448.297 1.69897 0.0831699 0
M  V30 4897 O 449.482 1.94052 -0.0758853 0
M  V30 4898 C 446.612 3.42914 -0.550177 0
M  V30 4899 C 445.566 3.98244 -1.56799 0
M  V30 4900 C 444.892 5.25568 -0.984013 0
M  V30 4901 C 446.192 4.30752 -2.95381 0
M  V30 4902 H 447.886 2.3013 -1.91521 0
M  V30 4903 H 445.432 1.10592 -0.92225 0
M  V30 4904 H 447.385 4.19653 -0.383305 0
M  V30 4905 H 446.109 3.24014 0.41015 0
M  V30 4906 H 444.768 3.23621 -1.72236 0
M  V30 4907 H 444.416 5.02998 -0.0155216 0
M  V30 4908 H 444.116 5.63551 -1.66384 0
M  V30 4909 H 445.64 6.04955 -0.828378 0
M  V30 4910 H 447.054 4.98349 -2.8341 0
M  V30 4911 H 445.451 4.79869 -3.60341 0
M  V30 4912 H 446.521 3.39192 -3.46521 0
M  V30 4913 N 447.864 1.01787 1.20321 0
M  V30 4914 C 449.092 0.727194 1.937 0
M  V30 4915 C 449.507 -0.712305 1.74848 0
M  V30 4916 O 448.864 -1.48327 1.06327 0
M  V30 4917 C 448.915 1.05497 3.45764 0
M  V30 4918 O 448.636 2.43794 3.64 0
M  V30 4919 C 450.137 0.785534 4.36285 0
M  V30 4920 H 447.357 0.266939 0.615617 0
M  V30 4921 H 449.901 1.35939 1.52777 0
M  V30 4922 H 448.056 0.468158 3.84561 0
M  V30 4923 H 448.47 2.55656 4.57974 0
M  V30 4924 H 449.944 1.06495 5.4163 0
M  V30 4925 H 450.421 -0.280273 4.38305 0
M  V30 4926 H 451.027 1.35456 4.03152 0
M  V30 4927 N 449.342 -1.36122 0.79427 0
M  V30 4928 C 450.292 -2.27373 0.169017 0
M  V30 4929 C 451.276 -1.4719 -0.649913 0
M  V30 4930 O 452.468 -1.69518 -0.50919 0
M  V30 4931 C 449.597 -3.36264 -0.691455 0
M  V30 4932 C 448.683 -4.2388 0.13653 0
M  V30 4933 N 449.074 -4.91519 1.19345 0
M  V30 4934 C 447.372 -4.45921 -0.0838499 0
M  V30 4935 C 448.073 -5.56369 1.6979 0
M  V30 4936 N 447.049 -5.34204 1.00634 0
M  V30 4937 H 450.851 -2.77154 0.977897 0
M  V30 4938 H 448.365 -1.49504 0.634208 0
M  V30 4939 H 450.362 -4.00572 -1.15534 0
M  V30 4940 H 449.022 -2.88037 -1.49883 0
M  V30 4941 H 450.033 -4.9334 1.57594 0
M  V30 4942 H 446.71 -4.08518 -0.861341 0
M  V30 4943 H 448.1 -6.20368 2.58055 0
M  V30 4944 N 450.82 -0.546701 -1.47814 0
M  V30 4945 C 452.231 -0.110564 -1.86372 0
M  V30 4946 C 452.582 1.31678 -1.45449 0
M  V30 4947 O 451.707 1.98889 -0.852758 0
M  V30 4948 C 452.302 -0.193873 -3.38245 0
M  V30 4949 C 450.861 0.187164 -3.75934 0
M  V30 4950 C 450.008 -0.546166 -2.71868 0
M  V30 4951 H 452.959 -0.757022 -1.39481 0
M  V30 4952 H 452.98 0.590218 -3.75895 0
M  V30 4953 H 452.492 -1.23282 -3.67999 0
M  V30 4954 H 450.593 1.22762 -3.51796 0
M  V30 4955 H 450.706 -0.164083 -4.78819 0
M  V30 4956 H 449.07 0.00953904 -2.54698 0
M  V30 4957 H 449.853 -1.58606 -3.04465 0
M  V30 4958 N 452.299 1.55045 -0.282633 0
M  V30 4959 C 453.546 1.9976 0.33199 0
M  V30 4960 C 453.874 1.17105 1.55295 0
M  V30 4961 O 453.129 0.230599 1.94337 0
M  V30 4962 C 453.428 3.49422 0.750938 0
M  V30 4963 C 453.094 4.4941 -0.366228 0
M  V30 4964 C 451.756 4.76471 -0.672964 0
M  V30 4965 C 454.108 5.09054 -1.11864 0
M  V30 4966 C 451.436 5.60442 -1.73556 0
M  V30 4967 C 453.788 5.9418 -2.17102 0
M  V30 4968 C 452.452 6.19558 -2.48402 0
M  V30 4969 H 451.722 0.730974 0.121484 0
M  V30 4970 H 454.369 1.8732 -0.39791 0
M  V30 4971 H 452.674 3.59377 1.56063 0
M  V30 4972 H 454.371 3.81432 1.23736 0
M  V30 4973 H 450.961 4.2844 -0.117041 0
M  V30 4974 H 455.145 4.88165 -0.894925 0
M  V30 4975 H 450.401 5.78349 -1.983 0
M  V30 4976 H 454.575 6.39427 -2.75873 0
M  V30 4977 H 452.202 6.84417 -3.30874 0
M  V30 4978 N 453.777 0.010035 1.57597 0
M  V30 4979 C 455.024 -0.6727 1.91 0
M  V30 4980 C 455.352 -1.73219 0.884614 0
M  V30 4981 O 454.607 -1.95395 -0.109215 0
M  V30 4982 C 454.906 -1.34434 3.31153 0
M  V30 4983 C 454.572 -0.417083 4.48967 0
M  V30 4984 C 453.234 -0.161809 4.80928 0
M  V30 4985 C 455.586 0.220753 5.20732 0
M  V30 4986 C 452.914 0.739426 5.82022 0
M  V30 4987 C 455.266 1.10993 6.22787 0
M  V30 4988 C 453.93 1.37428 6.532 0
M  V30 4989 H 453.2 -0.246158 0.698918 0
M  V30 4990 H 455.847 0.0677145 1.9138 0
M  V30 4991 H 454.152 -2.15905 3.26944 0
M  V30 4992 H 455.849 -1.87883 3.54261 0
M  V30 4993 H 452.439 -0.626217 4.24001 0
M  V30 4994 H 456.623 0.0365643 4.96287 0
M  V30 4995 H 451.879 0.952139 6.03941 0
M  V30 4996 H 456.053 1.61046 6.77523 0
M  V30 4997 H 453.68 2.0743 7.31353 0
M  V30 4998 N 455.255 -1.55392 -0.262866 0
M  V30 4999 C 456.165 -1.92077 -1.34698 0
M  V30 5000 C 457.181 -0.819227 -1.53508 0
M  V30 5001 O 458.357 -1.11921 -1.67439 0
M  V30 5002 C 455.422 -2.19407 -2.68443 0
M  V30 5003 C 454.483 -3.42905 -2.58292 0
M  V30 5004 C 453.716 -3.68921 -3.85659 0
M  V30 5005 O 453.939 -2.97275 -4.8681 0
M  V30 5006 O 452.873 -4.62455 -3.85252 0
M  V30 5007 H 456.699 -2.84384 -1.06581 0
M  V30 5008 H 454.284 -1.42069 -0.462264 0
M  V30 5009 H 456.166 -2.38365 -3.47506 0
M  V30 5010 H 454.841 -1.30282 -2.96325 0
M  V30 5011 H 453.748 -3.29272 -1.7757 0
M  V30 5012 H 455.081 -4.32282 -2.35358 0
M  V30 5013 N 456.733 0.527833 -1.48498 0
M  V30 5014 C 458.144 1.10975 -1.50138 0
M  V30 5015 C 458.495 1.943 -0.272378 0
M  V30 5016 O 457.62 2.07319 0.620301 0
M  V30 5017 C 458.215 2.01927 -2.72049 0
M  V30 5018 C 456.774 2.55332 -2.76554 0
M  V30 5019 C 455.921 1.32341 -2.43683 0
M  V30 5020 H 458.872 0.312986 -1.55583 0
M  V30 5021 H 458.893 2.86244 -2.50689 0
M  V30 5022 H 458.405 1.41254 -3.61481 0
M  V30 5023 H 456.506 3.19721 -1.91336 0
M  V30 5024 H 456.619 2.94319 -3.78038 0
M  V30 5025 H 454.983 1.63989 -1.94884 0
M  V30 5026 H 455.766 0.734165 -3.35358 0
M  V30 5027 N 458.211 1.37122 0.776871 0
M  V30 5028 C 459.458 1.32047 1.53524 0
M  V30 5029 C 459.786 -0.0965631 1.9426 0
M  V30 5030 O 459.041 -1.06866 1.63945 0
M  V30 5031 C 459.34 2.20068 2.81611 0
M  V30 5032 C 459.006 3.68423 2.59953 0
M  V30 5033 C 457.668 4.08854 2.53755 0
M  V30 5034 C 460.02 4.62431 2.40431 0
M  V30 5035 C 457.348 5.41417 2.26018 0
M  V30 5036 C 459.7 5.95225 2.14219 0
M  V30 5037 C 458.364 6.34767 2.06462 0
M  V30 5038 H 457.634 0.483196 0.561785 0
M  V30 5039 H 460.281 1.69284 0.895268 0
M  V30 5040 H 458.586 1.75809 3.50141 0
M  V30 5041 H 460.283 2.13458 3.39465 0
M  V30 5042 H 456.873 3.36354 2.65638 0
M  V30 5043 H 461.057 4.32057 2.44213 0
M  V30 5044 H 456.313 5.71022 2.18504 0
M  V30 5045 H 460.487 6.67626 1.98112 0
M  V30 5046 H 458.114 7.37413 1.84733 0
M  V30 5047 N 459.689 -1.00246 1.21608 0
M  V30 5048 C 461.105 -1.26435 0.973975 0
M  V30 5049 C 461.305 -1.98642 -0.338143 0
M  V30 5050 O 460.361 -2.29026 -1.06317 0
M  V30 5051 C 461.674 -2.08551 2.16626 0
M  V30 5052 C 463.222 -2.21769 2.20879 0
M  V30 5053 C 463.697 -3.07267 3.39633 0
M  V30 5054 N 465.188 -3.14855 3.39736 0
M  V30 5055 C 465.923 -3.81274 4.28273 0
M  V30 5056 N 465.419 -4.497 5.27012 0
M  V30 5057 N 467.212 -3.7794 4.16074 0
M  V30 5058 H 459.363 -0.518089 2.05984 0
M  V30 5059 H 461.626 -0.291368 0.902113 0
M  V30 5060 H 461.332 -1.62847 3.11727 0
M  V30 5061 H 461.206 -3.09303 2.15897 0
M  V30 5062 H 463.593 -2.66691 1.26332 0
M  V30 5063 H 463.674 -1.20478 2.25652 0
M  V30 5064 H 463.318 -2.63047 4.34475 0
M  V30 5065 H 463.248 -4.08678 3.321 0
M  V30 5066 H 465.739 -2.66147 2.6828 0
M  V30 5067 H 466.052 -4.98092 5.90867 0
M  V30 5068 H 464.397 -4.48479 5.30935 0
M  V30 5069 H 467.588 -3.23638 3.38195 0
M  V30 5070 H 467.761 -4.29424 4.85282 0
M  V30 5071 N 461.167 -1.02423 -1.1978 0
M  V30 5072 C 462.444 -0.632802 -1.85081 0
M  V30 5073 C 462.824 0.888745 -1.9148 0
M  V30 5074 O 462.172 1.78357 -1.42832 0
M  V30 5075 C 462.382 -1.28947 -3.24305 0
M  V30 5076 C 463.73 -1.40976 -4.00513 0
M  V30 5077 O 464.754 -1.24628 -3.33686 0
M  V30 5078 O 463.613 -1.67467 -5.20209 0
M  V30 5079 H 460.707 -0.219348 -0.79738 0
M  V30 5080 H 463.253 -1.12209 -1.27307 0
M  V30 5081 H 462.025 -2.3288 -3.14456 0
M  V30 5082 H 461.648 -0.787748 -3.89718 0
M  V30 5083 N 462.645 1.35699 -0.801477 0
M  V30 5084 C 464.056 1.81415 -0.441073 0
M  V30 5085 C 464.407 1.66595 1.03636 0
M  V30 5086 O 463.532 1.19369 1.80499 0
M  V30 5087 C 464.127 3.29369 -0.793819 0
M  V30 5088 C 462.686 3.73248 -0.486083 0
M  V30 5089 C 461.833 2.57775 -1.02213 0
M  V30 5090 H 464.784 1.23749 -0.993572 0
M  V30 5091 H 464.805 3.80395 -0.0894158 0
M  V30 5092 H 464.317 3.40123 -1.86917 0
M  V30 5093 H 462.418 3.68046 0.580735 0
M  V30 5094 H 462.531 4.68222 -1.01513 0
M  V30 5095 H 460.895 2.50788 -0.444712 0
M  V30 5096 H 461.678 2.71309 -2.10348 0
M  V30 5097 N 464.123 0.554532 1.47522 0
M  V30 5098 C 465.033 -0.197865 2.33764 0
M  V30 5099 C 466.049 -0.914576 1.48025 0
M  V30 5100 O 467.225 -0.884067 1.80959 0
M  V30 5101 C 464.29 -1.21628 3.24665 0
M  V30 5102 C 463.351 -0.507283 4.26292 0
M  V30 5103 C 462.584 -1.47718 5.1285 0
M  V30 5104 O 462.807 -2.7118 5.01814 0
M  V30 5105 O 461.741 -1.00313 5.93482 0
M  V30 5106 H 465.567 0.50949 2.99396 0
M  V30 5107 H 463.152 0.315176 1.46038 0
M  V30 5108 H 465.034 -1.80421 3.80823 0
M  V30 5109 H 463.709 -1.9056 2.61665 0
M  V30 5110 H 462.616 0.121778 3.73902 0
M  V30 5111 H 463.949 0.140544 4.91999 0
M  V30 5112 N 465.601 -1.54893 0.290851 0
M  V30 5113 C 466.511 -2.26812 -0.59945 0
M  V30 5114 C 467.527 -1.29963 -1.15696 0
M  V30 5115 O 468.703 -1.62928 -1.18391 0
M  V30 5116 C 465.768 -2.98716 -1.75982 0
M  V30 5117 C 464.829 -4.1108 -1.2374 0
M  V30 5118 C 464.062 -4.79546 -2.34246 0
M  V30 5119 O 464.285 -4.47309 -3.53936 0
M  V30 5120 O 463.219 -5.67165 -2.01512 0
M  V30 5121 H 467.045 -3.03696 -0.0163561 0
M  V30 5122 H 464.63 -1.49289 0.0576755 0
M  V30 5123 H 466.512 -3.43851 -2.43607 0
M  V30 5124 H 465.187 -2.24737 -2.3297 0
M  V30 5125 H 464.094 -3.70367 -0.527163 0
M  V30 5126 H 465.427 -4.87007 -0.71307 0
M  V30 5127 N 467.08 -0.0183926 -1.57589 0
M  V30 5128 C 467.99 0.982943 -2.13015 0
M  V30 5129 C 469.006 1.36443 -1.07979 0
M  V30 5130 O 470.182 1.44802 -1.3998 0
M  V30 5131 C 467.247 2.25024 -2.63752 0
M  V30 5132 C 466.308 1.93018 -3.83461 0
M  V30 5133 C 465.541 3.13706 -4.31769 0
M  V30 5134 O 465.764 4.2601 -3.79305 0
M  V30 5135 O 464.698 2.96629 -5.23732 0
M  V30 5136 H 468.524 0.541709 -2.9883 0
M  V30 5137 H 466.109 0.201565 -1.48034 0
M  V30 5138 H 467.991 2.99441 -2.96502 0
M  V30 5139 H 466.666 2.68349 -1.81026 0
M  V30 5140 H 465.573 1.16019 -3.55655 0
M  V30 5141 H 466.906 1.54516 -4.67317 0
M  V30 5142 N 468.558 1.5553 0.254621 0
M  V30 5143 C 469.786 1.81046 1.00149 0
M  V30 5144 C 470.201 0.593047 1.79244 0
M  V30 5145 O 469.558 -0.438196 1.77161 0
M  V30 5146 C 469.609 3.04684 1.94551 0
M  V30 5147 O 469.33 4.21725 1.18658 0
M  V30 5148 C 470.831 3.42943 2.80901 0
M  V30 5149 H 468.051 0.602653 0.295044 0
M  V30 5150 H 470.595 2.02576 0.279842 0
M  V30 5151 H 468.75 2.85226 2.62154 0
M  V30 5152 H 469.164 4.91746 1.82445 0
M  V30 5153 H 470.638 4.32576 3.42902 0
M  V30 5154 H 471.115 2.63176 3.51617 0
M  V30 5155 H 471.721 3.64724 2.18762 0
M  V30 5156 N 470.036 -0.519951 1.48776 0
M  V30 5157 C 470.946 -1.65025 1.66745 0
M  V30 5158 C 471.962 -1.6508 0.549954 0
M  V30 5159 O 473.138 -1.83848 0.822295 0
M  V30 5160 C 470.203 -3.0146 1.71238 0
M  V30 5161 C 469.264 -3.12182 2.94688 0
M  V30 5162 C 468.497 -4.42109 2.98958 0
M  V30 5163 O 468.72 -5.29799 2.1135 0
M  V30 5164 O 467.654 -4.57406 3.91233 0
M  V30 5165 H 471.48 -1.52801 2.62461 0
M  V30 5166 H 469.065 -0.694157 1.32294 0
M  V30 5167 H 470.947 -3.82584 1.76657 0
M  V30 5168 H 469.622 -3.13988 0.786975 0
M  V30 5169 H 468.529 -2.30316 2.94797 0
M  V30 5170 H 469.862 -3.04574 3.86646 0
M  V30 5171 N 471.514 -1.37532 -0.769588 0
M  V30 5172 C 472.477 -1.33292 -1.86456 0
M  V30 5173 C 473.477 -0.236537 -1.59051 0
M  V30 5174 O 474.667 -0.492511 -1.67093 0
M  V30 5175 C 471.799 -1.07118 -3.23633 0
M  V30 5176 H 472.992 -2.30692 -1.91628 0
M  V30 5177 H 470.545 -1.22593 -0.969572 0
M  V30 5178 H 471.28 -0.102578 -3.24138 0
M  V30 5179 H 471.065 -1.86479 -3.44917 0
M  V30 5180 H 472.555 -1.06806 -4.03711 0
M  V30 5181 N 472.992 0.995999 -1.22138 0
M  V30 5182 C 473.924 2.08745 -0.946485 0
M  V30 5183 C 474.937 1.62633 0.0737356 0
M  V30 5184 O 476.126 1.77782 -0.159886 0
M  V30 5185 C 473.226 3.36516 -0.401305 0
M  V30 5186 C 472.399 4.11672 -1.47801 0
M  V30 5187 C 471.458 5.17728 -0.940461 0
M  V30 5188 O 470.484 5.45482 -1.62596 0
M  V30 5189 N 471.686 5.80005 0.239723 0
M  V30 5190 H 474.451 2.32908 -1.88611 0
M  V30 5191 H 472.012 1.16152 -1.12785 0
M  V30 5192 H 474.004 4.04691 -0.0270837 0
M  V30 5193 H 472.574 3.0944 0.443354 0
M  V30 5194 H 471.794 3.38171 -2.02568 0
M  V30 5195 H 473.082 4.58657 -2.20253 0
M  V30 5196 H 472.48 5.5982 0.813518 0
M  V30 5197 H 471.037 6.4943 0.555361 0
M  V30 5198 N 474.47 1.03057 1.19235 0
M  V30 5199 C 475.402 0.570932 2.21975 0
M  V30 5200 C 476.415 -0.354088 1.58903 0
M  V30 5201 O 477.604 -0.150211 1.77867 0
M  V30 5202 C 474.704 -0.187152 3.38383 0
M  V30 5203 C 473.877 0.743231 4.31039 0
M  V30 5204 C 472.936 0.0302493 5.26191 0
M  V30 5205 O 471.962 0.657371 5.65391 0
M  V30 5206 N 473.164 -1.23991 5.67104 0
M  V30 5207 H 475.929 1.45456 2.62036 0
M  V30 5208 H 473.49 0.909807 1.33918 0
M  V30 5209 H 475.482 -0.673715 3.99053 0
M  V30 5210 H 474.052 -0.972205 2.97098 0
M  V30 5211 H 473.272 1.40985 3.68126 0
M  V30 5212 H 474.56 1.3755 4.89854 0
M  V30 5213 H 473.958 -1.77011 5.37293 0
M  V30 5214 H 472.515 -1.67093 6.30018 0
M  V30 5215 N 475.948 -1.35272 0.808662 0
M  V30 5216 C 477.359 -1.81179 0.450688 0
M  V30 5217 C 477.71 -1.67143 -1.02751 0
M  V30 5218 O 476.835 -1.20325 -1.79864 0
M  V30 5219 C 477.43 -3.28943 0.811275 0
M  V30 5220 C 475.989 -3.72985 0.505871 0
M  V30 5221 C 475.136 -2.57229 1.03578 0
M  V30 5222 H 478.087 -1.2322 1.00012 0
M  V30 5223 H 478.108 -3.80342 0.109588 0
M  V30 5224 H 477.62 -3.39127 1.88718 0
M  V30 5225 H 475.721 -3.68349 -0.561209 0
M  V30 5226 H 475.834 -4.67677 1.03995 0
M  V30 5227 H 474.198 -2.50548 0.458005 0
M  V30 5228 H 474.981 -2.7019 2.11784 0
M  V30 5229 N 477.426 -0.562348 -1.47226 0
M  V30 5230 C 478.673 -0.0402165 -2.0246 0
M  V30 5231 C 479.001 1.31169 -1.43614 0
M  V30 5232 O 478.256 1.86805 -0.5833 0
M  V30 5233 C 478.555 0.0969817 -3.57268 0
M  V30 5234 C 478.221 -1.1847 -4.35058 0
M  V30 5235 C 476.883 -1.53588 -4.56031 0
M  V30 5236 C 479.235 -2.03378 -4.79882 0
M  V30 5237 C 476.563 -2.73452 -5.19077 0
M  V30 5238 C 478.915 -3.2245 -5.44251 0
M  V30 5239 C 477.579 -3.57876 -5.63455 0
M  V30 5240 H 476.849 -0.0147163 -0.740854 0
M  V30 5241 H 479.496 -0.734895 -1.76838 0
M  V30 5242 H 477.801 0.87466 -3.81912 0
M  V30 5243 H 479.498 0.516408 -3.97661 0
M  V30 5244 H 476.088 -0.90126 -4.19017 0
M  V30 5245 H 480.272 -1.77553 -4.63453 0
M  V30 5246 H 475.528 -3.01062 -5.32139 0
M  V30 5247 H 479.702 -3.88526 -5.77945 0
M  V30 5248 H 477.329 -4.50849 -6.12078 0
M  V30 5249 N 478.904 1.54736 -0.299062 0
M  V30 5250 C 480.181 1.92187 0.363802 0
M  V30 5251 C 480.561 1.22607 1.71845 0
M  V30 5252 O 479.909 0.361141 2.25628 0
M  V30 5253 C 480.119 3.45678 0.480377 0
M  V30 5254 C 481.467 4.17885 0.752147 0
M  V30 5255 O 482.491 3.51702 0.564264 0
M  V30 5256 O 481.35 5.35048 1.11294 0
M  V30 5257 H 478.444 0.801681 0.203066 0
M  V30 5258 H 480.99 1.66115 -0.346978 0
M  V30 5259 H 479.762 3.88443 -0.471999 0
M  V30 5260 H 479.385 3.77779 1.2397 0
M  V30 5261 N 480.382 0.0267497 1.57577 0
M  V30 5262 C 481.659 -0.690926 1.82991 0
M  V30 5263 C 482.039 -1.90471 0.910164 0
M  V30 5264 O 481.387 -2.28474 -0.0347985 0
M  V30 5265 C 481.597 -1.07139 3.32148 0
M  V30 5266 C 482.945 -1.46402 3.98562 0
M  V30 5267 O 483.969 -1.16443 3.36629 0
M  V30 5268 O 482.828 -2.02214 5.07712 0
M  V30 5269 H 479.922 -0.338747 0.75444 0
M  V30 5270 H 482.468 0.0542506 1.69613 0
M  V30 5271 H 481.24 -0.207394 3.9075 0
M  V30 5272 H 480.863 -1.87481 3.50623 0
M  V30 5273 N 481.861 -1.55662 -0.24637 0
M  V30 5274 C 483.086 -1.81914 -0.996093 0
M  V30 5275 C 483.511 -0.603875 -1.78143 0
M  V30 5276 O 482.869 0.447091 -1.75701 0
M  V30 5277 C 482.917 -3.05908 -1.90925 0
M  V30 5278 O 482.021 -2.82861 -3.00105 0
M  V30 5279 H 481.362 -0.600481 -0.283406 0
M  V30 5280 H 483.892 -2.02848 -0.267199 0
M  V30 5281 H 483.902 -3.35356 -2.3238 0
M  V30 5282 H 482.577 -3.93999 -1.33183 0
M  V30 5283 H 481.154 -2.64583 -2.62775 0
M  V30 5284 N 483.339 0.512053 -1.4905 0
M  V30 5285 C 484.269 1.62365 -1.67809 0
M  V30 5286 C 485.25 1.61737 -0.526809 0
M  V30 5287 O 486.435 1.78651 -0.761404 0
M  V30 5288 C 483.565 3.00895 -1.73435 0
M  V30 5289 C 482.519 3.16387 -2.88242 0
M  V30 5290 C 481.845 4.56157 -2.78971 0
M  V30 5291 C 483.145 2.97457 -4.29321 0
M  V30 5292 H 484.839 1.46921 -2.60873 0
M  V30 5293 H 482.385 0.705379 -1.2554 0
M  V30 5294 H 484.338 3.78549 -1.85145 0
M  V30 5295 H 483.062 3.17403 -0.769619 0
M  V30 5296 H 481.721 2.41155 -2.76116 0
M  V30 5297 H 481.369 4.69525 -1.8043 0
M  V30 5298 H 481.069 4.67465 -3.5602 0
M  V30 5299 H 482.593 5.35886 -2.92675 0
M  V30 5300 H 484.007 3.64888 -4.42187 0
M  V30 5301 H 482.404 3.20245 -5.07507 0
M  V30 5302 H 483.474 1.93692 -4.44535 0
M  V30 5303 N 484.817 1.37938 0.762283 0
M  V30 5304 C 485.727 1.36681 1.90671 0
M  V30 5305 C 486.743 0.265078 1.71969 0
M  V30 5306 O 487.919 0.502055 1.95042 0
M  V30 5307 C 484.984 1.18211 3.25925 0
M  V30 5308 C 484.045 2.3811 3.57214 0
M  V30 5309 C 483.278 2.20512 4.86014 0
M  V30 5310 O 483.501 1.19429 5.57757 0
M  V30 5311 O 482.435 3.08911 5.16583 0
M  V30 5312 H 486.261 2.33091 1.94685 0
M  V30 5313 H 483.846 1.18767 0.906356 0
M  V30 5314 H 485.728 1.09937 4.06807 0
M  V30 5315 H 484.403 0.248807 3.22742 0
M  V30 5316 H 483.31 2.51958 2.76529 0
M  V30 5317 H 484.643 3.30041 3.65149 0
M  V30 5318 N 486.295 -0.989507 1.22664 0
M  V30 5319 C 487.245 -2.06478 0.967005 0
M  V30 5320 C 488.229 -1.60682 -0.0836374 0
M  V30 5321 O 489.421 -1.76541 0.127322 0
M  V30 5322 C 486.55 -3.38861 0.550313 0
M  V30 5323 C 485.636 -3.9128 1.63587 0
M  V30 5324 N 486.027 -4.16884 2.86429 0
M  V30 5325 C 484.325 -4.1972 1.50834 0
M  V30 5326 C 485.026 -4.5954 3.56648 0
M  V30 5327 N 484.002 -4.63434 2.84131 0
M  V30 5328 H 487.804 -2.24219 1.90008 0
M  V30 5329 H 485.318 -1.17153 1.12467 0
M  V30 5330 H 487.315 -4.15465 0.345612 0
M  V30 5331 H 485.975 -3.22518 -0.375822 0
M  V30 5332 H 486.986 -4.04976 3.22823 0
M  V30 5333 H 483.663 -4.1243 0.648643 0
M  V30 5334 H 485.053 -4.87944 4.61909 0
M  V30 5335 N 487.773 -1.03688 -1.18687 0
M  V30 5336 C 488.683 -0.634908 -2.25845 0
M  V30 5337 C 489.699 0.337065 -1.70704 0
M  V30 5338 O 490.875 0.192943 -2.00474 0
M  V30 5339 C 487.94 -0.000180054 -3.467 0
M  V30 5340 C 487.001 -1.02067 -4.1699 0
M  V30 5341 C 486.234 -0.41614 -5.32075 0
M  V30 5342 O 486.457 0.778712 -5.65059 0
M  V30 5343 O 485.391 -1.14296 -5.90948 0
M  V30 5344 H 489.217 -1.52757 -2.62486 0
M  V30 5345 H 486.802 -0.807533 -1.25695 0
M  V30 5346 H 488.684 0.353342 -4.19916 0
M  V30 5347 H 487.359 0.866367 -3.11891 0
M  V30 5348 H 486.266 -1.42592 -3.45859 0
M  V30 5349 H 487.599 -1.85786 -4.5579 0
M  V30 5350 N 489.251 1.34841 -0.815825 0
M  V30 5351 C 490.198 2.29644 -0.230664 0
M  V30 5352 C 491.168 1.53253 0.640533 0
M  V30 5353 O 492.353 1.81653 0.583672 0
M  V30 5354 C 489.493 3.39715 0.607275 0
M  V30 5355 C 488.606 4.31056 -0.28538 0
M  V30 5356 C 487.741 5.28225 0.561446 0
M  V30 5357 C 486.78 6.11204 -0.331035 0
M  V30 5358 N 485.917 7.00483 0.476302 0
M  V30 5359 H 490.757 2.79095 -1.0445 0
M  V30 5360 H 488.294 1.37351 -0.526595 0
M  V30 5361 H 490.252 4.02208 1.10835 0
M  V30 5362 H 488.882 2.91517 1.38629 0
M  V30 5363 H 487.934 3.69487 -0.904621 0
M  V30 5364 H 489.246 4.89239 -0.97193 0
M  V30 5365 H 488.4 5.96135 1.12728 0
M  V30 5366 H 487.139 4.70562 1.28153 0
M  V30 5367 H 486.144 5.42232 -0.909069 0
M  V30 5368 H 487.369 6.70947 -1.04912 0
M  V30 5369 H 485.315 6.45296 1.18019 0
M  V30 5370 H 485.232 7.55847 -0.152008 0
M  V30 5371 H 486.5 7.7273 1.02512 0
M  V30 5372 N 490.729 0.570148 1.46925 0
M  V30 5373 C 491.659 -0.158274 2.32963 0
M  V30 5374 C 492.64 -0.896093 1.44583 0
M  V30 5375 O 493.825 -0.874022 1.7342 0
M  V30 5376 C 490.955 -1.18055 3.26619 0
M  V30 5377 C 489.909 -0.558379 4.24342 0
M  V30 5378 C 489.235 -1.68623 5.07415 0
M  V30 5379 C 490.535 0.496295 5.19937 0
M  V30 5380 H 492.229 0.560046 2.94115 0
M  V30 5381 H 489.775 0.270775 1.41431 0
M  V30 5382 H 491.728 -1.69841 3.85658 0
M  V30 5383 H 490.452 -1.92899 2.63548 0
M  V30 5384 H 489.111 -0.0617157 3.66548 0
M  V30 5385 H 488.759 -2.42402 4.40738 0
M  V30 5386 H 488.459 -1.27564 5.73586 0
M  V30 5387 H 489.983 -2.20709 5.69315 0
M  V30 5388 H 491.397 0.0640052 5.73264 0
M  V30 5389 H 489.794 0.82649 5.94381 0
M  V30 5390 H 490.864 1.38735 4.6463 0
M  V30 5391 N 492.207 -1.54576 0.307264 0
M  V30 5392 C 493.435 -2.04675 -0.302597 0
M  V30 5393 C 493.85 -1.18425 -1.47041 0
M  V30 5394 O 493.207 -0.211257 -1.81273 0
M  V30 5395 C 493.258 -3.53575 -0.752801 0
M  V30 5396 O 492.979 -4.36547 0.368536 0
M  V30 5397 C 494.48 -4.19699 -1.42717 0
M  V30 5398 H 491.7 -0.66786 -0.0648374 0
M  V30 5399 H 494.244 -1.99516 0.448716 0
M  V30 5400 H 492.399 -3.59074 -1.45412 0
M  V30 5401 H 492.813 -5.24497 0.0168937 0
M  V30 5402 H 494.287 -5.25388 -1.69327 0
M  V30 5403 H 494.764 -3.69815 -2.36925 0
M  V30 5404 H 495.37 -4.18293 -0.768856 0
M  V30 5405 N 493.685 -0.035106 -1.57561 0
M  V30 5406 C 494.931 0.64318 -1.92331 0
M  V30 5407 C 495.264 1.71434 -0.912368 0
M  V30 5408 O 494.539 1.94395 0.0640303 0
M  V30 5409 C 494.822 1.25411 -3.37556 0
M  V30 5410 C 494.675 0.192109 -4.4939 0
M  V30 5411 C 495.994 2.17041 -3.82859 0
M  V30 5412 H 493.113 0.232341 -0.699419 0
M  V30 5413 H 495.755 -0.0935889 -1.89769 0
M  V30 5414 H 493.905 1.88205 -3.39869 0
M  V30 5415 H 495.577 -0.438849 -4.59208 0
M  V30 5416 H 493.82 -0.481725 -4.31117 0
M  V30 5417 H 494.491 0.659292 -5.48049 0
M  V30 5418 H 496.967 1.64228 -3.8232 0
M  V30 5419 H 495.843 2.56738 -4.85157 0
M  V30 5420 H 496.104 3.06401 -3.18702 0
M  V30 5421 N 495.163 1.55791 0.238111 0
M  V30 5422 C 496.44 1.68798 0.98826 0
M  V30 5423 C 496.82 0.577562 2.03045 0
M  V30 5424 O 496.168 -0.41778 2.24648 0
M  V30 5425 C 496.378 3.09454 1.61367 0
M  V30 5426 C 497.726 3.68335 2.11221 0
M  V30 5427 O 498.75 3.1231 1.71292 0
M  V30 5428 O 497.609 4.6657 2.84561 0
M  V30 5429 H 494.703 0.686881 0.460568 0
M  V30 5430 H 497.249 1.68118 0.231202 0
M  V30 5431 H 496.021 3.81726 0.860295 0
M  V30 5432 H 495.644 3.14182 2.4367 0
M  V30 5433 N 496.642 -0.504142 1.49319 0
M  V30 5434 C 497.552 -1.63248 1.68486 0
M  V30 5435 C 498.568 -1.64488 0.567432 0
M  V30 5436 O 499.744 -1.82966 0.841749 0
M  V30 5437 C 496.809 -2.99627 1.74426 0
M  V30 5438 C 495.87 -3.09039 2.97982 0
M  V30 5439 C 495.103 -4.38913 3.0363 0
M  V30 5440 O 495.326 -5.27528 2.16958 0
M  V30 5441 O 494.26 -4.53231 3.96062 0
M  V30 5442 H 498.086 -1.50008 2.64067 0
M  V30 5443 H 495.671 -0.680086 1.33023 0
M  V30 5444 H 497.553 -3.80689 1.80705 0
M  V30 5445 H 496.228 -3.13136 0.820233 0
M  V30 5446 H 495.135 -2.27177 2.97223 0
M  V30 5447 H 496.468 -3.00456 3.89855 0
M  V30 5448 N 498.12 -1.38341 -0.754957 0
M  V30 5449 C 499.366 -1.35678 -1.51536 0
M  V30 5450 C 499.721 0.0533985 -1.92326 0
M  V30 5451 O 499.014 1.01573 -1.6246 0
M  V30 5452 C 499.208 -2.2452 -2.78075 0
M  V30 5453 C 499.037 -3.74035 -2.49655 0
M  V30 5454 C 497.807 -4.43066 -2.42942 0
M  V30 5455 C 500.005 -4.665 -2.16523 0
M  V30 5456 N 497.987 -5.78026 -2.06783 0
M  V30 5457 C 499.358 -5.89962 -1.90644 0
M  V30 5458 C 501.413 -4.54718 -2.02821 0
M  V30 5459 C 500.116 -7.0296 -1.52444 0
M  V30 5460 C 502.142 -5.67618 -1.66023 0
M  V30 5461 C 501.504 -6.90141 -1.41015 0
M  V30 5462 H 497.603 -0.551764 -0.554148 0
M  V30 5463 H 500.187 -1.73716 -0.879258 0
M  V30 5464 H 498.358 -1.88673 -3.39496 0
M  V30 5465 H 500.09 -2.12993 -3.44116 0
M  V30 5466 H 496.845 -3.96264 -2.59367 0
M  V30 5467 H 497.269 -6.49394 -1.91353 0
M  V30 5468 H 501.911 -3.60546 -2.20831 0
M  V30 5469 H 499.629 -7.97051 -1.33174 0
M  V30 5470 H 503.215 -5.6048 -1.56055 0
M  V30 5471 H 502.095 -7.76021 -1.12965 0
M  V30 5472 N 499.598 0.982988 -1.23187 0
M  V30 5473 C 500.545 2.07491 -1.01075 0
M  V30 5474 C 501.515 1.65949 0.070905 0
M  V30 5475 O 502.7 1.90629 -0.0806822 0
M  V30 5476 C 499.84 3.39751 -0.605261 0
M  V30 5477 C 498.953 3.94578 -1.75876 0
M  V30 5478 C 498.088 5.15039 -1.3003 0
M  V30 5479 C 497.127 5.62027 -2.42472 0
M  V30 5480 N 496.264 6.73719 -1.97602 0
M  V30 5481 H 501.104 2.25739 -1.9454 0
M  V30 5482 H 498.641 1.10659 -0.969179 0
M  V30 5483 H 500.599 4.15719 -0.351279 0
M  V30 5484 H 499.229 3.21473 0.292382 0
M  V30 5485 H 498.281 3.1539 -2.12681 0
M  V30 5486 H 499.593 4.25422 -2.60418 0
M  V30 5487 H 498.747 5.9833 -1.00429 0
M  V30 5488 H 497.486 4.85843 -0.425216 0
M  V30 5489 H 496.491 4.77318 -2.7285 0
M  V30 5490 H 497.716 5.93244 -3.30512 0
M  V30 5491 H 495.662 6.46287 -1.1247 0
M  V30 5492 H 495.579 7.03934 -2.75705 0
M  V30 5493 H 496.847 7.6049 -1.71098 0
M  V30 5494 N 501.076 1.04316 1.18135 0
M  V30 5495 C 502.008 0.594444 2.21357 0
M  V30 5496 C 503.021 -0.337215 1.59269 0
M  V30 5497 O 504.21 -0.131337 1.78016 0
M  V30 5498 C 501.31 -0.151251 3.38562 0
M  V30 5499 C 500.483 0.788907 4.30227 0
M  V30 5500 C 499.542 0.0860572 5.2613 0
M  V30 5501 O 498.568 0.717302 5.64662 0
M  V30 5502 N 499.77 -1.17969 5.68387 0
M  V30 5503 H 502.535 1.48227 2.60478 0
M  V30 5504 H 500.096 0.92396 1.32946 0
M  V30 5505 H 502.088 -0.631352 3.99745 0
M  V30 5506 H 500.658 -0.940639 2.98112 0
M  V30 5507 H 499.878 1.44882 3.6661 0
M  V30 5508 H 501.166 1.42738 4.88368 0
M  V30 5509 H 500.564 -1.71302 5.3914 0
M  V30 5510 H 499.121 -1.60402 6.31755 0
M  V30 5511 N 502.554 -1.34406 0.822964 0
M  V30 5512 C 503.504 -2.26963 0.217208 0
M  V30 5513 C 504.488 -1.48536 -0.618545 0
M  V30 5514 O 505.68 -1.7056 -0.473118 0
M  V30 5515 C 502.809 -3.37655 -0.619973 0
M  V30 5516 C 501.895 -4.23495 0.226411 0
M  V30 5517 N 502.286 -4.88876 1.29744 0
M  V30 5518 C 500.584 -4.45999 0.0107554 0
M  V30 5519 C 501.285 -5.52642 1.81553 0
M  V30 5520 N 500.261 -5.31949 1.11942 0
M  V30 5521 H 504.063 -2.75017 1.03647 0
M  V30 5522 H 501.577 -1.48126 0.665777 0
M  V30 5523 H 503.574 -4.02932 -1.07011 0
M  V30 5524 H 502.234 -2.91151 -1.43739 0
M  V30 5525 H 503.245 -4.89886 1.68024 0
M  V30 5526 H 499.922 -4.10253 -0.774495 0
M  V30 5527 H 501.312 -6.14755 2.71156 0
M  V30 5528 N 504.032 -0.577932 -1.46621 0
M  V30 5529 C 505.281 -0.0594281 -2.01612 0
M  V30 5530 C 505.594 1.30663 -1.45556 0
M  V30 5531 O 506.8 1.91621 -1.92337 0
M  V30 5532 C 505.256 -0.0556666 -3.59857 0
M  V30 5533 C 504.864 -1.41975 -4.24908 0
M  V30 5534 C 506.608 0.409143 -4.22524 0
M  V30 5535 C 504.515 -1.37397 -5.75218 0
M  V30 5536 H 503.445 -0.0184469 -0.753774 0
M  V30 5537 H 506.096 -0.728869 -1.68404 0
M  V30 5538 H 504.478 0.679843 -3.90121 0
M  V30 5539 H 505.652 -2.17461 -4.0626 0
M  V30 5540 H 503.967 -1.82419 -3.74316 0
M  V30 5541 H 506.564 0.46211 -5.32699 0
M  V30 5542 H 506.907 1.42565 -3.91128 0
M  V30 5543 H 507.44 -0.272152 -3.96868 0
M  V30 5544 H 504.179 -2.36714 -6.11267 0
M  V30 5545 H 503.699 -0.661239 -5.96144 0
M  V30 5546 H 505.378 -1.08484 -6.3784 0
M  V30 5547 N 505.51 1.54411 -0.315457 0
M  V30 5548 C 506.74 2.04536 0.291315 0
M  V30 5549 C 507.148 1.19162 1.4696 0
M  V30 5550 O 506.491 0.213199 1.82459 0
M  V30 5551 C 506.553 3.5056 0.796725 0
M  V30 5552 C 506.217 4.5627 -0.258178 0
M  V30 5553 C 507.214 5.08312 -1.09153 0
M  V30 5554 C 504.899 5.00672 -0.404036 0
M  V30 5555 C 506.893 6.03312 -2.05655 0
M  V30 5556 C 504.58 5.95488 -1.37248 0
M  V30 5557 C 505.578 6.46693 -2.19721 0
M  V30 5558 O 505.266 7.39648 -3.14921 0
M  V30 5559 H 504.998 0.672856 0.0651165 0
M  V30 5560 H 507.552 2.00244 -0.457308 0
M  V30 5561 H 505.782 3.52223 1.59612 0
M  V30 5562 H 507.471 3.83804 1.32096 0
M  V30 5563 H 508.237 4.74793 -0.98979 0
M  V30 5564 H 504.116 4.60436 0.22799 0
M  V30 5565 H 507.66 6.43203 -2.70067 0
M  V30 5566 H 503.557 6.28424 -1.47489 0
M  V30 5567 H 504.325 7.57496 -3.10067 0
M  V30 5568 N 506.988 0.0434614 1.5754 0
M  V30 5569 C 507.935 -0.93356 2.11077 0
M  V30 5570 C 508.905 -1.31383 1.01626 0
M  V30 5571 O 510.09 -1.40465 1.29129 0
M  V30 5572 C 507.23 -2.20578 2.65404 0
M  V30 5573 C 506.343 -1.88068 3.88914 0
M  V30 5574 C 505.478 -3.09691 4.31584 0
M  V30 5575 C 504.517 -2.73067 5.47815 0
M  V30 5576 N 503.654 -3.87359 5.85574 0
M  V30 5577 H 508.494 -0.470118 2.94268 0
M  V30 5578 H 506.031 -0.220434 1.45439 0
M  V30 5579 H 507.989 -2.95011 2.94999 0
M  V30 5580 H 506.619 -2.64513 1.85021 0
M  V30 5581 H 505.671 -1.03816 3.6596 0
M  V30 5582 H 506.983 -1.57104 4.73413 0
M  V30 5583 H 506.137 -3.92431 4.62691 0
M  V30 5584 H 504.876 -3.43827 3.45882 0
M  V30 5585 H 503.881 -1.88742 5.16388 0
M  V30 5586 H 505.106 -2.40131 6.35227 0
M  V30 5587 H 503.052 -4.21311 5.02825 0
M  V30 5588 H 502.969 -3.60068 6.64746 0
M  V30 5589 H 504.237 -4.70761 6.21292 0
M  V30 5590 N 508.466 -1.55915 -0.229846 0
M  V30 5591 C 509.376 -1.94891 -1.30593 0
M  V30 5592 C 510.392 -0.851604 -1.51736 0
M  V30 5593 O 511.568 -1.15447 -1.65027 0
M  V30 5594 C 508.633 -2.25052 -2.63728 0
M  V30 5595 C 507.694 -3.48306 -2.5096 0
M  V30 5596 C 506.927 -3.77019 -3.77747 0
M  V30 5597 O 507.15 -3.07534 -4.80395 0
M  V30 5598 O 506.084 -4.70523 -3.75356 0
M  V30 5599 H 509.91 -2.86581 -1.00525 0
M  V30 5600 H 507.495 -1.43017 -0.432025 0
M  V30 5601 H 509.377 -2.45682 -3.42372 0
M  V30 5602 H 508.052 -1.36538 -2.93495 0
M  V30 5603 H 506.959 -3.32964 -1.70546 0
M  V30 5604 H 508.292 -4.37177 -2.26136 0
M  V30 5605 N 509.944 0.496216 -1.49584 0
M  V30 5606 C 511.193 1.24668 -1.58558 0
M  V30 5607 C 511.506 1.9359 -0.279703 0
M  V30 5608 O 512.712 2.70365 -0.248048 0
M  V30 5609 C 511.168 2.26388 -2.79779 0
M  V30 5610 C 510.776 1.63384 -4.17145 0
M  V30 5611 C 512.52 3.02233 -2.98086 0
M  V30 5612 C 510.427 2.63243 -5.29582 0
M  V30 5613 H 509.357 0.468995 -0.590389 0
M  V30 5614 H 512.008 0.519985 -1.75978 0
M  V30 5615 H 510.39 3.02241 -2.55863 0
M  V30 5616 H 511.564 0.93491 -4.51216 0
M  V30 5617 H 509.879 0.999121 -4.04236 0
M  V30 5618 H 512.476 3.76919 -3.79257 0
M  V30 5619 H 512.819 3.60132 -2.08831 0
M  V30 5620 H 513.352 2.33495 -3.22063 0
M  V30 5621 H 510.091 2.10119 -6.20911 0
M  V30 5622 H 509.611 3.31363 -4.99959 0
M  V30 5623 H 511.29 3.25575 -5.59115 0
M  V30 5624 N 511.423 1.38739 0.74761 0
M  V30 5625 C 512.669 1.35475 1.50912 0
M  V30 5626 C 513.002 -0.0533093 1.94127 0
M  V30 5627 O 512.277 -1.01572 1.65871 0
M  V30 5628 C 512.56 2.31582 2.75757 0
M  V30 5629 C 512.413 3.81274 2.38642 0
M  V30 5630 C 513.732 2.25722 3.77806 0
M  V30 5631 H 510.851 0.493427 0.547447 0
M  V30 5632 H 513.493 1.69634 0.855823 0
M  V30 5633 H 511.643 2.02582 3.31501 0
M  V30 5634 H 513.315 4.20972 1.88626 0
M  V30 5635 H 511.558 3.98664 1.71025 0
M  V30 5636 H 512.229 4.4399 3.27989 0
M  V30 5637 H 514.705 2.51336 3.31616 0
M  V30 5638 H 513.581 2.95069 4.62845 0
M  V30 5639 H 513.842 1.25803 4.23823 0
M  V30 5640 N 512.901 -0.976442 1.23707 0
M  V30 5641 C 513.849 -2.09078 1.01927 0
M  V30 5642 C 514.843 -1.69345 -0.0430193 0
M  V30 5643 O 516.049 -1.79659 0.110814 0
M  V30 5644 H 512.424 -0.68398 0.312531 0
M  V30 5645 H 514.395 -2.24614 1.96447 0
M  V30 5646 C 513.144 -3.41919 0.631385 0
M  V30 5647 H 512.467 -3.72946 1.44053 0
M  V30 5648 H 513.907 -4.20817 0.518532 0
M  V30 5649 C 512.366 -3.30357 -0.660723 0
M  V30 5650 O 512.896 -3.63542 -1.70881 0
M  V30 5651 N 511.102 -2.83507 -0.638139 0
M  V30 5652 H 510.649 -2.567 0.215108 0
M  V30 5653 H 510.607 -2.76153 -1.50289 0
M  V30 5654 N 514.379 -1.04941 -1.1758 0
M  V30 5655 C 515.626 -0.757989 -1.87779 0
M  V30 5656 C 515.954 0.714827 -1.80888 0
M  V30 5657 O 515.209 1.53824 -1.20982 0
M  V30 5658 C 515.508 -1.18062 -3.37337 0
M  V30 5659 C 515.174 -2.65521 -3.6443 0
M  V30 5660 C 513.836 -3.05804 -3.71534 0
M  V30 5661 C 516.188 -3.60822 -3.76108 0
M  V30 5662 C 513.516 -4.40256 -3.87803 0
M  V30 5663 C 515.868 -4.95005 -3.93895 0
M  V30 5664 C 514.532 -5.34945 -3.99237 0
M  V30 5665 H 513.802 -0.277368 -0.68713 0
M  V30 5666 H 516.449 -1.31603 -1.39115 0
M  V30 5667 H 514.754 -0.541525 -3.8804 0
M  V30 5668 H 516.451 -0.932368 -3.9001 0
M  V30 5669 H 513.041 -2.33324 -3.59524 0
M  V30 5670 H 517.225 -3.30841 -3.69943 0
M  V30 5671 H 512.481 -4.70707 -3.90186 0
M  V30 5672 H 516.655 -5.68746 -4.01872 0
M  V30 5673 H 514.282 -6.39135 -4.11596 0
M  V30 5674 N 515.857 1.33968 -0.830081 0
M  V30 5675 C 517.082 2.02813 -0.433796 0
M  V30 5676 C 517.507 1.62076 0.954614 0
M  V30 5677 O 516.865 0.808955 1.62252 0
M  V30 5678 C 516.913 3.56348 -0.552115 0
M  V30 5679 O 516.017 4.10202 0.425191 0
M  V30 5680 H 515.358 0.639817 -0.177567 0
M  V30 5681 H 517.888 1.7106 -1.12248 0
M  V30 5682 H 517.898 4.05722 -0.430513 0
M  V30 5683 H 516.573 3.85344 -1.56471 0
M  V30 5684 H 515.15 3.71979 0.261878 0
M  V30 5685 N 517.335 0.585699 1.46312 0
M  V30 5686 C 518.746 0.159938 1.86014 0
M  V30 5687 C 519.097 -1.27775 1.48889 0
M  V30 5688 O 518.222 -1.96559 0.90519 0
M  V30 5689 C 518.817 0.283485 3.37612 0
M  V30 5690 C 517.376 -0.0874256 3.76298 0
M  V30 5691 C 516.523 0.618055 2.70325 0
M  V30 5692 H 519.474 0.793737 1.37425 0
M  V30 5693 H 519.495 -0.490348 3.77327 0
M  V30 5694 H 519.007 1.32995 3.64601 0
M  V30 5695 H 517.108 -1.13391 3.54927 0
M  V30 5696 H 517.221 0.290975 4.78216 0
M  V30 5697 H 515.585 0.057993 2.54634 0
M  V30 5698 H 516.368 1.66623 3.00153 0
M  V30 5699 N 518.813 -1.54241 0.323641 0
M  V30 5700 C 520.062 -1.9975 -0.279806 0
M  V30 5701 C 520.375 -1.2156 -1.5324 0
M  V30 5702 O 521.581 -1.57447 -2.21185 0
M  V30 5703 C 520.037 -3.55686 -0.549115 0
M  V30 5704 C 519.645 -4.4271 0.686432 0
M  V30 5705 C 521.389 -4.09663 -1.11251 0
M  V30 5706 C 519.296 -5.90119 0.389022 0
M  V30 5707 H 518.226 -0.746177 -0.10833 0
M  V30 5708 H 520.877 -1.78248 0.435877 0
M  V30 5709 H 519.259 -3.73176 -1.32499 0
M  V30 5710 H 520.433 -4.36996 1.46188 0
M  V30 5711 H 518.748 -3.99623 1.17005 0
M  V30 5712 H 521.345 -5.17386 -1.34965 0
M  V30 5713 H 521.688 -3.61651 -2.06191 0
M  V30 5714 H 522.221 -3.95806 -0.39782 0
M  V30 5715 H 518.96 -6.42326 1.30759 0
M  V30 5716 H 518.48 -5.98785 -0.348722 0
M  V30 5717 H 520.159 -6.47 -0.0011164 0
M  V30 5718 N 520.291 -0.0518155 -1.57515 0
M  V30 5719 C 521.254 0.907547 -2.10467 0
M  V30 5720 C 522.254 1.23947 -1.02439 0
M  V30 5721 O 523.444 1.17604 -1.2851 0
M  V30 5722 C 520.576 2.21723 -2.58944 0
M  V30 5723 H 521.769 0.44851 -2.96527 0
M  V30 5724 H 519.322 0.196598 -1.55059 0
M  V30 5725 H 520.057 2.72206 -1.76279 0
M  V30 5726 H 519.842 1.98935 -3.37886 0
M  V30 5727 H 521.332 2.90441 -3.00056 0
M  V30 5728 N 521.769 1.56035 0.221574 0
M  V30 5729 C 523.185 1.49026 0.571271 0
M  V30 5730 C 523.385 0.746912 1.87146 0
M  V30 5731 O 522.441 0.286566 2.50869 0
M  V30 5732 C 523.754 2.93579 0.650522 0
M  V30 5733 C 525.302 3.04099 0.741151 0
M  V30 5734 C 525.777 4.5001 0.851747 0
M  V30 5735 N 527.268 4.54053 0.915968 0
M  V30 5736 C 528.003 5.64232 1.02125 0
M  V30 5737 N 527.499 6.84164 1.09049 0
M  V30 5738 N 529.292 5.52084 1.05639 0
M  V30 5739 H 521.443 2.02791 -0.63162 0
M  V30 5740 H 523.706 0.921736 -0.221602 0
M  V30 5741 H 523.412 3.50912 -0.235253 0
M  V30 5742 H 523.286 3.45476 1.51413 0
M  V30 5743 H 525.673 2.4683 1.61737 0
M  V30 5744 H 525.754 2.55371 -0.148128 0
M  V30 5745 H 525.398 5.07896 -0.0200117 0
M  V30 5746 H 525.328 4.96444 1.75644 0
M  V30 5747 H 527.819 3.67683 0.872782 0
M  V30 5748 H 528.132 7.63883 1.1706 0
M  V30 5749 H 526.477 6.86875 1.05962 0
M  V30 5750 H 529.668 4.57317 0.998953 0
M  V30 5751 H 529.841 6.37983 1.13498 0
M  V30 5752 N 523.247 -0.488276 1.49845 0
M  V30 5753 C 524.194 -1.58836 1.67451 0
M  V30 5754 C 525.164 -1.57886 0.515857 0
M  V30 5755 O 526.349 -1.75679 0.744403 0
M  V30 5756 C 523.489 -2.96915 1.75885 0
M  V30 5757 C 522.602 -3.07784 3.03138 0
M  V30 5758 C 521.737 -4.36673 3.02473 0
M  V30 5759 C 520.776 -4.41222 4.24252 0
M  V30 5760 N 519.913 -5.61557 4.21424 0
M  V30 5761 H 524.753 -1.43131 2.61376 0
M  V30 5762 H 522.29 -0.696186 1.29583 0
M  V30 5763 H 524.248 -3.76965 1.78755 0
M  V30 5764 H 522.878 -3.11295 0.85414 0
M  V30 5765 H 521.93 -2.20717 3.09819 0
M  V30 5766 H 523.242 -3.07005 3.93128 0
M  V30 5767 H 522.396 -5.25055 3.03977 0
M  V30 5768 H 521.135 -4.40037 2.10283 0
M  V30 5769 H 520.14 -3.5124 4.22978 0
M  V30 5770 H 521.365 -4.39564 5.17649 0
M  V30 5771 H 519.311 -5.65738 3.32078 0
M  V30 5772 H 519.228 -5.62447 5.05163 0
M  V30 5773 H 520.496 -6.52111 4.2705 0
M  V30 5774 N 524.725 -1.39134 -0.740242 0
M  V30 5775 C 526.002 -1.26584 -1.49117 0
M  V30 5776 C 526.382 0.126902 -2.10718 0
M  V30 5777 O 525.73 1.13765 -1.98166 0
M  V30 5778 C 525.94 -2.38619 -2.54681 0
M  V30 5779 C 527.288 -2.77685 -3.21211 0
M  V30 5780 O 528.312 -2.38029 -2.64991 0
M  V30 5781 O 527.171 -3.46115 -4.22926 0
M  V30 5782 H 524.265 -0.495769 -0.661923 0
M  V30 5783 H 526.811 -1.50995 -0.774514 0
M  V30 5784 H 525.583 -3.3175 -2.07504 0
M  V30 5785 H 525.206 -2.15845 -3.33911 0
M  V30 5786 N 526.204 0.969867 -1.24223 0
M  V30 5787 C 527.429 1.75289 -1.10853 0
M  V30 5788 C 527.854 1.85091 0.335079 0
M  V30 5789 O 527.212 1.32024 1.24255 0
M  V30 5790 C 527.26 3.15255 -1.75062 0
M  V30 5791 O 526.364 3.99589 -1.01992 0
M  V30 5792 H 525.705 0.538904 -0.387915 0
M  V30 5793 H 528.235 1.21675 -1.64488 0
M  V30 5794 H 528.245 3.65787 -1.80731 0
M  V30 5795 H 526.92 3.07436 -2.801 0
M  V30 5796 H 525.497 3.58077 -1.04094 0
M  V30 5797 N 527.682 1.05563 1.17022 0
M  V30 5798 C 529.098 0.777684 1.39371 0
M  V30 5799 C 529.298 -0.626269 1.91521 0
M  V30 5800 O 528.354 -1.38806 2.10924 0
M  V30 5801 C 529.667 1.83642 2.3811 0
M  V30 5802 C 531.215 1.85907 2.51809 0
M  V30 5803 C 531.69 2.90813 3.53824 0
M  V30 5804 N 533.181 2.898 3.61345 0
M  V30 5805 C 533.916 3.6762 4.40049 0
M  V30 5806 N 533.412 4.55237 5.22237 0
M  V30 5807 N 535.205 3.56044 4.34959 0
M  V30 5808 H 527.356 1.9614 0.815047 0
M  V30 5809 H 529.619 0.849527 0.420722 0
M  V30 5810 H 529.325 2.84425 2.06871 0
M  V30 5811 H 529.199 1.6812 3.37662 0
M  V30 5812 H 531.586 0.857865 2.82356 0
M  V30 5813 H 531.667 2.05506 1.52318 0
M  V30 5814 H 531.311 3.91122 3.24015 0
M  V30 5815 H 531.241 2.68465 4.53028 0
M  V30 5816 H 533.732 2.26274 3.02669 0
M  V30 5817 H 534.045 5.11291 5.79484 0
M  V30 5818 H 532.39 4.59296 5.21605 0
M  V30 5819 H 535.581 2.86986 3.69806 0
M  V30 5820 H 535.754 4.16938 4.96051 0
M  V30 5821 N 529.16 -1.33526 0.837174 0
M  V30 5822 C 530.576 -1.50727 0.524743 0
M  V30 5823 C 530.776 -1.77792 -0.948279 0
M  V30 5824 O 529.832 -1.83719 -1.73216 0
M  V30 5825 C 531.145 -2.66299 1.39661 0
M  V30 5826 C 532.693 -2.80183 1.39521 0
M  V30 5827 C 533.168 -3.98815 2.25189 0
M  V30 5828 N 534.659 -4.06047 2.2289 0
M  V30 5829 C 535.394 -4.97032 2.85915 0
M  V30 5830 N 534.89 -5.93143 3.57985 0
M  V30 5831 N 536.683 -4.90015 2.75394 0
M  V30 5832 H 528.834 -1.1422 1.79074 0
M  V30 5833 H 531.097 -0.561399 0.763894 0
M  V30 5834 H 530.803 -2.52974 2.4433 0
M  V30 5835 H 530.677 -3.61663 1.07145 0
M  V30 5836 H 533.064 -2.92942 0.356253 0
M  V30 5837 H 533.145 -1.85586 1.76044 0
M  V30 5838 H 532.789 -3.86817 3.29143 0
M  V30 5839 H 532.719 -4.92654 1.86009 0
M  V30 5840 H 535.21 -3.37262 1.70478 0
M  V30 5841 H 535.523 -6.59227 4.03286 0
M  V30 5842 H 533.868 -5.93223 3.62093 0
M  V30 5843 H 537.059 -4.13894 2.18654 0
M  V30 5844 H 537.232 -5.60724 3.24796 0
M  V30 5845 N 530.638 -0.59345 -1.46 0
M  V30 5846 C 532.054 -0.255965 -1.57534 0
M  V30 5847 C 532.254 1.24167 -1.58697 0
M  V30 5848 O 531.31 2.02398 -1.50968 0
M  V30 5849 C 532.623 -0.91466 -2.86451 0
M  V30 5850 C 534.171 -0.889253 -3.00102 0
M  V30 5851 C 534.646 -1.52769 -4.3177 0
M  V30 5852 N 536.137 -1.49253 -4.38495 0
M  V30 5853 C 536.872 -1.9558 -5.39014 0
M  V30 5854 N 536.368 -2.49929 -6.46148 0
M  V30 5855 N 538.161 -1.86432 -5.30282 0
M  V30 5856 H 530.312 -1.56604 -1.43489 0
M  V30 5857 H 532.575 -0.655207 -0.685133 0
M  V30 5858 H 532.281 -1.96861 -2.91442 0
M  V30 5859 H 532.155 -0.429356 -3.74748 0
M  V30 5860 H 534.542 0.156111 -2.94687 0
M  V30 5861 H 534.623 -1.41268 -2.13253 0
M  V30 5862 H 534.267 -2.57231 -4.37944 0
M  V30 5863 H 534.197 -0.979398 -5.17412 0
M  V30 5864 H 536.688 -1.09536 -3.61677 0
M  V30 5865 H 537.001 -2.83109 -7.19075 0
M  V30 5866 H 535.346 -2.53961 -6.46938 0
M  V30 5867 H 538.537 -1.43722 -4.4549 0
M  V30 5868 H 538.71 -2.22852 -6.08474 0
M  V30 5869 N 532.116 1.54067 -0.331816 0
M  V30 5870 C 533.341 2.05599 0.272705 0
M  V30 5871 C 533.766 1.2059 1.44359 0
M  V30 5872 O 533.124 0.216907 1.79998 0
M  V30 5873 C 533.172 3.54188 0.677021 0
M  V30 5874 O 532.276 3.72082 1.77844 0
M  V30 5875 H 531.617 0.662286 0.0476801 0
M  V30 5876 H 534.147 1.98826 -0.482624 0
M  V30 5877 H 534.157 3.96608 0.957415 0
M  V30 5878 H 532.832 4.15513 -0.179325 0
M  V30 5879 H 531.409 3.41566 1.49622 0
M  V30 5880 N 533.594 0.0601682 1.57485 0
M  V30 5881 C 534.842 -0.610386 1.92662 0
M  V30 5882 C 535.163 -1.70849 0.939981 0
M  V30 5883 O 534.433 -1.95895 -0.0137455 0
M  V30 5884 H 533.013 -0.228457 0.711208 0
M  V30 5885 H 535.675 0.115288 1.94559 0
M  V30 5886 H 534.771 -1.0432 2.94149 0
M  V30 5887 N 535.072 -1.5615 -0.213296 0
M  V30 5888 C 536.005 -1.88115 -1.29182 0
M  V30 5889 C 536.983 -0.739348 -1.44819 0
M  V30 5890 O 538.167 -0.988541 -1.605 0
M  V30 5891 C 535.294 -2.09541 -2.66102 0
M  V30 5892 C 534.34 -3.32236 -2.67436 0
M  V30 5893 S 535.173 -4.87915 -2.20679 0
M  V30 5894 C 536.329 -5.12387 -3.59458 0
M  V30 5895 H 536.562 -2.793 -1.01876 0
M  V30 5896 H 534.095 -1.48692 -0.415934 0
M  V30 5897 H 536.053 -2.22568 -3.44925 0
M  V30 5898 H 534.714 -1.19138 -2.90628 0
M  V30 5899 H 533.907 -3.44297 -3.6807 0
M  V30 5900 H 533.509 -3.18108 -1.96681 0
M  V30 5901 H 535.801 -5.01791 -4.55205 0
M  V30 5902 H 536.744 -6.14236 -3.52306 0
M  V30 5903 H 537.152 -4.40089 -3.53528 0
M  V30 5904 N 536.55 0.480323 -1.50102 0
M  V30 5905 C 537.497 1.57946 -1.6829 0
M  V30 5906 C 538.467 1.57611 -0.524223 0
M  V30 5907 O 539.652 1.75282 -0.753709 0
M  V30 5908 C 536.792 2.95978 -1.77457 0
M  V30 5909 C 535.905 3.06173 -3.04766 0
M  V30 5910 C 535.04 4.35063 -3.04784 0
M  V30 5911 C 534.079 4.38966 -4.26586 0
M  V30 5912 N 533.216 5.59314 -4.24396 0
M  V30 5913 H 538.056 1.41743 -2.62131 0
M  V30 5914 H 535.593 0.689304 -1.2995 0
M  V30 5915 H 537.551 3.76011 -1.80752 0
M  V30 5916 H 536.181 3.10837 -0.870637 0
M  V30 5917 H 535.233 2.19071 -3.10986 0
M  V30 5918 H 536.545 3.04916 -3.9475 0
M  V30 5919 H 535.699 5.23436 -3.06757 0
M  V30 5920 H 534.438 4.38915 -2.12614 0
M  V30 5921 H 533.443 3.48992 -4.24835 0
M  V30 5922 H 534.668 4.36813 -5.19972 0
M  V30 5923 H 532.614 5.63969 -3.35074 0
M  V30 5924 H 532.531 5.5976 -5.08138 0
M  V30 5925 H 533.799 6.49837 -4.30502 0
M  V30 5926 N 538.028 1.39524 0.732853 0
M  V30 5927 C 538.958 1.41153 1.86005 0
M  V30 5928 C 539.939 0.274614 1.67869 0
M  V30 5929 O 541.124 0.480745 1.88155 0
M  V30 5930 C 538.254 1.25638 3.23778 0
M  V30 5931 C 537.208 2.36752 3.56556 0
M  V30 5932 C 536.534 2.06326 4.93289 0
M  V30 5933 C 537.834 3.79069 3.5931 0
M  V30 5934 H 539.528 2.35484 1.84899 0
M  V30 5935 H 537.074 1.13348 0.888162 0
M  V30 5936 H 539.027 1.25398 4.0231 0
M  V30 5937 H 537.751 0.277772 3.25417 0
M  V30 5938 H 536.41 2.36213 2.80355 0
M  V30 5939 H 536.058 1.06897 4.9151 0
M  V30 5940 H 535.758 2.80757 5.16187 0
M  V30 5941 H 537.282 2.07739 5.74175 0
M  V30 5942 H 538.696 3.81526 4.27914 0
M  V30 5943 H 537.093 4.52878 3.93728 0
M  V30 5944 H 538.163 4.09893 2.59068 0
M  V30 5945 O 539.545 -0.874016 1.35806 0
M  V30 5946 H 540.236 -1.51229 1.21035 0
M  V30 END ATOM
M  V30 BEGIN BOND
M  V30 END BOND
M  V30 END CTAB
M  END
$$$$
