drugbank_target|Q6PHR2 Serine/threonine-protein kinase ULK3 (DB12010)
 OpenBabel12092121143D

  0  0  0     0  0            999 V3000
M  V30 BEGIN CTAB
M  V30 COUNTS 7559 7632 0 0 0
M  V30 BEGIN ATOM
M  V30 1 H -0.908 1.98254 -0.117106 0
M  V30 2 N 0 1.576 0 0
M  V30 3 C 0.933 2.03868 1.02534 0
M  V30 4 C 1.911 0.928543 1.3348 0
M  V30 5 O 3.095 1.19667 1.45644 0
M  V30 6 C 0.222 2.43627 2.35294 0
M  V30 7 C -0.732 3.65373 2.2001 0
M  V30 8 S 0.101 5.13292 1.52614 0
M  V30 9 C 1.257 5.56322 2.86805 0
M  V30 10 H 1.49 2.90518 0.631377 0
M  V30 11 H -0.977 1.52953 0.210867 0
M  V30 12 H 0.981 2.67203 3.11629 0
M  V30 13 H -0.358 1.57376 2.7183 0
M  V30 14 H -1.165 3.90944 3.18086 0
M  V30 15 H -1.563 3.418 1.51819 0
M  V30 16 H 0.729 5.58782 3.83104 0
M  V30 17 H 1.672 6.56266 2.65933 0
M  V30 18 H 2.08 4.83886 2.90714 0
M  V30 19 N 1.4781 -0.272755 1.55222 0
M  V30 20 C 2.4411 -1.32041 1.87344 0
M  V30 21 C 3.4411 -1.42342 0.74803 0
M  V30 22 O 4.6311 -1.41488 1.0162 0
M  V30 23 C 1.7631 -2.70173 2.07893 0
M  V30 24 H 2.9561 -1.04789 2.80997 0
M  V30 25 H 0.5091 -0.51083 1.47717 0
M  V30 26 H 1.2441 -3.02605 1.16622 0
M  V30 27 H 1.0291 -2.64082 2.89833 0
M  V30 28 H 2.5191 -3.45869 2.34017 0
M  V30 29 N 2.9562 -1.48159 -0.537278 0
M  V30 30 C 4.2042 -1.55497 -1.29094 0
M  V30 31 C 4.5252 -0.227454 -1.93669 0
M  V30 32 O 3.7952 0.750386 -1.80959 0
M  V30 33 H 2.3752 -0.572832 -0.47945 0
M  V30 34 H 5.0372 -1.84579 -0.625818 0
M  V30 35 H 4.1332 -2.33216 -2.07405 0
M  V30 36 N 4.4343 0.785586 -1.36625 0
M  V30 37 C 5.8453 1.36101 -1.27803 0
M  V30 38 C 6.1963 1.96035 0.0804875 0
M  V30 39 O 5.3213 1.92834 0.982042 0
M  V30 40 C 5.9163 2.47442 -2.31426 0
M  V30 41 C 4.4753 3.00789 -2.26281 0
M  V30 42 C 3.6223 1.73896 -2.15999 0
M  V30 43 H 6.5733 0.586928 -1.47448 0
M  V30 44 H 6.5943 3.2656 -1.95291 0
M  V30 45 H 6.1063 2.03791 -3.30289 0
M  V30 46 H 4.2073 3.48851 -1.30896 0
M  V30 47 H 4.3203 3.57343 -3.19128 0
M  V30 48 H 2.6843 1.9628 -1.62316 0
M  V30 49 H 3.4673 1.32368 -3.16755 0
M  V30 50 N 5.9124 1.20967 1.01018 0
M  V30 51 C 7.1604 1.02172 1.74371 0
M  V30 52 C 7.4814 -0.446414 1.89821 0
M  V30 53 O 6.7514 -1.32234 1.44537 0
M  V30 54 H 5.3314 0.375066 0.646014 0
M  V30 55 H 7.9934 1.52187 1.21758 0
M  V30 56 H 7.0894 1.48538 2.74487 0
M  V30 57 N 7.3905 -1.2043 1.01659 0
M  V30 58 C 8.6365 -1.90356 0.716674 0
M  V30 59 C 8.9915 -1.77367 -0.745557 0
M  V30 60 O 8.2845 -1.1471 -1.53467 0
M  V30 61 C 8.4785 -3.40464 1.08714 0
M  V30 62 C 8.3075 -3.6806 2.58384 0
M  V30 63 C 7.0775 -3.86775 3.25167 0
M  V30 64 C 9.2755 -3.70623 3.56572 0
M  V30 65 N 7.2575 -4.01889 4.64067 0
M  V30 66 C 8.6285 -3.91161 4.81034 0
M  V30 67 C 10.6835 -3.53586 3.50544 0
M  V30 68 C 9.3865 -3.96428 6.00198 0
M  V30 69 C 11.4125 -3.60125 4.6911 0
M  V30 70 C 10.7745 -3.81135 5.92381 0
M  V30 71 H 6.8735 -0.716226 0.313918 0
M  V30 72 H 9.4575 -1.44815 1.30141 0
M  V30 73 H 7.6285 -3.84757 0.530745 0
M  V30 74 H 9.3605 -3.97863 0.740763 0
M  V30 75 H 6.1155 -3.85156 2.75594 0
M  V30 76 H 6.5395 -4.13323 5.36184 0
M  V30 77 H 11.1815 -3.36308 2.56235 0
M  V30 78 H 8.8995 -4.12502 6.94887 0
M  V30 79 H 12.4855 -3.4825 4.66062 0
M  V30 80 H 11.3655 -3.86054 6.82592 0
M  V30 81 N 8.8686 -0.792821 -1.36206 0
M  V30 82 C 10.1166 -0.366062 -1.98757 0
M  V30 83 C 10.4376 1.0668 -1.63231 0
M  V30 84 O 9.7076 1.73587 -0.907978 0
M  V30 85 H 8.2876 -0.132364 -0.735179 0
M  V30 86 H 10.9496 -1.01562 -1.66347 0
M  V30 87 H 10.0456 -0.460638 -3.08682 0
M  V30 88 N 10.3467 1.47872 -0.545128 0
M  V30 89 C 11.7577 1.86384 -0.108581 0
M  V30 90 C 12.1087 1.45309 1.31832 0
M  V30 91 O 11.2337 0.850641 1.9898 0
M  V30 92 C 11.8287 3.38265 -0.190274 0
M  V30 93 C 10.3877 3.75914 0.191164 0
M  V30 94 C 9.5347 2.71926 -0.543273 0
M  V30 95 H 12.4857 1.39561 -0.755537 0
M  V30 96 H 12.5067 3.75831 0.594217 0
M  V30 97 H 12.0187 3.6813 -1.2289 0
M  V30 98 H 10.1197 3.51665 1.23136 0
M  V30 99 H 10.2327 4.78836 -0.158987 0
M  V30 100 H 8.5967 2.54697 0.0122495 0
M  V30 101 H 9.3797 3.04634 -1.58282 0
M  V30 102 N 11.8248 0.280983 1.55075 0
M  V30 103 C 13.2358 -0.215629 1.85451 0
M  V30 104 C 13.5868 -1.54991 1.203 0
M  V30 105 O 12.7118 -2.10699 0.493435 0
M  V30 106 C 13.3068 -0.398026 3.36454 0
M  V30 107 C 11.8658 -0.838866 3.66933 0
M  V30 108 C 11.0128 0.064458 2.77225 0
M  V30 109 H 13.9638 0.502601 1.50531 0
M  V30 110 H 13.9848 -1.23569 3.59876 0
M  V30 111 H 13.4968 0.573241 3.83843 0
M  V30 112 H 11.5978 -1.8214 3.25048 0
M  V30 113 H 11.7108 -0.672123 4.74362 0
M  V30 114 H 10.0748 -0.452863 2.50642 0
M  V30 115 H 10.8578 1.03172 3.2743 0
M  V30 116 N 13.3029 -1.57598 0.00835791 0
M  V30 117 C 14.7189 -1.55764 -0.347822 0
M  V30 118 C 14.9189 -1.01186 -1.74252 0
M  V30 119 O 13.9749 -0.649371 -2.44007 0
M  V30 120 C 15.2879 -2.99927 -0.215407 0
M  V30 121 C 16.8359 -3.11656 -0.289725 0
M  V30 122 C 17.3109 -4.57621 -0.18634 0
M  V30 123 N 18.8019 -4.62557 -0.243978 0
M  V30 124 C 19.5369 -5.73094 -0.18745 0
M  V30 125 N 19.0329 -6.92753 -0.0810331 0
M  V30 126 N 20.8259 -5.61588 -0.239925 0
M  V30 127 H 12.9769 -1.91411 0.92062 0
M  V30 128 H 15.2399 -0.879562 0.353659 0
M  V30 129 H 14.9459 -3.43729 0.744512 0
M  V30 130 H 14.8199 -3.63865 -0.994097 0
M  V30 131 H 17.2069 -2.67779 -1.24009 0
M  V30 132 H 17.2879 -2.5048 0.51898 0
M  V30 133 H 16.9319 -5.02174 0.760519 0
M  V30 134 H 16.8619 -5.16752 -1.01364 0
M  V30 135 H 19.3529 -3.76481 -0.327217 0
M  V30 136 H 19.6659 -7.72787 -0.0440241 0
M  V30 137 H 18.0109 -6.94984 -0.0465419 0
M  V30 138 H 21.2019 -4.66996 -0.321317 0
M  V30 139 H 21.3749 -6.47714 -0.192407 0
M  V30 140 N 14.781 0.264519 -1.55364 0
M  V30 141 C 15.711 1.33121 -1.91836 0
M  V30 142 C 16.692 1.51101 -0.781192 0
M  V30 143 O 17.877 1.64003 -1.04003 0
M  V30 144 C 15.007 2.68921 -2.19769 0
M  V30 145 C 13.961 2.65661 -3.35571 0
M  V30 146 C 13.287 4.05093 -3.49004 0
M  V30 147 C 14.587 2.24187 -4.71739 0
M  V30 148 H 16.281 1.02844 -2.81182 0
M  V30 149 H 13.827 0.493286 -1.35287 0
M  V30 150 H 15.78 3.43663 -2.43872 0
M  V30 151 H 14.504 3.00799 -1.27231 0
M  V30 152 H 13.163 1.93377 -3.1145 0
M  V30 153 H 12.811 4.34206 -2.53917 0
M  V30 154 H 12.511 4.03804 -4.26868 0
M  V30 155 H 14.035 4.81561 -3.75408 0
M  V30 156 H 15.449 2.88654 -4.9533 0
M  V30 157 H 13.846 2.34044 -5.52579 0
M  V30 158 H 14.916 1.19327 -4.69988 0
M  V30 159 N 16.2591 1.48442 0.529413 0
M  V30 160 C 17.5361 1.46978 1.29062 0
M  V30 161 C 17.9161 0.181769 2.10316 0
M  V30 162 O 17.2641 -0.836481 2.12639 0
M  V30 163 C 17.4741 2.7321 2.17157 0
M  V30 164 C 18.8221 3.21562 2.77278 0
M  V30 165 O 19.8461 2.74131 2.27444 0
M  V30 166 O 18.7051 4.04094 3.67927 0
M  V30 167 H 15.7991 0.587003 0.582543 0
M  V30 168 H 18.3451 1.60676 0.546021 0
M  V30 169 H 17.1171 3.58465 1.56903 0
M  V30 170 H 16.7401 2.62235 2.98862 0
M  V30 171 N 17.7372 -0.778329 1.37039 0
M  V30 172 C 18.9852 -1.53361 1.31623 0
M  V30 173 C 19.3062 -1.94739 -0.100831 0
M  V30 174 O 18.5762 -1.65797 -1.04347 0
M  V30 175 H 17.1562 -0.568794 0.484234 0
M  V30 176 H 19.8182 -0.926742 1.71457 0
M  V30 177 H 18.9142 -2.43606 1.95096 0
M  V30 178 N 19.2153 -1.21501 -1.00376 0
M  V30 179 C 20.4623 -1.03299 -1.74171 0
M  V30 180 C 20.7903 0.433326 -1.89612 0
M  V30 181 O 20.0453 1.33779 -1.42834 0
M  V30 182 C 20.3443 -1.67673 -3.15627 0
M  V30 183 C 20.0103 -3.17533 -3.2013 0
M  V30 184 C 18.6723 -3.58427 -3.21067 0
M  V30 185 C 21.0243 -4.13504 -3.17275 0
M  V30 186 C 18.3523 -4.93794 -3.16835 0
M  V30 187 C 20.7043 -5.48834 -3.14585 0
M  V30 188 C 19.3683 -5.89123 -3.13831 0
M  V30 189 H 18.6383 -0.377999 -0.637336 0
M  V30 190 H 21.2853 -1.51111 -1.17634 0
M  V30 191 H 19.5903 -1.12158 -3.75404 0
M  V30 192 H 21.2873 -1.51091 -3.71446 0
M  V30 193 H 17.8773 -2.84965 -3.20145 0
M  V30 194 H 22.0613 -3.82936 -3.15711 0
M  V30 195 H 17.3173 -5.24255 -3.1459 0
M  V30 196 H 21.4913 -6.22934 -3.1133 0
M  V30 197 H 19.1183 -6.93984 -3.10307 0
M  V30 198 N 20.6934 1.19889 -1.02296 0
M  V30 199 C 21.9424 1.88743 -0.711257 0
M  V30 200 C 22.2554 1.80112 0.762817 0
M  V30 201 O 23.4614 2.44161 1.18733 0
M  V30 202 C 21.9174 3.38525 -1.22185 0
M  V30 203 C 21.5254 3.55727 -2.72328 0
M  V30 204 C 23.2694 4.12893 -0.985864 0
M  V30 205 C 21.1764 4.99369 -3.16835 0
M  V30 206 H 20.1064 0.706885 -0.262353 0
M  V30 207 H 22.7574 1.35586 -1.23648 0
M  V30 208 H 21.1394 3.91044 -0.624571 0
M  V30 209 H 22.3134 3.13564 -3.3766 0
M  V30 210 H 20.6284 2.94739 -2.9414 0
M  V30 211 H 23.2254 5.18813 -1.29374 0
M  V30 212 H 23.5684 4.16228 0.0775055 0
M  V30 213 H 24.1014 3.66494 -1.54684 0
M  V30 214 H 20.8404 5.01193 -4.22476 0
M  V30 215 H 20.3604 5.42317 -2.56228 0
M  V30 216 H 22.0394 5.67988 -3.09837 0
M  V30 217 N 22.1715 0.800033 1.35784 0
M  V30 218 C 23.1015 0.220184 2.3246 0
M  V30 219 C 24.0825 -0.65073 1.57161 0
M  V30 220 O 25.2675 -0.582359 1.85263 0
M  V30 221 C 22.3975 -0.637353 3.41402 0
M  V30 222 C 21.3515 0.134531 4.27789 0
M  V30 223 C 20.6775 -0.844285 5.27992 0
M  V30 224 C 21.9775 1.32979 5.05088 0
M  V30 225 H 23.6715 1.02787 2.81203 0
M  V30 226 H 21.2175 0.495717 1.35199 0
M  V30 227 H 23.1705 -1.05302 4.08031 0
M  V30 228 H 21.8945 -1.47785 2.91251 0
M  V30 229 H 20.5535 0.531296 3.6273 0
M  V30 230 H 20.2015 -1.68011 4.74111 0
M  V30 231 H 19.9015 -0.332184 5.8666 0
M  V30 232 H 21.4255 -1.2583 5.97494 0
M  V30 233 H 22.8395 0.98934 5.64699 0
M  V30 234 H 21.2365 1.77593 5.7322 0
M  V30 235 H 22.3065 2.11978 4.36111 0
M  V30 236 N 23.6496 -1.47581 0.552962 0
M  V30 237 C 24.8776 -2.06875 0.0320556 0
M  V30 238 C 25.2926 -1.40625 -1.25976 0
M  V30 239 O 24.6496 -0.501349 -1.75479 0
M  V30 240 C 24.7006 -3.61092 -0.17167 0
M  V30 241 O 24.4216 -4.24858 1.06899 0
M  V30 242 C 25.9226 -4.37242 -0.730344 0
M  V30 243 H 23.1426 -0.669561 0.043915 0
M  V30 244 H 25.6866 -1.89646 0.765163 0
M  V30 245 H 23.8416 -3.7785 -0.854894 0
M  V30 246 H 24.2556 -5.17334 0.864059 0
M  V30 247 H 25.7296 -5.45842 -0.822203 0
M  V30 248 H 26.2066 -4.03235 -1.74064 0
M  V30 249 H 26.8126 -4.25219 -0.0829543 0
M  V30 250 N 25.1277 -0.289203 -1.54924 0
M  V30 251 C 26.0377 0.601863 -2.26748 0
M  V30 252 C 27.0537 1.15834 -1.2984 0
M  V30 253 O 28.2297 1.18564 -1.62802 0
M  V30 254 C 25.2947 1.76299 -2.98529 0
M  V30 255 C 24.3557 1.24178 -4.10948 0
M  V30 256 C 23.5887 2.34757 -4.79296 0
M  V30 257 O 23.8117 3.54411 -4.46933 0
M  V30 258 O 22.7457 2.02115 -5.66951 0
M  V30 259 H 26.5717 0.0195879 -3.03694 0
M  V30 260 H 24.1567 -0.0560868 -1.49295 0
M  V30 261 H 26.0387 2.43973 -3.43592 0
M  V30 262 H 24.7137 2.33209 -2.24488 0
M  V30 263 H 23.6207 0.531104 -3.70311 0
M  V30 264 H 24.9537 0.718252 -4.86931 0
M  V30 265 N 26.6058 1.57591 -0.0167156 0
M  V30 266 C 28.0218 1.55946 0.339557 0
M  V30 267 C 28.2218 1.02109 1.73713 0
M  V30 268 O 27.2778 0.662303 2.43659 0
M  V30 269 C 28.5908 3.00037 0.199499 0
M  V30 270 C 30.1388 3.11805 0.273193 0
M  V30 271 C 30.6138 4.57713 0.162068 0
M  V30 272 N 32.1048 4.6268 0.219444 0
M  V30 273 C 32.8398 5.73185 0.157054 0
M  V30 274 N 32.3358 6.92786 0.0442936 0
M  V30 275 N 34.1288 5.61707 0.21014 0
M  V30 276 H 26.2798 1.90921 -0.930758 0
M  V30 277 H 28.5428 0.877674 -0.358319 0
M  V30 278 H 28.2488 3.4333 -0.76273 0
M  V30 279 H 28.1228 3.64387 0.974786 0
M  V30 280 H 30.5098 2.68433 1.22587 0
M  V30 281 H 30.5908 2.50201 -0.532256 0
M  V30 282 H 30.2348 5.01763 -0.78714 0
M  V30 283 H 30.1648 5.17283 0.986222 0
M  V30 284 H 32.6558 3.76649 0.307246 0
M  V30 285 H 32.9688 7.728 0.00304069 0
M  V30 286 H 31.3138 6.94999 0.00968457 0
M  V30 287 H 34.5048 4.6716 0.296546 0
M  V30 288 H 34.6778 6.47807 0.158054 0
M  V30 289 N 28.0839 -0.256276 1.55502 0
M  V30 290 C 29.0139 -1.32102 1.92539 0
M  V30 291 C 29.9949 -1.50684 0.789194 0
M  V30 292 O 31.1799 -1.63449 1.04872 0
M  V30 293 C 28.3099 -2.67752 2.21192 0
M  V30 294 C 27.2639 -2.63878 3.36975 0
M  V30 295 C 26.5899 -4.03236 3.51147 0
M  V30 296 C 27.8899 -2.21682 4.72921 0
M  V30 297 H 29.5839 -1.01351 2.81724 0
M  V30 298 H 27.1299 -0.486105 1.35547 0
M  V30 299 H 29.0829 -3.42365 2.45691 0
M  V30 300 H 27.8069 -3.0012 1.28824 0
M  V30 301 H 26.4659 -1.91722 3.12471 0
M  V30 302 H 26.1139 -4.32854 2.56216 0
M  V30 303 H 25.8139 -4.01535 4.29003 0
M  V30 304 H 27.3379 -4.79563 3.77957 0
M  V30 305 H 28.7519 -2.86023 4.96854 0
M  V30 306 H 27.1489 -2.3111 5.53812 0
M  V30 307 H 28.2189 -1.16833 4.70615 0
M  V30 308 N 29.562 -1.4872 -0.521534 0
M  V30 309 C 30.81 -1.56857 -1.27437 0
M  V30 310 C 31.131 -0.247982 -1.93417 0
M  V30 311 O 30.401 0.731151 -1.81744 0
M  V30 312 H 28.981 -0.577885 -0.473347 0
M  V30 313 H 31.643 -1.85233 -0.606205 0
M  V30 314 H 30.739 -2.35402 -2.0492 0
M  V30 315 N 31.0401 0.771051 -1.3745 0
M  V30 316 C 32.2651 1.56529 -1.36065 0
M  V30 317 C 32.6901 1.88029 0.0515859 0
M  V30 318 O 32.0481 1.49282 1.02882 0
M  V30 319 C 32.0961 2.85187 -2.20683 0
M  V30 320 O 31.2001 3.79593 -1.61193 0
M  V30 321 H 30.5411 0.47411 -0.464883 0
M  V30 322 H 33.0711 0.954269 -1.80983 0
M  V30 323 H 33.0811 3.34283 -2.33921 0
M  V30 324 H 31.7561 2.61588 -3.23334 0
M  V30 325 H 30.3331 3.38239 -1.56999 0
M  V30 326 N 32.5182 1.22032 0.997298 0
M  V30 327 C 33.7662 1.04016 1.73278 0
M  V30 328 C 34.0872 -0.426255 1.90284 0
M  V30 329 O 33.3572 -1.30694 1.45931 0
M  V30 330 H 31.9372 0.381897 0.642 0
M  V30 331 H 34.5992 1.5347 1.20137 0
M  V30 332 H 33.6952 1.51441 2.72896 0
M  V30 333 N 33.9963 -1.19345 1.0293 0
M  V30 334 C 35.2243 -1.92997 0.745644 0
M  V30 335 C 35.6393 -1.75519 -0.695589 0
M  V30 336 O 34.9963 -1.07737 -1.47306 0
M  V30 337 C 35.0473 -3.44741 1.08792 0
M  V30 338 O 34.7683 -3.61658 2.47256 0
M  V30 339 C 36.2693 -4.35515 0.827129 0
M  V30 340 H 33.4893 -0.613042 0.272801 0
M  V30 341 H 36.0333 -1.51473 1.3739 0
M  V30 342 H 34.1883 -3.84097 0.504832 0
M  V30 343 H 34.6023 -4.55514 2.60015 0
M  V30 344 H 36.0763 -5.40589 1.11658 0
M  V30 345 H 36.5533 -4.38552 -0.238436 0
M  V30 346 H 37.1593 -4.01841 1.39297 0
M  V30 347 N 35.4744 -0.807222 -1.35358 0
M  V30 348 C 36.7044 -0.399796 -2.02695 0
M  V30 349 C 37.1124 0.994176 -1.60974 0
M  V30 350 O 36.4554 1.65209 -0.803226 0
M  V30 351 C 36.5174 -0.404445 -3.57218 0
M  V30 352 C 36.1814 -1.74904 -4.22206 0
M  V30 353 C 37.1784 -2.70743 -4.4384 0
M  V30 354 C 34.8634 -2.03322 -4.5931 0
M  V30 355 C 36.8574 -3.93183 -5.01683 0
M  V30 356 C 34.5444 -3.26026 -5.16866 0
M  V30 357 C 35.5424 -4.20774 -5.37994 0
M  V30 358 O 35.2304 -5.41312 -5.94337 0
M  V30 359 H 34.9624 -0.160517 -0.656666 0
M  V30 360 H 37.5164 -1.09235 -1.73945 0
M  V30 361 H 35.7464 0.344707 -3.85161 0
M  V30 362 H 37.4354 -0.0192429 -4.05895 0
M  V30 363 H 38.2014 -2.5008 -4.15554 0
M  V30 364 H 34.0804 -1.30384 -4.42178 0
M  V30 365 H 37.6244 -4.6715 -5.1809 0
M  V30 366 H 33.5214 -3.46559 -5.44579 0
M  V30 367 H 34.2894 -5.42618 -6.12787 0
M  V30 368 N 36.9525 1.47285 -0.560781 0
M  V30 369 C 37.9155 2.28535 0.174488 0
M  V30 370 C 38.9155 1.37153 0.839388 0
M  V30 371 O 40.1055 1.59748 0.694702 0
M  V30 372 C 37.2375 3.16934 1.25561 0
M  V30 373 H 38.4305 2.95012 -0.539262 0
M  V30 374 H 35.9835 1.53034 -0.317865 0
M  V30 375 H 36.7185 2.55157 2.00164 0
M  V30 376 H 36.5035 3.8419 0.783604 0
M  V30 377 H 37.9935 3.78143 1.77193 0
M  V30 378 N 38.4306 0.297415 1.54768 0
M  V30 379 C 39.6586 -0.315623 2.04478 0
M  V30 380 C 40.0736 -1.47792 1.17486 0
M  V30 381 O 39.4306 -1.81404 0.19971 0
M  V30 382 C 39.4816 -0.7753 3.53088 0
M  V30 383 O 39.2026 0.340732 4.36773 0
M  V30 384 C 40.7036 -1.45386 4.18781 0
M  V30 385 H 37.9236 -0.0690887 0.667434 0
M  V30 386 H 40.4676 0.436003 1.99798 0
M  V30 387 H 38.6226 -1.47696 3.58141 0
M  V30 388 H 39.0366 -0.0165035 5.24497 0
M  V30 389 H 40.5106 -1.72669 5.24299 0
M  V30 390 H 40.9876 -2.39275 3.68299 0
M  V30 391 H 41.5936 -0.795475 4.17795 0
M  V30 392 N 39.9087 -1.5758 0.0250728 0
M  V30 393 C 41.1547 -1.91917 -0.655413 0
M  V30 394 C 41.4877 -0.901433 -1.72011 0
M  V30 395 O 40.7627 0.0764069 -1.9435 0
M  V30 396 C 41.0457 -3.36751 -1.27558 0
M  V30 397 C 40.8987 -4.49258 -0.220719 0
M  V30 398 C 42.2177 -3.81469 -2.19475 0
M  V30 399 H 39.3367 -0.697925 -0.23679 0
M  V30 400 H 41.9787 -1.89825 0.0815036 0
M  V30 401 H 40.1287 -3.38664 -1.90365 0
M  V30 402 H 41.8007 -4.59478 0.409601 0
M  V30 403 H 40.0437 -4.31415 0.454264 0
M  V30 404 H 40.7147 -5.47618 -0.694175 0
M  V30 405 H 43.1907 -3.81266 -1.66659 0
M  V30 406 H 42.0667 -4.83512 -2.59822 0
M  V30 407 H 42.3277 -3.16744 -3.08424 0
M  V30 408 N 41.3868 0.248026 -1.55636 0
M  V30 409 C 42.6168 0.992367 -1.81206 0
M  V30 410 C 43.0248 1.7949 -0.598324 0
M  V30 411 O 42.3678 1.78292 0.442434 0
M  V30 412 C 42.4298 1.97926 -3.00109 0
M  V30 413 C 42.0938 1.36377 -4.36177 0
M  V30 414 C 43.0908 0.76682 -5.14214 0
M  V30 415 C 40.7758 1.38347 -4.82872 0
M  V30 416 C 42.7698 0.197778 -6.37093 0
M  V30 417 C 40.4568 0.810574 -6.057 0
M  V30 418 C 41.4548 0.218754 -6.8265 0
M  V30 419 O 41.1428 -0.345298 -8.03158 0
M  V30 420 H 40.8748 0.297704 -0.606917 0
M  V30 421 H 43.4288 0.276517 -2.0353 0
M  V30 422 H 41.6588 2.73339 -2.73538 0
M  V30 423 H 43.3478 2.58694 -3.12781 0
M  V30 424 H 44.1138 0.744114 -4.79258 0
M  V30 425 H 39.9928 1.8335 -4.2297 0
M  V30 426 H 43.5368 -0.264788 -6.97097 0
M  V30 427 H 39.4338 0.830604 -6.40134 0
M  V30 428 H 40.2018 -0.237055 -8.18157 0
M  V30 429 N 42.8649 1.48995 0.513639 0
M  V30 430 C 43.8119 1.6473 1.61656 0
M  V30 431 C 44.7819 0.488984 1.58739 0
M  V30 432 O 45.9669 0.714478 1.76918 0
M  V30 433 C 43.1069 1.7082 2.99858 0
M  V30 434 C 42.2199 2.9787 3.12885 0
M  V30 435 C 41.3549 2.95017 4.41744 0
M  V30 436 C 40.3939 4.16702 4.48359 0
M  V30 437 N 39.5309 4.11832 5.68629 0
M  V30 438 H 44.3709 2.58909 1.47547 0
M  V30 439 H 41.9079 1.28382 0.71808 0
M  V30 440 H 43.8659 1.72331 3.79944 0
M  V30 441 H 42.4959 0.801181 3.12699 0
M  V30 442 H 41.5479 3.06029 2.25944 0
M  V30 443 H 42.8599 3.8786 3.13633 0
M  V30 444 H 42.0139 2.95021 5.30139 0
M  V30 445 H 40.7529 2.02784 4.43542 0
M  V30 446 H 39.7579 4.16955 3.58369 0
M  V30 447 H 40.9829 5.10113 4.48287 0
M  V30 448 H 38.9289 3.22428 5.71293 0
M  V30 449 H 38.8459 4.95543 5.7094 0
M  V30 450 H 40.1139 4.1592 6.59266 0
M  V30 451 N 44.343 -0.763751 1.37857 0
M  V30 452 C 45.306 -1.85889 1.34081 0
M  V30 453 C 46.306 -1.58949 0.243277 0
M  V30 454 O 47.496 -1.66882 0.499589 0
M  V30 455 C 44.628 -3.23176 1.08489 0
M  V30 456 H 45.821 -1.90648 2.31502 0
M  V30 457 H 43.374 -0.964367 1.23003 0
M  V30 458 H 44.109 -3.24091 0.116318 0
M  V30 459 H 43.894 -3.44124 1.8794 0
M  V30 460 H 45.384 -4.03254 1.08517 0
M  V30 461 N 45.8211 -1.22559 -0.990812 0
M  V30 462 C 47.0511 -1.07623 -1.76355 0
M  V30 463 C 47.4591 0.37601 -1.85426 0
M  V30 464 O 46.8021 1.27228 -1.32509 0
M  V30 465 C 46.8641 -1.61507 -3.21179 0
M  V30 466 C 46.5281 -3.10146 -3.35646 0
M  V30 467 C 47.5251 -4.07553 -3.22796 0
M  V30 468 C 45.2101 -3.49644 -3.60631 0
M  V30 469 C 47.2041 -5.42442 -3.34716 0
M  V30 470 C 44.8911 -4.84682 -3.72192 0
M  V30 471 C 45.8891 -5.8089 -3.59243 0
M  V30 472 O 45.5771 -7.13476 -3.70415 0
M  V30 473 H 45.3091 -0.377745 -0.560611 0
M  V30 474 H 47.8631 -1.62658 -1.25425 0
M  V30 475 H 46.0931 -1.00881 -3.73309 0
M  V30 476 H 47.7821 -1.42202 -3.80175 0
M  V30 477 H 48.5481 -3.78381 -3.03403 0
M  V30 478 H 44.4271 -2.75282 -3.69785 0
M  V30 479 H 47.9711 -6.17518 -3.24526 0
M  V30 480 H 43.8681 -5.13534 -3.91092 0
M  V30 481 H 44.6361 -7.21083 -3.87275 0
M  V30 482 N 47.2992 1.18797 -1.03562 0
M  V30 483 C 48.2622 2.20464 -0.626769 0
M  V30 484 C 49.2622 1.57721 0.313173 0
M  V30 485 O 50.4522 1.73917 0.0992615 0
M  V30 486 C 47.5842 3.40802 0.0818498 0
M  V30 487 H 48.7772 2.58149 -1.5264 0
M  V30 488 H 46.3302 1.32593 -0.827578 0
M  V30 489 H 47.0652 3.08642 0.995518 0
M  V30 490 H 46.8502 3.8758 -0.593652 0
M  V30 491 H 48.3402 4.16092 0.354584 0
M  V30 492 N 48.7773 0.814389 1.34928 0
M  V30 493 C 49.7243 0.22822 2.29669 0
M  V30 494 C 50.6943 -0.642164 1.53184 0
M  V30 495 O 51.8793 -0.585605 1.81591 0
M  V30 496 C 49.0193 -0.61089 3.3965 0
M  V30 497 C 48.1323 0.280792 4.31086 0
M  V30 498 C 47.2673 -0.567067 5.28165 0
M  V30 499 C 46.3063 0.324531 6.11239 0
M  V30 500 N 45.4433 -0.483756 7.00431 0
M  V30 501 H 50.2833 1.04153 2.79206 0
M  V30 502 H 47.8203 0.525133 1.37407 0
M  V30 503 H 49.7783 -1.11263 4.0209 0
M  V30 504 H 48.4083 -1.38939 2.91369 0
M  V30 505 H 47.4603 0.900688 3.69583 0
M  V30 506 H 48.7723 0.966723 4.89342 0
M  V30 507 H 47.9263 -1.13363 5.96015 0
M  V30 508 H 46.6653 -1.28654 4.70425 0
M  V30 509 H 45.6703 0.903298 5.42329 0
M  V30 510 H 46.8953 1.04198 6.71059 0
M  V30 511 H 44.8413 -1.18706 6.45171 0
M  V30 512 H 44.7583 0.143965 7.55863 0
M  V30 513 H 46.0263 -1.03334 7.7262 0
M  V30 514 N 50.2554 -1.46986 0.568584 0
M  V30 515 C 51.2024 -2.30153 -0.172707 0
M  V30 516 C 52.1724 -1.39759 -0.897586 0
M  V30 517 O 53.3574 -1.68716 -0.891044 0
M  V30 518 C 50.4974 -3.23952 -1.1895 0
M  V30 519 C 49.6104 -4.29441 -0.469517 0
M  V30 520 C 48.7454 -5.1038 -1.47259 0
M  V30 521 C 47.7844 -6.07632 -0.738225 0
M  V30 522 N 46.9214 -6.8149 -1.68868 0
M  V30 523 H 51.7614 -2.93019 0.542596 0
M  V30 524 H 49.2984 -1.44422 0.279401 0
M  V30 525 H 51.2564 -3.76767 -1.79173 0
M  V30 526 H 49.8864 -2.62926 -1.87269 0
M  V30 527 H 48.9384 -3.79594 0.247467 0
M  V30 528 H 50.2504 -4.98689 0.105241 0
M  V30 529 H 49.4044 -5.67402 -2.14803 0
M  V30 530 H 48.1434 -4.4106 -2.08128 0
M  V30 531 H 47.1484 -5.49778 -0.0489293 0
M  V30 532 H 48.3734 -6.78966 -0.135129 0
M  V30 533 H 46.3194 -6.14891 -2.28573 0
M  V30 534 H 46.2364 -7.46948 -1.16636 0
M  V30 535 H 47.5044 -7.43078 -2.3549 0
M  V30 536 N 51.7335 -0.305618 -1.54608 0
M  V30 537 C 53.0105 0.355652 -1.92339 0
M  V30 538 C 53.3905 1.71324 -1.23335 0
M  V30 539 O 52.7385 2.25473 -0.370702 0
M  V30 540 C 52.9485 0.46572 -3.45879 0
M  V30 541 C 54.2965 0.734426 -4.182 0
M  V30 542 O 55.3205 0.54935 -3.51938 0
M  V30 543 O 54.1795 1.09024 -5.35515 0
M  V30 544 H 51.2735 0.199666 -0.802535 0
M  V30 545 H 53.8195 -0.354017 -1.65966 0
M  V30 546 H 52.5915 -0.488461 -3.88239 0
M  V30 547 H 52.2145 1.22367 -3.78301 0
M  V30 548 N 53.2116 1.57565 -0.0334293 0
M  V30 549 C 54.4396 1.9628 0.654347 0
M  V30 550 C 54.8546 0.910138 1.65414 0
M  V30 551 O 54.2116 -0.107595 1.82183 0
M  V30 552 C 54.2626 3.35067 1.35693 0
M  V30 553 O 53.9836 4.36296 0.397191 0
M  V30 554 C 55.4846 3.88439 2.13613 0
M  V30 555 H 52.7046 0.646369 0.180132 0
M  V30 556 H 55.2486 2.04282 -0.0944721 0
M  V30 557 H 53.4036 3.2827 2.05712 0
M  V30 558 H 53.8176 5.1678 0.896597 0
M  V30 559 H 55.2916 4.8788 2.58219 0
M  V30 560 H 55.7686 3.22914 2.97696 0
M  V30 561 H 56.3746 3.98516 1.48543 0
M  V30 562 N 54.6897 -0.239769 1.55765 0
M  V30 563 C 56.1057 -0.588624 1.48349 0
M  V30 564 C 56.3057 -1.88005 0.72502 0
M  V30 565 O 55.3617 -2.51186 0.257269 0
M  V30 566 C 56.6747 -0.68474 2.928 0
M  V30 567 C 58.2227 -0.77659 3.03213 0
M  V30 568 C 58.6977 -0.904207 4.48986 0
M  V30 569 N 60.1887 -0.968896 4.52953 0
M  V30 570 C 60.9237 -1.08703 5.63002 0
M  V30 571 N 60.4197 -1.17026 6.82845 0
M  V30 572 N 62.2127 -1.12074 5.50814 0
M  V30 573 H 54.3637 0.607911 2.03515 0
M  V30 574 H 56.6267 0.21083 0.924259 0
M  V30 575 H 56.3327 0.194284 3.51163 0
M  V30 576 H 56.2067 -1.55435 3.43686 0
M  V30 577 H 58.5937 -1.64606 2.44926 0
M  V30 578 H 58.6747 0.118315 2.55526 0
M  V30 579 H 58.3187 -0.0392633 5.07885 0
M  V30 580 H 58.2487 -1.81426 4.9436 0
M  V30 581 H 60.7397 -0.915633 3.6664 0
M  V30 582 H 61.0527 -1.25966 7.62465 0
M  V30 583 H 59.3977 -1.13971 6.85591 0
M  V30 584 H 62.5887 -1.05226 4.5612 0
M  V30 585 H 62.7617 -1.20936 6.36615 0
M  V30 586 N 56.1678 -1.49265 -0.50573 0
M  V30 587 C 57.0778 -1.68312 -1.63427 0
M  V30 588 C 58.0938 -0.565682 -1.64548 0
M  V30 589 O 59.2698 -0.839801 -1.83055 0
M  V30 590 C 56.3348 -1.74107 -2.99813 0
M  V30 591 C 55.3958 -2.97653 -3.09356 0
M  V30 592 C 54.6288 -3.03163 -4.39236 0
M  V30 593 O 54.8518 -2.16396 -5.27758 0
M  V30 594 O 53.7858 -3.9558 -4.53652 0
M  V30 595 H 57.6118 -2.63907 -1.50289 0
M  V30 596 H 55.1968 -1.32951 -0.681502 0
M  V30 597 H 57.0788 -1.803 -3.80881 0
M  V30 598 H 55.7538 -0.816901 -3.13223 0
M  V30 599 H 54.6608 -2.96981 -2.27493 0
M  V30 600 H 55.9938 -3.89535 -3.00871 0
M  V30 601 N 57.6459 0.756429 -1.3826 0
M  V30 602 C 58.8919 1.51772 -1.34511 0
M  V30 603 C 59.2249 1.94089 0.0656691 0
M  V30 604 O 58.4999 1.65221 1.02626 0
M  V30 605 C 58.7829 2.77226 -2.29821 0
M  V30 606 C 58.6359 2.41065 -3.79747 0
M  V30 607 C 59.9549 3.79236 -2.23312 0
M  V30 608 H 57.0739 0.550578 -0.489931 0
M  V30 609 H 59.7159 0.866607 -1.69086 0
M  V30 610 H 57.8659 3.32784 -2.00467 0
M  V30 611 H 59.5379 1.91303 -4.19763 0
M  V30 612 H 57.7809 1.7356 -3.97567 0
M  V30 613 H 58.4519 3.3081 -4.41892 0
M  V30 614 H 60.9279 3.3321 -2.49219 0
M  V30 615 H 59.8039 4.64714 -2.92116 0
M  V30 616 H 60.0649 4.24615 -1.23102 0
M  V30 617 N 59.124 1.23083 0.984299 0
M  V30 618 C 60.37 1.06214 1.72761 0
M  V30 619 C 60.703 -0.400584 1.90024 0
M  V30 620 O 59.978 -1.29672 1.44967 0
M  V30 621 C 60.261 1.78375 3.12817 0
M  V30 622 C 60.114 3.32296 3.03149 0
M  V30 623 C 61.433 1.54309 4.12161 0
M  V30 624 H 58.552 0.387251 0.627061 0
M  V30 625 H 61.194 1.51536 1.14616 0
M  V30 626 H 59.344 1.39848 3.62457 0
M  V30 627 H 61.016 3.8032 2.61064 0
M  V30 628 H 59.259 3.6153 2.39747 0
M  V30 629 H 59.93 3.77972 4.02295 0
M  V30 630 H 62.406 1.87791 3.71314 0
M  V30 631 H 61.282 2.07281 5.08258 0
M  V30 632 H 61.543 0.477572 4.39513 0
M  V30 633 N 60.6021 -1.18246 1.0419 0
M  V30 634 C 61.5651 -2.20128 0.638452 0
M  V30 635 C 62.5651 -1.57885 -0.304805 0
M  V30 636 O 63.7551 -1.73967 -0.0900369 0
M  V30 637 C 60.8871 -3.4084 -0.0637751 0
M  V30 638 H 62.0801 -2.57336 1.54007 0
M  V30 639 H 59.6331 -1.32152 0.834598 0
M  V30 640 H 60.3681 -3.09166 -0.979136 0
M  V30 641 H 60.1531 -3.8726 0.614198 0
M  V30 642 H 61.6431 -4.16274 -0.332512 0
M  V30 643 N 62.0802 -0.821533 -1.34494 0
M  V30 644 C 63.3292 -0.405355 -1.97585 0
M  V30 645 C 63.6422 1.03677 -1.65863 0
M  V30 646 O 64.8482 1.55679 -2.22433 0
M  V30 647 C 63.3042 -0.673861 -3.53535 0
M  V30 648 C 62.9122 -2.12951 -3.94152 0
M  V30 649 C 64.6562 -0.32378 -4.23263 0
M  V30 650 C 62.5632 -2.34298 -5.43009 0
M  V30 651 H 61.4932 -0.147836 -0.739365 0
M  V30 652 H 64.1442 -1.00769 -1.53355 0
M  V30 653 H 62.5262 -0.00137554 -3.96 0
M  V30 654 H 63.7002 -2.84104 -3.62797 0
M  V30 655 H 62.0152 -2.44089 -3.37356 0
M  V30 656 H 64.6122 -0.461126 -5.32708 0
M  V30 657 H 64.9552 0.731586 -4.09821 0
M  V30 658 H 65.4882 -0.950786 -3.8627 0
M  V30 659 H 62.2272 -3.38335 -5.61435 0
M  V30 660 H 61.7472 -1.67687 -5.75883 0
M  V30 661 H 63.4262 -2.16588 -6.09671 0
M  V30 662 N 63.5583 1.46682 -0.576371 0
M  V30 663 C 64.5053 2.30241 0.160499 0
M  V30 664 C 65.4753 1.40233 0.890162 0
M  V30 665 O 66.6603 1.69186 0.882084 0
M  V30 666 C 63.8003 3.24578 1.1723 0
M  V30 667 C 62.9133 4.29684 0.446736 0
M  V30 668 C 62.0483 5.11154 1.44551 0
M  V30 669 C 61.0873 6.08015 0.70599 0
M  V30 670 N 60.2243 6.82376 1.65251 0
M  V30 671 H 65.0643 2.92727 -0.558127 0
M  V30 672 H 62.6013 1.44272 -0.287056 0
M  V30 673 H 64.5593 3.77711 1.77172 0
M  V30 674 H 63.1893 2.63916 1.85872 0
M  V30 675 H 62.2413 3.79458 -0.267594 0
M  V30 676 H 63.5533 4.98626 -0.131686 0
M  V30 677 H 62.7073 5.68533 2.11791 0
M  V30 678 H 61.4463 4.42158 2.05786 0
M  V30 679 H 60.4513 5.49796 0.0197725 0
M  V30 680 H 61.6763 6.79028 0.09912 0
M  V30 681 H 59.6223 6.16094 2.25308 0
M  V30 682 H 59.5393 7.47556 1.12673 0
M  V30 683 H 60.8073 7.44316 2.31546 0
M  V30 684 N 65.0364 0.313813 1.54444 0
M  V30 685 C 66.2764 -0.292389 2.02298 0
M  V30 686 C 66.6404 -1.50105 1.19719 0
M  V30 687 O 67.8414 -2.17947 1.5733 0
M  V30 688 C 66.1124 -0.627682 3.51845 0
M  V30 689 S 67.6714 -1.21493 4.21646 0
M  V30 690 H 64.4894 -0.0890247 0.705405 0
M  V30 691 H 67.0914 0.444668 1.90376 0
M  V30 692 H 65.7954 0.260265 4.09574 0
M  V30 693 H 65.3264 -1.39519 3.67829 0
M  V30 694 H 67.3414 -2.5022 4.28491 0
M  V30 695 N 66.5145 -1.57545 0.0417849 0
M  V30 696 C 67.7605 -1.92601 -0.635021 0
M  V30 697 C 68.0935 -0.919627 -1.71045 0
M  V30 698 O 67.3685 0.0557892 -1.9442 0
M  V30 699 C 67.6515 -3.38085 -1.23979 0
M  V30 700 C 67.5045 -4.49467 -0.173057 0
M  V30 701 C 68.8235 -3.83776 -2.15416 0
M  V30 702 H 65.9425 -0.700397 -0.229374 0
M  V30 703 H 68.5845 -1.89728 0.101633 0
M  V30 704 H 66.7345 -3.40664 -1.86762 0
M  V30 705 H 68.4065 -4.59018 0.458312 0
M  V30 706 H 66.6495 -4.30909 0.499996 0
M  V30 707 H 67.3205 -5.48323 -0.636054 0
M  V30 708 H 69.7965 -3.83013 -1.62605 0
M  V30 709 H 68.6725 -4.8624 -2.54679 0
M  V30 710 H 68.9335 -3.19998 -3.05047 0
M  V30 711 N 67.9926 0.231505 -1.5589 0
M  V30 712 C 68.9556 1.27028 -1.90779 0
M  V30 713 C 69.9556 1.40308 -0.785507 0
M  V30 714 O 71.1456 1.38744 -1.05336 0
M  V30 715 C 68.2776 2.64566 -2.14983 0
M  V30 716 H 69.4706 0.973017 -2.83677 0
M  V30 717 H 67.0236 0.471486 -1.49019 0
M  V30 718 H 67.7586 2.99406 -1.24604 0
M  V30 719 H 67.5436 2.56305 -2.96732 0
M  V30 720 H 69.0336 3.39543 -2.43105 0
M  V30 721 N 69.4707 1.49531 0.497807 0
M  V30 722 C 70.4177 1.66436 1.59899 0
M  V30 723 C 71.3877 0.505793 1.58212 0
M  V30 724 O 72.5727 0.733202 1.7615 0
M  V30 725 C 69.7127 1.7399 2.98029 0
M  V30 726 C 68.8257 3.01172 3.09708 0
M  V30 727 C 67.9607 2.99686 4.38591 0
M  V30 728 C 66.9997 4.21434 4.43914 0
M  V30 729 N 66.1367 4.1784 5.64229 0
M  V30 730 H 70.9767 2.60459 1.44793 0
M  V30 731 H 68.5137 1.29137 0.704423 0
M  V30 732 H 70.4717 1.76352 3.78095 0
M  V30 733 H 69.1017 0.834301 3.11832 0
M  V30 734 H 68.1537 3.08408 2.22685 0
M  V30 735 H 69.4657 3.91165 3.09502 0
M  V30 736 H 68.6197 3.00628 5.2698 0
M  V30 737 H 67.3587 2.07477 4.41367 0
M  V30 738 H 66.3637 4.20733 3.53926 0
M  V30 739 H 67.5887 5.14839 4.42851 0
M  V30 740 H 65.5347 3.28469 5.67841 0
M  V30 741 H 65.4517 5.01571 5.65652 0
M  V30 742 H 66.7197 4.22889 6.54817 0
M  V30 743 N 70.9488 -0.749086 1.3866 0
M  V30 744 C 71.8958 -1.86291 1.36251 0
M  V30 745 C 72.8658 -1.64578 0.224347 0
M  V30 746 O 74.0508 -1.86181 0.417279 0
M  V30 747 C 71.1908 -3.23644 1.19786 0
M  V30 748 C 70.3038 -3.57158 2.43027 0
M  V30 749 C 69.4388 -4.83838 2.19258 0
M  V30 750 C 68.4778 -5.10152 3.38247 0
M  V30 751 N 67.6148 -6.28029 3.13884 0
M  V30 752 H 72.4548 -1.87685 2.3147 0
M  V30 753 H 69.9918 -0.917287 1.14997 0
M  V30 754 H 71.9498 -4.0291 1.08254 0
M  V30 755 H 70.5798 -3.21566 0.282031 0
M  V30 756 H 69.6318 -2.72701 2.65214 0
M  V30 757 H 70.9438 -3.7253 3.31697 0
M  V30 758 H 70.0978 -5.71057 2.04888 0
M  V30 759 H 68.8368 -4.70614 1.2796 0
M  V30 760 H 67.8418 -4.21401 3.53131 0
M  V30 761 H 69.0668 -5.25271 4.30427 0
M  V30 762 H 67.0128 -6.1612 2.25238 0
M  V30 763 H 66.9298 -6.43922 3.96106 0
M  V30 764 H 68.1978 -7.18124 3.03179 0
M  V30 765 N 72.4269 -1.23603 -0.977757 0
M  V30 766 C 73.6519 -1.09735 -1.75991 0
M  V30 767 C 74.0769 0.346858 -1.84874 0
M  V30 768 O 73.4349 1.25093 -1.3123 0
M  V30 769 C 73.4829 -1.73051 -3.16363 0
M  V30 770 O 72.5869 -0.994452 -4.0023 0
M  V30 771 H 71.9279 -0.384476 -0.541364 0
M  V30 772 H 74.4579 -1.6371 -1.2272 0
M  V30 773 H 74.4679 -1.78398 -3.66931 0
M  V30 774 H 73.1429 -2.78137 -3.09213 0
M  V30 775 H 71.7199 -1.01812 -3.58732 0
M  V30 776 N 73.905 1.17692 -1.04816 0
M  V30 777 C 74.835 2.23777 -0.666791 0
M  V30 778 C 75.816 1.66796 0.33361 0
M  V30 779 O 77.001 1.93039 0.212042 0
M  V30 780 C 74.131 3.47281 -0.0367933 0
M  V30 781 C 73.085 4.17059 -0.961546 0
M  V30 782 C 72.411 5.34342 -0.195626 0
M  V30 783 C 73.711 4.69713 -2.28402 0
M  V30 784 H 75.405 2.55933 -1.55367 0
M  V30 785 H 72.951 1.23019 -0.748484 0
M  V30 786 H 74.904 4.20706 0.241775 0
M  V30 787 H 73.628 3.14381 0.885004 0
M  V30 788 H 72.287 3.45541 -1.22462 0
M  V30 789 H 71.935 4.97692 0.728816 0
M  V30 790 H 71.635 5.81966 -0.811775 0
M  V30 791 H 73.159 6.10553 0.0757473 0
M  V30 792 H 74.573 5.34794 -2.06563 0
M  V30 793 H 72.97 5.279 -2.8538 0
M  V30 794 H 74.04 3.86726 -2.92525 0
M  V30 795 N 75.3831 0.828654 1.34056 0
M  V30 796 C 76.3311 0.242973 2.31327 0
M  V30 797 C 77.3251 -0.61944 1.57668 0
M  V30 798 O 78.5311 -0.51014 1.7262 0
M  V30 799 H 74.9061 0.059834 0.749616 0
M  V30 800 H 76.8771 1.07809 2.78244 0
M  V30 801 C 75.6261 -0.575733 3.429 0
M  V30 802 H 74.9491 0.0785582 3.99723 0
M  V30 803 H 76.3891 -0.951547 4.13185 0
M  V30 804 C 74.8481 -1.75044 2.87856 0
M  V30 805 O 75.3781 -2.84882 2.83205 0
M  V30 806 N 73.5841 -1.56903 2.44602 0
M  V30 807 H 73.1311 -0.675547 2.48584 0
M  V30 808 H 73.0891 -2.35652 2.08124 0
M  V30 809 N 76.8612 -1.46375 0.584142 0
M  V30 810 C 77.8082 -2.30323 -0.148286 0
M  V30 811 C 78.7782 -1.40703 -0.882713 0
M  V30 812 O 79.9632 -1.69651 -0.873099 0
M  V30 813 C 77.1032 -3.25196 -1.15507 0
M  V30 814 C 76.2162 -4.29915 -0.423943 0
M  V30 815 C 75.3512 -5.11914 -1.41838 0
M  V30 816 C 74.3902 -6.08381 -0.673736 0
M  V30 817 N 73.5272 -6.83242 -1.6163 0
M  V30 818 H 78.3672 -2.92427 0.573644 0
M  V30 819 H 75.9042 -1.44118 0.294703 0
M  V30 820 H 77.8622 -3.78646 -1.75166 0
M  V30 821 H 76.4922 -2.64898 -1.8447 0
M  V30 822 H 75.5442 -3.7931 0.287714 0
M  V30 823 H 76.8562 -4.98549 0.158128 0
M  V30 824 H 76.0102 -5.69648 -2.08773 0
M  V30 825 H 74.7492 -4.43243 -2.03438 0
M  V30 826 H 73.7542 -5.49799 0.00938483 0
M  V30 827 H 74.9792 -6.79071 -0.0631082 0
M  V30 828 H 72.9252 -6.1728 -2.22038 0
M  V30 829 H 72.8422 -7.48144 -1.08707 0
M  V30 830 H 74.1102 -7.45534 -2.27596 0
M  V30 831 N 78.3393 -0.321999 -1.54275 0
M  V30 832 C 79.3023 0.531975 -2.22941 0
M  V30 833 C 80.3023 1.04478 -1.22234 0
M  V30 834 O 81.4923 0.937452 -1.46825 0
M  V30 835 C 78.6243 1.73874 -2.93224 0
M  V30 836 H 79.8173 -0.0682612 -2.99822 0
M  V30 837 H 77.3703 -0.0730644 -1.56129 0
M  V30 838 H 78.1053 2.37825 -2.20476 0
M  V30 839 H 77.8903 1.37847 -3.6707 0
M  V30 840 H 79.3803 2.34496 -3.45545 0
M  V30 841 N 79.8174 1.5752 -0.0501392 0
M  V30 842 C 81.0424 1.97376 0.636997 0
M  V30 843 C 81.4674 0.927466 1.63645 0
M  V30 844 O 80.8254 -0.10941 1.8097 0
M  V30 845 C 80.8734 3.36304 1.30123 0
M  V30 846 O 79.9774 3.34156 2.41689 0
M  V30 847 H 79.3184 0.642998 0.165679 0
M  V30 848 H 81.8484 2.04258 -0.118233 0
M  V30 849 H 81.8584 3.73008 1.65315 0
M  V30 850 H 80.5334 4.11993 0.568746 0
M  V30 851 H 79.1104 3.09196 2.08451 0
M  V30 852 N 81.2955 -0.223234 1.56011 0
M  V30 853 C 82.5415 -0.949279 1.79211 0
M  V30 854 C 82.8745 -1.84054 0.619494 0
M  V30 855 O 82.1495 -1.90726 -0.381317 0
M  V30 856 C 82.4325 -1.78965 3.12479 0
M  V30 857 C 82.2855 -0.924997 4.40186 0
M  V30 858 C 83.6045 -2.76774 3.42175 0
M  V30 859 H 80.7235 -0.343676 0.651963 0
M  V30 860 H 83.3655 -0.218253 1.88742 0
M  V30 861 H 81.5155 -2.41291 3.04485 0
M  V30 862 H 83.1875 -0.318615 4.60198 0
M  V30 863 H 81.4305 -0.230344 4.33188 0
M  V30 864 H 82.1015 -1.54735 5.29869 0
M  V30 865 H 84.5775 -2.24584 3.50287 0
M  V30 866 H 83.4535 -3.32678 4.36597 0
M  V30 867 H 83.7145 -3.54429 2.64258 0
M  V30 868 N 82.7736 -1.49793 -0.48987 0
M  V30 869 C 83.6836 -1.70036 -1.61632 0
M  V30 870 C 84.6996 -0.583102 -1.63939 0
M  V30 871 O 85.8756 -0.859169 -1.82154 0
M  V30 872 C 82.9406 -1.77277 -2.97949 0
M  V30 873 C 82.0016 -3.00918 -3.06181 0
M  V30 874 C 81.2346 -3.07804 -4.35996 0
M  V30 875 O 81.4576 -2.21982 -5.25433 0
M  V30 876 O 80.3916 -4.00369 -4.49431 0
M  V30 877 H 84.2176 -2.65486 -1.47482 0
M  V30 878 H 81.8026 -1.33666 -0.667362 0
M  V30 879 H 83.6846 -1.84329 -3.78947 0
M  V30 880 H 82.3596 -0.850076 -3.12339 0
M  V30 881 H 81.2666 -2.99377 -2.2433 0
M  V30 882 H 82.5996 -3.92704 -2.96723 0
M  V30 883 N 84.2517 0.741722 -1.39055 0
M  V30 884 C 85.1997 1.87702 -1.3737 0
M  V30 885 C 86.1937 1.67427 -0.257812 0
M  V30 886 O 87.3997 1.7485 -0.427489 0
M  V30 887 H 83.7747 0.617757 -0.428812 0
M  V30 888 H 85.7457 1.86239 -2.33147 0
M  V30 889 C 84.4947 3.25315 -1.22741 0
M  V30 890 H 83.8177 3.41509 -2.07873 0
M  V30 891 H 85.2577 4.04964 -1.25618 0
M  V30 892 C 83.7167 3.36838 0.0647316 0
M  V30 893 O 84.2467 3.88073 1.03741 0
M  V30 894 N 82.4527 2.90329 0.125544 0
M  V30 895 H 81.9997 2.48823 -0.666682 0
M  V30 896 H 81.9577 2.98418 0.989639 0
M  V30 897 N 85.7298 1.2412 0.971189 0
M  V30 898 C 86.6598 1.05508 2.08304 0
M  V30 899 C 87.6408 -0.0308864 1.70072 0
M  V30 900 O 88.8258 0.135521 1.93727 0
M  V30 901 C 85.9558 0.655365 3.4106 0
M  V30 902 C 84.9098 1.68971 3.93234 0
M  V30 903 C 84.2358 1.14516 5.22293 0
M  V30 904 C 85.5358 3.08487 4.21465 0
M  V30 905 H 87.2298 1.98507 2.24132 0
M  V30 906 H 84.7758 0.955821 1.07704 0
M  V30 907 H 86.7288 0.51217 4.18276 0
M  V30 908 H 85.4528 -0.31032 3.25122 0
M  V30 909 H 84.1118 1.82106 3.18171 0
M  V30 910 H 83.7598 0.170189 5.02712 0
M  V30 911 H 83.4598 1.83635 5.58168 0
M  V30 912 H 84.9838 1.01401 6.02121 0
M  V30 913 H 86.3978 2.98601 4.89398 0
M  V30 914 H 84.7948 3.74926 4.68562 0
M  V30 915 H 85.8648 3.56787 3.28376 0
M  V30 916 N 87.2079 -1.17134 1.05439 0
M  V30 917 C 88.1379 -2.2342 0.678649 0
M  V30 918 C 89.1189 -1.66971 -0.32476 0
M  V30 919 O 90.3039 -1.93149 -0.201802 0
M  V30 920 C 87.4339 -3.47256 0.0552099 0
M  V30 921 C 86.3879 -4.16543 0.98365 0
M  V30 922 C 85.7139 -5.34231 0.223961 0
M  V30 923 C 87.0139 -4.68495 2.3089 0
M  V30 924 H 88.7079 -2.55105 1.56722 0
M  V30 925 H 86.2539 -1.2262 0.754998 0
M  V30 926 H 88.2069 -4.20828 -0.21946 0
M  V30 927 H 86.9309 -3.14846 -0.868319 0
M  V30 928 H 85.5899 -3.44887 1.24293 0
M  V30 929 H 85.2379 -4.98071 -0.702412 0
M  V30 930 H 84.9379 -5.81527 0.842627 0
M  V30 931 H 86.4619 -6.10585 -0.0433671 0
M  V30 932 H 87.8759 -5.33691 2.09396 0
M  V30 933 H 86.2729 -5.26379 2.88176 0
M  V30 934 H 87.3429 -3.85169 2.94572 0
M  V30 935 N 88.686 -0.835752 -1.33615 0
M  V30 936 C 89.914 -0.443344 -2.02094 0
M  V30 937 C 90.329 0.954522 -1.62894 0
M  V30 938 O 89.686 1.61982 -0.840723 0
M  V30 939 C 89.737 -0.550775 -3.5728 0
M  V30 940 O 89.458 -1.89356 -3.95065 0
M  V30 941 C 90.959 -0.154919 -4.43029 0
M  V30 942 H 88.179 -0.176359 -0.647409 0
M  V30 943 H 90.723 -1.12746 -1.70612 0
M  V30 944 H 88.878 0.0853997 -3.87306 0
M  V30 945 H 89.292 -1.87687 -4.89769 0
M  V30 946 H 90.766 -0.281144 -5.51284 0
M  V30 947 H 91.243 0.902863 -4.2982 0
M  V30 948 H 91.849 -0.765404 -4.18356 0
M  V30 949 N 90.1641 1.46063 -0.591896 0
M  V30 950 C 91.0741 2.34192 0.13831 0
M  V30 951 C 92.0901 1.50305 0.876608 0
M  V30 952 O 93.2661 1.8315 0.837728 0
M  V30 953 C 90.3311 3.27656 1.13326 0
M  V30 954 C 89.3921 4.27445 0.39863 0
M  V30 955 C 88.6251 5.16443 1.34618 0
M  V30 956 O 88.8481 5.08553 2.58321 0
M  V30 957 O 87.7821 5.95843 0.851768 0
M  V30 958 H 91.6081 2.98002 -0.58552 0
M  V30 959 H 89.1931 1.45188 -0.352239 0
M  V30 960 H 91.0751 3.85291 1.70671 0
M  V30 961 H 89.7501 2.6643 1.83839 0
M  V30 962 H 88.6571 3.73471 -0.216895 0
M  V30 963 H 89.9901 4.91482 -0.265709 0
M  V30 964 N 91.6422 0.330177 1.54103 0
M  V30 965 C 92.8912 -0.271336 1.99867 0
M  V30 966 C 93.2042 -1.52723 1.22209 0
M  V30 967 O 94.4102 -2.20515 1.58383 0
M  V30 968 C 92.8662 -0.534032 3.55916 0
M  V30 969 C 92.4742 0.705193 4.42415 0
M  V30 970 C 94.2182 -1.09514 4.1013 0
M  V30 971 C 92.1252 0.414035 5.89949 0
M  V30 972 H 91.0552 -0.105166 0.74663 0
M  V30 973 H 93.7062 0.443429 1.78062 0
M  V30 974 H 92.0882 -1.30915 3.73734 0
M  V30 975 H 93.2622 1.4804 4.36372 0
M  V30 976 H 91.5772 1.18698 3.99124 0
M  V30 977 H 94.1742 -1.3277 5.17954 0
M  V30 978 H 94.5172 -2.04656 3.62521 0
M  V30 979 H 95.0502 -0.381038 3.95971 0
M  V30 980 H 91.7892 1.33481 6.41766 0
M  V30 981 H 91.3092 -0.323336 5.98928 0
M  V30 982 H 92.9882 0.0263105 6.46995 0
M  V30 983 N 93.1203 -1.57491 0.0584922 0
M  V30 984 C 94.0303 -2.15448 -0.928414 0
M  V30 985 C 95.0463 -1.11416 -1.3365 0
M  V30 986 O 96.2223 -1.4362 -1.41193 0
M  V30 987 C 93.2873 -2.69393 -2.18239 0
M  V30 988 C 92.3483 -3.88249 -1.83196 0
M  V30 989 C 91.5813 -4.39613 -3.02616 0
M  V30 990 O 91.8043 -3.90023 -4.16219 0
M  V30 991 O 90.7383 -5.31111 -2.83204 0
M  V30 992 H 94.5643 -3.00112 -0.465483 0
M  V30 993 H 92.1493 -1.48499 -0.163826 0
M  V30 994 H 94.0313 -3.04026 -2.91798 0
M  V30 995 H 92.7063 -1.87796 -2.63656 0
M  V30 996 H 91.6133 -3.58492 -1.06931 0
M  V30 997 H 92.9463 -4.71098 -1.42573 0
M  V30 998 N 94.5984 0.214957 -1.56127 0
M  V30 999 C 95.8474 0.936451 -1.78643 0
M  V30 1000 C 96.1604 1.85237 -0.628229 0
M  V30 1001 O 97.3664 2.613 -0.737186 0
M  V30 1002 C 95.8224 1.7154 -3.16389 0
M  V30 1003 C 95.4304 0.845299 -4.39953 0
M  V30 1004 C 97.1744 2.42772 -3.48227 0
M  V30 1005 C 95.0814 1.62198 -5.68723 0
M  V30 1006 H 94.0114 0.353401 -0.666051 0
M  V30 1007 H 96.6624 0.190169 -1.82512 0
M  V30 1008 H 95.0444 2.50484 -3.06715 0
M  V30 1009 H 96.2184 0.0959353 -4.607 0
M  V30 1010 H 94.5334 0.244789 -4.1568 0
M  V30 1011 H 97.1304 3.01394 -4.41663 0
M  V30 1012 H 97.4734 3.15984 -2.71035 0
M  V30 1013 H 98.0064 1.70813 -3.5926 0
M  V30 1014 H 94.7454 0.933011 -6.48826 0
M  V30 1015 H 94.2654 2.34579 -5.52026 0
M  V30 1016 H 95.9444 2.18095 -6.09133 0
M  V30 1017 N 96.0765 1.50051 0.48192 0
M  V30 1018 C 97.0065 1.71046 1.58951 0
M  V30 1019 C 97.9875 0.559288 1.60642 0
M  V30 1020 O 99.1725 0.797243 1.77081 0
M  V30 1021 C 96.3025 1.79462 2.97339 0
M  V30 1022 C 95.2565 2.94558 3.10515 0
M  V30 1023 C 94.5825 2.88105 4.50444 0
M  V30 1024 C 95.8825 4.35227 2.88747 0
M  V30 1025 H 97.5765 2.6378 1.41635 0
M  V30 1026 H 95.1225 1.26936 0.679942 0
M  V30 1027 H 97.0755 1.92734 3.74742 0
M  V30 1028 H 95.7995 0.833412 3.15788 0
M  V30 1029 H 94.4585 2.80918 2.35543 0
M  V30 1030 H 94.1065 1.89853 4.65795 0
M  V30 1031 H 93.8065 3.65366 4.60197 0
M  V30 1032 H 95.3305 3.03412 5.29881 0
M  V30 1033 H 96.7445 4.49449 3.55905 0
M  V30 1034 H 95.1415 5.13856 3.09955 0
M  V30 1035 H 96.2115 4.48347 1.84696 0
M  V30 1036 N 97.5546 -0.734337 1.39446 0
M  V30 1037 C 98.5016 -1.84835 1.38219 0
M  V30 1038 C 99.4716 -1.64331 0.24179 0
M  V30 1039 O 100.657 -1.85728 0.437002 0
M  V30 1040 C 97.7966 -3.22355 1.23212 0
M  V30 1041 C 96.9096 -3.5456 2.46801 0
M  V30 1042 C 96.0446 -4.81485 2.24377 0
M  V30 1043 C 95.0836 -5.06536 3.43639 0
M  V30 1044 N 94.2206 -6.24665 3.20528 0
M  V30 1045 H 99.0606 -1.85219 2.33448 0
M  V30 1046 H 96.5976 -0.905039 1.15963 0
M  V30 1047 H 98.5556 -4.0174 1.12522 0
M  V30 1048 H 97.1856 -3.21248 0.316121 0
M  V30 1049 H 96.2376 -2.69872 2.68092 0
M  V30 1050 H 97.5496 -3.6899 3.3563 0
M  V30 1051 H 96.7036 -5.68852 2.10933 0
M  V30 1052 H 95.4426 -4.6923 1.32944 0
M  V30 1053 H 94.4476 -4.17632 3.5758 0
M  V30 1054 H 95.6726 -5.20676 4.35974 0
M  V30 1055 H 93.6186 -6.13696 2.3176 0
M  V30 1056 H 93.5356 -6.39685 4.02913 0
M  V30 1057 H 94.8036 -7.14868 3.10779 0
M  V30 1058 N 99.0327 -1.24633 -0.964593 0
M  V30 1059 C 100.281 -1.08573 -1.70459 0
M  V30 1060 C 100.602 0.375655 -1.91347 0
M  V30 1061 O 99.8717 1.26779 -1.49345 0
M  V30 1062 H 98.4517 -0.398784 -0.631649 0
M  V30 1063 H 101.114 -1.56601 -1.16026 0
M  V30 1064 H 100.21 -1.58623 -2.68785 0
M  V30 1065 N 100.511 1.16574 -1.06058 0
M  V30 1066 C 101.76 1.86385 -0.770944 0
M  V30 1067 C 102.073 1.82448 0.705129 0
M  V30 1068 O 103.279 2.47815 1.10905 0
M  V30 1069 C 101.735 3.34466 -1.32893 0
M  V30 1070 C 101.343 3.46883 -2.83507 0
M  V30 1071 C 103.087 4.09548 -1.11672 0
M  V30 1072 C 100.994 4.89036 -3.32562 0
M  V30 1073 H 99.9238 0.698181 -0.284709 0
M  V30 1074 H 102.575 1.31583 -1.27899 0
M  V30 1075 H 100.957 3.88859 -0.748662 0
M  V30 1076 H 102.131 3.02663 -3.47465 0
M  V30 1077 H 100.446 2.85232 -3.03368 0
M  V30 1078 H 103.043 5.14434 -1.45814 0
M  V30 1079 H 103.386 4.16264 -0.0549535 0
M  V30 1080 H 103.919 3.61387 -1.66265 0
M  V30 1081 H 100.658 4.87499 -4.38207 0
M  V30 1082 H 100.178 5.3389 -2.73351 0
M  V30 1083 H 101.857 5.57843 -3.2775 0
M  V30 1084 N 101.989 0.842826 1.3317 0
M  V30 1085 C 103.405 0.531128 1.50503 0
M  V30 1086 C 103.605 -0.940734 1.78192 0
M  V30 1087 O 102.661 -1.72436 1.84451 0
M  V30 1088 C 103.974 1.40789 2.65705 0
M  V30 1089 C 105.522 1.40708 2.79589 0
M  V30 1090 C 105.997 2.26878 3.97857 0
M  V30 1091 N 107.488 2.24609 4.05099 0
M  V30 1092 C 108.223 2.88019 4.95815 0
M  V30 1093 N 107.719 3.60496 5.9162 0
M  V30 1094 N 109.512 2.77469 4.88843 0
M  V30 1095 H 101.663 1.79557 1.1346 0
M  V30 1096 H 103.926 0.766267 0.558156 0
M  V30 1097 H 103.632 2.454 2.51936 0
M  V30 1098 H 103.506 1.08677 3.61205 0
M  V30 1099 H 105.893 0.368668 2.92788 0
M  V30 1100 H 105.974 1.76829 1.84838 0
M  V30 1101 H 105.618 3.3078 3.85418 0
M  V30 1102 H 105.548 1.88096 4.91861 0
M  V30 1103 H 108.039 1.71906 3.36536 0
M  V30 1104 H 108.352 4.06076 6.57512 0
M  V30 1105 H 106.697 3.64604 5.91683 0
M  V30 1106 H 109.888 2.20406 4.12963 0
M  V30 1107 H 110.061 3.2717 5.59342 0
M  V30 1108 N 103.467 -1.45747 0.599634 0
M  V30 1109 C 104.417 -2.27538 -0.145107 0
M  V30 1110 C 105.401 -1.3686 -0.846055 0
M  V30 1111 O 106.593 -1.6091 -0.737357 0
M  V30 1112 C 103.722 -3.23569 -1.14708 0
M  V30 1113 C 102.808 -4.21734 -0.447383 0
M  V30 1114 N 103.199 -5.03257 0.506535 0
M  V30 1115 C 101.497 -4.40536 -0.695966 0
M  V30 1116 C 102.198 -5.74426 0.917068 0
M  V30 1117 N 101.174 -5.42966 0.26253 0
M  V30 1118 H 104.976 -2.87965 0.587672 0
M  V30 1119 H 102.49 -1.56803 0.422697 0
M  V30 1120 H 104.487 -3.8089 -1.69495 0
M  V30 1121 H 103.147 -2.64702 -1.8805 0
M  V30 1122 H 104.158 -5.10319 0.882899 0
M  V30 1123 H 100.835 -3.92802 -1.41467 0
M  V30 1124 H 102.225 -6.4995 1.70338 0
M  V30 1125 N 104.945 -0.338344 -1.53925 0
M  V30 1126 C 106.356 0.146651 -1.86123 0
M  V30 1127 C 106.707 1.5042 -1.2597 0
M  V30 1128 O 105.832 2.08723 -0.571294 0
M  V30 1129 C 106.427 0.272879 -3.37699 0
M  V30 1130 C 104.986 0.702103 -3.69794 0
M  V30 1131 C 104.133 -0.167304 -2.76795 0
M  V30 1132 H 107.084 -0.558123 -1.48562 0
M  V30 1133 H 107.105 1.10128 -3.64214 0
M  V30 1134 H 106.617 -0.715307 -3.81451 0
M  V30 1135 H 104.718 1.6995 -3.31584 0
M  V30 1136 H 104.831 0.495604 -4.7653 0
M  V30 1137 H 103.195 0.359527 -2.5215 0
M  V30 1138 H 103.978 -1.15253 -3.23375 0
M  V30 1139 N 106.423 1.57458 -0.0668435 0
M  V30 1140 C 107.373 2.0896 0.912119 0
M  V30 1141 C 108.357 0.998186 1.26195 0
M  V30 1142 O 109.549 1.26133 1.24175 0
M  V30 1143 C 106.678 2.6508 2.18145 0
M  V30 1144 C 105.764 3.81218 1.85832 0
M  V30 1145 N 106.155 4.90378 1.23948 0
M  V30 1146 C 104.453 3.9042 2.15612 0
M  V30 1147 C 105.154 5.71279 1.09616 0
M  V30 1148 N 104.13 5.19389 1.60423 0
M  V30 1149 H 107.932 2.90749 0.42924 0
M  V30 1150 H 105.446 1.6182 0.137184 0
M  V30 1151 H 107.443 3.0029 2.89192 0
M  V30 1152 H 106.103 1.84736 2.67025 0
M  V30 1153 H 107.114 5.09847 0.909731 0
M  V30 1154 H 103.791 3.21043 2.66903 0
M  V30 1155 H 105.181 6.69085 0.614425 0
M  V30 1156 N 107.901 -0.206675 1.56239 0
M  V30 1157 C 109.15 -0.926964 1.79138 0
M  V30 1158 C 109.463 -1.84901 0.638043 0
M  V30 1159 O 110.669 -2.60906 0.751033 0
M  V30 1160 C 109.125 -1.6986 3.17294 0
M  V30 1161 C 108.733 -0.821956 4.40395 0
M  V30 1162 C 110.477 -2.40922 3.4951 0
M  V30 1163 C 108.384 -1.59179 5.69575 0
M  V30 1164 H 107.314 -0.349864 0.667915 0
M  V30 1165 H 109.965 -0.180487 1.8261 0
M  V30 1166 H 108.347 -2.48853 3.08039 0
M  V30 1167 H 109.521 -0.0715019 4.60745 0
M  V30 1168 H 107.836 -0.222741 4.15804 0
M  V30 1169 H 110.433 -2.99047 4.43255 0
M  V30 1170 H 110.776 -3.14542 2.72707 0
M  V30 1171 H 111.309 -1.68905 3.60161 0
M  V30 1172 H 108.048 -0.898589 6.49312 0
M  V30 1173 H 107.568 -2.31648 5.53262 0
M  V30 1174 H 109.247 -2.14862 6.10281 0
M  V30 1175 N 109.379 -1.50304 -0.473955 0
M  V30 1176 C 110.625 -1.61389 -1.22806 0
M  V30 1177 C 110.958 -0.311955 -1.91678 0
M  V30 1178 O 110.233 0.686384 -1.81986 0
M  V30 1179 C 110.516 -2.79219 -2.27396 0
M  V30 1180 C 110.369 -4.19286 -1.62848 0
M  V30 1181 C 111.688 -2.92614 -3.28732 0
M  V30 1182 H 108.807 -0.587399 -0.445119 0
M  V30 1183 H 111.449 -1.82681 -0.522265 0
M  V30 1184 H 109.599 -2.61195 -2.87592 0
M  V30 1185 H 111.271 -4.48892 -1.06271 0
M  V30 1186 H 109.514 -4.23677 -0.931693 0
M  V30 1187 H 110.185 -4.97655 -2.38838 0
M  V30 1188 H 112.661 -3.09105 -2.78556 0
M  V30 1189 H 111.537 -3.76688 -3.99246 0
M  V30 1190 H 111.798 -2.03107 -3.92683 0
M  V30 1191 N 110.857 0.726932 -1.39834 0
M  V30 1192 C 111.789 1.85147 -1.35104 0
M  V30 1193 C 112.802 1.60736 -0.258392 0
M  V30 1194 O 113.991 1.70821 -0.517931 0
M  V30 1195 C 111.091 3.21332 -1.07697 0
M  V30 1196 C 110.264 3.73033 -2.28396 0
M  V30 1197 C 109.323 4.87802 -1.97322 0
M  V30 1198 O 108.349 5.01043 -2.70083 0
M  V30 1199 N 109.551 5.72768 -0.944273 0
M  V30 1200 H 112.316 1.89706 -2.32017 0
M  V30 1201 H 109.877 0.908006 -1.3404 0
M  V30 1202 H 111.869 3.95691 -0.849144 0
M  V30 1203 H 110.439 3.11992 -0.194909 0
M  V30 1204 H 109.659 2.89934 -2.6708 0
M  V30 1205 H 110.947 4.0431 -3.08887 0
M  V30 1206 H 110.345 5.64669 -0.341427 0
M  V30 1207 H 108.902 6.4716 -0.776346 0
M  V30 1208 N 112.336 1.25143 0.95797 0
M  V30 1209 C 113.266 1.07711 2.07173 0
M  V30 1210 C 114.247 -0.0128462 1.70095 0
M  V30 1211 O 115.432 0.156061 1.93572 0
M  V30 1212 C 112.562 0.691503 3.40346 0
M  V30 1213 C 111.516 1.73132 3.9142 0
M  V30 1214 C 110.842 1.20049 5.21049 0
M  V30 1215 C 112.142 3.1294 4.1817 0
M  V30 1216 H 113.836 2.00873 2.22014 0
M  V30 1217 H 111.382 0.967191 1.06684 0
M  V30 1218 H 113.335 0.556505 4.17709 0
M  V30 1219 H 112.059 -0.275819 3.25433 0
M  V30 1220 H 110.718 1.8547 3.16222 0
M  V30 1221 H 110.366 0.223499 5.02503 0
M  V30 1222 H 110.066 1.89545 5.56189 0
M  V30 1223 H 111.59 1.07782 6.01012 0
M  V30 1224 H 113.004 3.03775 4.86203 0
M  V30 1225 H 111.401 3.79875 4.64559 0
M  V30 1226 H 112.471 3.6025 3.24573 0
M  V30 1227 N 113.814 -1.1601 1.06675 0
M  V30 1228 C 114.761 -2.20525 0.680967 0
M  V30 1229 C 115.731 -1.62904 -0.324283 0
M  V30 1230 O 116.916 -1.89615 -0.212294 0
M  V30 1231 C 114.056 -3.45013 0.0776551 0
M  V30 1232 C 113.169 -4.16863 1.13355 0
M  V30 1233 C 112.304 -5.2888 0.49597 0
M  V30 1234 C 111.343 -5.92537 1.53513 0
M  V30 1235 N 110.48 -6.96038 0.920631 0
M  V30 1236 H 115.32 -2.52876 1.57663 0
M  V30 1237 H 112.857 -1.24199 0.788223 0
M  V30 1238 H 114.815 -4.16193 -0.289704 0
M  V30 1239 H 113.445 -3.132 -0.781393 0
M  V30 1240 H 112.497 -3.44248 1.61857 0
M  V30 1241 H 113.809 -4.60294 1.92174 0
M  V30 1242 H 112.963 -6.06653 0.0758604 0
M  V30 1243 H 111.702 -4.86622 -0.324062 0
M  V30 1244 H 110.707 -5.13482 1.9651 0
M  V30 1245 H 111.932 -6.36873 2.35733 0
M  V30 1246 H 109.878 -6.55888 0.12138 0
M  V30 1247 H 109.795 -7.3786 1.64616 0
M  V30 1248 H 111.063 -7.77725 0.525795 0
M  V30 1249 N 115.292 -0.849877 -1.32721 0
M  V30 1250 C 116.569 -0.372405 -1.92022 0
M  V30 1251 C 116.949 1.1435 -1.77447 0
M  V30 1252 O 116.297 1.96296 -1.16962 0
M  V30 1253 C 116.507 -0.831482 -3.3895 0
M  V30 1254 C 117.855 -0.845882 -4.16089 0
M  V30 1255 O 118.879 -0.775806 -3.47649 0
M  V30 1256 O 117.738 -0.943753 -5.38289 0
M  V30 1257 H 114.832 -0.107667 -0.819961 0
M  V30 1258 H 117.378 -0.93646 -1.41522 0
M  V30 1259 H 116.15 -1.87448 -3.4348 0
M  V30 1260 H 115.773 -0.24461 -3.96847 0
M  V30 1261 N 116.77 1.45427 -0.607355 0
M  V30 1262 C 118.017 2.02241 -0.102455 0
M  V30 1263 C 118.345 1.4758 1.26691 0
M  V30 1264 O 117.6 0.640468 1.84923 0
M  V30 1265 C 117.899 3.57398 -0.0129263 0
M  V30 1266 C 117.565 4.3121 -1.31792 0
M  V30 1267 C 116.227 4.51092 -1.67539 0
M  V30 1268 C 118.579 4.73401 -2.18039 0
M  V30 1269 C 115.907 5.10422 -2.89285 0
M  V30 1270 C 118.259 5.34078 -3.39034 0
M  V30 1271 C 116.923 5.52184 -3.75033 0
M  V30 1272 H 116.193 0.740051 -0.037491 0
M  V30 1273 H 118.84 1.74494 -0.788926 0
M  V30 1274 H 117.145 3.84421 0.756806 0
M  V30 1275 H 118.842 3.99061 0.393881 0
M  V30 1276 H 115.432 4.16047 -1.02968 0
M  V30 1277 H 119.616 4.57774 -1.91721 0
M  V30 1278 H 114.872 5.22629 -3.17283 0
M  V30 1279 H 119.046 5.65724 -4.06115 0
M  V30 1280 H 116.673 5.97925 -4.69457 0
M  V30 1281 N 118.248 0.346503 1.53744 0
M  V30 1282 C 119.18 -0.543316 2.22667 0
M  V30 1283 C 120.193 -1.06159 1.23427 0
M  V30 1284 O 121.382 -0.971235 1.49764 0
M  V30 1285 C 118.482 -1.76076 2.89569 0
M  V30 1286 C 117.655 -1.37727 4.15151 0
M  V30 1287 C 116.714 -2.45471 4.65436 0
M  V30 1288 O 115.74 -2.08655 5.29577 0
M  V30 1289 N 116.942 -3.7677 4.41616 0
M  V30 1290 H 119.707 0.0469703 2.99663 0
M  V30 1291 H 117.268 0.170766 1.60997 0
M  V30 1292 H 119.26 -2.47593 3.20125 0
M  V30 1293 H 117.83 -2.25835 2.16142 0
M  V30 1294 H 117.05 -0.492746 3.91108 0
M  V30 1295 H 118.338 -1.09708 4.96832 0
M  V30 1296 H 117.736 -4.09467 3.90325 0
M  V30 1297 H 116.293 -4.44448 4.7677 0
M  V30 1298 N 119.726 -1.57421 0.075193 0
M  V30 1299 C 120.972 -1.94716 -0.587998 0
M  V30 1300 C 121.327 -0.955205 -1.67014 0
M  V30 1301 O 120.62 0.0219842 -1.91587 0
M  V30 1302 C 120.814 -3.36428 -1.20626 0
M  V30 1303 C 120.643 -4.49317 -0.185541 0
M  V30 1304 C 119.413 -5.04772 0.23099 0
M  V30 1305 C 121.611 -5.11036 0.57854 0
M  V30 1306 N 119.593 -6.01204 1.24206 0
M  V30 1307 C 120.964 -6.02998 1.44199 0
M  V30 1308 C 123.019 -4.93844 0.634237 0
M  V30 1309 C 121.722 -6.79614 2.3562 0
M  V30 1310 C 123.748 -5.71106 1.53597 0
M  V30 1311 C 123.11 -6.6272 2.38709 0
M  V30 1312 H 119.209 -0.759536 -0.186089 0
M  V30 1313 H 121.793 -1.94097 0.153128 0
M  V30 1314 H 119.964 -3.37778 -1.9173 0
M  V30 1315 H 121.696 -3.60951 -1.8302 0
M  V30 1316 H 118.451 -4.73353 -0.152807 0
M  V30 1317 H 118.875 -6.54119 1.74521 0
M  V30 1318 H 123.517 -4.22799 -0.00960004 0
M  V30 1319 H 121.235 -7.49934 3.01038 0
M  V30 1320 H 124.821 -5.59824 1.58394 0
M  V30 1321 H 123.701 -7.2146 3.07352 0
M  V30 1322 N 121.204 0.198386 -1.56346 0
M  V30 1323 C 122.481 0.944982 -1.71258 0
M  V30 1324 C 122.861 2.0151 -0.629048 0
M  V30 1325 O 122.209 2.25639 0.360473 0
M  V30 1326 C 122.419 1.5344 -3.1346 0
M  V30 1327 C 123.767 2.01778 -3.73591 0
M  V30 1328 O 124.791 1.63288 -3.16568 0
M  V30 1329 O 123.65 2.72594 -4.73661 0
M  V30 1330 H 120.744 0.442939 -0.69838 0
M  V30 1331 H 123.29 0.188342 -1.68652 0
M  V30 1332 H 122.062 0.762869 -3.83792 0
M  V30 1333 H 121.685 2.35596 -3.20282 0
M  V30 1334 N 122.682 1.50554 0.465978 0
M  V30 1335 C 123.907 1.65838 1.24549 0
M  V30 1336 C 124.332 0.343486 1.84937 0
M  V30 1337 O 123.69 -0.69324 1.67523 0
M  V30 1338 C 123.738 2.75533 2.32624 0
M  V30 1339 O 122.842 2.37142 3.37398 0
M  V30 1340 H 122.183 0.553893 0.366194 0
M  V30 1341 H 124.713 1.96959 0.553927 0
M  V30 1342 H 124.723 2.98763 2.77857 0
M  V30 1343 H 123.398 3.70962 1.88043 0
M  V30 1344 H 121.975 2.24377 2.97841 0
M  V30 1345 N 124.16 -0.719506 1.40217 0
M  V30 1346 C 125.437 -1.47221 1.28784 0
M  V30 1347 C 125.817 -2.10883 -0.0956067 0
M  V30 1348 O 125.165 -1.99833 -1.10811 0
M  V30 1349 C 125.375 -2.5111 2.42373 0
M  V30 1350 C 126.723 -3.17053 2.82423 0
M  V30 1351 O 127.747 -2.61429 2.41937 0
M  V30 1352 O 126.606 -4.17742 3.52355 0
M  V30 1353 H 123.7 -0.654491 0.50554 0
M  V30 1354 H 126.246 -0.752014 1.52128 0
M  V30 1355 H 125.018 -2.02556 3.34793 0
M  V30 1356 H 124.641 -3.3067 2.20778 0
M  V30 1357 N 125.638 -1.25649 -0.95132 0
M  V30 1358 C 126.586 -1.06118 -2.06982 0
M  V30 1359 C 127.58 0.00889169 -1.69398 0
M  V30 1360 O 128.786 -0.146988 -1.79399 0
M  V30 1361 H 125.161 -0.326248 -0.677544 0
M  V30 1362 H 127.132 -2.00932 -2.2061 0
M  V30 1363 C 125.881 -0.700145 -3.40578 0
M  V30 1364 H 125.204 -1.51537 -3.69968 0
M  V30 1365 H 126.644 -0.603211 -4.19687 0
M  V30 1366 C 125.103 0.59403 -3.31622 0
M  V30 1367 O 125.633 1.63522 -3.66911 0
M  V30 1368 N 123.839 0.58089 -2.84735 0
M  V30 1369 H 123.386 -0.266783 -2.56215 0
M  V30 1370 H 123.344 1.44695 -2.79125 0
M  V30 1371 N 127.117 1.15442 -1.07289 0
M  V30 1372 C 128.366 1.85557 -0.790669 0
M  V30 1373 C 128.679 1.83186 0.685739 0
M  V30 1374 O 129.885 2.48977 1.0827 0
M  V30 1375 C 128.341 3.33038 -1.36433 0
M  V30 1376 C 127.949 3.43856 -2.8717 0
M  V30 1377 C 129.693 4.0834 -1.1601 0
M  V30 1378 C 127.6 4.85482 -3.3773 0
M  V30 1379 H 126.53 0.695122 -0.292098 0
M  V30 1380 H 129.181 1.30219 -1.29287 0
M  V30 1381 H 127.563 3.88043 -0.789864 0
M  V30 1382 H 128.737 2.98961 -3.50655 0
M  V30 1383 H 127.052 2.81998 -3.06376 0
M  V30 1384 H 129.649 5.12859 -1.51262 0
M  V30 1385 H 129.992 4.16182 -0.0991007 0
M  V30 1386 H 130.525 3.59603 -1.70089 0
M  V30 1387 H 127.264 4.82823 -4.43353 0
M  V30 1388 H 126.784 5.30961 -2.78999 0
M  V30 1389 H 128.463 5.54335 -3.33648 0
M  V30 1390 N 128.595 0.856903 1.32268 0
M  V30 1391 C 129.825 0.47475 2.01071 0
M  V30 1392 C 130.233 -0.933746 1.64553 0
M  V30 1393 O 129.576 -1.62114 0.863989 0
M  V30 1394 C 129.638 0.536746 3.55471 0
M  V30 1395 C 129.302 1.90453 4.15423 0
M  V30 1396 C 130.299 2.87029 4.33486 0
M  V30 1397 C 127.984 2.20229 4.51447 0
M  V30 1398 C 129.978 4.11532 4.86744 0
M  V30 1399 C 127.665 3.44984 5.0441 0
M  V30 1400 C 128.663 4.40452 5.22007 0
M  V30 1401 O 128.351 5.62998 5.73837 0
M  V30 1402 H 128.083 0.184778 0.650256 0
M  V30 1403 H 130.637 1.15615 1.69771 0
M  V30 1404 H 128.867 -0.20152 3.86175 0
M  V30 1405 H 130.556 0.169875 4.05544 0
M  V30 1406 H 131.322 2.6533 4.05986 0
M  V30 1407 H 127.201 1.46705 4.37034 0
M  V30 1408 H 130.745 4.86056 5.00395 0
M  V30 1409 H 126.642 3.66532 5.31342 0
M  V30 1410 H 127.41 5.64987 5.92226 0
M  V30 1411 N 130.073 -1.45103 0.615059 0
M  V30 1412 C 131.003 -2.33339 -0.0865619 0
M  V30 1413 C 131.984 -1.4727 -0.851209 0
M  V30 1414 O 133.169 -1.76026 -0.820281 0
M  V30 1415 C 130.299 -3.30095 -1.07956 0
M  V30 1416 C 129.253 -4.25858 -0.427628 0
M  V30 1417 C 128.579 -5.12361 -1.5294 0
M  V30 1418 C 129.879 -5.18165 0.655944 0
M  V30 1419 H 131.573 -2.92254 0.650224 0
M  V30 1420 H 129.119 -1.40532 0.314138 0
M  V30 1421 H 131.072 -3.90698 -1.57901 0
M  V30 1422 H 129.796 -2.69355 -1.84703 0
M  V30 1423 H 128.455 -3.66564 0.0510292 0
M  V30 1424 H 128.103 -4.47984 -2.28734 0
M  V30 1425 H 127.803 -5.77238 -1.09865 0
M  V30 1426 H 129.327 -5.75833 -2.03098 0
M  V30 1427 H 130.741 -5.72796 0.240257 0
M  V30 1428 H 129.138 -5.91559 1.00888 0
M  V30 1429 H 130.208 -4.60144 1.52957 0
M  V30 1430 N 131.551 -0.354651 -1.53558 0
M  V30 1431 C 132.8 0.239504 -2.00273 0
M  V30 1432 C 133.113 1.50759 -1.24623 0
M  V30 1433 O 134.319 2.17968 -1.61871 0
M  V30 1434 C 132.775 0.477341 -3.5672 0
M  V30 1435 C 132.383 -0.775488 -4.41237 0
M  V30 1436 C 134.127 1.02975 -4.11821 0
M  V30 1437 C 132.034 -0.507838 -5.89216 0
M  V30 1438 H 130.964 0.0932743 -0.748208 0
M  V30 1439 H 133.615 -0.471701 -1.77334 0
M  V30 1440 H 131.997 1.24953 -3.7577 0
M  V30 1441 H 133.171 -1.54963 -4.33962 0
M  V30 1442 H 131.486 -1.25033 -3.97185 0
M  V30 1443 H 134.083 1.24513 -5.2 0
M  V30 1444 H 134.426 1.98862 -3.65731 0
M  V30 1445 H 134.959 0.317994 -3.96527 0
M  V30 1446 H 131.698 -1.43674 -6.39561 0
M  V30 1447 H 131.218 0.228011 -5.99366 0
M  V30 1448 H 132.897 -0.129238 -6.46871 0
M  V30 1449 N 133.029 1.57378 -0.0835403 0
M  V30 1450 C 133.962 2.09016 0.915833 0
M  V30 1451 C 134.94 0.997993 1.2837 0
M  V30 1452 O 136.124 1.27219 1.39096 0
M  V30 1453 C 133.251 2.55757 2.22049 0
M  V30 1454 C 132.297 3.76522 2.00333 0
M  V30 1455 S 133.13 5.20661 1.25191 0
M  V30 1456 C 134.286 5.70743 2.56912 0
M  V30 1457 H 134.519 2.93457 0.476492 0
M  V30 1458 H 132.052 1.53856 0.129493 0
M  V30 1459 H 134.01 2.83346 2.97027 0
M  V30 1460 H 132.671 1.71564 2.63106 0
M  V30 1461 H 131.864 4.07256 2.96916 0
M  V30 1462 H 131.466 3.49367 1.33488 0
M  V30 1463 H 133.758 5.78304 3.52946 0
M  V30 1464 H 134.701 6.6944 2.30772 0
M  V30 1465 H 135.109 4.98616 2.64655 0
M  V30 1466 N 134.507 -0.190092 1.56449 0
M  V30 1467 C 135.417 -1.25591 1.98152 0
M  V30 1468 C 136.433 -1.49519 0.889944 0
M  V30 1469 O 137.609 -1.62036 1.19609 0
M  V30 1470 C 134.674 -2.57916 2.3169 0
M  V30 1471 C 133.735 -2.42015 3.5458 0
M  V30 1472 C 132.968 -3.6803 3.8651 0
M  V30 1473 O 133.191 -4.72413 3.1966 0
M  V30 1474 O 132.125 -3.6326 4.79923 0
M  V30 1475 H 135.951 -0.931988 2.89046 0
M  V30 1476 H 133.536 -0.395488 1.4407 0
M  V30 1477 H 135.418 -3.36008 2.54316 0
M  V30 1478 H 134.093 -2.89925 1.43963 0
M  V30 1479 H 133 -1.62017 3.37196 0
M  V30 1480 H 134.333 -2.14937 4.4279 0
M  V30 1481 N 135.985 -1.50799 -0.457987 0
M  V30 1482 C 137.232 -1.62442 -1.20908 0
M  V30 1483 C 137.56 -0.330865 -1.91665 0
M  V30 1484 O 136.815 0.68401 -1.83357 0
M  V30 1485 C 137.114 -2.76358 -2.2663 0
M  V30 1486 C 136.78 -4.16378 -1.73033 0
M  V30 1487 C 135.442 -4.54473 -1.58138 0
M  V30 1488 C 137.794 -5.03836 -1.33413 0
M  V30 1489 C 135.122 -5.77754 -1.02065 0
M  V30 1490 C 137.474 -6.27676 -0.78778 0
M  V30 1491 C 136.138 -6.64562 -0.625561 0
M  V30 1492 H 135.408 -0.594417 -0.442435 0
M  V30 1493 H 138.055 -1.84772 -0.503136 0
M  V30 1494 H 136.36 -2.48167 -3.03184 0
M  V30 1495 H 138.057 -2.82568 -2.84528 0
M  V30 1496 H 134.647 -3.86331 -1.85598 0
M  V30 1497 H 138.831 -4.75026 -1.4375 0
M  V30 1498 H 134.087 -6.04997 -0.882547 0
M  V30 1499 H 138.261 -6.94797 -0.472177 0
M  V30 1500 H 135.888 -7.59965 -0.188926 0
M  V30 1501 N 137.463 0.71206 -1.40597 0
M  V30 1502 C 138.703 1.48438 -1.40519 0
M  V30 1503 C 139.067 1.91998 -0.00767611 0
M  V30 1504 O 140.268 2.6854 0.118239 0
M  V30 1505 C 138.539 2.67514 -2.37004 0
M  V30 1506 S 140.098 3.56875 -2.55315 0
M  V30 1507 H 136.916 0.507457 -0.498005 0
M  V30 1508 H 139.518 0.832355 -1.76896 0
M  V30 1509 H 138.222 2.33689 -3.37368 0
M  V30 1510 H 137.753 3.37625 -2.01923 0
M  V30 1511 H 139.768 4.62081 -1.8082 0
M  V30 1512 N 138.941 1.26152 0.944643 0
M  V30 1513 C 139.904 1.07474 2.0244 0
M  V30 1514 C 140.904 0.0242064 1.60782 0
M  V30 1515 O 142.094 0.267302 1.72137 0
M  V30 1516 C 139.226 0.633956 3.34953 0
M  V30 1517 H 140.419 2.03336 2.20442 0
M  V30 1518 H 137.972 1.087 1.12312 0
M  V30 1519 H 138.707 -0.326811 3.22649 0
M  V30 1520 H 138.492 1.39247 3.66542 0
M  V30 1521 H 139.982 0.52501 4.14287 0
M  V30 1522 N 140.419 -1.14872 1.07899 0
M  V30 1523 C 141.667 -1.85422 0.803941 0
M  V30 1524 C 141.988 -1.83051 -0.67211 0
M  V30 1525 O 141.258 -1.27532 -1.48703 0
M  V30 1526 H 139.838 -0.686537 0.294408 0
M  V30 1527 H 142.5 -1.39226 1.3639 0
M  V30 1528 H 141.596 -2.90399 1.14346 0
M  V30 1529 N 141.898 -0.863906 -1.31812 0
M  V30 1530 C 143.146 -0.470904 -1.96537 0
M  V30 1531 C 143.467 0.978771 -1.68657 0
M  V30 1532 O 142.737 1.6853 -0.998717 0
M  V30 1533 H 141.317 -0.171148 -0.72713 0
M  V30 1534 H 143.979 -1.10236 -1.60729 0
M  V30 1535 H 143.075 -0.623616 -3.05806 0
M  V30 1536 N 143.376 1.44774 -0.622745 0
M  V30 1537 C 144.653 1.95522 -0.0551974 0
M  V30 1538 C 145.033 1.5649 1.41683 0
M  V30 1539 O 144.381 0.834848 2.12703 0
M  V30 1540 C 144.591 3.4796 -0.269242 0
M  V30 1541 C 145.939 4.24306 -0.158014 0
M  V30 1542 O 146.963 3.55637 -0.200162 0
M  V30 1543 O 145.822 5.46471 -0.0558693 0
M  V30 1544 H 142.916 0.826556 0.0271015 0
M  V30 1545 H 145.462 1.54866 -0.693864 0
M  V30 1546 H 144.234 3.6939 -1.29099 0
M  V30 1547 H 143.857 3.95543 0.403966 0
M  V30 1548 N 144.854 0.36279 1.53368 0
M  V30 1549 C 145.784 -0.476976 2.28576 0
M  V30 1550 C 146.765 -1.08631 1.30894 0
M  V30 1551 O 147.95 -1.10409 1.59761 0
M  V30 1552 C 145.08 -1.61828 3.07293 0
M  V30 1553 C 144.034 -1.13633 4.1264 0
M  V30 1554 C 143.36 -2.36766 4.79423 0
M  V30 1555 C 144.66 -0.223061 5.21823 0
M  V30 1556 H 146.354 0.150474 2.99022 0
M  V30 1557 H 143.9 0.0738103 1.43811 0
M  V30 1558 H 145.853 -2.21237 3.58653 0
M  V30 1559 H 144.577 -2.27292 2.34533 0
M  V30 1560 H 143.236 -0.564945 3.62221 0
M  V30 1561 H 142.884 -3.0068 4.03238 0
M  V30 1562 H 142.584 -2.05192 5.50609 0
M  V30 1563 H 144.108 -2.96865 5.33576 0
M  V30 1564 H 145.522 -0.724545 5.68703 0
M  V30 1565 H 143.919 0.001678 6.001 0
M  V30 1566 H 144.989 0.735553 4.79289 0
M  V30 1567 N 146.332 -1.57332 0.0918853 0
M  V30 1568 C 147.557 -1.98995 -0.584442 0
M  V30 1569 C 147.982 -0.970528 -1.61128 0
M  V30 1570 O 147.34 0.0613904 -1.81196 0
M  V30 1571 C 147.388 -3.39636 -1.21161 0
M  V30 1572 O 146.492 -3.40447 -2.32744 0
M  V30 1573 H 145.833 -0.647165 -0.148572 0
M  V30 1574 H 148.363 -2.03873 0.172347 0
M  V30 1575 H 148.373 -3.7726 -1.55367 0
M  V30 1576 H 147.048 -4.13356 -0.459313 0
M  V30 1577 H 145.625 -3.14614 -2.0018 0
M  V30 1578 N 147.81 0.181792 -1.56548 0
M  V30 1579 C 149.226 0.53316 -1.50431 0
M  V30 1580 C 149.426 1.85184 -0.794297 0
M  V30 1581 O 148.482 2.50058 -0.350318 0
M  V30 1582 C 149.795 0.575597 -2.9514 0
M  V30 1583 C 151.343 0.663519 -3.05886 0
M  V30 1584 C 151.818 0.736946 -4.52032 0
M  V30 1585 N 153.309 0.800118 -4.56237 0
M  V30 1586 C 154.044 0.877327 -5.66649 0
M  V30 1587 N 153.54 0.916016 -6.86718 0
M  V30 1588 N 155.333 0.915542 -5.54594 0
M  V30 1589 H 147.484 -0.683025 -2.01118 0
M  V30 1590 H 149.747 -0.244988 -0.915797 0
M  V30 1591 H 149.453 -0.324482 -3.502 0
M  V30 1592 H 149.327 1.42572 -3.49218 0
M  V30 1593 H 151.714 1.55403 -2.50867 0
M  V30 1594 H 151.795 -0.21307 -2.54911 0
M  V30 1595 H 151.439 -0.149262 -5.07681 0
M  V30 1596 H 151.369 1.62953 -5.00753 0
M  V30 1597 H 153.86 0.778926 -3.69785 0
M  V30 1598 H 154.173 0.975813 -7.66614 0
M  V30 1599 H 152.518 0.884469 -6.89349 0
M  V30 1600 H 155.709 0.882245 -4.59711 0
M  V30 1601 H 155.882 0.972253 -6.40665 0
M  V30 1602 N 149.288 1.51039 0.449983 0
M  V30 1603 C 150.535 1.63081 1.20045 0
M  V30 1604 C 150.863 0.341024 1.91487 0
M  V30 1605 O 150.118 -0.674276 1.83717 0
M  V30 1606 C 150.417 2.77556 2.25161 0
M  V30 1607 C 150.083 4.17289 1.70823 0
M  V30 1608 C 148.745 4.55305 1.55725 0
M  V30 1609 C 151.097 5.04536 1.3074 0
M  V30 1610 C 148.425 5.78287 0.989999 0
M  V30 1611 C 150.777 6.28085 0.754482 0
M  V30 1612 C 149.441 6.64885 0.590308 0
M  V30 1613 H 148.711 0.596755 0.439277 0
M  V30 1614 H 151.358 1.85037 0.49333 0
M  V30 1615 H 149.663 2.49771 3.01863 0
M  V30 1616 H 151.36 2.84073 2.83026 0
M  V30 1617 H 147.95 3.8731 1.83546 0
M  V30 1618 H 152.134 4.75782 1.41229 0
M  V30 1619 H 147.39 6.05456 0.850451 0
M  V30 1620 H 151.564 6.95038 0.435324 0
M  V30 1621 H 149.191 7.60055 0.14862 0
M  V30 1622 N 150.766 -0.704594 1.40972 0
M  V30 1623 C 152.015 -1.46018 1.39146 0
M  V30 1624 C 152.328 -1.956 0.000589254 0
M  V30 1625 O 153.534 -2.71137 -0.1403 0
M  V30 1626 C 151.99 -2.63996 2.4461 0
M  V30 1627 C 151.598 -2.21238 3.89561 0
M  V30 1628 C 153.342 -3.41677 2.51907 0
M  V30 1629 C 151.249 -3.3612 4.86598 0
M  V30 1630 H 150.179 -0.548444 0.517422 0
M  V30 1631 H 152.83 -0.765784 1.66757 0
M  V30 1632 H 151.212 -3.3566 2.10115 0
M  V30 1633 H 152.386 -1.56923 4.33257 0
M  V30 1634 H 150.701 -1.56574 3.85841 0
M  V30 1635 H 153.298 -4.27182 3.2159 0
M  V30 1636 H 153.641 -3.86247 1.55303 0
M  V30 1637 H 154.174 -2.77064 2.85448 0
M  V30 1638 H 150.913 -2.96572 5.84573 0
M  V30 1639 H 150.433 -3.99315 4.47557 0
M  V30 1640 H 152.112 -4.02029 5.06934 0
M  V30 1641 N 152.244 -1.26651 -0.937939 0
M  V30 1642 C 153.194 -1.05156 -2.02302 0
M  V30 1643 C 154.178 0.0171233 -1.60891 0
M  V30 1644 O 155.37 -0.200213 -1.75864 0
M  V30 1645 C 152.499 -0.689962 -3.36295 0
M  V30 1646 C 151.585 -1.79626 -3.84181 0
M  V30 1647 N 151.976 -3.03422 -4.04684 0
M  V30 1648 C 150.274 -1.6806 -4.13124 0
M  V30 1649 C 150.975 -3.75345 -4.444 0
M  V30 1650 N 149.951 -3.03051 -4.51288 0
M  V30 1651 H 153.753 -1.99117 -2.1617 0
M  V30 1652 H 151.267 -1.17216 -1.12402 0
M  V30 1653 H 153.264 -0.517112 -4.13681 0
M  V30 1654 H 151.924 0.242139 -3.23796 0
M  V30 1655 H 152.935 -3.39293 -3.91281 0
M  V30 1656 H 149.612 -0.818629 -4.09396 0
M  V30 1657 H 151.002 -4.81691 -4.68427 0
M  V30 1658 N 153.722 1.14298 -1.08507 0
M  V30 1659 C 154.95 1.89219 -0.836876 0
M  V30 1660 C 155.365 1.78638 0.611054 0
M  V30 1661 O 154.722 1.14643 1.41998 0
M  V30 1662 C 154.773 3.39158 -1.25116 0
M  V30 1663 O 154.494 3.49449 -2.64229 0
M  V30 1664 C 155.995 4.31073 -1.03398 0
M  V30 1665 H 153.215 0.599328 -0.301739 0
M  V30 1666 H 155.759 1.44746 -1.44461 0
M  V30 1667 H 153.914 3.81251 -0.687514 0
M  V30 1668 H 154.328 4.42589 -2.81452 0
M  V30 1669 H 155.802 5.34646 -1.37323 0
M  V30 1670 H 156.279 4.3919 0.0289259 0
M  V30 1671 H 156.885 3.94738 -1.58311 0
M  V30 1672 N 155.201 0.870884 1.31352 0
M  V30 1673 C 156.617 0.562932 1.49343 0
M  V30 1674 C 156.817 -0.902725 1.80148 0
M  V30 1675 O 155.873 -1.68484 1.88067 0
M  V30 1676 C 157.186 1.46393 2.62659 0
M  V30 1677 C 158.734 1.46607 2.76542 0
M  V30 1678 C 159.209 2.35266 3.92955 0
M  V30 1679 N 160.7 2.33151 4.00243 0
M  V30 1680 C 161.435 2.98471 4.89594 0
M  V30 1681 N 160.931 3.72964 5.8384 0
M  V30 1682 N 162.724 2.87775 4.82848 0
M  V30 1683 H 154.875 1.81923 1.09626 0
M  V30 1684 H 157.138 0.777934 0.541777 0
M  V30 1685 H 156.844 2.50689 2.46674 0
M  V30 1686 H 156.718 1.16314 3.58819 0
M  V30 1687 H 159.105 0.43069 2.9194 0
M  V30 1688 H 159.186 1.8071 1.81046 0
M  V30 1689 H 158.83 3.38881 3.78315 0
M  V30 1690 H 158.76 1.98487 4.87761 0
M  V30 1691 H 161.251 1.79006 3.32814 0
M  V30 1692 H 161.564 4.19932 6.4875 0
M  V30 1693 H 159.909 3.77073 5.83816 0
M  V30 1694 H 163.1 2.29116 4.08195 0
M  V30 1695 H 163.273 3.38961 5.52277 0
M  V30 1696 N 156.679 -1.44442 0.630414 0
M  V30 1697 C 158.095 -1.56832 0.295973 0
M  V30 1698 C 158.295 -1.61806 -1.20088 0
M  V30 1699 O 157.351 -1.5607 -1.9849 0
M  V30 1700 C 158.664 -2.84031 0.987264 0
M  V30 1701 C 160.212 -2.97742 0.96534 0
M  V30 1702 C 160.687 -4.27743 1.63708 0
M  V30 1703 N 162.178 -4.34555 1.60364 0
M  V30 1704 C 162.913 -5.33862 2.09234 0
M  V30 1705 N 162.409 -6.39578 2.66292 0
M  V30 1706 N 164.202 -5.25366 1.99867 0
M  V30 1707 H 156.353 -1.39457 1.60205 0
M  V30 1708 H 158.616 -0.668237 0.672431 0
M  V30 1709 H 158.322 -2.86338 2.04215 0
M  V30 1710 H 158.196 -3.73534 0.524588 0
M  V30 1711 H 160.583 -2.94989 -0.0810639 0
M  V30 1712 H 160.664 -2.09589 1.4665 0
M  V30 1713 H 160.308 -4.31255 2.68293 0
M  V30 1714 H 160.238 -5.14752 1.11076 0
M  V30 1715 H 162.729 -3.58772 1.18705 0
M  V30 1716 H 163.042 -7.11637 3.01317 0
M  V30 1717 H 161.387 -6.40265 2.70343 0
M  V30 1718 H 164.578 -4.41688 1.55013 0
M  V30 1719 H 164.751 -6.02606 2.38265 0
M  V30 1720 N 158.157 -0.370918 -1.53173 0
M  V30 1721 C 159.406 0.218249 -2.00516 0
M  V30 1722 C 159.719 1.49429 -1.26215 0
M  V30 1723 O 160.925 2.16239 -1.64174 0
M  V30 1724 C 159.381 0.43948 -3.57207 0
M  V30 1725 C 158.989 -0.822244 -4.4039 0
M  V30 1726 C 160.733 0.986012 -4.1289 0
M  V30 1727 C 158.64 -0.570304 -5.88644 0
M  V30 1728 H 157.57 0.0853333 -0.749156 0
M  V30 1729 H 160.221 -0.490483 -1.76823 0
M  V30 1730 H 158.603 1.20961 -3.77074 0
M  V30 1731 H 159.777 -1.59557 -4.32294 0
M  V30 1732 H 158.092 -1.29238 -3.95836 0
M  V30 1733 H 160.689 1.18991 -5.21292 0
M  V30 1734 H 161.032 1.94972 -3.6782 0
M  V30 1735 H 161.565 0.27592 -3.96842 0
M  V30 1736 H 158.304 -1.50449 -6.38001 0
M  V30 1737 H 157.824 0.164427 -5.99575 0
M  V30 1738 H 159.503 -0.19784 -6.46697 0
M  V30 1739 N 159.635 1.57281 -0.100228 0
M  V30 1740 C 160.565 2.17328 0.853857 0
M  V30 1741 C 161.546 1.10804 1.2906 0
M  V30 1742 O 162.731 1.38963 1.35657 0
M  V30 1743 C 159.861 2.75772 2.11109 0
M  V30 1744 C 158.815 3.87713 1.81279 0
M  V30 1745 C 158.141 4.32882 3.13874 0
M  V30 1746 C 159.441 5.10677 1.09574 0
M  V30 1747 H 161.135 2.97305 0.353545 0
M  V30 1748 H 158.681 1.43009 0.168612 0
M  V30 1749 H 160.634 3.16433 2.78296 0
M  V30 1750 H 159.358 1.93057 2.63432 0
M  V30 1751 H 158.017 3.476 1.16489 0
M  V30 1752 H 157.665 3.47051 3.64095 0
M  V30 1753 H 157.365 5.08358 2.94696 0
M  V30 1754 H 158.889 4.7618 3.82211 0
M  V30 1755 H 160.303 5.48474 1.66879 0
M  V30 1756 H 158.7 5.91615 1.00557 0
M  V30 1757 H 159.77 4.84835 0.0793299 0
M  V30 1758 N 161.113 -0.173488 1.56642 0
M  V30 1759 C 162.524 -0.736155 1.71574 0
M  V30 1760 C 162.875 -1.82888 0.710389 0
M  V30 1761 O 162 -2.16017 -0.1287 0
M  V30 1762 C 162.595 -1.34211 3.11083 0
M  V30 1763 C 161.154 -1.85162 3.27707 0
M  V30 1764 C 160.301 -0.729765 2.67525 0
M  V30 1765 H 163.252 0.0518786 1.58615 0
M  V30 1766 H 163.273 -2.21178 3.09613 0
M  V30 1767 H 162.785 -0.546579 3.84232 0
M  V30 1768 H 160.886 -2.67366 2.59512 0
M  V30 1769 H 160.999 -1.99855 4.35425 0
M  V30 1770 H 159.363 -1.14965 2.27278 0
M  V30 1771 H 160.146 0.0538806 3.43258 0
M  V30 1772 N 162.591 -1.51276 -0.441967 0
M  V30 1773 C 163.501 -1.75092 -1.56141 0
M  V30 1774 C 164.517 -0.634963 -1.62001 0
M  V30 1775 O 165.693 -0.916686 -1.79329 0
M  V30 1776 C 162.758 -1.86666 -2.92158 0
M  V30 1777 C 161.819 -3.10506 -2.96453 0
M  V30 1778 C 161.052 -3.21519 -4.25982 0
M  V30 1779 O 161.275 -2.38586 -5.18105 0
M  V30 1780 O 160.209 -4.14465 -4.36466 0
M  V30 1781 H 164.035 -2.70044 -1.38961 0
M  V30 1782 H 161.62 -1.35722 -0.624499 0
M  V30 1783 H 163.502 -1.96292 -3.72891 0
M  V30 1784 H 162.177 -0.949014 -3.09476 0
M  V30 1785 H 161.084 -3.06363 -2.14692 0
M  V30 1786 H 162.417 -4.01945 -2.84079 0
M  V30 1787 N 164.069 0.697108 -1.41344 0
M  V30 1788 C 165.016 1.81106 -1.43071 0
M  V30 1789 C 165.986 1.63632 -0.285275 0
M  V30 1790 O 167.171 1.84504 -0.486091 0
M  V30 1791 C 164.311 3.18975 -1.31715 0
M  V30 1792 C 163.424 3.47892 -2.56115 0
M  V30 1793 C 162.559 4.75367 -2.37064 0
M  V30 1794 C 161.598 4.97247 -3.56948 0
M  V30 1795 N 160.735 6.15947 -3.36977 0
M  V30 1796 H 165.575 1.78965 -2.38276 0
M  V30 1797 H 163.112 0.873975 -1.18322 0
M  V30 1798 H 165.07 3.98615 -1.23133 0
M  V30 1799 H 163.7 3.20297 -0.401183 0
M  V30 1800 H 162.752 2.62669 -2.75153 0
M  V30 1801 H 164.064 3.59962 -3.45295 0
M  V30 1802 H 163.218 5.63059 -2.25941 0
M  V30 1803 H 161.957 4.65541 -1.45338 0
M  V30 1804 H 160.962 4.08004 -3.68527 0
M  V30 1805 H 162.187 5.08934 -4.49626 0
M  V30 1806 H 160.133 6.07336 -2.47949 0
M  V30 1807 H 160.05 6.28777 -4.19732 0
M  V30 1808 H 161.318 7.06377 -3.29623 0
M  V30 1809 N 165.547 1.27147 0.931209 0
M  V30 1810 C 166.793 1.13446 1.68101 0
M  V30 1811 C 167.126 -0.319628 1.91552 0
M  V30 1812 O 166.401 -1.23407 1.50336 0
M  V30 1813 C 166.684 1.91482 3.0497 0
M  V30 1814 C 166.537 3.44855 2.88782 0
M  V30 1815 C 167.856 1.71651 4.05246 0
M  V30 1816 H 164.975 0.413498 0.610072 0
M  V30 1817 H 167.617 1.56261 1.08086 0
M  V30 1818 H 165.767 1.55095 3.56199 0
M  V30 1819 H 167.439 3.9105 2.44698 0
M  V30 1820 H 165.682 3.71373 2.24198 0
M  V30 1821 H 166.353 3.94694 3.85902 0
M  V30 1822 H 168.829 2.0337 3.63015 0
M  V30 1823 H 167.705 2.28651 4.99009 0
M  V30 1824 H 167.966 0.663555 4.37092 0
M  V30 1825 N 167.025 -1.13721 1.09112 0
M  V30 1826 C 167.988 -2.17222 0.731241 0
M  V30 1827 C 168.988 -1.59035 -0.237566 0
M  V30 1828 O 170.178 -1.74192 -0.0161704 0
M  V30 1829 C 167.31 -3.40804 0.0808443 0
M  V30 1830 H 168.503 -2.50573 1.64783 0
M  V30 1831 H 166.056 -1.28493 0.889897 0
M  V30 1832 H 166.791 -3.1304 -0.847127 0
M  V30 1833 H 166.576 -3.84306 0.777896 0
M  V30 1834 H 168.066 -4.1731 -0.155657 0
M  V30 1835 N 168.503 -0.877838 -1.30888 0
M  V30 1836 C 169.919 -0.570844 -1.49042 0
M  V30 1837 C 170.119 0.893159 -1.80624 0
M  V30 1838 O 169.175 1.67485 -1.88958 0
M  V30 1839 C 170.488 -1.47784 -2.61878 0
M  V30 1840 C 172.036 -1.48071 -2.75761 0
M  V30 1841 C 172.511 -2.37347 -3.91702 0
M  V30 1842 N 174.002 -2.35271 -3.99001 0
M  V30 1843 C 174.737 -3.01063 -4.88004 0
M  V30 1844 N 174.233 -3.76055 -5.81854 0
M  V30 1845 N 176.026 -2.90332 -4.81315 0
M  V30 1846 H 168.177 -1.82502 -1.0866 0
M  V30 1847 H 170.44 -0.780797 -0.537644 0
M  V30 1848 H 170.146 -2.51993 -2.45341 0
M  V30 1849 H 170.02 -1.18215 -3.58197 0
M  V30 1850 H 172.407 -0.446166 -2.91708 0
M  V30 1851 H 172.488 -1.81668 -1.80085 0
M  V30 1852 H 172.132 -3.40883 -3.76512 0
M  V30 1853 H 172.062 -2.01071 -4.86701 0
M  V30 1854 H 174.553 -1.80768 -3.3186 0
M  V30 1855 H 174.866 -4.23366 -6.46514 0
M  V30 1856 H 173.211 -3.80163 -5.81808 0
M  V30 1857 H 176.402 -2.31278 -4.06974 0
M  V30 1858 H 176.575 -3.41885 -5.50471 0
M  V30 1859 N 169.982 1.44106 -0.638065 0
M  V30 1860 C 171.228 2.02277 -0.145546 0
M  V30 1861 C 171.561 1.50125 1.23191 0
M  V30 1862 O 170.836 0.688133 1.8192 0
M  V30 1863 C 171.119 3.59829 -0.139791 0
M  V30 1864 C 170.972 4.22247 -1.55008 0
M  V30 1865 C 172.291 4.36873 0.531966 0
M  V30 1866 H 169.41 0.734992 -0.0543632 0
M  V30 1867 H 172.052 1.71592 -0.815863 0
M  V30 1868 H 170.202 3.86102 0.431007 0
M  V30 1869 H 171.874 4.07057 -2.1703 0
M  V30 1870 H 170.117 3.79476 -2.10191 0
M  V30 1871 H 170.788 5.31284 -1.49804 0
M  V30 1872 H 173.264 4.16074 0.0464781 0
M  V30 1873 H 172.14 5.4657 0.505206 0
M  V30 1874 H 172.401 4.11995 1.60352 0
M  V30 1875 N 171.46 0.379036 1.52974 0
M  V30 1876 C 172.707 -0.206421 2.01445 0
M  V30 1877 C 173.035 -1.47668 1.26587 0
M  V30 1878 O 172.29 -1.92514 0.351675 0
M  V30 1879 C 172.589 -0.53096 3.53434 0
M  V30 1880 C 172.255 0.646546 4.46241 0
M  V30 1881 C 170.917 0.969604 4.7133 0
M  V30 1882 C 173.269 1.43479 5.01062 0
M  V30 1883 C 170.597 2.08263 5.48492 0
M  V30 1884 C 172.949 2.53834 5.7944 0
M  V30 1885 C 171.613 2.86659 6.02812 0
M  V30 1886 H 170.883 -0.0755349 0.73714 0
M  V30 1887 H 173.53 0.514271 1.84465 0
M  V30 1888 H 171.835 -1.33285 3.68432 0
M  V30 1889 H 173.532 -0.996417 3.88423 0
M  V30 1890 H 170.122 0.384734 4.2687 0
M  V30 1891 H 174.306 1.19844 4.81613 0
M  V30 1892 H 169.562 2.34078 5.64816 0
M  V30 1893 H 173.736 3.15319 6.20924 0
M  V30 1894 H 171.363 3.73026 6.62387 0
M  V30 1895 N 172.938 -1.57226 0.108567 0
M  V30 1896 C 173.871 -2.10447 -0.882464 0
M  V30 1897 C 174.849 -1.01829 -1.26766 0
M  V30 1898 O 176.033 -1.29415 -1.37054 0
M  V30 1899 C 173.16 -2.59258 -2.17952 0
M  V30 1900 C 172.206 -3.79662 -1.94318 0
M  V30 1901 S 173.039 -5.22586 -1.16892 0
M  V30 1902 C 174.195 -5.74758 -2.47799 0
M  V30 1903 H 174.428 -2.94178 -0.429745 0
M  V30 1904 H 171.961 -1.54043 -0.105 0
M  V30 1905 H 173.919 -2.88036 -2.92482 0
M  V30 1906 H 172.58 -1.75728 -2.60343 0
M  V30 1907 H 171.773 -4.11928 -2.90399 0
M  V30 1908 H 171.375 -3.51446 -1.27913 0
M  V30 1909 H 173.667 -5.83846 -3.43701 0
M  V30 1910 H 174.61 -6.73027 -2.20093 0
M  V30 1911 H 175.018 -5.02763 -2.56689 0
M  V30 1912 N 174.416 0.165178 -1.56732 0
M  V30 1913 C 175.348 1.22911 -1.93457 0
M  V30 1914 C 176.361 1.40152 -0.828333 0
M  V30 1915 O 177.55 1.40046 -1.10677 0
M  V30 1916 C 174.65 2.59686 -2.17753 0
M  V30 1917 C 173.823 2.63663 -3.48999 0
M  V30 1918 C 172.882 3.81845 -3.62051 0
M  V30 1919 O 171.908 3.67559 -4.34613 0
M  V30 1920 N 173.11 4.98557 -2.97357 0
M  V30 1921 H 175.875 0.917118 -2.85323 0
M  V30 1922 H 173.436 0.354895 -1.57962 0
M  V30 1923 H 175.428 3.37225 -2.23743 0
M  V30 1924 H 173.998 2.83251 -1.32242 0
M  V30 1925 H 173.218 1.72173 -3.54612 0
M  V30 1926 H 174.506 2.63336 -4.35352 0
M  V30 1927 H 173.904 5.13065 -2.38287 0
M  V30 1928 H 172.461 5.73936 -3.08934 0
M  V30 1929 N 175.894 1.51508 0.433938 0
M  V30 1930 C 176.826 1.69266 1.54537 0
M  V30 1931 C 177.839 0.573276 1.52373 0
M  V30 1932 O 179.028 0.847698 1.57087 0
M  V30 1933 C 176.128 1.69524 2.93453 0
M  V30 1934 C 175.301 2.98101 3.20085 0
M  V30 1935 C 174.36 2.90502 4.38742 0
M  V30 1936 O 173.386 3.64442 4.3723 0
M  V30 1937 N 174.588 2.06586 5.42496 0
M  V30 1938 H 177.353 2.65145 1.39708 0
M  V30 1939 H 174.914 1.49437 0.622922 0
M  V30 1940 H 176.906 1.62004 3.70859 0
M  V30 1941 H 175.476 0.812245 3.01863 0
M  V30 1942 H 174.696 3.19464 2.30947 0
M  V30 1943 H 175.984 3.83207 3.34708 0
M  V30 1944 H 175.382 1.45896 5.46563 0
M  V30 1945 H 173.939 2.04943 6.18742 0
M  V30 1946 N 177.372 -0.689602 1.41712 0
M  V30 1947 C 178.302 -1.81577 1.46806 0
M  V30 1948 C 179.283 -1.66945 0.326105 0
M  V30 1949 O 180.468 -1.86588 0.538377 0
M  V30 1950 C 177.598 -3.19762 1.35535 0
M  V30 1951 C 176.552 -3.49107 2.47605 0
M  V30 1952 C 175.878 -4.86711 2.21397 0
M  V30 1953 C 177.178 -3.47483 3.89939 0
M  V30 1954 H 178.872 -1.7757 2.41058 0
M  V30 1955 H 176.418 -0.852887 1.16025 0
M  V30 1956 H 178.371 -3.98263 1.3771 0
M  V30 1957 H 177.095 -3.24409 0.377708 0
M  V30 1958 H 175.754 -2.72959 2.44722 0
M  V30 1959 H 175.402 -4.8799 1.21961 0
M  V30 1960 H 175.102 -5.0731 2.96497 0
M  V30 1961 H 176.626 -5.67515 2.25297 0
M  V30 1962 H 178.04 -4.1598 3.94505 0
M  V30 1963 H 176.437 -3.79615 4.64771 0
M  V30 1964 H 177.507 -2.46341 4.17665 0
M  V30 1965 N 178.85 -1.27639 -0.924453 0
M  V30 1966 C 179.813 -1.10681 -2.00705 0
M  V30 1967 C 180.813 -0.0497823 -1.60723 0
M  V30 1968 O 182.003 -0.294654 -1.7169 0
M  V30 1969 C 179.135 -0.687164 -3.33902 0
M  V30 1970 H 180.328 -2.06817 -2.17179 0
M  V30 1971 H 177.881 -1.10473 -1.10569 0
M  V30 1972 H 178.616 0.275439 -3.23128 0
M  V30 1973 H 178.401 -1.45061 -3.6428 0
M  V30 1974 H 179.891 -0.590853 -4.13399 0
M  V30 1975 N 180.328 1.1314 -1.09713 0
M  V30 1976 C 181.553 1.88862 -0.857081 0
M  V30 1977 C 181.978 1.78729 0.586304 0
M  V30 1978 O 181.336 1.13692 1.41222 0
M  V30 1979 C 181.384 3.36325 -1.30069 0
M  V30 1980 O 180.488 4.09815 -0.461007 0
M  V30 1981 H 179.829 0.587108 -0.310162 0
M  V30 1982 H 182.359 1.43129 -1.46203 0
M  V30 1983 H 182.369 3.87157 -1.28738 0
M  V30 1984 H 181.044 3.43017 -2.35185 0
M  V30 1985 H 179.621 3.68986 -0.538888 0
M  V30 1986 N 181.806 0.884767 1.30421 0
M  V30 1987 C 182.769 0.356277 2.26414 0
M  V30 1988 C 183.769 -0.501124 1.52792 0
M  V30 1989 O 184.959 -0.30831 1.7145 0
M  V30 1990 C 182.091 -0.492316 3.37326 0
M  V30 1991 H 183.284 1.20389 2.74675 0
M  V30 1992 H 180.837 0.661607 1.41607 0
M  V30 1993 H 181.572 -1.36052 2.94381 0
M  V30 1994 H 181.357 0.121832 3.91911 0
M  V30 1995 H 182.847 -0.853871 4.08777 0
M  V30 1996 N 183.284 -1.43765 0.645699 0
M  V30 1997 C 184.214 -2.33471 -0.0370477 0
M  V30 1998 C 185.195 -1.49042 -0.819779 0
M  V30 1999 O 186.38 -1.77726 -0.782758 0
M  V30 2000 C 183.51 -3.32311 -1.0093 0
M  V30 2001 C 182.464 -4.2667 -0.337201 0
M  V30 2002 C 181.79 -5.1549 -1.42037 0
M  V30 2003 C 183.09 -5.16657 0.765706 0
M  V30 2004 H 184.784 -2.90809 0.712069 0
M  V30 2005 H 182.33 -1.39834 0.343876 0
M  V30 2006 H 184.283 -3.9396 -1.49578 0
M  V30 2007 H 183.007 -2.73213 -1.78948 0
M  V30 2008 H 181.666 -3.66374 0.128771 0
M  V30 2009 H 181.314 -4.52735 -2.1918 0
M  V30 2010 H 181.014 -5.79438 -0.975966 0
M  V30 2011 H 182.538 -5.80012 -1.90838 0
M  V30 2012 H 183.952 -5.72158 0.361702 0
M  V30 2013 H 182.349 -5.89286 1.13413 0
M  V30 2014 H 183.419 -4.56796 1.62683 0
M  V30 2015 N 184.763 -0.387143 -1.52771 0
M  V30 2016 C 185.695 0.484089 -2.2403 0
M  V30 2017 C 186.708 1.02849 -1.26198 0
M  V30 2018 O 187.897 0.931186 -1.52286 0
M  V30 2019 C 184.997 1.68337 -2.94136 0
M  V30 2020 C 184.17 1.26672 -4.18656 0
M  V30 2021 C 183.229 2.33045 -4.7178 0
M  V30 2022 O 182.255 1.94541 -5.34923 0
M  V30 2023 N 183.457 3.64929 -4.5145 0
M  V30 2024 H 186.222 -0.126404 -2.99433 0
M  V30 2025 H 183.783 -0.213392 -1.60488 0
M  V30 2026 H 185.775 2.39019 -3.26577 0
M  V30 2027 H 184.345 2.20025 -2.22053 0
M  V30 2028 H 183.565 0.388878 -3.92277 0
M  V30 2029 H 184.853 0.964964 -4.99566 0
M  V30 2030 H 184.251 3.98974 -4.01044 0
M  V30 2031 H 182.808 4.31651 -4.88386 0
M  V30 2032 N 186.241 1.57166 -0.116904 0
M  V30 2033 C 187.488 1.95123 0.541603 0
M  V30 2034 C 187.816 1.00006 1.6682 0
M  V30 2035 O 187.071 0.0235658 1.95686 0
M  V30 2036 C 187.37 3.39508 1.11664 0
M  V30 2037 C 187.036 4.50762 0.111606 0
M  V30 2038 C 185.698 4.80918 -0.164758 0
M  V30 2039 C 188.05 5.18036 -0.573438 0
M  V30 2040 C 185.378 5.75666 -1.13249 0
M  V30 2041 C 187.73 6.13824 -1.52978 0
M  V30 2042 C 186.394 6.42374 -1.81415 0
M  V30 2043 H 185.664 0.714005 0.198187 0
M  V30 2044 H 188.311 1.9048 -0.197365 0
M  V30 2045 H 186.616 3.40835 1.93232 0
M  V30 2046 H 188.313 3.66189 1.63422 0
M  V30 2047 H 184.903 4.27272 0.337192 0
M  V30 2048 H 189.087 4.94896 -0.373092 0
M  V30 2049 H 184.343 5.96092 -1.35958 0
M  V30 2050 H 188.517 6.65039 -2.06629 0
M  V30 2051 H 186.144 7.15599 -2.56557 0
M  V30 2052 N 187.719 -0.156864 1.56817 0
M  V30 2053 C 188.649 -1.19589 2.00551 0
M  V30 2054 C 189.63 -1.4536 0.883426 0
M  V30 2055 O 190.815 -1.56449 1.15054 0
M  V30 2056 C 187.945 -2.53143 2.37773 0
M  V30 2057 C 186.899 -2.41913 3.53075 0
M  V30 2058 C 186.225 -3.80088 3.76081 0
M  V30 2059 C 187.525 -1.91157 4.86062 0
M  V30 2060 H 189.219 -0.832293 2.87599 0
M  V30 2061 H 186.765 -0.398918 1.38364 0
M  V30 2062 H 188.718 -3.26047 2.66967 0
M  V30 2063 H 187.442 -2.91319 1.4765 0
M  V30 2064 H 186.101 -1.71462 3.24031 0
M  V30 2065 H 185.749 -4.15683 2.83225 0
M  V30 2066 H 185.449 -3.73439 4.53671 0
M  V30 2067 H 186.973 -4.54556 4.0769 0
M  V30 2068 H 188.387 -2.53846 5.14038 0
M  V30 2069 H 186.784 -1.95422 5.67389 0
M  V30 2070 H 187.854 -0.866673 4.77092 0
M  V30 2071 N 189.197 -1.51736 -0.425897 0
M  V30 2072 C 190.147 -1.70258 -1.51645 0
M  V30 2073 C 191.131 -0.556488 -1.5097 0
M  V30 2074 O 192.323 -0.812879 -1.5723 0
M  V30 2075 C 189.452 -1.84143 -2.89735 0
M  V30 2076 C 188.538 -3.04572 -2.95122 0
M  V30 2077 N 188.929 -4.2756 -2.70233 0
M  V30 2078 C 187.227 -3.04061 -3.26286 0
M  V30 2079 C 187.928 -5.08908 -2.81757 0
M  V30 2080 N 186.904 -4.43797 -3.13919 0
M  V30 2081 H 190.706 -2.63004 -1.31172 0
M  V30 2082 H 188.22 -1.4954 -0.633375 0
M  V30 2083 H 190.217 -1.95525 -3.68206 0
M  V30 2084 H 188.877 -0.925857 -3.1122 0
M  V30 2085 H 189.888 -4.56315 -2.44943 0
M  V30 2086 H 186.565 -2.22179 -3.53473 0
M  V30 2087 H 187.955 -6.16843 -2.66372 0
M  V30 2088 N 190.675 0.682077 -1.42076 0
M  V30 2089 C 191.585 1.82535 -1.47371 0
M  V30 2090 C 192.601 1.7017 -0.363079 0
M  V30 2091 O 193.777 1.91848 -0.612875 0
M  V30 2092 C 190.842 3.18624 -1.36674 0
M  V30 2093 C 189.903 3.42999 -2.58167 0
M  V30 2094 C 189.136 4.72595 -2.4797 0
M  V30 2095 O 189.359 5.50006 -1.5116 0
M  V30 2096 O 188.293 4.98054 -3.37974 0
M  V30 2097 H 192.119 1.81023 -2.43853 0
M  V30 2098 H 189.704 0.836887 -1.2376 0
M  V30 2099 H 191.586 3.99847 -1.33043 0
M  V30 2100 H 190.261 3.20789 -0.433138 0
M  V30 2101 H 189.168 2.61653 -2.67373 0
M  V30 2102 H 190.501 3.45659 -3.50401 0
M  V30 2103 N 192.153 1.28127 0.917671 0
M  V30 2104 C 193.569 1.05749 1.19538 0
M  V30 2105 C 193.769 -0.202633 2.00479 0
M  V30 2106 O 192.825 -0.905382 2.3571 0
M  V30 2107 C 194.138 2.30273 1.93378 0
M  V30 2108 C 195.686 2.35412 2.06277 0
M  V30 2109 C 196.161 3.59692 2.83524 0
M  V30 2110 N 197.652 3.60309 2.91087 0
M  V30 2111 C 198.387 4.53147 3.51348 0
M  V30 2112 N 197.883 5.563 4.12919 0
M  V30 2113 N 199.676 4.40751 3.48849 0
M  V30 2114 H 191.827 2.09024 0.377184 0
M  V30 2115 H 194.09 0.919798 0.22951 0
M  V30 2116 H 193.796 3.22055 1.41328 0
M  V30 2117 H 193.67 2.36378 2.93947 0
M  V30 2118 H 196.057 1.4413 2.57508 0
M  V30 2119 H 196.138 2.33304 1.04895 0
M  V30 2120 H 195.782 4.51316 2.32973 0
M  V30 2121 H 195.712 3.59054 3.85211 0
M  V30 2122 H 198.203 2.85714 2.47338 0
M  V30 2123 H 198.516 6.2329 4.56869 0
M  V30 2124 H 196.861 5.60131 4.11435 0
M  V30 2125 H 200.052 3.59367 2.99955 0
M  V30 2126 H 200.225 5.13291 3.9552 0
M  V30 2127 N 193.631 -1.12557 1.10312 0
M  V30 2128 C 194.579 -2.20325 0.745629 0
M  V30 2129 C 195.573 -1.67429 -0.25763 0
M  V30 2130 O 196.779 -1.79612 -0.118132 0
M  V30 2131 H 193.154 -0.718118 0.223182 0
M  V30 2132 H 195.125 -2.47733 1.66346 0
M  V30 2133 C 193.874 -3.47168 0.192262 0
M  V30 2134 H 193.197 -3.88215 0.955475 0
M  V30 2135 H 194.637 -4.23995 -0.0198274 0
M  V30 2136 C 193.096 -3.19298 -1.07472 0
M  V30 2137 O 193.626 -3.3891 -2.15645 0
M  V30 2138 N 191.832 -2.73113 -0.992847 0
M  V30 2139 H 191.379 -2.57354 -0.112474 0
M  V30 2140 H 191.337 -2.54842 -1.84127 0
M  V30 2141 N 195.109 -0.891671 -1.2995 0
M  V30 2142 C 196.358 -0.509521 -1.95158 0
M  V30 2143 C 196.671 0.947388 -1.71125 0
M  V30 2144 O 197.877 1.43669 -2.30372 0
M  V30 2145 C 196.333 -0.860315 -3.49466 0
M  V30 2146 C 195.941 -2.33545 -3.8231 0
M  V30 2147 C 197.685 -0.547687 -4.20952 0
M  V30 2148 C 195.592 -2.62752 -5.29826 0
M  V30 2149 H 194.522 -0.18682 -0.730489 0
M  V30 2150 H 197.173 -1.08756 -1.47798 0
M  V30 2151 H 195.555 -0.211285 -3.95436 0
M  V30 2152 H 196.729 -3.02936 -3.47227 0
M  V30 2153 H 195.044 -2.61629 -3.23944 0
M  V30 2154 H 197.641 -0.742854 -5.29515 0
M  V30 2155 H 197.984 0.51332 -4.13123 0
M  V30 2156 H 198.517 -1.1542 -3.80688 0
M  V30 2157 H 195.256 -3.6762 -5.42712 0
M  V30 2158 H 194.776 -1.97977 -5.66185 0
M  V30 2159 H 196.455 -2.48601 -5.97333 0
M  V30 2160 N 196.587 1.43421 -0.653314 0
M  V30 2161 C 197.812 2.06678 -0.172846 0
M  V30 2162 C 198.237 1.48648 1.15262 0
M  V30 2163 O 197.595 0.596457 1.71208 0
M  V30 2164 C 197.643 3.60474 -0.0953184 0
M  V30 2165 O 196.747 4.01487 0.942442 0
M  V30 2166 H 196.088 0.657181 -0.0949155 0
M  V30 2167 H 198.618 1.83925 -0.896265 0
M  V30 2168 H 198.628 4.07905 0.0879728 0
M  V30 2169 H 197.303 4.02088 -1.06291 0
M  V30 2170 H 195.88 3.65646 0.731932 0
M  V30 2171 N 198.065 0.39524 1.52563 0
M  V30 2172 C 199.015 -0.4541 2.23432 0
M  V30 2173 C 199.999 -1.02482 1.24042 0
M  V30 2174 O 201.191 -0.949938 1.49349 0
M  V30 2175 C 198.32 -1.57769 3.049 0
M  V30 2176 C 197.406 -1.01842 4.1169 0
M  V30 2177 N 197.797 -0.184613 5.05463 0
M  V30 2178 C 196.095 -1.29033 4.26927 0
M  V30 2179 C 196.796 0.125013 5.81566 0
M  V30 2180 N 195.772 -0.480498 5.41472 0
M  V30 2181 H 199.574 0.189413 2.93289 0
M  V30 2182 H 197.088 0.204877 1.61102 0
M  V30 2183 H 199.085 -2.19862 3.54212 0
M  V30 2184 H 197.745 -2.22397 2.36579 0
M  V30 2185 H 198.756 0.178602 5.17592 0
M  V30 2186 H 195.433 -1.93721 3.69836 0
M  V30 2187 H 196.823 0.800962 6.67109 0
M  V30 2188 N 199.544 -1.57102 0.125237 0
M  V30 2189 C 200.474 -2.18659 -0.819174 0
M  V30 2190 C 201.455 -1.12843 -1.27281 0
M  V30 2191 O 202.64 -1.41104 -1.33429 0
M  V30 2192 C 199.77 -2.79096 -2.06695 0
M  V30 2193 C 198.724 -3.90548 -1.75088 0
M  V30 2194 C 198.05 -4.37821 -3.06948 0
M  V30 2195 C 199.35 -5.12356 -1.01435 0
M  V30 2196 H 201.044 -2.9783 -0.306202 0
M  V30 2197 H 198.59 -1.4326 -0.145839 0
M  V30 2198 H 200.543 -3.2082 -2.73226 0
M  V30 2199 H 199.267 -1.97223 -2.60328 0
M  V30 2200 H 197.926 -3.49409 -1.10944 0
M  V30 2201 H 197.574 -3.52799 -3.58527 0
M  V30 2202 H 197.274 -5.12982 -2.86571 0
M  V30 2203 H 198.798 -4.822 -3.74587 0
M  V30 2204 H 200.212 -5.5106 -1.58132 0
M  V30 2205 H 198.609 -5.9314 -0.911319 0
M  V30 2206 H 199.679 -4.849 -0.00218681 0
M  V30 2207 N 201.022 0.148545 -1.56898 0
M  V30 2208 C 202.299 0.890019 -1.74178 0
M  V30 2209 C 202.679 1.99407 -0.692839 0
M  V30 2210 O 202.027 2.26671 0.288505 0
M  V30 2211 C 202.237 1.43389 -3.18183 0
M  V30 2212 C 203.585 1.89791 -3.79822 0
M  V30 2213 O 204.609 1.53134 -3.21603 0
M  V30 2214 O 203.468 2.57387 -4.82093 0
M  V30 2215 H 200.562 0.420496 -0.712118 0
M  V30 2216 H 203.108 0.134591 -1.69165 0
M  V30 2217 H 201.88 0.640383 -3.86024 0
M  V30 2218 H 201.503 2.25287 -3.27615 0
M  V30 2219 N 202.5 1.5196 0.417844 0
M  V30 2220 C 203.43 1.77634 1.51554 0
M  V30 2221 C 204.411 0.626918 1.58126 0
M  V30 2222 O 205.596 0.871632 1.7354 0
M  V30 2223 C 202.726 1.91911 2.8946 0
M  V30 2224 C 201.68 3.07463 2.97743 0
M  V30 2225 C 201.006 3.06951 4.37819 0
M  V30 2226 C 202.306 4.47082 2.70027 0
M  V30 2227 H 204 2.6955 1.3032 0
M  V30 2228 H 201.546 1.29706 0.625492 0
M  V30 2229 H 203.499 2.08455 3.6623 0
M  V30 2230 H 202.223 0.966598 3.11969 0
M  V30 2231 H 200.882 2.90656 2.23416 0
M  V30 2232 H 200.53 2.09438 4.57323 0
M  V30 2233 H 200.23 3.84556 4.44286 0
M  V30 2234 H 201.754 3.25613 5.16535 0
M  V30 2235 H 203.168 4.6414 3.36522 0
M  V30 2236 H 201.565 5.2654 2.87881 0
M  V30 2237 H 202.635 4.55777 1.65514 0
M  V30 2238 N 203.978 -0.674533 1.42435 0
M  V30 2239 C 204.925 -1.78807 1.45934 0
M  V30 2240 C 205.895 -1.63157 0.311271 0
M  V30 2241 O 207.08 -1.83707 0.515383 0
M  V30 2242 C 204.22 -3.16839 1.36773 0
M  V30 2243 C 203.333 -3.43774 2.61617 0
M  V30 2244 C 202.468 -4.71536 2.44597 0
M  V30 2245 C 201.507 -4.91505 3.64814 0
M  V30 2246 N 200.644 -6.10508 3.46734 0
M  V30 2247 H 205.484 -1.75151 2.41093 0
M  V30 2248 H 203.021 -0.85504 1.19697 0
M  V30 2249 H 204.979 -3.96606 1.29459 0
M  V30 2250 H 203.609 -3.19619 0.452089 0
M  V30 2251 H 202.661 -2.58259 2.79297 0
M  V30 2252 H 203.973 -3.54423 3.50978 0
M  V30 2253 H 203.127 -5.59393 2.3487 0
M  V30 2254 H 201.866 -4.6317 1.52726 0
M  V30 2255 H 200.871 -4.0209 3.74972 0
M  V30 2256 H 202.096 -5.01716 4.57665 0
M  V30 2257 H 200.042 -6.03315 2.5758 0
M  V30 2258 H 199.959 -6.2202 4.29682 0
M  V30 2259 H 201.227 -7.01044 3.40819 0
M  V30 2260 N 205.456 -1.28612 -0.910864 0
M  V30 2261 C 206.867 -1.14406 -1.47541 0
M  V30 2262 C 207.218 0.264901 -1.94403 0
M  V30 2263 O 206.343 1.15942 -1.82719 0
M  V30 2264 C 206.938 -2.07073 -2.68153 0
M  V30 2265 C 205.497 -1.96923 -3.20778 0
M  V30 2266 C 204.644 -1.98646 -1.93481 0
M  V30 2267 H 207.595 -1.41259 -0.723291 0
M  V30 2268 H 207.616 -1.63642 -3.43514 0
M  V30 2269 H 207.128 -3.09611 -2.34015 0
M  V30 2270 H 205.229 -0.97433 -3.59635 0
M  V30 2271 H 205.342 -2.84026 -3.85832 0
M  V30 2272 H 203.706 -1.43093 -2.10705 0
M  V30 2273 H 204.489 -3.02868 -1.61634 0
M  V30 2274 N 206.934 1.1197 -1.10907 0
M  V30 2275 C 207.866 2.17592 -0.720175 0
M  V30 2276 C 208.879 1.60938 0.245495 0
M  V30 2277 O 210.068 1.78476 0.0292245 0
M  V30 2278 C 207.168 3.38873 -0.0427917 0
M  V30 2279 C 206.341 4.25006 -1.03388 0
M  V30 2280 C 205.4 5.24774 -0.387075 0
M  V30 2281 O 204.426 5.59631 -1.03934 0
M  V30 2282 N 205.628 5.74208 0.852407 0
M  V30 2283 H 208.393 2.51567 -1.62893 0
M  V30 2284 H 205.954 1.27439 -0.998543 0
M  V30 2285 H 207.946 4.02703 0.401501 0
M  V30 2286 H 206.516 3.03007 0.768456 0
M  V30 2287 H 205.736 3.57716 -1.65629 0
M  V30 2288 H 207.024 4.79397 -1.70458 0
M  V30 2289 H 206.422 5.48062 1.40161 0
M  V30 2290 H 204.979 6.39901 1.23977 0
M  V30 2291 N 208.412 0.89855 1.29475 0
M  V30 2292 C 209.36 0.365253 2.29714 0
M  V30 2293 C 210.354 -0.534993 1.6073 0
M  V30 2294 O 211.56 -0.417921 1.75081 0
M  V30 2295 H 207.935 0.0994853 0.74539 0
M  V30 2296 H 209.906 1.22406 2.72138 0
M  V30 2297 C 208.655 -0.393159 3.4547 0
M  V30 2298 H 207.978 0.290332 3.98744 0
M  V30 2299 H 209.418 -0.731189 4.17648 0
M  V30 2300 C 207.877 -1.59539 2.9673 0
M  V30 2301 O 208.407 -2.69469 2.97908 0
M  V30 2302 N 206.613 -1.43716 2.52575 0
M  V30 2303 H 206.16 -0.542828 2.51816 0
M  V30 2304 H 206.118 -2.24288 2.20323 0
M  V30 2305 N 209.89 -1.43072 0.660911 0
M  V30 2306 C 211.139 -2.00942 0.174735 0
M  V30 2307 C 211.452 -1.52797 -1.22117 0
M  V30 2308 O 212.658 -2.02991 -1.80297 0
M  V30 2309 C 211.114 -3.58948 0.261559 0
M  V30 2310 C 210.722 -4.16085 1.66064 0
M  V30 2311 C 212.466 -4.24173 -0.166617 0
M  V30 2312 C 210.373 -5.6641 1.70098 0
M  V30 2313 H 209.303 -0.751483 0.0615631 0
M  V30 2314 H 211.954 -1.63955 0.824069 0
M  V30 2315 H 210.336 -3.93372 -0.455421 0
M  V30 2316 H 211.51 -3.93147 2.40359 0
M  V30 2317 H 209.825 -3.6326 2.03546 0
M  V30 2318 H 212.422 -5.34471 -0.156433 0
M  V30 2319 H 212.765 -3.98647 -1.19943 0
M  V30 2320 H 213.298 -3.94659 0.498875 0
M  V30 2321 H 210.037 -5.96715 2.71315 0
M  V30 2322 H 209.557 -5.91382 1.00139 0
M  V30 2323 H 211.236 -6.30585 1.44816 0
M  V30 2324 N 211.368 -0.403325 -1.52352 0
M  V30 2325 C 212.298 0.416205 -2.29761 0
M  V30 2326 C 213.279 1.05123 -1.33728 0
M  V30 2327 O 214.464 1.06134 -1.62632 0
M  V30 2328 C 211.594 1.53624 -3.11475 0
M  V30 2329 C 210.548 1.02653 -4.15507 0
M  V30 2330 C 209.874 2.23971 -4.85532 0
M  V30 2331 C 211.174 0.08463 -5.22231 0
M  V30 2332 H 212.868 -0.229701 -2.98518 0
M  V30 2333 H 210.414 -0.111913 -1.43564 0
M  V30 2334 H 212.367 2.1165 -3.64393 0
M  V30 2335 H 211.091 2.20994 -2.40477 0
M  V30 2336 H 209.75 0.46871 -3.63591 0
M  V30 2337 H 209.398 2.89883 -4.11068 0
M  V30 2338 H 209.098 1.90521 -5.55856 0
M  V30 2339 H 210.622 2.82614 -5.41259 0
M  V30 2340 H 212.036 0.573509 -5.70424 0
M  V30 2341 H 210.433 -0.160783 -5.99885 0
M  V30 2342 H 211.503 -0.86237 -4.7717 0
M  V30 2343 N 212.846 1.57033 -0.133567 0
M  V30 2344 C 213.776 2.1909 0.807567 0
M  V30 2345 C 214.757 1.13517 1.26681 0
M  V30 2346 O 215.942 1.41809 1.32679 0
M  V30 2347 C 213.072 2.80188 2.05212 0
M  V30 2348 C 212.026 3.91471 1.73015 0
M  V30 2349 C 211.352 4.39443 3.04622 0
M  V30 2350 C 212.652 5.12886 0.987168 0
M  V30 2351 H 214.346 2.97988 0.290403 0
M  V30 2352 H 211.892 1.43335 0.138239 0
M  V30 2353 H 213.845 3.22264 2.71521 0
M  V30 2354 H 212.569 1.98601 2.59278 0
M  V30 2355 H 211.228 3.49993 1.0909 0
M  V30 2356 H 210.876 3.54695 3.56651 0
M  V30 2357 H 210.576 5.14495 2.83847 0
M  V30 2358 H 212.1 4.8418 3.72024 0
M  V30 2359 H 213.514 5.51891 1.55208 0
M  V30 2360 H 211.911 5.93615 0.87985 0
M  V30 2361 H 212.981 4.84894 -0.0235286 0
M  V30 2362 N 214.325 -0.140222 1.56975 0
M  V30 2363 C 215.55 -0.870414 1.88251 0
M  V30 2364 C 215.975 -1.73637 0.723312 0
M  V30 2365 O 215.333 -1.78329 -0.32689 0
M  V30 2366 C 215.381 -1.69737 3.18154 0
M  V30 2367 O 214.485 -2.80229 3.02565 0
M  V30 2368 H 213.826 -0.242025 0.61832 0
M  V30 2369 H 216.356 -0.128999 2.04193 0
M  V30 2370 H 216.366 -2.09099 3.50345 0
M  V30 2371 H 215.041 -1.06152 4.02125 0
M  V30 2372 H 213.618 -2.44224 2.81796 0
M  V30 2373 N 215.803 -1.52179 -0.40978 0
M  V30 2374 C 217.028 -1.70347 -1.18308 0
M  V30 2375 C 217.453 -0.411887 -1.83535 0
M  V30 2376 O 216.811 0.630587 -1.6998 0
M  V30 2377 C 216.859 -2.83977 -2.22238 0
M  V30 2378 O 215.963 -2.495 -3.28365 0
M  V30 2379 H 215.304 -0.567103 -0.345384 0
M  V30 2380 H 217.834 -1.98879 -0.480445 0
M  V30 2381 H 217.844 -3.0887 -2.66577 0
M  V30 2382 H 216.519 -3.77685 -1.74146 0
M  V30 2383 H 215.096 -2.35277 -2.89308 0
M  V30 2384 N 217.281 0.66697 -1.42791 0
M  V30 2385 C 218.211 1.79218 -1.49677 0
M  V30 2386 C 219.192 1.66405 -0.352623 0
M  V30 2387 O 220.377 1.85708 -0.567993 0
M  V30 2388 C 217.507 3.17565 -1.40605 0
M  V30 2389 C 216.461 3.45124 -2.53127 0
M  V30 2390 C 215.787 4.83127 -2.29112 0
M  V30 2391 C 217.087 3.41236 -3.95418 0
M  V30 2392 H 218.781 1.73713 -2.43853 0
M  V30 2393 H 216.327 0.83432 -1.17367 0
M  V30 2394 H 218.28 3.96022 -1.44029 0
M  V30 2395 H 217.004 3.23767 -0.429271 0
M  V30 2396 H 215.663 2.69031 -2.49034 0
M  V30 2397 H 215.311 4.85988 -1.29709 0
M  V30 2398 H 215.011 5.02528 -3.04531 0
M  V30 2399 H 216.535 5.63859 -2.34297 0
M  V30 2400 H 217.949 4.09651 -4.01073 0
M  V30 2401 H 216.346 3.72173 -4.70752 0
M  V30 2402 H 217.416 2.39665 -4.21532 0
M  V30 2403 N 218.759 1.29093 0.90403 0
M  V30 2404 C 219.669 1.15727 2.0407 0
M  V30 2405 C 220.685 0.0815308 1.73809 0
M  V30 2406 O 221.861 0.292749 1.99261 0
M  V30 2407 C 218.926 0.830424 3.36608 0
M  V30 2408 C 217.987 1.98955 3.80415 0
M  V30 2409 C 217.22 1.6782 5.06628 0
M  V30 2410 O 217.443 0.597105 5.67266 0
M  V30 2411 O 216.377 2.52486 5.46383 0
M  V30 2412 H 220.203 2.11171 2.18267 0
M  V30 2413 H 217.788 1.08504 1.027 0
M  V30 2414 H 219.67 0.662521 4.16159 0
M  V30 2415 H 218.345 -0.0942678 3.23563 0
M  V30 2416 H 217.252 2.21267 3.01648 0
M  V30 2417 H 218.585 2.89529 3.98037 0
M  V30 2418 N 220.237 -1.11381 1.11499 0
M  V30 2419 C 221.184 -2.17439 0.773887 0
M  V30 2420 C 222.154 -1.64132 -0.254899 0
M  V30 2421 O 223.339 -1.90345 -0.13168 0
M  V30 2422 C 220.479 -3.44373 0.223917 0
M  V30 2423 C 219.592 -4.1168 1.30934 0
M  V30 2424 C 218.727 -5.263 0.71984 0
M  V30 2425 C 217.766 -5.85493 1.78507 0
M  V30 2426 N 216.903 -6.91507 1.21502 0
M  V30 2427 H 221.743 -2.45962 1.68246 0
M  V30 2428 H 219.28 -1.20744 0.840191 0
M  V30 2429 H 221.238 -4.17047 -0.112921 0
M  V30 2430 H 219.868 -3.16232 -0.647851 0
M  V30 2431 H 218.92 -3.37073 1.76312 0
M  V30 2432 H 220.232 -4.51729 2.11524 0
M  V30 2433 H 219.386 -6.05785 0.333094 0
M  V30 2434 H 218.125 -4.87559 -0.117377 0
M  V30 2435 H 217.13 -5.04686 2.18111 0
M  V30 2436 H 218.355 -6.26301 2.62533 0
M  V30 2437 H 216.301 -6.54783 0.399455 0
M  V30 2438 H 216.218 -7.30214 1.95763 0
M  V30 2439 H 217.486 -7.74795 0.855181 0
M  V30 2440 N 221.715 -0.905404 -1.28997 0
M  V30 2441 C 223.126 -0.581953 -1.77398 0
M  V30 2442 C 223.477 0.902552 -1.74208 0
M  V30 2443 O 222.602 1.70584 -1.33154 0
M  V30 2444 C 223.197 -1.04961 -3.22131 0
M  V30 2445 C 221.756 -0.777229 -3.68288 0
M  V30 2446 C 220.903 -1.22109 -2.48967 0
M  V30 2447 H 223.854 -1.08754 -1.15578 0
M  V30 2448 H 223.875 -0.387387 -3.78523 0
M  V30 2449 H 223.387 -2.13008 -3.24421 0
M  V30 2450 H 221.488 0.290383 -3.71467 0
M  V30 2451 H 221.601 -1.37911 -4.58822 0
M  V30 2452 H 219.965 -0.639971 -2.46529 0
M  V30 2453 H 220.748 -2.30972 -2.53982 0
M  V30 2454 N 223.193 1.4272 -0.668489 0
M  V30 2455 C 224.143 2.27971 0.0363806 0
M  V30 2456 C 225.127 1.40741 0.779794 0
M  V30 2457 O 226.319 1.64245 0.659745 0
M  V30 2458 C 223.448 3.28673 0.991398 0
M  V30 2459 C 222.534 4.23388 0.245658 0
M  V30 2460 N 222.925 5.00267 -0.746069 0
M  V30 2461 C 221.223 4.43355 0.484988 0
M  V30 2462 C 221.924 5.69396 -1.19009 0
M  V30 2463 N 220.9 5.41095 -0.521287 0
M  V30 2464 H 224.702 2.84833 -0.724394 0
M  V30 2465 H 222.216 1.54607 -0.497028 0
M  V30 2466 H 224.213 3.88543 1.51129 0
M  V30 2467 H 222.873 2.73373 1.75207 0
M  V30 2468 H 223.884 5.05525 -1.12537 0
M  V30 2469 H 220.561 3.99104 1.22565 0
M  V30 2470 H 221.951 6.41083 -2.01153 0
M  V30 2471 N 224.671 0.411399 1.52136 0
M  V30 2472 C 225.601 -0.404015 2.29978 0
M  V30 2473 C 226.582 -1.04412 1.34284 0
M  V30 2474 O 227.767 -1.0527 1.63192 0
M  V30 2475 C 224.897 -1.5197 3.12286 0
M  V30 2476 C 223.851 -1.00448 4.16046 0
M  V30 2477 C 223.177 -2.21393 4.86712 0
M  V30 2478 C 224.477 -0.0569336 5.22269 0
M  V30 2479 H 226.171 0.245529 2.98392 0
M  V30 2480 H 223.717 0.119525 1.43503 0
M  V30 2481 H 225.67 -2.09715 3.6551 0
M  V30 2482 H 224.394 -2.19716 2.41646 0
M  V30 2483 H 223.053 -0.449421 3.63835 0
M  V30 2484 H 222.701 -2.87699 4.12599 0
M  V30 2485 H 222.401 -1.87571 5.56858 0
M  V30 2486 H 223.925 -2.7974 5.4275 0
M  V30 2487 H 225.339 -0.54325 5.7072 0
M  V30 2488 H 223.736 0.192594 5.99791 0
M  V30 2489 H 224.806 0.887663 4.76706 0
M  V30 2490 N 226.149 -1.5696 0.141893 0
M  V30 2491 C 227.096 -2.16501 -0.799737 0
M  V30 2492 C 228.066 -1.09643 -1.24771 0
M  V30 2493 O 229.251 -1.3766 -1.32115 0
M  V30 2494 C 226.391 -2.78679 -2.03549 0
M  V30 2495 C 225.504 -3.99914 -1.6338 0
M  V30 2496 C 224.639 -4.50106 -2.82096 0
M  V30 2497 C 223.678 -5.63819 -2.38275 0
M  V30 2498 N 222.815 -6.08651 -3.49983 0
M  V30 2499 H 227.655 -2.96632 -0.285179 0
M  V30 2500 H 225.192 -1.46533 -0.129053 0
M  V30 2501 H 227.15 -3.1287 -2.75986 0
M  V30 2502 H 225.78 -2.012 -2.52425 0
M  V30 2503 H 224.832 -3.71735 -0.807279 0
M  V30 2504 H 226.144 -4.82311 -1.27192 0
M  V30 2505 H 225.298 -4.86325 -3.62729 0
M  V30 2506 H 224.037 -3.66706 -3.21525 0
M  V30 2507 H 223.042 -5.2718 -1.56081 0
M  V30 2508 H 224.267 -6.49 -1.99938 0
M  V30 2509 H 222.213 -5.28188 -3.89042 0
M  V30 2510 H 222.13 -6.85961 -3.17794 0
M  V30 2511 H 223.398 -6.49515 -4.30988 0
M  V30 2512 N 227.627 0.131896 -1.57047 0
M  V30 2513 C 228.557 1.16384 -2.02428 0
M  V30 2514 C 229.538 1.43936 -0.90644 0
M  V30 2515 O 230.723 1.54599 -1.17528 0
M  V30 2516 C 227.853 2.49328 -2.4177 0
M  V30 2517 C 226.807 2.36266 -3.56879 0
M  V30 2518 C 226.133 3.74057 -3.8208 0
M  V30 2519 C 227.433 1.834 -4.89042 0
M  V30 2520 H 229.127 0.786433 -2.88887 0
M  V30 2521 H 226.673 0.376855 -1.38981 0
M  V30 2522 H 228.626 3.21759 -2.7212 0
M  V30 2523 H 227.35 2.88934 -1.52266 0
M  V30 2524 H 226.009 1.66286 -3.26718 0
M  V30 2525 H 225.657 4.11125 -2.89803 0
M  V30 2526 H 225.357 3.66174 -4.59554 0
M  V30 2527 H 226.881 4.48012 -4.1487 0
M  V30 2528 H 228.295 2.45636 -5.18011 0
M  V30 2529 H 226.692 1.8637 -5.70426 0
M  V30 2530 H 227.762 0.790662 -4.7841 0
M  V30 2531 N 229.106 1.52395 0.401703 0
M  V30 2532 C 230.069 1.75636 1.47257 0
M  V30 2533 C 231.069 0.62628 1.48103 0
M  V30 2534 O 232.259 0.894227 1.49497 0
M  V30 2535 C 229.391 1.84553 2.86624 0
M  V30 2536 H 230.584 2.71241 1.27938 0
M  V30 2537 H 228.137 1.42923 0.632662 0
M  V30 2538 H 228.872 0.908882 3.11303 0
M  V30 2539 H 228.657 2.66715 2.87412 0
M  V30 2540 H 230.147 2.04251 3.64241 0
M  V30 2541 N 230.584 -0.659388 1.43143 0
M  V30 2542 C 231.861 -1.41627 1.34912 0
M  V30 2543 C 232.241 -2.11099 -0.00607785 0
M  V30 2544 O 231.589 -2.04353 -1.02236 0
M  V30 2545 C 231.799 -2.40604 2.52805 0
M  V30 2546 C 233.147 -3.04789 2.95616 0
M  V30 2547 O 234.171 -2.50932 2.52807 0
M  V30 2548 O 233.03 -4.02421 3.69756 0
M  V30 2549 H 230.124 -0.63246 0.532844 0
M  V30 2550 H 232.67 -0.686814 1.5518 0
M  V30 2551 H 231.442 -1.88174 3.43083 0
M  V30 2552 H 231.065 -3.21009 2.34604 0
M  V30 2553 N 232.062 -1.29571 -0.897171 0
M  V30 2554 C 233.309 -1.17689 -1.6479 0
M  V30 2555 C 233.637 0.27107 -1.92602 0
M  V30 2556 O 232.892 1.21193 -1.53658 0
M  V30 2557 C 233.191 -1.9382 -3.00281 0
M  V30 2558 C 232.857 -3.43522 -2.92068 0
M  V30 2559 C 231.519 -3.84348 -2.89535 0
M  V30 2560 C 233.871 -4.38906 -2.81089 0
M  V30 2561 C 231.199 -5.18869 -2.73846 0
M  V30 2562 C 233.551 -5.73521 -2.66939 0
M  V30 2563 C 232.215 -6.13601 -2.62774 0
M  V30 2564 H 231.485 -0.430654 -0.603008 0
M  V30 2565 H 234.132 -1.60536 -1.04404 0
M  V30 2566 H 232.437 -1.4357 -3.64547 0
M  V30 2567 H 234.134 -1.82028 -3.57305 0
M  V30 2568 H 230.724 -3.11072 -2.94842 0
M  V30 2569 H 234.908 -4.08315 -2.82121 0
M  V30 2570 H 230.164 -5.4903 -2.69027 0
M  V30 2571 H 234.338 -6.47078 -2.57416 0
M  V30 2572 H 231.965 -7.17786 -2.50375 0
M  V30 2573 N 233.54 1.10788 -1.12088 0
M  V30 2574 C 234.788 1.8231 -0.872205 0
M  V30 2575 C 235.109 1.85419 0.603709 0
M  V30 2576 O 234.379 1.32963 1.43867 0
M  V30 2577 H 232.959 0.675137 -0.319686 0
M  V30 2578 H 235.621 1.34068 -1.41463 0
M  V30 2579 H 234.717 2.85955 -1.25045 0
M  V30 2580 N 235.018 0.912232 1.28515 0
M  V30 2581 C 236.265 0.544599 1.95039 0
M  V30 2582 C 236.593 -0.911435 1.71823 0
M  V30 2583 O 235.848 -1.66317 1.03137 0
M  V30 2584 C 236.147 0.798392 3.48368 0
M  V30 2585 C 235.813 2.23374 3.91682 0
M  V30 2586 C 234.475 2.62617 4.03219 0
M  V30 2587 C 236.827 3.16786 4.13879 0
M  V30 2588 C 234.155 3.94429 4.3433 0
M  V30 2589 C 236.507 4.48161 4.46469 0
M  V30 2590 C 235.171 4.8726 4.56217 0
M  V30 2591 H 234.441 0.199283 0.7137 0
M  V30 2592 H 237.088 1.15327 1.52879 0
M  V30 2593 H 235.393 0.106908 3.91654 0
M  V30 2594 H 237.09 0.493141 3.97956 0
M  V30 2595 H 233.68 1.91922 3.83228 0
M  V30 2596 H 237.864 2.87677 4.0442 0
M  V30 2597 H 233.12 4.24426 4.40082 0
M  V30 2598 H 237.294 5.20559 4.62592 0
M  V30 2599 H 234.921 5.89431 4.80078 0
M  V30 2600 N 236.496 -1.42363 0.676048 0
M  V30 2601 C 237.459 -2.29199 0.00766941 0
M  V30 2602 C 238.459 -1.43389 -0.727745 0
M  V30 2603 O 239.649 -1.64764 -0.56556 0
M  V30 2604 C 236.781 -3.2591 -0.999785 0
M  V30 2605 H 237.974 -2.89794 0.771988 0
M  V30 2606 H 235.527 -1.50024 0.438468 0
M  V30 2607 H 236.262 -2.70256 -1.79255 0
M  V30 2608 H 236.047 -3.89202 -0.475829 0
M  V30 2609 H 237.537 -3.91028 -1.46583 0
M  V30 2610 N 237.974 -0.419461 -1.51915 0
M  V30 2611 C 238.906 0.43646 -2.25006 0
M  V30 2612 C 239.919 1.00149 -1.28351 0
M  V30 2613 O 241.108 0.898674 -1.54227 0
M  V30 2614 C 238.208 1.6206 -2.9764 0
M  V30 2615 C 237.381 1.17763 -4.21249 0
M  V30 2616 C 236.44 2.22985 -4.76617 0
M  V30 2617 O 235.466 1.83151 -5.38929 0
M  V30 2618 N 236.668 3.55271 -4.59089 0
M  V30 2619 H 239.433 -0.18989 -2.99098 0
M  V30 2620 H 236.994 -0.247386 -1.59999 0
M  V30 2621 H 238.986 2.32038 -3.31573 0
M  V30 2622 H 237.556 2.15266 -2.2667 0
M  V30 2623 H 236.776 0.305582 -3.93014 0
M  V30 2624 H 238.064 0.858781 -5.015 0
M  V30 2625 H 237.462 3.90377 -4.09417 0
M  V30 2626 H 236.019 4.21195 -4.97432 0
M  V30 2627 N 239.452 1.56882 -0.150215 0
M  V30 2628 C 240.402 2.13501 0.800071 0
M  V30 2629 C 241.386 1.06368 1.20726 0
M  V30 2630 O 242.578 1.32538 1.17314 0
M  V30 2631 C 239.707 2.76271 2.03787 0
M  V30 2632 C 238.793 3.90533 1.65364 0
M  V30 2633 N 239.184 4.96259 0.977794 0
M  V30 2634 C 237.482 4.013 1.94613 0
M  V30 2635 C 238.183 5.76286 0.791794 0
M  V30 2636 N 237.159 5.27163 1.32666 0
M  V30 2637 H 240.961 2.92615 0.274517 0
M  V30 2638 H 238.475 1.62319 0.0512144 0
M  V30 2639 H 240.472 3.15197 2.72867 0
M  V30 2640 H 239.132 1.98631 2.56857 0
M  V30 2641 H 240.143 5.13953 0.638193 0
M  V30 2642 H 236.82 3.3474 2.4951 0
M  V30 2643 H 238.21 6.71401 0.258894 0
M  V30 2644 N 240.93 -0.123565 1.57115 0
M  V30 2645 C 241.863 -1.18202 1.95201 0
M  V30 2646 C 242.841 -1.40349 0.821031 0
M  V30 2647 O 244.025 -1.54578 1.07879 0
M  V30 2648 C 241.152 -2.53671 2.24429 0
M  V30 2649 C 240.198 -2.4798 3.46999 0
M  V30 2650 S 241.031 -1.92389 4.99747 0
M  V30 2651 C 242.187 -3.2954 5.32123 0
M  V30 2652 H 242.42 -0.857212 2.84674 0
M  V30 2653 H 239.953 -0.33014 1.50829 0
M  V30 2654 H 241.911 -3.3162 2.41947 0
M  V30 2655 H 240.572 -2.83332 1.35579 0
M  V30 2656 H 239.765 -3.47758 3.64801 0
M  V30 2657 H 239.367 -1.7815 3.28844 0
M  V30 2658 H 241.659 -4.25736 5.27025 0
M  V30 2659 H 242.602 -3.16569 6.33395 0
M  V30 2660 H 243.01 -3.27758 4.59603 0
M  V30 2661 N 242.408 -1.52605 -0.393616 0
M  V30 2662 C 243.633 -1.71592 -1.16495 0
M  V30 2663 C 244.058 -0.43133 -1.83088 0
M  V30 2664 O 243.416 0.612523 -1.7064 0
M  V30 2665 C 243.464 -2.86318 -2.19213 0
M  V30 2666 O 242.568 -2.52969 -3.257 0
M  V30 2667 H 241.909 -0.570734 -0.33935 0
M  V30 2668 H 244.439 -1.99377 -0.459324 0
M  V30 2669 H 244.449 -3.1168 -2.63286 0
M  V30 2670 H 243.124 -3.79511 -1.7013 0
M  V30 2671 H 241.701 -2.38332 -2.86797 0
M  V30 2672 N 243.887 0.651787 -1.4349 0
M  V30 2673 C 245.298 1.233 -1.40193 0
M  V30 2674 C 245.649 1.9591 -0.106727 0
M  V30 2675 O 244.774 2.01316 0.793773 0
M  V30 2676 C 245.369 2.24257 -2.53957 0
M  V30 2677 C 243.928 2.77852 -2.5392 0
M  V30 2678 C 243.075 1.52517 -2.3159 0
M  V30 2679 H 246.026 0.443717 -1.52371 0
M  V30 2680 H 246.047 3.0646 -2.25528 0
M  V30 2681 H 245.559 1.71382 -3.4821 0
M  V30 2682 H 243.66 3.34786 -1.63551 0
M  V30 2683 H 243.773 3.25299 -3.51735 0
M  V30 2684 H 242.137 1.79915 -1.80285 0
M  V30 2685 H 242.92 1.01574 -3.27929 0
M  V30 2686 N 245.365 1.30045 0.890287 0
M  V30 2687 C 246.611 1.19747 1.64415 0
M  V30 2688 C 246.966 -0.246591 1.90813 0
M  V30 2689 O 246.259 -1.174 1.51419 0
M  V30 2690 C 246.453 1.95409 2.99249 0
M  V30 2691 C 246.282 3.47025 2.86013 0
M  V30 2692 C 245.052 4.1638 2.86279 0
M  V30 2693 C 247.25 4.42353 2.62351 0
M  V30 2694 N 245.232 5.54293 2.63879 0
M  V30 2695 C 246.603 5.67792 2.49022 0
M  V30 2696 C 248.658 4.32009 2.47533 0
M  V30 2697 C 247.361 6.8406 2.22383 0
M  V30 2698 C 249.387 5.48038 2.22279 0
M  V30 2699 C 248.749 6.72455 2.09722 0
M  V30 2700 H 244.848 0.493223 0.60684 0
M  V30 2701 H 247.432 1.6399 1.04954 0
M  V30 2702 H 245.603 1.53565 3.56752 0
M  V30 2703 H 247.335 1.77298 3.63796 0
M  V30 2704 H 244.09 3.68164 2.97913 0
M  V30 2705 H 244.514 6.26852 2.55706 0
M  V30 2706 H 249.156 3.36503 2.55979 0
M  V30 2707 H 246.874 7.79612 2.12675 0
M  V30 2708 H 250.46 5.41939 2.11643 0
M  V30 2709 H 249.34 7.60722 1.90453 0
M  V30 2710 N 246.843 -1.10192 1.12674 0
M  V30 2711 C 248.12 -1.78717 0.794965 0
M  V30 2712 C 248.5 -1.98628 -0.714853 0
M  V30 2713 O 247.848 -1.58135 -1.64941 0
M  V30 2714 C 248.058 -3.11546 1.5729 0
M  V30 2715 C 249.406 -3.86382 1.76052 0
M  V30 2716 O 250.43 -3.21274 1.53823 0
M  V30 2717 O 249.289 -5.03246 2.13087 0
M  V30 2718 H 246.383 -0.774702 0.289423 0
M  V30 2719 H 248.929 -1.16819 1.23091 0
M  V30 2720 H 247.701 -2.92489 2.59935 0
M  V30 2721 H 247.324 -3.81164 1.13137 0
M  V30 2722 N 248.321 -0.919034 -1.28029 0
M  V30 2723 C 249.231 -0.416756 -2.30869 0
M  V30 2724 C 250.247 0.498235 -1.66714 0
M  V30 2725 O 251.423 0.383144 -1.97722 0
M  V30 2726 C 248.488 0.330274 -3.45123 0
M  V30 2727 C 247.549 -0.618578 -4.2482 0
M  V30 2728 C 246.782 0.0928959 -5.33619 0
M  V30 2729 O 247.005 1.31375 -5.55065 0
M  V30 2730 O 245.939 -0.574499 -5.99152 0
M  V30 2731 H 249.765 -1.27043 -2.75851 0
M  V30 2732 H 247.35 -0.684052 -1.3282 0
M  V30 2733 H 249.232 0.751972 -4.14636 0
M  V30 2734 H 247.907 1.1597 -3.02213 0
M  V30 2735 H 246.814 -1.08978 -3.57875 0
M  V30 2736 H 248.147 -1.41497 -4.71423 0
M  V30 2737 N 249.799 1.42003 -0.683588 0
M  V30 2738 C 250.746 2.30798 -0.0107309 0
M  V30 2739 C 251.716 1.4645 0.783688 0
M  V30 2740 O 252.901 1.75263 0.754156 0
M  V30 2741 C 250.041 3.3238 0.928306 0
M  V30 2742 C 249.154 4.31814 0.126776 0
M  V30 2743 C 248.289 5.20468 1.06236 0
M  V30 2744 C 247.328 6.11577 0.253035 0
M  V30 2745 N 246.465 6.92754 1.14179 0
M  V30 2746 H 251.305 2.8778 -0.773727 0
M  V30 2747 H 248.842 1.41745 -0.393283 0
M  V30 2748 H 250.8 3.89813 1.48666 0
M  V30 2749 H 249.43 2.76976 1.65783 0
M  V30 2750 H 248.482 3.76427 -0.54833 0
M  V30 2751 H 249.794 4.96276 -0.501192 0
M  V30 2752 H 248.948 5.82677 1.69035 0
M  V30 2753 H 247.687 4.56204 1.7242 0
M  V30 2754 H 246.692 5.48428 -0.388108 0
M  V30 2755 H 247.917 6.77892 -0.404839 0
M  V30 2756 H 245.863 6.3111 1.78987 0
M  V30 2757 H 245.78 7.53855 0.569111 0
M  V30 2758 H 247.048 7.59441 1.75697 0
M  V30 2759 N 251.277 0.427512 1.51691 0
M  V30 2760 C 252.227 -0.406604 2.24345 0
M  V30 2761 C 253.211 -0.998276 1.26187 0
M  V30 2762 O 254.403 -0.918045 1.51331 0
M  V30 2763 C 251.532 -1.51266 3.08177 0
M  V30 2764 C 250.618 -0.930868 4.13758 0
M  V30 2765 N 251.009 -0.0773552 5.05741 0
M  V30 2766 C 249.307 -1.19948 4.29568 0
M  V30 2767 C 250.008 0.248344 5.8117 0
M  V30 2768 N 248.984 -0.365535 5.4237 0
M  V30 2769 H 252.786 0.251581 2.92821 0
M  V30 2770 H 250.3 0.239003 1.60632 0
M  V30 2771 H 252.297 -2.123 3.58796 0
M  V30 2772 H 250.957 -2.17328 2.41244 0
M  V30 2773 H 251.968 0.288351 5.17097 0
M  V30 2774 H 248.645 -1.85832 3.73862 0
M  V30 2775 H 250.035 0.942286 6.6526 0
M  V30 2776 N 252.755 -1.56801 0.158532 0
M  V30 2777 C 254.001 -1.96781 -0.490405 0
M  V30 2778 C 254.334 -1.04397 -1.63753 0
M  V30 2779 O 253.609 -0.0885805 -1.94298 0
M  V30 2780 C 253.892 -3.4635 -0.985594 0
M  V30 2781 C 253.745 -4.49512 0.160824 0
M  V30 2782 C 255.064 -3.98697 -1.86355 0
M  V30 2783 H 252.183 -0.715482 -0.176788 0
M  V30 2784 H 254.825 -1.88451 0.242088 0
M  V30 2785 H 252.975 -3.53579 -1.60978 0
M  V30 2786 H 254.647 -4.54353 0.797537 0
M  V30 2787 H 252.89 -4.26013 0.818256 0
M  V30 2788 H 253.561 -5.51531 -0.227569 0
M  V30 2789 H 256.037 -3.94019 -1.33746 0
M  V30 2790 H 254.913 -5.03792 -2.17909 0
M  V30 2791 H 255.174 -3.41744 -2.8047 0
M  V30 2792 N 254.233 0.115231 -1.57178 0
M  V30 2793 C 255.163 1.1423 -2.03651 0
M  V30 2794 C 256.144 1.42967 -0.921655 0
M  V30 2795 O 257.329 1.53343 -1.19162 0
M  V30 2796 C 254.459 2.4675 -2.44401 0
M  V30 2797 C 253.413 2.32467 -3.59365 0
M  V30 2798 C 252.739 3.69984 -3.86026 0
M  V30 2799 C 254.039 1.78203 -4.90959 0
M  V30 2800 H 255.733 0.755749 -2.89705 0
M  V30 2801 H 253.279 0.362093 -1.39373 0
M  V30 2802 H 255.232 3.18854 -2.75517 0
M  V30 2803 H 253.956 2.87302 -1.55322 0
M  V30 2804 H 252.615 1.62811 -3.28463 0
M  V30 2805 H 252.263 4.08028 -2.94147 0
M  V30 2806 H 251.963 3.61279 -4.63412 0
M  V30 2807 H 253.487 4.43587 -4.19599 0
M  V30 2808 H 254.901 2.40128 -5.20587 0
M  V30 2809 H 253.298 1.8031 -5.72371 0
M  V30 2810 H 254.368 0.739876 -4.79222 0
M  V30 2811 N 255.711 1.52812 0.385517 0
M  V30 2812 C 257.127 1.4214 0.725829 0
M  V30 2813 C 257.327 0.544589 1.94001 0
M  V30 2814 O 256.383 0.0193693 2.52493 0
M  V30 2815 C 257.696 2.85042 0.957668 0
M  V30 2816 C 259.244 2.94543 1.05892 0
M  V30 2817 C 259.719 4.38464 1.32337 0
M  V30 2818 N 261.21 4.41804 1.39151 0
M  V30 2819 C 261.945 5.5025 1.61285 0
M  V30 2820 N 261.441 6.68775 1.80866 0
M  V30 2821 N 263.234 5.37798 1.63492 0
M  V30 2822 H 255.385 2.08338 -0.413383 0
M  V30 2823 H 257.648 0.940016 -0.122775 0
M  V30 2824 H 257.354 3.51431 0.137568 0
M  V30 2825 H 257.228 3.27505 1.87137 0
M  V30 2826 H 259.615 2.28321 1.86959 0
M  V30 2827 H 259.696 2.55504 0.123057 0
M  V30 2828 H 259.34 5.05254 0.517793 0
M  V30 2829 H 259.27 4.75059 2.27214 0
M  V30 2830 H 261.761 3.56377 1.25713 0
M  V30 2831 H 262.074 7.47197 1.97271 0
M  V30 2832 H 260.419 6.71797 1.78083 0
M  V30 2833 H 263.61 4.44171 1.47749 0
M  V30 2834 H 263.783 6.22382 1.80402 0
M  V30 2835 N 257.189 -0.644168 1.43834 0
M  V30 2836 C 258.437 -1.40117 1.45642 0
M  V30 2837 C 258.758 -1.94814 0.0852413 0
M  V30 2838 O 258.028 -1.74988 -0.880688 0
M  V30 2839 H 256.608 -0.52005 0.536243 0
M  V30 2840 H 259.27 -0.7591 1.7951 0
M  V30 2841 H 258.366 -2.23902 2.17427 0
M  V30 2842 N 258.668 -1.30515 -0.883378 0
M  V30 2843 C 259.893 -1.22487 -1.67367 0
M  V30 2844 C 260.318 0.208767 -1.86938 0
M  V30 2845 O 259.676 1.15015 -1.40148 0
M  V30 2846 C 259.724 -1.96041 -3.02655 0
M  V30 2847 O 258.828 -1.28859 -3.91751 0
M  V30 2848 H 258.169 -0.423573 -0.511353 0
M  V30 2849 H 260.699 -1.72362 -1.10239 0
M  V30 2850 H 260.709 -2.05124 -3.52687 0
M  V30 2851 H 259.384 -3.00307 -2.8773 0
M  V30 2852 H 257.961 -1.28141 -3.50192 0
M  V30 2853 N 260.146 1.09593 -1.13257 0
M  V30 2854 C 261.557 1.63229 -0.906274 0
M  V30 2855 C 261.908 1.8811 0.557578 0
M  V30 2856 O 261.033 1.62953 1.42391 0
M  V30 2857 C 261.628 2.96535 -1.63867 0
M  V30 2858 C 260.187 3.47003 -1.45828 0
M  V30 2859 C 259.334 2.2145 -1.66898 0
M  V30 2860 H 262.285 0.92978 -1.28611 0
M  V30 2861 H 262.306 3.64411 -1.09476 0
M  V30 2862 H 261.818 2.78394 -2.70404 0
M  V30 2863 H 259.919 3.70272 -0.415848 0
M  V30 2864 H 260.032 4.24551 -2.2202 0
M  V30 2865 H 258.396 2.30022 -1.09371 0
M  V30 2866 H 259.179 2.0583 -2.74752 0
M  V30 2867 N 261.624 0.925811 1.2754 0
M  V30 2868 C 262.554 0.440748 2.29303 0
M  V30 2869 C 263.535 -0.497971 1.62648 0
M  V30 2870 O 264.72 -0.403126 1.8997 0
M  V30 2871 C 261.85 -0.309048 3.45922 0
M  V30 2872 C 260.804 0.54166 4.24559 0
M  V30 2873 C 260.13 -0.337191 5.33636 0
M  V30 2874 C 261.43 1.80516 4.90114 0
M  V30 2875 H 263.124 1.29121 2.70126 0
M  V30 2876 H 260.67 0.622323 1.29858 0
M  V30 2877 H 262.623 -0.659315 4.1621 0
M  V30 2878 H 261.347 -1.19352 3.04011 0
M  V30 2879 H 260.006 0.874609 3.56014 0
M  V30 2880 H 259.654 -1.22056 4.87966 0
M  V30 2881 H 259.354 0.228497 5.87156 0
M  V30 2882 H 260.878 -0.683072 6.06767 0
M  V30 2883 H 262.292 1.52307 5.52698 0
M  V30 2884 H 260.689 2.3142 5.53683 0
M  V30 2885 H 261.759 2.52581 4.13921 0
M  V30 2886 N 263.102 -1.41638 0.69111 0
M  V30 2887 C 264.332 -2.0533 0.228758 0
M  V30 2888 C 264.74 -1.52089 -1.12541 0
M  V30 2889 O 264.083 -0.662145 -1.71351 0
M  V30 2890 C 264.145 -3.59349 0.10407 0
M  V30 2891 C 263.809 -4.35362 1.38956 0
M  V30 2892 C 264.806 -4.64942 2.32648 0
M  V30 2893 C 262.491 -4.74714 1.64169 0
M  V30 2894 C 264.485 -5.32828 3.49818 0
M  V30 2895 C 262.172 -5.42338 2.81625 0
M  V30 2896 C 263.17 -5.71322 3.74273 0
M  V30 2897 O 262.858 -6.37554 4.89673 0
M  V30 2898 H 262.59 -0.667796 0.104997 0
M  V30 2899 H 265.144 -1.82477 0.942938 0
M  V30 2900 H 263.374 -3.80924 -0.665839 0
M  V30 2901 H 265.063 -4.04633 -0.320519 0
M  V30 2902 H 265.829 -4.35025 2.14425 0
M  V30 2903 H 261.708 -4.51538 0.929202 0
M  V30 2904 H 265.252 -5.55368 4.22152 0
M  V30 2905 H 261.149 -5.71673 2.99768 0
M  V30 2906 H 261.917 -6.56049 4.8943 0
M  V30 2907 N 264.58 -0.43555 -1.51462 0
M  V30 2908 C 265.513 0.421989 -2.24264 0
M  V30 2909 C 266.491 1.02619 -1.26127 0
M  V30 2910 O 267.675 1.069 -1.55257 0
M  V30 2911 C 264.802 1.588 -2.99166 0
M  V30 2912 C 263.848 1.10465 -4.11946 0
M  V30 2913 S 264.681 0.048146 -5.35478 0
M  V30 2914 C 265.837 1.21887 -6.13917 0
M  V30 2915 H 266.07 -0.196102 -2.96653 0
M  V30 2916 H 263.603 -0.220054 -1.52824 0
M  V30 2917 H 265.561 2.25647 -3.42919 0
M  V30 2918 H 264.222 2.1775 -2.26371 0
M  V30 2919 H 263.415 1.97654 -4.63626 0
M  V30 2920 H 263.017 0.51445 -3.70445 0
M  V30 2921 H 265.309 2.13756 -6.42895 0
M  V30 2922 H 266.252 0.742076 -7.04201 0
M  V30 2923 H 266.66 1.45663 -5.45383 0
M  V30 2924 N 266.058 1.56714 -0.166846 0
M  V30 2925 C 267.021 2.16539 0.751232 0
M  V30 2926 C 268.021 1.11228 1.16125 0
M  V30 2927 O 269.211 1.36765 1.07894 0
M  V30 2928 C 266.343 2.74462 2.02196 0
M  V30 2929 H 267.536 2.99013 0.230499 0
M  V30 2930 H 265.089 1.56081 0.0826982 0
M  V30 2931 H 265.824 1.95709 2.58589 0
M  V30 2932 H 265.609 3.51527 1.73698 0
M  V30 2933 H 267.099 3.20489 2.67725 0
M  V30 2934 N 267.536 -0.106894 1.57237 0
M  V30 2935 C 268.947 -0.662723 1.74542 0
M  V30 2936 C 269.298 -1.7971 0.787319 0
M  V30 2937 O 268.423 -2.16368 -0.0369636 0
M  V30 2938 C 269.018 -1.20896 3.16496 0
M  V30 2939 C 267.577 -1.71096 3.35266 0
M  V30 2940 C 266.724 -0.615642 2.7038 0
M  V30 2941 H 269.675 0.119106 1.58252 0
M  V30 2942 H 269.696 -2.07847 3.18716 0
M  V30 2943 H 269.208 -0.383122 3.86204 0
M  V30 2944 H 267.309 -2.56119 2.70618 0
M  V30 2945 H 267.422 -1.81208 4.43509 0
M  V30 2946 H 265.786 -1.05222 2.31949 0
M  V30 2947 H 266.569 0.199419 3.4272 0
M  V30 2948 N 269.014 -1.53014 -0.377408 0
M  V30 2949 C 269.924 -1.81557 -1.48574 0
M  V30 2950 C 270.94 -0.703102 -1.59162 0
M  V30 2951 O 272.116 -0.99192 -1.75279 0
M  V30 2952 C 269.181 -1.9889 -2.83978 0
M  V30 2953 C 268.242 -3.22801 -2.83016 0
M  V30 2954 C 267.475 -3.39298 -4.11962 0
M  V30 2955 O 267.698 -2.60345 -5.0752 0
M  V30 2956 O 266.632 -4.32604 -4.18494 0
M  V30 2957 H 270.458 -2.75695 -1.27382 0
M  V30 2958 H 268.043 -1.38248 -0.566373 0
M  V30 2959 H 269.925 -2.11931 -3.6423 0
M  V30 2960 H 268.6 -1.07942 -3.05172 0
M  V30 2961 H 267.507 -3.15193 -2.01505 0
M  V30 2962 H 268.84 -4.13632 -2.66775 0
M  V30 2963 N 270.492 0.636531 -1.44174 0
M  V30 2964 C 271.425 1.76139 -1.45087 0
M  V30 2965 C 272.403 1.59611 -0.310326 0
M  V30 2966 O 273.587 1.81568 -0.506477 0
M  V30 2967 C 270.714 3.13648 -1.27839 0
M  V30 2968 C 269.76 3.48838 -2.45386 0
M  V30 2969 S 270.593 3.46927 -4.07924 0
M  V30 2970 C 271.749 4.87064 -3.9309 0
M  V30 2971 H 271.982 1.75096 -2.40268 0
M  V30 2972 H 269.515 0.810666 -1.31406 0
M  V30 2973 H 271.473 3.93002 -1.18575 0
M  V30 2974 H 270.134 3.12235 -0.341787 0
M  V30 2975 H 269.327 4.48886 -2.29167 0
M  V30 2976 H 268.929 2.76935 -2.51362 0
M  V30 2977 H 271.221 5.76153 -3.56446 0
M  V30 2978 H 272.164 5.08337 -4.92949 0
M  V30 2979 H 272.572 4.61384 -3.25246 0
M  V30 2980 N 271.97 1.30982 0.876444 0
M  V30 2981 C 273.216 1.20474 1.63138 0
M  V30 2982 C 273.549 -0.238096 1.92735 0
M  V30 2983 O 272.824 -1.1692 1.55435 0
M  V30 2984 C 273.107 2.04244 2.96574 0
M  V30 2985 C 272.96 3.56793 2.73896 0
M  V30 2986 C 274.279 1.88684 3.97601 0
M  V30 2987 H 271.398 0.439001 0.591985 0
M  V30 2988 H 274.04 1.60704 1.01361 0
M  V30 2989 H 272.19 1.70063 3.493 0
M  V30 2990 H 273.862 4.01077 2.27892 0
M  V30 2991 H 272.105 3.80548 2.08245 0
M  V30 2992 H 272.776 4.10706 3.68815 0
M  V30 2993 H 275.252 2.18584 3.54062 0
M  V30 2994 H 274.128 2.4961 4.88862 0
M  V30 2995 H 274.389 0.848343 4.33884 0
M  V30 2996 N 273.449 -1.08991 1.13837 0
M  V30 2997 C 274.689 -1.82867 0.913183 0
M  V30 2998 C 275.053 -1.83936 -0.550604 0
M  V30 2999 O 276.254 -2.53515 -0.893515 0
M  V30 3000 C 274.525 -3.24843 1.49036 0
M  V30 3001 S 276.084 -4.15669 1.40588 0
M  V30 3002 H 272.902 -0.630278 0.329046 0
M  V30 3003 H 275.504 -1.31049 1.45073 0
M  V30 3004 H 274.208 -3.21644 2.54899 0
M  V30 3005 H 273.739 -3.81734 0.950947 0
M  V30 3006 H 275.754 -4.94686 0.387353 0
M  V30 3007 N 274.927 -0.932562 -1.27047 0
M  V30 3008 C 275.859 -0.392734 -2.2581 0
M  V30 3009 C 276.872 0.479241 -1.55586 0
M  V30 3010 O 278.061 0.291078 -1.76111 0
M  V30 3011 C 275.161 0.455456 -3.35826 0
M  V30 3012 C 274.334 -0.398355 -4.35582 0
M  V30 3013 C 273.393 0.387985 -5.24768 0
M  V30 3014 O 272.419 -0.206003 -5.68827 0
M  V30 3015 N 273.621 1.68664 -5.55457 0
M  V30 3016 H 276.386 -1.24173 -2.72766 0
M  V30 3017 H 273.947 -0.800511 -1.40725 0
M  V30 3018 H 275.939 0.988692 -3.92437 0
M  V30 3019 H 274.509 1.20522 -2.88432 0
M  V30 3020 H 273.729 -1.11286 -3.78165 0
M  V30 3021 H 275.017 -0.981889 -4.99236 0
M  V30 3022 H 274.415 2.19147 -5.21528 0
M  V30 3023 H 272.972 2.1663 -6.14748 0
M  V30 3024 N 276.405 1.4127 -0.698611 0
M  V30 3025 C 277.821 1.55241 -0.370462 0
M  V30 3026 C 278.021 1.67351 1.12231 0
M  V30 3027 O 277.077 1.65363 1.90818 0
M  V30 3028 C 278.39 2.78997 -1.12165 0
M  V30 3029 C 279.938 2.92797 -1.1063 0
M  V30 3030 C 280.413 4.19445 -1.8393 0
M  V30 3031 N 281.904 4.26409 -1.80914 0
M  V30 3032 C 282.639 5.23271 -2.34467 0
M  V30 3033 N 282.135 6.26145 -2.96504 0
M  V30 3034 N 283.928 5.15232 -2.24706 0
M  V30 3035 H 276.079 1.31654 -1.66676 0
M  V30 3036 H 278.342 0.635393 -0.703548 0
M  V30 3037 H 278.048 2.76268 -2.17644 0
M  V30 3038 H 277.922 3.70606 -0.702209 0
M  V30 3039 H 280.309 2.95039 -0.0597713 0
M  V30 3040 H 280.39 2.02353 -1.56483 0
M  V30 3041 H 280.034 4.17964 -2.88563 0
M  V30 3042 H 279.964 5.08866 -1.35509 0
M  V30 3043 H 282.455 3.527 -1.35687 0
M  V30 3044 H 282.768 6.96451 -3.34927 0
M  V30 3045 H 281.113 6.26638 -3.00583 0
M  V30 3046 H 284.304 4.33789 -1.7591 0
M  V30 3047 H 284.477 5.90552 -2.66745 0
M  V30 3048 N 277.883 0.443576 1.51229 0
M  V30 3049 C 278.815 -0.400608 2.25672 0
M  V30 3050 C 279.828 -0.980945 1.29928 0
M  V30 3051 O 281.017 -0.874024 1.55638 0
M  V30 3052 C 278.117 -1.57304 3.00181 0
M  V30 3053 C 277.29 -1.11046 4.23069 0
M  V30 3054 C 276.349 -2.15374 4.80105 0
M  V30 3055 O 275.375 -1.74554 5.41774 0
M  V30 3056 N 276.577 -3.47922 4.64683 0
M  V30 3057 H 279.342 0.23745 2.98758 0
M  V30 3058 H 276.903 0.272809 1.59585 0
M  V30 3059 H 278.895 -2.26733 3.35223 0
M  V30 3060 H 277.465 -2.11632 2.30066 0
M  V30 3061 H 276.685 -0.243019 3.9345 0
M  V30 3062 H 277.973 -0.778888 5.02803 0
M  V30 3063 H 277.371 -3.83815 4.15575 0
M  V30 3064 H 275.928 -4.13228 5.0407 0
M  V30 3065 N 279.361 -1.56624 0.175154 0
M  V30 3066 C 280.591 -2.01082 -0.474283 0
M  V30 3067 C 280.999 -1.05447 -1.57091 0
M  V30 3068 O 280.342 -0.0480595 -1.83637 0
M  V30 3069 C 280.404 -3.41963 -1.10911 0
M  V30 3070 C 280.068 -4.56742 -0.153666 0
M  V30 3071 C 281.065 -5.16076 0.629448 0
M  V30 3072 C 278.75 -5.02277 -0.0483776 0
M  V30 3073 C 280.744 -6.19377 1.50501 0
M  V30 3074 C 278.431 -6.05427 0.830768 0
M  V30 3075 C 279.429 -6.63849 1.60605 0
M  V30 3076 O 279.117 -7.64998 2.47049 0
M  V30 3077 H 278.849 -0.664261 -0.125432 0
M  V30 3078 H 281.403 -2.03549 0.275163 0
M  V30 3079 H 279.633 -3.36422 -1.90676 0
M  V30 3080 H 281.322 -3.70352 -1.66114 0
M  V30 3081 H 282.088 -4.81776 0.558297 0
M  V30 3082 H 277.967 -4.56513 -0.641611 0
M  V30 3083 H 281.511 -6.64906 2.1106 0
M  V30 3084 H 277.408 -6.39151 0.903107 0
M  V30 3085 H 278.176 -7.82336 2.40607 0
M  V30 3086 N 280.839 0.0985539 -1.57292 0
M  V30 3087 C 282.116 0.834155 -1.76921 0
M  V30 3088 C 282.496 1.97101 -0.755928 0
M  V30 3089 O 281.844 2.27474 0.216245 0
M  V30 3090 C 282.054 1.33194 -3.22584 0
M  V30 3091 C 283.402 1.77611 -3.85668 0
M  V30 3092 O 284.426 1.42825 -3.26312 0
M  V30 3093 O 283.285 2.4192 -4.90038 0
M  V30 3094 H 280.379 0.397628 -0.725135 0
M  V30 3095 H 282.925 0.0807044 -1.69508 0
M  V30 3096 H 281.697 0.517248 -3.87866 0
M  V30 3097 H 281.32 2.1475 -3.34616 0
M  V30 3098 N 282.317 1.53212 0.369288 0
M  V30 3099 C 283.28 1.7872 1.43498 0
M  V30 3100 C 284.28 0.657554 1.46741 0
M  V30 3101 O 285.47 0.925736 1.47566 0
M  V30 3102 C 282.602 1.90591 2.82645 0
M  V30 3103 H 283.795 2.73894 1.22156 0
M  V30 3104 H 281.348 1.44233 0.602203 0
M  V30 3105 H 282.083 0.974709 3.09306 0
M  V30 3106 H 281.868 2.72751 2.8169 0
M  V30 3107 H 283.358 2.11931 3.59826 0
M  V30 3108 N 283.795 -0.628877 1.44509 0
M  V30 3109 C 285.211 -0.947305 1.28446 0
M  V30 3110 C 285.411 -2.00275 0.221872 0
M  V30 3111 O 284.467 -2.49447 -0.391471 0
M  V30 3112 C 285.78 -1.40843 2.65676 0
M  V30 3113 C 287.328 -1.52379 2.73404 0
M  V30 3114 C 287.803 -2.01875 4.11109 0
M  V30 3115 N 289.294 -2.09142 4.13296 0
M  V30 3116 C 290.029 -2.48615 5.16699 0
M  V30 3117 N 289.525 -2.87209 6.30462 0
M  V30 3118 N 291.318 -2.48768 5.04054 0
M  V30 3119 H 283.469 0.0690977 2.12288 0
M  V30 3120 H 285.732 -0.0317164 0.947469 0
M  V30 3121 H 285.438 -0.707206 3.44516 0
M  V30 3122 H 285.312 -2.37902 2.92716 0
M  V30 3123 H 287.699 -2.21598 1.9488 0
M  V30 3124 H 287.78 -0.536898 2.50102 0
M  V30 3125 H 287.424 -1.3325 4.90109 0
M  V30 3126 H 287.354 -3.0144 4.31789 0
M  V30 3127 H 289.845 -1.81991 3.31191 0
M  V30 3128 H 290.158 -3.16149 7.05174 0
M  V30 3129 H 288.503 -2.84955 6.33897 0
M  V30 3130 H 291.694 -2.18009 4.14234 0
M  V30 3131 H 291.867 -2.79207 5.84763 0
M  V30 3132 N 285.273 -1.31445 -0.869486 0
M  V30 3133 C 286.519 -1.21337 -1.62496 0
M  V30 3134 C 286.852 0.227872 -1.92858 0
M  V30 3135 O 286.127 1.16094 -1.56053 0
M  V30 3136 C 286.41 -2.05814 -2.95487 0
M  V30 3137 C 286.263 -3.5824 -2.72 0
M  V30 3138 C 287.582 -1.9079 -3.96594 0
M  V30 3139 H 284.701 -0.442135 -0.589649 0
M  V30 3140 H 287.343 -1.6124 -1.00507 0
M  V30 3141 H 285.493 -1.71913 -3.48394 0
M  V30 3142 H 287.165 -4.0228 -2.25762 0
M  V30 3143 H 285.408 -3.81647 -2.06224 0
M  V30 3144 H 286.079 -4.12657 -3.66631 0
M  V30 3145 H 288.555 -2.20459 -3.52898 0
M  V30 3146 H 287.431 -2.52199 -4.87531 0
M  V30 3147 H 287.692 -0.871341 -4.33428 0
M  V30 3148 N 286.751 1.08385 -1.14413 0
M  V30 3149 C 288.028 1.77429 -0.823297 0
M  V30 3150 C 288.408 1.9974 0.683163 0
M  V30 3151 O 287.756 1.60739 1.62405 0
M  V30 3152 C 287.966 3.09004 -1.62227 0
M  V30 3153 C 289.314 3.83532 -1.82177 0
M  V30 3154 O 290.338 3.18786 -1.58915 0
M  V30 3155 O 289.197 4.99792 -2.21067 0
M  V30 3156 H 286.291 0.769999 -0.301712 0
M  V30 3157 H 288.837 1.14846 -1.24934 0
M  V30 3158 H 287.609 2.88316 -2.64555 0
M  V30 3159 H 287.232 3.79316 -1.19187 0
M  V30 3160 N 288.23 0.939286 1.26551 0
M  V30 3161 C 289.16 0.465044 2.28822 0
M  V30 3162 C 290.141 -0.480692 1.63167 0
M  V30 3163 O 291.326 -0.382955 1.90387 0
M  V30 3164 C 288.456 -0.27234 3.46231 0
M  V30 3165 C 287.41 0.58666 4.2396 0
M  V30 3166 C 286.736 -0.280573 5.33963 0
M  V30 3167 C 288.036 1.85704 4.88171 0
M  V30 3168 H 289.73 1.31979 2.68741 0
M  V30 3169 H 287.276 0.636061 1.29191 0
M  V30 3170 H 289.229 -0.615133 4.16886 0
M  V30 3171 H 287.953 -1.16121 3.0526 0
M  V30 3172 H 286.612 0.91232 3.55067 0
M  V30 3173 H 286.26 -1.16874 4.89234 0
M  V30 3174 H 285.96 0.29076 5.8688 0
M  V30 3175 H 287.484 -0.618678 6.07458 0
M  V30 3176 H 288.898 1.58161 5.51052 0
M  V30 3177 H 287.295 2.37279 5.51197 0
M  V30 3178 H 288.365 2.56957 4.11219 0
M  V30 3179 N 289.708 -1.40897 0.706093 0
M  V30 3180 C 290.954 -2.01849 0.250681 0
M  V30 3181 C 291.309 -1.5496 -1.14041 0
M  V30 3182 O 290.602 -0.755566 -1.76073 0
M  V30 3183 C 290.796 -3.5646 0.259099 0
M  V30 3184 C 290.625 -4.18357 1.64947 0
M  V30 3185 C 289.395 -4.522 2.25485 0
M  V30 3186 C 291.593 -4.43856 2.598 0
M  V30 3187 N 289.575 -4.9944 3.56977 0
M  V30 3188 C 290.946 -4.92986 3.75985 0
M  V30 3189 C 293.001 -4.25882 2.57933 0
M  V30 3190 C 291.704 -5.2603 4.90597 0
M  V30 3191 C 293.73 -4.6002 3.71665 0
M  V30 3192 C 293.092 -5.09331 4.86581 0
M  V30 3193 H 289.191 -0.769843 0.137353 0
M  V30 3194 H 291.775 -1.71278 0.925845 0
M  V30 3195 H 289.946 -3.86481 -0.385592 0
M  V30 3196 H 291.678 -4.04144 -0.21213 0
M  V30 3197 H 288.433 -4.3901 1.77671 0
M  V30 3198 H 288.857 -5.27454 4.24407 0
M  V30 3199 H 293.499 -3.86986 1.70298 0
M  V30 3200 H 291.217 -5.63843 5.78884 0
M  V30 3201 H 294.803 -4.47762 3.71484 0
M  V30 3202 H 293.683 -5.35251 5.73129 0
M  V30 3203 N 291.186 -0.45159 -1.50991 0
M  V30 3204 C 292.411 0.110667 -2.07105 0
M  V30 3205 C 292.836 1.3446 -1.31538 0
M  V30 3206 O 292.194 1.77743 -0.357365 0
M  V30 3207 C 292.242 0.397238 -3.58405 0
M  V30 3208 O 291.346 1.48124 -3.84881 0
M  V30 3209 H 290.687 -0.00439271 -0.663985 0
M  V30 3210 H 293.217 -0.637026 -1.9443 0
M  V30 3211 H 293.227 0.64351 -4.02893 0
M  V30 3212 H 291.902 -0.504553 -4.12828 0
M  V30 3213 H 290.479 1.22381 -3.52246 0
M  V30 3214 N 292.664 1.56529 -0.183458 0
M  V30 3215 C 293.597 2.14417 0.781052 0
M  V30 3216 C 294.575 1.07761 1.21763 0
M  V30 3217 O 295.759 1.35807 1.30724 0
M  V30 3218 C 292.886 2.69361 2.05335 0
M  V30 3219 C 291.932 3.885 1.75982 0
M  V30 3220 S 292.765 5.27568 0.918256 0
M  V30 3221 C 293.921 5.85926 2.20095 0
M  V30 3222 H 294.154 2.95893 0.2889 0
M  V30 3223 H 291.687 1.54368 0.0313844 0
M  V30 3224 H 293.645 3.01662 2.78406 0
M  V30 3225 H 292.306 1.87949 2.51663 0
M  V30 3226 H 291.499 4.25314 2.70415 0
M  V30 3227 H 291.101 3.57149 1.10999 0
M  V30 3228 H 293.393 5.99579 3.15453 0
M  V30 3229 H 294.336 6.82761 1.87731 0
M  V30 3230 H 294.744 5.14438 2.32409 0
M  V30 3231 N 294.142 -0.090211 1.57342 0
M  V30 3232 C 295.39 -0.791241 1.85967 0
M  V30 3233 C 295.711 -1.7903 0.772859 0
M  V30 3234 O 294.981 -1.94872 -0.200398 0
M  V30 3235 H 293.561 -0.295205 0.686195 0
M  V30 3236 H 296.223 -0.0706782 1.94772 0
M  V30 3237 H 295.319 -1.31882 2.82867 0
M  V30 3238 N 295.62 -1.53406 -0.361157 0
M  V30 3239 C 296.866 -1.70054 -1.10496 0
M  V30 3240 C 297.199 -0.453278 -1.88836 0
M  V30 3241 O 296.474 0.5495 -1.86576 0
M  V30 3242 C 296.757 -2.95317 -2.06058 0
M  V30 3243 C 296.61 -4.3021 -1.31298 0
M  V30 3244 C 297.929 -3.16193 -3.06121 0
M  V30 3245 H 295.048 -0.618799 -0.400321 0
M  V30 3246 H 297.69 -1.86052 -0.385318 0
M  V30 3247 H 295.84 -2.81809 -2.67425 0
M  V30 3248 H 297.512 -4.55538 -0.726807 0
M  V30 3249 H 295.755 -4.29421 -0.614853 0
M  V30 3250 H 296.426 -5.14 -2.01265 0
M  V30 3251 H 298.902 -3.28916 -2.5486 0
M  V30 3252 H 297.778 -4.05266 -3.70204 0
M  V30 3253 H 298.039 -2.31676 -3.76535 0
M  V30 3254 N 297.098 0.621204 -1.44841 0
M  V30 3255 C 298.347 1.37658 -1.47422 0
M  V30 3256 C 298.66 1.95264 -0.114629 0
M  V30 3257 O 299.866 2.71494 -0.0180199 0
M  V30 3258 C 298.322 2.49285 -2.59586 0
M  V30 3259 C 297.93 1.98149 -4.01797 0
M  V30 3260 C 299.674 3.26409 -2.71399 0
M  V30 3261 C 297.581 3.07178 -5.05367 0
M  V30 3262 H 296.511 0.517344 -0.548517 0
M  V30 3263 H 299.162 0.667257 -1.70938 0
M  V30 3264 H 297.544 3.22839 -2.29328 0
M  V30 3265 H 298.718 1.31395 -4.41669 0
M  V30 3266 H 297.033 1.33812 -3.94314 0
M  V30 3267 H 299.63 4.07706 -3.45948 0
M  V30 3268 H 299.973 3.76535 -1.77559 0
M  V30 3269 H 300.506 2.5995 -3.01116 0
M  V30 3270 H 297.245 2.61985 -6.00869 0
M  V30 3271 H 296.765 3.72542 -4.70077 0
M  V30 3272 H 298.444 3.71789 -5.29511 0
M  V30 3273 N 298.576 1.31904 0.862503 0
M  V30 3274 C 299.506 1.22782 1.98612 0
M  V30 3275 C 300.487 0.113362 1.69722 0
M  V30 3276 O 301.672 0.299218 1.91881 0
M  V30 3277 C 298.802 0.942058 3.34279 0
M  V30 3278 C 297.756 2.0169 3.77499 0
M  V30 3279 C 297.082 1.58369 5.10709 0
M  V30 3280 C 298.382 3.43096 3.93805 0
M  V30 3281 H 300.076 2.16788 2.06502 0
M  V30 3282 H 297.622 1.04366 0.992154 0
M  V30 3283 H 299.575 0.864818 4.1243 0
M  V30 3284 H 298.299 -0.0336603 3.26583 0
M  V30 3285 H 296.958 2.08416 3.01593 0
M  V30 3286 H 296.606 0.595628 4.99461 0
M  V30 3287 H 296.306 2.30279 5.40597 0
M  V30 3288 H 297.83 1.52067 5.91361 0
M  V30 3289 H 299.244 3.39003 4.62331 0
M  V30 3290 H 297.641 4.13288 4.35101 0
M  V30 3291 H 298.711 3.83334 2.96957 0
M  V30 3292 N 300.054 -1.07777 1.14986 0
M  V30 3293 C 301.284 -1.83752 0.944402 0
M  V30 3294 C 301.692 -1.8218 -0.51058 0
M  V30 3295 O 301.035 -1.22852 -1.36576 0
M  V30 3296 C 301.097 -3.32128 1.37592 0
M  V30 3297 C 300.761 -3.57425 2.84775 0
M  V30 3298 C 301.758 -3.5173 3.8286 0
M  V30 3299 C 299.443 -3.8523 3.2234 0
M  V30 3300 C 301.437 -3.73482 5.16517 0
M  V30 3301 C 299.124 -4.06634 4.56171 0
M  V30 3302 C 300.122 -4.00754 5.53069 0
M  V30 3303 O 299.81 -4.2159 6.84483 0
M  V30 3304 H 299.542 -0.58673 0.335744 0
M  V30 3305 H 302.096 -1.36982 1.53052 0
M  V30 3306 H 300.326 -3.79686 0.733165 0
M  V30 3307 H 302.015 -3.89555 1.14024 0
M  V30 3308 H 302.781 -3.30256 3.55184 0
M  V30 3309 H 298.66 -3.88923 2.47508 0
M  V30 3310 H 302.204 -3.68808 5.92137 0
M  V30 3311 H 298.101 -4.27593 4.83564 0
M  V30 3312 H 298.869 -4.38961 6.90837 0
M  V30 3313 N 301.532 -0.945985 -1.26051 0
M  V30 3314 C 302.442 -0.465633 -2.29933 0
M  V30 3315 C 303.458 0.462761 -1.67733 0
M  V30 3316 O 304.634 0.341118 -1.9849 0
M  V30 3317 C 301.699 0.256994 -3.45746 0
M  V30 3318 C 300.76 -0.708549 -4.23412 0
M  V30 3319 C 299.993 -0.0203135 -5.33696 0
M  V30 3320 O 300.216 1.19571 -5.57726 0
M  V30 3321 O 299.15 -0.701459 -5.97799 0
M  V30 3322 H 302.976 -1.32866 -2.73094 0
M  V30 3323 H 300.561 -0.712071 -1.31339 0
M  V30 3324 H 302.443 0.663852 -4.16138 0
M  V30 3325 H 301.118 1.09533 -3.04605 0
M  V30 3326 H 300.025 -1.16545 -3.55483 0
M  V30 3327 H 301.358 -1.51465 -4.68315 0
M  V30 3328 N 303.011 1.40521 -0.713556 0
M  V30 3329 C 303.974 2.29098 -0.0684347 0
M  V30 3330 C 304.974 1.45268 0.689472 0
M  V30 3331 O 306.164 1.66205 0.521677 0
M  V30 3332 C 303.296 3.28446 0.913024 0
M  V30 3333 H 304.489 2.87645 -0.84855 0
M  V30 3334 H 302.042 1.48809 -0.47809 0
M  V30 3335 H 302.777 2.74913 1.72027 0
M  V30 3336 H 302.562 3.90327 0.372472 0
M  V30 3337 H 304.052 3.94777 1.36165 0
M  V30 3338 N 304.489 0.459591 1.5075 0
M  V30 3339 C 305.419 -0.330644 2.31147 0
M  V30 3340 C 306.4 -1.00087 1.37538 0
M  V30 3341 O 307.585 -1.00025 1.66459 0
M  V30 3342 C 304.715 -1.41958 3.16962 0
M  V30 3343 C 303.669 -0.871608 4.19031 0
M  V30 3344 C 302.995 -2.05797 4.9351 0
M  V30 3345 C 304.295 0.109251 5.22186 0
M  V30 3346 H 305.989 0.340336 2.97459 0
M  V30 3347 H 303.535 0.165119 1.4305 0
M  V30 3348 H 305.488 -1.9798 3.71997 0
M  V30 3349 H 304.212 -2.11917 2.48513 0
M  V30 3350 H 302.871 -0.333442 3.6508 0
M  V30 3351 H 302.519 -2.74427 4.21544 0
M  V30 3352 H 302.219 -1.6976 5.62544 0
M  V30 3353 H 303.743 -2.62331 5.51375 0
M  V30 3354 H 305.157 -0.361405 5.7216 0
M  V30 3355 H 303.554 0.383316 5.98875 0
M  V30 3356 H 304.624 1.03887 4.73641 0
M  V30 3357 N 305.967 -1.56429 0.191757 0
M  V30 3358 C 307.214 -1.97485 -0.447891 0
M  V30 3359 C 307.542 -1.07852 -1.61859 0
M  V30 3360 O 306.797 -0.116903 -1.95351 0
M  V30 3361 C 307.096 -3.44449 -0.953384 0
M  V30 3362 C 306.762 -4.50781 0.103586 0
M  V30 3363 C 305.424 -4.79584 0.394023 0
M  V30 3364 C 307.776 -5.1471 0.819946 0
M  V30 3365 C 305.104 -5.69607 1.40585 0
M  V30 3366 C 307.456 -6.05827 1.8209 0
M  V30 3367 C 306.12 -6.32987 2.11857 0
M  V30 3368 H 305.39 -0.722648 -0.163895 0
M  V30 3369 H 308.037 -1.89322 0.28802 0
M  V30 3370 H 306.342 -3.49666 -1.76751 0
M  V30 3371 H 308.039 -3.73569 -1.45765 0
M  V30 3372 H 304.629 -4.28394 -0.132951 0
M  V30 3373 H 308.813 -4.92552 0.608789 0
M  V30 3374 H 304.069 -5.88926 1.64243 0
M  V30 3375 H 308.243 -6.54424 2.38123 0
M  V30 3376 H 305.87 -7.02544 2.90407 0
M  V30 3377 N 307.445 0.0818655 -1.57387 0
M  V30 3378 C 308.693 0.781368 -1.86384 0
M  V30 3379 C 309.014 1.78618 -0.782342 0
M  V30 3380 O 308.284 1.94976 0.190061 0
M  V30 3381 H 306.864 0.291562 -0.687751 0
M  V30 3382 H 309.526 0.060348 -1.94807 0
M  V30 3383 H 308.622 1.3038 -2.83562 0
M  V30 3384 N 308.923 1.53595 0.353017 0
M  V30 3385 C 309.855 1.77219 1.45348 0
M  V30 3386 C 310.868 0.65324 1.49119 0
M  V30 3387 O 312.057 0.929775 1.52373 0
M  V30 3388 C 309.157 1.84841 2.84055 0
M  V30 3389 C 308.33 3.14649 3.03833 0
M  V30 3390 C 307.389 3.13351 4.22727 0
M  V30 3391 O 306.415 3.87107 4.17297 0
M  V30 3392 N 307.617 2.35052 5.30783 0
M  V30 3393 H 310.382 2.72178 1.25457 0
M  V30 3394 H 307.943 1.52528 0.542833 0
M  V30 3395 H 309.935 1.81435 3.61751 0
M  V30 3396 H 308.505 0.971114 2.97133 0
M  V30 3397 H 307.725 3.31256 2.13689 0
M  V30 3398 H 309.013 4.00411 3.13925 0
M  V30 3399 H 308.411 1.74663 5.38061 0
M  V30 3400 H 306.968 2.37453 6.07009 0
M  V30 3401 N 310.401 -0.613514 1.45168 0
M  V30 3402 C 311.812 -1.19539 1.43413 0
M  V30 3403 C 312.163 -1.95558 0.158632 0
M  V30 3404 O 311.288 -2.0335 -0.740119 0
M  V30 3405 C 311.883 -2.17445 2.59813 0
M  V30 3406 C 310.442 -2.71022 2.61197 0
M  V30 3407 C 309.589 -1.46323 2.35552 0
M  V30 3408 H 312.54 -0.403163 1.53494 0
M  V30 3409 H 312.561 -3.00373 2.33574 0
M  V30 3410 H 312.073 -1.62089 3.52631 0
M  V30 3411 H 310.174 -3.30332 1.7237 0
M  V30 3412 H 310.287 -3.15859 3.60236 0
M  V30 3413 H 308.651 -1.75072 1.84992 0
M  V30 3414 H 309.434 -0.92844 3.30507 0
M  V30 3415 N 311.879 -1.3236 -0.855495 0
M  V30 3416 C 313.29 -1.2056 -1.42556 0
M  V30 3417 C 313.641 0.182209 -1.95352 0
M  V30 3418 O 312.766 1.08088 -1.87472 0
M  V30 3419 C 313.361 -2.1826 -2.59129 0
M  V30 3420 C 311.92 -2.10351 -3.12137 0
M  V30 3421 C 311.067 -2.06674 -1.84882 0
M  V30 3422 H 314.018 -1.442 -0.662727 0
M  V30 3423 H 314.039 -1.78064 -3.36264 0
M  V30 3424 H 313.551 -3.19257 -2.20673 0
M  V30 3425 H 311.652 -1.12599 -3.55179 0
M  V30 3426 H 311.765 -3.00135 -3.73438 0
M  V30 3427 H 310.129 -1.51901 -2.04446 0
M  V30 3428 H 310.912 -3.09451 -1.48643 0
M  V30 3429 N 313.357 1.07166 -1.15556 0
M  V30 3430 C 314.604 1.79798 -0.931604 0
M  V30 3431 C 314.932 1.8682 0.54115 0
M  V30 3432 O 314.187 1.34942 1.41736 0
M  V30 3433 C 314.486 3.24707 -1.49332 0
M  V30 3434 C 314.152 3.37781 -2.98688 0
M  V30 3435 C 312.814 3.41057 -3.39461 0
M  V30 3436 C 315.166 3.40424 -3.94665 0
M  V30 3437 C 312.494 3.4458 -4.74849 0
M  V30 3438 C 314.846 3.45485 -5.29927 0
M  V30 3439 C 313.51 3.47039 -5.70193 0
M  V30 3440 H 312.78 0.657928 -0.340898 0
M  V30 3441 H 315.427 1.26091 -1.44129 0
M  V30 3442 H 313.732 3.81208 -0.904859 0
M  V30 3443 H 315.429 3.79486 -1.29582 0
M  V30 3444 H 312.019 3.35932 -2.66172 0
M  V30 3445 H 316.203 3.37113 -3.64237 0
M  V30 3446 H 311.459 3.44083 -5.05388 0
M  V30 3447 H 315.633 3.46476 -6.04092 0
M  V30 3448 H 313.26 3.49522 -6.75084 0
M  V30 3449 N 314.835 0.952656 1.25548 0
M  V30 3450 C 315.798 0.475794 2.24207 0
M  V30 3451 C 316.798 -0.419428 1.55234 0
M  V30 3452 O 317.988 -0.216994 1.72843 0
M  V30 3453 C 315.12 -0.312814 3.39462 0
M  V30 3454 H 316.313 1.34779 2.67908 0
M  V30 3455 H 313.866 0.735739 1.37901 0
M  V30 3456 H 314.601 -1.20257 3.01179 0
M  V30 3457 H 314.386 0.329404 3.90714 0
M  V30 3458 H 315.876 -0.635986 4.12729 0
M  V30 3459 N 316.313 -1.40141 0.720998 0
M  V30 3460 C 317.538 -2.05618 0.271258 0
M  V30 3461 C 317.963 -1.53978 -1.08039 0
M  V30 3462 O 317.321 -0.677463 -1.68167 0
M  V30 3463 C 317.369 -3.59609 0.267197 0
M  V30 3464 O 316.473 -4.05526 -0.749814 0
M  V30 3465 H 315.814 -0.651904 0.126162 0
M  V30 3466 H 318.344 -1.79439 0.982997 0
M  V30 3467 H 318.354 -4.0786 0.106744 0
M  V30 3468 H 317.029 -3.96559 1.25354 0
M  V30 3469 H 315.606 -3.68722 -0.556644 0
M  V30 3470 N 317.792 -0.46758 -1.50504 0
M  V30 3471 C 319.208 -0.121533 -1.59137 0
M  V30 3472 C 319.408 1.3717 -1.47603 0
M  V30 3473 O 318.464 2.14464 -1.33272 0
M  V30 3474 C 319.777 -0.6686 -2.93173 0
M  V30 3475 C 321.325 -0.631716 -3.06559 0
M  V30 3476 C 321.8 -1.15627 -4.43164 0
M  V30 3477 N 323.291 -1.11553 -4.49567 0
M  V30 3478 C 324.026 -1.49195 -5.5365 0
M  V30 3479 N 323.522 -1.94269 -6.65005 0
M  V30 3480 N 325.315 -1.4082 -5.44175 0
M  V30 3481 H 317.466 -1.4388 -1.56245 0
M  V30 3482 H 319.729 -0.594784 -0.738198 0
M  V30 3483 H 319.435 -1.71453 -3.07078 0
M  V30 3484 H 319.309 -0.11021 -3.77039 0
M  V30 3485 H 321.696 0.405297 -2.92304 0
M  V30 3486 H 321.777 -1.22687 -2.24458 0
M  V30 3487 H 321.421 -2.1919 -4.58168 0
M  V30 3488 H 321.351 -0.537365 -5.23851 0
M  V30 3489 H 323.842 -0.784895 -3.69659 0
M  V30 3490 H 324.155 -2.21148 -7.40482 0
M  V30 3491 H 322.5 -1.98219 -6.66134 0
M  V30 3492 H 325.691 -1.0545 -4.56068 0
M  V30 3493 H 325.864 -1.70481 -6.25172 0
M  V30 3494 N 319.27 1.56325 -0.20005 0
M  V30 3495 C 320.495 2.02548 0.44597 0
M  V30 3496 C 320.92 1.07922 1.5406 0
M  V30 3497 O 320.278 0.0635775 1.81188 0
M  V30 3498 C 320.326 3.47175 0.974761 0
M  V30 3499 O 319.43 3.55671 2.08739 0
M  V30 3500 H 318.771 0.655862 0.103638 0
M  V30 3501 H 321.301 2.02201 -0.312381 0
M  V30 3502 H 321.311 3.87067 1.2901 0
M  V30 3503 H 319.986 4.15538 0.17347 0
M  V30 3504 H 318.563 3.27657 1.78032 0
M  V30 3505 N 320.748 -0.0735177 1.57428 0
M  V30 3506 C 321.995 -0.772999 1.87166 0
M  V30 3507 C 322.323 -1.77665 0.791551 0
M  V30 3508 O 321.578 -1.94541 -0.212636 0
M  V30 3509 C 321.877 -1.51799 3.23561 0
M  V30 3510 C 321.543 -0.654484 4.46125 0
M  V30 3511 C 320.205 -0.416511 4.79394 0
M  V30 3512 C 322.557 -0.0555862 5.2117 0
M  V30 3513 C 319.885 0.429869 5.85123 0
M  V30 3514 C 322.237 0.778239 6.27795 0
M  V30 3515 C 320.901 1.0261 6.59566 0
M  V30 3516 H 320.171 -0.282861 0.684888 0
M  V30 3517 H 322.818 -0.0338272 1.9147 0
M  V30 3518 H 321.123 -2.32932 3.1504 0
M  V30 3519 H 322.82 -2.06397 3.43804 0
M  V30 3520 H 319.41 -0.850091 4.20085 0
M  V30 3521 H 323.594 -0.226558 4.95783 0
M  V30 3522 H 318.85 0.630665 6.08139 0
M  V30 3523 H 323.024 1.24906 6.85107 0
M  V30 3524 H 320.651 1.68371 7.4132 0
M  V30 3525 N 322.226 -1.5378 -0.344866 0
M  V30 3526 C 323.451 -1.75211 -1.10977 0
M  V30 3527 C 323.876 -0.48936 -1.81623 0
M  V30 3528 O 323.234 0.557925 -1.72502 0
M  V30 3529 C 323.282 -2.93147 -2.09993 0
M  V30 3530 O 322.386 -2.63203 -3.17487 0
M  V30 3531 H 321.727 -0.581241 -0.321021 0
M  V30 3532 H 324.257 -2.00738 -0.395661 0
M  V30 3533 H 324.267 -3.19898 -2.53237 0
M  V30 3534 H 322.942 -3.84731 -1.5797 0
M  V30 3535 H 321.519 -2.47336 -2.79069 0
M  V30 3536 N 323.704 0.605807 -1.45491 0
M  V30 3537 C 324.614 1.74466 -1.56839 0
M  V30 3538 C 325.63 1.68006 -0.452772 0
M  V30 3539 O 326.806 1.8833 -0.713708 0
M  V30 3540 C 323.871 3.10931 -1.53371 0
M  V30 3541 C 322.932 3.28832 -2.75986 0
M  V30 3542 C 322.165 4.58787 -2.72673 0
M  V30 3543 O 322.388 5.4122 -1.80102 0
M  V30 3544 O 321.322 4.79438 -3.63899 0
M  V30 3545 H 325.148 1.67843 -2.53106 0
M  V30 3546 H 322.733 0.770108 -1.28022 0
M  V30 3547 H 324.615 3.92233 -1.54051 0
M  V30 3548 H 323.29 3.18042 -0.602572 0
M  V30 3549 H 322.197 2.47112 -2.80867 0
M  V30 3550 H 323.53 3.26599 -3.68231 0
M  V30 3551 N 325.182 1.32811 0.848464 0
M  V30 3552 C 326.112 1.24882 1.97299 0
M  V30 3553 C 327.093 0.131357 1.69592 0
M  V30 3554 O 328.278 0.319553 1.91553 0
M  V30 3555 C 325.408 0.97746 3.33261 0
M  V30 3556 C 324.362 2.05682 3.75338 0
M  V30 3557 C 323.688 1.63777 5.09 0
M  V30 3558 C 324.988 3.47254 3.90144 0
M  V30 3559 H 326.682 2.18966 2.04191 0
M  V30 3560 H 324.228 1.05413 0.981029 0
M  V30 3561 H 326.181 0.908513 4.1149 0
M  V30 3562 H 324.905 0.000980011 3.266 0
M  V30 3563 H 323.564 2.11603 2.99366 0
M  V30 3564 H 323.212 0.648569 4.98801 0
M  V30 3565 H 322.912 2.36 5.38124 0
M  V30 3566 H 324.436 1.5833 5.89715 0
M  V30 3567 H 325.85 3.43888 4.58709 0
M  V30 3568 H 324.247 4.1788 4.30693 0
M  V30 3569 H 325.317 3.86462 2.92874 0
M  V30 3570 N 326.66 -1.06551 1.16123 0
M  V30 3571 C 327.57 -2.17484 0.879662 0
M  V30 3572 C 328.586 -1.73377 -0.147104 0
M  V30 3573 O 329.762 -2.01379 0.0289128 0
M  V30 3574 C 326.827 -3.44591 0.381829 0
M  V30 3575 C 325.888 -4.0322 1.4735 0
M  V30 3576 C 325.121 -5.24261 0.999324 0
M  V30 3577 O 325.344 -5.70198 -0.151957 0
M  V30 3578 O 324.278 -5.74775 1.78653 0
M  V30 3579 H 328.104 -2.44075 1.80724 0
M  V30 3580 H 325.689 -1.16042 0.940992 0
M  V30 3581 H 327.571 -4.21254 0.111053 0
M  V30 3582 H 326.246 -3.19532 -0.51777 0
M  V30 3583 H 325.153 -3.2806 1.79798 0
M  V30 3584 H 326.486 -4.32568 2.34831 0
M  V30 3585 N 328.138 -0.959301 -1.25041 0
M  V30 3586 C 329.048 -0.489994 -2.29426 0
M  V30 3587 C 330.064 0.444944 -1.68215 0
M  V30 3588 O 331.24 0.320046 -1.98841 0
M  V30 3589 C 328.305 0.220309 -3.45999 0
M  V30 3590 C 327.366 -0.753418 -4.22637 0
M  V30 3591 C 326.599 -0.076918 -5.33645 0
M  V30 3592 O 326.822 1.13649 -5.58963 0
M  V30 3593 O 325.756 -0.764824 -5.97021 0
M  V30 3594 H 329.582 -1.35755 -2.71669 0
M  V30 3595 H 327.167 -0.725961 -1.30576 0
M  V30 3596 H 329.049 0.619677 -4.16819 0
M  V30 3597 H 327.724 1.06296 -3.0575 0
M  V30 3598 H 326.631 -1.20308 -3.54227 0
M  V30 3599 H 327.964 -1.56423 -4.66683 0
M  V30 3600 N 329.616 1.39756 -0.72842 0
M  V30 3601 C 330.563 2.30647 -0.0841519 0
M  V30 3602 C 331.533 1.48869 0.7367 0
M  V30 3603 O 332.718 1.77574 0.698015 0
M  V30 3604 C 329.858 3.35165 0.822091 0
M  V30 3605 C 328.971 4.31999 -0.0106663 0
M  V30 3606 C 328.106 5.23585 0.896241 0
M  V30 3607 C 327.145 6.12072 0.0583381 0
M  V30 3608 N 326.282 6.96035 0.920818 0
M  V30 3609 H 331.122 2.85173 -0.864891 0
M  V30 3610 H 328.659 1.40422 -0.438179 0
M  V30 3611 H 330.617 3.94345 1.36189 0
M  V30 3612 H 329.247 2.8211 1.56888 0
M  V30 3613 H 328.299 3.74492 -0.66781 0
M  V30 3614 H 329.611 4.9443 -0.658825 0
M  V30 3615 H 328.765 5.87759 1.50412 0
M  V30 3616 H 327.504 4.61459 1.57819 0
M  V30 3617 H 326.509 5.46916 -0.562389 0
M  V30 3618 H 327.734 6.76261 -0.6203 0
M  V30 3619 H 325.68 6.36485 1.58818 0
M  V30 3620 H 325.597 7.55284 0.32899 0
M  V30 3621 H 326.865 7.64646 1.51447 0
M  V30 3622 N 331.094 0.475555 1.50254 0
M  V30 3623 C 332.343 -0.0795996 2.01543 0
M  V30 3624 C 332.656 -1.4038 1.36209 0
M  V30 3625 O 333.862 -2.04415 1.7868 0
M  V30 3626 C 332.318 -0.192363 3.59386 0
M  V30 3627 C 331.926 1.12367 4.33679 0
M  V30 3628 C 333.67 -0.699238 4.18701 0
M  V30 3629 C 331.577 0.974453 5.83317 0
M  V30 3630 H 330.507 -0.0335228 0.753254 0
M  V30 3631 H 333.158 0.611128 1.73025 0
M  V30 3632 H 331.54 -0.946974 3.84511 0
M  V30 3633 H 332.714 1.88958 4.20276 0
M  V30 3634 H 331.029 1.562 3.85993 0
M  V30 3635 H 333.626 -0.827978 5.28251 0
M  V30 3636 H 333.969 -1.69171 3.80377 0
M  V30 3637 H 334.502 -0.00188807 3.978 0
M  V30 3638 H 331.241 1.94042 6.26121 0
M  V30 3639 H 330.761 0.248998 5.99283 0
M  V30 3640 H 332.44 0.642867 6.43798 0
M  V30 3641 N 332.573 -1.56217 0.208337 0
M  V30 3642 C 333.989 -1.58919 -0.14729 0
M  V30 3643 C 334.189 -1.22486 -1.59998 0
M  V30 3644 O 333.245 -0.953849 -2.3379 0
M  V30 3645 C 334.558 -3.00236 0.167048 0
M  V30 3646 C 336.106 -3.12813 0.108219 0
M  V30 3647 C 336.581 -4.56284 0.396049 0
M  V30 3648 N 338.072 -4.61912 0.345142 0
M  V30 3649 C 338.807 -5.70837 0.541523 0
M  V30 3650 N 338.303 -6.88178 0.798968 0
M  V30 3651 N 340.096 -5.60091 0.474867 0
M  V30 3652 H 332.247 -1.78177 1.15614 0
M  V30 3653 H 334.51 -0.827555 0.462446 0
M  V30 3654 H 334.216 -3.31499 1.1748 0
M  V30 3655 H 334.09 -3.7354 -0.524184 0
M  V30 3656 H 336.477 -2.81354 -0.890157 0
M  V30 3657 H 336.558 -2.41866 0.832729 0
M  V30 3658 H 336.202 -4.88458 1.3918 0
M  V30 3659 H 336.132 -5.25439 -0.349502 0
M  V30 3660 H 338.623 -3.77589 0.153316 0
M  V30 3661 H 338.936 -7.67095 0.93727 0
M  V30 3662 H 337.281 -6.89953 0.836013 0
M  V30 3663 H 340.472 -4.67297 0.274064 0
M  V30 3664 H 340.645 -6.44917 0.631326 0
M  V30 3665 N 334.051 0.0651679 -1.57465 0
M  V30 3666 C 335.276 0.779605 -1.9219 0
M  V30 3667 C 335.701 1.69988 -0.805333 0
M  V30 3668 O 335.059 1.79685 0.241435 0
M  V30 3669 C 335.107 1.54364 -3.2589 0
M  V30 3670 O 334.211 2.65474 -3.1559 0
M  V30 3671 H 333.552 0.212249 -0.629163 0
M  V30 3672 H 336.082 0.0314294 -2.04576 0
M  V30 3673 H 336.092 1.92146 -3.59922 0
M  V30 3674 H 334.767 0.868457 -4.06732 0
M  V30 3675 H 333.344 2.30501 -2.93128 0
M  V30 3676 N 335.529 1.53961 0.336706 0
M  V30 3677 C 336.477 1.83136 1.43401 0
M  V30 3678 C 337.471 0.702313 1.54156 0
M  V30 3679 O 338.677 0.885765 1.56698 0
M  V30 3680 H 335.052 0.580309 0.478273 0
M  V30 3681 H 337.023 2.74925 1.16012 0
M  V30 3682 C 335.772 2.06385 2.79822 0
M  V30 3683 H 335.095 2.92718 2.72316 0
M  V30 3684 H 336.535 2.30761 3.55704 0
M  V30 3685 C 334.994 0.851414 3.25964 0
M  V30 3686 O 335.524 0.0541904 4.01663 0
M  V30 3687 N 333.73 0.66672 2.82848 0
M  V30 3688 H 333.277 1.31665 2.21409 0
M  V30 3689 H 333.235 -0.143032 3.14074 0
M  V30 3690 N 337.007 -0.598083 1.45811 0
M  V30 3691 C 338.423 -0.919847 1.30426 0
M  V30 3692 C 338.623 -1.99759 0.264303 0
M  V30 3693 O 337.679 -2.50221 -0.338472 0
M  V30 3694 C 338.992 -1.35176 2.68603 0
M  V30 3695 C 340.54 -1.46546 2.76574 0
M  V30 3696 C 341.015 -1.9311 4.15298 0
M  V30 3697 N 342.506 -2.00328 4.1764 0
M  V30 3698 C 343.241 -2.37599 5.21856 0
M  V30 3699 N 342.737 -2.73771 6.36413 0
M  V30 3700 N 344.53 -2.38021 5.09218 0
M  V30 3701 H 336.681 0.114111 2.12093 0
M  V30 3702 H 338.944 -0.0116121 0.947929 0
M  V30 3703 H 338.65 -0.633969 3.45939 0
M  V30 3704 H 338.524 -2.3164 2.97696 0
M  V30 3705 H 340.911 -2.17415 1.99537 0
M  V30 3706 H 340.992 -0.483727 2.51185 0
M  V30 3707 H 340.636 -1.22824 4.92825 0
M  V30 3708 H 340.566 -2.92213 4.38086 0
M  V30 3709 H 343.057 -1.74925 3.34977 0
M  V30 3710 H 343.37 -3.0112 7.11721 0
M  V30 3711 H 341.715 -2.71445 6.39799 0
M  V30 3712 H 344.906 -2.09174 4.18765 0
M  V30 3713 H 345.079 -2.66741 5.90554 0
M  V30 3714 N 338.485 -1.33259 -0.841409 0
M  V30 3715 C 339.731 -1.24757 -1.59886 0
M  V30 3716 C 340.064 0.186913 -1.93298 0
M  V30 3717 O 339.339 1.12757 -1.5848 0
M  V30 3718 C 339.622 -2.12036 -2.91055 0
M  V30 3719 C 339.475 -3.63929 -2.6434 0
M  V30 3720 C 340.794 -1.9916 -3.92458 0
M  V30 3721 H 337.913 -0.454542 -0.580138 0
M  V30 3722 H 340.555 -1.63335 -0.970647 0
M  V30 3723 H 338.705 -1.79265 -3.44669 0
M  V30 3724 H 340.377 -4.06978 -2.17178 0
M  V30 3725 H 338.62 -3.85935 -1.98082 0
M  V30 3726 H 339.291 -4.20341 -3.57796 0
M  V30 3727 H 341.767 -2.27895 -3.48143 0
M  V30 3728 H 340.643 -2.62484 -4.82072 0
M  V30 3729 H 340.904 -0.963082 -4.31482 0
M  V30 3730 N 339.963 1.05934 -1.16686 0
M  V30 3731 C 341.212 1.78188 -0.945085 0
M  V30 3732 C 341.525 1.88338 0.528021 0
M  V30 3733 O 342.731 2.57258 0.867799 0
M  V30 3734 C 341.187 3.20277 -1.64167 0
M  V30 3735 C 340.795 3.18281 -3.15279 0
M  V30 3736 C 342.539 3.97039 -1.502 0
M  V30 3737 C 340.446 4.55112 -3.7766 0
M  V30 3738 H 339.376 0.667866 -0.349959 0
M  V30 3739 H 342.027 1.18794 -1.39858 0
M  V30 3740 H 340.409 3.79952 -1.11589 0
M  V30 3741 H 341.583 2.68167 -3.74731 0
M  V30 3742 H 339.898 2.55018 -3.29173 0
M  V30 3743 H 342.495 4.98194 -1.94183 0
M  V30 3744 H 342.838 4.13845 -0.451461 0
M  V30 3745 H 343.371 3.43894 -1.99954 0
M  V30 3746 H 340.11 4.43512 -4.82677 0
M  V30 3747 H 339.63 5.05406 -3.22994 0
M  V30 3748 H 341.309 5.24064 -3.79428 0
M  V30 3749 N 341.441 0.965919 1.2453 0
M  V30 3750 C 342.351 0.502154 2.29163 0
M  V30 3751 C 343.367 -0.436017 1.68448 0
M  V30 3752 O 344.543 -0.309497 1.99008 0
M  V30 3753 C 341.608 -0.201956 3.46111 0
M  V30 3754 C 340.669 0.775821 4.22232 0
M  V30 3755 C 339.902 0.105217 5.33596 0
M  V30 3756 O 340.125 -1.10683 5.59558 0
M  V30 3757 O 339.059 0.796475 5.96607 0
M  V30 3758 H 342.885 1.37194 2.70946 0
M  V30 3759 H 340.47 0.732875 1.30189 0
M  V30 3760 H 342.352 -0.597564 4.17142 0
M  V30 3761 H 341.027 -1.04673 3.06309 0
M  V30 3762 H 339.934 1.22185 3.53584 0
M  V30 3763 H 341.267 1.58896 4.65846 0
M  V30 3764 N 342.919 -1.39368 0.735821 0
M  V30 3765 C 343.849 -2.33234 0.111506 0
M  V30 3766 C 344.83 -1.53954 -0.723334 0
M  V30 3767 O 346.015 -1.82344 -0.668147 0
M  V30 3768 C 343.145 -3.38057 -0.795917 0
M  V30 3769 C 342.099 -4.2795 -0.065172 0
M  V30 3770 C 341.425 -5.23479 -1.08967 0
M  V30 3771 C 342.725 -5.10741 1.09273 0
M  V30 3772 H 344.419 -2.85692 0.895571 0
M  V30 3773 H 341.965 -1.37364 0.432109 0
M  V30 3774 H 343.918 -4.02675 -1.24221 0
M  V30 3775 H 342.642 -2.8404 -1.61211 0
M  V30 3776 H 341.301 -3.64813 0.361511 0
M  V30 3777 H 340.949 -4.65758 -1.89944 0
M  V30 3778 H 340.649 -5.84472 -0.605489 0
M  V30 3779 H 342.173 -5.90974 -1.53565 0
M  V30 3780 H 343.587 -5.68699 0.724841 0
M  V30 3781 H 341.984 -5.8088 1.50659 0
M  V30 3782 H 343.054 -4.45525 1.91404 0
M  V30 3783 N 344.397 -0.483516 -1.5 0
M  V30 3784 C 345.808 -0.0314176 -1.86674 0
M  V30 3785 C 346.159 1.37728 -1.39733 0
M  V30 3786 O 345.284 2.02327 -0.767635 0
M  V30 3787 C 345.879 -0.0502376 -3.38763 0
M  V30 3788 C 344.438 0.346442 -3.74802 0
M  V30 3789 C 343.585 -0.430366 -2.7394 0
M  V30 3790 H 346.536 -0.697182 -1.42566 0
M  V30 3791 H 346.557 0.749116 -3.73053 0
M  V30 3792 H 346.069 -1.07563 -3.72897 0
M  V30 3793 H 344.17 1.37572 -3.46273 0
M  V30 3794 H 344.283 0.0391486 -4.79084 0
M  V30 3795 H 342.647 0.117557 -2.54429 0
M  V30 3796 H 343.43 -1.4555 -3.10918 0
M  V30 3797 N 345.875 1.56104 -0.216619 0
M  V30 3798 C 346.805 2.23063 0.690296 0
M  V30 3799 C 347.786 1.20072 1.20485 0
M  V30 3800 O 348.971 1.48643 1.24976 0
M  V30 3801 C 346.101 2.90672 1.90072 0
M  V30 3802 C 345.055 4.00092 1.5202 0
M  V30 3803 C 344.381 4.54972 2.80899 0
M  V30 3804 C 345.681 5.17398 0.71391 0
M  V30 3805 H 347.375 2.99109 0.132038 0
M  V30 3806 H 344.921 1.43866 0.0620664 0
M  V30 3807 H 346.874 3.36204 2.54057 0
M  V30 3808 H 345.598 2.12066 2.48386 0
M  V30 3809 H 344.257 3.55283 0.903839 0
M  V30 3810 H 343.905 3.73102 3.37348 0
M  V30 3811 H 343.605 5.28817 2.56176 0
M  V30 3812 H 345.129 5.0322 3.45836 0
M  V30 3813 H 346.543 5.59342 1.25735 0
M  V30 3814 H 344.94 5.97444 0.563951 0
M  V30 3815 H 346.01 4.84088 -0.280527 0
M  V30 3816 N 347.353 -0.0568162 1.57498 0
M  V30 3817 C 348.769 -0.411933 1.54192 0
M  V30 3818 C 348.969 -1.78287 0.938942 0
M  V30 3819 O 348.025 -2.46483 0.547919 0
M  V30 3820 C 349.338 -0.339244 2.9878 0
M  V30 3821 C 350.886 -0.418348 3.10192 0
M  V30 3822 C 351.361 -0.375407 4.56459 0
M  V30 3823 N 352.852 -0.435038 4.61153 0
M  V30 3824 C 353.587 -0.424265 5.71828 0
M  V30 3825 N 353.083 -0.367418 6.91825 0
M  V30 3826 N 354.876 -0.471938 5.60115 0
M  V30 3827 H 347.027 0.840684 1.95055 0
M  V30 3828 H 349.29 0.316987 0.893433 0
M  V30 3829 H 348.996 0.601742 3.46514 0
M  V30 3830 H 348.87 -1.14371 3.59443 0
M  V30 3831 H 351.257 -1.34976 2.62422 0
M  V30 3832 H 351.338 0.414962 2.52412 0
M  V30 3833 H 350.982 0.552219 5.04889 0
M  V30 3834 H 350.912 -1.22645 5.12119 0
M  V30 3835 H 353.403 -0.482612 3.74806 0
M  V30 3836 H 353.716 -0.363535 7.71944 0
M  V30 3837 H 352.061 -0.333879 6.94198 0
M  V30 3838 H 355.252 -0.514145 4.65268 0
M  V30 3839 H 355.425 -0.460073 6.46365 0
M  V30 3840 N 348.832 -1.54138 -0.328536 0
M  V30 3841 C 350.243 -1.63395 -0.903272 0
M  V30 3842 C 350.594 -0.524828 -1.8905 0
M  V30 3843 O 349.719 0.343068 -2.13663 0
M  V30 3844 C 350.314 -2.9618 -1.64507 0
M  V30 3845 C 348.873 -3.0765 -2.1686 0
M  V30 3846 C 348.02 -2.58933 -0.992416 0
M  V30 3847 H 350.971 -1.58344 -0.106253 0
M  V30 3848 H 350.992 -2.86061 -2.50897 0
M  V30 3849 H 350.504 -3.76884 -0.926302 0
M  V30 3850 H 348.605 -2.31611 -2.91868 0
M  V30 3851 H 348.718 -4.1337 -2.42202 0
M  V30 3852 H 347.082 -2.14706 -1.37016 0
M  V30 3853 H 347.865 -3.42089 -0.288041 0
M  V30 3854 N 350.31 0.590341 -1.46126 0
M  V30 3855 C 351.24 1.71032 -1.58966 0
M  V30 3856 C 352.221 1.64302 -0.440335 0
M  V30 3857 O 353.406 1.82436 -0.665634 0
M  V30 3858 C 350.536 3.09665 -1.57241 0
M  V30 3859 C 349.49 3.31221 -2.71066 0
M  V30 3860 C 348.816 4.70303 -2.54399 0
M  V30 3861 C 350.116 3.19796 -4.1295 0
M  V30 3862 H 351.81 1.60543 -2.52718 0
M  V30 3863 H 349.356 0.770933 -1.21625 0
M  V30 3864 H 351.309 3.87831 -1.64819 0
M  V30 3865 H 350.033 3.21036 -0.600289 0
M  V30 3866 H 348.692 2.55452 -2.62944 0
M  V30 3867 H 348.34 4.78429 -1.55288 0
M  V30 3868 H 348.04 4.85679 -3.30741 0
M  V30 3869 H 349.564 5.50647 -2.63857 0
M  V30 3870 H 350.978 3.87815 -4.22223 0
M  V30 3871 H 349.375 3.46696 -4.89818 0
M  V30 3872 H 350.445 2.16983 -4.33643 0
M  V30 3873 N 351.788 1.33704 0.83433 0
M  V30 3874 C 352.718 1.26967 1.95963 0
M  V30 3875 C 353.699 0.149337 1.69443 0
M  V30 3876 O 354.884 0.339852 1.91203 0
M  V30 3877 C 352.014 1.01275 3.32206 0
M  V30 3878 C 350.968 2.09652 3.73136 0
M  V30 3879 C 350.294 1.69166 5.07235 0
M  V30 3880 C 351.594 3.51372 3.86439 0
M  V30 3881 H 353.288 2.2112 2.01857 0
M  V30 3882 H 350.834 1.06447 0.969793 0
M  V30 3883 H 352.787 0.952106 4.10503 0
M  V30 3884 H 351.511 0.0356203 3.26581 0
M  V30 3885 H 350.17 2.14766 2.97104 0
M  V30 3886 H 349.818 0.701437 4.98085 0
M  V30 3887 H 349.518 2.41694 5.35591 0
M  V30 3888 H 351.042 1.64576 5.88003 0
M  V30 3889 H 352.456 3.48734 4.55036 0
M  V30 3890 H 350.853 4.22425 4.26236 0
M  V30 3891 H 351.923 3.89546 2.88759 0
M  V30 3892 N 353.266 -1.05314 1.17247 0
M  V30 3893 C 354.491 -1.82509 0.985148 0
M  V30 3894 C 354.916 -1.82343 -0.461788 0
M  V30 3895 O 354.274 -1.23151 -1.33055 0
M  V30 3896 C 354.322 -3.26566 1.52929 0
M  V30 3897 O 353.426 -4.05666 0.742225 0
M  V30 3898 H 352.767 -0.564347 0.349869 0
M  V30 3899 H 355.297 -1.32718 1.55715 0
M  V30 3900 H 355.307 -3.77369 1.55103 0
M  V30 3901 H 353.982 -3.26001 2.58256 0
M  V30 3902 H 352.559 -3.64397 0.791794 0
M  V30 3903 N 354.744 -0.972509 -1.24016 0
M  V30 3904 C 356.16 -0.679827 -1.44397 0
M  V30 3905 C 356.36 0.756716 -1.86751 0
M  V30 3906 O 355.416 1.53007 -2.00861 0
M  V30 3907 C 356.729 -1.66803 -2.50195 0
M  V30 3908 C 358.277 -1.68119 -2.64017 0
M  V30 3909 C 358.752 -2.65748 -3.73017 0
M  V30 3910 N 360.243 -2.64219 -3.8045 0
M  V30 3911 C 360.978 -3.36433 -4.64328 0
M  V30 3912 N 360.474 -4.1818 -5.52356 0
M  V30 3913 N 362.267 -3.25235 -4.58453 0
M  V30 3914 H 354.418 -1.90059 -0.948228 0
M  V30 3915 H 356.681 -0.818527 -0.478245 0
M  V30 3916 H 356.387 -2.69498 -2.25973 0
M  V30 3917 H 356.261 -1.4446 -3.48441 0
M  V30 3918 H 358.648 -0.661319 -2.87594 0
M  V30 3919 H 358.729 -1.94525 -1.66113 0
M  V30 3920 H 358.373 -3.67872 -3.50189 0
M  V30 3921 H 358.303 -2.36619 -4.70446 0
M  V30 3922 H 360.794 -2.04887 -3.17537 0
M  V30 3923 H 361.107 -4.70157 -6.13329 0
M  V30 3924 H 359.452 -4.22273 -5.52006 0
M  V30 3925 H 362.643 -2.60829 -3.88698 0
M  V30 3926 H 362.816 -3.81776 -5.23594 0
M  V30 3927 N 356.222 1.38976 -0.743202 0
M  V30 3928 C 357.499 1.94351 -0.220705 0
M  V30 3929 C 357.879 1.67935 1.2791 0
M  V30 3930 O 357.227 1.01211 2.04862 0
M  V30 3931 C 357.437 3.44426 -0.563171 0
M  V30 3932 C 358.785 4.2144 -0.517046 0
M  V30 3933 O 359.809 3.52661 -0.500846 0
M  V30 3934 O 358.668 5.44032 -0.518806 0
M  V30 3935 H 355.762 0.825879 -0.043047 0
M  V30 3936 H 358.308 1.48429 -0.822618 0
M  V30 3937 H 357.08 3.5712 -1.59941 0
M  V30 3938 H 356.703 3.97543 0.0672883 0
M  V30 3939 N 357.7 0.491464 1.49741 0
M  V30 3940 C 358.94 -0.0549118 2.04326 0
M  V30 3941 C 359.304 -1.35148 1.36378 0
M  V30 3942 O 360.505 -1.9815 1.81631 0
M  V30 3943 C 358.776 -0.213841 3.5676 0
M  V30 3944 S 360.335 -0.715839 4.32922 0
M  V30 3945 H 357.153 -0.00630513 0.710972 0
M  V30 3946 H 359.755 0.663257 1.83905 0
M  V30 3947 H 358.459 0.73527 4.0376 0
M  V30 3948 H 357.99 -0.957529 3.81569 0
M  V30 3949 H 360.005 -1.9864 4.54705 0
M  V30 3950 N 359.178 -1.55987 0.224894 0
M  V30 3951 C 360.594 -1.59066 -0.130426 0
M  V30 3952 C 360.794 -1.24176 -1.5869 0
M  V30 3953 O 359.85 -0.978592 -2.32766 0
M  V30 3954 C 361.163 -3.00042 0.198883 0
M  V30 3955 C 362.711 -3.1268 0.141391 0
M  V30 3956 C 363.186 -4.55839 0.444422 0
M  V30 3957 N 364.677 -4.6152 0.394115 0
M  V30 3958 C 365.412 -5.70231 0.602038 0
M  V30 3959 N 364.908 -6.87291 0.871914 0
M  V30 3960 N 366.701 -5.59555 0.534245 0
M  V30 3961 H 358.852 -1.76941 1.17497 0
M  V30 3962 H 361.115 -0.822604 0.471197 0
M  V30 3963 H 360.821 -3.30234 1.2099 0
M  V30 3964 H 360.695 -3.74075 -0.484535 0
M  V30 3965 H 363.082 -2.82283 -0.860265 0
M  V30 3966 H 363.163 -2.40969 0.858335 0
M  V30 3967 H 362.807 -4.86954 1.44353 0
M  V30 3968 H 362.737 -5.2578 -0.293752 0
M  V30 3969 H 365.228 -3.77405 0.193356 0
M  V30 3970 H 365.541 -7.66058 1.01858 0
M  V30 3971 H 363.886 -6.89028 0.909145 0
M  V30 3972 H 367.077 -4.6698 0.323612 0
M  V30 3973 H 367.25 -6.44211 0.699693 0
M  V30 3974 N 360.656 0.0484629 -1.57525 0
M  V30 3975 C 361.933 0.777447 -1.79486 0
M  V30 3976 C 362.313 1.94597 -0.818251 0
M  V30 3977 O 361.661 2.28047 0.143767 0
M  V30 3978 C 361.871 1.22864 -3.26658 0
M  V30 3979 C 363.219 1.65251 -3.91123 0
M  V30 3980 O 364.243 1.32372 -3.3069 0
M  V30 3981 O 363.102 2.26207 -4.97486 0
M  V30 3982 H 360.196 0.374357 -0.737419 0
M  V30 3983 H 362.742 0.0267359 -1.69679 0
M  V30 3984 H 361.514 0.393589 -3.89316 0
M  V30 3985 H 361.137 2.03996 -3.41279 0
M  V30 3986 N 362.134 1.5431 0.320358 0
M  V30 3987 C 363.064 1.86912 1.3995 0
M  V30 3988 C 364.045 0.726211 1.53819 0
M  V30 3989 O 365.23 0.980233 1.67646 0
M  V30 3990 C 362.36 2.09932 2.7667 0
M  V30 3991 C 361.314 3.25776 2.77586 0
M  V30 3992 C 360.64 3.34173 4.17412 0
M  V30 3993 C 361.94 4.6335 2.41048 0
M  V30 3994 H 363.634 2.77292 1.12914 0
M  V30 3995 H 361.18 1.33421 0.541738 0
M  V30 3996 H 363.133 2.31324 3.52232 0
M  V30 3997 H 361.857 1.16304 3.0519 0
M  V30 3998 H 360.516 3.04276 2.04479 0
M  V30 3999 H 360.164 2.38098 4.43078 0
M  V30 4000 H 359.864 4.12033 4.18931 0
M  V30 4001 H 361.388 3.57803 4.94782 0
M  V30 4002 H 362.802 4.84602 3.06324 0
M  V30 4003 H 361.199 5.43782 2.53813 0
M  V30 4004 H 362.269 4.65381 1.36193 0
M  V30 4005 N 363.613 -0.582584 1.46437 0
M  V30 4006 C 364.543 -1.70187 1.59871 0
M  V30 4007 C 365.524 -1.64066 0.449042 0
M  V30 4008 O 366.709 -1.82081 0.6753 0
M  V30 4009 C 363.839 -3.08827 1.58881 0
M  V30 4010 C 362.793 -3.29779 2.72819 0
M  V30 4011 C 362.119 -4.68947 2.5689 0
M  V30 4012 C 363.419 -3.17601 4.1464 0
M  V30 4013 H 365.113 -1.592 2.53566 0
M  V30 4014 H 362.659 -0.764472 1.22032 0
M  V30 4015 H 364.612 -3.86951 1.66873 0
M  V30 4016 H 363.336 -3.20713 0.617306 0
M  V30 4017 H 361.995 -2.54054 2.64296 0
M  V30 4018 H 361.643 -4.77599 1.57823 0
M  V30 4019 H 361.343 -4.83919 3.33312 0
M  V30 4020 H 362.867 -5.4924 2.66773 0
M  V30 4021 H 364.281 -3.8557 4.24274 0
M  V30 4022 H 362.678 -3.44094 4.9165 0
M  V30 4023 H 363.748 -2.14681 4.34788 0
M  V30 4024 N 365.091 -1.34144 -0.827227 0
M  V30 4025 C 366.023 -1.21206 -1.9453 0
M  V30 4026 C 367.036 -0.140176 -1.62195 0
M  V30 4027 O 368.225 -0.391647 -1.7415 0
M  V30 4028 C 365.325 -0.839141 -3.28347 0
M  V30 4029 C 364.498 -2.0051 -3.88734 0
M  V30 4030 C 363.557 -1.61128 -5.00923 0
M  V30 4031 O 362.583 -2.32726 -5.19449 0
M  V30 4032 N 363.785 -0.522958 -5.7814 0
M  V30 4033 H 366.55 -2.17525 -2.06162 0
M  V30 4034 H 364.111 -1.27043 -1.00358 0
M  V30 4035 H 366.103 -0.557556 -4.00841 0
M  V30 4036 H 364.673 0.0337293 -3.12582 0
M  V30 4037 H 363.893 -2.45166 -3.08686 0
M  V30 4038 H 365.181 -2.78498 -4.25812 0
M  V30 4039 H 364.579 0.0723518 -5.65654 0
M  V30 4040 H 363.136 -0.301089 -6.51104 0
M  V30 4041 N 366.569 1.04691 -1.17803 0
M  V30 4042 C 367.985 1.29963 -0.926379 0
M  V30 4043 C 368.185 1.97251 0.411635 0
M  V30 4044 O 367.241 2.24922 1.14744 0
M  V30 4045 C 368.554 2.16447 -2.08737 0
M  V30 4046 C 370.102 2.29814 -2.12496 0
M  V30 4047 C 370.577 3.19661 -3.27995 0
M  V30 4048 N 372.068 3.27247 -3.27816 0
M  V30 4049 C 372.803 3.96906 -4.13827 0
M  V30 4050 N 372.299 4.6895 -5.09959 0
M  V30 4051 N 374.092 3.93122 -4.01761 0
M  V30 4052 H 366.243 0.594182 -2.0392 0
M  V30 4053 H 368.506 0.324649 -0.890678 0
M  V30 4054 H 368.212 1.74304 -3.05469 0
M  V30 4055 H 368.086 3.17103 -2.04268 0
M  V30 4056 H 370.473 2.71196 -1.16347 0
M  V30 4057 H 370.554 1.2877 -2.21025 0
M  V30 4058 H 370.198 2.78991 -4.24413 0
M  V30 4059 H 370.128 4.20722 -3.16703 0
M  V30 4060 H 372.619 2.75921 -2.58217 0
M  V30 4061 H 372.932 5.19679 -5.71974 0
M  V30 4062 H 371.277 4.67875 -5.13924 0
M  V30 4063 H 374.468 3.35967 -3.2595 0
M  V30 4064 H 374.641 4.47139 -4.6901 0
M  V30 4065 N 368.047 0.979072 1.23499 0
M  V30 4066 C 368.977 0.537606 2.27227 0
M  V30 4067 C 369.958 -0.428539 1.64613 0
M  V30 4068 O 371.143 -0.322191 1.91509 0
M  V30 4069 C 368.273 -0.162052 3.46922 0
M  V30 4070 C 367.227 0.721242 4.21879 0
M  V30 4071 C 366.553 -0.110555 5.34586 0
M  V30 4072 C 367.853 2.01141 4.82016 0
M  V30 4073 H 369.547 1.40462 2.64406 0
M  V30 4074 H 367.093 0.67684 1.27102 0
M  V30 4075 H 369.046 -0.482192 4.18632 0
M  V30 4076 H 367.77 -1.06351 3.08799 0
M  V30 4077 H 366.429 1.02482 3.51984 0
M  V30 4078 H 366.077 -1.0125 4.92704 0
M  V30 4079 H 365.777 0.477325 5.85658 0
M  V30 4080 H 367.301 -0.425107 6.09118 0
M  V30 4081 H 368.715 1.75612 5.45741 0
M  V30 4082 H 367.112 2.54695 5.43369 0
M  V30 4083 H 368.182 2.69909 4.02836 0
M  V30 4084 N 369.525 -1.3858 0.750561 0
M  V30 4085 C 370.455 -2.33102 0.136237 0
M  V30 4086 C 371.436 -1.54713 -0.706965 0
M  V30 4087 O 372.621 -1.83043 -0.648769 0
M  V30 4088 C 369.751 -3.38882 -0.760017 0
M  V30 4089 C 368.705 -4.27995 -0.0197785 0
M  V30 4090 C 368.031 -5.24605 -1.03408 0
M  V30 4091 C 369.331 -5.09554 1.14684 0
M  V30 4092 H 371.025 -2.84726 0.925822 0
M  V30 4093 H 368.571 -1.36898 0.446654 0
M  V30 4094 H 370.524 -4.0397 -1.19943 0
M  V30 4095 H 369.248 -2.85734 -1.58189 0
M  V30 4096 H 367.907 -3.64409 0.400184 0
M  V30 4097 H 367.555 -4.67746 -1.84994 0
M  V30 4098 H 367.255 -5.85081 -0.543464 0
M  V30 4099 H 368.779 -5.9257 -1.47288 0
M  V30 4100 H 370.193 -5.67899 0.785118 0
M  V30 4101 H 368.59 -5.7925 1.56812 0
M  V30 4102 H 369.66 -4.4347 1.96118 0
M  V30 4103 N 371.003 -0.499398 -1.49478 0
M  V30 4104 C 371.913 0.284489 -2.32869 0
M  V30 4105 C 372.929 0.968885 -1.44529 0
M  V30 4106 O 374.105 0.95062 -1.77553 0
M  V30 4107 C 371.17 1.33594 -3.19928 0
M  V30 4108 C 370.231 0.665149 -4.24116 0
M  V30 4109 C 369.464 1.6665 -5.07014 0
M  V30 4110 O 369.687 2.89618 -4.91404 0
M  V30 4111 O 368.621 1.22271 -5.8935 0
M  V30 4112 H 372.447 -0.39802 -3.01081 0
M  V30 4113 H 370.032 -0.260758 -1.47107 0
M  V30 4114 H 371.914 1.94431 -3.73864 0
M  V30 4115 H 370.589 2.0014 -2.54412 0
M  V30 4116 H 369.496 0.0170769 -3.74096 0
M  V30 4117 H 370.829 0.0421555 -4.92182 0
M  V30 4118 N 372.481 1.55866 -0.233164 0
M  V30 4119 C 373.897 1.59133 0.121988 0
M  V30 4120 C 374.097 1.25016 1.58029 0
M  V30 4121 O 373.153 0.990922 2.32243 0
M  V30 4122 C 374.466 2.99932 -0.214792 0
M  V30 4123 C 376.014 3.12601 -0.157971 0
M  V30 4124 C 376.489 4.55597 -0.46859 0
M  V30 4125 N 377.98 4.61305 -0.418585 0
M  V30 4126 C 378.715 5.69903 -0.63227 0
M  V30 4127 N 378.211 6.86819 -0.90835 0
M  V30 4128 N 380.004 5.59264 -0.563913 0
M  V30 4129 H 372.155 1.76315 -1.18434 0
M  V30 4130 H 374.418 0.820093 -0.475553 0
M  V30 4131 H 374.124 3.29588 -1.22739 0
M  V30 4132 H 373.998 3.74327 0.464691 0
M  V30 4133 H 376.385 2.82735 0.845283 0
M  V30 4134 H 376.466 2.40511 -0.871102 0
M  V30 4135 H 376.11 4.86182 -1.46934 0
M  V30 4136 H 376.04 5.25928 0.265865 0
M  V30 4137 H 378.531 3.77297 -0.213368 0
M  V30 4138 H 378.844 7.65507 -1.05919 0
M  V30 4139 H 377.189 6.88536 -0.945673 0
M  V30 4140 H 380.38 4.66802 -0.348372 0
M  V30 4141 H 380.553 6.43831 -0.733847 0
M  V30 4142 N 373.959 -0.0401083 1.57549 0
M  V30 4143 C 375.236 -0.767917 1.79896 0
M  V30 4144 C 375.616 -1.9416 0.82856 0
M  V30 4145 O 374.964 -2.2812 -0.131671 0
M  V30 4146 C 375.174 -1.2113 3.27305 0
M  V30 4147 C 376.522 -1.63175 3.91994 0
M  V30 4148 O 377.546 -1.30616 3.31388 0
M  V30 4149 O 376.405 -2.23565 4.98679 0
M  V30 4150 H 373.499 -0.370441 0.739393 0
M  V30 4151 H 376.045 -0.017737 1.69691 0
M  V30 4152 H 374.817 -0.372937 3.89519 0
M  V30 4153 H 374.44 -2.02183 3.42356 0
M  V30 4154 N 375.437 -1.54477 -0.31217 0
M  V30 4155 C 376.848 -1.64344 -0.885891 0
M  V30 4156 C 377.199 -0.54485 -1.88483 0
M  V30 4157 O 376.324 0.320387 -2.14015 0
M  V30 4158 C 376.919 -2.97908 -1.61357 0
M  V30 4159 C 375.478 -3.09933 -2.13585 0
M  V30 4160 C 374.625 -2.59971 -0.964897 0
M  V30 4161 H 377.576 -1.58448 -0.0894528 0
M  V30 4162 H 377.597 -2.88706 -2.47848 0
M  V30 4163 H 377.109 -3.77845 -0.886277 0
M  V30 4164 H 375.21 -2.34694 -2.89395 0
M  V30 4165 H 375.323 -4.15916 -2.37804 0
M  V30 4166 H 373.687 -2.16147 -1.34731 0
M  V30 4167 H 374.47 -3.42376 -0.251742 0
M  V30 4168 N 376.915 0.57481 -1.46744 0
M  V30 4169 C 378.14 1.36341 -1.56288 0
M  V30 4170 C 378.565 1.86954 -0.207347 0
M  V30 4171 O 377.923 1.62006 0.813871 0
M  V30 4172 C 377.971 2.52147 -2.57787 0
M  V30 4173 O 377.075 3.53834 -2.11838 0
M  V30 4174 H 376.416 0.405713 -0.525636 0
M  V30 4175 H 378.946 0.696453 -1.92382 0
M  V30 4176 H 378.956 2.98958 -2.77648 0
M  V30 4177 H 377.631 2.14663 -3.5622 0
M  V30 4178 H 376.208 3.1345 -2.01999 0
M  V30 4179 N 378.394 1.34581 0.820102 0
M  V30 4180 C 379.81 1.14325 1.11364 0
M  V30 4181 C 380.01 -0.0533648 2.01429 0
M  V30 4182 O 379.066 -0.728044 2.41776 0
M  V30 4183 C 380.379 2.43983 1.75764 0
M  V30 4184 C 381.927 2.50065 1.88246 0
M  V30 4185 C 382.402 3.79732 2.56061 0
M  V30 4186 N 383.893 3.80908 2.63558 0
M  V30 4187 C 384.628 4.77961 3.16766 0
M  V30 4188 N 384.124 5.85397 3.70517 0
M  V30 4189 N 385.917 4.65413 3.15194 0
M  V30 4190 H 378.068 2.11246 0.221096 0
M  V30 4191 H 380.331 0.934289 0.160649 0
M  V30 4192 H 380.037 3.31651 1.1705 0
M  V30 4193 H 379.911 2.57531 2.75604 0
M  V30 4194 H 382.298 1.62834 2.46108 0
M  V30 4195 H 382.379 2.40442 0.873006 0
M  V30 4196 H 382.023 4.67354 1.98853 0
M  V30 4197 H 381.953 3.86639 3.57516 0
M  V30 4198 H 384.444 3.03274 2.25463 0
M  V30 4199 H 384.757 6.55463 4.09376 0
M  V30 4200 H 383.102 5.89107 3.68752 0
M  V30 4201 H 386.293 3.80627 2.72471 0
M  V30 4202 H 386.466 5.41216 3.56356 0
M  V30 4203 N 379.872 -1.04064 1.18357 0
M  V30 4204 C 381.288 -1.2947 0.933258 0
M  V30 4205 C 381.488 -1.97466 -0.401169 0
M  V30 4206 O 380.544 -2.25528 -1.13549 0
M  V30 4207 C 381.857 -2.15337 2.09882 0
M  V30 4208 C 383.405 -2.28683 2.13712 0
M  V30 4209 C 383.88 -3.17917 3.29686 0
M  V30 4210 N 385.371 -3.25504 3.29547 0
M  V30 4211 C 386.106 -3.94706 4.15926 0
M  V30 4212 N 385.602 -4.66239 5.12439 0
M  V30 4213 N 387.395 -3.90986 4.0384 0
M  V30 4214 H 379.546 -0.583359 2.04232 0
M  V30 4215 H 381.809 -0.319921 0.892387 0
M  V30 4216 H 381.515 -1.72682 3.06389 0
M  V30 4217 H 381.389 -3.16015 2.05947 0
M  V30 4218 H 383.776 -2.70575 1.17784 0
M  V30 4219 H 383.857 -1.27596 2.21705 0
M  V30 4220 H 383.501 -2.76736 4.25887 0
M  V30 4221 H 383.431 -4.19036 3.1893 0
M  V30 4222 H 385.922 -2.74547 2.59677 0
M  V30 4223 H 386.235 -5.16638 5.74722 0
M  V30 4224 H 384.58 -4.65143 5.16398 0
M  V30 4225 H 387.771 -3.34234 3.27727 0
M  V30 4226 H 387.944 -4.44646 4.71375 0
M  V30 4227 N 381.35 -0.985608 -1.22978 0
M  V30 4228 C 382.599 -0.652881 -1.90841 0
M  V30 4229 C 382.912 0.817842 -1.77681 0
M  V30 4230 O 384.118 1.26185 -2.40395 0
M  V30 4231 C 382.574 -1.11717 -3.42122 0
M  V30 4232 C 382.182 -2.6126 -3.63933 0
M  V30 4233 C 383.926 -0.85843 -4.1573 0
M  V30 4234 C 381.833 -3.0133 -5.08876 0
M  V30 4235 H 380.763 -0.240491 -0.714619 0
M  V30 4236 H 383.414 -1.1942 -1.39324 0
M  V30 4237 H 381.796 -0.504027 -3.92779 0
M  V30 4238 H 382.97 -3.27858 -3.23799 0
M  V30 4239 H 381.285 -2.84937 -3.03644 0
M  V30 4240 H 383.882 -1.13359 -5.22546 0
M  V30 4241 H 384.225 0.205461 -4.15793 0
M  V30 4242 H 384.758 -1.43341 -3.71077 0
M  V30 4243 H 381.497 -4.06864 -5.13947 0
M  V30 4244 H 381.017 -2.3943 -5.49939 0
M  V30 4245 H 382.696 -2.92224 -5.77247 0
M  V30 4246 N 382.828 1.3818 -0.7579 0
M  V30 4247 C 384.053 2.04827 -0.325679 0
M  V30 4248 C 384.478 1.56788 1.03919 0
M  V30 4249 O 383.836 0.721811 1.66312 0
M  V30 4250 C 383.884 3.58774 -0.362447 0
M  V30 4251 O 382.988 4.07372 0.642033 0
M  V30 4252 H 382.329 0.64833 -0.143402 0
M  V30 4253 H 384.859 1.7677 -1.03023 0
M  V30 4254 H 384.869 4.07434 -0.214844 0
M  V30 4255 H 383.544 3.93096 -1.35824 0
M  V30 4256 H 382.121 3.70068 0.458688 0
M  V30 4257 N 384.306 0.507319 1.49211 0
M  V30 4258 C 385.553 -0.0349529 2.0247 0
M  V30 4259 C 385.881 -1.36409 1.38647 0
M  V30 4260 O 385.136 -1.88841 0.513566 0
M  V30 4261 C 385.435 -0.229513 3.56662 0
M  V30 4262 C 385.101 1.02241 4.39156 0
M  V30 4263 C 383.763 1.36557 4.61417 0
M  V30 4264 C 386.115 1.85428 4.871 0
M  V30 4265 C 383.443 2.53999 5.28868 0
M  V30 4266 C 385.795 3.02028 5.55843 0
M  V30 4267 C 384.459 3.36717 5.76349 0
M  V30 4268 H 383.729 -0.0127902 0.74089 0
M  V30 4269 H 386.376 0.668756 1.79443 0
M  V30 4270 H 384.681 -1.0158 3.78403 0
M  V30 4271 H 386.378 -0.663641 3.9547 0
M  V30 4272 H 382.968 0.745124 4.22073 0
M  V30 4273 H 387.152 1.6023 4.69723 0
M  V30 4274 H 382.408 2.81105 5.42946 0
M  V30 4275 H 386.582 3.66808 5.91967 0
M  V30 4276 H 384.209 4.27821 6.28389 0
M  V30 4277 N 385.784 -1.5574 0.241426 0
M  V30 4278 C 386.716 -2.18469 -0.693091 0
M  V30 4279 C 387.729 -1.15942 -1.14286 0
M  V30 4280 O 388.918 -1.42832 -1.07058 0
M  V30 4281 C 386.018 -2.7696 -1.95311 0
M  V30 4282 C 385.191 -4.04853 -1.65568 0
M  V30 4283 C 384.25 -4.47715 -2.76474 0
M  V30 4284 O 383.276 -5.14205 -2.44094 0
M  V30 4285 N 384.478 -4.15044 -4.05855 0
M  V30 4286 H 387.243 -2.99292 -0.156388 0
M  V30 4287 H 384.804 -1.61784 0.0611752 0
M  V30 4288 H 386.796 -3.02594 -2.68736 0
M  V30 4289 H 385.366 -2.00326 -2.39975 0
M  V30 4290 H 384.586 -3.86865 -0.756886 0
M  V30 4291 H 385.874 -4.88246 -1.43153 0
M  V30 4292 H 385.272 -3.61654 -4.34998 0
M  V30 4293 H 383.829 -4.45526 -4.75762 0
M  V30 4294 N 387.262 0.0317525 -1.57568 0
M  V30 4295 C 388.539 0.758366 -1.803 0
M  V30 4296 C 388.919 1.93718 -0.838845 0
M  V30 4297 O 388.267 2.28187 0.119571 0
M  V30 4298 C 388.477 1.19392 -3.27943 0
M  V30 4299 C 389.825 1.61094 -3.92854 0
M  V30 4300 O 390.849 1.28857 -3.32076 0
M  V30 4301 O 389.708 2.20918 -4.99858 0
M  V30 4302 H 386.802 0.366514 -0.741348 0
M  V30 4303 H 389.348 0.00873765 -1.69698 0
M  V30 4304 H 388.12 0.352275 -3.89711 0
M  V30 4305 H 387.743 2.00365 -3.43424 0
M  V30 4306 N 388.74 1.54641 0.303973 0
M  V30 4307 C 389.987 1.7378 1.03955 0
M  V30 4308 C 390.315 0.521986 1.87365 0
M  V30 4309 O 389.57 -0.496099 1.89308 0
M  V30 4310 C 389.869 2.97753 1.97681 0
M  V30 4311 C 389.535 4.31671 1.30271 0
M  V30 4312 C 388.197 4.68075 1.11619 0
M  V30 4313 C 390.549 5.147 0.82055 0
M  V30 4314 C 387.877 5.8509 0.434304 0
M  V30 4315 C 390.229 6.32416 0.152395 0
M  V30 4316 C 388.893 6.67484 -0.0461067 0
M  V30 4317 H 388.163 0.635908 0.380398 0
M  V30 4318 H 390.81 1.88896 0.314718 0
M  V30 4319 H 389.115 2.77406 2.76682 0
M  V30 4320 H 390.812 3.09756 2.54661 0
M  V30 4321 H 387.402 4.03041 1.45795 0
M  V30 4322 H 391.586 4.87077 0.952374 0
M  V30 4323 H 386.842 6.10806 0.269495 0
M  V30 4324 H 391.016 6.96023 -0.229126 0
M  V30 4325 H 388.643 7.58011 -0.576494 0
M  V30 4326 N 390.218 -0.567019 1.47046 0
M  V30 4327 C 391.465 -1.32462 1.53167 0
M  V30 4328 C 391.793 -1.93571 0.189841 0
M  V30 4329 O 391.048 -1.77865 -0.816243 0
M  V30 4330 C 391.347 -2.4623 2.59047 0
M  V30 4331 C 391.013 -2.03014 4.02612 0
M  V30 4332 C 389.675 -1.90944 4.41694 0
M  V30 4333 C 392.027 -1.69895 4.92732 0
M  V30 4334 C 389.355 -1.44035 5.68745 0
M  V30 4335 C 391.707 -1.2446 6.20236 0
M  V30 4336 C 390.371 -1.10979 6.5821 0
M  V30 4337 H 389.641 -0.484713 0.560477 0
M  V30 4338 H 392.288 -0.636888 1.80599 0
M  V30 4339 H 390.593 -3.20517 2.25335 0
M  V30 4340 H 392.29 -3.04427 2.61008 0
M  V30 4341 H 388.88 -2.13348 3.71726 0
M  V30 4342 H 393.064 -1.78098 4.63244 0
M  V30 4343 H 388.32 -1.32254 5.96925 0
M  V30 4344 H 392.494 -0.978924 6.89485 0
M  V30 4345 H 390.121 -0.744078 7.5655 0
M  V30 4346 N 391.696 -1.35014 -0.812953 0
M  V30 4347 C 392.659 -1.27292 -1.90602 0
M  V30 4348 C 393.659 -0.185817 -1.59723 0
M  V30 4349 O 394.849 -0.439102 -1.68575 0
M  V30 4350 C 391.981 -0.967676 -3.26877 0
M  V30 4351 H 393.174 -2.24479 -1.9887 0
M  V30 4352 H 390.727 -1.19446 -1.00808 0
M  V30 4353 H 391.462 0.0005954 -3.243 0
M  V30 4354 H 391.247 -1.75412 -3.50675 0
M  V30 4355 H 392.737 -0.939085 -4.06904 0
M  V30 4356 N 393.175 1.03435 -1.18907 0
M  V30 4357 C 394.125 2.09924 -0.889706 0
M  V30 4358 C 395.109 1.60261 0.143216 0
M  V30 4359 O 396.301 1.76892 -0.0617122 0
M  V30 4360 C 393.43 3.40669 -0.424168 0
M  V30 4361 C 392.516 3.97082 -1.48952 0
M  V30 4362 N 392.907 4.27227 -2.70759 0
M  V30 4363 C 391.205 4.25029 -1.35152 0
M  V30 4364 C 391.906 4.7246 -3.39347 0
M  V30 4365 N 390.882 4.7366 -2.66735 0
M  V30 4366 H 394.684 2.31116 -1.81555 0
M  V30 4367 H 392.198 1.21246 -1.08042 0
M  V30 4368 H 394.195 4.16461 -0.191176 0
M  V30 4369 H 392.855 3.20901 0.495263 0
M  V30 4370 H 393.866 4.16678 -3.0757 0
M  V30 4371 H 390.543 4.14554 -0.495126 0
M  V30 4372 H 391.933 5.04751 -4.43481 0
M  V30 4373 N 394.653 0.992116 1.22453 0
M  V30 4374 C 396.064 0.702776 1.72968 0
M  V30 4375 C 396.415 -0.780399 1.80012 0
M  V30 4376 O 395.54 -1.61007 1.44589 0
M  V30 4377 C 396.135 1.26903 3.14135 0
M  V30 4378 C 394.694 1.02909 3.62059 0
M  V30 4379 C 393.841 1.38969 2.39964 0
M  V30 4380 H 396.792 1.16457 1.07812 0
M  V30 4381 H 396.813 0.647223 3.74955 0
M  V30 4382 H 396.325 2.34851 3.08977 0
M  V30 4383 H 394.426 -0.0337979 3.72585 0
M  V30 4384 H 394.539 1.69191 4.48231 0
M  V30 4385 H 392.903 0.808279 2.41535 0
M  V30 4386 H 393.686 2.4792 2.37467 0
M  V30 4387 N 396.131 -1.37776 0.765217 0
M  V30 4388 C 397.377 -2.00604 0.336066 0
M  V30 4389 C 397.732 -1.59657 -1.07366 0
M  V30 4390 O 397.025 -0.829565 -1.7271 0
M  V30 4391 C 397.219 -3.5504 0.410053 0
M  V30 4392 C 397.048 -4.10985 1.82542 0
M  V30 4393 C 395.818 -4.42229 2.44461 0
M  V30 4394 C 398.016 -4.32438 2.78392 0
M  V30 4395 N 395.998 -4.8385 3.77839 0
M  V30 4396 C 397.369 -4.76596 3.96556 0
M  V30 4397 C 399.424 -4.14559 2.75764 0
M  V30 4398 C 398.127 -5.04748 5.12466 0
M  V30 4399 C 400.153 -4.43843 3.90842 0
M  V30 4400 C 399.515 -4.88235 5.07746 0
M  V30 4401 H 395.614 -0.763325 0.169881 0
M  V30 4402 H 398.198 -1.67197 0.997656 0
M  V30 4403 H 396.369 -3.87769 -0.221325 0
M  V30 4404 H 398.101 -4.0468 -0.0405285 0
M  V30 4405 H 394.856 -4.31079 1.96131 0
M  V30 4406 H 395.28 -5.08979 4.46396 0
M  V30 4407 H 399.922 -3.79415 1.86558 0
M  V30 4408 H 397.64 -5.38783 6.02277 0
M  V30 4409 H 401.226 -4.31603 3.90141 0
M  V30 4410 H 400.106 -5.10461 5.95315 0
M  V30 4411 N 397.609 -0.515225 -1.4894 0
M  V30 4412 C 398.855 0.0242508 -2.02785 0
M  V30 4413 C 399.188 1.35323 -1.39289 0
M  V30 4414 O 398.463 1.87041 -0.533469 0
M  V30 4415 C 398.746 0.16184 -3.59736 0
M  V30 4416 C 398.599 -1.19127 -4.33738 0
M  V30 4417 C 399.918 0.895719 -4.30888 0
M  V30 4418 H 397.037 0.00733914 -0.736963 0
M  V30 4419 H 399.679 -0.669395 -1.77818 0
M  V30 4420 H 397.829 0.752624 -3.8114 0
M  V30 4421 H 399.501 -1.82202 -4.23792 0
M  V30 4422 H 397.744 -1.77695 -3.95736 0
M  V30 4423 H 398.415 -1.04815 -5.41957 0
M  V30 4424 H 400.891 0.394528 -4.14225 0
M  V30 4425 H 399.767 0.960859 -5.40425 0
M  V30 4426 H 400.028 1.9427 -3.97129 0
M  V30 4427 N 399.087 1.5561 -0.249682 0
M  V30 4428 C 400.364 1.90932 0.424761 0
M  V30 4429 C 400.744 1.17078 1.75658 0
M  V30 4430 O 400.092 0.289176 2.26663 0
M  V30 4431 C 400.302 3.43975 0.590109 0
M  V30 4432 C 401.65 4.15281 0.884714 0
M  V30 4433 O 402.674 3.49729 0.67587 0
M  V30 4434 O 401.533 5.31236 1.28259 0
M  V30 4435 H 398.627 0.794815 0.228468 0
M  V30 4436 H 401.173 1.67135 -0.293954 0
M  V30 4437 H 399.945 3.89748 -0.34818 0
M  V30 4438 H 399.568 3.73644 1.35926 0
M  V30 4439 N 400.565 -0.0233959 1.57583 0
M  V30 4440 C 401.495 -1.02162 2.09965 0
M  V30 4441 C 402.476 -1.3735 1.00344 0
M  V30 4442 O 403.661 -1.46135 1.27899 0
M  V30 4443 C 400.791 -2.32081 2.58371 0
M  V30 4444 C 399.745 -2.1112 3.72307 0
M  V30 4445 C 399.071 -3.46848 4.06941 0
M  V30 4446 C 400.371 -1.49276 5.00514 0
M  V30 4447 H 402.065 -0.585557 2.93618 0
M  V30 4448 H 399.611 -0.280218 1.41247 0
M  V30 4449 H 401.564 -3.02249 2.93639 0
M  V30 4450 H 400.288 -2.77758 1.71808 0
M  V30 4451 H 398.947 -1.43384 3.37397 0
M  V30 4452 H 398.595 -3.90184 3.17436 0
M  V30 4453 H 398.295 -3.33646 4.83688 0
M  V30 4454 H 399.819 -4.18369 4.44747 0
M  V30 4455 H 401.233 -2.09368 5.33702 0
M  V30 4456 H 399.63 -1.46632 5.8191 0
M  V30 4457 H 400.7 -0.459217 4.82721 0
M  V30 4458 N 402.043 -1.548 -0.295768 0
M  V30 4459 C 402.953 -1.89177 -1.38742 0
M  V30 4460 C 403.969 -0.786481 -1.55211 0
M  V30 4461 O 405.145 -1.08344 -1.69775 0
M  V30 4462 C 402.21 -2.13663 -2.73036 0
M  V30 4463 C 401.271 -3.37349 -2.65508 0
M  V30 4464 C 400.504 -3.60658 -3.93398 0
M  V30 4465 O 400.727 -2.86882 -4.93006 0
M  V30 4466 O 399.661 -4.54179 -3.94975 0
M  V30 4467 H 403.487 -2.82059 -1.12589 0
M  V30 4468 H 401.072 -1.41056 -0.492295 0
M  V30 4469 H 402.954 -2.3094 -3.52484 0
M  V30 4470 H 401.629 -1.23967 -2.99022 0
M  V30 4471 H 400.536 -3.25431 -1.84514 0
M  V30 4472 H 401.869 -4.27192 -2.44474 0
M  V30 4473 N 403.521 0.559213 -1.47345 0
M  V30 4474 C 404.471 1.66192 -1.5609 0
M  V30 4475 C 405.455 1.55323 -0.419957 0
M  V30 4476 O 406.647 1.63839 -0.669762 0
M  V30 4477 C 403.776 3.0497 -1.57634 0
M  V30 4478 C 402.862 3.2105 -2.77106 0
M  V30 4479 N 403.253 3.07203 -4.01821 0
M  V30 4480 C 401.551 3.52046 -2.73825 0
M  V30 4481 C 402.252 3.25919 -4.81821 0
M  V30 4482 N 401.228 3.52161 -4.14106 0
M  V30 4483 H 405.03 1.54052 -2.5029 0
M  V30 4484 H 402.544 0.763914 -1.43311 0
M  V30 4485 H 404.541 3.84142 -1.61989 0
M  V30 4486 H 403.201 3.18224 -0.645281 0
M  V30 4487 H 404.212 2.84572 -4.32711 0
M  V30 4488 H 400.889 3.71839 -1.89848 0
M  V30 4489 H 402.279 3.20198 -5.90697 0
M  V30 4490 N 404.999 1.35443 0.805782 0
M  V30 4491 C 405.932 1.22783 1.92353 0
M  V30 4492 C 406.91 0.115543 1.62189 0
M  V30 4493 O 408.094 0.283778 1.86352 0
M  V30 4494 C 405.221 0.890746 3.26777 0
M  V30 4495 C 404.267 2.01519 3.75889 0
M  V30 4496 S 405.1 3.63101 3.93596 0
M  V30 4497 C 406.256 3.31472 5.30921 0
M  V30 4498 H 406.489 2.17394 2.02798 0
M  V30 4499 H 404.022 1.20669 0.963245 0
M  V30 4500 H 405.98 0.703068 4.04434 0
M  V30 4501 H 404.641 -0.0373152 3.14078 0
M  V30 4502 H 403.834 1.7335 4.7325 0
M  V30 4503 H 403.436 2.16124 3.05231 0
M  V30 4504 H 405.728 2.8435 6.1494 0
M  V30 4505 H 406.671 4.28036 5.64084 0
M  V30 4506 H 407.079 2.67221 4.97246 0
M  V30 4507 N 406.477 -1.02803 1.19454 0
M  V30 4508 C 407.888 -1.57667 0.999899 0
M  V30 4509 C 408.239 -1.91041 -0.446956 0
M  V30 4510 O 407.364 -1.70978 -1.32648 0
M  V30 4511 C 407.959 -2.86477 1.80877 0
M  V30 4512 C 406.518 -3.37911 1.65811 0
M  V30 4513 C 405.665 -2.11343 1.79526 0
M  V30 4514 H 408.616 -0.853214 1.33813 0
M  V30 4515 H 408.637 -3.57408 1.30536 0
M  V30 4516 H 408.149 -2.62155 2.86175 0
M  V30 4517 H 406.25 -3.67218 0.63102 0
M  V30 4518 H 406.363 -4.10885 2.46395 0
M  V30 4519 H 404.727 -2.23254 1.22596 0
M  V30 4520 H 405.51 -1.89461 2.86285 0
M  V30 4521 N 407.956 -0.998596 -1.21925 0
M  V30 4522 C 409.181 -0.696015 -1.95372 0
M  V30 4523 C 409.606 0.733826 -1.73195 0
M  V30 4524 O 408.964 1.50242 -1.01474 0
M  V30 4525 C 409.012 -1.01466 -3.4603 0
M  V30 4526 O 408.116 -0.116415 -4.12236 0
M  V30 4527 H 407.457 -0.259938 -0.611006 0
M  V30 4528 H 409.987 -1.33711 -1.54863 0
M  V30 4529 H 409.997 -0.958855 -3.96573 0
M  V30 4530 H 408.672 -2.05653 -3.61497 0
M  V30 4531 H 407.249 -0.228193 -3.72201 0
M  V30 4532 N 409.434 1.37368 -0.772513 0
M  V30 4533 C 410.682 1.99279 -0.336516 0
M  V30 4534 C 411.003 1.6163 1.09091 0
M  V30 4535 O 410.273 0.882109 1.74916 0
M  V30 4536 H 408.853 0.737063 -0.121435 0
M  V30 4537 H 411.515 1.67836 -0.990809 0
M  V30 4538 H 410.611 3.09332 -0.414763 0
M  V30 4539 N 410.912 0.523116 1.48665 0
M  V30 4540 C 411.822 -0.247406 2.33292 0
M  V30 4541 C 412.838 -0.945769 1.46052 0
M  V30 4542 O 414.014 -0.922253 1.79043 0
M  V30 4543 C 411.079 -1.28487 3.22012 0
M  V30 4544 C 410.14 -0.597592 4.2512 0
M  V30 4545 C 409.373 -1.58563 5.09601 0
M  V30 4546 O 409.596 -2.81763 4.95949 0
M  V30 4547 O 408.53 -1.12879 5.91221 0
M  V30 4548 H 412.356 0.445869 3.00409 0
M  V30 4549 H 409.941 0.284128 1.46673 0
M  V30 4550 H 411.823 -1.88459 3.7691 0
M  V30 4551 H 410.498 -1.96068 2.57564 0
M  V30 4552 H 409.405 0.0424407 3.74076 0
M  V30 4553 H 410.738 0.0361517 4.92187 0
M  V30 4554 N 412.39 -1.55475 0.257931 0
M  V30 4555 C 413.615 -2.04064 -0.370488 0
M  V30 4556 C 414.04 -1.13565 -1.49948 0
M  V30 4557 O 413.398 -0.130781 -1.80828 0
M  V30 4558 C 413.446 -3.50554 -0.845237 0
M  V30 4559 O 412.55 -3.63173 -1.95394 0
M  V30 4560 H 411.891 -0.659257 -0.0792243 0
M  V30 4561 H 414.421 -2.00903 0.387212 0
M  V30 4562 H 414.431 -3.91588 -1.14555 0
M  V30 4563 H 413.106 -4.15896 -0.0191259 0
M  V30 4564 H 411.683 -3.34039 -1.65748 0
M  V30 4565 N 413.868 0.0150385 -1.57593 0
M  V30 4566 C 414.798 1.01047 -2.10503 0
M  V30 4567 C 415.779 1.36816 -1.01071 0
M  V30 4568 O 416.964 1.45455 -1.28672 0
M  V30 4569 C 414.094 2.30708 -2.59598 0
M  V30 4570 C 413.048 2.09142 -3.73421 0
M  V30 4571 C 412.374 3.44685 -4.08774 0
M  V30 4572 C 413.674 1.46619 -5.01298 0
M  V30 4573 H 415.368 0.569978 -2.93925 0
M  V30 4574 H 412.914 0.272724 -1.41394 0
M  V30 4575 H 414.867 3.00687 -2.95238 0
M  V30 4576 H 413.591 2.76843 -1.73279 0
M  V30 4577 H 412.25 1.41592 -3.38153 0
M  V30 4578 H 411.898 3.88495 -3.195 0
M  V30 4579 H 411.598 3.31077 -4.8545 0
M  V30 4580 H 413.122 4.16004 -4.4696 0
M  V30 4581 H 414.536 2.06535 -5.34805 0
M  V30 4582 H 412.933 1.43544 -5.82679 0
M  V30 4583 H 414.003 0.433611 -4.82957 0
M  V30 4584 N 415.346 1.54954 0.287554 0
M  V30 4585 C 416.594 1.74528 1.01904 0
M  V30 4586 C 416.915 0.541349 1.87335 0
M  V30 4587 O 416.185 -0.444108 1.908 0
M  V30 4588 H 414.765 0.643576 0.379235 0
M  V30 4589 H 417.427 1.92333 0.315294 0
M  V30 4590 H 416.523 2.64015 1.6644 0
M  V30 4591 N 416.824 -0.551391 1.4764 0
M  V30 4592 C 418.24 -0.877887 1.33287 0
M  V30 4593 C 418.44 -1.98817 0.327721 0
M  V30 4594 O 417.496 -2.51171 -0.258695 0
M  V30 4595 C 418.809 -1.26563 2.72768 0
M  V30 4596 C 420.357 -1.37673 2.81097 0
M  V30 4597 C 420.832 -1.79799 4.21232 0
M  V30 4598 N 422.323 -1.8694 4.23802 0
M  V30 4599 C 423.058 -2.20876 5.29151 0
M  V30 4600 N 422.554 -2.53386 6.448 0
M  V30 4601 N 424.347 -2.217 5.16532 0
M  V30 4602 H 416.498 0.18153 2.11623 0
M  V30 4603 H 418.761 0.0185514 0.947818 0
M  V30 4604 H 418.467 -0.523591 3.47781 0
M  V30 4605 H 418.341 -2.22052 3.04915 0
M  V30 4606 H 420.728 -2.10956 2.06353 0
M  V30 4607 H 420.809 -0.40357 2.52596 0
M  V30 4608 H 420.453 -1.07083 4.96483 0
M  V30 4609 H 420.383 -2.78128 4.4716 0
M  V30 4610 H 422.874 -1.64179 3.40373 0
M  V30 4611 H 423.187 -2.78325 7.20941 0
M  V30 4612 H 421.532 -2.50953 6.48111 0
M  V30 4613 H 424.723 -1.95745 4.25207 0
M  V30 4614 H 424.896 -2.47818 5.98741 0
M  V30 4615 N 418.302 -1.35869 -0.798587 0
M  V30 4616 C 419.265 -1.29307 -1.89242 0
M  V30 4617 C 420.265 -0.202747 -1.59517 0
M  V30 4618 O 421.455 -0.456957 -1.681 0
M  V30 4619 C 418.587 -1.00229 -3.25833 0
M  V30 4620 H 419.78 -2.26576 -1.96478 0
M  V30 4621 H 417.333 -1.20509 -0.995358 0
M  V30 4622 H 418.068 -0.033801 -3.24282 0
M  V30 4623 H 417.853 -1.79121 -3.48795 0
M  V30 4624 H 419.343 -0.98219 -4.05885 0
M  V30 4625 N 419.78 1.02168 -1.19998 0
M  V30 4626 C 421.008 1.79296 -1.03249 0
M  V30 4627 C 421.423 1.84103 0.418502 0
M  V30 4628 O 420.78 1.29031 1.29063 0
M  V30 4629 C 420.831 3.24007 -1.60319 0
M  V30 4630 O 420.552 3.19512 -2.99739 0
M  V30 4631 C 422.053 4.17704 -1.48453 0
M  V30 4632 H 419.273 0.564016 -0.363493 0
M  V30 4633 H 421.817 1.28639 -1.58973 0
M  V30 4634 H 419.972 3.7183 -1.08727 0
M  V30 4635 H 420.386 4.10306 -3.26725 0
M  V30 4636 H 421.86 5.17104 -1.93153 0
M  V30 4637 H 422.337 4.37029 -0.436193 0
M  V30 4638 H 422.943 3.7576 -1.99211 0
M  V30 4639 N 421.258 1.00505 1.21394 0
M  V30 4640 C 422.221 0.570459 2.21987 0
M  V30 4641 C 423.221 -0.353211 1.56873 0
M  V30 4642 O 424.411 -0.14349 1.73608 0
M  V30 4643 C 421.543 -0.168555 3.40483 0
M  V30 4644 H 422.736 1.46021 2.6195 0
M  V30 4645 H 420.289 0.793565 1.34656 0
M  V30 4646 H 421.024 -1.07374 3.06009 0
M  V30 4647 H 420.809 0.494823 3.88965 0
M  V30 4648 H 422.299 -0.460362 4.15055 0
M  V30 4649 N 422.737 -1.36956 0.779787 0
M  V30 4650 C 423.667 -2.32761 0.185651 0
M  V30 4651 C 424.648 -1.56177 -0.673989 0
M  V30 4652 O 425.833 -1.84378 -0.609797 0
M  V30 4653 C 422.963 -3.40418 -0.687964 0
M  V30 4654 C 421.917 -4.27941 0.0710102 0
M  V30 4655 C 421.243 -5.26681 -0.922573 0
M  V30 4656 C 422.543 -5.07006 1.25467 0
M  V30 4657 H 424.237 -2.82698 0.986008 0
M  V30 4658 H 421.783 -1.3592 0.475592 0
M  V30 4659 H 423.736 -4.06423 -1.11348 0
M  V30 4660 H 422.46 -2.89025 -1.52093 0
M  V30 4661 H 421.119 -3.63478 0.47739 0
M  V30 4662 H 420.767 -4.71565 -1.7503 0
M  V30 4663 H 420.467 -5.86103 -0.419237 0
M  V30 4664 H 421.991 -5.9556 -1.34686 0
M  V30 4665 H 423.405 -5.66105 0.905401 0
M  V30 4666 H 421.802 -5.75793 1.69063 0
M  V30 4667 H 422.872 -4.3921 2.05481 0
M  V30 4668 N 424.215 -0.530993 -1.48385 0
M  V30 4669 C 425.461 0.00274135 -2.028 0
M  V30 4670 C 425.794 1.33838 -1.40716 0
M  V30 4671 O 425.069 1.86465 -0.553277 0
M  V30 4672 C 425.352 0.123676 -3.59888 0
M  V30 4673 C 425.205 -1.2372 -4.3245 0
M  V30 4674 C 426.524 0.849967 -4.31814 0
M  V30 4675 H 423.643 -0.000477758 -0.737 0
M  V30 4676 H 426.285 -0.688217 -1.77098 0
M  V30 4677 H 424.435 0.712157 -3.81917 0
M  V30 4678 H 426.107 -1.86687 -4.21836 0
M  V30 4679 H 424.35 -1.81882 -3.93829 0
M  V30 4680 H 425.021 -1.10557 -5.40815 0
M  V30 4681 H 427.497 0.350572 -4.14621 0
M  V30 4682 H 426.373 0.903486 -5.41413 0
M  V30 4683 H 426.634 1.90047 -3.99167 0
M  V30 4684 N 425.693 1.55336 -0.266172 0
M  V30 4685 C 426.939 1.99692 0.353681 0
M  V30 4686 C 427.272 1.1543 1.56172 0
M  V30 4687 O 426.547 0.222218 1.93226 0
M  V30 4688 C 426.83 3.52316 0.74466 0
M  V30 4689 C 426.683 4.47337 -0.470101 0
M  V30 4690 C 428.002 4.10588 1.58447 0
M  V30 4691 H 425.121 0.725961 0.12708 0
M  V30 4692 H 427.763 1.86336 -0.371333 0
M  V30 4693 H 425.913 3.63829 1.36239 0
M  V30 4694 H 427.585 4.4778 -1.10864 0
M  V30 4695 H 425.828 4.19364 -1.10978 0
M  V30 4696 H 426.499 5.51788 -0.15291 0
M  V30 4697 H 428.975 4.02297 1.06286 0
M  V30 4698 H 427.851 5.17607 1.82686 0
M  V30 4699 H 428.112 3.60253 2.56262 0
M  V30 4700 N 427.171 -0.0066808 1.57599 0
M  V30 4701 C 428.103 -1.02827 2.04839 0
M  V30 4702 C 429.116 -1.31108 0.965113 0
M  V30 4703 O 430.305 -1.28202 1.24203 0
M  V30 4704 C 427.405 -2.36464 2.42771 0
M  V30 4705 C 426.578 -2.27219 3.73751 0
M  V30 4706 C 425.637 -3.43489 3.98625 0
M  V30 4707 O 424.663 -3.21976 4.69382 0
M  V30 4708 N 425.865 -4.66116 3.46 0
M  V30 4709 H 428.63 -0.625455 2.93101 0
M  V30 4710 H 426.191 -0.194198 1.60731 0
M  V30 4711 H 428.183 -3.13008 2.56531 0
M  V30 4712 H 426.753 -2.68512 1.60063 0
M  V30 4713 H 425.973 -1.35629 3.70133 0
M  V30 4714 H 427.261 -2.18208 4.59633 0
M  V30 4715 H 426.659 -4.86493 2.88688 0
M  V30 4716 H 425.216 -5.39949 3.65101 0
M  V30 4717 N 428.649 -1.55105 -0.279332 0
M  V30 4718 C 429.612 -1.86783 -1.32834 0
M  V30 4719 C 430.612 -0.74199 -1.42657 0
M  V30 4720 O 431.802 -1.0102 -1.41918 0
M  V30 4721 C 428.934 -2.06746 -2.71052 0
M  V30 4722 H 430.127 -2.8055 -1.05979 0
M  V30 4723 H 427.68 -1.47499 -0.517087 0
M  V30 4724 H 428.415 -1.15339 -3.03097 0
M  V30 4725 H 428.2 -2.88711 -2.65309 0
M  V30 4726 H 429.69 -2.32549 -3.46858 0
M  V30 4727 N 430.127 0.543554 -1.4793 0
M  V30 4728 C 431.373 1.30201 -1.55485 0
M  V30 4729 C 431.706 1.92925 -0.222201 0
M  V30 4730 O 430.981 1.78586 0.77053 0
M  V30 4731 C 431.264 2.40174 -2.68307 0
M  V30 4732 C 431.117 1.8223 -4.11233 0
M  V30 4733 C 432.436 3.42024 -2.76961 0
M  V30 4734 H 429.555 0.472036 -0.565996 0
M  V30 4735 H 432.197 0.606914 -1.80046 0
M  V30 4736 H 430.347 2.99463 -2.47495 0
M  V30 4737 H 432.019 1.27096 -4.43446 0
M  V30 4738 H 430.262 1.12832 -4.18869 0
M  V30 4739 H 430.933 2.61793 -4.85972 0
M  V30 4740 H 433.409 2.92672 -2.95774 0
M  V30 4741 H 432.285 4.16383 -3.57654 0
M  V30 4742 H 432.546 4.0173 -1.84568 0
M  V30 4743 N 431.605 1.3629 0.791371 0
M  V30 4744 C 432.552 1.30458 1.90393 0
M  V30 4745 C 433.522 0.173632 1.6519 0
M  V30 4746 O 434.707 0.35983 1.87376 0
M  V30 4747 C 431.847 1.09777 3.27174 0
M  V30 4748 C 430.96 2.31929 3.64462 0
M  V30 4749 C 430.095 2.04276 4.90352 0
M  V30 4750 C 429.134 3.224 5.20312 0
M  V30 4751 N 428.271 2.94424 6.37385 0
M  V30 4752 H 433.111 2.25589 1.94714 0
M  V30 4753 H 430.648 1.12122 0.952216 0
M  V30 4754 H 432.606 0.958133 4.06049 0
M  V30 4755 H 431.236 0.183014 3.22281 0
M  V30 4756 H 430.288 2.56703 2.80727 0
M  V30 4757 H 431.6 3.20085 3.82553 0
M  V30 4758 H 430.754 1.87231 5.77087 0
M  V30 4759 H 429.493 1.13428 4.74326 0
M  V30 4760 H 428.498 3.40005 4.32061 0
M  V30 4761 H 429.723 4.14071 5.38258 0
M  V30 4762 H 427.669 2.06185 6.22755 0
M  V30 4763 H 427.586 3.76118 6.55798 0
M  V30 4764 H 428.854 2.80953 7.27108 0
M  V30 4765 N 433.083 -1.0153 1.20538 0
M  V30 4766 C 434.03 -2.10098 0.955383 0
M  V30 4767 C 435 -1.65702 -0.114878 0
M  V30 4768 O 436.185 -1.90776 0.0301118 0
M  V30 4769 C 433.325 -3.41236 0.514969 0
M  V30 4770 C 432.438 -3.99102 1.65353 0
M  V30 4771 C 431.573 -5.18306 1.16329 0
M  V30 4772 C 430.612 -5.68258 2.27485 0
M  V30 4773 N 429.749 -6.78722 1.7967 0
M  V30 4774 H 434.589 -2.30818 1.88486 0
M  V30 4775 H 432.126 -1.13189 0.939499 0
M  V30 4776 H 434.084 -4.16504 0.240935 0
M  V30 4777 H 432.714 -3.20585 -0.377512 0
M  V30 4778 H 431.766 -3.20918 2.04245 0
M  V30 4779 H 433.078 -4.32177 2.49047 0
M  V30 4780 H 432.232 -6.00782 0.845302 0
M  V30 4781 H 430.971 -4.86799 0.296254 0
M  V30 4782 H 429.976 -4.84385 2.60099 0
M  V30 4783 H 431.201 -6.01798 3.14667 0
M  V30 4784 H 429.147 -6.49042 0.95295 0
M  V30 4785 H 429.064 -7.10996 2.56944 0
M  V30 4786 H 430.332 -7.64759 1.50875 0
M  V30 4787 N 434.561 -1.01147 -1.20859 0
M  V30 4788 C 435.838 -0.613136 -1.85742 0
M  V30 4789 C 436.218 0.909004 -1.90526 0
M  V30 4790 O 435.566 1.79862 -1.40932 0
M  V30 4791 C 435.776 -1.255 -3.25654 0
M  V30 4792 C 437.124 -1.3672 -4.01986 0
M  V30 4793 O 438.148 -1.21082 -3.34989 0
M  V30 4794 O 437.007 -1.6194 -5.21956 0
M  V30 4795 H 434.101 -0.210878 -0.799662 0
M  V30 4796 H 436.647 -1.10853 -1.2849 0
M  V30 4797 H 435.419 -2.29532 -3.16908 0
M  V30 4798 H 435.042 -0.746369 -3.90532 0
M  V30 4799 N 436.039 1.36541 -0.78704 0
M  V30 4800 C 436.971 2.28761 -0.141773 0
M  V30 4801 C 437.984 1.49365 0.647599 0
M  V30 4802 O 439.173 1.71836 0.483173 0
M  V30 4803 C 436.273 3.28771 0.822368 0
M  V30 4804 C 435.446 4.3732 0.0835594 0
M  V30 4805 C 434.505 5.17307 0.963296 0
M  V30 4806 O 433.531 5.67638 0.421419 0
M  V30 4807 N 434.733 5.33515 2.28784 0
M  V30 4808 H 437.498 2.84777 -0.933919 0
M  V30 4809 H 435.059 1.48682 -0.640735 0
M  V30 4810 H 437.051 3.79169 1.41468 0
M  V30 4811 H 435.621 2.73412 1.5154 0
M  V30 4812 H 434.841 3.88118 -0.689809 0
M  V30 4813 H 436.129 5.0701 -0.426358 0
M  V30 4814 H 435.527 4.94234 2.75226 0
M  V30 4815 H 434.084 5.87165 2.82985 0
M  V30 4816 N 437.518 0.538854 1.48102 0
M  V30 4817 C 438.428 -0.222648 2.33541 0
M  V30 4818 C 439.444 -0.930225 1.47047 0
M  V30 4819 O 440.62 -0.903211 1.80011 0
M  V30 4820 C 437.685 -1.25064 3.23357 0
M  V30 4821 C 436.746 -0.552469 4.2573 0
M  V30 4822 C 435.979 -1.53149 5.11254 0
M  V30 4823 O 436.202 -2.76487 4.9891 0
M  V30 4824 O 435.136 -1.06602 5.92385 0
M  V30 4825 H 438.962 0.477707 2.99919 0
M  V30 4826 H 436.547 0.299669 1.46364 0
M  V30 4827 H 438.429 -1.8445 3.78888 0
M  V30 4828 H 437.104 -1.93325 2.59629 0
M  V30 4829 H 436.011 0.082114 3.7401 0
M  V30 4830 H 437.344 0.0883526 4.92121 0
M  V30 4831 N 438.996 -1.55193 0.274407 0
M  V30 4832 C 440.244 -1.99187 -0.341902 0
M  V30 4833 C 440.565 -1.16422 -1.56431 0
M  V30 4834 O 439.835 -0.253573 -1.94252 0
M  V30 4835 H 438.415 -0.735721 -0.129317 0
M  V30 4836 H 441.077 -1.91168 0.379578 0
M  V30 4837 H 440.173 -3.05629 -0.632253 0
M  V30 4838 N 440.474 -0.00167713 -1.576 0
M  V30 4839 C 441.751 0.719951 -1.81868 0
M  V30 4840 C 442.131 1.91895 -0.879747 0
M  V30 4841 O 441.479 2.28389 0.0711423 0
M  V30 4842 C 441.689 1.12409 -3.30402 0
M  V30 4843 C 443.037 1.52724 -3.96182 0
M  V30 4844 O 444.061 1.21784 -3.34734 0
M  V30 4845 O 442.92 2.10265 -5.04431 0
M  V30 4846 H 440.014 0.350707 -0.748955 0
M  V30 4847 H 442.56 -0.0272597 -1.69678 0
M  V30 4848 H 441.332 0.269532 -3.90371 0
M  V30 4849 H 440.955 1.93035 -3.47596 0
M  V30 4850 N 441.952 1.55251 0.271103 0
M  V30 4851 C 443.177 1.80306 1.02491 0
M  V30 4852 C 443.602 0.575457 1.79081 0
M  V30 4853 O 442.96 -0.474987 1.74967 0
M  V30 4854 C 443.008 3.02832 1.95768 0
M  V30 4855 O 442.112 2.78051 3.04568 0
M  V30 4856 H 441.453 0.595896 0.292923 0
M  V30 4857 H 443.983 2.02397 0.299436 0
M  V30 4858 H 443.993 3.31616 2.37686 0
M  V30 4859 H 442.668 3.9183 1.39434 0
M  V30 4860 H 441.245 2.60369 2.66951 0
M  V30 4861 N 443.43 -0.535701 1.48216 0
M  V30 4862 C 444.393 -1.623 1.61838 0
M  V30 4863 C 445.393 -1.53087 0.492024 0
M  V30 4864 O 446.583 -1.5686 0.757668 0
M  V30 4865 C 443.715 -3.01907 1.58319 0
M  V30 4866 H 444.908 -1.51564 2.58783 0
M  V30 4867 H 442.461 -0.757317 1.36727 0
M  V30 4868 H 443.196 -3.18155 0.628299 0
M  V30 4869 H 442.981 -3.10003 2.40085 0
M  V30 4870 H 444.471 -3.80969 1.71033 0
M  V30 4871 N 444.908 -1.36708 -0.784132 0
M  V30 4872 C 445.871 -1.31307 -1.87859 0
M  V30 4873 C 446.871 -0.219654 -1.59293 0
M  V30 4874 O 448.061 -0.47476 -1.67606 0
M  V30 4875 C 445.193 -1.03679 -3.24751 0
M  V30 4876 H 446.386 -2.28647 -1.94064 0
M  V30 4877 H 443.939 -1.21558 -0.98252 0
M  V30 4878 H 444.674 -0.0681936 -3.24228 0
M  V30 4879 H 444.459 -1.82811 -3.46876 0
M  V30 4880 H 445.949 -1.02518 -4.04821 0
M  V30 4881 N 446.386 1.0089 -1.21074 0
M  V30 4882 C 447.349 2.0775 -0.968129 0
M  V30 4883 C 448.349 1.6069 0.0593445 0
M  V30 4884 O 449.539 1.73293 -0.177525 0
M  V30 4885 C 446.671 3.37794 -0.459108 0
M  V30 4886 H 447.864 2.30707 -1.9161 0
M  V30 4887 H 445.417 1.17807 -1.02719 0
M  V30 4888 H 446.152 3.20516 0.49397 0
M  V30 4889 H 445.937 3.7328 -1.20019 0
M  V30 4890 H 447.427 4.16454 -0.309099 0
M  V30 4891 N 447.864 1.01787 1.20321 0
M  V30 4892 C 448.794 0.609625 2.25401 0
M  V30 4893 C 449.775 -0.375951 1.65893 0
M  V30 4894 O 450.96 -0.261101 1.92437 0
M  V30 4895 C 448.09 -0.0515995 3.47262 0
M  V30 4896 C 447.044 0.855095 4.19371 0
M  V30 4897 C 446.37 0.0595757 5.34667 0
M  V30 4898 C 447.67 2.16374 4.75373 0
M  V30 4899 H 449.364 1.48803 2.59804 0
M  V30 4900 H 446.91 0.716934 1.24884 0
M  V30 4901 H 448.863 -0.348764 4.19954 0
M  V30 4902 H 447.587 -0.964726 3.12027 0
M  V30 4903 H 446.246 1.13628 3.48546 0
M  V30 4904 H 445.894 -0.85524 4.95676 0
M  V30 4905 H 445.594 0.663406 5.83843 0
M  V30 4906 H 447.118 -0.231105 6.10162 0
M  V30 4907 H 448.532 1.92885 5.39878 0
M  V30 4908 H 446.929 2.71853 5.34991 0
M  V30 4909 H 447.999 2.82589 3.94045 0
M  V30 4910 N 449.342 -1.36122 0.79427 0
M  V30 4911 C 450.567 -2.03891 0.379871 0
M  V30 4912 C 450.992 -1.59488 -0.997251 0
M  V30 4913 O 450.35 -0.765652 -1.64339 0
M  V30 4914 C 450.398 -3.57687 0.457442 0
M  V30 4915 O 449.502 -4.08931 -0.5338 0
M  V30 4916 H 448.843 -0.6443 0.160541 0
M  V30 4917 H 451.373 -1.73976 1.07673 0
M  V30 4918 H 451.383 -4.06721 0.322792 0
M  V30 4919 H 450.058 -3.89357 1.46199 0
M  V30 4920 H 448.635 -3.71154 -0.360409 0
M  V30 4921 N 450.82 -0.546701 -1.47814 0
M  V30 4922 C 451.75 0.195317 -2.32682 0
M  V30 4923 C 452.731 0.918981 -1.43139 0
M  V30 4924 O 453.916 0.901501 -1.72008 0
M  V30 4925 C 451.046 1.23237 -3.247 0
M  V30 4926 C 450 0.625818 -4.234 0
M  V30 4927 C 449.326 1.76674 -5.04669 0
M  V30 4928 C 450.626 -0.413515 -5.2066 0
M  V30 4929 H 452.32 -0.513184 -2.94969 0
M  V30 4930 H 449.866 -0.248241 -1.41844 0
M  V30 4931 H 451.819 1.75955 -3.82907 0
M  V30 4932 H 450.543 1.97067 -2.60446 0
M  V30 4933 H 449.202 0.120023 -3.66403 0
M  V30 4934 H 448.85 2.49383 -4.36826 0
M  V30 4935 H 448.55 1.36673 -5.71484 0
M  V30 4936 H 450.074 2.29738 -5.65732 0
M  V30 4937 H 451.488 0.0272042 -5.73294 0
M  V30 4938 H 449.885 -0.731825 -5.95621 0
M  V30 4939 H 450.955 -1.31325 -4.66778 0
M  V30 4940 N 452.299 1.55045 -0.282633 0
M  V30 4941 C 453.529 2.03872 0.334635 0
M  V30 4942 C 453.937 1.16018 1.49454 0
M  V30 4943 O 453.28 0.174449 1.8287 0
M  V30 4944 C 453.342 3.48791 0.870905 0
M  V30 4945 C 453.006 4.56715 -0.161338 0
M  V30 4946 C 454.003 5.10513 -0.983466 0
M  V30 4947 C 451.688 5.01417 -0.297745 0
M  V30 4948 C 453.682 6.07538 -1.92811 0
M  V30 4949 C 451.369 5.98265 -1.24586 0
M  V30 4950 C 452.367 6.51208 -2.05954 0
M  V30 4951 O 452.055 7.46162 -2.99162 0
M  V30 4952 H 451.787 0.671324 0.0793742 0
M  V30 4953 H 454.341 2.01169 -0.41473 0
M  V30 4954 H 452.571 3.48758 1.67047 0
M  V30 4955 H 454.26 3.80916 1.40207 0
M  V30 4956 H 455.026 4.76785 -0.888856 0
M  V30 4957 H 450.905 4.59849 0.325604 0
M  V30 4958 H 454.449 6.48787 -2.56363 0
M  V30 4959 H 450.346 6.31412 -1.34126 0
M  V30 4960 H 451.114 7.63903 -2.93929 0
M  V30 4961 N 453.777 0.010035 1.57597 0
M  V30 4962 C 455.017 -0.677084 1.9286 0
M  V30 4963 C 455.381 -1.70377 0.885192 0
M  V30 4964 O 456.582 -2.44199 1.12339 0
M  V30 4965 C 454.853 -1.29452 3.33132 0
M  V30 4966 S 456.412 -2.00537 3.90295 0
M  V30 4967 H 453.23 -0.223409 0.674989 0
M  V30 4968 H 455.832 0.0691289 1.95378 0
M  V30 4969 H 454.536 -0.534593 4.06903 0
M  V30 4970 H 454.067 -2.07845 3.34012 0
M  V30 4971 H 456.082 -3.28168 3.72183 0
M  V30 4972 N 455.255 -1.55392 -0.262866 0
M  V30 4973 C 456.202 -1.88966 -1.32516 0
M  V30 4974 C 457.172 -0.742187 -1.48596 0
M  V30 4975 O 458.357 -0.99439 -1.62839 0
M  V30 4976 C 455.497 -2.17592 -2.67858 0
M  V30 4977 C 454.61 -3.45061 -2.59917 0
M  V30 4978 C 453.745 -3.63336 -3.87505 0
M  V30 4979 C 452.784 -4.84462 -3.74116 0
M  V30 4980 N 451.921 -4.99342 -4.93561 0
M  V30 4981 H 456.761 -2.79566 -1.03184 0
M  V30 4982 H 454.298 -1.38404 -0.498285 0
M  V30 4983 H 456.256 -2.3219 -3.46617 0
M  V30 4984 H 454.886 -1.30215 -2.95371 0
M  V30 4985 H 453.938 -3.38881 -1.72812 0
M  V30 4986 H 455.25 -4.3396 -2.45926 0
M  V30 4987 H 454.404 -3.77807 -4.74707 0
M  V30 4988 H 453.143 -2.72641 -4.04374 0
M  V30 4989 H 452.148 -4.69985 -2.85297 0
M  V30 4990 H 453.373 -5.76603 -3.58757 0
M  V30 4991 H 451.319 -4.1158 -5.10821 0
M  V30 4992 H 451.236 -5.82303 -4.82141 0
M  V30 4993 H 452.504 -5.18208 -5.82306 0
M  V30 4994 N 456.733 0.527833 -1.48498 0
M  V30 4995 C 457.696 1.61439 -1.62696 0
M  V30 4996 C 458.696 1.52824 -0.500136 0
M  V30 4997 O 459.886 1.56456 -0.765976 0
M  V30 4998 C 457.018 3.01063 -1.59918 0
M  V30 4999 H 458.211 1.50189 -2.59583 0
M  V30 5000 H 455.764 0.750055 -1.37127 0
M  V30 5001 H 456.499 3.17818 -0.645163 0
M  V30 5002 H 456.284 3.08725 -2.41726 0
M  V30 5003 H 457.774 3.80057 -1.73051 0
M  V30 5004 N 458.211 1.37122 0.776871 0
M  V30 5005 C 459.141 1.35164 1.90402 0
M  V30 5006 C 460.122 0.221069 1.68657 0
M  V30 5007 O 461.307 0.420642 1.8959 0
M  V30 5008 C 458.437 1.15274 3.27611 0
M  V30 5009 C 457.391 2.25289 3.63908 0
M  V30 5010 C 456.717 1.90527 4.99603 0
M  V30 5011 C 458.017 3.67446 3.71188 0
M  V30 5012 H 459.711 2.29482 1.92297 0
M  V30 5013 H 457.257 1.10465 0.923773 0
M  V30 5014 H 459.21 1.12536 4.06096 0
M  V30 5015 H 457.934 0.174102 3.26136 0
M  V30 5016 H 456.593 2.27174 2.87728 0
M  V30 5017 H 456.241 0.91206 4.94662 0
M  V30 5018 H 455.941 2.64193 5.24858 0
M  V30 5019 H 457.465 1.89367 5.80493 0
M  V30 5020 H 458.879 3.67719 4.39836 0
M  V30 5021 H 457.276 4.40123 4.07936 0
M  V30 5022 H 458.346 4.01443 2.71977 0
M  V30 5023 N 459.689 -1.00246 1.21608 0
M  V30 5024 C 460.966 -1.71336 0.943568 0
M  V30 5025 C 461.346 -2.03972 -0.543943 0
M  V30 5026 O 460.694 -1.71545 -1.50946 0
M  V30 5027 C 460.904 -2.97094 1.83128 0
M  V30 5028 C 462.252 -3.70071 2.08165 0
M  V30 5029 O 463.276 -3.07081 1.80498 0
M  V30 5030 O 462.135 -4.83376 2.54971 0
M  V30 5031 H 459.229 -0.747386 0.354039 0
M  V30 5032 H 461.775 -1.05967 1.32549 0
M  V30 5033 H 460.547 -2.69407 2.83788 0
M  V30 5034 H 460.17 -3.70204 1.45034 0
M  V30 5035 N 461.167 -1.02423 -1.1978 0
M  V30 5036 C 462.414 -0.717988 -1.89344 0
M  V30 5037 C 462.742 0.753036 -1.79331 0
M  V30 5038 O 461.997 1.56355 -1.17692 0
M  V30 5039 C 462.296 -1.1088 -3.39765 0
M  V30 5040 C 461.962 -2.57731 -3.6998 0
M  V30 5041 C 460.624 -2.97854 -3.77937 0
M  V30 5042 C 462.976 -3.52763 -3.83677 0
M  V30 5043 C 460.304 -4.31931 -3.97054 0
M  V30 5044 C 462.656 -4.86538 -4.04306 0
M  V30 5045 C 461.32 -5.26356 -4.10494 0
M  V30 5046 H 460.59 -0.26273 -0.692859 0
M  V30 5047 H 463.237 -1.28623 -1.41875 0
M  V30 5048 H 461.542 -0.459094 -3.89101 0
M  V30 5049 H 463.239 -0.849432 -3.919 0
M  V30 5050 H 459.829 -2.25646 -3.64393 0
M  V30 5051 H 464.013 -3.2292 -3.76877 0
M  V30 5052 H 459.269 -4.62324 -4.00083 0
M  V30 5053 H 463.443 -5.60093 -4.13846 0
M  V30 5054 H 461.07 -6.3026 -4.2506 0
M  V30 5055 N 462.645 1.35699 -0.801477 0
M  V30 5056 C 463.892 1.98913 -0.379459 0
M  V30 5057 C 464.22 1.63592 1.05204 0
M  V30 5058 O 463.475 0.888563 1.74365 0
M  V30 5059 C 463.774 3.53828 -0.504041 0
M  V30 5060 C 463.44 4.09002 -1.8981 0
M  V30 5061 C 462.102 4.23783 -2.27951 0
M  V30 5062 C 464.454 4.38939 -2.81038 0
M  V30 5063 C 461.782 4.65816 -3.56696 0
M  V30 5064 C 464.134 4.82409 -4.09224 0
M  V30 5065 C 462.798 4.95395 -4.4737 0
M  V30 5066 H 462.068 0.727874 -0.138854 0
M  V30 5067 H 464.715 1.61994 -1.02128 0
M  V30 5068 H 463.02 3.91175 0.221242 0
M  V30 5069 H 464.717 4.00687 -0.158361 0
M  V30 5070 H 461.307 3.97946 -1.59176 0
M  V30 5071 H 465.491 4.27077 -2.52821 0
M  V30 5072 H 460.747 4.74059 -3.86106 0
M  V30 5073 H 464.921 5.04535 -4.80018 0
M  V30 5074 H 462.548 5.27724 -5.47185 0
M  V30 5075 N 464.123 0.554532 1.47522 0
M  V30 5076 C 465.369 0.0295227 2.02779 0
M  V30 5077 C 465.702 -1.31582 1.42828 0
M  V30 5078 O 464.977 -1.85561 0.582872 0
M  V30 5079 C 465.26 -0.0664057 3.60039 0
M  V30 5080 C 465.113 1.30585 4.30427 0
M  V30 5081 C 466.432 -0.781162 4.33112 0
M  V30 5082 H 463.551 0.0122027 0.736899 0
M  V30 5083 H 466.193 0.716305 1.7598 0
M  V30 5084 H 464.343 -0.651307 3.83002 0
M  V30 5085 H 466.015 1.93374 4.18813 0
M  V30 5086 H 464.258 1.88125 3.90886 0
M  V30 5087 H 464.929 1.19147 5.38988 0
M  V30 5088 H 467.405 -0.284565 4.15126 0
M  V30 5089 H 466.281 -0.817237 5.42782 0
M  V30 5090 H 466.542 -1.83672 4.0214 0
M  V30 5091 N 465.601 -1.54893 0.290851 0
M  V30 5092 C 467.012 -1.85584 -0.203816 0
M  V30 5093 C 467.363 -1.21285 -1.54222 0
M  V30 5094 O 466.488 -0.506841 -2.10381 0
M  V30 5095 C 467.083 -3.367 -0.376595 0
M  V30 5096 C 465.642 -3.6746 -0.815485 0
M  V30 5097 C 464.789 -2.77178 0.0821087 0
M  V30 5098 H 467.74 -1.50208 0.512175 0
M  V30 5099 H 467.761 -3.60656 -1.21275 0
M  V30 5100 H 467.273 -3.8347 0.59767 0
M  V30 5101 H 465.374 -3.26201 -1.80066 0
M  V30 5102 H 465.487 -4.7478 -0.641905 0
M  V30 5103 H 463.851 -2.50925 -0.436895 0
M  V30 5104 H 464.634 -3.26767 1.05254 0
M  V30 5105 N 467.08 -0.0183926 -1.57589 0
M  V30 5106 C 468.043 0.951986 -2.08494 0
M  V30 5107 C 469.043 1.26092 -0.997874 0
M  V30 5108 O 470.233 1.20304 -1.25987 0
M  V30 5109 C 467.365 2.27165 -2.54182 0
M  V30 5110 H 468.558 0.511307 -2.95509 0
M  V30 5111 H 466.111 0.229444 -1.54607 0
M  V30 5112 H 466.846 2.75884 -1.70465 0
M  V30 5113 H 466.631 2.06057 -3.33591 0
M  V30 5114 H 468.121 2.9674 -2.93828 0
M  V30 5115 N 468.558 1.5553 0.254621 0
M  V30 5116 C 469.488 1.9268 1.31897 0
M  V30 5117 C 470.469 0.790797 1.506 0
M  V30 5118 O 471.654 1.05045 1.63337 0
M  V30 5119 C 468.784 2.21477 2.67517 0
M  V30 5120 C 467.738 3.37256 2.63519 0
M  V30 5121 C 467.064 3.51576 4.02862 0
M  V30 5122 C 468.364 4.73157 2.21179 0
M  V30 5123 H 470.058 2.81832 1.01051 0
M  V30 5124 H 467.604 1.35599 0.484662 0
M  V30 5125 H 469.557 2.46055 3.42104 0
M  V30 5126 H 468.281 1.29144 2.99982 0
M  V30 5127 H 466.94 3.12675 1.9139 0
M  V30 5128 H 466.588 2.56676 4.32581 0
M  V30 5129 H 466.288 4.2943 4.01078 0
M  V30 5130 H 467.812 3.78467 4.79161 0
M  V30 5131 H 469.226 4.97158 2.85494 0
M  V30 5132 H 467.623 5.54058 2.30521 0
M  V30 5133 H 468.693 4.70739 1.16332 0
M  V30 5134 N 470.036 -0.519951 1.48776 0
M  V30 5135 C 470.986 -1.61995 1.60442 0
M  V30 5136 C 471.97 -1.54155 0.460991 0
M  V30 5137 O 473.162 -1.62006 0.712965 0
M  V30 5138 C 470.291 -3.00683 1.65664 0
M  V30 5139 C 469.377 -3.1359 2.8552 0
M  V30 5140 N 469.768 -2.96441 4.09825 0
M  V30 5141 C 468.066 -3.44662 2.83062 0
M  V30 5142 C 468.767 -3.1303 4.90293 0
M  V30 5143 N 467.743 -3.41058 4.23297 0
M  V30 5144 H 471.545 -1.47362 2.54287 0
M  V30 5145 H 469.059 -0.725649 1.45286 0
M  V30 5146 H 471.056 -3.79712 1.72117 0
M  V30 5147 H 469.716 -3.16401 0.729425 0
M  V30 5148 H 470.727 -2.72999 4.40104 0
M  V30 5149 H 467.404 -3.66675 1.9964 0
M  V30 5150 H 468.794 -3.04424 5.98979 0
M  V30 5151 N 471.514 -1.37532 -0.769588 0
M  V30 5152 C 472.744 -1.35861 -1.55645 0
M  V30 5153 C 473.152 0.0574398 -1.89113 0
M  V30 5154 O 472.495 1.03021 -1.52093 0
M  V30 5155 C 472.557 -2.13431 -2.89288 0
M  V30 5156 C 472.221 -3.62378 -2.78444 0
M  V30 5157 C 473.218 -4.56215 -2.49326 0
M  V30 5158 C 470.903 -4.05529 -2.96398 0
M  V30 5159 C 472.897 -5.91181 -2.38294 0
M  V30 5160 C 470.584 -5.40579 -2.84987 0
M  V30 5161 C 471.582 -6.33218 -2.55975 0
M  V30 5162 O 471.27 -7.65787 -2.44594 0
M  V30 5163 H 471.002 -0.467001 -0.48876 0
M  V30 5164 H 473.556 -1.81505 -0.961515 0
M  V30 5165 H 471.786 -1.62481 -3.50909 0
M  V30 5166 H 473.475 -2.04368 -3.50697 0
M  V30 5167 H 474.241 -4.24187 -2.35139 0
M  V30 5168 H 470.12 -3.33781 -3.1798 0
M  V30 5169 H 473.664 -6.63457 -2.15571 0
M  V30 5170 H 469.561 -5.72209 -2.98743 0
M  V30 5171 H 470.329 -7.76132 -2.59927 0
M  V30 5172 N 472.992 0.995999 -1.22138 0
M  V30 5173 C 473.902 2.11985 -1.00496 0
M  V30 5174 C 474.918 1.7394 0.0457701 0
M  V30 5175 O 476.094 2.00868 -0.146273 0
M  V30 5176 C 473.159 3.41779 -0.582086 0
M  V30 5177 C 472.22 3.93943 -1.70608 0
M  V30 5178 C 471.453 5.17542 -1.30328 0
M  V30 5179 O 471.676 5.70114 -0.180743 0
M  V30 5180 O 470.61 5.63382 -2.11861 0
M  V30 5181 H 474.436 2.33123 -1.94647 0
M  V30 5182 H 472.021 1.10358 -1.00705 0
M  V30 5183 H 473.903 4.1989 -0.356467 0
M  V30 5184 H 472.578 3.22007 0.330592 0
M  V30 5185 H 471.485 3.17019 -1.98619 0
M  V30 5186 H 472.818 4.18141 -2.59651 0
M  V30 5187 N 474.47 1.03057 1.19235 0
M  V30 5188 C 475.716 0.729098 1.89241 0
M  V30 5189 C 476.049 -0.740573 1.79525 0
M  V30 5190 O 475.324 -1.53946 1.18874 0
M  V30 5191 C 475.607 1.18304 3.40112 0
M  V30 5192 C 475.46 2.71406 3.5869 0
M  V30 5193 C 476.779 0.765161 4.33397 0
M  V30 5194 H 473.898 0.266338 0.687192 0
M  V30 5195 H 476.54 1.28079 1.40341 0
M  V30 5196 H 474.69 0.713672 3.81889 0
M  V30 5197 H 476.362 3.26303 3.26074 0
M  V30 5198 H 474.605 3.11717 3.01687 0
M  V30 5199 H 475.276 2.98225 4.64506 0
M  V30 5200 H 477.752 1.16889 3.99345 0
M  V30 5201 H 476.628 1.11065 5.37546 0
M  V30 5202 H 476.889 -0.332372 4.40849 0
M  V30 5203 N 475.948 -1.35272 0.808662 0
M  V30 5204 C 477.225 -1.93077 0.313181 0
M  V30 5205 C 477.605 -1.73847 -1.19752 0
M  V30 5206 O 476.953 -1.1087 -1.998 0
M  V30 5207 C 477.163 -3.41347 0.726859 0
M  V30 5208 C 478.511 -4.18493 0.717532 0
M  V30 5209 O 479.535 -3.4987 0.668535 0
M  V30 5210 O 478.394 -5.40937 0.777779 0
M  V30 5211 H 475.488 -0.822885 0.0824018 0
M  V30 5212 H 478.034 -1.44335 0.892499 0
M  V30 5213 H 476.806 -3.49082 1.76797 0
M  V30 5214 H 476.429 -3.97411 0.122461 0
M  V30 5215 N 477.426 -0.562348 -1.47226 0
M  V30 5216 C 478.389 0.172056 -2.28553 0
M  V30 5217 C 479.389 0.837928 -1.37242 0
M  V30 5218 O 480.579 0.693001 -1.59822 0
M  V30 5219 C 477.711 1.25223 -3.17068 0
M  V30 5220 H 478.904 -0.542401 -2.94954 0
M  V30 5221 H 476.457 -0.319493 -1.53 0
M  V30 5222 H 477.192 1.99892 -2.55369 0
M  V30 5223 H 476.977 0.779515 -3.84273 0
M  V30 5224 H 478.467 1.76791 -3.78332 0
M  V30 5225 N 478.904 1.54736 -0.299062 0
M  V30 5226 C 479.836 2.20891 0.61153 0
M  V30 5227 C 480.849 1.20104 1.09904 0
M  V30 5228 O 482.038 1.46707 1.01683 0
M  V30 5229 C 479.138 2.84018 1.84897 0
M  V30 5230 C 478.311 4.10719 1.50428 0
M  V30 5231 C 477.37 4.57667 2.59667 0
M  V30 5232 O 476.396 5.2291 2.24842 0
M  V30 5233 N 477.598 4.29821 3.90172 0
M  V30 5234 H 480.363 2.99666 0.0452001 0
M  V30 5235 H 477.924 1.61446 -0.121178 0
M  V30 5236 H 479.916 3.1236 2.5732 0
M  V30 5237 H 478.486 2.09095 2.32375 0
M  V30 5238 H 477.706 3.89408 0.612781 0
M  V30 5239 H 478.994 4.93223 1.24934 0
M  V30 5240 H 478.392 3.77549 4.21276 0
M  V30 5241 H 476.949 4.62877 4.58899 0
M  V30 5242 N 480.382 0.0267497 1.57577 0
M  V30 5243 C 481.798 -0.32962 1.56159 0
M  V30 5244 C 481.998 -1.73059 1.03213 0
M  V30 5245 O 481.054 -2.43233 0.677804 0
M  V30 5246 C 482.367 -0.18039 3.00158 0
M  V30 5247 C 483.915 -0.253334 3.11973 0
M  V30 5248 C 484.39 -0.132921 4.57807 0
M  V30 5249 N 485.881 -0.189979 4.6281 0
M  V30 5250 C 486.616 -0.120554 5.73273 0
M  V30 5251 N 486.112 -0.000180315 6.928 0
M  V30 5252 N 487.905 -0.174369 5.61829 0
M  V30 5253 H 480.056 0.942896 1.90324 0
M  V30 5254 H 482.319 0.3639 0.875375 0
M  V30 5255 H 482.025 0.784576 3.42837 0
M  V30 5256 H 481.899 -0.951565 3.65 0
M  V30 5257 H 484.286 -1.20876 2.69208 0
M  V30 5258 H 484.367 0.548177 2.49857 0
M  V30 5259 H 484.011 0.819073 5.01252 0
M  V30 5260 H 483.941 -0.953264 5.179 0
M  V30 5261 H 486.432 -0.283257 3.76837 0
M  V30 5262 H 486.745 0.0461666 7.72786 0
M  V30 5263 H 485.09 0.034569 6.94991 0
M  V30 5264 H 488.281 -0.266794 4.67339 0
M  V30 5265 H 488.454 -0.116802 6.47895 0
M  V30 5266 N 481.861 -1.55662 -0.24637 0
M  V30 5267 C 482.808 -1.90361 -1.30504 0
M  V30 5268 C 483.778 -0.757905 -1.47801 0
M  V30 5269 O 484.963 -1.01161 -1.61775 0
M  V30 5270 C 482.103 -2.2042 -2.65535 0
M  V30 5271 C 481.216 -3.47799 -2.56242 0
M  V30 5272 C 480.351 -3.67426 -3.8363 0
M  V30 5273 C 479.39 -4.88403 -3.68956 0
M  V30 5274 N 478.527 -5.04548 -4.88237 0
M  V30 5275 H 483.367 -2.80645 -1.00213 0
M  V30 5276 H 480.904 -1.38924 -0.483577 0
M  V30 5277 H 482.862 -2.35853 -3.44135 0
M  V30 5278 H 481.492 -1.3334 -2.93973 0
M  V30 5279 H 480.544 -3.40694 -1.69208 0
M  V30 5280 H 481.856 -4.36544 -2.4131 0
M  V30 5281 H 481.01 -3.82821 -4.70673 0
M  V30 5282 H 479.749 -2.76914 -4.01459 0
M  V30 5283 H 478.754 -4.72984 -2.80296 0
M  V30 5284 H 479.979 -5.80375 -3.52621 0
M  V30 5285 H 477.925 -4.16974 -5.06427 0
M  V30 5286 H 477.842 -5.87384 -4.75937 0
M  V30 5287 H 479.11 -5.24355 -5.76777 0
M  V30 5288 N 483.339 0.512053 -1.4905 0
M  V30 5289 C 484.249 1.64139 -1.67617 0
M  V30 5290 C 485.265 1.64786 -0.558701 0
M  V30 5291 O 486.441 1.8341 -0.832034 0
M  V30 5292 C 483.506 3.00548 -1.72835 0
M  V30 5293 C 482.567 3.10615 -2.96339 0
M  V30 5294 C 481.8 4.40517 -3.01298 0
M  V30 5295 O 482.023 5.28671 -2.14157 0
M  V30 5296 O 480.957 4.55325 -3.93653 0
M  V30 5297 H 484.783 1.51407 -2.63267 0
M  V30 5298 H 482.368 0.687131 -1.32661 0
M  V30 5299 H 484.25 3.81641 -1.78683 0
M  V30 5300 H 482.925 3.13566 -0.803616 0
M  V30 5301 H 481.832 2.2875 -2.96014 0
M  V30 5302 H 483.165 3.0252 -3.88256 0
M  V30 5303 N 484.817 1.37938 0.762283 0
M  V30 5304 C 485.78 1.34279 1.85747 0
M  V30 5305 C 486.78 0.244969 1.58923 0
M  V30 5306 O 487.97 0.501365 1.66829 0
M  V30 5307 C 485.102 1.08833 3.23061 0
M  V30 5308 H 486.295 2.31705 1.90401 0
M  V30 5309 H 483.848 1.23105 0.963057 0
M  V30 5310 H 484.583 0.119767 3.24079 0
M  V30 5311 H 484.368 1.88306 3.43923 0
M  V30 5312 H 485.858 1.08946 4.03138 0
M  V30 5313 N 486.295 -0.989507 1.22664 0
M  V30 5314 C 487.544 -1.72375 1.04737 0
M  V30 5315 C 487.857 -1.91096 -0.417316 0
M  V30 5316 O 489.063 -2.6188 -0.716334 0
M  V30 5317 C 487.519 -3.10161 1.82561 0
M  V30 5318 C 487.127 -2.99358 3.333 0
M  V30 5319 C 488.871 -3.87607 1.73093 0
M  V30 5320 C 486.778 -4.32319 4.03552 0
M  V30 5321 H 485.708 -0.646326 0.388302 0
M  V30 5322 H 488.359 -1.10437 1.46546 0
M  V30 5323 H 486.741 -3.728 1.33552 0
M  V30 5324 H 487.915 -2.45863 3.89728 0
M  V30 5325 H 486.23 -2.35392 3.43481 0
M  V30 5326 H 488.827 -4.86025 2.22899 0
M  V30 5327 H 489.17 -4.10509 0.691976 0
M  V30 5328 H 489.703 -3.31652 2.19663 0
M  V30 5329 H 486.442 -4.14616 5.07714 0
M  V30 5330 H 485.962 -4.85714 3.51911 0
M  V30 5331 H 487.641 -5.01051 4.09337 0
M  V30 5332 N 487.773 -1.03688 -1.18687 0
M  V30 5333 C 488.72 -0.624624 -2.22187 0
M  V30 5334 C 489.69 0.365636 -1.62026 0
M  V30 5335 O 490.875 0.260481 -1.89014 0
M  V30 5336 C 488.015 0.0101738 -3.45099 0
M  V30 5337 C 487.128 -1.02709 -4.19613 0
M  V30 5338 C 486.263 -0.361213 -5.2997 0
M  V30 5339 C 485.302 -1.38384 -5.96252 0
M  V30 5340 N 484.439 -0.743196 -6.98155 0
M  V30 5341 H 489.279 -1.51176 -2.56807 0
M  V30 5342 H 486.816 -0.75636 -1.26165 0
M  V30 5343 H 488.774 0.395528 -4.15321 0
M  V30 5344 H 487.404 0.860848 -3.1111 0
M  V30 5345 H 486.456 -1.53043 -3.48256 0
M  V30 5346 H 487.768 -1.80398 -4.65036 0
M  V30 5347 H 486.922 0.0785537 -6.06649 0
M  V30 5348 H 485.661 0.447799 -4.8564 0
M  V30 5349 H 484.666 -1.83378 -5.18317 0
M  V30 5350 H 485.891 -2.19448 -6.42666 0
M  V30 5351 H 483.837 0.0455789 -6.55984 0
M  V30 5352 H 483.754 -1.45784 -7.41811 0
M  V30 5353 H 485.022 -0.327698 -7.78811 0
M  V30 5354 N 489.251 1.34841 -0.815825 0
M  V30 5355 C 490.214 2.27959 -0.238185 0
M  V30 5356 C 491.214 1.49983 0.579816 0
M  V30 5357 O 492.404 1.69617 0.396953 0
M  V30 5358 C 489.536 3.34314 0.666876 0
M  V30 5359 H 490.729 2.80558 -1.05958 0
M  V30 5360 H 488.282 1.44852 -0.587156 0
M  V30 5361 H 489.017 2.86916 1.5116 0
M  V30 5362 H 488.802 3.92014 0.0819106 0
M  V30 5363 H 490.292 4.0379 1.06506 0
M  V30 5364 N 490.729 0.570148 1.46925 0
M  V30 5365 C 491.676 -0.170257 2.30171 0
M  V30 5366 C 492.646 -0.896099 1.39855 0
M  V30 5367 O 493.831 -0.889248 1.68811 0
M  V30 5368 C 490.971 -1.18605 3.24079 0
M  V30 5369 C 490.084 -0.464947 4.29491 0
M  V30 5370 C 489.219 -1.46716 5.10537 0
M  V30 5371 C 488.258 -0.731758 6.0771 0
M  V30 5372 N 487.395 -1.68142 6.81669 0
M  V30 5373 H 492.235 0.545713 2.92961 0
M  V30 5374 H 489.772 0.280938 1.44392 0
M  V30 5375 H 491.73 -1.78771 3.76957 0
M  V30 5376 H 490.36 -1.86989 2.63125 0
M  V30 5377 H 489.412 0.251506 3.79568 0
M  V30 5378 H 490.724 0.110548 4.98677 0
M  V30 5379 H 489.878 -2.14199 5.6763 0
M  V30 5380 H 488.617 -2.07658 4.41282 0
M  V30 5381 H 487.622 -0.0430787 5.49783 0
M  V30 5382 H 488.847 -0.127904 6.7898 0
M  V30 5383 H 486.793 -2.27918 6.15134 0
M  V30 5384 H 486.71 -1.15841 7.47072 0
M  V30 5385 H 487.978 -2.347 7.43328 0
M  V30 5386 N 492.207 -1.54576 0.307264 0
M  V30 5387 C 493.453 -2.0056 -0.300612 0
M  V30 5388 C 493.786 -1.1953 -1.53057 0
M  V30 5389 O 493.061 -0.27337 -1.92569 0
M  V30 5390 C 493.344 -3.54167 -0.650987 0
M  V30 5391 C 493.197 -4.45933 0.588539 0
M  V30 5392 C 494.516 -4.14645 -1.47506 0
M  V30 5393 H 491.635 -0.729075 -0.107788 0
M  V30 5394 H 494.277 -1.85286 0.420606 0
M  V30 5395 H 492.427 -3.67313 -1.26544 0
M  V30 5396 H 494.099 -4.44683 1.22697 0
M  V30 5397 H 492.342 -4.16274 1.22058 0
M  V30 5398 H 493.013 -5.51189 0.299153 0
M  V30 5399 H 495.489 -4.04973 -0.955821 0
M  V30 5400 H 494.365 -5.22269 -1.68899 0
M  V30 5401 H 494.626 -3.66921 -2.4662 0
M  V30 5402 N 493.685 -0.035106 -1.57561 0
M  V30 5403 C 494.933 0.64096 -1.91667 0
M  V30 5404 C 495.254 1.72323 -0.912681 0
M  V30 5405 O 494.524 1.95849 0.0449089 0
M  V30 5406 H 493.104 0.239743 -0.707483 0
M  V30 5407 H 495.766 -0.084321 -1.94718 0
M  V30 5408 H 494.862 1.08987 -2.92452 0
M  V30 5409 N 495.163 1.55791 0.238111 0
M  V30 5410 C 496.095 1.87513 1.31802 0
M  V30 5411 C 497.108 0.762053 1.43863 0
M  V30 5412 O 498.297 1.04024 1.45056 0
M  V30 5413 C 495.397 2.05402 2.69561 0
M  V30 5414 C 494.57 3.3632 2.79656 0
M  V30 5415 C 493.629 3.43844 3.98319 0
M  V30 5416 O 492.655 4.16994 3.87433 0
M  V30 5417 N 493.857 2.73777 5.11885 0
M  V30 5418 H 496.622 2.80734 1.04922 0
M  V30 5419 H 494.183 1.56135 0.428196 0
M  V30 5420 H 496.175 2.07769 3.47296 0
M  V30 5421 H 494.745 1.18884 2.89111 0
M  V30 5422 H 493.965 3.46195 1.88528 0
M  V30 5423 H 495.253 4.22594 2.83358 0
M  V30 5424 H 494.651 2.14094 5.23622 0
M  V30 5425 H 493.208 2.81825 5.87723 0
M  V30 5426 N 496.642 -0.504142 1.49319 0
M  V30 5427 C 497.872 -1.28071 1.62116 0
M  V30 5428 C 498.28 -1.86955 0.290566 0
M  V30 5429 O 497.623 -1.68415 -0.733616 0
M  V30 5430 C 497.685 -2.4521 2.62893 0
M  V30 5431 C 497.349 -2.07218 4.0732 0
M  V30 5432 C 498.346 -1.61375 4.94221 0
M  V30 5433 C 496.031 -2.16949 4.53033 0
M  V30 5434 C 498.025 -1.25763 6.2487 0
M  V30 5435 C 495.712 -1.80949 5.83696 0
M  V30 5436 C 496.71 -1.3543 6.69438 0
M  V30 5437 O 496.398 -0.99915 7.97667 0
M  V30 5438 H 496.13 -0.394763 0.54876 0
M  V30 5439 H 498.684 -0.612118 1.96067 0
M  V30 5440 H 496.914 -3.15134 2.24115 0
M  V30 5441 H 498.603 -3.0724 2.65252 0
M  V30 5442 H 499.369 -1.53306 4.60133 0
M  V30 5443 H 495.248 -2.5133 3.86463 0
M  V30 5444 H 498.792 -0.901631 6.91749 0
M  V30 5445 H 494.689 -1.88667 6.17313 0
M  V30 5446 H 495.457 -1.13089 8.1065 0
M  V30 5447 N 498.12 -1.38341 -0.754957 0
M  V30 5448 C 499.366 -1.34672 -1.51628 0
M  V30 5449 C 499.699 0.0636036 -1.94096 0
M  V30 5450 O 498.974 1.0245 -1.6533 0
M  V30 5451 C 499.257 -2.30116 -2.76981 0
M  V30 5452 C 499.11 -3.80003 -2.4066 0
M  V30 5453 C 500.429 -2.23715 -3.78998 0
M  V30 5454 H 497.548 -0.490517 -0.550056 0
M  V30 5455 H 500.19 -1.69178 -0.864807 0
M  V30 5456 H 498.34 -2.00821 -3.3257 0
M  V30 5457 H 500.012 -4.19966 -1.90856 0
M  V30 5458 H 498.255 -3.97751 -1.73137 0
M  V30 5459 H 498.926 -4.42244 -3.30339 0
M  V30 5460 H 501.402 -2.49574 -3.32945 0
M  V30 5461 H 500.278 -2.9261 -4.64403 0
M  V30 5462 H 500.539 -1.23554 -4.24484 0
M  V30 5463 N 499.598 0.982988 -1.23187 0
M  V30 5464 C 500.823 1.76455 -1.08988 0
M  V30 5465 C 501.248 1.84726 0.354691 0
M  V30 5466 O 500.606 1.30699 1.25649 0
M  V30 5467 C 500.654 3.17094 -1.71708 0
M  V30 5468 O 499.758 4.00648 -0.977477 0
M  V30 5469 H 499.099 0.542988 -0.382177 0
M  V30 5470 H 501.629 1.23413 -1.63188 0
M  V30 5471 H 501.639 3.67684 -1.76841 0
M  V30 5472 H 500.314 3.10389 -2.76823 0
M  V30 5473 H 498.891 3.59161 -1.0029 0
M  V30 5474 N 501.076 1.04316 1.18135 0
M  V30 5475 C 502.492 0.762858 1.40188 0
M  V30 5476 C 502.692 -0.646547 1.90846 0
M  V30 5477 O 501.748 -1.41036 2.0944 0
M  V30 5478 C 503.061 1.81106 2.40044 0
M  V30 5479 C 504.609 1.83226 2.53766 0
M  V30 5480 C 505.084 2.87044 3.56889 0
M  V30 5481 N 506.575 2.85951 3.64398 0
M  V30 5482 C 507.31 3.62932 4.43923 0
M  V30 5483 N 506.806 4.49672 5.27036 0
M  V30 5484 N 508.599 3.51411 4.38711 0
M  V30 5485 H 500.75 1.95264 0.835805 0
M  V30 5486 H 503.013 0.845017 0.429709 0
M  V30 5487 H 502.719 2.82214 2.09876 0
M  V30 5488 H 502.593 1.64529 3.39426 0
M  V30 5489 H 504.98 0.827869 2.8325 0
M  V30 5490 H 505.061 2.03879 1.54489 0
M  V30 5491 H 504.705 3.87663 3.28145 0
M  V30 5492 H 504.635 2.63645 4.5585 0
M  V30 5493 H 507.126 2.23051 3.05052 0
M  V30 5494 H 507.439 5.05116 5.84874 0
M  V30 5495 H 505.784 4.53738 5.26447 0
M  V30 5496 H 508.975 2.83047 3.72829 0
M  V30 5497 H 509.148 4.11654 5.00445 0
M  V30 5498 N 502.554 -1.34406 0.822964 0
M  V30 5499 C 503.517 -2.2783 0.250271 0
M  V30 5500 C 504.517 -1.50288 -0.571854 0
M  V30 5501 O 505.707 -1.69825 -0.387952 0
M  V30 5502 C 502.839 -3.34663 -0.649137 0
M  V30 5503 H 504.032 -2.79992 1.07444 0
M  V30 5504 H 501.585 -1.44539 0.594829 0
M  V30 5505 H 502.32 -2.87714 -1.49637 0
M  V30 5506 H 502.105 -3.92052 -0.0611199 0
M  V30 5507 H 503.595 -4.04349 -1.04363 0
M  V30 5508 N 504.032 -0.577932 -1.46621 0
M  V30 5509 C 504.942 0.160651 -2.34049 0
M  V30 5510 C 505.958 0.890911 -1.49462 0
M  V30 5511 O 507.134 0.855166 -1.82343 0
M  V30 5512 C 504.199 1.16447 -3.26559 0
M  V30 5513 C 503.26 0.4394 -4.27045 0
M  V30 5514 C 502.493 1.3954 -5.15135 0
M  V30 5515 O 502.716 2.63162 -5.06065 0
M  V30 5516 O 501.65 0.908585 -5.95003 0
M  V30 5517 H 505.476 -0.557057 -2.98547 0
M  V30 5518 H 503.061 -0.338369 -1.45518 0
M  V30 5519 H 504.943 1.7434 -3.83645 0
M  V30 5520 H 503.618 1.86373 -2.64663 0
M  V30 5521 H 502.525 -0.181247 -3.73661 0
M  V30 5522 H 503.858 -0.218799 -4.91713 0
M  V30 5523 N 505.51 1.54411 -0.315457 0
M  V30 5524 C 506.42 2.27737 0.56329 0
M  V30 5525 C 507.436 1.31787 1.13614 0
M  V30 5526 O 508.612 1.64791 1.15784 0
M  V30 5527 C 505.677 3.01478 1.71207 0
M  V30 5528 C 504.738 4.12997 1.17185 0
M  V30 5529 C 503.971 4.83212 2.26588 0
M  V30 5530 O 504.194 4.52884 3.46775 0
M  V30 5531 O 503.128 5.70299 1.92463 0
M  V30 5532 H 506.954 3.03683 -0.0319614 0
M  V30 5533 H 504.539 1.49178 -0.0814188 0
M  V30 5534 H 506.421 3.47683 2.38106 0
M  V30 5535 H 505.096 2.28414 2.29366 0
M  V30 5536 H 504.003 3.71159 0.468174 0
M  V30 5537 H 505.336 4.8808 0.635501 0
M  V30 5538 N 506.988 0.0434614 1.5754 0
M  V30 5539 C 507.918 -0.931651 2.14109 0
M  V30 5540 C 508.899 -1.32971 1.06079 0
M  V30 5541 O 510.084 -1.40579 1.33982 0
M  V30 5542 C 507.214 -2.20914 2.67982 0
M  V30 5543 C 506.168 -1.95139 3.80926 0
M  V30 5544 C 505.494 -3.29276 4.21285 0
M  V30 5545 C 506.794 -1.27913 5.06395 0
M  V30 5546 H 508.488 -0.460497 2.95837 0
M  V30 5547 H 506.034 -0.220058 1.42309 0
M  V30 5548 H 507.987 -2.89522 3.06194 0
M  V30 5549 H 506.711 -2.70221 1.83434 0
M  V30 5550 H 505.37 -1.28945 3.43175 0
M  V30 5551 H 505.018 -3.76369 3.33699 0
M  V30 5552 H 504.718 -3.12831 4.97404 0
M  V30 5553 H 506.242 -3.99129 4.62091 0
M  V30 5554 H 507.656 -1.86544 5.42102 0
M  V30 5555 H 506.053 -1.2182 5.87605 0
M  V30 5556 H 507.123 -0.254066 4.84234 0
M  V30 5557 N 508.466 -1.55915 -0.229846 0
M  V30 5558 C 509.413 -1.91734 -1.28478 0
M  V30 5559 C 510.383 -0.773539 -1.46988 0
M  V30 5560 O 511.568 -1.02871 -1.60693 0
M  V30 5561 C 508.708 -2.23224 -2.63182 0
M  V30 5562 C 507.821 -3.50497 -2.52539 0
M  V30 5563 C 506.956 -3.71474 -3.79711 0
M  V30 5564 C 505.995 -4.92289 -3.63755 0
M  V30 5565 N 505.132 -5.09698 -4.82858 0
M  V30 5566 H 509.972 -2.81692 -0.972308 0
M  V30 5567 H 507.509 -1.39429 -0.468815 0
M  V30 5568 H 509.467 -2.3949 -3.41614 0
M  V30 5569 H 508.097 -1.36451 -2.92542 0
M  V30 5570 H 507.149 -3.4247 -1.65585 0
M  V30 5571 H 508.461 -4.39079 -2.36666 0
M  V30 5572 H 507.615 -3.87791 -4.66586 0
M  V30 5573 H 506.354 -2.81157 -3.985 0
M  V30 5574 H 505.359 -4.7593 -2.75264 0
M  V30 5575 H 506.584 -5.84083 -3.46445 0
M  V30 5576 H 504.53 -4.22322 -5.01976 0
M  V30 5577 H 504.447 -5.92399 -4.69681 0
M  V30 5578 H 505.715 -5.30443 -5.71183 0
M  V30 5579 N 509.944 0.496216 -1.49584 0
M  V30 5580 C 510.907 1.57952 -1.66084 0
M  V30 5581 C 511.907 1.51729 -0.53244 0
M  V30 5582 O 513.097 1.54796 -0.79899 0
M  V30 5583 C 510.229 2.97604 -1.66268 0
M  V30 5584 H 511.422 1.44649 -2.6271 0
M  V30 5585 H 508.975 0.7208 -1.38687 0
M  V30 5586 H 509.71 3.16378 -0.712432 0
M  V30 5587 H 509.495 3.03528 -2.4822 0
M  V30 5588 H 510.985 3.76301 -1.81073 0
M  V30 5589 N 511.423 1.38739 0.74761 0
M  V30 5590 C 512.672 1.3459 1.50228 0
M  V30 5591 C 512.985 -0.0595592 1.95509 0
M  V30 5592 O 514.191 -0.22361 2.70578 0
M  V30 5593 C 512.647 2.36377 2.71393 0
M  V30 5594 C 512.255 3.82573 2.33113 0
M  V30 5595 C 513.999 2.41281 3.49262 0
M  V30 5596 C 511.906 4.76032 3.50924 0
M  V30 5597 H 510.836 0.500312 0.564096 0
M  V30 5598 H 513.487 1.64324 0.8167 0
M  V30 5599 H 511.869 1.99694 3.41962 0
M  V30 5600 H 513.043 4.28227 1.70171 0
M  V30 5601 H 511.358 3.80844 1.68365 0
M  V30 5602 H 513.955 3.08301 4.36869 0
M  V30 5603 H 514.298 1.43353 3.9084 0
M  V30 5604 H 514.831 2.76793 2.85711 0
M  V30 5605 H 511.57 5.75177 3.14408 0
M  V30 5606 H 511.09 4.35066 4.12889 0
M  V30 5607 H 512.769 4.94331 4.17427 0
M  V30 5608 N 512.901 -0.976442 1.23707 0
M  V30 5609 C 514.147 -1.72081 1.07312 0
M  V30 5610 C 514.48 -1.90275 -0.388476 0
M  V30 5611 O 513.755 -1.4579 -1.28746 0
M  V30 5612 C 514.038 -3.11675 1.80363 0
M  V30 5613 C 513.891 -3.01027 3.3422 0
M  V30 5614 C 515.21 -4.1117 1.5693 0
M  V30 5615 H 512.329 -0.624583 0.391236 0
M  V30 5616 H 514.971 -1.13649 1.52263 0
M  V30 5617 H 513.121 -3.61559 1.42153 0
M  V30 5618 H 514.793 -2.58637 3.81975 0
M  V30 5619 H 513.036 -2.3744 3.63049 0
M  V30 5620 H 513.707 -3.9988 3.80525 0
M  V30 5621 H 516.183 -3.7011 1.90151 0
M  V30 5622 H 515.059 -5.06928 2.10513 0
M  V30 5623 H 515.32 -4.392 0.505548 0
M  V30 5624 N 514.379 -1.04941 -1.1758 0
M  V30 5625 C 515.604 -0.778253 -1.92245 0
M  V30 5626 C 516.029 0.659707 -1.76152 0
M  V30 5627 O 515.387 1.45803 -1.07755 0
M  V30 5628 C 515.435 -1.16051 -3.41416 0
M  V30 5629 O 514.539 -0.291153 -4.11371 0
M  V30 5630 H 513.88 -0.285619 -0.599431 0
M  V30 5631 H 516.41 -1.40159 -1.49052 0
M  V30 5632 H 516.42 -1.12619 -3.92149 0
M  V30 5633 H 515.095 -2.208 -3.52449 0
M  V30 5634 H 513.672 -0.385851 -3.70898 0
M  V30 5635 N 515.857 1.33968 -0.830081 0
M  V30 5636 C 517.082 2.02813 -0.433796 0
M  V30 5637 C 517.507 1.62076 0.954614 0
M  V30 5638 O 516.865 0.808955 1.62252 0
M  V30 5639 C 516.913 3.56348 -0.552115 0
M  V30 5640 O 516.017 4.10202 0.425191 0
M  V30 5641 H 515.358 0.639817 -0.177567 0
M  V30 5642 H 517.888 1.7106 -1.12248 0
M  V30 5643 H 517.898 4.05722 -0.430513 0
M  V30 5644 H 516.573 3.85344 -1.56471 0
M  V30 5645 H 515.15 3.71979 0.261878 0
M  V30 5646 N 517.335 0.585699 1.46312 0
M  V30 5647 C 518.56 0.0762461 2.0726 0
M  V30 5648 C 518.985 -1.22071 1.43109 0
M  V30 5649 O 518.343 -1.73804 0.515942 0
M  V30 5650 C 518.391 -0.0729404 3.60526 0
M  V30 5651 O 517.495 -1.1287 3.96654 0
M  V30 5652 H 516.836 0.0641558 0.660893 0
M  V30 5653 H 519.366 0.809492 1.87905 0
M  V30 5654 H 519.376 -0.278158 4.07051 0
M  V30 5655 H 518.051 0.874188 4.06609 0
M  V30 5656 H 516.628 -0.901703 3.61834 0
M  V30 5657 N 518.813 -1.54241 0.323641 0
M  V30 5658 C 519.761 -2.25813 -0.557804 0
M  V30 5659 C 520.755 -1.27225 -1.11849 0
M  V30 5660 O 521.961 -1.45001 -1.06652 0
M  V30 5661 H 518.336 -0.72532 -0.198532 0
M  V30 5662 H 520.307 -2.98322 0.0681112 0
M  V30 5663 C 519.056 -3.02913 -1.70701 0
M  V30 5664 H 518.379 -3.78593 -1.28482 0
M  V30 5665 H 519.819 -3.56238 -2.29935 0
M  V30 5666 C 518.278 -2.11217 -2.62467 0
M  V30 5667 O 518.808 -1.69508 -3.64184 0
M  V30 5668 N 517.014 -1.76704 -2.30703 0
M  V30 5669 H 516.561 -2.1082 -1.48029 0
M  V30 5670 H 516.519 -1.15631 -2.92364 0
M  V30 5671 N 520.291 -0.0518155 -1.57515 0
M  V30 5672 C 521.223 0.951542 -2.08515 0
M  V30 5673 C 522.236 1.27436 -1.01311 0
M  V30 5674 O 523.425 1.23504 -1.28876 0
M  V30 5675 C 520.525 2.27291 -2.5138 0
M  V30 5676 C 519.698 2.13191 -3.81927 0
M  V30 5677 C 518.757 3.28458 -4.11098 0
M  V30 5678 O 517.783 3.04334 -4.81009 0
M  V30 5679 N 518.985 4.52954 -3.63061 0
M  V30 5680 H 521.75 0.516242 -2.9522 0
M  V30 5681 H 519.311 0.13441 -1.61341 0
M  V30 5682 H 521.303 3.03272 -2.67971 0
M  V30 5683 H 519.873 2.62386 -1.69919 0
M  V30 5684 H 519.093 1.21798 -3.74912 0
M  V30 5685 H 520.381 2.00999 -4.67415 0
M  V30 5686 H 519.779 4.75444 -3.06545 0
M  V30 5687 H 518.336 5.26026 -3.84889 0
M  V30 5688 N 521.769 1.56035 0.221574 0
M  V30 5689 C 522.732 1.91584 1.2581 0
M  V30 5690 C 523.732 0.794425 1.39805 0
M  V30 5691 O 524.922 1.06217 1.38071 0
M  V30 5692 C 522.054 2.16663 2.63192 0
M  V30 5693 H 523.247 2.8429 0.954935 0
M  V30 5694 H 520.8 1.49316 0.461988 0
M  V30 5695 H 521.535 1.26508 2.98607 0
M  V30 5696 H 521.32 2.98358 2.5441 0
M  V30 5697 H 522.81 2.45262 3.37988 0
M  V30 5698 N 523.247 -0.488276 1.49845 0
M  V30 5699 C 524.177 -1.59675 1.70371 0
M  V30 5700 C 525.158 -1.60878 0.552473 0
M  V30 5701 O 526.343 -1.77417 0.78973 0
M  V30 5702 C 523.473 -2.98098 1.782 0
M  V30 5703 C 522.427 -3.11761 2.93239 0
M  V30 5704 C 521.753 -4.51661 2.86193 0
M  V30 5705 C 523.053 -2.90589 4.33999 0
M  V30 5706 H 524.747 -1.42752 2.63177 0
M  V30 5707 H 522.293 -0.685317 1.26647 0
M  V30 5708 H 524.246 -3.75555 1.91144 0
M  V30 5709 H 522.97 -3.16138 0.820018 0
M  V30 5710 H 521.629 -2.36732 2.79917 0
M  V30 5711 H 521.277 -4.66595 1.87877 0
M  V30 5712 H 520.977 -4.61742 3.63412 0
M  V30 5713 H 522.501 -5.31162 3.01163 0
M  V30 5714 H 523.915 -3.57807 4.47936 0
M  V30 5715 H 522.312 -3.1213 5.12538 0
M  V30 5716 H 523.382 -1.86595 4.4756 0
M  V30 5717 N 524.725 -1.39134 -0.740242 0
M  V30 5718 C 525.655 -1.40165 -1.86751 0
M  V30 5719 C 526.636 -0.265708 -1.68012 0
M  V30 5720 O 527.821 -0.47076 -1.88408 0
M  V30 5721 C 524.951 -1.2392 -3.2444 0
M  V30 5722 C 523.905 -2.34858 -3.57807 0
M  V30 5723 C 523.231 -2.03707 -4.94376 0
M  V30 5724 C 524.531 -3.77159 -3.61315 0
M  V30 5725 H 526.225 -2.345 -1.86145 0
M  V30 5726 H 523.771 -1.12875 -0.89416 0
M  V30 5727 H 525.724 -1.23263 -4.02969 0
M  V30 5728 H 524.448 -0.26051 -3.25559 0
M  V30 5729 H 523.107 -2.34723 -2.81604 0
M  V30 5730 H 522.755 -1.04289 -4.9207 0
M  V30 5731 H 522.455 -2.78016 -5.17669 0
M  V30 5732 H 523.979 -2.04691 -5.75268 0
M  V30 5733 H 525.393 -3.79252 -4.29931 0
M  V30 5734 H 523.79 -4.50784 -3.96124 0
M  V30 5735 H 524.86 -4.08513 -2.61238 0
M  V30 5736 N 526.204 0.969867 -1.24223 0
M  V30 5737 C 527.62 1.23809 -1.00716 0
M  V30 5738 C 527.82 1.99469 0.285358 0
M  V30 5739 O 526.876 2.31764 1.00207 0
M  V30 5740 C 528.189 2.02734 -2.2208 0
M  V30 5741 C 529.737 2.15834 -2.26681 0
M  V30 5742 C 530.212 2.98154 -3.47661 0
M  V30 5743 N 531.703 3.05737 -3.47964 0
M  V30 5744 C 532.438 3.69785 -4.38231 0
M  V30 5745 N 531.934 4.35569 -5.3875 0
M  V30 5746 N 533.727 3.66775 -4.25949 0
M  V30 5747 H 525.878 0.463294 -2.07286 0
M  V30 5748 H 528.141 0.267348 -0.909521 0
M  V30 5749 H 527.847 1.54524 -3.15935 0
M  V30 5750 H 527.721 3.0347 -2.24021 0
M  V30 5751 H 530.108 2.63248 -1.33359 0
M  V30 5752 H 530.189 1.14453 -2.28767 0
M  V30 5753 H 529.833 2.51435 -4.41297 0
M  V30 5754 H 529.763 3.99729 -3.42818 0
M  V30 5755 H 532.254 2.58941 -2.75242 0
M  V30 5756 H 532.567 4.82251 -6.03866 0
M  V30 5757 H 530.912 4.34244 -5.42639 0
M  V30 5758 H 534.103 3.14558 -3.46657 0
M  V30 5759 H 534.276 4.16407 -4.96497 0
M  V30 5760 N 527.682 1.05563 1.17022 0
M  V30 5761 C 528.614 0.617888 2.20714 0
M  V30 5762 C 529.627 -0.320303 1.59618 0
M  V30 5763 O 530.816 -0.112449 1.78145 0
M  V30 5764 C 527.916 -0.115333 3.38704 0
M  V30 5765 C 527.089 0.834493 4.29366 0
M  V30 5766 C 526.148 0.141855 5.26009 0
M  V30 5767 O 525.174 0.777151 5.6387 0
M  V30 5768 N 526.376 -1.11934 5.69606 0
M  V30 5769 H 529.141 1.50981 2.58892 0
M  V30 5770 H 526.702 0.938008 1.31958 0
M  V30 5771 H 528.694 -0.588918 4.00392 0
M  V30 5772 H 527.264 -0.908967 2.99093 0
M  V30 5773 H 526.484 1.48762 3.65053 0
M  V30 5774 H 527.772 1.4791 4.86827 0
M  V30 5775 H 527.17 -1.65574 5.40927 0
M  V30 5776 H 525.727 -1.53692 6.33421 0
M  V30 5777 N 529.16 -1.33526 0.837174 0
M  V30 5778 C 530.408 -1.97446 0.431211 0
M  V30 5779 C 530.729 -1.6665 -1.01255 0
M  V30 5780 O 529.999 -0.964559 -1.70508 0
M  V30 5781 H 528.579 -0.73043 0.156463 0
M  V30 5782 H 531.241 -1.62918 1.06976 0
M  V30 5783 H 530.337 -3.07001 0.561877 0
M  V30 5784 N 530.638 -0.59345 -1.46 0
M  V30 5785 C 531.866 -0.0890934 -2.06708 0
M  V30 5786 C 532.281 1.2205 -1.44046 0
M  V30 5787 O 531.638 1.74029 -0.549551 0
M  V30 5788 C 531.689 0.0720263 -3.61428 0
M  V30 5789 O 531.41 -1.18574 -4.21748 0
M  V30 5790 C 532.911 0.609487 -4.3909 0
M  V30 5791 H 530.131 -0.0623628 -0.668096 0
M  V30 5792 H 532.675 -0.817171 -1.87464 0
M  V30 5793 H 530.83 0.750369 -3.80063 0
M  V30 5794 H 531.244 -1.0064 -5.14754 0
M  V30 5795 H 532.718 0.671363 -5.47902 0
M  V30 5796 H 533.195 1.62878 -4.07882 0
M  V30 5797 H 533.801 -0.03434 -4.25286 0
M  V30 5798 N 532.116 1.54067 -0.331816 0
M  V30 5799 C 533.341 2.05599 0.272705 0
M  V30 5800 C 533.766 1.2059 1.44359 0
M  V30 5801 O 533.124 0.216907 1.79998 0
M  V30 5802 C 533.172 3.54188 0.677021 0
M  V30 5803 O 532.276 3.72082 1.77844 0
M  V30 5804 H 531.617 0.662286 0.0476801 0
M  V30 5805 H 534.147 1.98826 -0.482624 0
M  V30 5806 H 534.157 3.96608 0.957415 0
M  V30 5807 H 532.832 4.15513 -0.179325 0
M  V30 5808 H 531.409 3.41566 1.49622 0
M  V30 5809 N 533.594 0.0601682 1.57485 0
M  V30 5810 C 534.557 -0.896373 2.10945 0
M  V30 5811 C 535.557 -1.23402 1.03095 0
M  V30 5812 O 536.747 -1.16921 1.29132 0
M  V30 5813 C 533.879 -2.20346 2.60116 0
M  V30 5814 H 535.072 -0.432778 2.96761 0
M  V30 5815 H 532.625 -0.188372 1.55161 0
M  V30 5816 H 533.36 -2.71268 1.7772 0
M  V30 5817 H 533.145 -1.9714 3.38937 0
M  V30 5818 H 534.635 -2.88846 3.01592 0
M  V30 5819 N 535.072 -1.5615 -0.213296 0
M  V30 5820 C 536.488 -1.49327 -0.56336 0
M  V30 5821 C 536.688 -0.756826 -1.86747 0
M  V30 5822 O 535.744 -0.299866 -2.50713 0
M  V30 5823 C 537.057 -2.9392 -0.634944 0
M  V30 5824 C 538.605 -3.04487 -0.725013 0
M  V30 5825 C 539.08 -4.50456 -0.82787 0
M  V30 5826 N 540.571 -4.54533 -0.891876 0
M  V30 5827 C 541.306 -5.64766 -0.991315 0
M  V30 5828 N 540.802 -6.84733 -1.05419 0
M  V30 5829 N 542.595 -5.52637 -1.02709 0
M  V30 5830 H 534.746 -2.02453 0.642366 0
M  V30 5831 H 537.009 -0.920548 0.226487 0
M  V30 5832 H 536.715 -3.50783 0.253859 0
M  V30 5833 H 536.589 -3.46274 -1.49579 0
M  V30 5834 H 538.976 -2.47685 -1.60425 0
M  V30 5835 H 539.057 -2.55289 0.161669 0
M  V30 5836 H 538.701 -5.07878 0.0469464 0
M  V30 5837 H 538.631 -4.97369 -1.73009 0
M  V30 5838 H 541.122 -3.68141 -0.85327 0
M  V30 5839 H 541.435 -7.64493 -1.13007 0
M  V30 5840 H 539.78 -6.87427 -1.02318 0
M  V30 5841 H 542.971 -4.5784 -0.974687 0
M  V30 5842 H 543.144 -6.38576 -1.10113 0
M  V30 5843 N 536.55 0.480323 -1.50102 0
M  V30 5844 C 537.827 1.24159 -1.51142 0
M  V30 5845 C 538.207 2.09605 -0.250818 0
M  V30 5846 O 537.555 2.15274 0.766118 0
M  V30 5847 C 537.765 2.08057 -2.80202 0
M  V30 5848 C 539.113 2.66556 -3.30504 0
M  V30 5849 O 540.137 2.18308 -2.81461 0
M  V30 5850 O 538.996 3.54442 -4.15973 0
M  V30 5851 H 536.09 0.562928 -0.605839 0
M  V30 5852 H 538.636 0.492899 -1.62384 0
M  V30 5853 H 537.408 1.45032 -3.6343 0
M  V30 5854 H 537.031 2.90079 -2.71919 0
M  V30 5855 N 538.028 1.39524 0.732853 0
M  V30 5856 C 538.958 1.41153 1.86005 0
M  V30 5857 C 539.939 0.274614 1.67869 0
M  V30 5858 O 541.124 0.480745 1.88155 0
M  V30 5859 C 538.254 1.25638 3.23778 0
M  V30 5860 C 537.208 2.36752 3.56556 0
M  V30 5861 C 536.534 2.06326 4.93289 0
M  V30 5862 C 537.834 3.79069 3.5931 0
M  V30 5863 H 539.528 2.35484 1.84899 0
M  V30 5864 H 537.074 1.13348 0.888162 0
M  V30 5865 H 539.027 1.25398 4.0231 0
M  V30 5866 H 537.751 0.277772 3.25417 0
M  V30 5867 H 536.41 2.36213 2.80355 0
M  V30 5868 H 536.058 1.06897 4.9151 0
M  V30 5869 H 535.758 2.80757 5.16187 0
M  V30 5870 H 537.282 2.07739 5.74175 0
M  V30 5871 H 538.696 3.81526 4.27914 0
M  V30 5872 H 537.093 4.52878 3.93728 0
M  V30 5873 H 538.163 4.09893 2.59068 0
M  V30 5874 N 539.506 -0.963266 1.24736 0
M  V30 5875 C 540.436 -2.07628 1.06832 0
M  V30 5876 C 541.417 -1.70088 -0.0200566 0
M  V30 5877 O 542.602 -1.93636 0.147854 0
M  V30 5878 C 539.732 -3.40636 0.677069 0
M  V30 5879 C 538.686 -3.9215 1.71471 0
M  V30 5880 C 538.012 -5.21553 1.1784 0
M  V30 5881 C 539.312 -4.19493 3.11164 0
M  V30 5882 H 541.006 -2.22864 1.9993 0
M  V30 5883 H 538.552 -1.07093 0.96266 0
M  V30 5884 H 540.505 -4.17941 0.538792 0
M  V30 5885 H 539.229 -3.25313 -0.289612 0
M  V30 5886 H 537.888 -3.17005 1.84128 0
M  V30 5887 H 537.536 -5.02593 0.202195 0
M  V30 5888 H 537.236 -5.56988 1.87185 0
M  V30 5889 H 538.76 -6.01463 1.05233 0
M  V30 5890 H 540.174 -4.87487 3.01711 0
M  V30 5891 H 538.571 -4.66165 3.77902 0
M  V30 5892 H 539.641 -3.26097 3.58871 0
M  V30 5893 N 540.985 -1.06182 -1.16461 0
M  V30 5894 C 542.401 -0.785065 -1.38956 0
M  V30 5895 C 542.601 0.616103 -1.9185 0
M  V30 5896 O 541.657 1.37686 -2.11657 0
M  V30 5897 C 542.97 -1.84902 -2.37132 0
M  V30 5898 C 544.518 -1.8724 -2.50819 0
M  V30 5899 C 544.993 -2.92686 -3.52277 0
M  V30 5900 N 546.484 -2.91712 -3.59803 0
M  V30 5901 C 547.219 -3.69949 -4.38093 0
M  V30 5902 N 546.715 -4.58 -5.19815 0
M  V30 5903 N 548.508 -3.58346 -4.33064 0
M  V30 5904 H 540.659 -1.96569 -0.804634 0
M  V30 5905 H 542.922 -0.851747 -0.416211 0
M  V30 5906 H 542.628 -2.85518 -2.0536 0
M  V30 5907 H 542.502 -1.69908 -3.36766 0
M  V30 5908 H 544.889 -0.872827 -2.81897 0
M  V30 5909 H 544.97 -2.06311 -1.51226 0
M  V30 5910 H 544.614 -3.92835 -3.21937 0
M  V30 5911 H 544.544 -2.70864 -4.51598 0
M  V30 5912 H 547.035 -2.27876 -3.01464 0
M  V30 5913 H 547.348 -5.14357 -5.76764 0
M  V30 5914 H 545.693 -4.62056 -5.19162 0
M  V30 5915 H 548.884 -2.88943 -3.68279 0
M  V30 5916 H 549.057 -4.19563 -4.93833 0
M  V30 5917 N 542.463 1.3308 -0.844243 0
M  V30 5918 C 543.373 2.32876 -0.283922 0
M  V30 5919 C 544.389 1.63589 0.592846 0
M  V30 5920 O 545.565 1.95205 0.495693 0
M  V30 5921 C 542.63 3.42667 0.527283 0
M  V30 5922 C 541.691 4.27664 -0.374394 0
M  V30 5923 C 540.924 5.32212 0.39819 0
M  V30 5924 O 541.147 5.46635 1.62932 0
M  V30 5925 O 540.081 6.01458 -0.2306 0
M  V30 5926 H 543.907 2.82671 -1.11045 0
M  V30 5927 H 541.492 1.36518 -0.606903 0
M  V30 5928 H 543.374 4.09652 0.988078 0
M  V30 5929 H 542.049 2.95079 1.33078 0
M  V30 5930 H 540.956 3.63526 -0.883144 0
M  V30 5931 H 542.289 4.78749 -1.1428 0
M  V30 5932 N 543.941 0.601185 1.45683 0
M  V30 5933 C 544.874 -0.17013 2.27565 0
M  V30 5934 C 545.852 -0.879661 1.36751 0
M  V30 5935 O 547.036 -0.889827 1.66176 0
M  V30 5936 C 544.163 -1.24568 3.14961 0
M  V30 5937 C 543.209 -0.639978 4.21671 0
M  V30 5938 S 544.042 0.547275 5.32696 0
M  V30 5939 C 545.198 -0.529019 6.2366 0
M  V30 5940 H 545.431 0.524583 2.92635 0
M  V30 5941 H 542.964 0.388537 1.49431 0
M  V30 5942 H 544.922 -1.86138 3.65873 0
M  V30 5943 H 543.583 -1.91243 2.49169 0
M  V30 5944 H 542.776 -1.44903 4.8272 0
M  V30 5945 H 542.378 -0.0995558 3.73867 0
M  V30 5946 H 544.67 -1.40981 6.62669 0
M  V30 5947 H 545.613 0.0451599 7.08086 0
M  V30 5948 H 546.021 -0.84147 5.58193 0
M  V30 5949 N 545.419 -1.53889 0.339982 0
M  V30 5950 C 546.382 -2.23547 -0.50592 0
M  V30 5951 C 547.382 -1.23445 -1.03044 0
M  V30 5952 O 548.572 -1.47909 -0.920253 0
M  V30 5953 C 545.704 -2.95234 -1.7044 0
M  V30 5954 H 546.897 -2.99722 0.103247 0
M  V30 5955 H 544.45 -1.56033 0.0912804 0
M  V30 5956 H 545.185 -2.23236 -2.35236 0
M  V30 5957 H 544.97 -3.68654 -1.33553 0
M  V30 5958 H 546.46 -3.48258 -2.30447 0
M  V30 5959 N 546.897 -0.0685191 -1.57451 0
M  V30 5960 C 548.313 0.288101 -1.56978 0
M  V30 5961 C 548.513 1.70262 -1.07765 0
M  V30 5962 O 547.569 2.4135 -0.742054 0
M  V30 5963 C 548.882 0.100745 -3.00531 0
M  V30 5964 C 550.43 0.170531 -3.12535 0
M  V30 5965 C 550.905 0.0114944 -4.57999 0
M  V30 5966 N 552.396 0.0672065 -4.63151 0
M  V30 5967 C 553.131 -0.0314813 -5.73391 0
M  V30 5968 N 552.627 -0.183503 -6.92557 0
M  V30 5969 N 554.42 0.0253489 -5.62094 0
M  V30 5970 H 546.571 -0.993026 -1.87757 0
M  V30 5971 H 548.834 -0.386981 -0.865419 0
M  V30 5972 H 548.54 -0.875197 -3.40636 0
M  V30 5973 H 548.414 0.854457 -3.67395 0
M  V30 5974 H 550.801 1.13696 -2.72318 0
M  V30 5975 H 550.882 -0.614229 -2.48316 0
M  V30 5976 H 550.526 -0.951684 -4.98904 0
M  V30 5977 H 550.456 0.815617 -5.20245 0
M  V30 5978 H 552.947 0.183246 -3.77455 0
M  V30 5979 H 553.26 -0.251041 -7.72392 0
M  V30 5980 H 551.605 -0.218822 -6.94655 0
M  V30 5981 H 554.796 0.142794 -4.67882 0
M  V30 5982 H 554.969 -0.0550166 -6.47977 0
M  V30 5983 N 548.375 1.56261 0.205012 0
M  V30 5984 C 549.652 1.70856 0.952233 0
M  V30 5985 C 550.032 0.620501 2.01775 0
M  V30 5986 O 549.38 -0.370035 2.25484 0
M  V30 5987 C 549.59 3.12807 1.54767 0
M  V30 5988 C 550.938 3.72733 2.0336 0
M  V30 5989 O 551.962 3.15873 1.64629 0
M  V30 5990 O 550.821 4.72501 2.746 0
M  V30 5991 H 547.915 0.696496 0.445895 0
M  V30 5992 H 550.461 1.6857 0.195489 0
M  V30 5993 H 549.233 3.83465 0.779132 0
M  V30 5994 H 548.856 3.1928 2.36951 0
M  V30 5995 N 549.853 -0.472356 1.50355 0
M  V30 5996 C 550.8 -1.57051 1.69126 0
M  V30 5997 C 551.77 -1.5733 0.532574 0
M  V30 5998 O 552.955 -1.7488 0.762994 0
M  V30 5999 C 550.095 -2.95033 1.79024 0
M  V30 6000 C 549.208 -3.04552 3.06386 0
M  V30 6001 C 548.343 -4.33441 3.07087 0
M  V30 6002 C 547.382 -4.36697 4.28908 0
M  V30 6003 N 546.519 -5.57056 4.27356 0
M  V30 6004 H 551.359 -1.40351 2.62879 0
M  V30 6005 H 548.896 -0.682403 1.30314 0
M  V30 6006 H 550.854 -3.75048 1.82744 0
M  V30 6007 H 549.484 -3.10371 0.887109 0
M  V30 6008 H 548.536 -2.17419 3.12143 0
M  V30 6009 H 549.848 -3.02818 3.96362 0
M  V30 6010 H 549.002 -5.21801 3.09529 0
M  V30 6011 H 547.741 -4.37782 2.14939 0
M  V30 6012 H 546.746 -3.46734 4.2668 0
M  V30 6013 H 547.971 -4.34049 5.22282 0
M  V30 6014 H 545.917 -5.62184 3.3806 0
M  V30 6015 H 545.834 -5.57058 5.111 0
M  V30 6016 H 547.102 -6.47545 4.33942 0
M  V30 6017 N 551.331 -1.39911 -0.725443 0
M  V30 6018 C 552.742 -1.33599 -1.30415 0
M  V30 6019 C 553.093 -0.00481792 -1.96199 0
M  V30 6020 O 552.218 0.897275 -1.96921 0
M  V30 6021 C 552.813 -2.41965 -2.37146 0
M  V30 6022 C 551.372 -2.39144 -2.90667 0
M  V30 6023 C 550.519 -2.23355 -1.64341 0
M  V30 6024 H 553.47 -1.4986 -0.522267 0
M  V30 6025 H 553.491 -2.09304 -3.17761 0
M  V30 6026 H 553.003 -3.38837 -1.89238 0
M  V30 6027 H 551.104 -1.4594 -3.4283 0
M  V30 6028 H 551.217 -3.34362 -3.43131 0
M  V30 6029 H 549.581 -1.70696 -1.89037 0
M  V30 6030 H 550.364 -3.2221 -1.18471 0
M  V30 6031 N 552.809 0.956637 -1.25245 0
M  V30 6032 C 554.225 1.22733 -1.02023 0
M  V30 6033 C 554.425 1.99761 0.264186 0
M  V30 6034 O 553.481 2.32814 0.977436 0
M  V30 6035 C 554.794 2.00367 -2.24217 0
M  V30 6036 C 556.342 2.13418 -2.28958 0
M  V30 6037 C 556.817 2.9445 -3.50803 0
M  V30 6038 N 558.308 3.02029 -3.51187 0
M  V30 6039 C 559.043 3.65116 -4.42129 0
M  V30 6040 N 558.539 4.2983 -5.43339 0
M  V30 6041 N 560.332 3.62237 -4.29815 0
M  V30 6042 H 552.483 0.441282 -2.07765 0
M  V30 6043 H 554.746 0.257686 -0.912306 0
M  V30 6044 H 554.452 1.51165 -3.17556 0
M  V30 6045 H 554.326 3.01077 -2.27228 0
M  V30 6046 H 556.713 2.61819 -1.36143 0
M  V30 6047 H 556.794 1.1202 -2.29968 0
M  V30 6048 H 556.438 2.46741 -4.43939 0
M  V30 6049 H 556.368 3.9607 -3.47039 0
M  V30 6050 H 558.859 2.56007 -2.77973 0
M  V30 6051 H 559.172 4.75819 -6.08947 0
M  V30 6052 H 557.517 4.28465 -5.47214 0
M  V30 6053 H 560.708 3.10863 -3.49974 0
M  V30 6054 H 560.881 4.11117 -5.00886 0
M  V30 6055 N 554.287 1.06798 1.15896 0
M  V30 6056 C 555.217 0.704677 2.22613 0
M  V30 6057 C 556.198 -0.305252 1.67339 0
M  V30 6058 O 557.383 -0.179247 1.93371 0
M  V30 6059 C 554.513 0.0957325 3.47168 0
M  V30 6060 C 553.467 1.0322 4.15367 0
M  V30 6061 C 552.793 0.286293 5.33933 0
M  V30 6062 C 554.093 2.36341 4.65768 0
M  V30 6063 H 555.787 1.59688 2.53259 0
M  V30 6064 H 553.333 0.769257 1.21731 0
M  V30 6065 H 555.286 -0.170333 4.21056 0
M  V30 6066 H 554.01 -0.831516 3.15838 0
M  V30 6067 H 552.669 1.28309 3.43413 0
M  V30 6068 H 552.317 -0.644237 4.98857 0
M  V30 6069 H 552.017 0.910436 5.80504 0
M  V30 6070 H 553.541 0.0278938 6.10594 0
M  V30 6071 H 554.955 2.1561 5.31211 0
M  V30 6072 H 553.352 2.94299 5.2298 0
M  V30 6073 H 554.422 2.99047 3.81705 0
M  V30 6074 N 555.766 -1.3263 0.851289 0
M  V30 6075 C 556.696 -2.31449 0.308771 0
M  V30 6076 C 557.677 -1.59531 -0.590255 0
M  V30 6077 O 558.862 -1.87351 -0.511205 0
M  V30 6078 C 555.992 -3.43586 -0.506548 0
M  V30 6079 C 554.946 -4.26963 0.297753 0
M  V30 6080 C 554.272 -5.30831 -0.642094 0
M  V30 6081 C 555.572 -4.99643 1.52166 0
M  V30 6082 H 557.266 -2.77074 1.13447 0
M  V30 6083 H 554.812 -1.33207 0.546971 0
M  V30 6084 H 556.765 -4.11754 -0.896474 0
M  V30 6085 H 555.489 -2.96681 -1.36558 0
M  V30 6086 H 554.148 -3.60437 0.669391 0
M  V30 6087 H 553.796 -4.8018 -1.49788 0
M  V30 6088 H 553.496 -5.87501 -0.107968 0
M  V30 6089 H 555.02 -6.01862 -1.02927 0
M  V30 6090 H 556.434 -5.6051 1.20421 0
M  V30 6091 H 554.831 -5.66022 1.99347 0
M  V30 6092 H 555.901 -4.27701 2.28474 0
M  V30 6093 N 557.244 -0.608902 -1.45362 0
M  V30 6094 C 558.207 0.0992563 -2.28985 0
M  V30 6095 C 559.207 0.793841 -1.39838 0
M  V30 6096 O 560.397 0.641804 -1.61946 0
M  V30 6097 C 557.529 1.15073 -3.20891 0
M  V30 6098 H 558.722 -0.635964 -2.93079 0
M  V30 6099 H 556.275 -0.368007 -1.51906 0
M  V30 6100 H 557.01 1.91667 -2.616 0
M  V30 6101 H 556.795 0.656867 -3.86559 0
M  V30 6102 H 558.285 1.64665 -3.83765 0
M  V30 6103 N 558.722 1.53707 -0.348139 0
M  V30 6104 C 559.685 2.23812 0.494058 0
M  V30 6105 C 560.685 1.23989 1.02388 0
M  V30 6106 O 561.875 1.48395 0.912396 0
M  V30 6107 C 559.007 2.96133 1.68872 0
M  V30 6108 H 560.2 2.99663 -0.119141 0
M  V30 6109 H 557.753 1.55983 -0.0995539 0
M  V30 6110 H 558.488 2.24481 2.34049 0
M  V30 6111 H 558.273 3.69357 1.31596 0
M  V30 6112 H 559.763 3.49475 2.28597 0
M  V30 6113 N 560.2 0.0768682 1.57412 0
M  V30 6114 C 561.13 -0.886026 2.16037 0
M  V30 6115 C 562.111 -1.30691 1.08876 0
M  V30 6116 O 563.296 -1.37705 1.36934 0
M  V30 6117 C 560.426 -2.1518 2.72608 0
M  V30 6118 C 559.38 -1.87015 3.8498 0
M  V30 6119 C 558.706 -3.20266 4.28175 0
M  V30 6120 C 560.006 -1.17143 5.08994 0
M  V30 6121 H 561.7 -0.397642 2.96748 0
M  V30 6122 H 559.246 -0.189823 1.42743 0
M  V30 6123 H 561.199 -2.82962 3.12266 0
M  V30 6124 H 559.923 -2.66269 1.89125 0
M  V30 6125 H 558.582 -1.21636 3.45833 0
M  V30 6126 H 558.23 -3.69207 3.41607 0
M  V30 6127 H 557.93 -3.0221 5.03927 0
M  V30 6128 H 559.454 -3.89237 4.70454 0
M  V30 6129 H 560.868 -1.75003 5.45937 0
M  V30 6130 H 559.265 -1.09328 5.90057 0
M  V30 6131 H 560.335 -0.151295 4.84664 0
M  V30 6132 N 561.678 -1.56367 -0.196722 0
M  V30 6133 C 562.588 -1.97617 -1.2643 0
M  V30 6134 C 563.604 -0.883598 -1.49895 0
M  V30 6135 O 564.78 -1.18921 -1.62541 0
M  V30 6136 C 561.845 -2.30595 -2.58895 0
M  V30 6137 C 560.906 -3.53551 -2.43516 0
M  V30 6138 C 560.139 -3.84946 -3.69665 0
M  V30 6139 O 560.362 -3.17655 -4.73763 0
M  V30 6140 O 559.296 -4.78379 -3.65291 0
M  V30 6141 H 563.122 -2.88648 -0.944233 0
M  V30 6142 H 560.707 -1.43901 -0.401592 0
M  V30 6143 H 562.589 -2.52889 -3.37083 0
M  V30 6144 H 561.264 -1.42732 -2.90533 0
M  V30 6145 H 560.171 -3.36507 -1.63445 0
M  V30 6146 H 561.504 -4.41875 -2.16812 0
M  V30 6147 N 563.156 0.464375 -1.50603 0
M  V30 6148 C 564.402 1.21776 -1.62168 0
M  V30 6149 C 564.735 1.91476 -0.324154 0
M  V30 6150 O 564.01 1.8242 0.674782 0
M  V30 6151 C 564.293 2.25614 -2.80661 0
M  V30 6152 C 564.146 1.60175 -4.20314 0
M  V30 6153 C 565.465 3.26862 -2.94702 0
M  V30 6154 H 562.584 0.44137 -0.590222 0
M  V30 6155 H 565.226 0.510623 -1.8301 0
M  V30 6156 H 563.376 2.85923 -2.63021 0
M  V30 6157 H 565.048 1.03411 -4.4956 0
M  V30 6158 H 563.291 0.904697 -4.24261 0
M  V30 6159 H 563.962 2.35665 -4.99165 0
M  V30 6160 H 566.438 2.76582 -3.10872 0
M  V30 6161 H 565.314 3.96839 -3.79223 0
M  V30 6162 H 565.575 3.91382 -2.05603 0
M  V30 6163 N 564.634 1.40294 0.718013 0
M  V30 6164 C 565.597 1.4012 1.81381 0
M  V30 6165 C 566.597 0.295405 1.58063 0
M  V30 6166 O 567.787 0.554187 1.6515 0
M  V30 6167 C 564.919 1.19056 3.19435 0
M  V30 6168 H 566.112 2.37645 1.82933 0
M  V30 6169 H 563.665 1.26107 0.923405 0
M  V30 6170 H 564.4 0.222809 3.23534 0
M  V30 6171 H 564.185 1.99152 3.37758 0
M  V30 6172 H 565.675 1.21716 3.99468 0
M  V30 6173 N 566.112 -0.949982 1.2575 0
M  V30 6174 C 567.337 -1.73503 1.13628 0
M  V30 6175 C 567.762 -1.85601 -0.30559 0
M  V30 6176 O 567.12 -1.33984 -1.22139 0
M  V30 6177 C 567.168 -3.1243 1.80055 0
M  V30 6178 O 566.272 -3.97916 1.08336 0
M  V30 6179 H 565.613 -0.532665 0.396439 0
M  V30 6180 H 568.143 -1.19043 1.66403 0
M  V30 6181 H 568.153 -3.62866 1.86527 0
M  V30 6182 H 566.828 -3.02941 2.84956 0
M  V30 6183 H 565.405 -3.56375 1.09777 0
M  V30 6184 N 567.59 -1.07411 -1.15328 0
M  V30 6185 C 568.553 -0.698914 -2.18284 0
M  V30 6186 C 569.553 0.261149 -1.58665 0
M  V30 6187 O 570.743 0.0420277 -1.74149 0
M  V30 6188 C 567.875 -0.0302427 -3.40887 0
M  V30 6189 H 569.068 -1.61045 -2.52991 0
M  V30 6190 H 566.621 -0.870724 -1.298 0
M  V30 6191 H 567.356 0.893505 -3.11748 0
M  V30 6192 H 567.141 -0.720759 -3.85419 0
M  V30 6193 H 568.631 0.21759 -4.17033 0
M  V30 6194 N 569.068 1.32177 -0.85831 0
M  V30 6195 C 570.031 2.27086 -0.310588 0
M  V30 6196 C 571.031 1.51751 0.531806 0
M  V30 6197 O 572.221 1.70794 0.34279 0
M  V30 6198 C 569.353 3.36266 0.560179 0
M  V30 6199 H 570.546 2.77045 -1.1483 0
M  V30 6200 H 568.099 1.42911 -0.632942 0
M  V30 6201 H 568.834 2.9158 1.41956 0
M  V30 6202 H 568.619 3.92077 -0.0428473 0
M  V30 6203 H 570.109 4.06974 0.936056 0
M  V30 6204 N 570.547 0.616602 1.45037 0
M  V30 6205 C 571.48 -0.145984 2.27733 0
M  V30 6206 C 572.458 -0.865108 1.37676 0
M  V30 6207 O 573.642 -0.872152 1.6711 0
M  V30 6208 C 570.769 -1.2122 3.16265 0
M  V30 6209 C 569.815 -0.595218 4.22326 0
M  V30 6210 S 570.648 0.603744 5.32086 0
M  V30 6211 C 571.804 -0.462842 6.24186 0
M  V30 6212 H 572.037 0.555591 2.92062 0
M  V30 6213 H 569.57 0.404364 1.49011 0
M  V30 6214 H 571.528 -1.82247 3.67827 0
M  V30 6215 H 570.189 -1.88589 2.51183 0
M  V30 6216 H 569.382 -1.39775 4.8423 0
M  V30 6217 H 568.984 -0.0598965 3.73952 0
M  V30 6218 H 571.276 -1.33945 6.64127 0
M  V30 6219 H 572.219 0.120259 7.07998 0
M  V30 6220 H 572.627 -0.782219 5.59054 0
M  V30 6221 N 572.025 -1.5352 0.356285 0
M  V30 6222 C 572.988 -2.24071 -0.482182 0
M  V30 6223 C 573.988 -1.24531 -1.01729 0
M  V30 6224 O 575.178 -1.48876 -0.904513 0
M  V30 6225 C 572.31 -2.97025 -1.67299 0
M  V30 6226 H 573.503 -2.99596 0.135031 0
M  V30 6227 H 571.056 -1.55928 0.107825 0
M  V30 6228 H 571.791 -2.25719 -2.32855 0
M  V30 6229 H 571.576 -3.7005 -1.29636 0
M  V30 6230 H 573.066 -3.50683 -2.26741 0
M  V30 6231 N 573.503 -0.0852151 -1.57369 0
M  V30 6232 C 574.45 0.877268 -2.13478 0
M  V30 6233 C 575.42 1.28642 -1.05073 0
M  V30 6234 O 576.605 1.36992 -1.32808 0
M  V30 6235 C 573.745 2.13464 -2.71159 0
M  V30 6236 C 572.858 1.77691 -3.93764 0
M  V30 6237 C 571.993 2.98139 -4.39643 0
M  V30 6238 C 571.032 2.58447 -5.54862 0
M  V30 6239 N 570.169 3.71698 -5.95639 0
M  V30 6240 H 575.009 0.391933 -2.95411 0
M  V30 6241 H 572.546 0.181796 -1.45972 0
M  V30 6242 H 574.504 2.87086 -3.02717 0
M  V30 6243 H 573.134 2.59514 -1.91969 0
M  V30 6244 H 572.186 0.940768 -3.68583 0
M  V30 6245 H 573.498 1.44497 -4.77412 0
M  V30 6246 H 572.652 3.80026 -4.72933 0
M  V30 6247 H 571.391 3.34536 -3.54876 0
M  V30 6248 H 570.396 1.74984 -5.21211 0
M  V30 6249 H 571.621 2.23205 -6.41371 0
M  V30 6250 H 569.567 4.07831 -5.13819 0
M  V30 6251 H 569.484 3.42317 -6.74059 0
M  V30 6252 H 570.752 4.54123 -6.33555 0
M  V30 6253 N 574.981 1.5647 0.188427 0
M  V30 6254 C 575.891 1.98285 1.2538 0
M  V30 6255 C 576.907 0.891535 1.49424 0
M  V30 6256 O 578.083 1.19782 1.61908 0
M  V30 6257 C 575.148 2.31965 2.57669 0
M  V30 6258 C 574.209 3.54838 2.41638 0
M  V30 6259 C 573.442 3.86901 3.67618 0
M  V30 6260 O 573.665 3.20163 4.72072 0
M  V30 6261 O 572.599 4.80309 3.62749 0
M  V30 6262 H 576.425 2.89145 0.928912 0
M  V30 6263 H 574.01 1.44112 0.393955 0
M  V30 6264 H 575.892 2.54673 3.35737 0
M  V30 6265 H 574.567 1.44271 2.89771 0
M  V30 6266 H 573.474 3.37369 1.61658 0
M  V30 6267 H 574.807 4.43019 2.14465 0
M  V30 6268 N 576.459 -0.456382 1.50847 0
M  V30 6269 C 577.369 -1.57805 1.73594 0
M  V30 6270 C 578.385 -1.62599 0.619476 0
M  V30 6271 O 579.561 -1.80195 0.899532 0
M  V30 6272 C 576.626 -2.93926 1.8387 0
M  V30 6273 C 575.687 -2.99402 3.07663 0
M  V30 6274 C 574.92 -4.29031 3.1744 0
M  V30 6275 O 575.143 -5.20358 2.33631 0
M  V30 6276 O 574.077 -4.40401 4.10281 0
M  V30 6277 H 577.903 -1.41531 2.68705 0
M  V30 6278 H 575.488 -0.637422 1.3512 0
M  V30 6279 H 577.37 -3.74747 1.92725 0
M  V30 6280 H 576.045 -3.10368 0.91944 0
M  V30 6281 H 574.952 -2.17606 3.043 0
M  V30 6282 H 576.285 -2.87901 3.99216 0
M  V30 6283 N 577.937 -1.40673 -0.710563 0
M  V30 6284 C 578.9 -1.4108 -1.80635 0
M  V30 6285 C 579.9 -0.303783 -1.57904 0
M  V30 6286 O 581.09 -0.562937 -1.64853 0
M  V30 6287 C 578.222 -1.20748 -3.18799 0
M  V30 6288 H 579.415 -2.38612 -1.81671 0
M  V30 6289 H 576.968 -1.26595 -0.916704 0
M  V30 6290 H 577.703 -0.239964 -3.23411 0
M  V30 6291 H 577.488 -2.00941 -3.36698 0
M  V30 6292 H 578.978 -1.23833 -3.98817 0
M  V30 6293 N 579.415 0.9433 -1.26252 0
M  V30 6294 C 580.378 2.02326 -1.07689 0
M  V30 6295 C 581.378 1.60779 -0.0259174 0
M  V30 6296 O 582.568 1.72108 -0.269134 0
M  V30 6297 C 579.7 3.34886 -0.63752 0
M  V30 6298 H 580.893 2.20225 -2.0357 0
M  V30 6299 H 578.446 1.12197 -1.08819 0
M  V30 6300 H 579.181 3.22684 0.323377 0
M  V30 6301 H 578.966 3.66393 -1.39637 0
M  V30 6302 H 580.456 4.14231 -0.529418 0
M  V30 6303 N 580.893 1.08022 1.14757 0
M  V30 6304 C 582.141 0.805913 1.85336 0
M  V30 6305 C 582.462 -0.670162 1.83122 0
M  V30 6306 O 581.732 -1.48567 1.2769 0
M  V30 6307 H 580.312 0.295138 0.686223 0
M  V30 6308 H 582.974 1.36538 1.3908 0
M  V30 6309 H 582.07 1.14655 2.90277 0
M  V30 6310 N 582.371 -1.3172 0.865308 0
M  V30 6311 C 583.619 -1.96487 0.472995 0
M  V30 6312 C 583.94 -1.68761 -0.976975 0
M  V30 6313 O 583.21 -1.00051 -1.68424 0
M  V30 6314 H 581.79 -0.726947 0.171922 0
M  V30 6315 H 584.452 -1.60612 1.10407 0
M  V30 6316 H 583.548 -3.0574 0.62687 0
M  V30 6317 N 583.85 -0.624285 -1.44708 0
M  V30 6318 C 584.76 0.0861083 -2.34442 0
M  V30 6319 C 585.776 0.84291 -1.5222 0
M  V30 6320 O 586.952 0.796723 -1.84971 0
M  V30 6321 C 584.017 1.05999 -3.30099 0
M  V30 6322 C 583.077 0.303316 -4.28227 0
M  V30 6323 C 582.311 1.23081 -5.19314 0
M  V30 6324 O 582.534 2.46929 -5.14181 0
M  V30 6325 O 581.468 0.71883 -5.97592 0
M  V30 6326 H 585.293 -0.651756 -2.96624 0
M  V30 6327 H 582.879 -0.384493 -1.44368 0
M  V30 6328 H 584.76 1.62046 -3.88997 0
M  V30 6329 H 583.436 1.77859 -2.70459 0
M  V30 6330 H 582.343 -0.300033 -3.72895 0
M  V30 6331 H 583.676 -0.375123 -4.90768 0
M  V30 6332 N 585.328 1.53329 -0.364422 0
M  V30 6333 C 586.26 2.23286 0.517293 0
M  V30 6334 C 587.273 1.24657 1.04711 0
M  V30 6335 O 588.462 1.50887 0.95369 0
M  V30 6336 C 585.562 2.91604 1.72685 0
M  V30 6337 C 584.735 4.1673 1.32873 0
M  V30 6338 C 583.794 4.68269 2.40022 0
M  V30 6339 O 582.82 5.31976 2.02461 0
M  V30 6340 N 584.022 4.45983 3.7159 0
M  V30 6341 H 586.787 2.99588 -0.0819391 0
M  V30 6342 H 584.348 1.60787 -0.189544 0
M  V30 6343 H 586.34 3.22992 2.4384 0
M  V30 6344 H 584.91 2.18763 2.23297 0
M  V30 6345 H 584.13 3.91657 0.447069 0
M  V30 6346 H 585.418 4.98078 1.03902 0
M  V30 6347 H 584.816 3.95077 4.04883 0
M  V30 6348 H 583.373 4.81924 4.38854 0
M  V30 6349 N 586.806 0.0935595 1.57322 0
M  V30 6350 C 588.083 -0.612692 1.85756 0
M  V30 6351 C 588.463 -1.86439 0.99013 0
M  V30 6352 O 587.811 -2.28416 0.0621362 0
M  V30 6353 C 588.021 -0.929547 3.36393 0
M  V30 6354 C 589.369 -1.29366 4.04413 0
M  V30 6355 O 590.393 -1.02061 3.41265 0
M  V30 6356 O 589.252 -1.80498 5.15832 0
M  V30 6357 H 586.346 -0.306444 0.768128 0
M  V30 6358 H 588.892 0.126141 1.69231 0
M  V30 6359 H 587.664 -0.0414766 3.91278 0
M  V30 6360 H 587.287 -1.72441 3.5826 0
M  V30 6361 N 588.284 -1.56567 -0.180126 0
M  V30 6362 C 589.247 -1.94852 -1.20686 0
M  V30 6363 C 590.247 -0.831212 -1.3765 0
M  V30 6364 O 591.437 -1.09841 -1.35206 0
M  V30 6365 C 588.569 -2.23565 -2.57355 0
M  V30 6366 H 589.762 -2.86722 -0.879225 0
M  V30 6367 H 587.315 -1.50489 -0.422237 0
M  V30 6368 H 588.05 -1.34381 -2.95148 0
M  V30 6369 H 587.835 -3.04999 -2.46411 0
M  V30 6370 H 589.325 -2.54137 -3.31367 0
M  V30 6371 N 589.762 0.448376 -1.51087 0
M  V30 6372 C 590.692 1.55102 -1.74544 0
M  V30 6373 C 591.673 1.59357 -0.594932 0
M  V30 6374 O 592.858 1.75261 -0.836491 0
M  V30 6375 C 589.988 2.93268 -1.86041 0
M  V30 6376 C 588.942 3.03877 -3.01402 0
M  V30 6377 C 588.268 4.43914 -2.98068 0
M  V30 6378 C 589.568 2.7898 -4.41551 0
M  V30 6379 H 591.262 1.35724 -2.66869 0
M  V30 6380 H 588.808 0.651498 -1.28419 0
M  V30 6381 H 590.761 3.70356 -2.01034 0
M  V30 6382 H 589.485 3.13853 -0.903548 0
M  V30 6383 H 588.144 2.29227 -2.86096 0
M  V30 6384 H 587.792 4.6145 -2.00182 0
M  V30 6385 H 587.492 4.51944 -3.75527 0
M  V30 6386 H 589.016 5.22991 -3.1514 0
M  V30 6387 H 590.43 3.45805 -4.57265 0
M  V30 6388 H 588.827 2.98431 -5.20633 0
M  V30 6389 H 589.897 1.74663 -4.5235 0
M  V30 6390 N 591.24 1.41047 0.703093 0
M  V30 6391 C 592.517 1.30493 1.45708 0
M  V30 6392 C 592.897 -0.0709892 2.10981 0
M  V30 6393 O 592.245 -1.08471 2.01113 0
M  V30 6394 C 592.455 2.45287 2.48265 0
M  V30 6395 C 593.803 2.86104 3.13735 0
M  V30 6396 O 594.827 2.44971 2.58587 0
M  V30 6397 O 593.686 3.57206 4.13601 0
M  V30 6398 H 590.78 0.513144 0.648546 0
M  V30 6399 H 593.326 1.52995 0.734208 0
M  V30 6400 H 592.098 3.37135 1.98635 0
M  V30 6401 H 591.721 2.24622 3.28071 0
M  V30 6402 N 592.718 -0.936591 1.26751 0
M  V30 6403 C 593.648 -2.05315 1.11212 0
M  V30 6404 C 594.629 -1.70092 0.0160262 0
M  V30 6405 O 595.814 -1.93279 0.188894 0
M  V30 6406 C 592.944 -3.39123 0.749171 0
M  V30 6407 C 591.898 -3.88425 1.79751 0
M  V30 6408 C 591.224 -5.18936 1.28876 0
M  V30 6409 C 592.524 -4.12798 3.19992 0
M  V30 6410 H 594.218 -2.18573 2.04613 0
M  V30 6411 H 591.764 -1.05027 0.985159 0
M  V30 6412 H 593.717 -4.16704 0.627323 0
M  V30 6413 H 592.441 -3.25855 -0.220543 0
M  V30 6414 H 591.1 -3.13028 1.90811 0
M  V30 6415 H 590.748 -5.02051 0.308757 0
M  V30 6416 H 590.448 -5.52892 1.98958 0
M  V30 6417 H 591.972 -5.99096 1.17967 0
M  V30 6418 H 593.386 -4.80977 3.11983 0
M  V30 6419 H 591.783 -4.58044 3.87705 0
M  V30 6420 H 592.853 -3.18412 3.65707 0
M  V30 6421 N 594.196 -1.08629 -1.14182 0
M  V30 6422 C 595.426 -0.837673 -1.88856 0
M  V30 6423 C 595.834 0.614024 -1.78959 0
M  V30 6424 O 595.177 1.43384 -1.14833 0
M  V30 6425 C 595.239 -1.18355 -3.39459 0
M  V30 6426 C 594.903 -2.63848 -3.73139 0
M  V30 6427 C 595.9 -3.62099 -3.73069 0
M  V30 6428 C 593.585 -2.99761 -4.03049 0
M  V30 6429 C 595.579 -4.94292 -4.02435 0
M  V30 6430 C 593.266 -4.32147 -4.32078 0
M  V30 6431 C 594.264 -5.29223 -4.31755 0
M  V30 6432 O 593.952 -6.59229 -4.60079 0
M  V30 6433 H 593.684 -0.301609 -0.604986 0
M  V30 6434 H 596.238 -1.44961 -1.45518 0
M  V30 6435 H 594.468 -0.514628 -3.8326 0
M  V30 6436 H 596.157 -0.915391 -3.95443 0
M  V30 6437 H 596.923 -3.35698 -3.50046 0
M  V30 6438 H 592.802 -2.2484 -4.02453 0
M  V30 6439 H 596.346 -5.70055 -4.02098 0
M  V30 6440 H 592.243 -4.58296 -4.54571 0
M  V30 6441 H 593.011 -6.64578 -4.77785 0
M  V30 6442 N 595.674 1.31259 -0.872281 0
M  V30 6443 C 596.606 2.27396 -0.28697 0
M  V30 6444 C 597.619 1.53181 0.551297 0
M  V30 6445 O 598.808 1.74561 0.372914 0
M  V30 6446 C 595.908 3.33335 0.611617 0
M  V30 6447 C 595.081 4.36966 -0.194729 0
M  V30 6448 C 594.14 5.22387 0.632358 0
M  V30 6449 O 593.166 5.69169 0.0595691 0
M  V30 6450 N 594.368 5.46985 1.94391 0
M  V30 6451 H 597.133 2.78261 -1.11314 0
M  V30 6452 H 594.694 1.44306 -0.733994 0
M  V30 6453 H 596.686 3.87398 1.17068 0
M  V30 6454 H 595.256 2.82496 1.33846 0
M  V30 6455 H 594.476 3.82945 -0.935241 0
M  V30 6456 H 595.764 5.03273 -0.747935 0
M  V30 6457 H 595.162 5.10737 2.43237 0
M  V30 6458 H 593.719 6.03973 2.45071 0
M  V30 6459 N 597.152 0.631951 1.44375 0
M  V30 6460 C 598.102 -0.0943862 2.27805 0
M  V30 6461 C 599.086 -0.815359 1.38711 0
M  V30 6462 O 600.278 -0.701331 1.62513 0
M  V30 6463 C 597.407 -1.07472 3.26044 0
M  V30 6464 C 596.493 -0.353329 4.22626 0
M  V30 6465 N 596.884 0.618512 5.02004 0
M  V30 6466 C 595.182 -0.597662 4.41977 0
M  V30 6467 C 595.883 1.0448 5.7224 0
M  V30 6468 N 594.859 0.383413 5.42246 0
M  V30 6469 H 598.661 0.651672 2.86584 0
M  V30 6470 H 596.175 0.45752 1.55822 0
M  V30 6471 H 598.172 -1.60969 3.84571 0
M  V30 6472 H 596.832 -1.82107 2.68825 0
M  V30 6473 H 597.843 0.996356 5.08226 0
M  V30 6474 H 594.52 -1.32682 3.95856 0
M  V30 6475 H 595.91 1.84773 6.45994 0
M  V30 6476 N 598.631 -1.53133 0.372548 0
M  V30 6477 C 599.856 -2.0625 -0.218098 0
M  V30 6478 C 600.281 -1.24375 -1.41111 0
M  V30 6479 O 599.639 -0.264554 -1.79359 0
M  V30 6480 C 599.687 -3.55858 -0.582876 0
M  V30 6481 O 598.791 -3.76667 -1.67917 0
M  V30 6482 H 598.132 -0.663317 -0.030104 0
M  V30 6483 H 600.662 -1.97477 0.535169 0
M  V30 6484 H 600.672 -3.99007 -0.851925 0
M  V30 6485 H 599.347 -4.14892 0.289428 0
M  V30 6486 H 597.924 -3.45413 -1.40513 0
M  V30 6487 N 600.109 -0.101901 -1.5727 0
M  V30 6488 C 601.039 0.851544 -2.17419 0
M  V30 6489 C 602.02 1.28942 -1.10941 0
M  V30 6490 O 603.205 1.35509 -1.39107 0
M  V30 6491 C 600.335 2.10816 -2.75996 0
M  V30 6492 C 599.289 1.80867 -3.87906 0
M  V30 6493 C 598.615 3.13413 -4.33216 0
M  V30 6494 C 599.915 1.0903 -5.10793 0
M  V30 6495 H 601.609 0.350381 -2.97343 0
M  V30 6496 H 599.155 0.16709 -1.43027 0
M  V30 6497 H 601.108 2.77959 -3.16729 0
M  V30 6498 H 599.832 2.63227 -1.93337 0
M  V30 6499 H 598.491 1.16119 -3.47724 0
M  V30 6500 H 598.139 3.63725 -3.47438 0
M  V30 6501 H 597.839 2.94155 -5.08671 0
M  V30 6502 H 599.363 3.81704 -4.76586 0
M  V30 6503 H 600.777 1.66295 -5.48652 0
M  V30 6504 H 599.174 0.99927 -5.91722 0
M  V30 6505 H 600.244 0.0741704 -4.84843 0
M  V30 6506 N 601.587 1.56661 0.17182 0
M  V30 6507 C 602.835 1.81606 0.886774 0
M  V30 6508 C 603.156 0.678818 1.82803 0
M  V30 6509 O 602.426 -0.301354 1.93568 0
M  V30 6510 H 601.006 0.669934 0.330451 0
M  V30 6511 H 603.668 1.94142 0.171757 0
M  V30 6512 H 602.764 2.75634 1.46398 0
M  V30 6513 N 603.065 -0.440357 1.51323 0
M  V30 6514 C 603.975 -1.55955 1.75258 0
M  V30 6515 C 604.991 -1.61933 0.636687 0
M  V30 6516 O 606.167 -1.79231 0.918593 0
M  V30 6517 C 603.232 -2.9196 1.86977 0
M  V30 6518 C 602.293 -2.96122 3.10822 0
M  V30 6519 C 601.526 -4.2564 3.21973 0
M  V30 6520 O 601.749 -5.17851 2.39137 0
M  V30 6521 O 600.683 -4.36025 4.14929 0
M  V30 6522 H 604.509 -1.38673 2.70191 0
M  V30 6523 H 602.094 -0.623055 1.35788 0
M  V30 6524 H 603.976 -3.72682 1.96688 0
M  V30 6525 H 602.651 -3.09375 0.952307 0
M  V30 6526 H 601.558 -2.14366 3.06591 0
M  V30 6527 H 602.891 -2.83651 4.02247 0
M  V30 6528 N 604.543 -1.41418 -0.695603 0
M  V30 6529 C 605.473 -1.46035 -1.82197 0
M  V30 6530 C 606.454 -0.319025 -1.67082 0
M  V30 6531 O 607.639 -0.530462 -1.86815 0
M  V30 6532 C 604.769 -1.34179 -3.20333 0
M  V30 6533 C 603.723 -2.46123 -3.50154 0
M  V30 6534 C 603.049 -2.19332 -4.87645 0
M  V30 6535 C 604.349 -3.88463 -3.49133 0
M  V30 6536 H 606.043 -2.40303 -1.78591 0
M  V30 6537 H 603.589 -1.15663 -0.857797 0
M  V30 6538 H 605.542 -1.36021 -3.98844 0
M  V30 6539 H 604.266 -0.363952 -3.24566 0
M  V30 6540 H 602.925 -2.43563 -2.73994 0
M  V30 6541 H 602.573 -1.19891 -4.88503 0
M  V30 6542 H 602.273 -2.94344 -5.08562 0
M  V30 6543 H 603.797 -2.22889 -5.68465 0
M  V30 6544 H 605.211 -3.92738 -4.17648 0
M  V30 6545 H 603.608 -4.63158 -3.81582 0
M  V30 6546 H 604.678 -4.16617 -2.48109 0
M  V30 6547 N 606.021 0.929856 -1.27246 0
M  V30 6548 C 606.951 2.04722 -1.12299 0
M  V30 6549 C 607.932 1.70082 -0.0250464 0
M  V30 6550 O 609.117 1.93176 -0.199141 0
M  V30 6551 C 606.247 3.38721 -0.767145 0
M  V30 6552 C 605.201 3.87466 -1.81808 0
M  V30 6553 C 604.527 5.18246 -1.31626 0
M  V30 6554 C 605.827 4.11095 -3.22177 0
M  V30 6555 H 607.521 2.17485 -2.05769 0
M  V30 6556 H 605.067 1.04503 -0.990715 0
M  V30 6557 H 607.02 4.16366 -0.649413 0
M  V30 6558 H 605.744 3.25967 0.203259 0
M  V30 6559 H 604.403 3.12012 -1.92468 0
M  V30 6560 H 604.051 5.01881 -0.335378 0
M  V30 6561 H 603.751 5.51829 -2.01887 0
M  V30 6562 H 605.275 5.98462 -1.21143 0
M  V30 6563 H 606.689 4.79316 -3.1453 0
M  V30 6564 H 605.086 4.55982 -3.90129 0
M  V30 6565 H 606.156 3.16468 -3.67391 0
M  V30 6566 N 607.499 1.09233 1.13605 0
M  V30 6567 C 608.429 0.751738 2.21068 0
M  V30 6568 C 609.41 -0.269688 1.67948 0
M  V30 6569 O 610.595 -0.13819 1.93708 0
M  V30 6570 C 607.725 0.16935 3.46887 0
M  V30 6571 C 606.679 1.12007 4.13084 0
M  V30 6572 C 606.005 0.399483 5.33206 0
M  V30 6573 C 607.305 2.46168 4.6065 0
M  V30 6574 H 608.999 1.65024 2.49815 0
M  V30 6575 H 606.545 0.794905 1.20072 0
M  V30 6576 H 608.498 -0.0809824 4.21322 0
M  V30 6577 H 607.222 -0.764335 3.1753 0
M  V30 6578 H 605.881 1.35564 3.40614 0
M  V30 6579 H 605.529 -0.538277 5.00112 0
M  V30 6580 H 605.229 1.03337 5.78442 0
M  V30 6581 H 606.753 0.157403 6.10397 0
M  V30 6582 H 608.167 2.26829 5.26518 0
M  V30 6583 H 606.564 3.05326 5.1662 0
M  V30 6584 H 607.634 3.07076 3.75276 0
M  V30 6585 N 608.977 -1.30795 0.87923 0
M  V30 6586 C 609.907 -2.30742 0.357796 0
M  V30 6587 C 610.888 -1.60747 -0.556283 0
M  V30 6588 O 612.073 -1.88393 -0.47135 0
M  V30 6589 C 609.203 -3.44583 -0.433555 0
M  V30 6590 C 608.157 -4.26235 0.388251 0
M  V30 6591 C 607.483 -5.32073 -0.529352 0
M  V30 6592 C 608.783 -4.96303 1.62729 0
M  V30 6593 H 610.477 -2.74605 1.19299 0
M  V30 6594 H 608.023 -1.32017 0.575104 0
M  V30 6595 H 609.976 -4.13563 -0.808934 0
M  V30 6596 H 608.7 -2.99511 -1.30234 0
M  V30 6597 H 607.359 -3.58936 0.745695 0
M  V30 6598 H 607.007 -4.83249 -1.39569 0
M  V30 6599 H 606.707 -5.87598 0.0166741 0
M  V30 6600 H 608.231 -6.0391 -0.901373 0
M  V30 6601 H 609.645 -5.5783 1.32283 0
M  V30 6602 H 608.042 -5.61666 2.11309 0
M  V30 6603 H 609.112 -4.22758 2.37494 0
M  V30 6604 N 610.455 -0.639598 -1.44038 0
M  V30 6605 C 611.385 0.0469443 -2.33453 0
M  V30 6606 C 612.366 0.82609 -1.48694 0
M  V30 6607 O 613.551 0.790285 -1.77393 0
M  V30 6608 C 610.681 1.02338 -3.3188 0
M  V30 6609 C 609.635 0.355284 -4.26523 0
M  V30 6610 C 608.961 1.44221 -5.14883 0
M  V30 6611 C 610.261 -0.743798 -5.16977 0
M  V30 6612 H 611.955 -0.699735 -2.91108 0
M  V30 6613 H 609.501 -0.337946 -1.39978 0
M  V30 6614 H 611.454 1.51247 -3.93322 0
M  V30 6615 H 610.178 1.80105 -2.72451 0
M  V30 6616 H 608.837 -0.113239 -3.66425 0
M  V30 6617 H 608.485 2.21097 -4.51802 0
M  V30 6618 H 608.185 1.00052 -5.79019 0
M  V30 6619 H 609.709 1.93295 -5.79197 0
M  V30 6620 H 611.123 -0.337444 -5.72306 0
M  V30 6621 H 609.52 -1.10914 -5.89761 0
M  V30 6622 H 610.59 -1.60745 -4.57481 0
M  V30 6623 N 611.933 1.52934 -0.380664 0
M  V30 6624 C 612.896 2.24809 0.446473 0
M  V30 6625 C 613.896 1.26133 0.997347 0
M  V30 6626 O 615.086 1.50297 0.880714 0
M  V30 6627 C 612.218 2.99649 1.62553 0
M  V30 6628 H 613.411 2.99343 -0.182677 0
M  V30 6629 H 610.964 1.55736 -0.132618 0
M  V30 6630 H 611.699 2.29395 2.29235 0
M  V30 6631 H 611.484 3.72066 1.23732 0
M  V30 6632 H 612.974 3.54246 2.21133 0
M  V30 6633 N 613.412 0.11024 1.57214 0
M  V30 6634 C 614.375 -0.828808 2.1369 0
M  V30 6635 C 615.375 -1.20059 1.06969 0
M  V30 6636 O 616.565 -1.12754 1.32786 0
M  V30 6637 C 613.697 -2.11959 2.66994 0
M  V30 6638 H 614.89 -0.338146 2.97988 0
M  V30 6639 H 612.443 -0.138913 1.55681 0
M  V30 6640 H 613.178 -2.65476 1.8626 0
M  V30 6641 H 612.963 -1.86258 3.45037 0
M  V30 6642 H 614.453 -2.79105 3.10629 0
M  V30 6643 N 614.89 -1.56749 -0.16351 0
M  V30 6644 C 615.8 -2.00255 -1.2221 0
M  V30 6645 C 616.816 -0.915194 -1.47987 0
M  V30 6646 O 617.992 -1.22342 -1.59982 0
M  V30 6647 C 615.057 -2.36035 -2.53946 0
M  V30 6648 C 614.118 -3.58637 -2.35962 0
M  V30 6649 C 613.351 -3.92701 -3.61416 0
M  V30 6650 O 613.574 -3.27632 -4.66919 0
M  V30 6651 O 612.508 -4.86019 -3.55062 0
M  V30 6652 H 616.334 -2.90586 -0.882794 0
M  V30 6653 H 613.919 -1.44721 -0.370978 0
M  V30 6654 H 615.801 -2.59982 -3.31643 0
M  V30 6655 H 614.476 -1.48863 -2.8744 0
M  V30 6656 H 613.383 -3.39898 -1.5627 0
M  V30 6657 H 614.716 -4.46374 -2.0739 0
M  V30 6658 N 616.368 0.432326 -1.51554 0
M  V30 6659 C 617.779 1.01202 -1.56892 0
M  V30 6660 C 618.13 1.92175 -0.395394 0
M  V30 6661 O 617.255 2.10844 0.487198 0
M  V30 6662 C 617.85 1.84217 -2.8434 0
M  V30 6663 C 616.409 2.37228 -2.92233 0
M  V30 6664 C 615.556 1.16576 -2.51606 0
M  V30 6665 H 618.507 0.213407 -1.57259 0
M  V30 6666 H 618.528 2.69721 -2.68385 0
M  V30 6667 H 618.04 1.17979 -3.69733 0
M  V30 6668 H 616.141 3.06905 -2.11282 0
M  V30 6669 H 616.254 2.69682 -3.95991 0
M  V30 6670 H 614.618 1.51263 -2.04919 0
M  V30 6671 H 615.401 0.519404 -3.39348 0
M  V30 6672 N 617.846 1.41785 0.688094 0
M  V30 6673 C 619.257 1.3701 1.26828 0
M  V30 6674 C 619.608 0.056835 1.96118 0
M  V30 6675 O 618.733 -0.84475 1.99231 0
M  V30 6676 C 619.328 2.48168 2.30648 0
M  V30 6677 C 617.887 2.46766 2.84224 0
M  V30 6678 C 617.034 2.27633 1.58361 0
M  V30 6679 H 619.985 1.51192 0.482351 0
M  V30 6680 H 620.006 2.17655 3.121 0
M  V30 6681 H 619.518 3.43735 1.80188 0
M  V30 6682 H 617.619 1.54978 3.3884 0
M  V30 6683 H 617.732 3.43342 3.34145 0
M  V30 6684 H 616.096 1.75648 1.84445 0
M  V30 6685 H 616.879 3.25238 1.09887 0
M  V30 6686 N 619.324 -0.923095 1.27737 0
M  V30 6687 C 620.572 -1.66797 1.14119 0
M  V30 6688 C 620.893 -1.92479 -0.312541 0
M  V30 6689 O 620.163 -1.53432 -1.218 0
M  V30 6690 H 618.743 -0.618196 0.419336 0
M  V30 6691 H 621.405 -1.10815 1.60331 0
M  V30 6692 H 620.501 -2.63424 1.67374 0
M  V30 6693 N 620.802 -1.09834 -1.13024 0
M  V30 6694 C 622.218 -0.828875 -1.36388 0
M  V30 6695 C 622.418 0.554756 -1.93713 0
M  V30 6696 O 621.474 1.30882 -2.15931 0
M  V30 6697 C 622.787 -1.92352 -2.3113 0
M  V30 6698 C 624.335 -1.95124 -2.44735 0
M  V30 6699 C 624.81 -3.03745 -3.42787 0
M  V30 6700 N 626.301 -3.03012 -3.5034 0
M  V30 6701 C 627.036 -3.83699 -4.26101 0
M  V30 6702 N 626.532 -4.74306 -5.04981 0
M  V30 6703 N 628.325 -3.71942 -4.21445 0
M  V30 6704 H 620.476 -1.99029 -0.74169 0
M  V30 6705 H 622.739 -0.864557 -0.388903 0
M  V30 6706 H 622.445 -2.91906 -1.96172 0
M  V30 6707 H 622.319 -1.80536 -3.3119 0
M  V30 6708 H 624.706 -0.962069 -2.78977 0
M  V30 6709 H 624.787 -2.11018 -1.44586 0
M  V30 6710 H 624.431 -4.02878 -3.09276 0
M  V30 6711 H 624.361 -2.85094 -4.42752 0
M  V30 6712 H 626.852 -2.37352 -2.94062 0
M  V30 6713 H 627.165 -5.32446 -5.60108 0
M  V30 6714 H 625.51 -4.78339 -5.04199 0
M  V30 6715 H 628.701 -3.00513 -3.589 0
M  V30 6716 H 628.874 -4.35062 -4.80235 0
M  V30 6717 N 622.28 1.30327 -0.886154 0
M  V30 6718 C 623.696 1.48676 -0.580323 0
M  V30 6719 C 623.896 1.81189 0.881639 0
M  V30 6720 O 622.952 1.90021 1.66278 0
M  V30 6721 C 624.265 2.60932 -1.49449 0
M  V30 6722 C 625.813 2.74812 -1.49824 0
M  V30 6723 C 626.288 3.90183 -2.39836 0
M  V30 6724 N 627.779 3.97495 -2.37806 0
M  V30 6725 C 628.514 4.86078 -3.04165 0
M  V30 6726 N 628.01 5.79448 -3.79753 0
M  V30 6727 N 629.803 4.79456 -2.93391 0
M  V30 6728 H 621.954 1.07495 -1.8319 0
M  V30 6729 H 624.217 0.532661 -0.784204 0
M  V30 6730 H 623.923 2.43731 -2.5355 0
M  V30 6731 H 623.797 3.57437 -1.20494 0
M  V30 6732 H 626.184 2.91418 -0.464731 0
M  V30 6733 H 626.265 1.78924 -1.82811 0
M  V30 6734 H 625.909 3.74334 -3.43273 0
M  V30 6735 H 625.839 4.85411 -2.04166 0
M  V30 6736 H 628.33 3.30703 -1.82877 0
M  V30 6737 H 628.643 6.43805 -4.27475 0
M  V30 6738 H 626.988 5.79376 -3.8386 0
M  V30 6739 H 630.179 4.05494 -2.33864 0
M  V30 6740 H 630.352 5.48283 -3.45383 0
M  V30 6741 N 623.758 0.647228 1.43697 0
M  V30 6742 C 625.174 0.314256 1.56476 0
M  V30 6743 C 625.374 -1.18191 1.63196 0
M  V30 6744 O 624.43 -1.96655 1.58376 0
M  V30 6745 C 625.743 1.02034 2.82859 0
M  V30 6746 C 627.291 1.00002 2.96595 0
M  V30 6747 C 627.766 1.68689 4.25803 0
M  V30 6748 N 629.257 1.65424 4.32654 0
M  V30 6749 C 629.992 2.1545 5.31384 0
M  V30 6750 N 629.488 2.73738 6.36427 0
M  V30 6751 N 631.281 2.05985 5.22998 0
M  V30 6752 H 623.432 1.61821 1.37578 0
M  V30 6753 H 625.695 0.680184 0.660344 0
M  V30 6754 H 625.401 2.07542 2.83935 0
M  V30 6755 H 625.275 0.568146 3.72897 0
M  V30 6756 H 627.662 -0.0466319 2.95063 0
M  V30 6757 H 627.743 1.49086 2.07863 0
M  V30 6758 H 627.387 2.73308 4.28095 0
M  V30 6759 H 627.317 1.17076 5.13421 0
M  V30 6760 H 629.808 1.22884 3.57363 0
M  V30 6761 H 630.121 3.09602 7.08072 0
M  V30 6762 H 628.466 2.77796 6.37067 0
M  V30 6763 H 631.657 1.60157 4.39849 0
M  V30 6764 H 631.83 2.45281 5.99784 0
M  V30 6765 N 625.236 -1.5273 0.388769 0
M  V30 6766 C 626.146 -2.30165 -0.453993 0
M  V30 6767 C 627.162 -1.37058 -1.07197 0
M  V30 6768 O 628.338 -1.70127 -1.0779 0
M  V30 6769 C 625.403 -3.09303 -1.56628 0
M  V30 6770 C 624.464 -4.18117 -0.973467 0
M  V30 6771 C 623.697 -4.93472 -2.03275 0
M  V30 6772 O 623.92 -4.68913 -3.24772 0
M  V30 6773 O 622.854 -5.78833 -1.65034 0
M  V30 6774 H 626.68 -3.03185 0.176816 0
M  V30 6775 H 624.265 -1.4862 0.152501 0
M  V30 6776 H 626.147 -3.58648 -2.21246 0
M  V30 6777 H 624.822 -2.39098 -2.18206 0
M  V30 6778 H 623.729 -3.7297 -0.290556 0
M  V30 6779 H 625.062 -4.90556 -0.401908 0
M  V30 6780 N 626.714 -0.118576 -1.57153 0
M  V30 6781 C 627.644 0.828436 -2.1831 0
M  V30 6782 C 628.625 1.27758 -1.12303 0
M  V30 6783 O 629.81 1.34026 -1.40537 0
M  V30 6784 C 626.94 2.07876 -2.78217 0
M  V30 6785 C 625.894 1.76742 -3.89803 0
M  V30 6786 C 625.22 3.08801 -4.36516 0
M  V30 6787 C 626.52 1.03606 -5.11921 0
M  V30 6788 H 628.214 0.318824 -2.97698 0
M  V30 6789 H 625.76 0.151911 -1.43196 0
M  V30 6790 H 627.713 2.74584 -3.19659 0
M  V30 6791 H 626.437 2.61161 -1.96118 0
M  V30 6792 H 625.096 1.12424 -3.48936 0
M  V30 6793 H 624.744 3.6002 -3.51276 0
M  V30 6794 H 624.444 2.88743 -5.11763 0
M  V30 6795 H 625.968 3.76627 -4.80608 0
M  V30 6796 H 627.382 1.60467 -5.50385 0
M  V30 6797 H 625.779 0.936454 -5.92748 0
M  V30 6798 H 626.849 0.0227421 -4.84895 0
M  V30 6799 N 628.193 1.56834 0.155195 0
M  V30 6800 C 629.123 2.00678 1.19376 0
M  V30 6801 C 630.104 0.884973 1.45266 0
M  V30 6802 O 631.289 1.1522 1.56326 0
M  V30 6803 C 628.419 2.38042 2.5289 0
M  V30 6804 C 627.373 3.53332 2.41538 0
M  V30 6805 C 626.699 3.76485 3.79688 0
M  V30 6806 C 627.999 4.86265 1.9064 0
M  V30 6807 H 629.693 2.87688 0.829232 0
M  V30 6808 H 627.239 1.38407 0.397445 0
M  V30 6809 H 629.192 2.67314 3.25763 0
M  V30 6810 H 627.916 1.4796 2.91162 0
M  V30 6811 H 626.575 3.24213 1.71117 0
M  V30 6812 H 626.223 2.83667 4.15382 0
M  V30 6813 H 625.923 4.54068 3.72956 0
M  V30 6814 H 627.447 4.08174 4.54122 0
M  V30 6815 H 628.861 5.14308 2.53299 0
M  V30 6816 H 627.258 5.67597 1.94818 0
M  V30 6817 H 628.328 4.77184 0.861596 0
M  V30 6818 N 629.671 -0.424282 1.51781 0
M  V30 6819 C 630.621 -1.51464 1.70419 0
M  V30 6820 C 631.605 -1.50911 0.558094 0
M  V30 6821 O 632.797 -1.57143 0.814552 0
M  V30 6822 C 629.926 -2.89539 1.84451 0
M  V30 6823 C 629.012 -2.94798 3.04886 0
M  V30 6824 N 629.403 -2.69778 4.27848 0
M  V30 6825 C 627.701 -3.25962 3.04408 0
M  V30 6826 C 628.402 -2.81216 5.09208 0
M  V30 6827 N 627.378 -3.13447 4.44131 0
M  V30 6828 H 631.18 -1.30892 2.63144 0
M  V30 6829 H 628.694 -0.631783 1.49607 0
M  V30 6830 H 630.691 -3.67998 1.95917 0
M  V30 6831 H 629.351 -3.11121 0.929168 0
M  V30 6832 H 630.362 -2.44458 4.56575 0
M  V30 6833 H 627.039 -3.53236 2.22555 0
M  V30 6834 H 628.429 -2.65715 6.17127 0
M  V30 6835 N 631.149 -1.42148 -0.680565 0
M  V30 6836 C 632.377 -1.45696 -1.46902 0
M  V30 6837 C 632.792 -0.0665858 -1.88683 0
M  V30 6838 O 632.149 0.917436 -1.57764 0
M  V30 6839 C 632.2 -2.37898 -2.72188 0
M  V30 6840 O 631.921 -3.71526 -2.32163 0
M  V30 6841 C 633.422 -2.50407 -3.65802 0
M  V30 6842 H 630.642 -0.495729 -0.45221 0
M  V30 6843 H 633.186 -1.866 -0.836709 0
M  V30 6844 H 631.341 -2.00263 -3.31622 0
M  V30 6845 H 631.755 -4.20849 -3.13027 0
M  V30 6846 H 633.229 -3.19056 -4.50452 0
M  V30 6847 H 633.706 -1.5401 -4.11312 0
M  V30 6848 H 634.312 -2.8874 -3.12265 0
M  V30 6849 N 632.627 0.916307 -1.28225 0
M  V30 6850 C 633.537 2.05165 -1.13775 0
M  V30 6851 C 634.553 1.73879 -0.0649418 0
M  V30 6852 O 635.729 1.99531 -0.273722 0
M  V30 6853 C 632.794 3.37385 -0.798267 0
M  V30 6854 C 631.855 3.82296 -1.95316 0
M  V30 6855 C 631.088 5.08206 -1.62978 0
M  V30 6856 O 631.311 5.6781 -0.542948 0
M  V30 6857 O 630.245 5.48768 -2.47261 0
M  V30 6858 H 634.071 2.20273 -2.09078 0
M  V30 6859 H 631.656 1.0373 -1.07519 0
M  V30 6860 H 633.538 4.16773 -0.62278 0
M  V30 6861 H 632.213 3.23458 0.125139 0
M  V30 6862 H 631.12 3.03746 -2.18378 0
M  V30 6863 H 632.453 4.00782 -2.85718 0
M  V30 6864 N 634.105 1.10431 1.1244 0
M  V30 6865 C 635.351 0.847972 1.84221 0
M  V30 6866 C 635.684 -0.624903 1.83871 0
M  V30 6867 O 634.959 -1.46074 1.28423 0
M  V30 6868 C 635.242 1.39695 3.319 0
M  V30 6869 C 635.095 2.93668 3.40704 0
M  V30 6870 C 636.414 1.03924 4.27654 0
M  V30 6871 H 633.533 0.309502 0.668863 0
M  V30 6872 H 636.175 1.36745 1.31912 0
M  V30 6873 H 634.325 0.955095 3.76577 0
M  V30 6874 H 635.997 3.46379 3.04662 0
M  V30 6875 H 634.24 3.30272 2.81252 0
M  V30 6876 H 634.911 3.27162 4.446 0
M  V30 6877 H 637.387 1.42049 3.91102 0
M  V30 6878 H 636.263 1.45027 5.29394 0
M  V30 6879 H 636.524 -0.051336 4.4207 0
M  V30 6880 N 635.583 -1.29855 0.893053 0
M  V30 6881 C 636.515 -2.26911 0.32311 0
M  V30 6882 C 637.528 -1.54039 -0.526858 0
M  V30 6883 O 638.717 -1.75132 -0.345095 0
M  V30 6884 C 635.817 -3.34266 -0.558509 0
M  V30 6885 C 634.99 -4.36601 0.264222 0
M  V30 6886 C 634.049 -5.23326 -0.549171 0
M  V30 6887 O 633.075 -5.69192 0.0309883 0
M  V30 6888 N 634.277 -5.50008 -1.85664 0
M  V30 6889 H 637.042 -2.76455 1.15726 0
M  V30 6890 H 634.603 -1.4312 0.756859 0
M  V30 6891 H 636.595 -3.89211 -1.1089 0
M  V30 6892 H 635.165 -2.8459 -1.29334 0
M  V30 6893 H 634.385 -3.81409 0.996046 0
M  V30 6894 H 635.673 -5.02019 0.827906 0
M  V30 6895 H 635.071 -5.14542 -2.35081 0
M  V30 6896 H 633.628 -6.07796 -2.35431 0
M  V30 6897 N 637.061 -0.65484 -1.43351 0
M  V30 6898 C 638.009 0.0476784 -2.32551 0
M  V30 6899 C 639.003 0.811403 -1.48703 0
M  V30 6900 O 640.209 0.721621 -1.64902 0
M  V30 6901 H 636.584 0.0342038 -0.751222 0
M  V30 6902 H 638.555 -0.722342 -2.89525 0
M  V30 6903 C 637.304 0.999251 -3.33032 0
M  V30 6904 H 636.627 0.421005 -3.97577 0
M  V30 6905 H 638.067 1.45986 -3.98076 0
M  V30 6906 C 636.526 2.09606 -2.63756 0
M  V30 6907 O 637.056 3.18004 -2.4543 0
M  V30 6908 N 635.262 1.86207 -2.23103 0
M  V30 6909 H 634.809 0.980555 -2.38208 0
M  V30 6910 H 634.767 2.59787 -1.77081 0
M  V30 6911 N 638.539 1.52521 -0.396863 0
M  V30 6912 C 639.469 2.29582 0.425941 0
M  V30 6913 C 640.45 1.33281 1.05689 0
M  V30 6914 O 641.635 1.62181 1.06823 0
M  V30 6915 C 638.765 3.10821 1.54943 0
M  V30 6916 C 637.719 4.15069 1.04413 0
M  V30 6917 C 637.045 4.84578 2.26028 0
M  V30 6918 C 638.345 5.22191 0.106767 0
M  V30 6919 H 640.039 2.98612 -0.217045 0
M  V30 6920 H 637.585 1.43611 -0.105826 0
M  V30 6921 H 639.538 3.63492 2.13193 0
M  V30 6922 H 638.262 2.39538 2.22011 0
M  V30 6923 H 636.921 3.63389 0.484118 0
M  V30 6924 H 636.569 4.09835 2.91623 0
M  V30 6925 H 636.269 5.55043 1.92876 0
M  V30 6926 H 637.793 5.40056 2.84906 0
M  V30 6927 H 639.207 5.70176 0.597685 0
M  V30 6928 H 637.604 5.99947 -0.135352 0
M  V30 6929 H 638.674 4.77531 -0.842134 0
M  V30 6930 N 640.017 0.126909 1.57088 0
M  V30 6931 C 640.95 -0.857844 2.11462 0
M  V30 6932 C 641.928 -1.25569 1.03301 0
M  V30 6933 O 643.112 -1.35535 1.31006 0
M  V30 6934 C 640.239 -2.14912 2.61784 0
M  V30 6935 C 639.285 -1.89874 3.81903 0
M  V30 6936 S 640.118 -1.10785 5.23915 0
M  V30 6937 C 641.274 -2.41075 5.7761 0
M  V30 6938 H 641.507 -0.395384 2.94659 0
M  V30 6939 H 639.04 -0.0870151 1.54155 0
M  V30 6940 H 640.998 -2.89101 2.91429 0
M  V30 6941 H 639.659 -2.58275 1.78754 0
M  V30 6942 H 638.852 -2.85572 4.15289 0
M  V30 6943 H 638.454 -1.23802 3.52915 0
M  V30 6944 H 640.746 -3.36864 5.87817 0
M  V30 6945 H 641.689 -2.12223 6.75549 0
M  V30 6946 H 642.097 -2.50804 5.05725 0
M  V30 6947 N 641.495 -1.56914 -0.146875 0
M  V30 6948 C 642.458 -1.97368 -1.16526 0
M  V30 6949 C 643.458 -0.860223 -1.35856 0
M  V30 6950 O 644.648 -1.12684 -1.32846 0
M  V30 6951 C 641.78 -2.28974 -2.52555 0
M  V30 6952 H 642.973 -2.88523 -0.818209 0
M  V30 6953 H 640.526 -1.5135 -0.390221 0
M  V30 6954 H 641.261 -1.40611 -2.92231 0
M  V30 6955 H 641.046 -3.10157 -2.39886 0
M  V30 6956 H 642.536 -2.61109 -3.25902 0
M  V30 6957 N 642.974 0.416227 -1.52004 0
M  V30 6958 C 644.39 0.754319 -1.40649 0
M  V30 6959 C 644.59 1.95059 -0.505392 0
M  V30 6960 O 643.646 2.5248 0.0315057 0
M  V30 6961 C 644.959 1.0149 -2.83055 0
M  V30 6962 C 646.507 1.11805 -2.9235 0
M  V30 6963 C 646.982 1.41144 -4.35709 0
M  V30 6964 N 648.473 1.48024 -4.38911 0
M  V30 6965 C 649.208 1.72338 -5.46889 0
M  V30 6966 N 648.704 1.94303 -6.64995 0
M  V30 6967 N 650.497 1.74294 -5.34395 0
M  V30 6968 H 642.648 -0.371324 -2.09129 0
M  V30 6969 H 644.911 -0.103811 -0.942299 0
M  V30 6970 H 644.617 0.208345 -3.51082 0
M  V30 6971 H 644.491 1.93697 -3.23668 0
M  V30 6972 H 646.878 1.91521 -2.24508 0
M  V30 6973 H 646.959 0.17451 -2.55204 0
M  V30 6974 H 646.603 0.619484 -5.04108 0
M  V30 6975 H 646.533 2.36739 -4.70385 0
M  V30 6976 H 649.024 1.32868 -3.53772 0
M  V30 6977 H 649.337 2.12286 -7.43071 0
M  V30 6978 H 647.682 1.91582 -6.68073 0
M  V30 6979 H 650.873 1.56667 -4.41104 0
M  V30 6980 H 651.046 1.92904 -6.18621 0
M  V30 6981 N 644.452 1.42507 0.673017 0
M  V30 6982 C 645.415 1.4582 1.76831 0
M  V30 6983 C 646.415 0.345542 1.57043 0
M  V30 6984 O 647.605 0.606447 1.63303 0
M  V30 6985 C 644.737 1.29158 3.15485 0
M  V30 6986 H 645.93 2.43345 1.7528 0
M  V30 6987 H 643.483 1.28981 0.882817 0
M  V30 6988 H 644.218 0.325626 3.22661 0
M  V30 6989 H 644.003 2.09797 3.31252 0
M  V30 6990 H 645.493 1.34363 3.95394 0
M  V30 6991 N 645.93 -0.909495 1.28709 0
M  V30 6992 C 646.84 -2.04558 1.14861 0
M  V30 6993 C 647.856 -1.73842 0.0741621 0
M  V30 6994 O 649.032 -1.99383 0.2843 0
M  V30 6995 C 646.097 -3.36957 0.816148 0
M  V30 6996 C 645.158 -3.81255 1.97341 0
M  V30 6997 C 644.391 -5.07335 1.65671 0
M  V30 6998 O 644.614 -5.67514 0.573053 0
M  V30 6999 O 643.548 -5.47449 2.50167 0
M  V30 7000 H 647.374 -2.19161 2.10243 0
M  V30 7001 H 644.959 -1.03159 1.08068 0
M  V30 7002 H 646.841 -4.16436 0.644873 0
M  V30 7003 H 645.516 -3.2352 -0.107983 0
M  V30 7004 H 644.423 -3.02584 2.19986 0
M  V30 7005 H 645.756 -3.99261 2.87839 0
M  V30 7006 N 647.408 -1.11026 -1.11852 0
M  V30 7007 C 648.638 -0.877544 -1.87037 0
M  V30 7008 C 649.046 0.575925 -1.80221 0
M  V30 7009 O 648.389 1.40916 -1.17849 0
M  V30 7010 C 648.451 -1.25529 -3.36872 0
M  V30 7011 C 648.115 -2.71704 -3.67459 0
M  V30 7012 C 649.112 -3.69931 -3.65304 0
M  V30 7013 C 646.797 -3.08243 -3.966 0
M  V30 7014 C 648.791 -5.02717 -3.9186 0
M  V30 7015 C 646.478 -4.41215 -4.22815 0
M  V30 7016 C 647.476 -5.38262 -4.20432 0
M  V30 7017 O 647.164 -6.68839 -4.45992 0
M  V30 7018 H 646.896 -0.314374 -0.598452 0
M  V30 7019 H 649.45 -1.48015 -1.42411 0
M  V30 7020 H 647.68 -0.595808 -3.82082 0
M  V30 7021 H 649.369 -0.999064 -3.93413 0
M  V30 7022 H 650.135 -3.43047 -3.42846 0
M  V30 7023 H 646.014 -2.33326 -3.97593 0
M  V30 7024 H 649.558 -5.78456 -3.89916 0
M  V30 7025 H 645.455 -4.67835 -4.44748 0
M  V30 7026 H 646.223 -6.74563 -4.63581 0
M  V30 7027 N 648.886 1.2938 -0.899927 0
M  V30 7028 C 649.816 2.30144 -0.39446 0
M  V30 7029 C 650.797 1.61611 0.530639 0
M  V30 7030 O 651.982 1.89119 0.441319 0
M  V30 7031 C 649.112 3.45229 0.37868 0
M  V30 7032 C 648.066 4.25564 -0.456012 0
M  V30 7033 C 647.392 5.32848 0.444637 0
M  V30 7034 C 648.692 4.93651 -1.70605 0
M  V30 7035 H 650.386 2.72673 -1.23653 0
M  V30 7036 H 647.932 1.31086 -0.596034 0
M  V30 7037 H 649.885 4.14797 0.743037 0
M  V30 7038 H 648.609 3.01545 1.25453 0
M  V30 7039 H 647.268 3.57704 -0.802704 0
M  V30 7040 H 646.916 4.85408 1.31863 0
M  V30 7041 H 646.616 5.87497 -0.110154 0
M  V30 7042 H 648.14 6.05268 0.805182 0
M  V30 7043 H 649.554 5.55655 -1.41141 0
M  V30 7044 H 647.951 5.58233 -2.20217 0
M  V30 7045 H 649.021 4.18926 -2.4419 0
M  V30 7046 N 650.364 0.662433 1.43002 0
M  V30 7047 C 651.311 -0.0235324 2.30788 0
M  V30 7048 C 652.281 -0.805342 1.4527 0
M  V30 7049 O 653.466 -0.78009 1.74124 0
M  V30 7050 C 650.606 -0.977545 3.30965 0
M  V30 7051 C 649.719 -0.190865 4.31578 0
M  V30 7052 C 648.854 -1.13951 5.18834 0
M  V30 7053 C 647.893 -0.343796 6.11134 0
M  V30 7054 N 647.03 -1.2445 6.90982 0
M  V30 7055 H 651.87 0.730921 2.88897 0
M  V30 7056 H 649.407 0.372197 1.42313 0
M  V30 7057 H 651.365 -1.54437 3.87563 0
M  V30 7058 H 649.995 -1.69877 2.74484 0
M  V30 7059 H 649.047 0.492388 3.772 0
M  V30 7060 H 650.359 0.427464 4.96965 0
M  V30 7061 H 649.513 -1.77666 5.80103 0
M  V30 7062 H 648.252 -1.79174 4.53595 0
M  V30 7063 H 647.257 0.30665 5.48944 0
M  V30 7064 H 648.482 0.304161 6.78419 0
M  V30 7065 H 646.428 -1.88336 6.28383 0
M  V30 7066 H 646.345 -0.680959 7.52927 0
M  V30 7067 H 647.613 -1.86952 7.56749 0
M  V30 7068 N 651.842 -1.52309 0.404946 0
M  V30 7069 C 652.752 -2.30634 -0.429555 0
M  V30 7070 C 653.768 -1.38187 -1.05737 0
M  V30 7071 O 654.944 -1.71261 -1.05979 0
M  V30 7072 C 652.009 -3.10947 -1.53339 0
M  V30 7073 C 651.07 -4.19126 -0.929065 0
M  V30 7074 C 650.303 -4.95601 -1.9803 0
M  V30 7075 O 650.526 -4.72331 -3.1978 0
M  V30 7076 O 649.46 -5.80551 -1.58886 0
M  V30 7077 H 653.286 -3.0298 0.208963 0
M  V30 7078 H 650.871 -1.4845 0.168255 0
M  V30 7079 H 652.753 -3.60974 -2.1743 0
M  V30 7080 H 651.428 -2.41399 -2.15658 0
M  V30 7081 H 650.335 -3.73257 -0.250982 0
M  V30 7082 H 651.668 -4.90955 -0.349855 0
M  V30 7083 N 653.32 -0.135238 -1.57019 0
M  V30 7084 C 654.252 0.839675 -2.13265 0
M  V30 7085 C 655.265 1.21887 -1.07923 0
M  V30 7086 O 656.454 1.16499 -1.35241 0
M  V30 7087 C 653.554 2.13647 -2.63075 0
M  V30 7088 C 652.727 1.92646 -3.92691 0
M  V30 7089 C 651.786 3.06205 -4.27931 0
M  V30 7090 O 650.812 2.78409 -4.96465 0
M  V30 7091 N 652.014 4.33072 -3.86561 0
M  V30 7092 H 654.779 0.359026 -2.97542 0
M  V30 7093 H 652.34 0.0486979 -1.61827 0
M  V30 7094 H 654.332 2.88641 -2.8367 0
M  V30 7095 H 652.902 2.5301 -1.83588 0
M  V30 7096 H 652.122 1.01754 -3.80841 0
M  V30 7097 H 653.41 1.75939 -4.77413 0
M  V30 7098 H 652.808 4.58526 -3.31316 0
M  V30 7099 H 651.365 5.04885 -4.12231 0
M  V30 7100 N 654.798 1.5699 0.138552 0
M  V30 7101 C 656.044 1.84081 0.85099 0
M  V30 7102 C 656.377 0.718107 1.80435 0
M  V30 7103 O 655.652 -0.277633 1.92508 0
M  V30 7104 C 655.935 3.21699 1.61808 0
M  V30 7105 C 655.788 4.44544 0.685633 0
M  V30 7106 C 657.107 3.5664 2.57868 0
M  V30 7107 H 654.226 0.669592 0.307922 0
M  V30 7108 H 656.868 1.89646 0.11588 0
M  V30 7109 H 655.018 3.17086 2.24474 0
M  V30 7110 H 656.69 4.61248 0.0693179 0
M  V30 7111 H 654.933 4.338 -0.00421993 0
M  V30 7112 H 655.604 5.3746 1.25858 0
M  V30 7113 H 658.08 3.61918 2.05316 0
M  V30 7114 H 656.956 4.53946 3.08584 0
M  V30 7115 H 657.217 2.83036 3.39622 0
M  V30 7116 N 656.276 -0.40816 1.52223 0
M  V30 7117 C 657.223 -1.49737 1.75635 0
M  V30 7118 C 658.193 -1.5493 0.598824 0
M  V30 7119 O 659.378 -1.71487 0.83648 0
M  V30 7120 C 656.518 -2.87174 1.91376 0
M  V30 7121 C 655.631 -2.91283 3.19027 0
M  V30 7122 C 654.766 -4.20026 3.25195 0
M  V30 7123 C 653.805 -4.18113 4.47044 0
M  V30 7124 N 652.942 -5.38429 4.50598 0
M  V30 7125 H 657.782 -1.29075 2.68596 0
M  V30 7126 H 655.319 -0.626518 1.33091 0
M  V30 7127 H 657.277 -3.66959 1.98486 0
M  V30 7128 H 655.907 -3.06329 1.01795 0
M  V30 7129 H 654.959 -2.03984 3.21084 0
M  V30 7130 H 656.271 -2.85734 4.08849 0
M  V30 7131 H 655.425 -5.08204 3.31382 0
M  V30 7132 H 654.164 -4.28271 2.33313 0
M  V30 7133 H 653.169 -3.28325 4.41002 0
M  V30 7134 H 654.394 -4.11507 5.40221 0
M  V30 7135 H 652.34 -5.4734 3.616 0
M  V30 7136 H 652.257 -5.34879 5.34266 0
M  V30 7137 H 653.525 -6.28557 4.61016 0
M  V30 7138 N 657.755 -1.42862 -0.66545 0
M  V30 7139 C 658.688 -1.41509 -1.79026 0
M  V30 7140 C 659.666 -0.278106 -1.60204 0
M  V30 7141 O 660.85 -0.469792 -1.82552 0
M  V30 7142 C 657.977 -1.21494 -3.1616 0
M  V30 7143 C 657.023 -2.38308 -3.53711 0
M  V30 7144 S 657.856 -4.00852 -3.55075 0
M  V30 7145 C 659.012 -3.83197 -4.94885 0
M  V30 7146 H 659.245 -2.36691 -1.79902 0
M  V30 7147 H 656.778 -1.29746 -0.836977 0
M  V30 7148 H 658.736 -1.10633 -3.95311 0
M  V30 7149 H 657.397 -0.27881 -3.1286 0
M  V30 7150 H 656.59 -2.20076 -4.53412 0
M  V30 7151 H 656.192 -2.45732 -2.81943 0
M  V30 7152 H 658.484 -3.44765 -5.83218 0
M  V30 7153 H 659.427 -4.82607 -5.18166 0
M  V30 7154 H 659.835 -3.15884 -4.67843 0
M  V30 7155 N 659.233 0.902656 -1.29189 0
M  V30 7156 C 660.649 1.18296 -1.07137 0
M  V30 7157 C 660.849 2.00701 0.179223 0
M  V30 7158 O 659.905 2.3675 0.877812 0
M  V30 7159 C 661.218 1.90677 -2.32514 0
M  V30 7160 C 662.766 2.03515 -2.37804 0
M  V30 7161 C 663.241 2.79307 -3.62976 0
M  V30 7162 N 664.732 2.86862 -3.63681 0
M  V30 7163 C 665.467 3.46035 -4.57217 0
M  V30 7164 N 664.963 4.06399 -5.61081 0
M  V30 7165 N 666.756 3.43681 -4.44792 0
M  V30 7166 H 658.907 0.352765 -2.0945 0
M  V30 7167 H 661.17 0.21876 -0.922414 0
M  V30 7168 H 660.876 1.3756 -3.23682 0
M  V30 7169 H 660.75 2.91169 -2.39793 0
M  V30 7170 H 663.137 2.55809 -1.47125 0
M  V30 7171 H 663.218 1.02166 -2.34512 0
M  V30 7172 H 662.862 2.2769 -4.54004 0
M  V30 7173 H 662.792 3.80995 -3.63525 0
M  V30 7174 H 665.283 2.43987 -2.88581 0
M  V30 7175 H 665.596 4.49564 -6.2858 0
M  V30 7176 H 663.941 4.0487 -5.64894 0
M  V30 7177 H 667.132 2.9574 -3.62843 0
M  V30 7178 H 667.305 3.89503 -5.17872 0
M  V30 7179 N 660.711 1.11618 1.11262 0
M  V30 7180 C 661.621 0.78898 2.20935 0
M  V30 7181 C 662.637 -0.21867 1.7262 0
M  V30 7182 O 663.813 -0.0543826 2.01327 0
M  V30 7183 C 660.878 0.239014 3.45875 0
M  V30 7184 C 659.939 1.3055 4.08968 0
M  V30 7185 C 659.172 0.781687 5.27944 0
M  V30 7186 O 659.395 -0.387605 5.69082 0
M  V30 7187 O 658.329 1.54734 5.81671 0
M  V30 7188 H 662.155 1.70477 2.51339 0
M  V30 7189 H 659.74 0.892203 1.19834 0
M  V30 7190 H 661.622 -0.0632312 4.21353 0
M  V30 7191 H 660.297 -0.649454 3.17118 0
M  V30 7192 H 659.204 1.66079 3.35214 0
M  V30 7193 H 660.537 2.16743 4.41909 0
M  V30 7194 N 662.189 -1.289 0.906776 0
M  V30 7195 C 663.414 -1.99939 0.551303 0
M  V30 7196 C 663.839 -1.67366 -0.858496 0
M  V30 7197 O 663.197 -0.902176 -1.57259 0
M  V30 7198 C 663.245 -3.52523 0.758937 0
M  V30 7199 O 662.349 -4.11983 -0.185308 0
M  V30 7200 H 661.69 -0.628376 0.214568 0
M  V30 7201 H 664.22 -1.64225 1.2203 0
M  V30 7202 H 664.23 -4.02522 0.666329 0
M  V30 7203 H 662.905 -3.75566 1.78671 0
M  V30 7204 H 661.482 -3.72873 -0.0445577 0
M  V30 7205 N 663.667 -0.670007 -1.42649 0
M  V30 7206 C 665.083 -0.33911 -1.55956 0
M  V30 7207 C 665.283 1.1558 -1.65056 0
M  V30 7208 O 664.339 1.94111 -1.61485 0
M  V30 7209 C 665.652 -1.06522 -2.812 0
M  V30 7210 C 667.2 -1.04708 -2.94966 0
M  V30 7211 C 667.675 -1.75442 -4.23065 0
M  V30 7212 N 669.166 -1.72286 -4.29967 0
M  V30 7213 C 669.901 -2.23877 -5.27889 0
M  V30 7214 N 669.397 -2.83829 -6.31991 0
M  V30 7215 N 671.19 -2.14279 -5.19654 0
M  V30 7216 H 663.341 -1.6399 -1.34986 0
M  V30 7217 H 665.604 -0.690603 -0.649439 0
M  V30 7218 H 665.31 -2.12033 -2.80597 0
M  V30 7219 H 665.184 -0.627398 -3.71946 0
M  V30 7220 H 667.571 -0.000315966 -2.951 0
M  V30 7221 H 667.652 -1.52374 -2.05465 0
M  V30 7222 H 667.296 -2.80084 -4.23693 0
M  V30 7223 H 667.226 -1.25229 -5.11493 0
M  V30 7224 H 669.717 -1.28554 -3.55362 0
M  V30 7225 H 670.03 -3.20827 -7.03057 0
M  V30 7226 H 668.375 -2.87896 -6.32567 0
M  V30 7227 H 671.566 -1.67135 -4.37245 0
M  V30 7228 H 671.739 -2.54792 -5.95806 0
M  V30 7229 N 665.145 1.52092 -0.413018 0
M  V30 7230 C 666.391 2.02815 0.154104 0
M  V30 7231 C 666.746 1.293 1.42475 0
M  V30 7232 O 666.039 0.391835 1.87551 0
M  V30 7233 C 666.233 3.54529 0.4521 0
M  V30 7234 C 666.062 4.4274 -0.788116 0
M  V30 7235 C 664.832 4.87903 -1.31447 0
M  V30 7236 C 667.03 4.86522 -1.66735 0
M  V30 7237 N 665.012 5.60254 -2.50976 0
M  V30 7238 C 666.383 5.57692 -2.70886 0
M  V30 7239 C 668.438 4.68534 -1.68465 0
M  V30 7240 C 667.141 6.12783 -3.76682 0
M  V30 7241 C 669.167 5.24524 -2.73182 0
M  V30 7242 C 668.529 5.9562 -3.76054 0
M  V30 7243 H 664.628 0.781796 0.0178567 0
M  V30 7244 H 667.212 1.86223 -0.568237 0
M  V30 7245 H 665.383 3.71186 1.14348 0
M  V30 7246 H 667.115 3.91934 1.00844 0
M  V30 7247 H 663.87 4.65504 -0.871931 0
M  V30 7248 H 664.294 6.01069 -3.11521 0
M  V30 7249 H 668.936 4.13051 -0.902708 0
M  V30 7250 H 666.654 6.67335 -4.55729 0
M  V30 7251 H 670.24 5.12473 -2.75433 0
M  V30 7252 H 669.12 6.38169 -4.55752 0
M  V30 7253 N 666.623 0.143563 1.56945 0
M  V30 7254 C 667.533 -0.810562 2.20152 0
M  V30 7255 C 668.549 -1.27431 1.1848 0
M  V30 7256 O 669.725 -1.33221 1.51044 0
M  V30 7257 C 666.79 -2.03353 2.80799 0
M  V30 7258 C 665.851 -1.61936 3.97587 0
M  V30 7259 C 665.084 -2.78403 4.55332 0
M  V30 7260 O 665.307 -3.94521 4.11958 0
M  V30 7261 O 664.241 -2.54073 5.45647 0
M  V30 7262 H 668.067 -0.30253 3.02189 0
M  V30 7263 H 665.652 -0.0832925 1.49168 0
M  V30 7264 H 667.534 -2.74932 3.19359 0
M  V30 7265 H 666.209 -2.53116 2.01777 0
M  V30 7266 H 665.116 -0.873904 3.6375 0
M  V30 7267 H 666.449 -1.16892 4.78118 0
M  V30 7268 N 668.101 -1.57061 -0.130224 0
M  V30 7269 C 669.064 -1.98593 -1.14426 0
M  V30 7270 C 670.064 -0.874584 -1.34936 0
M  V30 7271 O 671.254 -1.14086 -1.31643 0
M  V30 7272 C 668.386 -2.31639 -2.50112 0
M  V30 7273 H 669.579 -2.89374 -0.787561 0
M  V30 7274 H 667.132 -1.51756 -0.374146 0
M  V30 7275 H 667.867 -1.43703 -2.90723 0
M  V30 7276 H 667.652 -3.12684 -2.36583 0
M  V30 7277 H 669.142 -2.64551 -3.23114 0
M  V30 7278 N 669.579 0.400081 -1.52437 0
M  V30 7279 C 670.856 1.15973 -1.57511 0
M  V30 7280 C 671.236 2.0798 -0.361572 0
M  V30 7281 O 670.584 2.19032 0.650929 0
M  V30 7282 C 670.794 1.92912 -2.90837 0
M  V30 7283 C 672.142 2.48662 -3.44169 0
M  V30 7284 O 673.166 2.03081 -2.92637 0
M  V30 7285 O 672.025 3.31894 -4.34176 0
M  V30 7286 H 669.119 0.530023 -0.634827 0
M  V30 7287 H 671.665 0.40613 -1.64769 0
M  V30 7288 H 670.437 1.25564 -3.70607 0
M  V30 7289 H 670.06 2.75257 -2.86913 0
M  V30 7290 N 671.057 1.43213 0.657864 0
M  V30 7291 C 672.285 1.48015 1.44566 0
M  V30 7292 C 672.7 0.0965951 1.88553 0
M  V30 7293 O 672.057 -0.892221 1.59203 0
M  V30 7294 C 672.108 2.42199 2.68369 0
M  V30 7295 O 671.829 3.75173 2.26223 0
M  V30 7296 C 673.33 2.56195 3.61772 0
M  V30 7297 H 670.55 0.502861 0.444266 0
M  V30 7298 H 673.094 1.87907 0.806917 0
M  V30 7299 H 671.249 2.05514 3.28394 0
M  V30 7300 H 671.663 4.25776 3.06293 0
M  V30 7301 H 673.137 3.26182 4.4532 0
M  V30 7302 H 673.614 1.60534 4.0881 0
M  V30 7303 H 674.22 2.93671 3.07632 0
M  V30 7304 N 672.536 -0.895792 1.29666 0
M  V30 7305 C 673.466 -2.01673 1.17688 0
M  V30 7306 C 674.447 -1.69955 0.0701317 0
M  V30 7307 O 675.632 -1.9258 0.250289 0
M  V30 7308 C 672.762 -3.36568 0.856681 0
M  V30 7309 C 671.716 -3.82509 1.92017 0
M  V30 7310 C 671.042 -5.14574 1.4532 0
M  V30 7311 C 672.342 -4.02409 3.32963 0
M  V30 7312 H 674.036 -2.11953 2.11463 0
M  V30 7313 H 671.582 -1.01839 1.01807 0
M  V30 7314 H 673.535 -4.14498 0.759577 0
M  V30 7315 H 672.259 -3.26391 -0.116763 0
M  V30 7316 H 670.918 -3.068 2.00673 0
M  V30 7317 H 670.566 -5.00815 0.468325 0
M  V30 7318 H 670.266 -5.46283 2.16447 0
M  V30 7319 H 671.79 -5.9504 1.36968 0
M  V30 7320 H 673.204 -4.70808 3.27127 0
M  V30 7321 H 671.601 -4.45478 4.02082 0
M  V30 7322 H 672.671 -3.06616 3.75652 0
M  V30 7323 N 674.014 -1.12206 -1.10668 0
M  V30 7324 C 675.291 -0.787382 -1.79052 0
M  V30 7325 C 675.671 0.723267 -1.98323 0
M  V30 7326 O 675.019 1.6561 -1.57434 0
M  V30 7327 C 675.229 -1.55968 -3.1221 0
M  V30 7328 C 676.577 -1.74413 -3.87125 0
M  V30 7329 O 677.601 -1.5246 -3.21923 0
M  V30 7330 O 676.46 -2.10952 -5.04144 0
M  V30 7331 H 673.554 -0.286137 -0.775922 0
M  V30 7332 H 676.1 -1.22595 -1.1734 0
M  V30 7333 H 674.872 -2.58692 -2.93588 0
M  V30 7334 H 674.495 -1.1152 -3.8164 0
M  V30 7335 N 675.492 1.28418 -0.913599 0
M  V30 7336 C 676.439 2.27301 -0.400373 0
M  V30 7337 C 677.409 1.57582 0.52509 0
M  V30 7338 O 678.594 1.85482 0.447318 0
M  V30 7339 C 675.734 3.43284 0.35361 0
M  V30 7340 C 674.847 4.27752 -0.604341 0
M  V30 7341 C 673.982 5.30934 0.168075 0
M  V30 7342 C 673.021 6.07065 -0.783499 0
M  V30 7343 N 672.158 7.02086 -0.0446112 0
M  V30 7344 H 676.998 2.70579 -1.24865 0
M  V30 7345 H 674.535 1.33067 -0.627028 0
M  V30 7346 H 676.493 4.09322 0.806945 0
M  V30 7347 H 675.123 3.00997 1.16623 0
M  V30 7348 H 674.175 3.61759 -1.17621 0
M  V30 7349 H 675.487 4.80682 -1.33216 0
M  V30 7350 H 674.641 6.02855 0.681979 0
M  V30 7351 H 673.38 4.78771 0.928947 0
M  V30 7352 H 672.385 5.33995 -1.30878 0
M  V30 7353 H 673.61 6.61317 -1.54392 0
M  V30 7354 H 671.556 6.52273 0.698272 0
M  V30 7355 H 671.473 7.52637 -0.712258 0
M  V30 7356 H 672.741 7.78205 0.449102 0
M  V30 7357 N 676.97 0.677563 1.42291 0
M  V30 7358 C 677.88 0.000962654 2.346 0
M  V30 7359 C 678.896 -0.785833 1.55244 0
M  V30 7360 O 680.072 -0.727523 1.87801 0
M  V30 7361 C 677.137 -0.936746 3.33805 0
M  V30 7362 C 676.198 -0.144173 4.29058 0
M  V30 7363 C 675.431 -1.03722 5.23524 0
M  V30 7364 O 675.654 -2.27675 5.22992 0
M  V30 7365 O 674.588 -0.496542 5.99848 0
M  V30 7366 H 678.414 0.761397 2.94001 0
M  V30 7367 H 675.999 0.43781 1.42841 0
M  V30 7368 H 677.881 -1.47497 3.94744 0
M  V30 7369 H 676.556 -1.67698 2.76874 0
M  V30 7370 H 675.463 0.438224 3.71524 0
M  V30 7371 H 676.796 0.55701 4.89038 0
M  V30 7372 N 678.448 -1.51871 0.421078 0
M  V30 7373 C 679.696 -2.01539 -0.150492 0
M  V30 7374 C 680.017 -1.30803 -1.44623 0
M  V30 7375 O 679.287 -0.437568 -1.90951 0
M  V30 7376 H 677.867 -0.744698 -0.0586041 0
M  V30 7377 H 680.529 -1.8668 0.560059 0
M  V30 7378 H 679.625 -3.10264 -0.338068 0
M  V30 7379 N 679.926 -0.151884 -1.56866 0
M  V30 7380 C 680.856 0.781943 -2.20018 0
M  V30 7381 C 681.837 1.25347 -1.14987 0
M  V30 7382 O 683.022 1.31015 -1.43348 0
M  V30 7383 C 680.152 2.01928 -2.82564 0
M  V30 7384 C 679.106 1.68434 -3.93464 0
M  V30 7385 C 678.432 2.99472 -4.42968 0
M  V30 7386 C 679.732 0.927244 -5.14003 0
M  V30 7387 H 681.426 0.255607 -2.98307 0
M  V30 7388 H 678.972 0.121502 -1.43486 0
M  V30 7389 H 680.925 2.67741 -3.25411 0
M  V30 7390 H 679.649 2.56943 -2.01614 0
M  V30 7391 H 678.308 1.04998 -3.51242 0
M  V30 7392 H 677.956 3.52488 -3.58834 0
M  V30 7393 H 677.656 2.77823 -5.17772 0
M  V30 7394 H 679.18 3.66348 -4.88489 0
M  V30 7395 H 680.594 1.48756 -5.53665 0
M  V30 7396 H 678.991 0.810513 -5.94601 0
M  V30 7397 H 680.061 -0.0801163 -4.84834 0
M  V30 7398 N 681.404 1.57128 0.121893 0
M  V30 7399 C 682.629 1.89254 0.848385 0
M  V30 7400 C 683.054 0.743527 1.72781 0
M  V30 7401 O 682.412 -0.306056 1.78698 0
M  V30 7402 C 682.46 3.20113 1.66012 0
M  V30 7403 O 681.564 3.05815 2.76679 0
M  V30 7404 H 680.905 0.621103 0.234793 0
M  V30 7405 H 683.435 2.0433 0.10516 0
M  V30 7406 H 683.445 3.52761 2.04996 0
M  V30 7407 H 682.12 4.03336 1.01452 0
M  V30 7408 H 680.697 2.84627 2.40918 0
M  V30 7409 N 682.882 -0.391992 1.52647 0
M  V30 7410 C 683.792 -1.503 1.80131 0
M  V30 7411 C 684.808 -1.59825 0.687882 0
M  V30 7412 O 685.984 -1.76218 0.975149 0
M  V30 7413 C 683.049 -2.85863 1.96171 0
M  V30 7414 C 682.11 -2.86084 3.20085 0
M  V30 7415 C 681.343 -4.15181 3.35351 0
M  V30 7416 O 681.566 -5.09981 2.55491 0
M  V30 7417 O 680.5 -4.22603 4.28591 0
M  V30 7418 H 684.326 -1.30007 2.74466 0
M  V30 7419 H 681.911 -0.579539 1.37701 0
M  V30 7420 H 683.793 -3.66236 2.08445 0
M  V30 7421 H 682.468 -3.06189 1.05025 0
M  V30 7422 H 681.375 -2.04504 3.13256 0
M  V30 7423 H 682.708 -2.7071 4.11068 0
M  V30 7424 N 684.36 -1.4356 -0.65026 0
M  V30 7425 C 685.585 -1.48995 -1.44275 0
M  V30 7426 C 686.01 -0.109954 -1.87778 0
M  V30 7427 O 685.368 0.896926 -1.57559 0
M  V30 7428 C 685.416 -2.44341 -2.65198 0
M  V30 7429 O 684.52 -1.93172 -3.6436 0
M  V30 7430 H 683.861 -0.503852 -0.432469 0
M  V30 7431 H 686.391 -1.88504 -0.795446 0
M  V30 7432 H 686.401 -2.61743 -3.12977 0
M  V30 7433 H 685.076 -3.44588 -2.32877 0
M  V30 7434 H 683.653 -1.85445 -3.23519 0
M  V30 7435 N 685.838 0.888903 -1.30139 0
M  V30 7436 C 687.084 1.6428 -1.18912 0
M  V30 7437 C 687.417 1.92499 0.256477 0
M  V30 7438 O 686.692 1.54312 1.18397 0
M  V30 7439 C 686.975 2.9851 -2.01405 0
M  V30 7440 C 686.828 2.77288 -3.54163 0
M  V30 7441 C 688.147 3.99383 -1.84882 0
M  V30 7442 H 685.266 0.596148 -0.433333 0
M  V30 7443 H 687.908 1.0289 -1.5973 0
M  V30 7444 H 686.058 3.50907 -1.66722 0
M  V30 7445 H 687.73 2.31709 -3.98884 0
M  V30 7446 H 685.973 2.11867 -3.78543 0
M  V30 7447 H 686.644 3.72717 -4.07168 0
M  V30 7448 H 689.12 3.56132 -2.15196 0
M  V30 7449 H 687.996 4.91222 -2.44934 0
M  V30 7450 H 688.257 4.34674 -0.806902 0
M  V30 7451 N 687.317 1.12792 1.10072 0
M  V30 7452 C 688.733 0.864745 1.34143 0
M  V30 7453 C 688.933 -0.503201 1.95116 0
M  V30 7454 O 687.989 -1.25111 2.19325 0
M  V30 7455 C 689.302 1.98413 2.25949 0
M  V30 7456 C 690.85 2.01545 2.39476 0
M  V30 7457 C 691.325 3.12727 3.34613 0
M  V30 7458 N 692.816 3.12194 3.42183 0
M  V30 7459 C 693.551 3.94862 4.15779 0
M  V30 7460 N 693.047 4.87528 4.92228 0
M  V30 7461 N 694.84 3.82985 4.11435 0
M  V30 7462 H 686.991 2.00926 0.68866 0
M  V30 7463 H 689.254 0.874564 0.365844 0
M  V30 7464 H 688.96 2.97005 1.88364 0
M  V30 7465 H 688.834 1.89254 3.26287 0
M  V30 7466 H 691.221 1.0357 2.76328 0
M  V30 7467 H 691.302 2.14777 1.3894 0
M  V30 7468 H 690.946 4.10936 2.98486 0
M  V30 7469 H 690.876 2.96732 4.35037 0
M  V30 7470 H 693.367 2.45065 2.87666 0
M  V30 7471 H 693.68 5.47109 5.45794 0
M  V30 7472 H 692.025 4.91539 4.9134 0
M  V30 7473 H 695.216 3.09923 3.50807 0
M  V30 7474 H 695.389 4.47641 4.68531 0
M  V30 7475 N 688.795 -1.27931 0.920396 0
M  V30 7476 C 690.02 -1.99343 0.572478 0
M  V30 7477 C 690.445 -1.68267 -0.840696 0
M  V30 7478 O 689.803 -0.918805 -1.56294 0
M  V30 7479 C 689.851 -3.51698 0.796284 0
M  V30 7480 O 688.955 -4.12157 -0.141602 0
M  V30 7481 H 688.296 -0.626065 0.221221 0
M  V30 7482 H 690.826 -1.62921 1.23765 0
M  V30 7483 H 690.836 -4.01793 0.708984 0
M  V30 7484 H 689.511 -3.73649 1.82644 0
M  V30 7485 H 688.088 -3.729 -0.005007 0
M  V30 7486 N 690.273 -0.685099 -1.4193 0
M  V30 7487 C 691.498 -0.218842 -2.06242 0
M  V30 7488 C 691.923 1.11923 -1.51178 0
M  V30 7489 O 691.281 1.69837 -0.634446 0
M  V30 7490 C 691.329 -0.175592 -3.60172 0
M  V30 7491 O 690.433 0.852776 -4.03487 0
M  V30 7492 H 689.774 -0.109531 -0.654904 0
M  V30 7493 H 692.304 -0.937013 -1.81882 0
M  V30 7494 H 692.314 -0.00291151 -4.08 0
M  V30 7495 H 690.989 -1.15222 -3.99621 0
M  V30 7496 H 689.566 0.650301 -3.67186 0
M  V30 7497 N 691.751 1.51645 -0.429126 0
M  V30 7498 C 692.991 2.03924 0.139354 0
M  V30 7499 C 693.355 1.30673 1.40672 0
M  V30 7500 O 694.556 1.73282 2.05491 0
M  V30 7501 C 692.827 3.5557 0.361179 0
M  V30 7502 S 694.386 4.29591 0.894241 0
M  V30 7503 H 691.204 0.710103 0.0356986 0
M  V30 7504 H 693.806 1.86491 -0.586644 0
M  V30 7505 H 692.51 4.06455 -0.567686 0
M  V30 7506 H 692.041 3.77283 1.11449 0
M  V30 7507 H 694.056 4.46102 2.17272 0
M  V30 7508 N 693.229 0.160201 1.56784 0
M  V30 7509 C 694.457 -0.494165 2.00912 0
M  V30 7510 C 694.872 -1.57548 1.04038 0
M  V30 7511 O 694.229 -1.82457 0.0394581 0
M  V30 7512 C 694.28 -1.08271 3.44905 0
M  V30 7513 O 694.001 -0.0445704 4.38077 0
M  V30 7514 C 695.502 -1.8164 4.04378 0
M  V30 7515 H 692.722 -0.127498 0.658776 0
M  V30 7516 H 695.266 0.258665 2.02858 0
M  V30 7517 H 693.421 -1.78609 3.4377 0
M  V30 7518 H 693.835 -0.477544 5.22322 0
M  V30 7519 H 695.309 -2.18094 5.07089 0
M  V30 7520 H 695.786 -2.70727 3.45838 0
M  V30 7521 H 696.392 -1.15969 4.09184 0
M  V30 7522 N 694.707 -1.5719 -0.113559 0
M  V30 7523 C 695.637 -2.03772 -1.14013 0
M  V30 7524 C 696.618 -0.923176 -1.42869 0
M  V30 7525 O 697.803 -1.19325 -1.53216 0
M  V30 7526 C 694.933 -2.44663 -2.4649 0
M  V30 7527 C 693.887 -3.59612 -2.32085 0
M  V30 7528 C 693.213 -3.8642 -3.69573 0
M  V30 7529 C 694.513 -4.91149 -1.7768 0
M  V30 7530 H 696.207 -2.89785 -0.752665 0
M  V30 7531 H 693.753 -1.39412 -0.360609 0
M  V30 7532 H 695.706 -2.75857 -3.18561 0
M  V30 7533 H 694.43 -1.55628 -2.87137 0
M  V30 7534 H 693.089 -3.28636 -1.62461 0
M  V30 7535 H 692.737 -2.94581 -4.07715 0
M  V30 7536 H 692.437 -4.63797 -3.60786 0
M  V30 7537 H 693.961 -4.2007 -4.4314 0
M  V30 7538 H 695.375 -5.20843 -2.39574 0
M  V30 7539 H 693.772 -5.72562 -1.79701 0
M  V30 7540 H 694.842 -4.79301 -0.734776 0
M  V30 7541 N 696.185 0.383891 -1.52853 0
M  V30 7542 C 697.117 1.48889 -1.74255 0
M  V30 7543 C 698.13 1.50405 -0.623063 0
M  V30 7544 O 699.319 1.54215 -0.898887 0
M  V30 7545 C 696.419 2.87721 -1.79081 0
M  V30 7546 C 695.592 3.10111 -3.08464 0
M  V30 7547 C 694.651 4.28954 -3.0477 0
M  V30 7548 O 693.677 4.25012 -3.78621 0
M  V30 7549 N 694.879 5.35411 -2.24311 0
M  V30 7550 H 697.644 1.30915 -2.69595 0
M  V30 7551 H 695.205 0.573454 -1.51404 0
M  V30 7552 H 697.197 3.65333 -1.7411 0
M  V30 7553 H 695.767 2.99029 -0.911052 0
M  V30 7554 H 694.987 2.20319 -3.26884 0
M  V30 7555 H 696.275 3.21928 -3.94005 0
M  V30 7556 H 695.673 5.41471 -1.63787 0
M  V30 7557 H 694.23 6.1167 -2.25175 0
M  V30 7558 O 697.702 1.52561 0.529841 0
M  V30 7559 H 698.393 1.53227 1.18495 0
M  V30 END ATOM
M  V30 BEGIN BOND
M  V30 END BOND
M  V30 END CTAB
M  END
$$$$
