drugbank_target|P15382 Potassium voltage-gated channel subfamily E member 1 (DB00228; DB01069; DB01110)
 OpenBabel12092119333D

  0  0  0     0  0            999 V3000
M  V30 BEGIN CTAB
M  V30 COUNTS 2060 2085 0 0 0
M  V30 BEGIN ATOM
M  V30 1 H -0.908 1.98254 -0.117106 0
M  V30 2 N 0 1.576 0 0
M  V30 3 C 0.933 2.03868 1.02534 0
M  V30 4 C 1.911 0.928543 1.3348 0
M  V30 5 O 3.095 1.19667 1.45644 0
M  V30 6 C 0.222 2.43627 2.35294 0
M  V30 7 C -0.732 3.65373 2.2001 0
M  V30 8 S 0.101 5.13292 1.52614 0
M  V30 9 C 1.257 5.56322 2.86805 0
M  V30 10 H 1.49 2.90518 0.631377 0
M  V30 11 H -0.977 1.52953 0.210867 0
M  V30 12 H 0.981 2.67203 3.11629 0
M  V30 13 H -0.358 1.57376 2.7183 0
M  V30 14 H -1.165 3.90944 3.18086 0
M  V30 15 H -1.563 3.418 1.51819 0
M  V30 16 H 0.729 5.58782 3.83104 0
M  V30 17 H 1.672 6.56266 2.65933 0
M  V30 18 H 2.08 4.83886 2.90714 0
M  V30 19 N 1.4781 -0.272755 1.55222 0
M  V30 20 C 2.7271 -1.00211 1.75045 0
M  V30 21 C 3.0401 -1.87441 0.559046 0
M  V30 22 O 4.2461 -2.63856 0.639698 0
M  V30 23 C 2.7021 -1.83165 3.09804 0
M  V30 24 C 2.3101 -1.008 4.36513 0
M  V30 25 C 4.0541 -2.55529 3.38977 0
M  V30 26 C 1.9611 -1.83194 5.62311 0
M  V30 27 H 0.8911 -0.377878 0.652476 0
M  V30 28 H 3.5421 -0.257776 1.8168 0
M  V30 29 H 1.9241 -2.61694 2.97207 0
M  V30 30 H 3.0981 -0.266855 4.60027 0
M  V30 31 H 1.4131 -0.398897 4.14485 0
M  V30 32 H 4.0101 -3.17578 4.30172 0
M  V30 33 H 4.3531 -3.25825 2.59121 0
M  V30 34 H 4.8861 -1.84029 3.52673 0
M  V30 35 H 1.6251 -1.17318 6.44916 0
M  V30 36 H 1.1451 -2.54905 5.4294 0
M  V30 37 H 2.8241 -2.40552 6.00619 0
M  V30 38 N 2.9562 -1.48159 -0.537278 0
M  V30 39 C 3.8862 -1.65029 -1.6519 0
M  V30 40 C 4.8672 -0.499281 -1.62607 0
M  V30 41 O 6.0522 -0.730972 -1.79918 0
M  V30 42 C 3.1822 -1.68303 -3.03795 0
M  V30 43 C 2.1362 -2.8283 -3.21234 0
M  V30 44 C 1.4622 -2.71189 -4.60826 0
M  V30 45 C 2.7622 -4.24211 -3.04701 0
M  V30 46 H 4.4562 -2.58341 -1.51328 0
M  V30 47 H 2.0022 -1.24325 -0.726585 0
M  V30 48 H 3.9552 -1.78693 -3.81637 0
M  V30 49 H 2.6792 -0.715635 -3.18663 0
M  V30 50 H 1.3382 -2.71983 -2.45807 0
M  V30 51 H 0.9862 -1.72435 -4.7252 0
M  V30 52 H 0.6862 -3.48035 -4.7344 0
M  V30 53 H 2.2102 -2.83537 -5.40777 0
M  V30 54 H 3.6242 -4.3593 -3.72341 0
M  V30 55 H 2.0212 -5.01998 -3.28813 0
M  V30 56 H 3.0912 -4.41184 -2.01209 0
M  V30 57 N 4.4343 0.785586 -1.36625 0
M  V30 58 C 5.6593 1.57963 -1.34397 0
M  V30 59 C 6.0843 1.87964 0.071526 0
M  V30 60 O 5.4423 1.48182 1.0446 0
M  V30 61 C 5.4903 2.87511 -2.17646 0
M  V30 62 O 4.5943 3.81281 -1.57158 0
M  V30 63 H 3.9353 0.479014 -0.459828 0
M  V30 64 H 6.4653 0.973411 -1.79961 0
M  V30 65 H 6.4753 3.36745 -2.30362 0
M  V30 66 H 5.1503 2.65002 -3.20541 0
M  V30 67 H 3.7273 3.39885 -1.53403 0
M  V30 68 N 5.9124 1.20967 1.01018 0
M  V30 69 C 6.8604 0.961223 2.1181 0
M  V30 70 C 7.8544 -0.0897034 1.69162 0
M  V30 71 O 9.0604 0.0612271 1.79896 0
M  V30 72 H 5.4354 0.29355 0.692338 0
M  V30 73 H 7.4064 1.90178 2.29946 0
M  V30 74 C 6.1554 0.536854 3.4353 0
M  V30 75 H 5.4784 1.33713 3.76777 0
M  V30 76 H 6.9184 0.402286 4.22087 0
M  V30 77 C 5.3774 -0.751574 3.2841 0
M  V30 78 O 5.9074 -1.80841 3.58691 0
M  V30 79 N 4.1134 -0.716079 2.81639 0
M  V30 80 H 3.6604 0.144236 2.57196 0
M  V30 81 H 3.6184 -1.57847 2.71904 0
M  V30 82 N 7.3905 -1.2043 1.01659 0
M  V30 83 C 8.6185 -1.93777 0.725132 0
M  V30 84 C 9.0335 -1.74772 -0.714166 0
M  V30 85 O 8.3905 -1.06169 -1.4844 0
M  V30 86 C 8.4415 -3.45876 1.05129 0
M  V30 87 O 8.1625 -3.6426 2.43406 0
M  V30 88 C 9.6635 -4.36368 0.780891 0
M  V30 89 H 6.8835 -0.615901 0.266284 0
M  V30 90 H 9.4275 -1.52922 1.35776 0
M  V30 91 H 7.5825 -3.8461 0.464065 0
M  V30 92 H 7.9965 -4.58246 2.55169 0
M  V30 93 H 9.4705 -5.41743 1.05918 0
M  V30 94 H 9.9475 -4.38275 -0.284937 0
M  V30 95 H 10.5535 -4.03296 1.35027 0
M  V30 96 N 8.8686 -0.792821 -1.36206 0
M  V30 97 C 10.0966 -0.378825 -2.03402 0
M  V30 98 C 10.5116 1.00586 -1.59774 0
M  V30 99 O 9.8686 1.64574 -0.788764 0
M  V30 100 C 9.9196 -0.43683 -3.58851 0
M  V30 101 O 9.6406 -1.76691 -4.00889 0
M  V30 102 C 11.1416 -0.0138943 -4.43298 0
M  V30 103 H 8.3616 -0.155673 -0.652692 0
M  V30 104 H 10.9056 -1.07261 -1.74113 0
M  V30 105 H 9.0606 0.208575 -3.86838 0
M  V30 106 H 9.4746 -1.72011 -4.95492 0
M  V30 107 H 10.9486 -0.105615 -5.51899 0
M  V30 108 H 11.4256 1.03915 -4.2673 0
M  V30 109 H 12.0316 -0.63192 -4.20579 0
M  V30 110 N 10.3467 1.47872 -0.545128 0
M  V30 111 C 11.3097 2.28337 0.198717 0
M  V30 112 C 12.3097 1.36255 0.853888 0
M  V30 113 O 13.4997 1.59003 0.711606 0
M  V30 114 C 10.6317 3.15585 1.28915 0
M  V30 115 H 11.8247 2.95567 -0.507941 0
M  V30 116 H 9.3777 1.53362 -0.301616 0
M  V30 117 H 10.1127 2.53019 2.02859 0
M  V30 118 H 9.8977 3.83337 0.824309 0
M  V30 119 H 11.3877 3.76243 1.81194 0
M  V30 120 N 11.8248 0.280983 1.55075 0
M  V30 121 C 13.0708 -0.33461 2.00021 0
M  V30 122 C 13.4038 -1.55063 1.16915 0
M  V30 123 O 12.6788 -1.93006 0.240646 0
M  V30 124 C 12.9618 -0.711007 3.53011 0
M  V30 125 C 12.8148 0.512766 4.46868 0
M  V30 126 C 14.1338 -1.54522 4.12081 0
M  V30 127 H 11.2528 -0.120147 0.727141 0
M  V30 128 H 13.8948 0.389097 1.85973 0
M  V30 129 H 12.0448 -1.32761 3.65112 0
M  V30 130 H 13.7168 1.15131 4.46702 0
M  V30 131 H 11.9598 1.14975 4.18286 0
M  V30 132 H 12.6308 0.205556 5.51617 0
M  V30 133 H 15.1068 -1.02442 4.03293 0
M  V30 134 H 13.9828 -1.77739 5.19327 0
M  V30 135 H 14.2438 -2.52813 3.62682 0
M  V30 136 N 13.3029 -1.57598 0.00835791 0
M  V30 137 C 14.5309 -1.95214 -0.68549 0
M  V30 138 C 14.9459 -0.883706 -1.66841 0
M  V30 139 O 14.3029 0.136565 -1.81988 0
M  V30 140 C 14.3539 -3.32865 -1.41007 0
M  V30 141 O 14.0749 -4.35609 -0.466552 0
M  V30 142 C 15.5759 -3.84991 -2.19765 0
M  V30 143 H 12.7959 -0.643422 -0.190392 0
M  V30 144 H 15.3399 -2.04406 0.0619607 0
M  V30 145 H 13.4949 -3.24956 -2.10908 0
M  V30 146 H 13.9089 -5.15288 -0.978699 0
M  V30 147 H 15.3829 -4.8371 -2.65948 0
M  V30 148 H 15.8599 -3.18137 -3.02796 0
M  V30 149 H 16.4659 -3.96103 -1.54864 0
M  V30 150 N 14.781 0.264519 -1.55364 0
M  V30 151 C 16.192 0.834936 -1.6699 0
M  V30 152 C 16.543 1.86718 -0.602552 0
M  V30 153 O 15.668 2.14899 0.254425 0
M  V30 154 C 16.263 1.5212 -3.02729 0
M  V30 155 C 14.822 2.03954 -3.16354 0
M  V30 156 C 13.969 0.884498 -2.62815 0
M  V30 157 H 16.92 0.0406869 -1.58648 0
M  V30 158 H 16.941 2.38853 -2.96191 0
M  V30 159 H 16.453 0.769668 -3.80392 0
M  V30 160 H 14.554 2.82041 -2.43482 0
M  V30 161 H 14.667 2.24902 -4.23032 0
M  V30 162 H 13.031 1.2802 -2.20188 0
M  V30 163 H 13.814 0.14634 -3.42988 0
M  V30 164 N 16.2591 1.48442 0.529413 0
M  V30 165 C 17.5061 1.56488 1.28521 0
M  V30 166 C 17.8341 0.239042 1.93025 0
M  V30 167 O 17.0891 -0.770713 1.79885 0
M  V30 168 C 17.3881 2.6523 2.39558 0
M  V30 169 C 17.0541 4.07648 1.92702 0
M  V30 170 C 15.7161 4.46411 1.79641 0
M  V30 171 C 18.0681 4.96896 1.573 0
M  V30 172 C 15.3961 5.72226 1.29514 0
M  V30 173 C 17.7481 6.23202 1.08636 0
M  V30 174 C 16.4121 6.60821 0.941919 0
M  V30 175 H 15.6821 0.572631 0.470292 0
M  V30 176 H 18.3291 1.82161 0.59072 0
M  V30 177 H 16.6341 2.33419 3.14679 0
M  V30 178 H 18.3311 2.68671 2.97686 0
M  V30 179 H 14.9211 3.77036 2.03819 0
M  V30 180 H 19.1051 4.67626 1.66251 0
M  V30 181 H 14.3611 6.00097 1.17019 0
M  V30 182 H 18.5351 6.91753 0.803136 0
M  V30 183 H 16.1621 7.58198 0.5513 0
M  V30 184 N 17.7372 -0.778329 1.37039 0
M  V30 185 C 18.6672 -1.90546 1.34962 0
M  V30 186 C 19.6482 -1.68681 0.219274 0
M  V30 187 O 20.8332 -1.89634 0.418624 0
M  V30 188 C 17.9632 -3.27734 1.14925 0
M  V30 189 C 16.9172 -3.64147 2.24902 0
M  V30 190 C 16.2432 -4.99806 1.89996 0
M  V30 191 C 17.5432 -3.71579 3.67051 0
M  V30 192 H 19.2372 -1.92541 2.29277 0
M  V30 193 H 16.7832 -0.924948 1.10366 0
M  V30 194 H 18.7362 -4.06215 1.12104 0
M  V30 195 H 17.4602 -3.26154 0.170631 0
M  V30 196 H 16.1192 -2.8797 2.26868 0
M  V30 197 H 15.7672 -4.94759 0.906796 0
M  V30 198 H 15.4672 -5.25139 2.63634 0
M  V30 199 H 16.9912 -5.80694 1.88749 0
M  V30 200 H 18.4052 -4.40227 3.67251 0
M  V30 201 H 16.8022 -4.08405 4.39688 0
M  V30 202 H 17.8722 -2.72404 4.01154 0
M  V30 203 N 19.2153 -1.21501 -1.00376 0
M  V30 204 C 20.4433 -1.059 -1.77744 0
M  V30 205 C 20.8583 0.391125 -1.84704 0
M  V30 206 O 20.2153 1.27133 -1.30933 0
M  V30 207 C 20.2663 -1.65111 -3.21591 0
M  V30 208 O 19.9873 -3.0445 -3.15027 0
M  V30 209 C 21.4883 -1.54637 -4.15454 0
M  V30 210 H 18.7083 -0.371825 -0.558558 0
M  V30 211 H 21.2523 -1.60865 -1.26264 0
M  V30 212 H 19.4073 -1.14235 -3.70175 0
M  V30 213 H 19.8213 -3.3278 -4.0541 0
M  V30 214 H 21.2953 -2.00808 -5.14179 0
M  V30 215 H 21.7723 -0.501022 -4.36333 0
M  V30 216 H 22.3783 -2.04767 -3.72761 0
M  V30 217 N 20.6934 1.19889 -1.02296 0
M  V30 218 C 21.6404 2.22901 -0.598651 0
M  V30 219 C 22.6104 1.61588 0.384521 0
M  V30 220 O 23.7954 1.88697 0.282522 0
M  V30 221 C 20.9354 3.45063 0.0504476 0
M  V30 222 C 20.0484 4.20783 -0.978053 0
M  V30 223 C 19.1834 5.30356 -0.299338 0
M  V30 224 C 18.2224 5.97826 -1.31416 0
M  V30 225 N 17.3594 6.98975 -0.661667 0
M  V30 226 H 22.1994 2.58554 -1.48169 0
M  V30 227 H 19.7364 1.27039 -0.741584 0
M  V30 228 H 21.6944 4.14831 0.443971 0
M  V30 229 H 20.3244 3.10084 0.897097 0
M  V30 230 H 19.3764 3.50018 -1.48969 0
M  V30 231 H 20.6884 4.67109 -1.74958 0
M  V30 232 H 19.8424 6.06516 0.149347 0
M  V30 233 H 18.5814 4.85084 0.504445 0
M  V30 234 H 17.5864 5.20422 -1.77317 0
M  V30 235 H 18.8114 6.45183 -2.11933 0
M  V30 236 H 16.7574 6.55886 0.122132 0
M  V30 237 H 16.6744 7.43461 -1.37117 0
M  V30 238 H 17.9424 7.7914 -0.236785 0
M  V30 239 N 22.1715 0.800033 1.35784 0
M  V30 240 C 23.1015 0.220184 2.3246 0
M  V30 241 C 24.0825 -0.65073 1.57161 0
M  V30 242 O 25.2675 -0.582359 1.85263 0
M  V30 243 C 22.3975 -0.637353 3.41402 0
M  V30 244 C 21.3515 0.134531 4.27789 0
M  V30 245 C 20.6775 -0.844285 5.27992 0
M  V30 246 C 21.9775 1.32979 5.05088 0
M  V30 247 H 23.6715 1.02787 2.81203 0
M  V30 248 H 21.2175 0.495717 1.35199 0
M  V30 249 H 23.1705 -1.05302 4.08031 0
M  V30 250 H 21.8945 -1.47785 2.91251 0
M  V30 251 H 20.5535 0.531296 3.6273 0
M  V30 252 H 20.2015 -1.68011 4.74111 0
M  V30 253 H 19.9015 -0.332184 5.8666 0
M  V30 254 H 21.4255 -1.2583 5.97494 0
M  V30 255 H 22.8395 0.98934 5.64699 0
M  V30 256 H 21.2365 1.77593 5.7322 0
M  V30 257 H 22.3065 2.11978 4.36111 0
M  V30 258 N 23.6496 -1.47581 0.552962 0
M  V30 259 C 24.8956 -2.03369 0.0355807 0
M  V30 260 C 25.2506 -1.42016 -1.29805 0
M  V30 261 O 24.5436 -0.564917 -1.83083 0
M  V30 262 C 24.7376 -3.57199 -0.119728 0
M  V30 263 C 24.5666 -4.33468 1.1973 0
M  V30 264 C 23.3366 -4.7353 1.76345 0
M  V30 265 C 25.5346 -4.68866 2.11351 0
M  V30 266 N 23.5166 -5.34426 3.02097 0
M  V30 267 C 24.8876 -5.3002 3.21681 0
M  V30 268 C 26.9426 -4.50795 2.11397 0
M  V30 269 C 25.6456 -5.75011 4.32151 0
M  V30 270 C 27.6716 -4.96782 3.20876 0
M  V30 271 C 27.0336 -5.57981 4.29926 0
M  V30 272 H 23.1326 -0.780058 0.0550806 0
M  V30 273 H 25.7166 -1.80117 0.739315 0
M  V30 274 H 23.8876 -3.80227 -0.792579 0
M  V30 275 H 25.6196 -3.99627 -0.638792 0
M  V30 276 H 22.3746 -4.55352 1.30196 0
M  V30 277 H 22.7986 -5.69421 3.66182 0
M  V30 278 H 27.4406 -4.0284 1.28372 0
M  V30 279 H 25.1586 -6.21959 5.15938 0
M  V30 280 H 28.7446 -4.84573 3.21994 0
M  V30 281 H 27.6246 -5.92918 5.13243 0
M  V30 282 N 25.1277 -0.289203 -1.54924 0
M  V30 283 C 26.0597 0.625583 -2.20497 0
M  V30 284 C 27.0727 1.10667 -1.19402 0
M  V30 285 O 28.2617 1.02615 -1.46056 0
M  V30 286 C 25.3617 1.86702 -2.82835 0
M  V30 287 C 24.5347 1.5304 -4.09753 0
M  V30 288 C 23.5937 2.62576 -4.56005 0
M  V30 289 O 22.6197 2.28167 -5.21468 0
M  V30 290 N 23.8217 3.92901 -4.27328 0
M  V30 291 H 26.5867 0.0642801 -2.99631 0
M  V30 292 H 24.1477 -0.110896 -1.6152 0
M  V30 293 H 26.1397 2.59304 -3.10715 0
M  V30 294 H 24.7097 2.33702 -2.07611 0
M  V30 295 H 23.9297 0.637564 -3.8901 0
M  V30 296 H 25.2177 1.28072 -4.92418 0
M  V30 297 H 24.6157 4.23671 -3.74859 0
M  V30 298 H 23.1727 4.61837 -4.59946 0
M  V30 299 N 26.6058 1.57591 -0.0167156 0
M  V30 300 C 27.5158 2.1291 0.98521 0
M  V30 301 C 28.5318 1.07834 1.36557 0
M  V30 302 O 29.7078 1.39826 1.44951 0
M  V30 303 C 26.7728 2.63512 2.25305 0
M  V30 304 C 25.8338 3.83256 1.93426 0
M  V30 305 C 25.0668 4.31435 3.14165 0
M  V30 306 O 25.2898 3.78851 4.26413 0
M  V30 307 O 24.2238 5.23416 2.97186 0
M  V30 308 H 28.0498 2.98772 0.544888 0
M  V30 309 H 25.6348 1.48012 0.203141 0
M  V30 310 H 27.5168 2.96183 2.99756 0
M  V30 311 H 26.1918 1.8074 2.68542 0
M  V30 312 H 25.0988 3.55531 1.16398 0
M  V30 313 H 26.4318 4.67153 1.55013 0
M  V30 314 N 28.0839 -0.256276 1.55502 0
M  V30 315 C 29.3119 -1.00342 1.8094 0
M  V30 316 C 29.7269 -1.79307 0.59114 0
M  V30 317 O 29.0839 -1.77114 -0.440081 0
M  V30 318 C 29.1349 -1.94875 3.04476 0
M  V30 319 O 28.8559 -1.19107 4.21598 0
M  V30 320 C 30.3569 -2.81266 3.42644 0
M  V30 321 H 27.5769 -0.295685 0.602338 0
M  V30 322 H 30.1209 -0.281998 2.02546 0
M  V30 323 H 28.2759 -2.62457 2.84947 0
M  V30 324 H 28.6899 -1.82969 4.91551 0
M  V30 325 H 30.1639 -3.43362 4.32211 0
M  V30 326 H 30.6409 -3.51897 2.62802 0
M  V30 327 H 31.2469 -2.1915 3.64491 0
M  V30 328 N 29.562 -1.4872 -0.521534 0
M  V30 329 C 30.808 -1.574 -1.27879 0
M  V30 330 C 31.141 -0.250817 -1.92573 0
M  V30 331 O 30.416 0.743934 -1.79711 0
M  V30 332 C 30.699 -2.71843 -2.36164 0
M  V30 333 C 30.552 -4.13893 -1.76105 0
M  V30 334 C 31.871 -2.82008 -3.37875 0
M  V30 335 H 28.99 -0.572941 -0.463581 0
M  V30 336 H 31.632 -1.80927 -0.580119 0
M  V30 337 H 29.782 -2.51914 -2.95756 0
M  V30 338 H 31.454 -4.45284 -1.20499 0
M  V30 339 H 29.697 -4.20498 -1.06601 0
M  V30 340 H 30.368 -4.89804 -2.5455 0
M  V30 341 H 32.844 -3.00086 -2.88249 0
M  V30 342 H 31.72 -3.63796 -4.11028 0
M  V30 343 H 31.981 -1.90511 -3.98946 0
M  V30 344 N 31.0401 0.771051 -1.3745 0
M  V30 345 C 31.9721 1.89352 -1.29146 0
M  V30 346 C 32.9851 1.61477 -0.207124 0
M  V30 347 O 34.1741 1.72382 -0.463324 0
M  V30 348 C 31.2741 3.24596 -0.974195 0
M  V30 349 C 30.4471 3.80111 -2.16413 0
M  V30 350 C 29.5061 4.93832 -1.81703 0
M  V30 351 O 28.5321 5.09382 -2.54006 0
M  V30 352 N 29.7341 5.75483 -0.761573 0
M  V30 353 H 32.4991 1.96991 -2.25864 0
M  V30 354 H 30.0601 0.950191 -1.31084 0
M  V30 355 H 32.0521 3.98193 -0.722828 0
M  V30 356 H 30.6221 3.12454 -0.0955527 0
M  V30 357 H 29.8421 2.98284 -2.57721 0
M  V30 358 H 31.1301 4.13932 -2.95867 0
M  V30 359 H 30.5281 5.65469 -0.161609 0
M  V30 360 H 29.0851 6.49302 -0.570064 0
M  V30 361 N 32.5182 1.22032 0.997298 0
M  V30 362 C 33.4502 0.944263 2.08845 0
M  V30 363 C 34.4632 -0.0754663 1.62625 0
M  V30 364 O 35.6522 0.157994 1.77799 0
M  V30 365 C 32.7522 0.397723 3.36558 0
M  V30 366 C 31.9252 1.47362 4.11829 0
M  V30 367 C 30.9842 0.934951 5.17827 0
M  V30 368 O 30.0102 1.62016 5.45655 0
M  V30 369 N 31.2122 -0.245895 5.79979 0
M  V30 370 H 33.9772 1.88363 2.33109 0
M  V30 371 H 31.5382 1.12661 1.16272 0
M  V30 372 H 33.5302 0.0227771 4.04694 0
M  V30 373 H 32.1002 -0.446646 3.09393 0
M  V30 374 H 31.3202 2.02208 3.38386 0
M  V30 375 H 32.6082 2.19764 4.58891 0
M  V30 376 H 32.0062 -0.819475 5.59733 0
M  V30 377 H 30.5632 -0.562272 6.4937 0
M  V30 378 N 33.9963 -1.19345 1.0293 0
M  V30 379 C 35.2443 -1.88665 0.724574 0
M  V30 380 C 35.5653 -1.80036 -0.749144 0
M  V30 381 O 34.8353 -1.2111 -1.53978 0
M  V30 382 H 33.4153 -0.698406 0.265025 0
M  V30 383 H 36.0773 -1.44885 1.30362 0
M  V30 384 H 35.1733 -2.94987 1.01926 0
M  V30 385 N 35.4744 -0.807222 -1.35358 0
M  V30 386 C 36.7224 -0.387122 -1.98358 0
M  V30 387 C 37.0434 1.04942 -1.64354 0
M  V30 388 O 36.3134 1.72615 -0.926339 0
M  V30 389 H 34.8934 -0.140154 -0.733734 0
M  V30 390 H 37.5554 -1.0332 -1.6526 0
M  V30 391 H 36.6514 -0.493352 -3.08176 0
M  V30 392 N 36.9525 1.47285 -0.560781 0
M  V30 393 C 37.9005 2.31756 0.197942 0
M  V30 394 C 38.8945 1.43146 0.905854 0
M  V30 395 O 40.1005 1.59891 0.826733 0
M  V30 396 H 36.4755 0.747438 0.0827049 0
M  V30 397 H 38.4465 2.9359 -0.533629 0
M  V30 398 C 37.1955 3.25874 1.21249 0
M  V30 399 H 36.5185 3.94023 0.67719 0
M  V30 400 H 37.9585 3.87803 1.71419 0
M  V30 401 C 36.4175 2.49651 2.26221 0
M  V30 402 O 36.9475 2.24355 3.33208 0
M  V30 403 N 35.1535 2.10597 2.00243 0
M  V30 404 H 34.7005 2.31369 1.13252 0
M  V30 405 H 34.6585 1.59913 2.70694 0
M  V30 406 N 38.4306 0.297415 1.54768 0
M  V30 407 C 39.3636 -0.622188 2.19554 0
M  V30 408 C 40.3416 -1.13558 1.16376 0
M  V30 409 O 41.5256 -1.20444 1.45002 0
M  V30 410 C 38.6526 -1.8509 2.83653 0
M  V30 411 C 37.6986 -1.47106 4.00328 0
M  V30 412 S 38.5316 -0.53006 5.3287 0
M  V30 413 C 39.6876 -1.76665 6.0045 0
M  V30 414 H 39.9206 -0.0717806 2.97213 0
M  V30 415 H 37.4536 0.0815678 1.54184 0
M  V30 416 H 39.4116 -2.55605 3.21211 0
M  V30 417 H 38.0726 -2.37247 2.05846 0
M  V30 418 H 37.2656 -2.38594 4.43947 0
M  V30 419 H 36.8676 -0.845885 3.64309 0
M  V30 420 H 39.1596 -2.7077 6.21039 0
M  V30 421 H 40.1026 -1.37308 6.9466 0
M  V30 422 H 40.5106 -1.94174 5.30054 0
M  V30 423 N 39.9087 -1.5758 0.0250728 0
M  V30 424 C 41.1337 -1.96337 -0.668317 0
M  V30 425 C 41.5587 -0.901314 -1.651 0
M  V30 426 O 40.9167 0.138187 -1.80773 0
M  V30 427 C 40.9647 -3.34191 -1.35457 0
M  V30 428 O 40.0687 -3.30269 -2.46974 0
M  V30 429 H 39.4097 -0.640281 -0.175887 0
M  V30 430 H 41.9397 -2.0442 0.0857224 0
M  V30 431 H 41.9497 -3.70331 -1.71228 0
M  V30 432 H 40.6247 -4.11036 -0.634218 0
M  V30 433 H 39.2017 -3.05841 -2.13344 0
M  V30 434 N 41.3868 0.248026 -1.55636 0
M  V30 435 C 42.6348 0.974295 -1.77065 0
M  V30 436 C 42.9558 1.85897 -0.588849 0
M  V30 437 O 42.2258 1.91868 0.395407 0
M  V30 438 H 40.8058 0.362733 -0.653019 0
M  V30 439 H 43.4678 0.266244 -1.93073 0
M  V30 440 H 42.5638 1.59667 -2.68166 0
M  V30 441 N 42.8649 1.48995 0.513639 0
M  V30 442 C 43.7949 1.67636 1.62544 0
M  V30 443 C 44.7759 0.525087 1.61793 0
M  V30 444 O 45.9609 0.759502 1.78732 0
M  V30 445 C 43.0909 1.73114 3.01079 0
M  V30 446 C 42.0449 2.87905 3.16693 0
M  V30 447 C 41.3709 2.78486 4.56453 0
M  V30 448 C 42.6709 4.29005 2.97913 0
M  V30 449 H 44.3649 2.60716 1.47198 0
M  V30 450 H 41.9109 1.25465 0.706714 0
M  V30 451 H 43.8639 1.84742 3.78746 0
M  V30 452 H 42.5879 0.766241 3.17484 0
M  V30 453 H 41.2469 2.75859 2.41448 0
M  V30 454 H 40.8949 1.7993 4.69717 0
M  V30 455 H 40.5949 3.55523 4.67843 0
M  V30 456 H 42.1189 2.92104 5.36197 0
M  V30 457 H 43.5329 4.41798 3.65359 0
M  V30 458 H 41.9299 5.07166 3.20785 0
M  V30 459 H 42.9999 4.44329 1.94165 0
M  V30 460 N 44.343 -0.763751 1.37857 0
M  V30 461 C 45.306 -1.85889 1.34081 0
M  V30 462 C 46.306 -1.58949 0.243277 0
M  V30 463 O 47.496 -1.66882 0.499589 0
M  V30 464 C 44.628 -3.23176 1.08489 0
M  V30 465 H 45.821 -1.90648 2.31502 0
M  V30 466 H 43.374 -0.964367 1.23003 0
M  V30 467 H 44.109 -3.24091 0.116318 0
M  V30 468 H 43.894 -3.44124 1.8794 0
M  V30 469 H 45.384 -4.03254 1.08517 0
M  V30 470 N 45.8211 -1.22559 -0.990812 0
M  V30 471 C 47.2371 -0.985996 -1.255 0
M  V30 472 C 47.4371 0.319173 -1.98956 0
M  V30 473 O 46.4931 1.04127 -2.3003 0
M  V30 474 C 47.8061 -2.18607 -2.06474 0
M  V30 475 C 49.3541 -2.22985 -2.19651 0
M  V30 476 C 49.8291 -3.4255 -3.04012 0
M  V30 477 N 51.3201 -3.42725 -3.11599 0
M  V30 478 C 52.0551 -4.31892 -3.7717 0
M  V30 479 N 51.5511 -5.31279 -4.44651 0
M  V30 480 N 53.3441 -4.19662 -3.73952 0
M  V30 481 H 45.4951 -2.06469 -0.49841 0
M  V30 482 H 47.7581 -0.904853 -0.282747 0
M  V30 483 H 47.4641 -3.13267 -1.59865 0
M  V30 484 H 47.3381 -2.18838 -3.07229 0
M  V30 485 H 49.7251 -1.28871 -2.65474 0
M  V30 486 H 49.8061 -2.26791 -1.18319 0
M  V30 487 H 49.4501 -4.36965 -2.58889 0
M  V30 488 H 49.3801 -3.35984 -4.0549 0
M  V30 489 H 51.8711 -2.70807 -2.63575 0
M  V30 490 H 52.1841 -5.95593 -4.92431 0
M  V30 491 H 50.5291 -5.3519 -4.43392 0
M  V30 492 H 53.7201 -3.41268 -3.20396 0
M  V30 493 H 53.8931 -4.89358 -4.24774 0
M  V30 494 N 47.2992 1.18797 -1.03562 0
M  V30 495 C 48.7152 1.40671 -0.753917 0
M  V30 496 C 48.9152 1.9043 0.658686 0
M  V30 497 O 47.9712 2.08538 1.42366 0
M  V30 498 C 49.2842 2.41192 -1.79574 0
M  V30 499 C 50.8322 2.54928 -1.81606 0
M  V30 500 C 51.3072 3.58709 -2.84766 0
M  V30 501 N 52.7982 3.66212 -2.83625 0
M  V30 502 C 53.5332 4.46225 -3.60098 0
M  V30 503 N 53.0292 5.29888 -4.46308 0
M  V30 504 N 54.8222 4.40939 -3.4861 0
M  V30 505 H 46.9732 0.848221 -1.94728 0
M  V30 506 H 49.2362 0.435081 -0.842264 0
M  V30 507 H 48.9422 2.11669 -2.80872 0
M  V30 508 H 48.8162 3.40467 -1.62365 0
M  V30 509 H 51.2032 2.83771 -0.809817 0
M  V30 510 H 51.2842 1.55784 -2.02891 0
M  V30 511 H 50.9282 3.30607 -3.85566 0
M  V30 512 H 50.8582 4.57519 -2.60737 0
M  V30 513 H 53.3492 3.06466 -2.21105 0
M  V30 514 H 53.6622 5.88078 -5.01382 0
M  V30 515 H 52.0072 5.29326 -4.50377 0
M  V30 516 H 55.1982 3.74624 -2.80668 0
M  V30 517 H 55.3712 5.03056 -4.08459 0
M  V30 518 N 48.7773 0.814389 1.34928 0
M  V30 519 C 50.0023 0.410097 2.03305 0
M  V30 520 C 50.4273 -0.973464 1.60951 0
M  V30 521 O 49.7853 -1.63185 0.789964 0
M  V30 522 C 49.8333 0.51049 3.56968 0
M  V30 523 O 48.9373 -0.473035 4.09678 0
M  V30 524 H 48.2783 0.170088 0.641846 0
M  V30 525 H 50.8083 1.10244 1.72358 0
M  V30 526 H 50.8183 0.383135 4.06197 0
M  V30 527 H 49.4933 1.51963 3.87144 0
M  V30 528 H 48.0703 -0.305272 3.71648 0
M  V30 529 N 50.2554 -1.46986 0.568584 0
M  V30 530 C 51.6664 -1.86188 0.138219 0
M  V30 531 C 52.0174 -1.47388 -1.29504 0
M  V30 532 O 51.1424 -0.88219 -1.97602 0
M  V30 533 C 51.7374 -3.3792 0.244065 0
M  V30 534 C 50.2964 -3.76171 -0.131335 0
M  V30 535 C 49.4434 -2.71027 0.586465 0
M  V30 536 H 52.3944 -1.38342 0.777645 0
M  V30 537 H 52.4154 -3.76729 -0.534351 0
M  V30 538 H 51.9274 -3.66128 1.28731 0
M  V30 539 H 50.0284 -3.5358 -1.17526 0
M  V30 540 H 50.1414 -4.78523 0.235146 0
M  V30 541 H 48.5054 -2.54684 0.0282722 0
M  V30 542 H 49.2884 -3.02077 1.63109 0
M  V30 543 N 51.7335 -0.305618 -1.54608 0
M  V30 544 C 53.1495 0.0476228 -1.59529 0
M  V30 545 C 53.3495 1.52025 -1.32252 0
M  V30 546 O 52.4055 2.27368 -1.09818 0
M  V30 547 C 53.7185 -0.354471 -2.98603 0
M  V30 548 C 55.2665 -0.303622 -3.11524 0
M  V30 549 C 55.7415 -0.680608 -4.52915 0
M  V30 550 N 57.2325 -0.63332 -4.5885 0
M  V30 551 C 57.9675 -0.897432 -5.66334 0
M  V30 552 N 57.4635 -1.22775 -6.81834 0
M  V30 553 N 59.2565 -0.824186 -5.56025 0
M  V30 554 H 51.4075 -1.2653 -1.70599 0
M  V30 555 H 53.6705 -0.513291 -0.797017 0
M  V30 556 H 53.3765 -1.3798 -3.23503 0
M  V30 557 H 53.2505 0.289568 -3.76087 0
M  V30 558 H 55.6375 0.712472 -2.8637 0
M  V30 559 H 55.7185 -0.982348 -2.36185 0
M  V30 560 H 55.3625 -1.69453 -4.78799 0
M  V30 561 H 55.2925 0.0202385 -5.26596 0
M  V30 562 H 57.7835 -0.389138 -3.75891 0
M  V30 563 H 58.0965 -1.41513 -7.59733 0
M  V30 564 H 56.4415 -1.26583 -6.83375 0
M  V30 565 H 59.6325 -0.565748 -4.64669 0
M  V30 566 H 59.8055 -1.03338 -6.39707 0
M  V30 567 N 53.2116 1.57565 -0.0334293 0
M  V30 568 C 54.4366 1.96689 0.657895 0
M  V30 569 C 54.8616 0.910057 1.64619 0
M  V30 570 O 54.2196 -0.128598 1.80843 0
M  V30 571 C 54.2676 3.34905 1.33683 0
M  V30 572 O 53.3716 3.31574 2.45219 0
M  V30 573 H 52.7126 0.641205 0.172489 0
M  V30 574 H 55.2426 2.04372 -0.0965621 0
M  V30 575 H 55.2526 3.71234 1.69262 0
M  V30 576 H 53.9276 4.11366 0.612411 0
M  V30 577 H 52.5046 3.06968 2.11719 0
M  V30 578 N 54.6897 -0.239769 1.55765 0
M  V30 579 C 55.9147 -0.988373 1.82335 0
M  V30 580 C 56.3397 -1.77886 0.611421 0
M  V30 581 O 55.6977 -1.75889 -0.439639 0
M  V30 582 C 55.7457 -1.89627 3.06715 0
M  V30 583 O 54.8497 -2.98904 2.84131 0
M  V30 584 H 54.1907 -0.280858 0.601677 0
M  V30 585 H 56.7207 -0.258597 2.02959 0
M  V30 586 H 56.7307 -2.30957 3.36338 0
M  V30 587 H 55.4057 -1.31511 3.9456 0
M  V30 588 H 53.9827 -2.61651 2.65694 0
M  V30 589 N 56.1678 -1.49265 -0.50573 0
M  V30 590 C 57.4448 -1.49012 -1.26707 0
M  V30 591 C 57.8248 -0.215205 -2.1 0
M  V30 592 O 57.1728 0.802547 -2.13943 0
M  V30 593 C 57.3828 -2.7663 -2.12783 0
M  V30 594 C 58.7308 -3.25932 -2.72127 0
M  V30 595 O 59.7548 -2.77715 -2.23054 0
M  V30 596 O 58.6138 -4.09897 -3.61451 0
M  V30 597 H 55.7078 -0.596197 -0.57313 0
M  V30 598 H 58.2538 -1.61524 -0.52039 0
M  V30 599 H 57.0258 -3.60916 -1.5118 0
M  V30 600 H 56.6488 -2.66956 -2.94653 0
M  V30 601 N 57.6459 0.756429 -1.3826 0
M  V30 602 C 58.8939 1.51248 -1.34047 0
M  V30 603 C 59.2149 1.94875 0.0698372 0
M  V30 604 O 58.4849 1.67436 1.01696 0
M  V30 605 H 57.0649 0.561018 -0.493222 0
M  V30 606 H 59.7269 0.899347 -1.7291 0
M  V30 607 H 58.8229 2.40472 -1.98947 0
M  V30 608 N 59.124 1.23083 0.984299 0
M  V30 609 C 60.071 1.00854 2.07598 0
M  V30 610 C 61.041 -0.0726709 1.65941 0
M  V30 611 O 62.226 0.0786535 1.90638 0
M  V30 612 C 59.366 0.601645 3.39815 0
M  V30 613 C 58.479 1.75456 3.94765 0
M  V30 614 C 57.614 1.29482 5.15177 0
M  V30 615 C 56.653 2.41873 5.62284 0
M  V30 616 N 55.79 1.96885 6.73929 0
M  V30 617 H 60.63 1.943 2.25946 0
M  V30 618 H 58.167 0.968001 1.10762 0
M  V30 619 H 60.125 0.346854 4.15756 0
M  V30 620 H 58.755 -0.295803 3.21442 0
M  V30 621 H 57.807 2.12346 3.15616 0
M  V30 622 H 59.119 2.59965 4.25699 0
M  V30 623 H 58.273 0.997923 5.98437 0
M  V30 624 H 57.012 0.420046 4.85888 0
M  V30 625 H 56.017 2.72342 4.77608 0
M  V30 626 H 57.242 3.29881 5.93595 0
M  V30 627 H 55.188 1.11782 6.46406 0
M  V30 628 H 55.105 2.74956 7.04227 0
M  V30 629 H 56.373 1.70289 7.60672 0
M  V30 630 N 60.6021 -1.18246 1.0419 0
M  V30 631 C 61.5321 -2.24127 0.654914 0
M  V30 632 C 62.5131 -1.66617 -0.342451 0
M  V30 633 O 63.6981 -1.92924 -0.222277 0
M  V30 634 C 60.8281 -3.47295 0.0183757 0
M  V30 635 C 59.7821 -4.17563 0.939414 0
M  V30 636 C 59.1081 -5.34438 0.167286 0
M  V30 637 C 60.4081 -4.70917 2.25908 0
M  V30 638 H 62.1021 -2.56753 1.54007 0
M  V30 639 H 59.6481 -1.23414 0.74195 0
M  V30 640 H 61.6011 -4.20572 -0.264082 0
M  V30 641 H 60.3251 -3.13907 -0.901664 0
M  V30 642 H 58.9841 -3.46186 1.20628 0
M  V30 643 H 58.6321 -4.97298 -0.7552 0
M  V30 644 H 58.3321 -5.82388 0.780901 0
M  V30 645 H 59.8561 -6.10504 -0.108125 0
M  V30 646 H 61.2701 -5.35882 2.03724 0
M  V30 647 H 59.6671 -5.29406 2.82577 0
M  V30 648 H 60.7371 -3.88272 2.9047 0
M  V30 649 N 62.0802 -0.821533 -1.34494 0
M  V30 650 C 62.9902 -0.244355 -2.33324 0
M  V30 651 C 64.0062 0.620527 -1.62559 0
M  V30 652 O 65.1822 0.528754 -1.94335 0
M  V30 653 C 62.2472 0.585368 -3.41723 0
M  V30 654 C 61.3082 -0.301752 -4.28238 0
M  V30 655 C 60.5412 0.488466 -5.3146 0
M  V30 656 O 60.7642 1.72186 -5.4379 0
M  V30 657 O 59.6982 -0.12848 -6.01763 0
M  V30 658 H 63.5242 -1.06231 -2.84515 0
M  V30 659 H 61.1092 -0.583645 -1.37528 0
M  V30 660 H 62.9912 1.05747 -4.07916 0
M  V30 661 H 61.6662 1.38068 -2.92778 0
M  V30 662 H 60.5732 -0.821315 -3.64973 0
M  V30 663 H 61.9062 -1.06138 -4.8062 0
M  V30 664 N 63.5583 1.46682 -0.576371 0
M  V30 665 C 64.5213 2.28707 0.150239 0
M  V30 666 C 65.5213 1.38035 0.824794 0
M  V30 667 O 66.7113 1.60476 0.677719 0
M  V30 668 C 63.8433 3.18248 1.22192 0
M  V30 669 H 65.0363 2.94423 -0.570521 0
M  V30 670 H 62.5893 1.52688 -0.334078 0
M  V30 671 H 63.3243 2.57265 1.97447 0
M  V30 672 H 63.1093 3.85 0.742812 0
M  V30 673 H 64.5993 3.80001 1.73172 0
M  V30 674 N 65.0364 0.313813 1.54444 0
M  V30 675 C 65.9664 -0.549454 2.26943 0
M  V30 676 C 66.9474 -1.12741 1.27372 0
M  V30 677 O 68.1324 -1.15436 1.56167 0
M  V30 678 C 65.2624 -1.71523 3.01989 0
M  V30 679 C 64.2164 -1.26703 4.08816 0
M  V30 680 C 63.5424 -2.51898 4.71647 0
M  V30 681 C 64.8424 -0.388962 5.2085 0
M  V30 682 H 66.5364 0.0552661 2.99349 0
M  V30 683 H 64.0824 0.0280207 1.43973 0
M  V30 684 H 66.0354 -2.32535 3.51433 0
M  V30 685 H 64.7594 -2.34639 2.27183 0
M  V30 686 H 63.4184 -0.679896 3.6024 0
M  V30 687 H 63.0664 -3.13356 3.93468 0
M  V30 688 H 62.7664 -2.22605 5.43802 0
M  V30 689 H 64.2904 -3.1369 5.23861 0
M  V30 690 H 65.7044 -0.905107 5.6611 0
M  V30 691 H 64.1014 -0.18924 5.99802 0
M  V30 692 H 65.1714 0.582699 4.81386 0
M  V30 693 N 66.5145 -1.57545 0.0417849 0
M  V30 694 C 67.7445 -1.96339 -0.642995 0
M  V30 695 C 68.1525 -0.917536 -1.65463 0
M  V30 696 O 67.4955 0.107747 -1.83384 0
M  V30 697 C 67.5575 -3.31333 -1.39494 0
M  V30 698 C 67.2215 -4.53796 -0.540204 0
M  V30 699 C 68.2185 -5.19553 0.189806 0
M  V30 700 C 65.9035 -5.0006 -0.473886 0
M  V30 701 C 67.8975 -6.29904 0.974674 0
M  V30 702 C 65.5845 -6.10289 0.314677 0
M  V30 703 C 66.5825 -6.75072 1.03765 0
M  V30 704 O 66.2705 -7.83183 1.81327 0
M  V30 705 H 66.0025 -0.651241 -0.181277 0
M  V30 706 H 68.5565 -2.05148 0.101665 0
M  V30 707 H 66.7865 -3.19052 -2.18502 0
M  V30 708 H 68.4755 -3.54942 -1.96904 0
M  V30 709 H 69.2415 -4.84774 0.147981 0
M  V30 710 H 65.1205 -4.49433 -1.0262 0
M  V30 711 H 68.6645 -6.80401 1.5395 0
M  V30 712 H 64.5615 -6.44506 0.358174 0
M  V30 713 H 65.3295 -7.99913 1.73438 0
M  V30 714 N 67.9926 0.231505 -1.5589 0
M  V30 715 C 69.2386 0.95877 -1.78705 0
M  V30 716 C 69.5716 1.8438 -0.609725 0
M  V30 717 O 68.8466 1.90521 0.391426 0
M  V30 718 C 69.1296 1.8062 -3.11526 0
M  V30 719 C 68.9826 0.948328 -4.39689 0
M  V30 720 C 70.3016 2.78585 -3.40703 0
M  V30 721 H 67.4206 0.347129 -0.650131 0
M  V30 722 H 70.0626 0.228259 -1.88624 0
M  V30 723 H 68.2126 2.42902 -3.03201 0
M  V30 724 H 69.8846 0.343016 -4.60023 0
M  V30 725 H 68.1276 0.253314 -4.3306 0
M  V30 726 H 68.7986 1.57543 -5.29041 0
M  V30 727 H 71.2746 2.26439 -3.49091 0
M  V30 728 H 70.1506 3.34988 -4.34826 0
M  V30 729 H 70.4116 3.55825 -2.62375 0
M  V30 730 N 69.4707 1.49531 0.497807 0
M  V30 731 C 70.4007 1.6935 1.60757 0
M  V30 732 C 71.3817 0.542218 1.61227 0
M  V30 733 O 72.5667 0.778417 1.77917 0
M  V30 734 C 69.6967 1.76298 2.99226 0
M  V30 735 C 68.6507 2.91248 3.13622 0
M  V30 736 C 67.9767 2.83312 4.53474 0
M  V30 737 C 69.2767 4.3214 2.93346 0
M  V30 738 H 70.9707 2.62263 1.44425 0
M  V30 739 H 68.5167 1.26208 0.693367 0
M  V30 740 H 70.4697 1.88749 3.76765 0
M  V30 741 H 69.1937 0.799871 3.16654 0
M  V30 742 H 67.8527 2.78404 2.38509 0
M  V30 743 H 67.5007 1.84902 4.67782 0
M  V30 744 H 67.2007 3.60465 4.64046 0
M  V30 745 H 68.7247 2.97775 5.33069 0
M  V30 746 H 70.1387 4.45649 3.60652 0
M  V30 747 H 68.5357 5.1054 3.15387 0
M  V30 748 H 69.6057 4.46363 1.89441 0
M  V30 749 N 70.9488 -0.749086 1.3866 0
M  V30 750 C 71.8818 -1.87111 1.30631 0
M  V30 751 C 72.8598 -1.61572 0.18251 0
M  V30 752 O 74.0438 -1.85019 0.360592 0
M  V30 753 C 71.1708 -3.22815 1.02511 0
M  V30 754 C 70.2168 -3.67234 2.1689 0
M  V30 755 S 71.0498 -3.78245 3.79066 0
M  V30 756 C 72.2058 -5.16761 3.53142 0
M  V30 757 H 72.4388 -1.93636 2.25594 0
M  V30 758 H 69.9718 -0.912525 1.24549 0
M  V30 759 H 71.9298 -4.01181 0.869701 0
M  V30 760 H 70.5908 -3.13964 0.0925884 0
M  V30 761 H 69.7838 -4.65677 1.92771 0
M  V30 762 H 69.3858 -2.96034 2.28561 0
M  V30 763 H 71.6778 -6.02656 3.09534 0
M  V30 764 H 72.6208 -5.45902 4.50995 0
M  V30 765 H 73.0288 -4.85771 2.87554 0
M  V30 766 N 72.4269 -1.23603 -0.977757 0
M  V30 767 C 73.6729 -1.07129 -1.72195 0
M  V30 768 C 74.0059 0.390501 -1.90233 0
M  V30 769 O 73.2809 1.28902 -1.45653 0
M  V30 770 C 73.5639 -1.80031 -3.11867 0
M  V30 771 C 73.4169 -3.33899 -3.01383 0
M  V30 772 C 74.7359 -1.56492 -4.11337 0
M  V30 773 H 71.8549 -0.390571 -0.624999 0
M  V30 774 H 74.4969 -1.52142 -1.13811 0
M  V30 775 H 72.6469 -1.41768 -3.6171 0
M  V30 776 H 74.3189 -3.81699 -2.59043 0
M  V30 777 H 72.5619 -3.62796 -2.37827 0
M  V30 778 H 73.2329 -3.801 -4.00285 0
M  V30 779 H 75.7089 -1.89757 -3.70313 0
M  V30 780 H 74.5849 -2.09973 -5.07151 0
M  V30 781 H 74.8459 -0.500874 -4.39254 0
M  V30 782 N 73.905 1.17692 -1.04816 0
M  V30 783 C 74.835 2.23777 -0.666791 0
M  V30 784 C 75.816 1.66796 0.33361 0
M  V30 785 O 77.001 1.93039 0.212042 0
M  V30 786 C 74.131 3.47281 -0.0367933 0
M  V30 787 C 73.085 4.17059 -0.961546 0
M  V30 788 C 72.411 5.34342 -0.195626 0
M  V30 789 C 73.711 4.69713 -2.28402 0
M  V30 790 H 75.405 2.55933 -1.55367 0
M  V30 791 H 72.951 1.23019 -0.748484 0
M  V30 792 H 74.904 4.20706 0.241775 0
M  V30 793 H 73.628 3.14381 0.885004 0
M  V30 794 H 72.287 3.45541 -1.22462 0
M  V30 795 H 71.935 4.97692 0.728816 0
M  V30 796 H 71.635 5.81966 -0.811775 0
M  V30 797 H 73.159 6.10553 0.0757473 0
M  V30 798 H 74.573 5.34794 -2.06563 0
M  V30 799 H 72.97 5.279 -2.8538 0
M  V30 800 H 74.04 3.86726 -2.92525 0
M  V30 801 N 75.3831 0.828654 1.34056 0
M  V30 802 C 76.6311 0.41863 1.97717 0
M  V30 803 C 76.9521 -1.02314 1.66002 0
M  V30 804 O 76.2221 -1.71119 0.953683 0
M  V30 805 H 74.8021 0.151809 0.731412 0
M  V30 806 H 77.4641 1.05936 1.63596 0
M  V30 807 H 76.5601 0.542318 3.07352 0
M  V30 808 N 76.8612 -1.46375 0.584142 0
M  V30 809 C 78.1082 -2.02378 0.0702675 0
M  V30 810 C 78.4362 -1.45545 -1.29023 0
M  V30 811 O 77.6912 -0.610967 -1.85918 0
M  V30 812 C 77.9902 -3.57373 -0.0439342 0
M  V30 813 C 77.6562 -4.33252 1.24915 0
M  V30 814 C 76.3182 -4.53701 1.60341 0
M  V30 815 C 78.6702 -4.7681 2.1048 0
M  V30 816 C 75.9982 -5.1496 2.81128 0
M  V30 817 C 78.3502 -5.39404 3.30494 0
M  V30 818 C 77.0142 -5.5808 3.66201 0
M  V30 819 H 76.2842 -0.740554 0.0257127 0
M  V30 820 H 78.9312 -1.75727 0.761065 0
M  V30 821 H 77.2362 -3.83169 -0.817869 0
M  V30 822 H 78.9332 -3.98384 -0.457318 0
M  V30 823 H 75.5232 -4.17633 0.963364 0
M  V30 824 H 79.7072 -4.60766 1.84414 0
M  V30 825 H 74.9632 -5.27611 3.08928 0
M  V30 826 H 79.1372 -5.72114 3.97063 0
M  V30 827 H 76.7642 -6.05318 4.59885 0
M  V30 828 N 78.3393 -0.321999 -1.54275 0
M  V30 829 C 79.5863 0.281044 -2.0054 0
M  V30 830 C 79.9143 1.52265 -1.21019 0
M  V30 831 O 79.1693 1.93687 -0.279982 0
M  V30 832 C 79.4683 0.661769 -3.5122 0
M  V30 833 C 79.1343 -0.480482 -4.48333 0
M  V30 834 C 77.7963 -0.794005 -4.74604 0
M  V30 835 C 80.1483 -1.24783 -5.06042 0
M  V30 836 C 77.4763 -1.87763 -5.55844 0
M  V30 837 C 79.8283 -2.32153 -5.88462 0
M  V30 838 C 78.4923 -2.64089 -6.13036 0
M  V30 839 H 77.7623 0.102841 -0.733829 0
M  V30 840 H 80.4093 -0.445453 -1.86247 0
M  V30 841 H 78.7143 1.46867 -3.63232 0
M  V30 842 H 80.4113 1.13989 -3.84457 0
M  V30 843 H 77.0013 -0.226039 -4.28004 0
M  V30 844 H 81.1853 -1.01887 -4.85729 0
M  V30 845 H 76.4413 -2.12954 -5.73115 0
M  V30 846 H 80.6153 -2.92057 -6.32199 0
M  V30 847 H 78.2423 -3.48185 -6.75775 0
M  V30 848 N 79.8174 1.5752 -0.0501392 0
M  V30 849 C 81.0654 1.9227 0.622642 0
M  V30 850 C 81.3864 0.929083 1.71444 0
M  V30 851 O 80.6564 -0.0262186 1.95882 0
M  V30 852 H 79.2364 0.709739 0.232981 0
M  V30 853 H 81.8984 1.94628 -0.102898 0
M  V30 854 H 80.9944 2.93479 1.06191 0
M  V30 855 N 81.2955 -0.223234 1.56011 0
M  V30 856 C 82.5425 -0.947875 1.78946 0
M  V30 857 C 82.8705 -1.844 0.618608 0
M  V30 858 O 82.1255 -1.91629 -0.397093 0
M  V30 859 C 82.4245 -1.81948 3.0762 0
M  V30 860 C 82.0905 -1.07672 4.37856 0
M  V30 861 C 80.7525 -0.871544 4.73242 0
M  V30 862 C 83.1045 -0.552081 5.18268 0
M  V30 863 C 80.4325 -0.129791 5.86556 0
M  V30 864 C 82.7845 0.17632 6.32354 0
M  V30 865 C 81.4485 0.39277 6.66343 0
M  V30 866 H 80.7185 -0.346852 0.654809 0
M  V30 867 H 83.3655 -0.216171 1.90276 0
M  V30 868 H 81.6705 -2.61899 2.91404 0
M  V30 869 H 83.3675 -2.38227 3.22566 0
M  V30 870 H 79.9575 -1.24662 4.1007 0
M  V30 871 H 84.1415 -0.698076 4.91366 0
M  V30 872 H 79.3975 0.048153 6.11381 0
M  V30 873 H 83.5715 0.590367 6.93893 0
M  V30 874 H 81.1985 0.969466 7.53993 0
M  V30 875 N 82.7736 -1.49793 -0.48987 0
M  V30 876 C 84.0206 -1.59841 -1.24327 0
M  V30 877 C 84.3486 -0.290135 -1.92324 0
M  V30 878 O 83.6036 0.722749 -1.81865 0
M  V30 879 C 83.9026 -2.71488 -2.32441 0
M  V30 880 C 83.5686 -4.12614 -1.81826 0
M  V30 881 C 82.2306 -4.51017 -1.67742 0
M  V30 882 C 84.5826 -5.00892 -1.4407 0
M  V30 883 C 81.9106 -5.75459 -1.14297 0
M  V30 884 C 84.2626 -6.25863 -0.920742 0
M  V30 885 C 82.9266 -6.63086 -0.766383 0
M  V30 886 H 82.1966 -0.584899 -0.454944 0
M  V30 887 H 84.8436 -1.83663 -0.542215 0
M  V30 888 H 83.1486 -2.4168 -3.0838 0
M  V30 889 H 84.8456 -2.76469 -2.90458 0
M  V30 890 H 81.4356 -3.82307 -1.93751 0
M  V30 891 H 85.6196 -4.7187 -1.53794 0
M  V30 892 H 80.8756 -6.02989 -1.01068 0
M  V30 893 H 85.0496 -6.9364 -0.619448 0
M  V30 894 H 82.6766 -7.59393 -0.350083 0
M  V30 895 N 84.2517 0.741722 -1.39055 0
M  V30 896 C 85.4797 1.53098 -1.39171 0
M  V30 897 C 85.8947 1.88794 0.0155099 0
M  V30 898 O 85.2517 1.53626 0.985159 0
M  V30 899 C 85.3027 2.82274 -2.2584 0
M  V30 900 O 85.0237 2.48097 -3.61081 0
M  V30 901 C 86.5247 3.76343 -2.34266 0
M  V30 902 H 83.7447 0.473335 -0.4756 0
M  V30 903 H 86.2887 0.917045 -1.82785 0
M  V30 904 H 84.4437 3.40015 -1.85656 0
M  V30 905 H 84.8577 3.31029 -4.06842 0
M  V30 906 H 86.3317 4.63898 -2.9917 0
M  V30 907 H 86.8087 4.17619 -1.35982 0
M  V30 908 H 87.4147 3.24523 -2.74891 0
M  V30 909 N 85.7298 1.2412 0.971189 0
M  V30 910 C 86.6598 1.05508 2.08304 0
M  V30 911 C 87.6408 -0.0308864 1.70072 0
M  V30 912 O 88.8258 0.135521 1.93727 0
M  V30 913 C 85.9558 0.655365 3.4106 0
M  V30 914 C 84.9098 1.68971 3.93234 0
M  V30 915 C 84.2358 1.14516 5.22293 0
M  V30 916 C 85.5358 3.08487 4.21465 0
M  V30 917 H 87.2298 1.98507 2.24132 0
M  V30 918 H 84.7758 0.955821 1.07704 0
M  V30 919 H 86.7288 0.51217 4.18276 0
M  V30 920 H 85.4528 -0.31032 3.25122 0
M  V30 921 H 84.1118 1.82106 3.18171 0
M  V30 922 H 83.7598 0.170189 5.02712 0
M  V30 923 H 83.4598 1.83635 5.58168 0
M  V30 924 H 84.9838 1.01401 6.02121 0
M  V30 925 H 86.3978 2.98601 4.89398 0
M  V30 926 H 84.7948 3.74926 4.68562 0
M  V30 927 H 85.8648 3.56787 3.28376 0
M  V30 928 N 87.2079 -1.17134 1.05439 0
M  V30 929 C 88.4559 -1.87085 0.764429 0
M  V30 930 C 88.7769 -1.81584 -0.710787 0
M  V30 931 O 88.0469 -1.24349 -1.51374 0
M  V30 932 H 86.6269 -0.692627 0.279779 0
M  V30 933 H 89.2889 -1.42087 1.33406 0
M  V30 934 H 88.3849 -2.92759 1.0816 0
M  V30 935 N 88.686 -0.835752 -1.33615 0
M  V30 936 C 89.935 -0.426289 -1.97144 0
M  V30 937 C 90.248 1.01912 -1.66953 0
M  V30 938 O 91.454 1.53311 -2.24072 0
M  V30 939 C 89.91 -0.711321 -3.52801 0
M  V30 940 C 89.518 -2.1712 -3.91871 0
M  V30 941 C 91.262 -0.368654 -4.22896 0
M  V30 942 C 89.169 -2.40044 -5.40493 0
M  V30 943 H 88.099 -0.15567 -0.737755 0
M  V30 944 H 90.75 -1.0239 -1.52278 0
M  V30 945 H 89.132 -0.0433766 -3.95976 0
M  V30 946 H 90.306 -2.87936 -3.59763 0
M  V30 947 H 88.621 -2.47654 -3.34749 0
M  V30 948 H 91.218 -0.517601 -5.32189 0
M  V30 949 H 91.561 0.688078 -4.10574 0
M  V30 950 H 92.094 -0.991702 -3.8524 0
M  V30 951 H 88.833 -3.44271 -5.57815 0
M  V30 952 H 88.353 -1.73785 -5.74072 0
M  V30 953 H 90.032 -2.23042 -6.0734 0
M  V30 954 N 90.1641 1.46063 -0.591896 0
M  V30 955 C 91.0971 2.27452 0.184617 0
M  V30 956 C 92.0751 1.36188 0.888351 0
M  V30 957 O 93.2591 1.65606 0.90039 0
M  V30 958 C 90.3861 3.14162 1.26571 0
M  V30 959 C 89.4321 4.21255 0.666814 0
M  V30 960 S 90.2651 5.33034 -0.513345 0
M  V30 961 C 91.4211 6.23311 0.56872 0
M  V30 962 H 91.6541 2.92963 -0.505939 0
M  V30 963 H 89.1871 1.49676 -0.379014 0
M  V30 964 H 91.1451 3.6468 1.88463 0
M  V30 965 H 89.8061 2.47946 1.92826 0
M  V30 966 H 88.9991 4.81788 1.47974 0
M  V30 967 H 88.6011 3.73797 0.123359 0
M  V30 968 H 90.8931 6.61758 1.45198 0
M  V30 969 H 91.8361 7.081 -7.23824e-05 0
M  V30 970 H 92.2441 5.57646 0.876996 0
M  V30 971 N 91.6422 0.330177 1.54103 0
M  V30 972 C 92.5722 -0.525353 2.27513 0
M  V30 973 C 93.5532 -1.11383 1.2856 0
M  V30 974 O 94.7382 -1.13773 1.57383 0
M  V30 975 C 91.8682 -1.6831 3.03791 0
M  V30 976 C 90.8222 -1.2236 4.10137 0
M  V30 977 C 90.1482 -2.46882 4.74293 0
M  V30 978 C 91.4482 -0.333697 5.21233 0
M  V30 979 H 93.1422 0.087013 2.99274 0
M  V30 980 H 90.6882 0.0432893 1.43935 0
M  V30 981 H 92.6412 -2.28795 3.5388 0
M  V30 982 H 91.3652 -2.32216 2.29659 0
M  V30 983 H 90.0242 -0.64165 3.60941 0
M  V30 984 H 89.6722 -3.09165 3.96769 0
M  V30 985 H 89.3722 -2.16825 5.46133 0
M  V30 986 H 90.8962 -3.08117 5.27159 0
M  V30 987 H 92.3102 -0.845013 5.67038 0
M  V30 988 H 90.7072 -0.125612 5.99969 0
M  V30 989 H 91.7772 0.633724 4.80741 0
M  V30 990 N 93.1203 -1.57491 0.0584922 0
M  V30 991 C 94.3453 -1.97711 -0.62652 0
M  V30 992 C 94.7703 -0.936132 -1.63151 0
M  V30 993 O 94.1283 0.099811 -1.81025 0
M  V30 994 C 94.1763 -3.36989 -1.28338 0
M  V30 995 O 93.2803 -3.35433 -2.39913 0
M  V30 996 H 92.6213 -0.643868 -0.162266 0
M  V30 997 H 95.1513 -2.04193 0.129064 0
M  V30 998 H 95.1613 -3.73879 -1.63335 0
M  V30 999 H 93.8363 -4.12289 -0.546889 0
M  V30 1000 H 92.4133 -3.10298 -2.06809 0
M  V30 1001 N 94.5984 0.214957 -1.56127 0
M  V30 1002 C 95.8284 0.953707 -1.8327 0
M  V30 1003 C 96.2364 1.78181 -0.636262 0
M  V30 1004 O 95.5794 1.79191 0.404516 0
M  V30 1005 C 95.6414 1.91516 -3.0424 0
M  V30 1006 C 95.3054 1.27094 -4.38972 0
M  V30 1007 C 96.3024 0.657575 -5.15725 0
M  V30 1008 C 93.9874 1.28073 -4.85698 0
M  V30 1009 C 95.9814 0.0625968 -6.37369 0
M  V30 1010 C 93.6684 0.681914 -6.07283 0
M  V30 1011 C 94.6664 0.0739046 -6.8296 0
M  V30 1012 O 94.3544 -0.515582 -8.02245 0
M  V30 1013 H 94.0864 0.284764 -0.613095 0
M  V30 1014 H 96.6404 0.233283 -2.04071 0
M  V30 1015 H 94.8704 2.67475 -2.79274 0
M  V30 1016 H 96.5594 2.52001 -3.18198 0
M  V30 1017 H 97.3254 0.642288 -4.80728 0
M  V30 1018 H 93.2044 1.74337 -4.26764 0
M  V30 1019 H 96.7484 -0.412593 -6.96379 0
M  V30 1020 H 92.6454 0.694636 -6.41752 0
M  V30 1021 H 93.4134 -0.410544 -8.1747 0
M  V30 1022 N 96.0765 1.50051 0.48192 0
M  V30 1023 C 97.3255 1.59741 1.23149 0
M  V30 1024 C 97.6385 0.298163 1.93314 0
M  V30 1025 O 98.8445 0.273835 2.70116 0
M  V30 1026 C 97.3005 2.81926 2.23708 0
M  V30 1027 C 96.9085 4.18685 1.59396 0
M  V30 1028 C 98.6525 3.00956 2.99375 0
M  V30 1029 C 96.5595 5.3207 2.58178 0
M  V30 1030 H 95.4895 0.594838 0.46334 0
M  V30 1031 H 98.1405 1.76467 0.503169 0
M  V30 1032 H 96.5225 2.58736 2.99786 0
M  V30 1033 H 97.6965 4.52088 0.891811 0
M  V30 1034 H 96.0115 4.05171 0.960503 0
M  V30 1035 H 98.6085 3.82836 3.73283 0
M  V30 1036 H 98.9515 2.12258 3.58123 0
M  V30 1037 H 99.4845 3.24277 2.30411 0
M  V30 1038 H 96.2235 6.22888 2.04184 0
M  V30 1039 H 95.7435 5.03098 3.26577 0
M  V30 1040 H 97.4225 5.62196 3.20225 0
M  V30 1041 N 97.5546 -0.734337 1.39446 0
M  V30 1042 C 98.9706 -1.03997 1.21065 0
M  V30 1043 C 99.1706 -2.01369 0.0727019 0
M  V30 1044 O 98.2266 -2.45856 -0.575426 0
M  V30 1045 C 99.5396 -1.60163 2.54496 0
M  V30 1046 C 101.088 -1.7224 2.61347 0
M  V30 1047 C 101.563 -2.31814 3.95002 0
M  V30 1048 N 103.054 -2.39223 3.96644 0
M  V30 1049 C 103.789 -2.86258 4.96834 0
M  V30 1050 N 103.285 -3.33184 6.07421 0
M  V30 1051 N 105.078 -2.85473 4.84213 0
M  V30 1052 H 97.2286 -0.0885624 2.12215 0
M  V30 1053 H 99.4916 -0.10191 0.942506 0
M  V30 1054 H 99.1976 -0.960811 3.38321 0
M  V30 1055 H 99.0716 -2.5896 2.74262 0
M  V30 1056 H 101.459 -2.35443 1.77906 0
M  V30 1057 H 101.54 -0.720939 2.4543 0
M  V30 1058 H 101.184 -1.69238 4.78875 0
M  V30 1059 H 101.114 -3.32638 4.08239 0
M  V30 1060 H 103.605 -2.06057 3.16779 0
M  V30 1061 H 103.918 -3.67586 6.7978 0
M  V30 1062 H 102.263 -3.31191 6.11013 0
M  V30 1063 H 105.454 -2.48136 3.96921 0
M  V30 1064 H 105.627 -3.21814 5.62441 0
M  V30 1065 N 99.0327 -1.24633 -0.964593 0
M  V30 1066 C 100.258 -1.11596 -1.74818 0
M  V30 1067 C 100.683 0.32723 -1.85232 0
M  V30 1068 O 100.041 1.23695 -1.32549 0
M  V30 1069 C 100.089 -1.76397 -3.1451 0
M  V30 1070 O 99.1927 -1.03685 -3.99153 0
M  V30 1071 H 98.5337 -0.390196 -0.537255 0
M  V30 1072 H 101.064 -1.65002 -1.20977 0
M  V30 1073 H 101.074 -1.8228 -3.65018 0
M  V30 1074 H 99.7487 -2.81401 -3.06246 0
M  V30 1075 H 98.3257 -1.05611 -3.57632 0
M  V30 1076 N 100.511 1.16574 -1.06058 0
M  V30 1077 C 101.458 2.20883 -0.669263 0
M  V30 1078 C 102.428 1.62729 0.332918 0
M  V30 1079 O 103.613 1.895 0.222346 0
M  V30 1080 C 100.753 3.45049 -0.0593572 0
M  V30 1081 C 99.8658 4.17458 -1.11143 0
M  V30 1082 C 99.0008 5.29135 -0.467916 0
M  V30 1083 C 98.0398 5.93343 -1.50369 0
M  V30 1084 N 97.1768 6.96516 -0.883706 0
M  V30 1085 H 102.017 2.53709 -1.5632 0
M  V30 1086 H 99.5538 1.24616 -0.781625 0
M  V30 1087 H 101.512 4.16033 0.311771 0
M  V30 1088 H 100.142 3.12781 0.797992 0
M  V30 1089 H 99.1938 3.45101 -1.60029 0
M  V30 1090 H 100.506 4.61307 -1.89731 0
M  V30 1091 H 99.6598 6.06684 -0.0436871 0
M  V30 1092 H 98.3988 4.86443 0.349864 0
M  V30 1093 H 97.4038 5.14517 -1.93784 0
M  V30 1094 H 98.6288 6.38114 -2.32352 0
M  V30 1095 H 96.5748 6.55943 -0.086595 0
M  V30 1096 H 96.4918 7.38723 -1.607 0
M  V30 1097 H 97.7598 7.77993 -0.484543 0
M  V30 1098 N 101.989 0.842826 1.3317 0
M  V30 1099 C 102.936 0.276885 2.29133 0
M  V30 1100 C 103.906 -0.609527 1.54512 0
M  V30 1101 O 105.091 -0.546955 1.82792 0
M  V30 1102 C 102.231 -0.538707 3.40869 0
M  V30 1103 C 101.344 0.372169 4.30394 0
M  V30 1104 C 100.479 -0.454908 5.29249 0
M  V30 1105 C 99.5179 0.45411 6.10413 0
M  V30 1106 N 98.6549 -0.335075 7.013 0
M  V30 1107 H 103.495 1.10052 2.76934 0
M  V30 1108 H 101.032 0.554161 1.36262 0
M  V30 1109 H 102.99 -1.02709 4.0436 0
M  V30 1110 H 101.62 -1.32727 2.9425 0
M  V30 1111 H 100.672 0.97888 3.6759 0
M  V30 1112 H 101.984 1.0703 4.87182 0
M  V30 1113 H 101.138 -1.00695 5.98285 0
M  V30 1114 H 99.8769 -1.18646 4.73048 0
M  V30 1115 H 98.8819 1.01813 5.40291 0
M  V30 1116 H 100.107 1.18409 6.68697 0
M  V30 1117 H 98.0529 -1.04994 6.47543 0
M  V30 1118 H 97.9699 0.304262 7.55387 0
M  V30 1119 H 99.2379 -0.869224 7.74638 0
M  V30 1120 N 103.467 -1.45747 0.599634 0
M  V30 1121 C 104.397 -2.33235 -0.111306 0
M  V30 1122 C 105.378 -1.46359 -0.866781 0
M  V30 1123 O 106.563 -1.75146 -0.838904 0
M  V30 1124 C 103.693 -3.28932 -1.11451 0
M  V30 1125 C 102.647 -4.25381 -0.472772 0
M  V30 1126 C 101.973 -5.1071 -1.58365 0
M  V30 1127 C 103.273 -5.18831 0.600948 0
M  V30 1128 H 104.967 -2.92927 0.61919 0
M  V30 1129 H 102.513 -1.40857 0.299215 0
M  V30 1130 H 104.466 -3.89002 -1.62036 0
M  V30 1131 H 103.19 -2.67381 -1.8755 0
M  V30 1132 H 101.849 -3.66598 0.0121472 0
M  V30 1133 H 101.497 -4.45533 -2.33473 0
M  V30 1134 H 101.197 -5.7604 -1.15982 0
M  V30 1135 H 102.721 -5.73647 -2.09194 0
M  V30 1136 H 104.135 -5.73019 0.179491 0
M  V30 1137 H 102.532 -5.92595 0.946076 0
M  V30 1138 H 103.602 -4.6174 1.48068 0
M  V30 1139 N 104.945 -0.338344 -1.53925 0
M  V30 1140 C 105.855 0.529421 -2.28548 0
M  V30 1141 C 106.871 1.11645 -1.3346 0
M  V30 1142 O 108.047 1.13325 -1.66492 0
M  V30 1143 C 105.112 1.66713 -3.03987 0
M  V30 1144 C 104.173 1.11041 -4.14691 0
M  V30 1145 C 103.406 2.19389 -4.86522 0
M  V30 1146 O 103.629 3.40013 -4.57982 0
M  V30 1147 O 102.563 1.83976 -5.73094 0
M  V30 1148 H 106.389 -0.0770399 -3.03602 0
M  V30 1149 H 103.974 -0.103555 -1.49041 0
M  V30 1150 H 105.856 2.32918 -3.5118 0
M  V30 1151 H 104.531 2.25949 -2.31794 0
M  V30 1152 H 103.438 0.413024 -3.71813 0
M  V30 1153 H 104.771 0.562975 -4.8897 0
M  V30 1154 N 106.423 1.57458 -0.0668435 0
M  V30 1155 C 107.373 2.0896 0.912119 0
M  V30 1156 C 108.357 0.998186 1.26195 0
M  V30 1157 O 109.549 1.26133 1.24175 0
M  V30 1158 C 106.678 2.6508 2.18145 0
M  V30 1159 C 105.764 3.81218 1.85832 0
M  V30 1160 N 106.155 4.90378 1.23948 0
M  V30 1161 C 104.453 3.9042 2.15612 0
M  V30 1162 C 105.154 5.71279 1.09616 0
M  V30 1163 N 104.13 5.19389 1.60423 0
M  V30 1164 H 107.932 2.90749 0.42924 0
M  V30 1165 H 105.446 1.6182 0.137184 0
M  V30 1166 H 107.443 3.0029 2.89192 0
M  V30 1167 H 106.103 1.84736 2.67025 0
M  V30 1168 H 107.114 5.09847 0.909731 0
M  V30 1169 H 103.791 3.21043 2.66903 0
M  V30 1170 H 105.181 6.69085 0.614425 0
M  V30 1171 N 107.901 -0.206675 1.56239 0
M  V30 1172 C 109.126 -0.949474 1.8439 0
M  V30 1173 C 109.551 -1.76549 0.649016 0
M  V30 1174 O 108.909 -1.76782 -0.402231 0
M  V30 1175 C 108.957 -1.83078 3.10668 0
M  V30 1176 O 108.061 -2.9281 2.90407 0
M  V30 1177 H 107.402 -0.268033 0.607499 0
M  V30 1178 H 109.932 -0.215488 2.03462 0
M  V30 1179 H 109.942 -2.2377 3.41161 0
M  V30 1180 H 108.617 -1.23112 3.97261 0
M  V30 1181 H 107.194 -2.55956 2.71184 0
M  V30 1182 N 109.379 -1.50304 -0.473955 0
M  V30 1183 C 110.327 -1.69482 -1.59307 0
M  V30 1184 C 111.321 -0.560669 -1.59853 0
M  V30 1185 O 112.527 -0.741087 -1.64036 0
M  V30 1186 H 108.902 -0.534892 -0.528578 0
M  V30 1187 H 110.873 -2.63364 -1.40293 0
M  V30 1188 C 109.622 -1.80354 -2.97267 0
M  V30 1189 H 108.945 -2.67012 -2.97564 0
M  V30 1190 H 110.385 -1.97798 -3.75036 0
M  V30 1191 C 108.844 -0.55448 -3.32306 0
M  V30 1192 O 109.374 0.307661 -4.0052 0
M  V30 1193 N 107.58 -0.409354 -2.87702 0
M  V30 1194 H 107.127 -1.11196 -2.32364 0
M  V30 1195 H 107.085 0.425223 -3.11511 0
M  V30 1196 N 110.857 0.726932 -1.39834 0
M  V30 1197 C 112.134 1.47902 -1.28001 0
M  V30 1198 C 112.514 2.1083 0.106789 0
M  V30 1199 O 111.862 1.99242 1.11869 0
M  V30 1200 C 112.072 2.52392 -2.41038 0
M  V30 1201 C 113.42 3.18546 -2.80737 0
M  V30 1202 O 114.444 2.62708 -2.40547 0
M  V30 1203 O 113.303 4.19604 -3.50135 0
M  V30 1204 H 110.397 0.657163 -0.502062 0
M  V30 1205 H 112.943 0.760071 -1.51727 0
M  V30 1206 H 111.715 2.04329 -3.33715 0
M  V30 1207 H 111.338 3.31837 -2.19021 0
M  V30 1208 N 112.336 1.25143 0.95797 0
M  V30 1209 C 113.747 1.08851 1.51685 0
M  V30 1210 C 114.098 -0.33687 1.93286 0
M  V30 1211 O 113.223 -1.22644 1.7829 0
M  V30 1212 C 113.818 1.96978 2.75654 0
M  V30 1213 C 112.377 1.84881 3.27866 0
M  V30 1214 C 111.524 1.91329 2.0072 0
M  V30 1215 H 114.475 1.38478 0.77522 0
M  V30 1216 H 114.496 1.5078 3.4935 0
M  V30 1217 H 114.008 3.00712 2.45345 0
M  V30 1218 H 112.109 0.840182 3.63004 0
M  V30 1219 H 112.222 2.6951 3.96107 0
M  V30 1220 H 110.586 1.35174 2.15871 0
M  V30 1221 H 111.369 2.96661 1.72764 0
M  V30 1222 N 113.814 -1.1601 1.06675 0
M  V30 1223 C 115.061 -1.86633 0.785781 0
M  V30 1224 C 115.389 -1.81929 -0.687896 0
M  V30 1225 O 114.644 -1.23253 -1.52011 0
M  V30 1226 C 114.943 -3.35547 1.23057 0
M  V30 1227 C 114.609 -3.60448 2.70902 0
M  V30 1228 C 113.271 -3.66954 3.11285 0
M  V30 1229 C 115.623 -3.7071 3.66365 0
M  V30 1230 C 112.951 -3.81225 4.45965 0
M  V30 1231 C 115.303 -3.86503 5.00797 0
M  V30 1232 C 113.967 -3.91252 5.40813 0
M  V30 1233 H 113.237 -0.682937 0.287538 0
M  V30 1234 H 115.884 -1.37146 1.33654 0
M  V30 1235 H 114.189 -3.87193 0.59907 0
M  V30 1236 H 115.886 -3.88583 0.990163 0
M  V30 1237 H 112.476 -3.56021 2.38636 0
M  V30 1238 H 116.66 -3.64991 3.36296 0
M  V30 1239 H 111.916 -3.83155 4.76447 0
M  V30 1240 H 116.09 -3.93385 5.74649 0
M  V30 1241 H 113.717 -4.02062 6.45174 0
M  V30 1242 N 115.292 -0.849877 -1.32721 0
M  V30 1243 C 116.24 -0.279745 -2.30912 0
M  V30 1244 C 117.234 0.594278 -1.58634 0
M  V30 1245 O 118.44 0.482613 -1.73409 0
M  V30 1246 H 114.815 -0.0717521 -0.748569 0
M  V30 1247 H 116.786 -1.12222 -2.76494 0
M  V30 1248 C 115.535 0.521108 -3.43773 0
M  V30 1249 H 114.858 -0.142141 -3.99547 0
M  V30 1250 H 116.298 0.885693 -4.14646 0
M  V30 1251 C 114.757 1.70442 -2.90605 0
M  V30 1252 O 115.287 2.8034 -2.87702 0
M  V30 1253 N 113.493 1.52991 -2.47067 0
M  V30 1254 H 113.04 0.635914 -2.49628 0
M  V30 1255 H 112.998 2.32311 -2.11847 0
M  V30 1256 N 116.77 1.45427 -0.607355 0
M  V30 1257 C 118.016 2.0254 -0.102607 0
M  V30 1258 C 118.349 1.47478 1.26348 0
M  V30 1259 O 117.624 0.64939 1.83339 0
M  V30 1260 C 117.907 3.60044 -0.0634347 0
M  V30 1261 C 117.76 4.2544 -1.46017 0
M  V30 1262 C 119.079 4.35646 0.624514 0
M  V30 1263 H 116.198 0.73598 -0.0387607 0
M  V30 1264 H 118.84 1.73284 -0.779282 0
M  V30 1265 H 116.99 3.85101 0.512808 0
M  V30 1266 H 118.662 4.11569 -2.08347 0
M  V30 1267 H 116.905 3.83849 -2.02094 0
M  V30 1268 H 117.576 5.34342 -1.385 0
M  V30 1269 H 120.052 4.15882 0.134723 0
M  V30 1270 H 118.928 5.45376 0.621028 0
M  V30 1271 H 119.189 4.08501 1.69055 0
M  V30 1272 N 118.248 0.346503 1.53744 0
M  V30 1273 C 119.478 -0.250047 2.05081 0
M  V30 1274 C 119.886 -1.44529 1.22098 0
M  V30 1275 O 119.229 -1.81992 0.249917 0
M  V30 1276 C 119.291 -0.725934 3.52094 0
M  V30 1277 C 118.955 0.350053 4.55657 0
M  V30 1278 C 119.952 1.19372 5.0601 0
M  V30 1279 C 117.637 0.504827 4.99757 0
M  V30 1280 C 119.631 2.17768 5.99046 0
M  V30 1281 C 117.318 1.49218 5.92602 0
M  V30 1282 C 118.316 2.32706 6.42135 0
M  V30 1283 O 118.004 3.2976 7.33153 0
M  V30 1284 H 117.736 -0.0515469 0.674032 0
M  V30 1285 H 120.29 0.497559 1.99282 0
M  V30 1286 H 118.52 -1.52483 3.55367 0
M  V30 1287 H 120.209 -1.24336 3.86388 0
M  V30 1288 H 120.975 1.08525 4.72702 0
M  V30 1289 H 116.854 -0.135178 4.60802 0
M  V30 1290 H 120.398 2.82971 6.37631 0
M  V30 1291 H 116.295 1.6012 6.25325 0
M  V30 1292 H 117.063 3.25265 7.51096 0
M  V30 1293 N 119.726 -1.57421 0.075193 0
M  V30 1294 C 120.975 -1.92794 -0.592731 0
M  V30 1295 C 121.288 -0.957478 -1.70563 0
M  V30 1296 O 122.494 -1.20417 -2.43335 0
M  V30 1297 C 120.95 -3.42495 -1.10569 0
M  V30 1298 C 120.558 -4.47994 -0.0236121 0
M  V30 1299 C 122.302 -3.86864 -1.74748 0
M  V30 1300 C 120.209 -5.88829 -0.550803 0
M  V30 1301 H 119.139 -0.719591 -0.225177 0
M  V30 1302 H 121.79 -1.82902 0.147978 0
M  V30 1303 H 120.172 -3.47471 -1.89947 0
M  V30 1304 H 121.346 -4.54637 0.751099 0
M  V30 1305 H 119.661 -4.13113 0.522159 0
M  V30 1306 H 122.258 -4.8947 -2.15229 0
M  V30 1307 H 122.601 -3.24417 -2.60882 0
M  V30 1308 H 123.134 -3.84504 -1.01986 0
M  V30 1309 H 119.873 -6.54929 0.273457 0
M  V30 1310 H 119.393 -5.85698 -1.29296 0
M  V30 1311 H 121.072 -6.38811 -1.02613 0
M  V30 1312 N 121.204 0.198386 -1.56346 0
M  V30 1313 C 122.114 1.2664 -1.97483 0
M  V30 1314 C 123.13 1.49989 -0.882002 0
M  V30 1315 O 124.306 1.62668 -1.18748 0
M  V30 1316 C 121.371 2.59141 -2.30319 0
M  V30 1317 C 120.432 2.43892 -3.53292 0
M  V30 1318 C 119.665 3.70074 -3.84553 0
M  V30 1319 O 119.888 4.74101 -3.1715 0
M  V30 1320 O 118.822 3.658 -4.7799 0
M  V30 1321 H 122.648 0.947304 -2.88548 0
M  V30 1322 H 120.233 0.403123 -1.43859 0
M  V30 1323 H 122.115 3.37352 -2.5253 0
M  V30 1324 H 120.79 2.90684 -1.42423 0
M  V30 1325 H 119.697 1.63803 -3.36332 0
M  V30 1326 H 121.03 2.17282 -4.41644 0
M  V30 1327 N 122.682 1.50554 0.465978 0
M  V30 1328 C 123.907 1.65838 1.24549 0
M  V30 1329 C 124.332 0.343486 1.84937 0
M  V30 1330 O 123.69 -0.69324 1.67523 0
M  V30 1331 C 123.738 2.75533 2.32624 0
M  V30 1332 O 122.842 2.37142 3.37398 0
M  V30 1333 H 122.183 0.553893 0.366194 0
M  V30 1334 H 124.713 1.96959 0.553927 0
M  V30 1335 H 124.723 2.98763 2.77857 0
M  V30 1336 H 123.398 3.70962 1.88043 0
M  V30 1337 H 121.975 2.24377 2.97841 0
M  V30 1338 N 124.16 -0.719506 1.40217 0
M  V30 1339 C 125.437 -1.47221 1.28784 0
M  V30 1340 C 125.817 -2.10883 -0.0956067 0
M  V30 1341 O 125.165 -1.99833 -1.10811 0
M  V30 1342 C 125.375 -2.5111 2.42373 0
M  V30 1343 C 126.723 -3.17053 2.82423 0
M  V30 1344 O 127.747 -2.61429 2.41937 0
M  V30 1345 O 126.606 -4.17742 3.52355 0
M  V30 1346 H 123.7 -0.654491 0.50554 0
M  V30 1347 H 126.246 -0.752014 1.52128 0
M  V30 1348 H 125.018 -2.02556 3.34793 0
M  V30 1349 H 124.641 -3.3067 2.20778 0
M  V30 1350 N 125.638 -1.25649 -0.95132 0
M  V30 1351 C 126.601 -1.06399 -2.03007 0
M  V30 1352 C 127.601 -0.0156794 -1.60792 0
M  V30 1353 O 128.791 -0.25817 -1.72276 0
M  V30 1354 C 125.923 -0.616184 -3.35285 0
M  V30 1355 H 127.116 -2.02164 -2.21517 0
M  V30 1356 H 124.669 -1.08103 -1.12887 0
M  V30 1357 H 125.404 0.343917 -3.22471 0
M  V30 1358 H 125.189 -1.37301 -3.67275 0
M  V30 1359 H 126.679 -0.503032 -4.14559 0
M  V30 1360 N 127.117 1.15442 -1.07289 0
M  V30 1361 C 128.363 1.8672 -0.806679 0
M  V30 1362 C 128.718 1.80723 0.660084 0
M  V30 1363 O 128.011 1.21902 1.47819 0
M  V30 1364 C 128.205 3.3489 -1.24834 0
M  V30 1365 C 128.034 3.55313 -2.7565 0
M  V30 1366 C 126.804 3.7082 -3.4325 0
M  V30 1367 C 129.002 3.53188 -3.73848 0
M  V30 1368 N 126.984 3.7929 -4.82713 0
M  V30 1369 C 128.355 3.67765 -4.99149 0
M  V30 1370 C 130.41 3.36459 -3.67015 0
M  V30 1371 C 129.113 3.6734 -6.18428 0
M  V30 1372 C 131.139 3.37333 -4.85758 0
M  V30 1373 C 130.501 3.52438 -6.09891 0
M  V30 1374 H 126.6 0.700433 -0.347733 0
M  V30 1375 H 129.184 1.38441 -1.36902 0
M  V30 1376 H 127.355 3.81786 -0.713713 0
M  V30 1377 H 129.087 3.93875 -0.929745 0
M  V30 1378 H 125.842 3.71568 -2.93656 0
M  V30 1379 H 126.266 3.8727 -5.55294 0
M  V30 1380 H 130.908 3.237 -2.71989 0
M  V30 1381 H 128.626 3.78878 -7.13777 0
M  V30 1382 H 132.212 3.25617 -4.82146 0
M  V30 1383 H 131.092 3.53047 -7.00234 0
M  V30 1384 N 128.595 0.856903 1.32268 0
M  V30 1385 C 129.527 0.260412 2.27716 0
M  V30 1386 C 130.54 -0.569137 1.52528 0
M  V30 1387 O 131.729 -0.39326 1.74114 0
M  V30 1388 C 128.829 -0.650477 3.32599 0
M  V30 1389 C 128.002 0.14372 4.37164 0
M  V30 1390 C 127.061 -0.69328 5.21613 0
M  V30 1391 O 126.087 -0.12599 5.69061 0
M  V30 1392 N 127.289 -2.00761 5.44679 0
M  V30 1393 H 130.054 1.08059 2.79541 0
M  V30 1394 H 127.615 0.717103 1.45152 0
M  V30 1395 H 129.607 -1.21581 3.86005 0
M  V30 1396 H 128.177 -1.37133 2.80915 0
M  V30 1397 H 127.397 0.890486 3.8401 0
M  V30 1398 H 128.685 0.68915 5.04111 0
M  V30 1399 H 128.083 -2.49181 5.07863 0
M  V30 1400 H 126.64 -2.52103 6.01072 0
M  V30 1401 N 130.073 -1.45103 0.615059 0
M  V30 1402 C 130.983 -2.34382 -0.101034 0
M  V30 1403 C 131.999 -1.51681 -0.852585 0
M  V30 1404 O 133.175 -1.8446 -0.808484 0
M  V30 1405 C 130.24 -3.29417 -1.08099 0
M  V30 1406 C 129.301 -4.28025 -0.330577 0
M  V30 1407 C 128.534 -5.1852 -1.26385 0
M  V30 1408 O 128.757 -5.12598 -2.50198 0
M  V30 1409 O 127.691 -5.97122 -0.756866 0
M  V30 1410 H 131.517 -2.97033 0.632855 0
M  V30 1411 H 129.102 -1.4461 0.375293 0
M  V30 1412 H 130.984 -3.87958 -1.6452 0
M  V30 1413 H 129.659 -2.69321 -1.79577 0
M  V30 1414 H 128.566 -3.73078 0.276283 0
M  V30 1415 H 129.899 -4.90997 0.343866 0
M  V30 1416 N 131.551 -0.354651 -1.53558 0
M  V30 1417 C 132.498 0.496968 -2.25386 0
M  V30 1418 C 133.468 1.0865 -1.25636 0
M  V30 1419 O 134.653 1.12104 -1.54394 0
M  V30 1420 C 131.793 1.63637 -3.03837 0
M  V30 1421 C 130.906 1.07307 -4.18461 0
M  V30 1422 C 130.041 2.18068 -4.84376 0
M  V30 1423 C 129.08 1.59147 -5.91049 0
M  V30 1424 N 128.217 2.63695 -6.50699 0
M  V30 1425 H 133.057 -0.122075 -2.9775 0
M  V30 1426 H 130.594 -0.0720154 -1.46924 0
M  V30 1427 H 132.552 2.30734 -3.47589 0
M  V30 1428 H 131.182 2.22623 -2.33749 0
M  V30 1429 H 130.234 0.292708 -3.79272 0
M  V30 1430 H 131.546 0.602193 -4.95152 0
M  V30 1431 H 130.7 2.93007 -5.31255 0
M  V30 1432 H 129.439 2.68504 -4.07133 0
M  V30 1433 H 128.444 0.827175 -5.43542 0
M  V30 1434 H 129.669 1.09549 -6.70206 0
M  V30 1435 H 127.615 3.13365 -5.76315 0
M  V30 1436 H 127.532 2.21263 -7.22896 0
M  V30 1437 H 128.8 3.3837 -7.02229 0
M  V30 1438 N 133.029 1.57378 -0.0835403 0
M  V30 1439 C 134.306 1.85363 0.624507 0
M  V30 1440 C 134.686 0.978239 1.87066 0
M  V30 1441 O 134.034 0.0475908 2.2845 0
M  V30 1442 C 134.244 3.35795 0.950947 0
M  V30 1443 C 135.592 4.03581 1.31939 0
M  V30 1444 O 136.616 3.40609 1.04232 0
M  V30 1445 O 135.475 5.14672 1.83779 0
M  V30 1446 H 132.569 0.766162 0.311329 0
M  V30 1447 H 135.115 1.69307 -0.115362 0
M  V30 1448 H 133.887 3.91244 0.0663899 0
M  V30 1449 H 133.51 3.57154 1.74719 0
M  V30 1450 N 134.507 -0.190092 1.56449 0
M  V30 1451 C 135.454 -1.23557 1.94942 0
M  V30 1452 C 136.424 -1.44972 0.810696 0
M  V30 1453 O 137.609 -1.58023 1.06927 0
M  V30 1454 C 134.749 -2.57416 2.2985 0
M  V30 1455 C 133.862 -2.43537 3.5681 0
M  V30 1456 C 132.997 -3.70134 3.81017 0
M  V30 1457 C 132.036 -3.51109 5.01387 0
M  V30 1458 N 131.173 -4.6973 5.21822 0
M  V30 1459 H 136.013 -0.900304 2.84075 0
M  V30 1460 H 133.55 -0.43318 1.40577 0
M  V30 1461 H 135.508 -3.35409 2.48106 0
M  V30 1462 H 134.138 -2.88975 1.43852 0
M  V30 1463 H 133.19 -1.56816 3.46573 0
M  V30 1464 H 134.502 -2.25415 4.4496 0
M  V30 1465 H 133.656 -4.56566 3.9954 0
M  V30 1466 H 132.395 -3.91215 2.91207 0
M  V30 1467 H 131.4 -2.63063 4.82782 0
M  V30 1468 H 132.625 -3.31468 5.9271 0
M  V30 1469 H 130.571 -4.91065 4.34961 0
M  V30 1470 H 130.488 -4.54452 6.0416 0
M  V30 1471 H 131.756 -5.57499 5.44808 0
M  V30 1472 N 135.985 -1.50799 -0.457987 0
M  V30 1473 C 136.948 -1.7005 -1.53674 0
M  V30 1474 C 137.948 -0.570881 -1.50325 0
M  V30 1475 O 139.138 -0.838126 -1.52712 0
M  V30 1476 C 136.27 -1.73788 -2.93276 0
M  V30 1477 H 137.463 -2.66306 -1.37917 0
M  V30 1478 H 135.016 -1.40477 -0.685271 0
M  V30 1479 H 135.751 -0.792717 -3.14462 0
M  V30 1480 H 135.536 -2.55864 -2.97113 0
M  V30 1481 H 137.026 -1.90591 -3.71571 0
M  V30 1482 N 137.463 0.71206 -1.40597 0
M  V30 1483 C 138.693 1.49894 -1.42181 0
M  V30 1484 C 139.101 1.89189 -0.0208078 0
M  V30 1485 O 138.444 1.56223 0.966436 0
M  V30 1486 C 138.506 2.80215 -2.25211 0
M  V30 1487 C 138.17 2.63221 -3.73582 0
M  V30 1488 C 139.167 2.30249 -4.66135 0
M  V30 1489 C 136.852 2.79376 -4.17438 0
M  V30 1490 C 138.846 2.13645 -6.00529 0
M  V30 1491 C 136.533 2.6239 -5.51901 0
M  V30 1492 C 137.531 2.29573 -6.43262 0
M  V30 1493 O 137.219 2.12719 -7.75246 0
M  V30 1494 H 136.951 0.469031 -0.486812 0
M  V30 1495 H 139.505 0.88564 -1.85326 0
M  V30 1496 H 137.735 3.4389 -1.76852 0
M  V30 1497 H 139.424 3.41947 -2.18694 0
M  V30 1498 H 140.19 2.17398 -4.33547 0
M  V30 1499 H 136.069 3.03906 -3.46644 0
M  V30 1500 H 139.613 1.87953 -6.71803 0
M  V30 1501 H 135.51 2.74826 -5.84073 0
M  V30 1502 H 136.278 2.27611 -7.86216 0
M  V30 1503 N 138.941 1.26152 0.944643 0
M  V30 1504 C 140.187 1.11657 1.69294 0
M  V30 1505 C 140.52 -0.339926 1.91202 0
M  V30 1506 O 139.795 -1.24994 1.49019 0
M  V30 1507 C 140.078 1.88236 3.06984 0
M  V30 1508 C 139.931 3.41772 2.92424 0
M  V30 1509 C 141.25 1.67343 4.07043 0
M  V30 1510 H 138.369 0.407004 0.614424 0
M  V30 1511 H 141.011 1.55106 1.09737 0
M  V30 1512 H 139.161 1.51308 3.57824 0
M  V30 1513 H 140.833 3.88433 2.48832 0
M  V30 1514 H 139.076 3.68974 2.28124 0
M  V30 1515 H 139.747 3.90579 3.90067 0
M  V30 1516 H 142.223 1.99509 3.65151 0
M  V30 1517 H 141.099 2.23346 5.01406 0
M  V30 1518 H 141.36 0.617158 4.37771 0
M  V30 1519 N 140.419 -1.14872 1.07899 0
M  V30 1520 C 141.351 -2.19425 0.662231 0
M  V30 1521 C 142.364 -1.60231 -0.288079 0
M  V30 1522 O 143.553 -1.78336 -0.076534 0
M  V30 1523 C 140.653 -3.38867 -0.0470695 0
M  V30 1524 C 139.826 -4.27597 0.920831 0
M  V30 1525 C 138.885 -5.25616 0.247805 0
M  V30 1526 O 137.911 -5.62189 0.890599 0
M  V30 1527 N 139.113 -5.71746 -1.00435 0
M  V30 1528 H 141.878 -2.55797 1.56166 0
M  V30 1529 H 139.439 -1.30042 0.964404 0
M  V30 1530 H 141.431 -4.01497 -0.50813 0
M  V30 1531 H 140.001 -3.00864 -0.848523 0
M  V30 1532 H 139.221 -3.61982 1.56087 0
M  V30 1533 H 140.509 -4.83748 1.57688 0
M  V30 1534 H 139.907 -5.44153 -1.54642 0
M  V30 1535 H 138.464 -6.36389 -1.40899 0
M  V30 1536 N 141.898 -0.863906 -1.31812 0
M  V30 1537 C 142.861 -0.320212 -2.26952 0
M  V30 1538 C 143.861 0.525369 -1.51975 0
M  V30 1539 O 145.051 0.335547 -1.70938 0
M  V30 1540 C 142.183 0.545919 -3.365 0
M  V30 1541 H 143.376 -1.16004 -2.76556 0
M  V30 1542 H 140.929 -0.638995 -1.42641 0
M  V30 1543 H 141.664 1.40718 -2.92179 0
M  V30 1544 H 141.449 -0.0594674 -3.92055 0
M  V30 1545 H 142.939 0.918796 -4.07367 0
M  V30 1546 N 143.376 1.44774 -0.622745 0
M  V30 1547 C 144.792 1.56986 -0.287652 0
M  V30 1548 C 144.992 1.61167 1.20944 0
M  V30 1549 O 144.048 1.55015 1.99315 0
M  V30 1550 C 145.361 2.84551 -0.972188 0
M  V30 1551 C 146.909 2.9825 -0.949536 0
M  V30 1552 C 147.384 4.28605 -1.61437 0
M  V30 1553 N 148.875 4.35399 -1.58057 0
M  V30 1554 C 149.61 5.34964 -2.064 0
M  V30 1555 N 149.106 6.40981 -2.62897 0
M  V30 1556 N 150.899 5.26419 -1.97078 0
M  V30 1557 H 143.05 1.40304 -1.59463 0
M  V30 1558 H 145.313 0.671794 -0.668878 0
M  V30 1559 H 145.019 2.87417 -2.02693 0
M  V30 1560 H 144.893 3.73807 -0.504771 0
M  V30 1561 H 147.28 2.94941 0.0967067 0
M  V30 1562 H 147.361 2.10364 -1.45536 0
M  V30 1563 H 147.005 4.32672 -2.66002 0
M  V30 1564 H 146.935 5.15334 -1.08344 0
M  V30 1565 H 149.426 3.59397 -1.16801 0
M  V30 1566 H 149.739 7.13225 -2.97539 0
M  V30 1567 H 148.084 6.4169 -2.66943 0
M  V30 1568 H 151.275 4.42504 -1.52669 0
M  V30 1569 H 151.448 6.03861 -2.35066 0
M  V30 1570 N 144.854 0.36279 1.53368 0
M  V30 1571 C 146.1 -0.228113 2.01513 0
M  V30 1572 C 146.433 -1.48648 1.2497 0
M  V30 1573 O 145.708 -1.91459 0.342616 0
M  V30 1574 C 145.991 -0.522884 3.56284 0
M  V30 1575 C 145.844 0.74892 4.43521 0
M  V30 1576 C 147.163 -1.32461 4.19693 0
M  V30 1577 H 144.282 -0.0814343 0.732487 0
M  V30 1578 H 146.924 0.48713 1.83649 0
M  V30 1579 H 145.074 -1.1322 3.71636 0
M  V30 1580 H 146.746 1.38648 4.39971 0
M  V30 1581 H 144.989 1.36986 4.11603 0
M  V30 1582 H 145.66 0.497667 5.49752 0
M  V30 1583 H 148.136 -0.809203 4.08156 0
M  V30 1584 H 147.012 -1.49961 5.28018 0
M  V30 1585 H 147.273 -2.33232 3.75573 0
M  V30 1586 N 146.332 -1.57332 0.0918853 0
M  V30 1587 C 147.262 -2.16872 -0.865371 0
M  V30 1588 C 148.243 -1.10118 -1.29646 0
M  V30 1589 O 149.428 -1.38242 -1.36392 0
M  V30 1590 C 146.558 -2.74649 -2.12569 0
M  V30 1591 C 145.512 -3.86747 -1.83333 0
M  V30 1592 C 144.838 -4.31212 -3.16166 0
M  V30 1593 C 146.138 -5.10089 -1.1228 0
M  V30 1594 H 147.832 -2.97114 -0.369307 0
M  V30 1595 H 145.378 -1.42918 -0.176194 0
M  V30 1596 H 147.331 -3.14952 -2.7997 0
M  V30 1597 H 146.055 -1.91657 -2.64452 0
M  V30 1598 H 144.714 -3.46978 -1.18331 0
M  V30 1599 H 144.362 -3.45115 -3.6593 0
M  V30 1600 H 144.062 -5.06788 -2.97388 0
M  V30 1601 H 145.586 -4.74146 -3.84731 0
M  V30 1602 H 147 -5.47582 -1.69785 0
M  V30 1603 H 145.397 -5.91073 -1.03693 0
M  V30 1604 H 146.467 -4.84786 -0.105041 0
M  V30 1605 N 147.81 0.181792 -1.56548 0
M  V30 1606 C 148.72 1.24538 -1.98815 0
M  V30 1607 C 149.736 1.49045 -0.897861 0
M  V30 1608 O 150.912 1.61399 -1.20467 0
M  V30 1609 C 147.977 2.56683 -2.33055 0
M  V30 1610 C 147.038 2.40131 -3.55859 0
M  V30 1611 C 146.271 3.65975 -3.88456 0
M  V30 1612 O 146.494 4.70711 -3.22161 0
M  V30 1613 O 145.428 3.6071 -4.81842 0
M  V30 1614 H 149.254 0.916647 -2.89536 0
M  V30 1615 H 146.839 0.387842 -1.44278 0
M  V30 1616 H 148.721 3.34655 -2.56094 0
M  V30 1617 H 147.396 2.89157 -1.45498 0
M  V30 1618 H 146.303 1.60226 -3.38051 0
M  V30 1619 H 147.636 2.12585 -4.43924 0
M  V30 1620 N 149.288 1.51039 0.449983 0
M  V30 1621 C 150.513 1.6715 1.22783 0
M  V30 1622 C 150.938 0.363081 1.84563 0
M  V30 1623 O 150.296 -0.675433 1.68249 0
M  V30 1624 C 150.344 2.77985 2.29689 0
M  V30 1625 O 149.448 2.40707 3.34864 0
M  V30 1626 H 148.789 0.557746 0.360299 0
M  V30 1627 H 151.319 1.97535 0.533005 0
M  V30 1628 H 151.329 3.01693 2.74673 0
M  V30 1629 H 150.004 3.72935 1.84098 0
M  V30 1630 H 148.581 2.27523 2.95445 0
M  V30 1631 N 150.766 -0.704594 1.40972 0
M  V30 1632 C 151.996 -1.49138 1.42974 0
M  V30 1633 C 152.404 -1.89175 0.0308406 0
M  V30 1634 O 151.747 -1.56734 -0.958138 0
M  V30 1635 C 151.809 -2.79016 2.26694 0
M  V30 1636 C 151.473 -2.61236 3.74973 0
M  V30 1637 C 152.47 -2.27773 4.67349 0
M  V30 1638 C 150.155 -2.77158 4.18914 0
M  V30 1639 C 152.149 -2.10457 6.01653 0
M  V30 1640 C 149.836 -2.59459 5.53285 0
M  V30 1641 C 150.834 -2.26158 6.4447 0
M  V30 1642 O 150.522 -2.08605 7.76363 0
M  V30 1643 H 150.254 -0.466443 0.489292 0
M  V30 1644 H 152.808 -0.8758 1.85793 0
M  V30 1645 H 151.038 -3.42947 1.78673 0
M  V30 1646 H 152.727 -3.40782 2.20504 0
M  V30 1647 H 153.493 -2.15095 4.34694 0
M  V30 1648 H 149.372 -3.02064 3.48251 0
M  V30 1649 H 152.916 -1.84387 6.72791 0
M  V30 1650 H 148.813 -2.71725 5.85522 0
M  V30 1651 H 149.581 -2.23439 7.87412 0
M  V30 1652 N 152.244 -1.26651 -0.937939 0
M  V30 1653 C 153.66 -1.03834 -1.21205 0
M  V30 1654 C 153.86 0.234502 -2.00131 0
M  V30 1655 O 152.916 0.942767 -2.3424 0
M  V30 1656 C 154.229 -2.27167 -1.97017 0
M  V30 1657 C 155.777 -2.32101 -2.09996 0
M  V30 1658 C 156.252 -3.55136 -2.8921 0
M  V30 1659 N 157.743 -3.55632 -2.96783 0
M  V30 1660 C 158.478 -4.475 -3.58512 0
M  V30 1661 N 157.974 -5.4966 -4.21717 0
M  V30 1662 N 159.767 -4.35145 -3.55816 0
M  V30 1663 H 151.918 -2.08398 -0.410391 0
M  V30 1664 H 154.181 -0.916031 -0.244114 0
M  V30 1665 H 153.887 -3.19765 -1.46434 0
M  V30 1666 H 153.761 -2.31672 -2.97671 0
M  V30 1667 H 156.148 -1.40015 -2.59769 0
M  V30 1668 H 156.229 -2.31605 -1.08594 0
M  V30 1669 H 155.873 -4.47553 -2.40123 0
M  V30 1670 H 155.803 -3.5288 -3.90875 0
M  V30 1671 H 158.294 -2.81743 -2.51852 0
M  V30 1672 H 158.607 -6.15943 -4.66727 0
M  V30 1673 H 156.952 -5.53514 -4.20294 0
M  V30 1674 H 160.143 -3.5455 -3.05634 0
M  V30 1675 H 160.316 -5.06934 -4.03636 0
M  V30 1676 N 153.722 1.14298 -1.08507 0
M  V30 1677 C 154.947 1.8976 -0.837001 0
M  V30 1678 C 155.372 1.78097 0.605228 0
M  V30 1679 O 154.73 1.12188 1.4242 0
M  V30 1680 C 154.778 3.37685 -1.26495 0
M  V30 1681 O 153.882 4.10281 -0.417514 0
M  V30 1682 H 153.223 0.590365 -0.303917 0
M  V30 1683 H 155.753 1.44672 -1.44676 0
M  V30 1684 H 155.763 3.88501 -1.24625 0
M  V30 1685 H 154.438 3.45492 -2.31534 0
M  V30 1686 H 153.015 3.69536 -0.499722 0
M  V30 1687 N 155.201 0.870884 1.31352 0
M  V30 1688 C 156.441 0.488783 1.9847 0
M  V30 1689 C 156.805 -0.941536 1.67329 0
M  V30 1690 O 158.006 -1.42903 2.27667 0
M  V30 1691 C 156.277 0.739688 3.49662 0
M  V30 1692 S 157.836 0.457582 4.36408 0
M  V30 1693 H 154.654 0.18242 0.6872 0
M  V30 1694 H 157.256 1.12711 1.59739 0
M  V30 1695 H 155.96 1.77944 3.69816 0
M  V30 1696 H 155.491 0.0883905 3.93301 0
M  V30 1697 H 157.506 -0.709752 4.91098 0
M  V30 1698 N 156.679 -1.44442 0.630414 0
M  V30 1699 C 157.909 -2.06115 0.141465 0
M  V30 1700 C 158.317 -1.47179 -1.1889 0
M  V30 1701 O 157.66 -0.588873 -1.74006 0
M  V30 1702 C 157.722 -3.59467 -0.0484355 0
M  V30 1703 C 157.386 -4.40864 1.20366 0
M  V30 1704 C 158.383 -4.74391 2.12719 0
M  V30 1705 C 156.068 -4.8125 1.43887 0
M  V30 1706 C 158.062 -5.47186 3.26904 0
M  V30 1707 C 155.749 -5.53795 2.5837 0
M  V30 1708 C 156.747 -5.86682 3.49705 0
M  V30 1709 O 156.435 -6.57749 4.62191 0
M  V30 1710 H 156.167 -0.671648 0.0765792 0
M  V30 1711 H 158.721 -1.86312 0.864695 0
M  V30 1712 H 156.951 -3.77758 -0.826803 0
M  V30 1713 H 158.64 -4.02909 -0.491849 0
M  V30 1714 H 159.406 -4.43728 1.95781 0
M  V30 1715 H 155.285 -4.55073 0.736853 0
M  V30 1716 H 158.829 -5.72773 3.98217 0
M  V30 1717 H 154.726 -5.83872 2.75251 0
M  V30 1718 H 155.494 -6.76217 4.61164 0
M  V30 1719 N 158.157 -0.370918 -1.53173 0
M  V30 1720 C 159.403 0.217423 -2.01631 0
M  V30 1721 C 159.736 1.47983 -1.25756 0
M  V30 1722 O 159.011 1.91274 -0.352764 0
M  V30 1723 C 159.294 0.503982 -3.56556 0
M  V30 1724 C 159.147 -0.77243 -4.43118 0
M  V30 1725 C 160.466 1.30234 -4.20389 0
M  V30 1726 H 157.585 0.0775486 -0.732909 0
M  V30 1727 H 160.227 -0.496863 -1.83388 0
M  V30 1728 H 158.377 1.11248 -3.72231 0
M  V30 1729 H 160.049 -1.4098 -4.39229 0
M  V30 1730 H 158.292 -1.39167 -4.10871 0
M  V30 1731 H 158.963 -0.526815 -5.4948 0
M  V30 1732 H 161.439 0.787546 -4.08579 0
M  V30 1733 H 160.315 1.47158 -5.28806 0
M  V30 1734 H 160.576 2.31237 -3.76805 0
M  V30 1735 N 159.635 1.57281 -0.100228 0
M  V30 1736 C 160.881 1.94826 0.563101 0
M  V30 1737 C 161.214 0.982475 1.67514 0
M  V30 1738 O 160.489 0.0164069 1.94493 0
M  V30 1739 C 160.772 3.42453 1.11346 0
M  V30 1740 C 160.625 4.498 0.00612081 0
M  V30 1741 C 161.944 3.91506 2.01024 0
M  V30 1742 H 159.063 0.708428 0.203221 0
M  V30 1743 H 161.705 1.8922 -0.171979 0
M  V30 1744 H 159.855 3.47361 1.7399 0
M  V30 1745 H 161.527 4.57 -0.628357 0
M  V30 1746 H 159.77 4.28756 -0.659581 0
M  V30 1747 H 160.441 5.50306 0.432109 0
M  V30 1748 H 162.917 3.88784 1.48278 0
M  V30 1749 H 161.793 4.95358 2.36457 0
M  V30 1750 H 162.054 3.31099 2.92961 0
M  V30 1751 N 161.113 -0.173488 1.56642 0
M  V30 1752 C 162.023 -1.23482 1.99473 0
M  V30 1753 C 163.039 -1.48567 0.905752 0
M  V30 1754 O 164.215 -1.60758 1.21321 0
M  V30 1755 C 161.28 -2.55444 2.34413 0
M  V30 1756 C 160.341 -2.38241 3.57127 0
M  V30 1757 C 159.574 -3.63909 3.90392 0
M  V30 1758 O 159.797 -4.68996 3.24653 0
M  V30 1759 O 158.731 -3.58149 4.83749 0
M  V30 1760 H 162.557 -0.901279 2.90018 0
M  V30 1761 H 160.142 -0.380185 1.44482 0
M  V30 1762 H 162.024 -3.33292 2.57865 0
M  V30 1763 H 160.699 -2.88382 1.4703 0
M  V30 1764 H 159.606 -1.58431 3.38896 0
M  V30 1765 H 160.939 -2.10228 4.45045 0
M  V30 1766 N 162.591 -1.51276 -0.441967 0
M  V30 1767 C 163.539 -1.72823 -1.55676 0
M  V30 1768 C 164.533 -0.59445 -1.58627 0
M  V30 1769 O 165.739 -0.775715 -1.62427 0
M  V30 1770 H 162.114 -0.545983 -0.517113 0
M  V30 1771 H 164.085 -2.6628 -1.34675 0
M  V30 1772 C 162.834 -1.86619 -2.93375 0
M  V30 1773 H 162.157 -2.73264 -2.91834 0
M  V30 1774 H 163.597 -2.05709 -3.70756 0
M  V30 1775 C 162.056 -0.624842 -3.31055 0
M  V30 1776 O 162.586 0.222636 -4.01083 0
M  V30 1777 N 160.792 -0.470288 -2.86769 0
M  V30 1778 H 160.339 -1.161 -2.29953 0
M  V30 1779 H 160.297 0.359051 -3.12343 0
M  V30 1780 N 164.069 0.697108 -1.41344 0
M  V30 1781 C 165.019 1.80313 -1.39539 0
M  V30 1782 C 166.003 1.58618 -0.270001 0
M  V30 1783 O 167.195 1.69477 -0.510551 0
M  V30 1784 C 164.324 3.18606 -1.27848 0
M  V30 1785 C 163.41 3.46001 -2.45244 0
M  V30 1786 N 163.801 3.44103 -3.70711 0
M  V30 1787 C 162.099 3.76542 -2.39023 0
M  V30 1788 C 162.8 3.7036 -4.48563 0
M  V30 1789 N 161.776 3.90027 -3.78655 0
M  V30 1790 H 165.578 1.77207 -2.34468 0
M  V30 1791 H 163.092 0.897031 -1.35378 0
M  V30 1792 H 165.089 3.97833 -1.24637 0
M  V30 1793 H 163.749 3.22925 -0.339032 0
M  V30 1794 H 164.76 3.2452 -4.03618 0
M  V30 1795 H 161.437 3.88241 -1.53542 0
M  V30 1796 H 162.827 3.75042 -5.57488 0
M  V30 1797 N 165.547 1.27147 0.931209 0
M  V30 1798 C 166.477 1.12081 2.04842 0
M  V30 1799 C 167.458 0.0232364 1.70084 0
M  V30 1800 O 168.643 0.197085 1.93197 0
M  V30 1801 C 165.773 0.76354 3.38803 0
M  V30 1802 C 164.727 1.81396 3.87659 0
M  V30 1803 C 164.053 1.31075 5.18385 0
M  V30 1804 C 165.353 3.21739 4.11438 0
M  V30 1805 H 167.047 2.05537 2.17703 0
M  V30 1806 H 164.593 0.989603 1.04608 0
M  V30 1807 H 166.546 0.644982 4.16435 0
M  V30 1808 H 165.27 -0.206727 3.25945 0
M  V30 1809 H 163.929 1.92136 3.12217 0
M  V30 1810 H 163.577 0.330037 5.01916 0
M  V30 1811 H 163.277 2.013 5.52044 0
M  V30 1812 H 164.801 1.20506 5.98591 0
M  V30 1813 H 166.215 3.14019 4.79651 0
M  V30 1814 H 164.612 3.89644 4.56397 0
M  V30 1815 H 165.682 3.67054 3.16859 0
M  V30 1816 N 167.025 -1.13721 1.09112 0
M  V30 1817 C 167.988 -2.17222 0.731241 0
M  V30 1818 C 168.988 -1.59035 -0.237566 0
M  V30 1819 O 170.178 -1.74192 -0.0161704 0
M  V30 1820 C 167.31 -3.40804 0.0808443 0
M  V30 1821 H 168.503 -2.50573 1.64783 0
M  V30 1822 H 166.056 -1.28493 0.889897 0
M  V30 1823 H 166.791 -3.1304 -0.847127 0
M  V30 1824 H 166.576 -3.84306 0.777896 0
M  V30 1825 H 168.066 -4.1731 -0.155657 0
M  V30 1826 N 168.503 -0.877838 -1.30888 0
M  V30 1827 C 169.752 -0.488793 -1.95688 0
M  V30 1828 C 170.065 0.965485 -1.70111 0
M  V30 1829 O 171.271 1.46104 -2.28836 0
M  V30 1830 C 169.727 -0.823201 -3.50359 0
M  V30 1831 C 169.335 -2.29477 -3.84765 0
M  V30 1832 C 171.079 -0.503009 -4.21509 0
M  V30 1833 C 168.986 -2.57118 -5.32583 0
M  V30 1834 H 167.916 -0.179062 -0.732429 0
M  V30 1835 H 170.567 -1.07183 -1.48943 0
M  V30 1836 H 168.949 -0.169331 -3.95638 0
M  V30 1837 H 170.123 -2.99236 -3.5042 0
M  V30 1838 H 168.438 -2.58178 -3.267 0
M  V30 1839 H 171.035 -0.68665 -5.30273 0
M  V30 1840 H 171.378 0.557109 -4.12555 0
M  V30 1841 H 171.911 -1.11376 -3.8189 0
M  V30 1842 H 168.65 -3.61843 -5.4658 0
M  V30 1843 H 168.17 -1.91961 -5.68253 0
M  V30 1844 H 169.849 -2.42251 -5.99936 0
M  V30 1845 N 169.982 1.44106 -0.638065 0
M  V30 1846 C 170.892 2.34513 0.0637334 0
M  V30 1847 C 171.908 1.53018 0.828346 0
M  V30 1848 O 173.084 1.85723 0.779036 0
M  V30 1849 C 170.149 3.31095 1.02844 0
M  V30 1850 C 169.21 4.28497 0.26244 0
M  V30 1851 C 168.443 5.20465 1.1812 0
M  V30 1852 O 168.666 5.16514 2.42011 0
M  V30 1853 O 167.6 5.98251 0.661774 0
M  V30 1854 H 171.426 2.95989 -0.68003 0
M  V30 1855 H 169.011 1.43994 -0.398252 0
M  V30 1856 H 170.893 3.90526 1.58327 0
M  V30 1857 H 169.568 2.72144 1.7527 0
M  V30 1858 H 168.475 3.72592 -0.335602 0
M  V30 1859 H 169.808 4.90388 -0.421936 0
M  V30 1860 N 171.46 0.379036 1.52974 0
M  V30 1861 C 172.392 -0.495963 2.2377 0
M  V30 1862 C 173.405 -1.03517 1.25651 0
M  V30 1863 O 174.594 -0.939249 1.51791 0
M  V30 1864 C 171.694 -1.69894 2.93239 0
M  V30 1865 C 170.867 -1.2889 4.17979 0
M  V30 1866 C 169.926 -2.35543 4.70538 0
M  V30 1867 O 168.952 -1.97375 5.33883 0
M  V30 1868 N 170.154 -3.67318 4.49508 0
M  V30 1869 H 172.919 0.110523 2.99496 0
M  V30 1870 H 170.48 0.204878 1.60598 0
M  V30 1871 H 172.472 -2.40747 3.25304 0
M  V30 1872 H 171.042 -2.212 2.20883 0
M  V30 1873 H 170.262 -0.409676 3.92065 0
M  V30 1874 H 171.55 -0.991443 4.99047 0
M  V30 1875 H 170.948 -4.01095 3.98923 0
M  V30 1876 H 169.505 -4.34235 4.8609 0
M  V30 1877 N 172.938 -1.57226 0.108567 0
M  V30 1878 C 174.349 -1.8195 -0.418464 0
M  V30 1879 C 174.7 -1.02508 -1.67292 0
M  V30 1880 O 173.825 -0.258496 -2.14851 0
M  V30 1881 C 174.42 -3.30028 -0.765979 0
M  V30 1882 C 172.979 -3.55469 -1.23769 0
M  V30 1883 C 172.126 -2.7625 -0.241106 0
M  V30 1884 H 175.077 -1.55149 0.33384 0
M  V30 1885 H 175.098 -3.44086 -1.62434 0
M  V30 1886 H 174.61 -3.87821 0.147219 0
M  V30 1887 H 172.711 -3.03022 -2.16814 0
M  V30 1888 H 172.824 -4.6408 -1.19022 0
M  V30 1889 H 171.188 -2.44133 -0.72602 0
M  V30 1890 H 171.971 -3.36797 0.665007 0
M  V30 1891 N 174.416 0.165178 -1.56732 0
M  V30 1892 C 175.364 1.22369 -1.97809 0
M  V30 1893 C 176.358 1.45488 -0.867741 0
M  V30 1894 O 177.564 1.45995 -1.05288 0
M  V30 1895 H 173.939 0.411486 -0.629431 0
M  V30 1896 H 175.91 0.850425 -2.86025 0
M  V30 1897 C 174.659 2.55403 -2.35934 0
M  V30 1898 H 173.982 2.38438 -3.20916 0
M  V30 1899 H 175.422 3.2814 -2.68514 0
M  V30 1900 C 173.881 3.14611 -1.20506 0
M  V30 1901 O 174.411 3.98626 -0.496016 0
M  V30 1902 N 172.617 2.7379 -0.97403 0
M  V30 1903 H 172.164 2.0557 -1.55238 0
M  V30 1904 H 172.122 3.1374 -0.203573 0
M  V30 1905 N 175.894 1.51508 0.433938 0
M  V30 1906 C 177.122 1.68157 1.20543 0
M  V30 1907 C 177.537 0.380362 1.84929 0
M  V30 1908 O 176.894 -0.641446 1.70856 0
M  V30 1909 C 176.945 2.79965 2.28696 0
M  V30 1910 O 176.666 4.05045 1.66943 0
M  V30 1911 C 178.167 3.07912 3.18912 0
M  V30 1912 H 175.387 0.56421 0.363191 0
M  V30 1913 H 177.931 1.97941 0.513754 0
M  V30 1914 H 176.086 2.5277 2.93574 0
M  V30 1915 H 176.5 4.67165 2.38448 0
M  V30 1916 H 177.974 3.89719 3.90926 0
M  V30 1917 H 178.451 2.20456 3.79863 0
M  V30 1918 H 179.057 3.36779 2.59731 0
M  V30 1919 N 177.372 -0.689602 1.41712 0
M  V30 1920 C 178.322 -1.79571 1.40493 0
M  V30 1921 C 179.306 -1.58473 0.278409 0
M  V30 1922 O 180.498 -1.69204 0.519532 0
M  V30 1923 C 177.627 -3.17923 1.29536 0
M  V30 1924 C 176.713 -3.44695 2.47075 0
M  V30 1925 N 177.104 -3.42132 3.72531 0
M  V30 1926 C 175.402 -3.75269 2.41017 0
M  V30 1927 C 176.103 -3.67976 4.50521 0
M  V30 1928 N 175.079 -3.88014 3.80718 0
M  V30 1929 H 178.881 -1.75961 2.35404 0
M  V30 1930 H 176.395 -0.889839 1.35851 0
M  V30 1931 H 178.392 -3.97167 1.26745 0
M  V30 1932 H 177.052 -3.22741 0.356153 0
M  V30 1933 H 178.063 -3.22375 4.05333 0
M  V30 1934 H 174.74 -3.87421 1.55599 0
M  V30 1935 H 176.13 -3.7208 5.59469 0
M  V30 1936 N 178.85 -1.27639 -0.924453 0
M  V30 1937 C 179.78 -1.13166 -2.04244 0
M  V30 1938 C 180.761 -0.032256 -1.70069 0
M  V30 1939 O 181.946 -0.207328 -1.9309 0
M  V30 1940 C 179.076 -0.781496 -3.38393 0
M  V30 1941 C 178.03 -1.83449 -3.86692 0
M  V30 1942 C 177.356 -1.33822 -5.17683 0
M  V30 1943 C 178.656 -3.23917 -4.09726 0
M  V30 1944 H 180.35 -2.06689 -2.1661 0
M  V30 1945 H 177.896 -0.995136 -1.04082 0
M  V30 1946 H 179.849 -0.667057 -4.16087 0
M  V30 1947 H 178.573 0.189439 -3.2605 0
M  V30 1948 H 177.232 -1.93789 -3.11193 0
M  V30 1949 H 176.88 -0.35665 -5.01734 0
M  V30 1950 H 176.58 -2.04224 -5.50968 0
M  V30 1951 H 178.104 -1.23679 -5.97943 0
M  V30 1952 H 179.518 -3.16559 -4.77978 0
M  V30 1953 H 177.915 -3.92059 -4.54324 0
M  V30 1954 H 178.985 -3.68729 -3.14908 0
M  V30 1955 N 180.328 1.1314 -1.09713 0
M  V30 1956 C 181.739 1.66029 -0.853885 0
M  V30 1957 C 182.09 1.86241 0.617142 0
M  V30 1958 O 181.215 1.5834 1.47503 0
M  V30 1959 C 181.81 3.01599 -1.5435 0
M  V30 1960 C 180.369 3.51467 -1.34714 0
M  V30 1961 C 179.516 2.26648 -1.59769 0
M  V30 1962 H 182.467 0.970226 -1.25588 0
M  V30 1963 H 182.488 3.67709 -0.978267 0
M  V30 1964 H 182 2.86856 -2.6141 0
M  V30 1965 H 180.101 3.71408 -0.297838 0
M  V30 1966 H 180.214 4.314 -2.08401 0
M  V30 1967 H 178.578 2.33385 -1.01998 0
M  V30 1968 H 179.361 2.14467 -2.68065 0
M  V30 1969 N 181.806 0.884767 1.30421 0
M  V30 1970 C 182.716 0.355398 2.31892 0
M  V30 1971 C 183.732 -0.542261 1.65335 0
M  V30 1972 O 184.908 -0.435432 1.96637 0
M  V30 1973 C 181.973 -0.421661 3.44126 0
M  V30 1974 C 181.034 0.505727 4.26311 0
M  V30 1975 C 180.267 -0.234343 5.33185 0
M  V30 1976 O 180.49 -1.46045 5.51386 0
M  V30 1977 O 179.424 0.415443 6.00465 0
M  V30 1978 H 183.25 1.19685 2.79122 0
M  V30 1979 H 180.835 0.648596 1.34587 0
M  V30 1980 H 182.717 -0.861641 4.12497 0
M  V30 1981 H 181.392 -1.23942 2.99032 0
M  V30 1982 H 180.299 0.994513 3.60639 0
M  V30 1983 H 181.632 1.28948 4.75009 0
M  V30 1984 N 183.284 -1.43765 0.645699 0
M  V30 1985 C 184.512 -2.06253 0.163556 0
M  V30 1986 C 184.927 -1.48352 -1.16778 0
M  V30 1987 O 184.284 -0.611932 -1.71935 0
M  V30 1988 C 184.335 -3.61453 0.0583186 0
M  V30 1989 O 184.056 -4.172 1.33702 0
M  V30 1990 C 185.557 -4.41002 -0.450795 0
M  V30 1991 H 182.777 -0.665413 0.0864077 0
M  V30 1992 H 185.321 -1.84396 0.884222 0
M  V30 1993 H 183.476 -3.82522 -0.612865 0
M  V30 1994 H 183.89 -5.10791 1.19131 0
M  V30 1995 H 185.364 -5.49966 -0.473403 0
M  V30 1996 H 185.841 -4.13488 -1.48068 0
M  V30 1997 H 186.447 -4.24886 0.187637 0
M  V30 1998 N 184.763 -0.387143 -1.52771 0
M  V30 1999 C 185.71 0.449048 -2.26389 0
M  V30 2000 C 186.68 1.05961 -1.27912 0
M  V30 2001 O 187.865 1.08804 -1.56737 0
M  V30 2002 C 185.005 1.57155 -3.0724 0
M  V30 2003 C 184.118 0.984066 -4.20643 0
M  V30 2004 C 183.253 2.07745 -4.88892 0
M  V30 2005 C 182.292 1.46574 -5.94292 0
M  V30 2006 N 181.429 2.49834 -6.56146 0
M  V30 2007 H 186.269 -0.185205 -2.97424 0
M  V30 2008 H 183.806 -0.103164 -1.46738 0
M  V30 2009 H 185.764 2.23309 -3.52405 0
M  V30 2010 H 184.394 2.17615 -2.38419 0
M  V30 2011 H 183.446 0.212193 -3.79808 0
M  V30 2012 H 184.758 0.497029 -4.96318 0
M  V30 2013 H 183.912 2.81673 -5.3735 0
M  V30 2014 H 182.651 2.59807 -4.12737 0
M  V30 2015 H 181.656 0.711696 -5.45174 0
M  V30 2016 H 182.881 0.953088 -6.72379 0
M  V30 2017 H 180.827 3.0107 -5.82832 0
M  V30 2018 H 180.744 2.05879 -7.27427 0
M  V30 2019 H 182.012 3.23399 -7.09249 0
M  V30 2020 N 186.241 1.57166 -0.116904 0
M  V30 2021 C 187.652 1.82169 0.408809 0
M  V30 2022 C 188.003 1.03393 1.66746 0
M  V30 2023 O 187.128 0.269886 2.1471 0
M  V30 2024 C 187.723 3.30429 0.748466 0
M  V30 2025 C 186.282 3.5612 1.21882 0
M  V30 2026 C 185.429 2.76374 0.226452 0
M  V30 2027 H 188.38 1.5497 -0.342063 0
M  V30 2028 H 188.401 3.44943 1.60607 0
M  V30 2029 H 187.913 3.87737 -0.167784 0
M  V30 2030 H 186.014 3.04168 2.15204 0
M  V30 2031 H 186.127 4.64705 1.16559 0
M  V30 2032 H 184.491 2.44515 0.713063 0
M  V30 2033 H 185.274 3.3644 -0.682859 0
M  V30 2034 N 187.719 -0.156864 1.56817 0
M  V30 2035 C 188.944 -0.890331 1.87318 0
M  V30 2036 C 189.369 -1.74394 0.704855 0
M  V30 2037 O 188.727 -1.77972 -0.345786 0
M  V30 2038 C 188.775 -1.73102 3.16336 0
M  V30 2039 O 187.879 -2.83422 2.99576 0
M  V30 2040 H 187.22 -0.24857 0.615718 0
M  V30 2041 H 189.75 -0.150649 2.04045 0
M  V30 2042 H 189.76 -2.12803 3.48107 0
M  V30 2043 H 188.435 -1.10412 4.00976 0
M  V30 2044 H 187.012 -2.47199 2.7919 0
M  V30 2045 N 189.197 -1.51736 -0.425897 0
M  V30 2046 C 190.608 -1.5732 -1.00536 0
M  V30 2047 C 190.959 -0.403537 -1.92005 0
M  V30 2048 O 190.084 0.478256 -2.11049 0
M  V30 2049 C 190.679 -2.85119 -1.8301 0
M  V30 2050 C 189.238 -2.93236 -2.35987 0
M  V30 2051 C 188.385 -2.52098 -1.15508 0
M  V30 2052 H 191.336 -1.57348 -0.206739 0
M  V30 2053 H 191.357 -2.69526 -2.68581 0
M  V30 2054 H 190.869 -3.7023 -1.16411 0
M  V30 2055 H 188.97 -2.12581 -3.06007 0
M  V30 2056 H 189.083 -3.9713 -2.68001 0
M  V30 2057 H 187.447 -2.05558 -1.50393 0
M  V30 2058 H 188.23 -3.39565 -0.505014 0
M  V30 2059 O 190.714 0.571711 -1.51042 0
M  V30 2060 H 191.405 1.22676 -1.49901 0
M  V30 END ATOM
M  V30 BEGIN BOND
M  V30 END BOND
M  V30 END CTAB
M  END
$$$$
