drugbank_target|Q836J0 Glutamate racemase (DB07937)
 OpenBabel12092120473D

  0  0  0     0  0            999 V3000
M  V30 BEGIN CTAB
M  V30 COUNTS 4214 4250 0 0 0
M  V30 BEGIN ATOM
M  V30 1 H -0.908 1.98254 -0.117106 0
M  V30 2 N 0 1.576 0 0
M  V30 3 C 0.933 2.03868 1.02534 0
M  V30 4 C 1.911 0.928543 1.3348 0
M  V30 5 O 3.095 1.19667 1.45644 0
M  V30 6 C 0.222 2.43627 2.35294 0
M  V30 7 C -0.732 3.65373 2.2001 0
M  V30 8 S 0.101 5.13292 1.52614 0
M  V30 9 C 1.257 5.56322 2.86805 0
M  V30 10 H 1.49 2.90518 0.631377 0
M  V30 11 H -0.977 1.52953 0.210867 0
M  V30 12 H 0.981 2.67203 3.11629 0
M  V30 13 H -0.358 1.57376 2.7183 0
M  V30 14 H -1.165 3.90944 3.18086 0
M  V30 15 H -1.563 3.418 1.51819 0
M  V30 16 H 0.729 5.58782 3.83104 0
M  V30 17 H 1.672 6.56266 2.65933 0
M  V30 18 H 2.08 4.83886 2.90714 0
M  V30 19 N 1.4781 -0.272755 1.55222 0
M  V30 20 C 2.7031 -1.02683 1.80197 0
M  V30 21 C 3.1281 -1.79142 0.573551 0
M  V30 22 O 2.4861 -1.74917 -0.476849 0
M  V30 23 C 2.5341 -1.9609 3.02624 0
M  V30 24 O 1.6381 -3.04863 2.77727 0
M  V30 25 H 0.9791 -0.293557 0.595584 0
M  V30 26 H 3.5091 -0.30159 2.02365 0
M  V30 27 H 3.5191 -2.38039 3.31363 0
M  V30 28 H 2.1941 -1.39851 3.91682 0
M  V30 29 H 0.7711 -2.67228 2.60084 0
M  V30 30 N 2.9562 -1.48159 -0.537278 0
M  V30 31 C 3.9042 -1.62573 -1.66352 0
M  V30 32 C 4.8982 -0.492366 -1.62087 0
M  V30 33 O 6.1042 -0.670847 -1.67032 0
M  V30 34 H 2.4792 -0.511992 -0.550789 0
M  V30 35 H 4.4502 -2.57176 -1.51337 0
M  V30 36 C 3.1992 -1.67583 -3.04649 0
M  V30 37 H 2.5222 -2.54151 -3.08622 0
M  V30 38 H 3.9622 -1.81713 -3.83088 0
M  V30 39 C 2.4212 -0.413039 -3.34358 0
M  V30 40 O 2.9512 0.477259 -3.98855 0
M  V30 41 N 1.1572 -0.286961 -2.8918 0
M  V30 42 H 0.7042 -1.01241 -2.36871 0
M  V30 43 H 0.6622 0.556963 -3.09427 0
M  V30 44 N 4.4343 0.785586 -1.36625 0
M  V30 45 C 5.3663 1.90711 -1.2713 0
M  V30 46 C 6.3793 1.61688 -0.189986 0
M  V30 47 O 7.5683 1.72864 -0.445014 0
M  V30 48 C 4.6683 3.25611 -0.939713 0
M  V30 49 C 3.8413 3.82385 -2.12369 0
M  V30 50 C 2.9003 4.95732 -1.76456 0
M  V30 51 O 1.9263 5.12047 -2.48589 0
M  V30 52 N 3.1283 5.76258 -0.700492 0
M  V30 53 H 5.8933 1.99376 -2.23762 0
M  V30 54 H 3.4543 0.964041 -1.30069 0
M  V30 55 H 5.4463 3.98937 -0.680554 0
M  V30 56 H 4.0163 3.12538 -0.0624074 0
M  V30 57 H 3.2363 3.01001 -2.54543 0
M  V30 58 H 4.5243 4.17047 -2.9146 0
M  V30 59 H 3.9223 5.65609 -0.101624 0
M  V30 60 H 2.4793 6.4987 -0.501165 0
M  V30 61 N 5.9124 1.20967 1.01018 0
M  V30 62 C 6.8224 0.980157 2.13143 0
M  V30 63 C 7.8384 -0.0660665 1.73875 0
M  V30 64 O 9.0144 0.122821 2.01025 0
M  V30 65 C 6.0794 0.54216 3.42435 0
M  V30 66 C 5.1404 1.65999 3.95908 0
M  V30 67 C 4.3734 1.2428 5.19028 0
M  V30 68 O 4.5964 0.114196 5.70286 0
M  V30 69 O 3.5304 2.05271 5.65816 0
M  V30 70 H 7.3564 1.91913 2.35379 0
M  V30 71 H 4.9414 0.994099 1.11526 0
M  V30 72 H 6.8234 0.30744 4.20277 0
M  V30 73 H 5.4984 -0.36815 3.216 0
M  V30 74 H 4.4054 1.94906 3.19316 0
M  V30 75 H 5.7384 2.54753 4.21143 0
M  V30 76 N 7.3905 -1.2043 1.01659 0
M  V30 77 C 8.3535 -2.21433 0.591616 0
M  V30 78 C 9.3535 -1.57203 -0.338226 0
M  V30 79 O 10.5435 -1.73737 -0.126918 0
M  V30 80 C 7.6755 -3.40628 -0.136058 0
M  V30 81 H 8.8685 -2.60545 1.48514 0
M  V30 82 H 6.4215 -1.33893 0.806379 0
M  V30 83 H 7.1565 -3.07019 -1.04449 0
M  V30 84 H 6.9415 -3.88475 0.531917 0
M  V30 85 H 8.4315 -4.15475 -0.420735 0
M  V30 86 N 8.8686 -0.792821 -1.36206 0
M  V30 87 C 10.1176 -0.363353 -1.984 0
M  V30 88 C 10.4306 1.07172 -1.63626 0
M  V30 89 O 11.6366 1.60362 -2.19081 0
M  V30 90 C 10.0926 -0.59872 -3.54885 0
M  V30 91 C 9.7006 -2.04543 -3.9858 0
M  V30 92 C 11.4446 -0.233926 -4.23855 0
M  V30 93 C 9.3516 -2.22727 -5.47856 0
M  V30 94 H 8.2816 -0.13212 -0.742334 0
M  V30 95 H 10.9326 -0.974935 -1.55458 0
M  V30 96 H 9.3146 0.0826222 -3.95914 0
M  V30 97 H 10.4886 -2.76345 -3.68741 0
M  V30 98 H 8.8036 -2.36879 -3.42458 0
M  V30 99 H 11.4006 -0.348027 -5.33566 0
M  V30 100 H 11.7436 0.818351 -4.08177 0
M  V30 101 H 12.2766 -0.868639 -3.882 0
M  V30 102 H 9.0156 -3.2635 -5.68486 0
M  V30 103 H 8.5356 -1.55434 -5.7931 0
M  V30 104 H 10.2146 -2.03607 -6.14128 0
M  V30 105 N 10.3467 1.47872 -0.545128 0
M  V30 106 C 11.5947 2.02093 -0.016553 0
M  V30 107 C 11.9157 1.42305 1.3332 0
M  V30 108 O 11.1857 0.593853 1.86682 0
M  V30 109 H 9.7657 0.746993 -0.00313038 0
M  V30 110 H 12.4277 1.81414 -0.712397 0
M  V30 111 H 11.5237 3.11996 0.0805422 0
M  V30 112 N 11.8248 0.280983 1.55075 0
M  V30 113 C 12.7548 -0.597469 2.25727 0
M  V30 114 C 13.7358 -1.15417 1.24952 0
M  V30 115 O 14.9208 -1.18722 1.53684 0
M  V30 116 C 12.0508 -1.7789 2.98283 0
M  V30 117 C 11.0048 -1.35347 4.06036 0
M  V30 118 C 10.3308 -2.61846 4.66198 0
M  V30 119 C 11.6308 -0.499354 5.19907 0
M  V30 120 H 13.3248 -0.00824265 2.99399 0
M  V30 121 H 10.8708 -0.0025244 1.44 0
M  V30 122 H 12.8238 -2.39937 3.46422 0
M  V30 123 H 11.5478 -2.39405 2.22155 0
M  V30 124 H 10.2068 -0.756156 3.58717 0
M  V30 125 H 9.8548 -3.21632 3.86732 0
M  V30 126 H 9.5548 -2.3409 5.38958 0
M  V30 127 H 11.0788 -3.24732 5.1709 0
M  V30 128 H 12.4928 -1.02498 5.64063 0
M  V30 129 H 10.8898 -0.316424 5.99265 0
M  V30 130 H 11.9598 0.480459 4.82514 0
M  V30 131 N 13.3029 -1.57598 0.00835791 0
M  V30 132 C 14.5519 -1.90107 -0.673968 0
M  V30 133 C 14.8649 -0.884275 -1.7447 0
M  V30 134 O 16.0709 -1.09987 -2.48224 0
M  V30 135 C 14.5269 -3.37497 -1.24995 0
M  V30 136 C 14.1349 -4.47491 -0.2136 0
M  V30 137 C 15.8789 -3.79104 -1.90999 0
M  V30 138 C 13.7859 -5.85963 -0.80005 0
M  V30 139 H 12.7159 -0.709393 -0.255495 0
M  V30 140 H 15.3669 -1.83365 0.0702693 0
M  V30 141 H 13.7489 -3.39102 -2.04513 0
M  V30 142 H 14.9229 -4.57414 0.557596 0
M  V30 143 H 13.2379 -4.14956 0.346474 0
M  V30 144 H 15.8349 -4.79901 -2.35795 0
M  V30 145 H 16.1779 -3.1306 -2.74407 0
M  V30 146 H 16.7109 -3.79833 -1.18203 0
M  V30 147 H 13.4499 -6.555 -0.00456708 0
M  V30 148 H 12.9699 -5.79687 -1.54021 0
M  V30 149 H 14.6489 -6.33884 -1.29615 0
M  V30 150 N 14.781 0.264519 -1.55364 0
M  V30 151 C 16.058 1.01677 -1.67096 0
M  V30 152 C 16.438 2.03996 -0.543015 0
M  V30 153 O 15.786 2.23907 0.45585 0
M  V30 154 C 15.996 1.66596 -3.0667 0
M  V30 155 C 17.344 2.17442 -3.64697 0
M  V30 156 O 18.368 1.76568 -3.09358 0
M  V30 157 O 17.227 2.92439 -4.61673 0
M  V30 158 H 14.321 0.472161 -0.678965 0
M  V30 159 H 16.867 0.259703 -1.67701 0
M  V30 160 H 15.639 0.924962 -3.80211 0
M  V30 161 H 15.262 2.48968 -3.10001 0
M  V30 162 N 16.2591 1.48442 0.529413 0
M  V30 163 C 17.4841 1.60406 1.31471 0
M  V30 164 C 17.9091 0.264738 1.86228 0
M  V30 165 O 17.2671 -0.763668 1.64432 0
M  V30 166 C 17.3151 2.65419 2.44101 0
M  V30 167 O 16.4191 2.22618 3.47153 0
M  V30 168 H 15.7601 0.537863 0.389357 0
M  V30 169 H 18.2901 1.94432 0.636965 0
M  V30 170 H 18.3001 2.86709 2.90279 0
M  V30 171 H 16.9751 3.62652 2.03608 0
M  V30 172 H 15.5521 2.11543 3.0709 0
M  V30 173 N 17.7372 -0.778329 1.37039 0
M  V30 174 C 18.9852 -1.53361 1.31623 0
M  V30 175 C 19.3062 -1.94739 -0.100831 0
M  V30 176 O 18.5762 -1.65797 -1.04347 0
M  V30 177 H 17.1562 -0.568794 0.484234 0
M  V30 178 H 19.8182 -0.926742 1.71457 0
M  V30 179 H 18.9142 -2.43606 1.95096 0
M  V30 180 N 19.2153 -1.21501 -1.00376 0
M  V30 181 C 20.4613 -1.03452 -1.74429 0
M  V30 182 C 20.7943 0.430764 -1.89362 0
M  V30 183 O 20.0693 1.31962 -1.42886 0
M  V30 184 C 20.3523 -1.73375 -3.15615 0
M  V30 185 C 20.2053 -3.27431 -3.08397 0
M  V30 186 C 21.5243 -1.47732 -4.14564 0
M  V30 187 H 18.6433 -0.377226 -0.633143 0
M  V30 188 H 21.2853 -1.49693 -1.17013 0
M  V30 189 H 19.4353 -1.34064 -3.64636 0
M  V30 190 H 21.1073 -3.76119 -2.67081 0
M  V30 191 H 19.3503 -3.5767 -2.45468 0
M  V30 192 H 20.0213 -3.71524 -4.08258 0
M  V30 193 H 22.4973 -1.8186 -3.74254 0
M  V30 194 H 21.3733 -1.99169 -5.11491 0
M  V30 195 H 21.6343 -0.407589 -4.40217 0
M  V30 196 N 20.6934 1.19889 -1.02296 0
M  V30 197 C 21.9414 1.89046 -0.714558 0
M  V30 198 C 22.2624 1.79636 0.758681 0
M  V30 199 O 21.5324 1.20292 1.54618 0
M  V30 200 H 20.1124 0.699802 -0.261317 0
M  V30 201 H 22.7744 1.45574 -1.29592 0
M  V30 202 H 21.8704 2.95524 -1.0036 0
M  V30 203 N 22.1715 0.800033 1.35784 0
M  V30 204 C 23.4195 0.376597 1.9856 0
M  V30 205 C 23.7405 -1.05812 1.63795 0
M  V30 206 O 23.0105 -1.73103 0.917171 0
M  V30 207 H 21.5905 0.136261 0.734467 0
M  V30 208 H 24.2525 1.02442 1.65806 0
M  V30 209 H 23.3485 0.477002 3.08433 0
M  V30 210 N 23.6496 -1.47581 0.552962 0
M  V30 211 C 24.5796 -2.32762 -0.185451 0
M  V30 212 C 25.5606 -1.43527 -0.912905 0
M  V30 213 O 26.7456 -1.72388 -0.894201 0
M  V30 214 C 23.8756 -3.25219 -1.21859 0
M  V30 215 C 22.8296 -4.23661 -0.607864 0
M  V30 216 C 22.1556 -5.05413 -1.74533 0
M  V30 217 C 23.4556 -5.20481 0.435582 0
M  V30 218 H 25.1496 -2.94749 0.525684 0
M  V30 219 H 22.6956 -1.41738 0.254251 0
M  V30 220 H 24.6486 -3.8365 -1.7433 0
M  V30 221 H 23.3726 -2.61279 -1.95961 0
M  V30 222 H 22.0316 -3.66451 -0.104489 0
M  V30 223 H 21.6796 -4.3788 -2.47529 0
M  V30 224 H 21.3796 -5.72059 -1.34249 0
M  V30 225 H 22.9036 -5.66701 -2.27338 0
M  V30 226 H 24.3176 -5.733 -0.00290157 0
M  V30 227 H 22.7146 -5.95305 0.757067 0
M  V30 228 H 23.7846 -4.66217 1.33303 0
M  V30 229 N 25.1277 -0.289203 -1.54924 0
M  V30 230 C 26.3557 0.326463 -2.04308 0
M  V30 231 C 26.7707 1.48413 -1.16701 0
M  V30 232 O 26.1277 1.81507 -0.190087 0
M  V30 233 C 26.1787 0.794014 -3.52672 0
M  V30 234 O 25.8997 -0.317564 -4.36948 0
M  V30 235 C 27.4007 1.47605 -4.18004 0
M  V30 236 H 24.6207 0.0726272 -0.667058 0
M  V30 237 H 27.1647 -0.425401 -2.00026 0
M  V30 238 H 25.3197 1.49593 -3.57352 0
M  V30 239 H 25.7337 0.0443186 -5.24481 0
M  V30 240 H 27.2077 1.75447 -5.23376 0
M  V30 241 H 27.6847 2.41224 -3.67025 0
M  V30 242 H 28.2907 0.81762 -4.17367 0
M  V30 243 N 26.6058 1.57591 -0.0167156 0
M  V30 244 C 27.8518 1.91567 0.665582 0
M  V30 245 C 28.1848 0.892298 1.72487 0
M  V30 246 O 27.4598 -0.0867127 1.94307 0
M  V30 247 C 27.7428 3.36069 1.29342 0
M  V30 248 C 27.5958 4.49135 0.244541 0
M  V30 249 C 28.9148 3.803 2.21495 0
M  V30 250 H 26.0338 0.69666 0.240488 0
M  V30 251 H 28.6758 1.89866 -0.0714356 0
M  V30 252 H 26.8258 3.3765 1.92158 0
M  V30 253 H 28.4978 4.59689 -0.385228 0
M  V30 254 H 26.7408 4.3165 -0.431379 0
M  V30 255 H 27.4118 5.47242 0.723207 0
M  V30 256 H 29.8878 3.80377 1.68678 0
M  V30 257 H 28.7638 4.82127 2.62382 0
M  V30 258 H 29.0248 3.15104 3.101 0
M  V30 259 N 28.0839 -0.256276 1.55502 0
M  V30 260 C 29.0139 -1.32102 1.92539 0
M  V30 261 C 29.9949 -1.50684 0.789194 0
M  V30 262 O 31.1799 -1.63449 1.04872 0
M  V30 263 C 28.3099 -2.67752 2.21192 0
M  V30 264 C 27.2639 -2.63878 3.36975 0
M  V30 265 C 26.5899 -4.03236 3.51147 0
M  V30 266 C 27.8899 -2.21682 4.72921 0
M  V30 267 H 29.5839 -1.01351 2.81724 0
M  V30 268 H 27.1299 -0.486105 1.35547 0
M  V30 269 H 29.0829 -3.42365 2.45691 0
M  V30 270 H 27.8069 -3.0012 1.28824 0
M  V30 271 H 26.4659 -1.91722 3.12471 0
M  V30 272 H 26.1139 -4.32854 2.56216 0
M  V30 273 H 25.8139 -4.01535 4.29003 0
M  V30 274 H 27.3379 -4.79563 3.77957 0
M  V30 275 H 28.7519 -2.86023 4.96854 0
M  V30 276 H 27.1489 -2.3111 5.53812 0
M  V30 277 H 28.2189 -1.16833 4.70615 0
M  V30 278 N 29.562 -1.4872 -0.521534 0
M  V30 279 C 30.509 -1.63871 -1.62527 0
M  V30 280 C 31.479 -0.480559 -1.58996 0
M  V30 281 O 32.664 -0.705085 -1.77294 0
M  V30 282 C 29.804 -1.69227 -3.00759 0
M  V30 283 C 28.917 -2.96207 -3.14461 0
M  V30 284 C 28.052 -2.92671 -4.43303 0
M  V30 285 C 27.091 -4.14318 -4.50563 0
M  V30 286 N 26.228 -4.0881 -5.70805 0
M  V30 287 H 31.068 -2.58123 -1.48918 0
M  V30 288 H 28.605 -1.28 -0.724878 0
M  V30 289 H 30.563 -1.70314 -3.80853 0
M  V30 290 H 29.193 -0.784586 -3.1312 0
M  V30 291 H 28.245 -3.04826 -2.27564 0
M  V30 292 H 29.557 -3.86192 -3.15686 0
M  V30 293 H 28.711 -2.92206 -5.31696 0
M  V30 294 H 27.45 -2.00429 -4.44612 0
M  V30 295 H 26.455 -4.15049 -3.60575 0
M  V30 296 H 27.68 -5.07729 -4.50986 0
M  V30 297 H 25.626 -3.19394 -5.72995 0
M  V30 298 H 25.543 -4.92509 -5.7356 0
M  V30 299 H 26.811 -4.12418 -6.61462 0
M  V30 300 N 31.0401 0.771051 -1.3745 0
M  V30 301 C 31.9501 1.91538 -1.35464 0
M  V30 302 C 32.9661 1.72134 -0.254123 0
M  V30 303 O 34.1421 1.95358 -0.489626 0
M  V30 304 C 31.2071 3.26671 -1.16134 0
M  V30 305 C 30.2681 3.58723 -2.35831 0
M  V30 306 C 29.5011 4.87409 -2.17413 0
M  V30 307 O 29.7241 5.58506 -1.15876 0
M  V30 308 O 28.6581 5.18539 -3.05615 0
M  V30 309 H 32.4841 1.96165 -2.31847 0
M  V30 310 H 30.0691 0.9139 -1.18187 0
M  V30 311 H 31.9511 4.07499 -1.07345 0
M  V30 312 H 30.6261 3.22894 -0.228251 0
M  V30 313 H 29.5331 2.78127 -2.50192 0
M  V30 314 H 30.8661 3.67243 -3.27709 0
M  V30 315 N 32.5182 1.22032 0.997298 0
M  V30 316 C 33.4812 0.987909 2.06816 0
M  V30 317 C 34.4812 -0.0440084 1.6074 0
M  V30 318 O 35.6712 0.194053 1.73116 0
M  V30 319 C 32.8032 0.49132 3.37341 0
M  V30 320 H 33.9962 1.93803 2.28868 0
M  V30 321 H 31.5492 1.03838 1.16822 0
M  V30 322 H 32.2842 -0.463364 3.20973 0
M  V30 323 H 32.0692 1.23575 3.72118 0
M  V30 324 H 33.5592 0.348824 4.16141 0
M  V30 325 N 33.9963 -1.19345 1.0293 0
M  V30 326 C 34.9263 -2.2481 0.631105 0
M  V30 327 C 35.9073 -1.66245 -0.360104 0
M  V30 328 O 37.0923 -1.92677 -0.242726 0
M  V30 329 C 34.2223 -3.47295 -0.0184607 0
M  V30 330 C 33.1763 -4.18536 0.895073 0
M  V30 331 C 32.5023 -5.34586 0.110592 0
M  V30 332 C 33.8023 -4.73287 2.209 0
M  V30 333 H 35.4963 -2.58372 1.51275 0
M  V30 334 H 33.0423 -1.24194 0.728818 0
M  V30 335 H 34.9953 -4.20268 -0.308675 0
M  V30 336 H 33.7193 -3.12933 -0.934907 0
M  V30 337 H 32.3783 -3.47446 1.16949 0
M  V30 338 H 32.0263 -4.96469 -0.807902 0
M  V30 339 H 31.7263 -5.83183 0.719087 0
M  V30 340 H 33.2503 -6.10355 -0.172871 0
M  V30 341 H 34.6643 -5.38013 1.98028 0
M  V30 342 H 33.0613 -5.32373 2.76946 0
M  V30 343 H 34.1313 -3.91331 2.86336 0
M  V30 344 N 35.4744 -0.807222 -1.35358 0
M  V30 345 C 36.4214 -0.216037 -2.29787 0
M  V30 346 C 37.3914 0.650278 -1.52842 0
M  V30 347 O 38.5764 0.595227 -1.81278 0
M  V30 348 C 35.7164 0.628893 -3.39321 0
M  V30 349 C 34.8294 -0.257927 -4.31229 0
M  V30 350 C 33.9644 0.595069 -5.27856 0
M  V30 351 C 33.0034 -0.292111 -6.11403 0
M  V30 352 N 32.1404 0.520895 -7.00165 0
M  V30 353 H 36.9804 -1.02671 -2.79755 0
M  V30 354 H 34.5174 -0.517839 -1.37684 0
M  V30 355 H 36.4754 1.13393 -4.01494 0
M  V30 356 H 35.1054 1.40482 -2.90628 0
M  V30 357 H 34.1574 -0.881076 -3.70056 0
M  V30 358 H 35.4694 -0.940759 -4.89848 0
M  V30 359 H 34.6234 1.16522 -5.95405 0
M  V30 360 H 33.3624 1.31146 -4.69736 0
M  V30 361 H 32.3674 -0.874525 -5.428 0
M  V30 362 H 33.5924 -1.00638 -6.71602 0
M  V30 363 H 31.5384 1.22125 -6.44532 0
M  V30 364 H 31.4554 -0.103877 -7.55929 0
M  V30 365 H 32.7234 1.0743 -7.72062 0
M  V30 366 N 36.9525 1.47285 -0.560781 0
M  V30 367 C 37.8845 2.28118 0.222438 0
M  V30 368 C 38.8975 1.37219 0.876056 0
M  V30 369 O 40.0865 1.62011 0.749307 0
M  V30 370 C 37.1865 3.1159 1.33285 0
M  V30 371 C 36.3595 4.30473 0.77534 0
M  V30 372 C 35.4185 4.95513 1.77069 0
M  V30 373 O 34.4445 5.53792 1.31539 0
M  V30 374 N 35.6465 4.90531 3.10418 0
M  V30 375 H 38.4115 2.95976 -0.470958 0
M  V30 376 H 35.9725 1.56955 -0.39709 0
M  V30 377 H 37.9645 3.51967 1.99752 0
M  V30 378 H 36.5345 2.45951 1.92943 0
M  V30 379 H 35.7545 3.94144 -0.0662113 0
M  V30 380 H 37.0425 5.07362 0.382272 0
M  V30 381 H 36.4405 4.44389 3.5005 0
M  V30 382 H 34.9975 5.34917 3.72434 0
M  V30 383 N 38.4306 0.297415 1.54768 0
M  V30 384 C 39.3606 -0.573494 2.26348 0
M  V30 385 C 40.3416 -1.14085 1.26169 0
M  V30 386 O 41.5266 -1.17086 1.54934 0
M  V30 387 C 38.6566 -1.74716 3.00153 0
M  V30 388 C 37.6106 -1.31032 4.07449 0
M  V30 389 C 36.9366 -2.56887 4.68949 0
M  V30 390 C 38.2366 -0.444183 5.20408 0
M  V30 391 H 39.9306 0.0235131 2.99391 0
M  V30 392 H 37.4766 0.0127488 1.43994 0
M  V30 393 H 39.4296 -2.3625 3.48947 0
M  V30 394 H 38.1536 -2.37035 2.24682 0
M  V30 395 H 36.8126 -0.718066 3.59499 0
M  V30 396 H 36.4606 -3.17512 3.90122 0
M  V30 397 H 36.1606 -2.2836 5.41411 0
M  V30 398 H 37.6846 -3.19229 5.20505 0
M  V30 399 H 39.0986 -0.9651 5.65118 0
M  V30 400 H 37.4956 -0.252846 5.99567 0
M  V30 401 H 38.5656 0.531609 4.81977 0
M  V30 402 N 39.9087 -1.5758 0.0250728 0
M  V30 403 C 41.3197 -1.79476 -0.514323 0
M  V30 404 C 41.6707 -0.934956 -1.72491 0
M  V30 405 O 40.7957 -0.144245 -2.15919 0
M  V30 406 C 41.3907 -3.25503 -0.939842 0
M  V30 407 C 39.9497 -3.48408 -1.42438 0
M  V30 408 C 39.0967 -2.74583 -0.387201 0
M  V30 409 H 42.0477 -1.567 0.25113 0
M  V30 410 H 42.0687 -3.34992 -1.80445 0
M  V30 411 H 41.5807 -3.88056 -0.0585628 0
M  V30 412 H 39.6817 -2.91103 -2.32572 0
M  V30 413 H 39.7947 -4.57119 -1.43455 0
M  V30 414 H 38.1587 -2.39942 -0.854409 0
M  V30 415 H 38.9417 -3.39849 0.485543 0
M  V30 416 N 41.3868 0.248026 -1.55636 0
M  V30 417 C 42.3348 1.32683 -1.91045 0
M  V30 418 C 43.3288 1.49883 -0.789401 0
M  V30 419 O 44.5348 1.51371 -0.974007 0
M  V30 420 H 40.9098 0.444272 -0.606734 0
M  V30 421 H 42.8808 1.00085 -2.81115 0
M  V30 422 C 41.6298 2.6755 -2.22064 0
M  V30 423 H 40.9528 2.55114 -3.07826 0
M  V30 424 H 42.3928 3.41912 -2.50743 0
M  V30 425 C 40.8518 3.20556 -1.0366 0
M  V30 426 O 41.3818 4.00695 -0.284016 0
M  V30 427 N 39.5878 2.78568 -0.82753 0
M  V30 428 H 39.1348 2.1351 -1.44123 0
M  V30 429 H 39.0928 3.14378 -0.0369803 0
M  V30 430 N 42.8649 1.48995 0.513639 0
M  V30 431 C 43.7749 1.67443 1.64317 0
M  V30 432 C 44.7909 0.556947 1.64846 0
M  V30 433 O 45.9669 0.830082 1.83498 0
M  V30 434 C 43.0319 1.72515 3.00732 0
M  V30 435 C 42.0929 2.96009 3.1093 0
M  V30 436 C 41.3259 3.00829 4.40837 0
M  V30 437 O 41.5489 2.13594 5.28898 0
M  V30 438 O 40.4829 3.93168 4.55744 0
M  V30 439 H 44.3089 2.63106 1.51687 0
M  V30 440 H 41.8939 1.32588 0.688543 0
M  V30 441 H 43.7759 1.78277 3.81831 0
M  V30 442 H 42.4509 0.800278 3.13651 0
M  V30 443 H 41.3579 2.9577 2.29065 0
M  V30 444 H 42.6909 3.87934 3.02933 0
M  V30 445 N 44.343 -0.763751 1.37857 0
M  V30 446 C 45.759 -1.06542 1.18832 0
M  V30 447 C 45.959 -2.01478 0.0299722 0
M  V30 448 O 45.015 -2.4458 -0.627447 0
M  V30 449 C 46.328 -1.65525 2.51042 0
M  V30 450 C 47.876 -1.77745 2.57635 0
M  V30 451 C 48.351 -2.4014 3.89996 0
M  V30 452 N 49.842 -2.47582 3.91481 0
M  V30 453 C 50.577 -2.96732 4.9065 0
M  V30 454 N 50.073 -3.45993 6.00217 0
M  V30 455 N 51.866 -2.95679 4.78048 0
M  V30 456 H 44.017 -0.133556 2.1198 0
M  V30 457 H 46.28 -0.121879 0.940133 0
M  V30 458 H 45.986 -1.03236 3.36207 0
M  V30 459 H 45.86 -2.64719 2.68707 0
M  V30 460 H 48.247 -2.39164 1.72872 0
M  V30 461 H 48.328 -0.772836 2.43846 0
M  V30 462 H 47.972 -1.79358 4.75177 0
M  V30 463 H 47.902 -3.41223 4.01092 0
M  V30 464 H 50.393 -2.1273 3.12337 0
M  V30 465 H 50.706 -3.81922 6.7183 0
M  V30 466 H 49.051 -3.44077 6.03851 0
M  V30 467 H 52.242 -2.56499 3.91568 0
M  V30 468 H 52.415 -3.33672 5.55488 0
M  V30 469 N 45.8211 -1.22559 -0.990812 0
M  V30 470 C 46.7511 -1.0218 -2.09956 0
M  V30 471 C 47.7321 0.0579394 -1.70001 0
M  V30 472 O 48.9171 -0.104684 -1.93918 0
M  V30 473 C 46.0471 -0.601023 -3.4206 0
M  V30 474 C 45.0011 -1.62694 -3.95872 0
M  V30 475 C 44.3271 -1.06193 -5.24049 0
M  V30 476 C 45.6271 -3.01743 -4.2632 0
M  V30 477 H 47.3211 -1.94916 -2.27262 0
M  V30 478 H 44.8671 -0.938566 -1.09211 0
M  V30 479 H 46.8201 -0.445561 -4.19038 0
M  V30 480 H 45.5441 0.362005 -3.24588 0
M  V30 481 H 44.2031 -1.77021 -3.21028 0
M  V30 482 H 43.8511 -0.0901903 -5.02919 0
M  V30 483 H 43.5511 -1.74732 -5.61019 0
M  V30 484 H 45.0751 -0.918092 -6.03658 0
M  V30 485 H 46.4891 -2.90777 -4.94087 0
M  V30 486 H 44.8861 -3.67425 -4.74467 0
M  V30 487 H 45.9561 -3.51518 -3.34011 0
M  V30 488 N 47.2992 1.18797 -1.03562 0
M  V30 489 C 48.5482 1.87978 -0.731235 0
M  V30 490 C 48.8612 1.80911 0.743671 0
M  V30 491 O 50.0672 2.45407 1.16137 0
M  V30 492 C 48.5232 3.3721 -1.25768 0
M  V30 493 C 48.1312 3.52818 -2.76085 0
M  V30 494 C 49.8752 4.11825 -1.0296 0
M  V30 495 C 47.7822 4.9598 -3.22114 0
M  V30 496 H 46.7122 0.704063 -0.269835 0
M  V30 497 H 49.3632 1.34266 -1.25079 0
M  V30 498 H 47.7452 3.90359 -0.666011 0
M  V30 499 H 48.9192 3.09965 -3.40966 0
M  V30 500 H 47.2342 2.91602 -2.97249 0
M  V30 501 H 49.8312 5.17411 -1.34869 0
M  V30 502 H 50.1742 4.16287 0.0333546 0
M  V30 503 H 50.7072 3.64833 -1.58562 0
M  V30 504 H 47.4462 4.96684 -4.27768 0
M  V30 505 H 46.9662 5.39569 -2.61965 0
M  V30 506 H 48.6452 5.6467 -3.15844 0
M  V30 507 N 48.7773 0.814389 1.34928 0
M  V30 508 C 50.0073 0.41054 2.0248 0
M  V30 509 C 50.4153 -0.985625 1.61499 0
M  V30 510 O 49.7583 -1.64781 0.811976 0
M  V30 511 C 49.8203 0.423384 3.56998 0
M  V30 512 C 49.4843 1.77141 4.21272 0
M  V30 513 C 50.4813 2.73093 4.42398 0
M  V30 514 C 48.1663 2.05755 4.58225 0
M  V30 515 C 50.1603 3.95838 4.9959 0
M  V30 516 C 47.8473 3.28762 5.1513 0
M  V30 517 C 48.8453 4.23621 5.35755 0
M  V30 518 O 48.5333 5.44456 5.91458 0
M  V30 519 H 48.2653 0.163997 0.655806 0
M  V30 520 H 50.8193 1.10155 1.73364 0
M  V30 521 H 49.0493 -0.324276 3.85338 0
M  V30 522 H 50.7383 0.0407683 4.0588 0
M  V30 523 H 51.5043 2.5228 4.14222 0
M  V30 524 H 47.3833 1.32727 4.4148 0
M  V30 525 H 50.9273 4.69891 5.15605 0
M  V30 526 H 46.8243 3.49443 5.42734 0
M  V30 527 H 47.5923 5.4586 6.09901 0
M  V30 528 N 50.2554 -1.46986 0.568584 0
M  V30 529 C 51.1854 -2.32946 -0.160753 0
M  V30 530 C 52.1664 -1.44487 -0.897631 0
M  V30 531 O 53.3514 -1.73327 -0.875867 0
M  V30 532 C 50.4814 -3.26494 -1.18403 0
M  V30 533 C 49.4354 -4.24282 -0.562895 0
M  V30 534 C 48.7614 -5.07236 -1.69163 0
M  V30 535 C 50.0614 -5.19989 0.490761 0
M  V30 536 H 51.7554 -2.94175 0.556916 0
M  V30 537 H 49.3014 -1.4146 0.26927 0
M  V30 538 H 51.2544 -3.85477 -1.70251 0
M  V30 539 H 49.9784 -2.63343 -1.93179 0
M  V30 540 H 48.6374 -3.66541 -0.0656164 0
M  V30 541 H 48.2854 -4.4048 -2.42871 0
M  V30 542 H 47.9854 -5.7345 -1.28174 0
M  V30 543 H 49.5094 -5.6908 -2.21314 0
M  V30 544 H 50.9234 -5.73271 0.0579047 0
M  V30 545 H 49.3204 -5.94469 0.820165 0
M  V30 546 H 50.3904 -4.64777 1.3824 0
M  V30 547 N 51.7335 -0.305618 -1.54608 0
M  V30 548 C 52.9815 0.301701 -1.99835 0
M  V30 549 C 53.3025 1.54054 -1.19551 0
M  V30 550 O 52.5725 1.93702 -0.292658 0
M  V30 551 H 51.1525 0.114468 -0.738178 0
M  V30 552 H 53.8145 -0.418016 -1.90364 0
M  V30 553 H 52.9105 0.570548 -3.06841 0
M  V30 554 N 53.2116 1.57565 -0.0334293 0
M  V30 555 C 54.4886 1.83282 0.683163 0
M  V30 556 C 54.8686 0.91823 1.90084 0
M  V30 557 O 54.2166 -0.025113 2.28486 0
M  V30 558 C 54.4266 3.32599 1.0573 0
M  V30 559 C 55.7746 3.99179 1.44711 0
M  V30 560 O 56.7986 3.3712 1.15015 0
M  V30 561 O 55.6576 5.08565 2.0006 0
M  V30 562 H 52.7516 0.755869 0.335546 0
M  V30 563 H 55.2976 1.69589 -0.0614402 0
M  V30 564 H 54.0696 3.90834 0.190828 0
M  V30 565 H 53.6926 3.51415 1.85993 0
M  V30 566 N 54.6897 -0.239769 1.55765 0
M  V30 567 C 55.9177 -0.98417 1.81994 0
M  V30 568 C 56.3327 -1.7867 0.610124 0
M  V30 569 O 55.6897 -1.77571 -0.421271 0
M  V30 570 C 55.7407 -1.91635 3.06526 0
M  V30 571 O 55.4617 -1.14629 4.22838 0
M  V30 572 C 56.9627 -2.77616 3.45607 0
M  V30 573 H 54.1827 -0.28928 0.605441 0
M  V30 574 H 56.7267 -0.260499 2.02834 0
M  V30 575 H 54.8817 -2.5942 2.87715 0
M  V30 576 H 55.2957 -1.77745 4.93464 0
M  V30 577 H 56.7697 -3.38759 4.35828 0
M  V30 578 H 57.2467 -3.4909 2.6652 0
M  V30 579 H 57.8527 -2.15271 3.66795 0
M  V30 580 N 56.1678 -1.49265 -0.50573 0
M  V30 581 C 57.1308 -1.65075 -1.59006 0
M  V30 582 C 58.1308 -0.522768 -1.52065 0
M  V30 583 O 59.3208 -0.789117 -1.55302 0
M  V30 584 C 56.4528 -1.64369 -2.98656 0
M  V30 585 H 57.6458 -2.61784 -1.46319 0
M  V30 586 H 55.1988 -1.38226 -0.729616 0
M  V30 587 H 55.9338 -0.692272 -3.16825 0
M  V30 588 H 55.7188 -2.46282 -3.05103 0
M  V30 589 H 57.2088 -1.78674 -3.77446 0
M  V30 590 N 57.6459 0.756429 -1.3826 0
M  V30 591 C 59.0619 1.0591 -1.19395 0
M  V30 592 C 59.2619 2.01459 -0.0406567 0
M  V30 593 O 58.3179 2.44909 0.614467 0
M  V30 594 C 59.6309 1.64191 -2.51916 0
M  V30 595 C 61.1789 1.76376 -2.58574 0
M  V30 596 C 61.6539 2.38069 -3.91264 0
M  V30 597 N 63.1449 2.45503 -3.92788 0
M  V30 598 C 63.8799 2.94126 -4.92217 0
M  V30 599 N 63.3759 3.42805 -6.02043 0
M  V30 600 N 65.1689 2.9314 -4.7961 0
M  V30 601 H 57.3199 0.122313 -2.12048 0
M  V30 602 H 59.5829 0.116892 -0.940766 0
M  V30 603 H 59.2889 1.01451 -3.3675 0
M  V30 604 H 59.1629 2.6329 -2.70108 0
M  V30 605 H 61.5499 2.38244 -1.74137 0
M  V30 606 H 61.6309 0.759894 -2.44252 0
M  V30 607 H 61.2749 1.76835 -4.76121 0
M  V30 608 H 61.2049 3.39091 -4.02895 0
M  V30 609 H 63.6959 2.1107 -3.13461 0
M  V30 610 H 64.0089 3.78354 -6.73846 0
M  V30 611 H 62.3539 3.4087 -6.05667 0
M  V30 612 H 65.5449 2.54419 -3.92923 0
M  V30 613 H 65.7179 3.30721 -5.5725 0
M  V30 614 N 59.124 1.23083 0.984299 0
M  V30 615 C 60.364 1.07226 1.74017 0
M  V30 616 C 60.728 -0.384766 1.88105 0
M  V30 617 O 61.929 -0.664411 2.60459 0
M  V30 618 C 60.2 1.77348 3.10294 0
M  V30 619 S 61.759 1.77014 4.01512 0
M  V30 620 H 58.577 0.383819 0.598502 0
M  V30 621 H 61.179 1.56158 1.17622 0
M  V30 622 H 59.883 2.82506 2.97689 0
M  V30 623 H 59.414 1.28682 3.71759 0
M  V30 624 H 61.429 0.825956 4.89277 0
M  V30 625 N 60.6021 -1.18246 1.0419 0
M  V30 626 C 62.0131 -1.69914 0.773698 0
M  V30 627 C 62.3641 -1.83085 -0.705297 0
M  V30 628 O 61.4891 -1.51123 -1.5489 0
M  V30 629 C 62.0841 -3.08619 1.39784 0
M  V30 630 C 60.6431 -3.57494 1.17792 0
M  V30 631 C 59.7901 -2.34013 1.48773 0
M  V30 632 H 62.7411 -1.02904 1.20816 0
M  V30 633 H 62.7621 -3.71958 0.801714 0
M  V30 634 H 62.2741 -2.99001 2.47426 0
M  V30 635 H 60.3751 -3.72406 0.120295 0
M  V30 636 H 60.4881 -4.40852 1.87581 0
M  V30 637 H 58.8521 -2.37986 0.907463 0
M  V30 638 H 59.6351 -2.27013 2.57527 0
M  V30 639 N 62.0802 -0.821533 -1.34494 0
M  V30 640 C 63.3102 -0.421272 -2.02259 0
M  V30 641 C 63.7182 0.977047 -1.6202 0
M  V30 642 O 63.0612 1.64348 -0.820703 0
M  V30 643 C 63.1232 -0.44231 -3.56769 0
M  V30 644 C 62.7872 -1.79372 -4.20327 0
M  V30 645 C 63.7842 -2.75435 -4.40944 0
M  V30 646 C 61.4692 -2.08182 -4.57127 0
M  V30 647 C 63.4632 -3.98482 -4.97484 0
M  V30 648 C 61.1502 -3.31489 -5.13379 0
M  V30 649 C 62.1482 -4.26457 -5.33501 0
M  V30 650 O 61.8362 -5.47585 -5.88562 0
M  V30 651 H 61.5682 -0.167473 -0.654927 0
M  V30 652 H 64.1222 -1.11073 -1.72777 0
M  V30 653 H 62.3522 0.303836 -3.85505 0
M  V30 654 H 64.0412 -0.0622925 -4.05852 0
M  V30 655 H 64.8072 -2.54473 -4.12878 0
M  V30 656 H 60.6862 -1.35066 -4.4077 0
M  V30 657 H 64.2302 -4.72618 -5.13106 0
M  V30 658 H 60.1272 -3.52316 -5.40873 0
M  V30 659 H 60.8952 -5.49086 -6.06998 0
M  V30 660 N 63.5583 1.46682 -0.576371 0
M  V30 661 C 64.8063 2.02013 -0.0594163 0
M  V30 662 C 65.1273 1.45101 1.30271 0
M  V30 663 O 64.3973 0.633317 1.8538 0
M  V30 664 H 62.9773 0.746759 -0.0189745 0
M  V30 665 H 65.6393 1.79862 -0.750717 0
M  V30 666 H 64.7353 3.12097 0.014345 0
M  V30 667 N 65.0364 0.313813 1.54444 0
M  V30 668 C 66.4474 -0.176243 1.85866 0
M  V30 669 C 66.7984 -1.52405 1.23561 0
M  V30 670 O 65.9234 -2.09605 0.538016 0
M  V30 671 C 66.5184 -0.32657 3.37222 0
M  V30 672 C 65.0774 -0.760846 3.6863 0
M  V30 673 C 64.2244 0.123247 2.77026 0
M  V30 674 H 67.1754 0.534418 1.49431 0
M  V30 675 H 67.1964 -1.15908 3.62416 0
M  V30 676 H 66.7084 0.654531 3.82541 0
M  V30 677 H 64.8094 -1.75204 3.28838 0
M  V30 678 H 64.9224 -0.571353 4.75681 0
M  V30 679 H 63.2864 -0.399597 2.51546 0
M  V30 680 H 64.0694 1.10094 3.25168 0
M  V30 681 N 66.5145 -1.57545 0.0417849 0
M  V30 682 C 67.9305 -1.56467 -0.314704 0
M  V30 683 C 68.1305 -1.04859 -1.72066 0
M  V30 684 O 67.1865 -0.700983 -2.42575 0
M  V30 685 C 68.4995 -3.00317 -0.15174 0
M  V30 686 C 70.0475 -3.12201 -0.223553 0
M  V30 687 C 70.5225 -4.57913 -0.0892295 0
M  V30 688 N 72.0135 -4.6297 -0.145808 0
M  V30 689 C 72.7485 -5.73362 -0.0658459 0
M  V30 690 N 72.2445 -6.92769 0.0659282 0
M  V30 691 N 74.0375 -5.6197 -0.12075 0
M  V30 692 H 66.1885 -1.89416 0.961014 0
M  V30 693 H 68.4515 -0.871862 0.372237 0
M  V30 694 H 68.1575 -3.42073 0.817254 0
M  V30 695 H 68.0315 -3.65892 -0.916692 0
M  V30 696 H 70.4185 -2.70349 -1.18301 0
M  V30 697 H 70.4995 -2.49323 0.571994 0
M  V30 698 H 70.1435 -5.00448 0.866867 0
M  V30 699 H 70.0735 -5.18786 -0.903802 0
M  V30 700 H 72.5645 -3.7709 -0.247286 0
M  V30 701 H 72.8775 -7.72707 0.119905 0
M  V30 702 H 71.2225 -6.94927 0.100885 0
M  V30 703 H 74.4135 -4.67572 -0.222187 0
M  V30 704 H 74.5865 -6.47977 -0.0549735 0
M  V30 705 N 67.9926 0.231505 -1.5589 0
M  V30 706 C 69.4036 0.799327 -1.68724 0
M  V30 707 C 69.7546 1.85398 -0.642022 0
M  V30 708 O 68.8796 2.1539 0.208784 0
M  V30 709 C 69.4746 1.45664 -3.05888 0
M  V30 710 C 68.0336 1.97197 -3.20609 0
M  V30 711 C 67.1806 0.828552 -2.64632 0
M  V30 712 H 70.1316 0.00702616 -1.58698 0
M  V30 713 H 70.1526 2.32517 -3.01191 0
M  V30 714 H 69.6646 0.688808 -3.81939 0
M  V30 715 H 67.7656 2.76813 -2.4941 0
M  V30 716 H 67.8786 2.15878 -4.27707 0
M  V30 717 H 66.2426 1.23321 -2.22854 0
M  V30 718 H 67.0256 0.0735544 -3.43221 0
M  V30 719 N 69.4707 1.49531 0.497807 0
M  V30 720 C 70.4337 1.65916 1.58128 0
M  V30 721 C 71.4337 0.530825 1.51786 0
M  V30 722 O 72.6237 0.797342 1.54881 0
M  V30 723 C 69.7557 1.65951 2.9778 0
M  V30 724 H 70.9487 2.62556 1.44929 0
M  V30 725 H 68.5017 1.38611 0.722275 0
M  V30 726 H 69.2367 0.709065 3.16453 0
M  V30 727 H 69.0217 2.47897 3.03792 0
M  V30 728 H 70.5117 1.80673 3.76493 0
M  V30 729 N 70.9488 -0.749086 1.3866 0
M  V30 730 C 71.8588 -1.89358 1.38494 0
M  V30 731 C 72.8748 -1.71708 0.281476 0
M  V30 732 O 74.0508 -1.94554 0.520643 0
M  V30 733 C 71.1158 -3.24782 1.21316 0
M  V30 734 C 70.1768 -3.54926 2.41508 0
M  V30 735 C 69.4098 -4.83888 2.2514 0
M  V30 736 O 69.6328 -5.56592 1.24746 0
M  V30 737 O 68.5668 -5.13612 3.13826 0
M  V30 738 H 72.3928 -1.92452 2.34938 0
M  V30 739 H 69.9778 -0.894981 1.19626 0
M  V30 740 H 71.8598 -4.05739 1.13814 0
M  V30 741 H 70.5348 -3.2249 0.279592 0
M  V30 742 H 69.4418 -2.74112 2.54585 0
M  V30 743 H 70.7748 -3.61983 3.3351 0
M  V30 744 N 72.4269 -1.23603 -0.977757 0
M  V30 745 C 73.3589 -0.977369 -2.07317 0
M  V30 746 C 74.3719 0.0495845 -1.62724 0
M  V30 747 O 75.5609 -0.186261 -1.77526 0
M  V30 748 C 72.6609 -0.451216 -3.35883 0
M  V30 749 C 71.8339 -1.53896 -4.09432 0
M  V30 750 C 70.8929 -1.01721 -5.16274 0
M  V30 751 O 69.9189 -1.70676 -5.43009 0
M  V30 752 N 71.1209 0.153594 -5.80297 0
M  V30 753 H 73.8859 -1.92047 -2.30082 0
M  V30 754 H 71.4469 -1.14497 -1.14465 0
M  V30 755 H 73.4389 -0.0871574 -4.04606 0
M  V30 756 H 72.0089 0.397368 -3.10064 0
M  V30 757 H 71.2289 -2.07566 -3.35127 0
M  V30 758 H 72.5169 -2.27037 -4.55337 0
M  V30 759 H 71.9149 0.730323 -5.60966 0
M  V30 760 H 70.4719 0.458892 -6.50183 0
M  V30 761 N 73.905 1.17692 -1.04816 0
M  V30 762 C 75.151 1.88137 -0.75711 0
M  V30 763 C 75.484 1.80604 0.713841 0
M  V30 764 O 74.759 1.21146 1.52164 0
M  V30 765 C 75.042 3.38318 -1.2334 0
M  V30 766 C 74.895 3.54622 -2.76701 0
M  V30 767 C 76.214 4.32214 -0.829415 0
M  V30 768 H 73.333 0.683163 -0.27651 0
M  V30 769 H 75.975 1.38424 -1.30149 0
M  V30 770 H 74.125 3.80787 -0.770286 0
M  V30 771 H 75.797 3.21194 -3.31107 0
M  V30 772 H 74.04 2.97026 -3.16161 0
M  V30 773 H 74.711 4.60028 -3.05088 0
M  V30 774 H 77.187 3.97565 -1.22805 0
M  V30 775 H 76.063 5.35838 -1.19033 0
M  V30 776 H 76.324 4.41294 0.266891 0
M  V30 777 N 75.3831 0.828654 1.34056 0
M  V30 778 C 76.6291 0.42008 1.98402 0
M  V30 779 C 76.9621 -1.01564 1.65525 0
M  V30 780 O 76.2371 -1.70834 0.929831 0
M  V30 781 C 76.5201 0.62927 3.54559 0
M  V30 782 C 76.3731 2.11152 3.97159 0
M  V30 783 C 77.6921 0.0688756 4.40046 0
M  V30 784 H 74.8111 0.154104 0.720709 0
M  V30 785 H 77.4531 1.04228 1.5886 0
M  V30 786 H 75.6031 0.0996418 3.88372 0
M  V30 787 H 77.2751 2.70522 3.73651 0
M  V30 788 H 75.5181 2.59985 3.47261 0
M  V30 789 H 76.1891 2.20868 5.05887 0
M  V30 790 H 78.6651 0.521458 4.1282 0
M  V30 791 H 77.5411 0.245006 5.48353 0
M  V30 792 H 77.8021 -1.0266 4.30015 0
M  V30 793 N 76.8612 -1.46375 0.584142 0
M  V30 794 C 77.7932 -2.28443 -0.186119 0
M  V30 795 C 78.8062 -1.38596 -0.854115 0
M  V30 796 O 79.9952 -1.63183 -0.723438 0
M  V30 797 C 77.0952 -3.13671 -1.28311 0
M  V30 798 C 76.2682 -4.31652 -0.706758 0
M  V30 799 C 75.3272 -4.98267 -1.69163 0
M  V30 800 O 74.3532 -5.55815 -1.22712 0
M  V30 801 N 75.5552 -4.95408 -3.02575 0
M  V30 802 H 78.3202 -2.9519 0.517986 0
M  V30 803 H 75.8812 -1.56303 0.42201 0
M  V30 804 H 77.8732 -3.55101 -1.94128 0
M  V30 805 H 76.4432 -2.48989 -1.89005 0
M  V30 806 H 75.6632 -3.93989 0.128908 0
M  V30 807 H 76.9512 -5.07906 -0.301506 0
M  V30 808 H 76.3492 -4.49902 -3.42936 0
M  V30 809 H 74.9062 -5.40774 -3.63877 0
M  V30 810 N 78.3393 -0.321999 -1.54275 0
M  V30 811 C 79.5863 0.281044 -2.0054 0
M  V30 812 C 79.9143 1.52265 -1.21019 0
M  V30 813 O 79.1693 1.93687 -0.279982 0
M  V30 814 C 79.4683 0.661769 -3.5122 0
M  V30 815 C 79.1343 -0.480482 -4.48333 0
M  V30 816 C 77.7963 -0.794005 -4.74604 0
M  V30 817 C 80.1483 -1.24783 -5.06042 0
M  V30 818 C 77.4763 -1.87763 -5.55844 0
M  V30 819 C 79.8283 -2.32153 -5.88462 0
M  V30 820 C 78.4923 -2.64089 -6.13036 0
M  V30 821 H 77.7623 0.102841 -0.733829 0
M  V30 822 H 80.4093 -0.445453 -1.86247 0
M  V30 823 H 78.7143 1.46867 -3.63232 0
M  V30 824 H 80.4113 1.13989 -3.84457 0
M  V30 825 H 77.0013 -0.226039 -4.28004 0
M  V30 826 H 81.1853 -1.01887 -4.85729 0
M  V30 827 H 76.4413 -2.12954 -5.73115 0
M  V30 828 H 80.6153 -2.92057 -6.32199 0
M  V30 829 H 78.2423 -3.48185 -6.75775 0
M  V30 830 N 79.8174 1.5752 -0.0501392 0
M  V30 831 C 81.0454 1.96963 0.633492 0
M  V30 832 C 81.4604 0.927631 1.6444 0
M  V30 833 O 80.8174 -0.0882665 1.82286 0
M  V30 834 C 80.8684 3.36487 1.32132 0
M  V30 835 O 80.5894 4.36693 0.350894 0
M  V30 836 C 82.0904 3.90682 2.09481 0
M  V30 837 H 79.3104 0.648244 0.173266 0
M  V30 838 H 81.8544 2.0417 -0.116134 0
M  V30 839 H 80.0094 3.30434 2.02218 0
M  V30 840 H 80.4234 5.17702 0.841735 0
M  V30 841 H 81.8974 4.90591 2.5303 0
M  V30 842 H 82.3744 3.26053 2.94255 0
M  V30 843 H 82.9804 4.00069 1.44307 0
M  V30 844 N 81.2955 -0.223234 1.56011 0
M  V30 845 C 82.5415 -0.944891 1.8012 0
M  V30 846 C 82.8965 -1.82039 0.622862 0
M  V30 847 O 82.1895 -1.8773 -0.383143 0
M  V30 848 C 82.3835 -1.81948 3.0762 0
M  V30 849 C 82.2125 -1.03014 4.37742 0
M  V30 850 C 80.9825 -0.72574 5.00061 0
M  V30 851 C 83.1805 -0.396256 5.12771 0
M  V30 852 N 81.1625 0.0851816 6.13841 0
M  V30 853 C 82.5335 0.278137 6.19376 0
M  V30 854 C 84.5885 -0.309117 4.9694 0
M  V30 855 C 83.2915 1.03133 7.11868 0
M  V30 856 C 85.3175 0.430607 5.8983 0
M  V30 857 C 84.6795 1.09355 6.9586 0
M  V30 858 H 80.7785 -0.326081 0.710771 0
M  V30 859 H 83.3625 -0.215914 1.93499 0
M  V30 860 H 81.5335 -2.52029 2.95527 0
M  V30 861 H 83.2655 -2.47848 3.19927 0
M  V30 862 H 80.0205 -1.04335 4.61964 0
M  V30 863 H 80.4445 0.479428 6.753 0
M  V30 864 H 85.0865 -0.807313 4.15021 0
M  V30 865 H 82.8045 1.54105 7.9327 0
M  V30 866 H 86.3905 0.499012 5.79656 0
M  V30 867 H 85.2705 1.65679 7.66499 0
M  V30 868 N 82.7736 -1.49793 -0.48987 0
M  V30 869 C 83.6836 -1.70036 -1.61632 0
M  V30 870 C 84.6996 -0.583102 -1.63939 0
M  V30 871 O 85.8756 -0.859169 -1.82154 0
M  V30 872 C 82.9406 -1.77277 -2.97949 0
M  V30 873 C 82.0016 -3.00918 -3.06181 0
M  V30 874 C 81.2346 -3.07804 -4.35996 0
M  V30 875 O 81.4576 -2.21982 -5.25433 0
M  V30 876 O 80.3916 -4.00369 -4.49431 0
M  V30 877 H 84.2176 -2.65486 -1.47482 0
M  V30 878 H 81.8026 -1.33666 -0.667362 0
M  V30 879 H 83.6846 -1.84329 -3.78947 0
M  V30 880 H 82.3596 -0.850076 -3.12339 0
M  V30 881 H 81.2666 -2.99377 -2.2433 0
M  V30 882 H 82.5996 -3.92704 -2.96723 0
M  V30 883 N 84.2517 0.741722 -1.39055 0
M  V30 884 C 85.1847 1.86416 -1.31622 0
M  V30 885 C 86.1627 1.61473 -0.191076 0
M  V30 886 O 87.3467 1.84825 -0.370399 0
M  V30 887 C 84.4737 3.22266 -1.04221 0
M  V30 888 C 83.5197 3.66079 -2.18834 0
M  V30 889 S 84.3527 3.7623 -3.81066 0
M  V30 890 C 85.5087 5.14881 -3.55877 0
M  V30 891 H 85.7417 1.92437 -2.26617 0
M  V30 892 H 83.2747 0.905907 -1.25031 0
M  V30 893 H 85.2327 4.00714 -0.890964 0
M  V30 894 H 83.8937 3.1391 -0.109237 0
M  V30 895 H 83.0867 4.64648 -1.95238 0
M  V30 896 H 82.6887 2.94817 -2.30128 0
M  V30 897 H 84.9807 6.01006 -3.12726 0
M  V30 898 H 85.9237 5.43503 -4.53884 0
M  V30 899 H 86.3317 4.84239 -2.90126 0
M  V30 900 N 85.7298 1.2412 0.971189 0
M  V30 901 C 86.6928 1.03156 2.04674 0
M  V30 902 C 87.6928 -0.00990322 1.60797 0
M  V30 903 O 88.8828 0.230729 1.72665 0
M  V30 904 C 86.0148 0.562765 3.36223 0
M  V30 905 H 87.2078 1.98614 2.24705 0
M  V30 906 H 84.7608 1.06293 1.14593 0
M  V30 907 H 85.4958 -0.395176 3.21883 0
M  V30 908 H 85.2808 1.31441 3.69413 0
M  V30 909 H 86.7708 0.437015 4.15307 0
M  V30 910 N 87.2079 -1.17134 1.05439 0
M  V30 911 C 88.4849 -1.83411 0.679699 0
M  V30 912 C 88.8649 -1.9368 -0.839726 0
M  V30 913 O 88.2129 -1.47325 -1.74664 0
M  V30 914 C 88.4229 -3.20918 1.37159 0
M  V30 915 C 89.7709 -3.96796 1.51123 0
M  V30 916 O 90.7949 -3.30406 1.3308 0
M  V30 917 O 89.6539 -5.15778 1.80651 0
M  V30 918 H 86.7479 -0.79154 0.239569 0
M  V30 919 H 89.2939 -1.24411 1.15413 0
M  V30 920 H 88.0659 -3.08428 2.40807 0
M  V30 921 H 87.6889 -3.87587 0.886674 0
M  V30 922 N 88.686 -0.835752 -1.33615 0
M  V30 923 C 89.933 -0.429959 -1.97883 0
M  V30 924 C 90.261 1.01006 -1.66217 0
M  V30 925 O 89.516 1.72047 -0.93265 0
M  V30 926 C 89.815 -0.593925 -3.52431 0
M  V30 927 C 89.481 -2.00158 -4.04039 0
M  V30 928 C 88.143 -2.38662 -4.17844 0
M  V30 929 C 90.495 -2.92117 -4.31644 0
M  V30 930 C 87.823 -3.68435 -4.56588 0
M  V30 931 C 90.175 -4.21368 -4.71838 0
M  V30 932 C 88.839 -4.59833 -4.83849 0
M  V30 933 H 88.109 -0.157333 -0.724104 0
M  V30 934 H 90.756 -1.06217 -1.59343 0
M  V30 935 H 89.061 0.121619 -3.91611 0
M  V30 936 H 90.758 -0.260282 -4.00154 0
M  V30 937 H 87.348 -1.69252 -3.93766 0
M  V30 938 H 91.532 -2.63608 -4.20505 0
M  V30 939 H 86.788 -3.98046 -4.64079 0
M  V30 940 H 90.962 -4.92703 -4.92155 0
M  V30 941 H 88.589 -5.60438 -5.13627 0
M  V30 942 N 90.1641 1.46063 -0.591896 0
M  V30 943 C 91.0941 2.33172 0.123673 0
M  V30 944 C 92.0751 1.45897 0.87453 0
M  V30 945 O 93.2601 1.74698 0.848181 0
M  V30 946 C 90.3901 3.28336 1.13194 0
M  V30 947 C 89.3441 4.25124 0.495324 0
M  V30 948 C 88.6701 5.09863 1.61071 0
M  V30 949 C 89.9701 5.19143 -0.573425 0
M  V30 950 H 91.6641 2.93252 -0.603646 0
M  V30 951 H 89.2101 1.41014 -0.291741 0
M  V30 952 H 91.1631 3.88137 1.64097 0
M  V30 953 H 89.8871 2.66383 1.88965 0
M  V30 954 H 88.5461 3.66599 0.00729452 0
M  V30 955 H 88.1941 4.44288 2.35832 0
M  V30 956 H 87.8941 5.75417 1.19035 0
M  V30 957 H 89.4181 5.72529 2.12233 0
M  V30 958 H 90.8321 5.73106 -0.1491 0
M  V30 959 H 89.2291 5.93089 -0.914636 0
M  V30 960 H 90.2991 4.62519 -1.45617 0
M  V30 961 N 91.6422 0.330177 1.54103 0
M  V30 962 C 92.5722 -0.525353 2.27513 0
M  V30 963 C 93.5532 -1.11383 1.2856 0
M  V30 964 O 94.7382 -1.13773 1.57383 0
M  V30 965 C 91.8682 -1.6831 3.03791 0
M  V30 966 C 90.8222 -1.2236 4.10137 0
M  V30 967 C 90.1482 -2.46882 4.74293 0
M  V30 968 C 91.4482 -0.333697 5.21233 0
M  V30 969 H 93.1422 0.087013 2.99274 0
M  V30 970 H 90.6882 0.0432893 1.43935 0
M  V30 971 H 92.6412 -2.28795 3.5388 0
M  V30 972 H 91.3652 -2.32216 2.29659 0
M  V30 973 H 90.0242 -0.64165 3.60941 0
M  V30 974 H 89.6722 -3.09165 3.96769 0
M  V30 975 H 89.3722 -2.16825 5.46133 0
M  V30 976 H 90.8962 -3.08117 5.27159 0
M  V30 977 H 92.3102 -0.845013 5.67038 0
M  V30 978 H 90.7072 -0.125612 5.99969 0
M  V30 979 H 91.7772 0.633724 4.80741 0
M  V30 980 N 93.1203 -1.57491 0.0584922 0
M  V30 981 C 94.0673 -2.11958 -0.913376 0
M  V30 982 C 95.0373 -1.02875 -1.30407 0
M  V30 983 O 96.2223 -1.30464 -1.39226 0
M  V30 984 C 93.3623 -2.67497 -2.18035 0
M  V30 985 C 92.4753 -3.90691 -1.84349 0
M  V30 986 C 91.6103 -4.3452 -3.05559 0
M  V30 987 C 90.6493 -5.50395 -2.67827 0
M  V30 988 N 89.7863 -5.89244 -3.81754 0
M  V30 989 H 94.6263 -2.94704 -0.442017 0
M  V30 990 H 92.1633 -1.45643 -0.206545 0
M  V30 991 H 94.1213 -2.978 -2.92183 0
M  V30 992 H 92.7513 -1.87537 -2.62735 0
M  V30 993 H 91.8033 -3.66934 -1.00319 0
M  V30 994 H 93.1153 -4.7489 -1.5258 0
M  V30 995 H 92.2693 -4.66414 -3.87998 0
M  V30 996 H 91.0083 -3.49147 -3.40511 0
M  V30 997 H 90.0133 -5.18165 -1.83806 0
M  V30 998 H 91.2383 -6.3749 -2.34059 0
M  V30 999 H 89.1843 -5.06823 -4.16493 0
M  V30 1000 H 89.1013 -6.68151 -3.53708 0
M  V30 1001 H 90.3693 -6.25756 -4.64811 0
M  V30 1002 N 94.5984 0.214957 -1.56127 0
M  V30 1003 C 95.5454 1.26642 -1.92952 0
M  V30 1004 C 96.5154 1.46244 -0.78753 0
M  V30 1005 O 97.7004 1.59704 -1.04399 0
M  V30 1006 C 94.8404 2.6104 -2.25726 0
M  V30 1007 C 93.9534 2.49183 -3.52891 0
M  V30 1008 C 93.0884 3.76149 -3.7508 0
M  V30 1009 C 92.1274 3.59041 -4.95738 0
M  V30 1010 N 91.2644 4.77972 -5.14283 0
M  V30 1011 H 96.1044 0.945384 -2.82607 0
M  V30 1012 H 93.6414 0.455489 -1.3987 0
M  V30 1013 H 95.5994 3.39313 -2.42739 0
M  V30 1014 H 94.2294 2.91227 -1.39236 0
M  V30 1015 H 93.2814 1.6231 -3.44034 0
M  V30 1016 H 94.5934 2.32466 -4.41318 0
M  V30 1017 H 93.7474 4.62865 -3.92226 0
M  V30 1018 H 92.4864 3.95799 -2.84947 0
M  V30 1019 H 91.4914 2.7071 -4.78535 0
M  V30 1020 H 92.7164 3.40856 -5.87362 0
M  V30 1021 H 90.6624 4.97923 -4.27093 0
M  V30 1022 H 90.5794 4.64006 -5.96853 0
M  V30 1023 H 91.8474 5.66096 -5.35869 0
M  V30 1024 N 96.0765 1.50051 0.48192 0
M  V30 1025 C 97.4925 1.37237 0.814756 0
M  V30 1026 C 97.6925 0.420109 1.97072 0
M  V30 1027 O 96.7485 -0.141246 2.52105 0
M  V30 1028 C 98.0615 2.78375 1.13701 0
M  V30 1029 C 99.6095 2.87213 1.2441 0
M  V30 1030 C 100.084 4.29161 1.59954 0
M  V30 1031 N 101.575 4.32061 1.66967 0
M  V30 1032 C 102.31 5.38879 1.95952 0
M  V30 1033 N 101.806 6.55918 2.23031 0
M  V30 1034 N 103.599 5.26312 1.97363 0
M  V30 1035 H 95.7505 2.10546 -0.28005 0
M  V30 1036 H 98.0135 0.945921 -0.0627454 0
M  V30 1037 H 97.7195 3.49845 0.360787 0
M  V30 1038 H 97.5935 3.14941 2.07586 0
M  V30 1039 H 99.9805 2.15969 2.01101 0
M  V30 1040 H 100.061 2.54204 0.285299 0
M  V30 1041 H 99.7055 5.00938 0.838067 0
M  V30 1042 H 99.6355 4.59648 2.56966 0
M  V30 1043 H 102.126 3.47661 1.48123 0
M  V30 1044 H 102.439 7.33139 2.44391 0
M  V30 1045 H 100.784 6.59112 2.20447 0
M  V30 1046 H 103.975 4.33876 1.75697 0
M  V30 1047 H 104.148 6.09649 2.19618 0
M  V30 1048 N 97.5546 -0.734337 1.39446 0
M  V30 1049 C 98.8036 -1.48937 1.36017 0
M  V30 1050 C 99.1166 -1.95557 -0.0409005 0
M  V30 1051 O 100.323 -2.70779 -0.19778 0
M  V30 1052 C 98.7786 -2.69125 2.38955 0
M  V30 1053 C 98.3866 -2.29452 3.8478 0
M  V30 1054 C 100.131 -3.46944 2.44603 0
M  V30 1055 C 98.0376 -3.46366 4.79358 0
M  V30 1056 H 96.9676 -0.559296 0.505672 0
M  V30 1057 H 99.6186 -0.800983 1.65095 0
M  V30 1058 H 98.0006 -3.40041 2.02948 0
M  V30 1059 H 99.1746 -1.66077 4.29831 0
M  V30 1060 H 97.4896 -1.64723 3.82433 0
M  V30 1061 H 100.087 -4.33907 3.12456 0
M  V30 1062 H 100.43 -3.89454 1.47076 0
M  V30 1063 H 100.963 -2.83056 2.79507 0
M  V30 1064 H 97.7016 -3.08905 5.78151 0
M  V30 1065 H 97.2216 -4.08719 4.38986 0
M  V30 1066 H 98.9006 -4.12691 4.98292 0
M  V30 1067 N 99.0327 -1.24633 -0.964593 0
M  V30 1068 C 99.9797 -1.04144 -2.05968 0
M  V30 1069 C 100.95 0.046262 -1.66036 0
M  V30 1070 O 102.135 -0.108972 -1.90489 0
M  V30 1071 C 99.2747 -0.65563 -3.38815 0
M  V30 1072 C 98.3877 -1.81714 -3.91923 0
M  V30 1073 C 97.5227 -1.37662 -5.13052 0
M  V30 1074 C 96.5617 -2.50788 -5.58365 0
M  V30 1075 N 95.6987 -2.07582 -6.70712 0
M  V30 1076 H 100.539 -1.9787 -2.22827 0
M  V30 1077 H 98.0757 -0.9855 -1.09208 0
M  V30 1078 H 100.034 -0.412954 -4.15151 0
M  V30 1079 H 98.6637 0.244627 -3.21872 0
M  V30 1080 H 97.7157 -2.1734 -3.12198 0
M  V30 1081 H 99.0277 -2.66705 -4.21509 0
M  V30 1082 H 98.1817 -1.093 -5.96773 0
M  V30 1083 H 96.9207 -0.497293 -4.85158 0
M  V30 1084 H 95.9257 -2.79906 -4.73215 0
M  V30 1085 H 97.1507 -3.39283 -5.88272 0
M  V30 1086 H 95.0967 -1.22051 -6.44546 0
M  V30 1087 H 95.0137 -2.86125 -6.99763 0
M  V30 1088 H 96.2817 -1.82369 -7.57867 0
M  V30 1089 N 100.511 1.16574 -1.06058 0
M  V30 1090 C 101.444 2.19798 -0.61352 0
M  V30 1091 C 102.422 1.58509 0.362453 0
M  V30 1092 O 103.606 1.86527 0.271994 0
M  V30 1093 C 100.733 3.3855 0.100915 0
M  V30 1094 C 99.7788 4.18317 -0.831438 0
M  V30 1095 S 100.612 4.82375 -2.32539 0
M  V30 1096 C 101.768 6.04508 -1.62238 0
M  V30 1097 H 102.001 2.5738 -1.48805 0
M  V30 1098 H 99.5338 1.27327 -0.873338 0
M  V30 1099 H 101.492 4.07358 0.506898 0
M  V30 1100 H 100.153 2.99338 0.951604 0
M  V30 1101 H 99.3458 5.03232 -0.278071 0
M  V30 1102 H 98.9478 3.5499 -1.17719 0
M  V30 1103 H 101.24 6.71133 -0.926622 0
M  V30 1104 H 102.183 6.64389 -2.44934 0
M  V30 1105 H 102.591 5.53559 -1.106 0
M  V30 1106 N 101.989 0.842826 1.3317 0
M  V30 1107 C 102.919 0.294028 2.31641 0
M  V30 1108 C 103.9 -0.600401 1.59151 0
M  V30 1109 O 105.085 -0.523124 1.87022 0
M  V30 1110 C 102.215 -0.528416 3.43257 0
M  V30 1111 C 101.169 0.27056 4.27144 0
M  V30 1112 C 100.495 -0.675881 5.30411 0
M  V30 1113 C 101.795 1.48981 5.00602 0
M  V30 1114 H 103.489 1.11681 2.77791 0
M  V30 1115 H 101.035 0.538478 1.33553 0
M  V30 1116 H 102.988 -0.922674 4.11175 0
M  V30 1117 H 101.712 -1.38445 2.95805 0
M  V30 1118 H 100.371 0.646427 3.60856 0
M  V30 1119 H 100.019 -1.52842 4.79216 0
M  V30 1120 H 99.7189 -0.145374 5.8742 0
M  V30 1121 H 101.243 -1.06757 6.01195 0
M  V30 1122 H 102.657 1.16849 5.61266 0
M  V30 1123 H 101.054 1.95739 5.6728 0
M  V30 1124 H 102.124 2.25746 4.29147 0
M  V30 1125 N 103.467 -1.45747 0.599634 0
M  V30 1126 C 104.713 -2.02592 0.0918643 0
M  V30 1127 C 105.046 -1.46806 -1.27128 0
M  V30 1128 O 104.321 -0.639658 -1.83681 0
M  V30 1129 C 104.604 -3.60073 0.0443398 0
M  V30 1130 C 104.457 -4.26208 1.43759 0
M  V30 1131 C 105.776 -4.35309 -0.647608 0
M  V30 1132 H 102.895 -0.736175 0.034857 0
M  V30 1133 H 105.537 -1.73694 0.770081 0
M  V30 1134 H 103.687 -3.84823 -0.533224 0
M  V30 1135 H 105.359 -4.12668 2.06162 0
M  V30 1136 H 103.602 -3.84916 2.00056 0
M  V30 1137 H 104.273 -5.35069 1.35665 0
M  V30 1138 H 106.749 -4.15805 -0.156776 0
M  V30 1139 H 105.625 -5.45038 -0.649942 0
M  V30 1140 H 105.886 -4.07598 -1.71219 0
M  V30 1141 N 104.945 -0.338344 -1.53925 0
M  V30 1142 C 106.194 0.260732 -2.00008 0
M  V30 1143 C 106.507 1.52073 -1.23017 0
M  V30 1144 O 107.713 2.19672 -1.5955 0
M  V30 1145 C 106.169 0.51515 -3.56194 0
M  V30 1146 C 105.777 -0.728645 -4.42035 0
M  V30 1147 C 107.521 1.07337 -4.10706 0
M  V30 1148 C 105.428 -0.445315 -5.89721 0
M  V30 1149 H 104.358 0.101205 -0.747177 0
M  V30 1150 H 107.009 -0.452866 -1.77824 0
M  V30 1151 H 105.391 1.28932 -3.74423 0
M  V30 1152 H 106.565 -1.50352 -4.35581 0
M  V30 1153 H 104.88 -1.20813 -3.98489 0
M  V30 1154 H 107.477 1.30022 -5.18651 0
M  V30 1155 H 107.82 2.0273 -3.63602 0
M  V30 1156 H 108.353 0.360034 -3.96167 0
M  V30 1157 H 105.092 -1.36883 -6.41049 0
M  V30 1158 H 104.612 0.291569 -5.99091 0
M  V30 1159 H 106.291 -0.0606218 -6.46972 0
M  V30 1160 N 106.423 1.57458 -0.0668435 0
M  V30 1161 C 107.386 2.11323 0.887422 0
M  V30 1162 C 108.386 1.03618 1.22964 0
M  V30 1163 O 109.576 1.29626 1.16373 0
M  V30 1164 C 106.708 2.61048 2.19242 0
M  V30 1165 H 107.901 2.96942 0.420194 0
M  V30 1166 H 105.454 1.55239 0.181793 0
M  V30 1167 H 106.189 1.78868 2.70512 0
M  V30 1168 H 105.974 3.39769 1.95702 0
M  V30 1169 H 107.464 3.02814 2.87565 0
M  V30 1170 N 107.901 -0.206675 1.56239 0
M  V30 1171 C 109.141 -0.93574 1.81723 0
M  V30 1172 C 109.505 -1.80927 0.642609 0
M  V30 1173 O 110.706 -2.57323 0.777081 0
M  V30 1174 C 108.977 -1.74012 3.12177 0
M  V30 1175 S 110.536 -2.52279 3.59028 0
M  V30 1176 H 107.354 -0.314065 0.637875 0
M  V30 1177 H 109.956 -0.200071 1.94474 0
M  V30 1178 H 108.66 -1.0888 3.95693 0
M  V30 1179 H 108.191 -2.51782 3.02274 0
M  V30 1180 H 110.206 -3.76209 3.23545 0
M  V30 1181 N 109.379 -1.50304 -0.473955 0
M  V30 1182 C 110.327 -1.69482 -1.59307 0
M  V30 1183 C 111.321 -0.560669 -1.59853 0
M  V30 1184 O 112.527 -0.741087 -1.64036 0
M  V30 1185 H 108.902 -0.534892 -0.528578 0
M  V30 1186 H 110.873 -2.63364 -1.40293 0
M  V30 1187 C 109.622 -1.80354 -2.97267 0
M  V30 1188 H 108.945 -2.67012 -2.97564 0
M  V30 1189 H 110.385 -1.97798 -3.75036 0
M  V30 1190 C 108.844 -0.55448 -3.32306 0
M  V30 1191 O 109.374 0.307661 -4.0052 0
M  V30 1192 N 107.58 -0.409354 -2.87702 0
M  V30 1193 H 107.127 -1.11196 -2.32364 0
M  V30 1194 H 107.085 0.425223 -3.11511 0
M  V30 1195 N 110.857 0.726932 -1.39834 0
M  V30 1196 C 112.085 1.51613 -1.40787 0
M  V30 1197 C 112.5 1.88799 -0.00451505 0
M  V30 1198 O 111.857 1.54662 0.968809 0
M  V30 1199 C 111.908 2.79863 -2.28821 0
M  V30 1200 O 111.629 2.44253 -3.63692 0
M  V30 1201 C 113.13 3.73837 -2.38245 0
M  V30 1202 H 110.35 0.468264 -0.480593 0
M  V30 1203 H 112.894 0.897607 -1.83748 0
M  V30 1204 H 111.049 3.38027 -1.89252 0
M  V30 1205 H 111.463 3.26695 -4.1033 0
M  V30 1206 H 112.937 4.60699 -3.04073 0
M  V30 1207 H 113.414 4.16153 -1.40403 0
M  V30 1208 H 114.02 3.21589 -2.78317 0
M  V30 1209 N 112.336 1.25143 0.95797 0
M  V30 1210 C 113.299 1.05321 2.03569 0
M  V30 1211 C 114.299 0.007152 1.60798 0
M  V30 1212 O 115.489 0.24903 1.72411 0
M  V30 1213 C 112.621 0.598394 3.35607 0
M  V30 1214 H 113.814 2.00986 2.22586 0
M  V30 1215 H 111.367 1.07502 1.13459 0
M  V30 1216 H 112.102 -0.361014 3.22284 0
M  V30 1217 H 111.887 1.35351 3.67998 0
M  V30 1218 H 113.377 0.48104 4.1482 0
M  V30 1219 N 113.814 -1.1601 1.06675 0
M  V30 1220 C 115.042 -1.90527 0.806667 0
M  V30 1221 C 115.457 -1.77643 -0.639396 0
M  V30 1222 O 114.814 -1.12369 -1.43803 0
M  V30 1223 C 114.865 -3.41106 1.19705 0
M  V30 1224 O 114.586 -3.53608 2.58636 0
M  V30 1225 C 116.087 -4.32663 0.965266 0
M  V30 1226 H 113.307 -0.604053 0.292166 0
M  V30 1227 H 115.851 -1.47026 1.4214 0
M  V30 1228 H 114.006 -3.82296 0.626774 0
M  V30 1229 H 114.42 -4.47011 2.74375 0
M  V30 1230 H 115.894 -5.36763 1.288 0
M  V30 1231 H 116.371 -4.39089 -0.0987936 0
M  V30 1232 H 116.977 -3.97206 1.52011 0
M  V30 1233 N 115.292 -0.849877 -1.32721 0
M  V30 1234 C 116.255 -0.296122 -2.27279 0
M  V30 1235 C 117.255 0.541458 -1.5141 0
M  V30 1236 O 118.445 0.353658 -1.70572 0
M  V30 1237 C 115.577 0.581579 -3.35902 0
M  V30 1238 H 116.77 -1.13064 -2.77771 0
M  V30 1239 H 114.323 -0.62383 -1.43311 0
M  V30 1240 H 115.058 1.43809 -2.9067 0
M  V30 1241 H 114.843 -0.0178814 -3.92096 0
M  V30 1242 H 116.333 0.961951 -4.0637 0
M  V30 1243 N 116.77 1.45427 -0.607355 0
M  V30 1244 C 118.016 2.0254 -0.102607 0
M  V30 1245 C 118.349 1.47478 1.26348 0
M  V30 1246 O 117.624 0.64939 1.83339 0
M  V30 1247 C 117.907 3.60044 -0.0634347 0
M  V30 1248 C 117.76 4.2544 -1.46017 0
M  V30 1249 C 119.079 4.35646 0.624514 0
M  V30 1250 H 116.198 0.73598 -0.0387607 0
M  V30 1251 H 118.84 1.73284 -0.779282 0
M  V30 1252 H 116.99 3.85101 0.512808 0
M  V30 1253 H 118.662 4.11569 -2.08347 0
M  V30 1254 H 116.905 3.83849 -2.02094 0
M  V30 1255 H 117.576 5.34342 -1.385 0
M  V30 1256 H 120.052 4.15882 0.134723 0
M  V30 1257 H 118.928 5.45376 0.621028 0
M  V30 1258 H 119.189 4.08501 1.69055 0
M  V30 1259 N 118.248 0.346503 1.53744 0
M  V30 1260 C 119.211 -0.496439 2.23759 0
M  V30 1261 C 120.211 -1.0252 1.2388 0
M  V30 1262 O 121.401 -0.913974 1.48297 0
M  V30 1263 C 118.533 -1.69187 2.95954 0
M  V30 1264 H 119.726 0.115952 2.99676 0
M  V30 1265 H 117.279 0.0978939 1.55993 0
M  V30 1266 H 118.014 -2.34288 2.24231 0
M  V30 1267 H 117.799 -1.31989 3.69217 0
M  V30 1268 H 119.289 -2.28969 3.49232 0
M  V30 1269 N 119.726 -1.57421 0.075193 0
M  V30 1270 C 120.656 -2.15942 -0.888324 0
M  V30 1271 C 121.637 -1.08737 -1.30806 0
M  V30 1272 O 122.822 -1.36787 -1.37851 0
M  V30 1273 C 119.952 -2.72379 -2.1547 0
M  V30 1274 C 118.906 -3.8478 -1.87425 0
M  V30 1275 C 118.232 -4.27834 -3.20721 0
M  V30 1276 C 119.532 -5.08869 -1.17684 0
M  V30 1277 H 121.226 -2.96705 -0.400799 0
M  V30 1278 H 118.772 -1.42723 -0.191342 0
M  V30 1279 H 120.725 -3.11965 -2.83295 0
M  V30 1280 H 119.449 -1.88841 -2.6647 0
M  V30 1281 H 118.108 -3.45703 -1.22004 0
M  V30 1282 H 117.756 -3.41214 -3.6957 0
M  V30 1283 H 117.456 -5.03605 -3.02746 0
M  V30 1284 H 118.98 -4.70039 -3.89738 0
M  V30 1285 H 120.394 -5.4575 -1.75584 0
M  V30 1286 H 118.791 -5.8994 -1.09956 0
M  V30 1287 H 119.861 -4.84648 -0.156453 0
M  V30 1288 N 121.204 0.198386 -1.56346 0
M  V30 1289 C 122.114 1.2664 -1.97483 0
M  V30 1290 C 123.13 1.49989 -0.882002 0
M  V30 1291 O 124.306 1.62668 -1.18748 0
M  V30 1292 C 121.371 2.59141 -2.30319 0
M  V30 1293 C 120.432 2.43892 -3.53292 0
M  V30 1294 C 119.665 3.70074 -3.84553 0
M  V30 1295 O 119.888 4.74101 -3.1715 0
M  V30 1296 O 118.822 3.658 -4.7799 0
M  V30 1297 H 122.648 0.947304 -2.88548 0
M  V30 1298 H 120.233 0.403123 -1.43859 0
M  V30 1299 H 122.115 3.37352 -2.5253 0
M  V30 1300 H 120.79 2.90684 -1.42423 0
M  V30 1301 H 119.697 1.63803 -3.36332 0
M  V30 1302 H 121.03 2.17282 -4.41644 0
M  V30 1303 N 122.682 1.50554 0.465978 0
M  V30 1304 C 123.592 1.72585 1.58907 0
M  V30 1305 C 124.608 0.60911 1.6299 0
M  V30 1306 O 125.784 0.88804 1.80765 0
M  V30 1307 C 122.849 1.81995 2.95091 0
M  V30 1308 C 121.91 3.05751 3.01355 0
M  V30 1309 C 121.143 3.14702 4.31043 0
M  V30 1310 O 121.366 2.30313 5.21835 0
M  V30 1311 O 120.3 4.07468 4.43005 0
M  V30 1312 H 124.126 2.67799 1.43239 0
M  V30 1313 H 121.711 1.34711 0.646013 0
M  V30 1314 H 123.593 1.90335 3.75966 0
M  V30 1315 H 122.268 0.899659 3.10947 0
M  V30 1316 H 121.175 3.02908 2.19539 0
M  V30 1317 H 122.508 3.97375 2.90437 0
M  V30 1318 N 124.16 -0.719506 1.40217 0
M  V30 1319 C 125.409 -1.47486 1.37589 0
M  V30 1320 C 125.722 -1.9559 -0.0201568 0
M  V30 1321 O 126.928 -2.70973 -0.169049 0
M  V30 1322 C 125.384 -2.66575 2.41796 0
M  V30 1323 C 124.992 -2.25358 3.87192 0
M  V30 1324 C 126.736 -3.4433 2.48269 0
M  V30 1325 C 124.643 -3.41262 4.83005 0
M  V30 1326 H 123.573 -0.553901 0.511576 0
M  V30 1327 H 126.224 -0.783427 1.65936 0
M  V30 1328 H 124.606 -3.3787 2.06543 0
M  V30 1329 H 125.78 -1.61509 4.31569 0
M  V30 1330 H 124.095 -1.60657 3.84159 0
M  V30 1331 H 126.692 -4.30569 3.17041 0
M  V30 1332 H 127.035 -3.87872 1.51198 0
M  V30 1333 H 127.568 -2.80076 2.82493 0
M  V30 1334 H 124.307 -3.02755 5.81394 0
M  V30 1335 H 123.827 -4.0404 4.43297 0
M  V30 1336 H 125.506 -4.07383 5.02641 0
M  V30 1337 N 125.638 -1.25649 -0.95132 0
M  V30 1338 C 126.585 -1.06323 -2.04851 0
M  V30 1339 C 127.555 0.0286491 -1.66075 0
M  V30 1340 O 128.74 -0.12917 -1.90362 0
M  V30 1341 C 125.88 -0.691529 -3.381 0
M  V30 1342 C 124.993 -1.85861 -3.89974 0
M  V30 1343 C 124.128 -1.43096 -5.11563 0
M  V30 1344 C 123.167 -2.56696 -5.55674 0
M  V30 1345 N 122.304 -2.14684 -6.68472 0
M  V30 1346 H 127.144 -2.00222 -2.20715 0
M  V30 1347 H 124.681 -0.997027 -1.08156 0
M  V30 1348 H 126.639 -0.456963 -4.1469 0
M  V30 1349 H 125.269 0.210474 -3.22113 0
M  V30 1350 H 124.321 -2.20639 -3.09875 0
M  V30 1351 H 125.633 -2.71161 -4.18657 0
M  V30 1352 H 124.787 -1.15624 -5.9558 0
M  V30 1353 H 123.526 -0.548722 -4.84603 0
M  V30 1354 H 122.531 -2.84909 -4.7022 0
M  V30 1355 H 123.756 -3.45503 -5.8464 0
M  V30 1356 H 121.702 -1.28881 -6.43215 0
M  V30 1357 H 121.619 -2.9353 -6.96689 0
M  V30 1358 H 122.887 -1.90397 -7.5589 0
M  V30 1359 N 127.117 1.15442 -1.07289 0
M  V30 1360 C 128.08 2.18358 -0.696591 0
M  V30 1361 C 129.08 1.58637 0.262837 0
M  V30 1362 O 130.27 1.74145 0.0438809 0
M  V30 1363 C 127.402 3.4089 -0.0266151 0
M  V30 1364 H 128.595 2.53162 -1.60776 0
M  V30 1365 H 126.148 1.29893 -0.869342 0
M  V30 1366 H 126.883 3.11653 0.896822 0
M  V30 1367 H 126.668 3.85495 -0.716657 0
M  V30 1368 H 128.158 4.17009 0.222028 0
M  V30 1369 N 128.595 0.856903 1.32268 0
M  V30 1370 C 129.558 0.308171 2.27119 0
M  V30 1371 C 130.558 -0.533421 1.51695 0
M  V30 1372 O 131.748 -0.344607 1.70757 0
M  V30 1373 C 128.88 -0.563757 3.36206 0
M  V30 1374 H 130.073 1.14535 2.77167 0
M  V30 1375 H 127.626 0.631421 1.42978 0
M  V30 1376 H 128.361 -1.42266 2.91429 0
M  V30 1377 H 128.146 0.0386749 3.92081 0
M  V30 1378 H 129.636 -0.940386 4.06874 0
M  V30 1379 N 130.073 -1.45103 0.615059 0
M  V30 1380 C 131.003 -2.33339 -0.0865619 0
M  V30 1381 C 131.984 -1.4727 -0.851209 0
M  V30 1382 O 133.169 -1.76026 -0.820281 0
M  V30 1383 C 130.299 -3.30095 -1.07956 0
M  V30 1384 C 129.253 -4.25858 -0.427628 0
M  V30 1385 C 128.579 -5.12361 -1.5294 0
M  V30 1386 C 129.879 -5.18165 0.655944 0
M  V30 1387 H 131.573 -2.92254 0.650224 0
M  V30 1388 H 129.119 -1.40532 0.314138 0
M  V30 1389 H 131.072 -3.90698 -1.57901 0
M  V30 1390 H 129.796 -2.69355 -1.84703 0
M  V30 1391 H 128.455 -3.66564 0.0510292 0
M  V30 1392 H 128.103 -4.47984 -2.28734 0
M  V30 1393 H 127.803 -5.77238 -1.09865 0
M  V30 1394 H 129.327 -5.75833 -2.03098 0
M  V30 1395 H 130.741 -5.72796 0.240257 0
M  V30 1396 H 129.138 -5.91559 1.00888 0
M  V30 1397 H 130.208 -4.60144 1.52957 0
M  V30 1398 N 131.551 -0.354651 -1.53558 0
M  V30 1399 C 132.962 0.126902 -1.86268 0
M  V30 1400 C 133.313 1.49075 -1.27558 0
M  V30 1401 O 132.438 2.08105 -0.5934 0
M  V30 1402 C 133.033 0.237046 -3.3797 0
M  V30 1403 C 131.592 0.662842 -3.70518 0
M  V30 1404 C 130.739 -0.196652 -2.76602 0
M  V30 1405 H 133.69 -0.573849 -1.47962 0
M  V30 1406 H 133.711 1.06259 -3.65362 0
M  V30 1407 H 133.223 -0.755725 -3.80671 0
M  V30 1408 H 131.324 1.66424 -3.33367 0
M  V30 1409 H 131.437 0.445034 -4.77029 0
M  V30 1410 H 129.801 0.332763 -2.52517 0
M  V30 1411 H 130.584 -1.18676 -3.22135 0
M  V30 1412 N 133.029 1.57378 -0.0835403 0
M  V30 1413 C 134.278 1.93106 0.582498 0
M  V30 1414 C 134.591 0.96651 1.70053 0
M  V30 1415 O 135.797 1.21705 2.42693 0
M  V30 1416 C 134.253 3.43076 1.08751 0
M  V30 1417 C 133.861 4.48 -0.000146404 0
M  V30 1418 C 135.605 3.87785 1.72694 0
M  V30 1419 C 133.512 5.89113 0.519568 0
M  V30 1420 H 132.442 0.720775 0.221358 0
M  V30 1421 H 135.093 1.82821 -0.157675 0
M  V30 1422 H 133.475 3.48474 1.88101 0
M  V30 1423 H 134.649 4.54233 -0.775199 0
M  V30 1424 H 132.964 4.1283 -0.54406 0
M  V30 1425 H 135.561 4.90604 2.1263 0
M  V30 1426 H 135.904 3.25796 2.59158 0
M  V30 1427 H 136.437 3.8504 0.999457 0
M  V30 1428 H 133.176 6.54775 -0.308186 0
M  V30 1429 H 132.696 5.86376 1.26188 0
M  V30 1430 H 134.375 6.39346 0.992237 0
M  V30 1431 N 134.507 -0.190092 1.56449 0
M  V30 1432 C 135.918 -0.754312 1.70784 0
M  V30 1433 C 136.269 -1.83631 0.690951 0
M  V30 1434 O 135.394 -2.15868 -0.151604 0
M  V30 1435 C 135.989 -1.37503 3.09642 0
M  V30 1436 C 134.548 -1.88628 3.25725 0
M  V30 1437 C 133.695 -0.758098 2.66736 0
M  V30 1438 H 136.646 0.0350524 1.58661 0
M  V30 1439 H 136.667 -2.2445 3.0725 0
M  V30 1440 H 136.179 -0.587302 3.83631 0
M  V30 1441 H 134.28 -2.70103 2.56661 0
M  V30 1442 H 134.393 -2.04462 4.3328 0
M  V30 1443 H 132.757 -1.17369 2.26046 0
M  V30 1444 H 133.54 0.0174705 3.43296 0
M  V30 1445 N 135.985 -1.50799 -0.457987 0
M  V30 1446 C 137.231 -1.62683 -1.21088 0
M  V30 1447 C 137.564 -0.332268 -1.91336 0
M  V30 1448 O 136.839 0.667043 -1.82704 0
M  V30 1449 C 137.122 -2.81615 -2.24422 0
M  V30 1450 C 136.975 -4.20989 -1.58392 0
M  V30 1451 C 138.294 -2.96085 -3.2561 0
M  V30 1452 H 135.413 -0.592087 -0.438864 0
M  V30 1453 H 138.055 -1.83225 -0.50286 0
M  V30 1454 H 136.205 -2.64231 -2.84806 0
M  V30 1455 H 137.877 -4.49994 -1.01504 0
M  V30 1456 H 136.12 -4.24641 -0.886704 0
M  V30 1457 H 136.791 -5.0016 -2.33547 0
M  V30 1458 H 139.267 -3.12042 -2.75262 0
M  V30 1459 H 138.143 -3.80902 -3.95228 0
M  V30 1460 H 138.404 -2.0726 -3.90507 0
M  V30 1461 N 137.463 0.71206 -1.40597 0
M  V30 1462 C 138.709 1.47416 -1.39271 0
M  V30 1463 C 139.042 1.942 0.00388791 0
M  V30 1464 O 138.317 1.68403 0.973179 0
M  V30 1465 C 138.6 2.69774 -2.38525 0
M  V30 1466 C 138.453 2.28861 -3.87224 0
M  V30 1467 C 139.772 3.71939 -2.35264 0
M  V30 1468 H 136.891 0.534713 -0.5072 0
M  V30 1469 H 139.533 0.812375 -1.71757 0
M  V30 1470 H 137.683 3.26238 -2.10953 0
M  V30 1471 H 139.355 1.77852 -4.25636 0
M  V30 1472 H 137.598 1.60824 -4.02887 0
M  V30 1473 H 138.269 3.16584 -4.52193 0
M  V30 1474 H 140.745 3.25113 -2.59694 0
M  V30 1475 H 139.621 4.55186 -3.06753 0
M  V30 1476 H 139.882 4.20484 -1.36549 0
M  V30 1477 N 138.941 1.26152 0.944643 0
M  V30 1478 C 140.189 1.11271 1.6871 0
M  V30 1479 C 140.51 -0.345166 1.91921 0
M  V30 1480 O 139.78 -1.24387 1.51343 0
M  V30 1481 H 138.36 0.408783 0.625224 0
M  V30 1482 H 141.022 1.58427 1.1352 0
M  V30 1483 H 140.118 1.62879 2.66227 0
M  V30 1484 N 140.419 -1.14872 1.07899 0
M  V30 1485 C 141.665 -1.86064 0.806725 0
M  V30 1486 C 141.998 -1.82434 -0.665706 0
M  V30 1487 O 141.273 -1.25138 -1.48899 0
M  V30 1488 C 141.556 -3.34929 1.32267 0
M  V30 1489 C 141.409 -3.47161 2.86006 0
M  V30 1490 C 142.728 -4.29863 0.943717 0
M  V30 1491 H 139.847 -0.675591 0.294526 0
M  V30 1492 H 142.489 -1.34925 1.33773 0
M  V30 1493 H 140.639 -3.78611 0.870974 0
M  V30 1494 H 142.311 -3.12302 3.39507 0
M  V30 1495 H 140.554 -2.88539 3.23925 0
M  V30 1496 H 141.225 -4.51777 3.17177 0
M  V30 1497 H 143.701 -3.9417 1.33302 0
M  V30 1498 H 142.577 -5.32494 1.33198 0
M  V30 1499 H 142.838 -4.41846 -0.149796 0
M  V30 1500 N 141.898 -0.863906 -1.31812 0
M  V30 1501 C 143.147 -0.46801 -1.96195 0
M  V30 1502 C 143.46 0.983474 -1.69077 0
M  V30 1503 O 144.666 1.48523 -2.27273 0
M  V30 1504 C 143.122 -0.785995 -3.51212 0
M  V30 1505 C 142.73 -2.25383 -3.87178 0
M  V30 1506 C 144.474 -0.458274 -4.22019 0
M  V30 1507 C 142.381 -2.51455 -5.3528 0
M  V30 1508 H 141.311 -0.171283 -0.734287 0
M  V30 1509 H 143.962 -1.05597 -1.50072 0
M  V30 1510 H 142.344 -0.127359 -3.95795 0
M  V30 1511 H 143.518 -2.95502 -3.53575 0
M  V30 1512 H 141.833 -2.54698 -3.2942 0
M  V30 1513 H 144.43 -0.630369 -5.30971 0
M  V30 1514 H 144.773 0.600834 -4.11941 0
M  V30 1515 H 145.306 -1.07319 -3.8305 0
M  V30 1516 H 142.045 -3.56025 -5.50387 0
M  V30 1517 H 141.565 -1.85923 -5.70257 0
M  V30 1518 H 143.244 -2.35874 -6.02472 0
M  V30 1519 N 143.376 1.44774 -0.622745 0
M  V30 1520 C 144.306 2.33382 0.0741861 0
M  V30 1521 C 145.287 1.47719 0.843387 0
M  V30 1522 O 146.472 1.76458 0.810934 0
M  V30 1523 C 143.602 3.30663 1.06204 0
M  V30 1524 C 142.556 4.26079 0.405037 0
M  V30 1525 C 141.882 5.13165 1.5022 0
M  V30 1526 C 143.182 5.1781 -0.683414 0
M  V30 1527 H 144.876 2.91905 -0.665713 0
M  V30 1528 H 142.422 1.40363 -0.321587 0
M  V30 1529 H 144.375 3.9153 1.55827 0
M  V30 1530 H 143.099 2.70331 1.83272 0
M  V30 1531 H 141.758 3.66532 -0.0704683 0
M  V30 1532 H 141.406 4.49191 2.26355 0
M  V30 1533 H 141.106 5.77812 1.06803 0
M  V30 1534 H 142.63 5.76902 2.00041 0
M  V30 1535 H 144.044 5.72661 -0.270631 0
M  V30 1536 H 142.441 5.91015 -1.04023 0
M  V30 1537 H 143.511 4.59326 -1.55395 0
M  V30 1538 N 144.854 0.36279 1.53368 0
M  V30 1539 C 146.265 -0.117022 1.86333 0
M  V30 1540 C 146.616 -1.48397 1.28347 0
M  V30 1541 O 145.741 -2.07787 0.604428 0
M  V30 1542 C 146.336 -0.21912 3.38091 0
M  V30 1543 C 144.895 -0.643184 3.70864 0
M  V30 1544 C 144.042 0.211318 2.76494 0
M  V30 1545 H 146.993 0.581687 1.47655 0
M  V30 1546 H 147.014 -1.04319 3.6592 0
M  V30 1547 H 146.526 0.775902 3.80265 0
M  V30 1548 H 144.627 -1.64654 3.34245 0
M  V30 1549 H 144.74 -0.41973 4.77258 0
M  V30 1550 H 143.104 -0.319367 2.5269 0
M  V30 1551 H 143.887 1.20383 3.21501 0
M  V30 1552 N 146.332 -1.57332 0.0918853 0
M  V30 1553 C 147.58 -1.93853 -0.571446 0
M  V30 1554 C 147.901 -0.974212 -1.6892 0
M  V30 1555 O 147.171 -0.0257254 -1.95883 0
M  V30 1556 H 145.751 -0.715666 -0.214082 0
M  V30 1557 H 148.413 -1.94287 0.154464 0
M  V30 1558 H 147.509 -2.96191 -0.983729 0
M  V30 1559 N 147.81 0.181792 -1.56548 0
M  V30 1560 C 148.773 1.20894 -1.94724 0
M  V30 1561 C 149.773 1.37738 -0.829747 0
M  V30 1562 O 150.963 1.35323 -1.09697 0
M  V30 1563 C 148.095 2.57593 -2.23291 0
M  V30 1564 H 149.288 0.882275 -2.86629 0
M  V30 1565 H 146.841 0.423838 -1.50444 0
M  V30 1566 H 147.576 2.95291 -1.34067 0
M  V30 1567 H 147.361 2.46735 -3.04736 0
M  V30 1568 H 148.851 3.31637 -2.53785 0
M  V30 1569 N 149.288 1.51039 0.449983 0
M  V30 1570 C 150.704 1.38934 0.785462 0
M  V30 1571 C 150.904 0.461817 1.96136 0
M  V30 1572 O 149.96 -0.0877389 2.52348 0
M  V30 1573 C 151.273 2.80724 1.0777 0
M  V30 1574 C 152.821 2.89787 1.1829 0
M  V30 1575 C 153.296 4.32457 1.50815 0
M  V30 1576 N 154.787 4.35505 1.57764 0
M  V30 1577 C 155.522 5.42914 1.84477 0
M  V30 1578 N 155.018 6.60502 2.09068 0
M  V30 1579 N 156.811 5.3038 1.86155 0
M  V30 1580 H 148.962 2.09904 -0.324647 0
M  V30 1581 H 151.225 0.944378 -0.0827957 0
M  V30 1582 H 150.931 3.50531 0.286498 0
M  V30 1583 H 150.805 3.19273 2.00859 0
M  V30 1584 H 153.192 2.20186 1.96474 0
M  V30 1585 H 153.273 2.54752 0.231314 0
M  V30 1586 H 152.917 5.02603 0.731622 0
M  V30 1587 H 152.847 4.64995 2.47158 0
M  V30 1588 H 155.338 3.50724 1.40715 0
M  V30 1589 H 155.651 7.38158 2.28785 0
M  V30 1590 H 153.996 6.63639 2.06416 0
M  V30 1591 H 157.187 4.37505 1.66454 0
M  V30 1592 H 157.36 6.1417 2.06637 0
M  V30 1593 N 150.766 -0.704594 1.40972 0
M  V30 1594 C 151.729 -1.80035 1.41845 0
M  V30 1595 C 152.729 -1.57774 0.310474 0
M  V30 1596 O 153.919 -1.64613 0.56992 0
M  V30 1597 C 151.051 -3.18284 1.22098 0
M  V30 1598 H 152.244 -1.80658 2.3938 0
M  V30 1599 H 149.797 -0.911329 1.26982 0
M  V30 1600 H 150.532 -3.23306 0.253672 0
M  V30 1601 H 150.317 -3.35843 2.02366 0
M  V30 1602 H 151.807 -3.98289 1.25522 0
M  V30 1603 N 152.244 -1.26651 -0.937939 0
M  V30 1604 C 153.207 -1.08546 -2.01867 0
M  V30 1605 C 154.207 -0.0327327 -1.60767 0
M  V30 1606 O 155.397 -0.276427 -1.71993 0
M  V30 1607 C 152.529 -0.651711 -3.34613 0
M  V30 1608 H 153.722 -2.04502 -2.1936 0
M  V30 1609 H 151.275 -1.09294 -1.11734 0
M  V30 1610 H 152.01 0.309696 -3.22818 0
M  V30 1611 H 151.795 -1.41189 -3.65798 0
M  V30 1612 H 153.285 -0.546973 -4.14002 0
M  V30 1613 N 153.722 1.14298 -1.08507 0
M  V30 1614 C 154.968 1.85633 -0.816581 0
M  V30 1615 C 155.301 1.82784 0.656021 0
M  V30 1616 O 154.576 1.25926 1.48233 0
M  V30 1617 C 154.859 3.34223 -1.34041 0
M  V30 1618 C 154.712 3.45639 -2.87843 0
M  V30 1619 C 156.031 4.29356 -0.9665 0
M  V30 1620 H 153.15 0.67402 -0.298104 0
M  V30 1621 H 155.792 1.34214 -1.34487 0
M  V30 1622 H 153.942 3.78144 -0.89104 0
M  V30 1623 H 155.614 3.10498 -3.41158 0
M  V30 1624 H 153.857 2.86817 -3.25451 0
M  V30 1625 H 154.528 4.50089 -3.19569 0
M  V30 1626 H 157.004 3.93457 -1.35391 0
M  V30 1627 H 155.88 5.3178 -1.3602 0
M  V30 1628 H 156.141 4.41919 0.126362 0
M  V30 1629 N 155.201 0.870884 1.31352 0
M  V30 1630 C 156.148 0.325425 2.28494 0
M  V30 1631 C 157.118 -0.576615 1.5577 0
M  V30 1632 O 158.303 -0.508059 1.83911 0
M  V30 1633 C 155.443 -0.466283 3.41935 0
M  V30 1634 C 154.556 0.463378 4.29508 0
M  V30 1635 C 153.691 -0.342544 5.30094 0
M  V30 1636 C 152.73 0.583486 6.09313 0
M  V30 1637 N 151.867 -0.186244 7.01853 0
M  V30 1638 H 156.707 1.15901 2.74538 0
M  V30 1639 H 154.244 0.58294 1.35056 0
M  V30 1640 H 156.202 -0.941085 4.06447 0
M  V30 1641 H 154.832 -1.26456 2.97 0
M  V30 1642 H 153.884 1.05663 3.65431 0
M  V30 1643 H 155.196 1.1734 4.84802 0
M  V30 1644 H 154.35 -0.879816 6.00287 0
M  V30 1645 H 153.089 -1.08585 4.75458 0
M  V30 1646 H 152.094 1.13251 5.3801 0
M  V30 1647 H 153.319 1.32566 6.66035 0
M  V30 1648 H 151.265 -0.912348 6.49625 0
M  V30 1649 H 151.182 0.464422 7.54572 0
M  V30 1650 H 152.45 -0.704716 7.76308 0
M  V30 1651 N 156.679 -1.44442 0.630414 0
M  V30 1652 C 157.925 -2.02351 0.134816 0
M  V30 1653 C 158.258 -1.4947 -1.23986 0
M  V30 1654 O 157.533 -0.678475 -1.82283 0
M  V30 1655 C 157.816 -3.59898 0.120707 0
M  V30 1656 C 157.669 -4.23063 1.52767 0
M  V30 1657 C 158.988 -4.36585 -0.555127 0
M  V30 1658 H 156.107 -0.73527 0.0504646 0
M  V30 1659 H 158.749 -1.72022 0.806751 0
M  V30 1660 H 156.899 -3.85868 -0.451477 0
M  V30 1661 H 158.571 -4.08202 2.14869 0
M  V30 1662 H 156.814 -3.80586 2.08175 0
M  V30 1663 H 157.485 -5.32071 1.46984 0
M  V30 1664 H 159.961 -4.16044 -0.0685429 0
M  V30 1665 H 158.837 -5.46294 -0.534185 0
M  V30 1666 H 159.098 -4.11138 -1.62535 0
M  V30 1667 N 158.157 -0.370918 -1.53173 0
M  V30 1668 C 159.385 0.217704 -2.05751 0
M  V30 1669 C 159.8 1.42018 -1.24404 0
M  V30 1670 O 159.157 1.80245 -0.286033 0
M  V30 1671 C 159.208 0.605954 -3.56385 0
M  V30 1672 O 158.929 -0.548734 -4.3465 0
M  V30 1673 C 160.43 1.2524 -4.25241 0
M  V30 1674 H 157.65 0.0371659 -0.66997 0
M  V30 1675 H 160.194 -0.530832 -1.9749 0
M  V30 1676 H 158.349 1.3044 -3.6478 0
M  V30 1677 H 158.763 -0.23376 -5.23979 0
M  V30 1678 H 160.237 1.47458 -5.3194 0
M  V30 1679 H 160.714 2.2143 -3.79296 0
M  V30 1680 H 161.32 0.595233 -4.21114 0
M  V30 1681 N 159.635 1.57281 -0.100228 0
M  V30 1682 C 160.582 2.14305 0.856858 0
M  V30 1683 C 161.552 1.06296 1.27634 0
M  V30 1684 O 162.737 1.34109 1.35718 0
M  V30 1685 C 159.877 2.73184 2.10866 0
M  V30 1686 C 158.99 3.95442 1.73925 0
M  V30 1687 C 158.125 4.42468 2.93931 0
M  V30 1688 C 157.164 5.57303 2.5314 0
M  V30 1689 N 156.301 5.99158 3.65997 0
M  V30 1690 H 161.141 2.95772 0.363726 0
M  V30 1691 H 158.678 1.46139 0.167858 0
M  V30 1692 H 160.636 3.05442 2.84185 0
M  V30 1693 H 159.266 1.94437 2.57671 0
M  V30 1694 H 158.318 3.69464 0.905554 0
M  V30 1695 H 159.63 4.78769 1.39935 0
M  V30 1696 H 158.784 4.76537 3.75496 0
M  V30 1697 H 157.523 3.58052 3.31134 0
M  V30 1698 H 156.528 5.22857 1.70003 0
M  V30 1699 H 157.753 6.43471 2.17075 0
M  V30 1700 H 155.699 5.17687 4.02909 0
M  V30 1701 H 155.616 6.77295 3.35869 0
M  V30 1702 H 156.884 6.3786 4.48057 0
M  V30 1703 N 161.113 -0.173488 1.56642 0
M  V30 1704 C 162.061 -1.23417 1.97157 0
M  V30 1705 C 163.055 -1.45946 0.860013 0
M  V30 1706 O 164.261 -1.46551 1.04512 0
M  V30 1707 H 160.636 -0.414818 0.62724 0
M  V30 1708 H 162.607 -0.865582 2.8557 0
M  V30 1709 C 161.356 -2.5665 2.34576 0
M  V30 1710 H 160.679 -2.40137 3.19647 0
M  V30 1711 H 162.119 -3.2956 2.6677 0
M  V30 1712 C 160.578 -3.15245 1.18836 0
M  V30 1713 O 161.108 -3.98883 0.474869 0
M  V30 1714 N 159.314 -2.74303 0.959497 0
M  V30 1715 H 158.861 -2.0639 1.54146 0
M  V30 1716 H 158.819 -3.13844 0.186932 0
M  V30 1717 N 162.591 -1.51276 -0.441967 0
M  V30 1718 C 163.539 -1.72823 -1.55676 0
M  V30 1719 C 164.533 -0.59445 -1.58627 0
M  V30 1720 O 165.739 -0.775715 -1.62427 0
M  V30 1721 H 162.114 -0.545983 -0.517113 0
M  V30 1722 H 164.085 -2.6628 -1.34675 0
M  V30 1723 C 162.834 -1.86619 -2.93375 0
M  V30 1724 H 162.157 -2.73264 -2.91834 0
M  V30 1725 H 163.597 -2.05709 -3.70756 0
M  V30 1726 C 162.056 -0.624842 -3.31055 0
M  V30 1727 O 162.586 0.222636 -4.01083 0
M  V30 1728 N 160.792 -0.470288 -2.86769 0
M  V30 1729 H 160.339 -1.161 -2.29953 0
M  V30 1730 H 160.297 0.359051 -3.12343 0
M  V30 1731 N 164.069 0.697108 -1.41344 0
M  V30 1732 C 165.016 1.81106 -1.43071 0
M  V30 1733 C 165.986 1.63632 -0.285275 0
M  V30 1734 O 167.171 1.84504 -0.486091 0
M  V30 1735 C 164.311 3.18975 -1.31715 0
M  V30 1736 C 163.424 3.47892 -2.56115 0
M  V30 1737 C 162.559 4.75367 -2.37064 0
M  V30 1738 C 161.598 4.97247 -3.56948 0
M  V30 1739 N 160.735 6.15947 -3.36977 0
M  V30 1740 H 165.575 1.78965 -2.38276 0
M  V30 1741 H 163.112 0.873975 -1.18322 0
M  V30 1742 H 165.07 3.98615 -1.23133 0
M  V30 1743 H 163.7 3.20297 -0.401183 0
M  V30 1744 H 162.752 2.62669 -2.75153 0
M  V30 1745 H 164.064 3.59962 -3.45295 0
M  V30 1746 H 163.218 5.63059 -2.25941 0
M  V30 1747 H 161.957 4.65541 -1.45338 0
M  V30 1748 H 160.962 4.08004 -3.68527 0
M  V30 1749 H 162.187 5.08934 -4.49626 0
M  V30 1750 H 160.133 6.07336 -2.47949 0
M  V30 1751 H 160.05 6.28777 -4.19732 0
M  V30 1752 H 161.318 7.06377 -3.29623 0
M  V30 1753 N 165.547 1.27147 0.931209 0
M  V30 1754 C 166.796 1.12664 1.67302 0
M  V30 1755 C 167.109 -0.327718 1.92835 0
M  V30 1756 O 168.315 -0.593392 2.64936 0
M  V30 1757 C 166.771 1.9683 3.01307 0
M  V30 1758 C 166.379 3.46901 2.83485 0
M  V30 1759 C 168.123 1.90985 3.79111 0
M  V30 1760 C 166.03 4.23279 4.13024 0
M  V30 1761 H 164.96 0.41803 0.627509 0
M  V30 1762 H 167.611 1.51539 1.03481 0
M  V30 1763 H 165.993 1.50797 3.66164 0
M  V30 1764 H 167.167 4.00773 2.27415 0
M  V30 1765 H 165.482 3.54088 2.19113 0
M  V30 1766 H 168.079 2.45328 4.75098 0
M  V30 1767 H 168.422 0.882718 4.06834 0
M  V30 1768 H 168.955 2.34895 3.21044 0
M  V30 1769 H 165.694 5.26503 3.90481 0
M  V30 1770 H 165.214 3.74186 4.6877 0
M  V30 1771 H 166.893 4.32265 4.81411 0
M  V30 1772 N 167.025 -1.13721 1.09112 0
M  V30 1773 C 168.273 -1.84559 0.823562 0
M  V30 1774 C 168.594 -1.83754 -0.652658 0
M  V30 1775 O 167.864 -1.29102 -1.47342 0
M  V30 1776 H 166.444 -0.683376 0.301673 0
M  V30 1777 H 169.106 -1.37771 1.37859 0
M  V30 1778 H 168.202 -2.8917 1.17419 0
M  V30 1779 N 168.503 -0.877838 -1.30888 0
M  V30 1780 C 169.749 -0.493426 -1.96706 0
M  V30 1781 C 170.082 0.953504 -1.6918 0
M  V30 1782 O 169.357 1.67266 -0.992594 0
M  V30 1783 C 169.64 -0.760429 -3.51979 0
M  V30 1784 C 169.493 -2.25747 -3.89048 0
M  V30 1785 C 170.812 -0.232148 -4.39487 0
M  V30 1786 H 167.931 -0.180746 -0.714493 0
M  V30 1787 H 170.573 -1.10052 -1.54882 0
M  V30 1788 H 168.723 -0.243715 -3.87735 0
M  V30 1789 H 170.395 -2.84204 -3.63354 0
M  V30 1790 H 168.638 -2.72694 -3.37373 0
M  V30 1791 H 169.309 -2.39491 -4.97341 0
M  V30 1792 H 171.785 -0.674314 -4.106 0
M  V30 1793 H 170.661 -0.448355 -5.47066 0
M  V30 1794 H 170.922 0.866297 -4.33529 0
M  V30 1795 N 169.982 1.44106 -0.638065 0
M  V30 1796 C 171.231 2.01194 -0.142744 0
M  V30 1797 C 171.544 1.50835 1.24532 0
M  V30 1798 O 172.75 2.00096 1.83504 0
M  V30 1799 C 171.206 3.59319 -0.20442 0
M  V30 1800 C 170.814 4.18674 -1.59423 0
M  V30 1801 C 172.558 4.23854 0.234079 0
M  V30 1802 C 170.465 5.69045 -1.61065 0
M  V30 1803 H 169.395 0.752367 -0.0495998 0
M  V30 1804 H 172.046 1.65246 -0.797881 0
M  V30 1805 H 170.428 3.92598 0.517946 0
M  V30 1806 H 171.602 3.96921 -2.34074 0
M  V30 1807 H 169.917 3.66453 -1.97741 0
M  V30 1808 H 172.514 5.34155 0.241443 0
M  V30 1809 H 172.857 3.96688 1.2627 0
M  V30 1810 H 173.39 3.95403 -0.436025 0
M  V30 1811 H 170.129 6.00956 -2.61787 0
M  V30 1812 H 169.649 5.929 -0.90718 0
M  V30 1813 H 171.328 6.32809 -1.34766 0
M  V30 1814 N 171.46 0.379036 1.52974 0
M  V30 1815 C 172.708 -0.206014 2.01047 0
M  V30 1816 C 173.029 -1.48175 1.26765 0
M  V30 1817 O 172.299 -1.92085 0.384743 0
M  V30 1818 H 170.879 -0.0791184 0.742798 0
M  V30 1819 H 173.541 0.508366 1.88153 0
M  V30 1820 H 172.637 -0.423501 3.09213 0
M  V30 1821 N 172.938 -1.57226 0.108567 0
M  V30 1822 C 174.166 -1.99179 -0.559954 0
M  V30 1823 C 174.581 -0.988022 -1.60884 0
M  V30 1824 O 173.938 0.0205512 -1.82488 0
M  V30 1825 C 173.989 -3.41159 -1.19552 0
M  V30 1826 O 173.71 -4.37694 -0.188577 0
M  V30 1827 C 175.211 -3.98188 -1.94837 0
M  V30 1828 H 172.431 -0.654228 -0.149088 0
M  V30 1829 H 174.975 -2.03598 0.19183 0
M  V30 1830 H 173.13 -3.37711 -1.89815 0
M  V30 1831 H 173.544 -5.20469 -0.649014 0
M  V30 1832 H 175.018 -4.99644 -2.34648 0
M  V30 1833 H 175.495 -3.3675 -2.81951 0
M  V30 1834 H 176.101 -4.0515 -1.2936 0
M  V30 1835 N 174.416 0.165178 -1.56732 0
M  V30 1836 C 175.346 1.20651 -1.99914 0
M  V30 1837 C 176.327 1.45827 -0.875705 0
M  V30 1838 O 177.512 1.57057 -1.14223 0
M  V30 1839 C 174.642 2.54401 -2.36427 0
M  V30 1840 C 173.596 2.43782 -3.51787 0
M  V30 1841 C 172.922 3.82078 -3.7406 0
M  V30 1842 C 174.222 1.93732 -4.85041 0
M  V30 1843 H 175.916 0.847534 -2.87154 0
M  V30 1844 H 173.462 0.40625 -1.38151 0
M  V30 1845 H 175.415 3.27458 -2.65234 0
M  V30 1846 H 174.139 2.92098 -1.46103 0
M  V30 1847 H 172.798 1.73178 -3.23117 0
M  V30 1848 H 172.446 4.17179 -2.81017 0
M  V30 1849 H 172.146 3.7584 -4.51684 0
M  V30 1850 H 173.67 4.56712 -4.05274 0
M  V30 1851 H 175.084 2.56569 -5.12684 0
M  V30 1852 H 173.481 1.98428 -5.66345 0
M  V30 1853 H 174.551 0.891962 -4.76626 0
M  V30 1854 N 175.894 1.51508 0.433938 0
M  V30 1855 C 177.142 1.6402 1.18075 0
M  V30 1856 C 177.463 0.360328 1.91642 0
M  V30 1857 O 176.733 -0.623945 1.85698 0
M  V30 1858 H 175.313 0.6045 0.43885 0
M  V30 1859 H 177.975 1.88452 0.497178 0
M  V30 1860 H 177.071 2.46949 1.90847 0
M  V30 1861 N 177.372 -0.689602 1.41712 0
M  V30 1862 C 178.6 -1.47827 1.44758 0
M  V30 1863 C 179.015 -1.88721 0.0545703 0
M  V30 1864 O 178.372 -1.57176 -0.927463 0
M  V30 1865 C 178.423 -2.73698 2.3616 0
M  V30 1866 O 178.144 -2.34524 3.7004 0
M  V30 1867 C 179.645 -3.67389 2.48072 0
M  V30 1868 H 176.865 -0.455357 0.49284 0
M  V30 1869 H 179.409 -0.848574 1.86063 0
M  V30 1870 H 177.564 -3.32891 1.98148 0
M  V30 1871 H 177.978 -3.15701 4.18847 0
M  V30 1872 H 179.452 -4.52475 3.16181 0
M  V30 1873 H 179.929 -4.12284 1.51388 0
M  V30 1874 H 180.535 -3.14097 2.86746 0
M  V30 1875 N 178.85 -1.27639 -0.924453 0
M  V30 1876 C 180.099 -1.13549 -1.66702 0
M  V30 1877 C 180.412 0.317487 -1.93006 0
M  V30 1878 O 181.618 0.579333 -2.65247 0
M  V30 1879 C 180.074 -1.98426 -3.00259 0
M  V30 1880 C 179.682 -3.484 -2.81641 0
M  V30 1881 C 181.426 -1.92993 -3.78092 0
M  V30 1882 C 179.333 -4.25464 -4.10773 0
M  V30 1883 H 178.263 -0.421351 -0.625283 0
M  V30 1884 H 180.914 -1.52085 -1.02676 0
M  V30 1885 H 179.296 -1.52736 -3.6536 0
M  V30 1886 H 180.47 -4.01973 -2.25287 0
M  V30 1887 H 178.785 -3.55245 -2.17232 0
M  V30 1888 H 181.382 -2.47844 -4.7379 0
M  V30 1889 H 181.725 -0.904281 -4.0636 0
M  V30 1890 H 182.258 -2.36595 -3.19793 0
M  V30 1891 H 178.997 -5.28566 -3.87683 0
M  V30 1892 H 178.517 -3.76667 -4.66779 0
M  V30 1893 H 180.196 -4.34812 -4.79111 0
M  V30 1894 N 180.328 1.1314 -1.09713 0
M  V30 1895 C 181.275 2.18642 -0.739196 0
M  V30 1896 C 182.245 1.63706 0.280978 0
M  V30 1897 O 183.43 1.90111 0.161946 0
M  V30 1898 C 180.57 3.44685 -0.169102 0
M  V30 1899 C 179.683 4.13711 -1.24367 0
M  V30 1900 C 178.818 5.27379 -0.636019 0
M  V30 1901 C 177.857 5.88259 -1.69169 0
M  V30 1902 N 176.994 6.93352 -1.10485 0
M  V30 1903 H 181.834 2.48607 -1.64312 0
M  V30 1904 H 179.371 1.22066 -0.820875 0
M  V30 1905 H 181.329 4.16815 0.179256 0
M  V30 1906 H 179.959 3.15161 0.698079 0
M  V30 1907 H 179.011 3.39835 -1.70927 0
M  V30 1908 H 180.323 4.55037 -2.04311 0
M  V30 1909 H 179.477 6.06238 -0.236677 0
M  V30 1910 H 178.216 4.8731 0.194928 0
M  V30 1911 H 177.221 5.08092 -2.10055 0
M  V30 1912 H 178.446 6.30399 -2.52536 0
M  V30 1913 H 176.392 6.55335 -0.295234 0
M  V30 1914 H 176.309 7.33236 -1.84121 0
M  V30 1915 H 177.577 7.76057 -0.73181 0
M  V30 1916 N 181.806 0.884767 1.30421 0
M  V30 1917 C 183.031 0.517288 2.00845 0
M  V30 1918 C 183.456 -0.886779 1.65885 0
M  V30 1919 O 182.814 -1.58768 0.875354 0
M  V30 1920 C 182.862 0.698994 3.5376 0
M  V30 1921 O 181.966 -0.255208 4.1161 0
M  V30 1922 H 181.307 0.203872 0.631927 0
M  V30 1923 H 183.837 1.19225 1.66272 0
M  V30 1924 H 183.847 0.597912 4.03595 0
M  V30 1925 H 182.522 1.72271 3.78544 0
M  V30 1926 H 181.099 -0.10784 3.72744 0
M  V30 1927 N 183.284 -1.43765 0.645699 0
M  V30 1928 C 184.247 -2.29163 -0.0409488 0
M  V30 1929 C 185.247 -1.41813 -0.757996 0
M  V30 1930 O 186.437 -1.63527 -0.600382 0
M  V30 1931 C 183.569 -3.23716 -1.06869 0
M  V30 1932 H 184.762 -2.91366 0.710345 0
M  V30 1933 H 182.315 -1.5092 0.406547 0
M  V30 1934 H 183.05 -2.66393 -1.84947 0
M  V30 1935 H 182.835 -3.88105 -0.558277 0
M  V30 1936 H 184.325 -3.87831 -1.54845 0
M  V30 1937 N 184.763 -0.387143 -1.52771 0
M  V30 1938 C 185.988 0.198407 -2.06449 0
M  V30 1939 C 186.413 1.39918 -1.25716 0
M  V30 1940 O 185.771 1.79099 -0.281657 0
M  V30 1941 C 185.819 0.548893 -3.56398 0
M  V30 1942 O 184.923 1.64315 -3.78252 0
M  V30 1943 H 184.264 0.0237731 -0.663574 0
M  V30 1944 H 186.794 -0.553989 -1.96957 0
M  V30 1945 H 186.804 0.813812 -3.99801 0
M  V30 1946 H 185.479 -0.329005 -4.14597 0
M  V30 1947 H 184.056 1.37211 -3.46738 0
M  V30 1948 N 186.241 1.57166 -0.116904 0
M  V30 1949 C 187.471 1.99184 0.548586 0
M  V30 1950 C 187.879 0.995436 1.60897 0
M  V30 1951 O 187.222 -0.0201293 1.83689 0
M  V30 1952 C 187.284 3.37611 1.23526 0
M  V30 1953 C 186.948 4.55857 0.323077 0
M  V30 1954 C 187.945 5.18056 -0.437476 0
M  V30 1955 C 185.63 5.01751 0.234761 0
M  V30 1956 C 187.624 6.24536 -1.2741 0
M  V30 1957 C 185.311 6.08093 -0.605496 0
M  V30 1958 C 186.309 6.69352 -1.35856 0
M  V30 1959 O 185.997 7.7364 -2.18487 0
M  V30 1960 H 185.729 0.659148 0.149999 0
M  V30 1961 H 188.283 2.0443 -0.199428 0
M  V30 1962 H 186.513 3.29113 2.0303 0
M  V30 1963 H 188.202 3.63932 1.79745 0
M  V30 1964 H 188.968 4.83516 -0.379105 0
M  V30 1965 H 184.847 4.53817 0.810601 0
M  V30 1966 H 188.391 6.72281 -1.86237 0
M  V30 1967 H 184.288 6.42063 -0.665268 0
M  V30 1968 H 185.056 7.90727 -2.11406 0
M  V30 1969 N 187.719 -0.156864 1.56817 0
M  V30 1970 C 188.629 -1.2136 2.00771 0
M  V30 1971 C 189.645 -1.47598 0.921459 0
M  V30 1972 O 190.821 -1.59462 1.2302 0
M  V30 1973 C 187.886 -2.52943 2.37109 0
M  V30 1974 C 186.947 -2.34439 3.59634 0
M  V30 1975 C 186.18 -3.59748 3.94229 0
M  V30 1976 O 186.403 -4.65526 3.29609 0
M  V30 1977 O 185.337 -3.52998 4.8752 0
M  V30 1978 H 189.163 -0.870468 2.90958 0
M  V30 1979 H 186.748 -0.36484 1.44877 0
M  V30 1980 H 188.63 -3.30538 2.61386 0
M  V30 1981 H 187.305 -2.86806 1.5008 0
M  V30 1982 H 186.212 -1.54828 3.40557 0
M  V30 1983 H 187.545 -2.05496 4.4725 0
M  V30 1984 N 189.197 -1.51736 -0.425897 0
M  V30 1985 C 190.446 -1.64201 -1.17136 0
M  V30 1986 C 190.759 -0.369705 -1.92074 0
M  V30 1987 O 191.965 -0.373898 -2.68913 0
M  V30 1988 C 190.421 -2.90035 -2.13091 0
M  V30 1989 C 190.029 -4.24312 -1.43747 0
M  V30 1990 C 191.773 -3.1186 -2.87999 0
M  V30 1991 C 189.68 -5.41285 -2.38253 0
M  V30 1992 H 188.61 -0.611624 -0.440944 0
M  V30 1993 H 191.261 -1.78212 -0.437328 0
M  V30 1994 H 189.643 -2.69684 -2.89977 0
M  V30 1995 H 190.817 -4.55086 -0.723408 0
M  V30 1996 H 189.132 -4.08456 -0.809465 0
M  V30 1997 H 191.729 -3.96427 -3.58817 0
M  V30 1998 H 192.072 -2.25403 -3.49999 0
M  V30 1999 H 192.605 -3.32605 -2.18217 0
M  V30 2000 H 189.344 -6.30037 -1.80925 0
M  V30 2001 H 188.864 -5.14872 -3.0768 0
M  V30 2002 H 190.543 -5.73694 -2.99139 0
M  V30 2003 N 190.675 0.682077 -1.42076 0
M  V30 2004 C 191.638 1.77756 -1.44691 0
M  V30 2005 C 192.638 1.5726 -0.335535 0
M  V30 2006 O 193.828 1.63686 -0.596037 0
M  V30 2007 C 190.96 3.16301 -1.27146 0
M  V30 2008 H 192.153 1.76826 -2.42224 0
M  V30 2009 H 189.706 0.891012 -1.28416 0
M  V30 2010 H 190.441 3.22862 -0.305075 0
M  V30 2011 H 190.226 3.32581 -2.07683 0
M  V30 2012 H 191.716 3.96241 -1.31843 0
M  V30 2013 N 192.153 1.28127 0.917671 0
M  V30 2014 C 193.402 1.14432 1.66097 0
M  V30 2015 C 193.715 -0.307247 1.93172 0
M  V30 2016 O 194.921 -0.565259 2.65551 0
M  V30 2017 C 193.377 2.00015 2.99202 0
M  V30 2018 C 192.985 3.49889 2.79789 0
M  V30 2019 C 194.729 1.94996 3.77064 0
M  V30 2020 C 192.636 4.27636 4.08511 0
M  V30 2021 H 191.566 0.424662 0.62304 0
M  V30 2022 H 194.217 1.52628 1.01868 0
M  V30 2023 H 192.599 1.54672 3.64544 0
M  V30 2024 H 193.773 4.03162 2.23152 0
M  V30 2025 H 192.088 3.56392 2.15345 0
M  V30 2026 H 194.685 2.50354 4.72469 0
M  V30 2027 H 195.028 0.925819 4.05875 0
M  V30 2028 H 195.561 2.38287 3.18534 0
M  V30 2029 H 192.3 5.30615 3.84874 0
M  V30 2030 H 191.82 3.79137 4.64774 0
M  V30 2031 H 193.499 4.37346 4.76799 0
M  V30 2032 N 193.631 -1.12557 1.10312 0
M  V30 2033 C 194.578 -2.18247 0.750781 0
M  V30 2034 C 195.548 -1.63853 -0.272293 0
M  V30 2035 O 196.733 -1.90195 -0.151862 0
M  V30 2036 C 193.873 -3.44591 0.187379 0
M  V30 2037 C 192.986 -4.13046 1.2656 0
M  V30 2038 C 192.121 -5.27034 0.663978 0
M  V30 2039 C 191.16 -5.87353 1.72287 0
M  V30 2040 N 190.297 -6.92757 1.1416 0
M  V30 2041 H 195.137 -2.47732 1.65628 0
M  V30 2042 H 192.674 -1.21629 0.827337 0
M  V30 2043 H 194.632 -4.16904 -0.157148 0
M  V30 2044 H 193.262 -3.15527 -0.681355 0
M  V30 2045 H 192.314 -3.38924 1.72727 0
M  V30 2046 H 193.626 -4.53947 2.06721 0
M  V30 2047 H 192.78 -6.06104 0.268824 0
M  V30 2048 H 191.519 -4.87407 -0.169082 0
M  V30 2049 H 190.524 -5.06971 2.12746 0
M  V30 2050 H 191.749 -6.29051 2.55875 0
M  V30 2051 H 189.695 -6.5517 0.329984 0
M  V30 2052 H 189.612 -7.3225 1.88007 0
M  V30 2053 H 190.88 -7.75658 0.772956 0
M  V30 2054 N 195.109 -0.891671 -1.2995 0
M  V30 2055 C 196.334 -0.527932 -2.00568 0
M  V30 2056 C 196.759 0.877969 -1.66353 0
M  V30 2057 O 196.117 1.58301 -0.883762 0
M  V30 2058 C 196.165 -0.717745 -3.53385 0
M  V30 2059 O 195.269 0.233376 -4.11739 0
M  V30 2060 H 194.61 -0.20722 -0.630837 0
M  V30 2061 H 197.14 -1.20105 -1.65638 0
M  V30 2062 H 197.15 -0.619307 -4.03272 0
M  V30 2063 H 195.825 -1.74276 -3.77625 0
M  V30 2064 H 194.402 0.0880706 -3.72796 0
M  V30 2065 N 196.587 1.43421 -0.653314 0
M  V30 2066 C 197.534 2.30768 0.0382271 0
M  V30 2067 C 198.504 1.44755 0.814576 0
M  V30 2068 O 199.689 1.73624 0.791162 0
M  V30 2069 C 196.829 3.30336 0.998599 0
M  V30 2070 C 195.942 4.31448 0.218342 0
M  V30 2071 C 195.077 5.18098 1.17252 0
M  V30 2072 C 194.116 6.10902 0.382702 0
M  V30 2073 N 193.253 6.90176 1.28848 0
M  V30 2074 H 198.093 2.89357 -0.712511 0
M  V30 2075 H 195.63 1.42548 -0.363128 0
M  V30 2076 H 197.588 3.86572 1.56901 0
M  V30 2077 H 196.218 2.73397 1.71621 0
M  V30 2078 H 195.27 3.77506 -0.46836 0
M  V30 2079 H 196.582 4.97227 -0.395812 0
M  V30 2080 H 195.736 5.7896 1.81356 0
M  V30 2081 H 194.475 4.52444 1.82058 0
M  V30 2082 H 193.48 5.49128 -0.27169 0
M  V30 2083 H 194.705 6.78598 -0.260957 0
M  V30 2084 H 192.651 6.27171 1.92334 0
M  V30 2085 H 192.568 7.52478 0.728887 0
M  V30 2086 H 193.836 7.55543 1.91766 0
M  V30 2087 N 198.065 0.39524 1.52563 0
M  V30 2088 C 199.028 -0.425001 2.25225 0
M  V30 2089 C 200.028 -0.985266 1.27079 0
M  V30 2090 O 201.218 -0.866332 1.5113 0
M  V30 2091 C 198.35 -1.59686 3.01186 0
M  V30 2092 H 199.543 0.211233 2.99155 0
M  V30 2093 H 197.096 0.147472 1.55603 0
M  V30 2094 H 197.831 -2.27035 2.31572 0
M  V30 2095 H 197.616 -1.20176 3.73229 0
M  V30 2096 H 199.106 -2.17743 3.5634 0
M  V30 2097 N 199.544 -1.57102 0.125237 0
M  V30 2098 C 200.955 -1.82384 -0.399142 0
M  V30 2099 C 201.306 -1.04276 -1.66195 0
M  V30 2100 O 200.431 -0.281269 -2.14564 0
M  V30 2101 C 201.026 -3.30821 -0.730932 0
M  V30 2102 C 199.585 -3.56762 -1.19992 0
M  V30 2103 C 198.732 -2.7649 -0.211792 0
M  V30 2104 H 201.683 -1.54786 0.350277 0
M  V30 2105 H 201.704 -3.4579 -1.58775 0
M  V30 2106 H 201.216 -3.87643 0.188345 0
M  V30 2107 H 199.317 -3.05305 -2.13588 0
M  V30 2108 H 199.43 -4.65317 -1.14093 0
M  V30 2109 H 197.794 -2.4489 -0.700085 0
M  V30 2110 H 198.577 -3.36073 0.700691 0
M  V30 2111 N 201.022 0.148545 -1.56898 0
M  V30 2112 C 202.25 0.876389 -1.87422 0
M  V30 2113 C 202.665 1.74809 -0.713256 0
M  V30 2114 O 202.022 1.79725 0.317025 0
M  V30 2115 C 202.073 1.73438 -3.17178 0
M  V30 2116 O 201.794 0.897809 -4.28802 0
M  V30 2117 C 203.295 2.56993 -3.61205 0
M  V30 2118 H 200.515 0.253489 -0.621277 0
M  V30 2119 H 203.059 0.141798 -2.04008 0
M  V30 2120 H 201.214 2.42205 -3.0235 0
M  V30 2121 H 201.628 1.48672 -5.02988 0
M  V30 2122 H 203.102 3.12773 -4.54838 0
M  V30 2123 H 203.579 3.32958 -2.86419 0
M  V30 2124 H 204.185 1.9352 -3.78722 0
M  V30 2125 N 202.5 1.5196 0.417844 0
M  V30 2126 C 203.749 1.6482 1.16264 0
M  V30 2127 C 204.062 0.379886 1.91876 0
M  V30 2128 O 205.268 0.388154 2.68711 0
M  V30 2129 C 203.724 2.91161 2.1155 0
M  V30 2130 C 203.332 4.25068 1.41495 0
M  V30 2131 C 205.076 3.13383 2.86341 0
M  V30 2132 C 202.983 5.42541 2.35379 0
M  V30 2133 H 201.913 0.613954 0.437694 0
M  V30 2134 H 204.564 1.78442 0.427871 0
M  V30 2135 H 202.946 2.71218 2.88543 0
M  V30 2136 H 204.12 4.55463 0.699263 0
M  V30 2137 H 202.435 4.0888 0.787792 0
M  V30 2138 H 205.032 3.98324 3.5671 0
M  V30 2139 H 205.375 2.27256 3.48798 0
M  V30 2140 H 205.908 3.33757 2.1645 0
M  V30 2141 H 202.647 6.30987 1.77582 0
M  V30 2142 H 202.167 5.16497 3.04945 0
M  V30 2143 H 203.846 5.75272 2.96093 0
M  V30 2144 N 203.978 -0.674533 1.42435 0
M  V30 2145 C 204.888 -1.81751 1.48337 0
M  V30 2146 C 205.904 -1.69975 0.372099 0
M  V30 2147 O 207.08 -1.91521 0.62304 0
M  V30 2148 C 204.145 -3.17895 1.38361 0
M  V30 2149 C 203.206 -3.41625 2.59982 0
M  V30 2150 C 202.439 -4.71274 2.50473 0
M  V30 2151 O 202.662 -5.49197 1.54075 0
M  V30 2152 O 201.596 -4.96254 3.4061 0
M  V30 2153 H 205.422 -1.79728 2.44809 0
M  V30 2154 H 203.007 -0.830312 1.24202 0
M  V30 2155 H 204.889 -3.99136 1.35161 0
M  V30 2156 H 203.564 -3.20555 0.450144 0
M  V30 2157 H 202.471 -2.60231 2.68757 0
M  V30 2158 H 203.804 -3.43796 3.52229 0
M  V30 2159 N 205.456 -1.28612 -0.910864 0
M  V30 2160 C 206.702 -1.16106 -1.66274 0
M  V30 2161 C 207.035 0.289113 -1.92036 0
M  V30 2162 O 206.31 1.21 -1.52281 0
M  V30 2163 C 206.593 -1.96309 -3.01885 0
M  V30 2164 C 206.446 -3.49405 -2.8326 0
M  V30 2165 C 207.765 -1.78076 -4.02463 0
M  V30 2166 H 204.884 -0.423152 -0.603417 0
M  V30 2167 H 207.526 -1.57961 -1.05586 0
M  V30 2168 H 205.676 -1.60742 -3.53687 0
M  V30 2169 H 207.348 -3.94894 -2.38446 0
M  V30 2170 H 205.591 -3.74893 -2.18261 0
M  V30 2171 H 206.262 -4.00784 -3.79574 0
M  V30 2172 H 208.738 -2.0912 -3.59733 0
M  V30 2173 H 207.614 -2.36561 -4.95308 0
M  V30 2174 H 207.875 -0.733008 -4.35981 0
M  V30 2175 N 206.934 1.1197 -1.10907 0
M  V30 2176 C 208.162 1.87402 -0.876824 0
M  V30 2177 C 208.577 1.79894 0.573025 0
M  V30 2178 O 207.934 1.17629 1.39534 0
M  V30 2179 C 207.985 3.36428 -1.32282 0
M  V30 2180 O 207.706 3.43765 -2.71582 0
M  V30 2181 C 209.207 4.28783 -1.12518 0
M  V30 2182 H 206.427 0.592793 -0.314384 0
M  V30 2183 H 208.971 1.41649 -1.47499 0
M  V30 2184 H 207.126 3.79706 -0.768229 0
M  V30 2185 H 207.54 4.3652 -2.90776 0
M  V30 2186 H 209.014 5.31613 -1.48633 0
M  V30 2187 H 209.491 4.39153 -0.0642394 0
M  V30 2188 H 210.097 3.91291 -1.66648 0
M  V30 2189 N 208.412 0.89855 1.29475 0
M  V30 2190 C 209.637 0.538561 2.00285 0
M  V30 2191 C 210.062 -0.869135 1.66816 0
M  V30 2192 O 209.42 -1.57831 0.892145 0
M  V30 2193 C 209.468 0.736475 3.52999 0
M  V30 2194 O 208.572 -0.211537 4.11857 0
M  V30 2195 H 207.913 0.210563 0.62973 0
M  V30 2196 H 210.443 1.20982 1.64998 0
M  V30 2197 H 210.453 0.640685 4.02938 0
M  V30 2198 H 209.128 1.76276 3.76696 0
M  V30 2199 H 207.705 -0.0682991 3.72837 0
M  V30 2200 N 209.89 -1.43072 0.660911 0
M  V30 2201 C 210.82 -2.33497 -0.0122829 0
M  V30 2202 C 211.801 -1.49903 -0.803925 0
M  V30 2203 O 212.986 -1.78546 -0.763864 0
M  V30 2204 C 210.116 -3.33363 -0.973994 0
M  V30 2205 C 209.07 -4.27003 -0.291928 0
M  V30 2206 C 208.396 -5.16967 -1.36562 0
M  V30 2207 C 209.696 -5.15816 0.820462 0
M  V30 2208 H 211.39 -2.90038 0.742873 0
M  V30 2209 H 208.936 -1.39461 0.358688 0
M  V30 2210 H 210.889 -3.95524 -1.45392 0
M  V30 2211 H 209.613 -2.75095 -1.7604 0
M  V30 2212 H 208.272 -3.66217 0.167623 0
M  V30 2213 H 207.92 -4.55034 -2.14366 0
M  V30 2214 H 207.62 -5.80441 -0.914454 0
M  V30 2215 H 209.144 -5.82003 -1.84675 0
M  V30 2216 H 210.558 -5.71742 0.422366 0
M  V30 2217 H 208.955 -5.8805 1.19656 0
M  V30 2218 H 210.025 -4.55045 1.67518 0
M  V30 2219 N 211.368 -0.403325 -1.52352 0
M  V30 2220 C 212.645 0.232611 -1.94212 0
M  V30 2221 C 213.025 1.63133 -1.33981 0
M  V30 2222 O 212.373 2.22659 -0.513344 0
M  V30 2223 C 212.583 0.244811 -3.4814 0
M  V30 2224 C 213.931 0.46698 -4.22024 0
M  V30 2225 O 214.955 0.324419 -3.5472 0
M  V30 2226 O 213.814 0.74747 -5.41364 0
M  V30 2227 H 210.908 0.148223 -0.813609 0
M  V30 2228 H 213.454 -0.458848 -1.63379 0
M  V30 2229 H 212.226 -0.734378 -3.84347 0
M  V30 2230 H 211.849 0.980611 -3.85318 0
M  V30 2231 N 212.846 1.57033 -0.133567 0
M  V30 2232 C 214.086 1.97575 0.523789 0
M  V30 2233 C 214.45 1.01605 1.62912 0
M  V30 2234 O 215.651 1.3114 2.3464 0
M  V30 2235 C 213.922 3.42256 1.02935 0
M  V30 2236 S 215.481 4.04817 1.69319 0
M  V30 2237 H 212.299 0.690427 0.169799 0
M  V30 2238 H 214.901 1.94234 -0.222101 0
M  V30 2239 H 213.605 4.09842 0.213917 0
M  V30 2240 H 213.136 3.4928 1.81017 0
M  V30 2241 H 215.151 3.96767 2.97977 0
M  V30 2242 N 214.325 -0.140222 1.56975 0
M  V30 2243 C 215.736 -0.699596 1.73097 0
M  V30 2244 C 216.087 -1.8134 0.749022 0
M  V30 2245 O 215.212 -2.16241 -0.0828503 0
M  V30 2246 C 215.807 -1.27582 3.1386 0
M  V30 2247 C 214.366 -1.78169 3.31561 0
M  V30 2248 C 213.513 -0.672855 2.69013 0
M  V30 2249 H 216.464 0.0855115 1.58469 0
M  V30 2250 H 216.485 -2.14561 3.14235 0
M  V30 2251 H 215.997 -0.464955 3.85305 0
M  V30 2252 H 214.098 -2.61801 2.65124 0
M  V30 2253 H 214.211 -1.90574 4.39566 0
M  V30 2254 H 212.575 -1.10118 2.29665 0
M  V30 2255 H 213.358 0.126679 3.43066 0
M  V30 2256 N 215.803 -1.52179 -0.40978 0
M  V30 2257 C 216.75 -1.75475 -1.49924 0
M  V30 2258 C 217.72 -0.597175 -1.54994 0
M  V30 2259 O 218.905 -0.834655 -1.71575 0
M  V30 2260 C 216.045 -1.9107 -2.87378 0
M  V30 2261 C 215.158 -3.18717 -2.91622 0
M  V30 2262 C 214.293 -3.24747 -4.20372 0
M  V30 2263 C 213.332 -4.46598 -4.18588 0
M  V30 2264 N 212.469 -4.50025 -5.38908 0
M  V30 2265 H 217.309 -2.68458 -1.29361 0
M  V30 2266 H 214.846 -1.33024 -0.627934 0
M  V30 2267 H 216.804 -1.98096 -3.6717 0
M  V30 2268 H 215.434 -1.01469 -3.06437 0
M  V30 2269 H 214.486 -3.20866 -2.04326 0
M  V30 2270 H 215.798 -4.08544 -2.86169 0
M  V30 2271 H 214.952 -3.30841 -5.08556 0
M  V30 2272 H 213.691 -2.32857 -4.28519 0
M  V30 2273 H 212.696 -4.40652 -3.28794 0
M  V30 2274 H 213.921 -5.39783 -4.12081 0
M  V30 2275 H 211.867 -3.61017 -5.47725 0
M  V30 2276 H 211.784 -5.33697 -5.35447 0
M  V30 2277 H 213.052 -4.60347 -6.29048 0
M  V30 2278 N 217.281 0.66697 -1.42791 0
M  V30 2279 C 218.528 1.42699 -1.43678 0
M  V30 2280 C 218.856 1.94419 -0.0560425 0
M  V30 2281 O 218.111 1.7182 0.936831 0
M  V30 2282 C 218.41 2.6349 -2.4147 0
M  V30 2283 C 218.076 2.30267 -3.8767 0
M  V30 2284 C 216.738 2.20918 -4.27491 0
M  V30 2285 C 219.09 2.03435 -4.79858 0
M  V30 2286 C 216.418 1.82873 -5.57471 0
M  V30 2287 C 218.77 1.66892 -6.10188 0
M  V30 2288 C 217.434 1.56058 -6.49001 0
M  V30 2289 H 216.704 0.522171 -0.525755 0
M  V30 2290 H 219.351 0.759785 -1.75783 0
M  V30 2291 H 217.656 3.35279 -2.0272 0
M  V30 2292 H 219.353 3.21684 -2.39417 0
M  V30 2293 H 215.943 2.38449 -3.56146 0
M  V30 2294 H 220.127 2.09586 -4.49875 0
M  V30 2295 H 215.383 1.7306 -5.86396 0
M  V30 2296 H 219.557 1.45157 -6.81104 0
M  V30 2297 H 217.184 1.26348 -7.49627 0
M  V30 2298 N 218.759 1.29093 0.90403 0
M  V30 2299 C 220.005 1.16986 1.65656 0
M  V30 2300 C 220.338 -0.278925 1.92186 0
M  V30 2301 O 219.613 -1.2019 1.5292 0
M  V30 2302 C 219.896 1.97908 3.0084 0
M  V30 2303 C 219.749 3.50903 2.81403 0
M  V30 2304 C 221.068 1.80208 4.01513 0
M  V30 2305 H 218.187 0.426346 0.601164 0
M  V30 2306 H 220.829 1.58518 1.04747 0
M  V30 2307 H 218.979 1.62616 3.52829 0
M  V30 2308 H 220.651 3.96153 2.36348 0
M  V30 2309 H 218.894 3.76045 2.1627 0
M  V30 2310 H 219.565 4.02791 3.77443 0
M  V30 2311 H 222.041 2.11025 3.58619 0
M  V30 2312 H 220.917 2.39184 4.94047 0
M  V30 2313 H 221.178 0.756119 4.35586 0
M  V30 2314 N 220.237 -1.11381 1.11499 0
M  V30 2315 C 221.648 -1.6465 0.880191 0
M  V30 2316 C 221.999 -1.87199 -0.587434 0
M  V30 2317 O 221.124 -1.60667 -1.44966 0
M  V30 2318 C 221.719 -2.99105 1.59128 0
M  V30 2319 C 220.278 -3.49279 1.40289 0
M  V30 2320 C 219.425 -2.24077 1.63354 0
M  V30 2321 H 222.376 -0.950123 1.27116 0
M  V30 2322 H 222.397 -3.66107 1.03664 0
M  V30 2323 H 221.909 -2.82661 2.65941 0
M  V30 2324 H 220.01 -3.70887 0.356888 0
M  V30 2325 H 220.123 -4.2803 2.15238 0
M  V30 2326 H 218.487 -2.31733 1.05698 0
M  V30 2327 H 219.27 -2.10175 2.71443 0
M  V30 2328 N 221.715 -0.905404 -1.28997 0
M  V30 2329 C 222.964 -0.530191 -1.94607 0
M  V30 2330 C 223.277 0.929185 -1.72121 0
M  V30 2331 O 224.483 1.41218 -2.31883 0
M  V30 2332 C 222.939 -0.897333 -3.48534 0
M  V30 2333 C 222.547 -2.37587 -3.79811 0
M  V30 2334 C 224.291 -0.592304 -4.20347 0
M  V30 2335 C 222.198 -2.68357 -5.27009 0
M  V30 2336 H 221.128 -0.194558 -0.728466 0
M  V30 2337 H 223.779 -1.10318 -1.46636 0
M  V30 2338 H 222.161 -0.253214 -3.9519 0
M  V30 2339 H 223.335 -3.06602 -3.43994 0
M  V30 2340 H 221.65 -2.6505 -3.2115 0
M  V30 2341 H 224.247 -0.798975 -5.28697 0
M  V30 2342 H 224.59 0.469474 -4.13644 0
M  V30 2343 H 225.123 -1.19452 -3.79442 0
M  V30 2344 H 221.862 -3.73355 -5.38782 0
M  V30 2345 H 221.382 -2.03971 -5.64053 0
M  V30 2346 H 223.061 -2.54922 -5.94663 0
M  V30 2347 N 223.193 1.4272 -0.668489 0
M  V30 2348 C 224.439 2.01923 -0.188419 0
M  V30 2349 C 224.772 1.52704 1.19979 0
M  V30 2350 O 224.047 0.726566 1.8042 0
M  V30 2351 C 224.33 3.59451 -0.216085 0
M  V30 2352 C 224.183 4.18864 -1.6393 0
M  V30 2353 C 225.502 4.37903 0.439179 0
M  V30 2354 H 222.621 0.733674 -0.0699412 0
M  V30 2355 H 225.263 1.69822 -0.852076 0
M  V30 2356 H 223.413 3.86929 0.349012 0
M  V30 2357 H 225.085 4.02362 -2.25616 0
M  V30 2358 H 223.328 3.74933 -2.18193 0
M  V30 2359 H 223.999 5.27987 -1.61039 0
M  V30 2360 H 226.475 4.16079 -0.0417878 0
M  V30 2361 H 225.351 5.47519 0.389157 0
M  V30 2362 H 225.612 4.15303 1.51577 0
M  V30 2363 N 224.671 0.411399 1.52136 0
M  V30 2364 C 225.581 -0.419774 2.30814 0
M  V30 2365 C 226.597 -1.0515 1.38634 0
M  V30 2366 O 227.773 -1.05252 1.71709 0
M  V30 2367 C 224.838 -1.52019 3.11594 0
M  V30 2368 C 223.899 -0.91129 4.19516 0
M  V30 2369 C 223.132 -1.95927 4.96436 0
M  V30 2370 O 223.355 -3.17775 4.73683 0
M  V30 2371 O 222.289 -1.56423 5.81219 0
M  V30 2372 H 226.115 0.221805 3.02889 0
M  V30 2373 H 223.7 0.174547 1.48377 0
M  V30 2374 H 225.582 -2.15898 3.61892 0
M  V30 2375 H 224.257 -2.14633 2.42311 0
M  V30 2376 H 223.164 -0.235157 3.7336 0
M  V30 2377 H 224.497 -0.32904 4.91099 0
M  V30 2378 N 226.149 -1.5696 0.141893 0
M  V30 2379 C 227.374 -2.00754 -0.520838 0
M  V30 2380 C 227.799 -1.0213 -1.57959 0
M  V30 2381 O 227.157 0.00371324 -1.813 0
M  V30 2382 C 227.205 -3.43318 -1.10294 0
M  V30 2383 O 226.309 -3.47679 -2.21795 0
M  V30 2384 H 225.65 -0.651564 -0.127908 0
M  V30 2385 H 228.18 -2.03221 0.23712 0
M  V30 2386 H 228.19 -3.82012 -1.43287 0
M  V30 2387 H 226.865 -4.14608 -0.327574 0
M  V30 2388 H 225.442 -3.20824 -1.9007 0
M  V30 2389 N 227.627 0.131896 -1.57047 0
M  V30 2390 C 228.575 1.18146 -2.0036 0
M  V30 2391 C 229.569 1.43614 -0.898406 0
M  V30 2392 O 230.775 1.43729 -1.08361 0
M  V30 2393 H 227.15 0.398042 -0.638018 0
M  V30 2394 H 229.121 0.789564 -2.87765 0
M  V30 2395 C 227.87 2.50341 -2.41298 0
M  V30 2396 H 227.193 2.31578 -3.25902 0
M  V30 2397 H 228.633 3.22371 -2.75414 0
M  V30 2398 C 227.092 3.11984 -1.27153 0
M  V30 2399 O 227.622 3.97484 -0.580459 0
M  V30 2400 N 225.828 2.71662 -1.03189 0
M  V30 2401 H 225.375 2.02231 -1.59564 0
M  V30 2402 H 225.333 3.13238 -0.270077 0
M  V30 2403 N 229.106 1.52395 0.401703 0
M  V30 2404 C 230.038 1.72505 1.50912 0
M  V30 2405 C 231.051 0.605468 1.51122 0
M  V30 2406 O 232.24 0.880828 1.55254 0
M  V30 2407 C 229.34 1.75711 2.89791 0
M  V30 2408 C 228.513 3.04824 3.1369 0
M  V30 2409 C 227.572 2.99743 4.32482 0
M  V30 2410 O 226.598 3.73635 4.29402 0
M  V30 2411 N 227.8 2.18047 5.37992 0
M  V30 2412 H 230.565 2.68049 1.34052 0
M  V30 2413 H 228.126 1.50724 0.591084 0
M  V30 2414 H 230.118 1.69834 3.6734 0
M  V30 2415 H 228.688 0.876092 3.00072 0
M  V30 2416 H 227.908 3.2429 2.24119 0
M  V30 2417 H 229.196 3.90221 3.26504 0
M  V30 2418 H 228.594 1.57456 5.43345 0
M  V30 2419 H 227.151 2.18021 6.14256 0
M  V30 2420 N 230.584 -0.659388 1.43143 0
M  V30 2421 C 231.814 -1.44513 1.47646 0
M  V30 2422 C 232.222 -1.88981 0.0910095 0
M  V30 2423 O 231.565 -1.59702 -0.907789 0
M  V30 2424 C 231.627 -2.71663 2.35456 0
M  V30 2425 C 231.291 -2.49175 3.83094 0
M  V30 2426 C 232.288 -2.1279 4.74359 0
M  V30 2427 C 229.973 -2.63691 4.27519 0
M  V30 2428 C 231.967 -1.9121 6.08044 0
M  V30 2429 C 229.654 -2.41726 5.61259 0
M  V30 2430 C 230.652 -2.0554 6.51339 0
M  V30 2431 O 230.34 -1.838 7.82606 0
M  V30 2432 H 230.072 -0.45064 0.503884 0
M  V30 2433 H 232.626 -0.816248 1.88485 0
M  V30 2434 H 230.856 -3.37089 1.89493 0
M  V30 2435 H 232.545 -3.33595 2.31235 0
M  V30 2436 H 233.311 -2.01157 4.41317 0
M  V30 2437 H 229.19 -2.90832 3.57684 0
M  V30 2438 H 232.734 -1.62889 6.78316 0
M  V30 2439 H 228.631 -2.52959 5.9387 0
M  V30 2440 H 229.399 -1.98275 7.94122 0
M  V30 2441 N 232.062 -1.29571 -0.897171 0
M  V30 2442 C 233.478 -1.07637 -1.17841 0
M  V30 2443 C 233.678 0.170713 -2.00776 0
M  V30 2444 O 232.734 0.867768 -2.3712 0
M  V30 2445 C 234.047 -2.3332 -1.8969 0
M  V30 2446 C 235.595 -2.38664 -2.02505 0
M  V30 2447 C 236.07 -3.64157 -2.77765 0
M  V30 2448 N 237.561 -3.64894 -2.85318 0
M  V30 2449 C 238.296 -4.58679 -3.44094 0
M  V30 2450 N 237.792 -5.62799 -4.04017 0
M  V30 2451 N 239.585 -4.46245 -3.41793 0
M  V30 2452 H 231.736 -2.09598 -0.343883 0
M  V30 2453 H 233.999 -0.923333 -0.214848 0
M  V30 2454 H 233.705 -3.24262 -1.36187 0
M  V30 2455 H 233.579 -2.41025 -2.9015 0
M  V30 2456 H 235.966 -1.48208 -2.55183 0
M  V30 2457 H 236.047 -2.34943 -1.01171 0
M  V30 2458 H 235.691 -4.54965 -2.25763 0
M  V30 2459 H 235.621 -3.65137 -3.7945 0
M  V30 2460 H 238.112 -2.89613 -2.42761 0
M  V30 2461 H 238.425 -6.3048 -4.46895 0
M  V30 2462 H 236.77 -5.66605 -4.02472 0
M  V30 2463 H 239.961 -3.64094 -2.94199 0
M  V30 2464 H 240.134 -5.19518 -3.87304 0
M  V30 2465 N 233.54 1.10788 -1.12088 0
M  V30 2466 C 234.765 1.87002 -0.896949 0
M  V30 2467 C 235.19 1.79933 0.548261 0
M  V30 2468 O 234.548 1.16662 1.38779 0
M  V30 2469 C 234.596 3.3349 -1.37174 0
M  V30 2470 O 233.7 4.08745 -0.547831 0
M  V30 2471 H 233.041 0.580397 -0.322545 0
M  V30 2472 H 235.571 1.39996 -1.49206 0
M  V30 2473 H 235.581 3.84339 -1.36922 0
M  V30 2474 H 234.256 3.37951 -2.42408 0
M  V30 2475 H 232.833 3.6776 -0.617034 0
M  V30 2476 N 235.018 0.912232 1.28515 0
M  V30 2477 C 236.243 0.559774 1.99703 0
M  V30 2478 C 236.668 -0.851393 1.67729 0
M  V30 2479 O 236.026 -1.56875 0.908834 0
M  V30 2480 C 236.074 0.773874 3.52198 0
M  V30 2481 O 235.178 -0.167842 4.12058 0
M  V30 2482 H 234.519 0.21723 0.627461 0
M  V30 2483 H 237.049 1.22725 1.63706 0
M  V30 2484 H 237.059 0.683386 4.02236 0
M  V30 2485 H 235.734 1.80261 3.74805 0
M  V30 2486 H 234.311 -0.0287509 3.72889 0
M  V30 2487 N 236.496 -1.42363 0.676048 0
M  V30 2488 C 237.742 -2.0182 0.199125 0
M  V30 2489 C 238.075 -1.53339 -1.19168 0
M  V30 2490 O 237.35 -0.736124 -1.80032 0
M  V30 2491 C 237.633 -3.59331 0.235144 0
M  V30 2492 C 237.486 -4.17989 1.66149 0
M  V30 2493 C 238.805 -4.3813 -0.41595 0
M  V30 2494 H 235.924 -0.733293 0.0738311 0
M  V30 2495 H 238.566 -1.69368 0.86107 0
M  V30 2496 H 236.716 -3.87109 -0.328487 0
M  V30 2497 H 238.388 -4.0116 2.27747 0
M  V30 2498 H 236.631 -3.7377 2.20178 0
M  V30 2499 H 237.302 -5.27126 1.63837 0
M  V30 2500 H 239.778 -4.16051 0.0638529 0
M  V30 2501 H 238.654 -5.47717 -0.360115 0
M  V30 2502 H 238.915 -4.16101 -1.49373 0
M  V30 2503 N 237.974 -0.419461 -1.51915 0
M  V30 2504 C 238.937 0.389116 -2.25873 0
M  V30 2505 C 239.937 0.964924 -1.28631 0
M  V30 2506 O 241.127 0.842179 -1.52489 0
M  V30 2507 C 238.259 1.54874 -3.03689 0
M  V30 2508 H 239.452 -0.258799 -2.98781 0
M  V30 2509 H 237.005 -0.172209 -1.55348 0
M  V30 2510 H 237.74 2.23323 -2.35154 0
M  V30 2511 H 237.525 1.14223 -3.75094 0
M  V30 2512 H 239.015 2.12046 -3.59759 0
M  V30 2513 N 239.452 1.56882 -0.150215 0
M  V30 2514 C 240.399 2.16922 0.788244 0
M  V30 2515 C 241.369 1.10303 1.24187 0
M  V30 2516 O 242.554 1.38359 1.31383 0
M  V30 2517 C 239.694 2.79754 2.02068 0
M  V30 2518 C 238.807 4.00775 1.61257 0
M  V30 2519 C 237.942 4.51595 2.79705 0
M  V30 2520 C 236.981 5.65074 2.35282 0
M  V30 2521 N 236.118 6.10499 3.4675 0
M  V30 2522 H 240.958 2.96779 0.269444 0
M  V30 2523 H 238.495 1.46599 0.12128 0
M  V30 2524 H 240.453 3.14329 2.74323 0
M  V30 2525 H 239.083 2.02536 2.51354 0
M  V30 2526 H 238.135 3.72158 0.787553 0
M  V30 2527 H 239.447 4.82978 1.24633 0
M  V30 2528 H 238.601 4.88242 3.60145 0
M  V30 2529 H 237.34 3.68406 3.19576 0
M  V30 2530 H 236.345 5.28 1.53283 0
M  V30 2531 H 237.57 6.50052 1.96493 0
M  V30 2532 H 235.516 5.30243 3.86236 0
M  V30 2533 H 235.433 6.87637 3.14152 0
M  V30 2534 H 236.701 6.51791 4.27537 0
M  V30 2535 N 240.93 -0.123565 1.57115 0
M  V30 2536 C 241.877 -1.15177 2.00007 0
M  V30 2537 C 242.847 -1.41403 0.871454 0
M  V30 2538 O 244.032 -1.53346 1.13533 0
M  V30 2539 C 241.172 -2.47436 2.40561 0
M  V30 2540 C 240.285 -2.28184 3.66819 0
M  V30 2541 C 239.42 -3.53641 3.96373 0
M  V30 2542 C 238.459 -3.29528 5.15827 0
M  V30 2543 N 237.596 -4.47175 5.41275 0
M  V30 2544 H 242.436 -0.779008 2.87638 0
M  V30 2545 H 239.973 -0.373166 1.42288 0
M  V30 2546 H 241.931 -3.24584 2.62109 0
M  V30 2547 H 240.561 -2.82614 1.55978 0
M  V30 2548 H 239.613 -1.41976 3.52912 0
M  V30 2549 H 240.925 -2.0634 4.5412 0
M  V30 2550 H 240.079 -4.39209 4.18545 0
M  V30 2551 H 238.818 -3.78512 3.07538 0
M  V30 2552 H 237.823 -2.42349 4.93505 0
M  V30 2553 H 239.048 -3.06031 6.06236 0
M  V30 2554 H 236.994 -4.72175 4.55397 0
M  V30 2555 H 236.911 -4.28419 6.22891 0
M  V30 2556 H 238.179 -5.3389 5.67963 0
M  V30 2557 N 242.408 -1.52605 -0.393616 0
M  V30 2558 C 243.657 -1.66649 -1.13627 0
M  V30 2559 C 243.97 -0.410364 -1.91247 0
M  V30 2560 O 245.176 -0.430854 -2.68059 0
M  V30 2561 C 243.632 -2.9449 -2.06891 0
M  V30 2562 C 243.24 -4.27266 -1.34714 0
M  V30 2563 C 244.984 -3.17899 -2.81319 0
M  V30 2564 C 242.891 -5.46217 -2.26717 0
M  V30 2565 H 241.821 -0.62084 -0.427871 0
M  V30 2566 H 244.472 -1.791 -0.399428 0
M  V30 2567 H 242.854 -2.75774 -2.84191 0
M  V30 2568 H 244.028 -4.56518 -0.626714 0
M  V30 2569 H 242.343 -4.10081 -0.722643 0
M  V30 2570 H 244.94 -4.03949 -3.50328 0
M  V30 2571 H 245.283 -2.32777 -3.45139 0
M  V30 2572 H 245.816 -3.37159 -2.11113 0
M  V30 2573 H 242.555 -6.33733 -1.67521 0
M  V30 2574 H 242.075 -5.21283 -2.96689 0
M  V30 2575 H 243.754 -5.7991 -2.86903 0
M  V30 2576 N 243.887 0.651787 -1.4349 0
M  V30 2577 C 245.133 1.41376 -1.45398 0
M  V30 2578 C 245.466 1.94041 -0.0784823 0
M  V30 2579 O 244.741 1.72379 0.900878 0
M  V30 2580 C 245.024 2.59414 -2.49752 0
M  V30 2581 C 244.877 2.12232 -3.96582 0
M  V30 2582 C 246.196 3.61626 -2.50827 0
M  V30 2583 H 243.315 0.512719 -0.529422 0
M  V30 2584 H 245.957 0.738796 -1.75048 0
M  V30 2585 H 244.107 3.16997 -2.246 0
M  V30 2586 H 245.779 1.59639 -4.32797 0
M  V30 2587 H 244.022 1.43592 -4.09346 0
M  V30 2588 H 244.693 2.9712 -4.65214 0
M  V30 2589 H 247.169 3.13805 -2.7325 0
M  V30 2590 H 246.045 4.41766 -3.25783 0
M  V30 2591 H 246.306 4.14314 -1.5426 0
M  V30 2592 N 245.365 1.30045 0.890287 0
M  V30 2593 C 246.328 1.15963 1.977 0
M  V30 2594 C 247.328 0.0923777 1.60534 0
M  V30 2595 O 248.518 0.340071 1.70848 0
M  V30 2596 C 245.65 0.775451 3.31963 0
M  V30 2597 H 246.843 2.12502 2.11619 0
M  V30 2598 H 244.396 1.13366 1.07601 0
M  V30 2599 H 245.131 -0.189671 3.23745 0
M  V30 2600 H 244.916 1.54668 3.60306 0
M  V30 2601 H 246.406 0.700251 4.11687 0
M  V30 2602 N 246.843 -1.10192 1.12674 0
M  V30 2603 C 247.753 -2.20172 0.810026 0
M  V30 2604 C 248.769 -1.72821 -0.202188 0
M  V30 2605 O 249.945 -2.01369 -0.0351691 0
M  V30 2606 C 247.01 -3.45631 0.272007 0
M  V30 2607 C 246.071 -4.07704 1.34447 0
M  V30 2608 C 245.304 -5.27175 0.832029 0
M  V30 2609 O 245.527 -5.69425 -0.333284 0
M  V30 2610 O 244.461 -5.80168 1.60277 0
M  V30 2611 H 248.287 -2.49701 1.72867 0
M  V30 2612 H 245.872 -1.18977 0.903597 0
M  V30 2613 H 247.754 -4.21394 -0.0230219 0
M  V30 2614 H 246.429 -3.17723 -0.619164 0
M  V30 2615 H 245.336 -3.33614 1.6927 0
M  V30 2616 H 246.669 -4.3982 2.2095 0
M  V30 2617 N 248.321 -0.919034 -1.28029 0
M  V30 2618 C 249.549 -0.570971 -1.98866 0
M  V30 2619 C 249.964 0.848996 -1.68634 0
M  V30 2620 O 249.321 1.56307 -0.942036 0
M  V30 2621 C 249.372 -0.776876 -3.53054 0
M  V30 2622 O 249.093 -2.14097 -3.82222 0
M  V30 2623 C 250.594 -0.436356 -4.41147 0
M  V30 2624 H 247.814 -0.217175 -0.634883 0
M  V30 2625 H 250.358 -1.23368 -1.63097 0
M  V30 2626 H 248.513 -0.161085 -3.87065 0
M  V30 2627 H 248.927 -2.18455 -4.76841 0
M  V30 2628 H 250.401 -0.63117 -5.4838 0
M  V30 2629 H 250.878 0.627686 -4.34692 0
M  V30 2630 H 251.484 -1.02991 -4.12641 0
M  V30 2631 N 249.799 1.42003 -0.683588 0
M  V30 2632 C 250.729 2.33487 -0.024866 0
M  V30 2633 C 251.71 1.51163 0.779975 0
M  V30 2634 O 252.895 1.79739 0.735362 0
M  V30 2635 C 250.025 3.3487 0.920836 0
M  V30 2636 C 248.979 4.27414 0.223958 0
M  V30 2637 C 248.305 5.19074 1.2832 0
M  V30 2638 C 249.605 5.14445 -0.90242 0
M  V30 2639 H 251.299 2.88819 -0.788921 0
M  V30 2640 H 248.845 1.38873 -0.38083 0
M  V30 2641 H 250.798 3.97787 1.39081 0
M  V30 2642 H 249.522 2.77861 1.71642 0
M  V30 2643 H 248.181 3.65904 -0.225864 0
M  V30 2644 H 247.829 4.58387 2.071 0
M  V30 2645 H 247.529 5.81822 0.821995 0
M  V30 2646 H 249.053 5.84867 1.75392 0
M  V30 2647 H 250.467 5.70998 -0.513272 0
M  V30 2648 H 248.864 5.86072 -1.28997 0
M  V30 2649 H 249.934 4.52322 -1.74737 0
M  V30 2650 N 251.277 0.427512 1.51691 0
M  V30 2651 C 252.209 -0.424521 2.25234 0
M  V30 2652 C 253.222 -0.994671 1.2888 0
M  V30 2653 O 254.411 -0.890483 1.54702 0
M  V30 2654 C 251.511 -1.60479 2.98496 0
M  V30 2655 C 250.684 -1.15527 4.21868 0
M  V30 2656 C 249.743 -2.20454 4.77793 0
M  V30 2657 O 248.769 -1.8029 5.39893 0
M  V30 2658 N 249.971 -3.52831 4.60967 0
M  V30 2659 H 252.736 0.205749 2.98993 0
M  V30 2660 H 250.297 0.255867 1.59865 0
M  V30 2661 H 252.289 -2.30276 3.32799 0
M  V30 2662 H 250.859 -2.14061 2.27809 0
M  V30 2663 H 250.079 -0.284736 3.9317 0
M  V30 2664 H 251.367 -0.832173 5.01949 0
M  V30 2665 H 250.765 -3.88201 4.11481 0
M  V30 2666 H 249.322 -4.18551 4.99658 0
M  V30 2667 N 252.755 -1.56801 0.158532 0
M  V30 2668 C 253.718 -2.16138 -0.762705 0
M  V30 2669 C 254.718 -1.1061 -1.16713 0
M  V30 2670 O 255.908 -1.36191 -1.08617 0
M  V30 2671 C 253.04 -2.73386 -2.03649 0
M  V30 2672 H 254.233 -2.98886 -0.246354 0
M  V30 2673 H 251.786 -1.56035 -0.0909744 0
M  V30 2674 H 252.521 -1.94335 -2.59623 0
M  V30 2675 H 252.306 -3.50601 -1.75559 0
M  V30 2676 H 253.796 -3.19065 -2.6942 0
M  V30 2677 N 254.233 0.115231 -1.57178 0
M  V30 2678 C 255.163 1.1423 -2.03651 0
M  V30 2679 C 256.144 1.42967 -0.921655 0
M  V30 2680 O 257.329 1.53343 -1.19162 0
M  V30 2681 C 254.459 2.4675 -2.44401 0
M  V30 2682 C 253.413 2.32467 -3.59365 0
M  V30 2683 C 252.739 3.69984 -3.86026 0
M  V30 2684 C 254.039 1.78203 -4.90959 0
M  V30 2685 H 255.733 0.755749 -2.89705 0
M  V30 2686 H 253.279 0.362093 -1.39373 0
M  V30 2687 H 255.232 3.18854 -2.75517 0
M  V30 2688 H 253.956 2.87302 -1.55322 0
M  V30 2689 H 252.615 1.62811 -3.28463 0
M  V30 2690 H 252.263 4.08028 -2.94147 0
M  V30 2691 H 251.963 3.61279 -4.63412 0
M  V30 2692 H 253.487 4.43587 -4.19599 0
M  V30 2693 H 254.901 2.40128 -5.20587 0
M  V30 2694 H 253.298 1.8031 -5.72371 0
M  V30 2695 H 254.368 0.739876 -4.79222 0
M  V30 2696 N 255.711 1.52812 0.385517 0
M  V30 2697 C 256.643 1.74096 1.49074 0
M  V30 2698 C 257.656 0.621462 1.50472 0
M  V30 2699 O 258.845 0.897245 1.54311 0
M  V30 2700 C 255.945 1.78774 2.87911 0
M  V30 2701 C 255.118 3.08134 3.10439 0
M  V30 2702 C 254.177 3.04313 4.29278 0
M  V30 2703 O 253.203 3.78168 4.25415 0
M  V30 2704 N 254.405 2.23741 5.35649 0
M  V30 2705 H 257.17 2.69455 1.31202 0
M  V30 2706 H 254.731 1.51343 0.575065 0
M  V30 2707 H 256.723 1.73721 3.65518 0
M  V30 2708 H 255.293 0.907869 2.99126 0
M  V30 2709 H 254.513 3.26649 2.20667 0
M  V30 2710 H 255.801 3.93662 3.22347 0
M  V30 2711 H 255.199 1.63211 5.41645 0
M  V30 2712 H 253.756 2.24524 6.11909 0
M  V30 2713 N 257.189 -0.644168 1.43834 0
M  V30 2714 C 258.119 -1.76814 1.52509 0
M  V30 2715 C 259.1 -1.65823 0.379052 0
M  V30 2716 O 260.285 -1.84781 0.597466 0
M  V30 2717 C 257.415 -3.15288 1.4564 0
M  V30 2718 C 256.369 -3.41053 2.58586 0
M  V30 2719 C 255.695 -4.79421 2.36769 0
M  V30 2720 C 256.995 -3.34902 4.00797 0
M  V30 2721 H 258.689 -1.69812 2.46586 0
M  V30 2722 H 256.235 -0.815542 1.1868 0
M  V30 2723 H 258.188 -3.93681 1.50311 0
M  V30 2724 H 256.912 -3.23043 0.480725 0
M  V30 2725 H 255.571 -2.65035 2.53282 0
M  V30 2726 H 255.219 -4.83863 1.37424 0
M  V30 2727 H 254.919 -4.9762 3.12487 0
M  V30 2728 H 256.443 -5.6006 2.43238 0
M  V30 2729 H 257.857 -4.03218 4.07539 0
M  V30 2730 H 256.254 -3.64637 4.76613 0
M  V30 2731 H 257.324 -2.32928 4.25291 0
M  V30 2732 N 258.668 -1.30515 -0.883378 0
M  V30 2733 C 259.615 -1.17032 -1.98927 0
M  V30 2734 C 260.585 -0.0594241 -1.65994 0
M  V30 2735 O 261.77 -0.229895 -1.8941 0
M  V30 2736 C 258.91 -0.869777 -3.33959 0
M  V30 2737 C 258.023 -2.06271 -3.79574 0
M  V30 2738 C 257.158 -1.70011 -5.03259 0
M  V30 2739 C 256.197 -2.8579 -5.41286 0
M  V30 2740 N 255.334 -2.49816 -6.56153 0
M  V30 2741 H 260.174 -2.1164 -2.09792 0
M  V30 2742 H 257.711 -1.05296 -1.02719 0
M  V30 2743 H 259.669 -0.676138 -4.11685 0
M  V30 2744 H 258.299 0.0394332 -3.22776 0
M  V30 2745 H 257.351 -2.36755 -2.97744 0
M  V30 2746 H 258.663 -2.92971 -4.03694 0
M  V30 2747 H 257.817 -1.47032 -5.88614 0
M  V30 2748 H 256.556 -0.804829 -4.81013 0
M  V30 2749 H 255.561 -3.09434 -4.54456 0
M  V30 2750 H 256.786 -3.76008 -5.65504 0
M  V30 2751 H 254.732 -1.62795 -6.35479 0
M  V30 2752 H 254.649 -3.30048 -6.8015 0
M  V30 2753 H 255.917 -2.30197 -7.44735 0
M  V30 2754 N 260.146 1.09593 -1.13257 0
M  V30 2755 C 261.394 1.81375 -0.891492 0
M  V30 2756 C 261.715 1.86049 0.584009 0
M  V30 2757 O 260.985 1.34481 1.42449 0
M  V30 2758 H 259.565 0.671708 -0.326828 0
M  V30 2759 H 262.227 1.3256 -1.42877 0
M  V30 2760 H 261.323 2.84612 -1.28071 0
M  V30 2761 N 261.624 0.925811 1.2754 0
M  V30 2762 C 262.554 0.440748 2.29303 0
M  V30 2763 C 263.535 -0.497971 1.62648 0
M  V30 2764 O 264.72 -0.403126 1.8997 0
M  V30 2765 C 261.85 -0.309048 3.45922 0
M  V30 2766 C 260.804 0.54166 4.24559 0
M  V30 2767 C 260.13 -0.337191 5.33636 0
M  V30 2768 C 261.43 1.80516 4.90114 0
M  V30 2769 H 263.124 1.29121 2.70126 0
M  V30 2770 H 260.67 0.622323 1.29858 0
M  V30 2771 H 262.623 -0.659315 4.1621 0
M  V30 2772 H 261.347 -1.19352 3.04011 0
M  V30 2773 H 260.006 0.874609 3.56014 0
M  V30 2774 H 259.654 -1.22056 4.87966 0
M  V30 2775 H 259.354 0.228497 5.87156 0
M  V30 2776 H 260.878 -0.683072 6.06767 0
M  V30 2777 H 262.292 1.52307 5.52698 0
M  V30 2778 H 260.689 2.3142 5.53683 0
M  V30 2779 H 261.759 2.52581 4.13921 0
M  V30 2780 N 263.102 -1.41638 0.69111 0
M  V30 2781 C 264.379 -1.95036 0.148421 0
M  V30 2782 C 264.759 -1.63072 -1.34055 0
M  V30 2783 O 264.107 -0.93538 -2.08478 0
M  V30 2784 C 264.317 -3.46279 0.434951 0
M  V30 2785 C 265.665 -4.23069 0.360275 0
M  V30 2786 O 266.689 -3.54277 0.369613 0
M  V30 2787 O 265.548 -5.45583 0.316534 0
M  V30 2788 H 262.642 -0.826908 0.0123654 0
M  V30 2789 H 265.188 -1.5138 0.766963 0
M  V30 2790 H 263.96 -3.6281 1.46576 0
M  V30 2791 H 263.583 -3.97019 -0.214787 0
M  V30 2792 N 264.58 -0.43555 -1.51462 0
M  V30 2793 C 265.808 0.130242 -2.0649 0
M  V30 2794 C 266.223 1.36614 -1.30315 0
M  V30 2795 O 265.58 1.78869 -0.362223 0
M  V30 2796 C 265.631 0.454253 -3.58635 0
M  V30 2797 O 265.352 -0.73259 -4.31931 0
M  V30 2798 C 266.853 1.07091 -4.3017 0
M  V30 2799 H 264.073 0.00871669 -0.670943 0
M  V30 2800 H 266.617 -0.614117 -1.95061 0
M  V30 2801 H 264.772 1.14851 -3.69984 0
M  V30 2802 H 265.186 -0.455787 -5.22516 0
M  V30 2803 H 266.66 1.24764 -5.37716 0
M  V30 2804 H 267.137 2.05144 -3.88346 0
M  V30 2805 H 267.743 0.416089 -4.2326 0
M  V30 2806 N 266.058 1.56714 -0.166846 0
M  V30 2807 C 266.988 2.20754 0.760913 0
M  V30 2808 C 267.969 1.16178 1.24244 0
M  V30 2809 O 269.154 1.44592 1.29641 0
M  V30 2810 C 266.284 2.84478 1.99223 0
M  V30 2811 C 265.238 3.95053 1.64672 0
M  V30 2812 C 264.564 4.45805 2.95232 0
M  V30 2813 C 265.864 5.14865 0.878155 0
M  V30 2814 H 267.558 2.98537 0.22713 0
M  V30 2815 H 265.104 1.43596 0.107805 0
M  V30 2816 H 267.057 3.27951 2.64624 0
M  V30 2817 H 265.781 2.04056 2.55007 0
M  V30 2818 H 264.44 3.52228 1.01641 0
M  V30 2819 H 264.088 3.62181 3.49047 0
M  V30 2820 H 263.788 5.204 2.7287 0
M  V30 2821 H 265.312 4.91962 3.6167 0
M  V30 2822 H 266.726 5.55059 1.43466 0
M  V30 2823 H 265.123 5.95348 0.753738 0
M  V30 2824 H 266.193 4.84735 -0.126377 0
M  V30 2825 N 267.536 -0.106894 1.57237 0
M  V30 2826 C 268.785 -0.811163 1.8467 0
M  V30 2827 C 269.098 -1.80469 0.754342 0
M  V30 2828 O 270.304 -2.55601 0.915439 0
M  V30 2829 C 268.76 -1.49337 3.27454 0
M  V30 2830 C 268.368 -0.540217 4.44731 0
M  V30 2831 C 270.112 -2.18206 3.64124 0
M  V30 2832 C 268.019 -1.22634 5.78545 0
M  V30 2833 H 266.949 -0.306679 0.688813 0
M  V30 2834 H 269.6 -0.0639887 1.83388 0
M  V30 2835 H 267.982 -2.2876 3.23241 0
M  V30 2836 H 269.156 0.221659 4.60267 0
M  V30 2837 H 267.471 0.042146 4.16379 0
M  V30 2838 H 270.068 -2.70253 4.61376 0
M  V30 2839 H 270.411 -2.96562 2.92158 0
M  V30 2840 H 270.944 -1.45658 3.70174 0
M  V30 2841 H 267.683 -0.483832 6.53712 0
M  V30 2842 H 267.203 -1.95993 5.66874 0
M  V30 2843 H 268.882 -1.75615 6.2271 0
M  V30 2844 N 269.014 -1.53014 -0.377408 0
M  V30 2845 C 269.944 -1.81589 -1.46791 0
M  V30 2846 C 270.925 -0.668622 -1.56408 0
M  V30 2847 O 272.11 -0.917337 -1.71168 0
M  V30 2848 C 269.24 -1.99519 -2.8427 0
M  V30 2849 C 268.194 -3.15249 -2.89486 0
M  V30 2850 C 267.52 -3.18451 -4.29527 0
M  V30 2851 C 268.82 -4.54084 -2.58079 0
M  V30 2852 H 270.514 -2.7291 -1.23127 0
M  V30 2853 H 268.06 -1.31319 -0.590883 0
M  V30 2854 H 270.013 -2.18092 -3.60575 0
M  V30 2855 H 268.737 -1.04897 -3.09296 0
M  V30 2856 H 267.396 -2.96477 -2.15631 0
M  V30 2857 H 267.044 -2.2149 -4.5161 0
M  V30 2858 H 266.744 -3.962 -4.33934 0
M  V30 2859 H 268.268 -3.39193 -5.07721 0
M  V30 2860 H 269.682 -4.72899 -3.24098 0
M  V30 2861 H 268.079 -5.33987 -2.7382 0
M  V30 2862 H 269.149 -4.60006 -1.53372 0
M  V30 2863 N 270.492 0.636531 -1.44174 0
M  V30 2864 C 271.74 1.39343 -1.46383 0
M  V30 2865 C 272.061 1.94766 -0.0955715 0
M  V30 2866 O 271.331 1.75452 0.871395 0
M  V30 2867 H 269.911 0.517199 -0.538994 0
M  V30 2868 H 272.573 0.74957 -1.7991 0
M  V30 2869 H 271.669 2.22746 -2.18611 0
M  V30 2870 N 271.97 1.30982 0.876444 0
M  V30 2871 C 273.21 1.21589 1.64303 0
M  V30 2872 C 273.574 -0.223962 1.90689 0
M  V30 2873 O 274.775 -0.44128 2.65153 0
M  V30 2874 C 273.046 2.03007 2.94148 0
M  V30 2875 S 274.605 2.10405 3.85065 0
M  V30 2876 H 271.423 0.433161 0.563819 0
M  V30 2877 H 274.025 1.65565 1.03964 0
M  V30 2878 H 272.729 3.06719 2.72675 0
M  V30 2879 H 272.26 1.59725 3.59515 0
M  V30 2880 H 274.275 1.23765 4.80517 0
M  V30 2881 N 273.449 -1.08991 1.13837 0
M  V30 2882 C 274.677 -1.85011 0.926202 0
M  V30 2883 C 275.092 -1.8135 -0.525127 0
M  V30 2884 O 274.449 -1.21287 -1.36366 0
M  V30 2885 C 274.5 -3.32802 1.41155 0
M  V30 2886 O 274.221 -3.36444 2.80601 0
M  V30 2887 C 275.722 -4.25649 1.23847 0
M  V30 2888 H 272.942 -0.584249 0.32999 0
M  V30 2889 H 275.486 -1.37688 1.51202 0
M  V30 2890 H 273.641 -3.77536 0.868631 0
M  V30 2891 H 274.055 -4.28657 3.02248 0
M  V30 2892 H 275.529 -5.27485 1.62675 0
M  V30 2893 H 276.006 -4.38828 0.18065 0
M  V30 2894 H 276.612 -3.86735 1.76964 0
M  V30 2895 N 274.927 -0.932562 -1.27047 0
M  V30 2896 C 275.877 -0.406392 -2.24349 0
M  V30 2897 C 276.861 0.492066 -1.53191 0
M  V30 2898 O 278.053 0.328717 -1.73921 0
M  V30 2899 C 275.182 0.335214 -3.41659 0
M  V30 2900 C 274.268 -0.58004 -4.20115 0
M  V30 2901 N 274.659 -1.70203 -4.76303 0
M  V30 2902 C 272.957 -0.383974 -4.44344 0
M  V30 2903 C 273.658 -2.27167 -5.35509 0
M  V30 2904 N 272.634 -1.56068 -5.20715 0
M  V30 2905 H 276.436 -1.26299 -2.65378 0
M  V30 2906 H 273.95 -0.787408 -1.42034 0
M  V30 2907 H 275.947 0.729142 -4.10474 0
M  V30 2908 H 274.607 1.18868 -3.0216 0
M  V30 2909 H 275.618 -2.08433 -4.74106 0
M  V30 2910 H 272.295 0.428436 -4.15296 0
M  V30 2911 H 273.685 -3.21654 -5.89905 0
M  V30 2912 N 276.405 1.4127 -0.698611 0
M  V30 2913 C 277.635 2.05205 -0.239644 0
M  V30 2914 C 278.043 1.52684 1.11733 0
M  V30 2915 O 277.386 0.671222 1.70998 0
M  V30 2916 C 277.448 3.59289 -0.123126 0
M  V30 2917 C 277.112 4.34619 -1.41263 0
M  V30 2918 C 278.109 4.63701 -2.35111 0
M  V30 2919 C 275.794 4.73837 -1.66684 0
M  V30 2920 C 277.788 5.30966 -3.52639 0
M  V30 2921 C 275.475 5.40837 -2.84498 0
M  V30 2922 C 276.473 5.69329 -3.77298 0
M  V30 2923 O 276.161 6.34949 -4.93047 0
M  V30 2924 H 275.893 0.66723 -0.108537 0
M  V30 2925 H 278.447 1.81974 -0.952602 0
M  V30 2926 H 276.677 3.81272 0.645628 0
M  V30 2927 H 278.366 4.04797 0.299056 0
M  V30 2928 H 279.132 4.33882 -2.16729 0
M  V30 2929 H 275.011 4.51039 -0.953135 0
M  V30 2930 H 278.555 5.53121 -4.25091 0
M  V30 2931 H 274.452 5.70075 -3.02795 0
M  V30 2932 H 275.22 6.53445 -4.92902 0
M  V30 2933 N 277.883 0.443576 1.51229 0
M  V30 2934 C 279.294 -0.0180867 1.86691 0
M  V30 2935 C 279.645 -1.41384 1.36033 0
M  V30 2936 O 278.77 -2.04291 0.713722 0
M  V30 2937 C 279.365 -0.039597 3.38777 0
M  V30 2938 C 277.924 -0.445692 3.73752 0
M  V30 2939 C 277.071 0.357584 2.74985 0
M  V30 2940 H 280.022 0.659138 1.44364 0
M  V30 2941 H 280.043 -0.847761 3.70936 0
M  V30 2942 H 279.555 0.976382 3.75617 0
M  V30 2943 H 277.656 -1.46704 3.42503 0
M  V30 2944 H 277.769 -0.166155 4.78812 0
M  V30 2945 H 276.133 -0.184973 2.54027 0
M  V30 2946 H 276.916 1.37256 3.14668 0
M  V30 2947 N 279.361 -1.56624 0.175154 0
M  V30 2948 C 280.291 -2.21155 -0.749195 0
M  V30 2949 C 281.272 -1.16836 -1.23626 0
M  V30 2950 O 282.457 -1.45277 -1.28873 0
M  V30 2951 C 279.587 -2.8553 -1.97711 0
M  V30 2952 C 278.541 -3.95921 -1.62575 0
M  V30 2953 C 277.867 -4.47365 -2.92864 0
M  V30 2954 C 279.167 -5.15323 -0.850838 0
M  V30 2955 H 280.861 -2.98653 -0.211295 0
M  V30 2956 H 278.407 -1.43651 -0.100188 0
M  V30 2957 H 280.36 -3.2935 -2.62881 0
M  V30 2958 H 279.084 -2.05406 -2.53921 0
M  V30 2959 H 277.743 -3.52762 -0.997719 0
M  V30 2960 H 277.391 -3.64027 -3.47122 0
M  V30 2961 H 277.091 -5.21839 -2.70106 0
M  V30 2962 H 278.615 -4.93873 -3.59056 0
M  V30 2963 H 280.029 -5.55812 -1.40521 0
M  V30 2964 H 278.426 -5.95739 -0.722154 0
M  V30 2965 H 279.496 -4.84661 0.152082 0
M  V30 2966 N 280.839 0.0985539 -1.57292 0
M  V30 2967 C 281.769 1.12064 -2.04851 0
M  V30 2968 C 282.75 1.41981 -0.936767 0
M  V30 2969 O 283.935 1.52071 -1.20781 0
M  V30 2970 C 281.065 2.44144 -2.47004 0
M  V30 2971 C 280.019 2.28643 -3.6181 0
M  V30 2972 C 279.345 3.65869 -3.89929 0
M  V30 2973 C 280.645 1.72986 -4.92822 0
M  V30 2974 H 282.339 0.724979 -2.9049 0
M  V30 2975 H 279.885 0.34729 -1.39749 0
M  V30 2976 H 281.838 3.15914 -2.78884 0
M  V30 2977 H 280.562 2.85639 -1.5836 0
M  V30 2978 H 279.221 1.59318 -3.30172 0
M  V30 2979 H 278.869 4.04885 -2.98458 0
M  V30 2980 H 278.569 3.56344 -4.67218 0
M  V30 2981 H 280.093 4.39112 -4.2428 0
M  V30 2982 H 281.507 2.34593 -5.23105 0
M  V30 2983 H 279.904 1.74229 -5.74251 0
M  V30 2984 H 280.974 0.689007 -4.7998 0
M  V30 2985 N 282.317 1.53212 0.369288 0
M  V30 2986 C 283.733 1.42902 0.710712 0
M  V30 2987 C 283.933 0.565135 1.93413 0
M  V30 2988 O 282.989 0.0461484 2.52458 0
M  V30 2989 C 284.302 2.86042 0.927382 0
M  V30 2990 C 285.85 2.9565 1.02762 0
M  V30 2991 C 286.325 4.39843 1.27679 0
M  V30 2992 N 287.816 4.43256 1.34457 0
M  V30 2993 C 288.551 5.51929 1.55439 0
M  V30 2994 N 288.047 6.70655 1.73762 0
M  V30 2995 N 289.84 5.39502 1.57779 0
M  V30 2996 H 281.991 2.07888 -0.435457 0
M  V30 2997 H 284.254 0.938661 -0.132739 0
M  V30 2998 H 283.96 3.51557 0.100287 0
M  V30 2999 H 283.834 3.29472 1.83653 0
M  V30 3000 H 286.221 2.30291 1.84527 0
M  V30 3001 H 286.302 2.5562 0.0959504 0
M  V30 3002 H 285.946 5.05774 0.464175 0
M  V30 3003 H 285.876 4.77443 2.22162 0
M  V30 3004 H 288.367 3.5769 1.21926 0
M  V30 3005 H 288.68 7.49248 1.89335 0
M  V30 3006 H 287.025 6.73648 1.70948 0
M  V30 3007 H 290.216 4.45713 1.43029 0
M  V30 3008 H 290.389 6.2426 1.7379 0
M  V30 3009 N 283.795 -0.628877 1.44509 0
M  V30 3010 C 285.206 -1.21054 1.42137 0
M  V30 3011 C 285.557 -1.95715 0.137881 0
M  V30 3012 O 284.682 -2.02554 -0.761645 0
M  V30 3013 C 285.277 -2.20189 2.57493 0
M  V30 3014 C 283.836 -2.73777 2.58308 0
M  V30 3015 C 282.983 -1.48813 2.33987 0
M  V30 3016 H 285.934 -0.41942 1.53057 0
M  V30 3017 H 285.955 -3.02833 2.30375 0
M  V30 3018 H 285.467 -1.6582 3.50892 0
M  V30 3019 H 283.568 -3.32142 1.68856 0
M  V30 3020 H 283.681 -3.19662 3.56865 0
M  V30 3021 H 282.045 -1.77024 1.83124 0
M  V30 3022 H 282.828 -0.963442 3.29504 0
M  V30 3023 N 285.273 -1.31445 -0.869486 0
M  V30 3024 C 286.519 -1.21337 -1.62496 0
M  V30 3025 C 286.852 0.227872 -1.92858 0
M  V30 3026 O 286.127 1.16094 -1.56053 0
M  V30 3027 C 286.41 -2.05814 -2.95487 0
M  V30 3028 C 286.263 -3.5824 -2.72 0
M  V30 3029 C 287.582 -1.9079 -3.96594 0
M  V30 3030 H 284.701 -0.442135 -0.589649 0
M  V30 3031 H 287.343 -1.6124 -1.00507 0
M  V30 3032 H 285.493 -1.71913 -3.48394 0
M  V30 3033 H 287.165 -4.0228 -2.25762 0
M  V30 3034 H 285.408 -3.81647 -2.06224 0
M  V30 3035 H 286.079 -4.12657 -3.66631 0
M  V30 3036 H 288.555 -2.20459 -3.52898 0
M  V30 3037 H 287.431 -2.52199 -4.87531 0
M  V30 3038 H 287.692 -0.871341 -4.33428 0
M  V30 3039 N 286.751 1.08385 -1.14413 0
M  V30 3040 C 288 1.80153 -0.907076 0
M  V30 3041 C 288.313 1.87176 0.567851 0
M  V30 3042 O 289.519 2.55359 0.922172 0
M  V30 3043 C 287.975 3.23687 -1.57336 0
M  V30 3044 C 287.583 3.24897 -3.08457 0
M  V30 3045 C 289.327 4.00136 -1.41744 0
M  V30 3046 C 287.234 4.6302 -3.67921 0
M  V30 3047 H 286.164 0.675139 -0.335714 0
M  V30 3048 H 288.815 1.21733 -1.37307 0
M  V30 3049 H 287.197 3.82234 -1.03505 0
M  V30 3050 H 288.371 2.76055 -3.68958 0
M  V30 3051 H 286.686 2.61943 -3.2369 0
M  V30 3052 H 289.283 5.02201 -1.83572 0
M  V30 3053 H 289.626 4.14709 -0.363576 0
M  V30 3054 H 290.159 3.48058 -1.92614 0
M  V30 3055 H 286.898 4.5365 -4.73161 0
M  V30 3056 H 286.418 5.12143 -3.12201 0
M  V30 3057 H 288.097 5.31994 -3.68227 0
M  V30 3058 N 288.23 0.939286 1.26551 0
M  V30 3059 C 289.162 0.404704 2.25599 0
M  V30 3060 C 290.175 -0.470983 1.55838 0
M  V30 3061 O 291.364 -0.281734 1.76263 0
M  V30 3062 C 288.464 -0.43764 3.36062 0
M  V30 3063 C 287.637 0.421449 4.35365 0
M  V30 3064 C 286.696 -0.36015 5.24966 0
M  V30 3065 O 285.722 0.236167 5.6871 0
M  V30 3066 N 286.924 -1.65715 5.56344 0
M  V30 3067 H 289.689 1.25618 2.72103 0
M  V30 3068 H 287.25 0.807963 1.40298 0
M  V30 3069 H 289.242 -0.967866 3.92956 0
M  V30 3070 H 287.812 -1.18991 2.89067 0
M  V30 3071 H 287.032 1.1329 3.7757 0
M  V30 3072 H 288.32 1.00835 4.98708 0
M  V30 3073 H 287.718 -2.16378 5.22682 0
M  V30 3074 H 286.275 -2.13366 6.15888 0
M  V30 3075 N 289.708 -1.40897 0.706093 0
M  V30 3076 C 290.656 -2.32572 0.0361893 0
M  V30 3077 C 291.65 -1.51532 -0.757266 0
M  V30 3078 O 292.856 -1.67396 -0.661703 0
M  V30 3079 H 289.231 -0.751966 -0.00709935 0
M  V30 3080 H 291.202 -2.86733 0.826249 0
M  V30 3081 C 289.951 -3.36418 -0.87854 0
M  V30 3082 H 289.274 -3.98836 -0.277401 0
M  V30 3083 H 290.714 -4.0308 -1.3154 0
M  V30 3084 C 289.173 -2.71141 -1.99961 0
M  V30 3085 O 289.703 -2.56735 -3.0895 0
M  V30 3086 N 287.909 -2.29671 -1.78043 0
M  V30 3087 H 287.456 -2.41588 -0.894042 0
M  V30 3088 H 287.414 -1.86332 -2.53235 0
M  V30 3089 N 291.186 -0.45159 -1.50991 0
M  V30 3090 C 292.432 0.110237 -2.025 0
M  V30 3091 C 292.765 1.41109 -1.33424 0
M  V30 3092 O 292.04 1.89135 -0.453659 0
M  V30 3093 C 292.323 0.314271 -3.58726 0
M  V30 3094 C 292.176 -1.00623 -4.38401 0
M  V30 3095 C 293.495 1.07767 -4.26702 0
M  V30 3096 H 290.614 0.0385897 -0.735989 0
M  V30 3097 H 293.256 -0.593374 -1.80497 0
M  V30 3098 H 291.406 0.913601 -3.77605 0
M  V30 3099 H 293.078 -1.64064 -4.31139 0
M  V30 3100 H 291.321 -1.6075 -4.02917 0
M  V30 3101 H 291.992 -0.817341 -5.45915 0
M  V30 3102 H 294.468 0.56986 -4.12179 0
M  V30 3103 H 293.344 1.18921 -5.35863 0
M  V30 3104 H 293.605 2.10939 -3.88532 0
M  V30 3105 N 292.664 1.56529 -0.183458 0
M  V30 3106 C 293.597 2.14417 0.781052 0
M  V30 3107 C 294.575 1.07761 1.21763 0
M  V30 3108 O 295.759 1.35807 1.30724 0
M  V30 3109 C 292.886 2.69361 2.05335 0
M  V30 3110 C 291.932 3.885 1.75982 0
M  V30 3111 S 292.765 5.27568 0.918256 0
M  V30 3112 C 293.921 5.85926 2.20095 0
M  V30 3113 H 294.154 2.95893 0.2889 0
M  V30 3114 H 291.687 1.54368 0.0313844 0
M  V30 3115 H 293.645 3.01662 2.78406 0
M  V30 3116 H 292.306 1.87949 2.51663 0
M  V30 3117 H 291.499 4.25314 2.70415 0
M  V30 3118 H 291.101 3.57149 1.10999 0
M  V30 3119 H 293.393 5.99579 3.15453 0
M  V30 3120 H 294.336 6.82761 1.87731 0
M  V30 3121 H 294.744 5.14438 2.32409 0
M  V30 3122 N 294.142 -0.090211 1.57342 0
M  V30 3123 C 295.39 -0.791241 1.85967 0
M  V30 3124 C 295.711 -1.7903 0.772859 0
M  V30 3125 O 294.981 -1.94872 -0.200398 0
M  V30 3126 H 293.561 -0.295205 0.686195 0
M  V30 3127 H 296.223 -0.0706782 1.94772 0
M  V30 3128 H 295.319 -1.31882 2.82867 0
M  V30 3129 N 295.62 -1.53406 -0.361157 0
M  V30 3130 C 296.845 -1.74024 -1.12829 0
M  V30 3131 C 297.27 -0.470069 -1.82132 0
M  V30 3132 O 296.628 0.57619 -1.719 0
M  V30 3133 C 296.676 -2.90903 -2.13091 0
M  V30 3134 O 295.78 -2.59821 -3.20261 0
M  V30 3135 H 295.121 -0.577804 -0.327168 0
M  V30 3136 H 297.651 -2.00307 -0.41693 0
M  V30 3137 H 297.661 -3.17194 -2.56616 0
M  V30 3138 H 296.336 -3.83034 -1.62042 0
M  V30 3139 H 294.913 -2.44362 -2.81677 0
M  V30 3140 N 297.098 0.621204 -1.44841 0
M  V30 3141 C 298.048 1.72663 -1.48901 0
M  V30 3142 C 299.032 1.56964 -0.353702 0
M  V30 3143 O 300.224 1.66532 -0.599669 0
M  V30 3144 C 297.353 3.11381 -1.44557 0
M  V30 3145 C 296.439 3.32514 -2.6324 0
M  V30 3146 N 296.83 3.23969 -3.8843 0
M  V30 3147 C 295.128 3.63343 -2.58647 0
M  V30 3148 C 295.829 3.46062 -4.67564 0
M  V30 3149 N 294.805 3.69407 -3.98797 0
M  V30 3150 H 298.607 1.64529 -2.43531 0
M  V30 3151 H 296.121 0.82401 -1.39942 0
M  V30 3152 H 298.118 3.90667 -1.4555 0
M  V30 3153 H 296.778 3.20674 -0.509731 0
M  V30 3154 H 297.789 3.02669 -4.20252 0
M  V30 3155 H 294.466 3.79556 -1.73906 0
M  V30 3156 H 295.856 3.44963 -5.76585 0
M  V30 3157 N 298.576 1.31904 0.862503 0
M  V30 3158 C 299.822 1.22197 1.61851 0
M  V30 3159 C 300.155 -0.217641 1.92977 0
M  V30 3160 O 299.43 -1.15264 1.56666 0
M  V30 3161 C 299.713 2.07378 2.94391 0
M  V30 3162 C 299.566 3.59678 2.70096 0
M  V30 3163 C 300.885 1.92891 3.95577 0
M  V30 3164 H 298.004 0.445255 0.587296 0
M  V30 3165 H 300.646 1.6177 0.99651 0
M  V30 3166 H 298.796 1.73758 3.47477 0
M  V30 3167 H 300.468 4.03472 2.23625 0
M  V30 3168 H 298.711 3.82735 2.04197 0
M  V30 3169 H 299.382 4.14595 3.64438 0
M  V30 3170 H 301.858 2.22327 3.51724 0
M  V30 3171 H 300.734 2.54781 4.86187 0
M  V30 3172 H 300.995 0.894315 4.3296 0
M  V30 3173 N 300.054 -1.07777 1.14986 0
M  V30 3174 C 301.282 -1.84018 0.945773 0
M  V30 3175 C 301.697 -1.81897 -0.505863 0
M  V30 3176 O 301.054 -1.22726 -1.35072 0
M  V30 3177 C 301.105 -3.31287 1.44677 0
M  V30 3178 O 300.826 -3.33449 2.84154 0
M  V30 3179 C 302.327 -4.24311 1.28355 0
M  V30 3180 H 299.547 -0.580716 0.336169 0
M  V30 3181 H 302.091 -1.36077 1.52654 0
M  V30 3182 H 300.246 -3.76594 0.908625 0
M  V30 3183 H 300.66 -4.25427 3.06777 0
M  V30 3184 H 302.134 -5.2573 1.68261 0
M  V30 3185 H 302.611 -4.38612 0.227184 0
M  V30 3186 H 303.217 -3.84836 1.81056 0
M  V30 3187 N 301.532 -0.945985 -1.26051 0
M  V30 3188 C 302.462 -0.477172 -2.28572 0
M  V30 3189 C 303.443 0.472032 -1.63419 0
M  V30 3190 O 304.628 0.372853 -1.90587 0
M  V30 3191 C 301.758 0.253975 -3.4637 0
M  V30 3192 C 300.712 -0.609135 -4.23643 0
M  V30 3193 C 300.038 0.252252 -5.34105 0
M  V30 3194 C 301.338 -1.8829 -4.8718 0
M  V30 3195 H 303.032 -1.33402 -2.68038 0
M  V30 3196 H 300.578 -0.642904 -1.28852 0
M  V30 3197 H 302.531 0.593016 -4.17207 0
M  V30 3198 H 301.255 1.145 -3.05871 0
M  V30 3199 H 299.914 -0.931138 -3.54578 0
M  V30 3200 H 299.562 1.14278 -4.89846 0
M  V30 3201 H 299.262 -0.32188 -5.86718 0
M  V30 3202 H 300.786 0.586454 -6.07777 0
M  V30 3203 H 302.2 -1.61081 -5.50205 0
M  V30 3204 H 300.597 -2.40199 -5.49931 0
M  V30 3205 H 301.667 -2.59134 -4.09851 0
M  V30 3206 N 303.011 1.40521 -0.713556 0
M  V30 3207 C 304.26 2.00155 -0.249192 0
M  V30 3208 C 304.573 1.57224 1.16362 0
M  V30 3209 O 305.779 2.09542 1.72639 0
M  V30 3210 C 304.235 3.5773 -0.3946 0
M  V30 3211 C 303.843 4.09635 -1.81392 0
M  V30 3212 C 305.587 4.24499 0.00907364 0
M  V30 3213 C 303.494 5.59707 -1.91003 0
M  V30 3214 H 302.424 0.74868 -0.0894114 0
M  V30 3215 H 305.075 1.60784 -0.884352 0
M  V30 3216 H 303.457 3.94792 0.30911 0
M  V30 3217 H 304.631 3.83955 -2.54785 0
M  V30 3218 H 302.946 3.55456 -2.16888 0
M  V30 3219 H 305.543 5.34683 -0.0420404 0
M  V30 3220 H 305.886 4.02824 1.05065 0
M  V30 3221 H 306.419 3.92536 -0.645007 0
M  V30 3222 H 303.158 5.86234 -2.93275 0
M  V30 3223 H 302.678 5.87258 -1.22019 0
M  V30 3224 H 304.357 6.24776 -1.6812 0
M  V30 3225 N 304.489 0.459591 1.5075 0
M  V30 3226 C 305.766 -0.160371 1.94941 0
M  V30 3227 C 306.146 -1.58048 1.39943 0
M  V30 3228 O 305.494 -2.206 0.595629 0
M  V30 3229 C 305.704 -0.115432 3.48809 0
M  V30 3230 C 307.052 -0.310026 4.23467 0
M  V30 3231 O 308.076 -0.192543 3.55679 0
M  V30 3232 O 306.935 -0.546031 5.43765 0
M  V30 3233 H 304.029 -0.117925 0.818549 0
M  V30 3234 H 306.575 0.519169 1.61563 0
M  V30 3235 H 305.347 0.87652 3.81357 0
M  V30 3236 H 304.97 -0.836928 3.88692 0
M  V30 3237 N 305.967 -1.56429 0.191757 0
M  V30 3238 C 307.192 -2.02309 -0.456706 0
M  V30 3239 C 307.617 -1.07103 -1.5463 0
M  V30 3240 O 306.975 -0.0539677 -1.8122 0
M  V30 3241 C 307.023 -3.46654 -0.993159 0
M  V30 3242 O 306.127 -3.54559 -2.10622 0
M  V30 3243 H 305.468 -0.655303 -0.107114 0
M  V30 3244 H 307.998 -2.02364 0.301653 0
M  V30 3245 H 308.008 -3.86377 -1.31061 0
M  V30 3246 H 306.683 -4.1544 -0.195504 0
M  V30 3247 H 305.26 -3.26708 -1.79767 0
M  V30 3248 N 307.445 0.0818655 -1.57387 0
M  V30 3249 C 308.693 0.781368 -1.86384 0
M  V30 3250 C 309.014 1.78618 -0.782342 0
M  V30 3251 O 308.284 1.94976 0.190061 0
M  V30 3252 H 306.864 0.291562 -0.687751 0
M  V30 3253 H 309.526 0.060348 -1.94807 0
M  V30 3254 H 308.622 1.3038 -2.83562 0
M  V30 3255 N 308.923 1.53595 0.353017 0
M  V30 3256 C 309.886 1.80232 1.41594 0
M  V30 3257 C 310.886 0.673081 1.46035 0
M  V30 3258 O 312.076 0.941335 1.46576 0
M  V30 3259 C 309.208 1.93578 2.80607 0
M  V30 3260 H 310.401 2.75174 1.19244 0
M  V30 3261 H 307.954 1.44864 0.586872 0
M  V30 3262 H 308.689 1.00746 3.08254 0
M  V30 3263 H 308.474 2.75724 2.78781 0
M  V30 3264 H 309.964 2.15735 3.57558 0
M  V30 3265 N 310.401 -0.613514 1.45168 0
M  V30 3266 C 311.311 -1.75296 1.55912 0
M  V30 3267 C 312.327 -1.68244 0.443856 0
M  V30 3268 O 313.503 -1.88706 0.70371 0
M  V30 3269 C 310.568 -3.1174 1.5172 0
M  V30 3270 C 309.629 -3.30291 2.74238 0
M  V30 3271 C 308.862 -4.60226 2.70236 0
M  V30 3272 O 309.085 -5.42168 1.77229 0
M  V30 3273 O 308.019 -4.81361 3.61352 0
M  V30 3274 H 311.845 -1.69183 2.52212 0
M  V30 3275 H 309.43 -0.776886 1.27612 0
M  V30 3276 H 311.312 -3.93044 1.51968 0
M  V30 3277 H 309.987 -3.18357 0.585697 0
M  V30 3278 H 308.894 -2.48598 2.79553 0
M  V30 3279 H 310.227 -3.28547 3.66494 0
M  V30 3280 N 311.879 -1.3236 -0.855495 0
M  V30 3281 C 313.107 -1.2587 -1.64208 0
M  V30 3282 C 313.522 0.173457 -1.88002 0
M  V30 3283 O 312.879 1.11027 -1.44842 0
M  V30 3284 C 312.93 -2.01424 -3.00184 0
M  V30 3285 O 312.651 -3.39051 -2.77445 0
M  V30 3286 C 314.152 -2.01948 -3.94629 0
M  V30 3287 H 311.372 -0.434318 -0.511477 0
M  V30 3288 H 313.916 -1.74469 -1.0668 0
M  V30 3289 H 312.071 -1.56549 -3.5436 0
M  V30 3290 H 312.485 -3.77711 -3.63916 0
M  V30 3291 H 313.959 -2.59297 -4.87308 0
M  V30 3292 H 314.436 -1.00554 -4.27534 0
M  V30 3293 H 315.042 -2.46767 -3.4639 0
M  V30 3294 N 313.357 1.07166 -1.15556 0
M  V30 3295 C 314.603 1.80065 -0.932984 0
M  V30 3296 C 314.936 1.86586 0.53845 0
M  V30 3297 O 314.211 1.35098 1.39924 0
M  V30 3298 C 314.494 3.25022 -1.55025 0
M  V30 3299 C 314.347 3.26634 -3.09242 0
M  V30 3300 C 315.666 4.22341 -1.2376 0
M  V30 3301 H 312.785 0.653697 -0.340366 0
M  V30 3302 H 315.427 1.25389 -1.4275 0
M  V30 3303 H 313.577 3.71712 -1.12972 0
M  V30 3304 H 315.249 2.88173 -3.60214 0
M  V30 3305 H 313.492 2.65539 -3.43033 0
M  V30 3306 H 314.163 4.28854 -3.47546 0
M  V30 3307 H 316.639 3.8405 -1.60139 0
M  V30 3308 H 315.515 5.22053 -1.69564 0
M  V30 3309 H 315.776 4.41828 -0.154938 0
M  V30 3310 N 314.835 0.952656 1.25548 0
M  V30 3311 C 316.083 0.605176 1.92826 0
M  V30 3312 C 316.404 -0.860261 1.74999 0
M  V30 3313 O 315.674 -1.6125 1.11244 0
M  V30 3314 H 314.254 0.220832 0.713612 0
M  V30 3315 H 316.916 1.21047 1.52754 0
M  V30 3316 H 316.012 0.832798 3.00784 0
M  V30 3317 N 316.313 -1.40141 0.720998 0
M  V30 3318 C 317.223 -2.34486 0.0731031 0
M  V30 3319 C 318.239 -1.57587 -0.737723 0
M  V30 3320 O 319.415 -1.89949 -0.669429 0
M  V30 3321 C 316.48 -3.36528 -0.833656 0
M  V30 3322 C 315.541 -4.29298 -0.0121673 0
M  V30 3323 C 314.774 -5.26466 -0.875742 0
M  V30 3324 O 314.997 -5.29745 -2.11485 0
M  V30 3325 O 313.931 -6.01092 -0.31185 0
M  V30 3326 H 317.757 -2.9152 0.851444 0
M  V30 3327 H 315.342 -1.41427 0.481527 0
M  V30 3328 H 317.224 -3.99093 -1.35289 0
M  V30 3329 H 315.899 -2.81899 -1.59105 0
M  V30 3330 H 314.806 -3.70001 0.552262 0
M  V30 3331 H 316.139 -4.87094 0.707129 0
M  V30 3332 N 317.792 -0.46758 -1.50504 0
M  V30 3333 C 319.038 0.0887532 -2.02606 0
M  V30 3334 C 319.371 1.39686 -1.34913 0
M  V30 3335 O 318.646 1.88644 -0.473694 0
M  V30 3336 C 318.929 0.276206 -3.59039 0
M  V30 3337 C 318.782 -1.05267 -4.37309 0
M  V30 3338 C 320.101 1.03235 -4.27821 0
M  V30 3339 H 317.22 0.0307814 -0.736357 0
M  V30 3340 H 319.862 -0.612485 -1.79857 0
M  V30 3341 H 318.012 0.8735 -3.78553 0
M  V30 3342 H 319.684 -1.68628 -4.29374 0
M  V30 3343 H 317.927 -1.65015 -4.01189 0
M  V30 3344 H 318.598 -0.875197 -5.45018 0
M  V30 3345 H 321.074 0.526111 -4.12761 0
M  V30 3346 H 319.95 1.1323 -5.37094 0
M  V30 3347 H 320.211 2.06806 -3.90748 0
M  V30 3348 N 319.27 1.56325 -0.20005 0
M  V30 3349 C 320.495 2.02548 0.44597 0
M  V30 3350 C 320.92 1.07922 1.5406 0
M  V30 3351 O 320.278 0.0635775 1.81188 0
M  V30 3352 C 320.326 3.47175 0.974761 0
M  V30 3353 O 319.43 3.55671 2.08739 0
M  V30 3354 H 318.771 0.655862 0.103638 0
M  V30 3355 H 321.301 2.02201 -0.312381 0
M  V30 3356 H 321.311 3.87067 1.2901 0
M  V30 3357 H 319.986 4.15538 0.17347 0
M  V30 3358 H 318.563 3.27657 1.78032 0
M  V30 3359 N 320.748 -0.0735177 1.57428 0
M  V30 3360 C 321.681 -1.11932 1.98863 0
M  V30 3361 C 322.659 -1.37666 0.865266 0
M  V30 3362 O 323.843 -1.51068 1.12742 0
M  V30 3363 C 320.97 -2.46403 2.32386 0
M  V30 3364 C 320.016 -2.36815 3.54713 0
M  V30 3365 S 320.849 -1.76392 5.05614 0
M  V30 3366 C 322.005 -3.12444 5.42337 0
M  V30 3367 H 322.238 -0.766212 2.87257 0
M  V30 3368 H 319.771 -0.281987 1.51803 0
M  V30 3369 H 321.729 -3.23755 2.52375 0
M  V30 3370 H 320.39 -2.78876 1.44524 0
M  V30 3371 H 319.583 -3.35977 3.7568 0
M  V30 3372 H 319.185 -1.67598 3.34345 0
M  V30 3373 H 321.477 -4.08753 5.40303 0
M  V30 3374 H 322.42 -2.96258 6.43146 0
M  V30 3375 H 322.828 -3.1297 4.69798 0
M  V30 3376 N 322.226 -1.5378 -0.344866 0
M  V30 3377 C 323.156 -1.84662 -1.42906 0
M  V30 3378 C 324.137 -0.701648 -1.54955 0
M  V30 3379 O 325.322 -0.953438 -1.69184 0
M  V30 3380 C 322.452 -2.05503 -2.79974 0
M  V30 3381 C 321.406 -3.21318 -2.82734 0
M  V30 3382 C 320.732 -3.2749 -4.22675 0
M  V30 3383 C 322.032 -4.59456 -2.48389 0
M  V30 3384 H 323.726 -2.75461 -1.17311 0
M  V30 3385 H 321.272 -1.32542 -0.562896 0
M  V30 3386 H 323.225 -2.25691 -3.55867 0
M  V30 3387 H 321.949 -1.11434 -3.07002 0
M  V30 3388 H 320.608 -3.00984 -2.09294 0
M  V30 3389 H 320.256 -2.31019 -4.4681 0
M  V30 3390 H 319.956 -4.05316 -4.25433 0
M  V30 3391 H 321.48 -3.49887 -5.00412 0
M  V30 3392 H 322.894 -4.79667 -3.13995 0
M  V30 3393 H 321.291 -5.39675 -2.62432 0
M  V30 3394 H 322.361 -4.63155 -1.4358 0
M  V30 3395 N 323.704 0.605807 -1.45491 0
M  V30 3396 C 324.634 1.72709 -1.57143 0
M  V30 3397 C 325.615 1.6476 -0.422884 0
M  V30 3398 O 326.8 1.83132 -0.646247 0
M  V30 3399 C 323.93 3.11316 -1.53948 0
M  V30 3400 C 322.884 3.34077 -2.67537 0
M  V30 3401 C 322.21 4.72975 -2.49397 0
M  V30 3402 C 323.51 3.24158 -4.09535 0
M  V30 3403 H 325.204 1.63214 -2.51001 0
M  V30 3404 H 322.75 0.78379 -1.208 0
M  V30 3405 H 324.703 3.89557 -1.60696 0
M  V30 3406 H 323.427 3.21655 -0.566205 0
M  V30 3407 H 322.086 2.58227 -2.6022 0
M  V30 3408 H 321.734 4.8005 -1.50205 0
M  V30 3409 H 321.434 4.8916 -3.25571 0
M  V30 3410 H 322.958 5.53414 -2.58002 0
M  V30 3411 H 324.372 3.92271 -4.18086 0
M  V30 3412 H 322.769 3.51872 -4.86113 0
M  V30 3413 H 323.839 2.2157 -4.31317 0
M  V30 3414 N 325.182 1.32811 0.848464 0
M  V30 3415 C 326.459 1.14334 1.58704 0
M  V30 3416 C 326.839 -0.293948 2.09043 0
M  V30 3417 O 326.187 -1.29153 1.88499 0
M  V30 3418 C 326.397 2.17626 2.72837 0
M  V30 3419 C 327.745 2.51282 3.42261 0
M  V30 3420 O 328.769 2.16219 2.83068 0
M  V30 3421 O 327.628 3.11413 4.49093 0
M  V30 3422 H 324.722 0.441601 0.699226 0
M  V30 3423 H 327.268 1.44362 0.892053 0
M  V30 3424 H 326.04 3.14211 2.3321 0
M  V30 3425 H 325.663 1.88628 3.50008 0
M  V30 3426 N 326.66 -1.06551 1.16123 0
M  V30 3427 C 327.89 -1.8274 0.963838 0
M  V30 3428 C 328.298 -1.82712 -0.491228 0
M  V30 3429 O 327.641 -1.24294 -1.35265 0
M  V30 3430 C 327.703 -3.3065 1.41106 0
M  V30 3431 C 327.367 -3.54384 2.88549 0
M  V30 3432 C 328.364 -3.4765 3.86569 0
M  V30 3433 C 326.049 -3.81789 3.26408 0
M  V30 3434 C 328.043 -3.67982 5.2045 0
M  V30 3435 C 325.73 -4.01772 4.60459 0
M  V30 3436 C 326.728 -3.94866 5.57288 0
M  V30 3437 O 326.416 -4.14306 6.88916 0
M  V30 3438 H 326.148 -0.583136 0.341948 0
M  V30 3439 H 328.702 -1.35351 1.54497 0
M  V30 3440 H 326.932 -3.78887 0.773394 0
M  V30 3441 H 328.621 -3.88324 1.1815 0
M  V30 3442 H 329.387 -3.2647 3.58667 0
M  V30 3443 H 325.266 -3.86276 2.51619 0
M  V30 3444 H 328.81 -3.62507 5.96015 0
M  V30 3445 H 324.707 -4.2244 4.88072 0
M  V30 3446 H 325.475 -4.31609 6.95454 0
M  V30 3447 N 328.138 -0.959301 -1.25041 0
M  V30 3448 C 329.385 -0.616611 -1.92884 0
M  V30 3449 C 329.713 0.847036 -1.75087 0
M  V30 3450 O 328.968 1.62374 -1.09239 0
M  V30 3451 C 329.267 -0.927136 -3.45165 0
M  V30 3452 C 328.933 -2.37757 -3.83122 0
M  V30 3453 C 327.595 -2.77402 -3.93194 0
M  V30 3454 C 329.947 -3.31929 -4.01836 0
M  V30 3455 C 327.275 -4.10277 -4.19392 0
M  V30 3456 C 329.627 -4.64423 -4.29528 0
M  V30 3457 C 328.291 -5.03857 -4.37818 0
M  V30 3458 H 327.561 -0.225634 -0.705812 0
M  V30 3459 H 330.208 -1.20921 -1.48493 0
M  V30 3460 H 328.513 -0.252195 -3.90987 0
M  V30 3461 H 330.21 -0.6405 -3.95852 0
M  V30 3462 H 326.8 -2.06013 -3.75841 0
M  V30 3463 H 330.984 -3.02488 -3.93465 0
M  V30 3464 H 326.24 -4.40467 -4.24027 0
M  V30 3465 H 330.414 -5.37369 -4.42953 0
M  V30 3466 H 328.041 -6.06843 -4.57871 0
M  V30 3467 N 329.616 1.39756 -0.72842 0
M  V30 3468 C 330.893 1.94574 -0.200079 0
M  V30 3469 C 331.273 1.66569 1.29684 0
M  V30 3470 O 330.621 0.990326 2.05924 0
M  V30 3471 C 330.831 3.45004 -0.526608 0
M  V30 3472 C 332.179 4.21965 -0.472318 0
M  V30 3473 O 333.203 3.53173 -0.463413 0
M  V30 3474 O 332.062 5.44552 -0.461075 0
M  V30 3475 H 329.156 0.826289 -0.0342851 0
M  V30 3476 H 331.702 1.49293 -0.806829 0
M  V30 3477 H 330.474 3.58796 -1.56144 0
M  V30 3478 H 330.097 3.97449 0.109449 0
M  V30 3479 N 331.094 0.475555 1.50254 0
M  V30 3480 C 332.343 -0.0795996 2.01543 0
M  V30 3481 C 332.656 -1.4038 1.36209 0
M  V30 3482 O 333.862 -2.04415 1.7868 0
M  V30 3483 C 332.318 -0.192363 3.59386 0
M  V30 3484 C 331.926 1.12367 4.33679 0
M  V30 3485 C 333.67 -0.699238 4.18701 0
M  V30 3486 C 331.577 0.974453 5.83317 0
M  V30 3487 H 330.507 -0.0335228 0.753254 0
M  V30 3488 H 333.158 0.611128 1.73025 0
M  V30 3489 H 331.54 -0.946974 3.84511 0
M  V30 3490 H 332.714 1.88958 4.20276 0
M  V30 3491 H 331.029 1.562 3.85993 0
M  V30 3492 H 333.626 -0.827978 5.28251 0
M  V30 3493 H 333.969 -1.69171 3.80377 0
M  V30 3494 H 334.502 -0.00188807 3.978 0
M  V30 3495 H 331.241 1.94042 6.26121 0
M  V30 3496 H 330.761 0.248998 5.99283 0
M  V30 3497 H 332.44 0.642867 6.43798 0
M  V30 3498 N 332.573 -1.56217 0.208337 0
M  V30 3499 C 333.536 -2.18455 -0.693557 0
M  V30 3500 C 334.536 -1.14268 -1.13135 0
M  V30 3501 O 335.726 -1.39577 -1.0423 0
M  V30 3502 C 332.858 -2.79727 -1.94848 0
M  V30 3503 H 334.051 -2.99519 -0.15114 0
M  V30 3504 H 331.604 -1.56245 -0.041287 0
M  V30 3505 H 332.339 -2.02497 -2.53309 0
M  V30 3506 H 332.124 -3.56009 -1.64316 0
M  V30 3507 H 333.614 -3.27475 -2.59133 0
M  V30 3508 N 334.051 0.0651679 -1.57465 0
M  V30 3509 C 335.001 1.0838 -2.00594 0
M  V30 3510 C 335.985 1.34106 -0.889071 0
M  V30 3511 O 337.177 1.34295 -1.15299 0
M  V30 3512 C 334.306 2.39565 -2.45894 0
M  V30 3513 C 333.392 2.17085 -3.64328 0
M  V30 3514 N 333.783 1.64553 -4.78285 0
M  V30 3515 C 332.081 2.4753 -3.71006 0
M  V30 3516 C 332.782 1.57042 -5.60101 0
M  V30 3517 N 331.758 2.03328 -5.04141 0
M  V30 3518 H 335.56 0.671062 -2.86136 0
M  V30 3519 H 333.074 0.27213 -1.60104 0
M  V30 3520 H 335.071 3.13308 -2.75034 0
M  V30 3521 H 333.731 2.81549 -1.61741 0
M  V30 3522 H 334.742 1.33323 -5.00445 0
M  V30 3523 H 331.419 2.92835 -2.9758 0
M  V30 3524 H 332.809 1.17223 -6.61595 0
M  V30 3525 N 335.529 1.53961 0.336706 0
M  V30 3526 C 336.757 1.75483 1.09605 0
M  V30 3527 C 337.172 0.4972 1.82136 0
M  V30 3528 O 336.529 -0.53149 1.74589 0
M  V30 3529 C 336.58 2.93943 2.10428 0
M  V30 3530 O 336.301 4.14842 1.40846 0
M  V30 3531 C 337.802 3.27571 2.98684 0
M  V30 3532 H 335.022 0.586166 0.326574 0
M  V30 3533 H 337.566 2.00808 0.38683 0
M  V30 3534 H 335.721 2.70929 2.76905 0
M  V30 3535 H 336.135 4.81383 2.08255 0
M  V30 3536 H 337.609 4.13791 3.6535 0
M  V30 3537 H 338.086 2.44168 3.65074 0
M  V30 3538 H 338.692 3.52615 2.37787 0
M  V30 3539 N 337.007 -0.598083 1.45811 0
M  V30 3540 C 338.418 -1.18011 1.44673 0
M  V30 3541 C 338.769 -1.95378 0.179364 0
M  V30 3542 O 337.894 -2.04124 -0.718509 0
M  V30 3543 C 338.489 -2.14677 2.62105 0
M  V30 3544 C 337.048 -2.68236 2.64057 0
M  V30 3545 C 336.195 -1.43816 2.37091 0
M  V30 3546 H 339.146 -0.38686 1.53913 0
M  V30 3547 H 339.167 -2.97878 2.36746 0
M  V30 3548 H 338.679 -1.5834 3.5433 0
M  V30 3549 H 336.78 -3.28486 1.75864 0
M  V30 3550 H 336.893 -3.12021 3.63566 0
M  V30 3551 H 335.257 -1.731 1.86838 0
M  V30 3552 H 336.04 -0.893333 3.31473 0
M  V30 3553 N 338.485 -1.33259 -0.841409 0
M  V30 3554 C 339.395 -1.25332 -1.98316 0
M  V30 3555 C 340.411 -0.164364 -1.73222 0
M  V30 3556 O 341.587 -0.387486 -1.97637 0
M  V30 3557 C 338.652 -0.990078 -3.32262 0
M  V30 3558 C 337.713 -2.16879 -3.70489 0
M  V30 3559 C 336.946 -1.91801 -4.98044 0
M  V30 3560 O 337.169 -0.867075 -5.63771 0
M  V30 3561 O 336.103 -2.78267 -5.33714 0
M  V30 3562 H 339.929 -2.21344 -2.07944 0
M  V30 3563 H 337.514 -1.1328 -0.974058 0
M  V30 3564 H 339.396 -0.860321 -4.12524 0
M  V30 3565 H 338.071 -0.0602155 -3.23644 0
M  V30 3566 H 336.978 -2.35407 -2.90748 0
M  V30 3567 H 338.311 -3.0819 -3.8377 0
M  V30 3568 N 339.963 1.05934 -1.16686 0
M  V30 3569 C 340.926 2.11669 -0.879144 0
M  V30 3570 C 341.926 1.60294 0.127445 0
M  V30 3571 O 343.116 1.7389 -0.103865 0
M  V30 3572 C 340.248 3.39438 -0.315425 0
M  V30 3573 H 341.441 2.38626 -1.81653 0
M  V30 3574 H 338.994 1.22058 -0.976299 0
M  V30 3575 H 339.729 3.18132 0.629468 0
M  V30 3576 H 339.514 3.78034 -1.04079 0
M  V30 3577 H 341.004 4.17391 -0.132189 0
M  V30 3578 N 341.441 0.965919 1.2453 0
M  V30 3579 C 342.852 0.665929 1.7442 0
M  V30 3580 C 343.203 -0.818407 1.78316 0
M  V30 3581 O 342.328 -1.64037 1.41141 0
M  V30 3582 C 342.923 1.20211 3.16757 0
M  V30 3583 C 341.482 0.952059 3.6416 0
M  V30 3584 C 340.629 1.33848 2.42858 0
M  V30 3585 H 343.58 1.14144 1.10258 0
M  V30 3586 H 343.601 0.567544 3.76244 0
M  V30 3587 H 343.113 2.28244 3.13889 0
M  V30 3588 H 341.214 -0.112821 3.72429 0
M  V30 3589 H 341.327 1.59645 4.51719 0
M  V30 3590 H 339.691 0.756864 2.43195 0
M  V30 3591 H 340.474 2.42827 2.42673 0
M  V30 3592 N 342.919 -1.39368 0.735821 0
M  V30 3593 C 344.147 -2.04795 0.294393 0
M  V30 3594 C 344.562 -1.55478 -1.07107 0
M  V30 3595 O 343.919 -0.720038 -1.67695 0
M  V30 3596 C 343.97 -3.6035 0.288071 0
M  V30 3597 O 343.691 -4.07852 1.59963 0
M  V30 3598 C 345.192 -4.42976 -0.169422 0
M  V30 3599 H 342.412 -0.658571 0.128551 0
M  V30 3600 H 344.956 -1.78399 0.999701 0
M  V30 3601 H 343.111 -3.85645 -0.368355 0
M  V30 3602 H 343.525 -5.02181 1.51375 0
M  V30 3603 H 344.999 -5.51864 -0.122687 0
M  V30 3604 H 345.476 -4.22068 -1.21472 0
M  V30 3605 H 346.082 -4.22832 0.457469 0
M  V30 3606 N 344.397 -0.483516 -1.5 0
M  V30 3607 C 345.329 0.340634 -2.26655 0
M  V30 3608 C 346.342 0.946152 -1.32483 0
M  V30 3609 O 347.531 0.832453 -1.579 0
M  V30 3610 C 344.631 1.4929 -3.04246 0
M  V30 3611 C 343.804 0.997903 -4.25865 0
M  V30 3612 C 342.863 2.02569 -4.85646 0
M  V30 3613 O 341.889 1.60128 -5.46212 0
M  V30 3614 N 343.091 3.3548 -4.73744 0
M  V30 3615 H 345.856 -0.316577 -2.98023 0
M  V30 3616 H 343.417 -0.315024 -1.58806 0
M  V30 3617 H 345.409 2.17766 -3.41116 0
M  V30 3618 H 343.979 2.05458 -2.35597 0
M  V30 3619 H 343.199 0.138617 -3.93956 0
M  V30 3620 H 344.487 0.645305 -5.04691 0
M  V30 3621 H 343.885 3.72661 -4.25605 0
M  V30 3622 H 342.442 3.99718 -5.14848 0
M  V30 3623 N 345.875 1.56104 -0.216619 0
M  V30 3624 C 347.286 1.844 0.292128 0
M  V30 3625 C 347.637 1.13788 1.59833 0
M  V30 3626 O 346.762 0.405888 2.12559 0
M  V30 3627 C 347.357 3.3452 0.53681 0
M  V30 3628 C 345.916 3.63151 0.989876 0
M  V30 3629 C 345.063 2.77255 0.0502302 0
M  V30 3630 H 348.014 1.52481 -0.439926 0
M  V30 3631 H 348.035 3.54459 1.38345 0
M  V30 3632 H 347.547 3.85885 -0.414031 0
M  V30 3633 H 345.648 3.17238 1.95425 0
M  V30 3634 H 345.761 4.71177 0.867698 0
M  V30 3635 H 344.125 2.48555 0.556117 0
M  V30 3636 H 344.908 3.31416 -0.89544 0
M  V30 3637 N 347.353 -0.0568162 1.57498 0
M  V30 3638 C 348.303 -1.07315 2.01166 0
M  V30 3639 C 349.287 -1.33632 0.896171 0
M  V30 3640 O 350.479 -1.33682 1.16009 0
M  V30 3641 C 347.608 -2.38257 2.47161 0
M  V30 3642 C 346.694 -2.1515 3.65474 0
M  V30 3643 N 347.085 -1.62014 4.7915 0
M  V30 3644 C 345.383 -2.45559 3.72313 0
M  V30 3645 C 346.084 -1.54069 5.60926 0
M  V30 3646 N 345.06 -2.00652 5.05213 0
M  V30 3647 H 348.862 -0.655878 2.86488 0
M  V30 3648 H 346.376 -0.263635 1.60246 0
M  V30 3649 H 348.373 -3.11845 2.76691 0
M  V30 3650 H 347.033 -2.80687 1.63232 0
M  V30 3651 H 348.044 -1.30667 5.01145 0
M  V30 3652 H 344.721 -2.91253 2.99129 0
M  V30 3653 H 346.111 -1.13712 6.62208 0
M  V30 3654 N 348.832 -1.54138 -0.328536 0
M  V30 3655 C 349.742 -1.86192 -1.42723 0
M  V30 3656 C 350.758 -0.753382 -1.56844 0
M  V30 3657 O 351.934 -1.04718 -1.72035 0
M  V30 3658 C 348.999 -2.07824 -2.77507 0
M  V30 3659 C 348.06 -3.31641 -2.72603 0
M  V30 3660 C 347.293 -3.52232 -4.00959 0
M  V30 3661 O 347.516 -2.7636 -4.9898 0
M  V30 3662 O 346.45 -4.45699 -4.0452 0
M  V30 3663 H 350.276 -2.79608 -1.18547 0
M  V30 3664 H 347.861 -1.3998 -0.522104 0
M  V30 3665 H 349.743 -2.23411 -3.57303 0
M  V30 3666 H 348.418 -1.17596 -3.01584 0
M  V30 3667 H 347.325 -3.21444 -1.91376 0
M  V30 3668 H 348.658 -4.2191 -2.53481 0
M  V30 3669 N 350.31 0.590341 -1.46126 0
M  V30 3670 C 351.557 1.34882 -1.5104 0
M  V30 3671 C 351.885 1.93849 -0.159021 0
M  V30 3672 O 351.14 1.76544 0.844436 0
M  V30 3673 C 351.439 2.5032 -2.55097 0
M  V30 3674 C 351.105 2.09394 -3.99331 0
M  V30 3675 C 349.767 1.97947 -4.38601 0
M  V30 3676 C 352.119 1.77712 -4.89967 0
M  V30 3677 C 349.447 1.53065 -5.66381 0
M  V30 3678 C 351.799 1.34312 -6.18177 0
M  V30 3679 C 350.463 1.21436 -6.56361 0
M  V30 3680 H 349.733 0.493568 -0.552695 0
M  V30 3681 H 352.38 0.665539 -1.79563 0
M  V30 3682 H 350.685 3.24062 -2.20207 0
M  V30 3683 H 352.382 3.08541 -2.56132 0
M  V30 3684 H 348.972 2.19235 -3.68285 0
M  V30 3685 H 353.156 1.85445 -4.60352 0
M  V30 3686 H 348.412 1.41733 -5.94745 0
M  V30 3687 H 352.586 1.08849 -6.87841 0
M  V30 3688 H 350.213 0.864345 -7.5527 0
M  V30 3689 N 351.788 1.33704 0.83433 0
M  V30 3690 C 353.018 1.28281 1.6195 0
M  V30 3691 C 353.426 -0.147603 1.88623 0
M  V30 3692 O 352.769 -1.1016 1.47005 0
M  V30 3693 C 352.831 1.99386 2.99141 0
M  V30 3694 C 352.495 3.48681 2.95416 0
M  V30 3695 C 353.492 4.438 2.70809 0
M  V30 3696 C 351.177 3.90925 3.15409 0
M  V30 3697 C 353.171 5.79138 2.66229 0
M  V30 3698 C 350.858 5.26366 3.10454 0
M  V30 3699 C 351.856 6.20284 2.85895 0
M  V30 3700 O 351.544 7.53245 2.80852 0
M  V30 3701 H 351.276 0.44315 0.510484 0
M  V30 3702 H 353.83 1.76711 1.04702 0
M  V30 3703 H 352.06 1.45554 3.58261 0
M  V30 3704 H 353.749 1.87403 3.60049 0
M  V30 3705 H 354.515 4.12485 2.5511 0
M  V30 3706 H 350.394 3.18229 3.33543 0
M  V30 3707 H 353.938 6.52416 2.4698 0
M  V30 3708 H 349.835 5.57304 3.25703 0
M  V30 3709 H 350.603 7.62846 2.96661 0
M  V30 3710 N 353.266 -1.05314 1.17247 0
M  V30 3711 C 354.494 -1.81971 0.984593 0
M  V30 3712 C 354.909 -1.82929 -0.467166 0
M  V30 3713 O 354.266 -1.25564 -1.32438 0
M  V30 3714 C 354.317 -3.28143 1.51672 0
M  V30 3715 O 354.038 -3.27347 2.91163 0
M  V30 3716 C 355.539 -4.21493 1.37326 0
M  V30 3717 H 352.759 -0.573455 0.348411 0
M  V30 3718 H 355.303 -1.32808 1.55506 0
M  V30 3719 H 353.458 -3.74582 0.988302 0
M  V30 3720 H 353.872 -4.18824 3.15732 0
M  V30 3721 H 355.346 -5.22043 1.79375 0
M  V30 3722 H 355.823 -4.38031 0.320169 0
M  V30 3723 H 356.429 -3.80909 1.89178 0
M  V30 3724 N 354.744 -0.972509 -1.24016 0
M  V30 3725 C 355.972 -0.654803 -1.96265 0
M  V30 3726 C 356.387 0.776708 -1.72083 0
M  V30 3727 O 355.744 1.52171 -1.00748 0
M  V30 3728 C 355.795 -0.92592 -3.49441 0
M  V30 3729 O 355.516 -2.30116 -3.72798 0
M  V30 3730 C 357.017 -0.623068 -4.38899 0
M  V30 3731 H 354.237 -0.243907 -0.6251 0
M  V30 3732 H 356.781 -1.30175 -1.57717 0
M  V30 3733 H 354.936 -0.325108 -3.86033 0
M  V30 3734 H 355.35 -2.38483 -4.67147 0
M  V30 3735 H 356.824 -0.863189 -5.45209 0
M  V30 3736 H 357.301 0.442754 -4.36963 0
M  V30 3737 H 357.907 -1.204 -4.07902 0
M  V30 3738 N 356.222 1.38976 -0.743202 0
M  V30 3739 C 357.47 1.99948 -0.29417 0
M  V30 3740 C 357.791 1.59279 1.12495 0
M  V30 3741 O 357.061 0.844808 1.76748 0
M  V30 3742 H 355.641 0.739473 -0.105774 0
M  V30 3743 H 358.303 1.699 -0.954986 0
M  V30 3744 H 357.399 3.10142 -0.349056 0
M  V30 3745 N 357.7 0.491464 1.49741 0
M  V30 3746 C 358.925 -0.0557177 2.07325 0
M  V30 3747 C 359.35 -1.30925 1.35056 0
M  V30 3748 O 358.708 -1.76733 0.404365 0
M  V30 3749 C 358.756 -0.302074 3.59333 0
M  V30 3750 O 357.86 -1.37868 3.88672 0
M  V30 3751 H 357.201 0.0219956 0.663636 0
M  V30 3752 H 359.731 0.688352 1.92673 0
M  V30 3753 H 359.741 -0.536464 4.04458 0
M  V30 3754 H 358.416 0.61383 4.11345 0
M  V30 3755 H 356.993 -1.12999 3.55367 0
M  V30 3756 N 359.178 -1.55987 0.224894 0
M  V30 3757 C 360.141 -2.19178 -0.670348 0
M  V30 3758 C 361.141 -1.15461 -1.11917 0
M  V30 3759 O 362.331 -1.40675 -1.02743 0
M  V30 3760 C 359.463 -2.81777 -1.9187 0
M  V30 3761 H 360.656 -2.99662 -0.119364 0
M  V30 3762 H 358.209 -1.5628 -0.0247128 0
M  V30 3763 H 358.944 -2.05172 -2.51147 0
M  V30 3764 H 358.729 -3.57732 -1.60531 0
M  V30 3765 H 360.219 -3.30205 -2.55645 0
M  V30 3766 N 360.656 0.0484629 -1.57525 0
M  V30 3767 C 361.603 1.05504 -2.05275 0
M  V30 3768 C 362.573 1.37084 -0.937927 0
M  V30 3769 O 363.758 1.47754 -1.2072 0
M  V30 3770 C 360.898 2.35676 -2.52093 0
M  V30 3771 C 360.011 2.10423 -3.77288 0
M  V30 3772 C 359.146 3.34327 -4.12794 0
M  V30 3773 C 358.185 3.04542 -5.30962 0
M  V30 3774 N 357.322 4.20841 -5.61994 0
M  V30 3775 H 362.162 0.640885 -2.91027 0
M  V30 3776 H 359.699 0.304854 -1.43906 0
M  V30 3777 H 361.657 3.11709 -2.77297 0
M  V30 3778 H 360.287 2.7485 -1.69285 0
M  V30 3779 H 359.339 1.24976 -3.59284 0
M  V30 3780 H 360.651 1.84438 -4.63448 0
M  V30 3781 H 359.805 4.1874 -4.39024 0
M  V30 3782 H 358.544 3.63408 -3.25247 0
M  V30 3783 H 357.549 2.18528 -5.04505 0
M  V30 3784 H 358.774 2.76758 -6.20146 0
M  V30 3785 H 356.72 4.4991 -4.77406 0
M  V30 3786 H 356.637 3.98212 -6.42622 0
M  V30 3787 H 357.905 5.06184 -5.92789 0
M  V30 3788 N 362.134 1.5431 0.320358 0
M  V30 3789 C 363.067 1.78769 1.41834 0
M  V30 3790 C 364.045 0.63783 1.49568 0
M  V30 3791 O 365.229 0.875628 1.66928 0
M  V30 3792 C 362.356 1.90712 2.79905 0
M  V30 3793 C 361.402 3.13023 2.89687 0
M  V30 3794 S 362.235 4.71554 2.53766 0
M  V30 3795 C 363.391 4.86408 3.93902 0
M  V30 3796 H 363.624 2.71619 1.20874 0
M  V30 3797 H 361.157 1.45474 0.517377 0
M  V30 3798 H 363.115 1.98279 3.59438 0
M  V30 3799 H 361.776 0.988343 2.98145 0
M  V30 3800 H 360.969 3.18124 3.90913 0
M  V30 3801 H 360.571 3.03803 2.18128 0
M  V30 3802 H 362.863 4.69241 4.88691 0
M  V30 3803 H 363.806 5.88508 3.93782 0
M  V30 3804 H 364.214 4.14689 3.83005 0
M  V30 3805 N 363.613 -0.582584 1.46437 0
M  V30 3806 C 364.86 -1.34079 1.51753 0
M  V30 3807 C 365.188 -1.93762 0.169299 0
M  V30 3808 O 364.443 -1.76989 -0.835062 0
M  V30 3809 C 364.742 -2.48964 2.56421 0
M  V30 3810 C 364.408 -2.07273 4.00436 0
M  V30 3811 C 363.07 -1.95618 4.39644 0
M  V30 3812 C 365.422 -1.75111 4.90903 0
M  V30 3813 C 362.75 -1.5006 5.67185 0
M  V30 3814 C 365.102 -1.31032 6.18881 0
M  V30 3815 C 363.766 -1.17954 6.56996 0
M  V30 3816 H 363.036 -0.49063 0.555304 0
M  V30 3817 H 365.683 -0.656007 1.79913 0
M  V30 3818 H 363.988 -3.22889 2.21923 0
M  V30 3819 H 365.685 -3.07178 2.57765 0
M  V30 3820 H 362.275 -2.17279 3.69443 0
M  V30 3821 H 366.459 -1.83001 4.61329 0
M  V30 3822 H 361.715 -1.38577 5.95488 0
M  V30 3823 H 365.889 -1.052 6.88408 0
M  V30 3824 H 363.516 -0.824279 7.55718 0
M  V30 3825 N 365.091 -1.34144 -0.827227 0
M  V30 3826 C 366.001 -1.27428 -1.96975 0
M  V30 3827 C 367.017 -0.182728 -1.73038 0
M  V30 3828 O 368.193 -0.408426 -1.97215 0
M  V30 3829 C 365.258 -1.02526 -3.31194 0
M  V30 3830 C 364.319 -2.20796 -3.68168 0
M  V30 3831 C 363.552 -1.97073 -4.95982 0
M  V30 3832 O 363.775 -0.926822 -5.6282 0
M  V30 3833 O 362.709 -2.83912 -5.30733 0
M  V30 3834 H 366.535 -2.23537 -2.05584 0
M  V30 3835 H 364.12 -1.14307 -0.961989 0
M  V30 3836 H 366.002 -0.904026 -4.11589 0
M  V30 3837 H 364.677 -0.0945389 -3.23562 0
M  V30 3838 H 363.584 -2.38477 -2.88235 0
M  V30 3839 H 364.917 -3.12243 -3.8048 0
M  V30 3840 N 366.569 1.04691 -1.17803 0
M  V30 3841 C 367.479 2.16057 -0.914151 0
M  V30 3842 C 368.495 1.73589 0.119503 0
M  V30 3843 O 369.671 2.01308 -0.0609468 0
M  V30 3844 C 366.736 3.4394 -0.436603 0
M  V30 3845 C 365.797 4.00825 -1.53746 0
M  V30 3846 C 365.03 5.22604 -1.0826 0
M  V30 3847 O 365.253 5.70367 0.0612244 0
M  V30 3848 O 364.187 5.7186 -1.87775 0
M  V30 3849 H 368.013 2.41169 -1.84584 0
M  V30 3850 H 365.598 1.1453 -0.959334 0
M  V30 3851 H 367.48 4.21024 -0.178057 0
M  V30 3852 H 366.155 3.20316 0.466869 0
M  V30 3853 H 365.062 3.25158 -1.84995 0
M  V30 3854 H 366.395 4.28778 -2.41683 0
M  V30 3855 N 368.047 0.979072 1.23499 0
M  V30 3856 C 369.296 0.642751 1.91185 0
M  V30 3857 C 369.609 -0.827253 1.77245 0
M  V30 3858 O 370.815 -1.27458 2.39722 0
M  V30 3859 C 369.271 1.09901 3.42709 0
M  V30 3860 C 368.879 2.59327 3.65313 0
M  V30 3861 C 370.623 0.836371 4.16179 0
M  V30 3862 C 368.53 2.98627 5.10467 0
M  V30 3863 H 367.46 0.236698 0.715884 0
M  V30 3864 H 370.111 1.1868 1.39955 0
M  V30 3865 H 368.493 0.48319 3.93041 0
M  V30 3866 H 369.667 3.26136 3.25533 0
M  V30 3867 H 367.982 2.83323 3.05151 0
M  V30 3868 H 370.579 1.10586 5.23139 0
M  V30 3869 H 370.922 -0.227509 4.15678 0
M  V30 3870 H 371.455 1.41371 3.71832 0
M  V30 3871 H 368.194 4.04133 5.16098 0
M  V30 3872 H 367.714 2.3651 5.51201 0
M  V30 3873 H 369.393 2.89159 5.78788 0
M  V30 3874 N 369.525 -1.3858 0.750561 0
M  V30 3875 C 370.488 -2.28836 0.129152 0
M  V30 3876 C 371.488 -1.47045 -0.650714 0
M  V30 3877 O 372.678 -1.6753 -0.477428 0
M  V30 3878 C 369.81 -3.30751 -0.825622 0
M  V30 3879 H 371.003 -2.85294 0.924516 0
M  V30 3880 H 368.556 -1.47489 0.517376 0
M  V30 3881 H 369.291 -2.79378 -1.64677 0
M  V30 3882 H 369.076 -3.91177 -0.268852 0
M  V30 3883 H 370.566 -3.98249 -1.2565 0
M  V30 3884 N 371.003 -0.499398 -1.49478 0
M  V30 3885 C 372.228 0.044722 -2.07352 0
M  V30 3886 C 372.653 1.30207 -1.35749 0
M  V30 3887 O 372.011 1.76516 -0.413732 0
M  V30 3888 C 372.059 0.283013 -3.59488 0
M  V30 3889 O 371.163 1.35804 -3.89398 0
M  V30 3890 H 370.504 -0.0255147 -0.66351 0
M  V30 3891 H 373.034 -0.698561 -1.92305 0
M  V30 3892 H 373.044 0.515007 -4.04737 0
M  V30 3893 H 371.719 -0.635636 -4.11014 0
M  V30 3894 H 370.296 1.11113 -3.55961 0
M  V30 3895 N 372.481 1.55866 -0.233164 0
M  V30 3896 C 373.706 2.03449 0.402906 0
M  V30 3897 C 374.131 1.11166 1.51736 0
M  V30 3898 O 373.489 0.101996 1.81013 0
M  V30 3899 C 373.537 3.49165 0.9009 0
M  V30 3900 O 372.641 3.60019 2.01147 0
M  V30 3901 H 371.982 0.657913 0.0897025 0
M  V30 3902 H 374.512 2.01493 -0.355201 0
M  V30 3903 H 374.522 3.89716 1.2077 0
M  V30 3904 H 373.197 4.15813 0.0852889 0
M  V30 3905 H 371.774 3.3136 1.71042 0
M  V30 3906 N 373.959 -0.0401083 1.57549 0
M  V30 3907 C 375.205 -0.728793 1.89895 0
M  V30 3908 C 375.56 -1.73551 0.830535 0
M  V30 3909 O 374.853 -1.90914 -0.162007 0
M  V30 3910 C 375.047 -1.44902 3.26708 0
M  V30 3911 C 374.876 -0.513568 4.46758 0
M  V30 3912 C 373.646 -0.138698 5.0511 0
M  V30 3913 C 375.844 0.203341 5.13898 0
M  V30 3914 N 373.826 0.799159 6.08676 0
M  V30 3915 C 375.197 0.997246 6.11927 0
M  V30 3916 C 377.252 0.271459 4.97159 0
M  V30 3917 C 375.955 1.85299 6.95023 0
M  V30 3918 C 377.981 1.11429 5.80808 0
M  V30 3919 C 377.343 1.89615 6.78399 0
M  V30 3920 H 373.442 -0.241125 0.743897 0
M  V30 3921 H 376.026 0.0108016 1.94697 0
M  V30 3922 H 374.197 -2.15914 3.22856 0
M  V30 3923 H 375.929 -2.08921 3.46603 0
M  V30 3924 H 372.684 -0.498496 4.70969 0
M  V30 3925 H 373.108 1.26227 6.65128 0
M  V30 3926 H 377.75 -0.318709 4.21597 0
M  V30 3927 H 375.468 2.454 7.69938 0
M  V30 3928 H 379.054 1.17038 5.69906 0
M  V30 3929 H 377.934 2.53779 7.42001 0
M  V30 3930 N 375.437 -1.54477 -0.31217 0
M  V30 3931 C 376.367 -1.87652 -1.38957 0
M  V30 3932 C 377.348 -0.734358 -1.53431 0
M  V30 3933 O 378.533 -0.98911 -1.67123 0
M  V30 3934 C 375.663 -2.11396 -2.75552 0
M  V30 3935 C 374.617 -3.27243 -2.75855 0
M  V30 3936 C 373.943 -3.36382 -4.15633 0
M  V30 3937 C 375.243 -4.64622 -2.38587 0
M  V30 3938 H 376.937 -2.77887 -1.11442 0
M  V30 3939 H 374.483 -1.33707 -0.534655 0
M  V30 3940 H 376.436 -2.33189 -3.51 0
M  V30 3941 H 375.16 -1.17921 -3.04569 0
M  V30 3942 H 373.819 -3.05356 -2.02863 0
M  V30 3943 H 373.467 -2.40445 -4.41809 0
M  V30 3944 H 373.167 -4.14249 -4.1674 0
M  V30 3945 H 374.691 -3.60422 -4.92877 0
M  V30 3946 H 376.105 -4.86219 -3.03749 0
M  V30 3947 H 374.502 -5.45121 -2.50925 0
M  V30 3948 H 375.572 -4.66097 -1.33723 0
M  V30 3949 N 376.915 0.57481 -1.46744 0
M  V30 3950 C 378.163 1.33009 -1.52161 0
M  V30 3951 C 378.484 1.94185 -0.178092 0
M  V30 3952 O 377.754 1.7899 0.796196 0
M  V30 3953 H 376.334 0.493873 -0.560445 0
M  V30 3954 H 378.996 0.672589 -1.82927 0
M  V30 3955 H 378.092 2.13273 -2.27862 0
M  V30 3956 N 378.394 1.34581 0.820102 0
M  V30 3957 C 379.643 1.26437 1.57151 0
M  V30 3958 C 379.956 -0.163111 1.94919 0
M  V30 3959 O 381.162 -0.366722 2.69012 0
M  V30 3960 C 379.618 2.21658 2.83541 0
M  V30 3961 C 379.226 3.69679 2.53065 0
M  V30 3962 C 380.97 2.22428 3.61561 0
M  V30 3963 C 378.877 4.56761 3.75664 0
M  V30 3964 H 377.807 0.469707 0.589823 0
M  V30 3965 H 380.458 1.59763 0.902656 0
M  V30 3966 H 378.84 1.81287 3.52067 0
M  V30 3967 H 380.014 4.18605 1.92631 0
M  V30 3968 H 378.329 3.71384 1.88316 0
M  V30 3969 H 380.926 2.8471 4.52597 0
M  V30 3970 H 381.269 1.22434 3.97889 0
M  V30 3971 H 381.802 2.61259 2.99981 0
M  V30 3972 H 378.541 5.57702 3.44454 0
M  V30 3973 H 378.061 4.12568 4.35371 0
M  V30 3974 H 379.74 4.71509 4.43044 0
M  V30 3975 N 379.872 -1.04064 1.18357 0
M  V30 3976 C 380.782 -2.15569 0.925596 0
M  V30 3977 C 381.798 -1.7365 -0.110295 0
M  V30 3978 O 382.974 -2.01273 0.0716218 0
M  V30 3979 C 380.039 -3.43704 0.454836 0
M  V30 3980 C 379.1 -4.00004 1.55869 0
M  V30 3981 C 378.333 -5.22023 1.1103 0
M  V30 3982 O 378.556 -5.70392 -0.0309756 0
M  V30 3983 O 377.49 -5.70856 1.90805 0
M  V30 3984 H 381.316 -2.40187 1.8586 0
M  V30 3985 H 378.901 -1.1402 0.965394 0
M  V30 3986 H 380.783 -4.20923 0.200382 0
M  V30 3987 H 379.458 -3.20559 -0.449876 0
M  V30 3988 H 378.365 -3.24172 1.86716 0
M  V30 3989 H 379.698 -4.2749 2.43953 0
M  V30 3990 N 381.35 -0.985608 -1.22978 0
M  V30 3991 C 382.298 -0.522631 -2.26652 0
M  V30 3992 C 383.292 0.422998 -1.64034 0
M  V30 3993 O 384.498 0.296319 -1.77544 0
M  V30 3994 H 380.873 -0.150597 -0.736766 0
M  V30 3995 H 382.844 -1.40863 -2.63059 0
M  V30 3996 C 381.593 0.154238 -3.47358 0
M  V30 3997 H 380.916 -0.564329 -3.95797 0
M  V30 3998 H 382.356 0.441744 -4.21693 0
M  V30 3999 C 380.815 1.38719 -3.07016 0
M  V30 4000 O 381.345 2.48307 -3.15764 0
M  V30 4001 N 379.551 1.25975 -2.61875 0
M  V30 4002 H 379.098 0.368068 -2.54957 0
M  V30 4003 H 379.056 2.08578 -2.3525 0
M  V30 4004 N 382.828 1.3818 -0.7579 0
M  V30 4005 C 383.758 2.33027 -0.148597 0
M  V30 4006 C 384.739 1.55085 0.69875 0
M  V30 4007 O 385.924 1.83384 0.639053 0
M  V30 4008 C 383.054 3.3928 0.742034 0
M  V30 4009 C 382.008 4.28 -0.00291946 0
M  V30 4010 C 381.334 5.25146 1.00625 0
M  V30 4011 C 382.634 5.08938 -1.17385 0
M  V30 4012 H 384.328 2.84231 -0.940909 0
M  V30 4013 H 381.874 1.36659 -0.453908 0
M  V30 4014 H 383.827 4.046 1.17799 0
M  V30 4015 H 382.551 2.86569 1.56671 0
M  V30 4016 H 381.21 3.64192 -0.419504 0
M  V30 4017 H 380.858 4.68721 1.8251 0
M  V30 4018 H 380.558 5.85361 0.512428 0
M  V30 4019 H 382.082 5.93342 1.44143 0
M  V30 4020 H 383.496 5.67474 -0.815224 0
M  V30 4021 H 381.893 5.7841 -1.59882 0
M  V30 4022 H 382.963 4.42424 -1.98468 0
M  V30 4023 N 384.306 0.507319 1.49211 0
M  V30 4024 C 385.253 -0.267728 2.29242 0
M  V30 4025 C 386.223 -0.954609 1.35928 0
M  V30 4026 O 387.408 -0.960046 1.64887 0
M  V30 4027 C 384.548 -1.32243 3.18756 0
M  V30 4028 C 383.661 -0.64669 4.27132 0
M  V30 4029 C 382.796 -1.68238 5.03855 0
M  V30 4030 C 381.835 -0.98885 6.0406 0
M  V30 4031 N 380.972 -1.96903 6.73924 0
M  V30 4032 H 385.812 0.420968 2.95012 0
M  V30 4033 H 383.349 0.219443 1.45454 0
M  V30 4034 H 385.307 -1.94599 3.69036 0
M  V30 4035 H 383.937 -1.97981 2.54958 0
M  V30 4036 H 382.989 0.0902926 3.80293 0
M  V30 4037 H 384.301 -0.101058 4.98698 0
M  V30 4038 H 383.455 -2.38081 5.58034 0
M  V30 4039 H 382.194 -2.26187 4.32077 0
M  V30 4040 H 381.199 -0.276222 5.49106 0
M  V30 4041 H 382.424 -0.415767 6.77826 0
M  V30 4042 H 380.37 -2.53803 6.04913 0
M  V30 4043 H 380.287 -1.47423 7.41487 0
M  V30 4044 H 381.555 -2.66015 7.32705 0
M  V30 4045 N 385.784 -1.5574 0.241426 0
M  V30 4046 C 386.747 -2.19877 -0.647063 0
M  V30 4047 C 387.747 -1.16642 -1.10686 0
M  V30 4048 O 388.937 -1.41757 -1.01245 0
M  V30 4049 C 386.069 -2.83797 -1.88871 0
M  V30 4050 H 387.262 -2.99772 -0.087574 0
M  V30 4051 H 384.815 -1.56298 -0.00813574 0
M  V30 4052 H 385.55 -2.07824 -2.48957 0
M  V30 4053 H 385.335 -3.59414 -1.56728 0
M  V30 4054 H 386.825 -3.32898 -2.52129 0
M  V30 4055 N 387.262 0.0317525 -1.57568 0
M  V30 4056 C 388.194 1.06073 -2.03178 0
M  V30 4057 C 389.207 1.32627 -0.944132 0
M  V30 4058 O 390.396 1.30162 -1.22148 0
M  V30 4059 C 387.496 2.40297 -2.38978 0
M  V30 4060 C 386.669 2.33137 -3.70089 0
M  V30 4061 C 385.728 3.49787 -3.9311 0
M  V30 4062 O 384.754 3.29403 -4.64201 0
M  V30 4063 N 385.956 4.71562 -3.38541 0
M  V30 4064 H 388.721 0.672006 -2.92069 0
M  V30 4065 H 386.282 0.219745 -1.60402 0
M  V30 4066 H 388.274 3.1705 -2.51518 0
M  V30 4067 H 386.844 2.71024 -1.55771 0
M  V30 4068 H 386.064 1.415 -3.67928 0
M  V30 4069 H 387.352 2.25493 -4.56104 0
M  V30 4070 H 386.75 4.91024 -2.80912 0
M  V30 4071 H 385.307 5.45689 -3.56464 0
M  V30 4072 N 388.74 1.54641 0.303973 0
M  V30 4073 C 389.672 1.81754 1.39636 0
M  V30 4074 C 390.685 0.70035 1.46966 0
M  V30 4075 O 391.874 0.97778 1.49338 0
M  V30 4076 C 388.974 1.93785 2.7803 0
M  V30 4077 C 388.147 3.24156 2.93669 0
M  V30 4078 C 387.206 3.26641 4.12544 0
M  V30 4079 O 386.232 4.00187 4.04771 0
M  V30 4080 N 387.434 2.5182 5.23036 0
M  V30 4081 H 390.199 2.76031 1.16734 0
M  V30 4082 H 387.76 1.54178 0.494033 0
M  V30 4083 H 389.752 1.92852 3.55795 0
M  V30 4084 H 388.322 1.06515 2.93893 0
M  V30 4085 H 387.542 3.37887 2.03042 0
M  V30 4086 H 388.83 4.10195 3.01027 0
M  V30 4087 H 388.228 1.91692 5.32232 0
M  V30 4088 H 386.785 2.56644 5.99147 0
M  V30 4089 N 390.218 -0.567019 1.47046 0
M  V30 4090 C 391.467 -1.32091 1.5243 0
M  V30 4091 C 391.78 -1.94704 0.187021 0
M  V30 4092 O 392.986 -2.7124 0.118771 0
M  V30 4093 C 391.442 -2.39479 2.68659 0
M  V30 4094 C 391.05 -1.831 4.08874 0
M  V30 4095 C 392.794 -3.16111 2.83327 0
M  V30 4096 C 390.701 -2.8821 5.16419 0
M  V30 4097 H 389.631 -0.496629 0.56734 0
M  V30 4098 H 392.282 -0.603354 1.73297 0
M  V30 4099 H 390.664 -3.14105 2.41152 0
M  V30 4100 H 391.838 -1.14913 4.46242 0
M  V30 4101 H 390.153 -1.19085 3.99008 0
M  V30 4102 H 392.75 -3.94585 3.60842 0
M  V30 4103 H 393.093 -3.69686 1.91411 0
M  V30 4104 H 393.626 -2.48595 3.10556 0
M  V30 4105 H 390.365 -2.39504 6.10179 0
M  V30 4106 H 389.885 -3.54839 4.8358 0
M  V30 4107 H 391.564 -3.51881 5.42945 0
M  V30 4108 N 391.696 -1.35014 -0.812953 0
M  V30 4109 C 392.646 -1.23959 -1.91359 0
M  V30 4110 C 393.63 -0.136306 -1.60322 0
M  V30 4111 O 394.822 -0.366925 -1.73155 0
M  V30 4112 C 391.951 -1.00736 -3.28188 0
M  V30 4113 C 391.037 -2.15426 -3.65311 0
M  V30 4114 N 391.428 -3.40612 -3.73921 0
M  V30 4115 C 389.726 -2.06672 -3.95225 0
M  V30 4116 C 390.427 -4.15994 -4.06601 0
M  V30 4117 N 389.403 -3.44685 -4.20349 0
M  V30 4118 H 393.205 -2.18815 -1.96208 0
M  V30 4119 H 390.719 -1.27395 -1.00718 0
M  V30 4120 H 392.716 -0.909052 -4.06868 0
M  V30 4121 H 391.376 -0.067586 -3.2463 0
M  V30 4122 H 392.387 -3.75043 -3.5716 0
M  V30 4123 H 389.064 -1.20511 -3.99729 0
M  V30 4124 H 390.454 -5.24145 -4.20382 0
M  V30 4125 N 393.175 1.03435 -1.18907 0
M  V30 4126 C 394.105 2.13503 -0.945448 0
M  V30 4127 C 395.086 1.69682 0.119189 0
M  V30 4128 O 396.271 1.94169 -0.034707 0
M  V30 4129 C 393.401 3.44004 -0.477316 0
M  V30 4130 C 392.355 4.0148 -1.48316 0
M  V30 4131 C 391.681 5.27537 -0.872311 0
M  V30 4132 C 392.981 4.36921 -2.86177 0
M  V30 4133 H 394.675 2.34141 -1.86597 0
M  V30 4134 H 392.221 1.12523 -0.898584 0
M  V30 4135 H 394.174 4.20372 -0.294204 0
M  V30 4136 H 392.898 3.23072 0.478786 0
M  V30 4137 H 391.557 3.27201 -1.65332 0
M  V30 4138 H 391.205 5.02917 0.0911752 0
M  V30 4139 H 390.905 5.66954 -1.54393 0
M  V30 4140 H 392.429 6.06576 -0.699871 0
M  V30 4141 H 393.843 5.04248 -2.72776 0
M  V30 4142 H 392.24 4.87405 -3.50081 0
M  V30 4143 H 393.31 3.46466 -3.39248 0
M  V30 4144 N 394.653 0.992116 1.22453 0
M  V30 4145 C 395.901 0.666215 1.90804 0
M  V30 4146 C 396.222 -0.804152 1.77647 0
M  V30 4147 O 395.492 -1.57629 1.16318 0
M  V30 4148 H 394.072 0.243423 0.706225 0
M  V30 4149 H 396.734 1.25845 1.48825 0
M  V30 4150 H 395.83 0.928069 2.97982 0
M  V30 4151 N 396.131 -1.37776 0.765217 0
M  V30 4152 C 397.379 -1.99454 0.325943 0
M  V30 4153 C 397.7 -1.61049 -1.09947 0
M  V30 4154 O 396.97 -0.872821 -1.75381 0
M  V30 4155 H 395.55 -0.737697 0.117525 0
M  V30 4156 H 398.212 -1.68359 0.981895 0
M  V30 4157 H 397.308 -3.09547 0.398353 0
M  V30 4158 N 397.609 -0.515225 -1.4894 0
M  V30 4159 C 398.557 0.269115 -2.31038 0
M  V30 4160 C 399.551 0.949443 -1.40292 0
M  V30 4161 O 400.757 0.87551 -1.57273 0
M  V30 4162 H 397.132 0.10565 -0.744542 0
M  V30 4163 H 399.103 -0.443096 -2.95092 0
M  V30 4164 C 397.852 1.31213 -3.21991 0
M  V30 4165 H 397.175 0.798034 -3.91754 0
M  V30 4166 H 398.615 1.83263 -3.82349 0
M  V30 4167 C 397.074 2.33791 -2.42576 0
M  V30 4168 O 397.604 3.3995 -2.14003 0
M  V30 4169 N 395.81 2.06625 -2.0434 0
M  V30 4170 H 395.357 1.20314 -2.27777 0
M  V30 4171 H 395.315 2.75483 -1.51514 0
M  V30 4172 N 399.087 1.5561 -0.249682 0
M  V30 4173 C 399.997 2.25143 0.659375 0
M  V30 4174 C 401.013 1.2685 1.19101 0
M  V30 4175 O 402.189 1.59732 1.22669 0
M  V30 4176 C 399.254 2.93945 1.8384 0
M  V30 4177 C 398.315 4.07655 1.34596 0
M  V30 4178 C 397.548 4.73167 2.46878 0
M  V30 4179 O 397.771 4.37768 3.65671 0
M  V30 4180 O 396.705 5.61623 2.16478 0
M  V30 4181 H 400.531 3.03545 0.0968698 0
M  V30 4182 H 398.116 1.49389 -0.018074 0
M  V30 4183 H 399.998 3.37271 2.52638 0
M  V30 4184 H 398.673 2.18481 2.38847 0
M  V30 4185 H 397.58 3.68839 0.625174 0
M  V30 4186 H 398.913 4.84946 0.841941 0
M  V30 4187 N 400.565 -0.0233959 1.57583 0
M  V30 4188 C 401.513 -1.04063 2.08023 0
M  V30 4189 C 402.507 -1.37084 0.995204 0
M  V30 4190 O 403.713 -1.35923 1.18004 0
M  V30 4191 H 400.088 -0.353144 0.663922 0
M  V30 4192 H 402.059 -0.589453 2.9252 0
M  V30 4193 C 400.808 -2.33123 2.57971 0
M  V30 4194 H 400.131 -2.08577 3.4108 0
M  V30 4195 H 401.571 -3.02632 2.96967 0
M  V30 4196 C 400.03 -3.02483 1.48342 0
M  V30 4197 O 400.56 -3.92541 0.852898 0
M  V30 4198 N 398.766 -2.63909 1.21658 0
M  V30 4199 H 398.313 -1.90758 1.73116 0
M  V30 4200 H 398.271 -3.10633 0.485218 0
M  V30 4201 N 402.043 -1.548 -0.295768 0
M  V30 4202 C 403.32 -1.65014 -1.05023 0
M  V30 4203 C 403.7 -0.501805 -2.05049 0
M  V30 4204 O 403.048 0.500869 -2.22943 0
M  V30 4205 C 403.258 -3.03252 -1.72741 0
M  V30 4206 C 404.606 -3.60242 -2.24746 0
M  V30 4207 O 405.63 -3.05737 -1.82765 0
M  V30 4208 O 404.489 -4.55687 -3.01681 0
M  V30 4209 H 401.583 -0.669314 -0.485744 0
M  V30 4210 H 404.129 -1.67144 -0.293438 0
M  V30 4211 H 402.901 -3.7827 -1.00138 0
M  V30 4212 H 402.524 -3.04922 -2.55163 0
M  V30 4213 O 403.56 0.441645 -1.55344 0
M  V30 4214 H 404.251 1.0953 -1.59759 0
M  V30 END ATOM
M  V30 BEGIN BOND
M  V30 END BOND
M  V30 END CTAB
M  END
$$$$
