drugbank_target|P31930 Cytochrome b-c1 complex subunit 1, mitochondrial (DB04141; DB04741; DB04799; DB07401; DB07763; DB07778; DB08330; DB08453; DB08690)
 OpenBabel12092119453D

  0  0  0     0  0            999 V3000
M  V30 BEGIN CTAB
M  V30 COUNTS 7344 7420 0 0 0
M  V30 BEGIN ATOM
M  V30 1 H -0.908 1.98254 -0.117106 0
M  V30 2 N 0 1.576 0 0
M  V30 3 C 0.933 2.03868 1.02534 0
M  V30 4 C 1.911 0.928543 1.3348 0
M  V30 5 O 3.095 1.19667 1.45644 0
M  V30 6 C 0.222 2.43627 2.35294 0
M  V30 7 C -0.732 3.65373 2.2001 0
M  V30 8 S 0.101 5.13292 1.52614 0
M  V30 9 C 1.257 5.56322 2.86805 0
M  V30 10 H 1.49 2.90518 0.631377 0
M  V30 11 H -0.977 1.52953 0.210867 0
M  V30 12 H 0.981 2.67203 3.11629 0
M  V30 13 H -0.358 1.57376 2.7183 0
M  V30 14 H -1.165 3.90944 3.18086 0
M  V30 15 H -1.563 3.418 1.51819 0
M  V30 16 H 0.729 5.58782 3.83104 0
M  V30 17 H 1.672 6.56266 2.65933 0
M  V30 18 H 2.08 4.83886 2.90714 0
M  V30 19 N 1.4781 -0.272755 1.55222 0
M  V30 20 C 2.4411 -1.32041 1.87344 0
M  V30 21 C 3.4411 -1.42342 0.74803 0
M  V30 22 O 4.6311 -1.41488 1.0162 0
M  V30 23 C 1.7631 -2.70173 2.07893 0
M  V30 24 H 2.9561 -1.04789 2.80997 0
M  V30 25 H 0.5091 -0.51083 1.47717 0
M  V30 26 H 1.2441 -3.02605 1.16622 0
M  V30 27 H 1.0291 -2.64082 2.89833 0
M  V30 28 H 2.5191 -3.45869 2.34017 0
M  V30 29 N 2.9562 -1.48159 -0.537278 0
M  V30 30 C 3.9192 -1.61665 -1.62472 0
M  V30 31 C 4.9192 -0.490395 -1.5314 0
M  V30 32 O 6.1092 -0.755998 -1.5694 0
M  V30 33 C 3.2412 -1.57997 -3.02076 0
M  V30 34 H 4.4342 -2.58621 -1.51839 0
M  V30 35 H 1.9872 -1.36647 -0.758771 0
M  V30 36 H 2.7222 -0.624913 -3.18222 0
M  V30 37 H 2.5072 -2.39755 -3.10258 0
M  V30 38 H 3.9972 -1.70627 -3.81151 0
M  V30 39 N 4.4343 0.785586 -1.36625 0
M  V30 40 C 5.6593 1.57963 -1.34397 0
M  V30 41 C 6.0843 1.87964 0.071526 0
M  V30 42 O 5.4423 1.48182 1.0446 0
M  V30 43 C 5.4903 2.87511 -2.17646 0
M  V30 44 O 4.5943 3.81281 -1.57158 0
M  V30 45 H 3.9353 0.479014 -0.459828 0
M  V30 46 H 6.4653 0.973411 -1.79961 0
M  V30 47 H 6.4753 3.36745 -2.30362 0
M  V30 48 H 5.1503 2.65002 -3.20541 0
M  V30 49 H 3.7273 3.39885 -1.53403 0
M  V30 50 N 5.9124 1.20967 1.01018 0
M  V30 51 C 7.1584 1.02526 1.74975 0
M  V30 52 C 7.4914 -0.4408 1.89131 0
M  V30 53 O 6.7664 -1.32718 1.42184 0
M  V30 54 C 7.0494 1.71699 3.1653 0
M  V30 55 C 6.9024 3.25791 3.10129 0
M  V30 56 C 8.2214 1.45531 4.15342 0
M  V30 57 H 5.3404 0.373863 0.635134 0
M  V30 58 H 7.9824 1.49071 1.17805 0
M  V30 59 H 6.1324 1.32128 3.65341 0
M  V30 60 H 7.8044 3.74697 2.69072 0
M  V30 61 H 6.0474 3.56363 2.47362 0
M  V30 62 H 6.7184 3.69353 4.10222 0
M  V30 63 H 9.1944 1.79872 3.75213 0
M  V30 64 H 8.0704 1.96453 5.1254 0
M  V30 65 H 8.3314 0.384237 4.40427 0
M  V30 66 N 7.3905 -1.2043 1.01659 0
M  V30 67 C 8.6365 -1.90079 0.706963 0
M  V30 68 C 8.9695 -1.78648 -0.761474 0
M  V30 69 O 8.2445 -1.17069 -1.55323 0
M  V30 70 C 8.5275 -3.41469 1.14327 0
M  V30 71 C 8.3805 -3.61833 2.67201 0
M  V30 72 C 9.6995 -4.34261 0.714529 0
M  V30 73 H 6.8185 -0.690254 0.2583 0
M  V30 74 H 9.4605 -1.41826 1.26433 0
M  V30 75 H 7.6105 -3.82696 0.669056 0
M  V30 76 H 9.2825 -3.2986 3.22475 0
M  V30 77 H 7.5255 -3.05304 3.08175 0
M  V30 78 H 8.1965 -4.67955 2.92783 0
M  V30 79 H 10.6725 -4.00682 1.12221 0
M  V30 80 H 9.5485 -5.38806 1.04784 0
M  V30 81 H 9.8095 -4.40431 -0.383799 0
M  V30 82 N 8.8686 -0.792821 -1.36206 0
M  V30 83 C 10.1086 -0.372238 -2.00982 0
M  V30 84 C 10.4726 1.03749 -1.61555 0
M  V30 85 O 11.6736 1.55934 -2.18948 0
M  V30 86 C 9.9446 -0.534566 -3.5338 0
M  V30 87 S 11.5036 -0.202365 -4.38333 0
M  V30 88 H 8.3216 -0.142044 -0.696667 0
M  V30 89 H 10.9236 -1.03206 -1.66039 0
M  V30 90 H 9.6276 -1.5608 -3.79562 0
M  V30 91 H 9.1586 0.141065 -3.93147 0
M  V30 92 H 11.1736 0.994869 -4.86124 0
M  V30 93 N 10.3467 1.47872 -0.545128 0
M  V30 94 C 11.7627 1.5829 -0.204032 0
M  V30 95 C 11.9627 1.54529 1.29317 0
M  V30 96 O 11.0187 1.44232 2.07252 0
M  V30 97 C 12.3317 2.89304 -0.819987 0
M  V30 98 C 13.8797 3.02864 -0.790105 0
M  V30 99 C 14.3547 4.3656 -1.38491 0
M  V30 100 N 15.8457 4.43165 -1.34755 0
M  V30 101 C 16.5807 5.45153 -1.77753 0
M  V30 102 N 16.0767 6.54016 -2.2855 0
M  V30 103 N 17.8697 5.36125 -1.68897 0
M  V30 104 H 10.0207 1.4856 -1.51802 0
M  V30 105 H 12.2837 0.706305 -0.632327 0
M  V30 106 H 11.9897 2.97757 -1.87173 0
M  V30 107 H 11.8637 3.75957 -0.305915 0
M  V30 108 H 14.2507 2.94014 0.252913 0
M  V30 109 H 14.3317 2.17782 -1.34181 0
M  V30 110 H 13.9757 4.46164 -2.42693 0
M  V30 111 H 13.9057 5.20353 -0.808754 0
M  V30 112 H 16.3967 3.65083 -0.975855 0
M  V30 113 H 16.7097 7.27994 -2.59314 0
M  V30 114 H 15.0547 6.54938 -2.32553 0
M  V30 115 H 18.2457 4.49975 -1.28998 0
M  V30 116 H 18.4187 6.15472 -2.02726 0
M  V30 117 N 11.8248 0.280983 1.55075 0
M  V30 118 C 12.7878 -0.590896 2.21452 0
M  V30 119 C 13.7878 -1.07682 1.19421 0
M  V30 120 O 14.9778 -0.97605 1.44288 0
M  V30 121 C 12.1098 -1.81587 2.88511 0
M  V30 122 H 13.3028 -0.0112554 2.99898 0
M  V30 123 H 10.8558 0.0316438 1.56268 0
M  V30 124 H 11.5908 -2.43587 2.14093 0
M  V30 125 H 11.3758 -1.4753 3.63287 0
M  V30 126 H 12.8658 -2.43575 3.39206 0
M  V30 127 N 13.3029 -1.57598 0.00835791 0
M  V30 128 C 14.2659 -2.07884 -0.965242 0
M  V30 129 C 15.2659 -0.989825 -1.26725 0
M  V30 130 O 16.4559 -1.25218 -1.21104 0
M  V30 131 C 13.5879 -2.52731 -2.28779 0
M  V30 132 H 14.7809 -2.95178 -0.530112 0
M  V30 133 H 12.3339 -1.54458 -0.239283 0
M  V30 134 H 13.0689 -1.68705 -2.76964 0
M  V30 135 H 12.8539 -3.32272 -2.08177 0
M  V30 136 H 14.3439 -2.91933 -2.98605 0
M  V30 137 N 14.781 0.264519 -1.55364 0
M  V30 138 C 16.009 1.013 -1.80405 0
M  V30 139 C 16.424 1.79618 -0.581622 0
M  V30 140 O 15.781 1.76879 0.449468 0
M  V30 141 C 15.832 1.96487 -3.03439 0
M  V30 142 O 15.553 1.21341 -4.20961 0
M  V30 143 C 17.054 2.83079 -3.41147 0
M  V30 144 H 14.274 0.298875 -0.600762 0
M  V30 145 H 16.818 0.292736 -2.02394 0
M  V30 146 H 14.973 2.63965 -2.83551 0
M  V30 147 H 15.387 1.85573 -4.90574 0
M  V30 148 H 16.861 3.4565 -4.30384 0
M  V30 149 H 17.338 3.53286 -2.60932 0
M  V30 150 H 17.944 2.2108 -3.63323 0
M  V30 151 N 16.2591 1.48442 0.529413 0
M  V30 152 C 17.2221 1.62524 1.61612 0
M  V30 153 C 18.2221 0.498509 1.52877 0
M  V30 154 O 19.4121 0.76431 1.56537 0
M  V30 155 C 16.5441 1.59597 3.01233 0
M  V30 156 H 17.7371 2.59423 1.50465 0
M  V30 157 H 15.2901 1.37047 0.751514 0
M  V30 158 H 16.0251 0.641781 3.17886 0
M  V30 159 H 15.8101 2.41397 3.08982 0
M  V30 160 H 17.3001 1.72646 3.80241 0
M  V30 161 N 17.7372 -0.778329 1.37039 0
M  V30 162 C 18.9852 -1.53361 1.31623 0
M  V30 163 C 19.3062 -1.94739 -0.100831 0
M  V30 164 O 18.5762 -1.65797 -1.04347 0
M  V30 165 H 17.1562 -0.568794 0.484234 0
M  V30 166 H 19.8182 -0.926742 1.71457 0
M  V30 167 H 18.9142 -2.43606 1.95096 0
M  V30 168 N 19.2153 -1.21501 -1.00376 0
M  V30 169 C 20.1783 -0.976927 -2.07337 0
M  V30 170 C 21.1783 0.0525322 -1.60714 0
M  V30 171 O 22.3683 -0.184869 -1.73216 0
M  V30 172 C 19.5003 -0.473423 -3.37597 0
M  V30 173 H 20.6933 -1.92587 -2.29892 0
M  V30 174 H 18.2463 -1.03217 -1.17371 0
M  V30 175 H 18.9813 0.480379 -3.20722 0
M  V30 176 H 18.7663 -1.216 -3.72768 0
M  V30 177 H 20.2563 -0.32675 -4.1632 0
M  V30 178 N 20.6934 1.19889 -1.02296 0
M  V30 179 C 21.6254 2.22334 -0.556787 0
M  V30 180 C 22.6384 1.58674 0.364199 0
M  V30 181 O 23.8274 1.77768 0.161533 0
M  V30 182 C 20.9274 3.38257 0.208694 0
M  V30 183 C 20.1004 4.31504 -0.71577 0
M  V30 184 C 19.1594 5.262 0.00325597 0
M  V30 185 O 18.1854 5.65798 -0.621357 0
M  V30 186 N 19.3874 5.66303 1.27599 0
M  V30 187 H 22.1524 2.62957 -1.43784 0
M  V30 188 H 19.7134 1.34495 -0.901261 0
M  V30 189 H 21.7054 3.98616 0.699111 0
M  V30 190 H 20.2754 2.96472 0.991102 0
M  V30 191 H 19.4954 3.69016 -1.38638 0
M  V30 192 H 20.7834 4.9072 -1.34428 0
M  V30 193 H 20.1814 5.36155 1.80429 0
M  V30 194 H 18.7384 6.28942 1.71102 0
M  V30 195 N 22.1715 0.800033 1.35784 0
M  V30 196 C 23.4175 0.377901 1.99248 0
M  V30 197 C 23.7505 -1.05052 1.63333 0
M  V30 198 O 23.0255 -1.72768 0.893385 0
M  V30 199 C 23.3085 0.553922 3.55814 0
M  V30 200 C 23.1615 2.0268 4.01548 0
M  V30 201 C 24.4805 -0.0244802 4.40093 0
M  V30 202 H 21.5995 0.138782 0.723815 0
M  V30 203 H 24.2415 1.00835 1.61035 0
M  V30 204 H 22.3915 0.0172398 3.88496 0
M  V30 205 H 24.0635 2.62536 3.79305 0
M  V30 206 H 22.3065 2.5256 3.52698 0
M  V30 207 H 22.9775 2.10087 5.10458 0
M  V30 208 H 25.4535 0.433775 4.13833 0
M  V30 209 H 24.3295 0.128637 5.48749 0
M  V30 210 H 24.5905 -1.11758 4.27741 0
M  V30 211 N 23.6496 -1.47581 0.552962 0
M  V30 212 C 24.5796 -2.32762 -0.185451 0
M  V30 213 C 25.5606 -1.43527 -0.912905 0
M  V30 214 O 26.7456 -1.72388 -0.894201 0
M  V30 215 C 23.8756 -3.25219 -1.21859 0
M  V30 216 C 22.8296 -4.23661 -0.607864 0
M  V30 217 C 22.1556 -5.05413 -1.74533 0
M  V30 218 C 23.4556 -5.20481 0.435582 0
M  V30 219 H 25.1496 -2.94749 0.525684 0
M  V30 220 H 22.6956 -1.41738 0.254251 0
M  V30 221 H 24.6486 -3.8365 -1.7433 0
M  V30 222 H 23.3726 -2.61279 -1.95961 0
M  V30 223 H 22.0316 -3.66451 -0.104489 0
M  V30 224 H 21.6796 -4.3788 -2.47529 0
M  V30 225 H 21.3796 -5.72059 -1.34249 0
M  V30 226 H 22.9036 -5.66701 -2.27338 0
M  V30 227 H 24.3176 -5.733 -0.00290157 0
M  V30 228 H 22.7146 -5.95305 0.757067 0
M  V30 229 H 23.7846 -4.66217 1.33303 0
M  V30 230 N 25.1277 -0.289203 -1.54924 0
M  V30 231 C 26.0577 0.58549 -2.2604 0
M  V30 232 C 27.0387 1.14753 -1.25562 0
M  V30 233 O 28.2237 1.17906 -1.54311 0
M  V30 234 C 25.3537 1.76305 -2.99222 0
M  V30 235 C 24.3077 1.33191 -4.06748 0
M  V30 236 C 23.6337 2.5937 -4.6758 0
M  V30 237 C 24.9337 0.471775 -5.20165 0
M  V30 238 H 26.6277 -0.00763532 -2.99399 0
M  V30 239 H 24.1737 -0.00511229 -1.43999 0
M  V30 240 H 26.1267 2.38097 -3.47689 0
M  V30 241 H 24.8507 2.38223 -2.23422 0
M  V30 242 H 23.5097 0.737121 -3.59113 0
M  V30 243 H 23.1577 3.19576 -3.88433 0
M  V30 244 H 22.8577 2.31228 -5.40192 0
M  V30 245 H 24.3817 3.21985 -5.18804 0
M  V30 246 H 25.7957 0.995056 -5.64599 0
M  V30 247 H 24.1927 0.284639 -5.99425 0
M  V30 248 H 25.2627 -0.506041 -4.82252 0
M  V30 249 N 26.6058 1.57591 -0.0167156 0
M  V30 250 C 28.0218 1.55946 0.339557 0
M  V30 251 C 28.2218 1.02109 1.73713 0
M  V30 252 O 27.2778 0.662303 2.43659 0
M  V30 253 C 28.5908 3.00037 0.199499 0
M  V30 254 C 30.1388 3.11805 0.273193 0
M  V30 255 C 30.6138 4.57713 0.162068 0
M  V30 256 N 32.1048 4.6268 0.219444 0
M  V30 257 C 32.8398 5.73185 0.157054 0
M  V30 258 N 32.3358 6.92786 0.0442936 0
M  V30 259 N 34.1288 5.61707 0.21014 0
M  V30 260 H 26.2798 1.90921 -0.930758 0
M  V30 261 H 28.5428 0.877674 -0.358319 0
M  V30 262 H 28.2488 3.4333 -0.76273 0
M  V30 263 H 28.1228 3.64387 0.974786 0
M  V30 264 H 30.5098 2.68433 1.22587 0
M  V30 265 H 30.5908 2.50201 -0.532256 0
M  V30 266 H 30.2348 5.01763 -0.78714 0
M  V30 267 H 30.1648 5.17283 0.986222 0
M  V30 268 H 32.6558 3.76649 0.307246 0
M  V30 269 H 32.9688 7.728 0.00304069 0
M  V30 270 H 31.3138 6.94999 0.00968457 0
M  V30 271 H 34.5048 4.6716 0.296546 0
M  V30 272 H 34.6778 6.47807 0.158054 0
M  V30 273 N 28.0839 -0.256276 1.55502 0
M  V30 274 C 29.0469 -1.30047 1.88734 0
M  V30 275 C 30.0469 -1.4154 0.763086 0
M  V30 276 O 31.2369 -1.40403 1.03115 0
M  V30 277 C 28.3689 -2.67953 2.10747 0
M  V30 278 H 29.5619 -1.01802 2.82093 0
M  V30 279 H 27.1149 -0.495134 1.4825 0
M  V30 280 H 27.8499 -3.01351 1.19825 0
M  V30 281 H 27.6349 -2.60993 2.92617 0
M  V30 282 H 29.1249 -3.43368 2.37673 0
M  V30 283 N 29.562 -1.4872 -0.521534 0
M  V30 284 C 30.978 -1.35028 -0.850855 0
M  V30 285 C 31.178 -0.367712 -1.98116 0
M  V30 286 O 30.234 0.208037 -2.51642 0
M  V30 287 C 31.547 -2.75263 -1.21041 0
M  V30 288 C 33.095 -2.83813 -1.31981 0
M  V30 289 C 33.57 -4.24769 -1.71276 0
M  V30 290 N 35.061 -4.27482 -1.78363 0
M  V30 291 C 35.796 -5.33494 -2.1017 0
M  V30 292 N 35.292 -6.49775 -2.40343 0
M  V30 293 N 37.085 -5.20894 -2.11248 0
M  V30 294 H 29.236 -2.11214 0.22413 0
M  V30 295 H 31.499 -0.947252 0.0376439 0
M  V30 296 H 31.205 -3.48765 -0.453415 0
M  V30 297 H 31.079 -3.09327 -2.15863 0
M  V30 298 H 33.466 -2.10561 -2.06756 0
M  V30 299 H 33.547 -2.53358 -0.352596 0
M  V30 300 H 33.191 -4.9854 -0.970588 0
M  V30 301 H 33.121 -4.52673 -2.69062 0
M  V30 302 H 35.612 -3.43611 -1.57288 0
M  V30 303 H 35.925 -7.26402 -2.63743 0
M  V30 304 H 34.27 -6.53035 -2.37844 0
M  V30 305 H 37.461 -4.29065 -1.87139 0
M  V30 306 H 37.634 -6.03612 -2.35704 0
M  V30 307 N 31.0401 0.771051 -1.3745 0
M  V30 308 C 32.4561 1.07171 -1.18265 0
M  V30 309 C 32.6561 2.01491 -0.019287 0
M  V30 310 O 31.7121 2.44244 0.640408 0
M  V30 311 C 33.0251 1.66854 -2.50161 0
M  V30 312 C 34.5731 1.79109 -2.56689 0
M  V30 313 C 35.0481 2.42205 -3.88717 0
M  V30 314 N 36.5391 2.49655 -3.90162 0
M  V30 315 C 37.2741 2.9933 -4.8907 0
M  V30 316 N 36.7701 3.49172 -5.98374 0
M  V30 317 N 38.5631 2.9821 -4.76474 0
M  V30 318 H 30.7141 0.144796 -2.11906 0
M  V30 319 H 32.9771 0.126863 -0.939473 0
M  V30 320 H 32.6831 1.05017 -3.35655 0
M  V30 321 H 32.5571 2.6614 -2.673 0
M  V30 322 H 34.9441 2.40077 -1.71601 0
M  V30 323 H 35.0251 0.785757 -2.43433 0
M  V30 324 H 34.6691 1.81875 -4.74219 0
M  V30 325 H 34.5991 3.43345 -3.99276 0
M  V30 326 H 37.0901 2.14383 -3.11205 0
M  V30 327 H 37.4031 3.8548 -6.69795 0
M  V30 328 H 35.7481 3.47275 -6.02018 0
M  V30 329 H 38.9391 2.58572 -3.90203 0
M  V30 330 H 39.1121 3.36613 -5.53711 0
M  V30 331 N 32.5182 1.22032 0.997298 0
M  V30 332 C 33.7432 1.06921 1.77715 0
M  V30 333 C 34.1682 -0.376226 1.84299 0
M  V30 334 O 33.5262 -1.27165 1.29223 0
M  V30 335 C 33.5742 1.67996 3.19076 0
M  V30 336 O 32.6782 0.930653 4.01762 0
M  V30 337 H 32.0192 0.375814 0.547412 0
M  V30 338 H 34.5492 1.61737 1.25309 0
M  V30 339 H 34.5592 1.72538 3.69723 0
M  V30 340 H 33.2342 2.73182 3.13599 0
M  V30 341 H 31.8112 0.960917 3.60307 0
M  V30 342 N 33.9963 -1.19345 1.0293 0
M  V30 343 C 35.4073 -1.70725 0.755633 0
M  V30 344 C 35.7583 -1.82326 -0.724676 0
M  V30 345 O 34.8833 -1.49471 -1.56484 0
M  V30 346 C 35.4783 -3.10084 1.36503 0
M  V30 347 C 34.0373 -3.58723 1.13994 0
M  V30 348 C 33.1843 -2.35577 1.46283 0
M  V30 349 H 36.1353 -1.0418 1.19718 0
M  V30 350 H 36.1563 -3.72787 0.762217 0
M  V30 351 H 35.6683 -3.01609 2.44241 0
M  V30 352 H 33.7693 -3.72512 0.0807901 0
M  V30 353 H 33.8823 -4.42816 1.82894 0
M  V30 354 H 32.2463 -2.38935 0.88217 0
M  V30 355 H 33.0293 -2.29731 2.55105 0
M  V30 356 N 35.4744 -0.807222 -1.35358 0
M  V30 357 C 36.4374 -0.223665 -2.28106 0
M  V30 358 C 37.4374 0.589354 -1.4961 0
M  V30 359 O 38.6274 0.407745 -1.69361 0
M  V30 360 C 35.7594 0.688149 -3.33882 0
M  V30 361 H 36.9524 -1.04169 -2.81227 0
M  V30 362 H 34.5054 -0.577921 -1.45223 0
M  V30 363 H 35.2404 1.52984 -2.85948 0
M  V30 364 H 35.0254 0.10687 -3.91954 0
M  V30 365 H 36.5154 1.09075 -4.03104 0
M  V30 366 N 36.9525 1.47285 -0.560781 0
M  V30 367 C 37.8825 2.32857 0.173105 0
M  V30 368 C 38.8635 1.44009 0.905281 0
M  V30 369 O 40.0485 1.7286 0.885046 0
M  V30 370 C 37.1785 3.25861 1.20133 0
M  V30 371 C 36.1325 4.23978 0.585388 0
M  V30 372 C 35.4585 5.06332 1.7185 0
M  V30 373 C 36.7585 5.20242 -0.463178 0
M  V30 374 H 38.4525 2.94466 -0.541307 0
M  V30 375 H 35.9985 1.41601 -0.261764 0
M  V30 376 H 37.9515 3.84569 1.72293 0
M  V30 377 H 36.6755 2.62315 1.94573 0
M  V30 378 H 35.3345 3.66501 0.085054 0
M  V30 379 H 34.9825 4.39186 2.45203 0
M  V30 380 H 34.6825 5.72762 1.31213 0
M  V30 381 H 36.2065 5.67899 2.24329 0
M  V30 382 H 37.6205 5.73293 -0.027502 0
M  V30 383 H 36.0175 5.94896 -0.788627 0
M  V30 384 H 37.0875 4.65504 -1.35773 0
M  V30 385 N 38.4306 0.297415 1.54768 0
M  V30 386 C 39.3606 -0.573494 2.26348 0
M  V30 387 C 40.3416 -1.14085 1.26169 0
M  V30 388 O 41.5266 -1.17086 1.54934 0
M  V30 389 C 38.6566 -1.74716 3.00153 0
M  V30 390 C 37.6106 -1.31032 4.07449 0
M  V30 391 C 36.9366 -2.56887 4.68949 0
M  V30 392 C 38.2366 -0.444183 5.20408 0
M  V30 393 H 39.9306 0.0235131 2.99391 0
M  V30 394 H 37.4766 0.0127488 1.43994 0
M  V30 395 H 39.4296 -2.3625 3.48947 0
M  V30 396 H 38.1536 -2.37035 2.24682 0
M  V30 397 H 36.8126 -0.718066 3.59499 0
M  V30 398 H 36.4606 -3.17512 3.90122 0
M  V30 399 H 36.1606 -2.2836 5.41411 0
M  V30 400 H 37.6846 -3.19229 5.20505 0
M  V30 401 H 39.0986 -0.9651 5.65118 0
M  V30 402 H 37.4956 -0.252846 5.99567 0
M  V30 403 H 38.5656 0.531609 4.81977 0
M  V30 404 N 39.9087 -1.5758 0.0250728 0
M  V30 405 C 41.3247 -1.56124 -0.331282 0
M  V30 406 C 41.5247 -1.03029 -1.73169 0
M  V30 407 O 40.5807 -0.675215 -2.43305 0
M  V30 408 C 41.8937 -3.00139 -0.183584 0
M  V30 409 C 43.4417 -3.11946 -0.256654 0
M  V30 410 C 43.9167 -4.57793 -0.137792 0
M  V30 411 N 45.4077 -4.6279 -0.194904 0
M  V30 412 C 46.1427 -5.7326 -0.126655 0
M  V30 413 N 45.6387 -6.928 -0.00755288 0
M  V30 414 N 47.4317 -5.61811 -0.180348 0
M  V30 415 H 39.5827 -1.90424 0.94087 0
M  V30 416 H 41.8457 -0.875761 0.362968 0
M  V30 417 H 41.5517 -3.4292 0.780927 0
M  V30 418 H 41.4257 -3.64899 -0.955448 0
M  V30 419 H 43.8127 -2.69079 -1.21162 0
M  V30 420 H 43.8937 -2.49915 0.545517 0
M  V30 421 H 43.5377 -5.01339 0.813739 0
M  V30 422 H 43.4677 -5.17798 -0.958775 0
M  V30 423 H 45.9587 -3.76807 -0.287267 0
M  V30 424 H 46.2717 -7.72791 0.0379428 0
M  V30 425 H 44.6167 -6.94995 0.0271731 0
M  V30 426 H 47.8077 -4.6731 -0.271767 0
M  V30 427 H 47.9807 -6.47882 -0.123697 0
M  V30 428 N 41.3868 0.248026 -1.55636 0
M  V30 429 C 42.6148 0.993808 -1.81469 0
M  V30 430 C 43.0298 1.78991 -0.60064 0
M  V30 431 O 42.3868 1.77345 0.430682 0
M  V30 432 C 42.4378 1.93258 -3.05506 0
M  V30 433 O 42.1588 1.16869 -4.22224 0
M  V30 434 C 43.6598 2.79444 -3.4413 0
M  V30 435 H 40.8798 0.292486 -0.603898 0
M  V30 436 H 43.4238 0.271253 -2.02693 0
M  V30 437 H 41.5788 2.60943 -2.86335 0
M  V30 438 H 41.9928 1.80359 -4.92515 0
M  V30 439 H 43.4668 3.41066 -4.34026 0
M  V30 440 H 43.9438 3.50499 -2.64665 0
M  V30 441 H 44.5498 2.17214 -3.65648 0
M  V30 442 N 42.8649 1.48995 0.513639 0
M  V30 443 C 44.2759 1.5119 1.09537 0
M  V30 444 C 44.6269 0.290906 1.94031 0
M  V30 445 O 43.7519 -0.60049 2.07902 0
M  V30 446 C 44.3469 2.73964 1.99322 0
M  V30 447 C 42.9059 2.78978 2.52682 0
M  V30 448 C 42.0529 2.44934 1.30009 0
M  V30 449 H 45.0039 1.55875 0.298125 0
M  V30 450 H 45.0249 2.53409 2.83838 0
M  V30 451 H 44.5369 3.62813 1.37799 0
M  V30 452 H 42.6379 1.94378 3.1788 0
M  V30 453 H 42.7509 3.8083 2.90698 0
M  V30 454 H 41.1149 1.9644 1.62122 0
M  V30 455 H 41.8979 3.36043 0.702131 0
M  V30 456 N 44.343 -0.763751 1.37857 0
M  V30 457 C 45.306 -1.85889 1.34081 0
M  V30 458 C 46.306 -1.58949 0.243277 0
M  V30 459 O 47.496 -1.66882 0.499589 0
M  V30 460 C 44.628 -3.23176 1.08489 0
M  V30 461 H 45.821 -1.90648 2.31502 0
M  V30 462 H 43.374 -0.964367 1.23003 0
M  V30 463 H 44.109 -3.24091 0.116318 0
M  V30 464 H 43.894 -3.44124 1.8794 0
M  V30 465 H 45.384 -4.03254 1.08517 0
M  V30 466 N 45.8211 -1.22559 -0.990812 0
M  V30 467 C 46.7511 -1.0218 -2.09956 0
M  V30 468 C 47.7321 0.0579394 -1.70001 0
M  V30 469 O 48.9171 -0.104684 -1.93918 0
M  V30 470 C 46.0471 -0.601023 -3.4206 0
M  V30 471 C 45.0011 -1.62694 -3.95872 0
M  V30 472 C 44.3271 -1.06193 -5.24049 0
M  V30 473 C 45.6271 -3.01743 -4.2632 0
M  V30 474 H 47.3211 -1.94916 -2.27262 0
M  V30 475 H 44.8671 -0.938566 -1.09211 0
M  V30 476 H 46.8201 -0.445561 -4.19038 0
M  V30 477 H 45.5441 0.362005 -3.24588 0
M  V30 478 H 44.2031 -1.77021 -3.21028 0
M  V30 479 H 43.8511 -0.0901903 -5.02919 0
M  V30 480 H 43.5511 -1.74732 -5.61019 0
M  V30 481 H 45.0751 -0.918092 -6.03658 0
M  V30 482 H 46.4891 -2.90777 -4.94087 0
M  V30 483 H 44.8861 -3.67425 -4.74467 0
M  V30 484 H 45.9561 -3.51518 -3.34011 0
M  V30 485 N 47.2992 1.18797 -1.03562 0
M  V30 486 C 48.7152 1.40671 -0.753917 0
M  V30 487 C 48.9152 1.9043 0.658686 0
M  V30 488 O 47.9712 2.08538 1.42366 0
M  V30 489 C 49.2842 2.41192 -1.79574 0
M  V30 490 C 50.8322 2.54928 -1.81606 0
M  V30 491 C 51.3072 3.58709 -2.84766 0
M  V30 492 N 52.7982 3.66212 -2.83625 0
M  V30 493 C 53.5332 4.46225 -3.60098 0
M  V30 494 N 53.0292 5.29888 -4.46308 0
M  V30 495 N 54.8222 4.40939 -3.4861 0
M  V30 496 H 46.9732 0.848221 -1.94728 0
M  V30 497 H 49.2362 0.435081 -0.842264 0
M  V30 498 H 48.9422 2.11669 -2.80872 0
M  V30 499 H 48.8162 3.40467 -1.62365 0
M  V30 500 H 51.2032 2.83771 -0.809817 0
M  V30 501 H 51.2842 1.55784 -2.02891 0
M  V30 502 H 50.9282 3.30607 -3.85566 0
M  V30 503 H 50.8582 4.57519 -2.60737 0
M  V30 504 H 53.3492 3.06466 -2.21105 0
M  V30 505 H 53.6622 5.88078 -5.01382 0
M  V30 506 H 52.0072 5.29326 -4.50377 0
M  V30 507 H 55.1982 3.74624 -2.80668 0
M  V30 508 H 55.3712 5.03056 -4.08459 0
M  V30 509 N 48.7773 0.814389 1.34928 0
M  V30 510 C 50.0023 0.410097 2.03305 0
M  V30 511 C 50.4273 -0.973464 1.60951 0
M  V30 512 O 49.7853 -1.63185 0.789964 0
M  V30 513 C 49.8333 0.51049 3.56968 0
M  V30 514 O 48.9373 -0.473035 4.09678 0
M  V30 515 H 48.2783 0.170088 0.641846 0
M  V30 516 H 50.8083 1.10244 1.72358 0
M  V30 517 H 50.8183 0.383135 4.06197 0
M  V30 518 H 49.4933 1.51963 3.87144 0
M  V30 519 H 48.0703 -0.305272 3.71648 0
M  V30 520 N 50.2554 -1.46986 0.568584 0
M  V30 521 C 51.4834 -2.0683 0.0539956 0
M  V30 522 C 51.8984 -1.41953 -1.24478 0
M  V30 523 O 51.2554 -0.519933 -1.74937 0
M  V30 524 C 51.3064 -3.61254 -0.133362 0
M  V30 525 O 51.0274 -4.237 1.11399 0
M  V30 526 C 52.5284 -4.37992 -0.683927 0
M  V30 527 H 49.7484 -0.669058 0.0510141 0
M  V30 528 H 52.2924 -1.88824 0.785234 0
M  V30 529 H 50.4474 -3.78735 -0.81477 0
M  V30 530 H 50.8614 -5.16388 0.91888 0
M  V30 531 H 52.3354 -5.46684 -0.764263 0
M  V30 532 H 52.8124 -4.05058 -1.69778 0
M  V30 533 H 53.4184 -4.25283 -0.0378494 0
M  V30 534 N 51.7335 -0.305618 -1.54608 0
M  V30 535 C 52.6965 0.555591 -2.22364 0
M  V30 536 C 53.6965 1.05768 -1.21119 0
M  V30 537 O 54.8865 0.952972 -1.45822 0
M  V30 538 C 52.0185 1.76974 -2.91364 0
M  V30 539 H 53.2115 -0.0364572 -2.99878 0
M  V30 540 H 50.7645 -0.0565007 -1.56198 0
M  V30 541 H 51.4995 2.40151 -2.17941 0
M  V30 542 H 51.2845 1.41732 -3.65588 0
M  V30 543 H 52.7745 2.38148 -3.43038 0
M  V30 544 N 53.2116 1.57565 -0.0334293 0
M  V30 545 C 54.4396 1.9628 0.654347 0
M  V30 546 C 54.8546 0.910138 1.65414 0
M  V30 547 O 54.2116 -0.107595 1.82183 0
M  V30 548 C 54.2626 3.35067 1.35693 0
M  V30 549 O 53.9836 4.36296 0.397191 0
M  V30 550 C 55.4846 3.88439 2.13613 0
M  V30 551 H 52.7046 0.646369 0.180132 0
M  V30 552 H 55.2486 2.04282 -0.0944721 0
M  V30 553 H 53.4036 3.2827 2.05712 0
M  V30 554 H 53.8176 5.1678 0.896597 0
M  V30 555 H 55.2916 4.8788 2.58219 0
M  V30 556 H 55.7686 3.22914 2.97696 0
M  V30 557 H 56.3746 3.98516 1.48543 0
M  V30 558 N 54.6897 -0.239769 1.55765 0
M  V30 559 C 55.9367 -0.966801 1.7793 0
M  V30 560 C 56.2647 -1.85046 0.599015 0
M  V30 561 O 55.5197 -1.91197 -0.417395 0
M  V30 562 C 55.8187 -1.852 3.05672 0
M  V30 563 C 55.4847 -1.1231 4.36689 0
M  V30 564 C 54.1467 -0.921689 4.72291 0
M  V30 565 C 56.4987 -0.607019 5.17653 0
M  V30 566 C 53.8267 -0.191996 5.86386 0
M  V30 567 C 56.1787 0.109241 6.32506 0
M  V30 568 C 54.8427 0.322073 6.66723 0
M  V30 569 H 54.1127 -0.353778 0.651093 0
M  V30 570 H 56.7597 -0.23634 1.90036 0
M  V30 571 H 55.0647 -2.64975 2.8861 0
M  V30 572 H 56.7617 -2.41635 3.20021 0
M  V30 573 H 53.3517 -1.29004 4.08725 0
M  V30 574 H 57.5357 -0.750153 4.90598 0
M  V30 575 H 52.7917 -0.0166949 6.11398 0
M  V30 576 H 56.9657 0.516737 6.9448 0
M  V30 577 H 54.5927 0.88944 7.54979 0
M  V30 578 N 56.1678 -1.49265 -0.50573 0
M  V30 579 C 57.1308 -1.65075 -1.59006 0
M  V30 580 C 58.1308 -0.522768 -1.52065 0
M  V30 581 O 59.3208 -0.789117 -1.55302 0
M  V30 582 C 56.4528 -1.64369 -2.98656 0
M  V30 583 H 57.6458 -2.61784 -1.46319 0
M  V30 584 H 55.1988 -1.38226 -0.729616 0
M  V30 585 H 55.9338 -0.692272 -3.16825 0
M  V30 586 H 55.7188 -2.46282 -3.05103 0
M  V30 587 H 57.2088 -1.78674 -3.77446 0
M  V30 588 N 57.6459 0.756429 -1.3826 0
M  V30 589 C 58.5779 1.87971 -1.31147 0
M  V30 590 C 59.5909 1.61248 -0.224239 0
M  V30 591 O 60.7799 1.71881 -0.481581 0
M  V30 592 C 57.8799 3.23545 -1.00857 0
M  V30 593 C 57.0529 3.77794 -2.20432 0
M  V30 594 C 56.1119 4.91877 -1.86931 0
M  V30 595 O 55.1379 5.06659 -2.59395 0
M  V30 596 N 56.3399 5.74643 -0.822568 0
M  V30 597 H 59.1049 1.94585 -2.2794 0
M  V30 598 H 56.6659 0.936234 -1.32084 0
M  V30 599 H 58.6579 3.97403 -0.765021 0
M  V30 600 H 57.2279 3.12335 -0.128687 0
M  V30 601 H 56.4479 2.95534 -2.6087 0
M  V30 602 H 57.7359 4.10771 -3.00241 0
M  V30 603 H 57.1339 5.65266 -0.221575 0
M  V30 604 H 55.6909 6.48661 -0.638899 0
M  V30 605 N 59.124 1.23083 0.984299 0
M  V30 606 C 60.087 1.00979 2.05757 0
M  V30 607 C 61.087 -0.0269573 1.60777 0
M  V30 608 O 62.277 0.212403 1.729 0
M  V30 609 C 59.409 0.527072 3.36801 0
M  V30 610 H 60.602 1.9622 2.26799 0
M  V30 611 H 58.155 1.05072 1.15714 0
M  V30 612 H 58.89 -0.429294 3.21446 0
M  V30 613 H 58.675 1.27515 3.70786 0
M  V30 614 H 60.165 0.392942 4.15747 0
M  V30 615 N 60.6021 -1.18246 1.0419 0
M  V30 616 C 61.5321 -2.24127 0.654914 0
M  V30 617 C 62.5131 -1.66617 -0.342451 0
M  V30 618 O 63.6981 -1.92924 -0.222277 0
M  V30 619 C 60.8281 -3.47295 0.0183757 0
M  V30 620 C 59.7821 -4.17563 0.939414 0
M  V30 621 C 59.1081 -5.34438 0.167286 0
M  V30 622 C 60.4081 -4.70917 2.25908 0
M  V30 623 H 62.1021 -2.56753 1.54007 0
M  V30 624 H 59.6481 -1.23414 0.74195 0
M  V30 625 H 61.6011 -4.20572 -0.264082 0
M  V30 626 H 60.3251 -3.13907 -0.901664 0
M  V30 627 H 58.9841 -3.46186 1.20628 0
M  V30 628 H 58.6321 -4.97298 -0.7552 0
M  V30 629 H 58.3321 -5.82388 0.780901 0
M  V30 630 H 59.8561 -6.10504 -0.108125 0
M  V30 631 H 61.2701 -5.35882 2.03724 0
M  V30 632 H 59.6671 -5.29406 2.82577 0
M  V30 633 H 60.7371 -3.88272 2.9047 0
M  V30 634 N 62.0802 -0.821533 -1.34494 0
M  V30 635 C 63.0122 -0.199946 -2.28326 0
M  V30 636 C 64.0252 0.609377 -1.50965 0
M  V30 637 O 65.2142 0.439285 -1.7301 0
M  V30 638 C 62.3142 0.738431 -3.30757 0
M  V30 639 C 61.4872 -0.0277632 -4.37391 0
M  V30 640 C 60.5462 0.831332 -5.19591 0
M  V30 641 O 59.5722 0.276822 -5.68526 0
M  V30 642 N 60.7742 2.15132 -5.39165 0
M  V30 643 H 63.5392 -1.00609 -2.82308 0
M  V30 644 H 61.1002 -0.678366 -1.47003 0
M  V30 645 H 63.0922 1.31773 -3.82646 0
M  V30 646 H 61.6622 1.44533 -2.7718 0
M  V30 647 H 60.8822 -0.788359 -3.86236 0
M  V30 648 H 62.1702 -0.555251 -5.05761 0
M  V30 649 H 61.5682 2.62559 -5.01078 0
M  V30 650 H 60.1252 2.6795 -5.94177 0
M  V30 651 N 63.5583 1.46682 -0.576371 0
M  V30 652 C 64.8053 2.02412 -0.0595339 0
M  V30 653 C 65.1333 1.44859 1.29793 0
M  V30 654 O 64.3883 0.601099 1.8624 0
M  V30 655 C 64.6873 3.57345 0.062886 0
M  V30 656 C 64.3533 4.33908 -1.22616 0
M  V30 657 C 63.0153 4.54544 -1.57933 0
M  V30 658 C 65.3673 4.77919 -2.07948 0
M  V30 659 C 62.6953 5.16444 -2.78393 0
M  V30 660 C 65.0473 5.41149 -3.27629 0
M  V30 661 C 63.7113 5.60014 -3.63236 0
M  V30 662 H 62.9813 0.74068 -0.021785 0
M  V30 663 H 65.6283 1.76128 -0.751735 0
M  V30 664 H 63.9333 3.82729 0.838178 0
M  V30 665 H 65.6303 3.98136 0.478439 0
M  V30 666 H 62.2203 4.18138 -0.941202 0
M  V30 667 H 66.4043 4.61738 -1.81967 0
M  V30 668 H 61.6603 5.29242 -3.06126 0
M  V30 669 H 65.8343 5.74211 -3.94023 0
M  V30 670 H 63.4613 6.07748 -4.56669 0
M  V30 671 N 65.0364 0.313813 1.54444 0
M  V30 672 C 66.2824 -0.292108 2.00685 0
M  V30 673 C 66.6154 -1.52548 1.20177 0
M  V30 674 O 65.8904 -1.92452 0.281531 0
M  V30 675 C 66.1734 -0.635968 3.5444 0
M  V30 676 C 66.0264 0.607437 4.4568 0
M  V30 677 C 67.3454 -1.45747 4.15266 0
M  V30 678 H 64.4644 -0.104697 0.729526 0
M  V30 679 H 67.1064 0.428457 1.85106 0
M  V30 680 H 65.2564 -1.24986 3.67846 0
M  V30 681 H 66.9284 1.24581 4.44159 0
M  V30 682 H 65.1714 1.23822 4.15753 0
M  V30 683 H 65.8424 0.322515 5.51057 0
M  V30 684 H 68.3184 -0.938645 4.05375 0
M  V30 685 H 67.1944 -1.66683 5.2298 0
M  V30 686 H 67.4554 -2.45063 3.67963 0
M  V30 687 N 66.5145 -1.57545 0.0417849 0
M  V30 688 C 67.9255 -1.80011 -0.495259 0
M  V30 689 C 68.2765 -0.953199 -1.71489 0
M  V30 690 O 67.4015 -0.167138 -2.15754 0
M  V30 691 C 67.9965 -3.26482 -0.905265 0
M  V30 692 C 66.5555 -3.499 -1.38734 0
M  V30 693 C 65.7025 -2.74979 -0.358056 0
M  V30 694 H 68.6535 -1.56425 0.267736 0
M  V30 695 H 68.6745 -3.36887 -1.76882 0
M  V30 696 H 68.1865 -3.88096 -0.017401 0
M  V30 697 H 66.2875 -2.93553 -2.29471 0
M  V30 698 H 66.4005 -4.58615 -1.38598 0
M  V30 699 H 64.7645 -2.40834 -0.828912 0
M  V30 700 H 65.5475 -3.39315 0.521561 0
M  V30 701 N 67.9926 0.231505 -1.5589 0
M  V30 702 C 68.9026 1.308 -1.94752 0
M  V30 703 C 69.9186 1.51826 -0.849989 0
M  V30 704 O 71.0946 1.6515 -1.15271 0
M  V30 705 C 68.1596 2.63968 -2.24771 0
M  V30 706 C 67.2206 2.51331 -3.48039 0
M  V30 707 C 66.4536 3.78148 -3.76616 0
M  V30 708 O 66.6766 4.80722 -3.07022 0
M  V30 709 O 65.6106 3.75857 -4.70123 0
M  V30 710 H 69.4366 1.0083 -2.86474 0
M  V30 711 H 67.0216 0.433547 -1.42971 0
M  V30 712 H 68.9036 3.42633 -2.45318 0
M  V30 713 H 67.5786 2.9364 -1.36225 0
M  V30 714 H 66.4856 1.709 -3.32782 0
M  V30 715 H 67.8186 2.26601 -4.36936 0
M  V30 716 N 69.4707 1.49531 0.497807 0
M  V30 717 C 70.6987 1.62893 1.27567 0
M  V30 718 C 71.1137 0.301585 1.86376 0
M  V30 719 O 70.4707 -0.713335 1.67982 0
M  V30 720 C 70.5217 2.70013 2.40364 0
M  V30 721 O 70.2427 3.976 1.83972 0
M  V30 722 C 71.7437 2.94109 3.31685 0
M  V30 723 H 68.9637 0.548298 0.386794 0
M  V30 724 H 71.5077 1.95584 0.597245 0
M  V30 725 H 69.6627 2.40092 3.04031 0
M  V30 726 H 70.0767 4.56631 2.58047 0
M  V30 727 H 71.5507 3.72788 4.07104 0
M  V30 728 H 72.0277 2.04147 3.88871 0
M  V30 729 H 72.6337 3.2546 2.73781 0
M  V30 730 N 70.9488 -0.749086 1.3866 0
M  V30 731 C 71.8808 -1.87273 1.32142 0
M  V30 732 C 72.8938 -1.61127 0.232787 0
M  V30 733 O 74.0828 -1.71623 0.49069 0
M  V30 734 C 71.1828 -3.23005 1.02571 0
M  V30 735 C 70.3558 -3.7662 2.22433 0
M  V30 736 C 69.4148 -4.90879 1.89537 0
M  V30 737 O 68.4408 -5.05276 2.62078 0
M  V30 738 N 69.6428 -5.74198 0.853031 0
M  V30 739 H 72.4078 -1.93373 2.28969 0
M  V30 740 H 69.9688 -0.929216 1.32579 0
M  V30 741 H 71.9608 -3.96992 0.786085 0
M  V30 742 H 70.5308 -3.12262 0.145249 0
M  V30 743 H 69.7508 -2.94147 2.62434 0
M  V30 744 H 71.0388 -4.09173 3.02415 0
M  V30 745 H 70.4368 -5.6514 0.25155 0
M  V30 746 H 68.9938 -6.48313 0.67329 0
M  V30 747 N 72.4269 -1.23603 -0.977757 0
M  V30 748 C 73.6729 -1.07129 -1.72195 0
M  V30 749 C 74.0059 0.390501 -1.90233 0
M  V30 750 O 73.2809 1.28902 -1.45653 0
M  V30 751 C 73.5639 -1.80031 -3.11867 0
M  V30 752 C 73.4169 -3.33899 -3.01383 0
M  V30 753 C 74.7359 -1.56492 -4.11337 0
M  V30 754 H 71.8549 -0.390571 -0.624999 0
M  V30 755 H 74.4969 -1.52142 -1.13811 0
M  V30 756 H 72.6469 -1.41768 -3.6171 0
M  V30 757 H 74.3189 -3.81699 -2.59043 0
M  V30 758 H 72.5619 -3.62796 -2.37827 0
M  V30 759 H 73.2329 -3.801 -4.00285 0
M  V30 760 H 75.7089 -1.89757 -3.70313 0
M  V30 761 H 74.5849 -2.09973 -5.07151 0
M  V30 762 H 74.8459 -0.500874 -4.39254 0
M  V30 763 N 73.905 1.17692 -1.04816 0
M  V30 764 C 75.13 1.92327 -0.776207 0
M  V30 765 C 75.555 1.76082 0.661581 0
M  V30 766 O 74.913 1.076 1.45917 0
M  V30 767 C 74.961 3.41539 -1.15687 0
M  V30 768 O 74.065 4.11402 -0.286775 0
M  V30 769 H 73.406 0.599735 -0.284981 0
M  V30 770 H 75.936 1.49201 -1.4 0
M  V30 771 H 75.946 3.92269 -1.12202 0
M  V30 772 H 74.621 3.52684 -2.20425 0
M  V30 773 H 73.198 3.70939 -0.381903 0
M  V30 774 N 75.3831 0.828654 1.34056 0
M  V30 775 C 76.3131 0.269443 2.3194 0
M  V30 776 C 77.2941 -0.617247 1.58506 0
M  V30 777 O 78.4791 -0.542931 1.86456 0
M  V30 778 C 75.6091 -0.564793 3.42677 0
M  V30 779 C 74.5631 0.225241 4.27407 0
M  V30 780 C 73.8891 -0.7321 5.29664 0
M  V30 781 C 75.1891 1.43663 5.02154 0
M  V30 782 H 76.8831 1.08728 2.7896 0
M  V30 783 H 74.4291 0.524283 1.34117 0
M  V30 784 H 76.3821 -0.966233 4.10173 0
M  V30 785 H 75.1061 -1.41574 2.9432 0
M  V30 786 H 73.7651 0.608117 3.61521 0
M  V30 787 H 73.4131 -1.57916 4.77568 0
M  V30 788 H 73.1131 -0.20767 5.87233 0
M  V30 789 H 74.6371 -1.13128 6.00029 0
M  V30 790 H 76.0511 1.1089 5.62473 0
M  V30 791 H 74.4481 1.89711 5.69324 0
M  V30 792 H 75.5181 2.21181 4.31517 0
M  V30 793 N 76.8612 -1.46375 0.584142 0
M  V30 794 C 77.7912 -2.33103 -0.136037 0
M  V30 795 C 78.7722 -1.45431 -0.882255 0
M  V30 796 O 79.9572 -1.74246 -0.857434 0
M  V30 797 C 77.0872 -3.27731 -1.14933 0
M  V30 798 C 76.0412 -4.24855 -0.517862 0
M  V30 799 C 75.3672 -5.09001 -1.63773 0
M  V30 800 C 76.6672 -5.19439 0.545886 0
M  V30 801 H 78.3612 -2.93568 0.588086 0
M  V30 802 H 75.9072 -1.41166 0.284259 0
M  V30 803 H 77.8602 -3.87261 -1.66153 0
M  V30 804 H 76.5842 -2.65377 -1.90375 0
M  V30 805 H 75.2432 -3.6659 -0.0267361 0
M  V30 806 H 74.8912 -4.43031 -2.38185 0
M  V30 807 H 74.5912 -5.74777 -1.22085 0
M  V30 808 H 76.1152 -5.71396 -2.15266 0
M  V30 809 H 77.5292 -5.73177 0.118704 0
M  V30 810 H 75.9262 -5.93566 0.88317 0
M  V30 811 H 76.9962 -4.63285 1.43162 0
M  V30 812 N 78.3393 -0.321999 -1.54275 0
M  V30 813 C 79.6163 0.335232 -1.92706 0
M  V30 814 C 79.9963 1.70006 -1.25145 0
M  V30 815 O 79.3443 2.25067 -0.394596 0
M  V30 816 C 79.5543 0.429008 -3.46353 0
M  V30 817 C 80.9023 0.690029 -4.18956 0
M  V30 818 O 81.9263 0.511992 -3.52501 0
M  V30 819 O 80.7853 1.03338 -5.36641 0
M  V30 820 H 77.8793 0.191143 -0.804608 0
M  V30 821 H 80.4253 -0.3716 -1.65581 0
M  V30 822 H 79.1973 -0.529611 -3.87699 0
M  V30 823 H 78.8203 1.18348 -3.79578 0
M  V30 824 N 79.8174 1.5752 -0.0501392 0
M  V30 825 C 80.7654 2.12651 0.942459 0
M  V30 826 C 81.7594 1.05807 1.32292 0
M  V30 827 O 82.9654 1.24217 1.3027 0
M  V30 828 H 79.3404 0.679673 0.321789 0
M  V30 829 H 81.3114 2.94951 0.452356 0
M  V30 830 C 80.0604 2.68565 2.20836 0
M  V30 831 H 79.3834 3.50439 1.92439 0
M  V30 832 H 80.8234 3.10761 2.8845 0
M  V30 833 C 79.2824 1.62291 2.95234 0
M  V30 834 O 79.8124 1.03508 3.88135 0
M  V30 835 N 78.0184 1.33836 2.57946 0
M  V30 836 H 77.5654 1.81826 1.82475 0
M  V30 837 H 77.5234 0.629595 3.08032 0
M  V30 838 N 81.2955 -0.223234 1.56011 0
M  V30 839 C 82.5435 -0.946003 1.78592 0
M  V30 840 C 82.8645 -1.84936 0.618349 0
M  V30 841 O 82.1345 -1.92473 -0.364833 0
M  V30 842 H 80.7145 -0.352298 0.658707 0
M  V30 843 H 83.3765 -0.235494 1.93472 0
M  V30 844 H 82.4725 -1.55381 2.70672 0
M  V30 845 N 82.7736 -1.49793 -0.48987 0
M  V30 846 C 83.7036 -1.70201 -1.59856 0
M  V30 847 C 84.6846 -0.55076 -1.60937 0
M  V30 848 O 85.8696 -0.787841 -1.77501 0
M  V30 849 C 82.9996 -1.77882 -2.98287 0
M  V30 850 C 81.9536 -2.92907 -3.12073 0
M  V30 851 C 81.2796 -2.85712 -4.51965 0
M  V30 852 C 82.5796 -4.3369 -2.91051 0
M  V30 853 H 84.2736 -2.63025 -1.43032 0
M  V30 854 H 81.8196 -1.26574 -0.686664 0
M  V30 855 H 83.7726 -1.90744 -3.75759 0
M  V30 856 H 82.4966 -0.816653 -3.16225 0
M  V30 857 H 81.1556 -2.79665 -2.37029 0
M  V30 858 H 80.8036 -1.8738 -4.66795 0
M  V30 859 H 80.5036 -3.62921 -4.62128 0
M  V30 860 H 82.0276 -3.00598 -5.31482 0
M  V30 861 H 83.4416 -4.47555 -3.58284 0
M  V30 862 H 81.8386 -5.12205 -3.12675 0
M  V30 863 H 82.9086 -4.47362 -1.87071 0
M  V30 864 N 84.2517 0.741722 -1.39055 0
M  V30 865 C 85.6677 1.04638 -1.20512 0
M  V30 866 C 85.8677 2.01405 -0.0620218 0
M  V30 867 O 84.9237 2.45547 0.588457 0
M  V30 868 C 86.2367 1.6151 -2.53643 0
M  V30 869 C 87.7847 1.73623 -2.6043 0
M  V30 870 C 88.2597 2.33906 -3.93767 0
M  V30 871 N 89.7507 2.41323 -3.9537 0
M  V30 872 C 90.4857 2.88888 -4.95309 0
M  V30 873 N 89.9817 3.36401 -6.05645 0
M  V30 874 N 91.7747 2.88037 -4.82692 0
M  V30 875 H 83.9257 0.0998155 -2.12165 0
M  V30 876 H 86.1887 0.106907 -0.941953 0
M  V30 877 H 85.8947 0.978739 -3.37807 0
M  V30 878 H 85.7687 2.60411 -2.72885 0
M  V30 879 H 88.1557 2.36384 -1.76655 0
M  V30 880 H 88.2367 0.733945 -2.45045 0
M  V30 881 H 87.8807 1.71776 -4.7797 0
M  V30 882 H 87.8107 3.34799 -4.06469 0
M  V30 883 H 90.3017 2.07734 -3.15682 0
M  V30 884 H 90.6147 3.71186 -6.77821 0
M  V30 885 H 88.9597 3.34427 -6.09248 0
M  V30 886 H 92.1507 2.50237 -3.95599 0
M  V30 887 H 92.3237 3.24792 -5.60726 0
M  V30 888 N 85.7298 1.2412 0.971189 0
M  V30 889 C 86.9758 1.08041 1.71625 0
M  V30 890 C 87.3088 -0.380407 1.90438 0
M  V30 891 O 86.5838 -1.28127 1.46334 0
M  V30 892 C 86.8668 1.81682 3.10908 0
M  V30 893 C 86.7198 3.35493 2.99608 0
M  V30 894 C 88.0388 1.58671 4.10501 0
M  V30 895 H 85.1578 0.39388 0.622919 0
M  V30 896 H 87.7998 1.52743 1.13003 0
M  V30 897 H 85.9498 1.43684 3.60953 0
M  V30 898 H 87.6218 3.83068 2.57015 0
M  V30 899 H 85.8648 3.64052 2.35899 0
M  V30 900 H 86.5358 3.82217 3.98264 0
M  V30 901 H 89.0118 1.91719 3.69301 0
M  V30 902 H 87.8878 2.1266 5.06031 0
M  V30 903 H 88.1488 0.524161 4.38982 0
M  V30 904 N 87.2079 -1.17134 1.05439 0
M  V30 905 C 88.1709 -2.19439 0.661764 0
M  V30 906 C 89.1709 -1.58199 -0.288042 0
M  V30 907 O 90.3609 -1.74053 -0.0715803 0
M  V30 908 C 87.4929 -3.40889 -0.0276209 0
M  V30 909 H 88.6859 -2.55688 1.56728 0
M  V30 910 H 86.2389 -1.31259 0.848567 0
M  V30 911 H 86.9739 -3.10187 -0.94629 0
M  V30 912 H 86.7589 -3.86586 0.655238 0
M  V30 913 H 88.2489 -4.16603 -0.288342 0
M  V30 914 N 88.686 -0.835752 -1.33615 0
M  V30 915 C 89.911 -0.442389 -2.02627 0
M  V30 916 C 90.336 0.947735 -1.62479 0
M  V30 917 O 89.694 1.61907 -0.815826 0
M  V30 918 C 89.742 -0.567216 -3.56111 0
M  V30 919 O 88.846 0.407799 -4.10379 0
M  V30 920 H 88.187 -0.180278 -0.639059 0
M  V30 921 H 90.717 -1.12972 -1.70583 0
M  V30 922 H 90.727 -0.447708 -4.05536 0
M  V30 923 H 89.402 -1.58103 -3.84677 0
M  V30 924 H 87.979 0.246107 -3.72087 0
M  V30 925 N 90.1641 1.46063 -0.591896 0
M  V30 926 C 91.0741 2.34192 0.13831 0
M  V30 927 C 92.0901 1.50305 0.876608 0
M  V30 928 O 93.2661 1.8315 0.837728 0
M  V30 929 C 90.3311 3.27656 1.13326 0
M  V30 930 C 89.3921 4.27445 0.39863 0
M  V30 931 C 88.6251 5.16443 1.34618 0
M  V30 932 O 88.8481 5.08553 2.58321 0
M  V30 933 O 87.7821 5.95843 0.851768 0
M  V30 934 H 91.6081 2.98002 -0.58552 0
M  V30 935 H 89.1931 1.45188 -0.352239 0
M  V30 936 H 91.0751 3.85291 1.70671 0
M  V30 937 H 89.7501 2.6643 1.83839 0
M  V30 938 H 88.6571 3.73471 -0.216895 0
M  V30 939 H 89.9901 4.91482 -0.265709 0
M  V30 940 N 91.6422 0.330177 1.54103 0
M  V30 941 C 92.5742 -0.566902 2.22079 0
M  V30 942 C 93.5872 -1.07462 1.22294 0
M  V30 943 O 94.7762 -0.987065 1.48726 0
M  V30 944 C 91.8762 -1.79138 2.87685 0
M  V30 945 C 91.0492 -1.42123 4.13666 0
M  V30 946 C 90.1082 -2.50394 4.62806 0
M  V30 947 O 89.1342 -2.14261 5.27334 0
M  V30 948 N 90.3362 -3.81433 4.37595 0
M  V30 949 H 93.1012 0.0151844 2.99696 0
M  V30 950 H 90.6622 0.153681 1.61169 0
M  V30 951 H 92.6542 -2.50975 3.1748 0
M  V30 952 H 91.2242 -2.28115 2.13734 0
M  V30 953 H 90.4442 -0.534201 3.90564 0
M  V30 954 H 91.7322 -1.14971 4.9564 0
M  V30 955 H 91.1302 -4.13584 3.8596 0
M  V30 956 H 89.6872 -4.4948 4.72029 0
M  V30 957 N 93.1203 -1.57491 0.0584922 0
M  V30 958 C 94.3453 -1.97711 -0.62652 0
M  V30 959 C 94.7703 -0.936132 -1.63151 0
M  V30 960 O 94.1283 0.099811 -1.81025 0
M  V30 961 C 94.1763 -3.36989 -1.28338 0
M  V30 962 O 93.2803 -3.35433 -2.39913 0
M  V30 963 H 92.6213 -0.643868 -0.162266 0
M  V30 964 H 95.1513 -2.04193 0.129064 0
M  V30 965 H 95.1613 -3.73879 -1.63335 0
M  V30 966 H 93.8363 -4.12289 -0.546889 0
M  V30 967 H 92.4133 -3.10298 -2.06809 0
M  V30 968 N 94.5984 0.214957 -1.56127 0
M  V30 969 C 95.8234 0.95924 -1.83884 0
M  V30 970 C 96.2484 1.7689 -0.639644 0
M  V30 971 O 95.6064 1.76566 0.411601 0
M  V30 972 C 95.6544 1.84723 -3.09693 0
M  V30 973 O 94.7584 2.94346 -2.8885 0
M  V30 974 H 94.0994 0.27125 -0.606069 0
M  V30 975 H 96.6294 0.226276 -2.03345 0
M  V30 976 H 96.6394 2.25576 -3.39969 0
M  V30 977 H 95.3144 1.25218 -3.96602 0
M  V30 978 H 93.8914 2.57391 -2.69823 0
M  V30 979 N 96.0765 1.50051 0.48192 0
M  V30 980 C 97.0085 1.64263 1.59844 0
M  V30 981 C 98.0215 0.52451 1.54119 0
M  V30 982 O 99.2105 0.797293 1.59704 0
M  V30 983 C 96.3105 1.60102 2.98698 0
M  V30 984 C 95.4835 2.87767 3.29407 0
M  V30 985 C 94.5425 2.76397 4.47762 0
M  V30 986 O 93.5685 3.50348 4.48603 0
M  V30 987 N 94.7705 1.89222 5.48794 0
M  V30 988 H 97.5355 2.60566 1.48073 0
M  V30 989 H 95.0965 1.47379 0.670149 0
M  V30 990 H 97.0885 1.50123 3.75826 0
M  V30 991 H 95.6585 0.715798 3.04294 0
M  V30 992 H 94.8785 3.11954 2.40994 0
M  V30 993 H 96.1665 3.72365 3.4673 0
M  V30 994 H 95.5645 1.28434 5.50928 0
M  V30 995 H 94.1215 1.85154 6.24949 0
M  V30 996 N 97.5546 -0.734337 1.39446 0
M  V30 997 C 98.9656 -1.31264 1.32766 0
M  V30 998 C 99.3166 -1.96198 -0.00767497 0
M  V30 999 O 98.4416 -1.96346 -0.909796 0
M  V30 1000 C 99.0366 -2.38682 2.4045 0
M  V30 1001 C 97.5956 -2.92184 2.37288 0
M  V30 1002 C 96.7426 -1.6576 2.22304 0
M  V30 1003 H 99.6936 -0.531799 1.49525 0
M  V30 1004 H 99.7146 -3.19087 2.07276 0
M  V30 1005 H 99.2266 -1.91392 3.37625 0
M  V30 1006 H 97.3276 -3.43752 1.43754 0
M  V30 1007 H 97.4406 -3.45253 3.3217 0
M  V30 1008 H 95.8046 -1.9012 1.69489 0
M  V30 1009 H 96.5876 -1.20521 3.21449 0
M  V30 1010 N 99.0327 -1.24633 -0.964593 0
M  V30 1011 C 100.261 -1.11501 -1.74285 0
M  V30 1012 C 100.676 0.332165 -1.85855 0
M  V30 1013 O 100.033 1.22903 -1.34911 0
M  V30 1014 C 100.084 -1.75258 -3.16175 0
M  V30 1015 O 99.8047 -3.14318 -3.05182 0
M  V30 1016 C 101.306 -1.67776 -4.10324 0
M  V30 1017 H 98.5257 -0.389407 -0.546446 0
M  V30 1018 H 101.07 -1.64801 -1.21083 0
M  V30 1019 H 99.2247 -1.25954 -3.66353 0
M  V30 1020 H 99.6387 -3.4551 -3.94618 0
M  V30 1021 H 101.113 -2.17064 -5.0753 0
M  V30 1022 H 101.59 -0.639584 -4.34518 0
M  V30 1023 H 102.196 -2.16522 -3.66058 0
M  V30 1024 N 100.511 1.16574 -1.06058 0
M  V30 1025 C 101.751 1.88723 -0.78504 0
M  V30 1026 C 102.115 1.79706 0.676006 0
M  V30 1027 O 103.316 2.46757 1.06603 0
M  V30 1028 C 101.587 3.34338 -1.26304 0
M  V30 1029 S 103.146 4.24366 -1.1162 0
M  V30 1030 H 99.9638 0.651448 -0.284846 0
M  V30 1031 H 102.566 1.40732 -1.35701 0
M  V30 1032 H 101.27 3.38439 -2.32136 0
M  V30 1033 H 100.801 3.87378 -0.685719 0
M  V30 1034 H 102.816 4.96179 -0.0456539 0
M  V30 1035 N 101.989 0.842826 1.3317 0
M  V30 1036 C 103.217 0.454055 2.01856 0
M  V30 1037 C 103.632 -0.94587 1.63397 0
M  V30 1038 O 102.989 -1.61534 0.849302 0
M  V30 1039 C 103.04 0.569715 3.56982 0
M  V30 1040 O 102.761 1.91448 3.94055 0
M  V30 1041 C 104.262 0.178412 4.42941 0
M  V30 1042 H 101.482 0.17979 0.646465 0
M  V30 1043 H 104.026 1.1365 1.70012 0
M  V30 1044 H 102.181 -0.0648587 3.87346 0
M  V30 1045 H 102.595 1.90282 4.88767 0
M  V30 1046 H 104.069 0.310376 5.51127 0
M  V30 1047 H 104.546 -0.880056 4.30293 0
M  V30 1048 H 105.152 0.787579 4.17944 0
M  V30 1049 N 103.467 -1.45747 0.599634 0
M  V30 1050 C 104.713 -2.02592 0.0918643 0
M  V30 1051 C 105.046 -1.46806 -1.27128 0
M  V30 1052 O 104.321 -0.639658 -1.83681 0
M  V30 1053 C 104.604 -3.60073 0.0443398 0
M  V30 1054 C 104.457 -4.26208 1.43759 0
M  V30 1055 C 105.776 -4.35309 -0.647608 0
M  V30 1056 H 102.895 -0.736175 0.034857 0
M  V30 1057 H 105.537 -1.73694 0.770081 0
M  V30 1058 H 103.687 -3.84823 -0.533224 0
M  V30 1059 H 105.359 -4.12668 2.06162 0
M  V30 1060 H 103.602 -3.84916 2.00056 0
M  V30 1061 H 104.273 -5.35069 1.35665 0
M  V30 1062 H 106.749 -4.15805 -0.156776 0
M  V30 1063 H 105.625 -5.45038 -0.649942 0
M  V30 1064 H 105.886 -4.07598 -1.71219 0
M  V30 1065 N 104.945 -0.338344 -1.53925 0
M  V30 1066 C 106.193 0.259245 -2.0043 0
M  V30 1067 C 106.514 1.51484 -1.22791 0
M  V30 1068 O 105.784 1.93037 -0.33368 0
M  V30 1069 H 104.364 0.0987845 -0.740439 0
M  V30 1070 H 107.026 -0.458302 -1.89435 0
M  V30 1071 H 106.122 0.505334 -3.07982 0
M  V30 1072 N 106.423 1.57458 -0.0668435 0
M  V30 1073 C 107.669 1.93587 0.6043 0
M  V30 1074 C 108.002 0.946722 1.69561 0
M  V30 1075 O 107.277 -0.0248516 1.94484 0
M  V30 1076 C 107.56 3.40014 1.18585 0
M  V30 1077 C 107.413 4.49685 0.101529 0
M  V30 1078 C 108.732 3.87154 2.09284 0
M  V30 1079 H 105.851 0.703958 0.218202 0
M  V30 1080 H 108.493 1.89542 -0.131804 0
M  V30 1081 H 106.643 3.43592 1.81319 0
M  V30 1082 H 108.315 4.5823 -0.531279 0
M  V30 1083 H 106.558 4.30059 -0.568487 0
M  V30 1084 H 107.229 5.49266 0.54874 0
M  V30 1085 H 109.705 3.85551 1.56491 0
M  V30 1086 H 108.581 4.90231 2.46911 0
M  V30 1087 H 108.842 3.2481 2.99918 0
M  V30 1088 N 107.901 -0.206675 1.56239 0
M  V30 1089 C 109.147 -0.925733 1.81113 0
M  V30 1090 C 109.502 -1.81368 0.642135 0
M  V30 1091 O 108.795 -1.88126 -0.363211 0
M  V30 1092 C 108.989 -1.78675 3.09532 0
M  V30 1093 C 108.818 -0.98365 4.3881 0
M  V30 1094 C 107.588 -0.672661 5.00803 0
M  V30 1095 C 109.786 -0.341847 5.13163 0
M  V30 1096 N 107.768 0.150283 6.13716 0
M  V30 1097 C 109.139 0.343815 6.19046 0
M  V30 1098 C 111.194 -0.256392 4.97239 0
M  V30 1099 C 109.897 1.10678 7.10734 0
M  V30 1100 C 111.923 0.493142 5.8934 0
M  V30 1101 C 111.285 1.16729 6.94661 0
M  V30 1102 H 107.384 -0.318524 0.714189 0
M  V30 1103 H 109.968 -0.195378 1.93717 0
M  V30 1104 H 108.139 -2.4888 2.98183 0
M  V30 1105 H 109.871 -2.44441 3.22538 0
M  V30 1106 H 106.626 -0.994294 4.63045 0
M  V30 1107 H 107.05 0.551026 6.74754 0
M  V30 1108 H 111.692 -0.763249 4.15854 0
M  V30 1109 H 109.41 1.6251 7.91591 0
M  V30 1110 H 112.996 0.560465 5.79094 0
M  V30 1111 H 111.876 1.738 7.64698 0
M  V30 1112 N 109.379 -1.50304 -0.473955 0
M  V30 1113 C 110.628 -1.60392 -1.22301 0
M  V30 1114 C 110.941 -0.308411 -1.93153 0
M  V30 1115 O 112.147 -0.288156 -2.69966 0
M  V30 1116 C 110.603 -2.83109 -2.2221 0
M  V30 1117 C 110.211 -4.19524 -1.57173 0
M  V30 1118 C 111.955 -3.0254 -2.97775 0
M  V30 1119 C 109.862 -5.33431 -2.55353 0
M  V30 1120 H 108.792 -0.597286 -0.460179 0
M  V30 1121 H 111.443 -1.76731 -0.493803 0
M  V30 1122 H 109.825 -2.60322 -2.9841 0
M  V30 1123 H 110.999 -4.52554 -0.867824 0
M  V30 1124 H 109.314 -4.05674 -0.939002 0
M  V30 1125 H 111.911 -3.84811 -3.71248 0
M  V30 1126 H 112.254 -2.14154 -3.56992 0
M  V30 1127 H 112.787 -3.25494 -2.28688 0
M  V30 1128 H 109.526 -6.23962 -2.00878 0
M  V30 1129 H 109.046 -5.04823 -3.23904 0
M  V30 1130 H 110.725 -5.63887 -3.17239 0
M  V30 1131 N 110.857 0.726932 -1.39834 0
M  V30 1132 C 112.134 1.47902 -1.28001 0
M  V30 1133 C 112.514 2.1083 0.106789 0
M  V30 1134 O 111.862 1.99242 1.11869 0
M  V30 1135 C 112.072 2.52392 -2.41038 0
M  V30 1136 C 113.42 3.18546 -2.80737 0
M  V30 1137 O 114.444 2.62708 -2.40547 0
M  V30 1138 O 113.303 4.19604 -3.50135 0
M  V30 1139 H 110.397 0.657163 -0.502062 0
M  V30 1140 H 112.943 0.760071 -1.51727 0
M  V30 1141 H 111.715 2.04329 -3.33715 0
M  V30 1142 H 111.338 3.31837 -2.19021 0
M  V30 1143 N 112.336 1.25143 0.95797 0
M  V30 1144 C 113.582 1.09855 1.70469 0
M  V30 1145 C 113.915 -0.360187 1.90831 0
M  V30 1146 O 113.19 -1.26568 1.47685 0
M  V30 1147 C 113.473 1.8497 3.08963 0
M  V30 1148 C 113.326 3.38652 2.96032 0
M  V30 1149 C 114.645 1.63016 4.08795 0
M  V30 1150 H 111.764 0.400465 0.618706 0
M  V30 1151 H 114.406 1.53933 1.11376 0
M  V30 1152 H 112.556 1.47505 3.59409 0
M  V30 1153 H 114.228 3.85772 2.52938 0
M  V30 1154 H 112.471 3.66534 2.32025 0
M  V30 1155 H 113.142 3.8642 3.94187 0
M  V30 1156 H 115.618 1.95625 3.67247 0
M  V30 1157 H 114.494 2.18015 5.03747 0
M  V30 1158 H 114.755 0.570692 4.38401 0
M  V30 1159 N 113.814 -1.1601 1.06675 0
M  V30 1160 C 115.062 -1.86264 0.784229 0
M  V30 1161 C 115.383 -1.82328 -0.691488 0
M  V30 1162 O 114.653 -1.25947 -1.50047 0
M  V30 1163 H 113.233 -0.689621 0.28711 0
M  V30 1164 H 115.895 -1.40664 1.34906 0
M  V30 1165 H 114.991 -2.91595 1.11259 0
M  V30 1166 N 115.292 -0.849877 -1.32721 0
M  V30 1167 C 116.517 -0.463856 -2.02146 0
M  V30 1168 C 116.942 0.930449 -1.63476 0
M  V30 1169 O 116.3 1.61033 -0.832952 0
M  V30 1170 C 116.348 -0.604955 -3.55489 0
M  V30 1171 O 115.452 0.36425 -4.10788 0
M  V30 1172 H 114.793 -0.187046 -0.637111 0
M  V30 1173 H 117.323 -1.14775 -1.69375 0
M  V30 1174 H 117.333 -0.490696 -4.05038 0
M  V30 1175 H 116.008 -1.62174 -3.82978 0
M  V30 1176 H 114.585 0.206628 -3.72327 0
M  V30 1177 N 116.77 1.45427 -0.607355 0
M  V30 1178 C 118.186 1.57283 -0.270985 0
M  V30 1179 C 118.386 1.59875 1.22647 0
M  V30 1180 O 117.442 1.52893 2.00948 0
M  V30 1181 C 118.755 2.85566 -0.941952 0
M  V30 1182 C 120.303 2.9924 -0.917849 0
M  V30 1183 C 120.778 4.30293 -1.56882 0
M  V30 1184 N 122.269 4.37051 -1.5343 0
M  V30 1185 C 123.004 5.37123 -2.00715 0
M  V30 1186 N 122.5 6.43734 -2.56084 0
M  V30 1187 N 124.293 5.28479 -1.91484 0
M  V30 1188 H 116.444 1.41988 -1.57966 0
M  V30 1189 H 118.707 0.67885 -0.661715 0
M  V30 1190 H 118.413 2.8955 -1.99633 0
M  V30 1191 H 118.287 3.74322 -0.465096 0
M  V30 1192 H 120.674 2.94822 0.127984 0
M  V30 1193 H 120.755 2.11895 -1.43297 0
M  V30 1194 H 120.399 4.35469 -2.61398 0
M  V30 1195 H 120.329 5.16454 -1.02873 0
M  V30 1196 H 122.82 3.60615 -1.12982 0
M  V30 1197 H 123.133 7.16341 -2.89958 0
M  V30 1198 H 121.478 6.44485 -2.60122 0
M  V30 1199 H 124.669 4.44098 -1.47967 0
M  V30 1200 H 124.842 6.0632 -2.28648 0
M  V30 1201 N 118.248 0.346503 1.53744 0
M  V30 1202 C 119.495 -0.249104 2.00962 0
M  V30 1203 C 119.823 -1.5032 1.23426 0
M  V30 1204 O 119.078 -1.93217 0.310761 0
M  V30 1205 C 119.377 -0.605809 3.52228 0
M  V30 1206 C 119.043 0.551747 4.47512 0
M  V30 1207 C 117.705 0.86941 4.73281 0
M  V30 1208 C 120.057 1.32818 5.03993 0
M  V30 1209 C 117.385 1.96582 5.52786 0
M  V30 1210 C 119.737 2.41486 5.84694 0
M  V30 1211 C 118.401 2.73808 6.08757 0
M  V30 1212 H 117.671 -0.0911538 0.735372 0
M  V30 1213 H 120.318 0.475027 1.85515 0
M  V30 1214 H 118.623 -1.4107 3.65522 0
M  V30 1215 H 120.32 -1.07858 3.86222 0
M  V30 1216 H 116.91 0.294102 4.2759 0
M  V30 1217 H 121.094 1.09602 4.84047 0
M  V30 1218 H 116.35 2.22045 5.69654 0
M  V30 1219 H 120.524 3.02078 6.27473 0
M  V30 1220 H 118.151 3.58892 6.7015 0
M  V30 1221 N 119.726 -1.57421 0.075193 0
M  V30 1222 C 120.636 -2.1642 -0.905511 0
M  V30 1223 C 121.652 -1.12828 -1.32461 0
M  V30 1224 O 122.828 -1.45109 -1.39661 0
M  V30 1225 C 119.893 -2.71693 -2.15369 0
M  V30 1226 C 118.954 -3.90171 -1.79068 0
M  V30 1227 C 118.187 -4.42798 -2.97936 0
M  V30 1228 O 118.41 -3.94416 -4.12058 0
M  V30 1229 O 117.344 -5.34085 -2.77555 0
M  V30 1230 H 121.17 -3.00588 -0.433626 0
M  V30 1231 H 118.755 -1.48664 -0.148067 0
M  V30 1232 H 120.637 -3.07104 -2.88557 0
M  V30 1233 H 119.312 -1.90582 -2.61649 0
M  V30 1234 H 118.219 -3.59606 -1.03122 0
M  V30 1235 H 119.552 -4.72584 -1.37569 0
M  V30 1236 N 121.204 0.198386 -1.56346 0
M  V30 1237 C 122.432 0.935572 -1.84539 0
M  V30 1238 C 122.847 1.76989 -0.657281 0
M  V30 1239 O 122.204 1.78626 0.374043 0
M  V30 1240 C 122.255 1.8344 -3.11499 0
M  V30 1241 O 121.976 1.03377 -4.25728 0
M  V30 1242 C 123.477 2.68355 -3.52846 0
M  V30 1243 H 120.697 0.273126 -0.612897 0
M  V30 1244 H 123.241 0.20663 -2.03453 0
M  V30 1245 H 121.396 2.51701 -2.94492 0
M  V30 1246 H 121.81 1.64599 -4.98003 0
M  V30 1247 H 123.284 3.27085 -4.44657 0
M  V30 1248 H 123.761 3.41901 -2.75681 0
M  V30 1249 H 124.367 2.05471 -3.72373 0
M  V30 1250 N 122.682 1.50554 0.465978 0
M  V30 1251 C 123.592 1.72585 1.58907 0
M  V30 1252 C 124.608 0.60911 1.6299 0
M  V30 1253 O 125.784 0.88804 1.80765 0
M  V30 1254 C 122.849 1.81995 2.95091 0
M  V30 1255 C 121.91 3.05751 3.01355 0
M  V30 1256 C 121.143 3.14702 4.31043 0
M  V30 1257 O 121.366 2.30313 5.21835 0
M  V30 1258 O 120.3 4.07468 4.43005 0
M  V30 1259 H 124.126 2.67799 1.43239 0
M  V30 1260 H 121.711 1.34711 0.646013 0
M  V30 1261 H 123.593 1.90335 3.75966 0
M  V30 1262 H 122.268 0.899659 3.10947 0
M  V30 1263 H 121.175 3.02908 2.19539 0
M  V30 1264 H 122.508 3.97375 2.90437 0
M  V30 1265 N 124.16 -0.719506 1.40217 0
M  V30 1266 C 125.107 -1.83359 1.40172 0
M  V30 1267 C 126.077 -1.64065 0.259206 0
M  V30 1268 O 127.262 -1.85254 0.456677 0
M  V30 1269 C 124.402 -3.2103 1.26624 0
M  V30 1270 C 123.515 -3.51923 2.50548 0
M  V30 1271 C 122.65 -4.79079 2.29471 0
M  V30 1272 C 121.689 -5.02863 3.48992 0
M  V30 1273 N 120.826 -6.2123 3.27135 0
M  V30 1274 H 125.666 -1.82733 2.35399 0
M  V30 1275 H 123.203 -0.892688 1.16917 0
M  V30 1276 H 125.161 -4.00524 1.16776 0
M  V30 1277 H 123.791 -3.20895 0.350176 0
M  V30 1278 H 122.843 -2.67014 2.70939 0
M  V30 1279 H 124.155 -3.6541 3.39525 0
M  V30 1280 H 123.309 -5.66582 2.16955 0
M  V30 1281 H 122.048 -4.67794 1.37913 0
M  V30 1282 H 121.053 -4.13816 3.6199 0
M  V30 1283 H 122.278 -5.16023 4.41472 0
M  V30 1284 H 120.224 -6.11204 2.38256 0
M  V30 1285 H 120.141 -6.35375 4.09675 0
M  V30 1286 H 121.409 -7.11532 3.18344 0
M  V30 1287 N 125.638 -1.25649 -0.95132 0
M  V30 1288 C 126.586 -1.06118 -2.06982 0
M  V30 1289 C 127.58 0.00889169 -1.69398 0
M  V30 1290 O 128.786 -0.146988 -1.79399 0
M  V30 1291 H 125.161 -0.326248 -0.677544 0
M  V30 1292 H 127.132 -2.00932 -2.2061 0
M  V30 1293 C 125.881 -0.700145 -3.40578 0
M  V30 1294 H 125.204 -1.51537 -3.69968 0
M  V30 1295 H 126.644 -0.603211 -4.19687 0
M  V30 1296 C 125.103 0.59403 -3.31622 0
M  V30 1297 O 125.633 1.63522 -3.66911 0
M  V30 1298 N 123.839 0.58089 -2.84735 0
M  V30 1299 H 123.386 -0.266783 -2.56215 0
M  V30 1300 H 123.344 1.44695 -2.79125 0
M  V30 1301 N 127.117 1.15442 -1.07289 0
M  V30 1302 C 128.065 2.22225 -0.686952 0
M  V30 1303 C 129.059 1.66688 0.30193 0
M  V30 1304 O 130.265 1.79236 0.165712 0
M  V30 1305 H 126.64 0.723783 -0.204064 0
M  V30 1306 H 128.611 2.52056 -1.5972 0
M  V30 1307 C 127.36 3.47556 -0.100149 0
M  V30 1308 H 126.683 3.90612 -0.852211 0
M  V30 1309 H 128.123 4.23794 0.132235 0
M  V30 1310 C 126.582 3.16337 1.159 0
M  V30 1311 O 127.112 3.33074 2.24555 0
M  V30 1312 N 125.318 2.70385 1.06491 0
M  V30 1313 H 124.865 2.56966 0.180668 0
M  V30 1314 H 124.823 2.49871 1.90819 0
M  V30 1315 N 128.595 0.856903 1.32268 0
M  V30 1316 C 129.843 0.460474 1.96784 0
M  V30 1317 C 130.164 -0.987701 1.68135 0
M  V30 1318 O 129.434 -1.69058 0.989765 0
M  V30 1319 H 128.014 0.167289 0.728027 0
M  V30 1320 H 130.676 1.09383 1.61312 0
M  V30 1321 H 129.772 0.60739 3.06133 0
M  V30 1322 N 130.073 -1.45103 0.615059 0
M  V30 1323 C 131.036 -2.29025 -0.0895485 0
M  V30 1324 C 132.036 -1.40174 -0.787906 0
M  V30 1325 O 133.226 -1.62217 -0.634933 0
M  V30 1326 C 130.358 -3.21376 -1.13711 0
M  V30 1327 H 131.551 -2.92807 0.648382 0
M  V30 1328 H 129.104 -1.51749 0.374444 0
M  V30 1329 H 129.839 -2.6241 -1.90556 0
M  V30 1330 H 129.624 -3.86834 -0.640475 0
M  V30 1331 H 131.114 -3.84459 -1.63036 0
M  V30 1332 N 131.551 -0.354651 -1.53558 0
M  V30 1333 C 132.799 0.237972 -2.00694 0
M  V30 1334 C 133.12 1.50173 -1.24391 0
M  V30 1335 O 132.39 1.92673 -0.354135 0
M  V30 1336 H 130.97 0.0909256 -0.741446 0
M  V30 1337 H 133.632 -0.478368 -1.88938 0
M  V30 1338 H 132.728 0.47264 -3.085 0
M  V30 1339 N 133.029 1.57378 -0.0835403 0
M  V30 1340 C 134.259 1.97975 0.590713 0
M  V30 1341 C 134.667 0.961083 1.62972 0
M  V30 1342 O 134.01 -0.0590879 1.83605 0
M  V30 1343 C 134.072 3.34915 1.3066 0
M  V30 1344 C 133.736 4.55069 0.419698 0
M  V30 1345 C 134.733 5.18868 -0.32749 0
M  V30 1346 C 132.418 5.0114 0.341137 0
M  V30 1347 C 134.412 6.27098 -1.14134 0
M  V30 1348 C 132.099 6.0924 -0.476374 0
M  V30 1349 C 133.097 6.72083 -1.21627 0
M  V30 1350 O 132.785 7.781 -2.02028 0
M  V30 1351 H 132.517 0.655818 0.163947 0
M  V30 1352 H 135.071 2.04807 -0.156021 0
M  V30 1353 H 133.301 3.24733 2.09966 0
M  V30 1354 H 134.99 3.60037 1.87424 0
M  V30 1355 H 135.756 4.84211 -0.276459 0
M  V30 1356 H 131.635 4.51996 0.90668 0
M  V30 1357 H 135.179 6.7608 -1.71935 0
M  V30 1358 H 131.076 6.43329 -0.528927 0
M  V30 1359 H 131.844 7.95034 -1.94586 0
M  V30 1360 N 134.507 -0.190092 1.56449 0
M  V30 1361 C 135.754 -0.909705 1.80916 0
M  V30 1362 C 136.082 -1.83047 0.657583 0
M  V30 1363 O 135.337 -1.92428 -0.356356 0
M  V30 1364 C 135.636 -1.75382 3.1141 0
M  V30 1365 C 135.302 -0.983606 4.40041 0
M  V30 1366 C 133.964 -0.770967 4.74984 0
M  V30 1367 C 136.316 -0.442024 5.19322 0
M  V30 1368 C 133.644 -0.0053448 5.867 0
M  V30 1369 C 135.996 0.310412 6.31838 0
M  V30 1370 C 134.66 0.534023 6.6536 0
M  V30 1371 H 133.93 -0.332885 0.662019 0
M  V30 1372 H 136.577 -0.175762 1.90692 0
M  V30 1373 H 134.882 -2.55659 2.96893 0
M  V30 1374 H 136.579 -2.31331 3.27547 0
M  V30 1375 H 133.169 -1.15936 4.12622 0
M  V30 1376 H 137.353 -0.593693 4.92736 0
M  V30 1377 H 132.609 0.177825 6.11141 0
M  V30 1378 H 136.783 0.737419 6.92485 0
M  V30 1379 H 134.41 1.12918 7.51767 0
M  V30 1380 N 135.985 -1.50799 -0.457987 0
M  V30 1381 C 136.915 -1.73553 -1.5621 0
M  V30 1382 C 137.896 -0.584774 -1.59732 0
M  V30 1383 O 139.081 -0.825314 -1.7579 0
M  V30 1384 C 136.211 -1.84169 -2.94447 0
M  V30 1385 C 135.165 -2.99461 -3.0579 0
M  V30 1386 C 134.491 -2.95235 -4.45803 0
M  V30 1387 C 135.791 -4.39766 -2.81786 0
M  V30 1388 H 137.485 -2.66 -1.37421 0
M  V30 1389 H 135.031 -1.28002 -0.659662 0
M  V30 1390 H 136.984 -1.98672 -3.71628 0
M  V30 1391 H 135.708 -0.883545 -3.14422 0
M  V30 1392 H 134.367 -2.8463 -2.31044 0
M  V30 1393 H 134.015 -1.97239 -4.62715 0
M  V30 1394 H 133.715 -3.72642 -4.54326 0
M  V30 1395 H 135.239 -3.11803 -5.24987 0
M  V30 1396 H 136.653 -4.55054 -3.4871 0
M  V30 1397 H 135.05 -5.18722 -3.0174 0
M  V30 1398 H 136.12 -4.51229 -1.7754 0
M  V30 1399 N 137.463 0.71206 -1.40597 0
M  V30 1400 C 138.373 1.8562 -1.43466 0
M  V30 1401 C 139.389 1.70902 -0.326902 0
M  V30 1402 O 140.565 1.93105 -0.572043 0
M  V30 1403 C 137.63 3.21451 -1.29884 0
M  V30 1404 C 136.691 3.48398 -2.50833 0
M  V30 1405 C 135.924 4.77749 -2.3789 0
M  V30 1406 O 136.147 5.53089 -1.39459 0
M  V30 1407 O 135.081 5.05111 -3.27333 0
M  V30 1408 H 138.907 1.86155 -2.39958 0
M  V30 1409 H 136.492 0.86295 -1.21957 0
M  V30 1410 H 138.374 4.02579 -1.24531 0
M  V30 1411 H 137.049 3.21636 -0.364997 0
M  V30 1412 H 135.956 2.67265 -2.61763 0
M  V30 1413 H 137.289 3.53014 -3.4299 0
M  V30 1414 N 138.941 1.26152 0.944643 0
M  V30 1415 C 139.891 1.04081 2.02857 0
M  V30 1416 C 140.875 -0.0256555 1.6088 0
M  V30 1417 O 142.067 0.190884 1.75968 0
M  V30 1418 C 139.196 0.672118 3.36656 0
M  V30 1419 C 138.282 1.77586 3.85128 0
M  V30 1420 N 138.673 3.01272 4.06287 0
M  V30 1421 C 136.971 1.65867 4.1401 0
M  V30 1422 C 137.672 3.72983 4.46384 0
M  V30 1423 N 136.648 3.00653 4.52889 0
M  V30 1424 H 140.45 1.97968 2.17223 0
M  V30 1425 H 137.964 1.16618 1.13022 0
M  V30 1426 H 139.961 0.495166 4.13949 0
M  V30 1427 H 138.621 -0.259307 3.23663 0
M  V30 1428 H 139.632 3.37213 3.93075 0
M  V30 1429 H 136.309 0.796907 4.09824 0
M  V30 1430 H 137.699 4.792 4.70975 0
M  V30 1431 N 140.419 -1.14872 1.07899 0
M  V30 1432 C 141.349 -2.2193 0.725887 0
M  V30 1433 C 142.33 -1.67622 -0.28927 0
M  V30 1434 O 143.515 -1.93533 -0.160787 0
M  V30 1435 C 140.645 -3.47061 0.128856 0
M  V30 1436 C 139.599 -4.14363 1.07178 0
M  V30 1437 C 138.925 -5.33636 0.337229 0
M  V30 1438 C 140.225 -4.63492 2.40775 0
M  V30 1439 H 141.919 -2.51724 1.62097 0
M  V30 1440 H 139.465 -1.20991 0.780838 0
M  V30 1441 H 141.418 -4.21199 -0.130147 0
M  V30 1442 H 140.142 -3.16617 -0.80134 0
M  V30 1443 H 138.801 -3.42173 1.3158 0
M  V30 1444 H 138.449 -4.99449 -0.596606 0
M  V30 1445 H 138.149 -5.79609 0.965788 0
M  V30 1446 H 139.673 -6.10539 0.0861567 0
M  V30 1447 H 141.087 -5.2913 2.20669 0
M  V30 1448 H 139.484 -5.20148 2.99276 0
M  V30 1449 H 140.554 -3.78834 3.02676 0
M  V30 1450 N 141.898 -0.863906 -1.31812 0
M  V30 1451 C 142.861 -0.320212 -2.26952 0
M  V30 1452 C 143.861 0.525369 -1.51975 0
M  V30 1453 O 145.051 0.335547 -1.70938 0
M  V30 1454 C 142.183 0.545919 -3.365 0
M  V30 1455 H 143.376 -1.16004 -2.76556 0
M  V30 1456 H 140.929 -0.638995 -1.42641 0
M  V30 1457 H 141.664 1.40718 -2.92179 0
M  V30 1458 H 141.449 -0.0594674 -3.92055 0
M  V30 1459 H 142.939 0.918796 -4.07367 0
M  V30 1460 N 143.376 1.44774 -0.622745 0
M  V30 1461 C 144.623 2.02121 -0.1239 0
M  V30 1462 C 144.951 1.48915 1.25118 0
M  V30 1463 O 144.206 0.660045 1.84233 0
M  V30 1464 C 144.505 3.57364 -0.0508323 0
M  V30 1465 C 144.171 4.29787 -1.36358 0
M  V30 1466 C 142.833 4.4929 -1.72314 0
M  V30 1467 C 145.185 4.71062 -2.23048 0
M  V30 1468 C 142.513 5.07325 -2.94682 0
M  V30 1469 C 144.865 5.30452 -3.44679 0
M  V30 1470 C 143.529 5.48175 -3.80868 0
M  V30 1471 H 142.799 0.739612 -0.0453381 0
M  V30 1472 H 145.446 1.73648 -0.807389 0
M  V30 1473 H 143.751 3.85202 0.715991 0
M  V30 1474 H 145.448 3.99456 0.351533 0
M  V30 1475 H 142.038 4.14932 -1.07375 0
M  V30 1476 H 146.222 4.55715 -1.96565 0
M  V30 1477 H 141.478 5.19235 -3.22809 0
M  V30 1478 H 145.652 5.61385 -4.12092 0
M  V30 1479 H 143.279 5.92912 -4.75773 0
M  V30 1480 N 144.854 0.36279 1.53368 0
M  V30 1481 C 145.801 -0.485008 2.25646 0
M  V30 1482 C 146.771 -1.07982 1.2621 0
M  V30 1483 O 147.956 -1.11284 1.54986 0
M  V30 1484 C 145.096 -1.62023 3.04701 0
M  V30 1485 C 144.209 -1.05086 4.19024 0
M  V30 1486 C 143.344 -2.15496 4.85525 0
M  V30 1487 C 142.383 -1.5601 5.91884 0
M  V30 1488 N 141.52 -2.60241 6.52088 0
M  V30 1489 H 146.36 0.137864 2.97681 0
M  V30 1490 H 143.897 0.0798061 1.46883 0
M  V30 1491 H 145.855 -2.28887 3.48807 0
M  V30 1492 H 144.485 -2.2138 2.34927 0
M  V30 1493 H 143.537 -0.27259 3.79422 0
M  V30 1494 H 144.849 -0.575926 4.95464 0
M  V30 1495 H 144.003 -2.90186 5.32801 0
M  V30 1496 H 142.742 -2.66341 4.08551 0
M  V30 1497 H 141.747 -0.798338 5.43973 0
M  V30 1498 H 142.972 -1.05994 6.70777 0
M  V30 1499 H 140.918 -3.10304 5.77968 0
M  V30 1500 H 140.835 -2.17426 7.24059 0
M  V30 1501 H 142.103 -3.34641 7.04014 0
M  V30 1502 N 146.332 -1.57332 0.0918853 0
M  V30 1503 C 147.58 -1.93853 -0.571446 0
M  V30 1504 C 147.901 -0.974212 -1.6892 0
M  V30 1505 O 147.171 -0.0257254 -1.95883 0
M  V30 1506 H 145.751 -0.715666 -0.214082 0
M  V30 1507 H 148.413 -1.94287 0.154464 0
M  V30 1508 H 147.509 -2.96191 -0.983729 0
M  V30 1509 N 147.81 0.181792 -1.56548 0
M  V30 1510 C 149.038 0.915947 -1.85521 0
M  V30 1511 C 149.453 1.76282 -0.676016 0
M  V30 1512 O 148.81 1.79012 0.355077 0
M  V30 1513 C 148.861 1.80126 -3.13427 0
M  V30 1514 O 148.582 0.988562 -4.26801 0
M  V30 1515 C 150.083 2.64597 -3.55673 0
M  V30 1516 H 147.303 0.26661 -0.61576 0
M  V30 1517 H 149.847 0.185039 -2.03661 0
M  V30 1518 H 148.002 2.48563 -2.97145 0
M  V30 1519 H 148.416 1.59308 -4.99721 0
M  V30 1520 H 149.89 3.2235 -4.48101 0
M  V30 1521 H 150.367 3.38958 -2.79292 0
M  V30 1522 H 150.973 2.0151 -3.74532 0
M  V30 1523 N 149.288 1.51039 0.449983 0
M  V30 1524 C 150.235 1.71439 1.54523 0
M  V30 1525 C 151.205 0.555871 1.56522 0
M  V30 1526 O 152.39 0.788871 1.73728 0
M  V30 1527 C 149.53 1.83384 2.92343 0
M  V30 1528 C 148.643 3.10873 2.9997 0
M  V30 1529 C 147.778 3.13488 4.28834 0
M  V30 1530 C 146.817 4.35343 4.30282 0
M  V30 1531 N 145.954 4.35579 5.5065 0
M  V30 1532 H 150.794 2.64934 1.36433 0
M  V30 1533 H 148.331 1.31312 0.662982 0
M  V30 1534 H 150.289 1.88291 3.72293 0
M  V30 1535 H 148.919 0.933086 3.0902 0
M  V30 1536 H 147.971 3.15336 2.12761 0
M  V30 1537 H 149.283 4.00814 2.96901 0
M  V30 1538 H 148.437 3.17241 5.17149 0
M  V30 1539 H 147.176 2.21414 4.34543 0
M  V30 1540 H 146.181 4.3178 3.40362 0
M  V30 1541 H 147.406 5.28668 4.26248 0
M  V30 1542 H 145.352 3.46369 5.57104 0
M  V30 1543 H 145.269 5.19313 5.49409 0
M  V30 1544 H 146.537 4.43507 6.41032 0
M  V30 1545 N 150.766 -0.704594 1.40972 0
M  V30 1546 C 151.714 -1.83994 1.42299 0
M  V30 1547 C 152.708 -1.66684 0.302111 0
M  V30 1548 O 153.914 -1.73655 0.473697 0
M  V30 1549 H 150.289 -0.606171 0.44504 0
M  V30 1550 H 152.26 -1.79992 2.38003 0
M  V30 1551 C 151.009 -3.21946 1.31323 0
M  V30 1552 H 150.332 -3.35878 2.16855 0
M  V30 1553 H 151.772 -4.01491 1.36311 0
M  V30 1554 C 150.231 -3.36891 0.0245977 0
M  V30 1555 O 150.761 -3.90687 -0.934153 0
M  V30 1556 N 148.967 -2.90559 -0.0485243 0
M  V30 1557 H 148.514 -2.46968 0.732419 0
M  V30 1558 H 148.472 -3.00937 -0.910171 0
M  V30 1559 N 152.244 -1.26651 -0.937939 0
M  V30 1560 C 153.66 -1.03834 -1.21205 0
M  V30 1561 C 153.86 0.234502 -2.00131 0
M  V30 1562 O 152.916 0.942767 -2.3424 0
M  V30 1563 C 154.229 -2.27167 -1.97017 0
M  V30 1564 C 155.777 -2.32101 -2.09996 0
M  V30 1565 C 156.252 -3.55136 -2.8921 0
M  V30 1566 N 157.743 -3.55632 -2.96783 0
M  V30 1567 C 158.478 -4.475 -3.58512 0
M  V30 1568 N 157.974 -5.4966 -4.21717 0
M  V30 1569 N 159.767 -4.35145 -3.55816 0
M  V30 1570 H 151.918 -2.08398 -0.410391 0
M  V30 1571 H 154.181 -0.916031 -0.244114 0
M  V30 1572 H 153.887 -3.19765 -1.46434 0
M  V30 1573 H 153.761 -2.31672 -2.97671 0
M  V30 1574 H 156.148 -1.40015 -2.59769 0
M  V30 1575 H 156.229 -2.31605 -1.08594 0
M  V30 1576 H 155.873 -4.47553 -2.40123 0
M  V30 1577 H 155.803 -3.5288 -3.90875 0
M  V30 1578 H 158.294 -2.81743 -2.51852 0
M  V30 1579 H 158.607 -6.15943 -4.66727 0
M  V30 1580 H 156.952 -5.53514 -4.20294 0
M  V30 1581 H 160.143 -3.5455 -3.05634 0
M  V30 1582 H 160.316 -5.06934 -4.03636 0
M  V30 1583 N 153.722 1.14298 -1.08507 0
M  V30 1584 C 155.133 1.66926 -0.836227 0
M  V30 1585 C 155.484 1.85576 0.63686 0
M  V30 1586 O 154.609 1.56767 1.49175 0
M  V30 1587 C 155.204 3.03219 -1.51142 0
M  V30 1588 C 153.763 3.52876 -1.30979 0
M  V30 1589 C 152.91 2.2833 -1.57356 0
M  V30 1590 H 155.861 0.983491 -1.24552 0
M  V30 1591 H 155.882 3.68726 -0.939211 0
M  V30 1592 H 155.394 2.89612 -2.58353 0
M  V30 1593 H 153.495 3.71703 -0.258429 0
M  V30 1594 H 153.608 4.33586 -2.03814 0
M  V30 1595 H 151.972 2.34454 -0.995164 0
M  V30 1596 H 152.755 2.17298 -2.65775 0
M  V30 1597 N 155.201 0.870884 1.31352 0
M  V30 1598 C 156.449 0.48132 1.96285 0
M  V30 1599 C 156.77 -0.969813 1.69173 0
M  V30 1600 O 156.04 -1.67998 1.00764 0
M  V30 1601 H 154.62 0.175002 0.726212 0
M  V30 1602 H 157.282 1.11087 1.60143 0
M  V30 1603 H 156.378 0.639825 3.05471 0
M  V30 1604 N 156.679 -1.44442 0.630414 0
M  V30 1605 C 157.904 -2.06927 0.139944 0
M  V30 1606 C 158.329 -1.46795 -1.17613 0
M  V30 1607 O 157.687 -0.569144 -1.72135 0
M  V30 1608 C 157.735 -3.6058 0.0379581 0
M  V30 1609 O 156.839 -3.99937 -1.0062 0
M  V30 1610 H 156.18 -0.658608 0.0844483 0
M  V30 1611 H 158.71 -1.85327 0.866891 0
M  V30 1612 H 158.72 -4.07714 -0.152856 0
M  V30 1613 H 157.395 -4.03728 0.998809 0
M  V30 1614 H 155.972 -3.64436 -0.79001 0
M  V30 1615 N 158.157 -0.370918 -1.53173 0
M  V30 1616 C 159.12 0.460778 -2.24521 0
M  V30 1617 C 160.12 1.00536 -1.25496 0
M  V30 1618 O 161.31 0.890266 -1.49733 0
M  V30 1619 C 158.442 1.64457 -2.98608 0
M  V30 1620 H 159.635 -0.163613 -2.99453 0
M  V30 1621 H 157.188 -0.122699 -1.55818 0
M  V30 1622 H 157.923 2.30691 -2.2793 0
M  V30 1623 H 157.708 1.26099 -3.7127 0
M  V30 1624 H 159.198 2.23384 -3.5283 0
M  V30 1625 N 159.635 1.57281 -0.100228 0
M  V30 1626 C 160.565 2.17328 0.853857 0
M  V30 1627 C 161.546 1.10804 1.2906 0
M  V30 1628 O 162.731 1.38963 1.35657 0
M  V30 1629 C 159.861 2.75772 2.11109 0
M  V30 1630 C 158.815 3.87713 1.81279 0
M  V30 1631 C 158.141 4.32882 3.13874 0
M  V30 1632 C 159.441 5.10677 1.09574 0
M  V30 1633 H 161.135 2.97305 0.353545 0
M  V30 1634 H 158.681 1.43009 0.168612 0
M  V30 1635 H 160.634 3.16433 2.78296 0
M  V30 1636 H 159.358 1.93057 2.63432 0
M  V30 1637 H 158.017 3.476 1.16489 0
M  V30 1638 H 157.665 3.47051 3.64095 0
M  V30 1639 H 157.365 5.08358 2.94696 0
M  V30 1640 H 158.889 4.7618 3.82211 0
M  V30 1641 H 160.303 5.48474 1.66879 0
M  V30 1642 H 158.7 5.91615 1.00557 0
M  V30 1643 H 159.77 4.84835 0.0793299 0
M  V30 1644 N 161.113 -0.173488 1.56642 0
M  V30 1645 C 162.023 -1.23482 1.99473 0
M  V30 1646 C 163.039 -1.48567 0.905752 0
M  V30 1647 O 164.215 -1.60758 1.21321 0
M  V30 1648 C 161.28 -2.55444 2.34413 0
M  V30 1649 C 160.341 -2.38241 3.57127 0
M  V30 1650 C 159.574 -3.63909 3.90392 0
M  V30 1651 O 159.797 -4.68996 3.24653 0
M  V30 1652 O 158.731 -3.58149 4.83749 0
M  V30 1653 H 162.557 -0.901279 2.90018 0
M  V30 1654 H 160.142 -0.380185 1.44482 0
M  V30 1655 H 162.024 -3.33292 2.57865 0
M  V30 1656 H 160.699 -2.88382 1.4703 0
M  V30 1657 H 159.606 -1.58431 3.38896 0
M  V30 1658 H 160.939 -2.10228 4.45045 0
M  V30 1659 N 162.591 -1.51276 -0.441967 0
M  V30 1660 C 163.538 -1.72256 -1.53612 0
M  V30 1661 C 164.508 -0.564164 -1.56225 0
M  V30 1662 O 165.693 -0.798074 -1.73307 0
M  V30 1663 C 162.833 -1.84932 -2.91366 0
M  V30 1664 C 161.946 -3.12459 -2.98317 0
M  V30 1665 C 161.081 -3.15758 -4.27166 0
M  V30 1666 C 160.12 -4.37619 -4.27967 0
M  V30 1667 N 159.257 -4.38493 -5.48333 0
M  V30 1668 H 164.097 -2.65654 -1.35026 0
M  V30 1669 H 161.634 -1.31662 -0.656009 0
M  V30 1670 H 163.592 -1.90263 -3.7129 0
M  V30 1671 H 162.222 -0.949461 -3.08521 0
M  V30 1672 H 161.274 -3.1646 -2.11086 0
M  V30 1673 H 162.586 -4.02382 -2.94771 0
M  V30 1674 H 161.74 -3.19979 -5.15459 0
M  V30 1675 H 160.479 -2.23715 -4.33362 0
M  V30 1676 H 159.484 -4.33579 -3.38067 0
M  V30 1677 H 160.709 -5.30921 -4.23438 0
M  V30 1678 H 158.655 -3.49318 -5.55259 0
M  V30 1679 H 158.572 -5.22219 -5.46647 0
M  V30 1680 H 159.84 -4.469 -6.38671 0
M  V30 1681 N 164.069 0.697108 -1.41344 0
M  V30 1682 C 164.979 1.84088 -1.45427 0
M  V30 1683 C 165.995 1.70545 -0.34501 0
M  V30 1684 O 167.171 1.92488 -0.592492 0
M  V30 1685 C 164.236 3.20056 -1.33286 0
M  V30 1686 C 163.297 3.45718 -2.54514 0
M  V30 1687 C 162.53 4.75199 -2.42944 0
M  V30 1688 O 162.753 5.51579 -1.45318 0
M  V30 1689 O 161.687 5.0161 -3.32672 0
M  V30 1690 H 165.513 1.836 -2.41919 0
M  V30 1691 H 163.098 0.849966 -1.22866 0
M  V30 1692 H 164.98 4.01236 -1.28794 0
M  V30 1693 H 163.655 3.2123 -0.39909 0
M  V30 1694 H 162.562 2.64474 -2.64583 0
M  V30 1695 H 163.895 3.49356 -3.46715 0
M  V30 1696 N 165.547 1.27147 0.931209 0
M  V30 1697 C 166.793 1.13446 1.68101 0
M  V30 1698 C 167.126 -0.319628 1.91552 0
M  V30 1699 O 166.401 -1.23407 1.50336 0
M  V30 1700 C 166.684 1.91482 3.0497 0
M  V30 1701 C 166.537 3.44855 2.88782 0
M  V30 1702 C 167.856 1.71651 4.05246 0
M  V30 1703 H 164.975 0.413498 0.610072 0
M  V30 1704 H 167.617 1.56261 1.08086 0
M  V30 1705 H 165.767 1.55095 3.56199 0
M  V30 1706 H 167.439 3.9105 2.44698 0
M  V30 1707 H 165.682 3.71373 2.24198 0
M  V30 1708 H 166.353 3.94694 3.85902 0
M  V30 1709 H 168.829 2.0337 3.63015 0
M  V30 1710 H 167.705 2.28651 4.99009 0
M  V30 1711 H 167.966 0.663555 4.37092 0
M  V30 1712 N 167.025 -1.13721 1.09112 0
M  V30 1713 C 167.935 -2.22638 0.73957 0
M  V30 1714 C 168.951 -1.72091 -0.257068 0
M  V30 1715 O 170.127 -2.01155 -0.0992154 0
M  V30 1716 C 167.192 -3.46322 0.16191 0
M  V30 1717 C 166.253 -4.11775 1.21408 0
M  V30 1718 C 165.486 -5.29555 0.663891 0
M  V30 1719 O 165.709 -5.68077 -0.514274 0
M  V30 1720 O 164.643 -5.84973 1.41738 0
M  V30 1721 H 168.469 -2.55074 1.64836 0
M  V30 1722 H 166.054 -1.21791 0.865289 0
M  V30 1723 H 167.936 -4.21107 -0.157073 0
M  V30 1724 H 166.611 -3.15593 -0.719932 0
M  V30 1725 H 165.518 -3.3883 1.58571 0
M  V30 1726 H 166.851 -4.46627 2.06845 0
M  V30 1727 N 168.503 -0.877838 -1.30888 0
M  V30 1728 C 169.728 -0.506629 -2.01117 0
M  V30 1729 C 170.153 0.895564 -1.65412 0
M  V30 1730 O 169.511 1.5923 -0.866922 0
M  V30 1731 C 169.559 -0.680223 -3.54126 0
M  V30 1732 O 168.663 0.277033 -4.11468 0
M  V30 1733 H 168.004 -0.200518 -0.633 0
M  V30 1734 H 170.534 -1.18342 -1.66902 0
M  V30 1735 H 170.544 -0.5765 -4.03907 0
M  V30 1736 H 169.219 -1.70261 -3.79452 0
M  V30 1737 H 167.796 0.127606 -3.72682 0
M  V30 1738 N 169.982 1.44106 -0.638065 0
M  V30 1739 C 170.915 2.27924 0.112161 0
M  V30 1740 C 171.893 1.38945 0.844574 0
M  V30 1741 O 173.077 1.68386 0.847248 0
M  V30 1742 C 170.204 3.18029 1.16512 0
M  V30 1743 C 169.25 4.23163 0.532458 0
M  V30 1744 S 170.083 5.31131 -0.682666 0
M  V30 1745 C 171.239 6.24805 0.37013 0
M  V30 1746 H 171.472 2.91205 -0.598887 0
M  V30 1747 H 169.005 1.48394 -0.426441 0
M  V30 1748 H 170.963 3.70492 1.76766 0
M  V30 1749 H 169.624 2.53955 1.8484 0
M  V30 1750 H 168.817 4.86252 1.32571 0
M  V30 1751 H 168.419 3.74 0.00437644 0
M  V30 1752 H 170.711 6.66042 1.24071 0
M  V30 1753 H 171.654 7.07741 -0.225349 0
M  V30 1754 H 172.062 5.60154 0.699141 0
M  V30 1755 N 171.46 0.379036 1.52974 0
M  V30 1756 C 172.708 -0.206014 2.01047 0
M  V30 1757 C 173.029 -1.48175 1.26765 0
M  V30 1758 O 172.299 -1.92085 0.384743 0
M  V30 1759 H 170.879 -0.0791184 0.742798 0
M  V30 1760 H 173.541 0.508366 1.88153 0
M  V30 1761 H 172.637 -0.423501 3.09213 0
M  V30 1762 N 172.938 -1.57226 0.108567 0
M  V30 1763 C 173.901 -2.13602 -0.831082 0
M  V30 1764 C 174.901 -1.06841 -1.20173 0
M  V30 1765 O 176.091 -1.32666 -1.12895 0
M  V30 1766 C 173.223 -2.66769 -2.12243 0
M  V30 1767 H 174.416 -2.97951 -0.341317 0
M  V30 1768 H 171.969 -1.55667 -0.14057 0
M  V30 1769 H 172.704 -1.85977 -2.65675 0
M  V30 1770 H 172.489 -3.44839 -1.86625 0
M  V30 1771 H 173.979 -3.10332 -2.79435 0
M  V30 1772 N 174.416 0.165178 -1.56732 0
M  V30 1773 C 175.366 1.20917 -1.93295 0
M  V30 1774 C 176.35 1.39488 -0.801985 0
M  V30 1775 O 177.542 1.41356 -1.06525 0
M  V30 1776 C 174.671 2.54718 -2.3016 0
M  V30 1777 C 173.757 2.39815 -3.49785 0
M  V30 1778 N 174.148 1.94637 -4.66851 0
M  V30 1779 C 172.446 2.70623 -3.54513 0
M  V30 1780 C 173.147 1.92344 -5.4898 0
M  V30 1781 N 172.123 2.34978 -4.9019 0
M  V30 1782 H 175.925 0.851675 -2.81289 0
M  V30 1783 H 173.439 0.373399 -1.58049 0
M  V30 1784 H 175.436 3.30165 -2.54552 0
M  V30 1785 H 174.096 2.91265 -1.43508 0
M  V30 1786 H 175.107 1.6488 -4.90953 0
M  V30 1787 H 171.784 3.11167 -2.78354 0
M  V30 1788 H 173.174 1.5906 -6.52801 0
M  V30 1789 N 175.894 1.51508 0.433938 0
M  V30 1790 C 176.824 1.76016 1.53429 0
M  V30 1791 C 177.805 0.610112 1.58782 0
M  V30 1792 O 178.99 0.853177 1.74455 0
M  V30 1793 C 176.12 1.88831 2.9148 0
M  V30 1794 C 175.074 3.04288 3.00987 0
M  V30 1795 C 174.4 3.0229 4.4105 0
M  V30 1796 C 175.7 4.44193 2.74754 0
M  V30 1797 H 177.394 2.68152 1.33171 0
M  V30 1798 H 174.94 1.29035 0.639214 0
M  V30 1799 H 176.893 2.04559 3.6842 0
M  V30 1800 H 175.617 0.933455 3.12976 0
M  V30 1801 H 174.276 2.8827 2.26486 0
M  V30 1802 H 173.924 2.04576 4.59519 0
M  V30 1803 H 173.624 3.79822 4.4834 0
M  V30 1804 H 175.148 3.20116 5.1996 0
M  V30 1805 H 176.562 4.60544 3.41426 0
M  V30 1806 H 174.959 5.23457 2.9345 0
M  V30 1807 H 176.029 4.53996 1.70339 0
M  V30 1808 N 177.372 -0.689602 1.41712 0
M  V30 1809 C 178.32 -1.82475 1.44242 0
M  V30 1810 C 179.314 -1.66354 0.319774 0
M  V30 1811 O 180.52 -1.73143 0.492089 0
M  V30 1812 H 176.895 -0.601416 0.451445 0
M  V30 1813 H 178.866 -1.77458 2.39899 0
M  V30 1814 C 177.615 -3.20535 1.3473 0
M  V30 1815 H 176.938 -3.33559 2.20405 0
M  V30 1816 H 178.378 -4.00023 1.40562 0
M  V30 1817 C 176.837 -3.36846 0.0603281 0
M  V30 1818 O 177.367 -3.91656 -0.892663 0
M  V30 1819 N 175.573 -2.90595 -0.0177039 0
M  V30 1820 H 175.12 -2.46178 0.758572 0
M  V30 1821 H 175.078 -3.01886 -0.878201 0
M  V30 1822 N 178.85 -1.27639 -0.924453 0
M  V30 1823 C 179.813 -1.10681 -2.00705 0
M  V30 1824 C 180.813 -0.0497823 -1.60723 0
M  V30 1825 O 182.003 -0.294654 -1.7169 0
M  V30 1826 C 179.135 -0.687164 -3.33902 0
M  V30 1827 H 180.328 -2.06817 -2.17179 0
M  V30 1828 H 177.881 -1.10473 -1.10569 0
M  V30 1829 H 178.616 0.275439 -3.23128 0
M  V30 1830 H 178.401 -1.45061 -3.6428 0
M  V30 1831 H 179.891 -0.590853 -4.13399 0
M  V30 1832 N 180.328 1.1314 -1.09713 0
M  V30 1833 C 181.558 1.88048 -0.855656 0
M  V30 1834 C 181.966 1.79537 0.596919 0
M  V30 1835 O 181.309 1.16196 1.42282 0
M  V30 1836 C 181.371 3.38314 -1.21589 0
M  V30 1837 C 181.035 3.70605 -2.67397 0
M  V30 1838 C 182.032 3.69596 -3.65643 0
M  V30 1839 C 179.717 4.0017 -3.03593 0
M  V30 1840 C 181.711 3.977 -4.9811 0
M  V30 1841 C 179.398 4.27935 -4.36251 0
M  V30 1842 C 180.396 4.26685 -5.33318 0
M  V30 1843 O 180.084 4.53767 -6.63589 0
M  V30 1844 H 179.816 0.60208 -0.307368 0
M  V30 1845 H 182.37 1.44128 -1.46343 0
M  V30 1846 H 180.6 3.82752 -0.551177 0
M  V30 1847 H 182.289 3.94552 -0.953083 0
M  V30 1848 H 183.055 3.46826 -3.39023 0
M  V30 1849 H 178.934 4.00289 -2.2867 0
M  V30 1850 H 182.478 3.9664 -5.73866 0
M  V30 1851 H 178.375 4.50178 -4.62613 0
M  V30 1852 H 179.143 4.71422 -6.69107 0
M  V30 1853 N 181.806 0.884767 1.30421 0
M  V30 1854 C 183.031 0.517288 2.00845 0
M  V30 1855 C 183.456 -0.886779 1.65885 0
M  V30 1856 O 182.814 -1.58768 0.875354 0
M  V30 1857 C 182.862 0.698994 3.5376 0
M  V30 1858 O 181.966 -0.255208 4.1161 0
M  V30 1859 H 181.307 0.203872 0.631927 0
M  V30 1860 H 183.837 1.19225 1.66272 0
M  V30 1861 H 183.847 0.597912 4.03595 0
M  V30 1862 H 182.522 1.72271 3.78544 0
M  V30 1863 H 181.099 -0.10784 3.72744 0
M  V30 1864 N 183.284 -1.43765 0.645699 0
M  V30 1865 C 184.512 -2.06253 0.163556 0
M  V30 1866 C 184.927 -1.48352 -1.16778 0
M  V30 1867 O 184.284 -0.611932 -1.71935 0
M  V30 1868 C 184.335 -3.61453 0.0583186 0
M  V30 1869 O 184.056 -4.172 1.33702 0
M  V30 1870 C 185.557 -4.41002 -0.450795 0
M  V30 1871 H 182.777 -0.665413 0.0864077 0
M  V30 1872 H 185.321 -1.84396 0.884222 0
M  V30 1873 H 183.476 -3.82522 -0.612865 0
M  V30 1874 H 183.89 -5.10791 1.19131 0
M  V30 1875 H 185.364 -5.49966 -0.473403 0
M  V30 1876 H 185.841 -4.13488 -1.48068 0
M  V30 1877 H 186.447 -4.24886 0.187637 0
M  V30 1878 N 184.763 -0.387143 -1.52771 0
M  V30 1879 C 186.179 -0.037007 -1.59557 0
M  V30 1880 C 186.379 1.44801 -1.40124 0
M  V30 1881 O 185.435 2.21227 -1.21716 0
M  V30 1882 C 186.748 -0.512256 -2.96305 0
M  V30 1883 C 188.296 -0.468328 -3.09476 0
M  V30 1884 C 188.771 -0.919731 -4.4867 0
M  V30 1885 N 190.262 -0.875656 -4.54848 0
M  V30 1886 C 190.997 -1.19637 -5.6078 0
M  V30 1887 N 190.493 -1.58745 -6.74368 0
M  V30 1888 N 192.286 -1.11776 -5.50874 0
M  V30 1889 H 184.437 -1.35395 -1.63652 0
M  V30 1890 H 186.7 -0.554818 -0.768688 0
M  V30 1891 H 186.406 -1.54935 -3.15734 0
M  V30 1892 H 186.28 0.089805 -3.77093 0
M  V30 1893 H 188.667 0.559671 -2.89744 0
M  V30 1894 H 188.748 -1.10616 -2.30646 0
M  V30 1895 H 188.392 -1.94595 -4.69143 0
M  V30 1896 H 188.322 -0.258927 -5.25963 0
M  V30 1897 H 190.813 -0.587843 -3.733 0
M  V30 1898 H 191.126 -1.81586 -7.51163 0
M  V30 1899 H 189.471 -1.6263 -6.75705 0
M  V30 1900 H 192.662 -0.811264 -4.61016 0
M  V30 1901 H 192.835 -1.37103 -6.3333 0
M  V30 1902 N 186.241 1.57166 -0.116904 0
M  V30 1903 C 187.151 2.18745 0.847812 0
M  V30 1904 C 188.167 1.163 1.29423 0
M  V30 1905 O 189.343 1.48761 1.35765 0
M  V30 1906 C 186.408 2.77307 2.0809 0
M  V30 1907 C 185.469 3.94781 1.68661 0
M  V30 1908 C 184.702 4.50541 2.86091 0
M  V30 1909 O 184.925 4.05202 4.01456 0
M  V30 1910 O 183.859 5.41256 2.63298 0
M  V30 1911 H 187.685 3.01632 0.353778 0
M  V30 1912 H 185.27 1.49005 0.108599 0
M  V30 1913 H 187.152 3.14647 2.80313 0
M  V30 1914 H 185.827 1.97452 2.56504 0
M  V30 1915 H 184.734 3.62214 0.935518 0
M  V30 1916 H 186.067 4.76065 1.24991 0
M  V30 1917 N 187.719 -0.156864 1.56817 0
M  V30 1918 C 188.669 -1.19891 1.93934 0
M  V30 1919 C 189.653 -1.39061 0.809372 0
M  V30 1920 O 190.845 -1.40789 1.07273 0
M  V30 1921 C 187.974 -2.53493 2.31508 0
M  V30 1922 C 187.06 -2.37957 3.51052 0
M  V30 1923 N 187.451 -1.92158 4.67877 0
M  V30 1924 C 185.749 -2.68739 3.55943 0
M  V30 1925 C 186.45 -1.8943 5.49992 0
M  V30 1926 N 185.426 -2.32375 4.91429 0
M  V30 1927 H 189.228 -0.836746 2.81737 0
M  V30 1928 H 186.742 -0.365012 1.58245 0
M  V30 1929 H 188.739 -3.28811 2.56299 0
M  V30 1930 H 187.399 -2.905 1.45051 0
M  V30 1931 H 188.41 -1.62274 4.91821 0
M  V30 1932 H 185.087 -3.09687 2.80001 0
M  V30 1933 H 186.477 -1.55596 6.53636 0
M  V30 1934 N 189.197 -1.51736 -0.425897 0
M  V30 1935 C 190.425 -1.68794 -1.1965 0
M  V30 1936 C 190.84 -0.390164 -1.84725 0
M  V30 1937 O 190.197 0.632376 -1.71194 0
M  V30 1938 C 190.248 -2.81174 -2.27208 0
M  V30 1939 O 189.969 -4.05925 -1.64793 0
M  V30 1940 C 191.47 -3.09599 -3.17275 0
M  V30 1941 H 188.69 -0.566128 -0.360194 0
M  V30 1942 H 191.234 -1.98211 -0.503249 0
M  V30 1943 H 189.389 -2.54324 -2.9223 0
M  V30 1944 H 189.803 -4.68423 -2.35967 0
M  V30 1945 H 191.277 -3.91786 -3.88854 0
M  V30 1946 H 191.754 -2.22468 -3.78688 0
M  V30 1947 H 192.36 -3.38151 -2.57941 0
M  V30 1948 N 190.675 0.682077 -1.42076 0
M  V30 1949 C 191.638 1.77756 -1.44691 0
M  V30 1950 C 192.638 1.5726 -0.335535 0
M  V30 1951 O 193.828 1.63686 -0.596037 0
M  V30 1952 C 190.96 3.16301 -1.27146 0
M  V30 1953 H 192.153 1.76826 -2.42224 0
M  V30 1954 H 189.706 0.891012 -1.28416 0
M  V30 1955 H 190.441 3.22862 -0.305075 0
M  V30 1956 H 190.226 3.32581 -2.07683 0
M  V30 1957 H 191.716 3.96241 -1.31843 0
M  V30 1958 N 192.153 1.28127 0.917671 0
M  V30 1959 C 193.383 1.17722 1.6978 0
M  V30 1960 C 193.791 -0.267261 1.87303 0
M  V30 1961 O 193.134 -1.19286 1.39702 0
M  V30 1962 C 193.196 1.79958 3.11216 0
M  V30 1963 C 192.86 3.29187 3.16993 0
M  V30 1964 C 193.857 4.25679 2.98485 0
M  V30 1965 C 191.542 3.70075 3.39632 0
M  V30 1966 C 193.536 5.61035 3.02521 0
M  V30 1967 C 191.223 5.05557 3.433 0
M  V30 1968 C 192.221 6.00847 3.24764 0
M  V30 1969 O 191.909 7.33859 3.28187 0
M  V30 1970 H 191.641 0.409788 0.537634 0
M  V30 1971 H 194.195 1.69694 1.15728 0
M  V30 1972 H 192.425 1.22475 3.66793 0
M  V30 1973 H 194.114 1.64125 3.71238 0
M  V30 1974 H 194.88 3.95426 2.80826 0
M  V30 1975 H 190.759 2.96373 3.53106 0
M  V30 1976 H 194.303 6.35388 2.87971 0
M  V30 1977 H 190.2 5.35462 3.60486 0
M  V30 1978 H 190.968 7.42436 3.44575 0
M  V30 1979 N 193.631 -1.12557 1.10312 0
M  V30 1980 C 194.861 -1.87592 0.865617 0
M  V30 1981 C 195.269 -1.79851 -0.587389 0
M  V30 1982 O 194.612 -1.16949 -1.41664 0
M  V30 1983 C 194.674 -3.37665 1.23381 0
M  V30 1984 C 194.338 -3.69181 2.69359 0
M  V30 1985 C 195.335 -3.67652 3.67597 0
M  V30 1986 C 193.02 -3.98555 3.05711 0
M  V30 1987 C 195.014 -3.95053 5.00212 0
M  V30 1988 C 192.701 -4.25616 4.38514 0
M  V30 1989 C 193.699 -4.23851 5.35574 0
M  V30 1990 O 193.387 -4.50242 6.65986 0
M  V30 1991 H 193.119 -0.600442 0.310557 0
M  V30 1992 H 195.673 -1.4335 1.47105 0
M  V30 1993 H 193.903 -3.82454 0.571467 0
M  V30 1994 H 195.592 -3.94041 0.973994 0
M  V30 1995 H 196.358 -3.45024 3.40857 0
M  V30 1996 H 192.237 -3.99071 2.30789 0
M  V30 1997 H 195.781 -3.93591 5.75962 0
M  V30 1998 H 191.678 -4.47718 4.64994 0
M  V30 1999 H 192.446 -4.67867 6.71597 0
M  V30 2000 N 195.109 -0.891671 -1.2995 0
M  V30 2001 C 196.358 -0.509521 -1.95158 0
M  V30 2002 C 196.671 0.947388 -1.71125 0
M  V30 2003 O 197.877 1.43669 -2.30372 0
M  V30 2004 C 196.333 -0.860315 -3.49466 0
M  V30 2005 C 195.941 -2.33545 -3.8231 0
M  V30 2006 C 197.685 -0.547687 -4.20952 0
M  V30 2007 C 195.592 -2.62752 -5.29826 0
M  V30 2008 H 194.522 -0.18682 -0.730489 0
M  V30 2009 H 197.173 -1.08756 -1.47798 0
M  V30 2010 H 195.555 -0.211285 -3.95436 0
M  V30 2011 H 196.729 -3.02936 -3.47227 0
M  V30 2012 H 195.044 -2.61629 -3.23944 0
M  V30 2013 H 197.641 -0.742854 -5.29515 0
M  V30 2014 H 197.984 0.51332 -4.13123 0
M  V30 2015 H 198.517 -1.1542 -3.80688 0
M  V30 2016 H 195.256 -3.6762 -5.42712 0
M  V30 2017 H 194.776 -1.97977 -5.66185 0
M  V30 2018 H 196.455 -2.48601 -5.97333 0
M  V30 2019 N 196.587 1.43421 -0.653314 0
M  V30 2020 C 197.534 2.30768 0.0382271 0
M  V30 2021 C 198.504 1.44755 0.814576 0
M  V30 2022 O 199.689 1.73624 0.791162 0
M  V30 2023 C 196.829 3.30336 0.998599 0
M  V30 2024 C 195.942 4.31448 0.218342 0
M  V30 2025 C 195.077 5.18098 1.17252 0
M  V30 2026 C 194.116 6.10902 0.382702 0
M  V30 2027 N 193.253 6.90176 1.28848 0
M  V30 2028 H 198.093 2.89357 -0.712511 0
M  V30 2029 H 195.63 1.42548 -0.363128 0
M  V30 2030 H 197.588 3.86572 1.56901 0
M  V30 2031 H 196.218 2.73397 1.71621 0
M  V30 2032 H 195.27 3.77506 -0.46836 0
M  V30 2033 H 196.582 4.97227 -0.395812 0
M  V30 2034 H 195.736 5.7896 1.81356 0
M  V30 2035 H 194.475 4.52444 1.82058 0
M  V30 2036 H 193.48 5.49128 -0.27169 0
M  V30 2037 H 194.705 6.78598 -0.260957 0
M  V30 2038 H 192.651 6.27171 1.92334 0
M  V30 2039 H 192.568 7.52478 0.728887 0
M  V30 2040 H 193.836 7.55543 1.91766 0
M  V30 2041 N 198.065 0.39524 1.52563 0
M  V30 2042 C 199.028 -0.425001 2.25225 0
M  V30 2043 C 200.028 -0.985266 1.27079 0
M  V30 2044 O 201.218 -0.866332 1.5113 0
M  V30 2045 C 198.35 -1.59686 3.01186 0
M  V30 2046 H 199.543 0.211233 2.99155 0
M  V30 2047 H 197.096 0.147472 1.55603 0
M  V30 2048 H 197.831 -2.27035 2.31572 0
M  V30 2049 H 197.616 -1.20176 3.73229 0
M  V30 2050 H 199.106 -2.17743 3.5634 0
M  V30 2051 N 199.544 -1.57102 0.125237 0
M  V30 2052 C 200.474 -2.18659 -0.819174 0
M  V30 2053 C 201.455 -1.12843 -1.27281 0
M  V30 2054 O 202.64 -1.41104 -1.33429 0
M  V30 2055 C 199.77 -2.79096 -2.06695 0
M  V30 2056 C 198.724 -3.90548 -1.75088 0
M  V30 2057 C 198.05 -4.37821 -3.06948 0
M  V30 2058 C 199.35 -5.12356 -1.01435 0
M  V30 2059 H 201.044 -2.9783 -0.306202 0
M  V30 2060 H 198.59 -1.4326 -0.145839 0
M  V30 2061 H 200.543 -3.2082 -2.73226 0
M  V30 2062 H 199.267 -1.97223 -2.60328 0
M  V30 2063 H 197.926 -3.49409 -1.10944 0
M  V30 2064 H 197.574 -3.52799 -3.58527 0
M  V30 2065 H 197.274 -5.12982 -2.86571 0
M  V30 2066 H 198.798 -4.822 -3.74587 0
M  V30 2067 H 200.212 -5.5106 -1.58132 0
M  V30 2068 H 198.609 -5.9314 -0.911319 0
M  V30 2069 H 199.679 -4.849 -0.00218681 0
M  V30 2070 N 201.022 0.148545 -1.56898 0
M  V30 2071 C 202.247 0.880385 -1.87787 0
M  V30 2072 C 202.672 1.74018 -0.714093 0
M  V30 2073 O 202.03 1.78153 0.336343 0
M  V30 2074 C 202.078 1.71422 -3.17249 0
M  V30 2075 O 201.182 2.8183 -3.01074 0
M  V30 2076 H 200.523 0.245301 -0.617028 0
M  V30 2077 H 203.053 0.139826 -2.04122 0
M  V30 2078 H 203.063 2.10954 -3.49231 0
M  V30 2079 H 201.738 1.08284 -4.01556 0
M  V30 2080 H 200.315 2.45715 -2.80497 0
M  V30 2081 N 202.5 1.5196 0.417844 0
M  V30 2082 C 203.447 1.74678 1.50852 0
M  V30 2083 C 204.417 0.588947 1.55308 0
M  V30 2084 O 205.602 0.825544 1.72016 0
M  V30 2085 C 202.742 1.89544 2.88387 0
M  V30 2086 C 201.855 3.17166 2.93309 0
M  V30 2087 C 200.99 3.22513 4.22088 0
M  V30 2088 C 200.029 4.44372 4.20951 0
M  V30 2089 N 199.166 4.47161 5.41287 0
M  V30 2090 H 204.006 2.67768 1.30783 0
M  V30 2091 H 201.543 1.32689 0.63498 0
M  V30 2092 H 203.501 1.96146 3.68216 0
M  V30 2093 H 202.131 0.998424 3.06971 0
M  V30 2094 H 201.183 3.19778 2.06024 0
M  V30 2095 H 202.495 4.07021 2.88332 0
M  V30 2096 H 201.649 3.28139 5.10303 0
M  V30 2097 H 200.388 2.30581 4.29748 0
M  V30 2098 H 199.393 4.38902 3.31127 0
M  V30 2099 H 200.618 5.3759 4.14938 0
M  V30 2100 H 198.564 3.58108 5.49632 0
M  V30 2101 H 198.481 5.3085 5.3827 0
M  V30 2102 H 199.749 4.57005 6.3148 0
M  V30 2103 N 203.978 -0.674533 1.42435 0
M  V30 2104 C 205.255 -1.4305 1.33402 0
M  V30 2105 C 205.635 -2.11081 -0.0284674 0
M  V30 2106 O 204.983 -2.03257 -1.04397 0
M  V30 2107 C 205.193 -2.43272 2.50239 0
M  V30 2108 C 206.541 -3.07907 2.92367 0
M  V30 2109 O 207.565 -2.53599 2.50132 0
M  V30 2110 O 206.424 -4.0632 3.65467 0
M  V30 2111 H 203.518 -0.638076 0.526106 0
M  V30 2112 H 206.064 -0.703235 1.54443 0
M  V30 2113 H 204.836 -1.91803 3.41068 0
M  V30 2114 H 204.459 -3.23479 2.31186 0
M  V30 2115 N 205.456 -1.28612 -0.910864 0
M  V30 2116 C 206.386 -1.15326 -2.03032 0
M  V30 2117 C 207.367 -0.0502924 -1.70026 0
M  V30 2118 O 208.552 -0.227797 -1.92859 0
M  V30 2119 C 205.682 -0.817343 -3.37545 0
M  V30 2120 C 204.636 -1.8754 -3.84724 0
M  V30 2121 C 203.962 -1.39305 -5.16235 0
M  V30 2122 C 205.262 -3.28244 -4.06267 0
M  V30 2123 H 206.956 -2.08975 -2.14406 0
M  V30 2124 H 204.502 -1.00612 -1.03021 0
M  V30 2125 H 206.455 -0.711151 -4.15356 0
M  V30 2126 H 205.179 0.154846 -3.26233 0
M  V30 2127 H 203.838 -1.97079 -3.09121 0
M  V30 2128 H 203.486 -0.409846 -5.01328 0
M  V30 2129 H 203.186 -2.10057 -5.48771 0
M  V30 2130 H 204.71 -1.30014 -5.96598 0
M  V30 2131 H 206.124 -3.21611 -4.74594 0
M  V30 2132 H 204.521 -3.96855 -4.5014 0
M  V30 2133 H 205.591 -3.72048 -3.10979 0
M  V30 2134 N 206.934 1.1197 -1.10907 0
M  V30 2135 C 208.345 1.65114 -0.871446 0
M  V30 2136 C 208.696 1.86885 0.597353 0
M  V30 2137 O 207.821 1.59896 1.45816 0
M  V30 2138 C 208.416 2.99944 -1.5754 0
M  V30 2139 C 206.975 3.50018 -1.38435 0
M  V30 2140 C 206.122 2.24941 -1.62164 0
M  V30 2141 H 209.073 0.956851 -1.2661 0
M  V30 2142 H 209.094 3.66651 -1.01721 0
M  V30 2143 H 208.606 2.84067 -2.64438 0
M  V30 2144 H 206.707 3.71071 -0.337214 0
M  V30 2145 H 206.82 4.29165 -2.12965 0
M  V30 2146 H 205.184 2.3229 -1.04467 0
M  V30 2147 H 205.967 2.11612 -2.70324 0
M  V30 2148 N 208.412 0.89855 1.29475 0
M  V30 2149 C 209.359 0.373819 2.27753 0
M  V30 2150 C 210.329 -0.543444 1.56958 0
M  V30 2151 O 211.514 -0.468934 1.84948 0
M  V30 2152 C 208.654 -0.393648 3.42848 0
M  V30 2153 C 207.767 0.554379 4.28428 0
M  V30 2154 C 206.902 -0.230026 5.30702 0
M  V30 2155 C 205.941 0.712599 6.07938 0
M  V30 2156 N 205.078 -0.0373283 7.0209 0
M  V30 2157 H 209.918 1.21699 2.72017 0
M  V30 2158 H 207.455 0.611456 1.33789 0
M  V30 2159 H 209.413 -0.85466 4.08352 0
M  V30 2160 H 208.043 -1.20128 2.99615 0
M  V30 2161 H 207.095 1.13391 3.63107 0
M  V30 2162 H 208.407 1.27597 4.82204 0
M  V30 2163 H 207.561 -0.752288 6.02018 0
M  V30 2164 H 206.3 -0.984758 4.77654 0
M  V30 2165 H 205.305 1.24637 5.35486 0
M  V30 2166 H 206.53 1.46664 6.63074 0
M  V30 2167 H 204.476 -0.774348 6.51414 0
M  V30 2168 H 204.393 0.624374 7.53417 0
M  V30 2169 H 205.661 -0.539891 7.77628 0
M  V30 2170 N 209.89 -1.43072 0.660911 0
M  V30 2171 C 210.853 -2.29194 -0.0166406 0
M  V30 2172 C 211.853 -1.42609 -0.742912 0
M  V30 2173 O 213.043 -1.64155 -0.583004 0
M  V30 2174 C 210.175 -3.24831 -1.0343 0
M  V30 2175 H 211.368 -2.90596 0.741208 0
M  V30 2176 H 208.921 -1.5048 0.422532 0
M  V30 2177 H 209.656 -2.68339 -1.82111 0
M  V30 2178 H 209.441 -3.88676 -0.517082 0
M  V30 2179 H 210.931 -3.89451 -1.50723 0
M  V30 2180 N 211.368 -0.403325 -1.52352 0
M  V30 2181 C 212.614 0.174605 -2.02047 0
M  V30 2182 C 212.947 1.45282 -1.28867 0
M  V30 2183 O 212.222 1.90483 -0.393257 0
M  V30 2184 C 212.505 0.428238 -3.57545 0
M  V30 2185 C 212.358 -0.866248 -4.4138 0
M  V30 2186 C 213.677 1.21287 -4.23057 0
M  V30 2187 H 210.796 0.0619851 -0.734389 0
M  V30 2188 H 213.438 -0.53565 -1.82293 0
M  V30 2189 H 211.588 1.03327 -3.74507 0
M  V30 2190 H 213.26 -1.50265 -4.3614 0
M  V30 2191 H 211.503 -1.47851 -4.07827 0
M  V30 2192 H 212.174 -0.643249 -5.48239 0
M  V30 2193 H 214.65 0.700703 -4.10158 0
M  V30 2194 H 213.526 1.35909 -5.31808 0
M  V30 2195 H 213.787 2.23193 -3.81625 0
M  V30 2196 N 212.846 1.57033 -0.133567 0
M  V30 2197 C 213.756 2.19632 0.824564 0
M  V30 2198 C 214.772 1.17666 1.28182 0
M  V30 2199 O 215.948 1.50193 1.3418 0
M  V30 2200 C 213.013 2.79499 2.05137 0
M  V30 2201 C 212.074 3.96548 1.64464 0
M  V30 2202 C 211.307 4.5355 2.81297 0
M  V30 2203 O 211.53 4.09438 3.97136 0
M  V30 2204 O 210.464 5.44018 2.57542 0
M  V30 2205 H 214.29 3.01991 0.321766 0
M  V30 2206 H 211.875 1.49112 0.0927889 0
M  V30 2207 H 213.757 3.17602 2.7696 0
M  V30 2208 H 212.432 2.00162 2.54395 0
M  V30 2209 H 211.339 3.63186 0.897048 0
M  V30 2210 H 212.672 4.77364 1.19934 0
M  V30 2211 N 214.325 -0.140222 1.56975 0
M  V30 2212 C 215.255 -1.17456 2.01808 0
M  V30 2213 C 216.236 -1.44415 0.898794 0
M  V30 2214 O 217.421 -1.5522 1.16707 0
M  V30 2215 C 214.551 -2.50607 2.40444 0
M  V30 2216 C 213.505 -2.38155 3.55621 0
M  V30 2217 C 212.831 -3.76078 3.80091 0
M  V30 2218 C 214.131 -1.85991 4.88062 0
M  V30 2219 H 215.825 -0.801743 2.88466 0
M  V30 2220 H 213.371 -0.38422 1.38779 0
M  V30 2221 H 215.324 -3.23197 2.7041 0
M  V30 2222 H 214.048 -2.89737 1.50732 0
M  V30 2223 H 212.707 -1.68016 3.25832 0
M  V30 2224 H 212.355 -4.12656 2.87618 0
M  V30 2225 H 212.055 -3.68606 4.57606 0
M  V30 2226 H 213.579 -4.50206 4.12488 0
M  V30 2227 H 214.993 -2.4838 5.16701 0
M  V30 2228 H 213.39 -1.89393 5.6943 0
M  V30 2229 H 214.46 -0.816023 4.77984 0
M  V30 2230 N 215.803 -1.52179 -0.40978 0
M  V30 2231 C 216.733 -1.78435 -1.5061 0
M  V30 2232 C 217.714 -0.635295 -1.57791 0
M  V30 2233 O 218.899 -0.880823 -1.73076 0
M  V30 2234 C 216.029 -1.93444 -2.88439 0
M  V30 2235 C 214.983 -3.09038 -2.96108 0
M  V30 2236 C 214.309 -3.09268 -4.36185 0
M  V30 2237 C 215.609 -4.48508 -2.67652 0
M  V30 2238 H 217.303 -2.70237 -1.28889 0
M  V30 2239 H 214.849 -1.30036 -0.618605 0
M  V30 2240 H 216.802 -2.10394 -3.65119 0
M  V30 2241 H 215.526 -0.983129 -3.11452 0
M  V30 2242 H 214.185 -2.91837 -2.21872 0
M  V30 2243 H 213.833 -2.11861 -4.56206 0
M  V30 2244 H 213.533 -3.86907 -4.42241 0
M  V30 2245 H 215.057 -3.28348 -5.14801 0
M  V30 2246 H 216.471 -4.65918 -3.34056 0
M  V30 2247 H 214.868 -5.28059 -2.85085 0
M  V30 2248 H 215.938 -4.56649 -1.63095 0
M  V30 2249 N 217.281 0.66697 -1.42791 0
M  V30 2250 C 218.529 1.42417 -1.43394 0
M  V30 2251 C 218.85 1.94925 -0.0542373 0
M  V30 2252 O 218.12 1.73564 0.908415 0
M  V30 2253 H 216.7 0.528515 -0.527902 0
M  V30 2254 H 219.362 0.787562 -1.78279 0
M  V30 2255 H 218.458 2.27333 -2.13837 0
M  V30 2256 N 218.759 1.29093 0.90403 0
M  V30 2257 C 220.036 1.075 1.63411 0
M  V30 2258 C 220.416 -0.382346 2.07609 0
M  V30 2259 O 219.764 -1.37031 1.82851 0
M  V30 2260 C 219.974 2.05858 2.81822 0
M  V30 2261 C 221.322 2.36539 3.52611 0
M  V30 2262 O 222.346 2.04019 2.91984 0
M  V30 2263 O 221.205 2.92085 4.61897 0
M  V30 2264 H 218.299 0.411547 0.717327 0
M  V30 2265 H 220.845 1.40449 0.952479 0
M  V30 2266 H 219.617 3.04037 2.46327 0
M  V30 2267 H 219.24 1.73613 3.57693 0
M  V30 2268 N 220.237 -1.11381 1.11499 0
M  V30 2269 C 221.486 -1.82494 0.858993 0
M  V30 2270 C 221.799 -1.85605 -0.617278 0
M  V30 2271 O 223.005 -2.52824 -0.989552 0
M  V30 2272 C 221.461 -3.27745 1.48699 0
M  V30 2273 C 221.069 -3.32961 2.99735 0
M  V30 2274 C 222.813 -4.03754 1.31085 0
M  V30 2275 C 220.72 -4.72612 3.55516 0
M  V30 2276 H 219.65 -0.683802 0.317696 0
M  V30 2277 H 222.301 -1.25331 1.34031 0
M  V30 2278 H 220.683 -3.84844 0.933339 0
M  V30 2279 H 221.857 -2.85741 3.61509 0
M  V30 2280 H 220.172 -2.70433 3.16631 0
M  V30 2281 H 222.769 -5.06891 1.70192 0
M  V30 2282 H 223.112 -4.15527 0.253496 0
M  V30 2283 H 223.645 -3.53043 1.83318 0
M  V30 2284 H 220.384 -4.66036 4.60967 0
M  V30 2285 H 219.904 -5.2024 2.98513 0
M  V30 2286 H 221.583 -5.4157 3.53992 0
M  V30 2287 N 221.715 -0.905404 -1.28997 0
M  V30 2288 C 222.961 -0.535039 -1.95615 0
M  V30 2289 C 223.294 0.917404 -1.71165 0
M  V30 2290 O 222.569 1.65123 -1.02785 0
M  V30 2291 C 222.852 -0.834918 -3.50287 0
M  V30 2292 C 222.705 -2.33948 -3.84172 0
M  V30 2293 C 224.024 -0.325318 -4.38896 0
M  V30 2294 H 221.143 -0.195861 -0.710498 0
M  V30 2295 H 223.785 -1.13313 -1.52513 0
M  V30 2296 H 221.935 -0.325904 -3.87131 0
M  V30 2297 H 223.607 -2.91847 -3.57243 0
M  V30 2298 H 221.85 -2.79789 -3.31513 0
M  V30 2299 H 222.521 -2.49987 -4.92149 0
M  V30 2300 H 224.997 -0.761256 -4.09077 0
M  V30 2301 H 223.873 -0.564295 -5.45992 0
M  V30 2302 H 224.134 0.774144 -4.35269 0
M  V30 2303 N 223.193 1.4272 -0.668489 0
M  V30 2304 C 224.125 2.2914 0.052613 0
M  V30 2305 C 225.138 1.43339 0.771857 0
M  V30 2306 O 226.327 1.67123 0.627067 0
M  V30 2307 C 223.427 3.20618 1.09804 0
M  V30 2308 C 222.6 4.35039 0.45389 0
M  V30 2309 C 221.659 5.07282 1.39825 0
M  V30 2310 O 220.685 5.62024 0.900978 0
M  V30 2311 N 221.887 5.12206 2.73176 0
M  V30 2312 H 224.652 2.91668 -0.689209 0
M  V30 2313 H 222.213 1.53577 -0.512422 0
M  V30 2314 H 224.205 3.65815 1.73094 0
M  V30 2315 H 222.775 2.59585 1.74167 0
M  V30 2316 H 221.995 3.92567 -0.358396 0
M  V30 2317 H 223.283 5.088 0.00486972 0
M  V30 2318 H 222.681 4.6913 3.16122 0
M  V30 2319 H 221.238 5.61069 3.31729 0
M  V30 2320 N 224.671 0.411399 1.52136 0
M  V30 2321 C 225.619 -0.427633 2.28635 0
M  V30 2322 C 226.613 -1.04383 1.33419 0
M  V30 2323 O 227.819 -0.981772 1.50868 0
M  V30 2324 H 224.194 -0.156689 0.735495 0
M  V30 2325 H 226.165 0.238761 2.97443 0
M  V30 2326 C 224.914 -1.53082 3.12188 0
M  V30 2327 H 224.237 -1.06601 3.85326 0
M  V30 2328 H 225.677 -2.09167 3.68816 0
M  V30 2329 C 224.136 -2.49946 2.25895 0
M  V30 2330 O 224.666 -3.53884 1.90076 0
M  V30 2331 N 222.872 -2.2021 1.8962 0
M  V30 2332 H 222.419 -1.35719 2.18948 0
M  V30 2333 H 222.377 -2.85266 1.32176 0
M  V30 2334 N 226.149 -1.5696 0.141893 0
M  V30 2335 C 227.389 -1.9785 -0.513304 0
M  V30 2336 C 227.753 -1.02467 -1.62371 0
M  V30 2337 O 228.954 -1.32382 -2.33941 0
M  V30 2338 C 227.225 -3.42797 -1.01118 0
M  V30 2339 S 228.784 -4.05709 -1.67169 0
M  V30 2340 H 225.602 -0.691318 -0.166135 0
M  V30 2341 H 228.204 -1.94114 0.232398 0
M  V30 2342 H 226.908 -4.0995 -0.192179 0
M  V30 2343 H 226.439 -3.50235 -1.79162 0
M  V30 2344 H 228.454 -3.98342 -2.95868 0
M  V30 2345 N 227.627 0.131896 -1.57047 0
M  V30 2346 C 228.852 0.860418 -1.8871 0
M  V30 2347 C 229.277 1.73251 -0.73251 0
M  V30 2348 O 228.635 1.785 0.317429 0
M  V30 2349 C 228.683 1.68047 -3.19049 0
M  V30 2350 O 227.787 2.7862 -3.04047 0
M  V30 2351 H 227.128 0.238743 -0.619595 0
M  V30 2352 H 229.658 0.118169 -2.04258 0
M  V30 2353 H 229.668 2.07238 -3.51449 0
M  V30 2354 H 228.343 1.04018 -4.02682 0
M  V30 2355 H 226.92 2.42726 -2.83088 0
M  V30 2356 N 229.106 1.52395 0.401703 0
M  V30 2357 C 230.036 1.79231 1.49661 0
M  V30 2358 C 231.017 0.643654 1.57452 0
M  V30 2359 O 232.202 0.889989 1.72606 0
M  V30 2360 C 229.332 1.94971 2.87409 0
M  V30 2361 C 228.286 3.10604 2.94465 0
M  V30 2362 C 227.612 3.11577 4.34538 0
M  V30 2363 C 228.912 4.49921 2.6527 0
M  V30 2364 H 230.606 2.70917 1.27454 0
M  V30 2365 H 228.152 1.30362 0.6117 0
M  V30 2366 H 230.105 2.12328 3.63999 0
M  V30 2367 H 228.829 0.999632 3.10926 0
M  V30 2368 H 227.488 2.93009 2.20321 0
M  V30 2369 H 227.136 2.14277 4.55076 0
M  V30 2370 H 226.836 3.89247 4.40183 0
M  V30 2371 H 228.36 3.31073 5.13053 0
M  V30 2372 H 229.774 4.67683 3.31581 0
M  V30 2373 H 228.171 5.29564 2.82281 0
M  V30 2374 H 229.241 4.57507 1.60671 0
M  V30 2375 N 230.584 -0.659388 1.43143 0
M  V30 2376 C 231.494 -1.80167 1.50256 0
M  V30 2377 C 232.51 -1.69571 0.390106 0
M  V30 2378 O 233.686 -1.90849 0.643319 0
M  V30 2379 C 230.751 -3.16409 1.41725 0
M  V30 2380 C 229.812 -3.38848 2.63591 0
M  V30 2381 C 229.045 -4.68591 2.55458 0
M  V30 2382 O 229.268 -5.47532 1.59891 0
M  V30 2383 O 228.202 -4.92614 3.45854 0
M  V30 2384 H 232.028 -1.77121 2.46702 0
M  V30 2385 H 229.613 -0.817092 1.25076 0
M  V30 2386 H 231.495 -3.9768 1.39387 0
M  V30 2387 H 230.17 -3.20059 0.484118 0
M  V30 2388 H 229.077 -2.57366 2.71502 0
M  V30 2389 H 230.41 -3.4004 3.55856 0
M  V30 2390 N 232.062 -1.29571 -0.897171 0
M  V30 2391 C 233.339 -1.08365 -1.62839 0
M  V30 2392 C 233.719 0.371331 -2.07808 0
M  V30 2393 O 233.067 1.3606 -1.83576 0
M  V30 2394 C 233.277 -2.0735 -2.80726 0
M  V30 2395 C 234.625 -2.38406 -3.51351 0
M  V30 2396 O 235.649 -2.05564 -2.90898 0
M  V30 2397 O 234.508 -2.9453 -4.60341 0
M  V30 2398 H 231.602 -0.415345 -0.715134 0
M  V30 2399 H 234.148 -1.40952 -0.945018 0
M  V30 2400 H 232.92 -3.05339 -2.44711 0
M  V30 2401 H 232.543 -1.75507 -3.56767 0
M  V30 2402 N 233.54 1.10788 -1.12088 0
M  V30 2403 C 234.765 1.87002 -0.896949 0
M  V30 2404 C 235.19 1.79933 0.548261 0
M  V30 2405 O 234.548 1.16662 1.38779 0
M  V30 2406 C 234.596 3.3349 -1.37174 0
M  V30 2407 O 233.7 4.08745 -0.547831 0
M  V30 2408 H 233.041 0.580397 -0.322545 0
M  V30 2409 H 235.571 1.39996 -1.49206 0
M  V30 2410 H 235.581 3.84339 -1.36922 0
M  V30 2411 H 234.256 3.37951 -2.42408 0
M  V30 2412 H 232.833 3.6776 -0.617034 0
M  V30 2413 N 235.018 0.912232 1.28515 0
M  V30 2414 C 235.95 0.35676 2.26406 0
M  V30 2415 C 236.963 -0.503933 1.54804 0
M  V30 2416 O 238.152 -0.319059 1.75625 0
M  V30 2417 C 235.252 -0.508825 3.35058 0
M  V30 2418 C 234.425 0.329007 4.36161 0
M  V30 2419 C 233.484 -0.471422 5.24084 0
M  V30 2420 O 232.51 0.115482 5.69083 0
M  V30 2421 N 233.712 -1.77479 5.52704 0
M  V30 2422 H 236.477 1.19818 2.74707 0
M  V30 2423 H 234.038 0.778022 1.4198 0
M  V30 2424 H 236.03 -1.051 3.90815 0
M  V30 2425 H 234.6 -1.25095 2.86478 0
M  V30 2426 H 233.82 1.05256 3.79888 0
M  V30 2427 H 235.108 0.90234 5.00735 0
M  V30 2428 H 234.506 -2.27417 5.17975 0
M  V30 2429 H 233.063 -2.26382 6.11224 0
M  V30 2430 N 236.496 -1.42363 0.676048 0
M  V30 2431 C 237.745 -2.00745 0.196037 0
M  V30 2432 C 238.058 -1.54083 -1.20489 0
M  V30 2433 O 239.264 -2.04891 -1.78134 0
M  V30 2434 C 237.72 -3.58651 0.299616 0
M  V30 2435 C 237.328 -4.143 1.70468 0
M  V30 2436 C 239.072 -4.24326 -0.121619 0
M  V30 2437 C 236.979 -5.64574 1.76096 0
M  V30 2438 H 235.909 -0.750787 0.0695301 0
M  V30 2439 H 238.56 -1.63072 0.841412 0
M  V30 2440 H 236.942 -3.93833 -0.413673 0
M  V30 2441 H 238.116 -3.90575 2.44515 0
M  V30 2442 H 236.431 -3.61081 2.07387 0
M  V30 2443 H 239.028 -5.34607 -0.0997362 0
M  V30 2444 H 239.371 -3.99897 -1.15708 0
M  V30 2445 H 239.904 -3.94108 0.540706 0
M  V30 2446 H 236.643 -5.93804 2.77628 0
M  V30 2447 H 236.163 -5.90286 1.06406 0
M  V30 2448 H 237.842 -6.29013 1.51496 0
M  V30 2449 N 237.974 -0.419461 -1.51915 0
M  V30 2450 C 238.884 0.407528 -2.31033 0
M  V30 2451 C 239.9 1.04413 -1.3919 0
M  V30 2452 O 241.076 1.0434 -1.72265 0
M  V30 2453 C 238.141 1.50365 -3.12396 0
M  V30 2454 C 237.202 0.889029 -4.19994 0
M  V30 2455 C 236.435 1.93291 -4.97468 0
M  V30 2456 O 236.658 3.15259 -4.75361 0
M  V30 2457 O 235.592 1.53339 -5.8204 0
M  V30 2458 H 239.418 -0.237865 -3.02767 0
M  V30 2459 H 237.003 -0.182413 -1.48282 0
M  V30 2460 H 238.885 2.13975 -3.63032 0
M  V30 2461 H 237.56 2.13345 -2.43445 0
M  V30 2462 H 236.467 0.215353 -3.7348 0
M  V30 2463 H 237.8 0.302991 -4.91267 0
M  V30 2464 N 239.452 1.56882 -0.150215 0
M  V30 2465 C 240.399 2.16922 0.788244 0
M  V30 2466 C 241.369 1.10303 1.24187 0
M  V30 2467 O 242.554 1.38359 1.31383 0
M  V30 2468 C 239.694 2.79754 2.02068 0
M  V30 2469 C 238.807 4.00775 1.61257 0
M  V30 2470 C 237.942 4.51595 2.79705 0
M  V30 2471 C 236.981 5.65074 2.35282 0
M  V30 2472 N 236.118 6.10499 3.4675 0
M  V30 2473 H 240.958 2.96779 0.269444 0
M  V30 2474 H 238.495 1.46599 0.12128 0
M  V30 2475 H 240.453 3.14329 2.74323 0
M  V30 2476 H 239.083 2.02536 2.51354 0
M  V30 2477 H 238.135 3.72158 0.787553 0
M  V30 2478 H 239.447 4.82978 1.24633 0
M  V30 2479 H 238.601 4.88242 3.60145 0
M  V30 2480 H 237.34 3.68406 3.19576 0
M  V30 2481 H 236.345 5.28 1.53283 0
M  V30 2482 H 237.57 6.50052 1.96493 0
M  V30 2483 H 235.516 5.30243 3.86236 0
M  V30 2484 H 235.433 6.87637 3.14152 0
M  V30 2485 H 236.701 6.51791 4.27537 0
M  V30 2486 N 240.93 -0.123565 1.57115 0
M  V30 2487 C 241.84 -1.17074 2.033 0
M  V30 2488 C 242.856 -1.4561 0.952559 0
M  V30 2489 O 244.032 -1.56817 1.26374 0
M  V30 2490 C 241.097 -2.47857 2.42421 0
M  V30 2491 C 240.158 -2.26758 3.64526 0
M  V30 2492 C 239.391 -3.51305 4.01771 0
M  V30 2493 O 239.614 -4.5843 3.39409 0
M  V30 2494 O 238.548 -3.42578 4.94898 0
M  V30 2495 H 242.374 -0.808555 2.92739 0
M  V30 2496 H 239.959 -0.334027 1.45618 0
M  V30 2497 H 241.841 -3.2492 2.68338 0
M  V30 2498 H 240.516 -2.83558 1.5613 0
M  V30 2499 H 239.423 -1.47569 3.43765 0
M  V30 2500 H 240.756 -1.95963 4.51508 0
M  V30 2501 N 242.408 -1.52605 -0.393616 0
M  V30 2502 C 243.824 -1.41753 -0.733357 0
M  V30 2503 C 244.024 -0.534293 -1.94287 0
M  V30 2504 O 243.08 -0.0059787 -2.52499 0
M  V30 2505 C 244.393 -2.84531 -0.972772 0
M  V30 2506 C 245.941 -2.93978 -1.07453 0
M  V30 2507 C 246.416 -4.37756 -1.3466 0
M  V30 2508 N 247.907 -4.4106 -1.41492 0
M  V30 2509 C 248.642 -5.49387 -1.642 0
M  V30 2510 N 248.138 -6.67806 -1.8441 0
M  V30 2511 N 249.931 -5.36923 -1.66342 0
M  V30 2512 H 242.082 -2.08555 0.402328 0
M  V30 2513 H 244.345 -0.940654 0.117789 0
M  V30 2514 H 244.051 -3.51353 -0.156204 0
M  V30 2515 H 243.925 -3.26508 -1.88871 0
M  V30 2516 H 246.312 -2.27326 -1.88167 0
M  V30 2517 H 246.393 -2.55435 -0.136605 0
M  V30 2518 H 246.037 -5.04972 -0.544581 0
M  V30 2519 H 245.967 -4.73848 -2.2973 0
M  V30 2520 H 248.458 -3.55705 -1.27601 0
M  V30 2521 H 248.771 -7.46141 -2.01231 0
M  V30 2522 H 247.116 -6.70843 -1.81644 0
M  V30 2523 H 250.307 -4.43381 -1.50102 0
M  V30 2524 H 250.48 -6.21416 -1.837 0
M  V30 2525 N 243.887 0.651787 -1.4349 0
M  V30 2526 C 245.164 1.40909 -1.35661 0
M  V30 2527 C 245.544 2.11099 -0.00511733 0
M  V30 2528 O 244.892 2.04892 1.0115 0
M  V30 2529 C 245.102 2.3926 -2.54078 0
M  V30 2530 C 246.45 3.03217 -2.97228 0
M  V30 2531 O 247.474 2.49588 -2.54135 0
M  V30 2532 O 246.333 4.00455 -3.71885 0
M  V30 2533 H 243.427 0.629625 -0.536191 0
M  V30 2534 H 245.973 0.678575 -1.55542 0
M  V30 2535 H 244.745 1.86352 -3.44076 0
M  V30 2536 H 244.368 3.1976 -2.36303 0
M  V30 2537 N 245.365 1.30045 0.890287 0
M  V30 2538 C 246.611 1.18737 1.64406 0
M  V30 2539 C 246.944 -0.258525 1.92472 0
M  V30 2540 O 246.219 -1.18562 1.54186 0
M  V30 2541 C 246.502 2.01087 2.98724 0
M  V30 2542 C 246.355 3.53867 2.77665 0
M  V30 2543 C 247.674 1.84457 3.9958 0
M  V30 2544 H 244.793 0.432698 0.596608 0
M  V30 2545 H 247.435 1.5962 1.0306 0
M  V30 2546 H 245.585 1.66349 3.51084 0
M  V30 2547 H 247.257 3.98637 2.32133 0
M  V30 2548 H 245.5 3.78318 2.12269 0
M  V30 2549 H 246.171 4.06772 3.7315 0
M  V30 2550 H 248.647 2.14817 3.56361 0
M  V30 2551 H 247.523 2.44411 4.91482 0
M  V30 2552 H 247.784 0.802276 4.3476 0
M  V30 2553 N 246.843 -1.10192 1.12674 0
M  V30 2554 C 248.092 -1.81573 0.8783 0
M  V30 2555 C 248.405 -1.86249 -0.597557 0
M  V30 2556 O 249.611 -2.5386 -0.962681 0
M  V30 2557 C 248.067 -3.26149 1.52167 0
M  V30 2558 C 247.675 -3.29763 3.03249 0
M  V30 2559 C 249.419 -4.0234 1.3536 0
M  V30 2560 C 247.326 -4.68815 3.60508 0
M  V30 2561 H 246.256 -0.680394 0.324931 0
M  V30 2562 H 248.907 -1.23902 1.35353 0
M  V30 2563 H 247.289 -3.83832 0.974104 0
M  V30 2564 H 248.463 -2.8189 3.6452 0
M  V30 2565 H 246.778 -2.67059 3.19481 0
M  V30 2566 H 249.375 -5.05058 1.75559 0
M  V30 2567 H 249.718 -4.15235 0.297554 0
M  V30 2568 H 250.251 -3.51079 1.87052 0
M  V30 2569 H 246.99 -4.61121 4.65884 0
M  V30 2570 H 246.51 -5.17045 3.04014 0
M  V30 2571 H 248.189 -5.37785 3.59717 0
M  V30 2572 N 248.321 -0.919034 -1.28029 0
M  V30 2573 C 249.251 -0.428581 -2.29533 0
M  V30 2574 C 250.232 0.50659 -1.62381 0
M  V30 2575 O 251.417 0.413195 -1.89753 0
M  V30 2576 C 248.547 0.327388 -3.45753 0
M  V30 2577 C 247.501 -0.519137 -4.2484 0
M  V30 2578 C 246.827 0.365486 -5.33449 0
M  V30 2579 C 248.127 -1.77914 -4.91064 0
M  V30 2580 H 249.821 -1.27687 -2.70807 0
M  V30 2581 H 247.367 -0.615428 -1.30186 0
M  V30 2582 H 249.32 0.681378 -4.15855 0
M  V30 2583 H 248.044 1.20963 -3.03374 0
M  V30 2584 H 246.703 -0.855717 -3.56473 0
M  V30 2585 H 246.351 1.24642 -4.87312 0
M  V30 2586 H 246.051 -0.197356 -5.87268 0
M  V30 2587 H 247.575 0.715241 -6.06396 0
M  V30 2588 H 248.989 -1.49374 -5.53498 0
M  V30 2589 H 247.386 -2.2848 -5.54903 0
M  V30 2590 H 248.456 -2.50382 -4.15255 0
M  V30 2591 N 249.799 1.42003 -0.683588 0
M  V30 2592 C 251.215 1.55625 -0.353976 0
M  V30 2593 C 251.415 1.66151 1.14 0
M  V30 2594 O 250.471 1.63329 1.92561 0
M  V30 2595 C 251.784 2.80171 -1.092 0
M  V30 2596 C 253.332 2.93954 -1.07518 0
M  V30 2597 C 253.807 4.21372 -1.79471 0
M  V30 2598 N 255.298 4.28303 -1.76381 0
M  V30 2599 C 256.033 5.25729 -2.28904 0
M  V30 2600 N 255.529 6.29254 -2.89846 0
M  V30 2601 N 257.322 5.17586 -2.19228 0
M  V30 2602 H 249.473 1.33415 -1.6527 0
M  V30 2603 H 251.736 0.64282 -0.696769 0
M  V30 2604 H 251.442 2.78561 -2.14701 0
M  V30 2605 H 251.316 3.7133 -0.662862 0
M  V30 2606 H 253.703 2.95086 -0.028475 0
M  V30 2607 H 253.784 2.04002 -1.54328 0
M  V30 2608 H 253.428 4.21001 -2.84114 0
M  V30 2609 H 253.358 5.10275 -1.30104 0
M  V30 2610 H 255.849 3.54119 -1.31939 0
M  V30 2611 H 256.162 6.99964 -3.27522 0
M  V30 2612 H 254.507 6.29791 -2.93919 0
M  V30 2613 H 257.698 4.35631 -1.71299 0
M  V30 2614 H 257.871 5.93348 -2.60466 0
M  V30 2615 N 251.277 0.427512 1.51691 0
M  V30 2616 C 252.187 -0.39527 2.31246 0
M  V30 2617 C 253.203 -1.03674 1.39742 0
M  V30 2618 O 254.379 -1.03425 1.72816 0
M  V30 2619 C 251.444 -1.48706 3.13189 0
M  V30 2620 C 250.505 -0.866743 4.20459 0
M  V30 2621 C 249.738 -1.90651 4.98486 0
M  V30 2622 O 249.961 -3.12733 4.77026 0
M  V30 2623 O 248.895 -1.5025 5.82845 0
M  V30 2624 H 252.721 0.253918 3.02637 0
M  V30 2625 H 250.306 0.190274 1.48183 0
M  V30 2626 H 252.188 -2.12047 3.64162 0
M  V30 2627 H 250.863 -2.12051 2.44573 0
M  V30 2628 H 249.77 -0.195544 3.73589 0
M  V30 2629 H 251.103 -0.276934 4.9142 0
M  V30 2630 N 252.755 -1.56801 0.158532 0
M  V30 2631 C 253.688 -2.13148 -0.815065 0
M  V30 2632 C 254.666 -1.0581 -1.23462 0
M  V30 2633 O 255.85 -1.3371 -1.32868 0
M  V30 2634 C 252.977 -2.6606 -2.09594 0
M  V30 2635 C 252.023 -3.85651 -1.82141 0
M  V30 2636 S 252.856 -5.26041 -1.00207 0
M  V30 2637 C 254.012 -5.8235 -2.29389 0
M  V30 2638 H 254.245 -2.95396 -0.335937 0
M  V30 2639 H 251.778 -1.54299 -0.0559391 0
M  V30 2640 H 253.736 -2.97195 -2.8317 0
M  V30 2641 H 252.397 -1.83921 -2.54621 0
M  V30 2642 H 251.59 -4.20958 -2.77147 0
M  V30 2643 H 251.192 -3.55338 -1.16667 0
M  V30 2644 H 253.484 -5.94485 -3.24952 0
M  V30 2645 H 254.427 -6.79688 -1.9857 0
M  V30 2646 H 254.835 -5.10675 -2.40564 0
M  V30 2647 N 254.233 0.115231 -1.57178 0
M  V30 2648 C 255.165 1.16694 -1.97269 0
M  V30 2649 C 256.178 1.37445 -0.872502 0
M  V30 2650 O 257.367 1.36454 -1.15077 0
M  V30 2651 C 254.467 2.52627 -2.25905 0
M  V30 2652 C 253.64 2.52427 -3.57211 0
M  V30 2653 C 252.699 3.70134 -3.74016 0
M  V30 2654 O 251.725 3.53546 -4.46087 0
M  V30 2655 N 252.927 4.88844 -3.13068 0
M  V30 2656 H 255.692 0.82588 -2.88096 0
M  V30 2657 H 253.253 0.304461 -1.59011 0
M  V30 2658 H 255.245 3.29937 -2.34359 0
M  V30 2659 H 253.815 2.789 -1.41186 0
M  V30 2660 H 253.035 1.60805 -3.5991 0
M  V30 2661 H 254.323 2.49353 -4.43509 0
M  V30 2662 H 253.721 5.05225 -2.54489 0
M  V30 2663 H 252.278 5.63817 -3.27037 0
M  V30 2664 N 255.711 1.52812 0.385517 0
M  V30 2665 C 256.621 1.80766 1.49535 0
M  V30 2666 C 257.637 0.694651 1.59532 0
M  V30 2667 O 258.813 0.982611 1.75803 0
M  V30 2668 C 255.878 1.97381 2.85029 0
M  V30 2669 C 254.939 3.21295 2.84724 0
M  V30 2670 C 254.172 3.37108 4.13756 0
M  V30 2671 O 254.395 2.5765 5.08893 0
M  V30 2672 O 253.329 4.30378 4.20783 0
M  V30 2673 H 257.155 2.75015 1.28842 0
M  V30 2674 H 254.74 1.37946 0.573697 0
M  V30 2675 H 256.622 2.09996 3.65349 0
M  V30 2676 H 255.297 1.06322 3.05741 0
M  V30 2677 H 254.204 3.1412 2.03174 0
M  V30 2678 H 255.537 4.12212 2.68965 0
M  V30 2679 N 257.189 -0.644168 1.43834 0
M  V30 2680 C 258.137 -1.77793 1.49974 0
M  V30 2681 C 259.131 -1.65253 0.372536 0
M  V30 2682 O 260.337 -1.7149 0.546924 0
M  V30 2683 H 256.712 -0.58675 0.47035 0
M  V30 2684 H 258.683 -1.69736 2.45423 0
M  V30 2685 C 257.432 -3.16087 1.4486 0
M  V30 2686 H 256.755 -3.26378 2.30905 0
M  V30 2687 H 258.195 -3.95349 1.53217 0
M  V30 2688 C 256.654 -3.36484 0.167463 0
M  V30 2689 O 257.184 -3.94298 -0.767609 0
M  V30 2690 N 255.39 -2.90504 0.0747556 0
M  V30 2691 H 254.937 -2.4364 0.836507 0
M  V30 2692 H 254.895 -3.04527 -0.781714 0
M  V30 2693 N 258.668 -1.30515 -0.883378 0
M  V30 2694 C 259.945 -1.10086 -1.6168 0
M  V30 2695 C 260.325 0.349269 -2.08191 0
M  V30 2696 O 259.673 1.34105 -1.85008 0
M  V30 2697 C 259.883 -2.10315 -2.78511 0
M  V30 2698 C 261.231 -2.42119 -3.48803 0
M  V30 2699 O 262.255 -2.08638 -2.88702 0
M  V30 2700 O 261.114 -2.99396 -4.57192 0
M  V30 2701 H 258.208 -0.422907 -0.710689 0
M  V30 2702 H 260.754 -1.41947 -0.930015 0
M  V30 2703 H 259.526 -3.07917 -2.41459 0
M  V30 2704 H 259.149 -1.79282 -3.54886 0
M  V30 2705 N 260.146 1.09593 -1.13257 0
M  V30 2706 C 261.109 2.14359 -0.811358 0
M  V30 2707 C 262.109 1.59808 0.178377 0
M  V30 2708 O 263.299 1.74132 -0.0484911 0
M  V30 2709 C 260.431 3.40269 -0.207276 0
M  V30 2710 H 261.624 2.44284 -1.73969 0
M  V30 2711 H 259.177 1.25102 -0.936973 0
M  V30 2712 H 259.912 3.15969 0.73036 0
M  V30 2713 H 259.697 3.81154 -0.919992 0
M  V30 2714 H 261.187 4.176 0.000667944 0
M  V30 2715 N 261.624 0.925811 1.2754 0
M  V30 2716 C 262.849 0.580924 1.99098 0
M  V30 2717 C 263.274 -0.833555 1.68622 0
M  V30 2718 O 262.632 -1.55903 0.925422 0
M  V30 2719 C 262.68 0.811186 3.51358 0
M  V30 2720 O 261.784 -0.124129 4.12213 0
M  V30 2721 H 261.125 0.223873 0.625122 0
M  V30 2722 H 263.655 1.24455 1.62395 0
M  V30 2723 H 263.665 0.72601 4.01489 0
M  V30 2724 H 262.34 1.84227 3.72872 0
M  V30 2725 H 260.917 0.0108006 3.72898 0
M  V30 2726 N 263.102 -1.41638 0.69111 0
M  V30 2727 C 264.035 -2.28183 -0.0274913 0
M  V30 2728 C 265.013 -1.41984 -0.792424 0
M  V30 2729 O 266.197 -1.71415 -0.784169 0
M  V30 2730 C 263.324 -3.22135 -1.04628 0
M  V30 2731 C 262.37 -4.24848 -0.375037 0
M  V30 2732 S 263.203 -5.28231 0.879321 0
M  V30 2733 C 264.359 -6.25748 -0.137983 0
M  V30 2734 H 264.592 -2.88782 0.706553 0
M  V30 2735 H 262.125 -1.46709 0.481222 0
M  V30 2736 H 264.083 -3.76797 -1.62894 0
M  V30 2737 H 262.744 -2.6064 -1.75287 0
M  V30 2738 H 261.937 -4.90837 -1.14433 0
M  V30 2739 H 261.539 -3.73758 0.134434 0
M  V30 2740 H 263.831 -6.70188 -0.992659 0
M  V30 2741 H 264.774 -7.06417 0.487867 0
M  V30 2742 H 265.182 -5.62363 -0.490762 0
M  V30 2743 N 264.58 -0.43555 -1.51462 0
M  V30 2744 C 265.996 -0.0877501 -1.59359 0
M  V30 2745 C 266.196 1.4027 -1.4466 0
M  V30 2746 O 265.252 2.17243 -1.28693 0
M  V30 2747 C 266.565 -0.606264 -2.94525 0
M  V30 2748 C 268.113 -0.566548 -3.0783 0
M  V30 2749 C 268.588 -1.06201 -4.45517 0
M  V30 2750 N 270.079 -1.01992 -4.51832 0
M  V30 2751 C 270.814 -1.37417 -5.5669 0
M  V30 2752 N 270.31 -1.80119 -6.68976 0
M  V30 2753 N 272.103 -1.29245 -5.47039 0
M  V30 2754 H 264.254 -1.40533 -1.59261 0
M  V30 2755 H 266.517 -0.578992 -0.750648 0
M  V30 2756 H 266.223 -1.64901 -3.10645 0
M  V30 2757 H 266.097 -0.0302097 -3.77188 0
M  V30 2758 H 268.484 0.467208 -2.91378 0
M  V30 2759 H 268.565 -1.17898 -2.2701 0
M  V30 2760 H 268.209 -2.09422 -4.62715 0
M  V30 2761 H 268.139 -0.426127 -5.24873 0
M  V30 2762 H 270.63 -0.706308 -3.71241 0
M  V30 2763 H 270.943 -2.05392 -7.45006 0
M  V30 2764 H 269.288 -1.84044 -6.70189 0
M  V30 2765 H 272.479 -0.957522 -4.58202 0
M  V30 2766 H 272.652 -1.57182 -6.28648 0
M  V30 2767 N 266.058 1.56714 -0.166846 0
M  V30 2768 C 267.335 1.88412 0.525373 0
M  V30 2769 C 267.715 1.07602 1.81618 0
M  V30 2770 O 267.063 0.168621 2.27877 0
M  V30 2771 C 267.273 3.40363 0.771613 0
M  V30 2772 C 268.621 4.10007 1.1036 0
M  V30 2773 O 269.645 3.45655 0.860304 0
M  V30 2774 O 268.504 5.2369 1.56239 0
M  V30 2775 H 265.598 0.781587 0.270278 0
M  V30 2776 H 268.144 1.68458 -0.204946 0
M  V30 2777 H 266.916 3.91046 -0.141093 0
M  V30 2778 H 266.539 3.65914 1.55541 0
M  V30 2779 N 267.536 -0.106894 1.57237 0
M  V30 2780 C 268.782 -0.81373 1.85759 0
M  V30 2781 C 269.115 -1.78952 0.754315 0
M  V30 2782 O 268.39 -1.93029 -0.23879 0
M  V30 2783 C 268.673 -1.55293 3.24894 0
M  V30 2784 C 268.526 -0.595929 4.45835 0
M  V30 2785 C 269.845 -2.5063 3.61763 0
M  V30 2786 H 266.964 -0.294369 0.67566 0
M  V30 2787 H 269.606 -0.0776472 1.89841 0
M  V30 2788 H 267.756 -2.1804 3.21544 0
M  V30 2789 H 269.428 0.0236262 4.61294 0
M  V30 2790 H 267.671 0.0916191 4.33703 0
M  V30 2791 H 268.342 -1.15004 5.39887 0
M  V30 2792 H 270.818 -1.97982 3.65981 0
M  V30 2793 H 269.694 -2.99376 4.60071 0
M  V30 2794 H 269.955 -3.3385 2.89821 0
M  V30 2795 N 269.014 -1.53014 -0.377408 0
M  V30 2796 C 270.26 -1.68872 -1.12294 0
M  V30 2797 C 270.593 -0.433224 -1.89306 0
M  V30 2798 O 269.868 0.569258 -1.85983 0
M  V30 2799 C 270.151 -2.93115 -2.09179 0
M  V30 2800 C 270.004 -4.28794 -1.35853 0
M  V30 2801 C 271.323 -3.12928 -3.09458 0
M  V30 2802 H 268.442 -0.614518 -0.406862 0
M  V30 2803 H 271.084 -1.85633 -0.40503 0
M  V30 2804 H 269.234 -2.78956 -2.70399 0
M  V30 2805 H 270.906 -4.54742 -0.775082 0
M  V30 2806 H 269.149 -4.28744 -0.660364 0
M  V30 2807 H 269.82 -5.11837 -2.06706 0
M  V30 2808 H 272.296 -3.26194 -2.58334 0
M  V30 2809 H 271.172 -4.01316 -3.74482 0
M  V30 2810 H 271.433 -2.27669 -3.78971 0
M  V30 2811 N 270.492 0.636531 -1.44174 0
M  V30 2812 C 271.739 1.39619 -1.46672 0
M  V30 2813 C 272.067 1.94257 -0.0972691 0
M  V30 2814 O 271.322 1.73768 0.900175 0
M  V30 2815 C 271.621 2.58309 -2.47005 0
M  V30 2816 C 271.287 2.21992 -3.92467 0
M  V30 2817 C 269.949 2.118 -4.32081 0
M  V30 2818 C 272.301 1.9321 -4.84065 0
M  V30 2819 C 269.629 1.71007 -5.61225 0
M  V30 2820 C 271.981 1.53911 -6.13591 0
M  V30 2821 C 270.645 1.42257 -6.52165 0
M  V30 2822 H 269.915 0.510902 -0.536712 0
M  V30 2823 H 272.562 0.722328 -1.77355 0
M  V30 2824 H 270.867 3.30903 -2.09786 0
M  V30 2825 H 272.564 3.16533 -2.46186 0
M  V30 2826 H 269.154 2.30841 -3.61124 0
M  V30 2827 H 273.338 1.99997 -4.54219 0
M  V30 2828 H 268.594 1.60583 -5.89935 0
M  V30 2829 H 272.768 1.30677 -6.8403 0
M  V30 2830 H 270.395 1.10419 -7.52138 0
M  V30 2831 N 271.97 1.30982 0.876444 0
M  V30 2832 C 272.918 1.18006 2.00443 0
M  V30 2833 C 273.912 0.0898871 1.69161 0
M  V30 2834 O 275.118 0.251333 1.78237 0
M  V30 2835 H 271.493 0.365196 0.65737 0
M  V30 2836 H 273.464 2.13453 2.0852 0
M  V30 2837 C 272.213 0.897521 3.35916 0
M  V30 2838 H 271.536 1.7285 3.60504 0
M  V30 2839 H 272.976 0.846874 4.15456 0
M  V30 2840 C 271.435 -0.399674 3.34521 0
M  V30 2841 O 271.965 -1.41852 3.7582 0
M  V30 2842 N 270.171 -0.413893 2.87637 0
M  V30 2843 H 269.718 0.41571 2.54224 0
M  V30 2844 H 269.676 -1.28175 2.87086 0
M  V30 2845 N 273.449 -1.08991 1.13837 0
M  V30 2846 C 274.679 -1.84743 0.924859 0
M  V30 2847 C 275.087 -1.81629 -0.529874 0
M  V30 2848 O 274.43 -1.21397 -1.37872 0
M  V30 2849 C 274.492 -3.33568 1.34061 0
M  V30 2850 C 274.156 -3.60425 2.80968 0
M  V30 2851 C 275.153 -3.55771 3.79108 0
M  V30 2852 C 272.838 -3.88627 3.18236 0
M  V30 2853 C 274.832 -3.78939 5.12527 0
M  V30 2854 C 272.519 -4.11449 4.51833 0
M  V30 2855 C 273.517 -4.06598 5.48787 0
M  V30 2856 O 273.205 -4.28826 6.79973 0
M  V30 2857 H 272.937 -0.590258 0.329502 0
M  V30 2858 H 275.491 -1.38598 1.51591 0
M  V30 2859 H 273.721 -3.80442 0.692853 0
M  V30 2860 H 275.41 -3.90743 1.09886 0
M  V30 2861 H 276.176 -3.34005 3.51661 0
M  V30 2862 H 272.055 -3.91526 2.43369 0
M  V30 2863 H 275.599 -3.75068 5.88192 0
M  V30 2864 H 271.496 -4.32698 4.79002 0
M  V30 2865 H 272.264 -4.46264 6.86142 0
M  V30 2866 N 274.927 -0.932562 -1.27047 0
M  V30 2867 C 275.857 -0.452902 -2.29066 0
M  V30 2868 C 276.838 0.489338 -1.62909 0
M  V30 2869 O 278.023 0.393046 -1.90181 0
M  V30 2870 C 275.153 0.290698 -3.46081 0
M  V30 2871 C 274.107 -0.564168 -4.24265 0
M  V30 2872 C 273.433 0.308886 -5.33807 0
M  V30 2873 C 274.733 -1.83112 -4.89149 0
M  V30 2874 H 276.427 -1.30552 -2.69437 0
M  V30 2875 H 273.973 -0.629201 -1.29526 0
M  V30 2876 H 275.926 0.637233 -4.16554 0
M  V30 2877 H 274.65 1.17738 -3.0464 0
M  V30 2878 H 273.309 -0.893477 -3.55545 0
M  V30 2879 H 272.957 1.19467 -4.88607 0
M  V30 2880 H 272.657 -0.259633 -5.87026 0
M  V30 2881 H 274.181 0.650884 -6.07121 0
M  V30 2882 H 275.595 -1.55236 -5.51883 0
M  V30 2883 H 273.992 -2.34353 -5.52448 0
M  V30 2884 H 275.062 -2.54772 -4.12576 0
M  V30 2885 N 276.405 1.4127 -0.698611 0
M  V30 2886 C 277.355 2.27997 -0.0119836 0
M  V30 2887 C 278.339 1.42363 0.749765 0
M  V30 2888 O 279.531 1.65607 0.624758 0
M  V30 2889 C 276.66 3.30702 0.921458 0
M  V30 2890 C 275.746 4.23814 0.155796 0
M  V30 2891 N 276.137 4.98572 -0.852015 0
M  V30 2892 C 274.435 4.44284 0.390836 0
M  V30 2893 C 275.136 5.66744 -1.3106 0
M  V30 2894 N 274.112 5.39867 -0.635944 0
M  V30 2895 H 277.914 2.83232 -0.784649 0
M  V30 2896 H 275.428 1.53518 -0.529711 0
M  V30 2897 H 277.425 3.91661 1.42854 0
M  V30 2898 H 276.085 2.77028 1.69369 0
M  V30 2899 H 277.096 5.03024 -1.23235 0
M  V30 2900 H 273.773 4.01614 1.14071 0
M  V30 2901 H 275.163 6.36672 -2.14707 0
M  V30 2902 N 277.883 0.443576 1.51229 0
M  V30 2903 C 278.846 -0.353132 2.26463 0
M  V30 2904 C 279.846 -0.944338 1.3015 0
M  V30 2905 O 281.036 -0.817813 1.5381 0
M  V30 2906 C 278.168 -1.50023 3.06114 0
M  V30 2907 H 279.361 0.3063 2.98332 0
M  V30 2908 H 276.914 0.196902 1.55055 0
M  V30 2909 H 277.649 -2.19553 2.38677 0
M  V30 2910 H 277.434 -1.08241 3.76864 0
M  V30 2911 H 278.924 -2.06296 3.63087 0
M  V30 2912 N 279.361 -1.56624 0.175154 0
M  V30 2913 C 280.589 -2.01374 -0.474971 0
M  V30 2914 C 281.004 -1.05537 -1.56548 0
M  V30 2915 O 280.361 -0.0568668 -1.82411 0
M  V30 2916 C 280.412 -3.45923 -1.04975 0
M  V30 2917 O 280.133 -4.381 -0.00276605 0
M  V30 2918 C 281.634 -4.06093 -1.77773 0
M  V30 2919 H 278.854 -0.659962 -0.121206 0
M  V30 2920 H 281.398 -2.02601 0.27801 0
M  V30 2921 H 279.553 -3.45458 -1.75321 0
M  V30 2922 H 279.967 -5.22753 -0.427681 0
M  V30 2923 H 281.441 -5.09147 -2.13245 0
M  V30 2924 H 281.918 -3.48405 -2.67414 0
M  V30 2925 H 282.524 -4.10272 -1.12059 0
M  V30 2926 N 280.839 0.0985539 -1.57292 0
M  V30 2927 C 281.802 1.10402 -2.00858 0
M  V30 2928 C 282.802 1.33146 -0.901593 0
M  V30 2929 O 283.992 1.29318 -1.16716 0
M  V30 2930 C 281.124 2.45394 -2.36632 0
M  V30 2931 H 282.317 0.729099 -2.90902 0
M  V30 2932 H 279.87 0.343495 -1.52479 0
M  V30 2933 H 280.605 2.87769 -1.49531 0
M  V30 2934 H 280.39 2.30235 -3.17387 0
M  V30 2935 H 281.88 3.17718 -2.71007 0
M  V30 2936 N 282.317 1.53212 0.369288 0
M  V30 2937 C 283.564 1.69215 1.11232 0
M  V30 2938 C 283.892 0.442048 1.8941 0
M  V30 2939 O 283.147 -0.575944 1.87033 0
M  V30 2940 C 283.446 2.89101 2.10132 0
M  V30 2941 C 283.112 4.25758 1.48463 0
M  V30 2942 C 281.774 4.6292 1.31372 0
M  V30 2943 C 284.126 5.10757 1.03811 0
M  V30 2944 C 281.454 5.82722 0.68207 0
M  V30 2945 C 283.806 6.31201 0.420487 0
M  V30 2946 C 282.47 6.67079 0.237038 0
M  V30 2947 H 281.74 0.619201 0.407027 0
M  V30 2948 H 284.387 1.87391 0.394552 0
M  V30 2949 H 282.692 2.65421 2.88199 0
M  V30 2950 H 284.389 2.98676 2.6757 0
M  V30 2951 H 280.979 3.96494 1.62758 0
M  V30 2952 H 285.163 4.82599 1.1581 0
M  V30 2953 H 280.419 6.09113 0.528316 0
M  V30 2954 H 284.593 6.96368 0.0662874 0
M  V30 2955 H 282.22 7.59774 -0.254477 0
M  V30 2956 N 283.795 -0.628877 1.44509 0
M  V30 2957 C 284.727 -1.754 1.47538 0
M  V30 2958 C 285.74 -1.58575 0.368506 0
M  V30 2959 O 286.929 -1.66847 0.634376 0
M  V30 2960 C 284.029 -3.1315 1.29577 0
M  V30 2961 C 283.202 -3.56413 2.53551 0
M  V30 2962 C 282.261 -4.7305 2.30457 0
M  V30 2963 O 281.287 -4.81247 3.03957 0
M  V30 2964 N 282.489 -5.64903 1.3366 0
M  V30 2965 H 285.254 -1.73272 2.44534 0
M  V30 2966 H 282.815 -0.813512 1.39977 0
M  V30 2967 H 284.807 -3.88902 1.11971 0
M  V30 2968 H 283.377 -3.09908 0.409371 0
M  V30 2969 H 282.597 -2.70847 2.86419 0
M  V30 2970 H 283.885 -3.82071 3.36005 0
M  V30 2971 H 283.283 -5.60975 0.729604 0
M  V30 2972 H 281.84 -6.40275 1.22032 0
M  V30 2973 N 285.273 -1.31445 -0.869486 0
M  V30 2974 C 286.521 -1.20918 -1.61936 0
M  V30 2975 C 286.842 0.232683 -1.93607 0
M  V30 2976 O 286.112 1.15352 -1.58338 0
M  V30 2977 H 284.692 -0.44454 -0.600328 0
M  V30 2978 H 287.354 -1.64776 -1.0409 0
M  V30 2979 H 286.45 -1.78124 -2.56278 0
M  V30 2980 N 286.751 1.08385 -1.14413 0
M  V30 2981 C 287.979 1.84517 -0.936001 0
M  V30 2982 C 288.394 1.81626 0.515503 0
M  V30 2983 O 287.751 1.22008 1.35721 0
M  V30 2984 C 287.802 3.32049 -1.42918 0
M  V30 2985 O 287.523 3.34951 -2.82381 0
M  V30 2986 C 289.024 4.24986 -1.26103 0
M  V30 2987 H 286.244 0.582491 -0.333084 0
M  V30 2988 H 288.788 1.36885 -1.5193 0
M  V30 2989 H 286.943 3.7707 -0.888641 0
M  V30 2990 H 287.357 4.27048 -3.04517 0
M  V30 2991 H 288.831 5.26615 -1.6547 0
M  V30 2992 H 289.308 4.38726 -0.20392 0
M  V30 2993 H 289.914 3.85791 -1.79012 0
M  V30 2994 N 288.23 0.939286 1.26551 0
M  V30 2995 C 289.641 0.628782 1.75793 0
M  V30 2996 C 289.992 -0.856046 1.7654 0
M  V30 2997 O 289.117 -1.66994 1.3763 0
M  V30 2998 C 289.712 1.13465 3.19235 0
M  V30 2999 C 288.271 0.874601 3.66098 0
M  V30 3000 C 287.418 1.28667 2.45642 0
M  V30 3001 H 290.369 1.1178 1.12654 0
M  V30 3002 H 290.39 0.487609 3.77363 0
M  V30 3003 H 289.902 2.21535 3.1866 0
M  V30 3004 H 288.003 -0.191793 3.72106 0
M  V30 3005 H 288.116 1.50028 4.55004 0
M  V30 3006 H 286.48 0.705109 2.44745 0
M  V30 3007 H 287.263 2.37625 2.47769 0
M  V30 3008 N 289.708 -1.40897 0.706093 0
M  V30 3009 C 290.638 -2.33418 0.0620085 0
M  V30 3010 C 291.619 -1.52385 -0.755827 0
M  V30 3011 O 292.804 -1.80886 -0.706674 0
M  V30 3012 C 289.934 -3.36293 -0.867445 0
M  V30 3013 C 288.888 -4.27716 -0.155932 0
M  V30 3014 C 288.214 -5.2105 -1.20046 0
M  V30 3015 C 289.514 -5.12944 0.984149 0
M  V30 3016 H 291.208 -2.87527 0.83477 0
M  V30 3017 H 288.754 -1.38249 0.402875 0
M  V30 3018 H 290.707 -3.99949 -1.32735 0
M  V30 3019 H 289.431 -2.80556 -1.67199 0
M  V30 3020 H 288.09 -3.65498 0.284047 0
M  V30 3021 H 287.738 -4.61624 -1.99781 0
M  V30 3022 H 287.438 -5.83056 -0.729328 0
M  V30 3023 H 288.962 -5.87584 -1.66066 0
M  V30 3024 H 290.376 -5.70109 0.604048 0
M  V30 3025 H 288.773 -5.83945 1.38304 0
M  V30 3026 H 289.843 -4.49485 1.81911 0
M  V30 3027 N 291.186 -0.45159 -1.50991 0
M  V30 3028 C 292.149 0.341117 -2.26647 0
M  V30 3029 C 293.149 0.937422 -1.30649 0
M  V30 3030 O 294.339 0.809644 -1.54241 0
M  V30 3031 C 291.471 1.48398 -3.06905 0
M  V30 3032 H 292.664 -0.322117 -2.98165 0
M  V30 3033 H 290.217 -0.205122 -1.54948 0
M  V30 3034 H 290.952 2.18284 -2.39838 0
M  V30 3035 H 290.737 1.06241 -3.77432 0
M  V30 3036 H 292.227 2.04367 -3.64176 0
M  V30 3037 N 292.664 1.56529 -0.183458 0
M  V30 3038 C 293.596 2.15747 0.773697 0
M  V30 3039 C 294.609 1.1162 1.1851 0
M  V30 3040 O 295.798 1.3876 1.12285 0
M  V30 3041 C 292.898 2.6952 2.05456 0
M  V30 3042 C 292.071 3.98429 1.8048 0
M  V30 3043 C 291.13 4.37145 2.92901 0
M  V30 3044 O 290.156 5.04791 2.6301 0
M  V30 3045 N 291.358 3.99695 4.2098 0
M  V30 3046 H 294.123 2.98505 0.26736 0
M  V30 3047 H 291.684 1.619 -0.0010878 0
M  V30 3048 H 293.676 2.92412 2.79781 0
M  V30 3049 H 292.246 1.91282 2.47245 0
M  V30 3050 H 291.466 3.8379 0.899947 0
M  V30 3051 H 292.754 4.82597 1.61175 0
M  V30 3052 H 292.152 3.4526 4.48121 0
M  V30 3053 H 290.709 4.27562 4.9197 0
M  V30 3054 N 294.142 -0.090211 1.57342 0
M  V30 3055 C 295.105 -1.09335 2.01441 0
M  V30 3056 C 296.105 -1.32666 0.908641 0
M  V30 3057 O 297.295 -1.28697 1.174 0
M  V30 3058 C 294.427 -2.44136 2.3793 0
M  V30 3059 H 295.62 -0.713662 2.91285 0
M  V30 3060 H 293.173 -0.335404 1.52659 0
M  V30 3061 H 293.908 -2.86972 1.51055 0
M  V30 3062 H 293.693 -2.28548 3.18603 0
M  V30 3063 H 295.183 -3.16277 2.72688 0
M  V30 3064 N 295.62 -1.53406 -0.361157 0
M  V30 3065 C 296.866 -1.70054 -1.10496 0
M  V30 3066 C 297.199 -0.453278 -1.88836 0
M  V30 3067 O 296.474 0.5495 -1.86576 0
M  V30 3068 C 296.757 -2.95317 -2.06058 0
M  V30 3069 C 296.61 -4.3021 -1.31298 0
M  V30 3070 C 297.929 -3.16193 -3.06121 0
M  V30 3071 H 295.048 -0.618799 -0.400321 0
M  V30 3072 H 297.69 -1.86052 -0.385318 0
M  V30 3073 H 295.84 -2.81809 -2.67425 0
M  V30 3074 H 297.512 -4.55538 -0.726807 0
M  V30 3075 H 295.755 -4.29421 -0.614853 0
M  V30 3076 H 296.426 -5.14 -2.01265 0
M  V30 3077 H 298.902 -3.28916 -2.5486 0
M  V30 3078 H 297.778 -4.05266 -3.70204 0
M  V30 3079 H 298.039 -2.31676 -3.76535 0
M  V30 3080 N 297.098 0.621204 -1.44841 0
M  V30 3081 C 298.008 1.7612 -1.5498 0
M  V30 3082 C 299.024 1.68477 -0.434927 0
M  V30 3083 O 300.2 1.89076 -0.693693 0
M  V30 3084 C 297.265 3.1254 -1.50065 0
M  V30 3085 C 296.326 3.31741 -2.72482 0
M  V30 3086 C 295.559 4.61653 -2.67792 0
M  V30 3087 O 295.782 5.431 -1.74352 0
M  V30 3088 O 294.716 4.83271 -3.58794 0
M  V30 3089 H 298.542 1.70518 -2.51311 0
M  V30 3090 H 296.127 0.783643 -1.27198 0
M  V30 3091 H 298.009 3.93844 -1.49882 0
M  V30 3092 H 296.684 3.18663 -0.568806 0
M  V30 3093 H 295.591 2.50077 -2.7823 0
M  V30 3094 H 296.924 3.30486 -3.64746 0
M  V30 3095 N 298.576 1.31904 0.862503 0
M  V30 3096 C 299.824 1.21776 1.61292 0
M  V30 3097 C 300.145 -0.222413 1.93727 0
M  V30 3098 O 299.415 -1.1451 1.58947 0
M  V30 3099 H 297.995 0.447717 0.597962 0
M  V30 3100 H 300.657 1.65326 1.03215 0
M  V30 3101 H 299.753 1.7948 2.5533 0
M  V30 3102 N 300.054 -1.07777 1.14986 0
M  V30 3103 C 301.465 -1.61766 0.932127 0
M  V30 3104 C 301.816 -1.88974 -0.527581 0
M  V30 3105 O 300.941 -1.65198 -1.39781 0
M  V30 3106 C 301.536 -2.93891 1.68563 0
M  V30 3107 C 300.095 -3.44639 1.5133 0
M  V30 3108 C 299.242 -2.18767 1.704 0
M  V30 3109 H 302.193 -0.909201 1.30074 0
M  V30 3110 H 302.214 -3.62623 1.15259 0
M  V30 3111 H 301.726 -2.74057 2.74799 0
M  V30 3112 H 299.827 -3.69564 0.474702 0
M  V30 3113 H 299.94 -4.20966 2.28746 0
M  V30 3114 H 298.304 -2.28253 1.13016 0
M  V30 3115 H 299.087 -2.01433 2.77992 0
M  V30 3116 N 301.532 -0.945985 -1.26051 0
M  V30 3117 C 302.757 -0.612525 -1.98149 0
M  V30 3118 C 303.182 0.806623 -1.69927 0
M  V30 3119 O 302.54 1.54411 -0.950108 0
M  V30 3120 C 302.588 -0.866981 -3.50023 0
M  V30 3121 O 301.692 0.0585333 -4.12358 0
M  V30 3122 H 301.033 -0.23379 -0.621481 0
M  V30 3123 H 303.563 -1.27023 -1.60395 0
M  V30 3124 H 303.573 -0.789792 -4.00283 0
M  V30 3125 H 302.248 -1.90135 -3.69894 0
M  V30 3126 H 300.825 -0.0701241 -3.72834 0
M  V30 3127 N 303.011 1.40521 -0.713556 0
M  V30 3128 C 303.921 2.34522 -0.0606667 0
M  V30 3129 C 304.937 1.57193 0.74607 0
M  V30 3130 O 306.113 1.89591 0.679493 0
M  V30 3131 C 303.178 3.36081 0.851491 0
M  V30 3132 C 302.239 4.29286 0.0349339 0
M  V30 3133 C 301.472 5.25994 0.903649 0
M  V30 3134 O 301.695 5.28616 2.14292 0
M  V30 3135 O 300.629 6.00918 0.343723 0
M  V30 3136 H 304.455 2.91968 -0.835972 0
M  V30 3137 H 302.04 1.41681 -0.47402 0
M  V30 3138 H 303.922 3.98369 1.37404 0
M  V30 3139 H 302.597 2.81052 1.60598 0
M  V30 3140 H 301.504 3.70289 -0.532633 0
M  V30 3141 H 302.837 4.87462 -0.681287 0
M  V30 3142 N 304.489 0.459591 1.5075 0
M  V30 3143 C 305.437 -0.354678 2.2988 0
M  V30 3144 C 306.431 -1.00086 1.36672 0
M  V30 3145 O 307.637 -0.933277 1.53915 0
M  V30 3146 H 304.012 -0.13321 0.740107 0
M  V30 3147 H 305.983 0.333269 2.96533 0
M  V30 3148 C 304.732 -1.43073 3.169 0
M  V30 3149 H 304.055 -0.942882 3.88523 0
M  V30 3150 H 305.495 -1.97328 3.75284 0
M  V30 3151 C 303.954 -2.42633 2.33732 0
M  V30 3152 O 304.484 -3.47658 2.01238 0
M  V30 3153 N 302.69 -2.14066 1.9653 0
M  V30 3154 H 302.237 -1.28685 2.23155 0
M  V30 3155 H 302.195 -2.80917 1.41185 0
M  V30 3156 N 305.967 -1.56429 0.191757 0
M  V30 3157 C 307.213 -1.97777 -0.448554 0
M  V30 3158 C 307.546 -1.07847 -1.61501 0
M  V30 3159 O 306.821 -0.129774 -1.94067 0
M  V30 3160 C 307.104 -3.48362 -0.911906 0
M  V30 3161 C 306.957 -4.4907 0.256136 0
M  V30 3162 C 308.276 -4.02561 -1.77857 0
M  V30 3163 H 305.395 -0.719071 -0.161572 0
M  V30 3164 H 308.037 -1.87896 0.282007 0
M  V30 3165 H 306.187 -3.56914 -1.53442 0
M  V30 3166 H 307.859 -4.5256 0.893733 0
M  V30 3167 H 306.102 -4.24181 0.908436 0
M  V30 3168 H 306.773 -5.51889 -0.11053 0
M  V30 3169 H 309.249 -3.96767 -1.25359 0
M  V30 3170 H 308.125 -5.08301 -2.07174 0
M  V30 3171 H 308.386 -3.47616 -2.73158 0
M  V30 3172 N 307.445 0.0818655 -1.57387 0
M  V30 3173 C 308.861 0.436412 -1.53517 0
M  V30 3174 C 309.061 1.79758 -0.910459 0
M  V30 3175 O 308.117 2.47324 -0.508636 0
M  V30 3176 C 309.43 0.386734 -2.98203 0
M  V30 3177 C 310.978 0.467644 -3.09487 0
M  V30 3178 C 311.453 0.447978 -4.55804 0
M  V30 3179 N 312.944 0.508348 -4.60402 0
M  V30 3180 C 313.679 0.515184 -5.71081 0
M  V30 3181 N 313.175 0.477435 -6.91153 0
M  V30 3182 N 314.968 0.560988 -5.59294 0
M  V30 3183 H 307.119 -0.809546 -1.96367 0
M  V30 3184 H 309.382 -0.302733 -0.898363 0
M  V30 3185 H 309.088 -0.546539 -3.47427 0
M  V30 3186 H 308.962 1.20075 -3.57578 0
M  V30 3187 H 311.349 1.39134 -2.60242 0
M  V30 3188 H 311.43 -0.374753 -2.5304 0
M  V30 3189 H 311.074 -0.471826 -5.05704 0
M  V30 3190 H 311.004 1.30777 -5.10103 0
M  V30 3191 H 313.495 0.54218 -3.7399 0
M  V30 3192 H 313.808 0.486299 -7.71268 0
M  V30 3193 H 312.153 0.444278 -6.93579 0
M  V30 3194 H 315.344 0.5881 -4.64391 0
M  V30 3195 H 315.517 0.562846 -6.45551 0
M  V30 3196 N 308.923 1.53595 0.353017 0
M  V30 3197 C 309.87 1.80919 1.43308 0
M  V30 3198 C 310.84 0.654288 1.5267 0
M  V30 3199 O 312.025 0.897759 1.6836 0
M  V30 3200 C 309.165 2.01605 2.80089 0
M  V30 3201 C 308.278 3.29321 2.79593 0
M  V30 3202 C 307.413 3.40125 4.0803 0
M  V30 3203 C 306.452 4.61826 4.01725 0
M  V30 3204 N 305.589 4.69716 5.21834 0
M  V30 3205 H 310.429 2.73074 1.19308 0
M  V30 3206 H 307.966 1.35263 0.578131 0
M  V30 3207 H 309.924 2.11586 3.59565 0
M  V30 3208 H 308.554 1.12772 3.0246 0
M  V30 3209 H 307.606 3.28229 1.92276 0
M  V30 3210 H 308.918 4.18884 2.70809 0
M  V30 3211 H 308.072 3.49488 4.95927 0
M  V30 3212 H 306.811 2.48601 4.19582 0
M  V30 3213 H 305.816 4.52552 3.12213 0
M  V30 3214 H 307.041 5.54705 3.91764 0
M  V30 3215 H 304.987 3.81097 5.33948 0
M  V30 3216 H 304.904 5.53202 5.1527 0
M  V30 3217 H 306.172 4.83376 6.11529 0
M  V30 3218 N 310.401 -0.613514 1.45168 0
M  V30 3219 C 311.331 -1.7354 1.56225 0
M  V30 3220 C 312.312 -1.64981 0.41414 0
M  V30 3221 O 313.497 -1.83472 0.636526 0
M  V30 3222 C 310.627 -3.12128 1.52295 0
M  V30 3223 C 309.581 -3.35491 2.65762 0
M  V30 3224 C 308.907 -4.74291 2.46885 0
M  V30 3225 C 310.207 -3.26325 4.0781 0
M  V30 3226 H 311.901 -1.64543 2.50132 0
M  V30 3227 H 309.447 -0.790185 1.20383 0
M  V30 3228 H 311.4 -3.90404 1.58628 0
M  V30 3229 H 310.124 -3.2195 0.549139 0
M  V30 3230 H 308.783 -2.59603 2.58847 0
M  V30 3231 H 308.431 -4.80839 1.47657 0
M  V30 3232 H 308.131 -4.9088 3.22972 0
M  V30 3233 H 309.655 -5.54775 2.55063 0
M  V30 3234 H 311.069 -3.94483 4.16 0
M  V30 3235 H 309.466 -3.54445 4.8424 0
M  V30 3236 H 310.536 -2.23855 4.30136 0
M  V30 3237 N 311.879 -1.3236 -0.855495 0
M  V30 3238 C 313.104 -1.2601 -1.64731 0
M  V30 3239 C 313.529 0.169068 -1.87339 0
M  V30 3240 O 312.887 1.12016 -1.42556 0
M  V30 3241 C 312.935 -2.02417 -2.98429 0
M  V30 3242 O 312.039 -1.3714 -3.8893 0
M  V30 3243 H 311.38 -0.434325 -0.502253 0
M  V30 3244 H 313.91 -1.74661 -1.06558 0
M  V30 3245 H 313.92 -2.12559 -3.48257 0
M  V30 3246 H 312.595 -3.06343 -2.81295 0
M  V30 3247 H 311.172 -1.3554 -3.47395 0
M  V30 3248 N 313.357 1.07166 -1.15556 0
M  V30 3249 C 314.773 1.31899 -0.898603 0
M  V30 3250 C 314.973 1.96333 0.453383 0
M  V30 3251 O 314.029 2.22438 1.19489 0
M  V30 3252 C 315.342 2.20826 -2.04099 0
M  V30 3253 C 316.89 2.34269 -2.07574 0
M  V30 3254 C 317.365 3.26546 -3.21141 0
M  V30 3255 N 318.856 3.34127 -3.20801 0
M  V30 3256 C 319.591 4.05595 -4.05315 0
M  V30 3257 N 319.087 4.79661 -4.99897 0
M  V30 3258 N 320.88 4.01555 -3.93332 0
M  V30 3259 H 313.031 0.637302 -2.02613 0
M  V30 3260 H 315.294 0.343468 -0.883591 0
M  V30 3261 H 315 1.80744 -3.01703 0
M  V30 3262 H 314.874 3.21364 -1.97496 0
M  V30 3263 H 317.261 2.73603 -1.10568 0
M  V30 3264 H 317.342 1.33429 -2.18244 0
M  V30 3265 H 316.986 2.87931 -4.184 0
M  V30 3266 H 316.916 4.27345 -3.07708 0
M  V30 3267 H 319.407 2.81336 -2.52306 0
M  V30 3268 H 319.72 5.31694 -5.60822 0
M  V30 3269 H 318.065 4.78671 -5.03884 0
M  V30 3270 H 321.256 3.42806 -3.18751 0
M  V30 3271 H 321.429 4.56987 -4.5942 0
M  V30 3272 N 314.835 0.952656 1.25548 0
M  V30 3273 C 315.798 0.475794 2.24207 0
M  V30 3274 C 316.798 -0.419428 1.55234 0
M  V30 3275 O 317.988 -0.216994 1.72843 0
M  V30 3276 C 315.12 -0.312814 3.39462 0
M  V30 3277 H 316.313 1.34779 2.67908 0
M  V30 3278 H 313.866 0.735739 1.37901 0
M  V30 3279 H 314.601 -1.20257 3.01179 0
M  V30 3280 H 314.386 0.329404 3.90714 0
M  V30 3281 H 315.876 -0.635986 4.12729 0
M  V30 3282 N 316.313 -1.40141 0.720998 0
M  V30 3283 C 317.59 -1.94677 0.189757 0
M  V30 3284 C 317.97 -1.65879 -1.30566 0
M  V30 3285 O 317.318 -0.979391 -2.06447 0
M  V30 3286 C 317.528 -3.45279 0.508304 0
M  V30 3287 C 318.876 -4.22209 0.449934 0
M  V30 3288 O 319.9 -3.53413 0.444677 0
M  V30 3289 O 318.759 -5.44788 0.432189 0
M  V30 3290 H 315.853 -0.826459 0.0299026 0
M  V30 3291 H 318.399 -1.49719 0.7989 0
M  V30 3292 H 317.171 -3.59619 1.54239 0
M  V30 3293 H 316.794 -3.97386 -0.130525 0
M  V30 3294 N 317.792 -0.46758 -1.50504 0
M  V30 3295 C 318.722 0.318381 -2.31319 0
M  V30 3296 C 319.703 0.993564 -1.38066 0
M  V30 3297 O 320.888 0.991411 -1.66987 0
M  V30 3298 C 318.018 1.40275 -3.17711 0
M  V30 3299 C 316.972 0.849373 -4.19487 0
M  V30 3300 C 316.298 2.03177 -4.94594 0
M  V30 3301 C 317.598 -0.136942 -5.2212 0
M  V30 3302 H 319.292 -0.356106 -2.97275 0
M  V30 3303 H 316.838 -0.172703 -1.42961 0
M  V30 3304 H 318.791 1.96004 -3.73042 0
M  V30 3305 H 317.515 2.10596 -2.49634 0
M  V30 3306 H 316.174 0.314076 -3.65252 0
M  V30 3307 H 315.822 2.72187 -4.22993 0
M  V30 3308 H 315.522 1.66774 -5.63436 0
M  V30 3309 H 317.046 2.59403 -5.52759 0
M  V30 3310 H 318.46 0.331056 -5.72343 0
M  V30 3311 H 316.857 -0.41507 -5.98663 0
M  V30 3312 H 317.927 -1.06398 -4.73083 0
M  V30 3313 N 319.27 1.56325 -0.20005 0
M  V30 3314 C 320.498 2.02105 0.442874 0
M  V30 3315 C 320.913 1.08014 1.5485 0
M  V30 3316 O 320.27 0.0858797 1.82298 0
M  V30 3317 C 320.321 3.47549 0.994583 0
M  V30 3318 O 320.042 4.38049 -0.0669322 0
M  V30 3319 C 321.543 4.0887 1.7129 0
M  V30 3320 H 318.763 0.661807 0.110691 0
M  V30 3321 H 321.307 2.02134 -0.310207 0
M  V30 3322 H 319.462 3.48204 1.69803 0
M  V30 3323 H 319.876 5.23368 0.344462 0
M  V30 3324 H 321.35 5.12475 2.05118 0
M  V30 3325 H 321.827 3.52615 2.61838 0
M  V30 3326 H 322.433 4.12002 1.05518 0
M  V30 3327 N 320.748 -0.0735177 1.57428 0
M  V30 3328 C 321.658 -1.10547 2.06922 0
M  V30 3329 C 322.674 -1.42506 0.998402 0
M  V30 3330 O 323.85 -1.52717 1.31299 0
M  V30 3331 C 320.915 -2.40019 2.50184 0
M  V30 3332 C 319.976 -2.15046 3.71556 0
M  V30 3333 C 319.209 -3.38345 4.12745 0
M  V30 3334 O 319.432 -4.47399 3.53822 0
M  V30 3335 O 318.366 -3.2666 5.05546 0
M  V30 3336 H 322.192 -0.715013 2.95163 0
M  V30 3337 H 319.777 -0.287531 1.46607 0
M  V30 3338 H 321.659 -3.16218 2.78539 0
M  V30 3339 H 320.334 -2.78447 1.65072 0
M  V30 3340 H 319.241 -1.36558 3.48285 0
M  V30 3341 H 320.574 -1.81499 4.57514 0
M  V30 3342 N 322.226 -1.5378 -0.344866 0
M  V30 3343 C 323.456 -1.74646 -1.10374 0
M  V30 3344 C 323.864 -0.48491 -1.8288 0
M  V30 3345 O 323.207 0.553062 -1.75177 0
M  V30 3346 C 323.269 -2.87145 -2.16306 0
M  V30 3347 C 322.933 -4.26795 -1.63386 0
M  V30 3348 C 323.93 -5.08412 -1.08688 0
M  V30 3349 C 321.615 -4.73276 -1.68272 0
M  V30 3350 C 323.609 -6.34609 -0.595792 0
M  V30 3351 C 321.296 -5.99446 -1.18776 0
M  V30 3352 C 322.294 -6.79946 -0.645215 0
M  V30 3353 O 321.982 -8.03745 -0.157626 0
M  V30 3354 H 321.714 -0.587112 -0.335075 0
M  V30 3355 H 324.268 -2.01403 -0.403252 0
M  V30 3356 H 322.498 -2.55909 -2.89909 0
M  V30 3357 H 324.187 -2.95992 -2.77747 0
M  V30 3358 H 324.953 -4.73666 -1.04236 0
M  V30 3359 H 320.832 -4.10677 -2.09442 0
M  V30 3360 H 324.376 -6.97389 -0.171654 0
M  V30 3361 H 320.273 -6.33687 -1.22928 0
M  V30 3362 H 321.041 -8.18038 -0.275037 0
M  V30 3363 N 323.704 0.605807 -1.45491 0
M  V30 3364 C 324.634 1.72709 -1.57143 0
M  V30 3365 C 325.615 1.6476 -0.422884 0
M  V30 3366 O 326.8 1.83132 -0.646247 0
M  V30 3367 C 323.93 3.11316 -1.53948 0
M  V30 3368 C 322.884 3.34077 -2.67537 0
M  V30 3369 C 322.21 4.72975 -2.49397 0
M  V30 3370 C 323.51 3.24158 -4.09535 0
M  V30 3371 H 325.204 1.63214 -2.51001 0
M  V30 3372 H 322.75 0.78379 -1.208 0
M  V30 3373 H 324.703 3.89557 -1.60696 0
M  V30 3374 H 323.427 3.21655 -0.566205 0
M  V30 3375 H 322.086 2.58227 -2.6022 0
M  V30 3376 H 321.734 4.8005 -1.50205 0
M  V30 3377 H 321.434 4.8916 -3.25571 0
M  V30 3378 H 322.958 5.53414 -2.58002 0
M  V30 3379 H 324.372 3.92271 -4.18086 0
M  V30 3380 H 322.769 3.51872 -4.86113 0
M  V30 3381 H 323.839 2.2157 -4.31317 0
M  V30 3382 N 325.182 1.32811 0.848464 0
M  V30 3383 C 326.407 1.26882 1.6406 0
M  V30 3384 C 326.832 -0.15913 1.87426 0
M  V30 3385 O 326.19 -1.11258 1.43148 0
M  V30 3386 C 326.238 2.03997 2.97351 0
M  V30 3387 O 325.342 1.39201 3.88197 0
M  V30 3388 H 324.683 0.436982 0.499943 0
M  V30 3389 H 327.213 1.75224 1.0563 0
M  V30 3390 H 327.223 2.14403 3.47124 0
M  V30 3391 H 325.898 3.0783 2.79666 0
M  V30 3392 H 324.475 1.37381 3.46671 0
M  V30 3393 N 326.66 -1.06551 1.16123 0
M  V30 3394 C 327.888 -1.83005 0.965237 0
M  V30 3395 C 328.303 -1.82423 -0.486542 0
M  V30 3396 O 327.66 -1.24152 -1.33763 0
M  V30 3397 C 327.711 -3.29733 1.48183 0
M  V30 3398 O 327.432 -3.30416 2.87674 0
M  V30 3399 C 328.933 -4.22926 1.32848 0
M  V30 3400 H 326.153 -0.577118 0.342309 0
M  V30 3401 H 328.697 -1.3445 1.54089 0
M  V30 3402 H 326.852 -3.75609 0.948517 0
M  V30 3403 H 327.266 -4.22149 3.11272 0
M  V30 3404 H 328.74 -5.23916 1.73827 0
M  V30 3405 H 329.217 -4.38346 0.273692 0
M  V30 3406 H 329.823 -3.82894 1.85127 0
M  V30 3407 N 328.138 -0.959301 -1.25041 0
M  V30 3408 C 329.088 -0.453888 -2.23436 0
M  V30 3409 C 330.072 0.459461 -1.542 0
M  V30 3410 O 331.264 0.291752 -1.74579 0
M  V30 3411 C 328.393 0.262667 -3.42294 0
M  V30 3412 C 327.479 -0.669022 -4.1879 0
M  V30 3413 N 327.87 -1.80267 -4.72586 0
M  V30 3414 C 326.168 -0.47814 -4.4343 0
M  V30 3415 C 326.869 -2.38475 -5.3057 0
M  V30 3416 N 325.845 -1.67078 -5.17287 0
M  V30 3417 H 329.647 -1.319 -2.6264 0
M  V30 3418 H 327.161 -0.817358 -1.40332 0
M  V30 3419 H 329.158 0.641911 -4.11929 0
M  V30 3420 H 327.818 1.12432 -3.04613 0
M  V30 3421 H 328.829 -2.18442 -4.69578 0
M  V30 3422 H 325.506 0.340249 -4.16111 0
M  V30 3423 H 326.896 -3.34094 -5.8295 0
M  V30 3424 N 329.616 1.39756 -0.72842 0
M  V30 3425 C 330.846 2.04651 -0.283117 0
M  V30 3426 C 331.254 1.5502 1.08469 0
M  V30 3427 O 330.597 0.707343 1.69536 0
M  V30 3428 C 330.659 3.58947 -0.199309 0
M  V30 3429 C 330.323 4.31525 -1.5045 0
M  V30 3430 C 331.32 4.5861 -2.44894 0
M  V30 3431 C 329.005 4.70195 -1.76698 0
M  V30 3432 C 330.999 5.23366 -3.63822 0
M  V30 3433 C 328.686 5.3468 -2.95906 0
M  V30 3434 C 329.684 5.61198 -3.89289 0
M  V30 3435 O 329.372 6.24347 -5.06404 0
M  V30 3436 H 329.104 0.664777 -0.122666 0
M  V30 3437 H 331.658 1.79913 -0.990987 0
M  V30 3438 H 329.888 3.82556 0.56461 0
M  V30 3439 H 331.577 4.0534 0.213125 0
M  V30 3440 H 332.343 4.29187 -2.25883 0
M  V30 3441 H 328.222 4.48916 -1.04859 0
M  V30 3442 H 331.766 5.4398 -4.36728 0
M  V30 3443 H 327.663 5.63524 -3.14819 0
M  V30 3444 H 328.431 6.42842 -5.06652 0
M  V30 3445 N 331.094 0.475555 1.50254 0
M  V30 3446 C 332.041 -0.316293 2.28622 0
M  V30 3447 C 333.011 -0.983227 1.33873 0
M  V30 3448 O 334.196 -0.994805 1.62814 0
M  V30 3449 C 331.336 -1.38975 3.1588 0
M  V30 3450 C 330.449 -0.737146 4.25664 0
M  V30 3451 C 329.584 -1.78887 5.00173 0
M  V30 3452 C 328.623 -1.11676 6.01826 0
M  V30 3453 N 327.76 -2.11154 6.69596 0
M  V30 3454 H 332.6 0.358297 2.95838 0
M  V30 3455 H 330.137 0.188541 1.45887 0
M  V30 3456 H 332.095 -2.02383 3.64825 0
M  V30 3457 H 330.725 -2.03344 2.50701 0
M  V30 3458 H 329.777 0.0096065 3.80399 0
M  V30 3459 H 331.089 -0.206816 4.98371 0
M  V30 3460 H 330.243 -2.49865 5.52859 0
M  V30 3461 H 328.982 -2.35302 4.27182 0
M  V30 3462 H 327.987 -0.392633 5.48396 0
M  V30 3463 H 329.212 -0.55945 6.76792 0
M  V30 3464 H 327.158 -2.66577 5.99394 0
M  V30 3465 H 327.075 -1.63118 7.38193 0
M  V30 3466 H 328.343 -2.81497 7.26897 0
M  V30 3467 N 332.573 -1.56217 0.208337 0
M  V30 3468 C 333.536 -2.18455 -0.693557 0
M  V30 3469 C 334.536 -1.14268 -1.13135 0
M  V30 3470 O 335.726 -1.39577 -1.0423 0
M  V30 3471 C 332.858 -2.79727 -1.94848 0
M  V30 3472 H 334.051 -2.99519 -0.15114 0
M  V30 3473 H 331.604 -1.56245 -0.041287 0
M  V30 3474 H 332.339 -2.02497 -2.53309 0
M  V30 3475 H 332.124 -3.56009 -1.64316 0
M  V30 3476 H 333.614 -3.27475 -2.59133 0
M  V30 3477 N 334.051 0.0651679 -1.57465 0
M  V30 3478 C 335.462 0.616213 -1.76238 0
M  V30 3479 C 335.813 1.7756 -0.834689 0
M  V30 3480 O 334.938 2.1639 -0.0204156 0
M  V30 3481 C 335.533 1.12462 -3.1959 0
M  V30 3482 C 334.092 1.62147 -3.39684 0
M  V30 3483 C 333.239 0.543739 -2.71917 0
M  V30 3484 H 336.19 -0.161022 -1.57881 0
M  V30 3485 H 336.211 1.99324 -3.24114 0
M  V30 3486 H 335.723 0.280592 -3.87084 0
M  V30 3487 H 333.824 2.48854 -2.77313 0
M  V30 3488 H 333.937 1.69385 -4.48158 0
M  V30 3489 H 332.301 0.990352 -2.34657 0
M  V30 3490 H 333.084 -0.290216 -3.42071 0
M  V30 3491 N 335.529 1.53961 0.336706 0
M  V30 3492 C 336.945 1.44378 0.680241 0
M  V30 3493 C 337.145 0.606034 1.9217 0
M  V30 3494 O 336.201 0.099688 2.52303 0
M  V30 3495 C 337.514 2.87945 0.8665 0
M  V30 3496 C 339.062 2.97763 0.964682 0
M  V30 3497 C 339.537 4.42453 1.18321 0
M  V30 3498 N 341.028 4.46008 1.25025 0
M  V30 3499 C 341.763 5.55102 1.43697 0
M  V30 3500 N 341.259 6.7419 1.59498 0
M  V30 3501 N 343.052 5.42727 1.463 0
M  V30 3502 H 335.203 2.06918 -0.479455 0
M  V30 3503 H 337.466 0.935634 -0.152619 0
M  V30 3504 H 337.172 3.51691 0.0256937 0
M  V30 3505 H 337.046 3.33293 1.76623 0
M  V30 3506 H 339.433 2.34153 1.796 0
M  V30 3507 H 339.514 2.55766 0.041708 0
M  V30 3508 H 339.158 5.06645 0.356788 0
M  V30 3509 H 339.088 4.82048 2.11985 0
M  V30 3510 H 341.579 3.60196 1.14312 0
M  V30 3511 H 341.892 7.53095 1.734 0
M  V30 3512 H 340.237 6.77123 1.56621 0
M  V30 3513 H 343.428 4.48647 1.33543 0
M  V30 3514 H 343.601 6.27806 1.6051 0
M  V30 3515 N 337.007 -0.598083 1.45811 0
M  V30 3516 C 337.94 -1.7223 1.49706 0
M  V30 3517 C 338.918 -1.58732 0.352535 0
M  V30 3518 O 340.102 -1.80162 0.554438 0
M  V30 3519 C 337.229 -3.10148 1.3611 0
M  V30 3520 C 336.275 -3.42209 2.54549 0
M  V30 3521 S 337.108 -3.35989 4.16979 0
M  V30 3522 C 338.264 -4.76471 4.05865 0
M  V30 3523 H 338.497 -1.68665 2.44826 0
M  V30 3524 H 336.03 -0.775541 1.33509 0
M  V30 3525 H 337.988 -3.8972 1.28953 0
M  V30 3526 H 336.649 -3.11219 0.424451 0
M  V30 3527 H 335.842 -4.42652 2.40988 0
M  V30 3528 H 335.444 -2.70173 2.58617 0
M  V30 3529 H 337.736 -5.665 3.71596 0
M  V30 3530 H 338.679 -4.95089 5.06253 0
M  V30 3531 H 339.087 -4.52599 3.37364 0
M  V30 3532 N 338.485 -1.33259 -0.841409 0
M  V30 3533 C 339.731 -1.24757 -1.59886 0
M  V30 3534 C 340.064 0.186913 -1.93298 0
M  V30 3535 O 339.339 1.12757 -1.5848 0
M  V30 3536 C 339.622 -2.12036 -2.91055 0
M  V30 3537 C 339.475 -3.63929 -2.6434 0
M  V30 3538 C 340.794 -1.9916 -3.92458 0
M  V30 3539 H 337.913 -0.454542 -0.580138 0
M  V30 3540 H 340.555 -1.63335 -0.970647 0
M  V30 3541 H 338.705 -1.79265 -3.44669 0
M  V30 3542 H 340.377 -4.06978 -2.17178 0
M  V30 3543 H 338.62 -3.85935 -1.98082 0
M  V30 3544 H 339.291 -4.20341 -3.57796 0
M  V30 3545 H 341.767 -2.27895 -3.48143 0
M  V30 3546 H 340.643 -2.62484 -4.82072 0
M  V30 3547 H 340.904 -0.963082 -4.31482 0
M  V30 3548 N 339.963 1.05934 -1.16686 0
M  V30 3549 C 340.893 2.1546 -0.899949 0
M  V30 3550 C 341.874 1.69391 0.155154 0
M  V30 3551 O 343.059 1.94199 0.00648693 0
M  V30 3552 C 340.189 3.44939 -0.404241 0
M  V30 3553 C 339.143 4.04536 -1.39767 0
M  V30 3554 C 338.469 5.29268 -0.760216 0
M  V30 3555 C 339.769 4.42893 -2.76845 0
M  V30 3556 H 341.463 2.38046 -1.81588 0
M  V30 3557 H 339.009 1.14404 -0.874514 0
M  V30 3558 H 340.962 4.20901 -0.204971 0
M  V30 3559 H 339.686 3.21983 0.547206 0
M  V30 3560 H 338.345 3.30635 -1.58355 0
M  V30 3561 H 337.993 5.02611 0.197831 0
M  V30 3562 H 337.693 5.70101 -1.42332 0
M  V30 3563 H 339.217 6.07924 -0.57105 0
M  V30 3564 H 340.631 5.09921 -2.62019 0
M  V30 3565 H 339.028 4.94721 -3.39663 0
M  V30 3566 H 340.098 3.53584 -3.31823 0
M  V30 3567 N 341.441 0.965919 1.2453 0
M  V30 3568 C 342.404 0.499547 2.2369 0
M  V30 3569 C 343.404 -0.40294 1.5567 0
M  V30 3570 O 344.594 -0.19865 1.73064 0
M  V30 3571 C 341.726 -0.276792 3.39774 0
M  V30 3572 H 342.919 1.37613 2.66463 0
M  V30 3573 H 340.472 0.750324 1.37112 0
M  V30 3574 H 341.207 -1.17055 3.02438 0
M  V30 3575 H 340.992 0.370826 3.90343 0
M  V30 3576 H 342.482 -0.592175 4.1338 0
M  V30 3577 N 342.919 -1.39368 0.735821 0
M  V30 3578 C 343.882 -2.2896 0.104874 0
M  V30 3579 C 344.882 -1.46347 -0.666274 0
M  V30 3580 O 346.072 -1.67014 -0.49517 0
M  V30 3581 C 343.204 -3.29857 -0.860656 0
M  V30 3582 H 344.397 -2.86259 0.894205 0
M  V30 3583 H 341.95 -1.48029 0.501704 0
M  V30 3584 H 342.685 -2.77615 -1.67631 0
M  V30 3585 H 342.47 -3.9087 -0.310327 0
M  V30 3586 H 343.96 -3.96893 -1.29867 0
M  V30 3587 N 344.397 -0.483516 -1.5 0
M  V30 3588 C 345.36 0.292965 -2.2732 0
M  V30 3589 C 346.36 0.909499 -1.32608 0
M  V30 3590 O 347.55 0.776745 -1.55924 0
M  V30 3591 C 344.682 1.41854 -3.09984 0
M  V30 3592 H 345.875 -0.385289 -2.97415 0
M  V30 3593 H 343.428 -0.237942 -1.54478 0
M  V30 3594 H 344.163 2.13148 -2.44414 0
M  V30 3595 H 343.948 0.982114 -3.79601 0
M  V30 3596 H 345.438 1.96597 -3.68429 0
M  V30 3597 N 345.875 1.56104 -0.216619 0
M  V30 3598 C 347.123 1.97781 0.415593 0
M  V30 3599 C 347.444 1.10536 1.60645 0
M  V30 3600 O 346.714 0.181303 1.95059 0
M  V30 3601 H 345.294 0.730415 0.156534 0
M  V30 3602 H 347.956 1.92445 -0.308366 0
M  V30 3603 H 347.052 3.03072 0.74525 0
M  V30 3604 N 347.353 -0.0568162 1.57498 0
M  V30 3605 C 348.601 -0.751617 1.87604 0
M  V30 3606 C 348.922 -1.77351 0.81066 0
M  V30 3607 O 348.192 -1.95254 -0.159018 0
M  V30 3608 H 346.772 -0.280583 0.692302 0
M  V30 3609 H 349.434 -0.0293483 1.94878 0
M  V30 3610 H 348.53 -1.25852 2.856 0
M  V30 3611 N 348.832 -1.54138 -0.328536 0
M  V30 3612 C 350.078 -1.7236 -1.06865 0
M  V30 3613 C 350.411 -0.493231 -1.87832 0
M  V30 3614 O 349.686 0.5098 -1.877 0
M  V30 3615 C 349.969 -2.99621 -1.99747 0
M  V30 3616 C 349.822 -4.32899 -1.22143 0
M  V30 3617 C 351.141 -3.22615 -2.99345 0
M  V30 3618 H 348.26 -0.627151 -0.387105 0
M  V30 3619 H 350.902 -1.86827 -0.345767 0
M  V30 3620 H 349.052 -2.87418 -2.61387 0
M  V30 3621 H 350.724 -4.56978 -0.630017 0
M  V30 3622 H 348.967 -4.30628 -0.523628 0
M  V30 3623 H 349.638 -5.18154 -1.90318 0
M  V30 3624 H 352.114 -3.34248 -2.47826 0
M  V30 3625 H 350.99 -4.13027 -3.61524 0
M  V30 3626 H 351.251 -2.3961 -3.71536 0
M  V30 3627 N 350.31 0.590341 -1.46126 0
M  V30 3628 C 351.22 1.72793 -1.58681 0
M  V30 3629 C 352.236 1.67516 -0.470566 0
M  V30 3630 O 353.412 1.87562 -0.733642 0
M  V30 3631 C 350.477 3.09287 -1.5666 0
M  V30 3632 C 349.538 3.25886 -2.79458 0
M  V30 3633 C 348.771 4.55869 -2.77524 0
M  V30 3634 O 348.994 5.3928 -1.85832 0
M  V30 3635 O 347.928 4.75552 -3.68964 0
M  V30 3636 H 351.754 1.65149 -2.54872 0
M  V30 3637 H 349.339 0.756486 -1.28832 0
M  V30 3638 H 351.221 3.90577 -1.58202 0
M  V30 3639 H 349.896 3.17385 -0.636271 0
M  V30 3640 H 348.803 2.44119 -2.83472 0
M  V30 3641 H 350.136 3.22675 -3.71674 0
M  V30 3642 N 351.788 1.33704 0.83433 0
M  V30 3643 C 352.738 1.20899 1.93306 0
M  V30 3644 C 353.722 0.110783 1.60518 0
M  V30 3645 O 354.914 0.339331 1.73717 0
M  V30 3646 C 352.043 0.955018 3.29749 0
M  V30 3647 C 351.129 2.09587 3.68692 0
M  V30 3648 N 351.52 3.34621 3.79292 0
M  V30 3649 C 349.818 2.00358 3.98463 0
M  V30 3650 C 350.519 4.09472 4.13167 0
M  V30 3651 N 349.495 3.37954 4.25779 0
M  V30 3652 H 353.297 2.15665 1.99664 0
M  V30 3653 H 350.811 1.25777 1.02732 0
M  V30 3654 H 352.808 0.844208 4.08263 0
M  V30 3655 H 351.468 0.0159317 3.24696 0
M  V30 3656 H 352.479 3.69313 3.63082 0
M  V30 3657 H 349.156 1.14137 4.01596 0
M  V30 3658 H 350.546 5.17391 4.28668 0
M  V30 3659 N 353.266 -1.05314 1.17247 0
M  V30 3660 C 354.198 -2.13023 0.845812 0
M  V30 3661 C 355.211 -1.62096 -0.151246 0
M  V30 3662 O 356.4 -1.78343 0.0748818 0
M  V30 3663 C 353.5 -3.38047 0.240292 0
M  V30 3664 C 352.673 -4.18255 1.27991 0
M  V30 3665 C 351.732 -5.21625 0.692375 0
M  V30 3666 O 350.758 -5.52619 1.36385 0
M  V30 3667 N 351.96 -5.78201 -0.516178 0
M  V30 3668 H 354.725 -2.41642 1.77283 0
M  V30 3669 H 352.286 -1.21401 1.07115 0
M  V30 3670 H 354.278 -4.04359 -0.16603 0
M  V30 3671 H 352.848 -3.06972 -0.590487 0
M  V30 3672 H 352.068 -3.47451 1.86203 0
M  V30 3673 H 353.356 -4.68643 1.98119 0
M  V30 3674 H 352.754 -5.55301 -1.07969 0
M  V30 3675 H 351.311 -6.4604 -0.86458 0
M  V30 3676 N 354.744 -0.972509 -1.24016 0
M  V30 3677 C 355.676 -0.464375 -2.24446 0
M  V30 3678 C 356.689 0.4295 -1.57032 0
M  V30 3679 O 357.878 0.234902 -1.76948 0
M  V30 3680 C 354.978 0.348385 -3.37105 0
M  V30 3681 C 354.151 -0.53673 -4.34094 0
M  V30 3682 C 353.21 0.220838 -5.25736 0
M  V30 3683 O 352.236 -0.386867 -5.67884 0
M  V30 3684 N 353.438 1.50907 -5.60542 0
M  V30 3685 H 356.203 -1.32788 -2.68677 0
M  V30 3686 H 353.764 -0.844877 -1.38107 0
M  V30 3687 H 355.756 0.863341 -3.95384 0
M  V30 3688 H 354.326 1.11285 -2.92121 0
M  V30 3689 H 353.546 -1.23261 -3.74433 0
M  V30 3690 H 354.834 -1.14022 -4.95859 0
M  V30 3691 H 354.232 2.02444 -5.28236 0
M  V30 3692 H 352.789 1.96962 -6.21329 0
M  V30 3693 N 356.222 1.38976 -0.743202 0
M  V30 3694 C 357.152 2.33171 -0.123873 0
M  V30 3695 C 358.133 1.54336 0.71516 0
M  V30 3696 O 359.318 1.82696 0.658467 0
M  V30 3697 C 356.448 3.38474 0.777978 0
M  V30 3698 C 355.402 4.27979 0.0424758 0
M  V30 3699 C 354.728 5.2405 1.06189 0
M  V30 3700 C 356.028 5.10155 -1.1198 0
M  V30 3701 H 357.722 2.85213 -0.910709 0
M  V30 3702 H 355.268 1.37133 -0.439388 0
M  V30 3703 H 357.221 4.03328 1.22084 0
M  V30 3704 H 355.945 2.84891 1.59702 0
M  V30 3705 H 354.604 3.64616 -0.380853 0
M  V30 3706 H 354.252 4.66758 1.87472 0
M  V30 3707 H 353.952 5.84785 0.574485 0
M  V30 3708 H 355.476 5.9178 1.50428 0
M  V30 3709 H 356.89 5.68307 -0.75499 0
M  V30 3710 H 355.287 5.80073 -1.53738 0
M  V30 3711 H 356.357 4.44504 -1.93764 0
M  V30 3712 N 357.7 0.491464 1.49741 0
M  V30 3713 C 358.63 -0.28154 2.31796 0
M  V30 3714 C 359.611 -0.971473 1.3963 0
M  V30 3715 O 360.796 -0.964719 1.68543 0
M  V30 3716 C 357.926 -1.35203 3.19902 0
M  V30 3717 C 356.88 -0.782529 4.20786 0
M  V30 3718 C 356.206 -1.95283 4.97764 0
M  V30 3719 C 357.506 0.21999 5.21837 0
M  V30 3720 H 359.2 0.403355 2.96671 0
M  V30 3721 H 356.746 0.195425 1.42668 0
M  V30 3722 H 358.699 -1.90045 3.76113 0
M  V30 3723 H 357.423 -2.06598 2.52953 0
M  V30 3724 H 356.082 -0.255928 3.65706 0
M  V30 3725 H 355.73 -2.65423 4.2727 0
M  V30 3726 H 355.43 -1.57789 5.66018 0
M  V30 3727 H 356.954 -2.50577 5.56816 0
M  V30 3728 H 358.368 -0.23996 5.72798 0
M  V30 3729 H 356.765 0.51026 5.97927 0
M  V30 3730 H 357.835 1.13911 4.7133 0
M  V30 3731 N 359.178 -1.55987 0.224894 0
M  V30 3732 C 360.455 -1.90232 -0.455083 0
M  V30 3733 C 360.835 -1.14269 -1.77499 0
M  V30 3734 O 360.183 -0.253079 -2.27094 0
M  V30 3735 C 360.393 -3.42993 -0.644758 0
M  V30 3736 C 361.741 -4.13821 -0.950669 0
M  V30 3737 O 362.765 -3.4861 -0.731423 0
M  V30 3738 O 361.624 -5.29128 -1.36695 0
M  V30 3739 H 358.718 -0.79108 -0.241084 0
M  V30 3740 H 361.264 -1.67581 0.267327 0
M  V30 3741 H 360.036 -3.90252 0.28613 0
M  V30 3742 H 359.659 -3.71434 -1.41853 0
M  V30 3743 N 360.656 0.0484629 -1.57525 0
M  V30 3744 C 361.586 1.0549 -2.08313 0
M  V30 3745 C 362.567 1.38929 -0.981463 0
M  V30 3746 O 363.752 1.48151 -1.25558 0
M  V30 3747 C 360.882 2.36162 -2.54646 0
M  V30 3748 C 359.836 2.17016 -3.68901 0
M  V30 3749 C 359.162 3.53278 -4.01371 0
M  V30 3750 C 360.462 1.57219 -4.98076 0
M  V30 3751 H 362.156 0.632195 -2.92649 0
M  V30 3752 H 359.702 0.302654 -1.40784 0
M  V30 3753 H 361.655 3.06882 -2.88793 0
M  V30 3754 H 360.379 2.80456 -1.67368 0
M  V30 3755 H 359.038 1.48733 -3.35073 0
M  V30 3756 H 358.686 3.95185 -3.11188 0
M  V30 3757 H 358.386 3.41299 -4.78318 0
M  V30 3758 H 359.91 4.25391 -4.38035 0
M  V30 3759 H 361.324 2.17832 -5.30304 0
M  V30 3760 H 359.721 1.55871 -5.79503 0
M  V30 3761 H 360.791 0.535956 -4.81929 0
M  V30 3762 N 362.134 1.5431 0.320358 0
M  V30 3763 C 363.097 1.83195 1.3774 0
M  V30 3764 C 364.097 0.703906 1.44575 0
M  V30 3765 O 365.287 0.972214 1.44546 0
M  V30 3766 C 362.419 1.99487 2.76438 0
M  V30 3767 H 363.612 2.77642 1.1338 0
M  V30 3768 H 361.165 1.46076 0.556012 0
M  V30 3769 H 361.9 1.07262 3.06048 0
M  V30 3770 H 361.685 2.81575 2.7287 0
M  V30 3771 H 363.175 2.23271 3.52902 0
M  V30 3772 N 363.613 -0.582584 1.46437 0
M  V30 3773 C 364.545 -1.70618 1.53043 0
M  V30 3774 C 365.558 -1.57322 0.418769 0
M  V30 3775 O 366.747 -1.64744 0.687136 0
M  V30 3776 C 363.847 -3.08869 1.39474 0
M  V30 3777 C 363.02 -3.48166 2.64762 0
M  V30 3778 C 362.079 -4.65478 2.4539 0
M  V30 3779 O 361.105 -4.71333 3.19114 0
M  V30 3780 N 362.307 -5.60365 1.51564 0
M  V30 3781 H 365.072 -1.65405 2.49923 0
M  V30 3782 H 362.633 -0.768567 1.42494 0
M  V30 3783 H 364.625 -3.85143 1.24287 0
M  V30 3784 H 363.195 -3.08449 0.507758 0
M  V30 3785 H 362.415 -2.61598 2.9489 0
M  V30 3786 H 363.703 -3.71188 3.4799 0
M  V30 3787 H 363.101 -5.5837 0.907705 0
M  V30 3788 H 361.658 -6.36068 1.4234 0
M  V30 3789 N 365.091 -1.34144 -0.827227 0
M  V30 3790 C 366.038 -1.25364 -1.93785 0
M  V30 3791 C 367.008 -0.129774 -1.65592 0
M  V30 3792 O 368.193 -0.310024 -1.88264 0
M  V30 3793 C 365.333 -1.01064 -3.2997 0
M  V30 3794 C 364.446 -2.22185 -3.70484 0
M  V30 3795 C 363.581 -1.91203 -4.95595 0
M  V30 3796 C 362.62 -3.08491 -5.28677 0
M  V30 3797 N 361.757 -2.77421 -6.44967 0
M  V30 3798 H 366.597 -2.20347 -2.00627 0
M  V30 3799 H 364.134 -1.09558 -0.981608 0
M  V30 3800 H 366.092 -0.850139 -4.08446 0
M  V30 3801 H 364.722 -0.0975026 -3.22653 0
M  V30 3802 H 363.774 -2.4917 -2.87434 0
M  V30 3803 H 365.086 -3.0983 -3.90905 0
M  V30 3804 H 364.24 -1.71864 -5.81848 0
M  V30 3805 H 362.979 -1.00812 -4.77167 0
M  V30 3806 H 361.984 -3.28431 -4.40923 0
M  V30 3807 H 363.209 -3.99655 -5.49047 0
M  V30 3808 H 361.155 -1.89601 -6.28003 0
M  V30 3809 H 361.072 -3.58598 -6.6554 0
M  V30 3810 H 362.34 -2.61577 -7.34301 0
M  V30 3811 N 366.569 1.04691 -1.17803 0
M  V30 3812 C 367.519 2.10856 -0.867391 0
M  V30 3813 C 368.503 1.601 0.160206 0
M  V30 3814 O 369.695 1.76948 -0.042947 0
M  V30 3815 C 366.824 3.411 -0.388012 0
M  V30 3816 C 365.91 3.9864 -1.44732 0
M  V30 3817 N 366.301 4.30075 -2.66212 0
M  V30 3818 C 364.599 4.26439 -1.30637 0
M  V30 3819 C 365.3 4.76033 -3.34317 0
M  V30 3820 N 364.276 4.76462 -2.61696 0
M  V30 3821 H 368.078 2.33029 -1.79094 0
M  V30 3822 H 365.592 1.22386 -1.0675 0
M  V30 3823 H 367.589 4.16641 -0.146994 0
M  V30 3824 H 366.249 3.20357 0.529271 0
M  V30 3825 H 367.26 4.19917 -3.03134 0
M  V30 3826 H 363.937 4.15056 -0.451129 0
M  V30 3827 H 365.327 5.09427 -4.38103 0
M  V30 3828 N 368.047 0.979072 1.23499 0
M  V30 3829 C 368.977 0.537606 2.27227 0
M  V30 3830 C 369.958 -0.428539 1.64613 0
M  V30 3831 O 371.143 -0.322191 1.91509 0
M  V30 3832 C 368.273 -0.162052 3.46922 0
M  V30 3833 C 367.227 0.721242 4.21879 0
M  V30 3834 C 366.553 -0.110555 5.34586 0
M  V30 3835 C 367.853 2.01141 4.82016 0
M  V30 3836 H 369.547 1.40462 2.64406 0
M  V30 3837 H 367.093 0.67684 1.27102 0
M  V30 3838 H 369.046 -0.482192 4.18632 0
M  V30 3839 H 367.77 -1.06351 3.08799 0
M  V30 3840 H 366.429 1.02482 3.51984 0
M  V30 3841 H 366.077 -1.0125 4.92704 0
M  V30 3842 H 365.777 0.477325 5.85658 0
M  V30 3843 H 367.301 -0.425107 6.09118 0
M  V30 3844 H 368.715 1.75612 5.45741 0
M  V30 3845 H 367.112 2.54695 5.43369 0
M  V30 3846 H 368.182 2.69909 4.02836 0
M  V30 3847 N 369.525 -1.3858 0.750561 0
M  V30 3848 C 370.773 -1.99789 0.30477 0
M  V30 3849 C 371.094 -1.59874 -1.11649 0
M  V30 3850 O 370.364 -0.85417 -1.76297 0
M  V30 3851 H 368.944 -0.738902 0.109694 0
M  V30 3852 H 371.606 -1.69391 0.963983 0
M  V30 3853 H 370.702 -3.09952 0.365499 0
M  V30 3854 N 371.003 -0.499398 -1.49478 0
M  V30 3855 C 372.251 0.0455996 -2.02049 0
M  V30 3856 C 372.572 1.37633 -1.38138 0
M  V30 3857 O 371.842 1.8842 -0.536166 0
M  V30 3858 H 370.422 0.0198416 -0.746736 0
M  V30 3859 H 373.084 -0.656274 -1.83519 0
M  V30 3860 H 372.18 0.176445 -3.11601 0
M  V30 3861 N 372.481 1.55866 -0.233164 0
M  V30 3862 C 373.73 1.97779 0.39579 0
M  V30 3863 C 374.043 1.12419 1.60066 0
M  V30 3864 O 375.249 1.44283 2.29988 0
M  V30 3865 C 373.705 3.5188 0.755556 0
M  V30 3866 C 373.313 4.45959 -0.427152 0
M  V30 3867 C 375.057 4.02479 1.34946 0
M  V30 3868 C 372.964 5.91383 -0.0443043 0
M  V30 3869 H 371.894 0.738592 0.15165 0
M  V30 3870 H 374.545 1.80486 -0.331212 0
M  V30 3871 H 372.927 3.64816 1.5403 0
M  V30 3872 H 374.101 4.44776 -1.20462 0
M  V30 3873 H 372.416 4.05765 -0.935068 0
M  V30 3874 H 375.013 5.08637 1.649 0
M  V30 3875 H 375.356 3.49014 2.26925 0
M  V30 3876 H 375.889 3.92813 0.62791 0
M  V30 3877 H 372.628 6.48857 -0.930874 0
M  V30 3878 H 372.148 5.95734 0.697238 0
M  V30 3879 H 373.827 6.45893 0.378334 0
M  V30 3880 N 373.959 -0.0401083 1.57549 0
M  V30 3881 C 375.37 -0.588097 1.77196 0
M  V30 3882 C 375.721 -1.76209 0.862832 0
M  V30 3883 O 374.846 -2.16331 0.0548389 0
M  V30 3884 C 375.441 -1.07363 3.21339 0
M  V30 3885 C 374 -1.56723 3.42221 0
M  V30 3886 C 373.147 -0.50041 2.72747 0
M  V30 3887 H 376.098 0.186119 1.57605 0
M  V30 3888 H 376.119 -1.94143 3.27244 0
M  V30 3889 H 375.631 -0.218975 3.87482 0
M  V30 3890 H 373.732 -2.4441 2.81237 0
M  V30 3891 H 373.845 -1.62234 4.50796 0
M  V30 3892 H 372.209 -0.952894 2.36203 0
M  V30 3893 H 372.992 0.344599 3.41566 0
M  V30 3894 N 375.437 -1.54477 -0.31217 0
M  V30 3895 C 376.683 -1.74417 -1.04644 0
M  V30 3896 C 377.038 -0.517641 -1.85306 0
M  V30 3897 O 376.331 0.489973 -1.85229 0
M  V30 3898 C 376.525 -2.967 -1.99258 0
M  V30 3899 C 376.354 -4.31128 -1.27901 0
M  V30 3900 C 375.124 -4.95087 -1.01079 0
M  V30 3901 C 377.322 -5.09662 -0.689119 0
M  V30 3902 N 375.304 -6.13322 -0.266323 0
M  V30 3903 C 376.675 -6.19952 -0.0768523 0
M  V30 3904 C 378.73 -4.94355 -0.593061 0
M  V30 3905 C 377.433 -7.16604 0.622165 0
M  V30 3906 C 379.459 -5.91328 0.0922792 0
M  V30 3907 C 378.821 -7.00978 0.693443 0
M  V30 3908 H 374.92 -0.69094 -0.366231 0
M  V30 3909 H 377.504 -1.91946 -0.326319 0
M  V30 3910 H 375.675 -2.80616 -2.68532 0
M  V30 3911 H 377.407 -3.05216 -2.65755 0
M  V30 3912 H 374.162 -4.55235 -1.30607 0
M  V30 3913 H 374.586 -6.76937 0.0920973 0
M  V30 3914 H 379.228 -4.09719 -1.04355 0
M  V30 3915 H 376.946 -8.0079 1.08445 0
M  V30 3916 H 380.532 -5.81562 0.166396 0
M  V30 3917 H 379.412 -7.74725 1.21533 0
M  V30 3918 N 376.915 0.57481 -1.46744 0
M  V30 3919 C 378.143 1.35856 -1.56047 0
M  V30 3920 C 378.558 1.87691 -0.204365 0
M  V30 3921 O 377.915 1.64049 0.79963 0
M  V30 3922 C 377.966 2.54066 -2.57163 0
M  V30 3923 O 377.687 2.04377 -3.87507 0
M  V30 3924 C 379.188 3.46514 -2.76483 0
M  V30 3925 H 376.408 0.414754 -0.527466 0
M  V30 3926 H 378.952 0.698035 -1.92218 0
M  V30 3927 H 377.107 3.16092 -2.23974 0
M  V30 3928 H 377.521 2.81419 -4.4261 0
M  V30 3929 H 378.995 4.25919 -3.51137 0
M  V30 3930 H 379.472 3.98951 -1.83671 0
M  V30 3931 H 380.078 2.90318 -3.10799 0
M  V30 3932 N 378.394 1.34581 0.820102 0
M  V30 3933 C 379.624 1.29991 1.6058 0
M  V30 3934 C 380.032 -0.127588 1.88769 0
M  V30 3935 O 379.375 -1.08595 1.48165 0
M  V30 3936 C 379.437 2.02548 2.9701 0
M  V30 3937 C 379.101 3.51794 2.91701 0
M  V30 3938 C 380.098 4.46647 2.66087 0
M  V30 3939 C 377.783 3.94249 3.11245 0
M  V30 3940 C 379.777 5.81929 2.60071 0
M  V30 3941 C 377.464 5.2963 3.04853 0
M  V30 3942 C 378.462 6.23282 2.793 0
M  V30 3943 O 378.15 7.56181 2.72847 0
M  V30 3944 H 377.882 0.448539 0.505756 0
M  V30 3945 H 380.436 1.77811 1.02822 0
M  V30 3946 H 378.666 1.49345 3.56697 0
M  V30 3947 H 380.355 1.91211 3.58041 0
M  V30 3948 H 381.121 4.15168 2.5072 0
M  V30 3949 H 377 3.21749 3.30149 0
M  V30 3950 H 380.544 6.54999 2.40046 0
M  V30 3951 H 376.441 5.60727 3.19774 0
M  V30 3952 H 377.209 7.6595 2.88553 0
M  V30 3953 N 379.872 -1.04064 1.18357 0
M  V30 3954 C 380.835 -2.10243 0.912707 0
M  V30 3955 C 381.835 -1.60477 -0.101928 0
M  V30 3956 O 383.025 -1.73703 0.131517 0
M  V30 3957 C 380.157 -3.38893 0.369387 0
M  V30 3958 H 381.35 -2.35706 1.85426 0
M  V30 3959 H 378.903 -1.20489 0.995594 0
M  V30 3960 H 379.638 -3.19094 -0.578776 0
M  V30 3961 H 379.423 -3.76331 1.1008 0
M  V30 3962 H 380.913 -4.17128 0.198575 0
M  V30 3963 N 381.35 -0.985608 -1.22978 0
M  V30 3964 C 382.26 -0.538548 -2.28335 0
M  V30 3965 C 383.276 0.409163 -1.69121 0
M  V30 3966 O 384.452 0.277797 -1.99475 0
M  V30 3967 C 381.517 0.146867 -3.46389 0
M  V30 3968 C 380.578 -0.842896 -4.20944 0
M  V30 3969 C 379.811 -0.190095 -5.33361 0
M  V30 3970 O 380.034 1.01767 -5.61248 0
M  V30 3971 O 378.968 -0.891289 -5.95264 0
M  V30 3972 H 382.794 -1.41487 -2.68729 0
M  V30 3973 H 380.379 -0.753495 -1.29007 0
M  V30 3974 H 382.261 0.531125 -4.1804 0
M  V30 3975 H 380.936 0.997871 -3.07935 0
M  V30 3976 H 379.843 -1.27795 -3.51595 0
M  V30 3977 H 381.176 -1.66287 -4.6326 0
M  V30 3978 N 382.828 1.3818 -0.7579 0
M  V30 3979 C 384.105 1.94106 -0.241306 0
M  V30 3980 C 384.485 1.69282 1.26122 0
M  V30 3981 O 383.833 1.03378 2.03777 0
M  V30 3982 C 384.043 3.43809 -0.59967 0
M  V30 3983 C 385.391 4.20868 -0.561717 0
M  V30 3984 O 386.415 3.5211 -0.538222 0
M  V30 3985 O 385.274 5.43451 -0.576478 0
M  V30 3986 H 382.368 0.825376 -0.0518042 0
M  V30 3987 H 384.914 1.47548 -0.838315 0
M  V30 3988 H 383.686 3.55403 -1.6372 0
M  V30 3989 H 383.309 3.97592 0.0251197 0
M  V30 3990 N 384.306 0.507319 1.49211 0
M  V30 3991 C 385.269 -0.256763 2.27757 0
M  V30 3992 C 386.269 -0.888287 1.34038 0
M  V30 3993 O 387.459 -0.751841 1.5714 0
M  V30 3994 C 384.591 -1.36905 3.12202 0
M  V30 3995 H 385.784 0.432557 2.96764 0
M  V30 3996 H 383.337 0.262488 1.5408 0
M  V30 3997 H 384.072 -2.09233 2.47775 0
M  V30 3998 H 383.857 -0.921599 3.81115 0
M  V30 3999 H 385.347 -1.9071 3.7151 0
M  V30 4000 N 385.784 -1.5574 0.241426 0
M  V30 4001 C 387.03 -1.99104 -0.385406 0
M  V30 4002 C 387.363 -1.1293 -1.57988 0
M  V30 4003 O 386.638 -0.191449 -1.93555 0
M  V30 4004 C 386.921 -3.51087 -0.800616 0
M  V30 4005 C 386.774 -4.48028 0.398874 0
M  V30 4006 C 388.093 -4.08015 -1.64959 0
M  V30 4007 H 385.212 -0.723848 -0.138614 0
M  V30 4008 H 387.854 -1.86903 0.341642 0
M  V30 4009 H 386.004 -3.61615 -1.4201 0
M  V30 4010 H 387.676 -4.49487 1.03726 0
M  V30 4011 H 385.919 -4.21077 1.04293 0
M  V30 4012 H 386.59 -5.51962 0.0651056 0
M  V30 4013 H 389.066 -4.00555 -1.12672 0
M  V30 4014 H 387.942 -5.14635 -1.90898 0
M  V30 4015 H 388.203 -3.56131 -2.61961 0
M  V30 4016 N 387.262 0.0317525 -1.57568 0
M  V30 4017 C 388.673 0.578692 -1.77505 0
M  V30 4018 C 389.024 1.75749 -0.872164 0
M  V30 4019 O 388.149 2.16298 -0.0663106 0
M  V30 4020 C 388.744 1.05658 -3.21904 0
M  V30 4021 C 387.303 1.54906 -3.43047 0
M  V30 4022 C 386.45 0.485939 -2.73009 0
M  V30 4023 H 389.401 -0.194475 -1.57504 0
M  V30 4024 H 389.422 1.92404 -3.28269 0
M  V30 4025 H 388.934 0.198422 -3.87592 0
M  V30 4026 H 387.035 2.42915 -2.82529 0
M  V30 4027 H 387.148 1.59841 -4.5165 0
M  V30 4028 H 385.512 0.940354 -2.36705 0
M  V30 4029 H 386.295 -0.362709 -3.41379 0
M  V30 4030 N 388.74 1.54641 0.303973 0
M  V30 4031 C 389.968 1.77768 1.05858 0
M  V30 4032 C 390.383 0.535722 1.8104 0
M  V30 4033 O 389.74 -0.494337 1.75677 0
M  V30 4034 C 389.791 2.9834 2.04146 0
M  V30 4035 O 389.512 4.17736 1.32015 0
M  V30 4036 C 391.013 3.33832 2.91669 0
M  V30 4037 H 388.233 0.592961 0.314067 0
M  V30 4038 H 390.777 2.01583 0.344149 0
M  V30 4039 H 388.932 2.76742 2.71096 0
M  V30 4040 H 389.346 4.85693 1.97998 0
M  V30 4041 H 390.82 4.21448 3.56491 0
M  V30 4042 H 391.297 2.51857 3.59812 0
M  V30 4043 H 391.903 3.57579 2.30254 0
M  V30 4044 N 390.218 -0.567019 1.47046 0
M  V30 4045 C 391.148 -1.68482 1.61667 0
M  V30 4046 C 392.129 -1.6358 0.466418 0
M  V30 4047 O 393.314 -1.81354 0.694574 0
M  V30 4048 C 390.444 -3.07124 1.62148 0
M  V30 4049 C 389.398 -3.26867 2.76301 0
M  V30 4050 C 388.724 -4.66196 2.61849 0
M  V30 4051 C 390.024 -3.13186 4.17986 0
M  V30 4052 H 391.718 -1.56502 2.5524 0
M  V30 4053 H 389.264 -0.751486 1.22836 0
M  V30 4054 H 391.217 -3.8516 1.70968 0
M  V30 4055 H 389.941 -3.2004 0.651287 0
M  V30 4056 H 388.6 -2.51237 2.66975 0
M  V30 4057 H 388.248 -4.75898 1.62879 0
M  V30 4058 H 387.948 -4.80356 3.38425 0
M  V30 4059 H 389.472 -5.46379 2.72584 0
M  V30 4060 H 390.886 -3.81049 4.2834 0
M  V30 4061 H 389.283 -3.3886 4.95272 0
M  V30 4062 H 390.353 -2.10057 4.3704 0
M  V30 4063 N 391.696 -1.35014 -0.812953 0
M  V30 4064 C 392.924 -1.31031 -1.6012 0
M  V30 4065 C 393.339 0.113558 -1.88458 0
M  V30 4066 O 392.696 1.06363 -1.48301 0
M  V30 4067 C 392.747 -2.10872 -2.93624 0
M  V30 4068 O 392.468 -3.47706 -2.66518 0
M  V30 4069 C 393.969 -2.14401 -3.88004 0
M  V30 4070 H 391.189 -0.45037 -0.497401 0
M  V30 4071 H 393.733 -1.77775 -1.01076 0
M  V30 4072 H 391.888 -1.67744 -3.492 0
M  V30 4073 H 392.302 -3.89097 -3.51715 0
M  V30 4074 H 393.776 -2.74669 -4.78812 0
M  V30 4075 H 394.253 -1.14105 -4.24119 0
M  V30 4076 H 394.859 -2.57662 -3.38364 0
M  V30 4077 N 393.175 1.03435 -1.18907 0
M  V30 4078 C 394.586 1.58195 -0.991523 0
M  V30 4079 C 394.937 1.90801 0.457081 0
M  V30 4080 O 394.062 1.70272 1.33553 0
M  V30 4081 C 394.657 2.87432 -1.79355 0
M  V30 4082 C 393.216 3.38785 -1.64017 0
M  V30 4083 C 392.363 2.12292 -1.78402 0
M  V30 4084 H 395.314 0.860299 -1.33359 0
M  V30 4085 H 395.335 3.58096 -1.28638 0
M  V30 4086 H 394.847 2.63669 -2.84781 0
M  V30 4087 H 392.948 3.67547 -0.611536 0
M  V30 4088 H 393.061 4.12186 -2.44212 0
M  V30 4089 H 391.425 2.23901 -1.2141 0
M  V30 4090 H 392.208 1.90977 -2.85277 0
M  V30 4091 N 394.653 0.992116 1.22453 0
M  V30 4092 C 395.893 0.675727 1.92907 0
M  V30 4093 C 396.257 -0.777762 1.75542 0
M  V30 4094 O 397.458 -1.20553 2.40251 0
M  V30 4095 C 395.729 1.0696 3.4102 0
M  V30 4096 S 397.288 0.871456 4.30059 0
M  V30 4097 H 394.106 0.247089 0.666684 0
M  V30 4098 H 396.708 1.27423 1.48269 0
M  V30 4099 H 395.412 2.12383 3.51172 0
M  V30 4100 H 394.943 0.462858 3.90668 0
M  V30 4101 H 396.958 -0.238436 4.95627 0
M  V30 4102 N 396.131 -1.37776 0.765217 0
M  V30 4103 C 397.547 -1.53297 0.444108 0
M  V30 4104 C 397.747 -1.72515 -1.04119 0
M  V30 4105 O 396.803 -1.74278 -1.82711 0
M  V30 4106 C 398.116 -2.73328 1.25349 0
M  V30 4107 C 399.664 -2.87185 1.24473 0
M  V30 4108 C 400.139 -4.10191 2.03733 0
M  V30 4109 N 401.63 -4.17291 2.01053 0
M  V30 4110 C 402.365 -5.11488 2.59166 0
M  V30 4111 N 401.861 -6.11285 3.26041 0
M  V30 4112 N 403.654 -5.03924 2.49032 0
M  V30 4113 H 395.805 -1.23552 1.72768 0
M  V30 4114 H 398.068 -0.601103 0.733062 0
M  V30 4115 H 397.774 -2.6557 2.30577 0
M  V30 4116 H 397.648 -3.66834 0.87823 0
M  V30 4117 H 400.035 -2.94418 0.20047 0
M  V30 4118 H 400.116 -1.94657 1.65959 0
M  V30 4119 H 399.76 -4.0372 3.08176 0
M  V30 4120 H 399.69 -5.01821 1.59633 0
M  V30 4121 H 402.181 -3.45825 1.5236 0
M  V30 4122 H 402.494 -6.79678 3.67774 0
M  V30 4123 H 400.839 -6.11583 3.30138 0
M  V30 4124 H 404.03 -4.24902 1.96407 0
M  V30 4125 H 404.203 -5.77152 2.94617 0
M  V30 4126 N 397.609 -0.515225 -1.4894 0
M  V30 4127 C 398.856 0.024215 -2.02486 0
M  V30 4128 C 399.184 1.35671 -1.39368 0
M  V30 4129 O 398.439 1.88566 -0.523574 0
M  V30 4130 C 398.738 0.210595 -3.56779 0
M  V30 4131 C 398.404 -1.04569 -4.38607 0
M  V30 4132 C 397.066 -1.39002 -4.60686 0
M  V30 4133 C 399.418 -1.88008 -4.86109 0
M  V30 4134 C 396.746 -2.568 -5.27514 0
M  V30 4135 C 399.098 -3.04972 -5.54234 0
M  V30 4136 C 397.762 -3.39768 -5.74555 0
M  V30 4137 H 397.032 0.00886088 -0.740947 0
M  V30 4138 H 399.679 -0.678263 -1.79086 0
M  V30 4139 H 397.984 0.99572 -3.78936 0
M  V30 4140 H 399.681 0.642659 -3.95817 0
M  V30 4141 H 396.271 -0.767497 -4.21672 0
M  V30 4142 H 400.455 -1.62719 -4.68867 0
M  V30 4143 H 395.711 -2.8398 -5.41447 0
M  V30 4144 H 399.885 -3.69943 -5.90013 0
M  V30 4145 H 397.512 -4.31148 -6.26112 0
M  V30 4146 N 399.087 1.5561 -0.249682 0
M  V30 4147 C 400.315 2.03411 0.378352 0
M  V30 4148 C 400.73 1.12886 1.51335 0
M  V30 4149 O 400.087 0.143833 1.81932 0
M  V30 4150 C 400.138 3.50537 0.88351 0
M  V30 4151 O 399.859 4.37614 -0.20626 0
M  V30 4152 C 401.36 4.14113 1.58195 0
M  V30 4153 H 398.58 0.664994 0.08958 0
M  V30 4154 H 401.124 2.01044 -0.374357 0
M  V30 4155 H 399.279 3.5343 1.58639 0
M  V30 4156 H 399.693 5.24199 0.177782 0
M  V30 4157 H 401.167 5.18741 1.8871 0
M  V30 4158 H 401.644 3.60767 2.50487 0
M  V30 4159 H 402.25 4.15151 0.923573 0
M  V30 4160 N 400.565 -0.0233959 1.57583 0
M  V30 4161 C 401.813 -0.711654 1.89156 0
M  V30 4162 C 402.134 -1.75591 0.848096 0
M  V30 4163 O 401.404 -1.95547 -0.117566 0
M  V30 4164 H 399.984 -0.265835 0.698098 0
M  V30 4165 H 402.646 0.0119948 1.94896 0
M  V30 4166 H 401.742 -1.19766 2.88206 0
M  V30 4167 N 402.043 -1.548 -0.295768 0
M  V30 4168 C 403.268 -1.78653 -1.05346 0
M  V30 4169 C 403.693 -0.546894 -1.79974 0
M  V30 4170 O 403.051 0.502763 -1.7419 0
M  V30 4171 C 403.099 -2.99679 -2.00561 0
M  V30 4172 O 402.203 -2.7317 -3.08953 0
M  V30 4173 H 401.544 -0.59116 -0.302367 0
M  V30 4174 H 404.074 -2.01895 -0.331598 0
M  V30 4175 H 404.084 -3.27793 -2.42932 0
M  V30 4176 H 402.759 -3.89562 -1.4565 0
M  V30 4177 H 401.336 -2.56089 -2.71059 0
M  V30 4178 N 403.521 0.559213 -1.47345 0
M  V30 4179 C 404.431 1.69388 -1.62311 0
M  V30 4180 C 405.447 1.6648 -0.505993 0
M  V30 4181 O 406.623 1.85964 -0.773262 0
M  V30 4182 C 403.688 3.05894 -1.63185 0
M  V30 4183 C 402.749 3.19885 -2.86307 0
M  V30 4184 C 401.982 4.49879 -2.87131 0
M  V30 4185 O 402.205 5.35217 -1.97229 0
M  V30 4186 O 401.139 4.67618 -3.78968 0
M  V30 4187 H 404.965 1.59706 -2.58317 0
M  V30 4188 H 402.55 0.728989 -1.30407 0
M  V30 4189 H 404.432 3.87133 -1.66451 0
M  V30 4190 H 403.107 3.15964 -0.70345 0
M  V30 4191 H 402.014 2.38052 -2.88587 0
M  V30 4192 H 403.347 3.14718 -3.78435 0
M  V30 4193 N 404.999 1.35443 0.805782 0
M  V30 4194 C 406.248 1.28097 1.55801 0
M  V30 4195 C 406.561 -0.142428 1.95081 0
M  V30 4196 O 407.767 -0.33817 2.69386 0
M  V30 4197 C 406.223 2.24653 2.81174 0
M  V30 4198 C 405.831 3.72342 2.49129 0
M  V30 4199 C 407.575 2.2625 3.59181 0
M  V30 4200 C 405.482 4.60719 3.70799 0
M  V30 4201 H 404.412 0.475937 0.584808 0
M  V30 4202 H 407.063 1.60712 0.885661 0
M  V30 4203 H 405.445 1.85011 3.50124 0
M  V30 4204 H 406.619 4.20624 1.88181 0
M  V30 4205 H 404.934 3.73361 1.84366 0
M  V30 4206 H 407.531 2.89495 4.49552 0
M  V30 4207 H 407.874 1.26647 3.96568 0
M  V30 4208 H 408.407 2.64426 2.97193 0
M  V30 4209 H 405.146 5.61324 3.3852 0
M  V30 4210 H 404.666 4.17163 4.3097 0
M  V30 4211 H 406.345 4.76182 4.38018 0
M  V30 4212 N 406.477 -1.02803 1.19454 0
M  V30 4213 C 407.893 -1.28473 0.946937 0
M  V30 4214 C 408.093 -1.97881 -0.380202 0
M  V30 4215 O 407.149 -2.26719 -1.11151 0
M  V30 4216 C 408.462 -2.13099 2.12154 0
M  V30 4217 C 410.01 -2.26404 2.16126 0
M  V30 4218 C 410.485 -3.14402 3.33039 0
M  V30 4219 N 411.976 -3.21991 3.32981 0
M  V30 4220 C 412.711 -3.90272 4.20089 0
M  V30 4221 N 412.207 -4.60777 5.17355 0
M  V30 4222 N 414 -3.8668 4.07964 0
M  V30 4223 H 406.151 -0.561665 2.04839 0
M  V30 4224 H 408.414 -0.310438 0.89573 0
M  V30 4225 H 408.12 -1.69422 3.08203 0
M  V30 4226 H 407.994 -3.13813 2.09287 0
M  V30 4227 H 410.381 -2.69311 1.20647 0
M  V30 4228 H 410.462 -1.25237 2.23045 0
M  V30 4229 H 410.106 -2.72204 4.28798 0
M  V30 4230 H 410.036 -4.1563 3.23356 0
M  V30 4231 H 412.527 -2.71778 2.62574 0
M  V30 4232 H 412.84 -5.10513 5.80169 0
M  V30 4233 H 411.185 -4.5964 5.21302 0
M  V30 4234 H 414.376 -3.30739 3.31254 0
M  V30 4235 H 414.549 -4.39621 4.76064 0
M  V30 4236 N 407.956 -0.998596 -1.21925 0
M  V30 4237 C 408.906 -0.524743 -2.21879 0
M  V30 4238 C 409.89 0.41017 -1.55584 0
M  V30 4239 O 411.082 0.236063 -1.75419 0
M  V30 4240 C 408.211 0.153636 -3.42956 0
M  V30 4241 C 407.297 -0.801918 -4.16449 0
M  V30 4242 N 407.688 -1.95211 -4.66611 0
M  V30 4243 C 405.986 -0.618972 -4.41684 0
M  V30 4244 C 406.687 -2.55234 -5.22715 0
M  V30 4245 N 405.663 -1.83451 -5.1171 0
M  V30 4246 H 409.465 -1.40189 -2.58311 0
M  V30 4247 H 406.979 -0.86159 -1.3766 0
M  V30 4248 H 408.976 0.510534 -4.13762 0
M  V30 4249 H 407.636 1.02684 -3.08036 0
M  V30 4250 H 408.647 -2.33271 -4.62391 0
M  V30 4251 H 405.324 0.207694 -4.16983 0
M  V30 4252 H 406.714 -3.52471 -5.72026 0
M  V30 4253 N 409.434 1.37368 -0.772513 0
M  V30 4254 C 410.85 1.53059 -0.452231 0
M  V30 4255 C 411.05 1.73065 1.03203 0
M  V30 4256 O 410.106 1.75245 1.81784 0
M  V30 4257 C 411.419 2.72659 -1.26797 0
M  V30 4258 C 412.967 2.86521 -1.25995 0
M  V30 4259 C 413.442 4.09105 -2.05905 0
M  V30 4260 N 414.933 4.16219 -2.03263 0
M  V30 4261 C 415.668 5.10107 -2.61875 0
M  V30 4262 N 415.164 6.09547 -3.29278 0
M  V30 4263 N 416.957 5.02596 -2.51701 0
M  V30 4264 H 409.108 1.22634 -1.7342 0
M  V30 4265 H 411.371 0.597206 -0.736239 0
M  V30 4266 H 411.077 2.64343 -2.31982 0
M  V30 4267 H 410.951 3.66363 -0.897672 0
M  V30 4268 H 413.338 2.94308 -0.216081 0
M  V30 4269 H 413.419 1.93774 -1.66989 0
M  V30 4270 H 413.063 4.0208 -3.10313 0
M  V30 4271 H 412.993 5.00968 -1.62292 0
M  V30 4272 H 415.484 3.45012 -1.54192 0
M  V30 4273 H 415.797 6.77718 -3.71374 0
M  V30 4274 H 414.142 6.09824 -3.33377 0
M  V30 4275 H 417.333 4.23855 -1.98657 0
M  V30 4276 H 417.506 5.75582 -2.97673 0
M  V30 4277 N 410.912 0.523116 1.48665 0
M  V30 4278 C 412.189 -0.0775449 1.95446 0
M  V30 4279 C 412.569 -1.5197 1.4652 0
M  V30 4280 O 411.917 -2.17876 0.688657 0
M  V30 4281 C 412.127 0.0326135 3.48985 0
M  V30 4282 C 413.475 -0.130141 4.24401 0
M  V30 4283 O 414.499 -0.0415142 3.56176 0
M  V30 4284 O 413.358 -0.31491 5.45592 0
M  V30 4285 H 410.452 -0.0831012 0.822814 0
M  V30 4286 H 412.998 0.587227 1.59216 0
M  V30 4287 H 411.77 1.03748 3.77296 0
M  V30 4288 H 411.393 -0.671317 3.91892 0
M  V30 4289 N 412.39 -1.55475 0.257931 0
M  V30 4290 C 413.667 -1.91155 -0.414629 0
M  V30 4291 C 414.047 -1.18008 -1.75035 0
M  V30 4292 O 413.395 -0.301193 -2.26506 0
M  V30 4293 C 413.605 -3.44283 -0.571859 0
M  V30 4294 C 414.953 -4.15744 -0.862678 0
M  V30 4295 O 415.977 -3.50083 -0.657314 0
M  V30 4296 O 414.836 -5.31909 -1.2544 0
M  V30 4297 H 411.93 -0.796016 -0.22425 0
M  V30 4298 H 414.476 -1.66976 0.302814 0
M  V30 4299 H 413.248 -3.89558 0.368844 0
M  V30 4300 H 412.871 -3.7436 -1.33943 0
M  V30 4301 N 413.868 0.0150385 -1.57593 0
M  V30 4302 C 414.831 0.995996 -2.06428 0
M  V30 4303 C 415.831 1.2818 -0.970903 0
M  V30 4304 O 417.021 1.22949 -1.23406 0
M  V30 4305 C 414.153 2.32506 -2.49307 0
M  V30 4306 H 415.346 0.573873 -2.94358 0
M  V30 4307 H 412.899 0.262186 -1.54085 0
M  V30 4308 H 413.634 2.79438 -1.64575 0
M  V30 4309 H 413.419 2.13087 -3.29145 0
M  V30 4310 H 414.909 3.02906 -2.87468 0
M  V30 4311 N 415.346 1.54954 0.287554 0
M  V30 4312 C 416.276 1.89839 1.35954 0
M  V30 4313 C 417.257 0.758675 1.52244 0
M  V30 4314 O 418.442 1.01557 1.65529 0
M  V30 4315 C 415.572 2.15753 2.72154 0
M  V30 4316 C 414.526 3.3159 2.70614 0
M  V30 4317 C 413.852 3.42952 4.10229 0
M  V30 4318 C 415.152 4.68359 2.31165 0
M  V30 4319 H 416.846 2.79625 1.07007 0
M  V30 4320 H 414.392 1.3454 0.513316 0
M  V30 4321 H 416.345 2.38743 3.47246 0
M  V30 4322 H 415.069 1.22752 3.02654 0
M  V30 4323 H 413.728 3.08545 1.97979 0
M  V30 4324 H 413.376 2.47443 4.37928 0
M  V30 4325 H 413.076 4.20826 4.10097 0
M  V30 4326 H 414.6 3.68218 4.87081 0
M  V30 4327 H 416.014 4.9099 2.95976 0
M  V30 4328 H 414.411 5.49044 2.42221 0
M  V30 4329 H 415.481 4.68165 1.26291 0
M  V30 4330 N 416.824 -0.551391 1.4764 0
M  V30 4331 C 418.235 -1.13349 1.48354 0
M  V30 4332 C 418.586 -1.94709 0.241432 0
M  V30 4333 O 417.711 -2.06306 -0.653205 0
M  V30 4334 C 418.306 -2.0623 2.68802 0
M  V30 4335 C 416.865 -2.597 2.72457 0
M  V30 4336 C 416.012 -1.36201 2.41546 0
M  V30 4337 H 418.963 -0.337698 1.55065 0
M  V30 4338 H 418.984 -2.90196 2.46103 0
M  V30 4339 H 418.496 -1.46987 3.59188 0
M  V30 4340 H 416.597 -3.22724 1.86225 0
M  V30 4341 H 416.71 -3.00296 3.73308 0
M  V30 4342 H 415.074 -1.67068 1.9225 0
M  V30 4343 H 415.857 -0.787425 3.34147 0
M  V30 4344 N 418.302 -1.35869 -0.798587 0
M  V30 4345 C 419.549 -1.29588 -1.55606 0
M  V30 4346 C 419.877 0.127456 -1.94082 0
M  V30 4347 O 419.132 1.09461 -1.62225 0
M  V30 4348 C 419.431 -2.1556 -2.85077 0
M  V30 4349 C 419.097 -3.6424 -2.65781 0
M  V30 4350 C 417.759 -4.04766 -2.60227 0
M  V30 4351 C 420.111 -4.58547 -2.47758 0
M  V30 4352 C 417.439 -5.37753 -2.34603 0
M  V30 4353 C 419.791 -5.91742 -2.23662 0
M  V30 4354 C 418.455 -6.31402 -2.16534 0
M  V30 4355 H 417.725 -0.474197 -0.569402 0
M  V30 4356 H 420.372 -1.67839 -0.922086 0
M  V30 4357 H 418.677 -1.70216 -3.52893 0
M  V30 4358 H 420.374 -2.08031 -3.42818 0
M  V30 4359 H 416.964 -3.32086 -2.70956 0
M  V30 4360 H 421.148 -4.28117 -2.51056 0
M  V30 4361 H 416.404 -5.67474 -2.2756 0
M  V30 4362 H 420.578 -6.6439 -2.08708 0
M  V30 4363 H 418.205 -7.34381 -1.96441 0
M  V30 4364 N 419.78 1.02168 -1.19998 0
M  V30 4365 C 420.743 2.08765 -0.94604 0
M  V30 4366 C 421.743 1.60618 0.0763846 0
M  V30 4367 O 422.933 1.73472 -0.159135 0
M  V30 4368 C 420.065 3.38262 -0.423255 0
M  V30 4369 H 421.258 2.32726 -1.89153 0
M  V30 4370 H 418.811 1.1889 -1.01464 0
M  V30 4371 H 419.546 3.19974 0.527938 0
M  V30 4372 H 419.331 3.74532 -1.16053 0
M  V30 4373 H 420.821 4.16759 -0.264911 0
M  V30 4374 N 421.258 1.00505 1.21394 0
M  V30 4375 C 422.208 0.536503 2.21598 0
M  V30 4376 C 423.192 -0.401914 1.55799 0
M  V30 4377 O 424.384 -0.226757 1.75541 0
M  V30 4378 C 421.513 -0.135446 3.43033 0
M  V30 4379 C 420.599 0.823992 4.16018 0
M  V30 4380 N 420.99 1.97683 4.6557 0
M  V30 4381 C 419.288 0.642387 4.4135 0
M  V30 4382 C 419.989 2.58003 5.21354 0
M  V30 4383 N 418.965 1.86162 5.1073 0
M  V30 4384 H 422.767 1.41557 2.57563 0
M  V30 4385 H 420.281 0.868878 1.37202 0
M  V30 4386 H 422.278 -0.488584 4.14027 0
M  V30 4387 H 420.938 -1.01049 3.08576 0
M  V30 4388 H 421.949 2.3572 4.61147 0
M  V30 4389 H 418.626 -0.185578 4.17087 0
M  V30 4390 H 420.016 3.555 5.70149 0
M  V30 4391 N 422.737 -1.36956 0.779787 0
M  V30 4392 C 423.983 -1.99787 0.348281 0
M  V30 4393 C 424.316 -1.61756 -1.07465 0
M  V30 4394 O 423.591 -0.867639 -1.74075 0
M  V30 4395 C 423.874 -3.56597 0.50104 0
M  V30 4396 C 423.727 -4.04513 1.96697 0
M  V30 4397 C 425.046 -4.40008 -0.0898097 0
M  V30 4398 H 422.165 -0.725796 0.128022 0
M  V30 4399 H 424.807 -1.62514 0.984331 0
M  V30 4400 H 422.957 -3.88479 -0.0404347 0
M  V30 4401 H 424.629 -3.83161 2.56876 0
M  V30 4402 H 422.872 -3.56408 2.47297 0
M  V30 4403 H 423.543 -5.1352 2.02486 0
M  V30 4404 H 426.019 -4.14431 0.372293 0
M  V30 4405 H 424.895 -5.4888 0.0471605 0
M  V30 4406 H 425.156 -4.26035 -1.18096 0
M  V30 4407 N 424.215 -0.530993 -1.48385 0
M  V30 4408 C 425.178 0.220497 -2.28137 0
M  V30 4409 C 426.178 0.866851 -1.35434 0
M  V30 4410 O 427.368 0.726746 -1.58316 0
M  V30 4411 C 424.5 1.31921 -3.1434 0
M  V30 4412 H 425.693 -0.479714 -2.96038 0
M  V30 4413 H 423.246 -0.286968 -1.53643 0
M  V30 4414 H 423.981 2.05264 -2.51072 0
M  V30 4415 H 423.766 0.86085 -3.82533 0
M  V30 4416 H 425.256 1.84776 -3.74497 0
M  V30 4417 N 425.693 1.55336 -0.266172 0
M  V30 4418 C 426.942 1.98574 0.353749 0
M  V30 4419 C 427.255 1.15789 1.57646 0
M  V30 4420 O 428.461 1.49129 2.26876 0
M  V30 4421 C 426.917 3.53403 0.680747 0
M  V30 4422 C 426.525 4.44953 -0.52165 0
M  V30 4423 C 428.269 4.05251 1.26379 0
M  V30 4424 C 426.176 5.91156 -0.169736 0
M  V30 4425 H 425.106 0.741643 0.135949 0
M  V30 4426 H 427.757 1.79743 -0.369421 0
M  V30 4427 H 426.139 3.68001 1.46257 0
M  V30 4428 H 427.313 4.42121 -1.29869 0
M  V30 4429 H 425.628 4.03691 -1.02093 0
M  V30 4430 H 428.225 5.12021 1.54074 0
M  V30 4431 H 428.568 3.53749 2.19471 0
M  V30 4432 H 429.101 3.94057 0.544447 0
M  V30 4433 H 425.84 6.46736 -1.0683 0
M  V30 4434 H 425.36 5.97079 0.570717 0
M  V30 4435 H 427.039 6.4655 0.241245 0
M  V30 4436 N 427.171 -0.0066808 1.57599 0
M  V30 4437 C 428.134 -0.985035 2.06953 0
M  V30 4438 C 429.134 -1.27663 0.977687 0
M  V30 4439 O 430.324 -1.22293 1.24057 0
M  V30 4440 C 427.456 -2.3118 2.50536 0
M  V30 4441 H 428.649 -0.558255 2.94658 0
M  V30 4442 H 426.202 -0.254011 1.54222 0
M  V30 4443 H 426.937 -2.78561 1.66054 0
M  V30 4444 H 426.722 -2.11338 3.3027 0
M  V30 4445 H 428.212 -3.01377 2.8907 0
M  V30 4446 N 428.649 -1.55105 -0.279332 0
M  V30 4447 C 429.895 -1.75672 -1.01327 0
M  V30 4448 C 430.228 -0.552739 -1.86168 0
M  V30 4449 O 429.503 0.449827 -1.89227 0
M  V30 4450 C 429.786 -3.05825 -1.90114 0
M  V30 4451 C 429.639 -4.36565 -1.08309 0
M  V30 4452 C 430.958 -3.31975 -2.8893 0
M  V30 4453 H 428.077 -0.639149 -0.366957 0
M  V30 4454 H 430.719 -1.87833 -0.286154 0
M  V30 4455 H 428.869 -2.95588 -2.52111 0
M  V30 4456 H 430.541 -4.58751 -0.484314 0
M  V30 4457 H 428.784 -4.32076 -0.386362 0
M  V30 4458 H 429.455 -5.23946 -1.73737 0
M  V30 4459 H 431.931 -3.41963 -2.37067 0
M  V30 4460 H 430.807 -4.2432 -3.48201 0
M  V30 4461 H 431.068 -2.51309 -3.63725 0
M  V30 4462 N 430.127 0.543554 -1.4793 0
M  V30 4463 C 431.037 1.67657 -1.64098 0
M  V30 4464 C 432.053 1.65934 -0.523622 0
M  V30 4465 O 433.229 1.85133 -0.792943 0
M  V30 4466 C 430.294 3.04146 -1.66421 0
M  V30 4467 C 429.355 3.16831 -2.89684 0
M  V30 4468 C 428.588 4.46809 -2.91886 0
M  V30 4469 O 428.811 5.33095 -2.02895 0
M  V30 4470 O 427.745 4.63573 -3.83906 0
M  V30 4471 H 431.571 1.56957 -2.59997 0
M  V30 4472 H 429.156 0.715116 -1.31173 0
M  V30 4473 H 431.038 3.85346 -1.70548 0
M  V30 4474 H 429.713 3.152 -0.736923 0
M  V30 4475 H 428.62 2.34977 -2.91095 0
M  V30 4476 H 429.953 3.10687 -3.81752 0
M  V30 4477 N 431.605 1.3629 0.791371 0
M  V30 4478 C 432.853 1.30154 1.5461 0
M  V30 4479 C 433.174 -0.119409 1.94634 0
M  V30 4480 O 432.444 -1.05924 1.64794 0
M  V30 4481 H 431.024 0.478784 0.573389 0
M  V30 4482 H 433.686 1.70565 0.94306 0
M  V30 4483 H 432.782 1.92762 2.45457 0
M  V30 4484 N 433.083 -1.0153 1.20538 0
M  V30 4485 C 434.494 -1.56598 1.01657 0
M  V30 4486 C 434.845 -1.91505 -0.426668 0
M  V30 4487 O 433.97 -1.72375 -1.30827 0
M  V30 4488 C 434.565 -2.84542 1.83905 0
M  V30 4489 C 433.124 -3.36133 1.69386 0
M  V30 4490 C 432.271 -2.09427 1.81757 0
M  V30 4491 H 435.222 -0.838974 1.34711 0
M  V30 4492 H 435.243 -3.56004 1.34319 0
M  V30 4493 H 434.755 -2.59105 2.8894 0
M  V30 4494 H 432.856 -3.66528 0.669933 0
M  V30 4495 H 432.969 -4.08248 2.50739 0
M  V30 4496 H 431.333 -2.21941 1.24957 0
M  V30 4497 H 432.116 -1.86414 2.88279 0
M  V30 4498 N 434.561 -1.01147 -1.20859 0
M  V30 4499 C 435.809 -0.696486 -1.89719 0
M  V30 4500 C 436.13 0.775788 -1.78904 0
M  V30 4501 O 435.4 1.55759 -1.18811 0
M  V30 4502 H 433.98 -0.254628 -0.702263 0
M  V30 4503 H 436.642 -1.28197 -1.46804 0
M  V30 4504 H 435.738 -0.975357 -2.96468 0
M  V30 4505 N 436.039 1.36541 -0.78704 0
M  V30 4506 C 437.285 2.00044 -0.367938 0
M  V30 4507 C 437.64 1.61345 1.04812 0
M  V30 4508 O 436.933 0.856936 1.71368 0
M  V30 4509 C 437.127 3.54343 -0.466485 0
M  V30 4510 C 436.956 4.08029 -1.89058 0
M  V30 4511 C 435.726 4.38284 -2.51466 0
M  V30 4512 C 437.924 4.27954 -2.85236 0
M  V30 4513 N 435.906 4.77778 -3.85488 0
M  V30 4514 C 437.277 4.70227 -4.04088 0
M  V30 4515 C 439.332 4.10119 -2.82324 0
M  V30 4516 C 438.035 4.96532 -5.20432 0
M  V30 4517 C 440.061 4.37569 -3.97854 0
M  V30 4518 C 439.423 4.80095 -5.15449 0
M  V30 4519 H 435.522 0.760525 -0.182004 0
M  V30 4520 H 438.106 1.65589 -1.02413 0
M  V30 4521 H 436.277 3.88072 0.159606 0
M  V30 4522 H 438.009 4.04693 -0.0238577 0
M  V30 4523 H 434.764 4.27905 -2.02965 0
M  V30 4524 H 435.188 5.01813 -4.54437 0
M  V30 4525 H 439.83 3.76399 -1.92571 0
M  V30 4526 H 437.548 5.29134 -6.10773 0
M  V30 4527 H 441.134 4.25341 -3.96958 0
M  V30 4528 H 440.014 5.00925 -6.0336 0
M  V30 4529 N 437.518 0.538854 1.48102 0
M  V30 4530 C 438.481 -0.208395 2.28251 0
M  V30 4531 C 439.481 -0.859656 1.35892 0
M  V30 4532 O 440.671 -0.71834 1.58699 0
M  V30 4533 C 437.803 -1.30252 3.15035 0
M  V30 4534 H 438.996 0.495407 2.9578 0
M  V30 4535 H 436.549 0.295112 1.53489 0
M  V30 4536 H 437.284 -2.0393 2.52157 0
M  V30 4537 H 437.069 -0.840551 3.82985 0
M  V30 4538 H 438.559 -1.82787 3.75471 0
M  V30 4539 N 438.996 -1.55193 0.274407 0
M  V30 4540 C 440.221 -2.04446 -0.348824 0
M  V30 4541 C 440.646 -1.15149 -1.48735 0
M  V30 4542 O 440.004 -0.149952 -1.80679 0
M  V30 4543 C 440.052 -3.51431 -0.808009 0
M  V30 4544 O 439.156 -3.65225 -1.91531 0
M  V30 4545 H 438.497 -0.66006 -0.0722276 0
M  V30 4546 H 441.027 -2.00481 0.408498 0
M  V30 4547 H 441.037 -3.92781 -1.10395 0
M  V30 4548 H 439.712 -4.15892 0.0249865 0
M  V30 4549 H 438.289 -3.35778 -1.62196 0
M  V30 4550 N 440.474 -0.00167713 -1.576 0
M  V30 4551 C 441.885 0.54091 -1.78693 0
M  V30 4552 C 442.236 1.7386 -0.909247 0
M  V30 4553 O 441.361 2.16109 -0.112176 0
M  V30 4554 C 441.956 0.98806 -3.24072 0
M  V30 4555 C 440.515 1.47594 -3.46256 0
M  V30 4556 C 439.662 0.42792 -2.73978 0
M  V30 4557 H 442.613 -0.22784 -1.57056 0
M  V30 4558 H 442.634 1.85398 -3.32277 0
M  V30 4559 H 442.146 0.116164 -3.87926 0
M  V30 4560 H 440.247 2.36868 -2.87618 0
M  V30 4561 H 440.36 1.50225 -4.54939 0
M  V30 4562 H 438.724 0.889934 -2.38647 0
M  V30 4563 H 439.507 -0.435038 -3.40532 0
M  V30 4564 N 441.952 1.55251 0.271103 0
M  V30 4565 C 443.229 1.66664 1.02384 0
M  V30 4566 C 443.609 0.534363 2.04225 0
M  V30 4567 O 442.957 -0.465337 2.23712 0
M  V30 4568 C 443.167 3.05961 1.67895 0
M  V30 4569 C 444.515 3.63772 2.18986 0
M  V30 4570 O 445.539 3.08606 1.77878 0
M  V30 4571 O 444.398 4.60429 2.94393 0
M  V30 4572 H 441.492 0.676957 0.475035 0
M  V30 4573 H 444.038 1.67589 0.26681 0
M  V30 4574 H 442.81 3.79815 0.941071 0
M  V30 4575 H 442.433 3.08943 2.5028 0
M  V30 4576 N 443.43 -0.535701 1.48216 0
M  V30 4577 C 444.378 -1.66179 1.62749 0
M  V30 4578 C 445.372 -1.62034 0.49409 0
M  V30 4579 O 446.578 -1.6696 0.672624 0
M  V30 4580 H 442.953 -0.550244 0.512578 0
M  V30 4581 H 444.924 -1.51063 2.57337 0
M  V30 4582 C 443.673 -3.04471 1.67907 0
M  V30 4583 H 442.996 -3.08351 2.54479 0
M  V30 4584 H 444.436 -3.82894 1.82121 0
M  V30 4585 C 442.895 -3.34314 0.416596 0
M  V30 4586 O 443.425 -3.98905 -0.473014 0
M  V30 4587 N 441.631 -2.89149 0.290038 0
M  V30 4588 H 441.178 -2.36764 1.01493 0
M  V30 4589 H 441.136 -3.09486 -0.55367 0
M  V30 4590 N 444.908 -1.36708 -0.784132 0
M  V30 4591 C 446.154 -1.31426 -1.54451 0
M  V30 4592 C 446.487 0.10476 -1.93917 0
M  V30 4593 O 445.762 1.05934 -1.6312 0
M  V30 4594 C 446.045 -2.24189 -2.818 0
M  V30 4595 C 445.898 -3.74813 -2.48667 0
M  V30 4596 C 447.217 -2.15626 -3.83658 0
M  V30 4597 H 444.336 -0.478739 -0.560337 0
M  V30 4598 H 446.978 -1.67305 -0.900498 0
M  V30 4599 H 445.128 -1.93722 -3.36755 0
M  V30 4600 H 446.8 -4.15823 -1.99722 0
M  V30 4601 H 445.043 -3.93989 -1.81535 0
M  V30 4602 H 445.714 -4.35138 -3.39646 0
M  V30 4603 H 448.19 -2.42456 -3.38163 0
M  V30 4604 H 447.066 -2.82694 -4.70506 0
M  V30 4605 H 447.327 -1.14522 -4.27009 0
M  V30 4606 N 446.386 1.0089 -1.21074 0
M  V30 4607 C 447.349 2.0775 -0.968129 0
M  V30 4608 C 448.349 1.6069 0.0593445 0
M  V30 4609 O 449.539 1.73293 -0.177525 0
M  V30 4610 C 446.671 3.37794 -0.459108 0
M  V30 4611 H 447.864 2.30707 -1.9161 0
M  V30 4612 H 445.417 1.17807 -1.02719 0
M  V30 4613 H 446.152 3.20516 0.49397 0
M  V30 4614 H 445.937 3.7328 -1.20019 0
M  V30 4615 H 447.427 4.16454 -0.309099 0
M  V30 4616 N 447.864 1.01787 1.20321 0
M  V30 4617 C 448.794 0.609625 2.25401 0
M  V30 4618 C 449.775 -0.375951 1.65893 0
M  V30 4619 O 450.96 -0.261101 1.92437 0
M  V30 4620 C 448.09 -0.0515995 3.47262 0
M  V30 4621 C 447.044 0.855095 4.19371 0
M  V30 4622 C 446.37 0.0595757 5.34667 0
M  V30 4623 C 447.67 2.16374 4.75373 0
M  V30 4624 H 449.364 1.48803 2.59804 0
M  V30 4625 H 446.91 0.716934 1.24884 0
M  V30 4626 H 448.863 -0.348764 4.19954 0
M  V30 4627 H 447.587 -0.964726 3.12027 0
M  V30 4628 H 446.246 1.13628 3.48546 0
M  V30 4629 H 445.894 -0.85524 4.95676 0
M  V30 4630 H 445.594 0.663406 5.83843 0
M  V30 4631 H 447.118 -0.231105 6.10162 0
M  V30 4632 H 448.532 1.92885 5.39878 0
M  V30 4633 H 446.929 2.71853 5.34991 0
M  V30 4634 H 447.999 2.82589 3.94045 0
M  V30 4635 N 449.342 -1.36122 0.79427 0
M  V30 4636 C 450.274 -2.28683 0.153903 0
M  V30 4637 C 451.287 -1.49707 -0.639669 0
M  V30 4638 O 452.476 -1.7209 -0.474054 0
M  V30 4639 C 449.576 -3.29202 -0.804921 0
M  V30 4640 C 448.749 -4.37358 -0.060366 0
M  V30 4641 C 447.808 -5.17811 -0.935849 0
M  V30 4642 O 446.834 -5.67853 -0.391309 0
M  V30 4643 N 448.036 -5.34721 -2.25951 0
M  V30 4644 H 450.801 -2.84278 0.949008 0
M  V30 4645 H 448.362 -1.4834 0.648611 0
M  V30 4646 H 450.354 -3.79914 -1.39455 0
M  V30 4647 H 448.924 -2.74212 -1.50088 0
M  V30 4648 H 448.144 -3.87746 0.710382 0
M  V30 4649 H 449.432 -5.06777 0.45324 0
M  V30 4650 H 448.83 -4.95687 -2.72601 0
M  V30 4651 H 447.387 -5.88657 -2.79867 0
M  V30 4652 N 450.82 -0.546701 -1.47814 0
M  V30 4653 C 452.066 -0.0187684 -2.02791 0
M  V30 4654 C 452.399 1.32338 -1.42128 0
M  V30 4655 O 451.674 1.85867 -0.573023 0
M  V30 4656 C 451.957 0.0854985 -3.59998 0
M  V30 4657 C 451.81 -1.283 -4.31114 0
M  V30 4658 C 453.129 0.80412 -4.32691 0
M  V30 4659 H 450.248 -0.0082946 -0.736953 0
M  V30 4660 H 452.89 -0.706962 -1.76358 0
M  V30 4661 H 451.04 0.671609 -3.82651 0
M  V30 4662 H 452.712 -1.91151 -4.19832 0
M  V30 4663 H 450.955 -1.86049 -3.91878 0
M  V30 4664 H 451.626 -1.16287 -5.39612 0
M  V30 4665 H 454.102 0.306576 -4.14969 0
M  V30 4666 H 452.978 0.846011 -5.42341 0
M  V30 4667 H 453.239 1.85802 -4.01161 0
M  V30 4668 N 452.299 1.55045 -0.282633 0
M  V30 4669 C 453.262 2.21515 0.588539 0
M  V30 4670 C 454.262 1.19535 1.07554 0
M  V30 4671 O 455.452 1.44391 0.974514 0
M  V30 4672 C 452.584 2.88704 1.8128 0
M  V30 4673 H 453.777 2.99899 0.00806397 0
M  V30 4674 H 451.33 1.56265 -0.0333067 0
M  V30 4675 H 452.065 2.14352 2.43359 0
M  V30 4676 H 451.85 3.63443 1.47144 0
M  V30 4677 H 453.34 3.39465 2.43214 0
M  V30 4678 N 453.777 0.010035 1.57597 0
M  V30 4679 C 454.725 -0.996272 2.10184 0
M  V30 4680 C 455.719 -1.34942 1.02406 0
M  V30 4681 O 456.925 -1.33389 1.20861 0
M  V30 4682 H 453.3 -0.338982 0.671264 0
M  V30 4683 H 455.271 -0.527272 2.93705 0
M  V30 4684 C 454.02 -2.27599 2.62857 0
M  V30 4685 H 453.343 -2.01295 3.45428 0
M  V30 4686 H 454.783 -2.96265 3.0332 0
M  V30 4687 C 453.242 -2.99269 1.54725 0
M  V30 4688 O 453.772 -3.90644 0.93597 0
M  V30 4689 N 451.978 -2.61269 1.27228 0
M  V30 4690 H 451.525 -1.87043 1.77123 0
M  V30 4691 H 451.483 -3.09534 0.550999 0
M  V30 4692 N 455.255 -1.55392 -0.262866 0
M  V30 4693 C 456.218 -1.88181 -1.30846 0
M  V30 4694 C 457.218 -0.757079 -1.41862 0
M  V30 4695 O 458.408 -1.02519 -1.40838 0
M  V30 4696 C 455.54 -2.09609 -2.68844 0
M  V30 4697 H 456.733 -2.81659 -1.02997 0
M  V30 4698 H 454.286 -1.48039 -0.501414 0
M  V30 4699 H 455.021 -1.18547 -3.01856 0
M  V30 4700 H 454.806 -2.91508 -2.62231 0
M  V30 4701 H 456.296 -2.36215 -3.44372 0
M  V30 4702 N 456.733 0.527833 -1.48498 0
M  V30 4703 C 457.982 1.28003 -1.55878 0
M  V30 4704 C 458.295 1.9414 -0.238577 0
M  V30 4705 O 459.501 2.7083 -0.190643 0
M  V30 4706 C 457.957 2.32272 -2.74914 0
M  V30 4707 C 457.565 1.72196 -4.13585 0
M  V30 4708 C 459.309 3.08488 -2.91608 0
M  V30 4709 C 457.216 2.74417 -5.23879 0
M  V30 4710 H 456.146 0.481413 -0.580308 0
M  V30 4711 H 458.797 0.557195 -1.74836 0
M  V30 4712 H 457.179 3.07601 -2.49395 0
M  V30 4713 H 458.353 1.03041 -4.49132 0
M  V30 4714 H 456.668 1.08464 -4.02025 0
M  V30 4715 H 459.265 3.84879 -3.71177 0
M  V30 4716 H 459.608 3.64481 -2.01145 0
M  V30 4717 H 460.141 2.40274 -3.17038 0
M  V30 4718 H 456.88 2.23242 -6.16314 0
M  V30 4719 H 456.4 3.41893 -4.92818 0
M  V30 4720 H 458.079 3.37362 -5.52083 0
M  V30 4721 N 458.211 1.37122 0.776871 0
M  V30 4722 C 459.46 1.31373 1.53049 0
M  V30 4723 C 459.773 -0.101016 1.95339 0
M  V30 4724 O 460.979 -0.280953 2.70042 0
M  V30 4725 C 459.435 2.30567 2.76346 0
M  V30 4726 C 459.043 3.77543 2.41175 0
M  V30 4727 C 460.787 2.33818 3.54301 0
M  V30 4728 C 458.694 4.68481 3.60943 0
M  V30 4729 H 457.624 0.488234 0.574581 0
M  V30 4730 H 460.275 1.62554 0.851372 0
M  V30 4731 H 458.657 1.92396 3.46121 0
M  V30 4732 H 459.831 4.24521 1.79216 0
M  V30 4733 H 458.146 3.77187 1.76405 0
M  V30 4734 H 460.743 2.98965 4.4331 0
M  V30 4735 H 461.086 1.3503 3.93793 0
M  V30 4736 H 461.619 2.7067 2.91518 0
M  V30 4737 H 458.358 5.68378 3.26537 0
M  V30 4738 H 457.878 4.2621 4.22025 0
M  V30 4739 H 459.557 4.85366 4.27819 0
M  V30 4740 N 459.689 -1.00246 1.21608 0
M  V30 4741 C 460.937 -1.73717 1.0328 0
M  V30 4742 C 461.258 -1.90102 -0.434318 0
M  V30 4743 O 460.528 -1.45376 -1.31311 0
M  V30 4744 H 459.108 -0.643613 0.379172 0
M  V30 4745 H 461.77 -1.20787 1.52959 0
M  V30 4746 H 460.866 -2.73535 1.50283 0
M  V30 4747 N 461.167 -1.02423 -1.1978 0
M  V30 4748 C 462.117 -0.571689 -2.20716 0
M  V30 4749 C 463.101 0.377077 -1.56419 0
M  V30 4750 O 464.293 0.198801 -1.7588 0
M  V30 4751 C 461.422 0.0808555 -3.43205 0
M  V30 4752 C 460.508 -0.890073 -4.14655 0
M  V30 4753 N 460.899 -2.05065 -4.62366 0
M  V30 4754 C 459.197 -0.71252 -4.40272 0
M  V30 4755 C 459.898 -2.66264 -5.17183 0
M  V30 4756 N 458.874 -1.94264 -5.07703 0
M  V30 4757 H 462.676 -1.45636 -2.55279 0
M  V30 4758 H 460.19 -0.890596 -1.35802 0
M  V30 4759 H 462.187 0.422654 -4.14752 0
M  V30 4760 H 460.847 0.961274 -3.10144 0
M  V30 4761 H 461.858 -2.43026 -4.57339 0
M  V30 4762 H 458.535 0.119199 -4.1733 0
M  V30 4763 H 459.925 -3.64526 -5.64421 0
M  V30 4764 N 462.645 1.35699 -0.801477 0
M  V30 4765 C 463.875 2.02862 -0.3912 0
M  V30 4766 C 464.283 1.60552 1.00099 0
M  V30 4767 O 463.626 0.796215 1.65548 0
M  V30 4768 C 463.688 3.57386 -0.389299 0
M  V30 4769 C 463.352 4.22943 -1.73113 0
M  V30 4770 C 464.349 4.44984 -2.68859 0
M  V30 4771 C 462.034 4.60167 -2.01373 0
M  V30 4772 C 464.028 5.03345 -3.91053 0
M  V30 4773 C 461.715 5.18243 -3.23832 0
M  V30 4774 C 462.713 5.39773 -4.1849 0
M  V30 4775 O 462.401 5.96626 -5.38788 0
M  V30 4776 H 462.133 0.657341 -0.157732 0
M  V30 4777 H 464.687 1.74407 -1.08496 0
M  V30 4778 H 462.917 3.85011 0.361031 0
M  V30 4779 H 464.606 4.059 -0.0020365 0
M  V30 4780 H 465.372 4.1661 -2.48316 0
M  V30 4781 H 461.251 4.42726 -1.28508 0
M  V30 4782 H 464.795 5.20065 -4.64949 0
M  V30 4783 H 460.692 5.46044 -3.44248 0
M  V30 4784 H 461.46 6.15082 -5.40015 0
M  V30 4785 N 464.123 0.554532 1.47522 0
M  V30 4786 C 465.4 -0.0360704 1.95567 0
M  V30 4787 C 465.78 -1.48828 1.49711 0
M  V30 4788 O 465.128 -2.16366 0.734717 0
M  V30 4789 C 465.338 0.106631 3.48837 0
M  V30 4790 C 466.686 -0.0400899 4.24581 0
M  V30 4791 O 467.71 0.0340453 3.56184 0
M  V30 4792 O 466.569 -0.199111 5.46137 0
M  V30 4793 H 463.663 -0.0656294 0.824392 0
M  V30 4794 H 466.209 0.620867 1.57935 0
M  V30 4795 H 464.981 1.11727 3.7501 0
M  V30 4796 H 464.604 -0.58804 3.93227 0
M  V30 4797 N 465.601 -1.54893 0.290851 0
M  V30 4798 C 466.841 -2.01842 -0.322388 0
M  V30 4799 C 467.205 -1.17477 -1.51865 0
M  V30 4800 O 468.406 -1.54077 -2.20258 0
M  V30 4801 C 466.677 -3.50874 -0.679844 0
M  V30 4802 S 468.236 -4.19796 -1.27739 0
M  V30 4803 H 465.054 -0.704005 -0.0994866 0
M  V30 4804 H 467.656 -1.91015 0.416358 0
M  V30 4805 H 466.36 -4.09915 0.199435 0
M  V30 4806 H 465.891 -3.65717 -1.44964 0
M  V30 4807 H 467.906 -4.24729 -2.56554 0
M  V30 4808 N 467.08 -0.0183926 -1.57589 0
M  V30 4809 C 468.308 0.673046 -1.95647 0
M  V30 4810 C 468.723 1.66275 -0.894312 0
M  V30 4811 O 468.08 1.82072 0.124975 0
M  V30 4812 C 468.131 1.38884 -3.33756 0
M  V30 4813 O 467.852 0.438806 -4.35897 0
M  V30 4814 C 469.353 2.1731 -3.86383 0
M  V30 4815 H 466.573 0.186292 -0.644621 0
M  V30 4816 H 469.117 -0.0749748 -2.04363 0
M  V30 4817 H 467.272 2.08835 -3.26293 0
M  V30 4818 H 467.686 0.945869 -5.15901 0
M  V30 4819 H 469.16 2.62863 -4.85394 0
M  V30 4820 H 469.637 3.00764 -3.20059 0
M  V30 4821 H 470.243 1.52339 -3.97081 0
M  V30 4822 N 468.558 1.5553 0.254621 0
M  V30 4823 C 469.788 1.80784 1.00004 0
M  V30 4824 C 470.196 0.59071 1.79742 0
M  V30 4825 O 469.539 -0.449988 1.78103 0
M  V30 4826 C 469.601 2.99268 1.99196 0
M  V30 4827 C 469.265 4.35595 1.38224 0
M  V30 4828 C 470.262 5.13884 0.788611 0
M  V30 4829 C 467.947 4.82281 1.40393 0
M  V30 4830 C 469.941 6.37004 0.224783 0
M  V30 4831 C 467.628 6.05351 0.836243 0
M  V30 4832 C 468.626 6.82551 0.24769 0
M  V30 4833 O 468.314 8.03297 -0.311249 0
M  V30 4834 H 468.046 0.60565 0.300274 0
M  V30 4835 H 470.6 2.03411 0.285143 0
M  V30 4836 H 468.83 2.72377 2.74496 0
M  V30 4837 H 470.519 3.11682 2.60018 0
M  V30 4838 H 471.285 4.78938 0.764423 0
M  V30 4839 H 467.164 4.22189 1.85142 0
M  V30 4840 H 470.708 6.97203 -0.235235 0
M  V30 4841 H 466.605 6.39776 0.857733 0
M  V30 4842 H 467.373 8.1825 -0.20237 0
M  V30 4843 N 470.036 -0.519951 1.48776 0
M  V30 4844 C 471.284 -1.2727 1.56993 0
M  V30 4845 C 471.605 -1.9339 0.25004 0
M  V30 4846 O 470.875 -1.81822 -0.729216 0
M  V30 4847 H 469.455 -0.472732 0.578389 0
M  V30 4848 H 472.117 -0.604234 1.85297 0
M  V30 4849 H 471.213 -2.04669 2.3562 0
M  V30 4850 N 471.514 -1.37532 -0.769588 0
M  V30 4851 C 472.762 -1.32597 -1.5252 0
M  V30 4852 C 473.083 0.0884294 -1.94799 0
M  V30 4853 O 472.353 1.03289 -1.66458 0
M  V30 4854 H 470.933 -0.487846 -0.565699 0
M  V30 4855 H 473.595 -1.72044 -0.915806 0
M  V30 4856 H 472.691 -1.96643 -2.42359 0
M  V30 4857 N 472.992 0.995999 -1.22138 0
M  V30 4858 C 474.24 1.73167 -1.042 0
M  V30 4859 C 474.561 1.90329 0.42423 0
M  V30 4860 O 473.831 1.4607 1.30539 0
M  V30 4861 H 472.411 0.641593 -0.38258 0
M  V30 4862 H 475.073 1.19974 -1.53598 0
M  V30 4863 H 474.169 2.72734 -1.51731 0
M  V30 4864 N 474.47 1.03057 1.19235 0
M  V30 4865 C 475.716 0.729098 1.89241 0
M  V30 4866 C 476.049 -0.740573 1.79525 0
M  V30 4867 O 475.324 -1.53946 1.18874 0
M  V30 4868 C 475.607 1.18304 3.40112 0
M  V30 4869 C 475.46 2.71406 3.5869 0
M  V30 4870 C 476.779 0.765161 4.33397 0
M  V30 4871 H 473.898 0.266338 0.687192 0
M  V30 4872 H 476.54 1.28079 1.40341 0
M  V30 4873 H 474.69 0.713672 3.81889 0
M  V30 4874 H 476.362 3.26303 3.26074 0
M  V30 4875 H 474.605 3.11717 3.01687 0
M  V30 4876 H 475.276 2.98225 4.64506 0
M  V30 4877 H 477.752 1.16889 3.99345 0
M  V30 4878 H 476.628 1.11065 5.37546 0
M  V30 4879 H 476.889 -0.332372 4.40849 0
M  V30 4880 N 475.948 -1.35272 0.808662 0
M  V30 4881 C 476.898 -2.27181 0.193124 0
M  V30 4882 C 477.882 -1.47871 -0.634265 0
M  V30 4883 O 479.074 -1.70048 -0.491182 0
M  V30 4884 C 476.203 -3.36979 -0.655751 0
M  V30 4885 C 475.289 -4.23712 0.181481 0
M  V30 4886 N 475.68 -4.90225 1.24551 0
M  V30 4887 C 473.978 -4.45985 -0.0365493 0
M  V30 4888 C 474.679 -5.54537 1.75682 0
M  V30 4889 N 473.655 -5.33107 1.06294 0
M  V30 4890 H 477.457 -2.76101 1.00724 0
M  V30 4891 H 474.971 -1.48823 0.650029 0
M  V30 4892 H 476.968 -4.01774 -1.11279 0
M  V30 4893 H 475.628 -2.89611 -1.46819 0
M  V30 4894 H 476.639 -4.91641 1.62818 0
M  V30 4895 H 473.316 -4.09409 -0.817964 0
M  V30 4896 H 474.706 -6.17597 2.64621 0
M  V30 4897 N 477.426 -0.562348 -1.47226 0
M  V30 4898 C 478.356 0.170627 -2.32876 0
M  V30 4899 C 479.337 0.903748 -1.44106 0
M  V30 4900 O 480.522 0.883206 -1.72954 0
M  V30 4901 C 477.652 1.19786 -3.25989 0
M  V30 4902 C 476.606 0.580875 -4.2404 0
M  V30 4903 C 475.932 1.71311 -5.06514 0
M  V30 4904 C 477.232 -0.468714 -5.20193 0
M  V30 4905 H 478.926 -0.544441 -2.94408 0
M  V30 4906 H 476.472 -0.263271 -1.41573 0
M  V30 4907 H 478.425 1.71884 -3.84752 0
M  V30 4908 H 477.149 1.94294 -2.62521 0
M  V30 4909 H 475.808 0.0811538 -3.6651 0
M  V30 4910 H 475.456 2.44736 -4.39447 0
M  V30 4911 H 475.156 1.30604 -5.72902 0
M  V30 4912 H 476.68 2.23725 -5.68137 0
M  V30 4913 H 478.094 -0.0336028 -5.7329 0
M  V30 4914 H 476.491 -0.794957 -5.94811 0
M  V30 4915 H 477.561 -1.36269 -4.65359 0
M  V30 4916 N 478.904 1.54736 -0.299062 0
M  V30 4917 C 480.129 2.04975 0.316254 0
M  V30 4918 C 480.554 1.17501 1.46885 0
M  V30 4919 O 479.912 0.178678 1.80417 0
M  V30 4920 C 479.96 3.52672 0.751997 0
M  V30 4921 O 479.064 3.68226 1.85697 0
M  V30 4922 H 478.405 0.661126 0.0617175 0
M  V30 4923 H 480.935 1.99805 -0.440341 0
M  V30 4924 H 480.945 3.94488 1.04133 0
M  V30 4925 H 479.62 4.158 -0.0911482 0
M  V30 4926 H 478.197 3.38316 1.56834 0
M  V30 4927 N 480.382 0.0267497 1.57577 0
M  V30 4928 C 481.607 -0.666227 1.96408 0
M  V30 4929 C 482.032 -1.65004 0.903071 0
M  V30 4930 O 481.39 -1.80787 -0.136263 0
M  V30 4931 C 481.438 -1.35101 3.34335 0
M  V30 4932 O 480.542 -2.46623 3.30531 0
M  V30 4933 H 479.883 -0.175206 0.640468 0
M  V30 4934 H 482.413 0.0878977 2.04411 0
M  V30 4935 H 482.423 -1.70834 3.70513 0
M  V30 4936 H 481.098 -0.629844 4.11103 0
M  V30 4937 H 479.675 -2.13019 3.06068 0
M  V30 4938 N 481.861 -1.55662 -0.24637 0
M  V30 4939 C 483.272 -1.67953 -0.81539 0
M  V30 4940 C 483.623 -0.624302 -1.86002 0
M  V30 4941 O 482.748 0.229328 -2.15181 0
M  V30 4942 C 483.343 -3.04484 -1.48576 0
M  V30 4943 C 481.902 -3.18713 -2.00248 0
M  V30 4944 C 481.049 -2.6383 -0.853766 0
M  V30 4945 H 484 -1.58685 -0.0221692 0
M  V30 4946 H 484.021 -2.98959 -2.3538 0
M  V30 4947 H 483.533 -3.81264 -0.725222 0
M  V30 4948 H 481.634 -2.46757 -2.79181 0
M  V30 4949 H 481.747 -4.25628 -2.1995 0
M  V30 4950 H 480.111 -2.21667 -1.25442 0
M  V30 4951 H 480.894 -3.43135 -0.106302 0
M  V30 4952 N 483.339 0.512053 -1.4905 0
M  V30 4953 C 484.269 1.62365 -1.67809 0
M  V30 4954 C 485.25 1.61737 -0.526809 0
M  V30 4955 O 486.435 1.78651 -0.761404 0
M  V30 4956 C 483.565 3.00895 -1.73435 0
M  V30 4957 C 482.519 3.16387 -2.88242 0
M  V30 4958 C 481.845 4.56157 -2.78971 0
M  V30 4959 C 483.145 2.97457 -4.29321 0
M  V30 4960 H 484.839 1.46921 -2.60873 0
M  V30 4961 H 482.385 0.705379 -1.2554 0
M  V30 4962 H 484.338 3.78549 -1.85145 0
M  V30 4963 H 483.062 3.17403 -0.769619 0
M  V30 4964 H 481.721 2.41155 -2.76116 0
M  V30 4965 H 481.369 4.69525 -1.8043 0
M  V30 4966 H 481.069 4.67465 -3.5602 0
M  V30 4967 H 482.593 5.35886 -2.92675 0
M  V30 4968 H 484.007 3.64888 -4.42187 0
M  V30 4969 H 482.404 3.20245 -5.07507 0
M  V30 4970 H 483.474 1.93692 -4.44535 0
M  V30 4971 N 484.817 1.37938 0.762283 0
M  V30 4972 C 485.78 1.34279 1.85747 0
M  V30 4973 C 486.78 0.244969 1.58923 0
M  V30 4974 O 487.97 0.501365 1.66829 0
M  V30 4975 C 485.102 1.08833 3.23061 0
M  V30 4976 H 486.295 2.31705 1.90401 0
M  V30 4977 H 483.848 1.23105 0.963057 0
M  V30 4978 H 484.583 0.119767 3.24079 0
M  V30 4979 H 484.368 1.88306 3.43923 0
M  V30 4980 H 485.858 1.08946 4.03138 0
M  V30 4981 N 486.295 -0.989507 1.22664 0
M  V30 4982 C 487.52 -1.77031 1.08051 0
M  V30 4983 C 487.945 -1.84535 -0.364483 0
M  V30 4984 O 487.303 -1.3003 -1.2634 0
M  V30 4985 C 487.351 -3.18 1.70024 0
M  V30 4986 O 486.455 -4.01161 0.956216 0
M  V30 4987 H 485.796 -0.545008 0.379292 0
M  V30 4988 H 488.326 -1.24277 1.62531 0
M  V30 4989 H 488.336 -3.68616 1.74888 0
M  V30 4990 H 487.011 -3.11853 2.75174 0
M  V30 4991 H 485.588 -3.59687 0.98384 0
M  V30 4992 N 487.773 -1.03688 -1.18687 0
M  V30 4993 C 489.021 -0.736572 -1.88199 0
M  V30 4994 C 489.342 0.737665 -1.80509 0
M  V30 4995 O 488.612 1.53204 -1.22088 0
M  V30 4996 H 487.192 -0.269466 -0.696704 0
M  V30 4997 H 489.854 -1.31282 -1.44052 0
M  V30 4998 H 488.95 -1.03802 -2.94332 0
M  V30 4999 N 489.251 1.34841 -0.815825 0
M  V30 5000 C 490.214 2.27959 -0.238185 0
M  V30 5001 C 491.214 1.49983 0.579816 0
M  V30 5002 O 492.404 1.69617 0.396953 0
M  V30 5003 C 489.536 3.34314 0.666876 0
M  V30 5004 H 490.729 2.80558 -1.05958 0
M  V30 5005 H 488.282 1.44852 -0.587156 0
M  V30 5006 H 489.017 2.86916 1.5116 0
M  V30 5007 H 488.802 3.92014 0.0819106 0
M  V30 5008 H 490.292 4.0379 1.06506 0
M  V30 5009 N 490.729 0.570148 1.46925 0
M  V30 5010 C 491.975 0.0510284 2.02736 0
M  V30 5011 C 492.308 -1.3006 1.44215 0
M  V30 5012 O 491.583 -1.84932 0.602521 0
M  V30 5013 C 491.866 -0.028215 3.60089 0
M  V30 5014 C 491.719 1.35142 4.29018 0
M  V30 5015 C 493.038 -0.735181 4.33916 0
M  V30 5016 H 490.157 0.0200178 0.736728 0
M  V30 5017 H 492.799 0.73493 1.75211 0
M  V30 5018 H 490.949 -0.610648 3.83671 0
M  V30 5019 H 492.621 1.97806 4.16738 0
M  V30 5020 H 490.864 1.9226 3.88868 0
M  V30 5021 H 491.535 1.24857 5.37694 0
M  V30 5022 H 494.011 -0.240519 4.15404 0
M  V30 5023 H 492.887 -0.759622 5.43618 0
M  V30 5024 H 493.148 -1.79397 4.04066 0
M  V30 5025 N 492.207 -1.54576 0.307264 0
M  V30 5026 C 493.17 -2.22423 -0.553224 0
M  V30 5027 C 494.17 -1.21231 -1.05639 0
M  V30 5028 O 495.36 -1.45923 -0.951419 0
M  V30 5029 C 492.492 -2.91552 -1.76664 0
M  V30 5030 H 493.685 -2.99874 0.0396484 0
M  V30 5031 H 491.238 -1.56192 0.0581629 0
M  V30 5032 H 491.973 -2.18196 -2.39918 0
M  V30 5033 H 491.758 -3.65738 -1.41343 0
M  V30 5034 H 493.248 -3.43292 -2.37783 0
M  V30 5035 N 493.685 -0.035106 -1.57561 0
M  V30 5036 C 494.633 0.962707 -2.11742 0
M  V30 5037 C 495.627 1.33296 -1.0454 0
M  V30 5038 O 496.833 1.31449 -1.22968 0
M  V30 5039 H 493.208 0.32826 -0.676572 0
M  V30 5040 H 495.179 0.48048 -2.94506 0
M  V30 5041 C 493.928 2.23388 -2.66445 0
M  V30 5042 H 493.251 1.95774 -3.48587 0
M  V30 5043 H 494.691 2.91402 -3.07995 0
M  V30 5044 C 493.15 2.96769 -1.59467 0
M  V30 5045 O 493.68 3.89105 -0.998 0
M  V30 5046 N 491.886 2.59212 -1.31369 0
M  V30 5047 H 491.433 1.84202 -1.80076 0
M  V30 5048 H 491.391 3.08618 -0.600173 0
M  V30 5049 N 495.163 1.55791 0.238111 0
M  V30 5050 C 496.11 1.9105 1.29493 0
M  V30 5051 C 497.08 0.765733 1.47397 0
M  V30 5052 O 498.265 1.02017 1.61236 0
M  V30 5053 C 495.405 2.21826 2.64362 0
M  V30 5054 C 494.518 3.49153 2.54394 0
M  V30 5055 C 493.653 3.69455 3.81676 0
M  V30 5056 C 492.692 4.90353 3.66361 0
M  V30 5057 N 491.829 5.07131 4.85554 0
M  V30 5058 H 496.669 2.81172 0.987233 0
M  V30 5059 H 494.206 1.39179 0.476203 0
M  V30 5060 H 496.164 2.37675 3.4288 0
M  V30 5061 H 494.794 1.34897 2.93262 0
M  V30 5062 H 493.846 3.41587 1.67399 0
M  V30 5063 H 495.158 4.37818 2.38991 0
M  V30 5064 H 494.312 3.85311 4.68636 0
M  V30 5065 H 493.051 2.7904 3.99985 0
M  V30 5066 H 492.056 4.74464 2.77784 0
M  V30 5067 H 493.281 5.82237 3.49538 0
M  V30 5068 H 491.227 4.19654 5.04209 0
M  V30 5069 H 491.144 5.89899 4.72816 0
M  V30 5070 H 492.412 5.27407 5.73988 0
M  V30 5071 N 496.642 -0.504142 1.49319 0
M  V30 5072 C 497.572 -1.61473 1.68667 0
M  V30 5073 C 498.553 -1.61455 0.535378 0
M  V30 5074 O 499.738 -1.78245 0.770868 0
M  V30 5075 C 496.868 -2.99971 1.75028 0
M  V30 5076 C 495.822 -3.14854 2.89916 0
M  V30 5077 C 495.148 -4.54671 2.81387 0
M  V30 5078 C 496.448 -2.95176 4.30893 0
M  V30 5079 H 498.142 -1.45535 2.61648 0
M  V30 5080 H 495.688 -0.698711 1.25913 0
M  V30 5081 H 497.641 -3.77562 1.8715 0
M  V30 5082 H 496.365 -3.1699 0.786441 0
M  V30 5083 H 495.024 -2.39687 2.77391 0
M  V30 5084 H 494.672 -4.68562 1.82917 0
M  V30 5085 H 494.372 -4.6557 3.58494 0
M  V30 5086 H 495.896 -5.34327 2.95512 0
M  V30 5087 H 497.31 -3.62538 4.44116 0
M  V30 5088 H 495.707 -3.17549 5.09198 0
M  V30 5089 H 496.777 -1.91332 4.45556 0
M  V30 5090 N 498.12 -1.38341 -0.754957 0
M  V30 5091 C 499.36 -1.35888 -1.52689 0
M  V30 5092 C 499.724 0.0513682 -1.91931 0
M  V30 5093 O 500.925 0.200761 -2.68049 0
M  V30 5094 C 499.196 -2.28666 -2.74676 0
M  V30 5095 S 500.755 -2.4422 -3.64558 0
M  V30 5096 H 497.573 -0.482165 -0.522531 0
M  V30 5097 H 500.175 -1.74253 -0.886358 0
M  V30 5098 H 498.879 -3.30023 -2.43953 0
M  V30 5099 H 498.41 -1.91445 -3.43675 0
M  V30 5100 H 500.425 -1.66525 -4.67423 0
M  V30 5101 N 499.598 0.982988 -1.23187 0
M  V30 5102 C 500.53 2.07729 -0.968572 0
M  V30 5103 C 501.543 1.62702 0.0564821 0
M  V30 5104 O 502.732 1.77603 -0.178733 0
M  V30 5105 C 499.832 3.36071 -0.436974 0
M  V30 5106 C 499.005 4.10081 -1.52159 0
M  V30 5107 C 498.064 5.16701 -0.99532 0
M  V30 5108 O 497.09 5.43727 -1.68373 0
M  V30 5109 N 498.292 5.80226 0.178192 0
M  V30 5110 H 501.057 2.30894 -1.9107 0
M  V30 5111 H 498.618 1.14949 -1.1401 0
M  V30 5112 H 500.61 4.04639 -0.0700051 0
M  V30 5113 H 499.18 3.09893 0.410509 0
M  V30 5114 H 498.4 3.36004 -2.06144 0
M  V30 5115 H 499.688 4.56295 -2.25105 0
M  V30 5116 H 499.086 5.60651 0.754096 0
M  V30 5117 H 497.643 6.49982 0.486449 0
M  V30 5118 N 501.076 1.04316 1.18135 0
M  V30 5119 C 502.301 0.768047 1.92655 0
M  V30 5120 C 502.726 -0.66904 1.758 0
M  V30 5121 O 502.084 -1.46372 1.06981 0
M  V30 5122 C 502.132 1.14239 3.42026 0
M  V30 5123 O 501.236 0.269333 4.1152 0
M  V30 5124 H 500.577 0.282436 0.600937 0
M  V30 5125 H 503.107 1.39367 1.49793 0
M  V30 5126 H 503.117 1.10538 3.92741 0
M  V30 5127 H 501.792 2.18928 3.53615 0
M  V30 5128 H 500.369 0.366175 3.71098 0
M  V30 5129 N 502.554 -1.34406 0.822964 0
M  V30 5130 C 503.801 -1.98284 0.411057 0
M  V30 5131 C 504.129 -1.65245 -1.02588 0
M  V30 5132 O 503.384 -0.91619 -1.72929 0
M  V30 5133 C 503.683 -3.52981 0.560268 0
M  V30 5134 C 503.349 -4.05931 1.96293 0
M  V30 5135 C 502.011 -4.20103 2.34664 0
M  V30 5136 C 504.363 -4.34412 2.87985 0
M  V30 5137 C 501.691 -4.60082 3.64062 0
M  V30 5138 C 504.043 -4.75838 4.16847 0
M  V30 5139 C 502.707 -4.88215 4.55195 0
M  V30 5140 H 501.977 -0.725573 0.150416 0
M  V30 5141 H 504.624 -1.60349 1.04692 0
M  V30 5142 H 502.929 -3.91477 -0.158982 0
M  V30 5143 H 504.626 -4.00385 0.222087 0
M  V30 5144 H 501.216 -3.95363 1.65487 0
M  V30 5145 H 505.4 -4.23001 2.59584 0
M  V30 5146 H 500.656 -4.67856 3.93599 0
M  V30 5147 H 504.83 -4.96834 4.87984 0
M  V30 5148 H 502.457 -5.18952 5.55512 0
M  V30 5149 N 504.032 -0.577932 -1.46621 0
M  V30 5150 C 504.964 0.195801 -2.28362 0
M  V30 5151 C 505.977 0.859983 -1.38232 0
M  V30 5152 O 507.166 0.730349 -1.62875 0
M  V30 5153 C 504.266 1.29639 -3.13124 0
M  V30 5154 C 503.439 0.725049 -4.31349 0
M  V30 5155 C 502.498 1.71274 -4.97546 0
M  V30 5156 O 501.524 1.25067 -5.5529 0
M  V30 5157 N 502.726 3.04672 -4.94121 0
M  V30 5158 H 505.491 -0.505468 -2.95407 0
M  V30 5159 H 503.052 -0.415381 -1.56481 0
M  V30 5160 H 505.044 1.95631 -3.54275 0
M  V30 5161 H 503.614 1.90059 -2.48186 0
M  V30 5162 H 502.834 -0.112205 -3.9404 0
M  V30 5163 H 504.122 0.323034 -5.07774 0
M  V30 5164 H 503.52 3.4484 -4.48444 0
M  V30 5165 H 502.077 3.66166 -5.39227 0
M  V30 5166 N 505.51 1.54411 -0.315457 0
M  V30 5167 C 506.738 2.04833 0.291738 0
M  V30 5168 C 507.153 1.19203 1.46411 0
M  V30 5169 O 506.51 0.220867 1.81159 0
M  V30 5170 C 506.561 3.53969 0.73404 0
M  V30 5171 O 506.282 4.36346 -0.391682 0
M  V30 5172 C 507.783 4.2045 1.40489 0
M  V30 5173 H 505.003 0.668195 0.0612947 0
M  V30 5174 H 507.547 1.99276 -0.45929 0
M  V30 5175 H 505.702 3.5984 1.43506 0
M  V30 5176 H 506.116 5.24481 -0.0447088 0
M  V30 5177 H 507.59 5.26278 1.66539 0
M  V30 5178 H 508.067 3.71067 2.3496 0
M  V30 5179 H 508.673 4.18694 0.746662 0
M  V30 5180 N 506.988 0.0434614 1.5754 0
M  V30 5181 C 508.235 -0.632035 1.92384 0
M  V30 5182 C 508.563 -1.71304 0.921157 0
M  V30 5183 O 507.818 -1.95583 -0.067744 0
M  V30 5184 C 508.117 -1.2738 3.3393 0
M  V30 5185 C 507.783 -0.321757 4.49751 0
M  V30 5186 C 506.445 -0.0597611 4.81163 0
M  V30 5187 C 508.797 0.331158 5.20147 0
M  V30 5188 C 506.125 0.862715 5.80322 0
M  V30 5189 C 508.477 1.24178 6.20292 0
M  V30 5190 C 507.141 1.51252 6.50138 0
M  V30 5191 H 506.411 -0.231278 0.703983 0
M  V30 5192 H 509.058 0.108294 1.91194 0
M  V30 5193 H 507.363 -2.08921 3.3145 0
M  V30 5194 H 509.06 -1.80326 3.58167 0
M  V30 5195 H 505.65 -0.53614 4.25233 0
M  V30 5196 H 509.834 0.141826 4.96097 0
M  V30 5197 H 505.09 1.08003 6.01785 0
M  V30 5198 H 509.264 1.75381 6.73954 0
M  V30 5199 H 506.891 2.22897 7.26788 0
M  V30 5200 N 508.466 -1.55915 -0.229846 0
M  V30 5201 C 509.691 -1.8296 -0.976743 0
M  V30 5202 C 510.116 -0.622735 -1.77493 0
M  V30 5203 O 509.474 0.428431 -1.76165 0
M  V30 5204 C 509.522 -3.07916 -1.8767 0
M  V30 5205 O 508.626 -2.86028 -2.97088 0
M  V30 5206 H 507.967 -0.603453 -0.277021 0
M  V30 5207 H 510.497 -2.0312 -0.245669 0
M  V30 5208 H 510.507 -3.37802 -2.2881 0
M  V30 5209 H 509.182 -3.95389 -1.28996 0
M  V30 5210 H 507.759 -2.67355 -2.59954 0
M  V30 5211 N 509.944 0.496216 -1.49584 0
M  V30 5212 C 511.193 1.24668 -1.58558 0
M  V30 5213 C 511.506 1.9359 -0.279703 0
M  V30 5214 O 512.712 2.70365 -0.248048 0
M  V30 5215 C 511.168 2.26388 -2.79779 0
M  V30 5216 C 510.776 1.63384 -4.17145 0
M  V30 5217 C 512.52 3.02233 -2.98086 0
M  V30 5218 C 510.427 2.63243 -5.29582 0
M  V30 5219 H 509.357 0.468995 -0.590389 0
M  V30 5220 H 512.008 0.519985 -1.75978 0
M  V30 5221 H 510.39 3.02241 -2.55863 0
M  V30 5222 H 511.564 0.93491 -4.51216 0
M  V30 5223 H 509.879 0.999121 -4.04236 0
M  V30 5224 H 512.476 3.76919 -3.79257 0
M  V30 5225 H 512.819 3.60132 -2.08831 0
M  V30 5226 H 513.352 2.33495 -3.22063 0
M  V30 5227 H 510.091 2.10119 -6.20911 0
M  V30 5228 H 509.611 3.31363 -4.99959 0
M  V30 5229 H 511.29 3.25575 -5.59115 0
M  V30 5230 N 511.423 1.38739 0.74761 0
M  V30 5231 C 512.663 1.36695 1.51966 0
M  V30 5232 C 513.027 -0.0411889 1.91956 0
M  V30 5233 O 514.228 -0.186543 2.68152 0
M  V30 5234 C 512.499 2.30119 2.73459 0
M  V30 5235 S 514.058 2.4615 3.63257 0
M  V30 5236 H 510.876 0.484929 0.519966 0
M  V30 5237 H 513.478 1.7472 0.877104 0
M  V30 5238 H 512.182 3.31312 2.422 0
M  V30 5239 H 511.713 1.93265 3.42655 0
M  V30 5240 H 513.728 1.69001 4.66533 0
M  V30 5241 N 512.901 -0.976442 1.23707 0
M  V30 5242 C 514.131 -1.75087 1.09673 0
M  V30 5243 C 514.539 -1.85852 -0.354344 0
M  V30 5244 O 513.882 -1.33985 -1.25673 0
M  V30 5245 C 513.944 -3.19272 1.65245 0
M  V30 5246 C 513.608 -3.32004 3.14042 0
M  V30 5247 C 514.605 -3.18017 4.11292 0
M  V30 5248 C 512.29 -3.56525 3.53829 0
M  V30 5249 C 514.284 -3.28363 5.46312 0
M  V30 5250 C 511.971 -3.6651 4.88993 0
M  V30 5251 C 512.969 -3.52439 5.85043 0
M  V30 5252 O 512.657 -3.62063 7.1775 0
M  V30 5253 H 512.389 -0.556164 0.384262 0
M  V30 5254 H 514.943 -1.23518 1.64111 0
M  V30 5255 H 513.173 -3.72107 1.05231 0
M  V30 5256 H 514.862 -3.7849 1.46629 0
M  V30 5257 H 515.628 -2.98966 3.81896 0
M  V30 5258 H 511.507 -3.66547 2.79579 0
M  V30 5259 H 515.051 -3.17297 6.21263 0
M  V30 5260 H 510.948 -3.85072 5.18063 0
M  V30 5261 H 511.716 -3.78833 7.25553 0
M  V30 5262 N 514.379 -1.04941 -1.1758 0
M  V30 5263 C 515.342 -0.652456 -2.19717 0
M  V30 5264 C 516.342 0.294745 -1.58076 0
M  V30 5265 O 517.532 0.0789579 -1.74021 0
M  V30 5266 C 514.664 0.0420712 -3.40874 0
M  V30 5267 H 515.857 -1.55642 -2.5635 0
M  V30 5268 H 513.41 -0.842995 -1.31618 0
M  V30 5269 H 514.145 0.95943 -3.09783 0
M  V30 5270 H 513.93 -0.638844 -3.86861 0
M  V30 5271 H 515.42 0.306 -4.16477 0
M  V30 5272 N 515.857 1.33968 -0.830081 0
M  V30 5273 C 516.767 2.33164 -0.259207 0
M  V30 5274 C 517.783 1.62951 0.610164 0
M  V30 5275 O 518.959 1.94668 0.516369 0
M  V30 5276 C 516.024 3.42088 0.563598 0
M  V30 5277 C 515.085 4.28037 -0.329014 0
M  V30 5278 C 514.318 5.3176 0.454616 0
M  V30 5279 O 514.541 5.44876 1.6872 0
M  V30 5280 O 513.475 6.01669 -0.166794 0
M  V30 5281 H 517.301 2.83832 -1.08041 0
M  V30 5282 H 514.886 1.37154 -0.59239 0
M  V30 5283 H 516.768 4.08581 1.03147 0
M  V30 5284 H 515.443 2.93651 1.36201 0
M  V30 5285 H 514.35 3.64443 -0.844538 0
M  V30 5286 H 515.683 4.79934 -1.09196 0
M  V30 5287 N 517.335 0.585699 1.46312 0
M  V30 5288 C 518.563 0.0781299 2.06752 0
M  V30 5289 C 518.978 -1.22812 1.43396 0
M  V30 5290 O 518.335 -1.74318 0.540314 0
M  V30 5291 C 518.386 -0.0911927 3.61385 0
M  V30 5292 O 518.107 1.16336 4.22371 0
M  V30 5293 C 519.608 -0.632765 4.38761 0
M  V30 5294 H 516.828 0.0588188 0.668417 0
M  V30 5295 H 519.372 0.807218 1.87894 0
M  V30 5296 H 517.527 -0.770514 3.7966 0
M  V30 5297 H 517.941 0.979082 5.15281 0
M  V30 5298 H 519.415 -0.70041 5.47538 0
M  V30 5299 H 519.892 -1.65039 4.07012 0
M  V30 5300 H 520.498 0.0117856 4.25298 0
M  V30 5301 N 518.813 -1.54241 0.323641 0
M  V30 5302 C 520.061 -2.00174 -0.278359 0
M  V30 5303 C 520.382 -1.2134 -1.52648 0
M  V30 5304 O 519.652 -0.315244 -1.93347 0
M  V30 5305 H 518.232 -0.739463 -0.105845 0
M  V30 5306 H 520.894 -1.89864 0.440204 0
M  V30 5307 H 519.99 -3.07486 -0.5347 0
M  V30 5308 N 520.291 -0.0518155 -1.57515 0
M  V30 5309 C 521.221 0.920283 -2.146 0
M  V30 5310 C 522.202 1.32406 -1.06783 0
M  V30 5311 O 523.387 1.39866 -1.34726 0
M  V30 5312 C 520.517 2.1949 -2.6915 0
M  V30 5313 C 519.471 1.93116 -3.81956 0
M  V30 5314 C 518.797 3.27037 -4.23026 0
M  V30 5315 C 520.097 1.25225 -5.07066 0
M  V30 5316 H 521.791 0.444801 -2.96077 0
M  V30 5317 H 519.337 0.212508 -1.42423 0
M  V30 5318 H 521.29 2.87894 -3.07725 0
M  V30 5319 H 520.014 2.69244 -1.84865 0
M  V30 5320 H 518.673 1.27123 -3.43854 0
M  V30 5321 H 518.321 3.74595 -3.3569 0
M  V30 5322 H 518.021 3.10189 -4.99056 0
M  V30 5323 H 519.545 3.96673 -4.64202 0
M  V30 5324 H 520.959 1.83666 -5.43083 0
M  V30 5325 H 519.356 1.18702 -5.88243 0
M  V30 5326 H 520.426 0.228382 -4.84362 0
M  V30 5327 N 521.769 1.56035 0.221574 0
M  V30 5328 C 522.699 1.95434 1.2778 0
M  V30 5329 C 523.68 0.822564 1.48889 0
M  V30 5330 O 524.865 1.08486 1.61072 0
M  V30 5331 C 521.995 2.27102 2.62759 0
M  V30 5332 C 520.949 3.4277 2.56306 0
M  V30 5333 C 520.275 3.60043 3.95314 0
M  V30 5334 C 521.575 4.77742 2.11093 0
M  V30 5335 H 523.269 2.83912 0.950504 0
M  V30 5336 H 520.815 1.36596 0.455791 0
M  V30 5337 H 522.768 2.53256 3.36807 0
M  V30 5338 H 521.492 1.35478 2.97176 0
M  V30 5339 H 520.151 3.16664 1.84715 0
M  V30 5340 H 519.799 2.65794 4.27039 0
M  V30 5341 H 519.499 4.37841 3.91879 0
M  V30 5342 H 521.023 3.88545 4.71025 0
M  V30 5343 H 522.437 5.03102 2.74885 0
M  V30 5344 H 520.834 5.58823 2.18716 0
M  V30 5345 H 521.904 4.731 1.06321 0
M  V30 5346 N 523.247 -0.488276 1.49845 0
M  V30 5347 C 524.495 -1.23911 1.59657 0
M  V30 5348 C 524.816 -1.92816 0.291005 0
M  V30 5349 O 524.086 -1.83328 -0.690485 0
M  V30 5350 H 522.666 -0.460357 0.588286 0
M  V30 5351 H 525.328 -0.564794 1.86537 0
M  V30 5352 H 524.424 -1.99625 2.39909 0
M  V30 5353 N 524.725 -1.39134 -0.740242 0
M  V30 5354 C 525.688 -1.37217 -1.83587 0
M  V30 5355 C 526.688 -0.270221 -1.58513 0
M  V30 5356 O 527.878 -0.527843 -1.6601 0
M  V30 5357 C 525.01 -1.13959 -3.21288 0
M  V30 5358 H 526.203 -2.34705 -1.86691 0
M  V30 5359 H 523.756 -1.24622 -0.94335 0
M  V30 5360 H 524.491 -0.17131 -3.23847 0
M  V30 5361 H 524.276 -1.93754 -3.40884 0
M  V30 5362 H 525.766 -1.15346 -4.01354 0
M  V30 5363 N 526.204 0.969867 -1.24223 0
M  V30 5364 C 527.154 2.04913 -0.999732 0
M  V30 5365 C 528.138 1.60795 0.0580636 0
M  V30 5366 O 529.33 1.76317 -0.155392 0
M  V30 5367 C 526.459 3.37942 -0.604154 0
M  V30 5368 C 525.545 3.88628 -1.69791 0
M  V30 5369 N 525.936 4.12274 -2.93025 0
M  V30 5370 C 524.234 4.17268 -1.57492 0
M  V30 5371 C 524.935 4.53808 -3.63914 0
M  V30 5372 N 523.911 4.58855 -2.91468 0
M  V30 5373 H 527.713 2.21168 -1.93551 0
M  V30 5374 H 525.227 1.15349 -1.14317 0
M  V30 5375 H 527.224 4.14863 -0.411665 0
M  V30 5376 H 525.884 3.23075 0.324465 0
M  V30 5377 H 526.895 3.99789 -3.29225 0
M  V30 5378 H 523.572 4.11346 -0.714175 0
M  V30 5379 H 524.962 4.80534 -4.69614 0
M  V30 5380 N 527.682 1.05563 1.17022 0
M  V30 5381 C 528.929 0.767937 1.87374 0
M  V30 5382 C 529.257 -0.705224 1.81265 0
M  V30 5383 O 528.512 -1.5318 1.21796 0
M  V30 5384 C 528.811 1.19849 3.36706 0
M  V30 5385 C 528.477 2.6745 3.63017 0
M  V30 5386 C 527.139 3.0777 3.69907 0
M  V30 5387 C 529.491 3.62811 3.74189 0
M  V30 5388 C 526.819 4.42307 3.85463 0
M  V30 5389 C 529.171 4.97087 3.91264 0
M  V30 5390 C 527.835 5.37055 3.96394 0
M  V30 5391 H 527.105 0.281008 0.68565 0
M  V30 5392 H 529.752 1.32339 1.38415 0
M  V30 5393 H 528.057 0.562096 3.87747 0
M  V30 5394 H 529.754 0.953038 3.8951 0
M  V30 5395 H 526.344 2.35228 3.58282 0
M  V30 5396 H 530.528 3.32798 3.68183 0
M  V30 5397 H 525.784 4.72769 3.87684 0
M  V30 5398 H 529.958 5.70869 3.9885 0
M  V30 5399 H 527.585 6.41308 4.082 0
M  V30 5400 N 529.16 -1.33526 0.837174 0
M  V30 5401 C 530.406 -1.9813 0.432704 0
M  V30 5402 C 530.739 -1.66168 -1.00508 0
M  V30 5403 O 530.014 -0.94069 -1.70239 0
M  V30 5404 C 530.297 -3.54151 0.651834 0
M  V30 5405 C 530.15 -3.95806 2.13676 0
M  V30 5406 C 531.469 -4.39993 0.0968937 0
M  V30 5407 H 528.588 -0.719713 0.15869 0
M  V30 5408 H 531.23 -1.58193 1.05237 0
M  V30 5409 H 529.38 -3.88301 0.124369 0
M  V30 5410 H 531.052 -3.71921 2.72896 0
M  V30 5411 H 529.295 -3.45599 2.62191 0
M  V30 5412 H 529.966 -5.0447 2.24084 0
M  V30 5413 H 532.442 -4.12479 0.547733 0
M  V30 5414 H 531.318 -5.48186 0.279917 0
M  V30 5415 H 531.579 -4.3066 -0.9992 0
M  V30 5416 N 530.638 -0.59345 -1.46 0
M  V30 5417 C 531.878 -0.0859747 -2.04219 0
M  V30 5418 C 532.242 1.25432 -1.45364 0
M  V30 5419 O 533.443 1.85168 -1.9485 0
M  V30 5420 C 531.714 -0.0324314 -3.57385 0
M  V30 5421 S 533.273 0.415908 -4.36824 0
M  V30 5422 H 530.091 -0.0426872 -0.709717 0
M  V30 5423 H 532.693 -0.788369 -1.78899 0
M  V30 5424 H 531.397 -1.01166 -3.97735 0
M  V30 5425 H 530.928 0.6924 -3.87259 0
M  V30 5426 H 532.943 1.66844 -4.67309 0
M  V30 5427 N 532.116 1.54067 -0.331816 0
M  V30 5428 C 533.393 1.92915 0.322955 0
M  V30 5429 C 533.773 1.26225 1.69205 0
M  V30 5430 O 533.121 0.408919 2.24811 0
M  V30 5431 C 533.331 3.46619 0.406946 0
M  V30 5432 C 534.679 4.19386 0.663339 0
M  V30 5433 O 535.703 3.5282 0.489536 0
M  V30 5434 O 534.562 5.37288 0.999193 0
M  V30 5435 H 531.656 0.805808 0.186016 0
M  V30 5436 H 534.202 1.65342 -0.382135 0
M  V30 5437 H 532.974 3.87354 -0.554287 0
M  V30 5438 H 532.597 3.80324 1.15929 0
M  V30 5439 N 533.594 0.0601682 1.57485 0
M  V30 5440 C 535.01 -0.296422 1.56823 0
M  V30 5441 C 535.21 -1.70831 1.0686 0
M  V30 5442 O 534.266 -2.4174 0.729245 0
M  V30 5443 C 535.579 -0.116681 3.00474 0
M  V30 5444 C 537.127 -0.187103 3.1244 0
M  V30 5445 C 537.602 -0.035783 4.57986 0
M  V30 5446 N 539.093 -0.0917676 4.63109 0
M  V30 5447 C 539.828 0.00107251 5.734 0
M  V30 5448 N 539.324 0.146773 6.92645 0
M  V30 5449 N 541.117 -0.0551577 5.62073 0
M  V30 5450 H 533.268 0.983055 1.88281 0
M  V30 5451 H 535.531 0.382386 0.867459 0
M  V30 5452 H 535.237 0.85712 3.41096 0
M  V30 5453 H 535.111 -0.873929 3.66936 0
M  V30 5454 H 537.498 -1.15138 2.71712 0
M  V30 5455 H 537.579 0.601052 2.48638 0
M  V30 5456 H 537.223 0.925212 4.99402 0
M  V30 5457 H 537.153 -0.843196 5.19806 0
M  V30 5458 H 539.644 -0.203261 3.77353 0
M  V30 5459 H 539.957 0.210076 7.72514 0
M  V30 5460 H 538.302 0.181979 6.94762 0
M  V30 5461 H 541.493 -0.167605 4.678 0
M  V30 5462 H 541.666 0.020652 6.47997 0
M  V30 5463 N 535.072 -1.5615 -0.213296 0
M  V30 5464 C 536.005 -1.88115 -1.29182 0
M  V30 5465 C 536.983 -0.739348 -1.44819 0
M  V30 5466 O 538.167 -0.988541 -1.605 0
M  V30 5467 C 535.294 -2.09541 -2.66102 0
M  V30 5468 C 534.34 -3.32236 -2.67436 0
M  V30 5469 S 535.173 -4.87915 -2.20679 0
M  V30 5470 C 536.329 -5.12387 -3.59458 0
M  V30 5471 H 536.562 -2.793 -1.01876 0
M  V30 5472 H 534.095 -1.48692 -0.415934 0
M  V30 5473 H 536.053 -2.22568 -3.44925 0
M  V30 5474 H 534.714 -1.19138 -2.90628 0
M  V30 5475 H 533.907 -3.44297 -3.6807 0
M  V30 5476 H 533.509 -3.18108 -1.96681 0
M  V30 5477 H 535.801 -5.01791 -4.55205 0
M  V30 5478 H 536.744 -6.14236 -3.52306 0
M  V30 5479 H 537.152 -4.40089 -3.53528 0
M  V30 5480 N 536.55 0.480323 -1.50102 0
M  V30 5481 C 537.497 1.57946 -1.6829 0
M  V30 5482 C 538.467 1.57611 -0.524223 0
M  V30 5483 O 539.652 1.75282 -0.753709 0
M  V30 5484 C 536.792 2.95978 -1.77457 0
M  V30 5485 C 535.905 3.06173 -3.04766 0
M  V30 5486 C 535.04 4.35063 -3.04784 0
M  V30 5487 C 534.079 4.38966 -4.26586 0
M  V30 5488 N 533.216 5.59314 -4.24396 0
M  V30 5489 H 538.056 1.41743 -2.62131 0
M  V30 5490 H 535.593 0.689304 -1.2995 0
M  V30 5491 H 537.551 3.76011 -1.80752 0
M  V30 5492 H 536.181 3.10837 -0.870637 0
M  V30 5493 H 535.233 2.19071 -3.10986 0
M  V30 5494 H 536.545 3.04916 -3.9475 0
M  V30 5495 H 535.699 5.23436 -3.06757 0
M  V30 5496 H 534.438 4.38915 -2.12614 0
M  V30 5497 H 533.443 3.48992 -4.24835 0
M  V30 5498 H 534.668 4.36813 -5.19972 0
M  V30 5499 H 532.614 5.63969 -3.35074 0
M  V30 5500 H 532.531 5.5976 -5.08138 0
M  V30 5501 H 533.799 6.49837 -4.30502 0
M  V30 5502 N 538.028 1.39524 0.732853 0
M  V30 5503 C 539.277 1.36175 1.48792 0
M  V30 5504 C 539.59 -0.0388195 1.95561 0
M  V30 5505 O 540.796 -0.194899 2.708 0
M  V30 5506 C 539.252 2.39242 2.68871 0
M  V30 5507 C 538.86 3.85024 2.29042 0
M  V30 5508 C 540.604 2.44972 3.46683 0
M  V30 5509 C 538.511 4.79727 3.45856 0
M  V30 5510 H 537.441 0.506267 0.558757 0
M  V30 5511 H 540.092 1.65181 0.799226 0
M  V30 5512 H 538.474 2.0331 3.39825 0
M  V30 5513 H 539.648 4.30008 1.6562 0
M  V30 5514 H 537.963 3.82609 1.64316 0
M  V30 5515 H 540.56 3.12918 4.33574 0
M  V30 5516 H 540.903 1.4749 3.89297 0
M  V30 5517 H 541.436 2.79808 2.82759 0
M  V30 5518 H 538.175 5.78479 3.08289 0
M  V30 5519 H 537.695 4.39421 4.08251 0
M  V30 5520 H 539.374 4.98731 4.12161 0
M  V30 5521 N 539.506 -0.963266 1.24736 0
M  V30 5522 C 540.783 -1.68248 0.9976 0
M  V30 5523 C 541.163 -2.05599 -0.478776 0
M  V30 5524 O 540.511 -1.7626 -1.45412 0
M  V30 5525 C 540.721 -2.91118 1.92487 0
M  V30 5526 C 542.069 -3.63261 2.19833 0
M  V30 5527 O 543.093 -3.01184 1.90176 0
M  V30 5528 O 541.952 -4.75019 2.7022 0
M  V30 5529 H 539.046 -0.735744 0.377637 0
M  V30 5530 H 541.592 -1.01696 1.35853 0
M  V30 5531 H 540.364 -2.60242 2.92215 0
M  V30 5532 H 539.987 -3.65402 1.56738 0
M  V30 5533 N 540.985 -1.06182 -1.16461 0
M  V30 5534 C 542.262 -0.691364 -1.82974 0
M  V30 5535 C 542.642 0.827377 -1.9421 0
M  V30 5536 O 541.99 1.73723 -1.48434 0
M  V30 5537 C 542.2 -1.39199 -3.20038 0
M  V30 5538 C 543.548 -1.53647 -3.95825 0
M  V30 5539 O 544.572 -1.35181 -3.29552 0
M  V30 5540 O 543.431 -1.83932 -5.14618 0
M  V30 5541 H 540.525 -0.244605 -0.789998 0
M  V30 5542 H 543.071 -1.16203 -1.23673 0
M  V30 5543 H 541.843 -2.42766 -3.06888 0
M  V30 5544 H 541.466 -0.911335 -3.87015 0
M  V30 5545 N 542.463 1.3308 -0.844243 0
M  V30 5546 C 543.396 2.27075 -0.226279 0
M  V30 5547 C 544.374 1.49911 0.629716 0
M  V30 5548 O 545.558 1.79068 0.588803 0
M  V30 5549 C 542.685 3.31767 0.681782 0
M  V30 5550 C 541.731 4.26384 -0.0994565 0
M  V30 5551 S 542.564 5.15186 -1.46094 0
M  V30 5552 C 543.72 6.23405 -0.558319 0
M  V30 5553 H 543.953 2.79141 -1.02312 0
M  V30 5554 H 541.486 1.40452 -0.641292 0
M  V30 5555 H 543.444 3.92566 1.20008 0
M  V30 5556 H 542.105 2.78507 1.45234 0
M  V30 5557 H 541.298 5.00514 0.591733 0
M  V30 5558 H 540.9 3.69949 -0.548991 0
M  V30 5559 H 543.192 6.77069 0.241672 0
M  V30 5560 H 544.135 6.96619 -1.26995 0
M  V30 5561 H 544.543 5.64333 -0.13728 0
M  V30 5562 N 543.941 0.601185 1.45683 0
M  V30 5563 C 544.874 -0.17013 2.27565 0
M  V30 5564 C 545.852 -0.879661 1.36751 0
M  V30 5565 O 547.036 -0.889827 1.66176 0
M  V30 5566 C 544.163 -1.24568 3.14961 0
M  V30 5567 C 543.209 -0.639978 4.21671 0
M  V30 5568 S 544.042 0.547275 5.32696 0
M  V30 5569 C 545.198 -0.529019 6.2366 0
M  V30 5570 H 545.431 0.524583 2.92635 0
M  V30 5571 H 542.964 0.388537 1.49431 0
M  V30 5572 H 544.922 -1.86138 3.65873 0
M  V30 5573 H 543.583 -1.91243 2.49169 0
M  V30 5574 H 542.776 -1.44903 4.8272 0
M  V30 5575 H 542.378 -0.0995558 3.73867 0
M  V30 5576 H 544.67 -1.40981 6.62669 0
M  V30 5577 H 545.613 0.0451599 7.08086 0
M  V30 5578 H 546.021 -0.84147 5.58193 0
M  V30 5579 N 545.419 -1.53889 0.339982 0
M  V30 5580 C 546.666 -2.00855 -0.257621 0
M  V30 5581 C 546.994 -1.22788 -1.50842 0
M  V30 5582 O 546.249 -0.302567 -1.93347 0
M  V30 5583 C 546.548 -3.51968 -0.620735 0
M  V30 5584 C 546.214 -4.47741 0.532771 0
M  V30 5585 C 544.876 -4.73645 0.849339 0
M  V30 5586 C 547.228 -5.04551 1.3068 0
M  V30 5587 C 544.556 -5.53614 1.94237 0
M  V30 5588 C 546.908 -5.85713 2.39005 0
M  V30 5589 C 545.572 -6.09912 2.71225 0
M  V30 5590 H 544.842 -0.734979 -0.0942703 0
M  V30 5591 H 547.489 -1.85714 0.467159 0
M  V30 5592 H 545.794 -3.64921 -1.42618 0
M  V30 5593 H 547.491 -3.85762 -1.09495 0
M  V30 5594 H 544.081 -4.27711 0.275973 0
M  V30 5595 H 548.265 -4.84507 1.07549 0
M  V30 5596 H 543.521 -5.7059 2.19628 0
M  V30 5597 H 547.695 -6.28748 2.99415 0
M  V30 5598 H 545.322 -6.71665 3.56047 0
M  V30 5599 N 546.897 -0.0685191 -1.57451 0
M  V30 5600 C 548.143 0.602239 -1.93652 0
M  V30 5601 C 548.476 1.6946 -0.948526 0
M  V30 5602 O 547.751 1.94487 0.022782 0
M  V30 5603 C 548.034 1.18223 -3.4014 0
M  V30 5604 C 547.887 0.0967431 -4.49696 0
M  V30 5605 C 549.206 2.08872 -3.87377 0
M  V30 5606 H 546.325 0.217453 -0.70419 0
M  V30 5607 H 548.967 -0.133821 -1.89528 0
M  V30 5608 H 547.117 1.80953 -3.43785 0
M  V30 5609 H 548.789 -0.536155 -4.58174 0
M  V30 5610 H 547.032 -0.573063 -4.29998 0
M  V30 5611 H 547.703 0.542894 -5.49324 0
M  V30 5612 H 550.179 1.56081 -3.85717 0
M  V30 5613 H 549.055 2.46389 -4.90493 0
M  V30 5614 H 549.316 2.99572 -3.25129 0
M  V30 5615 N 548.375 1.56261 0.205012 0
M  V30 5616 C 549.305 1.96779 1.257 0
M  V30 5617 C 550.286 0.838309 1.48008 0
M  V30 5618 O 551.471 1.10189 1.59913 0
M  V30 5619 C 548.601 2.29876 2.60335 0
M  V30 5620 C 547.555 3.45469 2.52656 0
M  V30 5621 C 546.881 3.64215 3.91473 0
M  V30 5622 C 548.181 4.79954 2.06014 0
M  V30 5623 H 549.875 2.84904 0.920338 0
M  V30 5624 H 547.421 1.37072 0.441277 0
M  V30 5625 H 549.374 2.56814 3.34102 0
M  V30 5626 H 548.098 1.38622 2.95722 0
M  V30 5627 H 546.757 3.18605 1.81345 0
M  V30 5628 H 546.405 2.70309 4.24196 0
M  V30 5629 H 546.105 4.41973 3.87213 0
M  V30 5630 H 547.629 3.93519 4.66878 0
M  V30 5631 H 549.043 5.05989 2.69533 0
M  V30 5632 H 547.44 5.61111 2.12777 0
M  V30 5633 H 548.51 4.74201 1.01297 0
M  V30 5634 N 549.853 -0.472356 1.50355 0
M  V30 5635 C 550.785 -1.58795 1.65278 0
M  V30 5636 C 551.798 -1.53782 0.534313 0
M  V30 5637 O 552.987 -1.59193 0.807446 0
M  V30 5638 C 550.087 -2.97672 1.62001 0
M  V30 5639 C 549.26 -3.27568 2.89859 0
M  V30 5640 C 548.319 -4.45993 2.79242 0
M  V30 5641 O 547.345 -4.46364 3.53197 0
M  V30 5642 N 548.547 -5.47578 1.92713 0
M  V30 5643 H 551.312 -1.46411 2.61503 0
M  V30 5644 H 548.873 -0.660751 1.47803 0
M  V30 5645 H 550.865 -3.74862 1.52513 0
M  V30 5646 H 549.435 -3.03832 0.735159 0
M  V30 5647 H 548.655 -2.39003 3.13483 0
M  V30 5648 H 549.943 -3.44352 3.74565 0
M  V30 5649 H 549.341 -5.50099 1.31939 0
M  V30 5650 H 547.898 -6.23757 1.8913 0
M  V30 5651 N 551.331 -1.39911 -0.725443 0
M  V30 5652 C 552.579 -1.37382 -1.48224 0
M  V30 5653 C 552.9 0.0264107 -1.94982 0
M  V30 5654 O 552.17 0.979408 -1.6966 0
M  V30 5655 H 550.75 -0.505596 -0.549892 0
M  V30 5656 H 553.412 -1.7487 -0.860608 0
M  V30 5657 H 552.508 -2.04254 -2.3598 0
M  V30 5658 N 552.809 0.956637 -1.25245 0
M  V30 5659 C 553.741 2.05628 -1.01242 0
M  V30 5660 C 554.754 1.62785 0.0219579 0
M  V30 5661 O 555.943 1.77184 -0.216365 0
M  V30 5662 C 553.043 3.35069 -0.508161 0
M  V30 5663 C 552.216 4.06761 -1.60823 0
M  V30 5664 C 551.275 5.14473 -1.1047 0
M  V30 5665 O 550.301 5.40033 -1.79868 0
M  V30 5666 N 551.503 5.80474 0.0550773 0
M  V30 5667 H 554.268 2.2679 -1.95925 0
M  V30 5668 H 551.829 1.12505 -1.16423 0
M  V30 5669 H 553.821 4.044 -0.155819 0
M  V30 5670 H 552.391 3.10694 0.344683 0
M  V30 5671 H 551.611 3.31555 -2.13224 0
M  V30 5672 H 552.899 4.51418 -2.34733 0
M  V30 5673 H 552.297 5.62125 0.635004 0
M  V30 5674 H 550.854 6.50868 0.348469 0
M  V30 5675 N 554.287 1.06798 1.15896 0
M  V30 5676 C 555.533 0.798757 1.8706 0
M  V30 5677 C 555.888 -0.667739 1.80441 0
M  V30 5678 O 555.181 -1.48334 1.21274 0
M  V30 5679 C 555.375 1.23414 3.35416 0
M  V30 5680 C 555.204 2.74142 3.56478 0
M  V30 5681 C 553.974 3.41675 3.72272 0
M  V30 5682 C 556.172 3.72348 3.5477 0
M  V30 5683 N 554.154 4.81101 3.81333 0
M  V30 5684 C 555.525 4.97585 3.69877 0
M  V30 5685 C 557.58 3.65585 3.38011 0
M  V30 5686 C 556.283 6.16866 3.69959 0
M  V30 5687 C 558.309 4.84323 3.39389 0
M  V30 5688 C 557.671 6.08391 3.5502 0
M  V30 5689 H 553.77 0.344761 0.7019 0
M  V30 5690 H 556.354 1.36314 1.3902 0
M  V30 5691 H 554.525 0.697522 3.82085 0
M  V30 5692 H 556.257 0.91304 3.94266 0
M  V30 5693 H 553.012 2.92078 3.7281 0
M  V30 5694 H 553.436 5.53647 3.8962 0
M  V30 5695 H 558.078 2.70615 3.2485 0
M  V30 5696 H 555.796 7.12164 3.819 0
M  V30 5697 H 559.382 4.80762 3.27658 0
M  V30 5698 H 558.262 6.98731 3.56012 0
M  V30 5699 N 555.766 -1.3263 0.851289 0
M  V30 5700 C 556.699 -2.26952 0.238318 0
M  V30 5701 C 557.677 -1.50243 -0.621757 0
M  V30 5702 O 558.861 -1.79378 -0.579298 0
M  V30 5703 C 555.988 -3.32124 -0.664178 0
M  V30 5704 C 555.034 -4.26325 0.122067 0
M  V30 5705 S 555.867 -5.14404 1.48824 0
M  V30 5706 C 557.023 -6.231 0.591372 0
M  V30 5707 H 557.256 -2.78594 1.03791 0
M  V30 5708 H 554.789 -1.4011 0.648731 0
M  V30 5709 H 556.747 -3.93197 -1.17924 0
M  V30 5710 H 555.408 -2.79273 -1.43755 0
M  V30 5711 H 554.601 -5.00821 -0.565181 0
M  V30 5712 H 554.203 -3.69652 0.568602 0
M  V30 5713 H 556.495 -6.77187 -0.205762 0
M  V30 5714 H 557.438 -6.95936 1.30687 0
M  V30 5715 H 557.846 -5.64252 0.167206 0
M  V30 5716 N 557.244 -0.608902 -1.45362 0
M  V30 5717 C 558.66 -0.272659 -1.57254 0
M  V30 5718 C 558.86 1.22477 -1.60005 0
M  V30 5719 O 557.916 2.00785 -1.53106 0
M  V30 5720 C 559.229 -0.944991 -2.85465 0
M  V30 5721 C 560.777 -0.921033 -2.99142 0
M  V30 5722 C 561.252 -1.5734 -4.30126 0
M  V30 5723 N 562.743 -1.53895 -4.36887 0
M  V30 5724 C 563.478 -2.01286 -5.36909 0
M  V30 5725 N 562.974 -2.56768 -6.43461 0
M  V30 5726 N 564.767 -1.92046 -5.28275 0
M  V30 5727 H 556.918 -1.58117 -1.4182 0
M  V30 5728 H 559.181 -0.662437 -0.678146 0
M  V30 5729 H 558.887 -1.99941 -2.89338 0
M  V30 5730 H 558.761 -0.469079 -3.74272 0
M  V30 5731 H 561.148 0.124846 -2.94836 0
M  V30 5732 H 561.229 -1.43522 -2.11743 0
M  V30 5733 H 560.873 -2.61862 -4.35191 0
M  V30 5734 H 560.803 -1.03422 -5.16344 0
M  V30 5735 H 563.294 -1.13366 -3.60495 0
M  V30 5736 H 563.607 -2.9072 -7.16032 0
M  V30 5737 H 561.952 -2.60808 -6.44208 0
M  V30 5738 H 565.143 -1.48439 -4.43941 0
M  V30 5739 H 565.316 -2.29293 -6.06077 0
M  V30 5740 N 558.722 1.53707 -0.348139 0
M  V30 5741 C 559.652 2.28111 0.498766 0
M  V30 5742 C 560.633 1.29851 1.09876 0
M  V30 5743 O 561.818 1.587 1.11928 0
M  V30 5744 C 558.948 3.05735 1.64753 0
M  V30 5745 C 557.902 4.11537 1.17565 0
M  V30 5746 C 557.228 4.77142 2.4133 0
M  V30 5747 C 558.528 5.21587 0.272844 0
M  V30 5748 H 560.222 2.99152 -0.121934 0
M  V30 5749 H 557.768 1.43875 -0.0600842 0
M  V30 5750 H 559.721 3.56526 2.24649 0
M  V30 5751 H 558.445 2.32354 2.2952 0
M  V30 5752 H 557.104 3.61665 0.599483 0
M  V30 5753 H 556.752 4.0035 3.04514 0
M  V30 5754 H 556.452 5.48626 2.10436 0
M  V30 5755 H 557.976 5.30719 3.01943 0
M  V30 5756 H 559.39 5.67986 0.778779 0
M  V30 5757 H 557.787 6.00074 0.0555849 0
M  V30 5758 H 558.857 4.79969 -0.689785 0
M  V30 5759 N 560.2 0.0768682 1.57412 0
M  V30 5760 C 561.44 -0.594676 1.95558 0
M  V30 5761 C 561.804 -1.66469 0.956658 0
M  V30 5762 O 563.005 -2.39215 1.22595 0
M  V30 5763 C 561.276 -1.15206 3.38323 0
M  V30 5764 S 562.835 -1.83803 3.9845 0
M  V30 5765 H 559.653 -0.194579 0.683857 0
M  V30 5766 H 562.255 0.151933 1.94909 0
M  V30 5767 H 560.959 -0.36153 4.08805 0
M  V30 5768 H 560.49 -1.93491 3.42527 0
M  V30 5769 H 562.505 -3.12087 3.85767 0
M  V30 5770 N 561.678 -1.56367 -0.196722 0
M  V30 5771 C 562.906 -1.84639 -0.933608 0
M  V30 5772 C 563.321 -0.659164 -1.76919 0
M  V30 5773 O 562.678 0.372142 -1.78665 0
M  V30 5774 C 562.729 -3.11694 -1.83109 0
M  V30 5775 O 562.45 -4.25838 -1.02924 0
M  V30 5776 C 563.951 -3.53132 -2.67979 0
M  V30 5777 H 561.171 -0.613188 -0.272473 0
M  V30 5778 H 563.715 -2.03475 -0.204465 0
M  V30 5779 H 561.87 -2.94759 -2.51387 0
M  V30 5780 H 562.284 -4.98178 -1.64069 0
M  V30 5781 H 563.758 -4.45005 -3.26611 0
M  V30 5782 H 564.235 -2.76045 -3.41608 0
M  V30 5783 H 564.841 -3.72592 -2.05074 0
M  V30 5784 N 563.156 0.464375 -1.50603 0
M  V30 5785 C 564.381 1.24372 -1.65971 0
M  V30 5786 C 564.806 1.84901 -0.345453 0
M  V30 5787 O 564.164 1.67596 0.691457 0
M  V30 5788 C 564.212 2.32331 -2.7578 0
M  V30 5789 O 563.316 3.37146 -2.375 0
M  V30 5790 H 562.657 0.365604 -0.554283 0
M  V30 5791 H 565.187 0.55183 -1.97018 0
M  V30 5792 H 565.197 2.77539 -2.99059 0
M  V30 5793 H 563.872 1.87648 -3.71162 0
M  V30 5794 H 562.449 2.97602 -2.24694 0
M  V30 5795 N 564.634 1.40294 0.718013 0
M  V30 5796 C 565.597 1.4012 1.81381 0
M  V30 5797 C 566.597 0.295405 1.58063 0
M  V30 5798 O 567.787 0.554187 1.6515 0
M  V30 5799 C 564.919 1.19056 3.19435 0
M  V30 5800 H 566.112 2.37645 1.82933 0
M  V30 5801 H 563.665 1.26107 0.923405 0
M  V30 5802 H 564.4 0.222809 3.23534 0
M  V30 5803 H 564.185 1.99152 3.37758 0
M  V30 5804 H 565.675 1.21716 3.99468 0
M  V30 5805 N 566.112 -0.949982 1.2575 0
M  V30 5806 C 567.34 -1.72972 1.13527 0
M  V30 5807 C 567.755 -1.8623 -0.310453 0
M  V30 5808 O 567.112 -1.36336 -1.2132 0
M  V30 5809 C 567.163 -3.14108 1.78936 0
M  V30 5810 O 566.884 -3.01493 3.17858 0
M  V30 5811 C 568.385 -4.08338 1.72554 0
M  V30 5812 H 565.605 -0.541864 0.395758 0
M  V30 5813 H 568.149 -1.19151 1.66202 0
M  V30 5814 H 566.304 -3.64858 1.30221 0
M  V30 5815 H 566.718 -3.90559 3.50092 0
M  V30 5816 H 568.192 -5.04963 2.22973 0
M  V30 5817 H 568.669 -4.33742 0.690251 0
M  V30 5818 H 569.275 -3.63506 2.2078 0
M  V30 5819 N 567.59 -1.07411 -1.15328 0
M  V30 5820 C 568.5 -0.706438 -2.23711 0
M  V30 5821 C 569.516 0.282586 -1.7169 0
M  V30 5822 O 570.692 0.129066 -2.00986 0
M  V30 5823 C 567.757 -0.11048 -3.46524 0
M  V30 5824 C 566.818 -1.15282 -4.13532 0
M  V30 5825 C 566.051 -0.585205 -5.30482 0
M  V30 5826 O 566.274 0.598549 -5.67251 0
M  V30 5827 O 565.208 -1.33039 -5.87013 0
M  V30 5828 H 569.034 -1.61031 -2.57493 0
M  V30 5829 H 566.619 -0.847113 -1.23062 0
M  V30 5830 H 568.501 0.21957 -4.20828 0
M  V30 5831 H 567.176 0.766703 -3.14489 0
M  V30 5832 H 566.083 -1.53523 -3.41147 0
M  V30 5833 H 567.416 -2.00192 -4.49649 0
M  V30 5834 N 569.068 1.32177 -0.85831 0
M  V30 5835 C 570.293 2.01847 -0.476718 0
M  V30 5836 C 570.718 1.64065 0.920021 0
M  V30 5837 O 570.076 0.843189 1.60499 0
M  V30 5838 C 570.124 3.55097 -0.627578 0
M  V30 5839 O 569.228 4.11012 0.338086 0
M  V30 5840 H 568.569 0.635907 -0.191099 0
M  V30 5841 H 571.099 1.68641 -1.15851 0
M  V30 5842 H 571.109 4.04718 -0.516476 0
M  V30 5843 H 569.784 3.81938 -1.64609 0
M  V30 5844 H 568.361 3.72451 0.182917 0
M  V30 5845 N 570.547 0.616602 1.45037 0
M  V30 5846 C 571.457 -0.0985401 2.34393 0
M  V30 5847 C 572.473 -0.850971 1.51771 0
M  V30 5848 O 573.649 -0.806521 1.84546 0
M  V30 5849 C 570.714 -1.07748 3.29532 0
M  V30 5850 C 569.775 -0.326022 4.2806 0
M  V30 5851 C 569.008 -1.25833 5.18654 0
M  V30 5852 O 569.231 -2.49652 5.12864 0
M  V30 5853 O 568.165 -0.750512 5.97203 0
M  V30 5854 H 571.991 0.636016 2.96966 0
M  V30 5855 H 569.576 0.376832 1.44569 0
M  V30 5856 H 571.458 -1.64107 3.88133 0
M  V30 5857 H 570.133 -1.79291 2.69512 0
M  V30 5858 H 569.04 0.280253 3.73049 0
M  V30 5859 H 570.373 0.349091 4.9096 0
M  V30 5860 N 572.025 -1.5352 0.356285 0
M  V30 5861 C 573.271 -2.01414 -0.236653 0
M  V30 5862 C 573.604 -1.24339 -1.49176 0
M  V30 5863 O 572.879 -0.334496 -1.91602 0
M  V30 5864 C 573.162 -3.56059 -0.537982 0
M  V30 5865 C 573.015 -4.43835 0.730112 0
M  V30 5866 C 574.334 -4.19127 -1.34239 0
M  V30 5867 H 571.453 -0.732135 -0.0845386 0
M  V30 5868 H 574.095 -1.83854 0.479341 0
M  V30 5869 H 572.245 -3.71153 -1.14795 0
M  V30 5870 H 573.917 -4.40555 1.36782 0
M  V30 5871 H 572.16 -4.1218 1.3524 0
M  V30 5872 H 572.831 -5.49958 0.474358 0
M  V30 5873 H 575.307 -4.07809 -0.826498 0
M  V30 5874 H 574.183 -5.27378 -1.52198 0
M  V30 5875 H 574.444 -3.74581 -2.34822 0
M  V30 5876 N 573.503 -0.0852151 -1.57369 0
M  V30 5877 C 574.466 0.8627 -2.12344 0
M  V30 5878 C 575.466 1.21746 -1.05046 0
M  V30 5879 O 576.656 1.14852 -1.30976 0
M  V30 5880 C 573.788 2.1618 -2.63589 0
M  V30 5881 H 574.981 0.385511 -2.97412 0
M  V30 5882 H 572.534 0.163663 -1.55441 0
M  V30 5883 H 573.269 2.68406 -1.82013 0
M  V30 5884 H 573.054 1.91723 -3.4203 0
M  V30 5885 H 574.544 2.84011 -3.06149 0
M  V30 5886 N 574.981 1.5647 0.188427 0
M  V30 5887 C 576.397 1.50204 0.539532 0
M  V30 5888 C 576.597 0.78644 1.85519 0
M  V30 5889 O 575.653 0.339714 2.50204 0
M  V30 5890 C 576.966 2.94893 0.588103 0
M  V30 5891 C 578.514 3.05602 0.67648 0
M  V30 5892 C 578.989 4.51716 0.756101 0
M  V30 5893 N 580.48 4.55894 0.819451 0
M  V30 5894 C 581.215 5.66272 0.90134 0
M  V30 5895 N 580.711 6.86323 0.945118 0
M  V30 5896 N 582.504 5.54201 0.939043 0
M  V30 5897 H 574.655 2.01406 -0.674493 0
M  V30 5898 H 576.918 0.916828 -0.241103 0
M  V30 5899 H 576.624 3.50334 -0.309633 0
M  V30 5900 H 576.498 3.4861 1.44051 0
M  V30 5901 H 578.885 2.50206 1.56465 0
M  V30 5902 H 578.966 2.54999 -0.202262 0
M  V30 5903 H 578.61 5.07739 -0.12774 0
M  V30 5904 H 578.54 5.00058 1.65074 0
M  V30 5905 H 581.031 3.69452 0.794594 0
M  V30 5906 H 581.344 7.66194 1.0083 0
M  V30 5907 H 579.689 6.88968 0.913683 0
M  V30 5908 H 582.88 4.59333 0.901725 0
M  V30 5909 H 583.053 6.40247 0.999402 0
M  V30 5910 N 576.459 -0.456382 1.50847 0
M  V30 5911 C 577.707 -1.20497 1.62249 0
M  V30 5912 C 578.028 -1.92156 0.331839 0
M  V30 5913 O 577.298 -1.84751 -0.651443 0
M  V30 5914 H 575.878 -0.447775 0.597918 0
M  V30 5915 H 578.54 -0.525099 1.87693 0
M  V30 5916 H 577.636 -1.94492 2.44089 0
M  V30 5917 N 577.937 -1.40673 -0.710563 0
M  V30 5918 C 578.884 -1.41336 -1.82463 0
M  V30 5919 C 579.854 -0.269648 -1.63897 0
M  V30 5920 O 581.039 -0.468463 -1.8496 0
M  V30 5921 C 578.179 -1.28665 -3.20218 0
M  V30 5922 C 577.292 -2.52784 -3.5032 0
M  V30 5923 C 576.427 -2.32517 -4.77608 0
M  V30 5924 C 575.466 -3.52187 -5.0063 0
M  V30 5925 N 574.603 -3.31084 -6.19135 0
M  V30 5926 H 579.443 -2.36558 -1.8123 0
M  V30 5927 H 576.98 -1.17483 -0.885226 0
M  V30 5928 H 578.938 -1.19324 -3.99772 0
M  V30 5929 H 577.568 -0.370602 -3.20666 0
M  V30 5930 H 576.62 -2.72634 -2.65283 0
M  V30 5931 H 577.932 -3.41845 -3.63241 0
M  V30 5932 H 577.086 -2.20558 -5.65189 0
M  V30 5933 H 575.825 -1.40889 -4.66906 0
M  V30 5934 H 574.83 -3.64617 -4.11502 0
M  V30 5935 H 576.055 -4.44749 -5.13201 0
M  V30 5936 H 574.001 -2.42143 -6.09674 0
M  V30 5937 H 573.918 -4.13713 -6.32754 0
M  V30 5938 H 575.186 -3.22868 -7.0949 0
M  V30 5939 N 579.415 0.9433 -1.26252 0
M  V30 5940 C 580.363 2.06302 -1.07434 0
M  V30 5941 C 581.357 1.694 -0.00189471 0
M  V30 5942 O 582.563 1.79302 -0.158408 0
M  V30 5943 H 578.938 0.675453 -0.330556 0
M  V30 5944 H 580.909 2.19326 -2.02333 0
M  V30 5945 C 579.658 3.40125 -0.721817 0
M  V30 5946 H 578.981 3.68996 -1.5389 0
M  V30 5947 H 580.421 4.19295 -0.629922 0
M  V30 5948 C 578.88 3.31993 0.572902 0
M  V30 5949 O 579.41 3.67945 1.61182 0
M  V30 5950 N 577.616 2.85099 0.562748 0
M  V30 5951 H 577.163 2.5604 -0.283092 0
M  V30 5952 H 577.121 2.80041 1.42915 0
M  V30 5953 N 580.893 1.08022 1.14757 0
M  V30 5954 C 582.142 0.802468 1.8505 0
M  V30 5955 C 582.455 -0.674061 1.83619 0
M  V30 5956 O 583.661 -1.06683 2.49662 0
M  V30 5957 C 582.117 1.38551 3.32162 0
M  V30 5958 C 581.725 2.89354 3.42021 0
M  V30 5959 C 583.469 1.18608 4.07594 0
M  V30 5960 C 581.376 3.40815 4.83321 0
M  V30 5961 H 580.306 0.296518 0.693248 0
M  V30 5962 H 582.957 1.30114 1.29393 0
M  V30 5963 H 581.339 0.814556 3.87532 0
M  V30 5964 H 582.513 3.52552 2.96722 0
M  V30 5965 H 580.828 3.08165 2.80041 0
M  V30 5966 H 583.425 1.54525 5.11885 0
M  V30 5967 H 583.768 0.125599 4.1611 0
M  V30 5968 H 584.301 1.72375 3.58513 0
M  V30 5969 H 581.04 4.46418 4.79991 0
M  V30 5970 H 580.56 2.82374 5.29174 0
M  V30 5971 H 582.239 3.37171 5.522 0
M  V30 5972 N 582.371 -1.3172 0.865308 0
M  V30 5973 C 583.301 -2.31109 0.333302 0
M  V30 5974 C 584.282 -1.60148 -0.573301 0
M  V30 5975 O 585.467 -1.87882 -0.491305 0
M  V30 5976 C 582.597 -3.44104 -0.470078 0
M  V30 5977 C 581.551 -4.26623 0.343021 0
M  V30 5978 C 580.877 -5.31482 -0.585756 0
M  V30 5979 C 582.177 -4.98001 1.57456 0
M  V30 5980 H 583.871 -2.75855 1.1638 0
M  V30 5981 H 581.417 -1.3262 0.561069 0
M  V30 5982 H 583.37 -4.12682 -0.852752 0
M  V30 5983 H 582.094 -2.98112 -1.33404 0
M  V30 5984 H 580.753 -3.59707 0.707583 0
M  V30 5985 H 580.401 -4.81741 -1.44686 0
M  V30 5986 H 580.101 -5.87582 -0.0456494 0
M  V30 5987 H 581.625 -6.0292 -0.965375 0
M  V30 5988 H 583.039 -5.59201 1.26359 0
M  V30 5989 H 581.436 -5.63876 2.05339 0
M  V30 5990 H 582.506 -4.25253 2.32997 0
M  V30 5991 N 583.85 -0.624285 -1.44708 0
M  V30 5992 C 585.266 -0.289322 -1.56956 0
M  V30 5993 C 585.466 1.20773 -1.61295 0
M  V30 5994 O 584.522 1.9915 -1.55227 0
M  V30 5995 C 585.835 -0.975215 -2.84447 0
M  V30 5996 C 587.383 -0.952709 -2.98148 0
M  V30 5997 C 587.858 -1.61893 -4.28433 0
M  V30 5998 N 589.349 -1.5852 -4.35231 0
M  V30 5999 C 590.084 -2.06969 -5.34744 0
M  V30 6000 N 589.58 -2.63579 -6.40701 0
M  V30 6001 N 591.373 -1.97638 -5.26209 0
M  V30 6002 H 583.524 -1.59612 -1.40135 0
M  V30 6003 H 585.787 -0.669592 -0.671081 0
M  V30 6004 H 585.493 -2.02999 -2.87201 0
M  V30 6005 H 585.367 -0.508749 -3.73753 0
M  V30 6006 H 587.754 0.093568 -2.94952 0
M  V30 6007 H 587.835 -1.4576 -2.10209 0
M  V30 6008 H 587.479 -2.66463 -4.32389 0
M  V30 6009 H 587.409 -1.08893 -5.15218 0
M  V30 6010 H 589.899 -1.17183 -3.59272 0
M  V30 6011 H 590.213 -2.98298 -7.12908 0
M  V30 6012 H 588.558 -2.67626 -6.41406 0
M  V30 6013 H 591.749 -1.5314 -4.42341 0
M  V30 6014 H 591.922 -2.35708 -6.03611 0
M  V30 6015 N 585.328 1.53329 -0.364422 0
M  V30 6016 C 586.276 2.27212 0.497737 0
M  V30 6017 C 587.27 1.30146 1.08437 0
M  V30 6018 O 588.476 1.47778 1.0277 0
M  V30 6019 H 584.851 0.730329 0.179232 0
M  V30 6020 H 586.822 2.98037 -0.147182 0
M  V30 6021 C 585.571 3.07333 1.6261 0
M  V30 6022 H 584.894 3.81866 1.184 0
M  V30 6023 H 586.334 3.62209 2.20409 0
M  V30 6024 C 584.793 2.18102 2.56775 0
M  V30 6025 O 585.323 1.79104 3.59562 0
M  V30 6026 N 583.529 1.82759 2.25937 0
M  V30 6027 H 583.076 2.14671 1.42387 0
M  V30 6028 H 583.034 1.23342 2.89196 0
M  V30 6029 N 586.806 0.0935595 1.57322 0
M  V30 6030 C 587.769 -0.851426 2.12799 0
M  V30 6031 C 588.769 -1.21187 1.0569 0
M  V30 6032 O 589.959 -1.14156 1.31583 0
M  V30 6033 C 587.091 -2.14779 2.64731 0
M  V30 6034 H 588.284 -0.369733 2.97612 0
M  V30 6035 H 585.837 -0.155417 1.55525 0
M  V30 6036 H 586.572 -2.67437 1.83434 0
M  V30 6037 H 586.357 -1.89907 3.43042 0
M  V30 6038 H 587.847 -2.82383 3.07651 0
M  V30 6039 N 588.284 -1.56567 -0.180126 0
M  V30 6040 C 589.214 -1.98753 -1.22553 0
M  V30 6041 C 590.195 -0.86175 -1.46656 0
M  V30 6042 O 591.38 -1.12719 -1.58139 0
M  V30 6043 C 588.51 -2.33988 -2.56645 0
M  V30 6044 C 587.464 -3.49445 -2.47128 0
M  V30 6045 C 586.79 -3.70397 -3.8563 0
M  V30 6046 C 588.09 -4.83171 -1.98352 0
M  V30 6047 H 589.784 -2.86332 -0.874896 0
M  V30 6048 H 587.33 -1.37757 -0.419414 0
M  V30 6049 H 589.283 -2.62097 -3.29974 0
M  V30 6050 H 588.007 -1.43309 -2.93479 0
M  V30 6051 H 586.666 -3.2145 -1.76254 0
M  V30 6052 H 586.314 -2.77023 -4.19842 0
M  V30 6053 H 586.014 -4.48077 -3.80132 0
M  V30 6054 H 587.538 -4.00897 -4.60558 0
M  V30 6055 H 588.952 -5.10213 -2.61449 0
M  V30 6056 H 587.349 -5.64425 -2.03823 0
M  V30 6057 H 588.419 -4.75753 -0.937402 0
M  V30 6058 N 589.762 0.448376 -1.51087 0
M  V30 6059 C 591.008 1.20049 -1.6345 0
M  V30 6060 C 591.341 1.91121 -0.344444 0
M  V30 6061 O 590.616 1.83125 0.655396 0
M  V30 6062 C 590.899 2.22624 -2.83038 0
M  V30 6063 C 590.752 1.55708 -4.21989 0
M  V30 6064 C 592.071 3.23718 -2.98152 0
M  V30 6065 H 589.19 0.435085 -0.59487 0
M  V30 6066 H 591.832 0.491183 -1.83541 0
M  V30 6067 H 589.982 2.83117 -2.66039 0
M  V30 6068 H 591.654 0.986367 -4.50631 0
M  V30 6069 H 589.897 0.859647 -4.25197 0
M  V30 6070 H 590.568 2.30357 -5.01637 0
M  V30 6071 H 593.044 2.73269 -3.13788 0
M  V30 6072 H 591.92 3.92795 -3.83411 0
M  V30 6073 H 592.181 3.89179 -2.09743 0
M  V30 6074 N 591.24 1.41047 0.703093 0
M  V30 6075 C 592.465 1.43537 1.49706 0
M  V30 6076 C 592.89 0.0401853 1.88057 0
M  V30 6077 O 592.248 -0.954785 1.54122 0
M  V30 6078 C 592.296 2.3433 2.74084 0
M  V30 6079 O 591.4 1.79515 3.71279 0
M  V30 6080 H 590.741 0.487454 0.450871 0
M  V30 6081 H 593.271 1.85422 0.86486 0
M  V30 6082 H 593.281 2.49947 3.22476 0
M  V30 6083 H 591.956 3.35708 2.45506 0
M  V30 6084 H 590.533 1.7331 3.30179 0
M  V30 6085 N 592.718 -0.936591 1.26751 0
M  V30 6086 C 593.668 -2.0219 1.05371 0
M  V30 6087 C 594.652 -1.60893 -0.0154112 0
M  V30 6088 O 595.844 -1.75843 0.202085 0
M  V30 6089 C 592.973 -3.36222 0.693541 0
M  V30 6090 C 592.059 -3.8399 1.80035 0
M  V30 6091 N 592.45 -4.0436 3.03852 0
M  V30 6092 C 590.748 -4.12945 1.685 0
M  V30 6093 C 591.449 -4.44 3.75818 0
M  V30 6094 N 590.425 -4.50966 3.03531 0
M  V30 6095 H 594.227 -2.15958 1.99347 0
M  V30 6096 H 591.741 -1.12277 1.17335 0
M  V30 6097 H 593.738 -4.13625 0.521513 0
M  V30 6098 H 592.398 -3.23821 -0.238693 0
M  V30 6099 H 593.409 -3.9092 3.39709 0
M  V30 6100 H 590.086 -4.09308 0.822986 0
M  V30 6101 H 591.476 -4.67914 4.82189 0
M  V30 6102 N 594.196 -1.08629 -1.14182 0
M  V30 6103 C 595.126 -0.740003 -2.21464 0
M  V30 6104 C 596.107 0.278591 -1.67803 0
M  V30 6105 O 597.292 0.148461 -1.93632 0
M  V30 6106 C 594.422 -0.150952 -3.46972 0
M  V30 6107 C 593.376 -1.09815 -4.13672 0
M  V30 6108 C 592.702 -0.3712 -5.3341 0
M  V30 6109 C 594.002 -2.43722 -4.61949 0
M  V30 6110 H 595.696 -1.63697 -2.50686 0
M  V30 6111 H 593.242 -0.788526 -1.20492 0
M  V30 6112 H 595.195 0.103325 -4.21273 0
M  V30 6113 H 593.919 0.781164 -3.1712 0
M  V30 6114 H 592.578 -1.33756 -3.41328 0
M  V30 6115 H 592.226 0.564792 -4.99819 0
M  V30 6116 H 591.926 -1.00267 -5.78982 0
M  V30 6117 H 593.45 -0.12503 -6.10472 0
M  V30 6118 H 594.864 -2.24034 -5.27714 0
M  V30 6119 H 593.261 -3.02582 -5.18232 0
M  V30 6120 H 594.331 -3.05082 -3.76899 0
M  V30 6121 N 595.674 1.31259 -0.872281 0
M  V30 6122 C 596.951 1.91362 -0.404943 0
M  V30 6123 C 597.331 1.79362 1.11321 0
M  V30 6124 O 596.679 1.20277 1.94283 0
M  V30 6125 C 596.889 3.3749 -0.888893 0
M  V30 6126 C 598.237 4.14593 -0.916384 0
M  V30 6127 O 599.261 3.46282 -0.834701 0
M  V30 6128 O 598.12 5.3661 -1.03498 0
M  V30 6129 H 595.214 0.818016 -0.121569 0
M  V30 6130 H 597.76 1.39912 -0.960346 0
M  V30 6131 H 596.532 3.40249 -1.93251 0
M  V30 6132 H 596.155 3.96375 -0.311932 0
M  V30 6133 N 597.152 0.631951 1.44375 0
M  V30 6134 C 598.4 0.136497 2.01639 0
M  V30 6135 C 598.721 -1.24637 1.49969 0
M  V30 6136 O 597.991 -1.82827 0.70363 0
M  V30 6137 H 596.571 0.0474703 0.74549 0
M  V30 6138 H 599.233 0.818837 1.76865 0
M  V30 6139 H 598.329 0.104817 3.11924 0
M  V30 6140 N 598.631 -1.53133 0.372548 0
M  V30 6141 C 599.859 -2.05774 -0.215515 0
M  V30 6142 C 600.274 -1.24555 -1.41886 0
M  V30 6143 O 599.631 -0.287951 -1.80214 0
M  V30 6144 C 599.682 -3.5645 -0.602161 0
M  V30 6145 O 599.403 -4.34591 0.553359 0
M  V30 6146 C 600.904 -4.25374 -1.24787 0
M  V30 6147 H 598.124 -0.670009 -0.0364529 0
M  V30 6148 H 600.668 -1.97434 0.532934 0
M  V30 6149 H 598.823 -3.64918 -1.30052 0
M  V30 6150 H 599.237 -5.23954 0.239336 0
M  V30 6151 H 600.711 -5.32097 -1.46891 0
M  V30 6152 H 601.188 -3.79531 -2.21026 0
M  V30 6153 H 601.794 -4.21177 -0.590752 0
M  V30 6154 N 600.109 -0.101901 -1.5727 0
M  V30 6155 C 601.337 0.568392 -1.98939 0
M  V30 6156 C 601.752 1.61301 -0.981194 0
M  V30 6157 O 601.109 1.82478 0.0282869 0
M  V30 6158 C 601.16 1.20997 -3.40649 0
M  V30 6159 O 600.881 0.207129 -4.3761 0
M  V30 6160 C 602.382 1.96523 -3.97358 0
M  V30 6161 H 599.602 0.15186 -0.65359 0
M  V30 6162 H 602.146 -0.183198 -2.03678 0
M  V30 6163 H 600.301 1.91245 -3.36904 0
M  V30 6164 H 600.715 0.671071 -5.20189 0
M  V30 6165 H 602.189 2.36764 -4.98645 0
M  V30 6166 H 602.666 2.83376 -3.35552 0
M  V30 6167 H 603.272 1.31076 -4.04598 0
M  V30 6168 N 601.587 1.56661 0.17182 0
M  V30 6169 C 602.998 1.71652 0.734329 0
M  V30 6170 C 603.349 0.712335 1.82812 0
M  V30 6171 O 602.474 -0.126401 2.16031 0
M  V30 6172 C 603.069 3.11226 1.3388 0
M  V30 6173 C 601.628 3.27904 1.84813 0
M  V30 6174 C 600.775 2.67603 0.726917 0
M  V30 6175 H 603.726 1.5861 -0.0535665 0
M  V30 6176 H 603.747 3.09849 2.20849 0
M  V30 6177 H 603.259 3.8429 0.54249 0
M  V30 6178 H 601.36 2.59796 2.6709 0
M  V30 6179 H 601.473 4.35637 1.99392 0
M  V30 6180 H 599.837 2.274 1.14723 0
M  V30 6181 H 600.62 3.43252 -0.0575334 0
M  V30 6182 N 603.065 -0.440357 1.51323 0
M  V30 6183 C 604.311 -1.19181 1.64085 0
M  V30 6184 C 604.644 -1.90936 0.354575 0
M  V30 6185 O 603.919 -1.8347 -0.645675 0
M  V30 6186 C 604.202 -2.2112 2.84215 0
M  V30 6187 C 604.055 -1.53468 4.22809 0
M  V30 6188 C 605.374 -3.22133 2.99864 0
M  V30 6189 H 602.493 -0.431924 0.597169 0
M  V30 6190 H 605.135 -0.481443 1.83799 0
M  V30 6191 H 603.285 -2.81703 2.67537 0
M  V30 6192 H 604.957 -0.962455 4.51148 0
M  V30 6193 H 603.2 -0.837086 4.25647 0
M  V30 6194 H 603.871 -2.27694 5.02852 0
M  V30 6195 H 606.347 -2.71601 3.15233 0
M  V30 6196 H 605.223 -3.90756 3.85488 0
M  V30 6197 H 605.484 -3.88061 2.11804 0
M  V30 6198 N 604.543 -1.41418 -0.695603 0
M  V30 6199 C 605.783 -1.42241 -1.46788 0
M  V30 6200 C 606.147 -0.0300827 -1.91976 0
M  V30 6201 O 607.348 0.0868914 -2.6866 0
M  V30 6202 C 605.619 -2.4011 -2.6473 0
M  V30 6203 S 607.178 -2.59462 -3.53871 0
M  V30 6204 H 603.996 -0.503893 -0.50161 0
M  V30 6205 H 606.598 -1.77855 -0.811654 0
M  V30 6206 H 605.302 -3.40073 -2.29736 0
M  V30 6207 H 604.833 -2.05849 -3.35246 0
M  V30 6208 H 606.848 -1.862 -4.59939 0
M  V30 6209 N 606.021 0.929856 -1.27246 0
M  V30 6210 C 606.931 2.0636 -1.11592 0
M  V30 6211 C 607.947 1.73938 -0.046496 0
M  V30 6212 O 609.123 1.9981 -0.252544 0
M  V30 6213 C 606.188 3.38213 -0.762437 0
M  V30 6214 C 605.249 3.84346 -1.9125 0
M  V30 6215 C 604.482 5.09906 -1.57579 0
M  V30 6216 O 604.705 5.68354 -0.482694 0
M  V30 6217 O 603.639 5.51359 -2.41426 0
M  V30 6218 H 607.465 2.22478 -2.0673 0
M  V30 6219 H 605.05 1.04865 -1.06413 0
M  V30 6220 H 606.932 4.1741 -0.57854 0
M  V30 6221 H 605.607 3.23307 0.159439 0
M  V30 6222 H 604.514 3.06045 -2.15144 0
M  V30 6223 H 605.847 4.0379 -2.81451 0
M  V30 6224 N 607.499 1.09233 1.13605 0
M  V30 6225 C 608.776 0.739633 1.81077 0
M  V30 6226 C 609.156 -0.775595 1.96336 0
M  V30 6227 O 608.504 -1.69726 1.52988 0
M  V30 6228 C 608.714 1.47636 3.16235 0
M  V30 6229 C 610.062 1.64087 3.91613 0
M  V30 6230 O 611.086 1.43871 3.25852 0
M  V30 6231 O 609.945 1.97511 5.0956 0
M  V30 6232 H 607.039 0.265464 0.783236 0
M  V30 6233 H 609.585 1.19441 1.20549 0
M  V30 6234 H 608.357 2.50818 3.00344 0
M  V30 6235 H 607.98 1.01362 3.84462 0
M  V30 6236 N 608.977 -1.30795 0.87923 0
M  V30 6237 C 610.226 -1.95636 0.490875 0
M  V30 6238 C 610.539 -1.70214 -0.963674 0
M  V30 6239 O 611.745 -2.28991 -1.45861 0
M  V30 6240 C 610.201 -3.50271 0.826929 0
M  V30 6241 C 609.809 -3.84521 2.29886 0
M  V30 6242 C 611.553 -4.21456 0.507494 0
M  V30 6243 C 609.46 -5.32309 2.57685 0
M  V30 6244 H 608.39 -0.732238 0.179841 0
M  V30 6245 H 611.041 -1.48829 1.07341 0
M  V30 6246 H 609.423 -3.9562 0.173542 0
M  V30 6247 H 610.597 -3.50102 2.99609 0
M  V30 6248 H 608.912 -3.26425 2.58526 0
M  V30 6249 H 611.509 -5.30199 0.692293 0
M  V30 6250 H 611.852 -4.12614 -0.552718 0
M  V30 6251 H 612.385 -3.81772 1.11782 0
M  V30 6252 H 609.124 -5.46195 3.62424 0
M  V30 6253 H 608.644 -5.68048 1.92566 0
M  V30 6254 H 610.323 -5.99678 2.42889 0
M  V30 6255 N 610.455 -0.639598 -1.44038 0
M  V30 6256 C 611.703 -0.147188 -2.01563 0
M  V30 6257 C 612.024 1.2384 -1.50628 0
M  V30 6258 O 611.294 1.82452 -0.713316 0
M  V30 6259 H 609.874 -0.0514231 -0.745228 0
M  V30 6260 H 612.536 -0.828205 -1.76428 0
M  V30 6261 H 611.632 -0.121358 -3.11864 0
M  V30 6262 N 611.933 1.52934 -0.380664 0
M  V30 6263 C 613.349 1.59571 -0.0302429 0
M  V30 6264 C 613.549 1.39509 1.45394 0
M  V30 6265 O 612.605 1.20777 2.21741 0
M  V30 6266 C 613.918 2.96519 -0.499691 0
M  V30 6267 C 615.466 3.09672 -0.455204 0
M  V30 6268 C 615.941 4.49056 -0.900703 0
M  V30 6269 N 617.432 4.55215 -0.856367 0
M  V30 6270 C 618.167 5.61282 -1.17259 0
M  V30 6271 N 617.663 6.75035 -1.55885 0
M  V30 6272 N 619.456 5.51343 -1.0944 0
M  V30 6273 H 611.607 1.64224 -1.347 0
M  V30 6274 H 613.87 0.771033 -0.551554 0
M  V30 6275 H 613.576 3.16388 -1.53595 0
M  V30 6276 H 613.45 3.77052 0.105789 0
M  V30 6277 H 615.837 2.89504 0.571949 0
M  V30 6278 H 615.918 2.31113 -1.09638 0
M  V30 6279 H 615.562 4.69964 -1.92604 0
M  V30 6280 H 615.492 5.26068 -0.236629 0
M  V30 6281 H 617.983 3.73546 -0.572013 0
M  V30 6282 H 618.296 7.51926 -1.784 0
M  V30 6283 H 616.641 6.76388 -1.59764 0
M  V30 6284 H 619.832 4.61356 -0.791713 0
M  V30 6285 H 620.005 6.33905 -1.34417 0
M  V30 6286 N 613.412 0.11024 1.57214 0
M  V30 6287 C 614.637 -0.561179 1.99664 0
M  V30 6288 C 615.062 -1.59985 0.989266 0
M  V30 6289 O 614.42 -1.81255 -0.0402399 0
M  V30 6290 C 614.468 -1.17189 3.41027 0
M  V30 6291 O 613.572 -2.28755 3.4314 0
M  V30 6292 H 612.913 -0.14101 0.648855 0
M  V30 6293 H 615.443 0.196128 2.03658 0
M  V30 6294 H 615.453 -1.50954 3.79047 0
M  V30 6295 H 614.128 -0.411041 4.13864 0
M  V30 6296 H 612.705 -1.96495 3.16929 0
M  V30 6297 N 614.89 -1.56749 -0.16351 0
M  V30 6298 C 615.82 -2.00042 -1.20438 0
M  V30 6299 C 616.801 -0.877256 -1.45733 0
M  V30 6300 O 617.986 -1.1439 -1.56935 0
M  V30 6301 C 615.116 -2.36697 -2.54149 0
M  V30 6302 C 614.07 -3.52046 -2.43408 0
M  V30 6303 C 613.396 -3.74466 -3.81679 0
M  V30 6304 C 614.696 -4.85247 -1.93216 0
M  V30 6305 H 616.39 -2.87244 -0.844477 0
M  V30 6306 H 613.936 -1.38194 -0.40478 0
M  V30 6307 H 615.889 -2.65582 -3.27176 0
M  V30 6308 H 614.613 -1.46414 -2.91943 0
M  V30 6309 H 613.272 -3.23301 -1.72834 0
M  V30 6310 H 612.92 -2.81461 -4.1688 0
M  V30 6311 H 612.62 -4.52084 -3.75359 0
M  V30 6312 H 614.144 -4.0576 -4.5628 0
M  V30 6313 H 615.558 -5.12957 -2.56023 0
M  V30 6314 H 613.955 -5.66556 -1.97825 0
M  V30 6315 H 615.025 -4.7672 -0.88689 0
M  V30 6316 N 616.368 0.432326 -1.51554 0
M  V30 6317 C 617.298 1.53242 -1.76179 0
M  V30 6318 C 618.279 1.58717 -0.611801 0
M  V30 6319 O 619.464 1.74364 -0.855033 0
M  V30 6320 C 616.594 2.91278 -1.89141 0
M  V30 6321 C 615.548 3.00663 -3.04608 0
M  V30 6322 C 614.874 4.40728 -3.02759 0
M  V30 6323 C 616.174 2.74281 -4.44485 0
M  V30 6324 H 617.868 1.32886 -2.68294 0
M  V30 6325 H 615.414 0.637841 -1.29103 0
M  V30 6326 H 617.367 3.68203 -2.04951 0
M  V30 6327 H 616.091 3.12877 -0.936785 0
M  V30 6328 H 614.75 2.26179 -2.88511 0
M  V30 6329 H 614.398 4.59301 -2.05065 0
M  V30 6330 H 614.098 4.47936 -3.80299 0
M  V30 6331 H 615.622 5.19619 -3.20669 0
M  V30 6332 H 617.036 3.40936 -4.60907 0
M  V30 6333 H 615.433 2.92893 -5.23769 0
M  V30 6334 H 616.503 1.69856 -4.54177 0
M  V30 6335 N 617.846 1.41785 0.688094 0
M  V30 6336 C 619.074 1.44915 1.47673 0
M  V30 6337 C 619.489 0.0565786 1.88715 0
M  V30 6338 O 618.846 -0.92579 1.57275 0
M  V30 6339 C 618.897 2.36452 2.73446 0
M  V30 6340 O 618.618 3.7029 2.34131 0
M  V30 6341 C 620.119 2.48463 3.67125 0
M  V30 6342 H 617.339 0.493324 0.454832 0
M  V30 6343 H 619.883 1.86153 0.846594 0
M  V30 6344 H 618.038 1.98502 3.3268 0
M  V30 6345 H 618.452 4.19183 3.15255 0
M  V30 6346 H 619.926 3.16662 4.52138 0
M  V30 6347 H 620.403 1.51826 4.12123 0
M  V30 6348 H 621.009 2.8708 3.13792 0
M  V30 6349 N 619.324 -0.923095 1.27737 0
M  V30 6350 C 620.554 -1.70277 1.17001 0
M  V30 6351 C 620.962 -1.87188 -0.275199 0
M  V30 6352 O 620.305 -1.39195 -1.19877 0
M  V30 6353 C 620.367 -3.11976 1.78637 0
M  V30 6354 C 620.031 -3.18386 3.27841 0
M  V30 6355 C 621.028 -3.00287 4.2441 0
M  V30 6356 C 618.713 -3.41198 3.68632 0
M  V30 6357 C 620.707 -3.04896 5.59747 0
M  V30 6358 C 618.394 -3.4544 5.04097 0
M  V30 6359 C 619.392 -3.27309 5.99465 0
M  V30 6360 O 619.08 -3.31295 7.32461 0
M  V30 6361 H 618.812 -0.539366 0.407505 0
M  V30 6362 H 621.366 -1.16446 1.69202 0
M  V30 6363 H 619.596 -3.67308 1.20919 0
M  V30 6364 H 621.285 -3.7193 1.6255 0
M  V30 6365 H 622.051 -2.825 3.94232 0
M  V30 6366 H 617.93 -3.54359 2.94873 0
M  V30 6367 H 621.474 -2.90662 6.34162 0
M  V30 6368 H 617.371 -3.62753 5.33929 0
M  V30 6369 H 618.139 -3.47719 7.40968 0
M  V30 6370 N 620.802 -1.09834 -1.13024 0
M  V30 6371 C 622.05 -0.835297 -1.8403 0
M  V30 6372 C 622.371 0.640944 -1.84165 0
M  V30 6373 O 621.641 1.46517 -1.30037 0
M  V30 6374 H 620.221 -0.306018 -0.681441 0
M  V30 6375 H 622.883 -1.38734 -1.36891 0
M  V30 6376 H 621.979 -1.19258 -2.88416 0
M  V30 6377 N 622.28 1.30327 -0.886154 0
M  V30 6378 C 623.696 1.48676 -0.580323 0
M  V30 6379 C 623.896 1.81189 0.881639 0
M  V30 6380 O 622.952 1.90021 1.66278 0
M  V30 6381 C 624.265 2.60932 -1.49449 0
M  V30 6382 C 625.813 2.74812 -1.49824 0
M  V30 6383 C 626.288 3.90183 -2.39836 0
M  V30 6384 N 627.779 3.97495 -2.37806 0
M  V30 6385 C 628.514 4.86078 -3.04165 0
M  V30 6386 N 628.01 5.79448 -3.79753 0
M  V30 6387 N 629.803 4.79456 -2.93391 0
M  V30 6388 H 621.954 1.07495 -1.8319 0
M  V30 6389 H 624.217 0.532661 -0.784204 0
M  V30 6390 H 623.923 2.43731 -2.5355 0
M  V30 6391 H 623.797 3.57437 -1.20494 0
M  V30 6392 H 626.184 2.91418 -0.464731 0
M  V30 6393 H 626.265 1.78924 -1.82811 0
M  V30 6394 H 625.909 3.74334 -3.43273 0
M  V30 6395 H 625.839 4.85411 -2.04166 0
M  V30 6396 H 628.33 3.30703 -1.82877 0
M  V30 6397 H 628.643 6.43805 -4.27475 0
M  V30 6398 H 626.988 5.79376 -3.8386 0
M  V30 6399 H 630.179 4.05494 -2.33864 0
M  V30 6400 H 630.352 5.48283 -3.45383 0
M  V30 6401 N 623.758 0.647228 1.43697 0
M  V30 6402 C 625.174 0.314256 1.56476 0
M  V30 6403 C 625.374 -1.18191 1.63196 0
M  V30 6404 O 624.43 -1.96655 1.58376 0
M  V30 6405 C 625.743 1.02034 2.82859 0
M  V30 6406 C 627.291 1.00002 2.96595 0
M  V30 6407 C 627.766 1.68689 4.25803 0
M  V30 6408 N 629.257 1.65424 4.32654 0
M  V30 6409 C 629.992 2.1545 5.31384 0
M  V30 6410 N 629.488 2.73738 6.36427 0
M  V30 6411 N 631.281 2.05985 5.22998 0
M  V30 6412 H 623.432 1.61821 1.37578 0
M  V30 6413 H 625.695 0.680184 0.660344 0
M  V30 6414 H 625.401 2.07542 2.83935 0
M  V30 6415 H 625.275 0.568146 3.72897 0
M  V30 6416 H 627.662 -0.0466319 2.95063 0
M  V30 6417 H 627.743 1.49086 2.07863 0
M  V30 6418 H 627.387 2.73308 4.28095 0
M  V30 6419 H 627.317 1.17076 5.13421 0
M  V30 6420 H 629.808 1.22884 3.57363 0
M  V30 6421 H 630.121 3.09602 7.08072 0
M  V30 6422 H 628.466 2.77796 6.37067 0
M  V30 6423 H 631.657 1.60157 4.39849 0
M  V30 6424 H 631.83 2.45281 5.99784 0
M  V30 6425 N 625.236 -1.5273 0.388769 0
M  V30 6426 C 626.485 -2.00757 -0.194833 0
M  V30 6427 C 626.798 -1.27951 -1.47946 0
M  V30 6428 O 628.004 -1.66686 -2.14308 0
M  V30 6429 C 626.46 -3.57695 -0.397762 0
M  V30 6430 C 626.068 -4.394 0.873583 0
M  V30 6431 C 627.812 -4.14012 -0.937759 0
M  V30 6432 C 625.719 -5.87938 0.638962 0
M  V30 6433 H 624.649 -0.750101 -0.0765845 0
M  V30 6434 H 627.3 -1.76239 0.511086 0
M  V30 6435 H 625.682 -3.7846 -1.16552 0
M  V30 6436 H 626.856 -4.30403 1.64591 0
M  V30 6437 H 625.171 -3.94301 1.33849 0
M  V30 6438 H 627.768 -5.22645 -1.12899 0
M  V30 6439 H 628.111 -3.7007 -1.90666 0
M  V30 6440 H 628.644 -3.97137 -0.229588 0
M  V30 6441 H 625.383 -6.36202 1.57885 0
M  V30 6442 H 624.903 -5.99726 -0.094443 0
M  V30 6443 H 626.582 -6.46423 0.273299 0
M  V30 6444 N 626.714 -0.118576 -1.57153 0
M  V30 6445 C 628.125 0.40687 -1.82213 0
M  V30 6446 C 628.476 1.66636 -1.03571 0
M  V30 6447 O 627.601 2.14682 -0.272171 0
M  V30 6448 C 628.196 0.744949 -3.30509 0
M  V30 6449 C 626.755 1.21503 -3.5625 0
M  V30 6450 C 625.902 0.223511 -2.76398 0
M  V30 6451 H 628.853 -0.343712 -1.54933 0
M  V30 6452 H 628.874 1.6024 -3.45114 0
M  V30 6453 H 628.386 -0.171911 -3.87719 0
M  V30 6454 H 626.487 2.1488 -3.04396 0
M  V30 6455 H 626.6 1.16065 -4.64829 0
M  V30 6456 H 624.964 0.71046 -2.44591 0
M  V30 6457 H 625.747 -0.686439 -3.36367 0
M  V30 6458 N 628.193 1.56834 0.155195 0
M  V30 6459 C 629.123 2.00678 1.19376 0
M  V30 6460 C 630.104 0.884973 1.45266 0
M  V30 6461 O 631.289 1.1522 1.56326 0
M  V30 6462 C 628.419 2.38042 2.5289 0
M  V30 6463 C 627.373 3.53332 2.41538 0
M  V30 6464 C 626.699 3.76485 3.79688 0
M  V30 6465 C 627.999 4.86265 1.9064 0
M  V30 6466 H 629.693 2.87688 0.829232 0
M  V30 6467 H 627.239 1.38407 0.397445 0
M  V30 6468 H 629.192 2.67314 3.25763 0
M  V30 6469 H 627.916 1.4796 2.91162 0
M  V30 6470 H 626.575 3.24213 1.71117 0
M  V30 6471 H 626.223 2.83667 4.15382 0
M  V30 6472 H 625.923 4.54068 3.72956 0
M  V30 6473 H 627.447 4.08174 4.54122 0
M  V30 6474 H 628.861 5.14308 2.53299 0
M  V30 6475 H 627.258 5.67597 1.94818 0
M  V30 6476 H 628.328 4.77184 0.861596 0
M  V30 6477 N 629.671 -0.424282 1.51781 0
M  V30 6478 C 630.634 -1.49848 1.73431 0
M  V30 6479 C 631.634 -1.49016 0.604225 0
M  V30 6480 O 632.824 -1.50808 0.871935 0
M  V30 6481 C 629.956 -2.89332 1.80277 0
M  V30 6482 H 631.149 -1.3195 2.69312 0
M  V30 6483 H 628.702 -0.653809 1.41968 0
M  V30 6484 H 629.437 -3.12618 0.862568 0
M  V30 6485 H 629.222 -2.9134 2.62419 0
M  V30 6486 H 630.712 -3.67233 1.98821 0
M  V30 6487 N 631.149 -1.42148 -0.680565 0
M  V30 6488 C 632.059 -1.47565 -1.82378 0
M  V30 6489 C 633.075 -0.36489 -1.70131 0
M  V30 6490 O 634.251 -0.614916 -1.91783 0
M  V30 6491 C 631.316 -1.37013 -3.18478 0
M  V30 6492 C 630.377 -2.58532 -3.42724 0
M  V30 6493 C 629.61 -2.48473 -4.72331 0
M  V30 6494 O 629.833 -1.51745 -5.49845 0
M  V30 6495 O 628.767 -3.38503 -4.97694 0
M  V30 6496 H 632.593 -2.44045 -1.80764 0
M  V30 6497 H 630.178 -1.23849 -0.835569 0
M  V30 6498 H 632.06 -1.33468 -3.99705 0
M  V30 6499 H 630.735 -0.436552 -3.20743 0
M  V30 6500 H 629.642 -2.67652 -2.61368 0
M  V30 6501 H 630.975 -3.50769 -3.45286 0
M  V30 6502 N 632.627 0.916307 -1.28225 0
M  V30 6503 C 633.873 1.66794 -1.1641 0
M  V30 6504 C 634.228 1.90278 0.284986 0
M  V30 6505 O 633.521 1.49023 1.20427 0
M  V30 6506 C 633.715 3.03125 -1.8934 0
M  V30 6507 C 633.544 2.92947 -3.41192 0
M  V30 6508 C 632.314 2.9461 -4.10528 0
M  V30 6509 C 634.512 2.7121 -4.36978 0
M  V30 6510 N 632.494 2.74993 -5.48864 0
M  V30 6511 C 633.865 2.60411 -5.6266 0
M  V30 6512 C 635.92 2.56187 -4.26934 0
M  V30 6513 C 634.623 2.3612 -6.79441 0
M  V30 6514 C 636.649 2.33275 -5.43449 0
M  V30 6515 C 636.011 2.23228 -6.68093 0
M  V30 6516 H 632.11 0.616654 -0.480896 0
M  V30 6517 H 634.694 1.08237 -1.61842 0
M  V30 6518 H 632.865 3.59774 -1.46346 0
M  V30 6519 H 634.597 3.67294 -1.69932 0
M  V30 6520 H 631.352 3.0527 -3.62087 0
M  V30 6521 H 631.776 2.68284 -6.21573 0
M  V30 6522 H 636.418 2.62707 -3.31278 0
M  V30 6523 H 634.136 2.28339 -7.75169 0
M  V30 6524 H 637.722 2.22519 -5.37565 0
M  V30 6525 H 636.602 2.05741 -7.5673 0
M  V30 6526 N 634.105 1.10431 1.1244 0
M  V30 6527 C 635.015 0.765502 2.21759 0
M  V30 6528 C 636.031 -0.236966 1.72379 0
M  V30 6529 O 637.207 -0.0757329 2.01258 0
M  V30 6530 C 634.272 0.202316 3.46109 0
M  V30 6531 C 633.333 1.26205 4.1033 0
M  V30 6532 C 632.566 0.725648 5.28744 0
M  V30 6533 O 632.789 -0.447942 5.68638 0
M  V30 6534 O 631.723 1.48555 5.83279 0
M  V30 6535 H 635.549 1.67801 2.53133 0
M  V30 6536 H 633.134 0.879443 1.20773 0
M  V30 6537 H 635.016 -0.107918 4.21262 0
M  V30 6538 H 633.691 -0.683052 3.16411 0
M  V30 6539 H 632.598 1.62514 3.36957 0
M  V30 6540 H 633.931 2.12044 4.44183 0
M  V30 6541 N 635.583 -1.29855 0.893053 0
M  V30 6542 C 636.808 -2.00512 0.530066 0
M  V30 6543 C 637.233 -1.66446 -0.876199 0
M  V30 6544 O 636.591 -0.885446 -1.58207 0
M  V30 6545 C 636.639 -3.53308 0.721505 0
M  V30 6546 O 635.743 -4.11764 -0.228994 0
M  V30 6547 H 635.084 -0.630617 0.207891 0
M  V30 6548 H 637.614 -1.6551 1.20282 0
M  V30 6549 H 637.624 -4.03206 0.623599 0
M  V30 6550 H 636.299 -3.77439 1.74678 0
M  V30 6551 H 634.876 -3.72805 -0.0841034 0
M  V30 6552 N 637.061 -0.65484 -1.43351 0
M  V30 6553 C 638.477 -0.32255 -1.56307 0
M  V30 6554 C 638.677 1.17324 -1.63821 0
M  V30 6555 O 637.733 1.95813 -1.59417 0
M  V30 6556 C 639.046 -1.03533 -2.82314 0
M  V30 6557 C 640.594 -1.01574 -2.9606 0
M  V30 6558 C 641.069 -1.70945 -4.24902 0
M  V30 6559 N 642.56 -1.67716 -4.3177 0
M  V30 6560 C 643.295 -2.18265 -5.30234 0
M  V30 6561 N 642.791 -2.7711 -6.34966 0
M  V30 6562 N 644.584 -2.08756 -5.21898 0
M  V30 6563 H 636.735 -1.62549 -1.36717 0
M  V30 6564 H 638.998 -0.683676 -0.656727 0
M  V30 6565 H 638.704 -2.09045 -2.8283 0
M  V30 6566 H 638.578 -0.587913 -3.7259 0
M  V30 6567 H 640.965 0.0309834 -2.95084 0
M  V30 6568 H 641.046 -1.50186 -2.07069 0
M  V30 6569 H 640.69 -2.75574 -4.26639 0
M  V30 6570 H 640.62 -1.19797 -5.12793 0
M  V30 6571 H 643.111 -1.24777 -3.56706 0
M  V30 6572 H 643.424 -3.13353 -7.06421 0
M  V30 6573 H 641.769 -2.81171 -6.35585 0
M  V30 6574 H 644.96 -1.62488 -4.38994 0
M  V30 6575 H 645.133 -2.48459 -5.98475 0
M  V30 6576 N 638.539 1.52521 -0.396863 0
M  V30 6577 C 639.788 2.00857 0.184184 0
M  V30 6578 C 640.101 1.28733 1.47265 0
M  V30 6579 O 641.307 1.67821 2.13421 0
M  V30 6580 C 639.763 3.57901 0.378787 0
M  V30 6581 C 639.371 4.38931 -0.896873 0
M  V30 6582 C 641.115 4.14504 0.915789 0
M  V30 6583 C 639.022 5.87591 -0.670133 0
M  V30 6584 H 637.952 0.750496 0.0726055 0
M  V30 6585 H 640.603 1.75965 -0.520425 0
M  V30 6586 H 638.985 3.79072 1.14543 0
M  V30 6587 H 640.159 4.29524 -1.66872 0
M  V30 6588 H 638.474 3.93586 -1.35938 0
M  V30 6589 H 641.071 5.23236 1.10126 0
M  V30 6590 H 641.414 3.71076 1.88701 0
M  V30 6591 H 641.947 3.97253 0.208523 0
M  V30 6592 H 638.686 6.35355 -1.61257 0
M  V30 6593 H 638.206 5.99767 0.0626368 0
M  V30 6594 H 639.885 6.46268 -0.307577 0
M  V30 6595 N 640.017 0.126909 1.57088 0
M  V30 6596 C 640.98 -0.806097 2.14557 0
M  V30 6597 C 641.98 -1.18918 1.08236 0
M  V30 6598 O 643.17 -1.11339 1.33975 0
M  V30 6599 C 640.302 -2.09116 2.69227 0
M  V30 6600 H 641.495 -0.306522 2.98329 0
M  V30 6601 H 639.048 -0.122393 1.5582 0
M  V30 6602 H 639.783 -2.63486 1.89065 0
M  V30 6603 H 639.568 -1.82588 3.46993 0
M  V30 6604 H 641.058 -2.75794 3.13572 0
M  V30 6605 N 641.495 -1.56914 -0.146875 0
M  V30 6606 C 642.405 -2.0154 -1.20079 0
M  V30 6607 C 643.421 -0.930838 -1.47008 0
M  V30 6608 O 644.597 -1.24032 -1.58676 0
M  V30 6609 C 641.662 -2.38715 -2.51428 0
M  V30 6610 C 640.723 -3.6112 -2.32145 0
M  V30 6611 C 639.956 -3.96512 -3.57231 0
M  V30 6612 O 640.179 -3.32566 -4.63418 0
M  V30 6613 O 639.113 -4.89758 -3.49887 0
M  V30 6614 H 642.939 -2.91506 -0.851924 0
M  V30 6615 H 640.524 -1.45106 -0.355607 0
M  V30 6616 H 642.406 -2.63485 -3.28867 0
M  V30 6617 H 641.081 -1.51903 -2.85845 0
M  V30 6618 H 639.988 -3.41536 -1.52656 0
M  V30 6619 H 641.321 -4.48549 -2.02644 0
M  V30 6620 N 642.974 0.416227 -1.52004 0
M  V30 6621 C 644.22 1.16555 -1.6596 0
M  V30 6622 C 644.553 1.90347 -0.384906 0
M  V30 6623 O 643.828 1.84474 0.616405 0
M  V30 6624 C 644.111 2.1657 -2.87696 0
M  V30 6625 C 643.964 1.46722 -4.25197 0
M  V30 6626 C 645.283 3.17321 -3.04951 0
M  V30 6627 H 642.402 0.422369 -0.603965 0
M  V30 6628 H 645.044 0.452141 -1.84542 0
M  V30 6629 H 643.194 2.77411 -2.71985 0
M  V30 6630 H 644.866 0.89056 -4.52622 0
M  V30 6631 H 643.109 0.769263 -4.26925 0
M  V30 6632 H 643.78 2.19665 -5.0641 0
M  V30 6633 H 646.256 2.66552 -3.19514 0
M  V30 6634 H 645.132 3.84573 -3.91656 0
M  V30 6635 H 645.393 3.84643 -2.17951 0
M  V30 6636 N 644.452 1.42507 0.673017 0
M  V30 6637 C 645.729 1.33554 1.42908 0
M  V30 6638 C 646.109 -0.0262211 2.11084 0
M  V30 6639 O 645.457 -1.04181 2.03368 0
M  V30 6640 C 645.667 2.50498 2.43006 0
M  V30 6641 C 647.015 2.92694 3.07596 0
M  V30 6642 O 648.039 2.50401 2.53333 0
M  V30 6643 O 646.898 3.65899 4.05931 0
M  V30 6644 H 643.992 0.526785 0.637516 0
M  V30 6645 H 646.538 1.54518 0.701591 0
M  V30 6646 H 645.31 3.41272 1.9144 0
M  V30 6647 H 644.933 2.3153 3.23233 0
M  V30 6648 N 645.93 -0.909495 1.28709 0
M  V30 6649 C 646.893 -1.99399 1.13016 0
M  V30 6650 C 647.893 -1.60654 0.068536 0
M  V30 6651 O 649.083 -1.71334 0.314671 0
M  V30 6652 C 646.215 -3.33078 0.726085 0
M  V30 6653 H 647.408 -2.14751 2.09338 0
M  V30 6654 H 644.961 -1.09272 1.11756 0
M  V30 6655 H 645.696 -3.23428 -0.23771 0
M  V30 6656 H 645.481 -3.62562 1.49302 0
M  V30 6657 H 646.971 -4.12681 0.639058 0
M  V30 6658 N 647.408 -1.11026 -1.11852 0
M  V30 6659 C 648.633 -0.879064 -1.87849 0
M  V30 6660 C 649.058 0.565406 -1.79401 0
M  V30 6661 O 648.416 1.39886 -1.15333 0
M  V30 6662 C 648.464 -1.33985 -3.34784 0
M  V30 6663 O 647.568 -0.508803 -4.09249 0
M  V30 6664 H 646.909 -0.316992 -0.583448 0
M  V30 6665 H 649.439 -1.47863 -1.41413 0
M  V30 6666 H 649.449 -1.33248 -3.85628 0
M  V30 6667 H 648.124 -2.39172 -3.40249 0
M  V30 6668 H 646.701 -0.581913 -3.68332 0
M  V30 6669 N 648.886 1.2938 -0.899927 0
M  V30 6670 C 650.132 1.9584 -0.526742 0
M  V30 6671 C 650.465 1.70774 0.924651 0
M  V30 6672 O 649.74 1.02084 1.65557 0
M  V30 6673 C 650.023 3.50638 -0.820062 0
M  V30 6674 C 649.876 3.85161 -2.32317 0
M  V30 6675 C 651.195 4.3903 -0.30671 0
M  V30 6676 H 648.314 0.711322 -0.192848 0
M  V30 6677 H 650.956 1.52992 -1.12665 0
M  V30 6678 H 649.106 3.87265 -0.309491 0
M  V30 6679 H 650.778 3.58477 -2.9033 0
M  V30 6680 H 649.021 3.32696 -2.78381 0
M  V30 6681 H 649.692 4.93204 -2.47898 0
M  V30 6682 H 652.168 4.09396 -0.743908 0
M  V30 6683 H 651.044 5.46226 -0.541144 0
M  V30 6684 H 651.305 4.34937 0.792588 0
M  V30 6685 N 650.364 0.662433 1.43002 0
M  V30 6686 C 651.61 0.179857 2.02001 0
M  V30 6687 C 651.943 -1.20625 1.52195 0
M  V30 6688 O 651.218 -1.80726 0.718911 0
M  V30 6689 C 651.501 0.200845 3.59539 0
M  V30 6690 C 651.354 1.62153 4.19555 0
M  V30 6691 C 652.673 -0.457738 4.37713 0
M  V30 6692 H 649.792 0.0668305 0.733964 0
M  V30 6693 H 652.434 0.84487 1.70182 0
M  V30 6694 H 650.584 -0.365411 3.86778 0
M  V30 6695 H 652.256 2.23908 4.03315 0
M  V30 6696 H 650.499 2.16601 3.75854 0
M  V30 6697 H 651.17 1.58799 5.28665 0
M  V30 6698 H 653.646 0.0241495 4.16093 0
M  V30 6699 H 652.522 -0.412363 5.47349 0
M  V30 6700 H 652.783 -1.53336 4.14657 0
M  V30 6701 N 651.842 -1.52309 0.404946 0
M  V30 6702 C 653.258 -1.59503 0.0556255 0
M  V30 6703 C 653.458 -1.41805 -1.43156 0
M  V30 6704 O 652.514 -1.2429 -2.19792 0
M  V30 6705 C 653.827 -2.95687 0.546801 0
M  V30 6706 C 655.375 -3.08909 0.504413 0
M  V30 6707 C 655.85 -4.47566 0.97203 0
M  V30 6708 N 657.341 -4.53795 0.928679 0
M  V30 6709 C 658.076 -5.59346 1.26174 0
M  V30 6710 N 657.572 -6.72469 1.66604 0
M  V30 6711 N 659.365 -5.49532 1.18198 0
M  V30 6712 H 651.516 -1.6206 1.37296 0
M  V30 6713 H 653.779 -0.762161 0.563751 0
M  V30 6714 H 653.485 -3.13905 1.58609 0
M  V30 6715 H 653.359 -3.77172 -0.0457905 0
M  V30 6716 H 655.746 -2.90378 -0.525819 0
M  V30 6717 H 655.827 -2.2934 1.13301 0
M  V30 6718 H 655.471 -4.6684 2.00057 0
M  V30 6719 H 655.401 -5.25625 0.320292 0
M  V30 6720 H 657.892 -3.72588 0.631369 0
M  V30 6721 H 658.205 -7.48993 1.9034 0
M  V30 6722 H 656.55 -6.73761 1.70504 0
M  V30 6723 H 659.741 -4.60038 0.865011 0
M  V30 6724 H 659.914 -6.31687 1.44485 0
M  V30 6725 N 653.32 -0.135238 -1.57019 0
M  V30 6726 C 654.23 0.822226 -2.19719 0
M  V30 6727 C 655.246 1.28057 -1.17802 0
M  V30 6728 O 656.422 1.3402 -1.50335 0
M  V30 6729 C 653.487 2.0484 -2.79717 0
M  V30 6730 C 652.548 1.64042 -3.96723 0
M  V30 6731 C 651.781 2.80814 -4.53849 0
M  V30 6732 O 652.004 3.967 -4.0986 0
M  V30 6733 O 650.938 2.56963 -5.44292 0
M  V30 6734 H 654.764 0.318552 -3.02025 0
M  V30 6735 H 652.349 0.0912021 -1.49121 0
M  V30 6736 H 654.231 2.76622 -3.17897 0
M  V30 6737 H 652.906 2.54182 -2.00432 0
M  V30 6738 H 651.813 0.893182 -3.63281 0
M  V30 6739 H 653.146 1.19426 -4.77492 0
M  V30 6740 N 654.798 1.5699 0.138552 0
M  V30 6741 C 656.047 1.82998 0.848205 0
M  V30 6742 C 656.36 0.717829 1.81952 0
M  V30 6743 O 657.566 0.863756 2.57394 0
M  V30 6744 C 656.022 3.24379 1.55904 0
M  V30 6745 C 655.63 4.43552 0.62971 0
M  V30 6746 C 657.374 3.59654 2.25498 0
M  V30 6747 C 655.281 5.75957 1.34266 0
M  V30 6748 H 654.211 0.682495 0.320495 0
M  V30 6749 H 656.862 1.83222 0.100924 0
M  V30 6750 H 655.244 3.18567 2.35226 0
M  V30 6751 H 656.418 4.6062 -0.128882 0
M  V30 6752 H 654.733 4.16379 0.0417526 0
M  V30 6753 H 657.33 4.55837 2.79493 0
M  V30 6754 H 657.673 2.86124 3.02388 0
M  V30 6755 H 658.206 3.67164 1.53087 0
M  V30 6756 H 654.945 6.52604 0.615441 0
M  V30 6757 H 654.465 5.62811 2.07375 0
M  V30 6758 H 656.144 6.19046 1.88126 0
M  V30 6759 N 656.276 -0.40816 1.52223 0
M  V30 6760 C 657.516 -1.16418 1.68006 0
M  V30 6761 C 657.88 -1.87749 0.401793 0
M  V30 6762 O 659.081 -2.65245 0.435743 0
M  V30 6763 C 657.352 -2.13143 2.86889 0
M  V30 6764 S 658.911 -2.96839 3.2316 0
M  V30 6765 H 655.729 -0.394373 0.5916 0
M  V30 6766 H 658.331 -0.451349 1.90219 0
M  V30 6767 H 657.035 -1.59428 3.78168 0
M  V30 6768 H 656.566 -2.88963 2.66953 0
M  V30 6769 H 658.581 -4.151 2.71857 0
M  V30 6770 N 657.755 -1.42862 -0.66545 0
M  V30 6771 C 658.98 -1.47456 -1.45848 0
M  V30 6772 C 659.405 -0.0900312 -1.87884 0
M  V30 6773 O 658.763 0.913587 -1.56599 0
M  V30 6774 C 658.811 -2.41514 -2.67774 0
M  V30 6775 O 657.915 -1.89296 -3.66389 0
M  V30 6776 H 657.256 -0.499236 -0.437789 0
M  V30 6777 H 659.786 -1.8765 -0.815394 0
M  V30 6778 H 659.796 -2.58409 -3.15735 0
M  V30 6779 H 658.471 -3.42099 -2.36519 0
M  V30 6780 H 657.048 -1.82003 -3.25468 0
M  V30 6781 N 659.233 0.902656 -1.29189 0
M  V30 6782 C 660.18 2.00643 -1.14066 0
M  V30 6783 C 661.15 1.66064 -0.0347756 0
M  V30 6784 O 662.335 1.8973 -0.201752 0
M  V30 6785 C 659.475 3.35214 -0.820104 0
M  V30 6786 C 658.588 3.82594 -2.00614 0
M  V30 6787 C 657.723 5.05727 -1.62522 0
M  V30 6788 C 656.762 5.45469 -2.77724 0
M  V30 6789 N 655.899 6.59789 -2.40048 0
M  V30 6790 H 660.739 2.1291 -2.08502 0
M  V30 6791 H 658.276 1.04271 -1.03759 0
M  V30 6792 H 660.234 4.12643 -0.614949 0
M  V30 6793 H 658.864 3.22682 0.0873452 0
M  V30 6794 H 657.916 3.01226 -2.32308 0
M  V30 6795 H 659.228 4.07999 -2.86946 0
M  V30 6796 H 658.382 5.90732 -1.38277 0
M  V30 6797 H 657.121 4.82155 -0.733333 0
M  V30 6798 H 656.126 4.59 -3.02653 0
M  V30 6799 H 657.351 5.71024 -3.67572 0
M  V30 6800 H 655.297 6.37826 -1.53343 0
M  V30 6801 H 655.214 6.84975 -3.19914 0
M  V30 6802 H 656.482 7.4807 -2.19116 0
M  V30 6803 N 660.711 1.11618 1.11262 0
M  V30 6804 C 661.941 0.88745 1.86569 0
M  V30 6805 C 662.349 -0.56636 1.80524 0
M  V30 6806 O 661.692 -1.40289 1.18594 0
M  V30 6807 C 661.754 1.27313 3.36202 0
M  V30 6808 C 661.418 2.73649 3.66013 0
M  V30 6809 C 662.415 3.71863 3.63337 0
M  V30 6810 C 660.1 3.10342 3.9496 0
M  V30 6811 C 662.094 5.04788 3.89188 0
M  V30 6812 C 659.781 4.43451 4.20469 0
M  V30 6813 C 660.779 5.40484 4.17572 0
M  V30 6814 O 660.467 6.71195 4.42439 0
M  V30 6815 H 660.199 0.317543 0.596777 0
M  V30 6816 H 662.753 1.48768 1.41624 0
M  V30 6817 H 660.983 0.616062 3.81761 0
M  V30 6818 H 662.672 1.01991 3.92877 0
M  V30 6819 H 663.438 3.44861 3.41022 0
M  V30 6820 H 659.317 2.35431 3.9635 0
M  V30 6821 H 662.861 5.80516 3.86842 0
M  V30 6822 H 658.758 4.70187 4.42261 0
M  V30 6823 H 659.526 6.77012 4.59997 0
M  V30 6824 N 662.189 -1.289 0.906776 0
M  V30 6825 C 663.438 -1.9455 0.532262 0
M  V30 6826 C 663.751 -1.72219 -0.927353 0
M  V30 6827 O 664.957 -2.32033 -1.40971 0
M  V30 6828 C 663.413 -3.48438 0.901041 0
M  V30 6829 C 663.021 -3.79558 2.37991 0
M  V30 6830 C 664.765 -4.20284 0.596777 0
M  V30 6831 C 662.672 -5.26723 2.68918 0
M  V30 6832 H 661.602 -0.728259 0.195333 0
M  V30 6833 H 664.253 -1.46519 1.10474 0
M  V30 6834 H 662.635 -3.95162 0.257419 0
M  V30 6835 H 663.809 -3.43668 3.06967 0
M  V30 6836 H 662.124 -3.20868 2.65391 0
M  V30 6837 H 664.721 -5.28612 0.8046 0
M  V30 6838 H 665.064 -4.13694 -0.465072 0
M  V30 6839 H 665.597 -3.79315 1.19855 0
M  V30 6840 H 662.336 -5.38384 3.73928 0
M  V30 6841 H 661.856 -5.63836 2.04571 0
M  V30 6842 H 663.535 -5.94391 2.55555 0
M  V30 6843 N 663.667 -0.670007 -1.42649 0
M  V30 6844 C 664.897 -0.198252 -2.05647 0
M  V30 6845 C 665.305 1.14786 -1.50402 0
M  V30 6846 O 664.648 1.72316 -0.636634 0
M  V30 6847 C 664.71 -0.0507132 -3.59464 0
M  V30 6848 C 664.374 -1.32478 -4.37377 0
M  V30 6849 C 665.371 -2.2572 -4.68344 0
M  V30 6850 C 663.056 -1.57104 -4.77099 0
M  V30 6851 C 665.05 -3.4187 -5.37963 0
M  V30 6852 C 662.737 -2.73543 -5.46459 0
M  V30 6853 C 663.735 -3.65751 -5.76815 0
M  V30 6854 O 663.423 -4.80154 -6.44753 0
M  V30 6855 H 663.155 -0.0950721 -0.669281 0
M  V30 6856 H 665.709 -0.915745 -1.83857 0
M  V30 6857 H 663.939 0.722314 -3.79894 0
M  V30 6858 H 665.628 0.380552 -4.04112 0
M  V30 6859 H 666.394 -2.07943 -4.38161 0
M  V30 6860 H 662.273 -0.862069 -4.52868 0
M  V30 6861 H 665.817 -4.13861 -5.61574 0
M  V30 6862 H 661.714 -2.91248 -5.7606 0
M  V30 6863 H 662.482 -4.79637 -6.63243 0
M  V30 6864 N 665.145 1.52092 -0.413018 0
M  V30 6865 C 666.422 1.94356 0.22024 0
M  V30 6866 C 666.802 1.35017 1.62277 0
M  V30 6867 O 666.15 0.527511 2.22328 0
M  V30 6868 C 666.36 3.48289 0.222638 0
M  V30 6869 C 667.708 4.22313 0.440098 0
M  V30 6870 O 668.732 3.54919 0.301826 0
M  V30 6871 O 667.591 5.41829 0.712984 0
M  V30 6872 H 664.685 0.814536 0.14304 0
M  V30 6873 H 667.231 1.63083 -0.469242 0
M  V30 6874 H 666.003 3.83872 -0.758836 0
M  V30 6875 H 665.626 3.85934 0.956057 0
M  V30 6876 N 666.623 0.143563 1.56945 0
M  V30 6877 C 667.555 -0.828353 2.13708 0
M  V30 6878 C 668.568 -1.21313 1.08568 0
M  V30 6879 O 669.757 -1.1578 1.35857 0
M  V30 6880 C 666.857 -2.12248 2.64204 0
M  V30 6881 C 666.03 -1.90561 3.93707 0
M  V30 6882 C 665.089 -3.03931 4.29549 0
M  V30 6883 O 664.115 -2.75772 4.97934 0
M  V30 6884 N 665.317 -4.31016 3.88852 0
M  V30 6885 H 668.082 -0.343242 2.97728 0
M  V30 6886 H 665.643 -0.0401152 1.6185 0
M  V30 6887 H 667.635 -2.87132 2.85197 0
M  V30 6888 H 666.205 -2.52033 1.84928 0
M  V30 6889 H 665.425 -0.997327 3.81375 0
M  V30 6890 H 666.713 -1.73405 4.78339 0
M  V30 6891 H 666.111 -4.56762 3.33743 0
M  V30 6892 H 664.668 -5.02691 4.14903 0
M  V30 6893 N 668.101 -1.57061 -0.130224 0
M  V30 6894 C 669.341 -1.86071 -0.845993 0
M  V30 6895 C 669.705 -0.73009 -1.77577 0
M  V30 6896 O 670.906 -0.901663 -2.53226 0
M  V30 6897 C 669.177 -3.20293 -1.58579 0
M  V30 6898 S 670.736 -3.70905 -2.34467 0
M  V30 6899 H 667.554 -0.652434 -0.282579 0
M  V30 6900 H 670.156 -1.95218 -0.10498 0
M  V30 6901 H 668.86 -4.00533 -0.894509 0
M  V30 6902 H 668.391 -3.14195 -2.36739 0
M  V30 6903 H 670.406 -3.41509 -3.59981 0
M  V30 6904 N 669.579 0.400081 -1.52437 0
M  V30 6905 C 670.99 0.97851 -1.59003 0
M  V30 6906 C 671.341 1.91293 -0.436068 0
M  V30 6907 O 670.466 2.1183 0.442365 0
M  V30 6908 C 671.061 1.78145 -2.88184 0
M  V30 6909 C 669.62 2.30976 -2.97199 0
M  V30 6910 C 668.767 1.11212 -2.54022 0
M  V30 6911 H 671.718 0.180002 -1.57676 0
M  V30 6912 H 671.739 2.63968 -2.74046 0
M  V30 6913 H 671.251 1.1011 -3.72152 0
M  V30 6914 H 669.352 3.02355 -2.17744 0
M  V30 6915 H 669.465 2.61221 -4.01622 0
M  V30 6916 H 667.829 1.46882 -2.08081 0
M  V30 6917 H 668.612 0.447307 -3.40373 0
M  V30 6918 N 671.057 1.43213 0.657864 0
M  V30 6919 C 672.02 1.47687 1.75275 0
M  V30 6920 C 673.02 0.362179 1.56668 0
M  V30 6921 O 674.21 0.623734 1.62651 0
M  V30 6922 C 671.342 1.32497 3.14098 0
M  V30 6923 H 672.535 2.4519 1.7269 0
M  V30 6924 H 670.088 1.2991 0.869087 0
M  V30 6925 H 670.823 0.359831 3.22298 0
M  V30 6926 H 670.608 2.13299 3.29008 0
M  V30 6927 H 672.098 1.38549 3.93946 0
M  V30 6928 N 672.536 -0.895792 1.29666 0
M  V30 6929 C 673.782 -1.64908 1.18039 0
M  V30 6930 C 674.115 -1.9236 -0.266682 0
M  V30 6931 O 673.39 -1.53682 -1.19214 0
M  V30 6932 C 673.673 -2.99574 1.99819 0
M  V30 6933 C 673.526 -2.79163 3.52687 0
M  V30 6934 C 674.845 -4.00358 1.82761 0
M  V30 6935 H 671.964 -0.598437 0.430165 0
M  V30 6936 H 674.606 -1.03736 1.59182 0
M  V30 6937 H 672.756 -3.51786 1.64859 0
M  V30 6938 H 674.428 -2.33821 3.9765 0
M  V30 6939 H 672.671 -2.13871 3.77414 0
M  V30 6940 H 673.342 -3.74871 4.05186 0
M  V30 6941 H 675.818 -3.57268 2.13304 0
M  V30 6942 H 674.694 -4.92514 2.42325 0
M  V30 6943 H 674.955 -4.35096 0.783839 0
M  V30 6944 N 674.014 -1.12206 -1.10668 0
M  V30 6945 C 674.977 -0.790867 -2.15123 0
M  V30 6946 C 675.977 0.193618 -1.5963 0
M  V30 6947 O 677.167 -0.0318728 -1.74171 0
M  V30 6948 C 674.299 -0.174797 -3.40452 0
M  V30 6949 H 675.492 -1.7163 -2.45933 0
M  V30 6950 H 673.045 -0.924993 -1.2599 0
M  V30 6951 H 673.78 0.760478 -3.15257 0
M  V30 6952 H 673.565 -0.88358 -3.82015 0
M  V30 6953 H 675.055 0.0405162 -4.1758 0
M  V30 6954 N 675.492 1.28418 -0.913599 0
M  V30 6955 C 676.74 1.94596 -0.545594 0
M  V30 6956 C 677.061 1.7227 0.913668 0
M  V30 6957 O 676.331 1.06233 1.64595 0
M  V30 6958 H 674.911 0.720065 -0.198783 0
M  V30 6959 H 677.573 1.56404 -1.16292 0
M  V30 6960 H 676.669 3.03202 -0.739911 0
M  V30 6961 N 676.97 0.677563 1.42291 0
M  V30 6962 C 678.2 0.209155 2.05539 0
M  V30 6963 C 678.608 -1.13987 1.51009 0
M  V30 6964 O 677.951 -1.71976 0.645764 0
M  V30 6965 C 678.013 0.0697758 3.59432 0
M  V30 6966 C 677.677 1.34795 4.36668 0
M  V30 6967 C 678.674 2.28201 4.67141 0
M  V30 6968 C 676.359 1.59632 4.76259 0
M  V30 6969 C 678.353 3.44718 5.36142 0
M  V30 6970 C 676.04 2.76437 5.45 0
M  V30 6971 C 677.038 3.68805 5.74867 0
M  V30 6972 O 676.726 4.83567 6.42198 0
M  V30 6973 H 676.458 0.0986202 0.668768 0
M  V30 6974 H 679.012 0.925483 1.83368 0
M  V30 6975 H 677.242 -0.702157 3.80272 0
M  V30 6976 H 678.931 -0.359115 4.04308 0
M  V30 6977 H 679.697 2.10264 4.37052 0
M  V30 6978 H 675.576 0.886073 4.52404 0
M  V30 6979 H 679.12 4.16833 5.59371 0
M  V30 6980 H 675.017 2.94299 5.74507 0
M  V30 6981 H 675.785 4.83147 6.6069 0
M  V30 6982 N 678.448 -1.51871 0.421078 0
M  V30 6983 C 679.696 -2.01539 -0.150492 0
M  V30 6984 C 680.017 -1.30803 -1.44623 0
M  V30 6985 O 679.287 -0.437568 -1.90951 0
M  V30 6986 H 677.867 -0.744698 -0.0586041 0
M  V30 6987 H 680.529 -1.8668 0.560059 0
M  V30 6988 H 679.625 -3.10264 -0.338068 0
M  V30 6989 N 679.926 -0.151884 -1.56866 0
M  V30 6990 C 681.337 0.368128 -1.83035 0
M  V30 6991 C 681.688 1.64402 -1.07082 0
M  V30 6992 O 680.813 2.14056 -0.317647 0
M  V30 6993 C 681.408 0.674676 -3.32014 0
M  V30 6994 C 679.967 1.13919 -3.58747 0
M  V30 6995 C 679.114 0.164833 -2.7681 0
M  V30 6996 H 682.065 -0.376499 -1.54169 0
M  V30 6997 H 682.086 1.52883 -3.48435 0
M  V30 6998 H 681.598 -0.254113 -3.87267 0
M  V30 6999 H 679.699 2.08375 -3.08886 0
M  V30 7000 H 679.812 1.06179 -4.67186 0
M  V30 7001 H 678.176 0.658419 -2.46043 0
M  V30 7002 H 678.959 -0.757633 -3.34836 0
M  V30 7003 N 681.404 1.57128 0.121893 0
M  V30 7004 C 682.653 1.83888 0.828748 0
M  V30 7005 C 682.966 0.737087 1.81181 0
M  V30 7006 O 684.172 0.891007 2.56463 0
M  V30 7007 C 682.628 3.26014 1.52455 0
M  V30 7008 C 682.236 4.44195 0.58263 0
M  V30 7009 C 683.98 3.62025 2.21671 0
M  V30 7010 C 681.887 5.77349 1.28149 0
M  V30 7011 H 680.817 0.685856 0.313238 0
M  V30 7012 H 683.468 1.83319 0.0814851 0
M  V30 7013 H 681.85 3.21044 2.31834 0
M  V30 7014 H 683.024 4.60457 -0.177729 0
M  V30 7015 H 681.339 4.164 -0.00241228 0
M  V30 7016 H 683.936 4.58776 2.74643 0
M  V30 7017 H 684.279 2.89315 2.99337 0
M  V30 7018 H 684.812 3.68767 1.49184 0
M  V30 7019 H 681.551 6.53221 0.546189 0
M  V30 7020 H 681.071 5.64978 2.01394 0
M  V30 7021 H 682.75 6.21006 1.81549 0
M  V30 7022 N 682.882 -0.391992 1.52647 0
M  V30 7023 C 683.792 -1.503 1.80131 0
M  V30 7024 C 684.808 -1.59825 0.687882 0
M  V30 7025 O 685.984 -1.76218 0.975149 0
M  V30 7026 C 683.049 -2.85863 1.96171 0
M  V30 7027 C 682.11 -2.86084 3.20085 0
M  V30 7028 C 681.343 -4.15181 3.35351 0
M  V30 7029 O 681.566 -5.09981 2.55491 0
M  V30 7030 O 680.5 -4.22603 4.28591 0
M  V30 7031 H 684.326 -1.30007 2.74466 0
M  V30 7032 H 681.911 -0.579539 1.37701 0
M  V30 7033 H 683.793 -3.66236 2.08445 0
M  V30 7034 H 682.468 -3.06189 1.05025 0
M  V30 7035 H 681.375 -2.04504 3.13256 0
M  V30 7036 H 682.708 -2.7071 4.11068 0
M  V30 7037 N 684.36 -1.4356 -0.65026 0
M  V30 7038 C 685.292 -1.44918 -1.77571 0
M  V30 7039 C 686.305 -0.344925 -1.59104 0
M  V30 7040 O 687.494 -0.609537 -1.6777 0
M  V30 7041 C 684.594 -1.24914 -3.15039 0
M  V30 7042 C 683.767 -2.48232 -3.60138 0
M  V30 7043 C 682.826 -2.23409 -4.76419 0
M  V30 7044 O 681.852 -2.9678 -4.85706 0
M  V30 7045 N 683.054 -1.25259 -5.66825 0
M  V30 7046 H 685.819 -2.41935 -1.76883 0
M  V30 7047 H 683.38 -1.38754 -0.834202 0
M  V30 7048 H 685.372 -1.06185 -3.90521 0
M  V30 7049 H 683.942 -0.363319 -3.10481 0
M  V30 7050 H 683.162 -2.82366 -2.75069 0
M  V30 7051 H 684.45 -3.30296 -3.87017 0
M  V30 7052 H 683.848 -0.646246 -5.61997 0
M  V30 7053 H 682.405 -1.12513 -6.42016 0
M  V30 7054 N 685.838 0.888903 -1.30139 0
M  V30 7055 C 686.768 2.01046 -1.18755 0
M  V30 7056 C 687.749 1.69916 -0.0791438 0
M  V30 7057 O 688.934 1.92445 -0.260498 0
M  V30 7058 C 686.064 3.36109 -0.874518 0
M  V30 7059 C 685.018 3.81486 -1.94043 0
M  V30 7060 C 684.344 5.13796 -1.48047 0
M  V30 7061 C 685.644 4.00637 -3.35093 0
M  V30 7062 H 687.338 2.10828 -2.12584 0
M  V30 7063 H 684.884 1.01298 -1.02346 0
M  V30 7064 H 686.837 4.14089 -0.781548 0
M  V30 7065 H 685.561 3.26449 0.0994519 0
M  V30 7066 H 684.22 3.05731 -2.02297 0
M  V30 7067 H 683.868 5.0056 -0.494878 0
M  V30 7068 H 683.568 5.45127 -2.19341 0
M  V30 7069 H 685.092 5.94305 -1.40121 0
M  V30 7070 H 686.506 4.69067 -3.2962 0
M  V30 7071 H 684.903 4.43339 -4.04438 0
M  V30 7072 H 685.973 3.0462 -3.77273 0
M  V30 7073 N 687.317 1.12792 1.10072 0
M  V30 7074 C 688.728 0.899346 1.63611 0
M  V30 7075 C 689.079 -0.565547 1.87872 0
M  V30 7076 O 688.204 -1.43081 1.62348 0
M  V30 7077 C 688.799 1.62608 2.97227 0
M  V30 7078 C 687.358 1.44356 3.47618 0
M  V30 7079 C 686.505 1.65958 2.22156 0
M  V30 7080 H 689.456 1.28216 0.935223 0
M  V30 7081 H 689.477 1.0793 3.64872 0
M  V30 7082 H 688.989 2.69221 2.79538 0
M  V30 7083 H 687.09 0.400148 3.70445 0
M  V30 7084 H 687.203 2.20218 4.25489 0
M  V30 7085 H 685.567 1.08395 2.30484 0
M  V30 7086 H 686.35 2.73877 2.06993 0
M  V30 7087 N 688.795 -1.27931 0.920396 0
M  V30 7088 C 690.072 -1.89728 0.475687 0
M  V30 7089 C 690.452 -1.8337 -1.04588 0
M  V30 7090 O 689.8 -1.27404 -1.89685 0
M  V30 7091 C 690.01 -3.33959 1.01354 0
M  V30 7092 C 691.358 -4.10907 1.06963 0
M  V30 7093 O 692.382 -3.42945 0.962646 0
M  V30 7094 O 691.241 -5.32399 1.23343 0
M  V30 7095 H 688.335 -0.81294 0.151845 0
M  V30 7096 H 690.881 -1.36252 1.01161 0
M  V30 7097 H 689.653 -3.32843 2.05746 0
M  V30 7098 H 689.276 -3.94944 0.458829 0
M  V30 7099 N 690.273 -0.685099 -1.4193 0
M  V30 7100 C 691.503 -0.220052 -2.05425 0
M  V30 7101 C 691.911 1.13185 -1.51611 0
M  V30 7102 O 691.254 1.71631 -0.654875 0
M  V30 7103 C 691.316 -0.0888364 -3.5939 0
M  V30 7104 C 690.98 -1.37109 -4.35947 0
M  V30 7105 C 691.977 -2.30675 -4.65924 0
M  V30 7106 C 689.662 -1.62155 -4.75406 0
M  V30 7107 C 691.656 -3.47556 -5.34306 0
M  V30 7108 C 689.343 -2.79324 -5.43527 0
M  V30 7109 C 690.341 -3.71848 -5.72903 0
M  V30 7110 O 690.029 -4.86966 -6.39624 0
M  V30 7111 H 689.761 -0.102165 -0.668235 0
M  V30 7112 H 692.315 -0.935194 -1.82875 0
M  V30 7113 H 690.545 0.681981 -3.80639 0
M  V30 7114 H 692.234 0.337669 -4.04493 0
M  V30 7115 H 693 -2.12579 -4.3593 0
M  V30 7116 H 688.879 -0.910053 -4.51928 0
M  V30 7117 H 692.423 -4.19794 -5.57153 0
M  V30 7118 H 688.32 -2.97342 -5.72938 0
M  V30 7119 H 689.088 -4.86644 -6.58118 0
M  V30 7120 N 691.751 1.51645 -0.429126 0
M  V30 7121 C 692.699 2.29119 0.400921 0
M  V30 7122 C 693.693 1.34628 1.02819 0
M  V30 7123 O 694.899 1.52004 0.964098 0
M  V30 7124 H 691.274 0.737273 0.148095 0
M  V30 7125 H 693.245 2.97144 -0.273457 0
M  V30 7126 C 691.994 3.13953 1.49429 0
M  V30 7127 H 691.317 3.86544 1.02097 0
M  V30 7128 H 692.757 3.71232 2.04849 0
M  V30 7129 C 691.216 2.28796 2.47293 0
M  V30 7130 O 691.746 1.94193 3.51642 0
M  V30 7131 N 689.952 1.92177 2.17982 0
M  V30 7132 H 689.499 2.20517 1.33154 0
M  V30 7133 H 689.457 1.35497 2.83704 0
M  V30 7134 N 693.229 0.160201 1.56784 0
M  V30 7135 C 694.645 -0.196089 1.58391 0
M  V30 7136 C 694.845 -1.63689 1.17508 0
M  V30 7137 O 693.901 -2.36613 0.881506 0
M  V30 7138 C 695.214 0.0746449 3.00607 0
M  V30 7139 C 696.762 0.0119762 3.12998 0
M  V30 7140 C 697.237 0.255551 4.57286 0
M  V30 7141 N 698.728 0.202938 4.62755 0
M  V30 7142 C 699.463 0.365731 5.72232 0
M  V30 7143 N 698.959 0.586972 6.90309 0
M  V30 7144 N 700.752 0.302411 5.61286 0
M  V30 7145 H 692.903 1.1008 1.81648 0
M  V30 7146 H 695.166 0.436779 0.841384 0
M  V30 7147 H 694.872 1.07231 3.34954 0
M  V30 7148 H 694.746 -0.638802 3.71751 0
M  V30 7149 H 697.133 -0.976254 2.78484 0
M  V30 7150 H 697.214 0.75796 2.44313 0
M  V30 7151 H 696.858 1.24094 4.92507 0
M  V30 7152 H 696.788 -0.510912 5.24116 0
M  V30 7153 H 699.279 0.0371328 3.77882 0
M  V30 7154 H 699.592 0.700941 7.69615 0
M  V30 7155 H 697.937 0.623453 6.92198 0
M  V30 7156 H 701.128 0.130238 4.67919 0
M  V30 7157 H 701.301 0.432712 6.46554 0
M  V30 7158 N 694.707 -1.5719 -0.113559 0
M  V30 7159 C 695.956 -1.84325 -0.818984 0
M  V30 7160 C 696.269 -0.746685 -1.80787 0
M  V30 7161 O 697.475 -0.904596 -2.55987 0
M  V30 7162 C 695.931 -3.26818 -1.50724 0
M  V30 7163 C 695.539 -4.44498 -0.559065 0
M  V30 7164 C 697.283 -3.63196 -2.19748 0
M  V30 7165 C 695.19 -5.7802 -1.25086 0
M  V30 7166 H 694.12 -0.687507 -0.309596 0
M  V30 7167 H 696.771 -1.8336 -0.0717621 0
M  V30 7168 H 695.153 -3.22269 -2.30128 0
M  V30 7169 H 696.327 -4.60356 0.202146 0
M  V30 7170 H 694.642 -4.16393 0.024495 0
M  V30 7171 H 697.239 -4.60226 -2.72206 0
M  V30 7172 H 697.582 -2.90899 -2.97798 0
M  V30 7173 H 698.115 -3.69553 -1.47226 0
M  V30 7174 H 694.854 -6.53501 -0.511539 0
M  V30 7175 H 694.374 -5.66038 -1.98395 0
M  V30 7176 H 696.053 -6.2196 -1.78253 0
M  V30 7177 N 696.185 0.383891 -1.52853 0
M  V30 7178 C 697.601 0.724316 -1.42218 0
M  V30 7179 C 697.801 1.93943 -0.546654 0
M  V30 7180 O 696.857 2.5249 -0.0220562 0
M  V30 7181 C 698.17 0.954635 -2.85144 0
M  V30 7182 C 699.718 1.05579 -2.94656 0
M  V30 7183 C 700.193 1.3187 -4.38605 0
M  V30 7184 N 701.684 1.38681 -4.41952 0
M  V30 7185 C 702.419 1.60699 -5.50421 0
M  V30 7186 N 701.915 1.80154 -6.68967 0
M  V30 7187 N 703.708 1.6292 -5.37972 0
M  V30 7188 H 695.859 -0.4156 -2.08294 0
M  V30 7189 H 698.122 -0.123776 -0.939885 0
M  V30 7190 H 697.828 0.133829 -3.51445 0
M  V30 7191 H 697.702 1.86788 -3.27704 0
M  V30 7192 H 700.089 1.86716 -2.2852 0
M  V30 7193 H 700.17 0.120338 -2.55517 0
M  V30 7194 H 699.814 0.512416 -5.05309 0
M  V30 7195 H 699.744 2.26708 -4.75301 0
M  V30 7196 H 702.235 1.25334 -3.56511 0
M  V30 7197 H 702.548 1.96476 -7.47407 0
M  V30 7198 H 700.893 1.77368 -6.71986 0
M  V30 7199 H 704.084 1.47276 -4.44328 0
M  V30 7200 H 704.257 1.79739 -6.22574 0
M  V30 7201 N 697.663 1.43903 0.642637 0
M  V30 7202 C 698.888 1.49758 1.43483 0
M  V30 7203 C 699.313 0.119911 1.87717 0
M  V30 7204 O 698.671 -0.888558 1.58033 0
M  V30 7205 C 698.719 2.45744 2.63898 0
M  V30 7206 O 697.823 1.95101 3.63331 0
M  V30 7207 H 697.164 0.506138 0.429791 0
M  V30 7208 H 699.694 1.88923 0.785438 0
M  V30 7209 H 699.704 2.63399 3.11584 0
M  V30 7210 H 698.379 3.45818 2.31046 0
M  V30 7211 H 696.956 1.87158 3.22531 0
M  V30 7212 N 699.141 -0.881989 1.30609 0
M  V30 7213 C 700.389 -1.63082 1.19368 0
M  V30 7214 C 700.71 -1.93376 -0.251147 0
M  V30 7215 O 699.98 -1.5723 -1.16857 0
M  V30 7216 H 698.56 -0.604542 0.438791 0
M  V30 7217 H 701.222 -1.05658 1.63776 0
M  V30 7218 H 700.318 -2.57966 1.7567 0
M  V30 7219 N 700.619 -1.13374 -1.09472 0
M  V30 7220 C 701.552 -0.754354 -2.15371 0
M  V30 7221 C 702.53 0.259205 -1.60521 0
M  V30 7222 O 703.714 0.150819 -1.87896 0
M  V30 7223 C 700.841 -0.118197 -3.38494 0
M  V30 7224 C 699.887 -1.10017 -4.12066 0
M  V30 7225 S 700.72 -2.63242 -4.6633 0
M  V30 7226 C 701.876 -2.00984 -5.92753 0
M  V30 7227 H 702.109 -1.65135 -2.4722 0
M  V30 7228 H 699.642 -0.953838 -1.21414 0
M  V30 7229 H 701.6 0.242447 -4.09783 0
M  V30 7230 H 700.261 0.756065 -3.04865 0
M  V30 7231 H 699.454 -0.60287 -5.00381 0
M  V30 7232 H 699.056 -1.40426 -3.46636 0
M  V30 7233 H 701.348 -1.35863 -6.63738 0
M  V30 7234 H 702.291 -2.8738 -6.47162 0
M  V30 7235 H 702.699 -1.46161 -5.4525 0
M  V30 7236 N 702.098 1.27442 -0.927168 0
M  V30 7237 C 703.345 1.94391 -0.567324 0
M  V30 7238 C 703.673 1.72875 0.891321 0
M  V30 7239 O 702.928 1.05071 1.65102 0
M  V30 7240 C 703.227 3.47413 -0.838994 0
M  V30 7241 C 702.893 3.89049 -2.2793 0
M  V30 7242 C 701.555 4.00127 -2.67305 0
M  V30 7243 C 703.907 4.10154 -3.21595 0
M  V30 7244 C 701.235 4.29697 -3.99471 0
M  V30 7245 C 703.587 4.41208 -4.53341 0
M  V30 7246 C 702.251 4.50499 -4.92551 0
M  V30 7247 H 701.521 0.711325 -0.207598 0
M  V30 7248 H 704.168 1.51523 -1.17103 0
M  V30 7249 H 702.473 3.91503 -0.152609 0
M  V30 7250 H 704.17 3.97354 -0.53955 0
M  V30 7251 H 700.76 3.80962 -1.96381 0
M  V30 7252 H 704.944 4.01036 -2.92377 0
M  V30 7253 H 700.2 4.35099 -4.29533 0
M  V30 7254 H 704.374 4.56486 -5.25922 0
M  V30 7255 H 702.001 4.73167 -5.94994 0
M  V30 7256 N 703.576 0.692616 1.41565 0
M  V30 7257 C 704.822 0.231408 2.02079 0
M  V30 7258 C 705.177 -1.15514 1.53864 0
M  V30 7259 O 704.47 -1.76786 0.73873 0
M  V30 7260 C 704.664 0.225073 3.56691 0
M  V30 7261 C 704.493 1.60947 4.19912 0
M  V30 7262 C 703.263 2.2116 4.54331 0
M  V30 7263 C 705.461 2.55553 4.46315 0
M  V30 7264 N 703.443 3.52195 5.02824 0
M  V30 7265 C 704.814 3.71263 4.96552 0
M  V30 7266 C 706.869 2.53857 4.28323 0
M  V30 7267 C 705.572 4.85555 5.30687 0
M  V30 7268 C 707.598 3.67259 4.63546 0
M  V30 7269 C 706.96 4.81699 5.13951 0
M  V30 7270 H 703.059 0.130001 0.771119 0
M  V30 7271 H 705.643 0.909459 1.72154 0
M  V30 7272 H 703.814 -0.422453 3.86096 0
M  V30 7273 H 705.546 -0.250685 4.03923 0
M  V30 7274 H 702.301 1.73474 4.40685 0
M  V30 7275 H 702.725 4.19354 5.3148 0
M  V30 7276 H 707.367 1.66598 3.88594 0
M  V30 7277 H 705.085 5.73477 5.69341 0
M  V30 7278 H 708.671 3.67195 4.51286 0
M  V30 7279 H 707.551 5.67995 5.40695 0
M  V30 7280 N 705.054 -1.51416 0.437162 0
M  V30 7281 C 705.984 -2.30631 -0.364922 0
M  V30 7282 C 706.965 -1.36037 -1.02118 0
M  V30 7283 O 708.15 -1.64956 -1.02485 0
M  V30 7284 C 705.28 -3.1482 -1.46648 0
M  V30 7285 C 704.234 -4.17691 -0.933717 0
M  V30 7286 C 703.56 -4.904 -2.13101 0
M  V30 7287 C 704.86 -5.2229 0.0317201 0
M  V30 7288 H 706.554 -2.97932 0.29614 0
M  V30 7289 H 704.1 -1.4328 0.143865 0
M  V30 7290 H 706.053 -3.69017 -2.03481 0
M  V30 7291 H 704.777 -2.4534 -2.15583 0
M  V30 7292 H 703.436 -3.64545 -0.387602 0
M  V30 7293 H 703.084 -4.17423 -2.80654 0
M  V30 7294 H 702.784 -5.59962 -1.78092 0
M  V30 7295 H 704.308 -5.4742 -2.70487 0
M  V30 7296 H 705.722 -5.7156 -0.446302 0
M  V30 7297 H 704.119 -5.99378 0.29437 0
M  V30 7298 H 705.189 -4.75131 0.968447 0
M  V30 7299 N 706.532 -0.168513 -1.56696 0
M  V30 7300 C 707.948 0.187686 -1.58493 0
M  V30 7301 C 708.148 1.63063 -1.18375 0
M  V30 7302 O 707.204 2.36142 -0.894042 0
M  V30 7303 C 708.517 -0.0905858 -3.00564 0
M  V30 7304 C 710.065 -0.028575 -3.12987 0
M  V30 7305 C 710.54 -0.279799 -4.57145 0
M  V30 7306 N 712.031 -0.227476 -4.62641 0
M  V30 7307 C 712.766 -0.396073 -5.7203 0
M  V30 7308 N 712.262 -0.623572 -6.89988 0
M  V30 7309 N 714.055 -0.332173 -5.61118 0
M  V30 7310 H 706.206 -1.11042 -1.81062 0
M  V30 7311 H 708.469 -0.441235 -0.839056 0
M  V30 7312 H 708.175 -1.09006 -3.34381 0
M  V30 7313 H 708.049 0.619078 -3.72085 0
M  V30 7314 H 710.436 0.961471 -2.78998 0
M  V30 7315 H 710.517 -0.770905 -2.43907 0
M  V30 7316 H 710.161 -1.26704 -4.91842 0
M  V30 7317 H 710.091 0.48311 -5.24379 0
M  V30 7318 H 712.582 -0.0571723 -3.77857 0
M  V30 7319 H 712.895 -0.741745 -7.69232 0
M  V30 7320 H 711.24 -0.660153 -6.91858 0
M  V30 7321 H 714.431 -0.155051 -4.67843 0
M  V30 7322 H 714.604 -0.466994 -6.46315 0
M  V30 7323 N 708.01 1.57248 0.105221 0
M  V30 7324 C 709.257 1.8557 0.810552 0
M  V30 7325 C 709.585 0.755595 1.79223 0
M  V30 7326 O 708.84 -0.251788 1.94073 0
M  V30 7327 C 709.139 3.20437 1.58287 0
M  V30 7328 C 708.805 4.44716 0.744235 0
M  V30 7329 C 707.467 4.78458 0.513013 0
M  V30 7330 C 709.819 5.20953 0.160578 0
M  V30 7331 C 707.147 5.8587 -0.311894 0
M  V30 7332 C 709.499 6.29235 -0.651596 0
M  V30 7333 C 708.163 6.615 -0.893005 0
M  V30 7334 H 707.433 0.67905 0.296602 0
M  V30 7335 H 710.08 1.91363 0.0723968 0
M  V30 7336 H 708.385 3.10283 2.39232 0
M  V30 7337 H 710.082 3.39576 2.13282 0
M  V30 7338 H 706.672 4.18287 0.934555 0
M  V30 7339 H 710.856 4.95226 0.3264 0
M  V30 7340 H 706.112 6.09286 -0.508012 0
M  V30 7341 H 710.286 6.87484 -1.11077 0
M  V30 7342 H 707.913 7.44562 -1.53401 0
M  V30 7343 O 709.527 -0.249352 1.59563 0
M  V30 7344 H 710.218 -0.892778 1.71899 0
M  V30 END ATOM
M  V30 BEGIN BOND
M  V30 END BOND
M  V30 END CTAB
M  END
$$$$
