drugbank_target|P41021 Urease subunit beta (DB02899)
 OpenBabel12092120443D

  0  0  0     0  0            999 V3000
M  V30 BEGIN CTAB
M  V30 COUNTS 1948 1960 0 0 0
M  V30 BEGIN ATOM
M  V30 1 H -0.908 1.98254 -0.117106 0
M  V30 2 N 0 1.576 0 0
M  V30 3 C 0.933 2.03868 1.02534 0
M  V30 4 C 1.911 0.928543 1.3348 0
M  V30 5 O 3.095 1.19667 1.45644 0
M  V30 6 C 0.222 2.43627 2.35294 0
M  V30 7 C -0.732 3.65373 2.2001 0
M  V30 8 S 0.101 5.13292 1.52614 0
M  V30 9 C 1.257 5.56322 2.86805 0
M  V30 10 H 1.49 2.90518 0.631377 0
M  V30 11 H -0.977 1.52953 0.210867 0
M  V30 12 H 0.981 2.67203 3.11629 0
M  V30 13 H -0.358 1.57376 2.7183 0
M  V30 14 H -1.165 3.90944 3.18086 0
M  V30 15 H -1.563 3.418 1.51819 0
M  V30 16 H 0.729 5.58782 3.83104 0
M  V30 17 H 1.672 6.56266 2.65933 0
M  V30 18 H 2.08 4.83886 2.90714 0
M  V30 19 N 1.4781 -0.272755 1.55222 0
M  V30 20 C 2.7031 -1.02683 1.80197 0
M  V30 21 C 3.1281 -1.79142 0.573551 0
M  V30 22 O 2.4861 -1.74917 -0.476849 0
M  V30 23 C 2.5341 -1.9609 3.02624 0
M  V30 24 O 1.6381 -3.04863 2.77727 0
M  V30 25 H 0.9791 -0.293557 0.595584 0
M  V30 26 H 3.5091 -0.30159 2.02365 0
M  V30 27 H 3.5191 -2.38039 3.31363 0
M  V30 28 H 2.1941 -1.39851 3.91682 0
M  V30 29 H 0.7711 -2.67228 2.60084 0
M  V30 30 N 2.9562 -1.48159 -0.537278 0
M  V30 31 C 3.9042 -1.62573 -1.66352 0
M  V30 32 C 4.8982 -0.492366 -1.62087 0
M  V30 33 O 6.1042 -0.670847 -1.67032 0
M  V30 34 H 2.4792 -0.511992 -0.550789 0
M  V30 35 H 4.4502 -2.57176 -1.51337 0
M  V30 36 C 3.1992 -1.67583 -3.04649 0
M  V30 37 H 2.5222 -2.54151 -3.08622 0
M  V30 38 H 3.9622 -1.81713 -3.83088 0
M  V30 39 C 2.4212 -0.413039 -3.34358 0
M  V30 40 O 2.9512 0.477259 -3.98855 0
M  V30 41 N 1.1572 -0.286961 -2.8918 0
M  V30 42 H 0.7042 -1.01241 -2.36871 0
M  V30 43 H 0.6622 0.556963 -3.09427 0
M  V30 44 N 4.4343 0.785586 -1.36625 0
M  V30 45 C 5.3823 1.91978 -1.31329 0
M  V30 46 C 6.3763 1.68162 -0.204416 0
M  V30 47 O 7.5823 1.76122 -0.371645 0
M  V30 48 H 3.9573 0.631087 -0.408942 0
M  V30 49 H 5.9283 1.93562 -2.27104 0
M  V30 50 C 4.6773 3.29055 -1.12329 0
M  V30 51 H 4.0003 3.4795 -1.96903 0
M  V30 52 H 5.4403 4.08756 -1.12671 0
M  V30 53 C 3.8993 3.36461 0.171861 0
M  V30 54 O 4.4293 3.84576 1.16035 0
M  V30 55 N 2.6353 2.89782 0.217846 0
M  V30 56 H 2.1823 2.50819 -0.587183 0
M  V30 57 H 2.1403 2.95119 1.08408 0
M  V30 58 N 5.9124 1.20967 1.01018 0
M  V30 59 C 6.8604 0.961223 2.1181 0
M  V30 60 C 7.8544 -0.0897034 1.69162 0
M  V30 61 O 9.0604 0.0612271 1.79896 0
M  V30 62 H 5.4354 0.29355 0.692338 0
M  V30 63 H 7.4064 1.90178 2.29946 0
M  V30 64 C 6.1554 0.536854 3.4353 0
M  V30 65 H 5.4784 1.33713 3.76777 0
M  V30 66 H 6.9184 0.402286 4.22087 0
M  V30 67 C 5.3774 -0.751574 3.2841 0
M  V30 68 O 5.9074 -1.80841 3.58691 0
M  V30 69 N 4.1134 -0.716079 2.81639 0
M  V30 70 H 3.6604 0.144236 2.57196 0
M  V30 71 H 3.6184 -1.57847 2.71904 0
M  V30 72 N 7.3905 -1.2043 1.01659 0
M  V30 73 C 8.6205 -1.93496 0.724081 0
M  V30 74 C 9.0285 -1.74998 -0.71918 0
M  V30 75 O 8.3715 -1.06118 -1.49949 0
M  V30 76 C 8.4335 -3.45886 0.97994 0
M  V30 77 C 8.0975 -3.88145 2.41232 0
M  V30 78 C 9.0945 -3.93907 3.39313 0
M  V30 79 C 6.7795 -4.20134 2.75305 0
M  V30 80 C 8.7735 -4.31069 4.6953 0
M  V30 81 C 6.4605 -4.56971 4.05735 0
M  V30 82 C 7.4585 -4.62411 5.02658 0
M  V30 83 O 7.1465 -4.98403 6.30754 0
M  V30 84 H 6.8785 -0.621824 0.265162 0
M  V30 85 H 9.4325 -1.53867 1.36066 0
M  V30 86 H 7.6625 -3.85639 0.286198 0
M  V30 87 H 9.3515 -4.0018 0.679021 0
M  V30 88 H 10.1175 -3.69357 3.14325 0
M  V30 89 H 5.9965 -4.1509 2.00551 0
M  V30 90 H 9.5405 -4.3523 5.45179 0
M  V30 91 H 5.4375 -4.80977 4.30502 0
M  V30 92 H 6.2055 -5.16395 6.35042 0
M  V30 93 N 8.8686 -0.792821 -1.36206 0
M  V30 94 C 10.1176 -0.363353 -1.984 0
M  V30 95 C 10.4306 1.07172 -1.63626 0
M  V30 96 O 11.6366 1.60362 -2.19081 0
M  V30 97 C 10.0926 -0.59872 -3.54885 0
M  V30 98 C 9.7006 -2.04543 -3.9858 0
M  V30 99 C 11.4446 -0.233926 -4.23855 0
M  V30 100 C 9.3516 -2.22727 -5.47856 0
M  V30 101 H 8.2816 -0.13212 -0.742334 0
M  V30 102 H 10.9326 -0.974935 -1.55458 0
M  V30 103 H 9.3146 0.0826222 -3.95914 0
M  V30 104 H 10.4886 -2.76345 -3.68741 0
M  V30 105 H 8.8036 -2.36879 -3.42458 0
M  V30 106 H 11.4006 -0.348027 -5.33566 0
M  V30 107 H 11.7436 0.818351 -4.08177 0
M  V30 108 H 12.2766 -0.868639 -3.882 0
M  V30 109 H 9.0156 -3.2635 -5.68486 0
M  V30 110 H 8.5356 -1.55434 -5.7931 0
M  V30 111 H 10.2146 -2.03607 -6.14128 0
M  V30 112 N 10.3467 1.47872 -0.545128 0
M  V30 113 C 11.5927 2.02793 -0.0166104 0
M  V30 114 C 11.9257 1.41987 1.32489 0
M  V30 115 O 11.2007 0.571045 1.85928 0
M  V30 116 C 11.4837 3.59989 0.0893294 0
M  V30 117 C 11.3367 4.3125 -1.27841 0
M  V30 118 C 12.6557 4.32606 0.808724 0
M  V30 119 H 9.7747 0.736962 -0.00751035 0
M  V30 120 H 12.4167 1.76433 -0.705085 0
M  V30 121 H 10.5667 3.82579 0.675681 0
M  V30 122 H 12.2387 4.20035 -1.90704 0
M  V30 123 H 10.4817 3.92076 -1.85632 0
M  V30 124 H 11.1527 5.39736 -1.15713 0
M  V30 125 H 13.6287 4.14936 0.310992 0
M  V30 126 H 12.5047 5.42251 0.851782 0
M  V30 127 H 12.7657 4.00963 1.86229 0
M  V30 128 N 11.8248 0.280983 1.55075 0
M  V30 129 C 13.2358 -0.215629 1.85451 0
M  V30 130 C 13.5868 -1.54991 1.203 0
M  V30 131 O 12.7118 -2.10699 0.493435 0
M  V30 132 C 13.3068 -0.398026 3.36454 0
M  V30 133 C 11.8658 -0.838866 3.66933 0
M  V30 134 C 11.0128 0.064458 2.77225 0
M  V30 135 H 13.9638 0.502601 1.50531 0
M  V30 136 H 13.9848 -1.23569 3.59876 0
M  V30 137 H 13.4968 0.573241 3.83843 0
M  V30 138 H 11.5978 -1.8214 3.25048 0
M  V30 139 H 11.7108 -0.672123 4.74362 0
M  V30 140 H 10.0748 -0.452863 2.50642 0
M  V30 141 H 10.8578 1.03172 3.2743 0
M  V30 142 N 13.3029 -1.57598 0.00835791 0
M  V30 143 C 14.5509 -1.90551 -0.6734 0
M  V30 144 C 14.8719 -0.883301 -1.73847 0
M  V30 145 O 14.1419 0.0781442 -1.95744 0
M  V30 146 H 12.7219 -0.703312 -0.251717 0
M  V30 147 H 15.3839 -1.94833 0.0512592 0
M  V30 148 H 14.4799 -2.9056 -1.13935 0
M  V30 149 N 14.781 0.264519 -1.55364 0
M  V30 150 C 15.691 1.34902 -1.91934 0
M  V30 151 C 16.707 1.53595 -0.817593 0
M  V30 152 O 17.883 1.67558 -1.11742 0
M  V30 153 C 14.948 2.68676 -2.19121 0
M  V30 154 C 14.009 2.58657 -3.4263 0
M  V30 155 C 13.242 3.86051 -3.68511 0
M  V30 156 O 13.465 4.87126 -2.96757 0
M  V30 157 O 12.399 3.85744 -4.62045 0
M  V30 158 H 16.225 1.06883 -2.8427 0
M  V30 159 H 13.81 0.463775 -1.42019 0
M  V30 160 H 15.692 3.47759 -2.37995 0
M  V30 161 H 14.367 2.96463 -1.29966 0
M  V30 162 H 13.274 1.7792 -3.29082 0
M  V30 163 H 14.607 2.35818 -4.32031 0
M  V30 164 N 16.2591 1.48442 0.529413 0
M  V30 165 C 17.4891 1.59919 1.30804 0
M  V30 166 C 17.8971 0.258792 1.87422 0
M  V30 167 O 17.2401 -0.762096 1.67146 0
M  V30 168 C 17.3021 2.58693 2.49636 0
M  V30 169 C 16.9661 4.03745 2.14101 0
M  V30 170 C 17.9631 4.9141 1.6974 0
M  V30 171 C 15.6481 4.49285 2.24607 0
M  V30 172 C 17.6421 6.22645 1.36351 0
M  V30 173 C 15.3291 5.8054 1.9083 0
M  V30 174 C 16.3271 6.67043 1.46773 0
M  V30 175 O 16.0151 7.95856 1.1344 0
M  V30 176 H 15.7471 0.541981 0.404021 0
M  V30 177 H 18.3011 1.95 0.645309 0
M  V30 178 H 16.5311 2.18734 3.18892 0
M  V30 179 H 18.2201 2.59999 3.11698 0
M  V30 180 H 18.9861 4.57465 1.61094 0
M  V30 181 H 14.8651 3.82142 2.57854 0
M  V30 182 H 18.4091 6.90119 1.01891 0
M  V30 183 H 14.3061 6.14022 1.99117 0
M  V30 184 H 15.0741 8.08613 1.26832 0
M  V30 185 N 17.7372 -0.778329 1.37039 0
M  V30 186 C 19.1532 -1.07796 1.17695 0
M  V30 187 C 19.3532 -2.01498 0.00860115 0
M  V30 188 O 18.4092 -2.43901 -0.653352 0
M  V30 189 C 19.7222 -1.68178 2.49272 0
M  V30 190 C 21.2702 -1.80467 2.55735 0
M  V30 191 C 21.7452 -2.44263 3.87427 0
M  V30 192 N 23.2362 -2.51721 3.88833 0
M  V30 193 C 23.9712 -3.01919 4.87476 0
M  V30 194 N 23.4672 -3.5234 5.96513 0
M  V30 195 N 25.2602 -3.00733 4.74885 0
M  V30 196 H 17.4112 -0.156032 2.11826 0
M  V30 197 H 19.6742 -0.131844 0.938787 0
M  V30 198 H 19.3802 -1.06796 3.35093 0
M  V30 199 H 19.2542 -2.67554 2.65885 0
M  V30 200 H 21.6412 -2.40984 1.70325 0
M  V30 201 H 21.7222 -0.798656 2.43013 0
M  V30 202 H 21.3662 -1.84388 4.73248 0
M  V30 203 H 21.2962 -3.45458 3.9745 0
M  V30 204 H 23.7872 -2.1603 3.10063 0
M  V30 205 H 24.1002 -3.89027 6.67741 0
M  V30 206 H 22.4452 -3.50462 6.00168 0
M  V30 207 H 25.6362 -2.60638 3.88826 0
M  V30 208 H 25.8092 -3.39545 5.51918 0
M  V30 209 N 19.2153 -1.21501 -1.00376 0
M  V30 210 C 20.4613 -1.03452 -1.74429 0
M  V30 211 C 20.7943 0.430764 -1.89362 0
M  V30 212 O 20.0693 1.31962 -1.42886 0
M  V30 213 C 20.3523 -1.73375 -3.15615 0
M  V30 214 C 20.2053 -3.27431 -3.08397 0
M  V30 215 C 21.5243 -1.47732 -4.14564 0
M  V30 216 H 18.6433 -0.377226 -0.633143 0
M  V30 217 H 21.2853 -1.49693 -1.17013 0
M  V30 218 H 19.4353 -1.34064 -3.64636 0
M  V30 219 H 21.1073 -3.76119 -2.67081 0
M  V30 220 H 19.3503 -3.5767 -2.45468 0
M  V30 221 H 20.0213 -3.71524 -4.08258 0
M  V30 222 H 22.4973 -1.8186 -3.74254 0
M  V30 223 H 21.3733 -1.99169 -5.11491 0
M  V30 224 H 21.6343 -0.407589 -4.40217 0
M  V30 225 N 20.6934 1.19889 -1.02296 0
M  V30 226 C 21.6564 2.21116 -0.603351 0
M  V30 227 C 22.6564 1.5738 0.329884 0
M  V30 228 O 23.8464 1.73802 0.117702 0
M  V30 229 C 20.9784 3.40696 0.117992 0
M  V30 230 H 22.1714 2.59754 -1.49893 0
M  V30 231 H 19.7244 1.33463 -0.813468 0
M  V30 232 H 20.4594 3.07569 1.0282 0
M  V30 233 H 20.2444 3.88188 -0.552511 0
M  V30 234 H 21.7344 4.15692 0.398696 0
M  V30 235 N 22.1715 0.800033 1.35784 0
M  V30 236 C 23.0815 0.207204 2.33683 0
M  V30 237 C 24.0975 -0.64631 1.61551 0
M  V30 238 O 25.2735 -0.559604 1.93469 0
M  V30 239 C 22.3385 -0.639659 3.40748 0
M  V30 240 C 21.3995 0.233585 4.28664 0
M  V30 241 C 20.6325 -0.572954 5.30616 0
M  V30 242 O 20.8555 -1.80816 5.40982 0
M  V30 243 O 19.7895 0.0327285 6.01891 0
M  V30 244 H 23.6155 1.01692 2.86169 0
M  V30 245 H 21.2005 0.561691 1.38439 0
M  V30 246 H 23.0825 -1.12223 4.06182 0
M  V30 247 H 21.7575 -1.42708 2.90544 0
M  V30 248 H 20.6645 0.763147 3.66233 0
M  V30 249 H 21.9975 0.984784 4.82248 0
M  V30 250 N 23.6496 -1.47581 0.552962 0
M  V30 251 C 24.8976 -2.02082 0.0272703 0
M  V30 252 C 25.2186 -1.4301 -1.32563 0
M  V30 253 O 24.4886 -0.603745 -1.86365 0
M  V30 254 H 23.0686 -0.746966 0.00709182 0
M  V30 255 H 25.7306 -1.81033 0.722008 0
M  V30 256 H 24.8266 -3.12034 -0.0639951 0
M  V30 257 N 25.1277 -0.289203 -1.54924 0
M  V30 258 C 26.0377 0.601863 -2.26748 0
M  V30 259 C 27.0537 1.15834 -1.2984 0
M  V30 260 O 28.2297 1.18564 -1.62802 0
M  V30 261 C 25.2947 1.76299 -2.98529 0
M  V30 262 C 24.3557 1.24178 -4.10948 0
M  V30 263 C 23.5887 2.34757 -4.79296 0
M  V30 264 O 23.8117 3.54411 -4.46933 0
M  V30 265 O 22.7457 2.02115 -5.66951 0
M  V30 266 H 26.5717 0.0195879 -3.03694 0
M  V30 267 H 24.1567 -0.0560868 -1.49295 0
M  V30 268 H 26.0387 2.43973 -3.43592 0
M  V30 269 H 24.7137 2.33209 -2.24488 0
M  V30 270 H 23.6207 0.531104 -3.70311 0
M  V30 271 H 24.9537 0.718252 -4.86931 0
M  V30 272 N 26.6058 1.57591 -0.0167156 0
M  V30 273 C 27.8548 1.90461 0.663877 0
M  V30 274 C 28.1678 0.893515 1.73999 0
M  V30 275 O 29.3738 1.11302 2.47637 0
M  V30 276 C 27.8298 3.38155 1.23204 0
M  V30 277 C 27.4378 4.47597 0.189866 0
M  V30 278 C 29.1818 3.80111 1.88986 0
M  V30 279 C 27.0888 5.86379 0.768964 0
M  V30 280 H 26.0188 0.710738 0.251729 0
M  V30 281 H 28.6698 1.83326 -0.0799926 0
M  V30 282 H 27.0518 3.40182 2.02712 0
M  V30 283 H 28.2258 4.57112 -0.581846 0
M  V30 284 H 26.5408 4.14766 -0.368475 0
M  V30 285 H 29.1378 4.81145 2.33247 0
M  V30 286 H 29.4808 3.14511 2.72743 0
M  V30 287 H 30.0138 3.80454 1.16187 0
M  V30 288 H 26.7528 6.55493 -0.0301957 0
M  V30 289 H 26.2728 5.80496 1.50945 0
M  V30 290 H 27.9518 6.34563 1.26251 0
M  V30 291 N 28.0839 -0.256276 1.55502 0
M  V30 292 C 28.9939 -1.33882 1.92647 0
M  V30 293 C 30.0099 -1.53159 0.825727 0
M  V30 294 O 31.1859 -1.66963 1.12629 0
M  V30 295 C 28.2509 -2.6751 2.20543 0
M  V30 296 C 27.3119 -2.56836 3.43997 0
M  V30 297 C 26.5449 -3.84092 3.70553 0
M  V30 298 O 26.7679 -4.85545 2.99336 0
M  V30 299 O 25.7019 -3.83288 4.64084 0
M  V30 300 H 29.5279 -1.05374 2.84833 0
M  V30 301 H 27.1129 -0.456237 1.42263 0
M  V30 302 H 28.9949 -3.46492 2.39835 0
M  V30 303 H 27.6699 -2.9577 1.31536 0
M  V30 304 H 26.5769 -1.76172 3.30021 0
M  V30 305 H 27.9099 -2.33523 4.33275 0
M  V30 306 N 29.562 -1.4872 -0.521534 0
M  V30 307 C 30.811 -1.56419 -1.27341 0
M  V30 308 C 31.124 -0.246805 -1.94037 0
M  V30 309 O 32.33 -0.202122 -2.70747 0
M  V30 310 C 30.786 -2.75896 -2.31105 0
M  V30 311 C 30.394 -4.14311 -1.70441 0
M  V30 312 C 32.138 -2.92913 -3.07249 0
M  V30 313 C 30.045 -5.25038 -2.72194 0
M  V30 314 H 28.975 -0.582344 -0.478949 0
M  V30 315 H 31.626 -1.75071 -0.549779 0
M  V30 316 H 30.008 -2.50697 -3.06541 0
M  V30 317 H 31.182 -4.49564 -1.01136 0
M  V30 318 H 29.497 -4.02482 -1.06759 0
M  V30 319 H 32.094 -3.72805 -3.83302 0
M  V30 320 H 32.437 -2.02689 -3.63625 0
M  V30 321 H 32.97 -3.18054 -2.38928 0
M  V30 322 H 29.709 -6.17255 -2.20627 0
M  V30 323 H 29.229 -4.94263 -3.39801 0
M  V30 324 H 30.908 -5.53508 -3.35019 0
M  V30 325 N 31.0401 0.771051 -1.3745 0
M  V30 326 C 31.9881 1.90574 -1.33358 0
M  V30 327 C 32.9821 1.67936 -0.22224 0
M  V30 328 O 34.1881 1.75717 -0.390304 0
M  V30 329 H 30.5631 0.626714 -0.415612 0
M  V30 330 H 32.5341 1.91142 -2.29144 0
M  V30 331 C 31.2831 3.27845 -1.15813 0
M  V30 332 H 30.6061 3.45842 -2.00583 0
M  V30 333 H 32.0461 4.07538 -1.17 0
M  V30 334 C 30.5051 3.36625 0.136165 0
M  V30 335 O 31.0351 3.85785 1.11949 0
M  V30 336 N 29.2411 2.89997 0.187099 0
M  V30 337 H 28.7881 2.50182 -0.613753 0
M  V30 338 H 28.7461 2.96252 1.05272 0
M  V30 339 N 32.5182 1.22032 0.997298 0
M  V30 340 C 33.4812 0.987909 2.06816 0
M  V30 341 C 34.4812 -0.0440084 1.6074 0
M  V30 342 O 35.6712 0.194053 1.73116 0
M  V30 343 C 32.8032 0.49132 3.37341 0
M  V30 344 H 33.9962 1.93803 2.28868 0
M  V30 345 H 31.5492 1.03838 1.16822 0
M  V30 346 H 32.2842 -0.463364 3.20973 0
M  V30 347 H 32.0692 1.23575 3.72118 0
M  V30 348 H 33.5592 0.348824 4.16141 0
M  V30 349 N 33.9963 -1.19345 1.0293 0
M  V30 350 C 35.2443 -1.88665 0.724574 0
M  V30 351 C 35.5653 -1.80036 -0.749144 0
M  V30 352 O 34.8353 -1.2111 -1.53978 0
M  V30 353 H 33.4153 -0.698406 0.265025 0
M  V30 354 H 36.0773 -1.44885 1.30362 0
M  V30 355 H 35.1733 -2.94987 1.01926 0
M  V30 356 N 35.4744 -0.807222 -1.35358 0
M  V30 357 C 36.8904 -0.491038 -1.51858 0
M  V30 358 C 37.0904 0.987648 -1.75635 0
M  V30 359 O 36.1464 1.77265 -1.79815 0
M  V30 360 C 37.4594 -1.33695 -2.69344 0
M  V30 361 C 39.0074 -1.33246 -2.83222 0
M  V30 362 C 39.4824 -2.1625 -4.03733 0
M  V30 363 N 40.9734 -2.1379 -4.10911 0
M  V30 364 C 41.7084 -2.74772 -5.03277 0
M  V30 365 N 41.2044 -3.44684 -6.0097 0
M  V30 366 N 42.9974 -2.6441 -4.96028 0
M  V30 367 H 35.1484 -1.76485 -1.18181 0
M  V30 368 H 37.4114 -0.751199 -0.578276 0
M  V30 369 H 37.1174 -2.38634 -2.58354 0
M  V30 370 H 36.9914 -0.990618 -3.6396 0
M  V30 371 H 39.3784 -0.290911 -2.93663 0
M  V30 372 H 39.4594 -1.71866 -1.89461 0
M  V30 373 H 39.1034 -3.20445 -3.94052 0
M  V30 374 H 39.0334 -1.74989 -4.96675 0
M  V30 375 H 41.5244 -1.62923 -3.40976 0
M  V30 376 H 41.8374 -3.88501 -6.68047 0
M  V30 377 H 40.1824 -3.48788 -6.01142 0
M  V30 378 H 43.3734 -2.0938 -4.18662 0
M  V30 379 H 43.5464 -3.12225 -5.6782 0
M  V30 380 N 36.9525 1.47285 -0.560781 0
M  V30 381 C 37.8625 2.33846 0.187954 0
M  V30 382 C 38.8785 1.48412 0.908293 0
M  V30 383 O 40.0545 1.81332 0.876388 0
M  V30 384 C 37.1195 3.25178 1.2025 0
M  V30 385 C 36.1805 4.26504 0.489208 0
M  V30 386 C 35.4135 5.13472 1.45542 0
M  V30 387 O 35.6365 5.02959 2.6905 0
M  V30 388 O 34.5705 5.93902 0.977963 0
M  V30 389 H 38.3965 2.99177 -0.522177 0
M  V30 390 H 35.9815 1.45903 -0.321364 0
M  V30 391 H 37.8635 3.81584 1.78805 0
M  V30 392 H 36.5385 2.6247 1.89449 0
M  V30 393 H 35.4455 3.73847 -0.137627 0
M  V30 394 H 36.7785 4.91935 -0.161399 0
M  V30 395 N 38.4306 0.297415 1.54768 0
M  V30 396 C 39.3776 -0.580276 2.23386 0
M  V30 397 C 40.3476 -1.13238 1.21517 0
M  V30 398 O 41.5326 -1.17757 1.50126 0
M  V30 399 C 38.6726 -1.74801 2.97555 0
M  V30 400 C 37.7856 -1.22764 4.1419 0
M  V30 401 C 36.9206 -2.35895 4.75949 0
M  V30 402 C 35.9596 -1.80974 5.84735 0
M  V30 403 N 35.0966 -2.87664 6.40464 0
M  V30 404 H 39.9366 0.0114833 2.97998 0
M  V30 405 H 37.4736 0.0174361 1.4709 0
M  V30 406 H 39.4316 -2.43475 3.38786 0
M  V30 407 H 38.0616 -2.31145 2.25326 0
M  V30 408 H 37.1136 -0.433271 3.77924 0
M  V30 409 H 38.4256 -0.785551 4.92575 0
M  V30 410 H 37.5796 -3.12523 5.20014 0
M  V30 411 H 36.3186 -2.83429 3.96887 0
M  V30 412 H 35.3236 -1.02834 5.40097 0
M  V30 413 H 36.5486 -1.34348 6.65678 0
M  V30 414 H 34.4946 -3.34538 5.64287 0
M  V30 415 H 34.4116 -2.4794 7.14186 0
M  V30 416 H 35.6796 -3.642 6.89187 0
M  V30 417 N 39.9087 -1.5758 0.0250728 0
M  V30 418 C 41.1367 -1.9593 -0.664747 0
M  V30 419 C 41.5517 -0.901352 -1.65895 0
M  V30 420 O 40.9087 0.117255 -1.82123 0
M  V30 421 C 40.9597 -3.34342 -1.37468 0
M  V30 422 O 40.6807 -4.36079 -0.420324 0
M  V30 423 C 42.1817 -3.873 -2.1567 0
M  V30 424 H 39.4017 -0.645405 -0.183557 0
M  V30 425 H 41.9457 -2.04329 0.0836372 0
M  V30 426 H 40.1007 -3.27175 -2.0745 0
M  V30 427 H 40.5147 -5.16297 -0.923991 0
M  V30 428 H 41.9887 -4.86504 -2.60803 0
M  V30 429 H 42.4657 -3.21331 -2.99405 0
M  V30 430 H 43.0717 -3.97723 -1.50654 0
M  V30 431 N 41.3868 0.248026 -1.55636 0
M  V30 432 C 42.6148 0.993808 -1.81469 0
M  V30 433 C 43.0298 1.78991 -0.60064 0
M  V30 434 O 42.3868 1.77345 0.430682 0
M  V30 435 C 42.4378 1.93258 -3.05506 0
M  V30 436 O 42.1588 1.16869 -4.22224 0
M  V30 437 C 43.6598 2.79444 -3.4413 0
M  V30 438 H 40.8798 0.292486 -0.603898 0
M  V30 439 H 43.4238 0.271253 -2.02693 0
M  V30 440 H 41.5788 2.60943 -2.86335 0
M  V30 441 H 41.9928 1.80359 -4.92515 0
M  V30 442 H 43.4668 3.41066 -4.34026 0
M  V30 443 H 43.9438 3.50499 -2.64665 0
M  V30 444 H 44.5498 2.17214 -3.65648 0
M  V30 445 N 42.8649 1.48995 0.513639 0
M  V30 446 C 44.1139 1.57093 1.2651 0
M  V30 447 C 44.4269 0.257091 1.93903 0
M  V30 448 O 45.6329 0.216478 2.70636 0
M  V30 449 C 44.0889 2.77118 2.29638 0
M  V30 450 C 43.6969 4.15209 1.68241 0
M  V30 451 C 45.4409 2.94538 3.05692 0
M  V30 452 C 43.3479 5.26474 2.69406 0
M  V30 453 H 42.2779 0.584876 0.475854 0
M  V30 454 H 44.9289 1.7536 0.540487 0
M  V30 455 H 43.3109 2.52319 3.05207 0
M  V30 456 H 44.4849 4.50094 0.987505 0
M  V30 457 H 42.7999 4.03042 1.04623 0
M  V30 458 H 45.3969 3.74832 3.8132 0
M  V30 459 H 45.7399 2.04614 3.62545 0
M  V30 460 H 46.2729 3.19316 2.37238 0
M  V30 461 H 43.0119 6.18417 2.17351 0
M  V30 462 H 42.5319 4.96058 3.37175 0
M  V30 463 H 44.2109 5.55277 3.32078 0
M  V30 464 N 44.343 -0.763751 1.37857 0
M  V30 465 C 45.759 -1.06542 1.18832 0
M  V30 466 C 45.959 -2.01478 0.0299722 0
M  V30 467 O 45.015 -2.4458 -0.627447 0
M  V30 468 C 46.328 -1.65525 2.51042 0
M  V30 469 C 47.876 -1.77745 2.57635 0
M  V30 470 C 48.351 -2.4014 3.89996 0
M  V30 471 N 49.842 -2.47582 3.91481 0
M  V30 472 C 50.577 -2.96732 4.9065 0
M  V30 473 N 50.073 -3.45993 6.00217 0
M  V30 474 N 51.866 -2.95679 4.78048 0
M  V30 475 H 44.017 -0.133556 2.1198 0
M  V30 476 H 46.28 -0.121879 0.940133 0
M  V30 477 H 45.986 -1.03236 3.36207 0
M  V30 478 H 45.86 -2.64719 2.68707 0
M  V30 479 H 48.247 -2.39164 1.72872 0
M  V30 480 H 48.328 -0.772836 2.43846 0
M  V30 481 H 47.972 -1.79358 4.75177 0
M  V30 482 H 47.902 -3.41223 4.01092 0
M  V30 483 H 50.393 -2.1273 3.12337 0
M  V30 484 H 50.706 -3.81922 6.7183 0
M  V30 485 H 49.051 -3.44077 6.03851 0
M  V30 486 H 52.242 -2.56499 3.91568 0
M  V30 487 H 52.415 -3.33672 5.55488 0
M  V30 488 N 45.8211 -1.22559 -0.990812 0
M  V30 489 C 47.0671 -1.05297 -1.73322 0
M  V30 490 C 47.4001 0.410655 -1.89808 0
M  V30 491 O 46.6751 1.30439 -1.44277 0
M  V30 492 C 46.9581 -1.76713 -3.13759 0
M  V30 493 C 46.8111 -3.30684 -3.04907 0
M  V30 494 C 48.1301 -1.52121 -4.12974 0
M  V30 495 H 45.2491 -0.38392 -0.629106 0
M  V30 496 H 47.8911 -1.50926 -1.15418 0
M  V30 497 H 46.0411 -1.37924 -3.63193 0
M  V30 498 H 47.7131 -3.7893 -2.63077 0
M  V30 499 H 45.9561 -3.60253 -2.41661 0
M  V30 500 H 46.6271 -3.75833 -4.04294 0
M  V30 501 H 49.1031 -1.85819 -3.72304 0
M  V30 502 H 47.9791 -2.04582 -5.0935 0
M  V30 503 H 48.2401 -0.454257 -4.3976 0
M  V30 504 N 47.2992 1.18797 -1.03562 0
M  V30 505 C 48.5242 1.9314 -0.755764 0
M  V30 506 C 48.9492 1.7537 0.68022 0
M  V30 507 O 48.3072 1.06046 1.47051 0
M  V30 508 C 48.3552 3.42747 -1.12058 0
M  V30 509 O 47.4592 4.11683 -0.243124 0
M  V30 510 H 46.8002 0.602724 -0.278604 0
M  V30 511 H 49.3302 1.50678 -1.3841 0
M  V30 512 H 49.3402 3.93437 -1.08035 0
M  V30 513 H 48.0152 3.55002 -2.16672 0
M  V30 514 H 46.5922 3.71323 -0.342539 0
M  V30 515 N 48.7773 0.814389 1.34928 0
M  V30 516 C 49.7253 0.218424 2.31572 0
M  V30 517 C 50.7193 -0.636128 1.57002 0
M  V30 518 O 51.9253 -0.52842 1.72069 0
M  V30 519 H 48.3003 0.0518799 0.750208 0
M  V30 520 H 50.2713 1.04852 2.79372 0
M  V30 521 C 49.0203 -0.61207 3.4227 0
M  V30 522 H 48.3433 0.0361578 3.99784 0
M  V30 523 H 49.7833 -0.995317 4.12152 0
M  V30 524 C 48.2423 -1.78087 2.85984 0
M  V30 525 O 48.7723 -2.8787 2.80168 0
M  V30 526 N 46.9783 -1.59488 2.42924 0
M  V30 527 H 46.5253 -0.701874 2.47854 0
M  V30 528 H 46.4833 -2.37846 2.05613 0
M  V30 529 N 50.2554 -1.46986 0.568584 0
M  V30 530 C 51.4834 -2.0683 0.0539956 0
M  V30 531 C 51.8984 -1.41953 -1.24478 0
M  V30 532 O 51.2554 -0.519933 -1.74937 0
M  V30 533 C 51.3064 -3.61254 -0.133362 0
M  V30 534 O 51.0274 -4.237 1.11399 0
M  V30 535 C 52.5284 -4.37992 -0.683927 0
M  V30 536 H 49.7484 -0.669058 0.0510141 0
M  V30 537 H 52.2924 -1.88824 0.785234 0
M  V30 538 H 50.4474 -3.78735 -0.81477 0
M  V30 539 H 50.8614 -5.16388 0.91888 0
M  V30 540 H 52.3354 -5.46684 -0.764263 0
M  V30 541 H 52.8124 -4.05058 -1.69778 0
M  V30 542 H 53.4184 -4.25283 -0.0378494 0
M  V30 543 N 51.7335 -0.305618 -1.54608 0
M  V30 544 C 52.9815 0.301701 -1.99835 0
M  V30 545 C 53.3025 1.54054 -1.19551 0
M  V30 546 O 52.5725 1.93702 -0.292658 0
M  V30 547 H 51.1525 0.114468 -0.738178 0
M  V30 548 H 53.8145 -0.418016 -1.90364 0
M  V30 549 H 52.9105 0.570548 -3.06841 0
M  V30 550 N 53.2116 1.57565 -0.0334293 0
M  V30 551 C 54.4886 1.83282 0.683163 0
M  V30 552 C 54.8686 0.91823 1.90084 0
M  V30 553 O 54.2166 -0.025113 2.28486 0
M  V30 554 C 54.4266 3.32599 1.0573 0
M  V30 555 C 55.7746 3.99179 1.44711 0
M  V30 556 O 56.7986 3.3712 1.15015 0
M  V30 557 O 55.6576 5.08565 2.0006 0
M  V30 558 H 52.7516 0.755869 0.335546 0
M  V30 559 H 55.2976 1.69589 -0.0614402 0
M  V30 560 H 54.0696 3.90834 0.190828 0
M  V30 561 H 53.6926 3.51415 1.85993 0
M  V30 562 N 54.6897 -0.239769 1.55765 0
M  V30 563 C 56.1057 -0.588624 1.48349 0
M  V30 564 C 56.3057 -1.88005 0.72502 0
M  V30 565 O 55.3617 -2.51186 0.257269 0
M  V30 566 C 56.6747 -0.68474 2.928 0
M  V30 567 C 58.2227 -0.77659 3.03213 0
M  V30 568 C 58.6977 -0.904207 4.48986 0
M  V30 569 N 60.1887 -0.968896 4.52953 0
M  V30 570 C 60.9237 -1.08703 5.63002 0
M  V30 571 N 60.4197 -1.17026 6.82845 0
M  V30 572 N 62.2127 -1.12074 5.50814 0
M  V30 573 H 54.3637 0.607911 2.03515 0
M  V30 574 H 56.6267 0.21083 0.924259 0
M  V30 575 H 56.3327 0.194284 3.51163 0
M  V30 576 H 56.2067 -1.55435 3.43686 0
M  V30 577 H 58.5937 -1.64606 2.44926 0
M  V30 578 H 58.6747 0.118315 2.55526 0
M  V30 579 H 58.3187 -0.0392633 5.07885 0
M  V30 580 H 58.2487 -1.81426 4.9436 0
M  V30 581 H 60.7397 -0.915633 3.6664 0
M  V30 582 H 61.0527 -1.25966 7.62465 0
M  V30 583 H 59.3977 -1.13971 6.85591 0
M  V30 584 H 62.5887 -1.05226 4.5612 0
M  V30 585 H 62.7617 -1.20936 6.36615 0
M  V30 586 N 56.1678 -1.49265 -0.50573 0
M  V30 587 C 57.5788 -1.51769 -1.08734 0
M  V30 588 C 57.9298 -0.301192 -1.93874 0
M  V30 589 O 57.0548 0.589456 -2.08217 0
M  V30 590 C 57.6498 -2.75017 -1.97867 0
M  V30 591 C 56.2088 -2.80314 -2.51199 0
M  V30 592 C 55.3558 -2.4562 -1.28709 0
M  V30 593 H 58.3068 -1.56031 -0.289855 0
M  V30 594 H 58.3278 -2.5491 -2.82491 0
M  V30 595 H 57.8398 -3.63539 -1.35873 0
M  V30 596 H 55.9408 -1.96061 -3.16845 0
M  V30 597 H 56.0538 -3.82366 -2.88675 0
M  V30 598 H 54.4178 -1.97297 -1.61078 0
M  V30 599 H 55.2008 -3.36411 -0.6843 0
M  V30 600 N 57.6459 0.756429 -1.3826 0
M  V30 601 C 58.8949 1.51082 -1.3363 0
M  V30 602 C 59.2079 1.95467 0.0720068 0
M  V30 603 O 60.4139 2.7043 0.240834 0
M  V30 604 C 58.8699 2.72893 -2.34644 0
M  V30 605 C 58.4779 2.35544 -3.81081 0
M  V30 606 C 60.2219 3.50791 -2.39052 0
M  V30 607 C 58.1289 3.53948 -4.73787 0
M  V30 608 H 57.0589 0.56727 -0.49671 0
M  V30 609 H 59.7099 0.827147 -1.638 0
M  V30 610 H 58.0919 3.43227 -1.97513 0
M  V30 611 H 59.2659 1.72894 -4.27135 0
M  V30 612 H 57.5809 1.70786 -3.79764 0
M  V30 613 H 60.1779 4.38823 -3.05513 0
M  V30 614 H 60.5209 3.91745 -1.40861 0
M  V30 615 H 61.0539 2.87467 -2.74968 0
M  V30 616 H 57.7929 3.18064 -5.73163 0
M  V30 617 H 57.3129 4.15651 -4.32428 0
M  V30 618 H 58.9919 4.20566 -4.91663 0
M  V30 619 N 59.124 1.23083 0.984299 0
M  V30 620 C 60.056 0.96636 2.07832 0
M  V30 621 C 61.069 -0.0582135 1.62696 0
M  V30 622 O 62.258 0.176843 1.77622 0
M  V30 623 C 59.358 0.433397 3.36117 0
M  V30 624 C 58.531 1.51722 4.10243 0
M  V30 625 C 57.59 0.989821 5.16807 0
M  V30 626 O 56.616 1.67794 5.43906 0
M  V30 627 N 57.818 -0.184367 5.80207 0
M  V30 628 H 60.583 1.90824 2.31098 0
M  V30 629 H 58.144 1.13888 1.1507 0
M  V30 630 H 60.136 0.065699 4.04647 0
M  V30 631 H 58.706 -0.413806 3.09849 0
M  V30 632 H 57.926 2.05786 3.36223 0
M  V30 633 H 59.214 2.24619 4.56534 0
M  V30 634 H 58.612 -0.760062 5.60571 0
M  V30 635 H 57.169 -0.493366 6.4993 0
M  V30 636 N 60.6021 -1.18246 1.0419 0
M  V30 637 C 61.8481 -1.88536 0.747122 0
M  V30 638 C 62.1811 -1.80223 -0.723409 0
M  V30 639 O 61.4561 -1.20337 -1.52804 0
M  V30 640 C 61.7391 -3.38968 1.21544 0
M  V30 641 C 61.5921 -3.56084 2.74816 0
M  V30 642 C 62.9111 -4.32648 0.806482 0
M  V30 643 H 60.0301 -0.684619 0.272883 0
M  V30 644 H 62.6721 -1.39113 1.29413 0
M  V30 645 H 60.8221 -3.8119 0.750081 0
M  V30 646 H 62.4941 -3.22946 3.29399 0
M  V30 647 H 60.7371 -2.98699 3.14582 0
M  V30 648 H 61.4081 -4.61639 3.02644 0
M  V30 649 H 63.8841 -3.98211 1.20695 0
M  V30 650 H 62.7601 -5.36462 1.1619 0
M  V30 651 H 63.0211 -4.41146 -0.29029 0
M  V30 652 N 62.0802 -0.821533 -1.34494 0
M  V30 653 C 63.3282 -0.408139 -1.97936 0
M  V30 654 C 63.6492 1.03193 -1.65457 0
M  V30 655 O 62.9192 1.71622 -0.944595 0
M  V30 656 H 61.4992 -0.147928 -0.732206 0
M  V30 657 H 64.1612 -1.05067 -1.64155 0
M  V30 658 H 63.2572 -0.52601 -3.07635 0
M  V30 659 N 63.5583 1.46682 -0.576371 0
M  V30 660 C 64.7833 2.07304 -0.0630475 0
M  V30 661 C 65.2083 1.42329 1.2298 0
M  V30 662 O 64.5663 0.504865 1.74129 0
M  V30 663 C 64.6143 3.60472 0.095895 0
M  V30 664 O 63.7183 3.95927 1.15394 0
M  V30 665 H 63.0593 0.661288 -0.0599463 0
M  V30 666 H 65.5893 1.88417 -0.797511 0
M  V30 667 H 65.5993 4.06865 0.304071 0
M  V30 668 H 64.2743 4.07157 -0.84828 0
M  V30 669 H 62.8513 3.61252 0.924724 0
M  V30 670 N 65.0364 0.313813 1.54444 0
M  V30 671 C 65.9864 -0.571898 2.20711 0
M  V30 672 C 66.9704 -1.08913 1.18435 0
M  V30 673 O 68.1624 -1.02777 1.44104 0
M  V30 674 C 65.2914 -1.7371 2.96108 0
M  V30 675 C 64.3774 -1.23522 4.05713 0
M  V30 676 N 64.7684 -0.452288 5.03774 0
M  V30 677 C 63.0664 -1.51482 4.19487 0
M  V30 678 C 63.7674 -0.183438 5.81411 0
M  V30 679 N 62.7434 -0.766845 5.38164 0
M  V30 680 H 66.5454 0.0336802 2.93881 0
M  V30 681 H 64.0594 0.119192 1.61962 0
M  V30 682 H 66.0564 -2.38329 3.4206 0
M  V30 683 H 64.7164 -2.34625 2.24458 0
M  V30 684 H 65.7274 -0.0960131 5.17811 0
M  V30 685 H 62.4044 -2.13053 3.59047 0
M  V30 686 H 63.7944 0.446216 6.70417 0
M  V30 687 N 66.5145 -1.57545 0.0417849 0
M  V30 688 C 67.7635 -1.91494 -0.633492 0
M  V30 689 C 68.0765 -0.921084 -1.72556 0
M  V30 690 O 69.2825 -1.15228 -2.45835 0
M  V30 691 C 67.7385 -3.40072 -1.17808 0
M  V30 692 C 67.3465 -4.47843 -0.118633 0
M  V30 693 C 69.0905 -3.8307 -1.82915 0
M  V30 694 C 66.9975 -5.87529 -0.675578 0
M  V30 695 H 65.9275 -0.714653 -0.24039 0
M  V30 696 H 68.5785 -1.83175 0.109148 0
M  V30 697 H 66.9605 -3.43364 -1.97274 0
M  V30 698 H 68.1345 -4.56128 0.654494 0
M  V30 699 H 66.4495 -4.14128 0.434414 0
M  V30 700 H 69.0465 -4.84794 -2.25563 0
M  V30 701 H 69.3895 -3.1881 -2.67705 0
M  V30 702 H 69.9225 -3.82255 -1.10119 0
M  V30 703 H 66.6615 -6.55362 0.134475 0
M  V30 704 H 66.1815 -5.82824 -1.4169 0
M  V30 705 H 67.8605 -6.36491 -1.1614 0
M  V30 706 N 67.9926 0.231505 -1.5589 0
M  V30 707 C 68.9426 1.29007 -1.87993 0
M  V30 708 C 69.9266 1.42764 -0.742102 0
M  V30 709 O 71.1186 1.45747 -1.00433 0
M  V30 710 C 68.2476 2.6425 -2.1915 0
M  V30 711 C 67.3336 2.54435 -3.39299 0
M  V30 712 N 67.7246 2.14262 -4.58176 0
M  V30 713 C 66.0226 2.85416 -3.42715 0
M  V30 714 C 66.7236 2.15455 -5.40328 0
M  V30 715 N 65.6996 2.55558 -4.79783 0
M  V30 716 H 69.5016 0.970213 -2.77424 0
M  V30 717 H 67.0156 0.440097 -1.56323 0
M  V30 718 H 69.0126 3.40665 -2.40319 0
M  V30 719 H 67.6726 2.9709 -1.31025 0
M  V30 720 H 68.6836 1.85554 -4.83518 0
M  V30 721 H 65.3606 3.22693 -2.64906 0
M  V30 722 H 66.7506 1.86605 -6.45467 0
M  V30 723 N 69.4707 1.49531 0.497807 0
M  V30 724 C 70.7177 1.59179 1.25173 0
M  V30 725 C 71.0457 0.279932 1.92475 0
M  V30 726 O 70.3007 -0.732383 1.81479 0
M  V30 727 C 70.5997 2.70252 2.33878 0
M  V30 728 C 70.2657 4.11644 1.84012 0
M  V30 729 C 68.9277 4.50121 1.70132 0
M  V30 730 C 71.2797 5.00121 1.46725 0
M  V30 731 C 68.6077 5.74845 1.17348 0
M  V30 732 C 70.9597 6.25366 0.95392 0
M  V30 733 C 69.6237 6.6267 0.801538 0
M  V30 734 H 68.8937 0.582478 0.45804 0
M  V30 735 H 71.5407 1.83373 0.551948 0
M  V30 736 H 69.8457 2.40041 3.09657 0
M  V30 737 H 71.5427 2.74925 2.9192 0
M  V30 738 H 68.1327 3.81274 1.95775 0
M  V30 739 H 72.3167 4.71048 1.56294 0
M  V30 740 H 67.5727 6.02444 1.04264 0
M  V30 741 H 71.7467 6.93301 0.656225 0
M  V30 742 H 69.3737 7.59197 0.390351 0
M  V30 743 N 70.9488 -0.749086 1.3866 0
M  V30 744 C 72.1948 -1.51056 1.35314 0
M  V30 745 C 72.5278 -1.94121 -0.0553751 0
M  V30 746 O 71.8028 -1.65763 -1.01749 0
M  V30 747 C 72.0858 -2.76003 2.31288 0
M  V30 748 C 71.9388 -2.39047 3.8102 0
M  V30 749 C 73.2578 -3.78046 2.2532 0
M  V30 750 H 70.3768 -0.547972 0.492844 0
M  V30 751 H 73.0188 -0.857628 1.69543 0
M  V30 752 H 71.1688 -3.31716 2.02229 0
M  V30 753 H 72.8408 -1.89074 4.20771 0
M  V30 754 H 71.0838 -1.71449 3.98482 0
M  V30 755 H 71.7548 -3.28462 4.4364 0
M  V30 756 H 74.2308 -3.31884 2.50983 0
M  V30 757 H 73.1068 -4.63159 2.94576 0
M  V30 758 H 73.3678 -4.23957 1.25352 0
M  V30 759 N 72.4269 -1.23603 -0.977757 0
M  V30 760 C 73.3369 -1.03632 -2.1047 0
M  V30 761 C 74.3529 0.0199435 -1.73989 0
M  V30 762 O 75.5289 -0.176076 -2.00629 0
M  V30 763 C 72.5939 -0.63276 -3.40877 0
M  V30 764 C 71.6549 -1.76437 -3.91367 0
M  V30 765 C 70.8879 -1.37997 -5.15551 0
M  V30 766 O 71.1109 -0.265357 -5.69782 0
M  V30 767 O 70.0449 -2.20201 -5.60174 0
M  V30 768 H 73.8709 -1.98086 -2.30208 0
M  V30 769 H 71.4559 -1.02332 -1.08851 0
M  V30 770 H 73.3379 -0.418761 -4.19314 0
M  V30 771 H 72.0129 0.282754 -3.22463 0
M  V30 772 H 70.9199 -2.03304 -3.14036 0
M  V30 773 H 72.2529 -2.6583 -4.14241 0
M  V30 774 N 73.905 1.17692 -1.04816 0
M  V30 775 C 75.151 1.88137 -0.75711 0
M  V30 776 C 75.484 1.80604 0.713841 0
M  V30 777 O 74.759 1.21146 1.52164 0
M  V30 778 C 75.042 3.38318 -1.2334 0
M  V30 779 C 74.895 3.54622 -2.76701 0
M  V30 780 C 76.214 4.32214 -0.829415 0
M  V30 781 H 73.333 0.683163 -0.27651 0
M  V30 782 H 75.975 1.38424 -1.30149 0
M  V30 783 H 74.125 3.80787 -0.770286 0
M  V30 784 H 75.797 3.21194 -3.31107 0
M  V30 785 H 74.04 2.97026 -3.16161 0
M  V30 786 H 74.711 4.60028 -3.05088 0
M  V30 787 H 77.187 3.97565 -1.22805 0
M  V30 788 H 76.063 5.35838 -1.19033 0
M  V30 789 H 76.324 4.41294 0.266891 0
M  V30 790 N 75.3831 0.828654 1.34056 0
M  V30 791 C 76.3311 0.242973 2.31327 0
M  V30 792 C 77.3251 -0.61944 1.57668 0
M  V30 793 O 78.5311 -0.51014 1.7262 0
M  V30 794 H 74.9061 0.059834 0.749616 0
M  V30 795 H 76.8771 1.07809 2.78244 0
M  V30 796 C 75.6261 -0.575733 3.429 0
M  V30 797 H 74.9491 0.0785582 3.99723 0
M  V30 798 H 76.3891 -0.951547 4.13185 0
M  V30 799 C 74.8481 -1.75044 2.87856 0
M  V30 800 O 75.3781 -2.84882 2.83205 0
M  V30 801 N 73.5841 -1.56903 2.44602 0
M  V30 802 H 73.1311 -0.675547 2.48584 0
M  V30 803 H 73.0891 -2.35652 2.08124 0
M  V30 804 N 76.8612 -1.46375 0.584142 0
M  V30 805 C 77.8082 -2.30323 -0.148286 0
M  V30 806 C 78.7782 -1.40703 -0.882713 0
M  V30 807 O 79.9632 -1.69651 -0.873099 0
M  V30 808 C 77.1032 -3.25196 -1.15507 0
M  V30 809 C 76.2162 -4.29915 -0.423943 0
M  V30 810 C 75.3512 -5.11914 -1.41838 0
M  V30 811 C 74.3902 -6.08381 -0.673736 0
M  V30 812 N 73.5272 -6.83242 -1.6163 0
M  V30 813 H 78.3672 -2.92427 0.573644 0
M  V30 814 H 75.9042 -1.44118 0.294703 0
M  V30 815 H 77.8622 -3.78646 -1.75166 0
M  V30 816 H 76.4922 -2.64898 -1.8447 0
M  V30 817 H 75.5442 -3.7931 0.287714 0
M  V30 818 H 76.8562 -4.98549 0.158128 0
M  V30 819 H 76.0102 -5.69648 -2.08773 0
M  V30 820 H 74.7492 -4.43243 -2.03438 0
M  V30 821 H 73.7542 -5.49799 0.00938483 0
M  V30 822 H 74.9792 -6.79071 -0.0631082 0
M  V30 823 H 72.9252 -6.1728 -2.22038 0
M  V30 824 H 72.8422 -7.48144 -1.08707 0
M  V30 825 H 74.1102 -7.45534 -2.27596 0
M  V30 826 N 78.3393 -0.321999 -1.54275 0
M  V30 827 C 79.2493 0.553631 -2.27974 0
M  V30 828 C 80.2653 1.13054 -1.32268 0
M  V30 829 O 81.4413 1.15084 -1.6528 0
M  V30 830 C 78.5063 1.69927 -3.02201 0
M  V30 831 C 77.5673 1.15433 -4.1349 0
M  V30 832 C 76.8003 2.24537 -4.84168 0
M  V30 833 O 77.0233 3.44852 -4.5435 0
M  V30 834 O 75.9573 1.90044 -5.7111 0
M  V30 835 H 79.7833 -0.0448345 -3.03667 0
M  V30 836 H 77.3683 -0.0877418 -1.49142 0
M  V30 837 H 79.2503 2.3663 -3.48689 0
M  V30 838 H 77.9253 2.28395 -2.29385 0
M  V30 839 H 76.8323 0.452436 -3.71354 0
M  V30 840 H 78.1653 0.614805 -4.88345 0
M  V30 841 N 79.8174 1.5752 -0.0501392 0
M  V30 842 C 80.7474 2.14502 0.922566 0
M  V30 843 C 81.7284 1.06642 1.3252 0
M  V30 844 O 82.9134 1.34577 1.4001 0
M  V30 845 C 80.0434 2.68916 2.19776 0
M  V30 846 C 78.9974 3.8175 1.93523 0
M  V30 847 C 78.3234 4.22677 3.27487 0
M  V30 848 C 79.6234 5.06932 1.25765 0
M  V30 849 H 81.3174 2.9603 0.447952 0
M  V30 850 H 78.8634 1.42401 0.214024 0
M  V30 851 H 80.8164 3.07419 2.88222 0
M  V30 852 H 79.5404 1.84578 2.69441 0
M  V30 853 H 78.1994 3.43718 1.27489 0
M  V30 854 H 77.8474 3.35291 3.74952 0
M  V30 855 H 77.5474 4.98725 3.1072 0
M  V30 856 H 79.0714 4.63779 3.97166 0
M  V30 857 H 80.4854 5.42888 1.84244 0
M  V30 858 H 78.8824 5.88116 1.19328 0
M  V30 859 H 79.9524 4.84337 0.233536 0
M  V30 860 N 81.2955 -0.223234 1.56011 0
M  V30 861 C 82.2255 -1.27988 1.95298 0
M  V30 862 C 83.2065 -1.48976 0.820979 0
M  V30 863 O 84.3915 -1.61188 1.08315 0
M  V30 864 C 81.5215 -2.63 2.26822 0
M  V30 865 C 80.4755 -2.56671 3.42497 0
M  V30 866 C 79.8015 -3.95697 3.59622 0
M  V30 867 C 81.1015 -2.11601 4.77517 0
M  V30 868 H 82.7955 -0.953525 2.8381 0
M  V30 869 H 80.3415 -0.457244 1.36548 0
M  V30 870 H 82.2945 -3.37077 2.52898 0
M  V30 871 H 81.0185 -2.9732 1.35161 0
M  V30 872 H 79.6775 -1.85051 3.16467 0
M  V30 873 H 79.3255 -4.27322 2.6534 0
M  V30 874 H 79.0255 -3.92345 4.37424 0
M  V30 875 H 80.5495 -4.71438 3.88044 0
M  V30 876 H 81.9635 -2.7542 5.02809 0
M  V30 877 H 80.3605 -2.19311 5.5859 0
M  V30 878 H 81.4305 -1.06824 4.72987 0
M  V30 879 N 82.7736 -1.49793 -0.48987 0
M  V30 880 C 84.0206 -1.59841 -1.24327 0
M  V30 881 C 84.3486 -0.290135 -1.92324 0
M  V30 882 O 83.6036 0.722749 -1.81865 0
M  V30 883 C 83.9026 -2.71488 -2.32441 0
M  V30 884 C 83.5686 -4.12614 -1.81826 0
M  V30 885 C 82.2306 -4.51017 -1.67742 0
M  V30 886 C 84.5826 -5.00892 -1.4407 0
M  V30 887 C 81.9106 -5.75459 -1.14297 0
M  V30 888 C 84.2626 -6.25863 -0.920742 0
M  V30 889 C 82.9266 -6.63086 -0.766383 0
M  V30 890 H 82.1966 -0.584899 -0.454944 0
M  V30 891 H 84.8436 -1.83663 -0.542215 0
M  V30 892 H 83.1486 -2.4168 -3.0838 0
M  V30 893 H 84.8456 -2.76469 -2.90458 0
M  V30 894 H 81.4356 -3.82307 -1.93751 0
M  V30 895 H 85.6196 -4.7187 -1.53794 0
M  V30 896 H 80.8756 -6.02989 -1.01068 0
M  V30 897 H 85.0496 -6.9364 -0.619448 0
M  V30 898 H 82.6766 -7.59393 -0.350083 0
M  V30 899 N 84.2517 0.741722 -1.39055 0
M  V30 900 C 85.5287 1.49252 -1.26425 0
M  V30 901 C 85.9087 2.10705 0.129144 0
M  V30 902 O 85.2567 1.98045 1.13976 0
M  V30 903 C 85.4667 2.54934 -2.38347 0
M  V30 904 C 86.8147 3.21506 -2.77343 0
M  V30 905 O 87.8387 2.65245 -2.37747 0
M  V30 906 O 86.6977 4.23294 -3.45665 0
M  V30 907 H 83.7917 0.662451 -0.495064 0
M  V30 908 H 86.3377 0.776121 -1.50912 0
M  V30 909 H 85.1097 2.07857 -3.31529 0
M  V30 910 H 84.7327 3.34141 -2.15489 0
M  V30 911 N 85.7298 1.2412 0.971189 0
M  V30 912 C 87.1458 1.00584 1.23916 0
M  V30 913 C 87.3458 -0.287481 1.99439 0
M  V30 914 O 86.4018 -1.00454 2.31658 0
M  V30 915 C 87.7148 2.21864 2.0297 0
M  V30 916 C 89.2628 2.26452 2.16076 0
M  V30 917 C 89.7378 3.47343 2.98524 0
M  V30 918 N 91.2288 3.47639 3.06107 0
M  V30 919 C 91.9638 4.37837 3.70251 0
M  V30 920 N 91.4598 5.38286 4.36142 0
M  V30 921 N 93.2528 4.25558 3.67228 0
M  V30 922 H 85.4038 2.07236 0.465499 0
M  V30 923 H 87.6668 0.909236 0.268315 0
M  V30 924 H 87.3728 3.15771 1.54861 0
M  V30 925 H 87.2468 2.23698 3.03709 0
M  V30 926 H 89.6338 1.33078 2.6339 0
M  V30 927 H 89.7148 2.28645 1.14696 0
M  V30 928 H 89.3588 4.41029 2.51905 0
M  V30 929 H 89.2888 3.42393 4.00093 0
M  V30 930 H 91.7798 2.74966 2.59233 0
M  V30 931 H 92.0928 6.03352 4.82894 0
M  V30 932 H 90.4378 5.42176 4.34822 0
M  V30 933 H 93.6288 3.46322 3.14927 0
M  V30 934 H 93.8018 4.96054 4.16935 0
M  V30 935 N 87.2079 -1.17134 1.05439 0
M  V30 936 C 88.1709 -2.19439 0.661764 0
M  V30 937 C 89.1709 -1.58199 -0.288042 0
M  V30 938 O 90.3609 -1.74053 -0.0715803 0
M  V30 939 C 87.4929 -3.40889 -0.0276209 0
M  V30 940 H 88.6859 -2.55688 1.56728 0
M  V30 941 H 86.2389 -1.31259 0.848567 0
M  V30 942 H 86.9739 -3.10187 -0.94629 0
M  V30 943 H 86.7589 -3.86586 0.655238 0
M  V30 944 H 88.2489 -4.16603 -0.288342 0
M  V30 945 N 88.686 -0.835752 -1.33615 0
M  V30 946 C 89.596 -0.269088 -2.33052 0
M  V30 947 C 90.612 0.603251 -1.63208 0
M  V30 948 O 91.788 0.508112 -1.94885 0
M  V30 949 C 88.853 0.549091 -3.42324 0
M  V30 950 C 87.914 -0.347156 -4.27894 0
M  V30 951 C 87.147 0.43207 -5.31948 0
M  V30 952 O 87.37 1.66409 -5.45586 0
M  V30 953 O 86.304 -0.192298 -6.01593 0
M  V30 954 H 90.13 -1.09243 -2.83372 0
M  V30 955 H 87.715 -0.598198 -1.36901 0
M  V30 956 H 89.597 1.01414 -4.09015 0
M  V30 957 H 88.272 1.34955 -2.94226 0
M  V30 958 H 87.179 -0.859979 -3.64081 0
M  V30 959 H 88.512 -1.1123 -4.79467 0
M  V30 960 N 90.1641 1.46063 -0.591896 0
M  V30 961 C 91.4121 2.01938 -0.0808391 0
M  V30 962 C 91.7331 1.46475 1.28725 0
M  V30 963 O 91.0031 0.652944 1.84698 0
M  V30 964 H 89.5831 0.746516 -0.0268938 0
M  V30 965 H 92.2451 1.79055 -0.769752 0
M  V30 966 H 91.3411 3.12094 -0.0187578 0
M  V30 967 N 91.6422 0.330177 1.54103 0
M  V30 968 C 92.8912 -0.271336 1.99867 0
M  V30 969 C 93.2042 -1.52723 1.22209 0
M  V30 970 O 94.4102 -2.20515 1.58383 0
M  V30 971 C 92.8662 -0.534032 3.55916 0
M  V30 972 C 92.4742 0.705193 4.42415 0
M  V30 973 C 94.2182 -1.09514 4.1013 0
M  V30 974 C 92.1252 0.414035 5.89949 0
M  V30 975 H 91.0552 -0.105166 0.74663 0
M  V30 976 H 93.7062 0.443429 1.78062 0
M  V30 977 H 92.0882 -1.30915 3.73734 0
M  V30 978 H 93.2622 1.4804 4.36372 0
M  V30 979 H 91.5772 1.18698 3.99124 0
M  V30 980 H 94.1742 -1.3277 5.17954 0
M  V30 981 H 94.5172 -2.04656 3.62521 0
M  V30 982 H 95.0502 -0.381038 3.95971 0
M  V30 983 H 91.7892 1.33481 6.41766 0
M  V30 984 H 91.3092 -0.323336 5.98928 0
M  V30 985 H 92.9882 0.0263105 6.46995 0
M  V30 986 N 93.1203 -1.57491 0.0584922 0
M  V30 987 C 94.3683 -1.92597 -0.612436 0
M  V30 988 C 94.6893 -0.938162 -1.70949 0
M  V30 989 O 93.9593 0.0158301 -1.95894 0
M  V30 990 H 92.5393 -0.710964 -0.229214 0
M  V30 991 H 95.2013 -1.94571 0.113218 0
M  V30 992 H 94.2973 -2.94038 -1.04633 0
M  V30 993 N 94.5984 0.214957 -1.56127 0
M  V30 994 C 96.0144 0.564948 -1.49267 0
M  V30 995 C 96.2144 1.86827 -0.754838 0
M  V30 996 O 95.2704 2.50745 -0.297198 0
M  V30 997 C 96.5834 0.638071 -2.93852 0
M  V30 998 C 98.1314 0.728253 -3.0441 0
M  V30 999 C 98.6064 0.832663 -4.50367 0
M  V30 1000 N 100.097 0.896712 -4.54437 0
M  V30 1001 C 100.832 0.997324 -5.6466 0
M  V30 1002 N 100.328 1.06147 -6.8462 0
M  V30 1003 N 102.121 1.03297 -5.52527 0
M  V30 1004 H 94.2724 -0.640211 -2.02522 0
M  V30 1005 H 96.5354 -0.225507 -0.920788 0
M  V30 1006 H 96.2414 -0.250126 -3.50809 0
M  V30 1007 H 96.1154 1.49947 -3.46115 0
M  V30 1008 H 98.5024 1.60689 -2.47514 0
M  V30 1009 H 98.5834 -0.158952 -2.55306 0
M  V30 1010 H 98.2274 -0.0415417 -5.07883 0
M  V30 1011 H 98.1574 1.73538 -4.97184 0
M  V30 1012 H 100.648 0.857188 -3.6805 0
M  V30 1013 H 100.961 1.1382 -7.64372 0
M  V30 1014 H 99.3064 1.03049 -6.87318 0
M  V30 1015 H 102.497 0.979558 -4.57736 0
M  V30 1016 H 102.67 1.10793 -6.38458 0
M  V30 1017 N 96.0765 1.50051 0.48192 0
M  V30 1018 C 97.4925 1.37237 0.814756 0
M  V30 1019 C 97.6925 0.420109 1.97072 0
M  V30 1020 O 96.7485 -0.141246 2.52105 0
M  V30 1021 C 98.0615 2.78375 1.13701 0
M  V30 1022 C 99.6095 2.87213 1.2441 0
M  V30 1023 C 100.084 4.29161 1.59954 0
M  V30 1024 N 101.575 4.32061 1.66967 0
M  V30 1025 C 102.31 5.38879 1.95952 0
M  V30 1026 N 101.806 6.55918 2.23031 0
M  V30 1027 N 103.599 5.26312 1.97363 0
M  V30 1028 H 95.7505 2.10546 -0.28005 0
M  V30 1029 H 98.0135 0.945921 -0.0627454 0
M  V30 1030 H 97.7195 3.49845 0.360787 0
M  V30 1031 H 97.5935 3.14941 2.07586 0
M  V30 1032 H 99.9805 2.15969 2.01101 0
M  V30 1033 H 100.061 2.54204 0.285299 0
M  V30 1034 H 99.7055 5.00938 0.838067 0
M  V30 1035 H 99.6355 4.59648 2.56966 0
M  V30 1036 H 102.126 3.47661 1.48123 0
M  V30 1037 H 102.439 7.33139 2.44391 0
M  V30 1038 H 100.784 6.59112 2.20447 0
M  V30 1039 H 103.975 4.33876 1.75697 0
M  V30 1040 H 104.148 6.09649 2.19618 0
M  V30 1041 N 97.5546 -0.734337 1.39446 0
M  V30 1042 C 98.4846 -1.86155 1.40955 0
M  V30 1043 C 99.4656 -1.67898 0.272827 0
M  V30 1044 O 100.651 -1.88207 0.478743 0
M  V30 1045 C 97.7806 -3.23912 1.25294 0
M  V30 1046 C 96.7346 -3.56808 2.36373 0
M  V30 1047 C 96.0606 -4.93508 2.058 0
M  V30 1048 C 97.3606 -3.59713 3.78687 0
M  V30 1049 H 99.0546 -1.8515 2.35287 0
M  V30 1050 H 96.6006 -0.889367 1.13253 0
M  V30 1051 H 98.5536 -4.02443 1.2497 0
M  V30 1052 H 97.2776 -3.25446 0.274308 0
M  V30 1053 H 95.9366 -2.80606 2.35914 0
M  V30 1054 H 95.5846 -4.91623 1.06374 0
M  V30 1055 H 95.2846 -5.16486 2.80208 0
M  V30 1056 H 96.8086 -5.74396 2.07128 0
M  V30 1057 H 98.2226 -4.2832 3.81071 0
M  V30 1058 H 96.6196 -3.94209 4.52459 0
M  V30 1059 H 97.6896 -2.59504 4.09617 0
M  V30 1060 N 99.0327 -1.24633 -0.964593 0
M  V30 1061 C 99.9807 -1.03917 -2.08096 0
M  V30 1062 C 100.975 0.0268581 -1.69379 0
M  V30 1063 O 102.181 -0.127952 -1.79545 0
M  V30 1064 H 98.5557 -0.319044 -0.680966 0
M  V30 1065 H 100.527 -1.98581 -2.22729 0
M  V30 1066 C 99.2757 -0.663983 -3.41301 0
M  V30 1067 H 98.5987 -1.47605 -3.71555 0
M  V30 1068 H 100.039 -0.558663 -4.20303 0
M  V30 1069 C 98.4977 0.629169 -3.30973 0
M  V30 1070 O 99.0277 1.67404 -3.65156 0
M  V30 1071 N 97.2337 0.611057 -2.84103 0
M  V30 1072 H 96.7807 -0.239593 -2.56483 0
M  V30 1073 H 96.7387 1.47647 -2.77575 0
M  V30 1074 N 100.511 1.16574 -1.06058 0
M  V30 1075 C 101.76 1.86385 -0.770944 0
M  V30 1076 C 102.073 1.82448 0.705129 0
M  V30 1077 O 103.279 2.47815 1.10905 0
M  V30 1078 C 101.735 3.34466 -1.32893 0
M  V30 1079 C 101.343 3.46883 -2.83507 0
M  V30 1080 C 103.087 4.09548 -1.11672 0
M  V30 1081 C 100.994 4.89036 -3.32562 0
M  V30 1082 H 99.9238 0.698181 -0.284709 0
M  V30 1083 H 102.575 1.31583 -1.27899 0
M  V30 1084 H 100.957 3.88859 -0.748662 0
M  V30 1085 H 102.131 3.02663 -3.47465 0
M  V30 1086 H 100.446 2.85232 -3.03368 0
M  V30 1087 H 103.043 5.14434 -1.45814 0
M  V30 1088 H 103.386 4.16264 -0.0549535 0
M  V30 1089 H 103.919 3.61387 -1.66265 0
M  V30 1090 H 100.658 4.87499 -4.38207 0
M  V30 1091 H 100.178 5.3389 -2.73351 0
M  V30 1092 H 101.857 5.57843 -3.2775 0
M  V30 1093 N 101.989 0.842826 1.3317 0
M  V30 1094 C 103.4 0.496651 1.79973 0
M  V30 1095 C 103.751 -0.984641 1.69703 0
M  V30 1096 O 102.876 -1.76743 1.24863 0
M  V30 1097 C 103.471 0.894727 3.26772 0
M  V30 1098 C 102.03 0.600629 3.71577 0
M  V30 1099 C 101.177 1.10091 2.5451 0
M  V30 1100 H 104.128 1.03116 1.20635 0
M  V30 1101 H 104.149 0.206347 3.7994 0
M  V30 1102 H 103.661 1.97287 3.34215 0
M  V30 1103 H 101.762 -0.467284 3.69658 0
M  V30 1104 H 101.875 1.15863 4.64879 0
M  V30 1105 H 100.239 0.52162 2.49301 0
M  V30 1106 H 101.022 2.18591 2.64713 0
M  V30 1107 N 103.467 -1.45747 0.599634 0
M  V30 1108 C 104.692 -2.07178 0.0960198 0
M  V30 1109 C 105.117 -1.44268 -1.207 0
M  V30 1110 O 104.475 -0.532503 -1.73303 0
M  V30 1111 C 104.523 -3.60579 -0.0385348 0
M  V30 1112 O 103.627 -3.97713 -1.0908 0
M  V30 1113 H 102.968 -0.660251 0.0704593 0
M  V30 1114 H 105.498 -1.87124 0.827385 0
M  V30 1115 H 105.508 -4.07298 -0.239304 0
M  V30 1116 H 104.183 -4.05756 0.912947 0
M  V30 1117 H 102.76 -3.62678 -0.867135 0
M  V30 1118 N 104.945 -0.338344 -1.53925 0
M  V30 1119 C 106.193 0.259245 -2.0043 0
M  V30 1120 C 106.514 1.51484 -1.22791 0
M  V30 1121 O 105.784 1.93037 -0.33368 0
M  V30 1122 H 104.364 0.0987845 -0.740439 0
M  V30 1123 H 107.026 -0.458302 -1.89435 0
M  V30 1124 H 106.122 0.505334 -3.07982 0
M  V30 1125 N 106.423 1.57458 -0.0668435 0
M  V30 1126 C 107.651 1.97624 0.612565 0
M  V30 1127 C 108.066 0.94502 1.63447 0
M  V30 1128 O 107.423 -0.0689276 1.8237 0
M  V30 1129 C 107.474 3.37869 1.28555 0
M  V30 1130 O 107.195 4.3704 0.304557 0
M  V30 1131 C 108.696 3.92882 2.05325 0
M  V30 1132 H 105.916 0.650045 0.166381 0
M  V30 1133 H 108.46 2.04035 -0.137782 0
M  V30 1134 H 106.615 3.3256 1.98702 0
M  V30 1135 H 107.029 5.18565 0.786779 0
M  V30 1136 H 108.503 4.93247 2.47812 0
M  V30 1137 H 108.98 3.29156 2.9078 0
M  V30 1138 H 109.586 4.01577 1.40056 0
M  V30 1139 N 107.901 -0.206675 1.56239 0
M  V30 1140 C 108.864 -1.23976 1.92776 0
M  V30 1141 C 109.864 -1.39041 0.807729 0
M  V30 1142 O 111.054 -1.37051 1.0753 0
M  V30 1143 C 108.186 -2.61112 2.19165 0
M  V30 1144 H 109.379 -0.927764 2.85189 0
M  V30 1145 H 106.932 -0.447718 1.4975 0
M  V30 1146 H 107.667 -2.97386 1.29352 0
M  V30 1147 H 107.452 -2.51552 3.00772 0
M  V30 1148 H 108.942 -3.35633 2.48476 0
M  V30 1149 N 109.379 -1.50304 -0.473955 0
M  V30 1150 C 110.342 -1.6841 -1.55469 0
M  V30 1151 C 111.342 -0.554905 -1.50922 0
M  V30 1152 O 112.532 -0.821882 -1.53593 0
M  V30 1153 C 109.664 -1.70667 -2.95102 0
M  V30 1154 H 110.857 -2.64828 -1.40733 0
M  V30 1155 H 108.41 -1.39742 -0.700132 0
M  V30 1156 H 109.145 -0.75932 -3.15285 0
M  V30 1157 H 108.93 -2.52698 -2.9981 0
M  V30 1158 H 110.42 -1.8664 -3.73571 0
M  V30 1159 N 110.857 0.726932 -1.39834 0
M  V30 1160 C 112.273 1.03354 -1.21615 0
M  V30 1161 C 112.473 2.01327 -0.08338 0
M  V30 1162 O 111.529 2.46158 0.56238 0
M  V30 1163 C 112.842 1.58811 -2.55342 0
M  V30 1164 C 114.39 1.70851 -2.62257 0
M  V30 1165 C 114.865 2.29716 -3.96225 0
M  V30 1166 N 116.356 2.37116 -3.97907 0
M  V30 1167 C 117.091 2.83619 -4.98345 0
M  V30 1168 N 116.587 3.29958 -6.09179 0
M  V30 1169 N 118.38 2.82901 -4.8572 0
M  V30 1170 H 110.531 0.0773069 -2.12259 0
M  V30 1171 H 112.794 0.0969102 -0.943034 0
M  V30 1172 H 112.5 0.942855 -3.38826 0
M  V30 1173 H 112.374 2.57502 -2.75632 0
M  V30 1174 H 114.761 2.34497 -1.79152 0
M  V30 1175 H 114.842 0.707913 -2.45809 0
M  V30 1176 H 114.486 1.66696 -4.79765 0
M  V30 1177 H 114.416 3.30469 -4.09997 0
M  V30 1178 H 116.907 2.04374 -3.17868 0
M  V30 1179 H 117.22 3.63976 -6.8172 0
M  V30 1180 H 115.565 3.27946 -6.12761 0
M  V30 1181 H 118.756 2.46027 -3.98231 0
M  V30 1182 H 118.929 3.18827 -5.6414 0
M  V30 1183 N 112.336 1.25143 0.95797 0
M  V30 1184 C 113.583 1.09692 1.70217 0
M  V30 1185 C 113.911 -0.362654 1.91089 0
M  V30 1186 O 113.166 -1.28386 1.47701 0
M  V30 1187 C 113.465 1.79272 3.09187 0
M  V30 1188 C 113.131 3.29196 3.08125 0
M  V30 1189 C 111.793 3.70096 3.07543 0
M  V30 1190 C 114.145 4.24995 3.0171 0
M  V30 1191 C 111.473 5.05213 2.9829 0
M  V30 1192 C 113.825 5.60132 2.93999 0
M  V30 1193 C 112.489 6.00365 2.9175 0
M  V30 1194 H 111.759 0.401393 0.622868 0
M  V30 1195 H 114.406 1.55372 1.11945 0
M  V30 1196 H 112.711 1.26014 3.70982 0
M  V30 1197 H 114.408 1.64773 3.65583 0
M  V30 1198 H 110.998 2.96651 3.09348 0
M  V30 1199 H 115.182 3.9439 3.01281 0
M  V30 1200 H 110.438 5.35569 2.94916 0
M  V30 1201 H 114.612 6.3406 2.87996 0
M  V30 1202 H 112.239 7.05023 2.84336 0
M  V30 1203 N 113.814 -1.1601 1.06675 0
M  V30 1204 C 114.724 -2.24156 0.692179 0
M  V30 1205 C 115.74 -1.71507 -0.293513 0
M  V30 1206 O 116.916 -2.009 -0.141861 0
M  V30 1207 C 113.981 -3.46587 0.0884131 0
M  V30 1208 C 113.042 -4.14257 1.12646 0
M  V30 1209 C 112.275 -5.30844 0.551416 0
M  V30 1210 O 112.498 -5.66858 -0.634656 0
M  V30 1211 O 111.432 -5.87848 1.29298 0
M  V30 1212 H 115.258 -2.58513 1.59388 0
M  V30 1213 H 112.843 -1.23599 0.83926 0
M  V30 1214 H 114.725 -4.20679 -0.246361 0
M  V30 1215 H 113.4 -3.13994 -0.786712 0
M  V30 1216 H 112.307 -3.42118 1.51348 0
M  V30 1217 H 113.64 -4.50914 1.97325 0
M  V30 1218 N 115.292 -0.849877 -1.32721 0
M  V30 1219 C 116.703 -0.506188 -1.79707 0
M  V30 1220 C 117.054 0.975627 -1.70223 0
M  V30 1221 O 116.179 1.76078 -1.25799 0
M  V30 1222 C 116.774 -0.912044 -3.26293 0
M  V30 1223 C 115.333 -0.620326 -3.71253 0
M  V30 1224 C 114.48 -1.11439 -2.53922 0
M  V30 1225 H 117.431 -1.03754 -1.20087 0
M  V30 1226 H 117.452 -0.226493 -3.79825 0
M  V30 1227 H 116.964 -1.99057 -3.33164 0
M  V30 1228 H 115.065 0.447674 -3.69901 0
M  V30 1229 H 115.178 -1.18327 -4.64258 0
M  V30 1230 H 113.542 -0.534834 -2.49021 0
M  V30 1231 H 114.325 -2.19992 -2.6355 0
M  V30 1232 N 116.77 1.45427 -0.607355 0
M  V30 1233 C 118.018 2.01841 -0.102253 0
M  V30 1234 C 118.339 1.47832 1.27164 0
M  V30 1235 O 117.609 0.672497 1.83995 0
M  V30 1236 H 116.189 0.746188 -0.0348101 0
M  V30 1237 H 118.851 1.78229 -0.7887 0
M  V30 1238 H 117.947 3.12057 -0.0518585 0
M  V30 1239 N 118.248 0.346503 1.53744 0
M  V30 1240 C 119.158 -0.517293 2.28826 0
M  V30 1241 C 120.174 -1.10935 1.3405 0
M  V30 1242 O 121.35 -1.1244 1.6709 0
M  V30 1243 C 118.415 -1.65098 3.04866 0
M  V30 1244 C 117.476 -1.0884 4.15274 0
M  V30 1245 C 116.709 -2.16806 4.87679 0
M  V30 1246 O 116.932 -3.3758 4.59778 0
M  V30 1247 O 115.866 -1.80934 5.74061 0
M  V30 1248 H 119.692 0.0931396 3.03557 0
M  V30 1249 H 117.277 0.111458 1.48984 0
M  V30 1250 H 119.159 -2.31053 3.5241 0
M  V30 1251 H 117.834 -2.24717 2.32989 0
M  V30 1252 H 116.741 -0.3933 3.72027 0
M  V30 1253 H 118.074 -0.537036 4.89261 0
M  V30 1254 N 119.726 -1.57421 0.075193 0
M  V30 1255 C 120.636 -2.1642 -0.905511 0
M  V30 1256 C 121.652 -1.12828 -1.32461 0
M  V30 1257 O 122.828 -1.45109 -1.39661 0
M  V30 1258 C 119.893 -2.71693 -2.15369 0
M  V30 1259 C 118.954 -3.90171 -1.79068 0
M  V30 1260 C 118.187 -4.42798 -2.97936 0
M  V30 1261 O 118.41 -3.94416 -4.12058 0
M  V30 1262 O 117.344 -5.34085 -2.77555 0
M  V30 1263 H 121.17 -3.00588 -0.433626 0
M  V30 1264 H 118.755 -1.48664 -0.148067 0
M  V30 1265 H 120.637 -3.07104 -2.88557 0
M  V30 1266 H 119.312 -1.90582 -2.61649 0
M  V30 1267 H 118.219 -3.59606 -1.03122 0
M  V30 1268 H 119.552 -4.72584 -1.37569 0
M  V30 1269 N 121.204 0.198386 -1.56346 0
M  V30 1270 C 122.137 1.27381 -1.89339 0
M  V30 1271 C 123.115 1.44106 -0.753134 0
M  V30 1272 O 124.299 1.59549 -1.00381 0
M  V30 1273 C 121.426 2.6409 -2.12071 0
M  V30 1274 C 120.472 2.64253 -3.34772 0
M  V30 1275 S 121.305 2.16013 -4.89999 0
M  V30 1276 C 122.461 3.54553 -5.15794 0
M  V30 1277 H 122.694 0.992058 -2.8026 0
M  V30 1278 H 120.227 0.401726 -1.49082 0
M  V30 1279 H 122.185 3.42786 -2.2585 0
M  V30 1280 H 120.846 2.89478 -1.21906 0
M  V30 1281 H 120.039 3.64768 -3.47794 0
M  V30 1282 H 119.641 1.93637 -3.1997 0
M  V30 1283 H 121.933 4.50396 -5.06112 0
M  V30 1284 H 122.876 3.46428 -6.1757 0
M  V30 1285 H 123.284 3.49313 -4.43442 0
M  V30 1286 N 122.682 1.50554 0.465978 0
M  V30 1287 C 123.592 1.72585 1.58907 0
M  V30 1288 C 124.608 0.60911 1.6299 0
M  V30 1289 O 125.784 0.88804 1.80765 0
M  V30 1290 C 122.849 1.81995 2.95091 0
M  V30 1291 C 121.91 3.05751 3.01355 0
M  V30 1292 C 121.143 3.14702 4.31043 0
M  V30 1293 O 121.366 2.30313 5.21835 0
M  V30 1294 O 120.3 4.07468 4.43005 0
M  V30 1295 H 124.126 2.67799 1.43239 0
M  V30 1296 H 121.711 1.34711 0.646013 0
M  V30 1297 H 123.593 1.90335 3.75966 0
M  V30 1298 H 122.268 0.899659 3.10947 0
M  V30 1299 H 121.175 3.02908 2.19539 0
M  V30 1300 H 122.508 3.97375 2.90437 0
M  V30 1301 N 124.16 -0.719506 1.40217 0
M  V30 1302 C 125.406 -1.48152 1.38488 0
M  V30 1303 C 125.739 -1.94195 -0.0141867 0
M  V30 1304 O 125.014 -1.67884 -0.982096 0
M  V30 1305 C 125.297 -2.71035 2.37091 0
M  V30 1306 C 125.15 -2.30912 3.86005 0
M  V30 1307 C 126.469 -3.73182 2.33288 0
M  V30 1308 H 123.588 -0.537395 0.504357 0
M  V30 1309 H 126.23 -0.821472 1.71324 0
M  V30 1310 H 124.38 -3.27352 2.0922 0
M  V30 1311 H 126.052 -1.80107 4.24687 0
M  V30 1312 H 124.295 -1.62958 4.02029 0
M  V30 1313 H 124.966 -3.18978 4.50508 0
M  V30 1314 H 127.442 -3.26485 2.57966 0
M  V30 1315 H 126.318 -4.56806 3.04334 0
M  V30 1316 H 126.579 -4.21202 1.34317 0
M  V30 1317 N 125.638 -1.25649 -0.95132 0
M  V30 1318 C 126.548 -1.08073 -2.08224 0
M  V30 1319 C 127.564 -0.0169666 -1.73992 0
M  V30 1320 O 128.74 -0.218593 -2.0021 0
M  V30 1321 C 125.805 -0.704922 -3.39458 0
M  V30 1322 C 124.866 -1.84699 -3.87537 0
M  V30 1323 C 124.099 -1.48902 -5.12508 0
M  V30 1324 O 124.322 -0.386156 -5.69091 0
M  V30 1325 O 123.256 -2.32033 -5.55378 0
M  V30 1326 H 127.082 -2.02924 -2.25954 0
M  V30 1327 H 124.667 -1.04618 -1.06656 0
M  V30 1328 H 126.549 -0.507609 -4.18332 0
M  V30 1329 H 125.224 0.214291 -3.2299 0
M  V30 1330 H 124.131 -2.09919 -3.09653 0
M  V30 1331 H 125.464 -2.74557 -4.08509 0
M  V30 1332 N 127.117 1.15442 -1.07289 0
M  V30 1333 C 128.047 2.22312 -0.714107 0
M  V30 1334 C 129.028 1.67467 0.298155 0
M  V30 1335 O 130.213 1.93445 0.171048 0
M  V30 1336 C 127.343 3.47124 -0.110448 0
M  V30 1337 C 126.297 4.14926 -1.04979 0
M  V30 1338 C 125.623 5.33807 -0.308924 0
M  V30 1339 C 126.923 4.64762 -2.38314 0
M  V30 1340 H 128.617 2.5258 -1.6076 0
M  V30 1341 H 126.163 1.21404 -0.77441 0
M  V30 1342 H 128.116 4.21124 0.152482 0
M  V30 1343 H 126.84 3.16187 0.81812 0
M  V30 1344 H 125.499 3.42866 -1.29764 0
M  V30 1345 H 125.147 4.99126 0.623084 0
M  V30 1346 H 124.847 5.80113 -0.935036 0
M  V30 1347 H 126.371 6.10576 -0.0537771 0
M  V30 1348 H 127.785 5.30292 -2.1786 0
M  V30 1349 H 126.182 5.21728 -2.96514 0
M  V30 1350 H 127.252 3.80434 -3.00663 0
M  V30 1351 N 128.595 0.856903 1.32268 0
M  V30 1352 C 129.823 0.475439 2.01363 0
M  V30 1353 C 130.238 -0.928486 1.64392 0
M  V30 1354 O 129.595 -1.60624 0.866387 0
M  V30 1355 C 129.646 0.607545 3.56358 0
M  V30 1356 O 129.367 1.95617 3.92002 0
M  V30 1357 C 130.868 0.225382 4.42727 0
M  V30 1358 H 128.088 0.186636 0.644521 0
M  V30 1359 H 130.632 1.15446 1.68797 0
M  V30 1360 H 128.787 -0.0237719 3.87393 0
M  V30 1361 H 129.201 1.95455 4.86721 0
M  V30 1362 H 130.675 0.368813 5.50767 0
M  V30 1363 H 131.152 -0.834369 4.31202 0
M  V30 1364 H 131.758 0.831864 4.17085 0
M  V30 1365 N 130.073 -1.45103 0.615059 0
M  V30 1366 C 130.983 -2.34382 -0.101034 0
M  V30 1367 C 131.999 -1.51681 -0.852585 0
M  V30 1368 O 133.175 -1.8446 -0.808484 0
M  V30 1369 C 130.24 -3.29417 -1.08099 0
M  V30 1370 C 129.301 -4.28025 -0.330577 0
M  V30 1371 C 128.534 -5.1852 -1.26385 0
M  V30 1372 O 128.757 -5.12598 -2.50198 0
M  V30 1373 O 127.691 -5.97122 -0.756866 0
M  V30 1374 H 131.517 -2.97033 0.632855 0
M  V30 1375 H 129.102 -1.4461 0.375293 0
M  V30 1376 H 130.984 -3.87958 -1.6452 0
M  V30 1377 H 129.659 -2.69321 -1.79577 0
M  V30 1378 H 128.566 -3.73078 0.276283 0
M  V30 1379 H 129.899 -4.90997 0.343866 0
M  V30 1380 N 131.551 -0.354651 -1.53558 0
M  V30 1381 C 132.481 0.489091 -2.2832 0
M  V30 1382 C 133.462 1.09324 -1.30316 0
M  V30 1383 O 134.647 1.11255 -1.59173 0
M  V30 1384 C 131.777 1.63456 -3.0643 0
M  V30 1385 C 130.731 1.1582 -4.12031 0
M  V30 1386 C 130.057 2.39305 -4.7816 0
M  V30 1387 C 131.357 0.250731 -5.21698 0
M  V30 1388 H 133.051 -0.134614 -2.99097 0
M  V30 1389 H 130.597 -0.0661826 -1.43848 0
M  V30 1390 H 132.55 2.23136 -3.57475 0
M  V30 1391 H 131.274 2.28533 -2.33325 0
M  V30 1392 H 129.933 0.584146 -3.61916 0
M  V30 1393 H 129.581 3.02814 -4.01637 0
M  V30 1394 H 129.281 2.08109 -5.49513 0
M  V30 1395 H 130.805 2.99691 -5.31994 0
M  V30 1396 H 132.219 0.754695 -5.68311 0
M  V30 1397 H 130.616 0.0301468 -6.00092 0
M  V30 1398 H 131.686 -0.710125 -4.79672 0
M  V30 1399 N 133.029 1.57378 -0.0835403 0
M  V30 1400 C 134.277 1.93547 0.581718 0
M  V30 1401 C 134.598 0.96524 1.69435 0
M  V30 1402 O 133.868 0.0153369 1.95894 0
M  V30 1403 H 132.448 0.714521 0.217874 0
M  V30 1404 H 135.11 1.94366 -0.144158 0
M  V30 1405 H 134.206 2.95665 0.999423 0
M  V30 1406 N 134.507 -0.190092 1.56449 0
M  V30 1407 C 135.755 -0.907908 1.80559 0
M  V30 1408 C 136.076 -1.83583 0.657438 0
M  V30 1409 O 135.346 -1.93203 -0.323924 0
M  V30 1410 H 133.926 -0.338247 0.666032 0
M  V30 1411 H 136.588 -0.194403 1.93928 0
M  V30 1412 H 135.684 -1.49604 2.73907 0
M  V30 1413 N 135.985 -1.50799 -0.457987 0
M  V30 1414 C 136.933 -1.71162 -1.575 0
M  V30 1415 C 137.927 -0.577592 -1.59249 0
M  V30 1416 O 139.133 -0.758443 -1.63241 0
M  V30 1417 H 135.508 -0.540468 -0.522875 0
M  V30 1418 H 137.479 -2.64837 -1.37492 0
M  V30 1419 C 136.228 -1.83496 -2.95338 0
M  V30 1420 H 135.551 -2.70153 -2.94716 0
M  V30 1421 H 136.991 -2.01765 -3.72917 0
M  V30 1422 C 135.45 -0.589694 -3.31699 0
M  V30 1423 O 135.98 0.265163 -4.00824 0
M  V30 1424 N 134.186 -0.439845 -2.87252 0
M  V30 1425 H 133.733 -1.13655 -2.31172 0
M  V30 1426 H 133.691 0.392159 -3.11945 0
M  V30 1427 N 137.463 0.71206 -1.40597 0
M  V30 1428 C 138.879 1.02058 -1.22704 0
M  V30 1429 C 139.079 2.01228 -0.104729 0
M  V30 1430 O 138.135 2.4674 0.53624 0
M  V30 1431 C 139.448 1.56094 -2.57012 0
M  V30 1432 C 140.996 1.6806 -2.64054 0
M  V30 1433 C 141.471 2.25501 -3.9864 0
M  V30 1434 N 142.962 2.32882 -4.004 0
M  V30 1435 C 143.697 2.78317 -5.01325 0
M  V30 1436 N 143.193 3.23478 -6.12645 0
M  V30 1437 N 144.986 2.77733 -4.88693 0
M  V30 1438 H 137.137 0.0547896 -2.12329 0
M  V30 1439 H 139.4 0.0869027 -0.944008 0
M  V30 1440 H 139.106 0.906865 -3.39807 0
M  V30 1441 H 138.98 2.54564 -2.78347 0
M  V30 1442 H 141.367 2.32583 -1.81629 0
M  V30 1443 H 141.448 0.681802 -2.46546 0
M  V30 1444 H 141.092 1.61598 -4.81506 0
M  V30 1445 H 141.022 3.26102 -4.13479 0
M  V30 1446 H 143.513 2.00991 -3.20017 0
M  V30 1447 H 143.826 3.56725 -6.85542 0
M  V30 1448 H 142.171 3.21429 -6.16205 0
M  V30 1449 H 145.362 2.4179 -4.00818 0
M  V30 1450 H 145.535 3.12826 -5.67489 0
M  V30 1451 N 138.941 1.26152 0.944643 0
M  V30 1452 C 139.851 1.09176 2.07648 0
M  V30 1453 C 140.867 0.0261935 1.7398 0
M  V30 1454 O 142.043 0.229208 2.00091 0
M  V30 1455 C 139.108 0.722915 3.39079 0
M  V30 1456 C 138.169 1.86752 3.86552 0
M  V30 1457 C 137.402 1.51617 5.11711 0
M  V30 1458 O 137.625 0.416331 5.68879 0
M  V30 1459 O 136.559 2.34975 5.54139 0
M  V30 1460 H 140.385 2.0412 2.24875 0
M  V30 1461 H 137.97 1.05182 1.061 0
M  V30 1462 H 139.852 0.529787 4.18056 0
M  V30 1463 H 138.527 -0.197159 3.23099 0
M  V30 1464 H 137.434 2.11558 3.08535 0
M  V30 1465 H 138.767 2.76719 4.07047 0
M  V30 1466 N 140.419 -1.14872 1.07899 0
M  V30 1467 C 141.665 -1.86064 0.806725 0
M  V30 1468 C 141.998 -1.82434 -0.665706 0
M  V30 1469 O 141.273 -1.25138 -1.48899 0
M  V30 1470 C 141.556 -3.34929 1.32267 0
M  V30 1471 C 141.409 -3.47161 2.86006 0
M  V30 1472 C 142.728 -4.29863 0.943717 0
M  V30 1473 H 139.847 -0.675591 0.294526 0
M  V30 1474 H 142.489 -1.34925 1.33773 0
M  V30 1475 H 140.639 -3.78611 0.870974 0
M  V30 1476 H 142.311 -3.12302 3.39507 0
M  V30 1477 H 140.554 -2.88539 3.23925 0
M  V30 1478 H 141.225 -4.51777 3.17177 0
M  V30 1479 H 143.701 -3.9417 1.33302 0
M  V30 1480 H 142.577 -5.32494 1.33198 0
M  V30 1481 H 142.838 -4.41846 -0.149796 0
M  V30 1482 N 141.898 -0.863906 -1.31812 0
M  V30 1483 C 143.145 -0.471836 -1.96926 0
M  V30 1484 C 143.473 0.974578 -1.68322 0
M  V30 1485 O 142.728 1.7003 -0.968933 0
M  V30 1486 C 143.027 -0.668547 -3.51091 0
M  V30 1487 C 142.693 -2.08683 -3.99703 0
M  V30 1488 C 141.355 -2.47471 -4.12688 0
M  V30 1489 C 143.707 -3.01207 -4.25351 0
M  V30 1490 C 141.035 -3.78037 -4.4867 0
M  V30 1491 C 143.387 -4.31282 -4.62794 0
M  V30 1492 C 142.051 -4.69992 -4.73987 0
M  V30 1493 H 141.321 -0.172657 -0.720604 0
M  V30 1494 H 143.968 -1.09573 -1.57054 0
M  V30 1495 H 142.273 0.0385252 -3.91781 0
M  V30 1496 H 143.97 -0.345102 -3.99512 0
M  V30 1497 H 140.56 -1.77566 -3.90087 0
M  V30 1498 H 144.744 -2.72469 -4.14819 0
M  V30 1499 H 140 -4.078 -4.55532 0
M  V30 1500 H 144.174 -5.03031 -4.81594 0
M  V30 1501 H 141.801 -5.71207 -5.01624 0
M  V30 1502 N 143.376 1.44774 -0.622745 0
M  V30 1503 C 144.624 2.01721 -0.123655 0
M  V30 1504 C 144.945 1.49172 1.25589 0
M  V30 1505 O 144.215 0.691974 1.83272 0
M  V30 1506 H 142.795 0.745777 -0.0427225 0
M  V30 1507 H 145.457 1.77382 -0.807559 0
M  V30 1508 H 144.553 3.11984 -0.0849534 0
M  V30 1509 N 144.854 0.36279 1.53368 0
M  V30 1510 C 146.103 -0.22888 2.00397 0
M  V30 1511 C 146.416 -1.50096 1.25421 0
M  V30 1512 O 147.622 -2.17106 1.63025 0
M  V30 1513 C 146.078 -0.458417 3.56969 0
M  V30 1514 C 145.686 0.798877 4.4082 0
M  V30 1515 C 147.43 -1.00789 4.12361 0
M  V30 1516 C 145.337 0.539078 5.88938 0
M  V30 1517 H 144.267 -0.089305 0.748693 0
M  V30 1518 H 146.918 0.481099 1.77081 0
M  V30 1519 H 145.3 -1.22959 3.76427 0
M  V30 1520 H 146.474 1.57262 4.33134 0
M  V30 1521 H 144.789 1.27137 3.96516 0
M  V30 1522 H 147.386 -1.21754 5.20653 0
M  V30 1523 H 147.729 -1.9692 3.66781 0
M  V30 1524 H 148.262 -0.296961 3.9669 0
M  V30 1525 H 145.001 1.47064 6.3879 0
M  V30 1526 H 144.521 -0.196222 5.99479 0
M  V30 1527 H 146.2 0.163542 6.46793 0
M  V30 1528 N 146.332 -1.57332 0.0918853 0
M  V30 1529 C 147.557 -1.98995 -0.584442 0
M  V30 1530 C 147.982 -0.970528 -1.61128 0
M  V30 1531 O 147.34 0.0613904 -1.81196 0
M  V30 1532 C 147.388 -3.39636 -1.21161 0
M  V30 1533 O 146.492 -3.40447 -2.32744 0
M  V30 1534 H 145.833 -0.647165 -0.148572 0
M  V30 1535 H 148.363 -2.03873 0.172347 0
M  V30 1536 H 148.373 -3.7726 -1.55367 0
M  V30 1537 H 147.048 -4.13356 -0.459313 0
M  V30 1538 H 145.625 -3.14614 -2.0018 0
M  V30 1539 N 147.81 0.181792 -1.56548 0
M  V30 1540 C 149.087 0.926765 -1.72251 0
M  V30 1541 C 149.467 2.00831 -0.650386 0
M  V30 1542 O 148.815 2.26008 0.336521 0
M  V30 1543 C 149.025 1.50106 -3.1507 0
M  V30 1544 C 150.373 1.97805 -3.75711 0
M  V30 1545 O 151.397 1.59922 -3.18282 0
M  V30 1546 O 150.256 2.67555 -4.76525 0
M  V30 1547 H 147.35 0.435506 -0.703039 0
M  V30 1548 H 149.896 0.170443 -1.68842 0
M  V30 1549 H 148.668 0.72212 -3.84579 0
M  V30 1550 H 148.291 2.32186 -3.22763 0
M  V30 1551 N 149.288 1.51039 0.449983 0
M  V30 1552 C 150.218 1.74379 1.55288 0
M  V30 1553 C 151.199 0.593236 1.5942 0
M  V30 1554 O 152.384 0.834625 1.7535 0
M  V30 1555 C 149.514 1.85728 2.93466 0
M  V30 1556 C 148.468 3.01078 3.04197 0
M  V30 1557 C 147.794 2.97595 4.44231 0
M  V30 1558 C 149.094 4.41254 2.7945 0
M  V30 1559 H 150.788 2.66725 1.36008 0
M  V30 1560 H 148.334 1.2835 0.652864 0
M  V30 1561 H 150.287 2.0064 3.70569 0
M  V30 1562 H 149.011 0.900207 3.13949 0
M  V30 1563 H 147.67 2.85851 2.29531 0
M  V30 1564 H 147.318 1.99691 4.61663 0
M  V30 1565 H 147.018 3.75046 4.52343 0
M  V30 1566 H 148.542 3.14583 5.23326 0
M  V30 1567 H 149.956 4.56897 3.46292 0
M  V30 1568 H 148.353 5.20315 2.98985 0
M  V30 1569 H 149.423 4.52164 1.75144 0
M  V30 1570 N 150.766 -0.704594 1.40972 0
M  V30 1571 C 151.994 -1.49354 1.43182 0
M  V30 1572 C 152.409 -1.88768 0.0345508 0
M  V30 1573 O 151.766 -1.56184 -0.944081 0
M  V30 1574 C 151.817 -2.76187 2.33244 0
M  V30 1575 O 151.538 -2.38436 3.67532 0
M  V30 1576 C 153.039 -3.7 2.44162 0
M  V30 1577 H 150.259 -0.460559 0.487982 0
M  V30 1578 H 152.803 -0.868261 1.85153 0
M  V30 1579 H 150.958 -3.34974 1.94606 0
M  V30 1580 H 151.372 -3.20126 4.15475 0
M  V30 1581 H 152.846 -4.55803 3.11364 0
M  V30 1582 H 153.323 -4.13867 1.47006 0
M  V30 1583 H 153.929 -3.17121 2.83398 0
M  V30 1584 N 152.244 -1.26651 -0.937939 0
M  V30 1585 C 153.192 -1.08308 -2.05845 0
M  V30 1586 C 154.186 -0.0090757 -1.69398 0
M  V30 1587 O 155.392 -0.166007 -1.79233 0
M  V30 1588 H 151.767 -0.333416 -0.674046 0
M  V30 1589 H 153.738 -2.03261 -2.18467 0
M  V30 1590 C 152.487 -0.736229 -3.39816 0
M  V30 1591 H 151.81 -1.55453 -3.6834 0
M  V30 1592 H 153.25 -0.64769 -4.19024 0
M  V30 1593 C 151.709 0.558824 -3.32233 0
M  V30 1594 O 152.239 1.59621 -3.68624 0
M  V30 1595 N 150.445 0.550657 -2.85335 0
M  V30 1596 H 149.992 -0.293943 -2.55917 0
M  V30 1597 H 149.95 1.41726 -2.80644 0
M  V30 1598 N 153.722 1.14298 -1.08507 0
M  V30 1599 C 154.97 1.84993 -0.813763 0
M  V30 1600 C 155.291 1.83405 0.662393 0
M  V30 1601 O 154.561 1.28319 1.48024 0
M  V30 1602 H 153.141 0.684966 -0.298045 0
M  V30 1603 H 155.803 1.385 -1.37126 0
M  V30 1604 H 154.899 2.89788 -1.15884 0
M  V30 1605 N 155.201 0.870884 1.31352 0
M  V30 1606 C 156.426 0.495957 2.01383 0
M  V30 1607 C 156.851 -0.904324 1.64935 0
M  V30 1608 O 156.209 -1.59687 0.858466 0
M  V30 1609 C 156.257 0.661433 3.54482 0
M  V30 1610 O 155.361 -0.298851 4.11316 0
M  V30 1611 H 154.702 0.197158 0.634054 0
M  V30 1612 H 157.232 1.17455 1.67527 0
M  V30 1613 H 157.242 0.555072 4.04207 0
M  V30 1614 H 155.917 1.68246 3.8035 0
M  V30 1615 H 154.494 -0.147368 3.72609 0
M  V30 1616 N 156.679 -1.44442 0.630414 0
M  V30 1617 C 157.925 -2.02351 0.134816 0
M  V30 1618 C 158.258 -1.4947 -1.23986 0
M  V30 1619 O 157.533 -0.678475 -1.82283 0
M  V30 1620 C 157.816 -3.59898 0.120707 0
M  V30 1621 C 157.669 -4.23063 1.52767 0
M  V30 1622 C 158.988 -4.36585 -0.555127 0
M  V30 1623 H 156.107 -0.73527 0.0504646 0
M  V30 1624 H 158.749 -1.72022 0.806751 0
M  V30 1625 H 156.899 -3.85868 -0.451477 0
M  V30 1626 H 158.571 -4.08202 2.14869 0
M  V30 1627 H 156.814 -3.80586 2.08175 0
M  V30 1628 H 157.485 -5.32071 1.46984 0
M  V30 1629 H 159.961 -4.16044 -0.0685429 0
M  V30 1630 H 158.837 -5.46294 -0.534185 0
M  V30 1631 H 159.098 -4.11138 -1.62535 0
M  V30 1632 N 158.157 -0.370918 -1.53173 0
M  V30 1633 C 159.434 0.273754 -1.93675 0
M  V30 1634 C 159.814 1.65938 -1.3049 0
M  V30 1635 O 159.162 2.23698 -0.465999 0
M  V30 1636 C 159.372 0.318602 -3.47543 0
M  V30 1637 C 160.72 0.556392 -4.20939 0
M  V30 1638 O 161.744 0.399587 -3.53952 0
M  V30 1639 O 160.603 0.862133 -5.39657 0
M  V30 1640 H 157.697 0.165448 -0.810281 0
M  V30 1641 H 160.243 -0.42409 -1.64315 0
M  V30 1642 H 159.015 -0.652687 -3.85818 0
M  V30 1643 H 158.638 1.06212 -3.83151 0
M  V30 1644 N 159.635 1.57281 -0.100228 0
M  V30 1645 C 160.583 2.15542 0.874328 0
M  V30 1646 C 161.577 1.09962 1.28859 0
M  V30 1647 O 162.783 1.28298 1.26252 0
M  V30 1648 H 159.158 0.689567 0.300003 0
M  V30 1649 H 161.129 2.96241 0.35829 0
M  V30 1650 C 159.878 2.75454 2.1218 0
M  V30 1651 H 159.201 3.56384 1.81193 0
M  V30 1652 H 160.641 3.19781 2.78417 0
M  V30 1653 C 159.1 1.71602 2.89921 0
M  V30 1654 O 159.63 1.15804 3.84646 0
M  V30 1655 N 157.836 1.41975 2.53558 0
M  V30 1656 H 157.383 1.87539 1.76598 0
M  V30 1657 H 157.341 0.727274 3.05873 0
M  V30 1658 N 161.113 -0.173488 1.56642 0
M  V30 1659 C 162.06 -1.21482 1.96242 0
M  V30 1660 C 163.03 -1.44104 0.826027 0
M  V30 1661 O 164.215 -1.5688 1.08597 0
M  V30 1662 C 161.355 -2.54964 2.32567 0
M  V30 1663 C 160.468 -2.39739 3.59373 0
M  V30 1664 C 159.603 -3.66072 3.84921 0
M  V30 1665 C 158.642 -3.45771 5.05083 0
M  V30 1666 N 157.779 -4.64169 5.26775 0
M  V30 1667 H 162.619 -0.870123 2.85014 0
M  V30 1668 H 160.156 -0.418245 1.41029 0
M  V30 1669 H 162.114 -3.32758 2.5165 0
M  V30 1670 H 160.744 -2.87433 1.46908 0
M  V30 1671 H 159.796 -1.53131 3.48217 0
M  V30 1672 H 161.108 -2.20683 4.47326 0
M  V30 1673 H 160.262 -4.52303 4.0436 0
M  V30 1674 H 159.001 -3.88105 2.9534 0
M  V30 1675 H 158.006 -2.57927 4.85545 0
M  V30 1676 H 159.231 -3.25163 5.96193 0
M  V30 1677 H 157.177 -4.86425 4.40144 0
M  V30 1678 H 157.094 -4.48019 6.08946 0
M  V30 1679 H 158.362 -5.51689 5.5069 0
M  V30 1680 N 162.591 -1.51276 -0.441967 0
M  V30 1681 C 163.501 -1.75092 -1.56141 0
M  V30 1682 C 164.517 -0.634963 -1.62001 0
M  V30 1683 O 165.693 -0.916686 -1.79329 0
M  V30 1684 C 162.758 -1.86666 -2.92158 0
M  V30 1685 C 161.819 -3.10506 -2.96453 0
M  V30 1686 C 161.052 -3.21519 -4.25982 0
M  V30 1687 O 161.275 -2.38586 -5.18105 0
M  V30 1688 O 160.209 -4.14465 -4.36466 0
M  V30 1689 H 164.035 -2.70044 -1.38961 0
M  V30 1690 H 161.62 -1.35722 -0.624499 0
M  V30 1691 H 163.502 -1.96292 -3.72891 0
M  V30 1692 H 162.177 -0.949014 -3.09476 0
M  V30 1693 H 161.084 -3.06363 -2.14692 0
M  V30 1694 H 162.417 -4.01945 -2.84079 0
M  V30 1695 N 164.069 0.697108 -1.41344 0
M  V30 1696 C 164.999 1.82353 -1.45841 0
M  V30 1697 C 165.98 1.67115 -0.317247 0
M  V30 1698 O 167.165 1.86871 -0.528474 0
M  V30 1699 C 164.295 3.20476 -1.33838 0
M  V30 1700 C 163.249 3.50415 -2.4575 0
M  V30 1701 C 162.575 4.87878 -2.18813 0
M  V30 1702 C 163.875 3.49546 -3.88091 0
M  V30 1703 H 165.569 1.78846 -2.40113 0
M  V30 1704 H 163.115 0.859028 -1.15571 0
M  V30 1705 H 165.068 3.98988 -1.35596 0
M  V30 1706 H 163.792 3.24604 -0.360498 0
M  V30 1707 H 162.451 2.74253 -2.43271 0
M  V30 1708 H 162.099 4.8863 -1.19371 0
M  V30 1709 H 161.799 5.08875 -2.93803 0
M  V30 1710 H 163.323 5.68702 -2.22284 0
M  V30 1711 H 164.737 4.18066 -3.92293 0
M  V30 1712 H 163.134 3.82075 -4.62751 0
M  V30 1713 H 164.204 2.48552 -4.16353 0
M  V30 1714 N 165.547 1.27147 0.931209 0
M  V30 1715 C 166.796 1.12664 1.67302 0
M  V30 1716 C 167.109 -0.327718 1.92835 0
M  V30 1717 O 168.315 -0.593392 2.64936 0
M  V30 1718 C 166.771 1.9683 3.01307 0
M  V30 1719 C 166.379 3.46901 2.83485 0
M  V30 1720 C 168.123 1.90985 3.79111 0
M  V30 1721 C 166.03 4.23279 4.13024 0
M  V30 1722 H 164.96 0.41803 0.627509 0
M  V30 1723 H 167.611 1.51539 1.03481 0
M  V30 1724 H 165.993 1.50797 3.66164 0
M  V30 1725 H 167.167 4.00773 2.27415 0
M  V30 1726 H 165.482 3.54088 2.19113 0
M  V30 1727 H 168.079 2.45328 4.75098 0
M  V30 1728 H 168.422 0.882718 4.06834 0
M  V30 1729 H 168.955 2.34895 3.21044 0
M  V30 1730 H 165.694 5.26503 3.90481 0
M  V30 1731 H 165.214 3.74186 4.6877 0
M  V30 1732 H 166.893 4.32265 4.81411 0
M  V30 1733 N 167.025 -1.13721 1.09112 0
M  V30 1734 C 167.955 -2.21148 0.749385 0
M  V30 1735 C 168.936 -1.6792 -0.271475 0
M  V30 1736 O 170.121 -1.93693 -0.140251 0
M  V30 1737 C 167.251 -3.46905 0.165659 0
M  V30 1738 C 166.205 -4.13203 1.11567 0
M  V30 1739 C 165.531 -5.33248 0.393809 0
M  V30 1740 C 166.831 -4.60912 2.45678 0
M  V30 1741 H 168.525 -2.4999 1.64758 0
M  V30 1742 H 166.071 -1.20156 0.793626 0
M  V30 1743 H 168.024 -4.21313 -0.085466 0
M  V30 1744 H 166.748 -3.17449 -0.767714 0
M  V30 1745 H 165.407 -3.40758 1.35202 0
M  V30 1746 H 165.055 -5.00054 -0.543599 0
M  V30 1747 H 164.755 -5.78552 1.02721 0
M  V30 1748 H 166.279 -6.10413 0.150908 0
M  V30 1749 H 167.693 -5.26759 2.26269 0
M  V30 1750 H 166.09 -5.16944 3.04776 0
M  V30 1751 H 167.16 -3.75603 3.06677 0
M  V30 1752 N 168.503 -0.877838 -1.30888 0
M  V30 1753 C 169.435 -0.296607 -2.27273 0
M  V30 1754 C 170.448 0.544799 -1.53414 0
M  V30 1755 O 171.637 0.365511 -1.74718 0
M  V30 1756 C 168.737 0.597481 -3.33592 0
M  V30 1757 C 167.91 -0.213251 -4.3688 0
M  V30 1758 C 166.969 0.610208 -5.2265 0
M  V30 1759 O 165.995 0.035441 -5.69189 0
M  V30 1760 N 167.197 1.92071 -5.47804 0
M  V30 1761 H 169.962 -1.12492 -2.77787 0
M  V30 1762 H 167.523 -0.740105 -1.43993 0
M  V30 1763 H 169.515 1.15425 -3.87891 0
M  V30 1764 H 168.085 1.32647 -2.83061 0
M  V30 1765 H 167.305 -0.951466 -3.82545 0
M  V30 1766 H 168.593 -0.769262 -5.02951 0
M  V30 1767 H 167.991 2.4107 -5.11763 0
M  V30 1768 H 166.548 2.42508 -6.05007 0
M  V30 1769 N 169.982 1.44106 -0.638065 0
M  V30 1770 C 171.398 1.56672 -0.304286 0
M  V30 1771 C 171.598 1.6244 1.19228 0
M  V30 1772 O 170.654 1.57121 1.9766 0
M  V30 1773 C 171.967 2.83503 -1.00231 0
M  V30 1774 C 173.515 2.97226 -0.981116 0
M  V30 1775 C 173.99 4.26868 -1.65974 0
M  V30 1776 N 175.481 4.33698 -1.62666 0
M  V30 1777 C 176.216 5.32745 -2.12063 0
M  V30 1778 N 175.712 6.38157 -2.6968 0
M  V30 1779 N 177.505 5.24299 -2.02651 0
M  V30 1780 H 169.656 1.38605 -1.60942 0
M  V30 1781 H 171.919 0.664661 -0.675965 0
M  V30 1782 H 171.625 2.85251 -2.0573 0
M  V30 1783 H 171.499 3.73251 -0.54439 0
M  V30 1784 H 173.886 2.95027 0.0654188 0
M  V30 1785 H 173.967 2.08808 -1.47759 0
M  V30 1786 H 173.611 4.29826 -2.70576 0
M  V30 1787 H 173.541 5.14156 -1.13804 0
M  V30 1788 H 176.032 3.58138 -1.20606 0
M  V30 1789 H 176.345 7.10029 -3.05087 0
M  V30 1790 H 174.69 6.38823 -2.73734 0
M  V30 1791 H 177.881 4.4086 -1.57353 0
M  V30 1792 H 178.054 6.01334 -2.41457 0
M  V30 1793 N 171.46 0.379036 1.52974 0
M  V30 1794 C 172.423 -0.448865 2.24762 0
M  V30 1795 C 173.423 -0.998689 1.26027 0
M  V30 1796 O 174.613 -0.882313 1.50203 0
M  V30 1797 C 171.745 -1.62872 2.99476 0
M  V30 1798 H 172.938 0.179491 2.99362 0
M  V30 1799 H 170.491 0.13096 1.5575 0
M  V30 1800 H 171.226 -2.29479 2.29151 0
M  V30 1801 H 171.011 -1.24128 3.71934 0
M  V30 1802 H 172.501 -2.2151 3.5401 0
M  V30 1803 N 172.938 -1.57226 0.108567 0
M  V30 1804 C 173.885 -2.14756 -0.845481 0
M  V30 1805 C 174.855 -1.06971 -1.27068 0
M  V30 1806 O 176.04 -1.34827 -1.35005 0
M  V30 1807 C 173.18 -2.74298 -2.09415 0
M  V30 1808 C 172.293 -3.96358 -1.71826 0
M  V30 1809 C 171.428 -4.44021 -2.9158 0
M  V30 1810 C 170.467 -5.58637 -2.50181 0
M  V30 1811 N 169.604 -6.01091 -3.62814 0
M  V30 1812 H 174.444 -2.95961 -0.348035 0
M  V30 1813 H 171.981 -1.46226 -0.160106 0
M  V30 1814 H 173.939 -3.06945 -2.82561 0
M  V30 1815 H 172.569 -1.95801 -2.56636 0
M  V30 1816 H 171.621 -3.69939 -0.885947 0
M  V30 1817 H 172.933 -4.79504 -1.37394 0
M  V30 1818 H 172.087 -4.78522 -3.72963 0
M  V30 1819 H 170.826 -3.59803 -3.29231 0
M  V30 1820 H 169.831 -5.23751 -1.67228 0
M  V30 1821 H 171.056 -6.44613 -2.13659 0
M  V30 1822 H 169.002 -5.19817 -4.00158 0
M  V30 1823 H 168.919 -6.79066 -3.32273 0
M  V30 1824 H 170.187 -6.40227 -4.44668 0
M  V30 1825 N 174.416 0.165178 -1.56732 0
M  V30 1826 C 175.326 1.22423 -2.00125 0
M  V30 1827 C 176.342 1.48084 -0.913619 0
M  V30 1828 O 177.518 1.60112 -1.22172 0
M  V30 1829 C 174.583 2.54197 -2.35764 0
M  V30 1830 C 173.644 2.36343 -3.58386 0
M  V30 1831 C 172.877 3.61834 -3.92316 0
M  V30 1832 O 173.1 4.67267 -3.27135 0
M  V30 1833 O 172.034 3.55579 -4.85641 0
M  V30 1834 H 175.86 0.885886 -2.90492 0
M  V30 1835 H 173.445 0.372518 -1.44681 0
M  V30 1836 H 175.327 3.3192 -2.59629 0
M  V30 1837 H 174.002 2.87598 -1.48557 0
M  V30 1838 H 172.909 1.56632 -3.39731 0
M  V30 1839 H 174.242 2.07865 -4.46154 0
M  V30 1840 N 175.894 1.51508 0.433938 0
M  V30 1841 C 176.824 1.76016 1.53429 0
M  V30 1842 C 177.805 0.610112 1.58782 0
M  V30 1843 O 178.99 0.853177 1.74455 0
M  V30 1844 C 176.12 1.88831 2.9148 0
M  V30 1845 C 175.074 3.04288 3.00987 0
M  V30 1846 C 174.4 3.0229 4.4105 0
M  V30 1847 C 175.7 4.44193 2.74754 0
M  V30 1848 H 177.394 2.68152 1.33171 0
M  V30 1849 H 174.94 1.29035 0.639214 0
M  V30 1850 H 176.893 2.04559 3.6842 0
M  V30 1851 H 175.617 0.933455 3.12976 0
M  V30 1852 H 174.276 2.8827 2.26486 0
M  V30 1853 H 173.924 2.04576 4.59519 0
M  V30 1854 H 173.624 3.79822 4.4834 0
M  V30 1855 H 175.148 3.20116 5.1996 0
M  V30 1856 H 176.562 4.60544 3.41426 0
M  V30 1857 H 174.959 5.23457 2.9345 0
M  V30 1858 H 176.029 4.53996 1.70339 0
M  V30 1859 N 177.372 -0.689602 1.41712 0
M  V30 1860 C 178.62 -1.4468 1.4111 0
M  V30 1861 C 178.941 -1.94986 0.0232196 0
M  V30 1862 O 178.211 -1.72097 -0.935913 0
M  V30 1863 H 176.791 -0.536847 0.519427 0
M  V30 1864 H 179.453 -0.815825 1.77004 0
M  V30 1865 H 178.549 -2.30706 2.10193 0
M  V30 1866 N 178.85 -1.27639 -0.924453 0
M  V30 1867 C 180.08 -1.16819 -1.70402 0
M  V30 1868 C 180.488 0.277191 -1.87158 0
M  V30 1869 O 179.831 1.20025 -1.39067 0
M  V30 1870 C 179.893 -1.78305 -3.12166 0
M  V30 1871 C 179.557 -3.27502 -3.18734 0
M  V30 1872 C 180.554 -4.2409 -3.00738 0
M  V30 1873 C 178.239 -3.68269 -3.4159 0
M  V30 1874 C 180.233 -5.59422 -3.05492 0
M  V30 1875 C 177.92 -5.0373 -3.45977 0
M  V30 1876 C 178.918 -5.99116 -3.27946 0
M  V30 1877 O 178.606 -7.32108 -3.32074 0
M  V30 1878 H 178.338 -0.406931 -0.539799 0
M  V30 1879 H 180.892 -1.69078 -1.16626 0
M  V30 1880 H 179.122 -1.20528 -3.67437 0
M  V30 1881 H 180.811 -1.62154 -3.72103 0
M  V30 1882 H 181.577 -3.93931 -2.82919 0
M  V30 1883 H 177.456 -2.94496 -3.54673 0
M  V30 1884 H 181 -6.33852 -2.91337 0
M  V30 1885 H 176.897 -5.33543 -3.63321 0
M  V30 1886 H 177.665 -7.40598 -3.48507 0
M  V30 1887 N 180.328 1.1314 -1.09713 0
M  V30 1888 C 181.275 2.18642 -0.739196 0
M  V30 1889 C 182.245 1.63706 0.280978 0
M  V30 1890 O 183.43 1.90111 0.161946 0
M  V30 1891 C 180.57 3.44685 -0.169102 0
M  V30 1892 C 179.683 4.13711 -1.24367 0
M  V30 1893 C 178.818 5.27379 -0.636019 0
M  V30 1894 C 177.857 5.88259 -1.69169 0
M  V30 1895 N 176.994 6.93352 -1.10485 0
M  V30 1896 H 181.834 2.48607 -1.64312 0
M  V30 1897 H 179.371 1.22066 -0.820875 0
M  V30 1898 H 181.329 4.16815 0.179256 0
M  V30 1899 H 179.959 3.15161 0.698079 0
M  V30 1900 H 179.011 3.39835 -1.70927 0
M  V30 1901 H 180.323 4.55037 -2.04311 0
M  V30 1902 H 179.477 6.06238 -0.236677 0
M  V30 1903 H 178.216 4.8731 0.194928 0
M  V30 1904 H 177.221 5.08092 -2.10055 0
M  V30 1905 H 178.446 6.30399 -2.52536 0
M  V30 1906 H 176.392 6.55335 -0.295234 0
M  V30 1907 H 176.309 7.33236 -1.84121 0
M  V30 1908 H 177.577 7.76057 -0.73181 0
M  V30 1909 N 181.806 0.884767 1.30421 0
M  V30 1910 C 183.054 0.502112 1.95763 0
M  V30 1911 C 183.375 -0.951815 1.70192 0
M  V30 1912 O 182.645 -1.6692 1.0254 0
M  V30 1913 H 181.225 0.182694 0.724315 0
M  V30 1914 H 183.887 1.1278 1.58955 0
M  V30 1915 H 182.983 0.672188 3.04775 0
M  V30 1916 N 183.284 -1.43765 0.645699 0
M  V30 1917 C 184.53 -2.02197 0.156271 0
M  V30 1918 C 184.863 -1.50776 -1.22393 0
M  V30 1919 O 184.138 -0.697771 -1.81553 0
M  V30 1920 C 184.421 -3.59749 0.158872 0
M  V30 1921 C 184.274 -4.21419 1.57245 0
M  V30 1922 C 185.593 -4.37149 -0.50879 0
M  V30 1923 H 182.712 -0.734694 0.0582602 0
M  V30 1924 H 185.354 -1.71157 0.824951 0
M  V30 1925 H 183.504 -3.86325 -0.410525 0
M  V30 1926 H 185.176 -4.059 2.19186 0
M  V30 1927 H 183.419 -3.78356 2.122 0
M  V30 1928 H 184.09 -5.30482 1.52619 0
M  V30 1929 H 186.566 -4.16093 -0.024412 0
M  V30 1930 H 185.442 -5.4683 -0.476213 0
M  V30 1931 H 185.703 -4.12839 -1.58165 0
M  V30 1932 N 184.763 -0.387143 -1.52771 0
M  V30 1933 C 185.673 0.456442 -2.30117 0
M  V30 1934 C 186.689 1.07342 -1.36944 0
M  V30 1935 O 187.865 1.07971 -1.70013 0
M  V30 1936 C 184.93 1.56957 -3.09136 0
M  V30 1937 C 183.991 0.977916 -4.18014 0
M  V30 1938 C 183.224 2.038 -4.93256 0
M  V30 1939 O 183.447 3.25271 -4.68567 0
M  V30 1940 O 182.381 1.6565 -5.78657 0
M  V30 1941 H 186.207 -0.17359 -3.03203 0
M  V30 1942 H 183.792 -0.150919 -1.48636 0
M  V30 1943 H 185.674 2.21628 -3.58412 0
M  V30 1944 H 184.349 2.18461 -2.38865 0
M  V30 1945 H 183.256 0.294525 -3.72939 0
M  V30 1946 H 184.589 0.407128 -4.90513 0
M  V30 1947 O 186.28 1.59438 -0.257276 0
M  V30 1948 H 186.971 1.91101 0.316273 0
M  V30 END ATOM
M  V30 BEGIN BOND
M  V30 END BOND
M  V30 END CTAB
M  END
$$$$
