drugbank_target|P30939 5-hydroxytryptamine receptor 1F (DB00216; DB00247; DB00315; DB00669; DB00696; DB00952; DB00953; DB06148; DB11732)
 OpenBabel12092119323D

  0  0  0     0  0            999 V3000
M  V30 BEGIN CTAB
M  V30 COUNTS 5967 6029 0 0 0
M  V30 BEGIN ATOM
M  V30 1 H -0.908 1.98254 -0.117106 0
M  V30 2 N 0 1.576 0 0
M  V30 3 C 0.933 2.03868 1.02534 0
M  V30 4 C 1.911 0.928543 1.3348 0
M  V30 5 O 3.095 1.19667 1.45644 0
M  V30 6 C 0.222 2.43627 2.35294 0
M  V30 7 C -0.732 3.65373 2.2001 0
M  V30 8 S 0.101 5.13292 1.52614 0
M  V30 9 C 1.257 5.56322 2.86805 0
M  V30 10 H 1.49 2.90518 0.631377 0
M  V30 11 H -0.977 1.52953 0.210867 0
M  V30 12 H 0.981 2.67203 3.11629 0
M  V30 13 H -0.358 1.57376 2.7183 0
M  V30 14 H -1.165 3.90944 3.18086 0
M  V30 15 H -1.563 3.418 1.51819 0
M  V30 16 H 0.729 5.58782 3.83104 0
M  V30 17 H 1.672 6.56266 2.65933 0
M  V30 18 H 2.08 4.83886 2.90714 0
M  V30 19 N 1.4781 -0.272755 1.55222 0
M  V30 20 C 2.7551 -1.02562 1.66555 0
M  V30 21 C 3.1351 -2.04282 0.532189 0
M  V30 22 O 2.4831 -2.23662 -0.467717 0
M  V30 23 C 2.6931 -1.6822 3.05782 0
M  V30 24 C 4.0411 -2.19373 3.63539 0
M  V30 25 O 5.0651 -1.78206 3.08417 0
M  V30 26 O 3.9241 -2.94883 4.60115 0
M  V30 27 H 1.0181 -0.475755 0.676451 0
M  V30 28 H 3.5641 -0.268593 1.67561 0
M  V30 29 H 2.3361 -0.945112 3.79715 0
M  V30 30 H 1.9591 -2.50609 3.08676 0
M  V30 31 N 2.9562 -1.48159 -0.537278 0
M  V30 32 C 4.2032 -1.55804 -1.29349 0
M  V30 33 C 4.5312 -0.228802 -1.9315 0
M  V30 34 O 3.7862 0.780242 -1.79473 0
M  V30 35 C 4.0852 -2.63956 -2.40961 0
M  V30 36 C 3.7512 -4.0662 -1.94861 0
M  V30 37 C 2.4132 -4.45452 -1.82006 0
M  V30 38 C 4.7652 -4.96055 -1.59933 0
M  V30 39 C 2.0932 -5.71531 -1.32547 0
M  V30 40 C 4.4452 -6.22617 -1.11939 0
M  V30 41 C 3.1092 -6.60312 -0.976951 0
M  V30 42 H 2.3792 -0.570129 -0.473322 0
M  V30 43 H 5.0262 -1.81845 -0.600372 0
M  V30 44 H 3.3312 -2.31747 -3.15912 0
M  V30 45 H 5.0282 -2.67089 -2.99107 0
M  V30 46 H 1.6182 -3.75949 -2.05815 0
M  V30 47 H 5.8022 -4.66738 -1.68728 0
M  V30 48 H 1.0582 -5.99468 -1.202 0
M  V30 49 H 5.2322 -6.91318 -0.839811 0
M  V30 50 H 2.8592 -7.57895 -0.591501 0
M  V30 51 N 4.4343 0.785586 -1.36625 0
M  V30 52 C 5.3643 1.91259 -1.33949 0
M  V30 53 C 6.3453 1.68795 -0.210325 0
M  V30 54 O 7.5303 1.89854 -0.408561 0
M  V30 55 C 4.6603 3.28339 -1.13186 0
M  V30 56 C 3.6143 3.65335 -2.22967 0
M  V30 57 C 2.9403 5.00806 -1.87342 0
M  V30 58 C 4.2403 3.7352 -3.65075 0
M  V30 59 H 5.9343 1.93755 -2.28253 0
M  V30 60 H 3.4803 0.930788 -1.09874 0
M  V30 61 H 5.4333 4.06804 -1.09948 0
M  V30 62 H 4.1573 3.2624 -0.153332 0
M  V30 63 H 2.8163 2.89169 -2.25337 0
M  V30 64 H 2.4643 4.95233 -0.880545 0
M  V30 65 H 2.1643 5.26529 -2.60846 0
M  V30 66 H 3.6883 5.81687 -1.85667 0
M  V30 67 H 5.1023 4.42168 -3.64911 0
M  V30 68 H 3.4993 4.10731 -4.37516 0
M  V30 69 H 4.5693 2.74527 -3.99703 0
M  V30 70 N 5.9124 1.20967 1.01018 0
M  V30 71 C 6.8604 0.961223 2.1181 0
M  V30 72 C 7.8544 -0.0897034 1.69162 0
M  V30 73 O 9.0604 0.0612271 1.79896 0
M  V30 74 H 5.4354 0.29355 0.692338 0
M  V30 75 H 7.4064 1.90178 2.29946 0
M  V30 76 C 6.1554 0.536854 3.4353 0
M  V30 77 H 5.4784 1.33713 3.76777 0
M  V30 78 H 6.9184 0.402286 4.22087 0
M  V30 79 C 5.3774 -0.751574 3.2841 0
M  V30 80 O 5.9074 -1.80841 3.58691 0
M  V30 81 N 4.1134 -0.716079 2.81639 0
M  V30 82 H 3.6604 0.144236 2.57196 0
M  V30 83 H 3.6184 -1.57847 2.71904 0
M  V30 84 N 7.3905 -1.2043 1.01659 0
M  V30 85 C 8.6155 -1.94318 0.724942 0
M  V30 86 C 9.0405 -1.74266 -0.708034 0
M  V30 87 O 8.3985 -1.03694 -1.48719 0
M  V30 88 C 8.4465 -3.44486 1.06591 0
M  V30 89 O 7.5505 -4.12017 0.177599 0
M  V30 90 H 6.8915 -0.60708 0.26898 0
M  V30 91 H 9.4215 -1.52861 1.35995 0
M  V30 92 H 9.4315 -3.95106 1.01762 0
M  V30 93 H 8.1065 -3.58404 2.10997 0
M  V30 94 H 6.6835 -3.71821 0.283421 0
M  V30 95 N 8.8686 -0.792821 -1.36206 0
M  V30 96 C 10.0936 -0.377701 -2.03932 0
M  V30 97 C 10.5186 0.998947 -1.59382 0
M  V30 98 O 9.8766 1.64421 -0.763903 0
M  V30 99 C 9.9246 -0.453635 -3.57735 0
M  V30 100 O 9.0286 0.538151 -4.08874 0
M  V30 101 H 8.3696 -0.159855 -0.644471 0
M  V30 102 H 10.8996 -1.07488 -1.7409 0
M  V30 103 H 10.9096 -0.318464 -4.06755 0
M  V30 104 H 9.5846 -1.45784 -3.89512 0
M  V30 105 H 8.1616 0.364359 -3.71116 0
M  V30 106 N 10.3467 1.47872 -0.545128 0
M  V30 107 C 11.6237 1.9554 0.0485222 0
M  V30 108 C 12.0037 1.4876 1.49779 0
M  V30 109 O 11.3517 0.720925 2.16829 0
M  V30 110 C 11.5617 3.48898 -0.084417 0
M  V30 111 C 12.9097 4.24547 0.0671239 0
M  V30 112 O 13.9337 3.56198 -0.0113649 0
M  V30 113 O 12.7927 5.45999 0.233882 0
M  V30 114 H 9.8867 0.823957 0.0708773 0
M  V30 115 H 12.4327 1.58327 -0.610798 0
M  V30 116 H 11.2047 3.75714 -1.09337 0
M  V30 117 H 10.8277 3.92845 0.613066 0
M  V30 118 N 11.8248 0.280983 1.55075 0
M  V30 119 C 12.7568 -0.637268 2.20163 0
M  V30 120 C 13.7698 -1.11298 1.18813 0
M  V30 121 O 14.9588 -1.03388 1.4551 0
M  V30 122 C 12.0588 -1.88199 2.81841 0
M  V30 123 C 11.2318 -1.55211 4.08936 0
M  V30 124 C 10.2908 -2.64991 4.54606 0
M  V30 125 O 9.3168 -2.30929 5.2025 0
M  V30 126 N 10.5188 -3.95161 4.25238 0
M  V30 127 H 13.2838 -0.0801694 2.99593 0
M  V30 128 H 10.8448 0.102329 1.61576 0
M  V30 129 H 12.8368 -2.60948 3.09335 0
M  V30 130 H 11.4068 -2.34799 2.06369 0
M  V30 131 H 10.6268 -0.658185 3.88666 0
M  V30 132 H 11.9148 -1.30681 4.91732 0
M  V30 133 H 11.3128 -4.25653 3.72607 0
M  V30 134 H 9.8698 -4.6427 4.5749 0
M  V30 135 N 13.3029 -1.57598 0.00835791 0
M  V30 136 C 14.2509 -2.10078 -0.998508 0
M  V30 137 C 15.2449 -1.02262 -1.35051 0
M  V30 138 O 16.4509 -1.20719 -1.33518 0
M  V30 139 H 12.8259 -0.670903 -0.339696 0
M  V30 140 H 14.7969 -2.93648 -0.530398 0
M  V30 141 C 13.5459 -2.62615 -2.27879 0
M  V30 142 H 12.8689 -3.45213 -2.01662 0
M  V30 143 H 14.3089 -3.03004 -2.96588 0
M  V30 144 C 12.7679 -1.54407 -2.99433 0
M  V30 145 O 13.2979 -0.931812 -3.90743 0
M  V30 146 N 11.5039 -1.2695 -2.61404 0
M  V30 147 H 11.0509 -1.76924 -1.87232 0
M  V30 148 H 11.0089 -0.547704 -3.09593 0
M  V30 149 N 14.781 0.264519 -1.55364 0
M  V30 150 C 15.711 1.33121 -1.91836 0
M  V30 151 C 16.692 1.51101 -0.781192 0
M  V30 152 O 17.877 1.64003 -1.04003 0
M  V30 153 C 15.007 2.68921 -2.19769 0
M  V30 154 C 13.961 2.65661 -3.35571 0
M  V30 155 C 13.287 4.05093 -3.49004 0
M  V30 156 C 14.587 2.24187 -4.71739 0
M  V30 157 H 16.281 1.02844 -2.81182 0
M  V30 158 H 13.827 0.493286 -1.35287 0
M  V30 159 H 15.78 3.43663 -2.43872 0
M  V30 160 H 14.504 3.00799 -1.27231 0
M  V30 161 H 13.163 1.93377 -3.1145 0
M  V30 162 H 12.811 4.34206 -2.53917 0
M  V30 163 H 12.511 4.03804 -4.26868 0
M  V30 164 H 14.035 4.81561 -3.75408 0
M  V30 165 H 15.449 2.88654 -4.9533 0
M  V30 166 H 13.846 2.34044 -5.52579 0
M  V30 167 H 14.916 1.19327 -4.69988 0
M  V30 168 N 16.2591 1.48442 0.529413 0
M  V30 169 C 17.4871 1.60151 1.30994 0
M  V30 170 C 17.9021 0.261985 1.86973 0
M  V30 171 O 17.2591 -0.748805 1.66431 0
M  V30 172 C 17.3101 2.64854 2.46038 0
M  V30 173 O 17.0311 3.93608 1.92365 0
M  V30 174 C 18.5321 2.87007 3.37849 0
M  V30 175 H 15.7521 0.539971 0.398338 0
M  V30 176 H 18.2961 1.94273 0.638597 0
M  V30 177 H 16.4511 2.33589 3.09055 0
M  V30 178 H 16.8651 4.51055 2.67675 0
M  V30 179 H 18.3391 3.64068 4.14919 0
M  V30 180 H 18.8161 1.95852 3.93114 0
M  V30 181 H 19.4221 3.19579 2.80623 0
M  V30 182 N 17.7372 -0.778329 1.37039 0
M  V30 183 C 18.9622 -1.57248 1.35233 0
M  V30 184 C 19.3872 -1.87999 -0.0615568 0
M  V30 185 O 18.7452 -1.48734 -1.03672 0
M  V30 186 C 18.7932 -2.86353 2.19167 0
M  V30 187 O 17.8972 -3.80442 1.59178 0
M  V30 188 H 17.2382 -0.476569 0.462362 0
M  V30 189 H 19.7682 -0.963853 1.80474 0
M  V30 190 H 19.7782 -3.35519 2.32145 0
M  V30 191 H 18.4532 -2.63299 3.21942 0
M  V30 192 H 17.0302 -3.39067 1.55203 0
M  V30 193 N 19.2153 -1.21501 -1.00376 0
M  V30 194 C 20.1253 -0.991447 -2.12621 0
M  V30 195 C 21.1413 0.0568446 -1.73907 0
M  V30 196 O 22.3173 -0.13348 -2.00957 0
M  V30 197 C 19.3823 -0.560312 -3.42142 0
M  V30 198 C 18.4433 -1.68096 -3.95022 0
M  V30 199 C 17.6763 -1.2703 -5.18362 0
M  V30 200 O 17.8993 -0.144438 -5.70217 0
M  V30 201 O 16.8333 -2.08269 -5.64719 0
M  V30 202 H 20.6593 -1.93158 -2.34358 0
M  V30 203 H 18.2443 -0.999999 -1.10997 0
M  V30 204 H 20.1263 -0.329724 -4.20108 0
M  V30 205 H 18.8013 0.351089 -3.2179 0
M  V30 206 H 17.7083 -1.96597 -3.18278 0
M  V30 207 H 19.0413 -2.56983 -4.19786 0
M  V30 208 N 20.6934 1.19889 -1.02296 0
M  V30 209 C 21.6034 2.26571 -0.608508 0
M  V30 210 C 22.6194 1.70299 0.356964 0
M  V30 211 O 23.7954 2.00235 0.216326 0
M  V30 212 C 20.8604 3.46677 0.0402814 0
M  V30 213 C 19.9214 4.18153 -0.97194 0
M  V30 214 C 19.1544 5.32525 -0.354016 0
M  V30 215 O 19.3774 5.64112 0.844604 0
M  V30 216 O 18.3114 5.92242 -1.07391 0
M  V30 217 H 22.1374 2.64251 -1.49684 0
M  V30 218 H 19.7224 1.26629 -0.792809 0
M  V30 219 H 21.6044 4.19475 0.402324 0
M  V30 220 H 20.2794 3.10858 0.902707 0
M  V30 221 H 19.1864 3.47499 -1.38546 0
M  V30 222 H 20.5194 4.57927 -1.80454 0
M  V30 223 N 22.1715 0.800033 1.35784 0
M  V30 224 C 23.1015 0.220184 2.3246 0
M  V30 225 C 24.0825 -0.65073 1.57161 0
M  V30 226 O 25.2675 -0.582359 1.85263 0
M  V30 227 C 22.3975 -0.637353 3.41402 0
M  V30 228 C 21.3515 0.134531 4.27789 0
M  V30 229 C 20.6775 -0.844285 5.27992 0
M  V30 230 C 21.9775 1.32979 5.05088 0
M  V30 231 H 23.6715 1.02787 2.81203 0
M  V30 232 H 21.2175 0.495717 1.35199 0
M  V30 233 H 23.1705 -1.05302 4.08031 0
M  V30 234 H 21.8945 -1.47785 2.91251 0
M  V30 235 H 20.5535 0.531296 3.6273 0
M  V30 236 H 20.2015 -1.68011 4.74111 0
M  V30 237 H 19.9015 -0.332184 5.8666 0
M  V30 238 H 21.4255 -1.2583 5.97494 0
M  V30 239 H 22.8395 0.98934 5.64699 0
M  V30 240 H 21.2365 1.77593 5.7322 0
M  V30 241 H 22.3065 2.11978 4.36111 0
M  V30 242 N 23.6496 -1.47581 0.552962 0
M  V30 243 C 24.5796 -2.32762 -0.185451 0
M  V30 244 C 25.5606 -1.43527 -0.912905 0
M  V30 245 O 26.7456 -1.72388 -0.894201 0
M  V30 246 C 23.8756 -3.25219 -1.21859 0
M  V30 247 C 22.8296 -4.23661 -0.607864 0
M  V30 248 C 22.1556 -5.05413 -1.74533 0
M  V30 249 C 23.4556 -5.20481 0.435582 0
M  V30 250 H 25.1496 -2.94749 0.525684 0
M  V30 251 H 22.6956 -1.41738 0.254251 0
M  V30 252 H 24.6486 -3.8365 -1.7433 0
M  V30 253 H 23.3726 -2.61279 -1.95961 0
M  V30 254 H 22.0316 -3.66451 -0.104489 0
M  V30 255 H 21.6796 -4.3788 -2.47529 0
M  V30 256 H 21.3796 -5.72059 -1.34249 0
M  V30 257 H 22.9036 -5.66701 -2.27338 0
M  V30 258 H 24.3176 -5.733 -0.00290157 0
M  V30 259 H 22.7146 -5.95305 0.757067 0
M  V30 260 H 23.7846 -4.66217 1.33303 0
M  V30 261 N 25.1277 -0.289203 -1.54924 0
M  V30 262 C 26.0757 0.607966 -2.24514 0
M  V30 263 C 27.0697 1.14655 -1.24702 0
M  V30 264 O 28.2757 1.09856 -1.4259 0
M  V30 265 H 24.6507 0.21464 -0.720718 0
M  V30 266 H 26.6217 -0.00164182 -2.984 0
M  V30 267 C 25.3707 1.77406 -2.99036 0
M  V30 268 H 24.6937 1.36884 -3.75637 0
M  V30 269 H 26.1337 2.37814 -3.51028 0
M  V30 270 C 24.5927 2.67107 -2.05318 0
M  V30 271 O 25.1227 3.6787 -1.61353 0
M  V30 272 N 23.3287 2.34582 -1.71521 0
M  V30 273 H 22.8757 1.52688 -2.07471 0
M  V30 274 H 22.8337 2.94867 -1.0909 0
M  V30 275 N 26.6058 1.57591 -0.0167156 0
M  V30 276 C 28.0218 1.55946 0.339557 0
M  V30 277 C 28.2218 1.02109 1.73713 0
M  V30 278 O 27.2778 0.662303 2.43659 0
M  V30 279 C 28.5908 3.00037 0.199499 0
M  V30 280 C 30.1388 3.11805 0.273193 0
M  V30 281 C 30.6138 4.57713 0.162068 0
M  V30 282 N 32.1048 4.6268 0.219444 0
M  V30 283 C 32.8398 5.73185 0.157054 0
M  V30 284 N 32.3358 6.92786 0.0442936 0
M  V30 285 N 34.1288 5.61707 0.21014 0
M  V30 286 H 26.2798 1.90921 -0.930758 0
M  V30 287 H 28.5428 0.877674 -0.358319 0
M  V30 288 H 28.2488 3.4333 -0.76273 0
M  V30 289 H 28.1228 3.64387 0.974786 0
M  V30 290 H 30.5098 2.68433 1.22587 0
M  V30 291 H 30.5908 2.50201 -0.532256 0
M  V30 292 H 30.2348 5.01763 -0.78714 0
M  V30 293 H 30.1648 5.17283 0.986222 0
M  V30 294 H 32.6558 3.76649 0.307246 0
M  V30 295 H 32.9688 7.728 0.00304069 0
M  V30 296 H 31.3138 6.94999 0.00968457 0
M  V30 297 H 34.5048 4.6716 0.296546 0
M  V30 298 H 34.6778 6.47807 0.158054 0
M  V30 299 N 28.0839 -0.256276 1.55502 0
M  V30 300 C 29.0169 -1.34321 1.84481 0
M  V30 301 C 29.9949 -1.46802 0.699131 0
M  V30 302 O 31.1789 -1.63165 0.943904 0
M  V30 303 C 28.3059 -2.71779 2.02123 0
M  V30 304 C 27.3519 -2.76496 3.24734 0
M  V30 305 S 28.1849 -2.3405 4.81644 0
M  V30 306 C 29.3409 -3.73452 5.02279 0
M  V30 307 H 29.5739 -1.09539 2.76385 0
M  V30 308 H 27.1069 -0.45678 1.47489 0
M  V30 309 H 29.0649 -3.50932 2.12972 0
M  V30 310 H 27.7259 -2.93803 1.11078 0
M  V30 311 H 26.9189 -3.77424 3.34016 0
M  V30 312 H 26.5209 -2.05379 3.12563 0
M  V30 313 H 28.8129 -4.6887 4.89047 0
M  V30 314 H 29.7559 -3.6911 6.04287 0
M  V30 315 H 30.1639 -3.6553 4.30172 0
M  V30 316 N 29.562 -1.4872 -0.521534 0
M  V30 317 C 30.973 -1.50607 -1.10337 0
M  V30 318 C 31.324 -0.280612 -1.94183 0
M  V30 319 O 30.449 0.611507 -2.0758 0
M  V30 320 C 31.044 -2.72903 -2.00772 0
M  V30 321 C 29.603 -2.77634 -2.54158 0
M  V30 322 C 28.75 -2.44241 -1.31307 0
M  V30 323 H 31.701 -1.55714 -0.306388 0
M  V30 324 H 31.722 -2.519 -2.85178 0
M  V30 325 H 31.234 -3.62077 -1.39721 0
M  V30 326 H 29.335 -1.92689 -3.18907 0
M  V30 327 H 29.448 -3.79283 -2.92714 0
M  V30 328 H 27.812 -1.95577 -1.63161 0
M  V30 329 H 28.595 -3.35666 -0.719943 0
M  V30 330 N 31.0401 0.771051 -1.3745 0
M  V30 331 C 32.2651 1.56529 -1.36065 0
M  V30 332 C 32.6901 1.88029 0.0515859 0
M  V30 333 O 32.0481 1.49282 1.02882 0
M  V30 334 C 32.0961 2.85187 -2.20683 0
M  V30 335 O 31.2001 3.79593 -1.61193 0
M  V30 336 H 30.5411 0.47411 -0.464883 0
M  V30 337 H 33.0711 0.954269 -1.80983 0
M  V30 338 H 33.0811 3.34283 -2.33921 0
M  V30 339 H 31.7561 2.61588 -3.23334 0
M  V30 340 H 30.3331 3.38239 -1.56999 0
M  V30 341 N 32.5182 1.22032 0.997298 0
M  V30 342 C 33.4652 0.986467 2.08656 0
M  V30 343 C 34.4352 -0.0902671 1.65855 0
M  V30 344 O 35.6202 0.0584294 1.90711 0
M  V30 345 C 32.7602 0.565569 3.40434 0
M  V30 346 C 31.8732 1.71259 3.96604 0
M  V30 347 C 31.0082 1.24011 5.16522 0
M  V30 348 C 30.0472 2.35896 5.64818 0
M  V30 349 N 29.1842 1.89726 6.7598 0
M  V30 350 H 34.0242 1.91892 2.27994 0
M  V30 351 H 31.5612 0.956199 1.11782 0
M  V30 352 H 33.5192 0.302738 4.161 0
M  V30 353 H 32.1492 -0.329879 3.2111 0
M  V30 354 H 31.2012 2.08986 3.17851 0
M  V30 355 H 32.5132 2.55436 4.28432 0
M  V30 356 H 31.6672 0.934395 5.99461 0
M  V30 357 H 30.4062 0.368487 4.86306 0
M  V30 358 H 29.4112 2.67261 4.8047 0
M  V30 359 H 30.6362 3.23567 5.97061 0
M  V30 360 H 28.5822 1.0492 6.47555 0
M  V30 361 H 28.4992 2.67471 7.07103 0
M  V30 362 H 29.7672 1.62211 7.62435 0
M  V30 363 N 33.9963 -1.19345 1.0293 0
M  V30 364 C 35.2453 -1.88363 0.721256 0
M  V30 365 C 35.5583 -1.80514 -0.753254 0
M  V30 366 O 36.7643 -2.44788 -1.17436 0
M  V30 367 C 35.2203 -3.37872 1.23978 0
M  V30 368 C 34.8283 -3.54278 2.74211 0
M  V30 369 C 36.5723 -4.12365 1.00775 0
M  V30 370 C 34.4793 -4.97682 3.19479 0
M  V30 371 H 33.4093 -0.705484 0.266098 0
M  V30 372 H 36.0603 -1.34928 1.24365 0
M  V30 373 H 34.4423 -3.90707 0.6453 0
M  V30 374 H 35.6163 -3.11769 3.39318 0
M  V30 375 H 33.9313 -2.93174 2.95699 0
M  V30 376 H 36.5283 -5.18119 1.32123 0
M  V30 377 H 36.8713 -4.16263 -0.0554308 0
M  V30 378 H 37.4043 -3.65668 1.56625 0
M  V30 379 H 34.1433 -4.98945 4.25128 0
M  V30 380 H 33.6633 -5.4095 2.591 0
M  V30 381 H 35.3423 -5.66337 3.12845 0
M  V30 382 N 35.4744 -0.807222 -1.35358 0
M  V30 383 C 36.4044 -0.232509 -2.3234 0
M  V30 384 C 37.3854 0.642386 -1.57504 0
M  V30 385 O 38.5704 0.572526 -1.85569 0
M  V30 386 C 35.7004 0.619238 -3.41735 0
M  V30 387 C 34.6544 -0.157215 -4.27711 0
M  V30 388 C 33.9804 0.816273 -5.28433 0
M  V30 389 C 35.2804 -1.35656 -5.04376 0
M  V30 390 H 36.9744 -1.04276 -2.80654 0
M  V30 391 H 34.5204 -0.50288 -1.34934 0
M  V30 392 H 36.4734 1.03137 -4.08584 0
M  V30 393 H 35.1974 1.46239 -2.92031 0
M  V30 394 H 33.8564 -0.550525 -3.62443 0
M  V30 395 H 33.5044 1.65494 -4.74996 0
M  V30 396 H 33.2044 0.301067 -5.86828 0
M  V30 397 H 34.7284 1.22659 -5.98153 0
M  V30 398 H 36.1424 -1.01927 -5.64166 0
M  V30 399 H 34.5394 -1.8063 -5.7227 0
M  V30 400 H 35.6094 -2.14288 -4.34981 0
M  V30 401 N 36.9525 1.47285 -0.560781 0
M  V30 402 C 38.1985 2.02764 -0.0381184 0
M  V30 403 C 38.5315 1.43384 1.30976 0
M  V30 404 O 37.8065 0.590733 1.85312 0
M  V30 405 C 38.0895 3.60064 0.0511427 0
M  V30 406 C 37.9425 4.2987 -1.32408 0
M  V30 407 C 39.2615 4.33439 0.762795 0
M  V30 408 H 36.3805 0.736841 -0.0153264 0
M  V30 409 H 39.0225 1.75675 -0.723759 0
M  V30 410 H 37.1725 3.83274 0.635065 0
M  V30 411 H 38.8445 4.17989 -1.95148 0
M  V30 412 H 37.0875 3.90085 -1.8978 0
M  V30 413 H 37.7585 5.38478 -1.21431 0
M  V30 414 H 40.2345 4.15243 0.266965 0
M  V30 415 H 39.1105 5.43124 0.794221 0
M  V30 416 H 39.3715 4.02915 1.81966 0
M  V30 417 N 38.4306 0.297415 1.54768 0
M  V30 418 C 39.6556 -0.318435 2.04941 0
M  V30 419 C 40.0806 -1.4701 1.17345 0
M  V30 420 O 39.4386 -1.80436 0.176758 0
M  V30 421 C 39.4866 -0.755749 3.52592 0
M  V30 422 O 38.5906 -1.86088 3.68028 0
M  V30 423 H 37.9316 -0.062421 0.661059 0
M  V30 424 H 40.4616 0.438215 1.99852 0
M  V30 425 H 40.4716 -1.04552 3.94376 0
M  V30 426 H 39.1466 0.0867233 4.1581 0
M  V30 427 H 37.7236 -1.57193 3.38149 0
M  V30 428 N 39.9087 -1.5758 0.0250728 0
M  V30 429 C 40.8387 -2.13007 -0.956575 0
M  V30 430 C 41.8197 -1.0452 -1.342 0
M  V30 431 O 43.0047 -1.32332 -1.42133 0
M  V30 432 C 40.1347 -2.65386 -2.24026 0
M  V30 433 C 39.0887 -3.78623 -1.99571 0
M  V30 434 C 38.4147 -4.17414 -3.3417 0
M  V30 435 C 39.7147 -5.04867 -1.33814 0
M  V30 436 H 41.4087 -2.9528 -0.494991 0
M  V30 437 H 38.9547 -1.42042 -0.236651 0
M  V30 438 H 40.9077 -3.02794 -2.93076 0
M  V30 439 H 39.6317 -1.80268 -2.72343 0
M  V30 440 H 38.2907 -3.41646 -1.32941 0
M  V30 441 H 37.9387 -3.29284 -3.80238 0
M  V30 442 H 37.6387 -4.93719 -3.18615 0
M  V30 443 H 39.1627 -4.57402 -4.04495 0
M  V30 444 H 40.5767 -5.39888 -1.92857 0
M  V30 445 H 38.9737 -5.86144 -1.28669 0
M  V30 446 H 40.0437 -4.83904 -0.310561 0
M  V30 447 N 41.3868 0.248026 -1.55636 0
M  V30 448 C 42.6148 0.993808 -1.81469 0
M  V30 449 C 43.0298 1.78991 -0.60064 0
M  V30 450 O 42.3868 1.77345 0.430682 0
M  V30 451 C 42.4378 1.93258 -3.05506 0
M  V30 452 O 42.1588 1.16869 -4.22224 0
M  V30 453 C 43.6598 2.79444 -3.4413 0
M  V30 454 H 40.8798 0.292486 -0.603898 0
M  V30 455 H 43.4238 0.271253 -2.02693 0
M  V30 456 H 41.5788 2.60943 -2.86335 0
M  V30 457 H 41.9928 1.80359 -4.92515 0
M  V30 458 H 43.4668 3.41066 -4.34026 0
M  V30 459 H 43.9438 3.50499 -2.64665 0
M  V30 460 H 44.5498 2.17214 -3.65648 0
M  V30 461 N 42.8649 1.48995 0.513639 0
M  V30 462 C 43.7949 1.67636 1.62544 0
M  V30 463 C 44.7759 0.525087 1.61793 0
M  V30 464 O 45.9609 0.759502 1.78732 0
M  V30 465 C 43.0909 1.73114 3.01079 0
M  V30 466 C 42.0449 2.87905 3.16693 0
M  V30 467 C 41.3709 2.78486 4.56453 0
M  V30 468 C 42.6709 4.29005 2.97913 0
M  V30 469 H 44.3649 2.60716 1.47198 0
M  V30 470 H 41.9109 1.25465 0.706714 0
M  V30 471 H 43.8639 1.84742 3.78746 0
M  V30 472 H 42.5879 0.766241 3.17484 0
M  V30 473 H 41.2469 2.75859 2.41448 0
M  V30 474 H 40.8949 1.7993 4.69717 0
M  V30 475 H 40.5949 3.55523 4.67843 0
M  V30 476 H 42.1189 2.92104 5.36197 0
M  V30 477 H 43.5329 4.41798 3.65359 0
M  V30 478 H 41.9299 5.07166 3.20785 0
M  V30 479 H 42.9999 4.44329 1.94165 0
M  V30 480 N 44.343 -0.763751 1.37857 0
M  V30 481 C 45.568 -1.55805 1.36893 0
M  V30 482 C 45.993 -1.88054 -0.0416135 0
M  V30 483 O 45.351 -1.49825 -1.02089 0
M  V30 484 C 45.399 -2.84012 2.22192 0
M  V30 485 O 44.503 -3.78732 1.63204 0
M  V30 486 H 43.844 -0.471638 0.46739 0
M  V30 487 H 46.374 -0.944657 1.81487 0
M  V30 488 H 46.384 -3.33037 2.35691 0
M  V30 489 H 45.059 -2.59869 3.24716 0
M  V30 490 H 43.636 -3.37402 1.58791 0
M  V30 491 N 45.8211 -1.22559 -0.990812 0
M  V30 492 C 47.0691 -1.04933 -1.72724 0
M  V30 493 C 47.3901 0.416158 -1.90508 0
M  V30 494 O 46.6601 1.29918 -1.46622 0
M  V30 495 H 45.2401 -0.385296 -0.639965 0
M  V30 496 H 47.9021 -1.54105 -1.19322 0
M  V30 497 H 46.9981 -1.52886 -2.72089 0
M  V30 498 N 47.2992 1.18797 -1.03562 0
M  V30 499 C 48.2292 2.24472 -0.643019 0
M  V30 500 C 49.2102 1.66433 0.351283 0
M  V30 501 O 50.3952 1.92803 0.232505 0
M  V30 502 C 47.5252 3.473 4.24935e-05 0
M  V30 503 C 46.4792 4.18055 -0.917257 0
M  V30 504 C 45.8052 5.34519 -0.138941 0
M  V30 505 C 47.1052 4.72109 -2.23407 0
M  V30 506 H 48.7992 2.57566 -1.52643 0
M  V30 507 H 46.3452 1.23806 -0.735394 0
M  V30 508 H 48.2982 4.20426 0.286383 0
M  V30 509 H 47.0222 3.13424 0.918299 0
M  V30 510 H 45.6812 3.46821 -1.1879 0
M  V30 511 H 45.3292 4.96891 0.781562 0
M  V30 512 H 45.0292 5.82794 -0.750005 0
M  V30 513 H 46.5532 6.10438 0.1405 0
M  V30 514 H 47.9672 5.36955 -2.00879 0
M  V30 515 H 46.3642 5.30897 -2.79765 0
M  V30 516 H 47.4342 3.89807 -2.88407 0
M  V30 517 N 48.7773 0.814389 1.34928 0
M  V30 518 C 49.7403 0.235759 2.27984 0
M  V30 519 C 50.7403 -0.581412 1.49921 0
M  V30 520 O 51.9303 -0.398758 1.69575 0
M  V30 521 C 49.0623 -0.670433 3.34242 0
M  V30 522 H 50.2553 1.05659 2.80671 0
M  V30 523 H 47.8083 0.585614 1.44915 0
M  V30 524 H 48.5433 -1.51466 2.86755 0
M  V30 525 H 48.3283 -0.0860822 3.92005 0
M  V30 526 H 49.8183 -1.06935 4.03676 0
M  V30 527 N 50.2554 -1.46986 0.568584 0
M  V30 528 C 51.1854 -2.32946 -0.160753 0
M  V30 529 C 52.1664 -1.44487 -0.897631 0
M  V30 530 O 53.3514 -1.73327 -0.875867 0
M  V30 531 C 50.4814 -3.26494 -1.18403 0
M  V30 532 C 49.4354 -4.24282 -0.562895 0
M  V30 533 C 48.7614 -5.07236 -1.69163 0
M  V30 534 C 50.0614 -5.19989 0.490761 0
M  V30 535 H 51.7554 -2.94175 0.556916 0
M  V30 536 H 49.3014 -1.4146 0.26927 0
M  V30 537 H 51.2544 -3.85477 -1.70251 0
M  V30 538 H 49.9784 -2.63343 -1.93179 0
M  V30 539 H 48.6374 -3.66541 -0.0656164 0
M  V30 540 H 48.2854 -4.4048 -2.42871 0
M  V30 541 H 47.9854 -5.7345 -1.28174 0
M  V30 542 H 49.5094 -5.6908 -2.21314 0
M  V30 543 H 50.9234 -5.73271 0.0579047 0
M  V30 544 H 49.3204 -5.94469 0.820165 0
M  V30 545 H 50.3904 -4.64777 1.3824 0
M  V30 546 N 51.7335 -0.305618 -1.54608 0
M  V30 547 C 52.6665 0.610536 -2.19881 0
M  V30 548 C 53.6445 1.1294 -1.16976 0
M  V30 549 O 54.8285 1.19673 -1.45638 0
M  V30 550 C 51.9555 1.83583 -2.84631 0
M  V30 551 C 51.0015 1.4498 -4.01102 0
M  V30 552 S 51.8345 0.501793 -5.33144 0
M  V30 553 C 52.9905 1.73478 -6.01379 0
M  V30 554 H 53.2235 0.0560177 -2.97247 0
M  V30 555 H 50.7565 -0.0897434 -1.54139 0
M  V30 556 H 52.7145 2.53898 -3.22562 0
M  V30 557 H 51.3755 2.36152 -2.07102 0
M  V30 558 H 50.5685 2.36236 -4.45206 0
M  V30 559 H 50.1705 0.826553 -3.64752 0
M  V30 560 H 52.4625 2.67473 -6.22467 0
M  V30 561 H 53.4055 1.33622 -6.95378 0
M  V30 562 H 53.8135 1.9136 -5.31076 0
M  V30 563 N 53.2116 1.57565 -0.0334293 0
M  V30 564 C 54.4396 1.9628 0.654347 0
M  V30 565 C 54.8546 0.910138 1.65414 0
M  V30 566 O 54.2116 -0.107595 1.82183 0
M  V30 567 C 54.2626 3.35067 1.35693 0
M  V30 568 O 53.9836 4.36296 0.397191 0
M  V30 569 C 55.4846 3.88439 2.13613 0
M  V30 570 H 52.7046 0.646369 0.180132 0
M  V30 571 H 55.2486 2.04282 -0.0944721 0
M  V30 572 H 53.4036 3.2827 2.05712 0
M  V30 573 H 53.8176 5.1678 0.896597 0
M  V30 574 H 55.2916 4.8788 2.58219 0
M  V30 575 H 55.7686 3.22914 2.97696 0
M  V30 576 H 56.3746 3.98516 1.48543 0
M  V30 577 N 54.6897 -0.239769 1.55765 0
M  V30 578 C 55.9177 -0.98417 1.81994 0
M  V30 579 C 56.3327 -1.7867 0.610124 0
M  V30 580 O 55.6897 -1.77571 -0.421271 0
M  V30 581 C 55.7407 -1.91635 3.06526 0
M  V30 582 O 55.4617 -1.14629 4.22838 0
M  V30 583 C 56.9627 -2.77616 3.45607 0
M  V30 584 H 54.1827 -0.28928 0.605441 0
M  V30 585 H 56.7267 -0.260499 2.02834 0
M  V30 586 H 54.8817 -2.5942 2.87715 0
M  V30 587 H 55.2957 -1.77745 4.93464 0
M  V30 588 H 56.7697 -3.38759 4.35828 0
M  V30 589 H 57.2467 -3.4909 2.6652 0
M  V30 590 H 57.8527 -2.15271 3.66795 0
M  V30 591 N 56.1678 -1.49265 -0.50573 0
M  V30 592 C 57.3958 -1.62215 -1.28429 0
M  V30 593 C 57.8108 -0.291697 -1.86533 0
M  V30 594 O 57.1678 0.722233 -1.67601 0
M  V30 595 C 57.2188 -2.68735 -2.41793 0
M  V30 596 O 56.9398 -3.96619 -1.86078 0
M  V30 597 C 58.4408 -2.92346 -3.3324 0
M  V30 598 H 55.6608 -0.546239 -0.389697 0
M  V30 599 H 58.2048 -1.95265 -0.607609 0
M  V30 600 H 56.3598 -2.38476 -3.053 0
M  V30 601 H 56.7738 -4.55256 -2.60465 0
M  V30 602 H 58.2478 -3.70623 -4.09075 0
M  V30 603 H 58.7248 -2.02081 -3.89948 0
M  V30 604 H 59.3308 -3.24003 -2.75503 0
M  V30 605 N 57.6459 0.756429 -1.3826 0
M  V30 606 C 58.8949 1.51082 -1.3363 0
M  V30 607 C 59.2079 1.95467 0.0720068 0
M  V30 608 O 60.4139 2.7043 0.240834 0
M  V30 609 C 58.8699 2.72893 -2.34644 0
M  V30 610 C 58.4779 2.35544 -3.81081 0
M  V30 611 C 60.2219 3.50791 -2.39052 0
M  V30 612 C 58.1289 3.53948 -4.73787 0
M  V30 613 H 57.0589 0.56727 -0.49671 0
M  V30 614 H 59.7099 0.827147 -1.638 0
M  V30 615 H 58.0919 3.43227 -1.97513 0
M  V30 616 H 59.2659 1.72894 -4.27135 0
M  V30 617 H 57.5809 1.70786 -3.79764 0
M  V30 618 H 60.1779 4.38823 -3.05513 0
M  V30 619 H 60.5209 3.91745 -1.40861 0
M  V30 620 H 61.0539 2.87467 -2.74968 0
M  V30 621 H 57.7929 3.18064 -5.73163 0
M  V30 622 H 57.3129 4.15651 -4.32428 0
M  V30 623 H 58.9919 4.20566 -4.91663 0
M  V30 624 N 59.124 1.23083 0.984299 0
M  V30 625 C 60.072 1.00593 2.09723 0
M  V30 626 C 61.066 -0.0538014 1.69315 0
M  V30 627 O 62.272 0.0993719 1.79725 0
M  V30 628 H 58.647 0.30817 0.685956 0
M  V30 629 H 60.618 1.95012 2.2586 0
M  V30 630 C 59.367 0.609601 3.42314 0
M  V30 631 H 58.69 1.41675 3.73856 0
M  V30 632 H 60.13 0.491726 4.21139 0
M  V30 633 C 58.589 -0.681745 3.2993 0
M  V30 634 O 59.119 -1.73192 3.62446 0
M  V30 635 N 57.325 -0.656178 2.83095 0
M  V30 636 H 56.872 0.198759 2.56832 0
M  V30 637 H 56.83 -1.52044 2.75191 0
M  V30 638 N 60.6021 -1.18246 1.0419 0
M  V30 639 C 61.8271 -1.92736 0.765996 0
M  V30 640 C 62.2521 -1.75728 -0.67091 0
M  V30 641 O 61.6101 -1.06825 -1.46486 0
M  V30 642 C 61.6581 -3.42148 1.13875 0
M  V30 643 O 60.7621 -4.11548 0.264954 0
M  V30 644 H 60.1031 -0.601238 0.281797 0
M  V30 645 H 62.6331 -1.49942 1.39207 0
M  V30 646 H 62.6431 -3.92858 1.1012 0
M  V30 647 H 61.3181 -3.53848 2.18551 0
M  V30 648 H 59.8951 -3.71137 0.362226 0
M  V30 649 N 62.0802 -0.821533 -1.34494 0
M  V30 650 C 63.0102 -0.257138 -2.3208 0
M  V30 651 C 63.9912 0.625645 -1.58176 0
M  V30 652 O 65.1762 0.552811 -1.86166 0
M  V30 653 C 62.3062 0.582958 -3.42372 0
M  V30 654 C 61.2602 -0.202571 -4.2752 0
M  V30 655 C 60.5862 0.760179 -5.29269 0
M  V30 656 C 61.8862 -1.40998 -5.02908 0
M  V30 657 H 63.5802 -1.07247 -2.79532 0
M  V30 658 H 61.1262 -0.517163 -1.34393 0
M  V30 659 H 63.0792 0.987972 -4.09655 0
M  V30 660 H 61.8032 1.43133 -2.93565 0
M  V30 661 H 60.4622 -0.588936 -3.61838 0
M  V30 662 H 60.1102 1.60447 -4.76724 0
M  V30 663 H 59.8102 0.238809 -5.87115 0
M  V30 664 H 61.3342 1.16308 -5.9942 0
M  V30 665 H 62.7482 -1.07905 -5.63054 0
M  V30 666 H 61.1452 -1.86689 -5.70322 0
M  V30 667 H 62.2152 -2.1889 -4.32684 0
M  V30 668 N 63.5583 1.46682 -0.576371 0
M  V30 669 C 64.8043 2.02712 -0.0596221 0
M  V30 670 C 65.1373 1.44765 1.29448 0
M  V30 671 O 64.4123 0.610355 1.84675 0
M  V30 672 C 64.6953 3.60098 0.0129503 0
M  V30 673 C 64.5483 4.28441 -1.3696 0
M  V30 674 C 65.8673 4.34224 0.71678 0
M  V30 675 H 62.9863 0.736637 -0.0231407 0
M  V30 676 H 65.6283 1.74898 -0.742351 0
M  V30 677 H 63.7783 3.83926 0.594378 0
M  V30 678 H 65.4503 4.15896 -1.9957 0
M  V30 679 H 63.6933 3.8805 -1.93907 0
M  V30 680 H 64.3643 5.3716 -1.27135 0
M  V30 681 H 66.8403 4.15503 0.222908 0
M  V30 682 H 65.7163 5.43936 0.73657 0
M  V30 683 H 65.9773 4.04823 1.77682 0
M  V30 684 N 65.0364 0.313813 1.54444 0
M  V30 685 C 66.2854 -0.292519 1.99568 0
M  V30 686 C 66.5984 -1.54011 1.20582 0
M  V30 687 O 67.8044 -2.22183 1.56035 0
M  V30 688 C 66.2604 -0.571752 3.55329 0
M  V30 689 C 65.8684 0.658229 4.43138 0
M  V30 690 C 67.6124 -1.13857 4.08946 0
M  V30 691 C 65.5194 0.351439 5.90355 0
M  V30 692 H 64.4494 -0.113079 0.745472 0
M  V30 693 H 67.1004 0.424518 1.78522 0
M  V30 694 H 65.4824 -1.34872 3.72325 0
M  V30 695 H 66.6564 1.43403 4.37918 0
M  V30 696 H 64.9714 1.14458 4.0036 0
M  V30 697 H 67.5684 -1.38257 5.16516 0
M  V30 698 H 67.9114 -2.08489 3.6033 0
M  V30 699 H 68.4444 -0.423015 3.95544 0
M  V30 700 H 65.1834 1.26667 6.43145 0
M  V30 701 H 64.7034 -0.386842 5.98551 0
M  V30 702 H 66.3824 -0.0423134 6.46986 0
M  V30 703 N 66.5145 -1.57545 0.0417849 0
M  V30 704 C 67.4775 -2.09885 -0.92093 0
M  V30 705 C 68.4775 -1.01648 -1.24596 0
M  V30 706 O 69.6675 -1.27759 -1.1842 0
M  V30 707 C 66.7995 -2.57527 -2.23367 0
M  V30 708 H 67.9925 -2.96236 -0.467382 0
M  V30 709 H 65.5455 -1.5493 -0.206467 0
M  V30 710 H 66.2805 -1.74542 -2.73323 0
M  V30 711 H 66.0655 -3.36613 -2.01083 0
M  V30 712 H 67.5555 -2.98201 -2.92346 0
M  V30 713 N 67.9926 0.231505 -1.5589 0
M  V30 714 C 68.9556 1.27028 -1.90779 0
M  V30 715 C 69.9556 1.40308 -0.785507 0
M  V30 716 O 71.1456 1.38744 -1.05336 0
M  V30 717 C 68.2776 2.64566 -2.14983 0
M  V30 718 H 69.4706 0.973017 -2.83677 0
M  V30 719 H 67.0236 0.471486 -1.49019 0
M  V30 720 H 67.7586 2.99406 -1.24604 0
M  V30 721 H 67.5436 2.56305 -2.96732 0
M  V30 722 H 69.0336 3.39543 -2.43105 0
M  V30 723 N 69.4707 1.49531 0.497807 0
M  V30 724 C 70.7197 1.58426 1.24837 0
M  V30 725 C 71.0327 0.277643 1.93619 0
M  V30 726 O 72.2387 0.24517 2.70391 0
M  V30 727 C 70.6947 2.79538 2.26686 0
M  V30 728 C 70.3027 4.16971 1.63828 0
M  V30 729 C 72.0467 2.97764 3.0255 0
M  V30 730 C 69.9537 5.29301 2.63807 0
M  V30 731 H 68.8837 0.58989 0.469623 0
M  V30 732 H 71.5347 1.75923 0.521857 0
M  V30 733 H 69.9167 2.55542 3.02514 0
M  V30 734 H 71.0907 4.51116 0.939711 0
M  V30 735 H 69.4057 4.04129 1.00342 0
M  V30 736 H 72.0027 3.78856 3.77323 0
M  V30 737 H 72.3457 2.08448 3.60354 0
M  V30 738 H 72.8787 3.21815 2.33838 0
M  V30 739 H 69.6177 6.20687 2.10779 0
M  V30 740 H 69.1377 4.99606 3.31894 0
M  V30 741 H 70.8167 5.58768 3.2617 0
M  V30 742 N 70.9488 -0.749086 1.3866 0
M  V30 743 C 72.1978 -1.50371 1.3443 0
M  V30 744 C 72.5108 -1.95503 -0.0616397 0
M  V30 745 O 73.7168 -2.70554 -0.226489 0
M  V30 746 C 72.1728 -2.71644 2.36088 0
M  V30 747 C 71.7808 -2.3352 3.82325 0
M  V30 748 C 73.5248 -3.49518 2.40909 0
M  V30 749 C 71.4318 -3.51431 4.75658 0
M  V30 750 H 70.3618 -0.564628 0.499712 0
M  V30 751 H 73.0128 -0.818449 1.64237 0
M  V30 752 H 71.3948 -3.42175 1.9933 0
M  V30 753 H 72.5688 -1.70627 4.28046 0
M  V30 754 H 70.8838 -1.6877 3.80665 0
M  V30 755 H 73.4808 -4.37197 3.07836 0
M  V30 756 H 73.8238 -3.90992 1.42937 0
M  V30 757 H 74.3568 -2.86005 2.76489 0
M  V30 758 H 71.0958 -3.15019 5.74842 0
M  V30 759 H 70.6158 -4.13352 4.34627 0
M  V30 760 H 72.2948 -4.17953 4.93887 0
M  V30 761 N 72.4269 -1.23603 -0.977757 0
M  V30 762 C 73.6729 -1.07129 -1.72195 0
M  V30 763 C 74.0059 0.390501 -1.90233 0
M  V30 764 O 73.2809 1.28902 -1.45653 0
M  V30 765 C 73.5639 -1.80031 -3.11867 0
M  V30 766 C 73.4169 -3.33899 -3.01383 0
M  V30 767 C 74.7359 -1.56492 -4.11337 0
M  V30 768 H 71.8549 -0.390571 -0.624999 0
M  V30 769 H 74.4969 -1.52142 -1.13811 0
M  V30 770 H 72.6469 -1.41768 -3.6171 0
M  V30 771 H 74.3189 -3.81699 -2.59043 0
M  V30 772 H 72.5619 -3.62796 -2.37827 0
M  V30 773 H 73.2329 -3.801 -4.00285 0
M  V30 774 H 75.7089 -1.89757 -3.70313 0
M  V30 775 H 74.5849 -2.09973 -5.07151 0
M  V30 776 H 74.8459 -0.500874 -4.39254 0
M  V30 777 N 73.905 1.17692 -1.04816 0
M  V30 778 C 75.133 1.91786 -0.776254 0
M  V30 779 C 75.548 1.76604 0.667577 0
M  V30 780 O 74.905 1.10067 1.45573 0
M  V30 781 C 74.956 3.42967 -1.14263 0
M  V30 782 O 74.677 3.57678 -2.52978 0
M  V30 783 C 76.178 4.34144 -0.896311 0
M  V30 784 H 73.398 0.608624 -0.282519 0
M  V30 785 H 75.942 1.49268 -1.39783 0
M  V30 786 H 74.097 3.83245 -0.565874 0
M  V30 787 H 74.511 4.51319 -2.67229 0
M  V30 788 H 75.985 5.38744 -1.20244 0
M  V30 789 H 76.462 4.38876 0.168636 0
M  V30 790 H 77.068 3.99574 -1.45672 0
M  V30 791 N 75.3831 0.828654 1.34056 0
M  V30 792 C 76.7991 0.515135 1.51058 0
M  V30 793 C 76.9991 -0.959581 1.77184 0
M  V30 794 O 76.0551 -1.74382 1.82612 0
M  V30 795 C 77.3681 1.37963 2.67183 0
M  V30 796 C 78.9161 1.37735 2.81066 0
M  V30 797 C 79.3911 2.22645 4.00241 0
M  V30 798 N 80.8821 2.203 4.07458 0
M  V30 799 C 81.6171 2.82744 4.98842 0
M  V30 800 N 81.1131 3.54201 5.9541 0
M  V30 801 N 82.9061 2.72268 4.91759 0
M  V30 802 H 75.0571 1.78343 1.15358 0
M  V30 803 H 77.3201 0.760304 0.566252 0
M  V30 804 H 77.0261 2.42714 2.54525 0
M  V30 805 H 76.9001 1.0484 3.62338 0
M  V30 806 H 79.2871 0.337593 2.93163 0
M  V30 807 H 79.3681 1.74859 1.86703 0
M  V30 808 H 79.0121 3.26674 3.88905 0
M  V30 809 H 78.9421 1.82869 4.93829 0
M  V30 810 H 81.4331 1.68327 3.38341 0
M  V30 811 H 81.7461 3.9908 6.61782 0
M  V30 812 H 80.0911 3.58308 5.95517 0
M  V30 813 H 83.2821 2.16014 4.15278 0
M  V30 814 H 83.4551 3.21219 5.62781 0
M  V30 815 N 76.8612 -1.46375 0.584142 0
M  V30 816 C 77.8082 -2.30323 -0.148286 0
M  V30 817 C 78.7782 -1.40703 -0.882713 0
M  V30 818 O 79.9632 -1.69651 -0.873099 0
M  V30 819 C 77.1032 -3.25196 -1.15507 0
M  V30 820 C 76.2162 -4.29915 -0.423943 0
M  V30 821 C 75.3512 -5.11914 -1.41838 0
M  V30 822 C 74.3902 -6.08381 -0.673736 0
M  V30 823 N 73.5272 -6.83242 -1.6163 0
M  V30 824 H 78.3672 -2.92427 0.573644 0
M  V30 825 H 75.9042 -1.44118 0.294703 0
M  V30 826 H 77.8622 -3.78646 -1.75166 0
M  V30 827 H 76.4922 -2.64898 -1.8447 0
M  V30 828 H 75.5442 -3.7931 0.287714 0
M  V30 829 H 76.8562 -4.98549 0.158128 0
M  V30 830 H 76.0102 -5.69648 -2.08773 0
M  V30 831 H 74.7492 -4.43243 -2.03438 0
M  V30 832 H 73.7542 -5.49799 0.00938483 0
M  V30 833 H 74.9792 -6.79071 -0.0631082 0
M  V30 834 H 72.9252 -6.1728 -2.22038 0
M  V30 835 H 72.8422 -7.48144 -1.08707 0
M  V30 836 H 74.1102 -7.45534 -2.27596 0
M  V30 837 N 78.3393 -0.321999 -1.54275 0
M  V30 838 C 79.2693 0.537411 -2.27231 0
M  V30 839 C 80.2503 1.12064 -1.27968 0
M  V30 840 O 81.4353 1.14606 -1.56777 0
M  V30 841 C 78.5653 1.69919 -3.02894 0
M  V30 842 C 77.5193 1.24534 -4.09482 0
M  V30 843 C 76.8453 2.49394 -4.72977 0
M  V30 844 C 78.1453 0.361335 -5.21049 0
M  V30 845 H 79.8393 -0.0711406 -2.99315 0
M  V30 846 H 77.3853 -0.0356555 -1.43956 0
M  V30 847 H 79.3383 2.30668 -3.52662 0
M  V30 848 H 78.0623 2.33431 -2.28424 0
M  V30 849 H 76.7213 0.660782 -3.60596 0
M  V30 850 H 76.3693 3.11265 -3.95124 0
M  V30 851 H 76.0693 2.19718 -5.44975 0
M  V30 852 H 77.5933 3.10908 -5.25517 0
M  V30 853 H 79.0073 0.875072 -5.66582 0
M  V30 854 H 77.4043 0.157428 -5.99893 0
M  V30 855 H 78.4743 -0.60822 -4.8107 0
M  V30 856 N 79.8174 1.5752 -0.0501392 0
M  V30 857 C 80.7674 2.07981 0.934231 0
M  V30 858 C 81.7514 0.984745 1.27246 0
M  V30 859 O 82.9434 1.24809 1.25506 0
M  V30 860 C 80.0724 2.62751 2.20945 0
M  V30 861 C 79.1584 3.79225 1.89865 0
M  V30 862 N 79.5494 4.89036 1.29142 0
M  V30 863 C 77.8474 3.88111 2.19741 0
M  V30 864 C 78.5484 5.70084 1.15669 0
M  V30 865 N 77.5244 5.17659 1.65923 0
M  V30 866 H 81.3264 2.90277 0.460053 0
M  V30 867 H 78.8404 1.61665 0.15434 0
M  V30 868 H 80.8374 2.97205 2.9236 0
M  V30 869 H 79.4974 1.81894 2.6897 0
M  V30 870 H 80.5084 5.08854 0.963756 0
M  V30 871 H 77.1854 3.18194 2.70293 0
M  V30 872 H 78.5754 6.68395 0.685356 0
M  V30 873 N 81.2955 -0.223234 1.56011 0
M  V30 874 C 82.2455 -1.28008 1.88674 0
M  V30 875 C 83.2295 -1.42369 0.749663 0
M  V30 876 O 84.4215 -1.45212 1.01205 0
M  V30 877 C 81.5505 -2.63084 2.20548 0
M  V30 878 C 80.6365 -2.52632 3.40643 0
M  V30 879 N 81.0275 -2.11829 4.59306 0
M  V30 880 C 79.3255 -2.83594 3.44224 0
M  V30 881 C 80.0265 -2.12587 5.41463 0
M  V30 882 N 79.0025 -2.5301 4.81131 0
M  V30 883 H 82.8045 -0.955487 2.77935 0
M  V30 884 H 80.3185 -0.431801 1.56554 0
M  V30 885 H 82.3155 -3.39385 2.42122 0
M  V30 886 H 80.9755 -2.96391 1.32599 0
M  V30 887 H 81.9865 -1.82988 4.84496 0
M  V30 888 H 78.6635 -3.21284 2.66614 0
M  V30 889 H 80.0535 -1.83179 6.46448 0
M  V30 890 N 82.7736 -1.49793 -0.48987 0
M  V30 891 C 84.1846 -1.52914 -1.07118 0
M  V30 892 C 84.5356 -0.321738 -1.93544 0
M  V30 893 O 83.6606 0.567338 -2.08831 0
M  V30 894 C 84.2556 -2.771 -1.94938 0
M  V30 895 C 82.8146 -2.82963 -2.48212 0
M  V30 896 C 81.9616 -2.46972 -1.26096 0
M  V30 897 H 84.9126 -1.56329 -0.273289 0
M  V30 898 H 84.9336 -2.57892 -2.79771 0
M  V30 899 H 84.4456 -3.64959 -1.32009 0
M  V30 900 H 82.5466 -1.99411 -3.14748 0
M  V30 901 H 82.6596 -3.85406 -2.84603 0
M  V30 902 H 81.0236 -1.98994 -1.58976 0
M  V30 903 H 81.8066 -3.37118 -0.648581 0
M  V30 904 N 84.2517 0.741722 -1.39055 0
M  V30 905 C 85.2147 1.83733 -1.37021 0
M  V30 906 C 86.2147 1.58542 -0.268534 0
M  V30 907 O 87.4047 1.66067 -0.526076 0
M  V30 908 C 84.5367 3.2141 -1.13617 0
M  V30 909 H 85.7297 1.86941 -2.34506 0
M  V30 910 H 83.2827 0.944676 -1.24521 0
M  V30 911 H 84.0177 3.23865 -0.167863 0
M  V30 912 H 83.8027 3.4109 -1.93391 0
M  V30 913 H 85.2927 4.01477 -1.14918 0
M  V30 914 N 85.7298 1.2412 0.971189 0
M  V30 915 C 86.6778 1.02812 2.08644 0
M  V30 916 C 87.6718 -0.0358403 1.69362 0
M  V30 917 O 88.8778 0.118429 1.7961 0
M  V30 918 H 85.2528 0.315428 0.682649 0
M  V30 919 H 87.2238 1.97397 2.23779 0
M  V30 920 C 85.9728 0.645874 3.41649 0
M  V30 921 H 85.2958 1.45632 3.72332 0
M  V30 922 H 86.7358 0.536366 4.20594 0
M  V30 923 C 85.1948 -0.646713 3.30635 0
M  V30 924 O 85.7248 -1.69338 3.64263 0
M  V30 925 N 83.9308 -0.626115 2.83775 0
M  V30 926 H 83.4778 0.225988 2.56607 0
M  V30 927 H 83.4358 -1.49117 2.76788 0
M  V30 928 N 87.2079 -1.17134 1.05439 0
M  V30 929 C 88.4379 -1.91094 0.785274 0
M  V30 930 C 88.8459 -1.77198 -0.663142 0
M  V30 931 O 88.1889 -1.10835 -1.46497 0
M  V30 932 C 88.2509 -3.42594 1.08949 0
M  V30 933 C 87.9149 -3.80274 2.53458 0
M  V30 934 C 88.9119 -3.82912 3.51673 0
M  V30 935 C 86.5969 -4.11162 2.88532 0
M  V30 936 C 88.5909 -4.15913 4.83006 0
M  V30 937 C 86.2779 -4.43831 4.20068 0
M  V30 938 C 87.2759 -4.46185 5.17115 0
M  V30 939 O 86.9639 -4.78083 6.46291 0
M  V30 940 H 86.6959 -0.613073 0.284811 0
M  V30 941 H 89.2499 -1.49461 1.40893 0
M  V30 942 H 87.4799 -3.84534 0.408741 0
M  V30 943 H 89.1689 -3.97817 0.805991 0
M  V30 944 H 89.9349 -3.5917 3.25917 0
M  V30 945 H 85.8139 -4.085 2.13656 0
M  V30 946 H 89.3579 -4.17665 5.5875 0
M  V30 947 H 85.2549 -4.67037 4.45586 0
M  V30 948 H 86.0229 -4.9593 6.51149 0
M  V30 949 N 88.686 -0.835752 -1.33615 0
M  V30 950 C 89.616 -0.281739 -2.31794 0
M  V30 951 C 90.597 0.608833 -1.58831 0
M  V30 952 O 91.782 0.533035 -1.86741 0
M  V30 953 C 88.912 0.546612 -3.42971 0
M  V30 954 C 87.866 -0.247904 -4.27281 0
M  V30 955 C 87.192 0.704001 -5.30045 0
M  V30 956 C 88.492 -1.46324 -5.01385 0
M  V30 957 H 90.186 -1.10206 -2.78379 0
M  V30 958 H 87.732 -0.531388 -1.33837 0
M  V30 959 H 89.685 0.944467 -4.1068 0
M  V30 960 H 88.409 1.40011 -2.95067 0
M  V30 961 H 87.068 -0.627281 -3.61194 0
M  V30 962 H 86.716 1.55381 -4.78399 0
M  V30 963 H 86.416 0.176524 -5.87335 0
M  V30 964 H 87.94 1.09944 -6.0062 0
M  V30 965 H 89.354 -1.13871 -5.61877 0
M  V30 966 H 87.751 -1.92728 -5.6831 0
M  V30 967 H 88.821 -2.23467 -4.30338 0
M  V30 968 N 90.1641 1.46063 -0.591896 0
M  V30 969 C 91.4131 2.01547 -0.0786637 0
M  V30 970 C 91.7261 1.46796 1.29268 0
M  V30 971 O 92.9321 1.94157 1.89777 0
M  V30 972 C 91.3881 3.59787 -0.0900024 0
M  V30 973 C 90.9961 4.23534 -1.46023 0
M  V30 974 C 92.7401 4.22895 0.368806 0
M  V30 975 C 90.6471 5.73881 -1.4288 0
M  V30 976 H 89.5771 0.753564 -0.0256388 0
M  V30 977 H 92.2281 1.677 -0.744905 0
M  V30 978 H 90.6101 3.90752 0.642586 0
M  V30 979 H 91.7841 4.04167 -2.21328 0
M  V30 980 H 90.0991 3.72558 -1.85982 0
M  V30 981 H 92.6961 5.33116 0.411258 0
M  V30 982 H 93.0391 3.9247 1.38827 0
M  V30 983 H 93.5721 3.9659 -0.31001 0
M  V30 984 H 90.3111 6.0898 -2.42536 0
M  V30 985 H 89.8311 5.95486 -0.718095 0
M  V30 986 H 91.5101 6.36776 -1.14565 0
M  V30 987 N 91.6422 0.330177 1.54103 0
M  V30 988 C 92.8822 -0.270916 2.02597 0
M  V30 989 C 93.2462 -1.48826 1.21304 0
M  V30 990 O 94.4472 -2.16266 1.59633 0
M  V30 991 C 92.7182 -0.590328 3.52491 0
M  V30 992 S 94.2772 -1.17014 4.2291 0
M  V30 993 H 91.0952 -0.0815379 0.706309 0
M  V30 994 H 93.6972 0.464835 1.89893 0
M  V30 995 H 92.4012 0.303691 4.09275 0
M  V30 996 H 91.9322 -1.3561 3.69288 0
M  V30 997 H 93.9472 -2.45662 4.3112 0
M  V30 998 N 93.1203 -1.57491 0.0584922 0
M  V30 999 C 94.3453 -1.97711 -0.62652 0
M  V30 1000 C 94.7703 -0.936132 -1.63151 0
M  V30 1001 O 94.1283 0.099811 -1.81025 0
M  V30 1002 C 94.1763 -3.36989 -1.28338 0
M  V30 1003 O 93.2803 -3.35433 -2.39913 0
M  V30 1004 H 92.6213 -0.643868 -0.162266 0
M  V30 1005 H 95.1513 -2.04193 0.129064 0
M  V30 1006 H 95.1613 -3.73879 -1.63335 0
M  V30 1007 H 93.8363 -4.12289 -0.546889 0
M  V30 1008 H 92.4133 -3.10298 -2.06809 0
M  V30 1009 N 94.5984 0.214957 -1.56127 0
M  V30 1010 C 95.5284 1.2695 -1.95974 0
M  V30 1011 C 96.5094 1.48539 -0.828868 0
M  V30 1012 O 97.6944 1.60611 -1.09168 0
M  V30 1013 C 94.8244 2.61794 -2.28214 0
M  V30 1014 C 93.7784 2.54851 -3.43853 0
M  V30 1015 C 93.1044 3.93785 -3.61715 0
M  V30 1016 C 94.4044 2.09065 -4.78632 0
M  V30 1017 H 96.0984 0.93846 -2.84312 0
M  V30 1018 H 93.6444 0.449996 -1.36788 0
M  V30 1019 H 95.5974 3.35731 -2.54682 0
M  V30 1020 H 94.3214 2.96599 -1.36736 0
M  V30 1021 H 92.9804 1.8337 -3.17444 0
M  V30 1022 H 92.6284 4.25908 -2.67602 0
M  V30 1023 H 92.3284 3.90019 -4.39498 0
M  V30 1024 H 93.8524 4.69374 -3.90539 0
M  V30 1025 H 95.2664 2.7275 -5.04262 0
M  V30 1026 H 93.6634 2.16346 -5.59745 0
M  V30 1027 H 94.7334 1.04315 -4.73547 0
M  V30 1028 N 96.0765 1.50051 0.48192 0
M  V30 1029 C 97.0395 1.67584 1.5636 0
M  V30 1030 C 98.0395 0.546894 1.51214 0
M  V30 1031 O 99.2295 0.813725 1.54026 0
M  V30 1032 C 96.3615 1.691 2.96003 0
M  V30 1033 H 97.5545 2.64078 1.42136 0
M  V30 1034 H 95.1075 1.39369 0.707533 0
M  V30 1035 H 95.8425 0.742589 3.15684 0
M  V30 1036 H 95.6275 2.51105 3.01146 0
M  V30 1037 H 97.1175 1.84656 3.74556 0
M  V30 1038 N 97.5546 -0.734337 1.39446 0
M  V30 1039 C 98.8006 -1.49613 1.36908 0
M  V30 1040 C 99.1336 -1.94169 -0.0347829 0
M  V30 1041 O 98.4086 -1.66833 -0.999847 0
M  V30 1042 C 98.6916 -2.73534 2.34203 0
M  V30 1043 C 98.5446 -2.34993 3.83534 0
M  V30 1044 C 99.8636 -3.75635 2.29317 0
M  V30 1045 H 96.9826 -0.542714 0.498629 0
M  V30 1046 H 99.6246 -0.839597 1.70443 0
M  V30 1047 H 97.7746 -3.29553 2.05736 0
M  V30 1048 H 99.4466 -1.84601 4.22753 0
M  V30 1049 H 97.6896 -1.67213 4.00278 0
M  V30 1050 H 98.3606 -3.23738 4.47099 0
M  V30 1051 H 100.837 -3.29203 2.54489 0
M  V30 1052 H 99.7126 -4.60008 2.99472 0
M  V30 1053 H 99.9736 -4.22603 1.29842 0
M  V30 1054 N 99.0327 -1.24633 -0.964593 0
M  V30 1055 C 100.261 -1.11501 -1.74285 0
M  V30 1056 C 100.676 0.332165 -1.85855 0
M  V30 1057 O 100.033 1.22903 -1.34911 0
M  V30 1058 C 100.084 -1.75258 -3.16175 0
M  V30 1059 O 99.8047 -3.14318 -3.05182 0
M  V30 1060 C 101.306 -1.67776 -4.10324 0
M  V30 1061 H 98.5257 -0.389407 -0.546446 0
M  V30 1062 H 101.07 -1.64801 -1.21083 0
M  V30 1063 H 99.2247 -1.25954 -3.66353 0
M  V30 1064 H 99.6387 -3.4551 -3.94618 0
M  V30 1065 H 101.113 -2.17064 -5.0753 0
M  V30 1066 H 101.59 -0.639584 -4.34518 0
M  V30 1067 H 102.196 -2.16522 -3.66058 0
M  V30 1068 N 100.511 1.16574 -1.06058 0
M  V30 1069 C 101.788 1.83048 -0.689416 0
M  V30 1070 C 102.168 1.94122 0.829443 0
M  V30 1071 O 101.516 1.48249 1.7388 0
M  V30 1072 C 101.726 3.20186 -1.38859 0
M  V30 1073 C 103.074 3.95989 -1.53226 0
M  V30 1074 O 104.098 3.29696 -1.3483 0
M  V30 1075 O 102.957 5.14813 -1.83384 0
M  V30 1076 H 100.051 0.790258 -0.243764 0
M  V30 1077 H 102.597 1.23797 -1.16071 0
M  V30 1078 H 101.369 3.07146 -2.4244 0
M  V30 1079 H 100.992 3.87112 -0.907216 0
M  V30 1080 N 101.989 0.842826 1.3317 0
M  V30 1081 C 103.236 0.440447 1.97652 0
M  V30 1082 C 103.564 -1.00123 1.6675 0
M  V30 1083 O 102.819 -1.7155 0.941761 0
M  V30 1084 C 103.118 0.612607 3.52111 0
M  V30 1085 C 102.784 2.02297 4.02972 0
M  V30 1086 C 101.446 2.40874 4.16573 0
M  V30 1087 C 103.798 2.94402 4.30089 0
M  V30 1088 C 101.126 3.70852 4.54627 0
M  V30 1089 C 103.478 4.23865 4.69597 0
M  V30 1090 C 102.142 4.62392 4.81404 0
M  V30 1091 H 101.412 0.161171 0.72326 0
M  V30 1092 H 104.059 1.07061 1.58777 0
M  V30 1093 H 102.364 -0.100849 3.9167 0
M  V30 1094 H 104.061 0.2815 4.00011 0
M  V30 1095 H 100.651 1.71338 3.92863 0
M  V30 1096 H 104.835 2.65835 4.19101 0
M  V30 1097 H 100.091 4.00501 4.61962 0
M  V30 1098 H 104.265 4.95306 4.89536 0
M  V30 1099 H 101.892 5.63154 5.10648 0
M  V30 1100 N 103.467 -1.45747 0.599634 0
M  V30 1101 C 104.397 -2.33235 -0.111306 0
M  V30 1102 C 105.378 -1.46359 -0.866781 0
M  V30 1103 O 106.563 -1.75146 -0.838904 0
M  V30 1104 C 103.693 -3.28932 -1.11451 0
M  V30 1105 C 102.647 -4.25381 -0.472772 0
M  V30 1106 C 101.973 -5.1071 -1.58365 0
M  V30 1107 C 103.273 -5.18831 0.600948 0
M  V30 1108 H 104.967 -2.92927 0.61919 0
M  V30 1109 H 102.513 -1.40857 0.299215 0
M  V30 1110 H 104.466 -3.89002 -1.62036 0
M  V30 1111 H 103.19 -2.67381 -1.8755 0
M  V30 1112 H 101.849 -3.66598 0.0121472 0
M  V30 1113 H 101.497 -4.45533 -2.33473 0
M  V30 1114 H 101.197 -5.7604 -1.15982 0
M  V30 1115 H 102.721 -5.73647 -2.09194 0
M  V30 1116 H 104.135 -5.73019 0.179491 0
M  V30 1117 H 102.532 -5.92595 0.946076 0
M  V30 1118 H 103.602 -4.6174 1.48068 0
M  V30 1119 N 104.945 -0.338344 -1.53925 0
M  V30 1120 C 106.191 0.260143 -2.01125 0
M  V30 1121 C 106.524 1.50617 -1.22589 0
M  V30 1122 O 105.799 1.91979 -0.312113 0
M  V30 1123 C 106.082 0.579499 -3.55407 0
M  V30 1124 C 105.935 -0.678264 -4.44657 0
M  V30 1125 C 107.254 1.39122 -4.17532 0
M  V30 1126 H 104.373 0.0930772 -0.731099 0
M  V30 1127 H 107.015 -0.457852 -1.84401 0
M  V30 1128 H 105.165 1.19118 -3.69788 0
M  V30 1129 H 106.837 -1.31631 -4.42121 0
M  V30 1130 H 105.08 -1.3042 -4.13731 0
M  V30 1131 H 105.751 -0.410143 -5.50474 0
M  V30 1132 H 108.227 0.874035 -4.06817 0
M  V30 1133 H 107.103 1.58342 -5.25565 0
M  V30 1134 H 107.364 2.39178 -3.71815 0
M  V30 1135 N 106.423 1.57458 -0.0668435 0
M  V30 1136 C 107.386 2.11323 0.887422 0
M  V30 1137 C 108.386 1.03618 1.22964 0
M  V30 1138 O 109.576 1.29626 1.16373 0
M  V30 1139 C 106.708 2.61048 2.19242 0
M  V30 1140 H 107.901 2.96942 0.420194 0
M  V30 1141 H 105.454 1.55239 0.181793 0
M  V30 1142 H 106.189 1.78868 2.70512 0
M  V30 1143 H 105.974 3.39769 1.95702 0
M  V30 1144 H 107.464 3.02814 2.87565 0
M  V30 1145 N 107.901 -0.206675 1.56239 0
M  V30 1146 C 109.147 -0.930218 1.80208 0
M  V30 1147 C 109.48 -1.83387 0.638981 0
M  V30 1148 O 108.755 -1.91119 -0.361066 0
M  V30 1149 C 109.038 -1.75641 3.1436 0
M  V30 1150 C 108.891 -0.878257 4.41142 0
M  V30 1151 C 110.21 -2.73129 3.45092 0
M  V30 1152 H 107.329 -0.336742 0.655571 0
M  V30 1153 H 109.971 -0.198222 1.88963 0
M  V30 1154 H 108.121 -2.38048 3.07027 0
M  V30 1155 H 109.793 -0.269787 4.6051 0
M  V30 1156 H 108.036 -0.184385 4.33408 0
M  V30 1157 H 108.707 -1.49106 5.3148 0
M  V30 1158 H 111.183 -2.20856 3.52649 0
M  V30 1159 H 110.059 -3.28028 4.40101 0
M  V30 1160 H 110.32 -3.51606 2.68003 0
M  V30 1161 N 109.379 -1.50304 -0.473955 0
M  V30 1162 C 110.309 -1.71886 -1.58042 0
M  V30 1163 C 111.29 -0.567799 -1.60344 0
M  V30 1164 O 112.475 -0.806623 -1.76656 0
M  V30 1165 C 109.605 -1.81036 -2.96384 0
M  V30 1166 C 108.559 -2.962 -3.08949 0
M  V30 1167 C 107.885 -2.9049 -4.48909 0
M  V30 1168 C 109.185 -4.36752 -2.86434 0
M  V30 1169 H 110.879 -2.64527 -1.40234 0
M  V30 1170 H 108.425 -1.27295 -0.673201 0
M  V30 1171 H 110.378 -1.94719 -3.73714 0
M  V30 1172 H 109.102 -0.850147 -3.15341 0
M  V30 1173 H 107.761 -2.82164 -2.3405 0
M  V30 1174 H 107.409 -1.92321 -4.64781 0
M  V30 1175 H 107.109 -3.67802 -4.58253 0
M  V30 1176 H 108.633 -3.06218 -5.28264 0
M  V30 1177 H 110.047 -4.5133 -3.53517 0
M  V30 1178 H 108.444 -5.15493 -3.07225 0
M  V30 1179 H 109.514 -4.49321 -1.82316 0
M  V30 1180 N 110.857 0.726932 -1.39834 0
M  V30 1181 C 112.103 1.48884 -1.377 0
M  V30 1182 C 112.436 1.94185 0.0244852 0
M  V30 1183 O 111.711 1.67361 0.990986 0
M  V30 1184 C 111.994 2.72288 -2.3565 0
M  V30 1185 C 111.847 2.32956 -3.84775 0
M  V30 1186 C 113.166 3.74414 -2.31306 0
M  V30 1187 H 110.285 0.540062 -0.5015 0
M  V30 1188 H 112.927 0.830547 -1.70886 0
M  V30 1189 H 111.077 3.28457 -2.07481 0
M  V30 1190 H 112.749 1.82356 -4.23726 0
M  V30 1191 H 110.992 1.65088 -4.01159 0
M  V30 1192 H 111.663 3.21362 -4.4881 0
M  V30 1193 H 114.139 3.27849 -2.56231 0
M  V30 1194 H 113.015 4.58414 -3.01907 0
M  V30 1195 H 113.276 4.21909 -1.32081 0
M  V30 1196 N 112.336 1.25143 0.95797 0
M  V30 1197 C 113.269 0.995565 2.05338 0
M  V30 1198 C 114.247 -0.0740423 1.62431 0
M  V30 1199 O 115.431 0.0649212 1.88388 0
M  V30 1200 C 112.558 0.504298 3.34925 0
M  V30 1201 C 111.604 1.56393 3.96792 0
M  V30 1202 S 112.437 3.14815 4.33188 0
M  V30 1203 C 113.593 2.67415 5.65898 0
M  V30 1204 H 113.826 1.92309 2.26726 0
M  V30 1205 H 111.359 1.08635 1.09716 0
M  V30 1206 H 113.317 0.227497 4.09869 0
M  V30 1207 H 111.978 -0.402671 3.11508 0
M  V30 1208 H 111.171 1.17082 4.90212 0
M  V30 1209 H 110.773 1.79124 3.28315 0
M  V30 1210 H 113.065 2.10833 6.4386 0
M  V30 1211 H 114.008 3.59463 6.10076 0
M  V30 1212 H 114.416 2.07521 5.24972 0
M  V30 1213 N 113.814 -1.1601 1.06675 0
M  V30 1214 C 115.225 -1.68235 0.809565 0
M  V30 1215 C 115.576 -1.8454 -0.666303 0
M  V30 1216 O 114.701 -1.54374 -1.5165 0
M  V30 1217 C 115.296 -3.05585 1.46299 0
M  V30 1218 C 113.855 -3.54915 1.25349 0
M  V30 1219 C 113.002 -2.30804 1.53703 0
M  V30 1220 H 115.953 -1.00318 1.22971 0
M  V30 1221 H 115.974 -3.70174 0.880431 0
M  V30 1222 H 115.486 -2.93686 2.53713 0
M  V30 1223 H 113.587 -3.72067 0.199261 0
M  V30 1224 H 113.7 -4.36774 1.9689 0
M  V30 1225 H 112.064 -2.36007 0.957739 0
M  V30 1226 H 112.847 -2.21499 2.62284 0
M  V30 1227 N 115.292 -0.849877 -1.32721 0
M  V30 1228 C 116.539 -0.450923 -1.97416 0
M  V30 1229 C 116.867 0.992376 -1.67279 0
M  V30 1230 O 116.122 1.71048 -0.950845 0
M  V30 1231 C 116.421 -0.631272 -3.51781 0
M  V30 1232 C 116.087 -2.04432 -4.01894 0
M  V30 1233 C 114.749 -2.4308 -4.1529 0
M  V30 1234 C 117.101 -2.96679 -4.28522 0
M  V30 1235 C 114.429 -3.73257 -4.52654 0
M  V30 1236 C 116.781 -4.26349 -4.67343 0
M  V30 1237 C 115.445 -4.64939 -4.78945 0
M  V30 1238 H 114.715 -0.165004 -0.722395 0
M  V30 1239 H 117.362 -1.07901 -1.58207 0
M  V30 1240 H 115.667 0.0800767 -3.91718 0
M  V30 1241 H 117.364 -0.302709 -3.99856 0
M  V30 1242 H 113.954 -1.73419 -3.91949 0
M  V30 1243 H 118.138 -2.68054 -4.17685 0
M  V30 1244 H 113.394 -4.02946 -4.59831 0
M  V30 1245 H 117.568 -4.97895 -4.86902 0
M  V30 1246 H 115.195 -5.65855 -5.07654 0
M  V30 1247 N 116.77 1.45427 -0.607355 0
M  V30 1248 C 117.995 2.07124 -0.107006 0
M  V30 1249 C 118.42 1.44906 1.19933 0
M  V30 1250 O 117.778 0.541687 1.73019 0
M  V30 1251 C 117.826 3.60595 0.0194119 0
M  V30 1252 O 116.93 3.98285 1.0697 0
M  V30 1253 H 116.271 0.659868 -0.0739597 0
M  V30 1254 H 118.801 1.86683 -0.837297 0
M  V30 1255 H 118.811 4.07419 0.2177 0
M  V30 1256 H 117.486 4.05266 -0.934453 0
M  V30 1257 H 116.063 3.63133 0.847889 0
M  V30 1258 N 118.248 0.346503 1.53744 0
M  V30 1259 C 119.497 -0.250122 2.00143 0
M  V30 1260 C 119.81 -1.51418 1.23822 0
M  V30 1261 O 121.016 -2.18823 1.60713 0
M  V30 1262 C 119.472 -0.496252 3.56462 0
M  V30 1263 C 119.08 0.752077 4.41642 0
M  V30 1264 C 120.824 -1.05157 4.11269 0
M  V30 1265 C 118.731 0.476583 5.89477 0
M  V30 1266 H 117.661 -0.0972409 0.747703 0
M  V30 1267 H 120.312 0.46229 1.77581 0
M  V30 1268 H 118.694 -1.26944 3.75102 0
M  V30 1269 H 119.868 1.5266 4.34778 0
M  V30 1270 H 118.183 1.22925 3.97842 0
M  V30 1271 H 120.78 -1.27269 5.19333 0
M  V30 1272 H 121.123 -2.00799 3.64672 0
M  V30 1273 H 121.656 -0.339019 3.96353 0
M  V30 1274 H 118.395 1.4028 6.40314 0
M  V30 1275 H 117.915 -0.259794 5.99237 0
M  V30 1276 H 119.594 0.0949315 6.4693 0
M  V30 1277 N 119.726 -1.57421 0.075193 0
M  V30 1278 C 120.972 -1.93905 -0.594025 0
M  V30 1279 C 121.305 -0.955701 -1.69056 0
M  V30 1280 O 120.58 0.0145373 -1.94495 0
M  V30 1281 C 120.863 -3.40638 -1.1678 0
M  V30 1282 C 120.716 -4.49733 -0.0776792 0
M  V30 1283 C 122.035 -3.88259 -2.07228 0
M  V30 1284 H 119.154 -0.705105 -0.214466 0
M  V30 1285 H 121.796 -1.8947 0.141854 0
M  V30 1286 H 119.946 -3.44549 -1.79494 0
M  V30 1287 H 121.618 -4.57942 0.555573 0
M  V30 1288 H 119.861 -4.29751 0.591286 0
M  V30 1289 H 120.532 -5.49549 -0.519603 0
M  V30 1290 H 123.008 -3.86376 -1.54445 0
M  V30 1291 H 121.884 -4.91533 -2.44308 0
M  V30 1292 H 122.145 -3.26396 -2.98191 0
M  V30 1293 N 121.204 0.198386 -1.56346 0
M  V30 1294 C 122.434 0.934215 -1.84271 0
M  V30 1295 C 122.842 1.77496 -0.655125 0
M  V30 1296 O 122.185 1.7961 0.385488 0
M  V30 1297 C 122.247 1.88278 -3.06254 0
M  V30 1298 C 121.911 1.22431 -4.40295 0
M  V30 1299 C 122.908 0.602839 -5.16393 0
M  V30 1300 C 120.593 1.22915 -4.87029 0
M  V30 1301 C 122.587 -0.0050083 -6.374 0
M  V30 1302 C 120.274 0.617465 -6.07973 0
M  V30 1303 C 121.272 0.00146341 -6.83 0
M  V30 1304 O 120.96 -0.600642 -8.01653 0
M  V30 1305 H 120.692 0.278245 -0.616081 0
M  V30 1306 H 123.246 0.211626 -2.04307 0
M  V30 1307 H 121.476 2.64498 -2.82095 0
M  V30 1308 H 123.165 2.48612 -3.20853 0
M  V30 1309 H 123.931 0.591265 -4.81382 0
M  V30 1310 H 119.81 1.69801 -4.28589 0
M  V30 1311 H 123.354 -0.48643 -6.95902 0
M  V30 1312 H 119.251 0.62653 -6.42452 0
M  V30 1313 H 120.019 -0.497225 -8.16988 0
M  V30 1314 N 122.682 1.50554 0.465978 0
M  V30 1315 C 123.931 1.61038 1.21448 0
M  V30 1316 C 124.244 0.31865 1.92987 0
M  V30 1317 O 125.45 0.302469 2.6981 0
M  V30 1318 C 123.906 2.84283 2.20706 0
M  V30 1319 C 123.514 4.20352 1.54946 0
M  V30 1320 C 125.258 3.04115 2.96166 0
M  V30 1321 C 123.165 5.34778 2.5252 0
M  V30 1322 H 122.095 0.599718 0.457005 0
M  V30 1323 H 124.746 1.7699 0.484424 0
M  V30 1324 H 123.128 2.61901 2.97025 0
M  V30 1325 H 124.302 4.53008 0.843811 0
M  V30 1326 H 122.617 4.06167 0.917475 0
M  V30 1327 H 125.214 3.86774 3.69202 0
M  V30 1328 H 125.557 2.16045 3.55852 0
M  V30 1329 H 126.09 3.26702 2.26959 0
M  V30 1330 H 122.829 6.25018 1.97566 0
M  V30 1331 H 122.349 5.06534 3.21222 0
M  V30 1332 H 124.028 5.65561 3.14245 0
M  V30 1333 N 124.16 -0.719506 1.40217 0
M  V30 1334 C 125.406 -1.48152 1.38488 0
M  V30 1335 C 125.739 -1.94195 -0.0141867 0
M  V30 1336 O 125.014 -1.67884 -0.982096 0
M  V30 1337 C 125.297 -2.71035 2.37091 0
M  V30 1338 C 125.15 -2.30912 3.86005 0
M  V30 1339 C 126.469 -3.73182 2.33288 0
M  V30 1340 H 123.588 -0.537395 0.504357 0
M  V30 1341 H 126.23 -0.821472 1.71324 0
M  V30 1342 H 124.38 -3.27352 2.0922 0
M  V30 1343 H 126.052 -1.80107 4.24687 0
M  V30 1344 H 124.295 -1.62958 4.02029 0
M  V30 1345 H 124.966 -3.18978 4.50508 0
M  V30 1346 H 127.442 -3.26485 2.57966 0
M  V30 1347 H 126.318 -4.56806 3.04334 0
M  V30 1348 H 126.579 -4.21202 1.34317 0
M  V30 1349 N 125.638 -1.25649 -0.95132 0
M  V30 1350 C 127.054 -1.02542 -1.223 0
M  V30 1351 C 127.254 0.255715 -1.99871 0
M  V30 1352 O 126.31 0.967558 -2.33226 0
M  V30 1353 C 127.623 -2.25065 -1.99415 0
M  V30 1354 C 129.171 -2.29861 -2.12446 0
M  V30 1355 C 129.646 -3.52048 -2.92961 0
M  V30 1356 N 131.137 -3.52465 -3.00538 0
M  V30 1357 C 131.872 -4.43672 -3.63239 0
M  V30 1358 N 131.368 -5.45157 -4.27523 0
M  V30 1359 N 133.161 -4.31346 -3.60412 0
M  V30 1360 H 125.312 -2.07951 -0.432471 0
M  V30 1361 H 127.575 -0.91339 -0.253816 0
M  V30 1362 H 127.281 -3.18194 -1.49817 0
M  V30 1363 H 127.155 -2.28502 -3.00111 0
M  V30 1364 H 129.542 -1.37252 -2.61239 0
M  V30 1365 H 129.623 -2.3044 -1.11044 0
M  V30 1366 H 129.267 -4.44981 -2.44856 0
M  V30 1367 H 129.197 -3.48715 -3.94596 0
M  V30 1368 H 131.688 -2.79056 -2.54826 0
M  V30 1369 H 132.001 -6.10958 -4.73234 0
M  V30 1370 H 130.346 -5.49025 -4.26141 0
M  V30 1371 H 133.537 -3.51288 -3.09377 0
M  V30 1372 H 133.71 -5.02624 -4.0899 0
M  V30 1373 N 127.117 1.15442 -1.07289 0
M  V30 1374 C 128.027 2.23786 -0.704057 0
M  V30 1375 C 129.043 1.7166 0.284413 0
M  V30 1376 O 130.219 2.00972 0.131205 0
M  V30 1377 C 127.284 3.46535 -0.106792 0
M  V30 1378 C 126.345 4.13654 -1.14842 0
M  V30 1379 C 125.578 5.30544 -0.57956 0
M  V30 1380 O 125.801 5.67187 0.604585 0
M  V30 1381 O 124.735 5.87154 -1.32414 0
M  V30 1382 H 128.561 2.57664 -1.60757 0
M  V30 1383 H 126.146 1.23152 -0.845803 0
M  V30 1384 H 128.028 4.20804 0.224048 0
M  V30 1385 H 126.703 3.14407 0.770049 0
M  V30 1386 H 125.61 3.4131 -1.5316 0
M  V30 1387 H 126.943 4.49861 -1.99714 0
M  V30 1388 N 128.595 0.856903 1.32268 0
M  V30 1389 C 129.82 0.474569 2.01897 0
M  V30 1390 C 130.245 -0.921766 1.63967 0
M  V30 1391 O 129.603 -1.60589 0.84148 0
M  V30 1392 C 129.651 0.623799 3.55164 0
M  V30 1393 O 128.755 -0.342459 4.10976 0
M  V30 1394 H 128.096 0.190422 0.63611 0
M  V30 1395 H 130.626 1.15672 1.68764 0
M  V30 1396 H 130.636 0.512169 4.04773 0
M  V30 1397 H 129.311 1.64202 3.82113 0
M  V30 1398 H 127.888 -0.18688 3.72431 0
M  V30 1399 N 130.073 -1.45103 0.615059 0
M  V30 1400 C 131.319 -2.03035 0.121804 0
M  V30 1401 C 131.674 -1.47393 -1.23665 0
M  V30 1402 O 130.967 -0.642061 -1.80522 0
M  V30 1403 C 131.161 -3.57386 0.0318797 0
M  V30 1404 C 130.99 -4.28 1.38007 0
M  V30 1405 C 129.76 -4.65624 1.9627 0
M  V30 1406 C 131.958 -4.5948 2.31047 0
M  V30 1407 N 129.94 -5.21132 3.24492 0
M  V30 1408 C 131.311 -5.159 3.43872 0
M  V30 1409 C 133.366 -4.41423 2.30326 0
M  V30 1410 C 132.069 -5.56165 4.5615 0
M  V30 1411 C 134.095 -4.82726 3.41658 0
M  V30 1412 C 133.457 -5.39245 4.53205 0
M  V30 1413 H 129.556 -0.77702 0.0881159 0
M  V30 1414 H 132.14 -1.76819 0.815044 0
M  V30 1415 H 130.311 -3.83247 -0.630599 0
M  V30 1416 H 132.043 -4.01976 -0.468721 0
M  V30 1417 H 128.798 -4.49421 1.49392 0
M  V30 1418 H 129.222 -5.53377 3.90004 0
M  V30 1419 H 133.864 -3.97033 1.45343 0
M  V30 1420 H 131.582 -5.99517 5.41854 0
M  V30 1421 H 135.168 -4.7048 3.42257 0
M  V30 1422 H 134.048 -5.70616 5.37929 0
M  V30 1423 N 131.551 -0.354651 -1.53558 0
M  V30 1424 C 132.8 0.239504 -2.00273 0
M  V30 1425 C 133.113 1.50759 -1.24623 0
M  V30 1426 O 134.319 2.17968 -1.61871 0
M  V30 1427 C 132.775 0.477341 -3.5672 0
M  V30 1428 C 132.383 -0.775488 -4.41237 0
M  V30 1429 C 134.127 1.02975 -4.11821 0
M  V30 1430 C 132.034 -0.507838 -5.89216 0
M  V30 1431 H 130.964 0.0932743 -0.748208 0
M  V30 1432 H 133.615 -0.471701 -1.77334 0
M  V30 1433 H 131.997 1.24953 -3.7577 0
M  V30 1434 H 133.171 -1.54963 -4.33962 0
M  V30 1435 H 131.486 -1.25033 -3.97185 0
M  V30 1436 H 134.083 1.24513 -5.2 0
M  V30 1437 H 134.426 1.98862 -3.65731 0
M  V30 1438 H 134.959 0.317994 -3.96527 0
M  V30 1439 H 131.698 -1.43674 -6.39561 0
M  V30 1440 H 131.218 0.228011 -5.99366 0
M  V30 1441 H 132.897 -0.129238 -6.46871 0
M  V30 1442 N 133.029 1.57378 -0.0835403 0
M  V30 1443 C 133.962 2.09016 0.915833 0
M  V30 1444 C 134.94 0.997993 1.2837 0
M  V30 1445 O 136.124 1.27219 1.39096 0
M  V30 1446 C 133.251 2.55757 2.22049 0
M  V30 1447 C 132.297 3.76522 2.00333 0
M  V30 1448 S 133.13 5.20661 1.25191 0
M  V30 1449 C 134.286 5.70743 2.56912 0
M  V30 1450 H 134.519 2.93457 0.476492 0
M  V30 1451 H 132.052 1.53856 0.129493 0
M  V30 1452 H 134.01 2.83346 2.97027 0
M  V30 1453 H 132.671 1.71564 2.63106 0
M  V30 1454 H 131.864 4.07256 2.96916 0
M  V30 1455 H 131.466 3.49367 1.33488 0
M  V30 1456 H 133.758 5.78304 3.52946 0
M  V30 1457 H 134.701 6.6944 2.30772 0
M  V30 1458 H 135.109 4.98616 2.64655 0
M  V30 1459 N 134.507 -0.190092 1.56449 0
M  V30 1460 C 135.755 -0.907908 1.80559 0
M  V30 1461 C 136.076 -1.83583 0.657438 0
M  V30 1462 O 135.346 -1.93203 -0.323924 0
M  V30 1463 H 133.926 -0.338247 0.666032 0
M  V30 1464 H 136.588 -0.194403 1.93928 0
M  V30 1465 H 135.684 -1.49604 2.73907 0
M  V30 1466 N 135.985 -1.50799 -0.457987 0
M  V30 1467 C 136.917 -1.66786 -1.57211 0
M  V30 1468 C 137.93 -0.548962 -1.53265 0
M  V30 1469 O 139.119 -0.8226 -1.58416 0
M  V30 1470 C 136.219 -1.64834 -2.96113 0
M  V30 1471 C 135.392 -2.92971 -3.24787 0
M  V30 1472 C 134.451 -2.83485 -4.43309 0
M  V30 1473 O 133.477 -3.5744 -4.42973 0
M  V30 1474 N 134.679 -1.97929 -5.45714 0
M  V30 1475 H 137.444 -2.62889 -1.43909 0
M  V30 1476 H 135.005 -1.48427 -0.646617 0
M  V30 1477 H 136.997 -1.56084 -3.7339 0
M  V30 1478 H 135.567 -0.764118 -3.03117 0
M  V30 1479 H 134.787 -3.15749 -2.36 0
M  V30 1480 H 136.075 -3.77834 -3.40762 0
M  V30 1481 H 135.473 -1.37182 -5.48815 0
M  V30 1482 H 134.03 -1.95073 -6.21924 0
M  V30 1483 N 137.463 0.71206 -1.40597 0
M  V30 1484 C 138.709 1.47416 -1.39271 0
M  V30 1485 C 139.042 1.942 0.00388791 0
M  V30 1486 O 138.317 1.68403 0.973179 0
M  V30 1487 C 138.6 2.69774 -2.38525 0
M  V30 1488 C 138.453 2.28861 -3.87224 0
M  V30 1489 C 139.772 3.71939 -2.35264 0
M  V30 1490 H 136.891 0.534713 -0.5072 0
M  V30 1491 H 139.533 0.812375 -1.71757 0
M  V30 1492 H 137.683 3.26238 -2.10953 0
M  V30 1493 H 139.355 1.77852 -4.25636 0
M  V30 1494 H 137.598 1.60824 -4.02887 0
M  V30 1495 H 138.269 3.16584 -4.52193 0
M  V30 1496 H 140.745 3.25113 -2.59694 0
M  V30 1497 H 139.621 4.55186 -3.06753 0
M  V30 1498 H 139.882 4.20484 -1.36549 0
M  V30 1499 N 138.941 1.26152 0.944643 0
M  V30 1500 C 140.187 1.11657 1.69294 0
M  V30 1501 C 140.52 -0.339926 1.91202 0
M  V30 1502 O 139.795 -1.24994 1.49019 0
M  V30 1503 C 140.078 1.88236 3.06984 0
M  V30 1504 C 139.931 3.41772 2.92424 0
M  V30 1505 C 141.25 1.67343 4.07043 0
M  V30 1506 H 138.369 0.407004 0.614424 0
M  V30 1507 H 141.011 1.55106 1.09737 0
M  V30 1508 H 139.161 1.51308 3.57824 0
M  V30 1509 H 140.833 3.88433 2.48832 0
M  V30 1510 H 139.076 3.68974 2.28124 0
M  V30 1511 H 139.747 3.90579 3.90067 0
M  V30 1512 H 142.223 1.99509 3.65151 0
M  V30 1513 H 141.099 2.23346 5.01406 0
M  V30 1514 H 141.36 0.617158 4.37771 0
M  V30 1515 N 140.419 -1.14872 1.07899 0
M  V30 1516 C 141.659 -1.8745 0.814965 0
M  V30 1517 C 142.023 -1.80758 -0.64733 0
M  V30 1518 O 143.224 -2.48422 -1.02664 0
M  V30 1519 C 141.495 -3.32286 1.31607 0
M  V30 1520 S 143.054 -4.22537 1.18357 0
M  V30 1521 H 139.872 -0.646833 0.295174 0
M  V30 1522 H 142.474 -1.38555 1.37923 0
M  V30 1523 H 141.178 -3.34703 2.37491 0
M  V30 1524 H 140.709 -3.86238 0.747261 0
M  V30 1525 H 142.724 -4.96044 0.124586 0
M  V30 1526 N 141.898 -0.863906 -1.31812 0
M  V30 1527 C 143.175 -0.39275 -1.91616 0
M  V30 1528 C 143.555 1.12461 -1.7865 0
M  V30 1529 O 142.903 1.95045 -1.19037 0
M  V30 1530 C 143.113 -0.867385 -3.38049 0
M  V30 1531 C 144.461 -0.889966 -4.15168 0
M  V30 1532 O 145.485 -0.812635 -3.46806 0
M  V30 1533 O 144.344 -1.00079 -5.37258 0
M  V30 1534 H 141.438 -0.116358 -0.818773 0
M  V30 1535 H 143.984 -0.951418 -1.40521 0
M  V30 1536 H 142.756 -1.91081 -3.41473 0
M  V30 1537 H 142.379 -0.286687 -3.96565 0
M  V30 1538 N 143.376 1.44774 -0.622745 0
M  V30 1539 C 144.625 2.01334 -0.121397 0
M  V30 1540 C 144.938 1.49505 1.26125 0
M  V30 1541 O 146.144 1.98139 1.85616 0
M  V30 1542 C 144.6 3.59516 -0.166298 0
M  V30 1543 C 144.208 4.20342 -1.54974 0
M  V30 1544 C 145.952 4.23582 0.279021 0
M  V30 1545 C 143.859 5.70721 -1.55021 0
M  V30 1546 H 142.789 0.752851 -0.0416172 0
M  V30 1547 H 145.44 1.66083 -0.780309 0
M  V30 1548 H 143.822 3.92027 0.559557 0
M  V30 1549 H 144.996 3.99381 -2.29851 0
M  V30 1550 H 143.311 3.68529 -1.93843 0
M  V30 1551 H 145.908 5.33868 0.298083 0
M  V30 1552 H 146.251 3.95327 1.30471 0
M  V30 1553 H 146.784 3.95843 -0.394063 0
M  V30 1554 H 143.523 6.03698 -2.55399 0
M  V30 1555 H 143.043 5.93829 -0.844245 0
M  V30 1556 H 144.722 6.34203 -1.28047 0
M  V30 1557 N 144.854 0.36279 1.53368 0
M  V30 1558 C 146.1 -0.220702 2.02199 0
M  V30 1559 C 146.455 -1.46649 1.24546 0
M  V30 1560 O 145.748 -1.88737 0.32996 0
M  V30 1561 C 145.942 -0.568417 3.52851 0
M  V30 1562 C 145.771 0.642126 4.45092 0
M  V30 1563 C 144.541 1.15335 4.91961 0
M  V30 1564 C 146.739 1.50649 4.91741 0
M  V30 1565 N 144.721 2.3242 5.68202 0
M  V30 1566 C 146.092 2.52404 5.66297 0
M  V30 1567 C 148.147 1.52969 4.73819 0
M  V30 1568 C 146.85 3.56331 6.24836 0
M  V30 1569 C 148.876 2.55789 5.33222 0
M  V30 1570 C 148.238 3.56268 6.07662 0
M  V30 1571 H 144.337 -0.0435508 0.780786 0
M  V30 1572 H 146.921 0.506704 1.87991 0
M  V30 1573 H 145.092 -1.2649 3.67226 0
M  V30 1574 H 146.824 -1.13676 3.88407 0
M  V30 1575 H 143.579 0.718412 4.68119 0
M  V30 1576 H 144.003 2.91591 6.10986 0
M  V30 1577 H 148.645 0.766418 4.15795 0
M  V30 1578 H 146.363 4.33543 6.81958 0
M  V30 1579 H 149.949 2.58435 5.21251 0
M  V30 1580 H 148.829 4.34524 6.52808 0
M  V30 1581 N 146.332 -1.57332 0.0918853 0
M  V30 1582 C 147.262 -2.16872 -0.865371 0
M  V30 1583 C 148.243 -1.10118 -1.29646 0
M  V30 1584 O 149.428 -1.38242 -1.36392 0
M  V30 1585 C 146.558 -2.74649 -2.12569 0
M  V30 1586 C 145.512 -3.86747 -1.83333 0
M  V30 1587 C 144.838 -4.31212 -3.16166 0
M  V30 1588 C 146.138 -5.10089 -1.1228 0
M  V30 1589 H 147.832 -2.97114 -0.369307 0
M  V30 1590 H 145.378 -1.42918 -0.176194 0
M  V30 1591 H 147.331 -3.14952 -2.7997 0
M  V30 1592 H 146.055 -1.91657 -2.64452 0
M  V30 1593 H 144.714 -3.46978 -1.18331 0
M  V30 1594 H 144.362 -3.45115 -3.6593 0
M  V30 1595 H 144.062 -5.06788 -2.97388 0
M  V30 1596 H 145.586 -4.74146 -3.84731 0
M  V30 1597 H 147 -5.47582 -1.69785 0
M  V30 1598 H 145.397 -5.91073 -1.03693 0
M  V30 1599 H 146.467 -4.84786 -0.105041 0
M  V30 1600 N 147.81 0.181792 -1.56548 0
M  V30 1601 C 149.035 0.920019 -1.85877 0
M  V30 1602 C 149.46 1.75494 -0.677021 0
M  V30 1603 O 148.818 1.77399 0.374056 0
M  V30 1604 C 148.866 1.78112 -3.13542 0
M  V30 1605 O 147.97 2.88152 -2.95029 0
M  V30 1606 H 147.311 0.258334 -0.611686 0
M  V30 1607 H 149.841 0.183092 -2.03779 0
M  V30 1608 H 149.851 2.18314 -3.44678 0
M  V30 1609 H 148.526 1.16777 -3.99169 0
M  V30 1610 H 147.103 2.51609 -2.75222 0
M  V30 1611 N 149.288 1.51039 0.449983 0
M  V30 1612 C 150.534 1.63322 1.20223 0
M  V30 1613 C 150.867 0.34241 1.91158 0
M  V30 1614 O 150.142 -0.657344 1.83055 0
M  V30 1615 C 150.425 2.82801 2.22925 0
M  V30 1616 C 150.278 4.21823 1.56157 0
M  V30 1617 C 151.597 2.97807 3.24035 0
M  V30 1618 H 148.716 0.594407 0.435718 0
M  V30 1619 H 151.358 1.83489 0.493136 0
M  V30 1620 H 149.508 2.65738 2.834 0
M  V30 1621 H 151.18 4.50526 0.991162 0
M  V30 1622 H 149.423 4.25105 0.864172 0
M  V30 1623 H 150.094 5.01391 2.30891 0
M  V30 1624 H 152.57 3.13497 2.73603 0
M  V30 1625 H 151.446 3.82992 3.93202 0
M  V30 1626 H 151.707 2.09328 3.89402 0
M  V30 1627 N 150.766 -0.704594 1.40972 0
M  V30 1628 C 152.043 -1.45847 1.30338 0
M  V30 1629 C 152.423 -2.10973 -0.0732344 0
M  V30 1630 O 151.771 -2.00997 -1.08685 0
M  V30 1631 C 151.981 -2.48525 2.45023 0
M  V30 1632 C 153.329 -3.1404 2.8577 0
M  V30 1633 O 154.353 -2.58848 2.44696 0
M  V30 1634 O 153.212 -4.13981 3.56766 0
M  V30 1635 H 150.306 -0.649092 0.512454 0
M  V30 1636 H 152.852 -0.735836 1.52917 0
M  V30 1637 H 151.624 -1.98994 3.36923 0
M  V30 1638 H 151.247 -3.2831 2.24272 0
M  V30 1639 N 152.244 -1.26651 -0.937939 0
M  V30 1640 C 153.493 -1.11775 -1.67897 0
M  V30 1641 C 153.806 0.33794 -1.92659 0
M  V30 1642 O 155.012 0.607434 -2.64618 0
M  V30 1643 C 153.468 -1.9523 -3.02346 0
M  V30 1644 C 153.076 -3.45393 -2.8532 0
M  V30 1645 C 154.82 -1.88972 -3.80118 0
M  V30 1646 C 152.727 -4.21083 -4.15263 0
M  V30 1647 H 151.657 -0.414696 -0.629717 0
M  V30 1648 H 154.308 -1.50988 -1.04283 0
M  V30 1649 H 152.69 -1.48853 -3.66959 0
M  V30 1650 H 153.864 -3.99561 -2.29537 0
M  V30 1651 H 152.179 -3.52921 -2.20988 0
M  V30 1652 H 154.776 -2.42805 -4.76392 0
M  V30 1653 H 155.119 -0.86113 -4.07296 0
M  V30 1654 H 155.652 -2.33189 -3.22285 0
M  V30 1655 H 152.391 -5.24425 -3.93267 0
M  V30 1656 H 151.911 -3.71695 -4.70747 0
M  V30 1657 H 153.59 -4.29706 -4.83696 0
M  V30 1658 N 153.722 1.14298 -1.08507 0
M  V30 1659 C 154.95 1.89219 -0.836876 0
M  V30 1660 C 155.365 1.78638 0.611054 0
M  V30 1661 O 154.722 1.14643 1.41998 0
M  V30 1662 C 154.773 3.39158 -1.25116 0
M  V30 1663 O 154.494 3.49449 -2.64229 0
M  V30 1664 C 155.995 4.31073 -1.03398 0
M  V30 1665 H 153.215 0.599328 -0.301739 0
M  V30 1666 H 155.759 1.44746 -1.44461 0
M  V30 1667 H 153.914 3.81251 -0.687514 0
M  V30 1668 H 154.328 4.42589 -2.81452 0
M  V30 1669 H 155.802 5.34646 -1.37323 0
M  V30 1670 H 156.279 4.3919 0.0289259 0
M  V30 1671 H 156.885 3.94738 -1.58311 0
M  V30 1672 N 155.201 0.870884 1.31352 0
M  V30 1673 C 156.441 0.488783 1.9847 0
M  V30 1674 C 156.805 -0.941536 1.67329 0
M  V30 1675 O 158.006 -1.42903 2.27667 0
M  V30 1676 C 156.277 0.739688 3.49662 0
M  V30 1677 S 157.836 0.457582 4.36408 0
M  V30 1678 H 154.654 0.18242 0.6872 0
M  V30 1679 H 157.256 1.12711 1.59739 0
M  V30 1680 H 155.96 1.77944 3.69816 0
M  V30 1681 H 155.491 0.0883905 3.93301 0
M  V30 1682 H 157.506 -0.709752 4.91098 0
M  V30 1683 N 156.679 -1.44442 0.630414 0
M  V30 1684 C 157.919 -2.03934 0.137919 0
M  V30 1685 C 158.283 -1.48509 -1.21692 0
M  V30 1686 O 159.484 -1.99499 -1.80149 0
M  V30 1687 C 157.755 -3.57187 0.123373 0
M  V30 1688 S 159.314 -4.37741 -0.304604 0
M  V30 1689 H 156.132 -0.708401 0.0607353 0
M  V30 1690 H 158.734 -1.76835 0.833643 0
M  V30 1691 H 157.438 -3.95032 1.11256 0
M  V30 1692 H 156.969 -3.88895 -0.59362 0
M  V30 1693 H 158.984 -4.71403 -1.54897 0
M  V30 1694 N 158.157 -0.370918 -1.53173 0
M  V30 1695 C 159.385 0.217704 -2.05751 0
M  V30 1696 C 159.8 1.42018 -1.24404 0
M  V30 1697 O 159.157 1.80245 -0.286033 0
M  V30 1698 C 159.208 0.605954 -3.56385 0
M  V30 1699 O 158.929 -0.548734 -4.3465 0
M  V30 1700 C 160.43 1.2524 -4.25241 0
M  V30 1701 H 157.65 0.0371659 -0.66997 0
M  V30 1702 H 160.194 -0.530832 -1.9749 0
M  V30 1703 H 158.349 1.3044 -3.6478 0
M  V30 1704 H 158.763 -0.23376 -5.23979 0
M  V30 1705 H 160.237 1.47458 -5.3194 0
M  V30 1706 H 160.714 2.2143 -3.79296 0
M  V30 1707 H 161.32 0.595233 -4.21114 0
M  V30 1708 N 159.635 1.57281 -0.100228 0
M  V30 1709 C 160.875 1.96419 0.56558 0
M  V30 1710 C 161.239 0.981265 1.65031 0
M  V30 1711 O 162.44 1.26133 2.37369 0
M  V30 1712 C 160.711 3.39996 1.10171 0
M  V30 1713 S 162.27 4.01134 1.77867 0
M  V30 1714 H 159.088 0.68667 0.184406 0
M  V30 1715 H 161.69 1.94662 -0.180851 0
M  V30 1716 H 160.394 4.09296 0.300803 0
M  V30 1717 H 159.925 3.45361 1.88385 0
M  V30 1718 H 161.94 3.90358 3.06326 0
M  V30 1719 N 161.113 -0.173488 1.56642 0
M  V30 1720 C 162.338 -0.910149 1.86363 0
M  V30 1721 C 162.763 -1.75132 0.686318 0
M  V30 1722 O 162.121 -1.77595 -0.364643 0
M  V30 1723 C 162.169 -1.76447 3.14482 0
M  V30 1724 O 161.273 -2.86584 2.96553 0
M  V30 1725 H 160.614 -0.255086 0.613047 0
M  V30 1726 H 163.144 -0.172283 2.03873 0
M  V30 1727 H 163.154 -2.16483 3.45831 0
M  V30 1728 H 161.829 -1.14658 3.99783 0
M  V30 1729 H 160.406 -2.50146 2.76553 0
M  V30 1730 N 162.591 -1.51276 -0.441967 0
M  V30 1731 C 163.84 -1.6295 -1.18871 0
M  V30 1732 C 164.153 -0.349312 -1.92456 0
M  V30 1733 O 165.359 -0.345355 -2.69295 0
M  V30 1734 C 163.815 -2.87759 -2.16155 0
M  V30 1735 C 163.423 -4.22764 -1.48239 0
M  V30 1736 C 165.167 -3.08788 -2.91291 0
M  V30 1737 C 163.074 -5.38728 -2.4398 0
M  V30 1738 H 162.004 -0.606913 -0.447406 0
M  V30 1739 H 164.655 -1.77739 -0.456205 0
M  V30 1740 H 163.037 -2.66593 -2.92821 0
M  V30 1741 H 164.211 -4.54293 -0.771635 0
M  V30 1742 H 162.526 -4.07575 -0.852741 0
M  V30 1743 H 165.123 -3.92599 -3.63002 0
M  V30 1744 H 165.466 -2.21679 -3.5237 0
M  V30 1745 H 165.999 -3.30272 -2.21733 0
M  V30 1746 H 162.738 -6.28082 -1.87598 0
M  V30 1747 H 162.258 -5.1158 -3.13123 0
M  V30 1748 H 163.937 -5.70489 -3.05207 0
M  V30 1749 N 164.069 0.697108 -1.41344 0
M  V30 1750 C 164.999 1.82353 -1.45841 0
M  V30 1751 C 165.98 1.67115 -0.317247 0
M  V30 1752 O 167.165 1.86871 -0.528474 0
M  V30 1753 C 164.295 3.20476 -1.33838 0
M  V30 1754 C 163.249 3.50415 -2.4575 0
M  V30 1755 C 162.575 4.87878 -2.18813 0
M  V30 1756 C 163.875 3.49546 -3.88091 0
M  V30 1757 H 165.569 1.78846 -2.40113 0
M  V30 1758 H 163.115 0.859028 -1.15571 0
M  V30 1759 H 165.068 3.98988 -1.35596 0
M  V30 1760 H 163.792 3.24604 -0.360498 0
M  V30 1761 H 162.451 2.74253 -2.43271 0
M  V30 1762 H 162.099 4.8863 -1.19371 0
M  V30 1763 H 161.799 5.08875 -2.93803 0
M  V30 1764 H 163.323 5.68702 -2.22284 0
M  V30 1765 H 164.737 4.18066 -3.92293 0
M  V30 1766 H 163.134 3.82075 -4.62751 0
M  V30 1767 H 164.204 2.48552 -4.16353 0
M  V30 1768 N 165.547 1.27147 0.931209 0
M  V30 1769 C 166.497 1.06227 2.01742 0
M  V30 1770 C 167.481 -0.00859065 1.60898 0
M  V30 1771 O 168.673 0.209537 1.75755 0
M  V30 1772 C 165.802 0.707787 3.35924 0
M  V30 1773 C 164.888 1.81661 3.83223 0
M  V30 1774 N 165.279 3.05564 4.03069 0
M  V30 1775 C 163.577 1.70249 4.12227 0
M  V30 1776 C 164.278 3.77697 4.42403 0
M  V30 1777 N 163.254 3.0544 4.49675 0
M  V30 1778 H 167.056 2.00261 2.15111 0
M  V30 1779 H 164.57 1.1781 1.11779 0
M  V30 1780 H 166.567 0.539043 4.134 0
M  V30 1781 H 165.227 -0.224964 3.2392 0
M  V30 1782 H 166.238 3.41363 3.89476 0
M  V30 1783 H 162.915 0.840329 4.08956 0
M  V30 1784 H 164.305 4.84168 4.65866 0
M  V30 1785 N 167.025 -1.13721 1.09112 0
M  V30 1786 C 167.955 -2.21148 0.749385 0
M  V30 1787 C 168.936 -1.6792 -0.271475 0
M  V30 1788 O 170.121 -1.93693 -0.140251 0
M  V30 1789 C 167.251 -3.46905 0.165659 0
M  V30 1790 C 166.205 -4.13203 1.11567 0
M  V30 1791 C 165.531 -5.33248 0.393809 0
M  V30 1792 C 166.831 -4.60912 2.45678 0
M  V30 1793 H 168.525 -2.4999 1.64758 0
M  V30 1794 H 166.071 -1.20156 0.793626 0
M  V30 1795 H 168.024 -4.21313 -0.085466 0
M  V30 1796 H 166.748 -3.17449 -0.767714 0
M  V30 1797 H 165.407 -3.40758 1.35202 0
M  V30 1798 H 165.055 -5.00054 -0.543599 0
M  V30 1799 H 164.755 -5.78552 1.02721 0
M  V30 1800 H 166.279 -6.10413 0.150908 0
M  V30 1801 H 167.693 -5.26759 2.26269 0
M  V30 1802 H 166.09 -5.16944 3.04776 0
M  V30 1803 H 167.16 -3.75603 3.06677 0
M  V30 1804 N 168.503 -0.877838 -1.30888 0
M  V30 1805 C 169.728 -0.506629 -2.01117 0
M  V30 1806 C 170.153 0.895564 -1.65412 0
M  V30 1807 O 169.511 1.5923 -0.866922 0
M  V30 1808 C 169.559 -0.680223 -3.54126 0
M  V30 1809 O 168.663 0.277033 -4.11468 0
M  V30 1810 H 168.004 -0.200518 -0.633 0
M  V30 1811 H 170.534 -1.18342 -1.66902 0
M  V30 1812 H 170.544 -0.5765 -4.03907 0
M  V30 1813 H 169.219 -1.70261 -3.79452 0
M  V30 1814 H 167.796 0.127606 -3.72682 0
M  V30 1815 N 169.982 1.44106 -0.638065 0
M  V30 1816 C 170.945 2.29138 0.0531013 0
M  V30 1817 C 171.945 1.41409 0.765506 0
M  V30 1818 O 173.135 1.63206 0.609046 0
M  V30 1819 C 170.267 3.23144 1.08584 0
M  V30 1820 H 171.46 2.91739 -0.694883 0
M  V30 1821 H 169.013 1.51134 -0.398538 0
M  V30 1822 H 169.748 2.65408 1.86357 0
M  V30 1823 H 169.533 3.87804 0.578852 0
M  V30 1824 H 171.023 3.87004 1.56899 0
M  V30 1825 N 171.46 0.379036 1.52974 0
M  V30 1826 C 172.709 -0.207612 2.00629 0
M  V30 1827 C 173.022 -1.48758 1.27006 0
M  V30 1828 O 174.228 -2.15365 1.65318 0
M  V30 1829 C 172.684 -0.42053 3.57435 0
M  V30 1830 C 172.292 0.845587 4.39948 0
M  V30 1831 C 174.036 -0.964102 4.13407 0
M  V30 1832 C 171.943 0.601513 5.88333 0
M  V30 1833 H 170.873 -0.0813591 0.749598 0
M  V30 1834 H 173.524 0.499853 1.76561 0
M  V30 1835 H 171.906 -1.18959 3.7771 0
M  V30 1836 H 173.08 1.61848 4.31442 0
M  V30 1837 H 171.395 1.31336 3.95145 0
M  V30 1838 H 173.992 -1.16225 5.21916 0
M  V30 1839 H 174.335 -1.93019 3.68849 0
M  V30 1840 H 174.868 -0.25487 3.96983 0
M  V30 1841 H 171.607 1.53831 6.37194 0
M  V30 1842 H 171.127 -0.132628 5.99653 0
M  V30 1843 H 172.806 0.232134 6.46583 0
M  V30 1844 N 172.938 -1.57226 0.108567 0
M  V30 1845 C 173.901 -2.13602 -0.831082 0
M  V30 1846 C 174.901 -1.06841 -1.20173 0
M  V30 1847 O 176.091 -1.32666 -1.12895 0
M  V30 1848 C 173.223 -2.66769 -2.12243 0
M  V30 1849 H 174.416 -2.97951 -0.341317 0
M  V30 1850 H 171.969 -1.55667 -0.14057 0
M  V30 1851 H 172.704 -1.85977 -2.65675 0
M  V30 1852 H 172.489 -3.44839 -1.86625 0
M  V30 1853 H 173.979 -3.10332 -2.79435 0
M  V30 1854 N 174.416 0.165178 -1.56732 0
M  V30 1855 C 175.346 1.20651 -1.99914 0
M  V30 1856 C 176.327 1.45827 -0.875705 0
M  V30 1857 O 177.512 1.57057 -1.14223 0
M  V30 1858 C 174.642 2.54401 -2.36427 0
M  V30 1859 C 173.596 2.43782 -3.51787 0
M  V30 1860 C 172.922 3.82078 -3.7406 0
M  V30 1861 C 174.222 1.93732 -4.85041 0
M  V30 1862 H 175.916 0.847534 -2.87154 0
M  V30 1863 H 173.462 0.40625 -1.38151 0
M  V30 1864 H 175.415 3.27458 -2.65234 0
M  V30 1865 H 174.139 2.92098 -1.46103 0
M  V30 1866 H 172.798 1.73178 -3.23117 0
M  V30 1867 H 172.446 4.17179 -2.81017 0
M  V30 1868 H 172.146 3.7584 -4.51684 0
M  V30 1869 H 173.67 4.56712 -4.05274 0
M  V30 1870 H 175.084 2.56569 -5.12684 0
M  V30 1871 H 173.481 1.98428 -5.66345 0
M  V30 1872 H 174.551 0.891962 -4.76626 0
M  V30 1873 N 175.894 1.51508 0.433938 0
M  V30 1874 C 177.171 1.54888 1.19453 0
M  V30 1875 C 177.551 0.315154 2.08734 0
M  V30 1876 O 176.899 -0.699558 2.17528 0
M  V30 1877 C 177.109 2.86467 1.99342 0
M  V30 1878 C 178.457 3.38545 2.56267 0
M  V30 1879 O 179.481 2.88041 2.0955 0
M  V30 1880 O 178.34 4.26675 3.41483 0
M  V30 1881 H 175.434 0.622863 0.544032 0
M  V30 1882 H 177.98 1.63823 0.442732 0
M  V30 1883 H 176.752 3.67718 1.33788 0
M  V30 1884 H 176.375 2.8071 2.8158 0
M  V30 1885 N 177.372 -0.689602 1.41712 0
M  V30 1886 C 178.788 -1.00093 1.24312 0
M  V30 1887 C 178.988 -2.01036 0.136729 0
M  V30 1888 O 178.044 -2.47562 -0.496918 0
M  V30 1889 C 179.357 -1.51985 2.59463 0
M  V30 1890 C 180.905 -1.63838 2.66695 0
M  V30 1891 C 181.38 -2.1913 4.02177 0
M  V30 1892 N 182.871 -2.26483 4.04054 0
M  V30 1893 C 183.606 -2.70306 5.0569 0
M  V30 1894 N 183.102 -3.13691 6.17713 0
M  V30 1895 N 184.895 -2.69923 4.9305 0
M  V30 1896 H 177.046 -0.0210029 2.1239 0
M  V30 1897 H 179.309 -0.0718733 0.945272 0
M  V30 1898 H 179.015 -0.85269 3.41207 0
M  V30 1899 H 178.889 -2.50103 2.82362 0
M  V30 1900 H 181.276 -2.29664 1.85306 0
M  V30 1901 H 181.357 -0.642492 2.476 0
M  V30 1902 H 181.001 -1.53918 4.84016 0
M  V30 1903 H 180.931 -3.19482 4.18615 0
M  V30 1904 H 183.422 -1.95874 3.23174 0
M  V30 1905 H 183.735 -3.45773 6.9113 0
M  V30 1906 H 182.08 -3.11585 6.21241 0
M  V30 1907 H 185.271 -2.35382 4.04614 0
M  V30 1908 H 185.444 -3.03758 5.72394 0
M  V30 1909 N 178.85 -1.27639 -0.924453 0
M  V30 1910 C 180.08 -1.16819 -1.70402 0
M  V30 1911 C 180.488 0.277191 -1.87158 0
M  V30 1912 O 179.831 1.20025 -1.39067 0
M  V30 1913 C 179.893 -1.78305 -3.12166 0
M  V30 1914 C 179.557 -3.27502 -3.18734 0
M  V30 1915 C 180.554 -4.2409 -3.00738 0
M  V30 1916 C 178.239 -3.68269 -3.4159 0
M  V30 1917 C 180.233 -5.59422 -3.05492 0
M  V30 1918 C 177.92 -5.0373 -3.45977 0
M  V30 1919 C 178.918 -5.99116 -3.27946 0
M  V30 1920 O 178.606 -7.32108 -3.32074 0
M  V30 1921 H 178.338 -0.406931 -0.539799 0
M  V30 1922 H 180.892 -1.69078 -1.16626 0
M  V30 1923 H 179.122 -1.20528 -3.67437 0
M  V30 1924 H 180.811 -1.62154 -3.72103 0
M  V30 1925 H 181.577 -3.93931 -2.82919 0
M  V30 1926 H 177.456 -2.94496 -3.54673 0
M  V30 1927 H 181 -6.33852 -2.91337 0
M  V30 1928 H 176.897 -5.33543 -3.63321 0
M  V30 1929 H 177.665 -7.40598 -3.48507 0
M  V30 1930 N 180.328 1.1314 -1.09713 0
M  V30 1931 C 181.744 1.36477 -0.827423 0
M  V30 1932 C 181.944 1.93654 0.556817 0
M  V30 1933 O 181 2.15791 1.31112 0
M  V30 1934 C 182.313 2.31334 -1.92106 0
M  V30 1935 C 183.861 2.44943 -1.94864 0
M  V30 1936 C 184.336 3.4311 -3.0338 0
M  V30 1937 N 185.827 3.50662 -3.02639 0
M  V30 1938 C 186.562 4.2651 -3.83246 0
M  V30 1939 N 186.058 5.05485 -4.73768 0
M  V30 1940 N 187.851 4.2184 -3.71493 0
M  V30 1941 H 180.002 0.743807 -1.9895 0
M  V30 1942 H 182.265 0.389823 -0.864143 0
M  V30 1943 H 181.971 1.96483 -2.91698 0
M  V30 1944 H 181.845 3.31381 -1.80184 0
M  V30 1945 H 184.232 2.79079 -0.959099 0
M  V30 1946 H 184.313 1.4481 -2.10864 0
M  V30 1947 H 183.957 3.09704 -4.02549 0
M  V30 1948 H 183.887 4.43055 -2.84622 0
M  V30 1949 H 186.378 2.94315 -2.37039 0
M  V30 1950 H 186.691 5.60675 -5.3185 0
M  V30 1951 H 185.036 5.04708 -4.77802 0
M  V30 1952 H 188.227 3.5922 -3.00131 0
M  V30 1953 H 188.4 4.80697 -4.3455 0
M  V30 1954 N 181.806 0.884767 1.30421 0
M  V30 1955 C 182.769 0.356277 2.26414 0
M  V30 1956 C 183.769 -0.501124 1.52792 0
M  V30 1957 O 184.959 -0.30831 1.7145 0
M  V30 1958 C 182.091 -0.492316 3.37326 0
M  V30 1959 H 183.284 1.20389 2.74675 0
M  V30 1960 H 180.837 0.661607 1.41607 0
M  V30 1961 H 181.572 -1.36052 2.94381 0
M  V30 1962 H 181.357 0.121832 3.91911 0
M  V30 1963 H 182.847 -0.853871 4.08777 0
M  V30 1964 N 183.284 -1.43765 0.645699 0
M  V30 1965 C 184.533 -2.01116 0.153412 0
M  V30 1966 C 184.846 -1.51493 -1.23731 0
M  V30 1967 O 186.052 -2.01067 -1.8244 0
M  V30 1968 C 184.508 -3.59206 0.223473 0
M  V30 1969 C 184.116 -4.17823 1.61642 0
M  V30 1970 C 185.86 -4.23972 -0.211597 0
M  V30 1971 C 183.767 -5.68183 1.64081 0
M  V30 1972 H 182.697 -0.752093 0.0535891 0
M  V30 1973 H 185.348 -1.6482 0.806633 0
M  V30 1974 H 183.73 -3.92867 -0.497118 0
M  V30 1975 H 184.904 -3.95674 2.36176 0
M  V30 1976 H 183.219 -3.65399 1.99681 0
M  V30 1977 H 185.816 -5.34275 -0.213112 0
M  V30 1978 H 186.159 -3.97352 -1.24165 0
M  V30 1979 H 186.692 -3.95166 0.456988 0
M  V30 1980 H 183.431 -5.99559 2.64971 0
M  V30 1981 H 182.951 -5.9241 0.938611 0
M  V30 1982 H 184.63 -6.32085 1.3812 0
M  V30 1983 N 184.763 -0.387143 -1.52771 0
M  V30 1984 C 185.991 0.195869 -2.05971 0
M  V30 1985 C 186.406 1.40691 -1.25903 0
M  V30 1986 O 185.763 1.79931 -0.305134 0
M  V30 1987 C 185.814 0.56812 -3.57008 0
M  V30 1988 O 185.535 -0.594803 -4.34043 0
M  V30 1989 C 187.036 1.20723 -4.26545 0
M  V30 1990 H 184.256 0.0300578 -0.670326 0
M  V30 1991 H 186.8 -0.551749 -1.96916 0
M  V30 1992 H 184.955 1.26564 -3.66143 0
M  V30 1993 H 185.369 -0.289322 -5.23701 0
M  V30 1994 H 186.843 1.41807 -5.33474 0
M  V30 1995 H 187.32 2.17395 -3.81623 0
M  V30 1996 H 187.926 0.550535 -4.21722 0
M  V30 1997 N 186.241 1.57166 -0.116904 0
M  V30 1998 C 187.518 1.86645 0.585049 0
M  V30 1999 C 187.898 1.0177 1.84949 0
M  V30 2000 O 187.246 0.0960379 2.28298 0
M  V30 2001 C 187.456 3.37736 0.879507 0
M  V30 2002 C 188.804 4.06289 1.23348 0
M  V30 2003 O 189.828 3.42743 0.969836 0
M  V30 2004 O 188.687 5.18455 1.7282 0
M  V30 2005 H 185.781 0.772593 0.295007 0
M  V30 2006 H 188.327 1.69025 -0.151249 0
M  V30 2007 H 187.099 3.91296 -0.0166136 0
M  V30 2008 H 186.722 3.6078 1.67103 0
M  V30 2009 N 187.719 -0.156864 1.56817 0
M  V30 2010 C 188.682 -1.17781 1.96622 0
M  V30 2011 C 189.682 -1.36401 0.851555 0
M  V30 2012 O 190.872 -1.33561 1.11836 0
M  V30 2013 C 188.004 -2.54008 2.27361 0
M  V30 2014 H 189.197 -0.836564 2.87996 0
M  V30 2015 H 186.75 -0.39985 1.51099 0
M  V30 2016 H 187.485 -2.9312 1.38748 0
M  V30 2017 H 187.27 -2.41856 3.08623 0
M  V30 2018 H 188.76 -3.27558 2.59029 0
M  V30 2019 N 189.197 -1.51736 -0.425897 0
M  V30 2020 C 190.443 -1.65214 -1.1761 0
M  V30 2021 C 190.776 -0.372778 -1.90589 0
M  V30 2022 O 190.051 0.628139 -1.84078 0
M  V30 2023 C 190.334 -2.86312 -2.18398 0
M  V30 2024 C 190.187 -4.24254 -1.49426 0
M  V30 2025 C 191.506 -3.02925 -3.19256 0
M  V30 2026 H 188.625 -0.601263 -0.426206 0
M  V30 2027 H 191.267 -1.8425 -0.463882 0
M  V30 2028 H 189.417 -2.70213 -2.79137 0
M  V30 2029 H 191.089 -4.52046 -0.919362 0
M  V30 2030 H 189.332 -4.26426 -0.796432 0
M  V30 2031 H 190.003 -5.05001 -2.22885 0
M  V30 2032 H 192.479 -3.1781 -2.68581 0
M  V30 2033 H 191.355 -3.89199 -3.8706 0
M  V30 2034 H 191.616 -2.15497 -3.86023 0
M  V30 2035 N 190.675 0.682077 -1.42076 0
M  V30 2036 C 191.585 1.82535 -1.47371 0
M  V30 2037 C 192.601 1.7017 -0.363079 0
M  V30 2038 O 193.777 1.91848 -0.612875 0
M  V30 2039 C 190.842 3.18624 -1.36674 0
M  V30 2040 C 189.903 3.42999 -2.58167 0
M  V30 2041 C 189.136 4.72595 -2.4797 0
M  V30 2042 O 189.359 5.50006 -1.5116 0
M  V30 2043 O 188.293 4.98054 -3.37974 0
M  V30 2044 H 192.119 1.81023 -2.43853 0
M  V30 2045 H 189.704 0.836887 -1.2376 0
M  V30 2046 H 191.586 3.99847 -1.33043 0
M  V30 2047 H 190.261 3.20789 -0.433138 0
M  V30 2048 H 189.168 2.61653 -2.67373 0
M  V30 2049 H 190.501 3.45659 -3.50401 0
M  V30 2050 N 192.153 1.28127 0.917671 0
M  V30 2051 C 193.383 1.17722 1.6978 0
M  V30 2052 C 193.791 -0.267261 1.87303 0
M  V30 2053 O 193.134 -1.19286 1.39702 0
M  V30 2054 C 193.196 1.79958 3.11216 0
M  V30 2055 C 192.86 3.29187 3.16993 0
M  V30 2056 C 193.857 4.25679 2.98485 0
M  V30 2057 C 191.542 3.70075 3.39632 0
M  V30 2058 C 193.536 5.61035 3.02521 0
M  V30 2059 C 191.223 5.05557 3.433 0
M  V30 2060 C 192.221 6.00847 3.24764 0
M  V30 2061 O 191.909 7.33859 3.28187 0
M  V30 2062 H 191.641 0.409788 0.537634 0
M  V30 2063 H 194.195 1.69694 1.15728 0
M  V30 2064 H 192.425 1.22475 3.66793 0
M  V30 2065 H 194.114 1.64125 3.71238 0
M  V30 2066 H 194.88 3.95426 2.80826 0
M  V30 2067 H 190.759 2.96373 3.53106 0
M  V30 2068 H 194.303 6.35388 2.87971 0
M  V30 2069 H 190.2 5.35462 3.60486 0
M  V30 2070 H 190.968 7.42436 3.44575 0
M  V30 2071 N 193.631 -1.12557 1.10312 0
M  V30 2072 C 194.594 -2.16434 0.75424 0
M  V30 2073 C 195.594 -1.59278 -0.220685 0
M  V30 2074 O 196.784 -1.742 0.00230591 0
M  V30 2075 C 193.916 -3.40699 0.116987 0
M  V30 2076 H 195.109 -2.48811 1.67431 0
M  V30 2077 H 192.662 -1.27542 0.903475 0
M  V30 2078 H 193.397 -3.13921 -0.813877 0
M  V30 2079 H 193.182 -3.83459 0.818613 0
M  V30 2080 H 194.672 -4.17451 -0.111387 0
M  V30 2081 N 195.109 -0.891671 -1.2995 0
M  V30 2082 C 196.525 -0.58662 -1.48428 0
M  V30 2083 C 196.725 0.873951 -1.81561 0
M  V30 2084 O 195.781 1.65471 -1.90724 0
M  V30 2085 C 197.094 -1.50553 -2.60296 0
M  V30 2086 C 198.642 -1.50988 -2.74175 0
M  V30 2087 C 199.117 -2.41488 -3.89163 0
M  V30 2088 N 200.608 -2.39489 -3.96483 0
M  V30 2089 C 201.343 -3.06223 -4.84784 0
M  V30 2090 N 200.839 -3.82206 -5.77833 0
M  V30 2091 N 202.632 -2.95421 -4.78208 0
M  V30 2092 H 194.783 -1.83644 -1.06718 0
M  V30 2093 H 197.046 -0.786455 -0.529332 0
M  V30 2094 H 196.752 -2.54581 -2.42654 0
M  V30 2095 H 196.626 -1.22008 -3.56923 0
M  V30 2096 H 199.013 -0.47708 -2.91218 0
M  V30 2097 H 199.094 -1.83567 -1.78148 0
M  V30 2098 H 198.738 -3.44857 -3.72876 0
M  V30 2099 H 198.668 -2.06222 -4.84541 0
M  V30 2100 H 201.159 -1.84278 -3.29924 0
M  V30 2101 H 201.472 -4.302 -6.41988 0
M  V30 2102 H 199.817 -3.86313 -5.77743 0
M  V30 2103 H 203.008 -2.35581 -4.04499 0
M  V30 2104 H 203.181 -3.47704 -5.46814 0
M  V30 2105 N 196.587 1.43421 -0.653314 0
M  V30 2106 C 197.534 2.30768 0.0382271 0
M  V30 2107 C 198.504 1.44755 0.814576 0
M  V30 2108 O 199.689 1.73624 0.791162 0
M  V30 2109 C 196.829 3.30336 0.998599 0
M  V30 2110 C 195.942 4.31448 0.218342 0
M  V30 2111 C 195.077 5.18098 1.17252 0
M  V30 2112 C 194.116 6.10902 0.382702 0
M  V30 2113 N 193.253 6.90176 1.28848 0
M  V30 2114 H 198.093 2.89357 -0.712511 0
M  V30 2115 H 195.63 1.42548 -0.363128 0
M  V30 2116 H 197.588 3.86572 1.56901 0
M  V30 2117 H 196.218 2.73397 1.71621 0
M  V30 2118 H 195.27 3.77506 -0.46836 0
M  V30 2119 H 196.582 4.97227 -0.395812 0
M  V30 2120 H 195.736 5.7896 1.81356 0
M  V30 2121 H 194.475 4.52444 1.82058 0
M  V30 2122 H 193.48 5.49128 -0.27169 0
M  V30 2123 H 194.705 6.78598 -0.260957 0
M  V30 2124 H 192.651 6.27171 1.92334 0
M  V30 2125 H 192.568 7.52478 0.728887 0
M  V30 2126 H 193.836 7.55543 1.91766 0
M  V30 2127 N 198.065 0.39524 1.52563 0
M  V30 2128 C 199.481 0.0454682 1.59535 0
M  V30 2129 C 199.681 -1.44056 1.4089 0
M  V30 2130 O 198.737 -2.20579 1.22888 0
M  V30 2131 C 200.05 0.527963 2.96029 0
M  V30 2132 C 201.598 0.484733 3.09224 0
M  V30 2133 C 202.073 0.943512 4.48176 0
M  V30 2134 N 203.564 0.899765 4.54377 0
M  V30 2135 C 204.299 1.22609 5.60138 0
M  V30 2136 N 203.795 1.62319 6.73516 0
M  V30 2137 N 205.588 1.14696 5.50274 0
M  V30 2138 H 197.739 1.36261 1.62931 0
M  V30 2139 H 200.002 0.558887 0.765735 0
M  V30 2140 H 199.708 1.56607 3.14908 0
M  V30 2141 H 199.582 -0.0698056 3.77135 0
M  V30 2142 H 201.969 -0.544298 2.90037 0
M  V30 2143 H 202.05 1.11838 2.30056 0
M  V30 2144 H 201.694 1.9708 4.68104 0
M  V30 2145 H 201.624 0.286817 5.25818 0
M  V30 2146 H 204.115 0.607632 3.72983 0
M  V30 2147 H 204.428 1.85567 7.5019 0
M  V30 2148 H 202.773 1.66211 6.74833 0
M  V30 2149 H 205.964 0.835701 4.6058 0
M  V30 2150 H 206.137 1.40459 6.32594 0
M  V30 2151 N 199.544 -1.57102 0.125237 0
M  V30 2152 C 200.772 -1.99761 -0.538797 0
M  V30 2153 C 201.187 -1.00503 -1.59827 0
M  V30 2154 O 200.544 0.00119474 -1.825 0
M  V30 2155 C 200.595 -3.42408 -1.15927 0
M  V30 2156 O 200.316 -4.37869 -0.142143 0
M  V30 2157 C 201.817 -4.00232 -1.90602 0
M  V30 2158 H 199.037 -0.655772 -0.14214 0
M  V30 2159 H 201.581 -2.03383 0.213413 0
M  V30 2160 H 199.736 -3.39706 -1.86223 0
M  V30 2161 H 200.15 -5.21128 -0.593775 0
M  V30 2162 H 201.624 -5.02105 -2.29335 0
M  V30 2163 H 202.101 -3.39721 -2.78363 0
M  V30 2164 H 202.707 -4.06499 -1.25055 0
M  V30 2165 N 201.022 0.148545 -1.56898 0
M  V30 2166 C 202.433 0.708766 -1.72723 0
M  V30 2167 C 202.784 1.81734 -0.739395 0
M  V30 2168 O 201.909 2.16194 0.0943169 0
M  V30 2169 C 202.504 1.29245 -3.13179 0
M  V30 2170 C 201.063 1.79925 -3.30611 0
M  V30 2171 C 200.21 0.687111 -2.68652 0
M  V30 2172 H 203.161 -0.0771063 -1.58513 0
M  V30 2173 H 203.182 2.16224 -3.13093 0
M  V30 2174 H 202.694 0.485382 -3.85053 0
M  V30 2175 H 200.795 2.63203 -2.63732 0
M  V30 2176 H 200.908 1.92903 -4.38549 0
M  V30 2177 H 199.272 1.11335 -2.29078 0
M  V30 2178 H 200.055 -0.108483 -3.43129 0
M  V30 2179 N 202.5 1.5196 0.417844 0
M  V30 2180 C 203.447 1.74678 1.50852 0
M  V30 2181 C 204.417 0.588947 1.55308 0
M  V30 2182 O 205.602 0.825544 1.72016 0
M  V30 2183 C 202.742 1.89544 2.88387 0
M  V30 2184 C 201.855 3.17166 2.93309 0
M  V30 2185 C 200.99 3.22513 4.22088 0
M  V30 2186 C 200.029 4.44372 4.20951 0
M  V30 2187 N 199.166 4.47161 5.41287 0
M  V30 2188 H 204.006 2.67768 1.30783 0
M  V30 2189 H 201.543 1.32689 0.63498 0
M  V30 2190 H 203.501 1.96146 3.68216 0
M  V30 2191 H 202.131 0.998424 3.06971 0
M  V30 2192 H 201.183 3.19778 2.06024 0
M  V30 2193 H 202.495 4.07021 2.88332 0
M  V30 2194 H 201.649 3.28139 5.10303 0
M  V30 2195 H 200.388 2.30581 4.29748 0
M  V30 2196 H 199.393 4.38902 3.31127 0
M  V30 2197 H 200.618 5.3759 4.14938 0
M  V30 2198 H 198.564 3.58108 5.49632 0
M  V30 2199 H 198.481 5.3085 5.3827 0
M  V30 2200 H 199.749 4.57005 6.3148 0
M  V30 2201 N 203.978 -0.674533 1.42435 0
M  V30 2202 C 204.928 -1.7807 1.4239 0
M  V30 2203 C 205.912 -1.58169 0.295202 0
M  V30 2204 O 207.104 -1.68643 0.537449 0
M  V30 2205 C 204.233 -3.16532 1.32901 0
M  V30 2206 C 203.319 -3.42055 2.50717 0
M  V30 2207 N 203.71 -3.38162 3.76139 0
M  V30 2208 C 202.008 -3.72692 2.44983 0
M  V30 2209 C 202.709 -3.63177 4.54398 0
M  V30 2210 N 201.685 -3.83954 3.84812 0
M  V30 2211 H 205.487 -1.73454 2.37257 0
M  V30 2212 H 203.001 -0.875381 1.36788 0
M  V30 2213 H 204.998 -3.958 1.30951 0
M  V30 2214 H 203.658 -3.22345 0.390363 0
M  V30 2215 H 204.669 -3.18057 4.0873 0
M  V30 2216 H 201.346 -3.85749 1.59699 0
M  V30 2217 H 202.736 -3.66125 5.63384 0
M  V30 2218 N 205.456 -1.28612 -0.910864 0
M  V30 2219 C 206.419 -1.12803 -1.9952 0
M  V30 2220 C 207.419 -0.0668264 -1.60661 0
M  V30 2221 O 208.609 -0.312847 -1.71368 0
M  V30 2222 C 205.741 -0.72254 -3.33155 0
M  V30 2223 H 206.934 -2.09109 -2.14973 0
M  V30 2224 H 204.487 -1.11639 -1.09391 0
M  V30 2225 H 205.222 0.241152 -3.23402 0
M  V30 2226 H 205.007 -1.48916 -3.62721 0
M  V30 2227 H 206.497 -0.634666 -4.12749 0
M  V30 2228 N 206.934 1.1197 -1.10907 0
M  V30 2229 C 208.182 1.83225 -0.852819 0
M  V30 2230 C 208.503 1.84769 0.623341 0
M  V30 2231 O 207.773 1.3143 1.45269 0
M  V30 2232 H 206.353 0.67849 -0.312507 0
M  V30 2233 H 209.015 1.3556 -1.40033 0
M  V30 2234 H 208.111 2.87265 -1.22005 0
M  V30 2235 N 208.412 0.89855 1.29475 0
M  V30 2236 C 209.661 0.519863 1.94885 0
M  V30 2237 C 209.974 -0.9383 1.71625 0
M  V30 2238 O 211.18 -1.42445 2.31131 0
M  V30 2239 C 209.636 0.878836 3.49005 0
M  V30 2240 C 209.244 2.35569 3.81066 0
M  V30 2241 C 210.988 0.570004 4.20656 0
M  V30 2242 C 208.895 2.65558 5.28425 0
M  V30 2243 H 207.825 0.190692 0.729488 0
M  V30 2244 H 210.476 1.09539 1.47219 0
M  V30 2245 H 208.858 0.232253 3.95318 0
M  V30 2246 H 210.032 3.04773 3.45616 0
M  V30 2247 H 208.347 2.63343 3.22552 0
M  V30 2248 H 210.944 0.770925 5.29113 0
M  V30 2249 H 211.287 -0.491404 4.1339 0
M  V30 2250 H 211.82 1.17438 3.8007 0
M  V30 2251 H 208.559 3.70493 5.40754 0
M  V30 2252 H 208.079 2.00977 5.65127 0
M  V30 2253 H 209.758 2.51765 5.96006 0
M  V30 2254 N 209.89 -1.43072 0.660911 0
M  V30 2255 C 210.823 -2.28074 -0.0758862 0
M  V30 2256 C 211.801 -1.40271 -0.822362 0
M  V30 2257 O 212.985 -1.69713 -0.820352 0
M  V30 2258 C 210.112 -3.19843 -1.11437 0
M  V30 2259 C 209.158 -4.23957 -0.465069 0
M  V30 2260 S 209.991 -5.29978 0.767078 0
M  V30 2261 C 211.147 -6.25314 -0.270682 0
M  V30 2262 H 211.38 -2.90216 0.645139 0
M  V30 2263 H 208.913 -1.47697 0.449995 0
M  V30 2264 H 210.871 -3.73257 -1.70849 0
M  V30 2265 H 209.532 -2.56863 -1.80776 0
M  V30 2266 H 208.725 -4.88299 -1.24819 0
M  V30 2267 H 208.327 -3.73959 0.0551242 0
M  V30 2268 H 210.619 -6.67932 -1.13459 0
M  V30 2269 H 211.562 -7.07293 0.337916 0
M  V30 2270 H 211.97 -5.61195 -0.609937 0
M  V30 2271 N 211.368 -0.403325 -1.52352 0
M  V30 2272 C 212.617 0.175668 -2.00934 0
M  V30 2273 C 212.93 1.46718 -1.29356 0
M  V30 2274 O 214.136 2.12708 -1.68724 0
M  V30 2275 C 212.592 0.363612 -3.58058 0
M  V30 2276 C 212.2 -0.915472 -4.38547 0
M  V30 2277 C 213.944 0.89821 -4.14888 0
M  V30 2278 C 211.851 -0.695035 -5.87302 0
M  V30 2279 H 210.781 0.0694234 -0.750797 0
M  V30 2280 H 213.432 -0.527879 -1.75743 0
M  V30 2281 H 211.814 1.12935 -3.79555 0
M  V30 2282 H 212.988 -1.68691 -4.28812 0
M  V30 2283 H 211.303 -1.37606 -3.93006 0
M  V30 2284 H 213.9 1.07907 -5.23699 0
M  V30 2285 H 214.243 1.87126 -3.71873 0
M  V30 2286 H 214.776 0.191681 -3.97338 0
M  V30 2287 H 211.515 -1.63948 -6.34666 0
M  V30 2288 H 211.035 0.0372116 -5.99788 0
M  V30 2289 H 212.714 -0.33497 -6.46132 0
M  V30 2290 N 212.846 1.57033 -0.133567 0
M  V30 2291 C 214.074 2.00044 0.528195 0
M  V30 2292 C 214.489 1.01349 1.59291 0
M  V30 2293 O 213.846 0.00848369 1.82498 0
M  V30 2294 C 213.897 3.43018 1.1411 0
M  V30 2295 O 213.618 4.37939 0.11892 0
M  V30 2296 C 215.119 4.01237 1.88477 0
M  V30 2297 H 212.339 0.656517 0.138661 0
M  V30 2298 H 214.883 2.03267 -0.224196 0
M  V30 2299 H 213.038 3.40688 1.84418 0
M  V30 2300 H 213.452 5.21436 0.56613 0
M  V30 2301 H 214.926 5.03314 2.26669 0
M  V30 2302 H 215.403 3.41193 2.76558 0
M  V30 2303 H 216.009 4.07156 1.22898 0
M  V30 2304 N 214.325 -0.140222 1.56975 0
M  V30 2305 C 215.574 -0.850152 1.82908 0
M  V30 2306 C 215.887 -1.82028 0.715892 0
M  V30 2307 O 217.093 -2.57485 0.861016 0
M  V30 2308 C 215.549 -1.5625 3.24213 0
M  V30 2309 C 215.157 -0.63443 4.43485 0
M  V30 2310 C 216.901 -2.25881 3.59413 0
M  V30 2311 C 214.808 -1.34879 5.75814 0
M  V30 2312 H 213.738 -0.321221 0.682153 0
M  V30 2313 H 216.389 -0.102874 1.83211 0
M  V30 2314 H 214.771 -2.35565 3.18316 0
M  V30 2315 H 215.945 0.12398 4.60633 0
M  V30 2316 H 214.26 -0.0461836 4.16374 0
M  V30 2317 H 216.857 -2.79978 4.5554 0
M  V30 2318 H 217.2 -3.02693 2.85802 0
M  V30 2319 H 217.733 -1.53477 3.67001 0
M  V30 2320 H 214.472 -0.622385 6.52539 0
M  V30 2321 H 213.992 -2.07974 5.6259 0
M  V30 2322 H 215.671 -1.88784 6.18845 0
M  V30 2323 N 215.803 -1.52179 -0.40978 0
M  V30 2324 C 217.049 -1.66453 -1.15851 0
M  V30 2325 C 217.382 -0.392972 -1.90182 0
M  V30 2326 O 216.657 0.608579 -1.84734 0
M  V30 2327 C 216.94 -2.88612 -2.15349 0
M  V30 2328 C 216.793 -4.25815 -1.44918 0
M  V30 2329 C 218.112 -3.06294 -3.16026 0
M  V30 2330 H 215.231 -0.60575 -0.419805 0
M  V30 2331 H 217.873 -1.84732 -0.444314 0
M  V30 2332 H 216.023 -2.73158 -2.76255 0
M  V30 2333 H 217.695 -4.52995 -0.871365 0
M  V30 2334 H 215.938 -4.27247 -0.751159 0
M  V30 2335 H 216.609 -5.07337 -2.17516 0
M  V30 2336 H 219.085 -3.20641 -2.65195 0
M  V30 2337 H 217.961 -3.93283 -3.8291 0
M  V30 2338 H 218.222 -2.19579 -3.83715 0
M  V30 2339 N 217.281 0.66697 -1.42791 0
M  V30 2340 C 218.527 1.42754 -1.44889 0
M  V30 2341 C 218.882 1.92283 -0.0669755 0
M  V30 2342 O 218.175 1.68494 0.912154 0
M  V30 2343 C 218.369 2.6349 -2.4147 0
M  V30 2344 C 218.198 2.25776 -3.88915 0
M  V30 2345 C 216.968 2.1476 -4.57391 0
M  V30 2346 C 219.166 1.86927 -4.79127 0
M  V30 2347 N 217.148 1.70232 -5.89826 0
M  V30 2348 C 218.519 1.53378 -6.00729 0
M  V30 2349 C 220.574 1.73989 -4.66511 0
M  V30 2350 C 219.277 1.08187 -7.11117 0
M  V30 2351 C 221.303 1.30203 -5.76889 0
M  V30 2352 C 220.665 0.975818 -6.97608 0
M  V30 2353 H 216.764 0.518559 -0.585338 0
M  V30 2354 H 219.348 0.768906 -1.78874 0
M  V30 2355 H 217.519 3.27033 -2.09533 0
M  V30 2356 H 219.251 3.30123 -2.34096 0
M  V30 2357 H 216.006 2.3408 -4.11708 0
M  V30 2358 H 216.43 1.50369 -6.6009 0
M  V30 2359 H 221.072 1.97853 -3.7365 0
M  V30 2360 H 218.79 0.830701 -8.03819 0
M  V30 2361 H 222.376 1.20701 -5.69142 0
M  V30 2362 H 221.256 0.642157 -7.81566 0
M  V30 2363 N 218.759 1.29093 0.90403 0
M  V30 2364 C 220.008 1.16187 1.64874 0
M  V30 2365 C 220.321 -0.286742 1.93487 0
M  V30 2366 O 221.527 -0.537062 2.66135 0
M  V30 2367 C 219.983 2.03177 2.97064 0
M  V30 2368 C 219.591 3.52836 2.76062 0
M  V30 2369 C 221.335 1.98984 3.74974 0
M  V30 2370 C 219.242 4.31945 4.03952 0
M  V30 2371 H 218.172 0.431246 0.618501 0
M  V30 2372 H 220.823 1.53699 1.00243 0
M  V30 2373 H 219.205 1.5853 3.62883 0
M  V30 2374 H 220.379 4.05507 2.18863 0
M  V30 2375 H 218.694 3.58656 2.11553 0
M  V30 2376 H 221.291 2.55351 4.69787 0
M  V30 2377 H 221.634 0.968815 4.0487 0
M  V30 2378 H 222.167 2.41652 3.15989 0
M  V30 2379 H 218.906 5.34667 3.79225 0
M  V30 2380 H 218.426 3.84045 4.60727 0
M  V30 2381 H 220.105 4.42379 4.72133 0
M  V30 2382 N 220.237 -1.11381 1.11499 0
M  V30 2383 C 221.486 -1.82494 0.858993 0
M  V30 2384 C 221.799 -1.85605 -0.617278 0
M  V30 2385 O 223.005 -2.52824 -0.989552 0
M  V30 2386 C 221.461 -3.27745 1.48699 0
M  V30 2387 C 221.069 -3.32961 2.99735 0
M  V30 2388 C 222.813 -4.03754 1.31085 0
M  V30 2389 C 220.72 -4.72612 3.55516 0
M  V30 2390 H 219.65 -0.683802 0.317696 0
M  V30 2391 H 222.301 -1.25331 1.34031 0
M  V30 2392 H 220.683 -3.84844 0.933339 0
M  V30 2393 H 221.857 -2.85741 3.61509 0
M  V30 2394 H 220.172 -2.70433 3.16631 0
M  V30 2395 H 222.769 -5.06891 1.70192 0
M  V30 2396 H 223.112 -4.15527 0.253496 0
M  V30 2397 H 223.645 -3.53043 1.83318 0
M  V30 2398 H 220.384 -4.66036 4.60967 0
M  V30 2399 H 219.904 -5.2024 2.98513 0
M  V30 2400 H 221.583 -5.4157 3.53992 0
M  V30 2401 N 221.715 -0.905404 -1.28997 0
M  V30 2402 C 222.94 -0.549175 -1.99997 0
M  V30 2403 C 223.365 0.860276 -1.67275 0
M  V30 2404 O 222.723 1.57355 -0.900502 0
M  V30 2405 C 222.771 -0.755185 -3.52604 0
M  V30 2406 O 221.875 0.189692 -4.11964 0
M  V30 2407 H 221.216 -0.213899 -0.628604 0
M  V30 2408 H 223.746 -1.21856 -1.64354 0
M  V30 2409 H 223.756 -0.662045 -4.02593 0
M  V30 2410 H 222.431 -1.78271 -3.75755 0
M  V30 2411 H 221.008 0.0485257 -3.72868 0
M  V30 2412 N 223.193 1.4272 -0.668489 0
M  V30 2413 C 224.439 2.01923 -0.188419 0
M  V30 2414 C 224.772 1.52704 1.19979 0
M  V30 2415 O 224.047 0.726566 1.8042 0
M  V30 2416 C 224.33 3.59451 -0.216085 0
M  V30 2417 C 224.183 4.18864 -1.6393 0
M  V30 2418 C 225.502 4.37903 0.439179 0
M  V30 2419 H 222.621 0.733674 -0.0699412 0
M  V30 2420 H 225.263 1.69822 -0.852076 0
M  V30 2421 H 223.413 3.86929 0.349012 0
M  V30 2422 H 225.085 4.02362 -2.25616 0
M  V30 2423 H 223.328 3.74933 -2.18193 0
M  V30 2424 H 223.999 5.27987 -1.61039 0
M  V30 2425 H 226.475 4.16079 -0.0417878 0
M  V30 2426 H 225.351 5.47519 0.389157 0
M  V30 2427 H 225.612 4.15303 1.51577 0
M  V30 2428 N 224.671 0.411399 1.52136 0
M  V30 2429 C 225.918 -0.163645 2.01838 0
M  V30 2430 C 226.246 -1.4495 1.29691 0
M  V30 2431 O 225.501 -1.91725 0.392431 0
M  V30 2432 C 225.8 -0.455872 3.54481 0
M  V30 2433 C 225.466 0.741055 4.44769 0
M  V30 2434 C 224.128 1.06936 4.69167 0
M  V30 2435 C 226.48 1.54075 4.97906 0
M  V30 2436 C 223.808 2.19851 5.43951 0
M  V30 2437 C 226.16 2.66067 5.73926 0
M  V30 2438 C 224.824 2.99381 5.96596 0
M  V30 2439 H 224.094 -0.0598821 0.738576 0
M  V30 2440 H 226.741 0.553283 1.83333 0
M  V30 2441 H 225.046 -1.2544 3.71177 0
M  V30 2442 H 226.743 -0.913802 3.90449 0
M  V30 2443 H 223.333 0.475192 4.25958 0
M  V30 2444 H 227.517 1.30033 4.78963 0
M  V30 2445 H 222.773 2.46006 5.59724 0
M  V30 2446 H 226.947 3.28419 6.14096 0
M  V30 2447 H 224.574 3.86992 6.54325 0
M  V30 2448 N 226.149 -1.5696 0.141893 0
M  V30 2449 C 227.398 -1.95135 -0.510427 0
M  V30 2450 C 227.711 -1.02896 -1.66348 0
M  V30 2451 O 228.917 -1.30629 -2.38009 0
M  V30 2452 C 227.373 -3.46876 -0.959427 0
M  V30 2453 C 226.981 -4.47691 0.166419 0
M  V30 2454 C 228.725 -3.93927 -1.58183 0
M  V30 2455 C 226.632 -5.90636 -0.300565 0
M  V30 2456 H 225.562 -0.728494 -0.194454 0
M  V30 2457 H 228.213 -1.8211 0.22542 0
M  V30 2458 H 226.595 -3.55215 -1.75038 0
M  V30 2459 H 227.769 -4.51043 0.94325 0
M  V30 2460 H 226.084 -4.10527 0.696905 0
M  V30 2461 H 228.681 -4.98158 -1.94275 0
M  V30 2462 H 229.024 -3.3519 -2.46888 0
M  V30 2463 H 229.557 -3.88484 -0.855863 0
M  V30 2464 H 226.296 -6.5318 0.550989 0
M  V30 2465 H 225.816 -5.90655 -1.04338 0
M  V30 2466 H 227.495 -6.42588 -0.754265 0
M  V30 2467 N 227.627 0.131896 -1.57047 0
M  V30 2468 C 228.852 0.860418 -1.8871 0
M  V30 2469 C 229.277 1.73251 -0.73251 0
M  V30 2470 O 228.635 1.785 0.317429 0
M  V30 2471 C 228.683 1.68047 -3.19049 0
M  V30 2472 O 227.787 2.7862 -3.04047 0
M  V30 2473 H 227.128 0.238743 -0.619595 0
M  V30 2474 H 229.658 0.118169 -2.04258 0
M  V30 2475 H 229.668 2.07238 -3.51449 0
M  V30 2476 H 228.343 1.04018 -4.02682 0
M  V30 2477 H 226.92 2.42726 -2.83088 0
M  V30 2478 N 229.106 1.52395 0.401703 0
M  V30 2479 C 230.039 1.70999 1.51111 0
M  V30 2480 C 231.017 0.55765 1.52738 0
M  V30 2481 O 232.201 0.785912 1.71335 0
M  V30 2482 C 229.328 1.75607 2.8962 0
M  V30 2483 C 228.374 2.97227 3.05873 0
M  V30 2484 S 229.207 4.57439 2.78405 0
M  V30 2485 C 230.363 4.64844 4.19131 0
M  V30 2486 H 230.596 2.6483 1.35102 0
M  V30 2487 H 228.129 1.42527 0.593762 0
M  V30 2488 H 230.087 1.78947 3.69443 0
M  V30 2489 H 228.748 0.828914 3.02965 0
M  V30 2490 H 227.941 2.96955 4.07227 0
M  V30 2491 H 227.543 2.91813 2.33925 0
M  V30 2492 H 229.835 4.42677 5.12877 0
M  V30 2493 H 230.778 5.66807 4.24424 0
M  V30 2494 H 231.186 3.93804 4.04448 0
M  V30 2495 N 230.584 -0.659388 1.43143 0
M  V30 2496 C 231.995 -1.24041 1.39537 0
M  V30 2497 C 232.346 -1.95963 0.0963364 0
M  V30 2498 O 231.471 -2.00892 -0.804438 0
M  V30 2499 C 232.066 -2.25601 2.52764 0
M  V30 2500 C 230.625 -2.79195 2.52443 0
M  V30 2501 C 229.772 -1.53743 2.30778 0
M  V30 2502 H 232.723 -0.451792 1.52133 0
M  V30 2503 H 232.744 -3.07651 2.23899 0
M  V30 2504 H 232.256 -1.73226 3.47296 0
M  V30 2505 H 230.357 -3.35649 1.61773 0
M  V30 2506 H 230.47 -3.2716 3.50004 0
M  V30 2507 H 228.834 -1.80869 1.79328 0
M  V30 2508 H 229.617 -1.03312 3.27386 0
M  V30 2509 N 232.062 -1.29571 -0.897171 0
M  V30 2510 C 233.473 -1.15964 -1.46319 0
M  V30 2511 C 233.824 0.244267 -1.94674 0
M  V30 2512 O 232.949 1.13998 -1.83939 0
M  V30 2513 C 233.544 -2.09906 -2.65942 0
M  V30 2514 C 232.103 -2.00314 -3.18671 0
M  V30 2515 C 231.25 -2.00687 -1.91363 0
M  V30 2516 H 234.201 -1.42019 -0.708268 0
M  V30 2517 H 234.222 -1.67276 -3.41759 0
M  V30 2518 H 233.734 -3.12075 -2.30718 0
M  V30 2519 H 231.835 -1.01242 -3.58582 0
M  V30 2520 H 231.948 -2.88102 -3.82798 0
M  V30 2521 H 230.312 -1.45319 -2.09175 0
M  V30 2522 H 231.095 -3.04566 -1.58413 0
M  V30 2523 N 233.54 1.10788 -1.12088 0
M  V30 2524 C 234.47 2.19083 -0.807755 0
M  V30 2525 C 235.451 1.6858 0.226859 0
M  V30 2526 O 236.636 1.93997 0.0888475 0
M  V30 2527 C 233.766 3.46344 -0.257576 0
M  V30 2528 C 232.72 4.101 -1.22483 0
M  V30 2529 C 232.046 5.32016 -0.535052 0
M  V30 2530 C 233.346 4.54236 -2.57811 0
M  V30 2531 H 235.04 2.45534 -1.71328 0
M  V30 2532 H 232.586 1.1801 -0.825205 0
M  V30 2533 H 234.539 4.21392 -0.0262679 0
M  V30 2534 H 233.263 3.19373 0.683278 0
M  V30 2535 H 231.922 3.37054 -1.44189 0
M  V30 2536 H 231.57 5.01319 0.410827 0
M  V30 2537 H 231.27 5.75625 -1.18024 0
M  V30 2538 H 232.794 6.09799 -0.312695 0
M  V30 2539 H 234.208 5.20575 -2.40155 0
M  V30 2540 H 232.605 5.08682 -3.18375 0
M  V30 2541 H 233.675 3.6734 -3.16528 0
M  V30 2542 N 235.018 0.912232 1.28515 0
M  V30 2543 C 236.265 0.544599 1.95039 0
M  V30 2544 C 236.593 -0.911435 1.71823 0
M  V30 2545 O 235.848 -1.66317 1.03137 0
M  V30 2546 C 236.147 0.798392 3.48368 0
M  V30 2547 C 235.813 2.23374 3.91682 0
M  V30 2548 C 234.475 2.62617 4.03219 0
M  V30 2549 C 236.827 3.16786 4.13879 0
M  V30 2550 C 234.155 3.94429 4.3433 0
M  V30 2551 C 236.507 4.48161 4.46469 0
M  V30 2552 C 235.171 4.8726 4.56217 0
M  V30 2553 H 234.441 0.199283 0.7137 0
M  V30 2554 H 237.088 1.15327 1.52879 0
M  V30 2555 H 235.393 0.106908 3.91654 0
M  V30 2556 H 237.09 0.493141 3.97956 0
M  V30 2557 H 233.68 1.91922 3.83228 0
M  V30 2558 H 237.864 2.87677 4.0442 0
M  V30 2559 H 233.12 4.24426 4.40082 0
M  V30 2560 H 237.294 5.20559 4.62592 0
M  V30 2561 H 234.921 5.89431 4.80078 0
M  V30 2562 N 236.496 -1.42363 0.676048 0
M  V30 2563 C 237.742 -2.02336 0.207809 0
M  V30 2564 C 238.097 -1.52506 -1.17302 0
M  V30 2565 O 237.39 -0.718048 -1.77636 0
M  V30 2566 C 237.584 -3.56929 0.183431 0
M  V30 2567 C 237.413 -4.21762 1.56036 0
M  V30 2568 C 236.183 -4.56881 2.15842 0
M  V30 2569 C 238.381 -4.49267 2.50327 0
M  V30 2570 N 236.363 -5.069 3.46303 0
M  V30 2571 C 237.734 -5.00851 3.65443 0
M  V30 2572 C 239.789 -4.31257 2.48841 0
M  V30 2573 C 238.492 -5.36317 4.79329 0
M  V30 2574 C 240.518 -4.678 3.61824 0
M  V30 2575 C 239.88 -5.19537 4.75668 0
M  V30 2576 H 235.979 -0.772583 0.120993 0
M  V30 2577 H 238.563 -1.73203 0.889306 0
M  V30 2578 H 236.734 -3.85576 -0.467483 0
M  V30 2579 H 238.466 -4.03603 -0.297808 0
M  V30 2580 H 235.221 -4.4268 1.68319 0
M  V30 2581 H 235.645 -5.36338 4.13123 0
M  V30 2582 H 240.287 -3.90511 1.62051 0
M  V30 2583 H 238.005 -5.75995 5.66794 0
M  V30 2584 H 241.591 -4.55541 3.61903 0
M  V30 2585 H 240.471 -5.47287 5.61646 0
M  V30 2586 N 237.974 -0.419461 -1.51915 0
M  V30 2587 C 239.39 -0.0708431 -1.59443 0
M  V30 2588 C 239.59 1.41796 -1.43164 0
M  V30 2589 O 238.646 2.18596 -1.26381 0
M  V30 2590 C 239.959 -0.574991 -2.95151 0
M  V30 2591 C 241.507 -0.533867 -3.08413 0
M  V30 2592 C 241.982 -1.01469 -4.46618 0
M  V30 2593 N 243.473 -0.971939 -4.52888 0
M  V30 2594 C 244.208 -1.31505 -5.58116 0
M  V30 2595 N 243.704 -1.73014 -6.70849 0
M  V30 2596 N 245.497 -1.23436 -5.48379 0
M  V30 2597 H 237.648 -1.38836 -1.60743 0
M  V30 2598 H 239.911 -0.570998 -0.756747 0
M  V30 2599 H 239.617 -1.61597 -3.12377 0
M  V30 2600 H 239.491 0.00979777 -3.77199 0
M  V30 2601 H 241.878 0.498086 -2.90866 0
M  V30 2602 H 241.959 -1.15484 -2.28248 0
M  V30 2603 H 241.603 -2.04502 -4.6491 0
M  V30 2604 H 241.533 -0.370433 -5.25295 0
M  V30 2605 H 244.024 -0.666893 -3.71969 0
M  V30 2606 H 244.337 -1.97479 -7.47143 0
M  V30 2607 H 242.682 -1.76926 -6.72103 0
M  V30 2608 H 245.873 -0.908869 -4.59192 0
M  V30 2609 H 246.046 -1.50506 -6.30279 0
M  V30 2610 N 239.452 1.56882 -0.150215 0
M  V30 2611 C 240.402 2.13501 0.800071 0
M  V30 2612 C 241.386 1.06368 1.20726 0
M  V30 2613 O 242.578 1.32538 1.17314 0
M  V30 2614 C 239.707 2.76271 2.03787 0
M  V30 2615 C 238.793 3.90533 1.65364 0
M  V30 2616 N 239.184 4.96259 0.977794 0
M  V30 2617 C 237.482 4.013 1.94613 0
M  V30 2618 C 238.183 5.76286 0.791794 0
M  V30 2619 N 237.159 5.27163 1.32666 0
M  V30 2620 H 240.961 2.92615 0.274517 0
M  V30 2621 H 238.475 1.62319 0.0512144 0
M  V30 2622 H 240.472 3.15197 2.72867 0
M  V30 2623 H 239.132 1.98631 2.56857 0
M  V30 2624 H 240.143 5.13953 0.638193 0
M  V30 2625 H 236.82 3.3474 2.4951 0
M  V30 2626 H 238.21 6.71401 0.258894 0
M  V30 2627 N 240.93 -0.123565 1.57115 0
M  V30 2628 C 241.862 -1.17739 1.96648 0
M  V30 2629 C 242.875 -1.37906 0.865201 0
M  V30 2630 O 244.064 -1.37062 1.14351 0
M  V30 2631 C 241.164 -2.53821 2.24562 0
M  V30 2632 C 240.337 -2.54317 3.55867 0
M  V30 2633 C 239.396 -3.72112 3.72047 0
M  V30 2634 O 238.422 -3.55907 4.44206 0
M  V30 2635 N 239.624 -4.90498 3.10471 0
M  V30 2636 H 242.389 -0.841147 2.87654 0
M  V30 2637 H 239.95 -0.31289 1.58848 0
M  V30 2638 H 241.942 -3.31175 2.32606 0
M  V30 2639 H 240.512 -2.79645 1.39705 0
M  V30 2640 H 239.732 -1.62711 3.59053 0
M  V30 2641 H 241.02 -2.51701 4.42181 0
M  V30 2642 H 240.418 -5.06567 2.51806 0
M  V30 2643 H 238.975 -5.65544 3.24043 0
M  V30 2644 N 242.408 -1.52605 -0.393616 0
M  V30 2645 C 243.656 -1.67093 -1.13685 0
M  V30 2646 C 243.977 -0.411011 -1.90619 0
M  V30 2647 O 243.247 0.574491 -1.87287 0
M  V30 2648 H 241.827 -0.615923 -0.422668 0
M  V30 2649 H 244.489 -1.89704 -0.447039 0
M  V30 2650 H 243.585 -2.51922 -1.84232 0
M  V30 2651 N 243.887 0.651787 -1.4349 0
M  V30 2652 C 245.115 1.43937 -1.48626 0
M  V30 2653 C 245.53 1.8851 -0.104587 0
M  V30 2654 O 244.887 1.5958 0.885464 0
M  V30 2655 C 244.938 2.6734 -2.43334 0
M  V30 2656 O 244.659 2.24631 -3.76128 0
M  V30 2657 C 246.16 3.60683 -2.57726 0
M  V30 2658 H 243.38 0.44213 -0.504739 0
M  V30 2659 H 245.924 0.798944 -1.88248 0
M  V30 2660 H 244.079 3.2752 -2.06904 0
M  V30 2661 H 244.493 3.04485 -4.2707 0
M  V30 2662 H 245.967 4.43933 -3.28067 0
M  V30 2663 H 246.444 4.08126 -1.62265 0
M  V30 2664 H 247.05 3.06384 -2.94973 0
M  V30 2665 N 245.365 1.30045 0.890287 0
M  V30 2666 C 246.59 1.21598 1.68014 0
M  V30 2667 C 247.015 -0.218678 1.86825 0
M  V30 2668 O 246.373 -1.15756 1.39536 0
M  V30 2669 C 246.421 1.94434 3.03691 0
M  V30 2670 O 245.525 1.2678 3.92429 0
M  V30 2671 H 244.866 0.420856 0.513592 0
M  V30 2672 H 247.396 1.71775 1.11151 0
M  V30 2673 H 247.406 2.03251 3.5377 0
M  V30 2674 H 246.081 2.98777 2.89318 0
M  V30 2675 H 244.658 1.26282 3.50866 0
M  V30 2676 N 246.843 -1.10192 1.12674 0
M  V30 2677 C 248.259 -1.34235 0.863317 0
M  V30 2678 C 248.459 -1.95062 -0.505277 0
M  V30 2679 O 247.515 -2.19192 -1.25345 0
M  V30 2680 C 248.828 -2.2616 1.98172 0
M  V30 2681 C 250.376 -2.3969 2.0129 0
M  V30 2682 C 250.851 -3.34946 3.1237 0
M  V30 2683 N 252.342 -3.42515 3.11829 0
M  V30 2684 C 253.077 -4.16199 3.94419 0
M  V30 2685 N 252.573 -4.92747 4.87004 0
M  V30 2686 N 254.366 -4.11843 3.82547 0
M  V30 2687 H 246.517 -0.690798 2.00853 0
M  V30 2688 H 248.78 -0.366774 0.874174 0
M  V30 2689 H 248.486 -1.8868 2.96804 0
M  V30 2690 H 248.36 -3.26488 1.88906 0
M  V30 2691 H 250.747 -2.76438 1.03276 0
M  V30 2692 H 250.828 -1.39169 2.14629 0
M  V30 2693 H 250.472 -2.98923 4.10619 0
M  V30 2694 H 250.402 -4.35353 2.96269 0
M  V30 2695 H 252.893 -2.87926 2.44759 0
M  V30 2696 H 253.206 -5.46376 5.46528 0
M  V30 2697 H 251.551 -4.91862 4.91016 0
M  V30 2698 H 254.742 -3.51136 3.0955 0
M  V30 2699 H 254.915 -4.69007 4.47142 0
M  V30 2700 N 248.321 -0.919034 -1.28029 0
M  V30 2701 C 249.598 -0.473668 -1.89778 0
M  V30 2702 C 249.978 1.04783 -1.83259 0
M  V30 2703 O 249.326 1.8982 -1.27202 0
M  V30 2704 C 249.536 -1.00998 -3.34066 0
M  V30 2705 C 250.884 -1.06525 -4.1102 0
M  V30 2706 O 251.908 -0.958996 -3.43048 0
M  V30 2707 O 250.767 -1.22776 -5.3253 0
M  V30 2708 H 247.861 -0.15098 -0.813101 0
M  V30 2709 H 250.407 -1.01016 -1.36359 0
M  V30 2710 H 249.179 -2.05392 -3.33061 0
M  V30 2711 H 248.802 -0.454626 -3.94992 0
M  V30 2712 N 249.799 1.42003 -0.683588 0
M  V30 2713 C 251.076 1.95112 -0.138075 0
M  V30 2714 C 251.456 1.62359 1.34918 0
M  V30 2715 O 250.804 0.924311 2.08971 0
M  V30 2716 C 251.014 3.46505 -0.416581 0
M  V30 2717 C 252.362 4.23254 -0.337834 0
M  V30 2718 O 253.386 3.54468 -0.35082 0
M  V30 2719 O 252.245 5.45743 -0.287596 0
M  V30 2720 H 249.339 0.826961 -0.00797996 0
M  V30 2721 H 251.885 1.51784 -0.758924 0
M  V30 2722 H 250.657 3.63582 -1.4465 0
M  V30 2723 H 250.28 3.969 0.235839 0
M  V30 2724 N 251.277 0.427512 1.51691 0
M  V30 2725 C 252.187 -0.39527 2.31246 0
M  V30 2726 C 253.203 -1.03674 1.39742 0
M  V30 2727 O 254.379 -1.03425 1.72816 0
M  V30 2728 C 251.444 -1.48706 3.13189 0
M  V30 2729 C 250.505 -0.866743 4.20459 0
M  V30 2730 C 249.738 -1.90651 4.98486 0
M  V30 2731 O 249.961 -3.12733 4.77026 0
M  V30 2732 O 248.895 -1.5025 5.82845 0
M  V30 2733 H 252.721 0.253918 3.02637 0
M  V30 2734 H 250.306 0.190274 1.48183 0
M  V30 2735 H 252.188 -2.12047 3.64162 0
M  V30 2736 H 250.863 -2.12051 2.44573 0
M  V30 2737 H 249.77 -0.195544 3.73589 0
M  V30 2738 H 251.103 -0.276934 4.9142 0
M  V30 2739 N 252.755 -1.56801 0.158532 0
M  V30 2740 C 253.995 -1.98383 -0.49229 0
M  V30 2741 C 254.359 -1.04184 -1.61275 0
M  V30 2742 O 255.56 -1.34856 -2.32524 0
M  V30 2743 C 253.831 -3.4385 -0.974766 0
M  V30 2744 S 255.39 -4.07459 -1.62857 0
M  V30 2745 H 252.208 -0.693041 -0.158794 0
M  V30 2746 H 254.81 -1.93856 0.252974 0
M  V30 2747 H 253.514 -4.10131 -0.148688 0
M  V30 2748 H 253.045 -3.52115 -1.75438 0
M  V30 2749 H 255.06 -4.01458 -2.91627 0
M  V30 2750 N 254.233 0.115231 -1.57178 0
M  V30 2751 C 255.482 0.820945 -1.84237 0
M  V30 2752 C 255.795 1.80866 -0.744761 0
M  V30 2753 O 257.001 2.56083 -0.901871 0
M  V30 2754 C 255.457 1.51072 -3.26658 0
M  V30 2755 C 255.065 0.563795 -4.44438 0
M  V30 2756 C 256.809 2.20134 -3.62962 0
M  V30 2757 C 254.716 1.25701 -5.77887 0
M  V30 2758 H 253.646 0.310328 -0.687177 0
M  V30 2759 H 256.297 0.0737134 -1.83352 0
M  V30 2760 H 254.679 2.30471 -3.22024 0
M  V30 2761 H 255.853 -0.197247 -4.60378 0
M  V30 2762 H 254.168 -0.0200638 -4.16395 0
M  V30 2763 H 256.765 2.72696 -4.59936 0
M  V30 2764 H 257.108 2.98107 -2.90582 0
M  V30 2765 H 257.641 1.47619 -3.69396 0
M  V30 2766 H 254.38 0.518493 -6.53446 0
M  V30 2767 H 253.9 1.98997 -5.65827 0
M  V30 2768 H 255.579 1.78915 -6.2177 0
M  V30 2769 N 255.711 1.52812 0.385517 0
M  V30 2770 C 256.96 1.67249 1.12741 0
M  V30 2771 C 257.273 0.4205 1.91027 0
M  V30 2772 O 258.479 0.445064 2.67827 0
M  V30 2773 C 256.935 2.95583 2.05326 0
M  V30 2774 C 256.543 4.27974 1.32447 0
M  V30 2775 C 258.287 3.19386 2.7963 0
M  V30 2776 C 256.194 5.47412 2.23818 0
M  V30 2777 H 255.124 0.6231 0.424573 0
M  V30 2778 H 257.775 1.79309 0.389924 0
M  V30 2779 H 256.157 2.77277 2.82725 0
M  V30 2780 H 257.331 4.56844 0.602495 0
M  V30 2781 H 255.646 4.10459 0.700885 0
M  V30 2782 H 258.243 4.05801 3.48181 0
M  V30 2783 H 258.586 2.34604 3.43899 0
M  V30 2784 H 259.119 3.38274 2.09322 0
M  V30 2785 H 255.858 6.34612 1.64157 0
M  V30 2786 H 255.378 5.22849 2.93921 0
M  V30 2787 H 257.057 5.81423 2.83824 0
M  V30 2788 N 257.189 -0.644168 1.43834 0
M  V30 2789 C 258.136 -1.75671 1.49694 0
M  V30 2790 C 259.106 -1.6246 0.345809 0
M  V30 2791 O 260.291 -1.82573 0.554234 0
M  V30 2792 C 257.431 -3.13867 1.43463 0
M  V30 2793 C 256.544 -3.38147 2.6885 0
M  V30 2794 C 255.679 -4.66241 2.54544 0
M  V30 2795 C 254.718 -4.83657 3.75157 0
M  V30 2796 N 253.855 -6.03016 3.59605 0
M  V30 2797 H 258.695 -1.69998 2.44754 0
M  V30 2798 H 256.232 -0.829458 1.21484 0
M  V30 2799 H 258.19 -3.9377 1.37843 0
M  V30 2800 H 256.82 -3.18588 0.519783 0
M  V30 2801 H 255.872 -2.52276 2.84712 0
M  V30 2802 H 257.184 -3.46899 3.58417 0
M  V30 2803 H 256.338 -5.54285 2.46683 0
M  V30 2804 H 255.077 -4.59826 1.62516 0
M  V30 2805 H 254.082 -3.94046 3.83416 0
M  V30 2806 H 255.307 -4.91896 4.68204 0
M  V30 2807 H 253.253 -5.97715 2.7032 0
M  V30 2808 H 253.17 -6.12766 4.42779 0
M  V30 2809 H 254.438 -6.93657 3.55613 0
M  V30 2810 N 258.668 -1.30515 -0.883378 0
M  V30 2811 C 259.618 -1.13641 -1.9766 0
M  V30 2812 C 260.602 -0.0511314 -1.60819 0
M  V30 2813 O 261.794 -0.274623 -1.74857 0
M  V30 2814 C 258.923 -0.831976 -3.33066 0
M  V30 2815 C 258.009 -1.95759 -3.76217 0
M  V30 2816 N 258.4 -3.20313 -3.9145 0
M  V30 2817 C 256.698 -1.85431 -4.05625 0
M  V30 2818 C 257.399 -3.93856 -4.2808 0
M  V30 2819 N 256.375 -3.21919 -4.38029 0
M  V30 2820 H 260.177 -2.08106 -2.07531 0
M  V30 2821 H 257.691 -1.21877 -1.0733 0
M  V30 2822 H 259.688 -0.692102 -4.11115 0
M  V30 2823 H 258.348 0.104588 -3.24532 0
M  V30 2824 H 259.359 -3.55583 -3.76538 0
M  V30 2825 H 256.036 -0.991531 -4.05555 0
M  V30 2826 H 257.426 -5.01125 -4.47575 0
M  V30 2827 N 260.146 1.09593 -1.13257 0
M  V30 2828 C 261.423 1.78293 -0.804432 0
M  V30 2829 C 261.803 1.99004 0.70431 0
M  V30 2830 O 261.151 1.59007 1.641 0
M  V30 2831 C 261.361 3.10707 -1.5894 0
M  V30 2832 C 262.709 3.85443 -1.78099 0
M  V30 2833 O 263.733 3.20454 -1.55525 0
M  V30 2834 O 262.592 5.02108 -2.15753 0
M  V30 2835 H 259.686 0.773156 -0.293528 0
M  V30 2836 H 262.232 1.16164 -1.23709 0
M  V30 2837 H 261.004 2.91106 -2.61482 0
M  V30 2838 H 260.627 3.80558 -1.15157 0
M  V30 2839 N 261.624 0.925811 1.2754 0
M  V30 2840 C 262.574 0.394488 2.24561 0
M  V30 2841 C 263.558 -0.500183 1.52928 0
M  V30 2842 O 264.75 -0.337936 1.73744 0
M  V30 2843 C 261.879 -0.353328 3.41477 0
M  V30 2844 C 260.965 0.557752 4.20416 0
M  V30 2845 N 261.356 1.67674 4.77199 0
M  V30 2846 C 259.654 0.360404 4.44541 0
M  V30 2847 C 260.355 2.24324 5.36706 0
M  V30 2848 N 259.331 1.53305 5.21535 0
M  V30 2849 H 263.133 1.2489 2.66045 0
M  V30 2850 H 260.647 0.779864 1.4245 0
M  V30 2851 H 262.644 -0.7509 4.10082 0
M  V30 2852 H 261.304 -1.20469 3.01525 0
M  V30 2853 H 262.315 2.05915 4.75204 0
M  V30 2854 H 258.992 -0.450454 4.15063 0
M  V30 2855 H 260.382 3.18521 5.91603 0
M  V30 2856 N 263.102 -1.41638 0.69111 0
M  V30 2857 C 264.351 -2.00526 0.217318 0
M  V30 2858 C 264.664 -1.55353 -1.18848 0
M  V30 2859 O 265.87 -2.06769 -1.75951 0
M  V30 2860 C 264.326 -3.58313 0.337639 0
M  V30 2861 C 263.934 -4.12469 1.74852 0
M  V30 2862 C 265.678 -4.24431 -0.0766066 0
M  V30 2863 C 263.585 -5.62675 1.82074 0
M  V30 2864 H 262.515 -0.750008 0.0774893 0
M  V30 2865 H 265.166 -1.6217 0.858661 0
M  V30 2866 H 263.548 -3.9425 -0.371879 0
M  V30 2867 H 264.722 -3.8796 2.48644 0
M  V30 2868 H 263.037 -3.58861 2.11205 0
M  V30 2869 H 265.634 -5.34683 -0.0430284 0
M  V30 2870 H 265.977 -4.01101 -1.1146 0
M  V30 2871 H 266.51 -3.93512 0.582476 0
M  V30 2872 H 263.249 -5.90826 2.83911 0
M  V30 2873 H 262.769 -5.89124 1.12661 0
M  V30 2874 H 264.448 -6.27371 1.58159 0
M  V30 2875 N 264.58 -0.43555 -1.51462 0
M  V30 2876 C 265.826 0.131709 -2.02372 0
M  V30 2877 C 266.159 1.42516 -1.3192 0
M  V30 2878 O 265.434 1.89606 -0.433573 0
M  V30 2879 C 265.717 0.352301 -3.58373 0
M  V30 2880 C 265.57 -0.959676 -4.39443 0
M  V30 2881 C 266.889 1.12286 -4.25535 0
M  V30 2882 H 264.008 0.0463936 -0.735538 0
M  V30 2883 H 266.65 -0.574197 -1.81116 0
M  V30 2884 H 264.8 0.9536 -3.76615 0
M  V30 2885 H 266.472 -1.59482 -4.32855 0
M  V30 2886 H 264.715 -1.56468 -4.04599 0
M  V30 2887 H 265.386 -0.759394 -5.46752 0
M  V30 2888 H 267.862 0.613545 -4.11552 0
M  V30 2889 H 266.738 1.24598 -5.34571 0
M  V30 2890 H 266.999 2.15048 -3.86273 0
M  V30 2891 N 266.058 1.56714 -0.166846 0
M  V30 2892 C 267.283 2.01557 0.488833 0
M  V30 2893 C 267.708 1.0463 1.56314 0
M  V30 2894 O 267.066 0.0251304 1.81283 0
M  V30 2895 C 267.114 3.4503 1.04818 0
M  V30 2896 O 266.218 3.51163 2.16236 0
M  V30 2897 H 265.559 0.653516 0.117526 0
M  V30 2898 H 268.089 2.02818 -0.269421 0
M  V30 2899 H 268.099 3.84243 1.37191 0
M  V30 2900 H 266.774 4.15077 0.261572 0
M  V30 2901 H 265.351 3.23807 1.84942 0
M  V30 2902 N 267.536 -0.106894 1.57237 0
M  V30 2903 C 268.764 -0.826389 1.8968 0
M  V30 2904 C 269.179 -1.72856 0.759353 0
M  V30 2905 O 268.536 -1.80503 -0.269263 0
M  V30 2906 C 268.587 -1.64967 3.21665 0
M  V30 2907 O 268.308 -0.783804 4.31031 0
M  V30 2908 C 269.809 -2.47326 3.67892 0
M  V30 2909 H 267.029 -0.236927 0.627779 0
M  V30 2910 H 269.573 -0.0876593 2.04312 0
M  V30 2911 H 267.728 -2.34103 3.08666 0
M  V30 2912 H 268.142 -1.35284 5.06753 0
M  V30 2913 H 269.616 -3.00604 4.6297 0
M  V30 2914 H 270.093 -3.25247 2.95146 0
M  V30 2915 H 270.699 -1.83411 3.83719 0
M  V30 2916 N 269.014 -1.53014 -0.377408 0
M  V30 2917 C 270.263 -1.67845 -1.11853 0
M  V30 2918 C 270.576 -0.430625 -1.90801 0
M  V30 2919 O 271.782 -0.459261 -2.67587 0
M  V30 2920 C 270.238 -2.96668 -2.03756 0
M  V30 2921 C 269.846 -4.28671 -1.30175 0
M  V30 2922 C 271.59 -3.20865 -2.77932 0
M  V30 2923 C 269.497 -5.48591 -2.20911 0
M  V30 2924 H 268.427 -0.625343 -0.421263 0
M  V30 2925 H 271.078 -1.79514 -0.380409 0
M  V30 2926 H 269.46 -2.78773 -2.8125 0
M  V30 2927 H 270.634 -4.57157 -0.578259 0
M  V30 2928 H 268.949 -4.10825 -0.679108 0
M  V30 2929 H 271.546 -4.07642 -3.46024 0
M  V30 2930 H 271.889 -2.36424 -3.4265 0
M  V30 2931 H 272.422 -3.39379 -2.07525 0
M  V30 2932 H 269.161 -6.35474 -1.6079 0
M  V30 2933 H 268.681 -5.244 -2.91144 0
M  V30 2934 H 270.36 -5.8292 -2.80736 0
M  V30 2935 N 270.492 0.636531 -1.44174 0
M  V30 2936 C 271.722 1.42146 -1.49927 0
M  V30 2937 C 272.13 1.88812 -0.121063 0
M  V30 2938 O 271.473 1.61126 0.882267 0
M  V30 2939 C 271.535 2.67883 -2.39748 0
M  V30 2940 C 271.199 2.43048 -3.8701 0
M  V30 2941 C 272.196 2.05216 -4.77684 0
M  V30 2942 C 269.881 2.56856 -4.3166 0
M  V30 2943 C 271.875 1.81512 -6.11009 0
M  V30 2944 C 269.562 2.32766 -5.65034 0
M  V30 2945 C 270.56 1.95152 -6.54526 0
M  V30 2946 O 270.248 1.71326 -7.85431 0
M  V30 2947 H 269.98 0.442567 -0.51099 0
M  V30 2948 H 272.534 0.786158 -1.8976 0
M  V30 2949 H 270.764 3.34032 -1.94832 0
M  V30 2950 H 272.453 3.29874 -2.36513 0
M  V30 2951 H 273.219 1.94111 -4.44462 0
M  V30 2952 H 269.098 2.85104 -3.62266 0
M  V30 2953 H 272.642 1.52077 -6.80822 0
M  V30 2954 H 268.539 2.43479 -5.97819 0
M  V30 2955 H 269.307 1.85616 -7.97176 0
M  V30 2956 N 271.97 1.30982 0.876444 0
M  V30 2957 C 273.195 1.23373 1.66715 0
M  V30 2958 C 273.62 -0.19885 1.87046 0
M  V30 2959 O 272.978 -1.1427 1.40756 0
M  V30 2960 C 273.026 1.97644 3.01611 0
M  V30 2961 O 272.13 1.30935 3.91062 0
M  V30 2962 H 271.471 0.426279 0.509099 0
M  V30 2963 H 274.001 1.72944 1.09323 0
M  V30 2964 H 274.011 2.06992 3.51594 0
M  V30 2965 H 272.686 3.01829 2.86133 0
M  V30 2966 H 271.263 1.29996 3.49507 0
M  V30 2967 N 273.449 -1.08991 1.13837 0
M  V30 2968 C 274.677 -1.85011 0.926202 0
M  V30 2969 C 275.092 -1.8135 -0.525127 0
M  V30 2970 O 274.449 -1.21287 -1.36366 0
M  V30 2971 C 274.5 -3.32802 1.41155 0
M  V30 2972 O 274.221 -3.36444 2.80601 0
M  V30 2973 C 275.722 -4.25649 1.23847 0
M  V30 2974 H 272.942 -0.584249 0.32999 0
M  V30 2975 H 275.486 -1.37688 1.51202 0
M  V30 2976 H 273.641 -3.77536 0.868631 0
M  V30 2977 H 274.055 -4.28657 3.02248 0
M  V30 2978 H 275.529 -5.27485 1.62675 0
M  V30 2979 H 276.006 -4.38828 0.18065 0
M  V30 2980 H 276.612 -3.86735 1.76964 0
M  V30 2981 N 274.927 -0.932562 -1.27047 0
M  V30 2982 C 276.174 -0.575559 -1.94148 0
M  V30 2983 C 276.502 0.883984 -1.73251 0
M  V30 2984 O 275.757 1.64655 -1.0577 0
M  V30 2985 C 276.056 -0.853713 -3.47054 0
M  V30 2986 C 275.722 -2.29577 -3.88079 0
M  V30 2987 C 274.384 -2.68999 -3.9899 0
M  V30 2988 C 276.736 -3.23331 -4.08787 0
M  V30 2989 C 274.064 -4.01289 -4.28 0
M  V30 2990 C 276.416 -4.55207 -4.39282 0
M  V30 2991 C 275.08 -4.94457 -4.48407 0
M  V30 2992 H 274.35 -0.210612 -0.710439 0
M  V30 2993 H 276.997 -1.17744 -1.51025 0
M  V30 2994 H 275.302 -0.169204 -3.91434 0
M  V30 2995 H 276.999 -0.55639 -3.97121 0
M  V30 2996 H 273.589 -1.97994 -3.80127 0
M  V30 2997 H 277.773 -2.94074 -3.99793 0
M  V30 2998 H 273.029 -4.31374 -4.33275 0
M  V30 2999 H 277.203 -5.27852 -4.54252 0
M  V30 3000 H 274.83 -5.96994 -4.7064 0
M  V30 3001 N 276.405 1.4127 -0.698611 0
M  V30 3002 C 277.653 2.00782 -0.230409 0
M  V30 3003 C 277.974 1.5562 1.17505 0
M  V30 3004 O 277.244 0.78815 1.79346 0
M  V30 3005 H 275.824 0.742464 -0.0821944 0
M  V30 3006 H 278.486 1.72852 -0.90045 0
M  V30 3007 H 277.582 3.11095 -0.25021 0
M  V30 3008 N 277.883 0.443576 1.51229 0
M  V30 3009 C 278.846 -0.353132 2.26463 0
M  V30 3010 C 279.846 -0.944338 1.3015 0
M  V30 3011 O 281.036 -0.817813 1.5381 0
M  V30 3012 C 278.168 -1.50023 3.06114 0
M  V30 3013 H 279.361 0.3063 2.98332 0
M  V30 3014 H 276.914 0.196902 1.55055 0
M  V30 3015 H 277.649 -2.19553 2.38677 0
M  V30 3016 H 277.434 -1.08241 3.76864 0
M  V30 3017 H 278.924 -2.06296 3.63087 0
M  V30 3018 N 279.361 -1.56624 0.175154 0
M  V30 3019 C 280.608 -1.96999 -0.468811 0
M  V30 3020 C 280.936 -1.06129 -1.62994 0
M  V30 3021 O 280.191 -0.0961771 -1.95464 0
M  V30 3022 C 280.49 -3.43419 -0.989864 0
M  V30 3023 C 280.156 -4.50866 0.0557687 0
M  V30 3024 C 278.818 -4.79975 0.343134 0
M  V30 3025 C 281.17 -5.15551 0.765308 0
M  V30 3026 C 278.498 -5.71066 1.34536 0
M  V30 3027 C 280.85 -6.07724 1.75654 0
M  V30 3028 C 279.514 -6.35199 2.05132 0
M  V30 3029 H 278.784 -0.720869 -0.17155 0
M  V30 3030 H 281.431 -1.89616 0.267924 0
M  V30 3031 H 279.736 -3.47772 -1.80449 0
M  V30 3032 H 281.433 -3.72002 -1.49719 0
M  V30 3033 H 278.023 -4.28229 -0.178381 0
M  V30 3034 H 282.207 -4.9317 0.556513 0
M  V30 3035 H 277.463 -5.90635 1.57988 0
M  V30 3036 H 281.637 -6.56912 2.31169 0
M  V30 3037 H 279.264 -7.05584 2.8294 0
M  V30 3038 N 280.839 0.0985539 -1.57292 0
M  V30 3039 C 282.069 0.815135 -1.8984 0
M  V30 3040 C 282.477 1.7297 -0.766679 0
M  V30 3041 O 281.82 1.81698 0.270483 0
M  V30 3042 C 281.882 1.6842 -3.17608 0
M  V30 3043 C 281.546 0.94182 -4.4719 0
M  V30 3044 C 282.543 0.273212 -5.19182 0
M  V30 3045 C 280.228 0.916927 -4.9386 0
M  V30 3046 C 282.222 -0.410361 -6.36078 0
M  V30 3047 C 279.909 0.229567 -6.10669 0
M  V30 3048 C 280.907 -0.432902 -6.81627 0
M  V30 3049 O 280.595 -1.10925 -7.9621 0
M  V30 3050 H 280.327 0.238501 -0.632529 0
M  V30 3051 H 282.881 0.0812659 -2.05239 0
M  V30 3052 H 281.111 2.46022 -2.98345 0
M  V30 3053 H 282.8 2.27704 -3.36015 0
M  V30 3054 H 283.566 0.283927 -4.84168 0
M  V30 3055 H 279.445 1.42201 -4.3852 0
M  V30 3056 H 282.989 -0.928013 -6.914 0
M  V30 3057 H 278.886 0.216686 -6.45136 0
M  V30 3058 H 279.654 -1.01579 -8.12172 0
M  V30 3059 N 282.317 1.53212 0.369288 0
M  V30 3060 C 283.566 1.68436 1.10961 0
M  V30 3061 C 283.879 0.440738 1.9057 0
M  V30 3062 O 285.085 0.473446 2.6734 0
M  V30 3063 C 283.541 2.97744 2.0218 0
M  V30 3064 C 283.149 4.29355 1.279 0
M  V30 3065 C 284.893 3.22334 2.76226 0
M  V30 3066 C 282.8 5.49755 2.17999 0
M  V30 3067 H 281.73 0.627568 0.41794 0
M  V30 3068 H 284.381 1.79713 0.370884 0
M  V30 3069 H 282.763 2.8026 2.79768 0
M  V30 3070 H 283.937 4.57458 0.554007 0
M  V30 3071 H 282.252 4.11179 0.657311 0
M  V30 3072 H 284.849 4.09471 3.43857 0
M  V30 3073 H 285.192 2.38238 3.41392 0
M  V30 3074 H 285.725 3.40475 2.05723 0
M  V30 3075 H 282.464 6.36318 1.57417 0
M  V30 3076 H 281.984 5.25937 2.88359 0
M  V30 3077 H 283.663 5.84401 2.77641 0
M  V30 3078 N 283.795 -0.628877 1.44509 0
M  V30 3079 C 285.206 -1.21054 1.42137 0
M  V30 3080 C 285.557 -1.95715 0.137881 0
M  V30 3081 O 284.682 -2.02554 -0.761645 0
M  V30 3082 C 285.277 -2.20189 2.57493 0
M  V30 3083 C 283.836 -2.73777 2.58308 0
M  V30 3084 C 282.983 -1.48813 2.33987 0
M  V30 3085 H 285.934 -0.41942 1.53057 0
M  V30 3086 H 285.955 -3.02833 2.30375 0
M  V30 3087 H 285.467 -1.6582 3.50892 0
M  V30 3088 H 283.568 -3.32142 1.68856 0
M  V30 3089 H 283.681 -3.19662 3.56865 0
M  V30 3090 H 282.045 -1.77024 1.83124 0
M  V30 3091 H 282.828 -0.963442 3.29504 0
M  V30 3092 N 285.273 -1.31445 -0.869486 0
M  V30 3093 C 286.203 -1.21727 -1.99261 0
M  V30 3094 C 287.184 -0.104359 -1.6978 0
M  V30 3095 O 288.369 -0.289038 -1.92037 0
M  V30 3096 C 285.499 -0.924317 -3.34774 0
M  V30 3097 C 284.453 -1.99685 -3.78563 0
M  V30 3098 C 283.779 -1.55658 -5.11541 0
M  V30 3099 C 285.079 -3.41003 -3.95619 0
M  V30 3100 H 286.773 -2.1569 -2.07649 0
M  V30 3101 H 284.319 -1.03839 -0.997675 0
M  V30 3102 H 286.272 -0.842934 -4.12883 0
M  V30 3103 H 284.996 0.0509793 -3.2656 0
M  V30 3104 H 283.655 -2.06813 -3.02694 0
M  V30 3105 H 283.303 -0.569132 -4.9977 0
M  V30 3106 H 283.003 -2.27409 -5.41811 0
M  V30 3107 H 284.527 -1.48928 -5.92159 0
M  V30 3108 H 285.941 -3.36547 -4.64122 0
M  V30 3109 H 284.338 -4.10975 -4.37286 0
M  V30 3110 H 285.408 -3.81754 -2.98985 0
M  V30 3111 N 286.751 1.08385 -1.14413 0
M  V30 3112 C 287.714 2.13486 -0.834048 0
M  V30 3113 C 288.714 1.59988 0.161418 0
M  V30 3114 O 289.904 1.74071 -0.0669575 0
M  V30 3115 C 287.036 3.4003 -0.243354 0
M  V30 3116 H 288.229 2.42425 -1.7655 0
M  V30 3117 H 285.782 1.24101 -0.950189 0
M  V30 3118 H 286.517 3.16726 0.696807 0
M  V30 3119 H 286.302 3.80157 -0.960367 0
M  V30 3120 H 287.792 4.17577 -0.0436242 0
M  V30 3121 N 288.23 0.939286 1.26551 0
M  V30 3122 C 289.16 0.465044 2.28822 0
M  V30 3123 C 290.141 -0.480692 1.63167 0
M  V30 3124 O 291.326 -0.382955 1.90387 0
M  V30 3125 C 288.456 -0.27234 3.46231 0
M  V30 3126 C 287.41 0.58666 4.2396 0
M  V30 3127 C 286.736 -0.280573 5.33963 0
M  V30 3128 C 288.036 1.85704 4.88171 0
M  V30 3129 H 289.73 1.31979 2.68741 0
M  V30 3130 H 287.276 0.636061 1.29191 0
M  V30 3131 H 289.229 -0.615133 4.16886 0
M  V30 3132 H 287.953 -1.16121 3.0526 0
M  V30 3133 H 286.612 0.91232 3.55067 0
M  V30 3134 H 286.26 -1.16874 4.89234 0
M  V30 3135 H 285.96 0.29076 5.8688 0
M  V30 3136 H 287.484 -0.618678 6.07458 0
M  V30 3137 H 288.898 1.58161 5.51052 0
M  V30 3138 H 287.295 2.37279 5.51197 0
M  V30 3139 H 288.365 2.56957 4.11219 0
M  V30 3140 N 289.708 -1.40897 0.706093 0
M  V30 3141 C 290.957 -2.00284 0.238574 0
M  V30 3142 C 291.27 -1.56604 -1.17194 0
M  V30 3143 O 292.476 -2.08624 -1.73748 0
M  V30 3144 C 290.932 -3.57934 0.375623 0
M  V30 3145 C 290.54 -4.10591 1.79217 0
M  V30 3146 C 292.284 -4.24488 -0.0315857 0
M  V30 3147 C 290.191 -5.60712 1.88032 0
M  V30 3148 H 289.121 -0.749144 0.0854398 0
M  V30 3149 H 291.772 -1.61251 0.875813 0
M  V30 3150 H 290.154 -3.94622 -0.330042 0
M  V30 3151 H 291.328 -3.85301 2.52745 0
M  V30 3152 H 289.643 -3.56601 2.15 0
M  V30 3153 H 292.24 -5.34698 0.0136842 0
M  V30 3154 H 292.583 -4.02261 -1.072 0
M  V30 3155 H 293.116 -3.92873 0.624181 0
M  V30 3156 H 289.855 -5.87781 2.90161 0
M  V30 3157 H 289.375 -5.87896 1.18903 0
M  V30 3158 H 291.054 -6.25658 1.64805 0
M  V30 3159 N 291.186 -0.45159 -1.50991 0
M  V30 3160 C 292.116 0.342898 -2.30969 0
M  V30 3161 C 293.097 1.00815 -1.37005 0
M  V30 3162 O 294.282 1.00907 -1.65926 0
M  V30 3163 C 291.412 1.43637 -3.16205 0
M  V30 3164 C 290.366 0.893818 -4.18563 0
M  V30 3165 C 289.692 2.08411 -4.92411 0
M  V30 3166 C 290.992 -0.0815568 -5.22236 0
M  V30 3167 H 292.686 -0.324556 -2.97636 0
M  V30 3168 H 290.232 -0.157531 -1.43136 0
M  V30 3169 H 292.185 1.9995 -3.70942 0
M  V30 3170 H 290.909 2.13232 -2.47386 0
M  V30 3171 H 289.568 0.352798 -3.64898 0
M  V30 3172 H 289.216 2.76658 -4.20082 0
M  V30 3173 H 288.916 1.72741 -5.61636 0
M  V30 3174 H 290.44 2.65251 -5.49976 0
M  V30 3175 H 291.854 0.391742 -5.7196 0
M  V30 3176 H 290.251 -0.351551 -5.99069 0
M  V30 3177 H 291.321 -1.01374 -4.74185 0
M  V30 3178 N 292.664 1.56529 -0.183458 0
M  V30 3179 C 293.913 1.96419 0.458511 0
M  V30 3180 C 294.226 1.0727 1.63562 0
M  V30 3181 O 295.432 1.36893 2.34462 0
M  V30 3182 C 293.888 3.49298 0.867122 0
M  V30 3183 C 293.496 4.47092 -0.285057 0
M  V30 3184 C 295.24 3.97983 1.47683 0
M  V30 3185 C 293.147 5.91225 0.143862 0
M  V30 3186 H 292.077 0.733394 0.175071 0
M  V30 3187 H 294.728 1.81448 -0.273624 0
M  V30 3188 H 293.11 3.59731 1.65559 0
M  V30 3189 H 294.284 4.48383 -1.0625 0
M  V30 3190 H 292.599 4.08535 -0.805503 0
M  V30 3191 H 295.196 5.03134 1.80999 0
M  V30 3192 H 295.539 3.41618 2.37914 0
M  V30 3193 H 296.072 3.90617 0.752562 0
M  V30 3194 H 292.811 6.5149 -0.723974 0
M  V30 3195 H 292.331 5.93214 0.886413 0
M  V30 3196 H 294.01 6.44362 0.583628 0
M  V30 3197 N 294.142 -0.090211 1.57342 0
M  V30 3198 C 295.072 -1.10976 2.05443 0
M  V30 3199 C 296.053 -1.41482 0.944284 0
M  V30 3200 O 297.238 -1.51428 1.21586 0
M  V30 3201 C 294.368 -2.42831 2.48295 0
M  V30 3202 C 293.322 -2.26721 3.63018 0
M  V30 3203 C 292.648 -3.63796 3.91863 0
M  V30 3204 C 293.948 -1.7037 4.93732 0
M  V30 3205 H 295.642 -0.709564 2.9087 0
M  V30 3206 H 293.188 -0.339874 1.39932 0
M  V30 3207 H 295.141 -3.14431 2.80555 0
M  V30 3208 H 293.865 -2.84795 1.59873 0
M  V30 3209 H 292.524 -1.57565 3.31012 0
M  V30 3210 H 292.172 -4.03297 3.00601 0
M  V30 3211 H 291.872 -3.53861 4.69101 0
M  V30 3212 H 293.396 -4.36855 4.26603 0
M  V30 3213 H 294.81 -2.31816 5.24342 0
M  V30 3214 H 293.207 -1.71181 5.75167 0
M  V30 3215 H 294.277 -0.663542 4.80339 0
M  V30 3216 N 295.62 -1.53406 -0.361157 0
M  V30 3217 C 296.85 -1.73465 -1.1222 0
M  V30 3218 C 297.258 -0.465486 -1.83384 0
M  V30 3219 O 296.601 0.571611 -1.7458 0
M  V30 3220 C 296.663 -2.84834 -2.19339 0
M  V30 3221 C 296.327 -4.25038 -1.67903 0
M  V30 3222 C 297.324 -5.07231 -1.14074 0
M  V30 3223 C 295.009 -4.71464 -1.73282 0
M  V30 3224 C 297.003 -6.33942 -0.663068 0
M  V30 3225 C 294.69 -5.98153 -1.25127 0
M  V30 3226 C 295.688 -6.79223 -0.717296 0
M  V30 3227 O 295.376 -8.03533 -0.242865 0
M  V30 3228 H 295.108 -0.583526 -0.341283 0
M  V30 3229 H 297.662 -2.00964 -0.424591 0
M  V30 3230 H 295.892 -2.5282 -2.92607 0
M  V30 3231 H 297.581 -2.9303 -2.80871 0
M  V30 3232 H 298.347 -4.72534 -1.09254 0
M  V30 3233 H 294.226 -4.08432 -2.13786 0
M  V30 3234 H 297.77 -6.97167 -0.245612 0
M  V30 3235 H 293.667 -6.32347 -1.29642 0
M  V30 3236 H 294.435 -8.177 -0.361786 0
M  V30 3237 N 297.098 0.621204 -1.44841 0
M  V30 3238 C 298.328 1.40548 -1.51426 0
M  V30 3239 C 298.736 1.88673 -0.141083 0
M  V30 3240 O 298.079 1.62053 0.865128 0
M  V30 3241 C 298.141 2.65325 -2.42576 0
M  V30 3242 C 297.805 2.3893 -3.89566 0
M  V30 3243 C 298.802 2.00138 -4.79834 0
M  V30 3244 C 296.487 2.52263 -4.3436 0
M  V30 3245 C 298.481 1.75021 -6.129 0
M  V30 3246 C 296.168 2.2676 -5.67471 0
M  V30 3247 C 297.166 1.88199 -6.56559 0
M  V30 3248 O 296.854 1.62986 -7.87204 0
M  V30 3249 H 296.586 0.437122 -0.515655 0
M  V30 3250 H 299.14 0.765987 -1.90583 0
M  V30 3251 H 297.37 3.31947 -1.98364 0
M  V30 3252 H 299.059 3.27347 -2.39998 0
M  V30 3253 H 299.825 1.89386 -4.46495 0
M  V30 3254 H 295.704 2.81246 -3.65269 0
M  V30 3255 H 299.248 1.44848 -6.82396 0
M  V30 3256 H 295.145 2.37125 -6.00368 0
M  V30 3257 H 295.913 1.7715 -7.991 0
M  V30 3258 N 298.576 1.31904 0.862503 0
M  V30 3259 C 299.523 1.20182 1.9704 0
M  V30 3260 C 300.493 0.0858247 1.65878 0
M  V30 3261 O 301.678 0.26 1.8902 0
M  V30 3262 C 298.818 0.922797 3.32533 0
M  V30 3263 C 297.931 2.12284 3.76244 0
M  V30 3264 C 297.066 1.77996 5.00491 0
M  V30 3265 C 296.105 2.94366 5.36671 0
M  V30 3266 N 295.242 2.60223 6.52095 0
M  V30 3267 H 300.082 2.14951 2.06398 0
M  V30 3268 H 297.619 1.06917 1.01031 0
M  V30 3269 H 299.577 0.741548 4.10557 0
M  V30 3270 H 298.207 0.0119227 3.22798 0
M  V30 3271 H 297.259 2.41461 2.9394 0
M  V30 3272 H 298.571 2.99357 3.98982 0
M  V30 3273 H 297.725 1.56377 5.862 0
M  V30 3274 H 296.464 0.881252 4.79672 0
M  V30 3275 H 295.469 3.16625 4.49476 0
M  V30 3276 H 296.694 3.84957 5.59451 0
M  V30 3277 H 294.64 1.72884 6.32809 0
M  V30 3278 H 294.557 3.40827 6.74814 0
M  V30 3279 H 295.825 2.42016 7.40978 0
M  V30 3280 N 300.054 -1.07777 1.14986 0
M  V30 3281 C 301.303 -1.79669 0.916617 0
M  V30 3282 C 301.616 -1.87474 -0.557917 0
M  V30 3283 O 302.822 -2.55845 -0.908617 0
M  V30 3284 C 301.278 -3.22848 1.59051 0
M  V30 3285 C 300.886 -3.23257 3.10176 0
M  V30 3286 C 302.63 -3.99379 1.43864 0
M  V30 3287 C 300.537 -4.61063 3.70372 0
M  V30 3288 H 299.467 -0.673349 0.33929 0
M  V30 3289 H 302.118 -1.21003 1.37951 0
M  V30 3290 H 300.5 -3.8168 1.0553 0
M  V30 3291 H 301.674 -2.74095 3.70417 0
M  V30 3292 H 299.989 -2.60222 3.25074 0
M  V30 3293 H 302.586 -5.0122 1.86232 0
M  V30 3294 H 302.929 -4.14511 0.385564 0
M  V30 3295 H 303.462 -3.47032 1.94457 0
M  V30 3296 H 300.201 -4.51135 4.7556 0
M  V30 3297 H 299.721 -5.1048 3.14913 0
M  V30 3298 H 301.4 -5.30034 3.71043 0
M  V30 3299 N 301.532 -0.945985 -1.26051 0
M  V30 3300 C 302.762 -0.612136 -1.97323 0
M  V30 3301 C 303.17 0.818171 -1.70595 0
M  V30 3302 O 302.513 1.55777 -0.973613 0
M  V30 3303 C 302.575 -0.780347 -3.50929 0
M  V30 3304 C 302.239 -2.18619 -4.01317 0
M  V30 3305 C 303.236 -3.16209 -4.12683 0
M  V30 3306 C 300.921 -2.50805 -4.35203 0
M  V30 3307 C 302.915 -4.44085 -4.57238 0
M  V30 3308 C 300.602 -3.78912 -4.79446 0
M  V30 3309 C 301.6 -4.75365 -4.90425 0
M  V30 3310 O 301.288 -6.01191 -5.3369 0
M  V30 3311 H 301.02 -0.229134 -0.635982 0
M  V30 3312 H 303.574 -1.27036 -1.61404 0
M  V30 3313 H 301.804 -0.0649864 -3.86645 0
M  V30 3314 H 303.493 -0.448842 -4.03411 0
M  V30 3315 H 304.259 -2.92668 -3.86744 0
M  V30 3316 H 300.138 -1.76463 -4.2589 0
M  V30 3317 H 303.682 -5.19373 -4.65723 0
M  V30 3318 H 299.579 -4.02265 -5.0483 0
M  V30 3319 H 300.347 -6.04442 -5.51899 0
M  V30 3320 N 303.011 1.40521 -0.713556 0
M  V30 3321 C 304.427 1.54839 -0.386907 0
M  V30 3322 C 304.627 1.68532 1.1045 0
M  V30 3323 O 303.683 1.67377 1.89053 0
M  V30 3324 C 304.996 2.77792 -1.15118 0
M  V30 3325 C 306.544 2.91607 -1.13729 0
M  V30 3326 C 307.019 4.1747 -1.88368 0
M  V30 3327 N 308.51 4.24466 -1.85427 0
M  V30 3328 C 309.245 5.20755 -2.40004 0
M  V30 3329 N 308.741 6.22965 -3.03129 0
M  V30 3330 N 310.534 5.1282 -2.30158 0
M  V30 3331 H 302.685 1.29879 -1.68063 0
M  V30 3332 H 304.948 0.627896 -0.710247 0
M  V30 3333 H 304.654 2.73944 -2.20561 0
M  V30 3334 H 304.528 3.6984 -0.741477 0
M  V30 3335 H 306.915 2.94959 -0.0910608 0
M  V30 3336 H 306.996 2.00682 -1.5862 0
M  V30 3337 H 306.64 4.1488 -2.9298 0
M  V30 3338 H 306.57 5.074 -1.40898 0
M  V30 3339 H 309.061 3.51241 -1.3942 0
M  V30 3340 H 309.374 6.92859 -3.42295 0
M  V30 3341 H 307.719 6.23415 -3.07212 0
M  V30 3342 H 310.91 4.31899 -1.80501 0
M  V30 3343 H 311.083 5.87689 -2.72993 0
M  V30 3344 N 304.489 0.459591 1.5075 0
M  V30 3345 C 305.452 -0.329093 2.26825 0
M  V30 3346 C 306.452 -0.930481 1.31144 0
M  V30 3347 O 307.642 -0.801453 1.54669 0
M  V30 3348 C 304.774 -1.46768 3.07688 0
M  V30 3349 H 305.967 0.337924 2.9799 0
M  V30 3350 H 303.52 0.213336 1.54837 0
M  V30 3351 H 304.255 -2.17009 2.40993 0
M  V30 3352 H 304.04 -1.04238 3.77991 0
M  V30 3353 H 305.53 -2.02433 3.65254 0
M  V30 3354 N 305.967 -1.56429 0.191757 0
M  V30 3355 C 306.93 -2.17707 -0.716688 0
M  V30 3356 C 307.93 -1.13061 -1.14341 0
M  V30 3357 O 309.12 -1.38464 -1.05704 0
M  V30 3358 C 306.252 -2.77644 -1.97804 0
M  V30 3359 H 307.445 -2.99342 -0.1829 0
M  V30 3360 H 304.998 -1.56193 -0.0578566 0
M  V30 3361 H 305.733 -1.99799 -2.55443 0
M  V30 3362 H 305.518 -3.54246 -1.68083 0
M  V30 3363 H 307.008 -3.24708 -2.62592 0
M  V30 3364 N 307.445 0.0818655 -1.57387 0
M  V30 3365 C 308.392 1.09834 -2.0299 0
M  V30 3366 C 309.362 1.39043 -0.908639 0
M  V30 3367 O 310.547 1.50282 -1.17559 0
M  V30 3368 C 307.687 2.40971 -2.47037 0
M  V30 3369 C 306.8 2.18379 -3.7274 0
M  V30 3370 C 305.935 3.43008 -4.0561 0
M  V30 3371 C 304.974 3.15736 -5.24383 0
M  V30 3372 N 304.111 4.32667 -5.52941 0
M  V30 3373 H 308.951 0.702472 -2.89602 0
M  V30 3374 H 306.488 0.33531 -1.43227 0
M  V30 3375 H 308.446 3.1752 -2.70623 0
M  V30 3376 H 307.076 2.78379 -1.63417 0
M  V30 3377 H 306.128 1.32569 -3.56552 0
M  V30 3378 H 307.44 1.94227 -4.59431 0
M  V30 3379 H 306.594 4.27958 -4.30043 0
M  V30 3380 H 305.333 3.70225 -3.17466 0
M  V30 3381 H 304.338 2.2918 -4.99757 0
M  V30 3382 H 305.563 2.8985 -6.14136 0
M  V30 3383 H 303.509 4.59935 -4.67756 0
M  V30 3384 H 303.426 4.11753 -6.34031 0
M  V30 3385 H 304.694 5.18644 -5.81918 0
M  V30 3386 N 308.923 1.53595 0.353017 0
M  V30 3387 C 310.151 1.74311 1.1146 0
M  V30 3388 C 310.566 0.477854 1.82653 0
M  V30 3389 O 309.923 -0.549977 1.74016 0
M  V30 3390 C 309.974 2.91694 2.13534 0
M  V30 3391 O 309.695 4.13325 1.45238 0
M  V30 3392 C 311.196 3.24384 3.02142 0
M  V30 3393 H 308.416 0.582669 0.332773 0
M  V30 3394 H 310.96 2.00386 0.408107 0
M  V30 3395 H 309.115 2.67977 2.79763 0
M  V30 3396 H 309.529 4.79148 2.13349 0
M  V30 3397 H 311.003 4.09893 3.69718 0
M  V30 3398 H 311.48 2.40282 3.67643 0
M  V30 3399 H 312.086 3.50073 2.41514 0
M  V30 3400 N 310.401 -0.613514 1.45168 0
M  V30 3401 C 311.331 -1.7354 1.56225 0
M  V30 3402 C 312.312 -1.64981 0.41414 0
M  V30 3403 O 313.497 -1.83472 0.636526 0
M  V30 3404 C 310.627 -3.12128 1.52295 0
M  V30 3405 C 309.581 -3.35491 2.65762 0
M  V30 3406 C 308.907 -4.74291 2.46885 0
M  V30 3407 C 310.207 -3.26325 4.0781 0
M  V30 3408 H 311.901 -1.64543 2.50132 0
M  V30 3409 H 309.447 -0.790185 1.20383 0
M  V30 3410 H 311.4 -3.90404 1.58628 0
M  V30 3411 H 310.124 -3.2195 0.549139 0
M  V30 3412 H 308.783 -2.59603 2.58847 0
M  V30 3413 H 308.431 -4.80839 1.47657 0
M  V30 3414 H 308.131 -4.9088 3.22972 0
M  V30 3415 H 309.655 -5.54775 2.55063 0
M  V30 3416 H 311.069 -3.94483 4.16 0
M  V30 3417 H 309.466 -3.54445 4.8424 0
M  V30 3418 H 310.536 -2.23855 4.30136 0
M  V30 3419 N 311.879 -1.3236 -0.855495 0
M  V30 3420 C 313.109 -1.25688 -1.6397 0
M  V30 3421 C 313.517 0.177592 -1.88365 0
M  V30 3422 O 312.86 1.12485 -1.45234 0
M  V30 3423 C 312.922 -1.94602 -3.02275 0
M  V30 3424 C 312.586 -3.43937 -3.00926 0
M  V30 3425 C 313.583 -4.39435 -2.77835 0
M  V30 3426 C 311.268 -3.85858 -3.21588 0
M  V30 3427 C 313.262 -5.74829 -2.75409 0
M  V30 3428 C 310.949 -5.21361 -3.18789 0
M  V30 3429 C 311.947 -6.15658 -2.95727 0
M  V30 3430 O 311.635 -7.48681 -2.928 0
M  V30 3431 H 311.367 -0.434972 -0.51747 0
M  V30 3432 H 313.921 -1.75023 -1.075 0
M  V30 3433 H 312.151 -1.39836 -3.60531 0
M  V30 3434 H 313.84 -1.81651 -3.62985 0
M  V30 3435 H 314.606 -4.08374 -2.6164 0
M  V30 3436 H 310.485 -3.12883 -3.38564 0
M  V30 3437 H 314.029 -6.48404 -2.57328 0
M  V30 3438 H 309.926 -5.52052 -3.34528 0
M  V30 3439 H 310.694 -7.5803 -3.0876 0
M  V30 3440 N 313.357 1.07166 -1.15556 0
M  V30 3441 C 314.307 2.12649 -0.82247 0
M  V30 3442 C 315.291 1.59725 0.194129 0
M  V30 3443 O 316.483 1.76999 -0.00540402 0
M  V30 3444 C 313.612 3.41847 -0.315572 0
M  V30 3445 C 312.698 4.0162 -1.36244 0
M  V30 3446 N 313.089 4.35625 -2.5703 0
M  V30 3447 C 311.387 4.29114 -1.21562 0
M  V30 3448 C 312.088 4.83017 -3.24144 0
M  V30 3449 N 311.064 4.81906 -2.51531 0
M  V30 3450 H 314.866 2.36776 -1.74111 0
M  V30 3451 H 312.38 1.24622 -1.0413 0
M  V30 3452 H 314.377 4.16859 -0.0585855 0
M  V30 3453 H 313.037 3.19163 0.597105 0
M  V30 3454 H 314.048 4.26253 -2.94158 0
M  V30 3455 H 310.725 4.15919 -0.362988 0
M  V30 3456 H 312.115 5.18605 -4.27198 0
M  V30 3457 N 314.835 0.952656 1.25548 0
M  V30 3458 C 315.782 0.47008 2.25962 0
M  V30 3459 C 316.752 -0.476384 1.59122 0
M  V30 3460 O 317.937 -0.39007 1.8677 0
M  V30 3461 C 315.077 -0.247881 3.44209 0
M  V30 3462 C 314.19 0.735591 4.25691 0
M  V30 3463 C 313.325 -0.0047306 5.312 0
M  V30 3464 C 312.364 0.969805 6.04368 0
M  V30 3465 N 311.501 0.260486 7.01617 0
M  V30 3466 H 316.341 1.33126 2.66611 0
M  V30 3467 H 313.878 0.66765 1.31076 0
M  V30 3468 H 315.836 -0.680695 4.1161 0
M  V30 3469 H 314.466 -1.07312 3.0444 0
M  V30 3470 H 313.518 1.28689 3.57971 0
M  V30 3471 H 314.83 1.47934 4.76358 0
M  V30 3472 H 313.984 -0.496275 6.04667 0
M  V30 3473 H 312.723 -0.781282 4.81401 0
M  V30 3474 H 311.728 1.47237 5.29718 0
M  V30 3475 H 312.953 1.74655 6.56256 0
M  V30 3476 H 310.899 -0.497364 6.54112 0
M  V30 3477 H 310.816 0.943362 7.50091 0
M  V30 3478 H 312.084 -0.209587 7.79218 0
M  V30 3479 N 316.313 -1.40141 0.720998 0
M  V30 3480 C 317.729 -1.54632 0.395113 0
M  V30 3481 C 317.929 -1.69115 -1.09555 0
M  V30 3482 O 316.985 -1.68377 -1.88163 0
M  V30 3483 C 318.298 -2.77177 1.1659 0
M  V30 3484 C 319.846 -2.91 1.15274 0
M  V30 3485 C 320.321 -4.16465 1.90579 0
M  V30 3486 N 321.812 -4.23476 1.87675 0
M  V30 3487 C 322.547 -5.19475 2.42762 0
M  V30 3488 N 322.043 -6.21348 3.06428 0
M  V30 3489 N 323.836 -5.11592 2.32874 0
M  V30 3490 H 315.987 -1.28986 1.68749 0
M  V30 3491 H 318.25 -0.62412 0.713567 0
M  V30 3492 H 317.956 -2.72771 2.22011 0
M  V30 3493 H 317.83 -3.69442 0.76108 0
M  V30 3494 H 320.217 -2.94907 0.106702 0
M  V30 3495 H 320.298 -1.99838 1.59682 0
M  V30 3496 H 319.942 -4.1332 2.95176 0
M  V30 3497 H 319.872 -5.06646 1.43587 0
M  V30 3498 H 322.363 -3.50497 1.41281 0
M  V30 3499 H 322.676 -6.91034 3.45965 0
M  V30 3500 H 321.021 -6.21777 3.10514 0
M  V30 3501 H 324.212 -4.30936 1.82789 0
M  V30 3502 H 324.385 -5.86233 2.76106 0
M  V30 3503 N 317.792 -0.46758 -1.50504 0
M  V30 3504 C 318.724 0.364655 -2.26281 0
M  V30 3505 C 319.737 0.960151 -1.31472 0
M  V30 3506 O 320.926 0.849153 -1.57008 0
M  V30 3507 C 318.026 1.52509 -3.02645 0
M  V30 3508 C 317.199 1.04302 -4.24782 0
M  V30 3509 C 316.258 2.07709 -4.8347 0
M  V30 3510 O 315.284 1.65913 -5.44483 0
M  V30 3511 N 316.486 3.40485 -4.70159 0
M  V30 3512 H 319.251 -0.28495 -2.98342 0
M  V30 3513 H 316.812 -0.298163 -1.59131 0
M  V30 3514 H 318.804 2.21371 -3.38787 0
M  V30 3515 H 317.374 2.07945 -2.33404 0
M  V30 3516 H 316.594 0.180393 -3.93787 0
M  V30 3517 H 317.882 0.698798 -5.03978 0
M  V30 3518 H 317.28 3.77155 -4.21629 0
M  V30 3519 H 315.837 4.05156 -5.1058 0
M  V30 3520 N 319.27 1.56325 -0.20005 0
M  V30 3521 C 320.233 2.18084 0.705132 0
M  V30 3522 C 321.233 1.13666 1.1374 0
M  V30 3523 O 322.423 1.39023 1.04968 0
M  V30 3524 C 319.555 2.78689 1.96329 0
M  V30 3525 H 320.748 2.99435 0.167023 0
M  V30 3526 H 318.301 1.56221 0.0495725 0
M  V30 3527 H 319.036 2.0115 2.5438 0
M  V30 3528 H 318.821 3.55133 1.66202 0
M  V30 3529 H 320.311 3.26096 2.60866 0
M  V30 3530 N 320.748 -0.0735177 1.57428 0
M  V30 3531 C 321.973 -0.789787 1.91774 0
M  V30 3532 C 322.398 -1.70413 0.796306 0
M  V30 3533 O 321.756 -1.79555 -0.250961 0
M  V30 3534 C 321.804 -1.5609 3.25067 0
M  V30 3535 O 320.908 -2.67144 3.14178 0
M  V30 3536 H 320.249 -0.215582 0.628029 0
M  V30 3537 H 322.779 -0.0422781 2.04556 0
M  V30 3538 H 322.789 -1.94052 3.58898 0
M  V30 3539 H 321.464 -0.890015 4.06265 0
M  V30 3540 H 320.041 -2.32052 2.91901 0
M  V30 3541 N 322.226 -1.5378 -0.344866 0
M  V30 3542 C 323.642 -1.44015 -0.687888 0
M  V30 3543 C 323.842 -0.595834 -1.92489 0
M  V30 3544 O 322.898 -0.0863064 -2.52352 0
M  V30 3545 C 324.211 -2.87481 -0.881758 0
M  V30 3546 C 325.759 -2.97247 -0.980459 0
M  V30 3547 C 326.234 -4.41819 -1.20665 0
M  V30 3548 N 327.725 -4.45339 -1.27389 0
M  V30 3549 C 328.46 -5.54333 -1.46639 0
M  V30 3550 N 327.956 -6.73335 -1.63071 0
M  V30 3551 N 329.749 -5.41944 -1.49176 0
M  V30 3552 H 321.9 -2.07169 0.468475 0
M  V30 3553 H 324.163 -0.93643 0.147655 0
M  V30 3554 H 323.869 -3.51672 -0.0443444 0
M  V30 3555 H 323.743 -3.32352 -1.78388 0
M  V30 3556 H 326.13 -2.33197 -1.8084 0
M  V30 3557 H 326.211 -2.5574 -0.0552713 0
M  V30 3558 H 325.855 -5.06449 -0.383652 0
M  V30 3559 H 325.785 -4.80917 -2.14539 0
M  V30 3560 H 328.276 -3.59585 -1.1622 0
M  V30 3561 H 328.589 -7.52165 -1.77391 0
M  V30 3562 H 326.934 -6.76282 -1.60209 0
M  V30 3563 H 330.125 -4.47932 -1.3592 0
M  V30 3564 H 330.298 -6.26946 -1.63837 0
M  V30 3565 N 323.704 0.605807 -1.45491 0
M  V30 3566 C 324.953 1.36086 -1.48874 0
M  V30 3567 C 325.266 1.95131 -0.135333 0
M  V30 3568 O 326.472 2.7146 -0.0468144 0
M  V30 3569 C 324.928 2.46518 -2.62215 0
M  V30 3570 C 324.536 1.93877 -4.03876 0
M  V30 3571 C 326.28 3.23512 -2.74846 0
M  V30 3572 C 324.187 3.01801 -5.08596 0
M  V30 3573 H 323.117 0.511497 -0.553974 0
M  V30 3574 H 325.768 0.649089 -1.71636 0
M  V30 3575 H 324.15 3.20388 -2.32739 0
M  V30 3576 H 325.324 1.26704 -4.43038 0
M  V30 3577 H 323.639 1.29622 -3.95711 0
M  V30 3578 H 326.236 4.04013 -3.50253 0
M  V30 3579 H 326.579 3.74631 -1.81542 0
M  V30 3580 H 327.112 2.56742 -3.03856 0
M  V30 3581 H 323.851 2.55597 -6.03614 0
M  V30 3582 H 323.371 3.67535 -4.74002 0
M  V30 3583 H 325.05 3.66152 -5.33424 0
M  V30 3584 N 325.182 1.32811 0.848464 0
M  V30 3585 C 326.145 1.22194 1.9391 0
M  V30 3586 C 327.145 0.143404 1.60159 0
M  V30 3587 O 328.335 0.394253 1.6968 0
M  V30 3588 C 325.467 0.88067 3.29328 0
M  V30 3589 H 326.66 2.19127 2.04752 0
M  V30 3590 H 324.213 1.16731 1.0394 0
M  V30 3591 H 324.948 -0.0865776 3.24184 0
M  V30 3592 H 324.733 1.66052 3.55203 0
M  V30 3593 H 326.223 0.830871 4.09251 0
M  V30 3594 N 326.66 -1.06551 1.16123 0
M  V30 3595 C 327.607 -2.13961 0.865414 0
M  V30 3596 C 328.577 -1.65066 -0.185055 0
M  V30 3597 O 329.762 -1.90732 -0.05083 0
M  V30 3598 C 326.902 -3.43113 0.369776 0
M  V30 3599 C 326.015 -4.05756 1.48276 0
M  V30 3600 C 325.15 -5.22773 0.942414 0
M  V30 3601 C 324.189 -5.77395 2.03179 0
M  V30 3602 N 323.326 -6.85731 1.50721 0
M  V30 3603 H 328.166 -2.38605 1.78527 0
M  V30 3604 H 325.703 -1.17072 0.890646 0
M  V30 3605 H 327.661 -4.17151 0.0640643 0
M  V30 3606 H 326.291 -3.18695 -0.513143 0
M  V30 3607 H 325.343 -3.29292 1.9045 0
M  V30 3608 H 326.655 -4.42351 2.30493 0
M  V30 3609 H 325.809 -6.03827 0.589729 0
M  V30 3610 H 324.548 -4.87618 0.0895191 0
M  V30 3611 H 323.553 -4.94981 2.3932 0
M  V30 3612 H 324.778 -6.14603 2.8886 0
M  V30 3613 H 322.724 -6.52499 0.676811 0
M  V30 3614 H 322.641 -7.21254 2.26557 0
M  V30 3615 H 323.909 -7.7047 1.18303 0
M  V30 3616 N 328.138 -0.959301 -1.25041 0
M  V30 3617 C 329.048 -0.489994 -2.29426 0
M  V30 3618 C 330.064 0.444944 -1.68215 0
M  V30 3619 O 331.24 0.320046 -1.98841 0
M  V30 3620 C 328.305 0.220309 -3.45999 0
M  V30 3621 C 327.366 -0.753418 -4.22637 0
M  V30 3622 C 326.599 -0.076918 -5.33645 0
M  V30 3623 O 326.822 1.13649 -5.58963 0
M  V30 3624 O 325.756 -0.764824 -5.97021 0
M  V30 3625 H 329.582 -1.35755 -2.71669 0
M  V30 3626 H 327.167 -0.725961 -1.30576 0
M  V30 3627 H 329.049 0.619677 -4.16819 0
M  V30 3628 H 327.724 1.06296 -3.0575 0
M  V30 3629 H 326.631 -1.20308 -3.54227 0
M  V30 3630 H 327.964 -1.56423 -4.66683 0
M  V30 3631 N 329.616 1.39756 -0.72842 0
M  V30 3632 C 330.526 2.34444 -0.0855374 0
M  V30 3633 C 331.542 1.57976 0.729356 0
M  V30 3634 O 332.718 1.90301 0.659346 0
M  V30 3635 C 329.783 3.36965 0.815798 0
M  V30 3636 C 328.844 4.29299 -0.0105996 0
M  V30 3637 C 328.077 5.26923 0.84781 0
M  V30 3638 O 328.3 5.30859 2.08673 0
M  V30 3639 O 327.234 6.01249 0.279969 0
M  V30 3640 H 331.06 2.91065 -0.866892 0
M  V30 3641 H 328.645 1.4117 -0.48902 0
M  V30 3642 H 330.527 3.99804 1.33171 0
M  V30 3643 H 329.202 2.82739 1.57608 0
M  V30 3644 H 328.109 3.69703 -0.571877 0
M  V30 3645 H 329.442 4.86712 -0.73295 0
M  V30 3646 N 331.094 0.475555 1.50254 0
M  V30 3647 C 332.34 -0.0780073 2.0265 0
M  V30 3648 C 332.673 -1.38968 1.35652 0
M  V30 3649 O 331.948 -1.8839 0.483691 0
M  V30 3650 C 332.231 -0.257161 3.59181 0
M  V30 3651 C 332.084 1.07585 4.36744 0
M  V30 3652 C 333.403 -1.00965 4.28362 0
M  V30 3653 H 330.522 -0.0268758 0.73651 0
M  V30 3654 H 333.164 0.622015 1.7953 0
M  V30 3655 H 331.314 -0.853412 3.79011 0
M  V30 3656 H 332.986 1.70902 4.28474 0
M  V30 3657 H 331.229 1.6714 4.00308 0
M  V30 3658 H 331.9 0.904088 5.44546 0
M  V30 3659 H 334.376 -0.504214 4.13034 0
M  V30 3660 H 333.252 -1.10381 5.37687 0
M  V30 3661 H 333.513 -2.04731 3.91839 0
M  V30 3662 N 332.573 -1.56217 0.208337 0
M  V30 3663 C 333.521 -2.21053 -0.723769 0
M  V30 3664 C 334.515 -1.18578 -1.20978 0
M  V30 3665 O 335.721 -1.36691 -1.17114 0
M  V30 3666 H 332.096 -0.708595 -0.251788 0
M  V30 3667 H 334.067 -2.98006 -0.153365 0
M  V30 3668 C 332.816 -2.89417 -1.927 0
M  V30 3669 H 332.139 -3.68019 -1.56212 0
M  V30 3670 H 333.579 -3.38201 -2.55727 0
M  V30 3671 C 332.038 -1.91166 -2.77411 0
M  V30 3672 O 332.568 -1.42026 -3.75754 0
M  V30 3673 N 330.774 -1.59105 -2.43175 0
M  V30 3674 H 330.321 -1.99259 -1.63259 0
M  V30 3675 H 330.279 -0.936255 -3.00136 0
M  V30 3676 N 334.051 0.0651679 -1.57465 0
M  V30 3677 C 335.299 0.761555 -1.87202 0
M  V30 3678 C 335.62 1.77778 -0.801243 0
M  V30 3679 O 334.89 1.95166 0.16937 0
M  V30 3680 H 333.47 0.284251 -0.690804 0
M  V30 3681 H 336.132 0.0396827 -1.9486 0
M  V30 3682 H 335.228 1.27365 -2.84929 0
M  V30 3683 N 335.529 1.53961 0.336706 0
M  V30 3684 C 336.461 1.78751 1.4346 0
M  V30 3685 C 337.474 0.669019 1.48418 0
M  V30 3686 O 338.663 0.945884 1.51378 0
M  V30 3687 C 335.763 1.87844 2.82078 0
M  V30 3688 C 334.936 3.17854 3.00479 0
M  V30 3689 C 333.995 3.17816 4.19379 0
M  V30 3690 O 333.021 3.91511 4.13168 0
M  V30 3691 N 334.223 2.40669 5.2826 0
M  V30 3692 H 336.988 2.73493 1.22563 0
M  V30 3693 H 334.549 1.53096 0.526625 0
M  V30 3694 H 336.541 1.85261 3.59806 0
M  V30 3695 H 335.111 1.00257 2.96086 0
M  V30 3696 H 334.331 3.33504 2.10163 0
M  V30 3697 H 335.619 4.03718 3.0966 0
M  V30 3698 H 335.017 1.8036 5.36178 0
M  V30 3699 H 333.574 2.43877 6.04456 0
M  V30 3700 N 337.007 -0.598083 1.45811 0
M  V30 3701 C 338.253 -1.35882 1.50545 0
M  V30 3702 C 338.586 -1.93616 0.150445 0
M  V30 3703 O 337.861 -1.75604 -0.83628 0
M  V30 3704 C 338.144 -2.49966 2.59208 0
M  V30 3705 C 337.997 -1.97367 4.04186 0
M  V30 3706 C 339.316 -3.52068 2.64076 0
M  V30 3707 H 336.435 -0.492717 0.548087 0
M  V30 3708 H 339.077 -0.673319 1.77669 0
M  V30 3709 H 337.227 -3.08443 2.3621 0
M  V30 3710 H 338.899 -1.43466 4.38423 0
M  V30 3711 H 337.142 -1.283 4.14393 0
M  V30 3712 H 337.813 -2.79649 4.75921 0
M  V30 3713 H 340.289 -3.03448 2.84708 0
M  V30 3714 H 339.165 -4.2937 3.41954 0
M  V30 3715 H 339.426 -4.08304 1.69531 0
M  V30 3716 N 338.485 -1.33259 -0.841409 0
M  V30 3717 C 339.415 -1.25926 -1.96634 0
M  V30 3718 C 340.396 -0.140349 -1.6952 0
M  V30 3719 O 341.581 -0.329707 -1.91381 0
M  V30 3720 C 338.711 -0.99512 -3.32738 0
M  V30 3721 C 337.665 -2.0767 -3.74242 0
M  V30 3722 C 336.991 -1.66474 -5.08125 0
M  V30 3723 C 338.291 -3.49318 -3.88297 0
M  V30 3724 H 339.985 -2.20046 -2.03027 0
M  V30 3725 H 337.531 -1.05931 -0.975425 0
M  V30 3726 H 339.484 -0.930323 -4.11002 0
M  V30 3727 H 338.208 -0.0183004 -3.26595 0
M  V30 3728 H 336.867 -2.13187 -2.98239 0
M  V30 3729 H 336.515 -0.675012 -4.9845 0
M  V30 3730 H 336.215 -2.3885 -5.36865 0
M  V30 3731 H 337.739 -1.61455 -5.88867 0
M  V30 3732 H 339.153 -3.46316 -4.56879 0
M  V30 3733 H 337.55 -4.20158 -4.28471 0
M  V30 3734 H 338.62 -3.8801 -2.9082 0
M  V30 3735 N 339.963 1.05934 -1.16686 0
M  V30 3736 C 340.893 2.1546 -0.899949 0
M  V30 3737 C 341.874 1.69391 0.155154 0
M  V30 3738 O 343.059 1.94199 0.00648693 0
M  V30 3739 C 340.189 3.44939 -0.404241 0
M  V30 3740 C 339.143 4.04536 -1.39767 0
M  V30 3741 C 338.469 5.29268 -0.760216 0
M  V30 3742 C 339.769 4.42893 -2.76845 0
M  V30 3743 H 341.463 2.38046 -1.81588 0
M  V30 3744 H 339.009 1.14404 -0.874514 0
M  V30 3745 H 340.962 4.20901 -0.204971 0
M  V30 3746 H 339.686 3.21983 0.547206 0
M  V30 3747 H 338.345 3.30635 -1.58355 0
M  V30 3748 H 337.993 5.02611 0.197831 0
M  V30 3749 H 337.693 5.70101 -1.42332 0
M  V30 3750 H 339.217 6.07924 -0.57105 0
M  V30 3751 H 340.631 5.09921 -2.62019 0
M  V30 3752 H 339.028 4.94721 -3.39663 0
M  V30 3753 H 340.098 3.53584 -3.31823 0
M  V30 3754 N 341.441 0.965919 1.2453 0
M  V30 3755 C 342.351 0.502154 2.29163 0
M  V30 3756 C 343.367 -0.436017 1.68448 0
M  V30 3757 O 344.543 -0.309497 1.99008 0
M  V30 3758 C 341.608 -0.201956 3.46111 0
M  V30 3759 C 340.669 0.775821 4.22232 0
M  V30 3760 C 339.902 0.105217 5.33596 0
M  V30 3761 O 340.125 -1.10683 5.59558 0
M  V30 3762 O 339.059 0.796475 5.96607 0
M  V30 3763 H 342.885 1.37194 2.70946 0
M  V30 3764 H 340.47 0.732875 1.30189 0
M  V30 3765 H 342.352 -0.597564 4.17142 0
M  V30 3766 H 341.027 -1.04673 3.06309 0
M  V30 3767 H 339.934 1.22185 3.53584 0
M  V30 3768 H 341.267 1.58896 4.65846 0
M  V30 3769 N 342.919 -1.39368 0.735821 0
M  V30 3770 C 344.144 -2.05319 0.293052 0
M  V30 3771 C 344.569 -1.55115 -1.064 0
M  V30 3772 O 343.927 -0.695261 -1.67439 0
M  V30 3773 C 343.975 -3.59305 0.305323 0
M  V30 3774 O 343.079 -4.06299 -0.706761 0
M  V30 3775 H 342.42 -0.650529 0.13307 0
M  V30 3776 H 344.95 -1.78386 1.00197 0
M  V30 3777 H 344.96 -4.07724 0.149997 0
M  V30 3778 H 343.635 -3.95207 1.29553 0
M  V30 3779 H 342.212 -3.69292 -0.517504 0
M  V30 3780 N 344.397 -0.483516 -1.5 0
M  V30 3781 C 345.645 0.067027 -2.01989 0
M  V30 3782 C 345.966 1.3909 -1.36671 0
M  V30 3783 O 345.236 1.88978 -0.516152 0
M  V30 3784 H 343.816 0.0277606 -0.746484 0
M  V30 3785 H 346.478 -0.636773 -1.84204 0
M  V30 3786 H 345.574 0.209484 -3.11396 0
M  V30 3787 N 345.875 1.56104 -0.216619 0
M  V30 3788 C 346.785 2.23694 0.706982 0
M  V30 3789 C 347.801 1.24295 1.21765 0
M  V30 3790 O 348.977 1.57094 1.2603 0
M  V30 3791 C 346.042 2.8998 1.90033 0
M  V30 3792 C 345.103 4.04708 1.43213 0
M  V30 3793 C 344.336 4.67824 2.56859 0
M  V30 3794 O 344.559 4.29913 3.74874 0
M  V30 3795 O 343.493 5.56905 2.28343 0
M  V30 3796 H 347.319 3.03272 0.161235 0
M  V30 3797 H 344.904 1.49394 0.0136177 0
M  V30 3798 H 346.786 3.31837 2.59735 0
M  V30 3799 H 345.461 2.13365 2.43428 0
M  V30 3800 H 344.368 3.6743 0.70327 0
M  V30 3801 H 345.701 4.83051 0.944615 0
M  V30 3802 N 347.353 -0.0568162 1.57498 0
M  V30 3803 C 348.3 -1.06591 2.04712 0
M  V30 3804 C 349.27 -1.3758 0.930644 0
M  V30 3805 O 350.455 -1.48392 1.19935 0
M  V30 3806 C 347.595 -2.3701 2.50839 0
M  V30 3807 C 346.708 -2.12421 3.76167 0
M  V30 3808 C 345.843 -3.36511 4.11015 0
M  V30 3809 C 344.882 -3.07353 5.2934 0
M  V30 3810 N 344.019 -4.23816 5.59754 0
M  V30 3811 H 348.859 -0.65631 2.90683 0
M  V30 3812 H 346.396 -0.312481 1.43743 0
M  V30 3813 H 348.354 -3.13175 2.7564 0
M  V30 3814 H 346.984 -2.75744 1.67825 0
M  V30 3815 H 346.036 -1.2688 3.58616 0
M  V30 3816 H 347.348 -1.86894 4.62463 0
M  V30 3817 H 346.502 -4.21062 4.36797 0
M  V30 3818 H 345.241 -3.65128 3.23315 0
M  V30 3819 H 344.246 -2.212 5.03339 0
M  V30 3820 H 345.471 -2.80043 6.1867 0
M  V30 3821 H 343.417 -4.52436 4.75014 0
M  V30 3822 H 343.334 -4.01614 6.40501 0
M  V30 3823 H 344.602 -5.0932 5.90096 0
M  V30 3824 N 348.832 -1.54138 -0.328536 0
M  V30 3825 C 350.057 -1.76378 -1.09112 0
M  V30 3826 C 350.482 -0.508596 -1.81094 0
M  V30 3827 O 349.84 0.539598 -1.73084 0
M  V30 3828 C 349.888 -2.95358 -2.06872 0
M  V30 3829 O 348.992 -2.66556 -3.14677 0
M  V30 3830 H 348.333 -0.584614 -0.314838 0
M  V30 3831 H 350.863 -2.01146 -0.374348 0
M  V30 3832 H 350.873 -3.22566 -2.4983 0
M  V30 3833 H 349.548 -3.86385 -1.5388 0
M  V30 3834 H 348.125 -2.50282 -2.7643 0
M  V30 3835 N 350.31 0.590341 -1.46126 0
M  V30 3836 C 351.538 1.37504 -1.54597 0
M  V30 3837 C 351.953 1.87897 -0.184447 0
M  V30 3838 O 351.31 1.63192 0.816984 0
M  V30 3839 C 351.361 2.56779 -2.54454 0
M  V30 3840 O 351.082 2.08476 -3.85317 0
M  V30 3841 C 352.583 3.49427 -2.72792 0
M  V30 3842 H 349.803 0.420325 -0.523037 0
M  V30 3843 H 352.347 0.718383 -1.91467 0
M  V30 3844 H 350.502 3.1845 -2.20609 0
M  V30 3845 H 350.916 2.86097 -4.396 0
M  V30 3846 H 352.39 4.29619 -3.466 0
M  V30 3847 H 352.867 4.00876 -1.79429 0
M  V30 3848 H 353.473 2.93598 -3.07702 0
M  V30 3849 N 351.788 1.33704 0.83433 0
M  V30 3850 C 352.735 1.24335 1.94447 0
M  V30 3851 C 353.705 0.120991 1.65659 0
M  V30 3852 O 354.89 0.300035 1.88426 0
M  V30 3853 C 352.03 0.993124 3.30501 0
M  V30 3854 C 351.143 2.20217 3.71657 0
M  V30 3855 C 350.278 1.88572 4.96602 0
M  V30 3856 C 349.317 3.05683 5.30306 0
M  V30 3857 N 348.454 2.73997 6.46429 0
M  V30 3858 H 353.294 2.1928 2.01792 0
M  V30 3859 H 350.831 1.09035 0.987404 0
M  V30 3860 H 352.789 0.828467 4.08892 0
M  V30 3861 H 351.419 0.0803902 3.227 0
M  V30 3862 H 350.471 2.47642 2.88752 0
M  V30 3863 H 351.783 3.07752 3.92543 0
M  V30 3864 H 350.937 1.68776 5.82752 0
M  V30 3865 H 349.676 0.982799 4.77695 0
M  V30 3866 H 348.681 3.26088 4.42659 0
M  V30 3867 H 349.906 3.96737 5.51159 0
M  V30 3868 H 347.852 1.86268 6.28999 0
M  V30 3869 H 347.769 3.55064 6.67432 0
M  V30 3870 H 349.037 2.57679 7.35678 0
M  V30 3871 N 353.266 -1.05314 1.17247 0
M  V30 3872 C 354.491 -1.82509 0.985148 0
M  V30 3873 C 354.916 -1.82343 -0.461788 0
M  V30 3874 O 354.274 -1.23151 -1.33055 0
M  V30 3875 C 354.322 -3.26566 1.52929 0
M  V30 3876 O 353.426 -4.05666 0.742225 0
M  V30 3877 H 352.767 -0.564347 0.349869 0
M  V30 3878 H 355.297 -1.32718 1.55715 0
M  V30 3879 H 355.307 -3.77369 1.55103 0
M  V30 3880 H 353.982 -3.26001 2.58256 0
M  V30 3881 H 352.559 -3.64397 0.791794 0
M  V30 3882 N 354.744 -0.972509 -1.24016 0
M  V30 3883 C 355.99 -0.637978 -1.92504 0
M  V30 3884 C 356.323 0.825383 -1.75787 0
M  V30 3885 O 355.598 1.59442 -1.11393 0
M  V30 3886 C 355.881 -1.01942 -3.45369 0
M  V30 3887 C 355.734 -2.53983 -3.71231 0
M  V30 3888 C 357.053 -0.55751 -4.36555 0
M  V30 3889 H 354.172 -0.233248 -0.699117 0
M  V30 3890 H 356.814 -1.21238 -1.46292 0
M  V30 3891 H 354.964 -0.530656 -3.84859 0
M  V30 3892 H 356.636 -3.10374 -3.41271 0
M  V30 3893 H 354.879 -2.96968 -3.16216 0
M  V30 3894 H 355.55 -2.75723 -4.78206 0
M  V30 3895 H 358.026 -0.977029 -4.04467 0
M  V30 3896 H 356.902 -0.85292 -5.42233 0
M  V30 3897 H 357.163 0.542328 -4.38761 0
M  V30 3898 N 356.222 1.38976 -0.743202 0
M  V30 3899 C 357.447 2.05161 -0.303936 0
M  V30 3900 C 357.872 1.55677 1.05576 0
M  V30 3901 O 357.23 0.704131 1.67068 0
M  V30 3902 C 357.278 3.59138 -0.324373 0
M  V30 3903 O 356.382 4.06668 0.685204 0
M  V30 3904 H 355.723 0.649815 -0.136518 0
M  V30 3905 H 358.253 1.77852 -1.01142 0
M  V30 3906 H 358.263 4.07639 -0.171618 0
M  V30 3907 H 356.938 3.94515 -1.31647 0
M  V30 3908 H 355.515 3.69561 0.497913 0
M  V30 3909 N 357.7 0.491464 1.49741 0
M  V30 3910 C 358.928 -0.0535151 2.06831 0
M  V30 3911 C 359.343 -1.31683 1.35296 0
M  V30 3912 O 358.7 -1.77402 0.42836 0
M  V30 3913 C 358.751 -0.320835 3.60073 0
M  V30 3914 O 358.472 0.892394 4.28915 0
M  V30 3915 C 359.973 -0.910519 4.33848 0
M  V30 3916 H 357.193 0.0161909 0.670805 0
M  V30 3917 H 359.737 0.68609 1.92647 0
M  V30 3918 H 357.892 -1.0104 3.73991 0
M  V30 3919 H 358.306 0.649401 5.20464 0
M  V30 3920 H 359.78 -1.04721 5.41976 0
M  V30 3921 H 360.257 -1.90589 3.95692 0
M  V30 3922 H 360.863 -0.258712 4.24512 0
M  V30 3923 N 359.178 -1.55987 0.224894 0
M  V30 3924 C 360.403 -2.03232 -0.41369 0
M  V30 3925 C 360.828 -1.10359 -1.52323 0
M  V30 3926 O 360.186 -0.092395 -1.81064 0
M  V30 3927 C 360.234 -3.48682 -0.919405 0
M  V30 3928 O 359.338 -3.58947 -2.03054 0
M  V30 3929 H 358.679 -0.657428 -0.0931903 0
M  V30 3930 H 361.209 -2.01679 0.34451 0
M  V30 3931 H 361.219 -3.8907 -1.22835 0
M  V30 3932 H 359.894 -4.15761 -0.107339 0
M  V30 3933 H 358.471 -3.30448 -1.72796 0
M  V30 3934 N 360.656 0.0484629 -1.57525 0
M  V30 3935 C 361.886 0.754326 -1.92337 0
M  V30 3936 C 362.294 1.70443 -0.82132 0
M  V30 3937 O 361.637 1.82466 0.21254 0
M  V30 3938 C 361.699 1.58231 -3.22805 0
M  V30 3939 C 361.363 0.799074 -4.4996 0
M  V30 3940 C 362.36 0.1079 -5.19788 0
M  V30 3941 C 360.045 0.759345 -4.96527 0
M  V30 3942 C 362.039 -0.612516 -6.3445 0
M  V30 3943 C 359.726 0.0351713 -6.1109 0
M  V30 3944 C 360.724 -0.649537 -6.79904 0
M  V30 3945 O 360.412 -1.36199 -7.92278 0
M  V30 3946 H 360.144 0.218257 -0.639797 0
M  V30 3947 H 362.698 0.0159295 -2.05394 0
M  V30 3948 H 360.928 2.36406 -3.06021 0
M  V30 3949 H 362.617 2.16898 -3.43089 0
M  V30 3950 H 363.383 0.129748 -4.84826 0
M  V30 3951 H 359.262 1.28177 -4.42822 0
M  V30 3952 H 362.806 -1.14751 -6.88097 0
M  V30 3953 H 358.703 0.0113314 -6.45499 0
M  V30 3954 H 359.471 -1.27366 -8.0853 0
M  V30 3955 N 362.134 1.5431 0.320358 0
M  V30 3956 C 363.38 1.72924 1.05949 0
M  V30 3957 C 363.713 0.503185 1.87568 0
M  V30 3958 O 362.988 -0.499839 1.87968 0
M  V30 3959 C 363.271 3.00676 1.98156 0
M  V30 3960 C 363.124 4.3354 1.19845 0
M  V30 3961 C 364.443 3.24198 2.9763 0
M  V30 3962 H 361.562 0.629195 0.383774 0
M  V30 3963 H 364.204 1.87008 0.335854 0
M  V30 3964 H 362.354 2.888 2.59859 0
M  V30 3965 H 364.026 4.57305 0.605773 0
M  V30 3966 H 362.269 4.309 0.500784 0
M  V30 3967 H 362.94 5.19156 1.87567 0
M  V30 3968 H 365.416 3.35557 2.4605 0
M  V30 3969 H 364.292 4.14938 3.59329 0
M  V30 3970 H 364.553 2.41577 3.7026 0
M  V30 3971 N 363.613 -0.582584 1.46437 0
M  V30 3972 C 364.543 -1.70187 1.59871 0
M  V30 3973 C 365.524 -1.64066 0.449042 0
M  V30 3974 O 366.709 -1.82081 0.6753 0
M  V30 3975 C 363.839 -3.08827 1.58881 0
M  V30 3976 C 362.793 -3.29779 2.72819 0
M  V30 3977 C 362.119 -4.68947 2.5689 0
M  V30 3978 C 363.419 -3.17601 4.1464 0
M  V30 3979 H 365.113 -1.592 2.53566 0
M  V30 3980 H 362.659 -0.764472 1.22032 0
M  V30 3981 H 364.612 -3.86951 1.66873 0
M  V30 3982 H 363.336 -3.20713 0.617306 0
M  V30 3983 H 361.995 -2.54054 2.64296 0
M  V30 3984 H 361.643 -4.77599 1.57823 0
M  V30 3985 H 361.343 -4.83919 3.33312 0
M  V30 3986 H 362.867 -5.4924 2.66773 0
M  V30 3987 H 364.281 -3.8557 4.24274 0
M  V30 3988 H 362.678 -3.44094 4.9165 0
M  V30 3989 H 363.748 -2.14681 4.34788 0
M  V30 3990 N 365.091 -1.34144 -0.827227 0
M  V30 3991 C 366.001 -1.27428 -1.96975 0
M  V30 3992 C 367.017 -0.182728 -1.73038 0
M  V30 3993 O 368.193 -0.408426 -1.97215 0
M  V30 3994 C 365.258 -1.02526 -3.31194 0
M  V30 3995 C 364.319 -2.20796 -3.68168 0
M  V30 3996 C 363.552 -1.97073 -4.95982 0
M  V30 3997 O 363.775 -0.926822 -5.6282 0
M  V30 3998 O 362.709 -2.83912 -5.30733 0
M  V30 3999 H 366.535 -2.23537 -2.05584 0
M  V30 4000 H 364.12 -1.14307 -0.961989 0
M  V30 4001 H 366.002 -0.904026 -4.11589 0
M  V30 4002 H 364.677 -0.0945389 -3.23562 0
M  V30 4003 H 363.584 -2.38477 -2.88235 0
M  V30 4004 H 364.917 -3.12243 -3.8048 0
M  V30 4005 N 366.569 1.04691 -1.17803 0
M  V30 4006 C 367.516 2.12557 -0.899343 0
M  V30 4007 C 368.486 1.65339 0.158771 0
M  V30 4008 O 369.671 1.90789 0.0204797 0
M  V30 4009 C 366.811 3.42481 -0.424315 0
M  V30 4010 C 365.924 4.03346 -1.54713 0
M  V30 4011 C 365.059 5.21208 -1.02546 0
M  V30 4012 C 364.098 5.74089 -2.12339 0
M  V30 4013 N 363.235 6.83247 -1.61612 0
M  V30 4014 H 368.075 2.35734 -1.823 0
M  V30 4015 H 365.612 1.1564 -0.909159 0
M  V30 4016 H 367.57 4.16996 -0.130421 0
M  V30 4017 H 366.2 3.19471 0.462377 0
M  V30 4018 H 365.252 3.2622 -1.95664 0
M  V30 4019 H 366.564 4.38628 -2.37501 0
M  V30 4020 H 365.718 6.02812 -0.685718 0
M  V30 4021 H 364.457 4.87414 -0.167084 0
M  V30 4022 H 363.462 4.91111 -2.47165 0
M  V30 4023 H 364.687 6.0993 -2.98601 0
M  V30 4024 H 362.633 6.5134 -0.780533 0
M  V30 4025 H 362.55 7.17559 -2.38003 0
M  V30 4026 H 363.818 7.68491 -1.30545 0
M  V30 4027 N 368.047 0.979072 1.23499 0
M  V30 4028 C 369.272 0.664845 1.96455 0
M  V30 4029 C 369.697 -0.761287 1.72006 0
M  V30 4030 O 369.055 -1.51837 0.990713 0
M  V30 4031 C 369.103 0.959479 3.47601 0
M  V30 4032 O 368.207 0.0508168 4.12369 0
M  V30 4033 H 367.548 0.250185 0.615064 0
M  V30 4034 H 370.078 1.31231 1.5697 0
M  V30 4035 H 370.088 0.895642 3.98048 0
M  V30 4036 H 368.763 1.99876 3.64723 0
M  V30 4037 H 367.34 0.16895 3.72517 0
M  V30 4038 N 369.525 -1.3858 0.750561 0
M  V30 4039 C 370.455 -2.33102 0.136237 0
M  V30 4040 C 371.436 -1.54713 -0.706965 0
M  V30 4041 O 372.621 -1.83043 -0.648769 0
M  V30 4042 C 369.751 -3.38882 -0.760017 0
M  V30 4043 C 368.705 -4.27995 -0.0197785 0
M  V30 4044 C 368.031 -5.24605 -1.03408 0
M  V30 4045 C 369.331 -5.09554 1.14684 0
M  V30 4046 H 371.025 -2.84726 0.925822 0
M  V30 4047 H 368.571 -1.36898 0.446654 0
M  V30 4048 H 370.524 -4.0397 -1.19943 0
M  V30 4049 H 369.248 -2.85734 -1.58189 0
M  V30 4050 H 367.907 -3.64409 0.400184 0
M  V30 4051 H 367.555 -4.67746 -1.84994 0
M  V30 4052 H 367.255 -5.85081 -0.543464 0
M  V30 4053 H 368.779 -5.9257 -1.47288 0
M  V30 4054 H 370.193 -5.67899 0.785118 0
M  V30 4055 H 368.59 -5.7925 1.56812 0
M  V30 4056 H 369.66 -4.4347 1.96118 0
M  V30 4057 N 371.003 -0.499398 -1.49478 0
M  V30 4058 C 372.228 0.044722 -2.07352 0
M  V30 4059 C 372.653 1.30207 -1.35749 0
M  V30 4060 O 372.011 1.76516 -0.413732 0
M  V30 4061 C 372.059 0.283013 -3.59488 0
M  V30 4062 O 371.163 1.35804 -3.89398 0
M  V30 4063 H 370.504 -0.0255147 -0.66351 0
M  V30 4064 H 373.034 -0.698561 -1.92305 0
M  V30 4065 H 373.044 0.515007 -4.04737 0
M  V30 4066 H 371.719 -0.635636 -4.11014 0
M  V30 4067 H 370.296 1.11113 -3.55961 0
M  V30 4068 N 372.481 1.55866 -0.233164 0
M  V30 4069 C 373.758 1.90471 0.444988 0
M  V30 4070 C 374.138 1.15209 1.7689 0
M  V30 4071 O 373.486 0.265119 2.26957 0
M  V30 4072 C 373.696 3.4333 0.626559 0
M  V30 4073 C 375.044 4.14319 0.92871 0
M  V30 4074 O 376.068 3.48993 0.712926 0
M  V30 4075 O 374.927 5.29846 1.33887 0
M  V30 4076 H 372.021 0.792347 0.236885 0
M  V30 4077 H 374.567 1.67437 -0.276211 0
M  V30 4078 H 373.339 3.90095 -0.306822 0
M  V30 4079 H 372.962 3.72181 1.39881 0
M  V30 4080 N 373.959 -0.0401083 1.57549 0
M  V30 4081 C 375.37 -0.588097 1.77196 0
M  V30 4082 C 375.721 -1.76209 0.862832 0
M  V30 4083 O 374.846 -2.16331 0.0548389 0
M  V30 4084 C 375.441 -1.07363 3.21339 0
M  V30 4085 C 374 -1.56723 3.42221 0
M  V30 4086 C 373.147 -0.50041 2.72747 0
M  V30 4087 H 376.098 0.186119 1.57605 0
M  V30 4088 H 376.119 -1.94143 3.27244 0
M  V30 4089 H 375.631 -0.218975 3.87482 0
M  V30 4090 H 373.732 -2.4441 2.81237 0
M  V30 4091 H 373.845 -1.62234 4.50796 0
M  V30 4092 H 372.209 -0.952894 2.36203 0
M  V30 4093 H 372.992 0.344599 3.41566 0
M  V30 4094 N 375.437 -1.54477 -0.31217 0
M  V30 4095 C 376.662 -1.77526 -1.07235 0
M  V30 4096 C 377.087 -0.527775 -1.80544 0
M  V30 4097 O 376.445 0.52121 -1.73646 0
M  V30 4098 C 376.493 -2.97535 -2.03728 0
M  V30 4099 O 375.597 -2.69878 -3.11833 0
M  V30 4100 H 374.938 -0.58792 -0.30862 0
M  V30 4101 H 377.468 -2.01532 -0.352993 0
M  V30 4102 H 377.478 -3.25198 -2.46395 0
M  V30 4103 H 376.153 -3.87996 -1.49774 0
M  V30 4104 H 374.73 -2.53199 -2.7376 0
M  V30 4105 N 376.915 0.57481 -1.46744 0
M  V30 4106 C 378.143 1.35856 -1.56047 0
M  V30 4107 C 378.558 1.87691 -0.204365 0
M  V30 4108 O 377.915 1.64049 0.79963 0
M  V30 4109 C 377.966 2.54066 -2.57163 0
M  V30 4110 O 377.687 2.04377 -3.87507 0
M  V30 4111 C 379.188 3.46514 -2.76483 0
M  V30 4112 H 376.408 0.414754 -0.527466 0
M  V30 4113 H 378.952 0.698035 -1.92218 0
M  V30 4114 H 377.107 3.16092 -2.23974 0
M  V30 4115 H 377.521 2.81419 -4.4261 0
M  V30 4116 H 378.995 4.25919 -3.51137 0
M  V30 4117 H 379.472 3.98951 -1.83671 0
M  V30 4118 H 380.078 2.90318 -3.10799 0
M  V30 4119 N 378.394 1.34581 0.820102 0
M  V30 4120 C 379.671 1.17675 1.56244 0
M  V30 4121 C 380.051 -0.249541 2.0962 0
M  V30 4122 O 379.399 -1.25125 1.91196 0
M  V30 4123 C 379.609 2.23364 2.6816 0
M  V30 4124 C 380.957 2.58485 3.36854 0
M  V30 4125 O 381.981 2.22175 2.78418 0
M  V30 4126 O 380.84 3.20868 4.42386 0
M  V30 4127 H 377.934 0.456333 0.689702 0
M  V30 4128 H 380.48 1.46222 0.861231 0
M  V30 4129 H 379.252 3.19087 2.26493 0
M  V30 4130 H 378.875 1.96009 3.45928 0
M  V30 4131 N 379.872 -1.04064 1.18357 0
M  V30 4132 C 381.119 -1.77265 0.978947 0
M  V30 4133 C 381.447 -1.88189 -0.491428 0
M  V30 4134 O 380.702 -1.38653 -1.38108 0
M  V30 4135 C 381.001 -3.20634 1.57888 0
M  V30 4136 C 380.667 -3.29743 3.07539 0
M  V30 4137 C 379.329 -3.31937 3.48384 0
M  V30 4138 C 381.681 -3.29841 4.03552 0
M  V30 4139 C 379.009 -3.3187 4.83818 0
M  V30 4140 C 381.361 -3.31313 5.38901 0
M  V30 4141 C 380.025 -3.31799 5.79194 0
M  V30 4142 H 379.295 -0.648659 0.358222 0
M  V30 4143 H 381.942 -1.22225 1.47422 0
M  V30 4144 H 380.247 -3.78675 1.00561 0
M  V30 4145 H 381.944 -3.75917 1.39598 0
M  V30 4146 H 378.534 -3.28757 2.74986 0
M  V30 4147 H 382.718 -3.27337 3.73047 0
M  V30 4148 H 377.974 -3.30562 5.14333 0
M  V30 4149 H 382.148 -3.30338 6.13066 0
M  V30 4150 H 379.775 -3.315 6.84114 0
M  V30 4151 N 381.35 -0.985608 -1.22978 0
M  V30 4152 C 382.627 -0.573599 -1.87001 0
M  V30 4153 C 383.007 0.949213 -1.88555 0
M  V30 4154 O 382.355 1.82811 -1.37086 0
M  V30 4155 C 382.565 -1.18564 -3.28243 0
M  V30 4156 C 383.913 -1.28163 -4.04796 0
M  V30 4157 O 384.937 -1.13949 -3.37482 0
M  V30 4158 O 383.796 -1.50832 -5.25273 0
M  V30 4159 H 380.89 -0.193868 -0.803955 0
M  V30 4160 H 383.436 -1.08102 -1.30813 0
M  V30 4161 H 382.208 -2.22758 -3.21706 0
M  V30 4162 H 381.831 -0.663363 -3.92027 0
M  V30 4163 N 382.828 1.3818 -0.7579 0
M  V30 4164 C 383.775 2.30416 -0.133057 0
M  V30 4165 C 384.745 1.50398 0.704957 0
M  V30 4166 O 385.93 1.79014 0.660192 0
M  V30 4167 C 383.07 3.36834 0.750813 0
M  V30 4168 C 382.183 4.31879 -0.102297 0
M  V30 4169 C 381.318 5.25368 0.784979 0
M  V30 4170 C 380.357 6.12058 -0.0715046 0
M  V30 4171 N 379.494 6.97832 0.772972 0
M  V30 4172 H 384.334 2.83274 -0.925186 0
M  V30 4173 H 381.871 1.39461 -0.467866 0
M  V30 4174 H 383.829 3.97145 1.27794 0
M  V30 4175 H 382.459 2.85374 1.50868 0
M  V30 4176 H 381.511 3.72991 -0.747095 0
M  V30 4177 H 382.823 4.92921 -0.763552 0
M  V30 4178 H 381.977 5.90818 1.37911 0
M  V30 4179 H 380.716 4.64703 1.47996 0
M  V30 4180 H 379.721 5.456 -0.678272 0
M  V30 4181 H 380.946 6.74793 -0.763606 0
M  V30 4182 H 378.892 6.3971 1.45282 0
M  V30 4183 H 378.809 7.55812 0.168709 0
M  V30 4184 H 380.077 7.67687 1.35194 0
M  V30 4185 N 384.306 0.507319 1.49211 0
M  V30 4186 C 385.555 -0.0368315 2.01666 0
M  V30 4187 C 385.868 -1.37459 1.39156 0
M  V30 4188 O 387.074 -2.00579 1.82976 0
M  V30 4189 C 385.53 -0.116089 3.59713 0
M  V30 4190 C 385.138 1.2154 4.31198 0
M  V30 4191 C 386.882 -0.610268 4.2009 0
M  V30 4192 C 384.789 1.09796 5.81119 0
M  V30 4193 H 383.719 -0.0175376 0.753796 0
M  V30 4194 H 386.37 0.647691 1.71689 0
M  V30 4195 H 384.752 -0.8652 3.86433 0
M  V30 4196 H 385.926 1.9783 4.16173 0
M  V30 4197 H 384.241 1.64352 3.82593 0
M  V30 4198 H 386.838 -0.715742 5.29888 0
M  V30 4199 H 387.181 -1.61064 3.8388 0
M  V30 4200 H 387.714 0.0824916 3.97714 0
M  V30 4201 H 384.453 2.0728 6.21864 0
M  V30 4202 H 383.973 0.376058 5.9862 0
M  V30 4203 H 385.652 0.779281 6.4229 0
M  V30 4204 N 385.784 -1.5574 0.241426 0
M  V30 4205 C 386.734 -2.17803 -0.674233 0
M  V30 4206 C 387.718 -1.13225 -1.14319 0
M  V30 4207 O 388.91 -1.39153 -1.09387 0
M  V30 4208 C 386.039 -2.87682 -1.87333 0
M  V30 4209 C 385.125 -3.99509 -1.42313 0
M  V30 4210 N 385.516 -5.01115 -0.686798 0
M  V30 4211 C 383.814 -4.11964 -1.70885 0
M  V30 4212 C 384.515 -5.79922 -0.454456 0
M  V30 4213 N 383.491 -5.34001 -1.01705 0
M  V30 4214 H 387.293 -2.93718 -0.103447 0
M  V30 4215 H 384.807 -1.62342 0.0435095 0
M  V30 4216 H 386.804 -3.3057 -2.54026 0
M  V30 4217 H 385.464 -2.13269 -2.4484 0
M  V30 4218 H 386.475 -5.16799 -0.337459 0
M  V30 4219 H 383.152 -3.48718 -2.2957 0
M  V30 4220 H 384.542 -6.71768 0.132992 0
M  V30 4221 N 387.262 0.0317525 -1.57568 0
M  V30 4222 C 388.487 0.738664 -1.938 0
M  V30 4223 C 388.912 1.68242 -0.841208 0
M  V30 4224 O 388.27 1.80157 0.203267 0
M  V30 4225 C 388.318 1.47417 -3.29091 0
M  V30 4226 O 387.422 2.5872 -3.2115 0
M  V30 4227 H 386.763 0.198856 -0.633524 0
M  V30 4228 H 389.293 -0.0119713 -2.04596 0
M  V30 4229 H 389.303 1.84468 -3.63917 0
M  V30 4230 H 387.978 0.781988 -4.08482 0
M  V30 4231 H 386.555 2.24231 -2.97951 0
M  V30 4232 N 388.74 1.54641 0.303973 0
M  V30 4233 C 389.968 1.77768 1.05858 0
M  V30 4234 C 390.383 0.535722 1.8104 0
M  V30 4235 O 389.74 -0.494337 1.75677 0
M  V30 4236 C 389.791 2.9834 2.04146 0
M  V30 4237 O 389.512 4.17736 1.32015 0
M  V30 4238 C 391.013 3.33832 2.91669 0
M  V30 4239 H 388.233 0.592961 0.314067 0
M  V30 4240 H 390.777 2.01583 0.344149 0
M  V30 4241 H 388.932 2.76742 2.71096 0
M  V30 4242 H 389.346 4.85693 1.97998 0
M  V30 4243 H 390.82 4.21448 3.56491 0
M  V30 4244 H 391.297 2.51857 3.59812 0
M  V30 4245 H 391.903 3.57579 2.30254 0
M  V30 4246 N 390.218 -0.567019 1.47046 0
M  V30 4247 C 391.464 -1.32658 1.53394 0
M  V30 4248 C 391.797 -1.93254 0.19148 0
M  V30 4249 O 391.072 -1.77338 -0.798844 0
M  V30 4250 C 391.355 -2.44412 2.64452 0
M  V30 4251 C 391.208 -1.88749 4.08282 0
M  V30 4252 C 392.527 -3.46387 2.71485 0
M  V30 4253 H 389.646 -0.48098 0.558415 0
M  V30 4254 H 392.288 -0.635481 1.79058 0
M  V30 4255 H 390.438 -3.03363 2.427 0
M  V30 4256 H 392.11 -1.34134 4.41368 0
M  V30 4257 H 390.353 -1.19481 4.17021 0
M  V30 4258 H 391.024 -2.69491 4.81745 0
M  V30 4259 H 393.5 -2.9734 2.91081 0
M  V30 4260 H 392.376 -4.2202 3.50985 0
M  V30 4261 H 392.637 -4.04616 1.78153 0
M  V30 4262 N 391.696 -1.35014 -0.812953 0
M  V30 4263 C 393.112 -1.14914 -1.10757 0
M  V30 4264 C 393.312 0.0426818 -2.01455 0
M  V30 4265 O 392.368 0.715212 -2.42159 0
M  V30 4266 C 393.681 -2.44911 -1.74468 0
M  V30 4267 C 395.229 -2.5106 -1.86917 0
M  V30 4268 C 395.704 -3.81085 -2.54044 0
M  V30 4269 N 397.195 -3.82301 -2.61535 0
M  V30 4270 C 397.93 -4.79634 -3.14227 0
M  V30 4271 N 397.426 -5.87353 -3.67407 0
M  V30 4272 N 399.219 -4.67078 -3.12721 0
M  V30 4273 H 391.37 -2.1136 -0.20989 0
M  V30 4274 H 393.633 -0.935128 -0.155692 0
M  V30 4275 H 393.339 -3.32267 -1.15289 0
M  V30 4276 H 393.213 -2.58989 -2.74234 0
M  V30 4277 H 395.6 -1.64137 -2.45241 0
M  V30 4278 H 395.681 -2.40901 -0.860242 0
M  V30 4279 H 395.325 -4.68402 -1.96372 0
M  V30 4280 H 395.255 -3.88529 -3.55461 0
M  V30 4281 H 397.746 -3.04465 -2.23851 0
M  V30 4282 H 398.059 -6.57624 -4.05894 0
M  V30 4283 H 396.404 -5.91054 -3.65623 0
M  V30 4284 H 399.595 -3.82067 -2.70449 0
M  V30 4285 H 399.768 -5.43098 -3.53481 0
M  V30 4286 N 393.175 1.03435 -1.18907 0
M  V30 4287 C 394.4 1.80919 -1.01406 0
M  V30 4288 C 394.825 1.83055 0.432721 0
M  V30 4289 O 394.183 1.25252 1.31079 0
M  V30 4290 C 394.231 3.24091 -1.58105 0
M  V30 4291 O 393.335 4.04434 -0.806669 0
M  V30 4292 H 392.676 0.558709 -0.358803 0
M  V30 4293 H 395.206 1.30223 -1.57807 0
M  V30 4294 H 395.216 3.74853 -1.61087 0
M  V30 4295 H 393.891 3.21851 -2.6341 0
M  V30 4296 H 392.468 3.63091 -0.849666 0
M  V30 4297 N 394.653 0.992116 1.22453 0
M  V30 4298 C 395.583 0.561677 2.26644 0
M  V30 4299 C 396.564 -0.411055 1.65059 0
M  V30 4300 O 397.749 -0.301861 1.9184 0
M  V30 4301 C 394.879 -0.125247 3.47074 0
M  V30 4302 C 393.833 0.765948 4.21091 0
M  V30 4303 C 393.159 -0.0538484 5.34673 0
M  V30 4304 C 394.459 2.06242 4.79856 0
M  V30 4305 H 396.153 1.43259 2.62902 0
M  V30 4306 H 393.699 0.690283 1.26377 0
M  V30 4307 H 395.652 -0.437764 4.1912 0
M  V30 4308 H 394.376 -1.03069 3.0991 0
M  V30 4309 H 393.035 1.0621 3.50878 0
M  V30 4310 H 392.683 -0.960188 4.9375 0
M  V30 4311 H 392.383 0.539415 5.85119 0
M  V30 4312 H 393.907 -0.360477 6.09535 0
M  V30 4313 H 395.321 1.8139 5.43848 0
M  V30 4314 H 393.718 2.60444 5.40638 0
M  V30 4315 H 394.788 2.74167 3.99951 0
M  V30 4316 N 396.131 -1.37776 0.765217 0
M  V30 4317 C 397.547 -1.53297 0.444108 0
M  V30 4318 C 397.747 -1.72515 -1.04119 0
M  V30 4319 O 396.803 -1.74278 -1.82711 0
M  V30 4320 C 398.116 -2.73328 1.25349 0
M  V30 4321 C 399.664 -2.87185 1.24473 0
M  V30 4322 C 400.139 -4.10191 2.03733 0
M  V30 4323 N 401.63 -4.17291 2.01053 0
M  V30 4324 C 402.365 -5.11488 2.59166 0
M  V30 4325 N 401.861 -6.11285 3.26041 0
M  V30 4326 N 403.654 -5.03924 2.49032 0
M  V30 4327 H 395.805 -1.23552 1.72768 0
M  V30 4328 H 398.068 -0.601103 0.733062 0
M  V30 4329 H 397.774 -2.6557 2.30577 0
M  V30 4330 H 397.648 -3.66834 0.87823 0
M  V30 4331 H 400.035 -2.94418 0.20047 0
M  V30 4332 H 400.116 -1.94657 1.65959 0
M  V30 4333 H 399.76 -4.0372 3.08176 0
M  V30 4334 H 399.69 -5.01821 1.59633 0
M  V30 4335 H 402.181 -3.45825 1.5236 0
M  V30 4336 H 402.494 -6.79678 3.67774 0
M  V30 4337 H 400.839 -6.11583 3.30138 0
M  V30 4338 H 404.03 -4.24902 1.96407 0
M  V30 4339 H 404.203 -5.77152 2.94617 0
M  V30 4340 N 397.609 -0.515225 -1.4894 0
M  V30 4341 C 398.834 0.022727 -2.07388 0
M  V30 4342 C 399.259 1.2876 -1.37122 0
M  V30 4343 O 398.617 1.76067 -0.432431 0
M  V30 4344 C 398.665 0.244869 -3.59768 0
M  V30 4345 O 397.769 1.31667 -3.90817 0
M  V30 4346 H 397.11 -0.0325506 -0.663202 0
M  V30 4347 H 399.64 -0.718918 -1.91553 0
M  V30 4348 H 399.65 0.47205 -4.0526 0
M  V30 4349 H 398.325 -0.679194 -4.10317 0
M  V30 4350 H 396.902 1.07331 -3.5712 0
M  V30 4351 N 399.087 1.5561 -0.249682 0
M  V30 4352 C 399.997 2.25143 0.659375 0
M  V30 4353 C 401.013 1.2685 1.19101 0
M  V30 4354 O 402.189 1.59732 1.22669 0
M  V30 4355 C 399.254 2.93945 1.8384 0
M  V30 4356 C 398.315 4.07655 1.34596 0
M  V30 4357 C 397.548 4.73167 2.46878 0
M  V30 4358 O 397.771 4.37768 3.65671 0
M  V30 4359 O 396.705 5.61623 2.16478 0
M  V30 4360 H 400.531 3.03545 0.0968698 0
M  V30 4361 H 398.116 1.49389 -0.018074 0
M  V30 4362 H 399.998 3.37271 2.52638 0
M  V30 4363 H 398.673 2.18481 2.38847 0
M  V30 4364 H 397.58 3.68839 0.625174 0
M  V30 4365 H 398.913 4.84946 0.841941 0
M  V30 4366 N 400.565 -0.0233959 1.57583 0
M  V30 4367 C 401.812 -0.713063 1.8953 0
M  V30 4368 C 402.14 -1.75056 0.847673 0
M  V30 4369 O 401.395 -1.95119 -0.150636 0
M  V30 4370 C 401.694 -1.41428 3.28227 0
M  V30 4371 C 401.36 -0.512222 4.47981 0
M  V30 4372 C 400.022 -0.263785 4.80476 0
M  V30 4373 C 402.374 0.110248 5.21083 0
M  V30 4374 C 399.702 0.615804 5.83459 0
M  V30 4375 C 402.054 0.977573 6.25001 0
M  V30 4376 C 400.718 1.23542 6.55968 0
M  V30 4377 H 399.988 -0.260928 0.69354 0
M  V30 4378 H 402.635 0.0271047 1.91481 0
M  V30 4379 H 400.94 -2.22791 3.22291 0
M  V30 4380 H 402.637 -1.95355 3.50196 0
M  V30 4381 H 399.227 -0.716013 4.22577 0
M  V30 4382 H 403.411 -0.0687137 4.96252 0
M  V30 4383 H 398.667 0.82382 6.05824 0
M  V30 4384 H 402.841 1.46638 6.80786 0
M  V30 4385 H 400.468 1.91871 7.35588 0
M  V30 4386 N 402.043 -1.548 -0.295768 0
M  V30 4387 C 402.99 -1.86113 -1.36494 0
M  V30 4388 C 403.96 -0.7105 -1.50137 0
M  V30 4389 O 405.145 -0.959626 -1.64912 0
M  V30 4390 C 402.285 -2.11861 -2.72413 0
M  V30 4391 C 401.398 -3.39471 -2.67177 0
M  V30 4392 C 400.533 -3.55035 -3.95125 0
M  V30 4393 C 399.572 -4.76418 -3.84308 0
M  V30 4394 N 398.709 -4.8876 -5.04042 0
M  V30 4395 H 403.549 -2.77314 -1.09091 0
M  V30 4396 H 401.086 -1.37315 -0.52753 0
M  V30 4397 H 403.044 -2.24786 -3.51464 0
M  V30 4398 H 401.674 -1.2392 -2.98066 0
M  V30 4399 H 400.726 -3.35139 -1.79962 0
M  V30 4400 H 402.038 -4.28646 -2.55076 0
M  V30 4401 H 401.192 -3.67653 -4.82614 0
M  V30 4402 H 399.931 -2.64002 -4.10066 0
M  V30 4403 H 398.936 -4.63827 -2.95202 0
M  V30 4404 H 400.161 -5.68863 -3.70906 0
M  V30 4405 H 398.107 -4.00652 -5.19436 0
M  V30 4406 H 398.024 -5.71945 -4.94384 0
M  V30 4407 H 399.292 -5.0574 -5.93167 0
M  V30 4408 N 403.521 0.559213 -1.47345 0
M  V30 4409 C 404.471 1.66192 -1.5609 0
M  V30 4410 C 405.455 1.55323 -0.419957 0
M  V30 4411 O 406.647 1.63839 -0.669762 0
M  V30 4412 C 403.776 3.0497 -1.57634 0
M  V30 4413 C 402.862 3.2105 -2.77106 0
M  V30 4414 N 403.253 3.07203 -4.01821 0
M  V30 4415 C 401.551 3.52046 -2.73825 0
M  V30 4416 C 402.252 3.25919 -4.81821 0
M  V30 4417 N 401.228 3.52161 -4.14106 0
M  V30 4418 H 405.03 1.54052 -2.5029 0
M  V30 4419 H 402.544 0.763914 -1.43311 0
M  V30 4420 H 404.541 3.84142 -1.61989 0
M  V30 4421 H 403.201 3.18224 -0.645281 0
M  V30 4422 H 404.212 2.84572 -4.32711 0
M  V30 4423 H 400.889 3.71839 -1.89848 0
M  V30 4424 H 402.279 3.20198 -5.90697 0
M  V30 4425 N 404.999 1.35443 0.805782 0
M  V30 4426 C 405.909 1.30546 1.94923 0
M  V30 4427 C 406.925 0.210233 1.72725 0
M  V30 4428 O 408.101 0.43975 1.9654 0
M  V30 4429 C 405.166 1.07782 3.29521 0
M  V30 4430 C 404.227 2.26625 3.64609 0
M  V30 4431 C 403.46 2.04938 4.92784 0
M  V30 4432 O 403.683 1.01624 5.61274 0
M  V30 4433 O 402.617 2.9232 5.26149 0
M  V30 4434 H 406.443 2.26779 2.02002 0
M  V30 4435 H 404.028 1.15823 0.943682 0
M  V30 4436 H 405.91 0.969392 4.10098 0
M  V30 4437 H 404.585 0.146003 3.23371 0
M  V30 4438 H 403.492 2.43033 2.84404 0
M  V30 4439 H 404.825 3.18257 3.75464 0
M  V30 4440 N 406.477 -1.02803 1.19454 0
M  V30 4441 C 407.424 -2.11099 0.933046 0
M  V30 4442 C 408.394 -1.65571 -0.132447 0
M  V30 4443 O 409.579 -1.90797 0.00987576 0
M  V30 4444 C 406.719 -3.41763 0.478747 0
M  V30 4445 C 405.832 -4.00833 1.6111 0
M  V30 4446 C 404.967 -5.19511 1.10825 0
M  V30 4447 C 404.006 -5.70639 2.21445 0
M  V30 4448 N 403.143 -6.80589 1.72461 0
M  V30 4449 H 407.983 -2.32804 1.86028 0
M  V30 4450 H 405.52 -1.14179 0.927441 0
M  V30 4451 H 407.478 -4.16736 0.196745 0
M  V30 4452 H 406.108 -3.20166 -0.411493 0
M  V30 4453 H 405.16 -3.23066 2.00829 0
M  V30 4454 H 406.472 -4.34794 2.4445 0
M  V30 4455 H 405.626 -6.01645 0.781533 0
M  V30 4456 H 404.365 -4.87086 0.244606 0
M  V30 4457 H 403.37 -4.87116 2.54947 0
M  V30 4458 H 404.595 -6.05102 3.08267 0
M  V30 4459 H 402.541 -6.50016 0.884056 0
M  V30 4460 H 402.458 -7.13681 2.49389 0
M  V30 4461 H 403.726 -7.66317 1.42755 0
M  V30 4462 N 407.956 -0.998596 -1.21925 0
M  V30 4463 C 409.181 -0.696015 -1.95372 0
M  V30 4464 C 409.606 0.733826 -1.73195 0
M  V30 4465 O 408.964 1.50242 -1.01474 0
M  V30 4466 C 409.012 -1.01466 -3.4603 0
M  V30 4467 O 408.116 -0.116415 -4.12236 0
M  V30 4468 H 407.457 -0.259938 -0.611006 0
M  V30 4469 H 409.987 -1.33711 -1.54863 0
M  V30 4470 H 409.997 -0.958855 -3.96573 0
M  V30 4471 H 408.672 -2.05653 -3.61497 0
M  V30 4472 H 407.249 -0.228193 -3.72201 0
M  V30 4473 N 409.434 1.37368 -0.772513 0
M  V30 4474 C 410.68 2.00423 -0.3467 0
M  V30 4475 C 411.035 1.60224 1.06518 0
M  V30 4476 O 410.328 0.838712 1.72268 0
M  V30 4477 C 410.522 3.54817 -0.428876 0
M  V30 4478 C 410.351 4.10011 -1.84719 0
M  V30 4479 C 409.121 4.40927 -2.46803 0
M  V30 4480 C 411.319 4.30955 -2.80681 0
M  V30 4481 N 409.301 4.8184 -3.80399 0
M  V30 4482 C 410.672 4.74486 -3.99078 0
M  V30 4483 C 412.727 4.1309 -2.77958 0
M  V30 4484 C 411.43 5.02023 -5.15136 0
M  V30 4485 C 413.456 4.41764 -3.9319 0
M  V30 4486 C 412.818 4.85535 -5.10328 0
M  V30 4487 H 408.917 0.762413 -0.173927 0
M  V30 4488 H 411.501 1.66666 -1.00651 0
M  V30 4489 H 409.672 3.87881 0.200757 0
M  V30 4490 H 411.404 4.04696 0.0190668 0
M  V30 4491 H 408.159 4.30033 -1.98415 0
M  V30 4492 H 408.583 5.06604 -4.49089 0
M  V30 4493 H 413.225 3.7842 -1.88568 0
M  V30 4494 H 410.943 5.35582 -6.05126 0
M  V30 4495 H 414.529 4.29528 -3.92425 0
M  V30 4496 H 413.409 5.07296 -5.98013 0
M  V30 4497 N 410.912 0.523116 1.48665 0
M  V30 4498 C 412.328 0.180511 1.58576 0
M  V30 4499 C 412.528 -1.31597 1.52592 0
M  V30 4500 O 411.584 -2.0937 1.4114 0
M  V30 4501 C 412.897 0.776949 2.90489 0
M  V30 4502 C 414.445 0.745058 3.04003 0
M  V30 4503 C 414.92 1.31995 4.38567 0
M  V30 4504 N 416.411 1.28162 4.45117 0
M  V30 4505 C 417.146 1.6964 5.47731 0
M  V30 4506 N 416.642 2.18816 6.57337 0
M  V30 4507 N 418.435 1.6092 5.38573 0
M  V30 4508 H 410.586 1.4958 1.50797 0
M  V30 4509 H 412.849 0.621772 0.715614 0
M  V30 4510 H 412.555 1.82732 3.00503 0
M  V30 4511 H 412.429 0.25007 3.7637 0
M  V30 4512 H 414.816 -0.296532 2.93606 0
M  V30 4513 H 414.897 1.30933 2.1975 0
M  V30 4514 H 414.541 2.36043 4.49718 0
M  V30 4515 H 414.471 0.731418 5.21496 0
M  V30 4516 H 416.962 0.92155 3.66491 0
M  V30 4517 H 417.275 2.48478 7.31764 0
M  V30 4518 H 415.62 2.22805 6.58318 0
M  V30 4519 H 418.811 1.22304 4.5184 0
M  V30 4520 H 418.984 1.93567 6.18414 0
M  V30 4521 N 412.39 -1.55475 0.257931 0
M  V30 4522 C 413.806 -1.59307 -0.0966563 0
M  V30 4523 C 414.006 -1.27514 -1.5602 0
M  V30 4524 O 413.062 -1.02774 -2.30637 0
M  V30 4525 C 414.375 -2.99552 0.262481 0
M  V30 4526 C 415.923 -3.1231 0.207683 0
M  V30 4527 C 416.398 -4.54793 0.541012 0
M  V30 4528 N 417.889 -4.6058 0.491921 0
M  V30 4529 C 418.624 -5.68825 0.722857 0
M  V30 4530 N 418.12 -6.85287 1.0175 0
M  V30 4531 N 419.913 -5.58296 0.652815 0
M  V30 4532 H 412.064 -1.74409 1.21224 0
M  V30 4533 H 414.327 -0.812424 0.48854 0
M  V30 4534 H 414.033 -3.27593 1.27967 0
M  V30 4535 H 413.907 -3.75019 -0.40508 0
M  V30 4536 H 416.294 -2.84044 -0.800195 0
M  V30 4537 H 416.375 -2.39095 0.909255 0
M  V30 4538 H 416.019 -4.83783 1.5465 0
M  V30 4539 H 415.949 -5.26285 -0.18216 0
M  V30 4540 H 418.44 -3.7691 0.273366 0
M  V30 4541 H 418.753 -7.63725 1.18084 0
M  V30 4542 H 417.098 -6.86945 1.05509 0
M  V30 4543 H 420.289 -4.66189 0.422592 0
M  V30 4544 H 420.462 -6.42582 0.836182 0
M  V30 4545 N 413.868 0.0150385 -1.57593 0
M  V30 4546 C 414.8 1.03912 -2.04291 0
M  V30 4547 C 415.813 1.31618 -0.958146 0
M  V30 4548 O 417.002 1.28859 -1.23522 0
M  V30 4549 C 414.102 2.37749 -2.41514 0
M  V30 4550 C 413.275 2.29198 -3.72541 0
M  V30 4551 C 412.334 3.45598 -3.96797 0
M  V30 4552 O 411.36 3.24461 -4.67668 0
M  V30 4553 N 412.562 4.67945 -3.43523 0
M  V30 4554 H 415.327 0.64099 -2.92765 0
M  V30 4555 H 412.888 0.20272 -1.60626 0
M  V30 4556 H 414.88 3.14364 -2.54867 0
M  V30 4557 H 413.45 2.69357 -1.58637 0
M  V30 4558 H 412.67 1.3759 -3.69408 0
M  V30 4559 H 413.958 2.20642 -4.5847 0
M  V30 4560 H 413.356 4.88017 -2.86104 0
M  V30 4561 H 411.913 5.41878 -3.62232 0
M  V30 4562 N 415.346 1.54954 0.287554 0
M  V30 4563 C 416.293 1.86834 1.35505 0
M  V30 4564 C 417.263 0.718452 1.49758 0
M  V30 4565 O 418.448 0.968358 1.644 0
M  V30 4566 C 415.588 2.13303 2.71286 0
M  V30 4567 C 414.701 3.40883 2.65373 0
M  V30 4568 C 413.836 3.57125 3.93236 0
M  V30 4569 C 412.875 4.78449 3.81776 0
M  V30 4570 N 412.012 4.91426 5.01443 0
M  V30 4571 H 416.852 2.77889 1.07619 0
M  V30 4572 H 414.389 1.37593 0.520241 0
M  V30 4573 H 416.347 2.26646 3.50267 0
M  V30 4574 H 414.977 1.25499 2.97405 0
M  V30 4575 H 414.029 3.36088 1.78182 0
M  V30 4576 H 415.341 4.29993 2.52799 0
M  V30 4577 H 414.495 3.70207 4.80658 0
M  V30 4578 H 413.234 2.66173 4.0866 0
M  V30 4579 H 412.239 4.65386 2.92738 0
M  V30 4580 H 413.464 5.70822 3.67884 0
M  V30 4581 H 411.41 4.03401 5.17304 0
M  V30 4582 H 411.327 5.74559 4.91343 0
M  V30 4583 H 412.595 5.08879 5.90477 0
M  V30 4584 N 416.824 -0.551391 1.4764 0
M  V30 4585 C 418.073 -1.30467 1.53822 0
M  V30 4586 C 418.386 -1.94495 0.207661 0
M  V30 4587 O 419.592 -2.71099 0.147533 0
M  V30 4588 C 418.048 -2.36616 2.71184 0
M  V30 4589 C 417.656 -1.78754 4.10793 0
M  V30 4590 C 419.4 -3.13088 2.86663 0
M  V30 4591 C 417.307 -2.82717 5.19447 0
M  V30 4592 H 416.237 -0.490584 0.572576 0
M  V30 4593 H 418.888 -0.58494 1.73927 0
M  V30 4594 H 417.27 -3.11529 2.4447 0
M  V30 4595 H 418.444 -1.10173 4.47435 0
M  V30 4596 H 416.759 -1.14846 4.00249 0
M  V30 4597 H 419.356 -3.90736 3.65007 0
M  V30 4598 H 419.699 -3.67635 1.95321 0
M  V30 4599 H 420.232 -2.45288 3.13175 0
M  V30 4600 H 416.971 -2.33018 6.12685 0
M  V30 4601 H 416.491 -3.4969 4.87316 0
M  V30 4602 H 418.17 -3.46102 5.46646 0
M  V30 4603 N 418.302 -1.35869 -0.798587 0
M  V30 4604 C 419.527 -1.32883 -1.59238 0
M  V30 4605 C 419.952 0.0894587 -1.87887 0
M  V30 4606 O 419.31 1.05869 -1.47178 0
M  V30 4607 C 419.358 -2.14892 -2.89575 0
M  V30 4608 O 418.462 -1.53512 -3.82763 0
M  V30 4609 H 417.803 -0.455236 -0.48338 0
M  V30 4610 H 420.333 -1.79024 -0.990539 0
M  V30 4611 H 420.343 -2.27139 -3.38928 0
M  V30 4612 H 419.018 -3.17998 -2.68049 0
M  V30 4613 H 417.595 -1.50153 -3.41334 0
M  V30 4614 N 419.78 1.02168 -1.19998 0
M  V30 4615 C 421.028 1.75338 -1.00504 0
M  V30 4616 C 421.349 1.89387 0.464506 0
M  V30 4617 O 420.619 1.43268 1.33608 0
M  V30 4618 H 419.199 0.649564 -0.368885 0
M  V30 4619 H 421.861 1.23205 -1.51018 0
M  V30 4620 H 420.957 2.75892 -1.45912 0
M  V30 4621 N 421.258 1.00505 1.21394 0
M  V30 4622 C 422.486 0.706609 1.9446 0
M  V30 4623 C 422.901 -0.73081 1.74082 0
M  V30 4624 O 422.258 -1.49446 1.04747 0
M  V30 4625 C 422.309 1.01824 3.46863 0
M  V30 4626 O 422.03 2.39919 3.66566 0
M  V30 4627 C 423.531 0.739216 4.37093 0
M  V30 4628 H 420.751 0.260394 0.618414 0
M  V30 4629 H 423.295 1.34311 1.54211 0
M  V30 4630 H 421.45 0.427343 3.85036 0
M  V30 4631 H 421.864 2.50784 4.6066 0
M  V30 4632 H 423.338 1.00744 5.42729 0
M  V30 4633 H 423.815 -0.326746 4.37983 0
M  V30 4634 H 424.421 1.31173 4.04566 0
M  V30 4635 N 422.737 -1.36956 0.779787 0
M  V30 4636 C 424.153 -1.52817 0.460342 0
M  V30 4637 C 424.353 -1.7361 -1.02283 0
M  V30 4638 O 423.409 -1.76207 -1.80852 0
M  V30 4639 C 424.722 -2.71983 1.28241 0
M  V30 4640 C 426.27 -2.85849 1.27512 0
M  V30 4641 C 426.745 -4.08008 2.08072 0
M  V30 4642 N 428.236 -4.15135 2.05467 0
M  V30 4643 C 428.971 -5.08711 2.64577 0
M  V30 4644 N 428.467 -6.07792 3.32506 0
M  V30 4645 N 430.26 -5.01254 2.54363 0
M  V30 4646 H 422.411 -1.21713 1.74068 0
M  V30 4647 H 424.674 -0.593294 0.739396 0
M  V30 4648 H 424.38 -2.63109 2.33381 0
M  V30 4649 H 424.254 -3.65882 0.917088 0
M  V30 4650 H 426.641 -2.94189 0.231686 0
M  V30 4651 H 426.722 -1.92886 1.68014 0
M  V30 4652 H 426.366 -4.00429 3.12441 0
M  V30 4653 H 426.296 -5.001 1.64947 0
M  V30 4654 H 428.787 -3.44189 1.5602 0
M  V30 4655 H 429.1 -6.75739 3.74963 0
M  V30 4656 H 427.445 -6.08047 3.36606 0
M  V30 4657 H 430.636 -4.22795 2.00902 0
M  V30 4658 H 430.809 -5.73995 3.00722 0
M  V30 4659 N 424.215 -0.530993 -1.48385 0
M  V30 4660 C 425.125 0.23503 -2.3342 0
M  V30 4661 C 426.141 0.93801 -1.46552 0
M  V30 4662 O 427.317 0.912745 -1.7953 0
M  V30 4663 C 424.382 1.26778 -3.22689 0
M  V30 4664 C 423.443 0.575038 -4.25431 0
M  V30 4665 C 422.676 1.55858 -5.10435 0
M  V30 4666 O 422.899 2.79129 -4.97437 0
M  V30 4667 O 421.833 1.09742 -5.91811 0
M  V30 4668 H 425.659 -0.461794 -3.00169 0
M  V30 4669 H 423.244 -0.291903 -1.46521 0
M  V30 4670 H 425.126 1.86457 -3.77904 0
M  V30 4671 H 423.801 1.94699 -2.586 0
M  V30 4672 H 422.708 -0.0622782 -3.74048 0
M  V30 4673 H 424.041 -0.062253 -4.92161 0
M  V30 4674 N 425.693 1.55336 -0.266172 0
M  V30 4675 C 427.109 1.59356 0.0882065 0
M  V30 4676 C 427.309 1.2834 1.55342 0
M  V30 4677 O 426.365 1.03996 2.30089 0
M  V30 4678 C 427.678 2.99409 -0.278364 0
M  V30 4679 C 429.226 3.12196 -0.224243 0
M  V30 4680 C 429.701 4.545 -0.565123 0
M  V30 4681 N 431.192 4.60313 -0.51634 0
M  V30 4682 C 431.927 5.68434 -0.753013 0
M  V30 4683 N 431.423 6.84738 -1.05383 0
M  V30 4684 N 433.216 5.57942 -0.682414 0
M  V30 4685 H 425.367 1.73764 -1.22147 0
M  V30 4686 H 427.63 0.809822 -0.492841 0
M  V30 4687 H 427.336 3.2691 -1.29703 0
M  V30 4688 H 427.21 3.75228 0.385186 0
M  V30 4689 H 429.597 2.84464 0.78512 0
M  V30 4690 H 429.678 2.38609 -0.921922 0
M  V30 4691 H 429.322 4.82956 -1.57213 0
M  V30 4692 H 429.252 5.26374 0.154248 0
M  V30 4693 H 431.743 3.7676 -0.29335 0
M  V30 4694 H 432.056 7.63088 -1.22133 0
M  V30 4695 H 430.401 6.86375 -1.09151 0
M  V30 4696 H 433.592 4.65958 -0.44731 0
M  V30 4697 H 433.765 6.4213 -0.870248 0
M  V30 4698 N 427.171 -0.0066808 1.57599 0
M  V30 4699 C 428.118 -1.00024 2.08 0
M  V30 4700 C 429.088 -1.34549 0.973943 0
M  V30 4701 O 430.273 -1.44502 1.24595 0
M  V30 4702 C 427.413 -2.2891 2.58252 0
M  V30 4703 C 426.526 -2.00346 3.82734 0
M  V30 4704 C 425.661 -3.23265 4.21513 0
M  V30 4705 C 424.7 -2.90357 5.3885 0
M  V30 4706 N 423.837 -4.05793 5.72954 0
M  V30 4707 H 428.677 -0.563499 2.92624 0
M  V30 4708 H 426.214 -0.266592 1.44664 0
M  V30 4709 H 428.172 -3.04247 2.85464 0
M  V30 4710 H 426.802 -2.70265 1.76512 0
M  V30 4711 H 425.854 -1.15406 3.62471 0
M  V30 4712 H 427.166 -1.72086 4.68175 0
M  V30 4713 H 426.32 -4.06953 4.49971 0
M  V30 4714 H 425.059 -3.54657 3.34768 0
M  V30 4715 H 424.064 -2.05075 5.10122 0
M  V30 4716 H 425.289 -2.60219 6.27266 0
M  V30 4717 H 423.235 -4.37094 4.89167 0
M  V30 4718 H 423.152 -3.81034 6.52954 0
M  V30 4719 H 424.42 -4.90289 6.06001 0
M  V30 4720 N 428.649 -1.55105 -0.279332 0
M  V30 4721 C 429.612 -1.86783 -1.32834 0
M  V30 4722 C 430.612 -0.74199 -1.42657 0
M  V30 4723 O 431.802 -1.0102 -1.41918 0
M  V30 4724 C 428.934 -2.06746 -2.71052 0
M  V30 4725 H 430.127 -2.8055 -1.05979 0
M  V30 4726 H 427.68 -1.47499 -0.517087 0
M  V30 4727 H 428.415 -1.15339 -3.03097 0
M  V30 4728 H 428.2 -2.88711 -2.65309 0
M  V30 4729 H 429.69 -2.32549 -3.46858 0
M  V30 4730 N 430.127 0.543554 -1.4793 0
M  V30 4731 C 431.09 1.63156 -1.60975 0
M  V30 4732 C 432.09 1.53346 -0.483899 0
M  V30 4733 O 433.28 1.5726 -0.749339 0
M  V30 4734 C 430.412 3.02743 -1.56716 0
M  V30 4735 H 431.605 1.52934 -2.57975 0
M  V30 4736 H 429.158 0.764557 -1.36324 0
M  V30 4737 H 429.893 3.18484 -0.611418 0
M  V30 4738 H 429.678 3.11272 -2.38438 0
M  V30 4739 H 431.168 3.81871 -1.6901 0
M  V30 4740 N 431.605 1.3629 0.791371 0
M  V30 4741 C 432.833 1.33562 1.58016 0
M  V30 4742 C 433.248 -0.0835616 1.88615 0
M  V30 4743 O 432.605 -1.0399 1.49974 0
M  V30 4744 C 432.656 2.15517 2.90232 0
M  V30 4745 O 432.377 3.51902 2.60953 0
M  V30 4746 C 433.878 2.20546 3.84544 0
M  V30 4747 H 431.098 0.458226 0.490173 0
M  V30 4748 H 433.642 1.79361 0.982345 0
M  V30 4749 H 431.797 1.73278 3.46487 0
M  V30 4750 H 432.211 3.94644 3.4548 0
M  V30 4751 H 433.685 2.82252 4.74382 0
M  V30 4752 H 434.162 1.20838 4.2225 0
M  V30 4753 H 434.768 2.63013 3.34222 0
M  V30 4754 N 433.083 -1.0153 1.20538 0
M  V30 4755 C 434.311 -1.78746 1.04199 0
M  V30 4756 C 434.726 -1.84323 -0.408733 0
M  V30 4757 O 434.083 -1.29714 -1.28377 0
M  V30 4758 C 434.134 -3.23152 1.62035 0
M  V30 4759 O 433.855 -3.17918 3.0143 0
M  V30 4760 C 435.356 -4.16911 1.50666 0
M  V30 4761 H 432.576 -0.56208 0.366479 0
M  V30 4762 H 435.12 -1.27794 1.59653 0
M  V30 4763 H 433.275 -3.71248 1.10697 0
M  V30 4764 H 433.689 -4.08567 3.28897 0
M  V30 4765 H 435.163 -5.16072 1.95892 0
M  V30 4766 H 435.64 -4.36791 0.459363 0
M  V30 4767 H 436.246 -3.74698 2.01201 0
M  V30 4768 N 434.561 -1.01147 -1.20859 0
M  V30 4769 C 435.491 -0.597663 -2.25722 0
M  V30 4770 C 436.472 0.384744 -1.65692 0
M  V30 4771 O 437.657 0.271303 -1.92296 0
M  V30 4772 C 434.787 0.0700149 -3.47229 0
M  V30 4773 C 433.741 -0.832843 -4.19819 0
M  V30 4774 C 433.067 -0.0312202 -5.34691 0
M  V30 4775 C 434.367 -2.1385 -4.76514 0
M  V30 4776 H 436.061 -1.47423 -2.60589 0
M  V30 4777 H 433.607 -0.710301 -1.25263 0
M  V30 4778 H 435.56 0.37103 -4.19763 0
M  V30 4779 H 434.284 0.981259 -3.11511 0
M  V30 4780 H 432.943 -1.11778 -3.49144 0
M  V30 4781 H 432.591 0.881515 -4.95215 0
M  V30 4782 H 432.291 -0.632434 -5.84187 0
M  V30 4783 H 433.815 0.26346 -6.10031 0
M  V30 4784 H 435.229 -1.9002 -5.40893 0
M  V30 4785 H 433.626 -2.69012 -5.36426 0
M  V30 4786 H 434.696 -2.80495 -3.95538 0
M  V30 4787 N 436.039 1.36541 -0.78704 0
M  V30 4788 C 437.287 1.98911 -0.357633 0
M  V30 4789 C 437.608 1.62778 1.07371 0
M  V30 4790 O 436.878 0.900612 1.73971 0
M  V30 4791 H 435.458 0.735734 -0.129246 0
M  V30 4792 H 438.12 1.66776 -1.00855 0
M  V30 4793 H 437.216 3.08874 -0.447549 0
M  V30 4794 N 437.518 0.538854 1.48102 0
M  V30 4795 C 438.448 -0.207654 2.32575 0
M  V30 4796 C 439.429 -0.926559 1.4265 0
M  V30 4797 O 440.614 -0.91061 1.71527 0
M  V30 4798 C 437.744 -1.24957 3.24042 0
M  V30 4799 C 436.698 -0.648263 4.23062 0
M  V30 4800 C 436.024 -1.79348 5.03725 0
M  V30 4801 C 437.324 0.385897 5.20872 0
M  V30 4802 H 439.018 0.497534 2.95237 0
M  V30 4803 H 436.564 0.240715 1.41974 0
M  V30 4804 H 438.517 -1.77983 3.81969 0
M  V30 4805 H 437.241 -1.98446 2.59397 0
M  V30 4806 H 435.9 -0.139452 3.66335 0
M  V30 4807 H 435.548 -2.51696 4.35498 0
M  V30 4808 H 435.248 -1.39702 5.70751 0
M  V30 4809 H 436.772 -2.32735 5.64506 0
M  V30 4810 H 438.186 -0.057607 5.73271 0
M  V30 4811 H 436.583 0.700227 5.96001 0
M  V30 4812 H 437.653 1.28848 4.67468 0
M  V30 4813 N 438.996 -1.55193 0.274407 0
M  V30 4814 C 440.245 -1.98758 -0.343213 0
M  V30 4815 C 440.558 -1.16624 -1.5703 0
M  V30 4816 O 441.764 -1.5033 -2.26082 0
M  V30 4817 C 440.22 -3.53759 -0.661996 0
M  V30 4818 C 439.828 -4.4467 0.54524 0
M  V30 4819 C 441.572 -4.05916 -1.24228 0
M  V30 4820 C 439.479 -5.91058 0.201084 0
M  V30 4821 H 438.409 -0.742353 -0.132014 0
M  V30 4822 H 441.06 -1.79545 0.378948 0
M  V30 4823 H 439.442 -3.68772 -1.44304 0
M  V30 4824 H 440.616 -4.41426 1.32212 0
M  V30 4825 H 438.931 -4.03143 1.04232 0
M  V30 4826 H 441.528 -5.12831 -1.51357 0
M  V30 4827 H 441.871 -3.54908 -2.17592 0
M  V30 4828 H 442.404 -3.9434 -0.523542 0
M  V30 4829 H 439.143 -6.46161 1.10258 0
M  V30 4830 H 438.663 -5.97373 -0.539045 0
M  V30 4831 H 440.342 -6.46669 -0.206954 0
M  V30 4832 N 440.474 -0.00167713 -1.576 0
M  V30 4833 C 441.404 0.988091 -2.11563 0
M  V30 4834 C 442.385 1.35736 -1.02517 0
M  V30 4835 O 443.57 1.44082 -1.30208 0
M  V30 4836 C 440.7 2.27941 -2.62031 0
M  V30 4837 C 439.654 2.0517 -3.75619 0
M  V30 4838 C 438.98 3.4033 -4.12407 0
M  V30 4839 C 440.28 1.41294 -5.02825 0
M  V30 4840 H 441.974 0.538771 -2.94513 0
M  V30 4841 H 439.52 0.257712 -1.41675 0
M  V30 4842 H 441.473 2.97539 -2.9841 0
M  V30 4843 H 440.197 2.74989 -1.76205 0
M  V30 4844 H 438.856 1.37998 -3.39635 0
M  V30 4845 H 438.504 3.85085 -3.23603 0
M  V30 4846 H 438.204 3.25909 -4.88935 0
M  V30 4847 H 439.728 4.1124 -4.51347 0
M  V30 4848 H 441.142 2.00851 -5.36965 0
M  V30 4849 H 439.539 1.37356 -5.84169 0
M  V30 4850 H 440.609 0.382362 -4.8339 0
M  V30 4851 N 441.952 1.55251 0.271103 0
M  V30 4852 C 443.2 1.75599 1.00047 0
M  V30 4853 C 443.521 0.561188 1.8675 0
M  V30 4854 O 442.791 -0.423846 1.9126 0
M  V30 4855 H 441.371 0.647562 0.372387 0
M  V30 4856 H 444.033 1.92656 0.294876 0
M  V30 4857 H 443.129 2.65766 1.6363 0
M  V30 4858 N 443.43 -0.535701 1.48216 0
M  V30 4859 C 444.393 -1.623 1.61838 0
M  V30 4860 C 445.393 -1.53087 0.492024 0
M  V30 4861 O 446.583 -1.5686 0.757668 0
M  V30 4862 C 443.715 -3.01907 1.58319 0
M  V30 4863 H 444.908 -1.51564 2.58783 0
M  V30 4864 H 442.461 -0.757317 1.36727 0
M  V30 4865 H 443.196 -3.18155 0.628299 0
M  V30 4866 H 442.981 -3.10003 2.40085 0
M  V30 4867 H 444.471 -3.80969 1.71033 0
M  V30 4868 N 444.908 -1.36708 -0.784132 0
M  V30 4869 C 446.155 -1.31231 -1.54222 0
M  V30 4870 C 446.483 0.106864 -1.94206 0
M  V30 4871 O 445.738 1.07734 -1.63376 0
M  V30 4872 C 446.037 -2.18571 -2.82774 0
M  V30 4873 C 445.703 -3.67039 -2.61903 0
M  V30 4874 C 444.365 -4.07503 -2.55919 0
M  V30 4875 C 446.717 -4.61149 -2.4288 0
M  V30 4876 C 444.045 -5.40211 -2.28886 0
M  V30 4877 C 446.397 -5.94081 -2.17373 0
M  V30 4878 C 445.061 -6.33664 -2.09825 0
M  V30 4879 H 444.331 -0.48021 -0.56434 0
M  V30 4880 H 446.978 -1.68807 -0.904233 0
M  V30 4881 H 445.283 -1.73949 -3.51068 0
M  V30 4882 H 446.98 -2.11655 -3.40592 0
M  V30 4883 H 443.57 -3.34941 -2.67418 0
M  V30 4884 H 447.754 -4.30756 -2.46501 0
M  V30 4885 H 443.01 -5.69855 -2.21529 0
M  V30 4886 H 447.184 -6.66566 -2.01649 0
M  V30 4887 H 444.811 -7.36423 -1.88641 0
M  V30 4888 N 446.386 1.0089 -1.21074 0
M  V30 4889 C 447.632 1.74866 -1.02712 0
M  V30 4890 C 447.965 1.89178 0.438787 0
M  V30 4891 O 447.24 1.42325 1.32567 0
M  V30 4892 C 447.523 3.16347 -1.72036 0
M  V30 4893 C 447.376 3.09782 -3.26121 0
M  V30 4894 C 448.695 4.15187 -1.45973 0
M  V30 4895 H 445.814 0.634736 -0.374539 0
M  V30 4896 H 448.456 1.17646 -1.49196 0
M  V30 4897 H 446.606 3.65201 -1.32517 0
M  V30 4898 H 448.278 2.68673 -3.74983 0
M  V30 4899 H 446.521 2.46982 -3.56626 0
M  V30 4900 H 447.192 4.09829 -3.6979 0
M  V30 4901 H 449.668 3.75022 -1.80272 0
M  V30 4902 H 448.544 5.12331 -1.96999 0
M  V30 4903 H 448.805 4.40386 -0.388924 0
M  V30 4904 N 447.864 1.01787 1.20321 0
M  V30 4905 C 449.113 0.703249 1.89043 0
M  V30 4906 C 449.426 -0.770445 1.79787 0
M  V30 4907 O 450.632 -1.19767 2.43656 0
M  V30 4908 C 449.088 1.20749 3.3904 0
M  V30 4909 C 448.696 2.70817 3.56878 0
M  V30 4910 C 450.44 0.968352 4.13308 0
M  V30 4911 C 448.347 3.14716 5.00708 0
M  V30 4912 H 447.277 0.259354 0.707991 0
M  V30 4913 H 449.928 1.23072 1.36108 0
M  V30 4914 H 448.31 0.607989 3.91305 0
M  V30 4915 H 449.484 3.36327 3.14993 0
M  V30 4916 H 447.799 2.92888 2.95983 0
M  V30 4917 H 450.396 1.27173 5.19356 0
M  V30 4918 H 450.739 -0.095149 4.16191 0
M  V30 4919 H 451.272 1.53129 3.67146 0
M  V30 4920 H 448.011 4.20347 5.02979 0
M  V30 4921 H 447.531 2.53927 5.43398 0
M  V30 4922 H 449.21 3.07426 5.69296 0
M  V30 4923 N 449.342 -1.36122 0.79427 0
M  V30 4924 C 450.582 -2.00942 0.374376 0
M  V30 4925 C 450.946 -1.61666 -1.03577 0
M  V30 4926 O 452.147 -2.19113 -1.55701 0
M  V30 4927 C 450.418 -3.53323 0.538327 0
M  V30 4928 S 451.977 -4.38311 0.20703 0
M  V30 4929 H 448.795 -0.696515 0.142785 0
M  V30 4930 H 451.397 -1.65929 1.03382 0
M  V30 4931 H 450.101 -3.79395 1.56484 0
M  V30 4932 H 449.632 -3.93162 -0.136882 0
M  V30 4933 H 451.647 -4.8623 -0.989695 0
M  V30 4934 N 450.82 -0.546701 -1.47814 0
M  V30 4935 C 452.066 -0.0269594 -2.03382 0
M  V30 4936 C 452.421 1.30406 -1.41464 0
M  V30 4937 O 451.714 1.8332 -0.557151 0
M  V30 4938 C 451.908 0.134869 -3.57145 0
M  V30 4939 C 451.737 -1.17891 -4.33972 0
M  V30 4940 C 450.507 -1.74336 -4.74273 0
M  V30 4941 C 452.705 -2.09361 -4.69758 0
M  V30 4942 N 450.687 -2.99829 -5.35701 0
M  V30 4943 C 452.058 -3.19431 -5.31379 0
M  V30 4944 C 454.113 -2.09484 -4.51687 0
M  V30 4945 C 452.816 -4.2971 -5.76838 0
M  V30 4946 C 454.842 -3.18767 -4.98138 0
M  V30 4947 C 454.204 -4.27557 -5.59799 0
M  V30 4948 H 450.303 -0.0517733 -0.780284 0
M  V30 4949 H 452.887 -0.731673 -1.80429 0
M  V30 4950 H 451.058 0.80869 -3.79888 0
M  V30 4951 H 452.79 0.655726 -3.99352 0
M  V30 4952 H 449.545 -1.28265 -4.559 0
M  V30 4953 H 449.969 -3.63765 -5.70968 0
M  V30 4954 H 454.611 -1.26663 -4.03381 0
M  V30 4955 H 452.329 -5.13297 -6.24141 0
M  V30 4956 H 455.915 -3.19937 -4.85934 0
M  V30 4957 H 454.795 -5.10725 -5.95088 0
M  V30 4958 N 452.299 1.55045 -0.282633 0
M  V30 4959 C 453.229 2.2579 0.595066 0
M  V30 4960 C 454.21 1.25074 1.15284 0
M  V30 4961 O 455.395 1.5381 1.18559 0
M  V30 4962 C 452.525 2.98472 1.77572 0
M  V30 4963 C 451.479 4.0618 1.34914 0
M  V30 4964 C 450.805 4.66477 2.6135 0
M  V30 4965 C 452.105 5.1996 0.493821 0
M  V30 4966 H 453.799 2.994 0.00505653 0
M  V30 4967 H 451.345 1.44 0.000992001 0
M  V30 4968 H 453.298 3.46677 2.39568 0
M  V30 4969 H 452.022 2.2241 2.39168 0
M  V30 4970 H 450.681 3.58797 0.752338 0
M  V30 4971 H 450.329 3.87074 3.2122 0
M  V30 4972 H 450.029 5.39207 2.33516 0
M  V30 4973 H 451.553 5.17435 3.24181 0
M  V30 4974 H 452.967 5.64172 1.01898 0
M  V30 4975 H 451.364 5.99299 0.310047 0
M  V30 4976 H 452.434 4.82462 -0.485593 0
M  V30 4977 N 453.777 0.010035 1.57597 0
M  V30 4978 C 455.188 -0.531426 1.78977 0
M  V30 4979 C 455.539 -1.73375 0.918454 0
M  V30 4980 O 454.664 -2.16047 0.123635 0
M  V30 4981 C 455.259 -0.97086 3.24592 0
M  V30 4982 C 453.818 -1.45756 3.47033 0
M  V30 4983 C 452.965 -0.413384 2.74201 0
M  V30 4984 H 455.916 0.236166 1.56933 0
M  V30 4985 H 455.937 -1.83633 3.33255 0
M  V30 4986 H 455.449 -0.0955893 3.87982 0
M  V30 4987 H 453.55 -2.35339 2.88871 0
M  V30 4988 H 453.663 -1.4781 4.55729 0
M  V30 4989 H 452.027 -0.877266 2.39115 0
M  V30 4990 H 452.81 0.453092 3.40297 0
M  V30 4991 N 455.255 -1.55392 -0.262866 0
M  V30 4992 C 456.502 -1.76476 -0.993109 0
M  V30 4993 C 456.83 -0.571479 -1.85915 0
M  V30 4994 O 456.085 0.445733 -1.90556 0
M  V30 4995 C 456.384 -3.02889 -1.89718 0
M  V30 4996 C 456.05 -4.34974 -1.18781 0
M  V30 4997 C 454.712 -4.7087 -0.991699 0
M  V30 4998 C 457.064 -5.16695 -0.683798 0
M  V30 4999 C 454.392 -5.86036 -0.279024 0
M  V30 5000 C 456.744 -6.32598 0.0153327 0
M  V30 5001 C 455.408 -6.67127 0.223062 0
M  V30 5002 H 454.678 -0.64577 -0.363404 0
M  V30 5003 H 457.325 -1.89664 -0.264525 0
M  V30 5004 H 455.63 -2.84644 -2.6923 0
M  V30 5005 H 457.327 -3.16399 -2.46359 0
M  V30 5006 H 453.917 -4.06765 -1.35058 0
M  V30 5007 H 458.101 -4.8943 -0.8229 0
M  V30 5008 H 453.357 -6.11306 -0.107456 0
M  V30 5009 H 457.531 -6.95171 0.413584 0
M  V30 5010 H 455.158 -7.56216 0.777265 0
M  V30 5011 N 456.733 0.527833 -1.48498 0
M  V30 5012 C 457.98 1.28354 -1.56625 0
M  V30 5013 C 458.308 1.93 -0.241096 0
M  V30 5014 O 457.563 1.79967 0.768798 0
M  V30 5015 C 457.862 2.39275 -2.65485 0
M  V30 5016 C 457.528 1.92268 -4.07853 0
M  V30 5017 C 456.19 1.79166 -4.46602 0
M  V30 5018 C 458.542 1.56771 -4.97064 0
M  V30 5019 C 455.87 1.28905 -5.72364 0
M  V30 5020 C 458.222 1.07972 -6.23318 0
M  V30 5021 C 456.886 0.934887 -6.60921 0
M  V30 5022 H 456.156 0.469682 -0.573131 0
M  V30 5023 H 458.803 0.588781 -1.82224 0
M  V30 5024 H 457.108 3.1443 -2.33754 0
M  V30 5025 H 458.805 2.974 -2.68988 0
M  V30 5026 H 455.395 2.03417 -3.77252 0
M  V30 5027 H 459.579 1.65753 -4.67803 0
M  V30 5028 H 454.835 1.16381 -6.00221 0
M  V30 5029 H 459.009 0.795775 -6.91838 0
M  V30 5030 H 456.636 0.543231 -7.58257 0
M  V30 5031 N 458.211 1.37122 0.776871 0
M  V30 5032 C 459.457 1.32243 1.53752 0
M  V30 5033 C 459.79 -0.0944745 1.9397 0
M  V30 5034 O 459.065 -1.05068 1.6368 0
M  V30 5035 C 459.348 2.25681 2.80607 0
M  V30 5036 C 459.201 3.76127 2.46676 0
M  V30 5037 C 460.52 2.17657 3.82509 0
M  V30 5038 H 457.639 0.481704 0.557791 0
M  V30 5039 H 460.281 1.6778 0.891612 0
M  V30 5040 H 458.431 1.95505 3.35723 0
M  V30 5041 H 460.103 4.16877 1.97513 0
M  V30 5042 H 458.346 3.94946 1.79443 0
M  V30 5043 H 459.017 4.36933 3.37333 0
M  V30 5044 H 461.493 2.44245 3.36873 0
M  V30 5045 H 460.369 2.85185 4.69 0
M  V30 5046 H 460.63 1.16785 4.26396 0
M  V30 5047 N 459.689 -1.00246 1.21608 0
M  V30 5048 C 460.636 -2.09073 0.977613 0
M  V30 5049 C 461.606 -1.65815 -0.097297 0
M  V30 5050 O 462.791 -1.90734 0.0503445 0
M  V30 5051 C 459.931 -3.40671 0.551133 0
M  V30 5052 C 459.044 -3.97326 1.69576 0
M  V30 5053 C 458.179 -5.17043 1.2182 0
M  V30 5054 C 457.218 -5.65813 2.335 0
M  V30 5055 N 456.355 -6.76778 1.86859 0
M  V30 5056 H 461.195 -2.28806 1.90924 0
M  V30 5057 H 458.732 -1.12186 0.951452 0
M  V30 5058 H 460.69 -4.16225 0.285097 0
M  V30 5059 H 459.32 -3.20967 -0.343489 0
M  V30 5060 H 458.372 -3.18734 2.07637 0
M  V30 5061 H 459.684 -4.29511 2.53617 0
M  V30 5062 H 458.838 -5.99852 0.908975 0
M  V30 5063 H 457.577 -4.86458 0.347869 0
M  V30 5064 H 456.582 -4.81599 2.65222 0
M  V30 5065 H 457.807 -5.98427 3.21033 0
M  V30 5066 H 455.753 -6.47994 1.02174 0
M  V30 5067 H 455.67 -7.08231 2.64471 0
M  V30 5068 H 456.938 -7.63116 1.58978 0
M  V30 5069 N 461.167 -1.02423 -1.1978 0
M  V30 5070 C 462.077 -0.610919 -2.26506 0
M  V30 5071 C 463.093 0.355152 -1.70337 0
M  V30 5072 O 464.269 0.214195 -2.00258 0
M  V30 5073 C 461.334 0.0365921 -3.46681 0
M  V30 5074 C 460.395 -0.976389 -4.18049 0
M  V30 5075 C 459.628 -0.359683 -5.32487 0
M  V30 5076 O 459.851 0.838601 -5.64202 0
M  V30 5077 O 458.785 -1.08022 -5.92127 0
M  V30 5078 H 462.611 -1.49965 -2.64091 0
M  V30 5079 H 460.196 -0.794156 -1.26545 0
M  V30 5080 H 462.078 0.39786 -4.19518 0
M  V30 5081 H 460.753 0.899398 -3.10954 0
M  V30 5082 H 459.66 -1.38916 -3.47352 0
M  V30 5083 H 460.993 -1.80941 -4.57735 0
M  V30 5084 N 462.645 1.35699 -0.801477 0
M  V30 5085 C 463.575 2.32436 -0.222658 0
M  V30 5086 C 464.556 1.5723 0.649057 0
M  V30 5087 O 465.741 1.85324 0.580387 0
M  V30 5088 C 462.871 3.41469 0.633719 0
M  V30 5089 C 461.825 4.27774 -0.139083 0
M  V30 5090 C 461.151 5.28082 0.838666 0
M  V30 5091 C 462.451 5.04946 -1.33517 0
M  V30 5092 H 464.145 2.81094 -1.03086 0
M  V30 5093 H 461.691 1.35146 -0.497155 0
M  V30 5094 H 463.644 4.08143 1.04868 0
M  V30 5095 H 462.368 2.91408 1.47475 0
M  V30 5096 H 461.027 3.62673 -0.535156 0
M  V30 5097 H 460.675 4.7429 1.67506 0
M  V30 5098 H 460.375 5.86695 0.32594 0
M  V30 5099 H 461.899 5.97628 1.25194 0
M  V30 5100 H 463.313 5.64593 -0.995349 0
M  V30 5101 H 461.71 5.7303 -1.78202 0
M  V30 5102 H 462.78 4.35886 -2.12442 0
M  V30 5103 N 464.123 0.554532 1.47522 0
M  V30 5104 C 465.369 0.0295227 2.02779 0
M  V30 5105 C 465.702 -1.31582 1.42828 0
M  V30 5106 O 464.977 -1.85561 0.582872 0
M  V30 5107 C 465.26 -0.0664057 3.60039 0
M  V30 5108 C 465.113 1.30585 4.30427 0
M  V30 5109 C 466.432 -0.781162 4.33112 0
M  V30 5110 H 463.551 0.0122027 0.736899 0
M  V30 5111 H 466.193 0.716305 1.7598 0
M  V30 5112 H 464.343 -0.651307 3.83002 0
M  V30 5113 H 466.015 1.93374 4.18813 0
M  V30 5114 H 464.258 1.88125 3.90886 0
M  V30 5115 H 464.929 1.19147 5.38988 0
M  V30 5116 H 467.405 -0.284565 4.15126 0
M  V30 5117 H 466.281 -0.817237 5.42782 0
M  V30 5118 H 466.542 -1.83672 4.0214 0
M  V30 5119 N 465.601 -1.54893 0.290851 0
M  V30 5120 C 466.847 -2.0023 -0.321867 0
M  V30 5121 C 467.18 -1.179 -1.54316 0
M  V30 5122 O 466.455 -0.25293 -1.92848 0
M  V30 5123 C 466.738 -3.53456 -0.688515 0
M  V30 5124 C 466.591 -4.46532 0.541209 0
M  V30 5125 C 467.91 -4.13057 -1.51895 0
M  V30 5126 H 465.029 -0.727891 -0.115515 0
M  V30 5127 H 467.671 -1.85722 0.400931 0
M  V30 5128 H 465.821 -3.6595 -1.30433 0
M  V30 5129 H 467.493 -4.4596 1.17973 0
M  V30 5130 H 465.736 -4.17545 1.17636 0
M  V30 5131 H 466.407 -5.51475 0.240675 0
M  V30 5132 H 468.883 -4.03937 -0.99872 0
M  V30 5133 H 467.759 -5.20448 -1.74429 0
M  V30 5134 H 468.02 -3.64284 -2.50498 0
M  V30 5135 N 467.08 -0.0183926 -1.57589 0
M  V30 5136 C 468.028 0.985111 -2.10709 0
M  V30 5137 C 469.022 1.34397 -1.0312 0
M  V30 5138 O 470.228 1.32746 -1.21567 0
M  V30 5139 H 466.603 0.335418 -0.673052 0
M  V30 5140 H 468.574 0.511689 -2.9398 0
M  V30 5141 C 467.323 2.26202 -2.64061 0
M  V30 5142 H 466.646 1.9946 -3.4649 0
M  V30 5143 H 468.086 2.94652 -3.04887 0
M  V30 5144 C 466.545 2.98444 -1.5631 0
M  V30 5145 O 467.075 3.90142 -0.956674 0
M  V30 5146 N 465.281 2.6059 -1.28612 0
M  V30 5147 H 464.828 1.86101 -1.78112 0
M  V30 5148 H 464.786 3.09238 -0.567406 0
M  V30 5149 N 468.558 1.5553 0.254621 0
M  V30 5150 C 469.804 1.77262 0.985193 0
M  V30 5151 C 470.137 0.582286 1.85265 0
M  V30 5152 O 469.412 -0.419666 1.89919 0
M  V30 5153 C 469.695 3.0881 1.85225 0
M  V30 5154 C 469.548 4.38233 1.0135 0
M  V30 5155 C 470.867 3.3653 2.83612 0
M  V30 5156 H 467.986 0.644906 0.356742 0
M  V30 5157 H 470.628 1.88264 0.256236 0
M  V30 5158 H 468.778 2.99562 2.47376 0
M  V30 5159 H 470.45 4.59463 0.411269 0
M  V30 5160 H 468.693 4.32636 0.317574 0
M  V30 5161 H 469.364 5.26644 1.65379 0
M  V30 5162 H 471.84 3.45691 2.31596 0
M  V30 5163 H 470.716 4.29805 3.41407 0
M  V30 5164 H 470.977 2.57064 3.59681 0
M  V30 5165 N 470.036 -0.519951 1.48776 0
M  V30 5166 C 471.276 -1.2856 1.58908 0
M  V30 5167 C 471.64 -1.90212 0.261418 0
M  V30 5168 O 472.841 -2.67746 0.237791 0
M  V30 5169 C 471.112 -2.33836 2.70288 0
M  V30 5170 S 472.671 -3.19992 3.0025 0
M  V30 5171 H 469.489 -0.43717 0.560717 0
M  V30 5172 H 472.091 -0.591205 1.86346 0
M  V30 5173 H 470.795 -1.87041 3.653 0
M  V30 5174 H 470.326 -3.07969 2.44783 0
M  V30 5175 H 472.341 -4.34122 2.40317 0
M  V30 5176 N 471.514 -1.37532 -0.769588 0
M  V30 5177 C 472.791 -1.23392 -1.51768 0
M  V30 5178 C 473.171 0.17157 -2.10402 0
M  V30 5179 O 472.519 1.17943 -1.95708 0
M  V30 5180 C 472.729 -2.33163 -2.59685 0
M  V30 5181 C 474.077 -2.70809 -3.27028 0
M  V30 5182 O 475.101 -2.32355 -2.69981 0
M  V30 5183 O 473.96 -3.37066 -4.30173 0
M  V30 5184 H 471.054 -0.481617 -0.67229 0
M  V30 5185 H 473.6 -1.49318 -0.806368 0
M  V30 5186 H 472.372 -3.27273 -2.14494 0
M  V30 5187 H 471.995 -2.08713 -3.38415 0
M  V30 5188 N 472.992 0.995999 -1.22138 0
M  V30 5189 C 473.939 2.08551 -0.988687 0
M  V30 5190 C 474.909 1.65864 0.0885021 0
M  V30 5191 O 476.094 1.90704 -0.0604589 0
M  V30 5192 C 473.234 3.40374 -0.569191 0
M  V30 5193 C 472.347 3.96421 -1.71681 0
M  V30 5194 C 471.482 5.1639 -1.2456 0
M  V30 5195 C 470.521 5.64567 -2.36497 0
M  V30 5196 N 469.658 6.75777 -1.90445 0
M  V30 5197 H 474.498 2.2779 -1.92135 0
M  V30 5198 H 472.035 1.1168 -0.957388 0
M  V30 5199 H 473.993 4.16068 -0.307166 0
M  V30 5200 H 472.623 3.21145 0.326462 0
M  V30 5201 H 471.675 3.17628 -2.09324 0
M  V30 5202 H 472.987 4.2816 -2.55891 0
M  V30 5203 H 472.141 5.99362 -0.940774 0
M  V30 5204 H 470.88 4.86266 -0.373662 0
M  V30 5205 H 469.885 4.80185 -2.67772 0
M  V30 5206 H 471.11 5.96716 -3.24202 0
M  V30 5207 H 469.056 6.47443 -1.05609 0
M  V30 5208 H 468.973 7.06818 -2.68223 0
M  V30 5209 H 470.241 7.62262 -1.63022 0
M  V30 5210 N 474.47 1.03057 1.19235 0
M  V30 5211 C 475.71 0.736757 1.9066 0
M  V30 5212 C 476.074 -0.721521 1.77927 0
M  V30 5213 O 477.275 -1.12849 2.43964 0
M  V30 5214 C 475.546 1.17755 3.37444 0
M  V30 5215 S 477.105 1.00783 4.27069 0
M  V30 5216 H 473.923 0.268174 0.658486 0
M  V30 5217 H 476.525 1.32076 1.4414 0
M  V30 5218 H 475.229 2.23448 3.44237 0
M  V30 5219 H 474.76 0.586912 3.88997 0
M  V30 5220 H 476.775 -0.0806356 4.96134 0
M  V30 5221 N 475.948 -1.35272 0.808662 0
M  V30 5222 C 476.895 -2.29764 0.218482 0
M  V30 5223 C 477.865 -1.52911 -0.648652 0
M  V30 5224 O 479.05 -1.81341 -0.593297 0
M  V30 5225 C 476.19 -3.39388 -0.625282 0
M  V30 5226 C 475.303 -4.31202 0.262516 0
M  V30 5227 C 474.438 -5.27919 -0.589451 0
M  V30 5228 C 473.477 -6.11371 0.298617 0
M  V30 5229 N 472.614 -7.0022 -0.513443 0
M  V30 5230 H 477.454 -2.79645 1.02968 0
M  V30 5231 H 474.991 -1.37629 0.519303 0
M  V30 5232 H 476.949 -4.01615 -1.12966 0
M  V30 5233 H 475.579 -2.90777 -1.40173 0
M  V30 5234 H 474.631 -3.69962 0.885013 0
M  V30 5235 H 475.943 -4.89748 0.945971 0
M  V30 5236 H 475.097 -5.95529 -1.15888 0
M  V30 5237 H 473.836 -4.69875 -1.30647 0
M  V30 5238 H 472.841 -5.42707 0.880301 0
M  V30 5239 H 474.066 -6.71494 1.01352 0
M  V30 5240 H 472.012 -6.44662 -1.21439 0
M  V30 5241 H 471.929 -7.55917 0.111922 0
M  V30 5242 H 473.197 -7.72175 -1.06608 0
M  V30 5243 N 477.426 -0.562348 -1.47226 0
M  V30 5244 C 478.675 -0.038041 -2.01664 0
M  V30 5245 C 478.988 1.32199 -1.44162 0
M  V30 5246 O 480.194 1.9365 -1.90294 0
M  V30 5247 C 478.65 -0.0174958 -3.59896 0
M  V30 5248 C 478.258 -1.3746 -4.2639 0
M  V30 5249 C 480.002 0.453934 -4.22066 0
M  V30 5250 C 477.909 -1.31289 -5.76643 0
M  V30 5251 H 476.839 -0.0104511 -0.753928 0
M  V30 5252 H 479.49 -0.710966 -1.69167 0
M  V30 5253 H 477.872 0.721182 -3.89378 0
M  V30 5254 H 479.046 -2.1314 -4.08544 0
M  V30 5255 H 477.361 -1.78438 -3.7623 0
M  V30 5256 H 479.958 0.518584 -5.32179 0
M  V30 5257 H 480.301 1.46706 -3.89594 0
M  V30 5258 H 480.834 -0.230044 -3.97134 0
M  V30 5259 H 477.573 -2.30217 -6.13743 0
M  V30 5260 H 477.093 -0.597973 -5.96812 0
M  V30 5261 H 478.772 -1.01713 -6.38955 0
M  V30 5262 N 478.904 1.54736 -0.299062 0
M  V30 5263 C 480.129 2.04975 0.316254 0
M  V30 5264 C 480.554 1.17501 1.46885 0
M  V30 5265 O 479.912 0.178678 1.80417 0
M  V30 5266 C 479.96 3.52672 0.751997 0
M  V30 5267 O 479.064 3.68226 1.85697 0
M  V30 5268 H 478.405 0.661126 0.0617175 0
M  V30 5269 H 480.935 1.99805 -0.440341 0
M  V30 5270 H 480.945 3.94488 1.04133 0
M  V30 5271 H 479.62 4.158 -0.0911482 0
M  V30 5272 H 478.197 3.38316 1.56834 0
M  V30 5273 N 480.382 0.0267497 1.57577 0
M  V30 5274 C 481.292 -0.971633 2.13533 0
M  V30 5275 C 482.308 -1.35868 1.08701 0
M  V30 5276 O 483.484 -1.44058 1.40746 0
M  V30 5277 C 480.549 -2.23622 2.64941 0
M  V30 5278 C 479.61 -1.90982 3.8448 0
M  V30 5279 C 478.843 -3.11411 4.33427 0
M  V30 5280 O 479.066 -4.23992 3.81558 0
M  V30 5281 O 478 -2.93848 5.25297 0
M  V30 5282 H 481.826 -0.525853 2.99113 0
M  V30 5283 H 479.411 -0.193712 1.48139 0
M  V30 5284 H 481.293 -2.97864 2.98086 0
M  V30 5285 H 479.968 -2.67386 1.82446 0
M  V30 5286 H 478.875 -1.14132 3.56265 0
M  V30 5287 H 480.208 -1.52036 4.6813 0
M  V30 5288 N 481.861 -1.55662 -0.24637 0
M  V30 5289 C 482.771 -1.93495 -1.32653 0
M  V30 5290 C 483.787 -0.835462 -1.5263 0
M  V30 5291 O 484.963 -1.1369 -1.66242 0
M  V30 5292 C 482.028 -2.22242 -2.66101 0
M  V30 5293 C 481.089 -3.45625 -2.54641 0
M  V30 5294 C 480.322 -3.72991 -3.81724 0
M  V30 5295 O 480.545 -3.02421 -4.8363 0
M  V30 5296 O 479.479 -4.66515 -3.80325 0
M  V30 5297 H 483.305 -2.85498 -1.03559 0
M  V30 5298 H 480.89 -1.42551 -0.44717 0
M  V30 5299 H 482.772 -2.42037 -3.44958 0
M  V30 5300 H 481.447 -1.33417 -2.94926 0
M  V30 5301 H 480.354 -3.31136 -1.74067 0
M  V30 5302 H 481.687 -4.34754 -2.3076 0
M  V30 5303 N 483.339 0.512053 -1.4905 0
M  V30 5304 C 484.272 1.63209 -1.59493 0
M  V30 5305 C 485.25 1.56407 -0.444481 0
M  V30 5306 O 486.434 1.76623 -0.658535 0
M  V30 5307 C 483.561 3.01685 -1.53961 0
M  V30 5308 C 482.607 3.26786 -2.74068 0
M  V30 5309 S 483.44 3.11107 -4.35859 0
M  V30 5310 C 484.596 4.51997 -4.32954 0
M  V30 5311 H 484.829 1.54104 -2.54243 0
M  V30 5312 H 482.362 0.696382 -1.37804 0
M  V30 5313 H 484.32 3.81538 -1.51455 0
M  V30 5314 H 482.981 3.08215 -0.605178 0
M  V30 5315 H 482.174 4.27849 -2.66386 0
M  V30 5316 H 481.776 2.54635 -2.73928 0
M  V30 5317 H 484.068 5.43871 -4.03993 0
M  V30 5318 H 485.011 4.64731 -5.34257 0
M  V30 5319 H 485.419 4.32159 -3.63178 0
M  V30 5320 N 484.817 1.37938 0.762283 0
M  V30 5321 C 486.042 1.37059 1.55659 0
M  V30 5322 C 486.467 -0.0396123 1.88058 0
M  V30 5323 O 485.825 -1.01929 1.49934 0
M  V30 5324 C 485.873 2.22494 2.83776 0
M  V30 5325 O 484.977 1.63607 3.78559 0
M  V30 5326 H 484.318 0.467892 0.47114 0
M  V30 5327 H 486.848 1.81587 0.942725 0
M  V30 5328 H 486.858 2.36045 3.32786 0
M  V30 5329 H 485.533 3.24993 2.59524 0
M  V30 5330 H 484.11 1.5915 3.37233 0
M  V30 5331 N 486.295 -0.989507 1.22664 0
M  V30 5332 C 487.243 -2.10148 0.997035 0
M  V30 5333 C 488.237 -1.6929 -0.0609783 0
M  V30 5334 O 489.443 -1.79766 0.0917523 0
M  V30 5335 H 485.818 -0.687256 0.305259 0
M  V30 5336 H 487.789 -2.26685 1.94053 0
M  V30 5337 C 486.538 -3.4257 0.595085 0
M  V30 5338 H 485.861 -3.74453 1.40089 0
M  V30 5339 H 487.301 -4.21344 0.473869 0
M  V30 5340 C 485.76 -3.29638 -0.695725 0
M  V30 5341 O 486.29 -3.61709 -1.74727 0
M  V30 5342 N 484.496 -2.82814 -0.668173 0
M  V30 5343 H 484.043 -2.56914 0.18787 0
M  V30 5344 H 484.001 -2.74544 -1.5321 0
M  V30 5345 N 487.773 -1.03688 -1.18687 0
M  V30 5346 C 489.02 -0.73803 -1.88572 0
M  V30 5347 C 489.348 0.733973 -1.8012 0
M  V30 5348 O 488.603 1.55098 -1.19344 0
M  V30 5349 C 488.902 -1.14477 -3.3857 0
M  V30 5350 C 488.568 -2.61641 -3.67226 0
M  V30 5351 C 487.23 -3.01846 -3.74757 0
M  V30 5352 C 489.582 -3.56812 -3.79914 0
M  V30 5353 C 486.91 -4.36118 -3.92451 0
M  V30 5354 C 489.262 -4.90799 -3.99123 0
M  V30 5355 C 487.926 -5.3068 -4.04888 0
M  V30 5356 H 487.196 -0.270064 -0.690034 0
M  V30 5357 H 489.843 -1.3012 -1.40503 0
M  V30 5358 H 488.148 -0.500337 -3.88592 0
M  V30 5359 H 489.845 -0.89095 -3.90977 0
M  V30 5360 H 486.435 -2.29498 -3.61979 0
M  V30 5361 H 490.619 -3.26899 -3.73431 0
M  V30 5362 H 485.875 -4.66542 -3.95157 0
M  V30 5363 H 490.049 -5.64451 -4.07882 0
M  V30 5364 H 487.676 -6.34733 -4.18351 0
M  V30 5365 N 489.251 1.34841 -0.815825 0
M  V30 5366 C 490.181 2.32187 -0.247298 0
M  V30 5367 C 491.162 1.5791 0.632344 0
M  V30 5368 O 492.347 1.8593 0.560698 0
M  V30 5369 C 489.477 3.42122 0.597466 0
M  V30 5370 C 488.431 4.27602 -0.184446 0
M  V30 5371 C 487.757 5.28942 0.782609 0
M  V30 5372 C 489.057 5.03502 -1.38865 0
M  V30 5373 H 490.751 2.79985 -1.06061 0
M  V30 5374 H 488.297 1.34611 -0.511461 0
M  V30 5375 H 490.25 4.09232 1.00533 0
M  V30 5376 H 488.974 2.92956 1.44376 0
M  V30 5377 H 487.633 3.62085 -0.573592 0
M  V30 5378 H 487.281 4.7604 1.62466 0
M  V30 5379 H 486.981 5.87008 0.263695 0
M  V30 5380 H 488.505 5.98922 1.18848 0
M  V30 5381 H 489.919 5.63506 -1.05518 0
M  V30 5382 H 488.316 5.71108 -1.8427 0
M  V30 5383 H 489.386 4.33608 -2.17054 0
M  V30 5384 N 490.729 0.570148 1.46925 0
M  V30 5385 C 491.692 -0.159933 2.28641 0
M  V30 5386 C 492.692 -0.830638 1.37685 0
M  V30 5387 O 493.882 -0.684516 1.60187 0
M  V30 5388 C 491.014 -1.2354 3.17727 0
M  V30 5389 H 492.207 0.558035 2.94662 0
M  V30 5390 H 489.76 0.327603 1.52828 0
M  V30 5391 H 490.495 -1.98535 2.56426 0
M  V30 5392 H 490.28 -0.759125 3.84681 0
M  V30 5393 H 491.77 -1.74782 3.79264 0
M  V30 5394 N 492.207 -1.54576 0.307264 0
M  V30 5395 C 493.453 -2.01272 -0.293453 0
M  V30 5396 C 493.808 -1.19178 -1.51044 0
M  V30 5397 O 493.101 -0.261704 -1.89804 0
M  V30 5398 C 493.295 -3.50572 -0.695253 0
M  V30 5399 C 493.124 -4.47118 0.481249 0
M  V30 5400 C 491.894 -4.958 0.97524 0
M  V30 5401 C 494.092 -4.96853 1.32823 0
M  V30 5402 N 492.074 -5.76212 2.11785 0
M  V30 5403 C 493.445 -5.75028 2.31824 0
M  V30 5404 C 495.5 -4.79026 1.35788 0
M  V30 5405 C 494.203 -6.37276 3.33574 0
M  V30 5406 C 496.229 -5.42097 2.364 0
M  V30 5407 C 495.591 -6.2011 3.34129 0
M  V30 5408 H 491.69 -0.778709 -0.0716705 0
M  V30 5409 H 494.274 -1.89695 0.438602 0
M  V30 5410 H 492.445 -3.62427 -1.39647 0
M  V30 5411 H 494.177 -3.84056 -1.27604 0
M  V30 5412 H 490.932 -4.70405 0.549184 0
M  V30 5413 H 491.356 -6.21101 2.69375 0
M  V30 5414 H 495.998 -4.18288 0.616021 0
M  V30 5415 H 493.716 -6.97144 4.08676 0
M  V30 5416 H 497.302 -5.30229 2.39475 0
M  V30 5417 H 496.182 -6.68049 4.10707 0
M  V30 5418 N 493.685 -0.035106 -1.57561 0
M  V30 5419 C 494.615 0.942993 -2.13612 0
M  V30 5420 C 495.596 1.33531 -1.05373 0
M  V30 5421 O 496.781 1.41287 -1.33235 0
M  V30 5422 C 493.911 2.22332 -2.66807 0
M  V30 5423 C 492.865 1.97156 -3.79886 0
M  V30 5424 C 492.191 3.31506 -4.19533 0
M  V30 5425 C 493.491 1.30596 -5.05709 0
M  V30 5426 H 495.185 0.476179 -2.95589 0
M  V30 5427 H 492.731 0.227602 -1.4219 0
M  V30 5428 H 494.684 2.91142 -3.04654 0
M  V30 5429 H 493.408 2.7119 -1.81999 0
M  V30 5430 H 492.067 1.30763 -3.42486 0
M  V30 5431 H 491.715 3.78134 -3.31698 0
M  V30 5432 H 491.415 3.15465 -4.95738 0
M  V30 5433 H 492.939 4.01574 -4.59968 0
M  V30 5434 H 494.353 1.89416 -5.41105 0
M  V30 5435 H 492.75 1.24934 -5.86951 0
M  V30 5436 H 493.82 0.279742 -4.84092 0
M  V30 5437 N 495.163 1.55791 0.238111 0
M  V30 5438 C 496.411 1.77681 0.963001 0
M  V30 5439 C 496.732 0.600674 1.85518 0
M  V30 5440 O 496.002 -0.383182 1.92116 0
M  V30 5441 H 494.582 0.655315 0.358568 0
M  V30 5442 H 497.244 1.93239 0.253945 0
M  V30 5443 H 496.34 2.69177 1.57956 0
M  V30 5444 N 496.642 -0.504142 1.49319 0
M  V30 5445 C 497.872 -1.28071 1.62116 0
M  V30 5446 C 498.28 -1.86955 0.290566 0
M  V30 5447 O 497.623 -1.68415 -0.733616 0
M  V30 5448 C 497.685 -2.4521 2.62893 0
M  V30 5449 C 497.349 -2.07218 4.0732 0
M  V30 5450 C 498.346 -1.61375 4.94221 0
M  V30 5451 C 496.031 -2.16949 4.53033 0
M  V30 5452 C 498.025 -1.25763 6.2487 0
M  V30 5453 C 495.712 -1.80949 5.83696 0
M  V30 5454 C 496.71 -1.3543 6.69438 0
M  V30 5455 O 496.398 -0.99915 7.97667 0
M  V30 5456 H 496.13 -0.394763 0.54876 0
M  V30 5457 H 498.684 -0.612118 1.96067 0
M  V30 5458 H 496.914 -3.15134 2.24115 0
M  V30 5459 H 498.603 -3.0724 2.65252 0
M  V30 5460 H 499.369 -1.53306 4.60133 0
M  V30 5461 H 495.248 -2.5133 3.86463 0
M  V30 5462 H 498.792 -0.901631 6.91749 0
M  V30 5463 H 494.689 -1.88667 6.17313 0
M  V30 5464 H 495.457 -1.13089 8.1065 0
M  V30 5465 N 498.12 -1.38341 -0.754957 0
M  V30 5466 C 499.05 -1.38176 -1.88227 0
M  V30 5467 C 500.031 -0.247873 -1.68284 0
M  V30 5468 O 501.216 -0.45075 -1.88896 0
M  V30 5469 C 498.346 -1.20471 -3.25736 0
M  V30 5470 C 497.3 -2.3105 -3.60278 0
M  V30 5471 C 496.626 -1.98452 -4.96509 0
M  V30 5472 C 497.926 -3.73305 -3.65295 0
M  V30 5473 H 499.62 -2.32512 -1.88622 0
M  V30 5474 H 497.166 -1.1192 -0.906082 0
M  V30 5475 H 499.119 -1.18982 -4.04254 0
M  V30 5476 H 497.843 -0.225965 -3.25817 0
M  V30 5477 H 496.502 -2.31723 -2.84078 0
M  V30 5478 H 496.15 -0.990641 -4.93148 0
M  V30 5479 H 495.85 -2.7251 -5.20588 0
M  V30 5480 H 497.374 -1.98578 -5.77407 0
M  V30 5481 H 498.788 -3.7467 -4.3393 0
M  V30 5482 H 497.185 -4.46557 -4.00883 0
M  V30 5483 H 498.255 -4.05719 -2.65556 0
M  V30 5484 N 499.598 0.982988 -1.23187 0
M  V30 5485 C 500.546 2.09616 -1.00817 0
M  V30 5486 C 501.54 1.6932 0.0519995 0
M  V30 5487 O 502.746 1.79715 -0.101284 0
M  V30 5488 H 499.121 0.685628 -0.308899 0
M  V30 5489 H 501.092 2.25652 -1.95253 0
M  V30 5490 C 499.841 3.42249 -0.613243 0
M  V30 5491 H 499.164 3.73705 -1.42073 0
M  V30 5492 H 500.604 4.21086 -0.496208 0
M  V30 5493 C 499.063 3.30002 0.678233 0
M  V30 5494 O 499.593 3.6263 1.72807 0
M  V30 5495 N 497.799 2.83164 0.653165 0
M  V30 5496 H 497.346 2.56811 -0.201492 0
M  V30 5497 H 497.304 2.75352 1.51752 0
M  V30 5498 N 501.076 1.04316 1.18135 0
M  V30 5499 C 502.301 0.768047 1.92655 0
M  V30 5500 C 502.726 -0.66904 1.758 0
M  V30 5501 O 502.084 -1.46372 1.06981 0
M  V30 5502 C 502.132 1.14239 3.42026 0
M  V30 5503 O 501.236 0.269333 4.1152 0
M  V30 5504 H 500.577 0.282436 0.600937 0
M  V30 5505 H 503.107 1.39367 1.49793 0
M  V30 5506 H 503.117 1.10538 3.92741 0
M  V30 5507 H 501.792 2.18928 3.53615 0
M  V30 5508 H 500.369 0.366175 3.71098 0
M  V30 5509 N 502.554 -1.34406 0.822964 0
M  V30 5510 C 503.484 -2.32052 0.259608 0
M  V30 5511 C 504.465 -1.58243 -0.623961 0
M  V30 5512 O 505.65 -1.86224 -0.55083 0
M  V30 5513 C 502.78 -3.42434 -0.579314 0
M  V30 5514 C 501.734 -4.27499 0.20712 0
M  V30 5515 C 501.06 -5.29349 -0.754547 0
M  V30 5516 C 502.36 -5.02758 1.41533 0
M  V30 5517 H 504.054 -2.79418 1.07545 0
M  V30 5518 H 501.6 -1.34338 0.518593 0
M  V30 5519 H 503.553 -4.0976 -0.983612 0
M  V30 5520 H 502.277 -2.93717 -1.4282 0
M  V30 5521 H 500.936 -3.61776 0.592787 0
M  V30 5522 H 500.584 -4.76895 -1.59939 0
M  V30 5523 H 500.284 -5.8714 -0.232561 0
M  V30 5524 H 501.808 -5.99544 -1.1567 0
M  V30 5525 H 503.222 -5.62938 1.08504 0
M  V30 5526 H 501.619 -5.70123 1.87296 0
M  V30 5527 H 502.689 -4.32451 2.1935 0
M  V30 5528 N 504.032 -0.577932 -1.46621 0
M  V30 5529 C 505.281 -0.0594281 -2.01612 0
M  V30 5530 C 505.594 1.30663 -1.45556 0
M  V30 5531 O 506.8 1.91621 -1.92337 0
M  V30 5532 C 505.256 -0.0556666 -3.59857 0
M  V30 5533 C 504.864 -1.41975 -4.24908 0
M  V30 5534 C 506.608 0.409143 -4.22524 0
M  V30 5535 C 504.515 -1.37397 -5.75218 0
M  V30 5536 H 503.445 -0.0184469 -0.753774 0
M  V30 5537 H 506.096 -0.728869 -1.68404 0
M  V30 5538 H 504.478 0.679843 -3.90121 0
M  V30 5539 H 505.652 -2.17461 -4.0626 0
M  V30 5540 H 503.967 -1.82419 -3.74316 0
M  V30 5541 H 506.564 0.46211 -5.32699 0
M  V30 5542 H 506.907 1.42565 -3.91128 0
M  V30 5543 H 507.44 -0.272152 -3.96868 0
M  V30 5544 H 504.179 -2.36714 -6.11267 0
M  V30 5545 H 503.699 -0.661239 -5.96144 0
M  V30 5546 H 505.378 -1.08484 -6.3784 0
M  V30 5547 N 505.51 1.54411 -0.315457 0
M  V30 5548 C 506.458 2.25514 0.569771 0
M  V30 5549 C 507.452 1.2663 1.12522 0
M  V30 5550 O 508.658 1.44434 1.07419 0
M  V30 5551 H 505.033 0.724257 0.202376 0
M  V30 5552 H 507.004 2.98354 -0.0522895 0
M  V30 5553 C 505.753 3.02004 1.72305 0
M  V30 5554 H 505.076 3.77906 1.30488 0
M  V30 5555 H 506.516 3.55014 2.31821 0
M  V30 5556 C 504.975 2.09822 2.63583 0
M  V30 5557 O 505.505 1.67574 3.65078 0
M  V30 5558 N 503.711 1.75478 2.31637 0
M  V30 5559 H 503.258 2.10032 1.49145 0
M  V30 5560 H 503.216 1.14079 2.92973 0
M  V30 5561 N 506.988 0.0434614 1.5754 0
M  V30 5562 C 508.399 -0.493343 1.80064 0
M  V30 5563 C 508.75 -1.71388 0.955023 0
M  V30 5564 O 507.875 -2.15736 0.169434 0
M  V30 5565 C 508.47 -0.90179 3.26578 0
M  V30 5566 C 507.029 -1.38362 3.50047 0
M  V30 5567 C 506.176 -0.355129 2.75017 0
M  V30 5568 H 509.127 0.2694 1.56397 0
M  V30 5569 H 509.148 -1.76523 3.37075 0
M  V30 5570 H 508.66 -0.013271 3.88098 0
M  V30 5571 H 506.761 -2.29159 2.93798 0
M  V30 5572 H 506.874 -1.3811 4.58762 0
M  V30 5573 H 505.238 -0.826348 2.40922 0
M  V30 5574 H 506.021 0.525172 3.39259 0
M  V30 5575 N 508.466 -1.55915 -0.229846 0
M  V30 5576 C 509.396 -1.94754 -1.28815 0
M  V30 5577 C 510.377 -0.814657 -1.49323 0
M  V30 5578 O 511.562 -1.07631 -1.61645 0
M  V30 5579 C 508.692 -2.25705 -2.63959 0
M  V30 5580 C 507.646 -3.41406 -2.5812 0
M  V30 5581 C 506.972 -3.57941 -3.97218 0
M  V30 5582 C 508.272 -4.76616 -2.13623 0
M  V30 5583 H 509.966 -2.83404 -0.965547 0
M  V30 5584 H 507.512 -1.36353 -0.463028 0
M  V30 5585 H 509.465 -2.51467 -3.38146 0
M  V30 5586 H 508.189 -1.339 -2.9789 0
M  V30 5587 H 506.848 -3.1568 -1.86391 0
M  V30 5588 H 506.496 -2.63526 -4.28443 0
M  V30 5589 H 506.196 -4.35757 -3.94195 0
M  V30 5590 H 507.72 -3.86042 -4.73079 0
M  V30 5591 H 509.134 -5.01637 -2.77549 0
M  V30 5592 H 507.531 -5.57655 -2.21677 0
M  V30 5593 H 508.601 -4.7253 -1.08829 0
M  V30 5594 N 509.944 0.496216 -1.49584 0
M  V30 5595 C 511.193 1.24668 -1.58558 0
M  V30 5596 C 511.506 1.9359 -0.279703 0
M  V30 5597 O 512.712 2.70365 -0.248048 0
M  V30 5598 C 511.168 2.26388 -2.79779 0
M  V30 5599 C 510.776 1.63384 -4.17145 0
M  V30 5600 C 512.52 3.02233 -2.98086 0
M  V30 5601 C 510.427 2.63243 -5.29582 0
M  V30 5602 H 509.357 0.468995 -0.590389 0
M  V30 5603 H 512.008 0.519985 -1.75978 0
M  V30 5604 H 510.39 3.02241 -2.55863 0
M  V30 5605 H 511.564 0.93491 -4.51216 0
M  V30 5606 H 509.879 0.999121 -4.04236 0
M  V30 5607 H 512.476 3.76919 -3.79257 0
M  V30 5608 H 512.819 3.60132 -2.08831 0
M  V30 5609 H 513.352 2.33495 -3.22063 0
M  V30 5610 H 510.091 2.10119 -6.20911 0
M  V30 5611 H 509.611 3.31363 -4.99959 0
M  V30 5612 H 511.29 3.25575 -5.59115 0
M  V30 5613 N 511.423 1.38739 0.74761 0
M  V30 5614 C 512.653 1.3832 1.53464 0
M  V30 5615 C 513.061 -0.0273464 1.8918 0
M  V30 5616 O 512.404 -1.00588 1.53713 0
M  V30 5617 C 512.466 2.18007 2.85855 0
M  V30 5618 C 512.13 3.66762 2.72644 0
M  V30 5619 C 513.127 4.60124 2.42037 0
M  V30 5620 C 510.812 4.10193 2.89909 0
M  V30 5621 C 512.806 5.94897 2.28859 0
M  V30 5622 C 510.493 5.45045 2.7635 0
M  V30 5623 C 511.491 6.37211 2.45869 0
M  V30 5624 O 511.179 7.69581 2.3238 0
M  V30 5625 H 510.911 0.474718 0.481268 0
M  V30 5626 H 513.465 1.83012 0.932518 0
M  V30 5627 H 511.695 1.68043 3.48279 0
M  V30 5628 H 513.384 2.09921 3.47402 0
M  V30 5629 H 514.15 4.27874 2.28361 0
M  V30 5630 H 510.029 3.38797 3.1263 0
M  V30 5631 H 513.573 6.66802 2.04989 0
M  V30 5632 H 509.47 5.76889 2.89601 0
M  V30 5633 H 510.238 7.80169 2.47546 0
M  V30 5634 N 512.901 -0.976442 1.23707 0
M  V30 5635 C 514.129 -1.75341 1.09833 0
M  V30 5636 C 514.544 -1.8553 -0.349885 0
M  V30 5637 O 513.901 -1.33732 -1.24185 0
M  V30 5638 C 513.952 -3.17833 1.72233 0
M  V30 5639 O 513.673 -3.08167 3.11391 0
M  V30 5640 C 515.174 -4.11906 1.63853 0
M  V30 5641 H 512.394 -0.550137 0.384175 0
M  V30 5642 H 514.938 -1.2265 1.63638 0
M  V30 5643 H 513.093 -3.67538 1.22452 0
M  V30 5644 H 513.507 -3.97897 3.41729 0
M  V30 5645 H 514.981 -5.09579 2.12211 0
M  V30 5646 H 515.458 -4.35109 0.598092 0
M  V30 5647 H 516.064 -3.68107 2.13019 0
M  V30 5648 N 514.379 -1.04941 -1.1758 0
M  V30 5649 C 515.628 -0.753124 -1.87112 0
M  V30 5650 C 515.941 0.722507 -1.81767 0
M  V30 5651 O 517.147 1.13265 -2.46746 0
M  V30 5652 C 515.603 -1.29695 -3.35719 0
M  V30 5653 C 515.211 -2.80184 -3.49572 0
M  V30 5654 C 516.955 -1.07759 -4.10595 0
M  V30 5655 C 514.862 -3.2788 -4.92187 0
M  V30 5656 H 513.792 -0.278034 -0.700866 0
M  V30 5657 H 516.443 -1.26637 -1.32798 0
M  V30 5658 H 514.825 -0.711522 -3.89555 0
M  V30 5659 H 515.999 -3.44561 -3.05965 0
M  V30 5660 H 514.314 -3.00632 -2.88113 0
M  V30 5661 H 516.911 -1.40899 -5.15802 0
M  V30 5662 H 517.254 -0.0152302 -4.16297 0
M  V30 5663 H 517.787 -1.62809 -3.62957 0
M  V30 5664 H 514.526 -4.33535 -4.91658 0
M  V30 5665 H 514.046 -2.68245 -5.36475 0
M  V30 5666 H 515.725 -3.22412 -5.60945 0
M  V30 5667 N 515.857 1.33968 -0.830081 0
M  V30 5668 C 517.104 1.98063 -0.421566 0
M  V30 5669 C 517.432 1.65787 1.0171 0
M  V30 5670 O 516.687 0.925348 1.72441 0
M  V30 5671 C 516.986 3.52679 -0.57898 0
M  V30 5672 C 516.652 4.04884 -1.98443 0
M  V30 5673 C 515.314 4.18852 -2.36888 0
M  V30 5674 C 517.666 4.32879 -2.90285 0
M  V30 5675 C 514.994 4.58145 -3.66497 0
M  V30 5676 C 517.346 4.7362 -4.19364 0
M  V30 5677 C 516.01 4.85794 -4.57778 0
M  V30 5678 H 515.28 0.724765 -0.154262 0
M  V30 5679 H 517.927 1.59792 -1.05541 0
M  V30 5680 H 516.232 3.91556 0.138219 0
M  V30 5681 H 517.929 4.00261 -0.243317 0
M  V30 5682 H 514.519 3.9448 -1.67581 0
M  V30 5683 H 518.703 4.21619 -2.61823 0
M  V30 5684 H 513.959 4.65762 -3.96075 0
M  V30 5685 H 518.133 4.9424 -4.90612 0
M  V30 5686 H 515.76 5.15998 -5.58256 0
M  V30 5687 N 517.335 0.585699 1.46312 0
M  V30 5688 C 518.283 -0.158577 2.32059 0
M  V30 5689 C 519.277 -0.881427 1.44662 0
M  V30 5690 O 520.483 -0.799476 1.61271 0
M  V30 5691 H 516.858 -0.0700066 0.748734 0
M  V30 5692 H 518.829 0.583383 2.92642 0
M  V30 5693 C 517.578 -1.15701 3.27885 0
M  V30 5694 H 516.901 -0.610215 3.95116 0
M  V30 5695 H 518.341 -1.64812 3.90657 0
M  V30 5696 C 516.8 -2.21951 2.53455 0
M  V30 5697 O 517.33 -3.29352 2.29978 0
M  V30 5698 N 515.536 -1.9664 2.13965 0
M  V30 5699 H 515.083 -1.09309 2.33258 0
M  V30 5700 H 515.041 -2.6794 1.64485 0
M  V30 5701 N 518.813 -1.54241 0.323641 0
M  V30 5702 C 519.723 -2.28033 -0.551205 0
M  V30 5703 C 520.739 -1.32388 -1.12913 0
M  V30 5704 O 521.915 -1.65403 -1.14908 0
M  V30 5705 C 518.98 -3.02382 -1.69606 0
M  V30 5706 C 518.041 -4.13612 -1.14993 0
M  V30 5707 C 517.274 -4.84407 -2.24022 0
M  V30 5708 O 517.497 -4.54716 -3.44368 0
M  V30 5709 O 516.431 -5.71312 -1.89436 0
M  V30 5710 H 520.257 -3.03662 0.048066 0
M  V30 5711 H 517.842 -1.49133 0.0893289 0
M  V30 5712 H 519.724 -3.48941 -2.36259 0
M  V30 5713 H 518.399 -2.29628 -2.28151 0
M  V30 5714 H 517.306 -3.71402 -0.448484 0
M  V30 5715 H 518.639 -4.8841 -0.609608 0
M  V30 5716 N 520.291 -0.0518155 -1.57515 0
M  V30 5717 C 521.568 0.661727 -1.84067 0
M  V30 5718 C 521.948 1.88999 -0.940351 0
M  V30 5719 O 521.296 2.285 -0.00155404 0
M  V30 5720 C 521.506 1.01841 -3.3381 0
M  V30 5721 C 522.854 1.40043 -4.00841 0
M  V30 5722 O 523.878 1.11073 -3.38439 0
M  V30 5723 O 522.737 1.94111 -5.10865 0
M  V30 5724 H 519.831 0.326702 -0.759733 0
M  V30 5725 H 522.377 -0.0812277 -1.69505 0
M  V30 5726 H 521.149 0.145202 -3.91031 0
M  V30 5727 H 520.772 1.81879 -3.53562 0
M  V30 5728 N 521.769 1.56035 0.221574 0
M  V30 5729 C 523.016 1.79047 0.94597 0
M  V30 5730 C 523.344 0.62057 1.84334 0
M  V30 5731 O 522.599 -0.395053 1.91671 0
M  V30 5732 C 522.898 3.07813 1.8162 0
M  V30 5733 C 522.564 4.3797 1.07206 0
M  V30 5734 C 521.226 4.73334 0.866508 0
M  V30 5735 C 523.578 5.18326 0.546565 0
M  V30 5736 C 520.906 5.8657 0.123549 0
M  V30 5737 C 523.258 6.32335 -0.18305 0
M  V30 5738 C 521.922 6.66301 -0.399861 0
M  V30 5739 H 521.192 0.655178 0.346155 0
M  V30 5740 H 523.839 1.90299 0.214146 0
M  V30 5741 H 522.144 2.91682 2.61589 0
M  V30 5742 H 523.841 3.2282 2.37884 0
M  V30 5743 H 520.431 4.10202 1.24226 0
M  V30 5744 H 524.615 4.9144 0.692847 0
M  V30 5745 H 519.871 6.11376 -0.0546591 0
M  V30 5746 H 524.045 6.9383 -0.59775 0
M  V30 5747 H 521.672 7.53889 -0.977489 0
M  V30 5748 N 523.247 -0.488276 1.49845 0
M  V30 5749 C 524.194 -1.58836 1.67451 0
M  V30 5750 C 525.164 -1.57886 0.515857 0
M  V30 5751 O 526.349 -1.75679 0.744403 0
M  V30 5752 C 523.489 -2.96915 1.75885 0
M  V30 5753 C 522.602 -3.07784 3.03138 0
M  V30 5754 C 521.737 -4.36673 3.02473 0
M  V30 5755 C 520.776 -4.41222 4.24252 0
M  V30 5756 N 519.913 -5.61557 4.21424 0
M  V30 5757 H 524.753 -1.43131 2.61376 0
M  V30 5758 H 522.29 -0.696186 1.29583 0
M  V30 5759 H 524.248 -3.76965 1.78755 0
M  V30 5760 H 522.878 -3.11295 0.85414 0
M  V30 5761 H 521.93 -2.20717 3.09819 0
M  V30 5762 H 523.242 -3.07005 3.93128 0
M  V30 5763 H 522.396 -5.25055 3.03977 0
M  V30 5764 H 521.135 -4.40037 2.10283 0
M  V30 5765 H 520.14 -3.5124 4.22978 0
M  V30 5766 H 521.365 -4.39564 5.17649 0
M  V30 5767 H 519.311 -5.65738 3.32078 0
M  V30 5768 H 519.228 -5.62447 5.05163 0
M  V30 5769 H 520.496 -6.52111 4.2705 0
M  V30 5770 N 524.725 -1.39134 -0.740242 0
M  V30 5771 C 525.672 -1.37434 -1.8542 0
M  V30 5772 C 526.642 -0.234822 -1.64432 0
M  V30 5773 O 527.827 -0.429125 -1.85912 0
M  V30 5774 C 524.967 -1.21844 -3.22875 0
M  V30 5775 C 524.08 -2.45296 -3.55603 0
M  V30 5776 C 523.215 -2.22334 -4.82432 0
M  V30 5777 C 522.254 -3.41488 -5.07988 0
M  V30 5778 N 521.391 -3.17877 -6.26018 0
M  V30 5779 H 526.231 -2.3266 -1.86207 0
M  V30 5780 H 523.768 -1.15578 -0.909946 0
M  V30 5781 H 525.726 -1.10818 -4.02213 0
M  V30 5782 H 524.356 -0.3025 -3.21379 0
M  V30 5783 H 523.408 -2.66945 -2.71006 0
M  V30 5784 H 524.72 -3.34063 -3.7041 0
M  V30 5785 H 523.874 -2.0852 -5.69741 0
M  V30 5786 H 522.613 -1.30954 -4.6979 0
M  V30 5787 H 521.618 -3.55807 -4.19144 0
M  V30 5788 H 522.843 -4.33763 -5.22519 0
M  V30 5789 H 520.789 -2.29156 -6.14673 0
M  V30 5790 H 520.706 -4.00198 -6.41387 0
M  V30 5791 H 521.974 -3.07746 -7.16179 0
M  V30 5792 N 526.204 0.969867 -1.24223 0
M  V30 5793 C 527.167 2.04564 -1.03373 0
M  V30 5794 C 528.167 1.60798 0.00819206 0
M  V30 5795 O 529.357 1.72641 -0.232567 0
M  V30 5796 C 526.489 3.36163 -0.566343 0
M  V30 5797 H 527.682 2.24494 -1.98853 0
M  V30 5798 H 525.235 1.1448 -1.06415 0
M  V30 5799 H 525.97 3.21925 0.391751 0
M  V30 5800 H 525.755 3.69273 -1.31834 0
M  V30 5801 H 527.245 4.1526 -0.441435 0
M  V30 5802 N 527.682 1.05563 1.17022 0
M  V30 5803 C 528.929 0.767937 1.87374 0
M  V30 5804 C 529.257 -0.705224 1.81265 0
M  V30 5805 O 528.512 -1.5318 1.21796 0
M  V30 5806 C 528.811 1.19849 3.36706 0
M  V30 5807 C 528.477 2.6745 3.63017 0
M  V30 5808 C 527.139 3.0777 3.69907 0
M  V30 5809 C 529.491 3.62811 3.74189 0
M  V30 5810 C 526.819 4.42307 3.85463 0
M  V30 5811 C 529.171 4.97087 3.91264 0
M  V30 5812 C 527.835 5.37055 3.96394 0
M  V30 5813 H 527.105 0.281008 0.68565 0
M  V30 5814 H 529.752 1.32339 1.38415 0
M  V30 5815 H 528.057 0.562096 3.87747 0
M  V30 5816 H 529.754 0.953038 3.8951 0
M  V30 5817 H 526.344 2.35228 3.58282 0
M  V30 5818 H 530.528 3.32798 3.68183 0
M  V30 5819 H 525.784 4.72769 3.87684 0
M  V30 5820 H 529.958 5.70869 3.9885 0
M  V30 5821 H 527.585 6.41308 4.082 0
M  V30 5822 N 529.16 -1.33526 0.837174 0
M  V30 5823 C 530.092 -2.28077 0.226579 0
M  V30 5824 C 531.105 -1.51666 -0.591717 0
M  V30 5825 O 532.294 -1.73511 -0.419064 0
M  V30 5826 C 529.394 -3.31597 -0.69978 0
M  V30 5827 C 528.567 -4.37329 0.0788067 0
M  V30 5828 C 527.626 -5.20526 -0.770637 0
M  V30 5829 O 526.652 -5.68811 -0.210453 0
M  V30 5830 N 527.854 -5.41639 -2.08825 0
M  V30 5831 H 530.619 -2.81115 1.03897 0
M  V30 5832 H 528.18 -1.46201 0.695476 0
M  V30 5833 H 530.172 -3.84158 -1.27298 0
M  V30 5834 H 528.742 -2.78848 -1.41288 0
M  V30 5835 H 527.962 -3.8529 0.833381 0
M  V30 5836 H 529.25 -5.05079 0.614238 0
M  V30 5837 H 528.648 -5.04108 -2.56693 0
M  V30 5838 H 527.205 -5.97263 -2.60998 0
M  V30 5839 N 530.638 -0.59345 -1.46 0
M  V30 5840 C 531.585 0.133618 -2.30413 0
M  V30 5841 C 532.555 0.873736 -1.41262 0
M  V30 5842 O 533.74 0.862279 -1.70204 0
M  V30 5843 C 530.88 1.13434 -3.25924 0
M  V30 5844 C 529.993 0.39656 -4.30176 0
M  V30 5845 C 529.128 1.38575 -5.12806 0
M  V30 5846 C 528.167 0.634984 -6.08797 0
M  V30 5847 N 527.304 1.57276 -6.84258 0
M  V30 5848 H 532.144 -0.592252 -2.92055 0
M  V30 5849 H 529.681 -0.303874 -1.43927 0
M  V30 5850 H 531.639 1.72752 -3.79753 0
M  V30 5851 H 530.269 1.82779 -2.66067 0
M  V30 5852 H 529.321 -0.311861 -3.79119 0
M  V30 5853 H 530.633 -0.189869 -4.98438 0
M  V30 5854 H 529.787 2.05141 -5.70966 0
M  V30 5855 H 528.526 2.00611 -4.44529 0
M  V30 5856 H 527.531 -0.0443925 -5.49782 0
M  V30 5857 H 528.756 0.0198678 -6.79097 0
M  V30 5858 H 526.702 2.18103 -6.18682 0
M  V30 5859 H 526.619 1.03941 -7.48821 0
M  V30 5860 H 527.887 2.22844 -7.46968 0
M  V30 5861 N 532.116 1.54067 -0.331816 0
M  V30 5862 C 533.046 2.27569 0.522932 0
M  V30 5863 C 534.027 1.28679 1.11247 0
M  V30 5864 O 535.212 1.57504 1.13605 0
M  V30 5865 C 532.342 3.0397 1.67987 0
M  V30 5866 C 531.296 4.10267 1.21924 0
M  V30 5867 C 530.622 4.74555 2.46377 0
M  V30 5868 C 531.922 5.21268 0.32815 0
M  V30 5869 H 533.616 2.99264 -0.0901977 0
M  V30 5870 H 531.162 1.4393 -0.044821 0
M  V30 5871 H 533.115 3.54123 2.28418 0
M  V30 5872 H 531.839 2.29906 2.31971 0
M  V30 5873 H 530.498 3.61009 0.637809 0
M  V30 5874 H 530.146 3.97098 3.08743 0
M  V30 5875 H 529.846 5.46363 2.16243 0
M  V30 5876 H 531.37 5.27487 3.07555 0
M  V30 5877 H 532.784 5.67128 0.838978 0
M  V30 5878 H 531.181 5.99982 0.119228 0
M  V30 5879 H 532.251 4.80673 -0.638839 0
M  V30 5880 N 533.594 0.0601682 1.57485 0
M  V30 5881 C 534.84 -0.612501 1.93329 0
M  V30 5882 C 535.173 -1.6996 0.939526 0
M  V30 5883 O 534.448 -1.94472 -0.0330957 0
M  V30 5884 C 534.731 -1.20025 3.39508 0
M  V30 5885 C 534.584 -0.12059 4.49638 0
M  V30 5886 C 535.903 -2.10923 3.86264 0
M  V30 5887 H 533.022 -0.221185 0.703027 0
M  V30 5888 H 535.664 0.123768 1.89596 0
M  V30 5889 H 533.814 -1.82774 3.42821 0
M  V30 5890 H 535.486 0.51185 4.58452 0
M  V30 5891 H 533.729 0.550251 4.30296 0
M  V30 5892 H 534.4 -0.572019 5.49028 0
M  V30 5893 H 536.876 -1.58124 3.84884 0
M  V30 5894 H 535.752 -2.48987 4.8918 0
M  V30 5895 H 536.013 -3.01292 3.23536 0
M  V30 5896 N 535.072 -1.5615 -0.213296 0
M  V30 5897 C 536.488 -1.49327 -0.56336 0
M  V30 5898 C 536.688 -0.756826 -1.86747 0
M  V30 5899 O 535.744 -0.299866 -2.50713 0
M  V30 5900 C 537.057 -2.9392 -0.634944 0
M  V30 5901 C 538.605 -3.04487 -0.725013 0
M  V30 5902 C 539.08 -4.50456 -0.82787 0
M  V30 5903 N 540.571 -4.54533 -0.891876 0
M  V30 5904 C 541.306 -5.64766 -0.991315 0
M  V30 5905 N 540.802 -6.84733 -1.05419 0
M  V30 5906 N 542.595 -5.52637 -1.02709 0
M  V30 5907 H 534.746 -2.02453 0.642366 0
M  V30 5908 H 537.009 -0.920548 0.226487 0
M  V30 5909 H 536.715 -3.50783 0.253859 0
M  V30 5910 H 536.589 -3.46274 -1.49579 0
M  V30 5911 H 538.976 -2.47685 -1.60425 0
M  V30 5912 H 539.057 -2.55289 0.161669 0
M  V30 5913 H 538.701 -5.07878 0.0469464 0
M  V30 5914 H 538.631 -4.97369 -1.73009 0
M  V30 5915 H 541.122 -3.68141 -0.85327 0
M  V30 5916 H 541.435 -7.64493 -1.13007 0
M  V30 5917 H 539.78 -6.87427 -1.02318 0
M  V30 5918 H 542.971 -4.5784 -0.974687 0
M  V30 5919 H 543.144 -6.38576 -1.10113 0
M  V30 5920 N 536.55 0.480323 -1.50102 0
M  V30 5921 C 537.79 1.24301 -1.62261 0
M  V30 5922 C 538.154 1.89452 -0.311758 0
M  V30 5923 O 539.355 2.67022 -0.308696 0
M  V30 5924 C 537.626 2.26588 -2.76392 0
M  V30 5925 S 539.185 3.11919 -3.08629 0
M  V30 5926 H 536.003 0.42215 -0.57211 0
M  V30 5927 H 538.605 0.541591 -1.87848 0
M  V30 5928 H 537.309 1.7729 -3.70131 0
M  V30 5929 H 536.84 3.01371 -2.52862 0
M  V30 5930 H 538.855 4.27598 -2.51742 0
M  V30 5931 N 538.028 1.39524 0.732853 0
M  V30 5932 C 539.444 1.21176 1.03868 0
M  V30 5933 C 539.644 0.0748448 2.01361 0
M  V30 5934 O 538.7 -0.57281 2.45917 0
M  V30 5935 C 540.013 2.54667 1.59892 0
M  V30 5936 C 541.561 2.6153 1.71962 0
M  V30 5937 C 542.036 3.95248 2.31394 0
M  V30 5938 N 543.527 3.96899 2.38801 0
M  V30 5939 C 544.262 4.97138 2.85729 0
M  V30 5940 N 543.758 6.07775 3.32537 0
M  V30 5941 N 545.551 4.84516 2.84957 0
M  V30 5942 H 537.702 2.12225 0.086304 0
M  V30 5943 H 539.965 0.942614 0.100907 0
M  V30 5944 H 539.671 3.38423 0.95721 0
M  V30 5945 H 539.545 2.74538 2.58668 0
M  V30 5946 H 541.932 1.78156 2.35254 0
M  V30 5947 H 542.013 2.45507 0.718327 0
M  V30 5948 H 541.657 4.79054 1.68729 0
M  V30 5949 H 541.587 4.08593 3.32204 0
M  V30 5950 H 544.078 3.16998 2.05719 0
M  V30 5951 H 544.391 6.8017 3.66862 0
M  V30 5952 H 542.736 6.11366 3.30541 0
M  V30 5953 H 545.927 3.97185 2.47713 0
M  V30 5954 H 546.1 5.62783 3.21215 0
M  V30 5955 N 539.506 -0.963266 1.24736 0
M  V30 5956 C 540.746 -1.72172 1.10165 0
M  V30 5957 C 541.11 -1.88731 -0.352784 0
M  V30 5958 O 542.311 -2.61549 -0.620107 0
M  V30 5959 C 540.582 -3.0724 1.82589 0
M  V30 5960 S 542.141 -3.98449 1.83803 0
M  V30 5961 H 538.959 -0.591901 0.393922 0
M  V30 5962 H 541.561 -1.14955 1.58132 0
M  V30 5963 H 540.265 -2.92851 2.87518 0
M  V30 5964 H 539.796 -3.69521 1.34973 0
M  V30 5965 H 541.811 -4.87805 0.908883 0
M  V30 5966 O 541.023 -1.1863 -1.09586 0
M  V30 5967 H 541.714 -0.930355 -1.69894 0
M  V30 END ATOM
M  V30 BEGIN BOND
M  V30 END BOND
M  V30 END CTAB
M  END
$$$$
