drugbank_target|Q32P28 Prolyl 3-hydroxylase 1 (DB00126; DB00172)
 OpenBabel12092120073D

  0  0  0     0  0            999 V3000
M  V30 BEGIN CTAB
M  V30 COUNTS 11541 11678 0 0 0
M  V30 BEGIN ATOM
M  V30 1 H -0.908 1.98254 -0.117106 0
M  V30 2 N 0 1.576 0 0
M  V30 3 C 0.933 2.03868 1.02534 0
M  V30 4 C 1.911 0.928543 1.3348 0
M  V30 5 O 3.095 1.19667 1.45644 0
M  V30 6 C 0.222 2.43627 2.35294 0
M  V30 7 C -0.732 3.65373 2.2001 0
M  V30 8 S 0.101 5.13292 1.52614 0
M  V30 9 C 1.257 5.56322 2.86805 0
M  V30 10 H 1.49 2.90518 0.631377 0
M  V30 11 H -0.977 1.52953 0.210867 0
M  V30 12 H 0.981 2.67203 3.11629 0
M  V30 13 H -0.358 1.57376 2.7183 0
M  V30 14 H -1.165 3.90944 3.18086 0
M  V30 15 H -1.563 3.418 1.51819 0
M  V30 16 H 0.729 5.58782 3.83104 0
M  V30 17 H 1.672 6.56266 2.65933 0
M  V30 18 H 2.08 4.83886 2.90714 0
M  V30 19 N 1.4781 -0.272755 1.55222 0
M  V30 20 C 2.4411 -1.32041 1.87344 0
M  V30 21 C 3.4411 -1.42342 0.74803 0
M  V30 22 O 4.6311 -1.41488 1.0162 0
M  V30 23 C 1.7631 -2.70173 2.07893 0
M  V30 24 H 2.9561 -1.04789 2.80997 0
M  V30 25 H 0.5091 -0.51083 1.47717 0
M  V30 26 H 1.2441 -3.02605 1.16622 0
M  V30 27 H 1.0291 -2.64082 2.89833 0
M  V30 28 H 2.5191 -3.45869 2.34017 0
M  V30 29 N 2.9562 -1.48159 -0.537278 0
M  V30 30 C 4.2022 -1.56035 -1.29541 0
M  V30 31 C 4.5352 -0.230377 -1.92829 0
M  V30 32 O 3.8102 0.762952 -1.78911 0
M  V30 33 C 4.0932 -2.69323 -2.39034 0
M  V30 34 C 3.9462 -4.12002 -1.80485 0
M  V30 35 C 5.2652 -2.78408 -3.40847 0
M  V30 36 H 2.3842 -0.567992 -0.469632 0
M  V30 37 H 5.0262 -1.80302 -0.599277 0
M  V30 38 H 3.1762 -2.48763 -2.98412 0
M  V30 39 H 4.8482 -4.43981 -1.25215 0
M  V30 40 H 3.0912 -4.19344 -1.11055 0
M  V30 41 H 3.7622 -4.87077 -2.59731 0
M  V30 42 H 6.2382 -2.97012 -2.91416 0
M  V30 43 H 5.1142 -3.59416 -4.14863 0
M  V30 44 H 5.3752 -1.86269 -4.00944 0
M  V30 45 N 4.4343 0.785586 -1.36625 0
M  V30 46 C 5.8503 1.08419 -1.17122 0
M  V30 47 C 6.0503 2.015 0.00208491 0
M  V30 48 O 5.1063 2.43551 0.666278 0
M  V30 49 C 6.4193 1.69498 -2.48377 0
M  V30 50 C 7.9673 1.81821 -2.54775 0
M  V30 51 C 8.4423 2.46315 -3.86126 0
M  V30 52 N 9.9333 2.53779 -3.87492 0
M  V30 53 C 10.6683 3.045 -4.85868 0
M  V30 54 N 10.1643 3.55499 -5.94637 0
M  V30 55 N 11.9573 3.03247 -4.73284 0
M  V30 56 H 4.1083 0.167264 -2.1174 0
M  V30 57 H 6.3713 0.13682 -0.938075 0
M  V30 58 H 6.0773 1.08571 -3.34522 0
M  V30 59 H 5.9513 2.6896 -2.64462 0
M  V30 60 H 8.3383 2.41884 -1.69045 0
M  V30 61 H 8.4193 0.811532 -2.42586 0
M  V30 62 H 8.0633 1.86895 -4.72263 0
M  V30 63 H 7.9933 3.47561 -3.95612 0
M  V30 64 H 10.4843 2.17672 -3.08913 0
M  V30 65 H 10.7973 3.92562 -6.65669 0
M  V30 66 H 9.1423 3.5364 -5.98301 0
M  V30 67 H 12.3333 2.62696 -3.87438 0
M  V30 68 H 12.5063 3.42467 -5.50109 0
M  V30 69 N 5.9124 1.20967 1.01018 0
M  V30 70 C 6.8754 0.965918 2.07853 0
M  V30 71 C 7.8754 -0.0610545 1.60684 0
M  V30 72 O 9.0654 0.175681 1.73312 0
M  V30 73 C 6.1974 0.455513 3.37843 0
M  V30 74 H 7.3904 1.91365 2.3091 0
M  V30 75 H 4.9434 1.02594 1.17916 0
M  V30 76 H 5.6784 -0.497381 3.20463 0
M  V30 77 H 5.4634 1.19622 3.73407 0
M  V30 78 H 6.9534 0.304667 4.16487 0
M  V30 79 N 7.3905 -1.2043 1.01659 0
M  V30 80 C 8.3205 -2.25466 0.607226 0
M  V30 81 C 9.3015 -1.65853 -0.377716 0
M  V30 82 O 10.4865 -1.92409 -0.263149 0
M  V30 83 C 7.6165 -3.47256 -0.0552949 0
M  V30 84 C 6.5705 -4.19462 0.850632 0
M  V30 85 C 5.8965 -5.34673 0.0538859 0
M  V30 86 C 7.1965 -4.75603 2.15868 0
M  V30 87 H 8.8905 -2.59962 1.48526 0
M  V30 88 H 6.4365 -1.2496 0.715605 0
M  V30 89 H 8.3895 -4.19917 -0.353233 0
M  V30 90 H 7.1135 -3.11924 -0.968045 0
M  V30 91 H 5.7725 -3.48667 1.13257 0
M  V30 92 H 5.4205 -4.95585 -0.860514 0
M  V30 93 H 5.1205 -5.83913 0.657192 0
M  V30 94 H 6.6445 -6.10138 -0.237598 0
M  V30 95 H 8.0585 -5.40083 1.92311 0
M  V30 96 H 6.4555 -5.3528 2.71284 0
M  V30 97 H 7.5255 -3.94346 2.82169 0
M  V30 98 N 8.8686 -0.792821 -1.36206 0
M  V30 99 C 9.8156 -0.191653 -2.30003 0
M  V30 100 C 10.7856 0.666453 -1.52143 0
M  V30 101 O 11.9706 0.61442 -1.80636 0
M  V30 102 C 9.1106 0.664848 -3.38635 0
M  V30 103 C 8.2236 -0.212175 -4.31479 0
M  V30 104 C 7.3586 0.651022 -5.27196 0
M  V30 105 C 6.3976 -0.227247 -6.11678 0
M  V30 106 N 5.5346 0.595127 -6.99573 0
M  V30 107 H 10.3746 -0.996978 -2.80828 0
M  V30 108 H 7.9116 -0.503206 -1.38225 0
M  V30 109 H 9.8696 1.17645 -4.00269 0
M  V30 110 H 8.4996 1.43557 -2.89122 0
M  V30 111 H 7.5516 -0.841777 -3.70969 0
M  V30 112 H 8.8636 -0.888751 -4.90818 0
M  V30 113 H 8.0176 1.2283 -5.94136 0
M  V30 114 H 6.7566 1.36121 -4.68319 0
M  V30 115 H 5.7616 -0.816904 -5.43697 0
M  V30 116 H 6.9866 -0.93509 -6.72631 0
M  V30 117 H 4.9326 1.28955 -6.432 0
M  V30 118 H 4.8496 -0.0236952 -7.55996 0
M  V30 119 H 6.1176 1.15613 -7.70879 0
M  V30 120 N 10.3467 1.47872 -0.545128 0
M  V30 121 C 11.2767 2.32661 0.197793 0
M  V30 122 C 12.2577 1.43041 0.920504 0
M  V30 123 O 13.4427 1.71912 0.90333 0
M  V30 124 C 10.5727 3.24569 1.23582 0
M  V30 125 C 9.5267 4.23333 0.630323 0
M  V30 126 C 8.8527 5.0448 1.77211 0
M  V30 127 C 10.1527 5.20704 -0.407974 0
M  V30 128 H 11.8467 2.95024 -0.510045 0
M  V30 129 H 9.3927 1.4187 -0.246731 0
M  V30 130 H 11.3457 3.8272 1.76362 0
M  V30 131 H 10.0697 2.60236 1.97344 0
M  V30 132 H 8.7287 3.6639 0.123922 0
M  V30 133 H 8.3767 4.36561 2.49847 0
M  V30 134 H 8.0767 5.71339 1.37281 0
M  V30 135 H 9.6007 5.65487 2.3034 0
M  V30 136 H 11.0147 5.7329 0.033305 0
M  V30 137 H 9.4117 5.95699 -0.725486 0
M  V30 138 H 10.4817 4.66917 -1.30828 0
M  V30 139 N 11.8248 0.280983 1.55075 0
M  V30 140 C 12.7548 -0.597469 2.25727 0
M  V30 141 C 13.7358 -1.15417 1.24952 0
M  V30 142 O 14.9208 -1.18722 1.53684 0
M  V30 143 C 12.0508 -1.7789 2.98283 0
M  V30 144 C 11.0048 -1.35347 4.06036 0
M  V30 145 C 10.3308 -2.61846 4.66198 0
M  V30 146 C 11.6308 -0.499354 5.19907 0
M  V30 147 H 13.3248 -0.00824265 2.99399 0
M  V30 148 H 10.8708 -0.0025244 1.44 0
M  V30 149 H 12.8238 -2.39937 3.46422 0
M  V30 150 H 11.5478 -2.39405 2.22155 0
M  V30 151 H 10.2068 -0.756156 3.58717 0
M  V30 152 H 9.8548 -3.21632 3.86732 0
M  V30 153 H 9.5548 -2.3409 5.38958 0
M  V30 154 H 11.0788 -3.24732 5.1709 0
M  V30 155 H 12.4928 -1.02498 5.64063 0
M  V30 156 H 10.8898 -0.316424 5.99265 0
M  V30 157 H 11.9598 0.480459 4.82514 0
M  V30 158 N 13.3029 -1.57598 0.00835791 0
M  V30 159 C 14.5309 -1.95214 -0.68549 0
M  V30 160 C 14.9459 -0.883706 -1.66841 0
M  V30 161 O 14.3029 0.136565 -1.81988 0
M  V30 162 C 14.3539 -3.32865 -1.41007 0
M  V30 163 O 14.0749 -4.35609 -0.466552 0
M  V30 164 C 15.5759 -3.84991 -2.19765 0
M  V30 165 H 12.7959 -0.643422 -0.190392 0
M  V30 166 H 15.3399 -2.04406 0.0619607 0
M  V30 167 H 13.4949 -3.24956 -2.10908 0
M  V30 168 H 13.9089 -5.15288 -0.978699 0
M  V30 169 H 15.3829 -4.8371 -2.65948 0
M  V30 170 H 15.8599 -3.18137 -3.02796 0
M  V30 171 H 16.4659 -3.96103 -1.54864 0
M  V30 172 N 14.781 0.264519 -1.55364 0
M  V30 173 C 16.009 1.013 -1.80405 0
M  V30 174 C 16.424 1.79618 -0.581622 0
M  V30 175 O 15.781 1.76879 0.449468 0
M  V30 176 C 15.832 1.96487 -3.03439 0
M  V30 177 O 15.553 1.21341 -4.20961 0
M  V30 178 C 17.054 2.83079 -3.41147 0
M  V30 179 H 14.274 0.298875 -0.600762 0
M  V30 180 H 16.818 0.292736 -2.02394 0
M  V30 181 H 14.973 2.63965 -2.83551 0
M  V30 182 H 15.387 1.85573 -4.90574 0
M  V30 183 H 16.861 3.4565 -4.30384 0
M  V30 184 H 17.338 3.53286 -2.60932 0
M  V30 185 H 17.944 2.2108 -3.63323 0
M  V30 186 N 16.2591 1.48442 0.529413 0
M  V30 187 C 17.1891 1.65902 1.64313 0
M  V30 188 C 18.1701 0.507897 1.6234 0
M  V30 189 O 19.3551 0.740503 1.79528 0
M  V30 190 C 16.4851 1.69911 3.02898 0
M  V30 191 C 15.4391 2.8453 3.19729 0
M  V30 192 C 14.7651 2.73629 4.59381 0
M  V30 193 C 16.0651 4.25821 3.02447 0
M  V30 194 H 17.7591 2.5914 1.49955 0
M  V30 195 H 15.3051 1.24709 0.719982 0
M  V30 196 H 17.2581 1.80715 3.80684 0
M  V30 197 H 15.9821 0.732524 3.18279 0
M  V30 198 H 14.6411 2.73283 2.44361 0
M  V30 199 H 14.2891 1.74938 4.71599 0
M  V30 200 H 13.9891 3.50541 4.71588 0
M  V30 201 H 15.5131 2.86401 5.39265 0
M  V30 202 H 16.9271 4.37898 3.70024 0
M  V30 203 H 15.3241 5.03735 3.26146 0
M  V30 204 H 16.3941 4.42244 1.98867 0
M  V30 205 N 17.7372 -0.778329 1.37039 0
M  V30 206 C 18.6672 -1.90546 1.34962 0
M  V30 207 C 19.6482 -1.68681 0.219274 0
M  V30 208 O 20.8332 -1.89634 0.418624 0
M  V30 209 C 17.9632 -3.27734 1.14925 0
M  V30 210 C 16.9172 -3.64147 2.24902 0
M  V30 211 C 16.2432 -4.99806 1.89996 0
M  V30 212 C 17.5432 -3.71579 3.67051 0
M  V30 213 H 19.2372 -1.92541 2.29277 0
M  V30 214 H 16.7832 -0.924948 1.10366 0
M  V30 215 H 18.7362 -4.06215 1.12104 0
M  V30 216 H 17.4602 -3.26154 0.170631 0
M  V30 217 H 16.1192 -2.8797 2.26868 0
M  V30 218 H 15.7672 -4.94759 0.906796 0
M  V30 219 H 15.4672 -5.25139 2.63634 0
M  V30 220 H 16.9912 -5.80694 1.88749 0
M  V30 221 H 18.4052 -4.40227 3.67251 0
M  V30 222 H 16.8022 -4.08405 4.39688 0
M  V30 223 H 17.8722 -2.72404 4.01154 0
M  V30 224 N 19.2153 -1.21501 -1.00376 0
M  V30 225 C 20.1783 -0.976927 -2.07337 0
M  V30 226 C 21.1783 0.0525322 -1.60714 0
M  V30 227 O 22.3683 -0.184869 -1.73216 0
M  V30 228 C 19.5003 -0.473423 -3.37597 0
M  V30 229 H 20.6933 -1.92587 -2.29892 0
M  V30 230 H 18.2463 -1.03217 -1.17371 0
M  V30 231 H 18.9813 0.480379 -3.20722 0
M  V30 232 H 18.7663 -1.216 -3.72768 0
M  V30 233 H 20.2563 -0.32675 -4.1632 0
M  V30 234 N 20.6934 1.19889 -1.02296 0
M  V30 235 C 21.9394 1.89701 -0.717033 0
M  V30 236 C 22.2724 1.7905 0.751989 0
M  V30 237 O 21.5474 1.17891 1.547 0
M  V30 238 C 21.8304 3.40858 -1.16136 0
M  V30 239 C 21.6834 3.60411 -2.69117 0
M  V30 240 C 23.0024 4.33876 -0.737549 0
M  V30 241 H 20.1214 0.688874 -0.261957 0
M  V30 242 H 22.7634 1.41154 -1.27183 0
M  V30 243 H 20.9134 3.82335 -0.689342 0
M  V30 244 H 22.5854 3.28145 -3.2422 0
M  V30 245 H 20.8284 3.03665 -3.0979 0
M  V30 246 H 21.4994 4.66396 -2.95261 0
M  V30 247 H 23.9754 4.00081 -1.14344 0
M  V30 248 H 22.8514 5.38242 -1.0764 0
M  V30 249 H 23.1124 4.40628 0.360436 0
M  V30 250 N 22.1715 0.800033 1.35784 0
M  V30 251 C 23.4175 0.377901 1.99248 0
M  V30 252 C 23.7505 -1.05052 1.63333 0
M  V30 253 O 23.0255 -1.72768 0.893385 0
M  V30 254 C 23.3085 0.553922 3.55814 0
M  V30 255 C 23.1615 2.0268 4.01548 0
M  V30 256 C 24.4805 -0.0244802 4.40093 0
M  V30 257 H 21.5995 0.138782 0.723815 0
M  V30 258 H 24.2415 1.00835 1.61035 0
M  V30 259 H 22.3915 0.0172398 3.88496 0
M  V30 260 H 24.0635 2.62536 3.79305 0
M  V30 261 H 22.3065 2.5256 3.52698 0
M  V30 262 H 22.9775 2.10087 5.10458 0
M  V30 263 H 25.4535 0.433775 4.13833 0
M  V30 264 H 24.3295 0.128637 5.48749 0
M  V30 265 H 24.5905 -1.11758 4.27741 0
M  V30 266 N 23.6496 -1.47581 0.552962 0
M  V30 267 C 24.6126 -2.28439 -0.186605 0
M  V30 268 C 25.6126 -1.36706 -0.84665 0
M  V30 269 O 26.8026 -1.59378 -0.703164 0
M  V30 270 C 23.9346 -3.16264 -1.2724 0
M  V30 271 H 25.1276 -2.95294 0.523609 0
M  V30 272 H 22.6806 -1.532 0.309745 0
M  V30 273 H 23.4156 -2.54091 -2.01514 0
M  V30 274 H 23.2006 -3.83769 -0.803968 0
M  V30 275 H 24.6906 -3.77198 -1.79196 0
M  V30 276 N 25.1277 -0.289203 -1.54924 0
M  V30 277 C 26.0907 0.579144 -2.21762 0
M  V30 278 C 27.0907 1.07047 -1.1999 0
M  V30 279 O 28.2807 0.968384 -1.44803 0
M  V30 280 C 25.4127 1.80055 -2.8947 0
M  V30 281 H 26.6057 -0.00464908 -2.999 0
M  V30 282 H 24.1587 -0.0399306 -1.56249 0
M  V30 283 H 24.8937 2.42449 -2.15381 0
M  V30 284 H 24.6787 1.45602 -3.64064 0
M  V30 285 H 26.1687 2.41773 -3.40493 0
M  V30 286 N 26.6058 1.57591 -0.0167156 0
M  V30 287 C 27.5688 2.08393 0.954204 0
M  V30 288 C 28.5688 0.996531 1.26198 0
M  V30 289 O 29.7588 1.25858 1.20438 0
M  V30 290 C 26.8908 2.5394 2.27436 0
M  V30 291 H 28.0838 2.95455 0.514451 0
M  V30 292 H 25.6368 1.54582 0.231089 0
M  V30 293 H 26.3718 1.70171 2.76066 0
M  V30 294 H 26.1568 3.33371 2.06412 0
M  V30 295 H 27.6468 2.93512 2.97053 0
M  V30 296 N 28.0839 -0.256276 1.55502 0
M  V30 297 C 29.3089 -1.00766 1.81276 0
M  V30 298 C 29.7339 -1.78524 0.59252 0
M  V30 299 O 29.0919 -1.75413 -0.45827 0
M  V30 300 C 29.1399 -1.92869 3.04687 0
M  V30 301 O 28.2439 -3.019 2.80945 0
M  V30 302 H 27.5849 -0.287224 0.598664 0
M  V30 303 H 30.1149 -0.280109 2.02674 0
M  V30 304 H 30.1249 -2.34511 3.33869 0
M  V30 305 H 28.7999 -1.35689 3.93143 0
M  V30 306 H 27.3769 -2.64454 2.62904 0
M  V30 307 N 29.562 -1.4872 -0.521534 0
M  V30 308 C 30.494 -1.59968 -1.64143 0
M  V30 309 C 31.507 -0.483463 -1.55456 0
M  V30 310 O 32.696 -0.75467 -1.61762 0
M  V30 311 C 29.796 -1.52127 -3.02838 0
M  V30 312 C 28.969 -2.78932 -3.36921 0
M  V30 313 C 28.028 -2.64428 -4.54933 0
M  V30 314 O 27.054 -3.38331 -4.57735 0
M  V30 315 N 28.256 -1.74606 -5.53618 0
M  V30 316 H 31.021 -2.56548 -1.54929 0
M  V30 317 H 28.582 -1.45551 -0.708988 0
M  V30 318 H 30.574 -1.40106 -3.79674 0
M  V30 319 H 29.144 -0.634868 -3.06085 0
M  V30 320 H 28.364 -3.05455 -2.4918 0
M  V30 321 H 29.652 -3.63041 -3.56481 0
M  V30 322 H 29.05 -1.13782 -5.54139 0
M  V30 323 H 27.607 -1.6852 -6.29638 0
M  V30 324 N 31.0401 0.771051 -1.3745 0
M  V30 325 C 32.0031 1.86598 -1.33093 0
M  V30 326 C 33.0031 1.59076 -0.234845 0
M  V30 327 O 34.1931 1.67145 -0.490732 0
M  V30 328 C 31.3251 3.23747 -1.06773 0
M  V30 329 H 32.5181 1.91873 -2.30488 0
M  V30 330 H 30.0711 0.970876 -1.2249 0
M  V30 331 H 30.8061 3.24148 -0.099129 0
M  V30 332 H 30.5911 3.45115 -1.86112 0
M  V30 333 H 32.0811 4.03824 -1.06377 0
M  V30 334 N 32.5182 1.22032 0.997298 0
M  V30 335 C 33.4282 1.00271 2.12092 0
M  V30 336 C 34.4442 -0.047621 1.73935 0
M  V30 337 O 35.6202 0.144136 2.00884 0
M  V30 338 C 32.6852 0.578449 3.4184 0
M  V30 339 C 31.7462 1.70189 3.94125 0
M  V30 340 C 30.9792 1.29778 5.17681 0
M  V30 341 O 31.2022 0.174676 5.70132 0
M  V30 342 O 30.1362 2.11261 5.63607 0
M  V30 343 H 33.9622 1.94398 2.3333 0
M  V30 344 H 31.5472 1.00587 1.10465 0
M  V30 345 H 33.4292 0.351998 4.19927 0
M  V30 346 H 32.1042 -0.334019 3.21972 0
M  V30 347 H 31.0112 1.98282 3.1723 0
M  V30 348 H 32.3442 2.59206 4.18417 0
M  V30 349 N 33.9963 -1.19345 1.0293 0
M  V30 350 C 35.2423 -1.89318 0.727083 0
M  V30 351 C 35.5753 -1.79446 -0.742483 0
M  V30 352 O 34.8503 -1.1871 -1.54072 0
M  V30 353 C 35.1333 -3.40238 1.17942 0
M  V30 354 C 34.9863 -3.58979 2.71024 0
M  V30 355 C 36.3053 -4.33479 0.760548 0
M  V30 356 H 33.4243 -0.687475 0.265606 0
M  V30 357 H 36.0663 -1.40477 1.2793 0
M  V30 358 H 34.2163 -3.81964 0.709608 0
M  V30 359 H 35.8883 -3.26421 3.25955 0
M  V30 360 H 34.1313 -3.02018 3.11396 0
M  V30 361 H 34.8023 -4.64823 2.9773 0
M  V30 362 H 37.2783 -3.99469 1.16464 0
M  V30 363 H 36.1543 -5.37664 1.10493 0
M  V30 364 H 36.4153 -4.40813 -0.337063 0
M  V30 365 N 35.4744 -0.807222 -1.35358 0
M  V30 366 C 36.3844 -0.219594 -2.3357 0
M  V30 367 C 37.4004 0.637734 -1.61892 0
M  V30 368 O 38.5764 0.549336 -1.93763 0
M  V30 369 C 35.6414 0.62158 -3.41083 0
M  V30 370 C 34.7024 -0.256315 -4.28534 0
M  V30 371 C 33.9354 0.544807 -5.30912 0
M  V30 372 O 34.1584 1.77944 -5.41934 0
M  V30 373 O 33.0924 -0.0646478 -6.01865 0
M  V30 374 H 36.9184 -1.03208 -2.85625 0
M  V30 375 H 34.5034 -0.569025 -1.38139 0
M  V30 376 H 36.3854 1.10067 -4.06772 0
M  V30 377 H 35.0604 1.41165 -2.91297 0
M  V30 378 H 33.9674 -0.782559 -3.65823 0
M  V30 379 H 35.3004 -1.01034 -4.81719 0
M  V30 380 N 36.9525 1.47285 -0.560781 0
M  V30 381 C 38.1775 2.07359 -0.0410566 0
M  V30 382 C 38.6025 1.41017 1.24483 0
M  V30 383 O 37.9605 0.486368 1.74654 0
M  V30 384 C 38.0085 3.6035 0.134123 0
M  V30 385 O 37.1125 3.94681 1.19587 0
M  V30 386 H 36.4535 0.661887 -0.0529291 0
M  V30 387 H 38.9835 1.89252 -0.777482 0
M  V30 388 H 38.9935 4.0652 0.347207 0
M  V30 389 H 37.6685 4.08034 -0.805047 0
M  V30 390 H 36.2455 3.60251 0.962987 0
M  V30 391 N 38.4306 0.297415 1.54768 0
M  V30 392 C 39.3406 -0.58983 2.27064 0
M  V30 393 C 40.3566 -1.15144 1.30453 0
M  V30 394 O 41.5326 -1.17699 1.63428 0
M  V30 395 C 38.5976 -1.74714 2.9946 0
M  V30 396 C 37.6586 -1.21997 4.11601 0
M  V30 397 C 36.8916 -2.32212 4.80535 0
M  V30 398 O 37.1146 -3.52036 4.48806 0
M  V30 399 O 36.0486 -1.99106 5.68014 0
M  V30 400 H 39.8746 -0.00348199 3.037 0
M  V30 401 H 37.4596 0.0640035 1.49263 0
M  V30 402 H 39.3416 -2.42147 3.44881 0
M  V30 403 H 38.0166 -2.32016 2.25722 0
M  V30 404 H 36.9236 -0.511458 3.70587 0
M  V30 405 H 38.2566 -0.692419 4.87305 0
M  V30 406 N 39.9087 -1.5758 0.0250728 0
M  V30 407 C 40.8717 -2.08896 -0.943139 0
M  V30 408 C 41.8717 -1.00321 -1.25668 0
M  V30 409 O 43.0617 -1.26495 -1.19769 0
M  V30 410 C 40.1937 -2.55143 -2.26086 0
M  V30 411 H 41.3867 -2.95723 -0.498775 0
M  V30 412 H 38.9397 -1.54703 -0.222888 0
M  V30 413 H 39.6747 -1.71633 -2.75159 0
M  V30 414 H 39.4597 -3.34461 -2.04641 0
M  V30 415 H 40.9497 -2.95083 -2.95492 0
M  V30 416 N 41.3868 0.248026 -1.55636 0
M  V30 417 C 42.6348 0.974295 -1.77065 0
M  V30 418 C 42.9558 1.85897 -0.588849 0
M  V30 419 O 42.2258 1.91868 0.395407 0
M  V30 420 H 40.8058 0.362733 -0.653019 0
M  V30 421 H 43.4678 0.266244 -1.93073 0
M  V30 422 H 42.5638 1.59667 -2.68166 0
M  V30 423 N 42.8649 1.48995 0.513639 0
M  V30 424 C 44.1109 1.59053 1.26783 0
M  V30 425 C 44.4659 0.268136 1.90522 0
M  V30 426 O 43.7589 -0.730534 1.77126 0
M  V30 427 C 43.9529 2.67756 2.36731 0
M  V30 428 C 43.7819 4.10437 1.83771 0
M  V30 429 C 42.5519 4.7738 1.65639 0
M  V30 430 C 44.7499 4.9608 1.35681 0
M  V30 431 N 42.7319 6.04419 1.07476 0
M  V30 432 C 44.1029 6.13496 0.895715 0
M  V30 433 C 46.1579 4.82177 1.24136 0
M  V30 434 C 44.8609 7.1854 0.3306 0
M  V30 435 C 46.8869 5.87358 0.690229 0
M  V30 436 C 46.2489 7.03993 0.239292 0
M  V30 437 H 42.3479 0.636463 0.454355 0
M  V30 438 H 44.9319 1.85948 0.577196 0
M  V30 439 H 43.1029 2.42655 3.03271 0
M  V30 440 H 44.8349 2.67406 3.0377 0
M  V30 441 H 41.5899 4.33974 1.8964 0
M  V30 442 H 42.0139 6.72214 0.803579 0
M  V30 443 H 46.6559 3.92329 1.57601 0
M  V30 444 H 44.3739 8.08098 -0.0163435 0
M  V30 445 H 47.9599 5.78658 0.603852 0
M  V30 446 H 46.8399 7.83992 -0.180526 0
M  V30 447 N 44.343 -0.763751 1.37857 0
M  V30 448 C 45.591 -1.51957 1.33243 0
M  V30 449 C 45.912 -1.94835 -0.0801709 0
M  V30 450 O 45.182 -1.66894 -1.02582 0
M  V30 451 H 43.762 -0.563626 0.49024 0
M  V30 452 H 46.424 -0.908504 1.7243 0
M  V30 453 H 45.52 -2.41523 1.97669 0
M  V30 454 N 45.8211 -1.22559 -0.990812 0
M  V30 455 C 46.7541 -0.940773 -2.07905 0
M  V30 456 C 47.7321 0.117082 -1.62178 0
M  V30 457 O 48.9161 -0.0149506 -1.88494 0
M  V30 458 C 46.0431 -0.415321 -3.36144 0
M  V30 459 C 45.0891 -1.45818 -4.00799 0
M  V30 460 S 45.9221 -3.03219 -4.41382 0
M  V30 461 C 47.0781 -2.52317 -5.72789 0
M  V30 462 H 47.3111 -1.8623 -2.31745 0
M  V30 463 H 44.8441 -1.05688 -1.12558 0
M  V30 464 H 46.8021 -0.118747 -4.10328 0
M  V30 465 H 45.4631 0.485121 -3.10331 0
M  V30 466 H 44.6561 -1.04044 -4.93144 0
M  V30 467 H 44.2581 -1.70356 -3.32949 0
M  V30 468 H 46.5501 -1.93688 -6.49224 0
M  V30 469 H 47.4931 -3.43161 -6.19392 0
M  V30 470 H 47.9011 -1.93529 -5.30289 0
M  V30 471 N 47.2992 1.18797 -1.03562 0
M  V30 472 C 48.5452 1.8893 -0.737113 0
M  V30 473 C 48.8782 1.79837 0.732956 0
M  V30 474 O 48.1532 1.19525 1.5344 0
M  V30 475 C 48.4362 3.39607 -1.19745 0
M  V30 476 C 48.2892 3.57537 -2.72924 0
M  V30 477 C 49.6082 4.33069 -0.783526 0
M  V30 478 H 46.7272 0.686057 -0.269249 0
M  V30 479 H 49.3692 1.39797 -1.28673 0
M  V30 480 H 47.5192 3.81583 -0.729855 0
M  V30 481 H 49.1912 3.24688 -3.27682 0
M  V30 482 H 47.4342 3.00363 -3.12993 0
M  V30 483 H 48.1052 4.63238 -3.00191 0
M  V30 484 H 50.5812 3.98846 -1.18581 0
M  V30 485 H 49.4572 5.3707 -1.13343 0
M  V30 486 H 49.7182 4.40986 0.313681 0
M  V30 487 N 48.7773 0.814389 1.34928 0
M  V30 488 C 50.0053 0.411136 2.02774 0
M  V30 489 C 50.4203 -0.980316 1.61354 0
M  V30 490 O 49.7773 -1.63299 0.814847 0
M  V30 491 C 49.8283 0.493865 3.58111 0
M  V30 492 O 49.5493 1.83047 3.98027 0
M  V30 493 C 51.0503 0.0844174 4.4322 0
M  V30 494 H 48.2703 0.166037 0.650133 0
M  V30 495 H 50.8143 1.10018 1.72384 0
M  V30 496 H 48.9693 -0.147006 3.87121 0
M  V30 497 H 49.3833 1.79872 4.92693 0
M  V30 498 H 50.8573 0.193404 5.51661 0
M  V30 499 H 51.3343 -0.97113 4.28329 0
M  V30 500 H 51.9403 0.69875 4.19521 0
M  V30 501 N 50.2554 -1.46986 0.568584 0
M  V30 502 C 51.6664 -1.86188 0.138219 0
M  V30 503 C 52.0174 -1.47388 -1.29504 0
M  V30 504 O 51.1424 -0.88219 -1.97602 0
M  V30 505 C 51.7374 -3.3792 0.244065 0
M  V30 506 C 50.2964 -3.76171 -0.131335 0
M  V30 507 C 49.4434 -2.71027 0.586465 0
M  V30 508 H 52.3944 -1.38342 0.777645 0
M  V30 509 H 52.4154 -3.76729 -0.534351 0
M  V30 510 H 51.9274 -3.66128 1.28731 0
M  V30 511 H 50.0284 -3.5358 -1.17526 0
M  V30 512 H 50.1414 -4.78523 0.235146 0
M  V30 513 H 48.5054 -2.54684 0.0282722 0
M  V30 514 H 49.2884 -3.02077 1.63109 0
M  V30 515 N 51.7335 -0.305618 -1.54608 0
M  V30 516 C 53.0105 0.355652 -1.92339 0
M  V30 517 C 53.3905 1.71324 -1.23335 0
M  V30 518 O 52.7385 2.25473 -0.370702 0
M  V30 519 C 52.9485 0.46572 -3.45879 0
M  V30 520 C 54.2965 0.734426 -4.182 0
M  V30 521 O 55.3205 0.54935 -3.51938 0
M  V30 522 O 54.1795 1.09024 -5.35515 0
M  V30 523 H 51.2735 0.199666 -0.802535 0
M  V30 524 H 53.8195 -0.354017 -1.65966 0
M  V30 525 H 52.5915 -0.488461 -3.88239 0
M  V30 526 H 52.2145 1.22367 -3.78301 0
M  V30 527 N 53.2116 1.57565 -0.0334293 0
M  V30 528 C 54.1416 2.13511 0.945265 0
M  V30 529 C 55.1226 1.05231 1.33643 0
M  V30 530 O 56.3076 1.33084 1.41429 0
M  V30 531 C 53.4376 2.6657 2.22616 0
M  V30 532 C 52.3916 3.79676 1.97561 0
M  V30 533 C 51.7176 4.1918 3.31952 0
M  V30 534 C 53.0176 5.0557 1.31135 0
M  V30 535 H 54.7116 2.95538 0.479325 0
M  V30 536 H 52.2576 1.42166 0.229115 0
M  V30 537 H 54.2106 3.04344 2.91466 0
M  V30 538 H 52.9346 1.8171 2.71384 0
M  V30 539 H 51.5936 3.42347 1.31127 0
M  V30 540 H 51.2416 3.31296 3.78487 0
M  V30 541 H 50.9416 4.95402 3.15992 0
M  V30 542 H 52.4656 4.59541 4.02063 0
M  V30 543 H 53.8796 5.40903 1.89992 0
M  V30 544 H 52.2766 5.86818 1.25559 0
M  V30 545 H 53.3466 4.84062 0.284894 0
M  V30 546 N 54.6897 -0.239769 1.55765 0
M  V30 547 C 55.6197 -1.30052 1.9393 0
M  V30 548 C 56.6007 -1.49839 0.805132 0
M  V30 549 O 57.7857 -1.62328 1.06599 0
M  V30 550 C 54.9157 -2.65391 2.2402 0
M  V30 551 C 53.8697 -2.60289 3.39755 0
M  V30 552 C 53.1957 -3.99489 3.55405 0
M  V30 553 C 54.4957 -2.16654 4.75246 0
M  V30 554 H 56.1897 -0.983573 2.82783 0
M  V30 555 H 53.7357 -0.471701 1.36055 0
M  V30 556 H 55.6887 -3.3974 2.49308 0
M  V30 557 H 54.4127 -2.98736 1.32 0
M  V30 558 H 53.0717 -1.88398 3.14487 0
M  V30 559 H 52.7197 -4.30112 2.60793 0
M  V30 560 H 52.4197 -3.96962 4.33238 0
M  V30 561 H 53.9437 -4.75528 3.83022 0
M  V30 562 H 55.3577 -2.80737 4.99859 0
M  V30 563 H 53.7547 -2.25223 5.56232 0
M  V30 564 H 54.8247 -1.11835 4.71827 0
M  V30 565 N 56.1678 -1.49265 -0.50573 0
M  V30 566 C 57.4148 -1.58513 -1.26015 0
M  V30 567 C 57.7428 -0.26972 -1.92621 0
M  V30 568 O 56.9978 0.741997 -1.81088 0
M  V30 569 C 57.2968 -2.69008 -2.35308 0
M  V30 570 C 56.9628 -4.10662 -1.86192 0
M  V30 571 C 55.6248 -4.49212 -1.72516 0
M  V30 572 C 57.9768 -4.99336 -1.49375 0
M  V30 573 C 55.3048 -5.74214 -1.20394 0
M  V30 574 C 57.6568 -6.24852 -0.987072 0
M  V30 575 C 56.3208 -6.62236 -0.836669 0
M  V30 576 H 55.5908 -0.580041 -0.461122 0
M  V30 577 H 58.2378 -1.83078 -0.561665 0
M  V30 578 H 56.5428 -2.38396 -3.10926 0
M  V30 579 H 58.2398 -2.73373 -2.93374 0
M  V30 580 H 54.8298 -3.8023 -1.97795 0
M  V30 581 H 59.0138 -4.70212 -1.5879 0
M  V30 582 H 54.2698 -6.01883 -1.07458 0
M  V30 583 H 58.4438 -6.92944 -0.692983 0
M  V30 584 H 56.0708 -7.58979 -0.430607 0
M  V30 585 N 57.6459 0.756429 -1.3826 0
M  V30 586 C 58.6089 1.85176 -1.35065 0
M  V30 587 C 59.6089 1.58818 -0.251703 0
M  V30 588 O 60.7989 1.66615 -0.508433 0
M  V30 589 C 57.9309 3.22596 -1.10201 0
M  V30 590 H 59.1239 1.89417 -2.3251 0
M  V30 591 H 56.6769 0.95783 -1.23512 0
M  V30 592 H 57.4119 3.24025 -0.133504 0
M  V30 593 H 57.1969 3.43122 -1.89762 0
M  V30 594 H 58.6869 4.02673 -1.10654 0
M  V30 595 N 59.124 1.23083 0.984299 0
M  V30 596 C 60.034 1.02515 2.11016 0
M  V30 597 C 61.05 -0.0291702 1.73976 0
M  V30 598 O 62.226 0.165434 2.00719 0
M  V30 599 C 59.291 0.614673 3.41208 0
M  V30 600 C 58.352 1.74359 3.92297 0
M  V30 601 C 57.585 1.35261 5.16275 0
M  V30 602 O 57.808 0.235136 5.69915 0
M  V30 603 O 56.742 2.17227 5.61334 0
M  V30 604 H 60.568 1.96862 2.31255 0
M  V30 605 H 58.153 1.01753 1.09392 0
M  V30 606 H 60.035 0.396518 4.1953 0
M  V30 607 H 58.71 -0.299851 3.22308 0
M  V30 608 H 57.617 2.01635 3.1511 0
M  V30 609 H 58.95 2.63629 4.15645 0
M  V30 610 N 60.6021 -1.18246 1.0419 0
M  V30 611 C 61.8501 -1.87886 0.744543 0
M  V30 612 C 62.1711 -1.8082 -0.730006 0
M  V30 613 O 61.4411 -1.22736 -1.52685 0
M  V30 614 H 60.0211 -0.695556 0.272417 0
M  V30 615 H 62.6831 -1.43494 1.31892 0
M  V30 616 H 61.7791 -2.9389 1.05049 0
M  V30 617 N 62.0802 -0.821533 -1.34494 0
M  V30 618 C 63.3082 -0.421884 -2.02553 0
M  V30 619 C 63.7232 0.971745 -1.61872 0
M  V30 620 O 63.0802 1.62864 -0.823496 0
M  V30 621 C 63.1312 -0.51285 -3.57844 0
M  V30 622 O 62.8522 -1.85155 -3.97051 0
M  V30 623 C 64.3532 -0.107921 -4.43169 0
M  V30 624 H 61.5732 -0.169482 -0.649243 0
M  V30 625 H 64.1172 -1.1093 -1.71798 0
M  V30 626 H 62.2722 0.126474 -3.87193 0
M  V30 627 H 62.6862 -1.82482 -4.91732 0
M  V30 628 H 64.1602 -0.222657 -5.51551 0
M  V30 629 H 64.6372 0.948401 -4.28838 0
M  V30 630 H 65.2432 -0.720989 -4.19144 0
M  V30 631 N 63.5583 1.46682 -0.576371 0
M  V30 632 C 64.5213 2.28707 0.150239 0
M  V30 633 C 65.5213 1.38035 0.824794 0
M  V30 634 O 66.7113 1.60476 0.677719 0
M  V30 635 C 63.8433 3.18248 1.22192 0
M  V30 636 H 65.0363 2.94423 -0.570521 0
M  V30 637 H 62.5893 1.52688 -0.334078 0
M  V30 638 H 63.3243 2.57265 1.97447 0
M  V30 639 H 63.1093 3.85 0.742812 0
M  V30 640 H 64.5993 3.80001 1.73172 0
M  V30 641 N 65.0364 0.313813 1.54444 0
M  V30 642 C 65.9994 -0.54379 2.22656 0
M  V30 643 C 66.9994 -1.05124 1.21678 0
M  V30 644 O 68.1894 -0.945225 1.46325 0
M  V30 645 C 65.3214 -1.75427 2.92298 0
M  V30 646 H 66.5144 0.0523599 2.99854 0
M  V30 647 H 64.0674 0.0647834 1.56166 0
M  V30 648 H 64.8024 -2.38991 2.19211 0
M  V30 649 H 64.5874 -1.39791 3.66334 0
M  V30 650 H 66.0774 -2.36325 3.44297 0
M  V30 651 N 66.5145 -1.57545 0.0417849 0
M  V30 652 C 67.7445 -1.96339 -0.642995 0
M  V30 653 C 68.1525 -0.917536 -1.65463 0
M  V30 654 O 67.4955 0.107747 -1.83384 0
M  V30 655 C 67.5575 -3.31333 -1.39494 0
M  V30 656 C 67.2215 -4.53796 -0.540204 0
M  V30 657 C 68.2185 -5.19553 0.189806 0
M  V30 658 C 65.9035 -5.0006 -0.473886 0
M  V30 659 C 67.8975 -6.29904 0.974674 0
M  V30 660 C 65.5845 -6.10289 0.314677 0
M  V30 661 C 66.5825 -6.75072 1.03765 0
M  V30 662 O 66.2705 -7.83183 1.81327 0
M  V30 663 H 66.0025 -0.651241 -0.181277 0
M  V30 664 H 68.5565 -2.05148 0.101665 0
M  V30 665 H 66.7865 -3.19052 -2.18502 0
M  V30 666 H 68.4755 -3.54942 -1.96904 0
M  V30 667 H 69.2415 -4.84774 0.147981 0
M  V30 668 H 65.1205 -4.49433 -1.0262 0
M  V30 669 H 68.6645 -6.80401 1.5395 0
M  V30 670 H 64.5615 -6.44506 0.358174 0
M  V30 671 H 65.3295 -7.99913 1.73438 0
M  V30 672 N 67.9926 0.231505 -1.5589 0
M  V30 673 C 68.9556 1.27028 -1.90779 0
M  V30 674 C 69.9556 1.40308 -0.785507 0
M  V30 675 O 71.1456 1.38744 -1.05336 0
M  V30 676 C 68.2776 2.64566 -2.14983 0
M  V30 677 H 69.4706 0.973017 -2.83677 0
M  V30 678 H 67.0236 0.471486 -1.49019 0
M  V30 679 H 67.7586 2.99406 -1.24604 0
M  V30 680 H 67.5436 2.56305 -2.96732 0
M  V30 681 H 69.0336 3.39543 -2.43105 0
M  V30 682 N 69.4707 1.49531 0.497807 0
M  V30 683 C 70.8867 1.36365 0.829266 0
M  V30 684 C 71.0867 0.399184 1.97506 0
M  V30 685 O 70.1427 -0.167977 2.51941 0
M  V30 686 C 71.4557 2.77153 1.16647 0
M  V30 687 C 73.0037 2.85877 1.27449 0
M  V30 688 C 73.4787 4.2744 1.64497 0
M  V30 689 N 74.9697 4.30265 1.7154 0
M  V30 690 C 75.7047 5.3677 2.01656 0
M  V30 691 N 75.2007 6.53516 2.29976 0
M  V30 692 N 76.9937 5.24189 2.02934 0
M  V30 693 H 69.1447 2.10831 -0.257703 0
M  V30 694 H 71.4077 0.946534 -0.0527091 0
M  V30 695 H 71.1137 3.49442 0.397872 0
M  V30 696 H 70.9877 3.12722 2.10915 0
M  V30 697 H 73.3747 2.13824 2.0338 0
M  V30 698 H 73.4557 2.53887 0.312244 0
M  V30 699 H 73.0997 5.00021 0.891151 0
M  V30 700 H 73.0297 4.56896 2.61827 0
M  V30 701 H 75.5207 3.4607 1.51802 0
M  V30 702 H 75.8337 7.30506 2.52153 0
M  V30 703 H 74.1787 6.56737 2.27425 0
M  V30 704 H 77.3697 4.31988 1.80289 0
M  V30 705 H 77.5427 6.07286 2.26071 0
M  V30 706 N 70.9488 -0.749086 1.3866 0
M  V30 707 C 72.1968 -1.50535 1.34847 0
M  V30 708 C 72.5178 -1.94909 -0.0595016 0
M  V30 709 O 71.7878 -1.67973 -1.00806 0
M  V30 710 H 70.3678 -0.558395 0.49619 0
M  V30 711 H 73.0298 -0.890165 1.73384 0
M  V30 712 H 72.1258 -2.39413 2.00219 0
M  V30 713 N 72.4269 -1.23603 -0.977757 0
M  V30 714 C 73.7039 -0.977897 -1.69401 0
M  V30 715 C 74.0839 0.502738 -2.05026 0
M  V30 716 O 73.4319 1.47459 -1.74551 0
M  V30 717 C 73.6419 -1.89077 -2.93345 0
M  V30 718 C 74.9899 -2.15579 -3.65802 0
M  V30 719 O 76.0139 -1.86648 -3.03383 0
M  V30 720 O 74.8729 -2.64658 -4.78141 0
M  V30 721 H 71.9669 -0.369025 -0.740101 0
M  V30 722 H 74.5129 -1.34657 -1.03274 0
M  V30 723 H 73.2849 -2.89158 -2.63634 0
M  V30 724 H 72.9079 -1.52463 -3.67207 0
M  V30 725 N 73.905 1.17692 -1.04816 0
M  V30 726 C 75.151 1.88389 -0.766892 0
M  V30 727 C 75.506 1.79282 0.698269 0
M  V30 728 O 74.799 1.18739 1.50372 0
M  V30 729 C 74.993 3.37462 -1.17703 0
M  V30 730 C 74.822 3.6108 -2.68051 0
M  V30 731 C 73.592 3.78018 -3.35307 0
M  V30 732 C 75.79 3.61039 -3.66273 0
M  V30 733 N 73.772 3.89444 -4.74559 0
M  V30 734 C 75.143 3.78269 -4.91235 0
M  V30 735 C 77.198 3.44168 -3.59796 0
M  V30 736 C 75.901 3.80376 -6.10497 0
M  V30 737 C 77.927 3.4756 -4.78493 0
M  V30 738 C 77.289 3.65295 -6.02278 0
M  V30 739 H 73.388 0.707651 -0.332798 0
M  V30 740 H 75.972 1.41314 -1.33934 0
M  V30 741 H 74.143 3.83214 -0.63257 0
M  V30 742 H 75.875 3.95759 -0.845989 0
M  V30 743 H 72.63 3.77714 -2.85708 0
M  V30 744 H 73.054 3.98962 -5.46954 0
M  V30 745 H 77.696 3.29396 -2.65062 0
M  V30 746 H 75.414 3.93933 -7.05579 0
M  V30 747 H 79 3.3577 -4.75131 0
M  V30 748 H 77.88 3.6782 -6.92588 0
M  V30 749 N 75.3831 0.828654 1.34056 0
M  V30 750 C 76.7941 0.477534 1.8049 0
M  V30 751 C 77.1451 -1.00258 1.6865 0
M  V30 752 O 76.2701 -1.78057 1.22982 0
M  V30 753 C 76.8651 0.860018 3.27703 0
M  V30 754 C 75.4241 0.561185 3.72193 0
M  V30 755 C 74.5711 1.07385 2.55663 0
M  V30 756 H 77.5221 1.0183 1.21722 0
M  V30 757 H 77.5431 0.166038 3.80138 0
M  V30 758 H 77.0551 1.93731 3.36288 0
M  V30 759 H 75.1561 -0.506465 3.69142 0
M  V30 760 H 75.2691 1.10926 4.66082 0
M  V30 761 H 73.6331 0.495149 2.49841 0
M  V30 762 H 74.4161 2.15771 2.67016 0
M  V30 763 N 76.8612 -1.46375 0.584142 0
M  V30 764 C 78.1092 -2.01978 0.0701287 0
M  V30 765 C 78.4302 -1.4579 -1.295 0
M  V30 766 O 77.7002 -0.64314 -1.85042 0
M  V30 767 H 76.2802 -0.746648 0.0229345 0
M  V30 768 H 78.9422 -1.79461 0.760245 0
M  V30 769 H 78.0382 -3.121 0.0022064 0
M  V30 770 N 78.3393 -0.321999 -1.54275 0
M  V30 771 C 79.5853 0.281461 -2.00837 0
M  V30 772 C 79.9183 1.51909 -1.20985 0
M  V30 773 O 79.1933 1.923 -0.291733 0
M  V30 774 C 79.4763 0.617162 -3.54772 0
M  V30 775 C 79.3293 -0.631064 -4.45351 0
M  V30 776 C 80.6483 1.43542 -4.16033 0
M  V30 777 H 77.7673 0.100826 -0.730071 0
M  V30 778 H 80.4093 -0.438268 -1.84876 0
M  V30 779 H 78.5593 1.23034 -3.68504 0
M  V30 780 H 80.2313 -1.26934 -4.43492 0
M  V30 781 H 78.4743 -1.26025 -4.15091 0
M  V30 782 H 79.1453 -0.351735 -5.50878 0
M  V30 783 H 81.6213 0.917134 -4.05867 0
M  V30 784 H 80.4973 1.63907 -5.23856 0
M  V30 785 H 80.7583 2.43108 -3.69257 0
M  V30 786 N 79.8174 1.5752 -0.0501392 0
M  V30 787 C 81.0634 1.92936 0.624798 0
M  V30 788 C 81.3964 0.928685 1.70555 0
M  V30 789 O 80.6714 -0.0454779 1.94447 0
M  V30 790 C 80.9544 3.38737 1.22185 0
M  V30 791 C 80.8074 4.49552 0.149218 0
M  V30 792 C 82.1264 3.84913 2.13378 0
M  V30 793 H 79.2454 0.701604 0.225657 0
M  V30 794 H 81.8874 1.89671 -0.111693 0
M  V30 795 H 80.0374 3.4165 1.84953 0
M  V30 796 H 81.7094 4.58768 -0.482648 0
M  V30 797 H 79.9524 4.30638 -0.522841 0
M  V30 798 H 80.6234 5.48653 0.606966 0
M  V30 799 H 83.0994 3.8387 1.60572 0
M  V30 800 H 81.9754 4.87584 2.52097 0
M  V30 801 H 82.2364 3.21611 3.03346 0
M  V30 802 N 81.2955 -0.223234 1.56011 0
M  V30 803 C 82.2255 -1.27988 1.95298 0
M  V30 804 C 83.2065 -1.48976 0.820979 0
M  V30 805 O 84.3915 -1.61188 1.08315 0
M  V30 806 C 81.5215 -2.63 2.26822 0
M  V30 807 C 80.4755 -2.56671 3.42497 0
M  V30 808 C 79.8015 -3.95697 3.59622 0
M  V30 809 C 81.1015 -2.11601 4.77517 0
M  V30 810 H 82.7955 -0.953525 2.8381 0
M  V30 811 H 80.3415 -0.457244 1.36548 0
M  V30 812 H 82.2945 -3.37077 2.52898 0
M  V30 813 H 81.0185 -2.9732 1.35161 0
M  V30 814 H 79.6775 -1.85051 3.16467 0
M  V30 815 H 79.3255 -4.27322 2.6534 0
M  V30 816 H 79.0255 -3.92345 4.37424 0
M  V30 817 H 80.5495 -4.71438 3.88044 0
M  V30 818 H 81.9635 -2.7542 5.02809 0
M  V30 819 H 80.3605 -2.19311 5.5859 0
M  V30 820 H 81.4305 -1.06824 4.72987 0
M  V30 821 N 82.7736 -1.49793 -0.48987 0
M  V30 822 C 83.9986 -1.63836 -1.27172 0
M  V30 823 C 84.4236 -0.31402 -1.8546 0
M  V30 824 O 83.7816 0.719803 -1.66399 0
M  V30 825 C 83.8296 -2.71797 -2.36978 0
M  V30 826 O 82.9336 -2.31744 -3.41128 0
M  V30 827 H 82.2746 -0.547997 -0.37496 0
M  V30 828 H 84.8046 -1.96053 -0.585191 0
M  V30 829 H 84.8146 -2.94305 -2.82575 0
M  V30 830 H 83.4896 -3.67923 -1.93921 0
M  V30 831 H 82.0666 -2.1961 -3.01373 0
M  V30 832 N 84.2517 0.741722 -1.39055 0
M  V30 833 C 85.1847 1.86416 -1.31622 0
M  V30 834 C 86.1627 1.61473 -0.191076 0
M  V30 835 O 87.3467 1.84825 -0.370399 0
M  V30 836 C 84.4737 3.22266 -1.04221 0
M  V30 837 C 83.5197 3.66079 -2.18834 0
M  V30 838 S 84.3527 3.7623 -3.81066 0
M  V30 839 C 85.5087 5.14881 -3.55877 0
M  V30 840 H 85.7417 1.92437 -2.26617 0
M  V30 841 H 83.2747 0.905907 -1.25031 0
M  V30 842 H 85.2327 4.00714 -0.890964 0
M  V30 843 H 83.8937 3.1391 -0.109237 0
M  V30 844 H 83.0867 4.64648 -1.95238 0
M  V30 845 H 82.6887 2.94817 -2.30128 0
M  V30 846 H 84.9807 6.01006 -3.12726 0
M  V30 847 H 85.9237 5.43503 -4.53884 0
M  V30 848 H 86.3317 4.84239 -2.90126 0
M  V30 849 N 85.7298 1.2412 0.971189 0
M  V30 850 C 86.6398 1.04747 2.09917 0
M  V30 851 C 87.6558 -0.0107162 1.73997 0
M  V30 852 O 88.8318 0.186714 2.00533 0
M  V30 853 C 85.8968 0.650828 3.40537 0
M  V30 854 C 84.9578 1.7851 3.90426 0
M  V30 855 C 84.1908 1.40729 5.14812 0
M  V30 856 O 84.4138 0.29557 5.69634 0
M  V30 857 O 83.3478 2.23168 5.58999 0
M  V30 858 H 87.1738 1.99304 2.29154 0
M  V30 859 H 84.7588 1.02908 1.08307 0
M  V30 860 H 86.6408 0.440992 4.19086 0
M  V30 861 H 85.3158 -0.265649 3.22608 0
M  V30 862 H 84.2228 2.04966 3.12953 0
M  V30 863 H 85.5558 2.68023 4.12825 0
M  V30 864 N 87.2079 -1.17134 1.05439 0
M  V30 865 C 88.6239 -1.39454 0.776201 0
M  V30 866 C 88.8239 -1.91454 -0.628307 0
M  V30 867 O 87.8799 -2.10777 -1.39031 0
M  V30 868 C 89.1929 -2.38305 1.83388 0
M  V30 869 C 90.7409 -2.52006 1.85639 0
M  V30 870 C 91.2159 -3.54133 2.90437 0
M  V30 871 N 92.7069 -3.61653 2.89415 0
M  V30 872 C 93.4419 -4.4044 3.67152 0
M  V30 873 N 92.9379 -5.22721 4.54681 0
M  V30 874 N 94.7309 -4.35337 3.55581 0
M  V30 875 H 86.8819 -0.817134 1.96053 0
M  V30 876 H 89.1449 -0.421626 0.849079 0
M  V30 877 H 88.8509 -2.07173 2.84204 0
M  V30 878 H 88.7249 -3.37841 1.67761 0
M  V30 879 H 91.1119 -2.82447 0.85486 0
M  V30 880 H 91.1929 -1.52537 2.05344 0
M  V30 881 H 90.8369 -3.24431 3.90777 0
M  V30 882 H 90.7669 -4.53313 2.67983 0
M  V30 883 H 93.2579 -3.02909 2.25952 0
M  V30 884 H 93.5709 -5.80027 5.10674 0
M  V30 885 H 91.9159 -5.22093 4.58741 0
M  V30 886 H 95.1069 -3.70112 2.86592 0
M  V30 887 H 95.2799 -4.96494 4.1641 0
M  V30 888 N 88.686 -0.835752 -1.33615 0
M  V30 889 C 89.649 -0.272 -2.2758 0
M  V30 890 C 90.649 0.557487 -1.50827 0
M  V30 891 O 91.839 0.37173 -1.70188 0
M  V30 892 C 88.971 0.617173 -3.35267 0
M  V30 893 H 90.164 -1.10111 -2.78954 0
M  V30 894 H 87.717 -0.608594 -1.43965 0
M  V30 895 H 88.452 1.46884 -2.89129 0
M  V30 896 H 88.237 0.0237066 -3.92093 0
M  V30 897 H 89.727 1.005 -4.05326 0
M  V30 898 N 90.1641 1.46063 -0.591896 0
M  V30 899 C 91.0941 2.33172 0.123673 0
M  V30 900 C 92.0751 1.45897 0.87453 0
M  V30 901 O 93.2601 1.74698 0.848181 0
M  V30 902 C 90.3901 3.28336 1.13194 0
M  V30 903 C 89.3441 4.25124 0.495324 0
M  V30 904 C 88.6701 5.09863 1.61071 0
M  V30 905 C 89.9701 5.19143 -0.573425 0
M  V30 906 H 91.6641 2.93252 -0.603646 0
M  V30 907 H 89.2101 1.41014 -0.291741 0
M  V30 908 H 91.1631 3.88137 1.64097 0
M  V30 909 H 89.8871 2.66383 1.88965 0
M  V30 910 H 88.5461 3.66599 0.00729452 0
M  V30 911 H 88.1941 4.44288 2.35832 0
M  V30 912 H 87.8941 5.75417 1.19035 0
M  V30 913 H 89.4181 5.72529 2.12233 0
M  V30 914 H 90.8321 5.73106 -0.1491 0
M  V30 915 H 89.2291 5.93089 -0.914636 0
M  V30 916 H 90.2991 4.62519 -1.45617 0
M  V30 917 N 91.6422 0.330177 1.54103 0
M  V30 918 C 93.0582 -0.0222371 1.59585 0
M  V30 919 C 93.2582 -1.49902 1.34654 0
M  V30 920 O 92.3142 -2.25592 1.13421 0
M  V30 921 C 93.6272 0.401932 2.98002 0
M  V30 922 C 95.1752 0.353145 3.11001 0
M  V30 923 C 95.6502 0.752576 4.51775 0
M  V30 924 N 97.1412 0.706239 4.57784 0
M  V30 925 C 97.8762 0.987417 5.64834 0
M  V30 926 N 97.3722 1.33607 6.79795 0
M  V30 927 N 99.1652 0.91254 5.54643 0
M  V30 928 H 91.3162 1.29228 1.68564 0
M  V30 929 H 93.5792 0.525906 0.78875 0
M  V30 930 H 93.2852 1.4311 3.21267 0
M  V30 931 H 93.1592 -0.229699 3.765 0
M  V30 932 H 95.5462 -0.666822 2.87467 0
M  V30 933 H 95.6272 1.0198 2.34593 0
M  V30 934 H 95.2712 1.77049 4.76042 0
M  V30 935 H 95.2012 0.0635409 5.26562 0
M  V30 936 H 97.6922 0.44889 3.75224 0
M  V30 937 H 98.0052 1.53582 7.57385 0
M  V30 938 H 96.3502 1.37439 6.81275 0
M  V30 939 H 99.5412 0.639601 4.6371 0
M  V30 940 H 99.7142 1.13503 6.37982 0
M  V30 941 N 93.1203 -1.57491 0.0584922 0
M  V30 942 C 94.3453 -1.97711 -0.62652 0
M  V30 943 C 94.7703 -0.936132 -1.63151 0
M  V30 944 O 94.1283 0.099811 -1.81025 0
M  V30 945 C 94.1763 -3.36989 -1.28338 0
M  V30 946 O 93.2803 -3.35433 -2.39913 0
M  V30 947 H 92.6213 -0.643868 -0.162266 0
M  V30 948 H 95.1513 -2.04193 0.129064 0
M  V30 949 H 95.1613 -3.73879 -1.63335 0
M  V30 950 H 93.8363 -4.12289 -0.546889 0
M  V30 951 H 92.4133 -3.10298 -2.06809 0
M  V30 952 N 94.5984 0.214957 -1.56127 0
M  V30 953 C 96.0144 0.564948 -1.49267 0
M  V30 954 C 96.2144 1.86827 -0.754838 0
M  V30 955 O 95.2704 2.50745 -0.297198 0
M  V30 956 C 96.5834 0.638071 -2.93852 0
M  V30 957 C 98.1314 0.728253 -3.0441 0
M  V30 958 C 98.6064 0.832663 -4.50367 0
M  V30 959 N 100.097 0.896712 -4.54437 0
M  V30 960 C 100.832 0.997324 -5.6466 0
M  V30 961 N 100.328 1.06147 -6.8462 0
M  V30 962 N 102.121 1.03297 -5.52527 0
M  V30 963 H 94.2724 -0.640211 -2.02522 0
M  V30 964 H 96.5354 -0.225507 -0.920788 0
M  V30 965 H 96.2414 -0.250126 -3.50809 0
M  V30 966 H 96.1154 1.49947 -3.46115 0
M  V30 967 H 98.5024 1.60689 -2.47514 0
M  V30 968 H 98.5834 -0.158952 -2.55306 0
M  V30 969 H 98.2274 -0.0415417 -5.07883 0
M  V30 970 H 98.1574 1.73538 -4.97184 0
M  V30 971 H 100.648 0.857188 -3.6805 0
M  V30 972 H 100.961 1.1382 -7.64372 0
M  V30 973 H 99.3064 1.03049 -6.87318 0
M  V30 974 H 102.497 0.979558 -4.57736 0
M  V30 975 H 102.67 1.10793 -6.38458 0
M  V30 976 N 96.0765 1.50051 0.48192 0
M  V30 977 C 97.0395 1.67584 1.5636 0
M  V30 978 C 98.0395 0.546894 1.51214 0
M  V30 979 O 99.2295 0.813725 1.54026 0
M  V30 980 C 96.3615 1.691 2.96003 0
M  V30 981 H 97.5545 2.64078 1.42136 0
M  V30 982 H 95.1075 1.39369 0.707533 0
M  V30 983 H 95.8425 0.742589 3.15684 0
M  V30 984 H 95.6275 2.51105 3.01146 0
M  V30 985 H 97.1175 1.84656 3.74556 0
M  V30 986 N 97.5546 -0.734337 1.39446 0
M  V30 987 C 98.5176 -1.83004 1.37994 0
M  V30 988 C 99.5176 -1.58397 0.276938 0
M  V30 989 O 100.708 -1.65785 0.534875 0
M  V30 990 C 97.8396 -3.20802 1.1532 0
M  V30 991 H 99.0326 -1.85694 2.35494 0
M  V30 992 H 96.5856 -0.938059 1.25021 0
M  V30 993 H 97.3206 -3.23772 0.185036 0
M  V30 994 H 97.1056 -3.4006 1.95197 0
M  V30 995 H 98.5956 -4.00862 1.17046 0
M  V30 996 N 99.0327 -1.24633 -0.964593 0
M  V30 997 C 99.9627 -1.06611 -2.07741 0
M  V30 998 C 100.944 0.0218666 -1.70086 0
M  V30 999 O 102.129 -0.145793 -1.93652 0
M  V30 1000 C 99.2587 -0.673444 -3.40708 0
M  V30 1001 C 98.2127 -1.71054 -3.92332 0
M  V30 1002 C 97.5387 -1.17285 -5.21678 0
M  V30 1003 C 98.8387 -3.10718 -4.19824 0
M  V30 1004 H 100.533 -1.99693 -2.23076 0
M  V30 1005 H 98.0787 -0.96152 -1.07195 0
M  V30 1006 H 100.032 -0.534345 -4.17998 0
M  V30 1007 H 98.7557 0.293073 -3.25282 0
M  V30 1008 H 97.4147 -1.83791 -3.17201 0
M  V30 1009 H 97.0627 -0.196847 -5.02615 0
M  V30 1010 H 96.7627 -1.86592 -5.57187 0
M  V30 1011 H 98.2867 -1.04593 -6.01575 0
M  V30 1012 H 99.7007 -3.01192 -4.87808 0
M  V30 1013 H 98.0977 -3.77406 -4.66567 0
M  V30 1014 H 99.1677 -3.58524 -3.26479 0
M  V30 1015 N 100.511 1.16574 -1.06058 0
M  V30 1016 C 101.927 1.3904 -0.783585 0
M  V30 1017 C 102.127 1.91784 0.618145 0
M  V30 1018 O 101.183 2.11511 1.37911 0
M  V30 1019 C 102.496 2.37329 -1.84649 0
M  V30 1020 C 104.044 2.51018 -1.86973 0
M  V30 1021 C 104.519 3.52588 -2.92311 0
M  V30 1022 N 106.01 3.60113 -2.91329 0
M  V30 1023 C 106.745 4.38486 -3.69482 0
M  V30 1024 N 106.241 5.20302 -4.57447 0
M  V30 1025 N 108.034 4.33446 -3.57885 0
M  V30 1026 H 100.185 0.806725 -1.96483 0
M  V30 1027 H 102.448 0.417117 -0.851303 0
M  V30 1028 H 102.154 2.05663 -2.85299 0
M  V30 1029 H 102.028 3.36946 -1.6955 0
M  V30 1030 H 104.415 2.81989 -0.869827 0
M  V30 1031 H 104.496 1.51445 -2.0615 0
M  V30 1032 H 104.14 3.22354 -3.92492 0
M  V30 1033 H 104.07 4.51886 -2.70383 0
M  V30 1034 H 106.561 3.01707 -2.27555 0
M  V30 1035 H 106.874 5.77311 -5.13743 0
M  V30 1036 H 105.219 5.19653 -4.61503 0
M  V30 1037 H 108.41 3.68586 -2.88551 0
M  V30 1038 H 108.583 4.94279 -4.19037 0
M  V30 1039 N 101.989 0.842826 1.3317 0
M  V30 1040 C 102.952 0.284065 2.27433 0
M  V30 1041 C 103.952 -0.54948 1.5112 0
M  V30 1042 O 105.142 -0.362699 1.70382 0
M  V30 1043 C 102.274 -0.599384 3.35589 0
M  V30 1044 H 103.467 1.11589 2.78366 0
M  V30 1045 H 101.02 0.616221 1.4364 0
M  V30 1046 H 101.755 -1.45349 2.89904 0
M  V30 1047 H 101.54 -0.00291266 3.921 0
M  V30 1048 H 103.03 -0.983488 4.05854 0
M  V30 1049 N 103.467 -1.45747 0.599634 0
M  V30 1050 C 104.397 -2.33235 -0.111306 0
M  V30 1051 C 105.378 -1.46359 -0.866781 0
M  V30 1052 O 106.563 -1.75146 -0.838904 0
M  V30 1053 C 103.693 -3.28932 -1.11451 0
M  V30 1054 C 102.647 -4.25381 -0.472772 0
M  V30 1055 C 101.973 -5.1071 -1.58365 0
M  V30 1056 C 103.273 -5.18831 0.600948 0
M  V30 1057 H 104.967 -2.92927 0.61919 0
M  V30 1058 H 102.513 -1.40857 0.299215 0
M  V30 1059 H 104.466 -3.89002 -1.62036 0
M  V30 1060 H 103.19 -2.67381 -1.8755 0
M  V30 1061 H 101.849 -3.66598 0.0121472 0
M  V30 1062 H 101.497 -4.45533 -2.33473 0
M  V30 1063 H 101.197 -5.7604 -1.15982 0
M  V30 1064 H 102.721 -5.73647 -2.09194 0
M  V30 1065 H 104.135 -5.73019 0.179491 0
M  V30 1066 H 102.532 -5.92595 0.946076 0
M  V30 1067 H 103.602 -4.6174 1.48068 0
M  V30 1068 N 104.945 -0.338344 -1.53925 0
M  V30 1069 C 106.361 0.0137736 -1.59594 0
M  V30 1070 C 106.561 1.49186 -1.35447 0
M  V30 1071 O 105.617 2.24987 -1.14616 0
M  V30 1072 C 106.93 -0.41773 -2.97784 0
M  V30 1073 C 108.478 -0.369633 -3.1081 0
M  V30 1074 C 108.953 -0.776524 -4.51369 0
M  V30 1075 N 110.444 -0.730506 -4.57403 0
M  V30 1076 C 111.179 -1.01736 -5.64303 0
M  V30 1077 N 110.675 -1.3721 -6.79077 0
M  V30 1078 N 112.468 -0.941942 -5.54151 0
M  V30 1079 H 104.619 -1.3012 -1.67876 0
M  V30 1080 H 106.882 -0.530082 -0.78595 0
M  V30 1081 H 106.588 -1.44811 -3.20504 0
M  V30 1082 H 106.462 0.209729 -3.76616 0
M  V30 1083 H 108.849 0.651568 -2.87817 0
M  V30 1084 H 108.93 -1.03223 -2.34049 0
M  V30 1085 H 108.574 -1.79571 -4.75096 0
M  V30 1086 H 108.504 -0.0914649 -5.26521 0
M  V30 1087 H 110.995 -0.468783 -3.74981 0
M  V30 1088 H 111.308 -1.57597 -7.5656 0
M  V30 1089 H 109.653 -1.4105 -6.80536 0
M  V30 1090 H 112.844 -0.664184 -4.63364 0
M  V30 1091 H 113.017 -1.16884 -6.37371 0
M  V30 1092 N 106.423 1.57458 -0.0668435 0
M  V30 1093 C 107.353 2.15468 0.899764 0
M  V30 1094 C 108.334 1.08042 1.31381 0
M  V30 1095 O 109.519 1.36054 1.38574 0
M  V30 1096 C 106.649 2.71232 2.16911 0
M  V30 1097 C 105.603 3.83781 1.89463 0
M  V30 1098 C 104.929 4.26127 3.22986 0
M  V30 1099 C 106.229 5.08238 1.20381 0
M  V30 1100 H 107.923 2.96488 0.416529 0
M  V30 1101 H 105.469 1.4262 0.198908 0
M  V30 1102 H 107.422 3.10458 2.84945 0
M  V30 1103 H 106.146 1.87426 2.67468 0
M  V30 1104 H 104.805 3.45051 1.23836 0
M  V30 1105 H 104.453 3.39249 3.71374 0
M  V30 1106 H 104.153 5.01993 3.05413 0
M  V30 1107 H 105.677 4.67966 3.92225 0
M  V30 1108 H 107.091 5.44811 1.78475 0
M  V30 1109 H 105.488 5.89349 1.13083 0
M  V30 1110 H 106.558 4.84558 0.182153 0
M  V30 1111 N 107.901 -0.206675 1.56239 0
M  V30 1112 C 109.317 -0.557025 1.49564 0
M  V30 1113 C 109.517 -1.86424 0.764735 0
M  V30 1114 O 108.573 -2.50584 0.310491 0
M  V30 1115 C 109.886 -0.622478 2.94186 0
M  V30 1116 C 111.434 -0.712099 3.04792 0
M  V30 1117 C 111.909 -0.808767 4.50803 0
M  V30 1118 N 113.4 -0.8726 4.54907 0
M  V30 1119 C 114.135 -0.967365 5.65181 0
M  V30 1120 N 113.631 -1.02515 6.85173 0
M  V30 1121 N 115.424 -1.00366 5.53067 0
M  V30 1122 H 107.575 0.650943 2.02179 0
M  V30 1123 H 109.838 0.230387 0.919579 0
M  V30 1124 H 109.544 0.268727 3.50672 0
M  V30 1125 H 109.418 -1.4811 3.46905 0
M  V30 1126 H 111.805 -1.59374 2.48363 0
M  V30 1127 H 111.886 0.172489 2.55218 0
M  V30 1128 H 111.53 0.0684754 5.07854 0
M  V30 1129 H 111.46 -1.70899 4.98098 0
M  V30 1130 H 113.951 -0.837657 3.68499 0
M  V30 1131 H 114.264 -1.09765 7.64965 0
M  V30 1132 H 112.609 -0.994026 6.87855 0
M  V30 1133 H 115.8 -0.95527 4.58249 0
M  V30 1134 H 115.973 -1.07405 6.39037 0
M  V30 1135 N 109.379 -1.50304 -0.473955 0
M  V30 1136 C 110.619 -1.62786 -1.23612 0
M  V30 1137 C 110.983 -0.319786 -1.89318 0
M  V30 1138 O 112.184 -0.320012 -2.66888 0
M  V30 1139 C 110.455 -2.77351 -2.25414 0
M  V30 1140 S 112.014 -3.09948 -3.10608 0
M  V30 1141 H 108.832 -0.573895 -0.419721 0
M  V30 1142 H 111.434 -1.88076 -0.533623 0
M  V30 1143 H 110.138 -3.70879 -1.75719 0
M  V30 1144 H 109.669 -2.54137 -3.00296 0
M  V30 1145 H 111.684 -2.53553 -4.26527 0
M  V30 1146 N 110.857 0.726932 -1.39834 0
M  V30 1147 C 112.273 1.03354 -1.21615 0
M  V30 1148 C 112.473 2.01327 -0.08338 0
M  V30 1149 O 111.529 2.46158 0.56238 0
M  V30 1150 C 112.842 1.58811 -2.55342 0
M  V30 1151 C 114.39 1.70851 -2.62257 0
M  V30 1152 C 114.865 2.29716 -3.96225 0
M  V30 1153 N 116.356 2.37116 -3.97907 0
M  V30 1154 C 117.091 2.83619 -4.98345 0
M  V30 1155 N 116.587 3.29958 -6.09179 0
M  V30 1156 N 118.38 2.82901 -4.8572 0
M  V30 1157 H 110.531 0.0773069 -2.12259 0
M  V30 1158 H 112.794 0.0969102 -0.943034 0
M  V30 1159 H 112.5 0.942855 -3.38826 0
M  V30 1160 H 112.374 2.57502 -2.75632 0
M  V30 1161 H 114.761 2.34497 -1.79152 0
M  V30 1162 H 114.842 0.707913 -2.45809 0
M  V30 1163 H 114.486 1.66696 -4.79765 0
M  V30 1164 H 114.416 3.30469 -4.09997 0
M  V30 1165 H 116.907 2.04374 -3.17868 0
M  V30 1166 H 117.22 3.63976 -6.8172 0
M  V30 1167 H 115.565 3.27946 -6.12761 0
M  V30 1168 H 118.756 2.46027 -3.98231 0
M  V30 1169 H 118.929 3.18827 -5.6414 0
M  V30 1170 N 112.336 1.25143 0.95797 0
M  V30 1171 C 113.564 1.12424 1.73691 0
M  V30 1172 C 113.979 -0.322304 1.86029 0
M  V30 1173 O 113.336 -1.22186 1.35561 0
M  V30 1174 C 113.387 1.76933 3.15241 0
M  V30 1175 O 113.108 3.15932 3.03511 0
M  V30 1176 C 114.609 1.6995 4.09429 0
M  V30 1177 H 111.829 0.3923 0.544373 0
M  V30 1178 H 114.373 1.6544 1.20207 0
M  V30 1179 H 112.528 1.27895 3.6568 0
M  V30 1180 H 112.942 3.47598 3.9278 0
M  V30 1181 H 114.416 2.19753 5.06372 0
M  V30 1182 H 114.893 0.662619 4.34173 0
M  V30 1183 H 115.499 2.18461 3.64904 0
M  V30 1184 N 113.814 -1.1601 1.06675 0
M  V30 1185 C 114.746 -2.20115 0.638921 0
M  V30 1186 C 115.759 -1.59916 -0.305057 0
M  V30 1187 O 116.948 -1.78245 -0.0954446 0
M  V30 1188 C 114.048 -3.38798 -0.0830083 0
M  V30 1189 C 113.221 -4.2855 0.875426 0
M  V30 1190 C 112.28 -5.25849 0.192042 0
M  V30 1191 O 111.306 -5.63102 0.830921 0
M  V30 1192 N 112.508 -5.70648 -1.06493 0
M  V30 1193 H 115.273 -2.57439 1.53444 0
M  V30 1194 H 112.834 -1.31057 0.950557 0
M  V30 1195 H 114.826 -4.00936 -0.550685 0
M  V30 1196 H 113.396 -2.99947 -0.880386 0
M  V30 1197 H 112.616 -3.63617 1.52238 0
M  V30 1198 H 113.904 -4.85393 1.52548 0
M  V30 1199 H 113.302 -5.42482 -1.60405 0
M  V30 1200 H 111.859 -6.34859 -1.47641 0
M  V30 1201 N 115.292 -0.849877 -1.32721 0
M  V30 1202 C 116.532 -0.457146 -1.99222 0
M  V30 1203 C 116.896 0.968038 -1.6581 0
M  V30 1204 O 118.097 1.46507 -2.25364 0
M  V30 1205 C 116.368 -0.683966 -3.50794 0
M  V30 1206 S 117.927 -0.388095 -4.3708 0
M  V30 1207 H 114.745 -0.171464 -0.690015 0
M  V30 1208 H 117.347 -1.10155 -1.61512 0
M  V30 1209 H 116.051 -1.72038 -3.726 0
M  V30 1210 H 115.582 -0.0258086 -3.93392 0
M  V30 1211 H 117.597 0.787791 -4.89906 0
M  V30 1212 N 116.77 1.45427 -0.607355 0
M  V30 1213 C 117.733 2.28974 0.101693 0
M  V30 1214 C 118.733 1.39754 0.795329 0
M  V30 1215 O 119.923 1.61878 0.643527 0
M  V30 1216 C 117.055 3.20768 1.15414 0
M  V30 1217 H 118.248 2.93147 -0.632844 0
M  V30 1218 H 115.801 1.51945 -0.366391 0
M  V30 1219 H 116.536 2.61395 1.91945 0
M  V30 1220 H 116.321 3.86489 0.66098 0
M  V30 1221 H 117.811 3.83589 1.65073 0
M  V30 1222 N 118.248 0.346503 1.53744 0
M  V30 1223 C 119.211 -0.496439 2.23759 0
M  V30 1224 C 120.211 -1.0252 1.2388 0
M  V30 1225 O 121.401 -0.913974 1.48297 0
M  V30 1226 C 118.533 -1.69187 2.95954 0
M  V30 1227 H 119.726 0.115952 2.99676 0
M  V30 1228 H 117.279 0.0978939 1.55993 0
M  V30 1229 H 118.014 -2.34288 2.24231 0
M  V30 1230 H 117.799 -1.31989 3.69217 0
M  V30 1231 H 119.289 -2.28969 3.49232 0
M  V30 1232 N 119.726 -1.57421 0.075193 0
M  V30 1233 C 121.003 -1.85029 -0.634329 0
M  V30 1234 C 121.383 -0.968305 -1.87582 0
M  V30 1235 O 120.731 -0.0354749 -2.28472 0
M  V30 1236 C 120.941 -3.35286 -0.968742 0
M  V30 1237 C 122.289 -4.02875 -1.34077 0
M  V30 1238 O 123.313 -3.40051 -1.06037 0
M  V30 1239 O 122.172 -5.13691 -1.86506 0
M  V30 1240 H 119.266 -0.7645 -0.315387 0
M  V30 1241 H 121.812 -1.69366 0.106382 0
M  V30 1242 H 120.584 -3.91203 -0.0871376 0
M  V30 1243 H 120.207 -3.56223 -1.7661 0
M  V30 1244 N 121.204 0.198386 -1.56346 0
M  V30 1245 C 122.451 0.919286 -1.80431 0
M  V30 1246 C 122.779 1.83393 -0.647866 0
M  V30 1247 O 122.034 1.92236 0.366556 0
M  V30 1248 C 122.333 1.77031 -3.10475 0
M  V30 1249 C 121.999 1.00693 -4.39513 0
M  V30 1250 C 120.661 0.796145 -4.74568 0
M  V30 1251 C 123.013 0.469559 -5.19081 0
M  V30 1252 C 120.341 0.0364588 -5.86689 0
M  V30 1253 C 122.693 -0.2769 -6.31994 0
M  V30 1254 C 121.357 -0.49873 -6.65634 0
M  V30 1255 H 120.627 0.336391 -0.660244 0
M  V30 1256 H 123.274 0.185872 -1.90596 0
M  V30 1257 H 121.579 2.5723 -2.95533 0
M  V30 1258 H 123.276 2.33065 -3.26315 0
M  V30 1259 H 119.866 1.18122 -4.12001 0
M  V30 1260 H 124.05 0.619816 -4.92414 0
M  V30 1261 H 119.306 -0.145412 -6.11227 0
M  V30 1262 H 123.48 -0.700684 -6.92866 0
M  V30 1263 H 121.107 -1.0893 -7.52355 0
M  V30 1264 N 122.682 1.50554 0.465978 0
M  V30 1265 C 124.093 1.54599 1.04671 0
M  V30 1266 C 124.444 0.352488 1.93008 0
M  V30 1267 O 123.569 -0.534044 2.09707 0
M  V30 1268 C 124.164 2.80166 1.90505 0
M  V30 1269 C 122.723 2.86876 2.43678 0
M  V30 1270 C 121.87 2.48947 1.22151 0
M  V30 1271 H 124.821 1.56744 0.248384 0
M  V30 1272 H 124.842 2.62311 2.75633 0
M  V30 1273 H 124.354 3.67013 1.26186 0
M  V30 1274 H 122.455 2.04393 3.11536 0
M  V30 1275 H 122.568 3.89885 2.78436 0
M  V30 1276 H 120.932 2.01498 1.5579 0
M  V30 1277 H 121.715 3.38107 0.594866 0
M  V30 1278 N 124.16 -0.719506 1.40217 0
M  V30 1279 C 125.406 -1.48034 1.39491 0
M  V30 1280 C 125.761 -1.92399 -0.00443536 0
M  V30 1281 O 125.054 -1.64993 -0.974061 0
M  V30 1282 C 125.248 -2.72271 2.31524 0
M  V30 1283 C 125.077 -2.40055 3.80268 0
M  V30 1284 C 123.847 -2.31588 4.49105 0
M  V30 1285 C 126.045 -2.04581 4.71859 0
M  V30 1286 N 124.027 -1.92006 5.83101 0
M  V30 1287 C 125.398 -1.75568 5.94623 0
M  V30 1288 C 127.453 -1.91183 4.59732 0
M  V30 1289 C 126.156 -1.34505 7.06612 0
M  V30 1290 C 128.182 -1.51524 5.71659 0
M  V30 1291 C 127.544 -1.23406 6.93506 0
M  V30 1292 H 123.643 -0.539927 0.565688 0
M  V30 1293 H 126.227 -0.834764 1.75897 0
M  V30 1294 H 124.398 -3.34584 1.97251 0
M  V30 1295 H 126.13 -3.38584 2.21682 0
M  V30 1296 H 122.885 -2.49199 4.02737 0
M  V30 1297 H 123.309 -1.74764 6.54054 0
M  V30 1298 H 127.951 -2.11584 3.66049 0
M  V30 1299 H 125.669 -1.12846 8.00182 0
M  V30 1300 H 129.255 -1.41741 5.6427 0
M  V30 1301 H 128.135 -0.931788 7.78645 0
M  V30 1302 N 125.638 -1.25649 -0.95132 0
M  V30 1303 C 126.548 -1.08073 -2.08224 0
M  V30 1304 C 127.564 -0.0169666 -1.73992 0
M  V30 1305 O 128.74 -0.218593 -2.0021 0
M  V30 1306 C 125.805 -0.704922 -3.39458 0
M  V30 1307 C 124.866 -1.84699 -3.87537 0
M  V30 1308 C 124.099 -1.48902 -5.12508 0
M  V30 1309 O 124.322 -0.386156 -5.69091 0
M  V30 1310 O 123.256 -2.32033 -5.55378 0
M  V30 1311 H 127.082 -2.02924 -2.25954 0
M  V30 1312 H 124.667 -1.04618 -1.06656 0
M  V30 1313 H 126.549 -0.507609 -4.18332 0
M  V30 1314 H 125.224 0.214291 -3.2299 0
M  V30 1315 H 124.131 -2.09919 -3.09653 0
M  V30 1316 H 125.464 -2.74557 -4.08509 0
M  V30 1317 N 127.117 1.15442 -1.07289 0
M  V30 1318 C 128.047 2.22312 -0.714107 0
M  V30 1319 C 129.028 1.67467 0.298155 0
M  V30 1320 O 130.213 1.93445 0.171048 0
M  V30 1321 C 127.343 3.47124 -0.110448 0
M  V30 1322 C 126.297 4.14926 -1.04979 0
M  V30 1323 C 125.623 5.33807 -0.308924 0
M  V30 1324 C 126.923 4.64762 -2.38314 0
M  V30 1325 H 128.617 2.5258 -1.6076 0
M  V30 1326 H 126.163 1.21404 -0.77441 0
M  V30 1327 H 128.116 4.21124 0.152482 0
M  V30 1328 H 126.84 3.16187 0.81812 0
M  V30 1329 H 125.499 3.42866 -1.29764 0
M  V30 1330 H 125.147 4.99126 0.623084 0
M  V30 1331 H 124.847 5.80113 -0.935036 0
M  V30 1332 H 126.371 6.10576 -0.0537771 0
M  V30 1333 H 127.785 5.30292 -2.1786 0
M  V30 1334 H 126.182 5.21728 -2.96514 0
M  V30 1335 H 127.252 3.80434 -3.00663 0
M  V30 1336 N 128.595 0.856903 1.32268 0
M  V30 1337 C 129.872 0.382583 1.91822 0
M  V30 1338 C 130.252 -1.13407 1.78051 0
M  V30 1339 O 129.6 -1.95673 1.18001 0
M  V30 1340 C 129.81 0.849446 3.38505 0
M  V30 1341 C 131.158 0.867936 4.15634 0
M  V30 1342 O 132.182 0.794232 3.47232 0
M  V30 1343 O 131.041 0.972286 5.37781 0
M  V30 1344 H 128.135 0.112014 0.819379 0
M  V30 1345 H 130.681 0.943952 1.41024 0
M  V30 1346 H 129.453 1.89267 3.42482 0
M  V30 1347 H 129.076 0.265652 3.96712 0
M  V30 1348 N 130.073 -1.45103 0.615059 0
M  V30 1349 C 131.484 -1.85654 0.197383 0
M  V30 1350 C 131.835 -1.51433 -1.24749 0
M  V30 1351 O 130.96 -0.944608 -1.94695 0
M  V30 1352 C 131.555 -3.36972 0.351448 0
M  V30 1353 C 130.114 -3.76398 -0.011593 0
M  V30 1354 C 129.261 -2.69024 0.672394 0
M  V30 1355 H 132.212 -1.35797 0.821263 0
M  V30 1356 H 132.233 -3.78239 -0.414227 0
M  V30 1357 H 131.745 -3.61847 1.40314 0
M  V30 1358 H 129.846 -3.5714 -1.06217 0
M  V30 1359 H 129.959 -4.77532 0.387265 0
M  V30 1360 H 128.323 -2.54465 0.109284 0
M  V30 1361 H 129.106 -2.96735 1.72636 0
M  V30 1362 N 131.551 -0.354651 -1.53558 0
M  V30 1363 C 132.828 0.294281 -1.93374 0
M  V30 1364 C 133.208 1.67313 -1.28723 0
M  V30 1365 O 132.556 2.24179 -0.442247 0
M  V30 1366 C 132.766 0.355445 -3.47185 0
M  V30 1367 C 134.114 0.601007 -4.20325 0
M  V30 1368 O 135.138 0.437106 -3.53508 0
M  V30 1369 O 133.997 0.919322 -5.38712 0
M  V30 1370 H 131.091 0.174033 -0.808481 0
M  V30 1371 H 133.637 -0.406638 -1.64756 0
M  V30 1372 H 132.409 -0.611729 -3.86489 0
M  V30 1373 H 132.032 1.1027 -3.82003 0
M  V30 1374 N 133.029 1.57378 -0.0835403 0
M  V30 1375 C 134.275 1.95025 0.577664 0
M  V30 1376 C 134.63 0.964049 1.66505 0
M  V30 1377 O 133.923 -0.0118235 1.91596 0
M  V30 1378 C 134.117 3.37063 1.1884 0
M  V30 1379 C 133.946 4.49409 0.16171 0
M  V30 1380 C 132.716 5.04642 -0.257756 0
M  V30 1381 C 134.914 5.10722 -0.605634 0
M  V30 1382 N 132.896 6.00537 -1.27393 0
M  V30 1383 C 134.267 6.02225 -1.47395 0
M  V30 1384 C 136.322 4.93501 -0.660418 0
M  V30 1385 C 135.025 6.78355 -2.39221 0
M  V30 1386 C 137.051 5.70283 -1.56623 0
M  V30 1387 C 136.413 6.61444 -2.4222 0
M  V30 1388 H 132.512 0.760512 0.182058 0
M  V30 1389 H 135.096 1.94013 -0.163419 0
M  V30 1390 H 133.267 3.3879 1.89936 0
M  V30 1391 H 134.999 3.61917 1.81103 0
M  V30 1392 H 131.754 4.73428 0.127702 0
M  V30 1393 H 132.178 6.53184 -1.77987 0
M  V30 1394 H 136.82 4.22798 -0.0128221 0
M  V30 1395 H 134.538 7.48327 -3.05011 0
M  V30 1396 H 138.124 5.58976 -1.61361 0
M  V30 1397 H 137.004 7.1982 -3.11174 0
M  V30 1398 N 134.507 -0.190092 1.56449 0
M  V30 1399 C 135.732 -0.929864 1.85387 0
M  V30 1400 C 136.157 -1.7585 0.667704 0
M  V30 1401 O 135.515 -1.77198 -0.383459 0
M  V30 1402 C 135.563 -1.79773 3.12593 0
M  V30 1403 O 134.667 -2.89713 2.93496 0
M  V30 1404 H 134.008 -0.261574 0.610307 0
M  V30 1405 H 136.538 -0.193896 2.03679 0
M  V30 1406 H 136.548 -2.20139 3.43515 0
M  V30 1407 H 135.223 -1.18892 3.98544 0
M  V30 1408 H 133.8 -2.53065 2.73884 0
M  V30 1409 N 135.985 -1.50799 -0.457987 0
M  V30 1410 C 137.396 -1.55152 -1.0385 0
M  V30 1411 C 137.747 -0.362719 -1.92818 0
M  V30 1412 O 136.872 0.522915 -2.09987 0
M  V30 1413 C 137.467 -2.81173 -1.89017 0
M  V30 1414 C 136.026 -2.88164 -2.42154 0
M  V30 1415 C 135.173 -2.49591 -1.20829 0
M  V30 1416 H 138.124 -1.56874 -0.240068 0
M  V30 1417 H 138.145 -2.63769 -2.74238 0
M  V30 1418 H 137.657 -3.67677 -1.24238 0
M  V30 1419 H 135.758 -2.06042 -3.10447 0
M  V30 1420 H 135.871 -3.91356 -2.76364 0
M  V30 1421 H 134.235 -2.02322 -1.54719 0
M  V30 1422 H 135.018 -3.38418 -0.576927 0
M  V30 1423 N 137.463 0.71206 -1.40597 0
M  V30 1424 C 138.688 1.50617 -1.42581 0
M  V30 1425 C 139.113 1.88079 -0.0282102 0
M  V30 1426 O 138.471 1.53511 0.964579 0
M  V30 1427 C 138.519 2.7557 -2.3258 0
M  V30 1428 O 137.623 3.72414 -1.77148 0
M  V30 1429 H 136.964 0.453966 -0.484573 0
M  V30 1430 H 139.494 0.876649 -1.84868 0
M  V30 1431 H 139.504 3.2406 -2.47889 0
M  V30 1432 H 138.179 2.47639 -3.34138 0
M  V30 1433 H 136.756 3.31276 -1.71204 0
M  V30 1434 N 138.941 1.26152 0.944643 0
M  V30 1435 C 140.352 1.10454 1.50522 0
M  V30 1436 C 140.703 -0.31635 1.93633 0
M  V30 1437 O 139.828 -1.20746 1.79581 0
M  V30 1438 C 140.423 1.99891 2.73549 0
M  V30 1439 C 138.982 1.88348 3.25886 0
M  V30 1440 C 138.129 1.93447 1.9868 0
M  V30 1441 H 141.08 1.39292 0.760489 0
M  V30 1442 H 141.101 1.54477 3.47732 0
M  V30 1443 H 140.613 3.03297 2.42141 0
M  V30 1444 H 138.714 0.878636 3.62092 0
M  V30 1445 H 138.827 2.73696 3.93227 0
M  V30 1446 H 137.191 1.37456 2.14425 0
M  V30 1447 H 137.974 2.98476 1.69607 0
M  V30 1448 N 140.419 -1.14872 1.07899 0
M  V30 1449 C 141.382 -2.17986 0.708161 0
M  V30 1450 C 142.382 -1.58775 -0.25442 0
M  V30 1451 O 143.572 -1.74166 -0.034645 0
M  V30 1452 C 140.704 -3.40871 0.0446929 0
M  V30 1453 H 141.897 -2.52306 1.62116 0
M  V30 1454 H 139.45 -1.2943 0.876218 0
M  V30 1455 H 140.185 -3.12124 -0.880281 0
M  V30 1456 H 139.97 -3.8511 0.737091 0
M  V30 1457 H 141.46 -4.17121 -0.19991 0
M  V30 1458 N 141.898 -0.863906 -1.31812 0
M  V30 1459 C 142.83 -0.272485 -2.27575 0
M  V30 1460 C 143.843 0.56104 -1.52827 0
M  V30 1461 O 145.032 0.384021 -1.7432 0
M  V30 1462 C 142.132 0.63283 -3.32939 0
M  V30 1463 C 141.305 -0.166902 -4.37081 0
M  V30 1464 C 140.364 0.665608 -5.21973 0
M  V30 1465 O 139.39 0.0958091 -5.69119 0
M  V30 1466 N 140.592 1.9787 -5.45736 0
M  V30 1467 H 143.357 -1.0954 -2.78964 0
M  V30 1468 H 140.918 -0.724791 -1.4477 0
M  V30 1469 H 142.91 1.19532 -3.86645 0
M  V30 1470 H 141.48 1.35642 -2.81638 0
M  V30 1471 H 140.7 -0.910838 -3.83533 0
M  V30 1472 H 141.988 -0.715874 -5.03739 0
M  V30 1473 H 141.386 2.46484 -5.09178 0
M  V30 1474 H 139.943 2.48911 -6.024 0
M  V30 1475 N 143.376 1.44774 -0.622745 0
M  V30 1476 C 144.339 2.29069 0.0774015 0
M  V30 1477 C 145.339 1.4059 0.780461 0
M  V30 1478 O 146.529 1.62551 0.626322 0
M  V30 1479 C 143.661 3.21974 1.12006 0
M  V30 1480 H 144.854 2.92459 -0.663901 0
M  V30 1481 H 142.407 1.51548 -0.382486 0
M  V30 1482 H 143.142 2.63417 1.89162 0
M  V30 1483 H 142.927 3.87168 0.619951 0
M  V30 1484 H 144.417 3.85318 1.60995 0
M  V30 1485 N 144.854 0.36279 1.53368 0
M  V30 1486 C 146.079 -0.231226 2.06107 0
M  V30 1487 C 146.504 -1.419 1.23474 0
M  V30 1488 O 145.862 -1.79524 0.253128 0
M  V30 1489 C 145.91 -0.605523 3.5548 0
M  V30 1490 O 145.014 -1.70312 3.7559 0
M  V30 1491 H 144.355 -0.034327 0.663112 0
M  V30 1492 H 146.885 0.522584 1.97814 0
M  V30 1493 H 146.895 -0.877314 3.98456 0
M  V30 1494 H 145.57 0.263004 4.15068 0
M  V30 1495 H 144.147 -1.4271 3.44512 0
M  V30 1496 N 146.332 -1.57332 0.0918853 0
M  V30 1497 C 147.58 -1.93853 -0.571446 0
M  V30 1498 C 147.901 -0.974212 -1.6892 0
M  V30 1499 O 147.171 -0.0257254 -1.95883 0
M  V30 1500 H 145.751 -0.715666 -0.214082 0
M  V30 1501 H 148.413 -1.94287 0.154464 0
M  V30 1502 H 147.509 -2.96191 -0.983729 0
M  V30 1503 N 147.81 0.181792 -1.56548 0
M  V30 1504 C 148.773 1.20894 -1.94724 0
M  V30 1505 C 149.773 1.37738 -0.829747 0
M  V30 1506 O 150.963 1.35323 -1.09697 0
M  V30 1507 C 148.095 2.57593 -2.23291 0
M  V30 1508 H 149.288 0.882275 -2.86629 0
M  V30 1509 H 146.841 0.423838 -1.50444 0
M  V30 1510 H 147.576 2.95291 -1.34067 0
M  V30 1511 H 147.361 2.46735 -3.04736 0
M  V30 1512 H 148.851 3.31637 -2.53785 0
M  V30 1513 N 149.288 1.51039 0.449983 0
M  V30 1514 C 150.251 1.70863 1.5277 0
M  V30 1515 C 151.251 0.578846 1.5002 0
M  V30 1516 O 152.441 0.846213 1.52266 0
M  V30 1517 C 149.573 1.75341 2.9235 0
M  V30 1518 H 150.766 2.67034 1.36502 0
M  V30 1519 H 148.319 1.40838 0.677812 0
M  V30 1520 H 149.054 0.809383 3.14037 0
M  V30 1521 H 148.839 2.57436 2.95752 0
M  V30 1522 H 150.329 1.92559 3.70555 0
M  V30 1523 N 150.766 -0.704594 1.40972 0
M  V30 1524 C 151.729 -1.80035 1.41845 0
M  V30 1525 C 152.729 -1.57774 0.310474 0
M  V30 1526 O 153.919 -1.64613 0.56992 0
M  V30 1527 C 151.051 -3.18284 1.22098 0
M  V30 1528 H 152.244 -1.80658 2.3938 0
M  V30 1529 H 149.797 -0.911329 1.26982 0
M  V30 1530 H 150.532 -3.23306 0.253672 0
M  V30 1531 H 150.317 -3.35843 2.02366 0
M  V30 1532 H 151.807 -3.98289 1.25522 0
M  V30 1533 N 152.244 -1.26651 -0.937939 0
M  V30 1534 C 153.174 -1.10993 -2.05433 0
M  V30 1535 C 154.155 -0.0142161 -1.70094 0
M  V30 1536 O 155.34 -0.186837 -1.93299 0
M  V30 1537 C 152.47 -0.745561 -3.39203 0
M  V30 1538 C 151.424 -1.79337 -3.88616 0
M  V30 1539 C 150.75 -1.28324 -5.19073 0
M  V30 1540 C 152.05 -3.19553 -4.13138 0
M  V30 1541 H 153.744 -2.0438 -2.1879 0
M  V30 1542 H 151.29 -0.984041 -1.05131 0
M  V30 1543 H 153.243 -0.622888 -4.16771 0
M  V30 1544 H 151.967 0.22401 -3.25831 0
M  V30 1545 H 150.626 -1.90477 -3.13231 0
M  V30 1546 H 150.274 -0.303414 -5.02084 0
M  V30 1547 H 149.974 -1.98369 -5.53103 0
M  V30 1548 H 151.498 -1.1733 -5.99221 0
M  V30 1549 H 152.912 -3.11471 -4.81309 0
M  V30 1550 H 151.309 -3.87218 -4.58457 0
M  V30 1551 H 152.379 -3.65368 -3.18801 0
M  V30 1552 N 153.722 1.14298 -1.08507 0
M  V30 1553 C 155.138 1.37347 -0.812901 0
M  V30 1554 C 155.338 1.93052 0.577325 0
M  V30 1555 O 154.394 2.14389 1.33393 0
M  V30 1556 C 155.707 2.33359 -1.89642 0
M  V30 1557 C 157.255 2.46996 -1.92255 0
M  V30 1558 C 157.73 3.46309 -2.99724 0
M  V30 1559 N 159.221 3.53853 -2.98902 0
M  V30 1560 C 159.956 4.3055 -3.787 0
M  V30 1561 N 159.452 5.10482 -4.6838 0
M  V30 1562 N 161.245 4.25757 -3.66998 0
M  V30 1563 H 153.396 0.764867 -1.9815 0
M  V30 1564 H 155.659 0.398966 -0.859959 0
M  V30 1565 H 155.365 1.99565 -2.89597 0
M  V30 1566 H 155.239 3.33274 -1.76659 0
M  V30 1567 H 157.626 2.80081 -0.929445 0
M  V30 1568 H 157.707 1.47039 -2.09316 0
M  V30 1569 H 157.351 3.13957 -3.99241 0
M  V30 1570 H 157.281 4.46049 -2.79907 0
M  V30 1571 H 159.772 2.96812 -2.33904 0
M  V30 1572 H 160.085 5.66284 -5.25873 0
M  V30 1573 H 158.43 5.09747 -4.72422 0
M  V30 1574 H 161.621 3.62383 -2.96304 0
M  V30 1575 H 161.794 4.85279 -4.29427 0
M  V30 1576 N 155.201 0.870884 1.31352 0
M  V30 1577 C 156.478 0.402907 1.91405 0
M  V30 1578 C 156.858 -1.11512 1.79244 0
M  V30 1579 O 156.206 -1.94411 1.2007 0
M  V30 1580 C 156.416 0.885301 3.37585 0
M  V30 1581 C 157.764 0.911971 4.14691 0
M  V30 1582 O 158.788 0.831016 3.46371 0
M  V30 1583 O 157.647 1.02927 5.3672 0
M  V30 1584 H 154.741 0.120698 0.818145 0
M  V30 1585 H 157.287 0.958857 1.40014 0
M  V30 1586 H 156.059 1.92889 3.40455 0
M  V30 1587 H 155.682 0.307714 3.96407 0
M  V30 1588 N 156.679 -1.44442 0.630414 0
M  V30 1589 C 157.609 -2.33418 -0.0618083 0
M  V30 1590 C 158.59 -1.48165 -0.835541 0
M  V30 1591 O 159.775 -1.76886 -0.801564 0
M  V30 1592 C 156.905 -3.31222 -1.04449 0
M  V30 1593 C 155.859 -4.26288 -0.382436 0
M  V30 1594 C 155.185 -5.13954 -1.47497 0
M  V30 1595 C 156.485 -5.1744 0.710865 0
M  V30 1596 H 158.179 -2.91548 0.681184 0
M  V30 1597 H 155.725 -1.40191 0.329026 0
M  V30 1598 H 157.678 -3.92351 -1.53748 0
M  V30 1599 H 156.402 -2.71299 -1.81836 0
M  V30 1600 H 155.061 -3.6649 0.0899054 0
M  V30 1601 H 154.709 -4.50385 -2.2397 0
M  V30 1602 H 154.409 -5.7837 -1.03737 0
M  V30 1603 H 155.933 -5.77955 -1.96979 0
M  V30 1604 H 157.347 -5.72509 0.300996 0
M  V30 1605 H 155.744 -5.90455 1.07156 0
M  V30 1606 H 156.814 -4.58496 1.57829 0
M  V30 1607 N 158.157 -0.370918 -1.53173 0
M  V30 1608 C 159.382 0.220293 -2.06227 0
M  V30 1609 C 159.807 1.41243 -1.24225 0
M  V30 1610 O 159.165 1.79387 -0.262645 0
M  V30 1611 C 159.213 0.586663 -3.55796 0
M  V30 1612 O 158.317 1.68317 -3.76488 0
M  V30 1613 H 157.658 0.0308099 -0.663285 0
M  V30 1614 H 160.188 -0.533068 -1.97534 0
M  V30 1615 H 160.198 0.85617 -3.98916 0
M  V30 1616 H 158.873 -0.285013 -4.14922 0
M  V30 1617 H 157.45 1.40881 -3.45264 0
M  V30 1618 N 159.635 1.57281 -0.100228 0
M  V30 1619 C 160.882 1.94537 0.562268 0
M  V30 1620 C 161.21 0.982315 1.67871 0
M  V30 1621 O 160.465 0.00280936 1.957 0
M  V30 1622 C 160.764 3.38305 1.15259 0
M  V30 1623 C 160.43 4.50618 0.159409 0
M  V30 1624 C 159.092 4.81066 -0.113741 0
M  V30 1625 C 161.444 5.18615 -0.518461 0
M  V30 1626 C 158.772 5.76835 -1.07137 0
M  V30 1627 C 161.124 6.15412 -1.46459 0
M  V30 1628 C 159.788 6.44262 -1.74592 0
M  V30 1629 H 159.058 0.711863 0.205748 0
M  V30 1630 H 161.705 1.90679 -0.17715 0
M  V30 1631 H 160.01 3.38766 1.96836 0
M  V30 1632 H 161.707 3.64435 1.67297 0
M  V30 1633 H 158.297 4.2689 0.382491 0
M  V30 1634 H 162.481 4.95264 -0.320581 0
M  V30 1635 H 157.737 5.975 -1.29628 0
M  V30 1636 H 161.911 6.67194 -1.99564 0
M  V30 1637 H 159.538 7.1828 -2.48953 0
M  V30 1638 N 161.113 -0.173488 1.56642 0
M  V30 1639 C 162.36 -0.890465 1.81871 0
M  V30 1640 C 162.688 -1.82339 0.67696 0
M  V30 1641 O 161.943 -1.92795 -0.335926 0
M  V30 1642 C 162.242 -1.72069 3.13252 0
M  V30 1643 C 161.908 -0.936878 4.41059 0
M  V30 1644 C 160.57 -0.720545 4.75775 0
M  V30 1645 C 162.922 -0.386919 5.19762 0
M  V30 1646 C 160.25 0.0568829 5.86672 0
M  V30 1647 C 162.602 0.37741 6.31473 0
M  V30 1648 C 161.266 0.604563 6.64757 0
M  V30 1649 H 160.536 -0.325844 0.665512 0
M  V30 1650 H 163.183 -0.155527 1.90867 0
M  V30 1651 H 161.488 -2.52496 2.99588 0
M  V30 1652 H 163.185 -2.27844 3.29982 0
M  V30 1653 H 159.775 -1.11553 4.13828 0
M  V30 1654 H 163.959 -0.541398 4.93338 0
M  V30 1655 H 159.215 0.242635 6.10918 0
M  V30 1656 H 163.389 0.810825 6.91664 0
M  V30 1657 H 161.016 1.20885 7.50527 0
M  V30 1658 N 162.591 -1.51276 -0.441967 0
M  V30 1659 C 163.839 -1.63392 -1.18943 0
M  V30 1660 C 164.16 -0.350159 -1.9183 0
M  V30 1661 O 163.43 0.633784 -1.85364 0
M  V30 1662 H 162.01 -0.602164 -0.442049 0
M  V30 1663 H 164.672 -1.88186 -0.507165 0
M  V30 1664 H 163.768 -2.45934 -1.92154 0
M  V30 1665 N 164.069 0.697108 -1.41344 0
M  V30 1666 C 165.317 1.45426 -1.40341 0
M  V30 1667 C 165.638 1.94996 -0.0128787 0
M  V30 1668 O 164.908 1.71599 0.945027 0
M  V30 1669 H 163.488 0.539594 -0.516573 0
M  V30 1670 H 166.15 0.825201 -1.76569 0
M  V30 1671 H 165.246 2.31817 -2.08967 0
M  V30 1672 N 165.547 1.27147 0.931209 0
M  V30 1673 C 166.477 1.12081 2.04842 0
M  V30 1674 C 167.458 0.0232364 1.70084 0
M  V30 1675 O 168.643 0.197085 1.93197 0
M  V30 1676 C 165.773 0.76354 3.38803 0
M  V30 1677 C 164.727 1.81396 3.87659 0
M  V30 1678 C 164.053 1.31075 5.18385 0
M  V30 1679 C 165.353 3.21739 4.11438 0
M  V30 1680 H 167.047 2.05537 2.17703 0
M  V30 1681 H 164.593 0.989603 1.04608 0
M  V30 1682 H 166.546 0.644982 4.16435 0
M  V30 1683 H 165.27 -0.206727 3.25945 0
M  V30 1684 H 163.929 1.92136 3.12217 0
M  V30 1685 H 163.577 0.330037 5.01916 0
M  V30 1686 H 163.277 2.013 5.52044 0
M  V30 1687 H 164.801 1.20506 5.98591 0
M  V30 1688 H 166.215 3.14019 4.79651 0
M  V30 1689 H 164.612 3.89644 4.56397 0
M  V30 1690 H 165.682 3.67054 3.16859 0
M  V30 1691 N 167.025 -1.13721 1.09112 0
M  V30 1692 C 167.955 -2.21148 0.749385 0
M  V30 1693 C 168.936 -1.6792 -0.271475 0
M  V30 1694 O 170.121 -1.93693 -0.140251 0
M  V30 1695 C 167.251 -3.46905 0.165659 0
M  V30 1696 C 166.205 -4.13203 1.11567 0
M  V30 1697 C 165.531 -5.33248 0.393809 0
M  V30 1698 C 166.831 -4.60912 2.45678 0
M  V30 1699 H 168.525 -2.4999 1.64758 0
M  V30 1700 H 166.071 -1.20156 0.793626 0
M  V30 1701 H 168.024 -4.21313 -0.085466 0
M  V30 1702 H 166.748 -3.17449 -0.767714 0
M  V30 1703 H 165.407 -3.40758 1.35202 0
M  V30 1704 H 165.055 -5.00054 -0.543599 0
M  V30 1705 H 164.755 -5.78552 1.02721 0
M  V30 1706 H 166.279 -6.10413 0.150908 0
M  V30 1707 H 167.693 -5.26759 2.26269 0
M  V30 1708 H 166.09 -5.16944 3.04776 0
M  V30 1709 H 167.16 -3.75603 3.06677 0
M  V30 1710 N 168.503 -0.877838 -1.30888 0
M  V30 1711 C 169.919 -0.570844 -1.49042 0
M  V30 1712 C 170.119 0.893159 -1.80624 0
M  V30 1713 O 169.175 1.67485 -1.88958 0
M  V30 1714 C 170.488 -1.47784 -2.61878 0
M  V30 1715 C 172.036 -1.48071 -2.75761 0
M  V30 1716 C 172.511 -2.37347 -3.91702 0
M  V30 1717 N 174.002 -2.35271 -3.99001 0
M  V30 1718 C 174.737 -3.01063 -4.88004 0
M  V30 1719 N 174.233 -3.76055 -5.81854 0
M  V30 1720 N 176.026 -2.90332 -4.81315 0
M  V30 1721 H 168.177 -1.82502 -1.0866 0
M  V30 1722 H 170.44 -0.780797 -0.537644 0
M  V30 1723 H 170.146 -2.51993 -2.45341 0
M  V30 1724 H 170.02 -1.18215 -3.58197 0
M  V30 1725 H 172.407 -0.446166 -2.91708 0
M  V30 1726 H 172.488 -1.81668 -1.80085 0
M  V30 1727 H 172.132 -3.40883 -3.76512 0
M  V30 1728 H 172.062 -2.01071 -4.86701 0
M  V30 1729 H 174.553 -1.80768 -3.3186 0
M  V30 1730 H 174.866 -4.23366 -6.46514 0
M  V30 1731 H 173.211 -3.80163 -5.81808 0
M  V30 1732 H 176.402 -2.31278 -4.06974 0
M  V30 1733 H 176.575 -3.41885 -5.50471 0
M  V30 1734 N 169.982 1.44106 -0.638065 0
M  V30 1735 C 171.398 1.56672 -0.304286 0
M  V30 1736 C 171.598 1.6244 1.19228 0
M  V30 1737 O 170.654 1.57121 1.9766 0
M  V30 1738 C 171.967 2.83503 -1.00231 0
M  V30 1739 C 173.515 2.97226 -0.981116 0
M  V30 1740 C 173.99 4.26868 -1.65974 0
M  V30 1741 N 175.481 4.33698 -1.62666 0
M  V30 1742 C 176.216 5.32745 -2.12063 0
M  V30 1743 N 175.712 6.38157 -2.6968 0
M  V30 1744 N 177.505 5.24299 -2.02651 0
M  V30 1745 H 169.656 1.38605 -1.60942 0
M  V30 1746 H 171.919 0.664661 -0.675965 0
M  V30 1747 H 171.625 2.85251 -2.0573 0
M  V30 1748 H 171.499 3.73251 -0.54439 0
M  V30 1749 H 173.886 2.95027 0.0654188 0
M  V30 1750 H 173.967 2.08808 -1.47759 0
M  V30 1751 H 173.611 4.29826 -2.70576 0
M  V30 1752 H 173.541 5.14156 -1.13804 0
M  V30 1753 H 176.032 3.58138 -1.20606 0
M  V30 1754 H 176.345 7.10029 -3.05087 0
M  V30 1755 H 174.69 6.38823 -2.73734 0
M  V30 1756 H 177.881 4.4086 -1.57353 0
M  V30 1757 H 178.054 6.01334 -2.41457 0
M  V30 1758 N 171.46 0.379036 1.52974 0
M  V30 1759 C 172.423 -0.448865 2.24762 0
M  V30 1760 C 173.423 -0.998689 1.26027 0
M  V30 1761 O 174.613 -0.882313 1.50203 0
M  V30 1762 C 171.745 -1.62872 2.99476 0
M  V30 1763 H 172.938 0.179491 2.99362 0
M  V30 1764 H 170.491 0.13096 1.5575 0
M  V30 1765 H 171.226 -2.29479 2.29151 0
M  V30 1766 H 171.011 -1.24128 3.71934 0
M  V30 1767 H 172.501 -2.2151 3.5401 0
M  V30 1768 N 172.938 -1.57226 0.108567 0
M  V30 1769 C 173.901 -2.13602 -0.831082 0
M  V30 1770 C 174.901 -1.06841 -1.20173 0
M  V30 1771 O 176.091 -1.32666 -1.12895 0
M  V30 1772 C 173.223 -2.66769 -2.12243 0
M  V30 1773 H 174.416 -2.97951 -0.341317 0
M  V30 1774 H 171.969 -1.55667 -0.14057 0
M  V30 1775 H 172.704 -1.85977 -2.65675 0
M  V30 1776 H 172.489 -3.44839 -1.86625 0
M  V30 1777 H 173.979 -3.10332 -2.79435 0
M  V30 1778 N 174.416 0.165178 -1.56732 0
M  V30 1779 C 175.656 0.887231 -1.8414 0
M  V30 1780 C 176.02 1.79159 -0.690353 0
M  V30 1781 O 177.221 2.55172 -0.845032 0
M  V30 1782 C 175.492 1.65674 -3.16681 0
M  V30 1783 S 177.051 2.42671 -3.6559 0
M  V30 1784 H 173.869 0.297042 -0.645978 0
M  V30 1785 H 176.471 0.148439 -1.94936 0
M  V30 1786 H 175.175 0.983507 -3.98441 0
M  V30 1787 H 174.706 2.43679 -3.08843 0
M  V30 1788 H 176.721 3.67499 -3.33406 0
M  V30 1789 N 175.894 1.51508 0.433938 0
M  V30 1790 C 176.824 1.76016 1.53429 0
M  V30 1791 C 177.805 0.610112 1.58782 0
M  V30 1792 O 178.99 0.853177 1.74455 0
M  V30 1793 C 176.12 1.88831 2.9148 0
M  V30 1794 C 175.074 3.04288 3.00987 0
M  V30 1795 C 174.4 3.0229 4.4105 0
M  V30 1796 C 175.7 4.44193 2.74754 0
M  V30 1797 H 177.394 2.68152 1.33171 0
M  V30 1798 H 174.94 1.29035 0.639214 0
M  V30 1799 H 176.893 2.04559 3.6842 0
M  V30 1800 H 175.617 0.933455 3.12976 0
M  V30 1801 H 174.276 2.8827 2.26486 0
M  V30 1802 H 173.924 2.04576 4.59519 0
M  V30 1803 H 173.624 3.79822 4.4834 0
M  V30 1804 H 175.148 3.20116 5.1996 0
M  V30 1805 H 176.562 4.60544 3.41426 0
M  V30 1806 H 174.959 5.23457 2.9345 0
M  V30 1807 H 176.029 4.53996 1.70339 0
M  V30 1808 N 177.372 -0.689602 1.41712 0
M  V30 1809 C 178.788 -1.00093 1.24312 0
M  V30 1810 C 178.988 -2.01036 0.136729 0
M  V30 1811 O 178.044 -2.47562 -0.496918 0
M  V30 1812 C 179.357 -1.51985 2.59463 0
M  V30 1813 C 180.905 -1.63838 2.66695 0
M  V30 1814 C 181.38 -2.1913 4.02177 0
M  V30 1815 N 182.871 -2.26483 4.04054 0
M  V30 1816 C 183.606 -2.70306 5.0569 0
M  V30 1817 N 183.102 -3.13691 6.17713 0
M  V30 1818 N 184.895 -2.69923 4.9305 0
M  V30 1819 H 177.046 -0.0210029 2.1239 0
M  V30 1820 H 179.309 -0.0718733 0.945272 0
M  V30 1821 H 179.015 -0.85269 3.41207 0
M  V30 1822 H 178.889 -2.50103 2.82362 0
M  V30 1823 H 181.276 -2.29664 1.85306 0
M  V30 1824 H 181.357 -0.642492 2.476 0
M  V30 1825 H 181.001 -1.53918 4.84016 0
M  V30 1826 H 180.931 -3.19482 4.18615 0
M  V30 1827 H 183.422 -1.95874 3.23174 0
M  V30 1828 H 183.735 -3.45773 6.9113 0
M  V30 1829 H 182.08 -3.11585 6.21241 0
M  V30 1830 H 185.271 -2.35382 4.04614 0
M  V30 1831 H 185.444 -3.03758 5.72394 0
M  V30 1832 N 178.85 -1.27639 -0.924453 0
M  V30 1833 C 180.266 -1.05113 -1.20097 0
M  V30 1834 C 180.466 0.213262 -2.00368 0
M  V30 1835 O 179.522 0.91787 -2.35226 0
M  V30 1836 C 180.835 -2.29244 -1.94596 0
M  V30 1837 C 182.383 -2.34315 -2.07522 0
M  V30 1838 C 182.858 -3.58183 -2.85427 0
M  V30 1839 N 184.349 -3.5876 -2.92994 0
M  V30 1840 C 185.084 -4.51277 -3.53746 0
M  V30 1841 N 184.58 -5.54102 -4.15863 0
M  V30 1842 N 186.373 -4.38894 -3.51181 0
M  V30 1843 H 178.524 -2.08821 -0.388264 0
M  V30 1844 H 180.787 -0.918568 -0.234385 0
M  V30 1845 H 180.493 -3.21301 -1.43034 0
M  V30 1846 H 180.367 -2.34816 -2.95197 0
M  V30 1847 H 182.754 -1.42762 -2.58269 0
M  V30 1848 H 182.835 -2.32744 -1.06131 0
M  V30 1849 H 182.479 -4.50074 -2.35363 0
M  V30 1850 H 182.409 -3.57006 -3.8711 0
M  V30 1851 H 184.9 -2.84398 -2.4885 0
M  V30 1852 H 185.213 -6.20859 -4.60168 0
M  V30 1853 H 183.558 -5.57941 -4.144 0
M  V30 1854 H 186.749 -3.57772 -3.01856 0
M  V30 1855 H 186.922 -5.11186 -3.98237 0
M  V30 1856 N 180.328 1.1314 -1.09713 0
M  V30 1857 C 181.568 1.8613 -0.844683 0
M  V30 1858 C 181.932 1.81765 0.618491 0
M  V30 1859 O 183.133 2.50024 0.98699 0
M  V30 1860 C 181.404 3.30151 -1.36877 0
M  V30 1861 S 182.963 4.206 -1.25064 0
M  V30 1862 H 179.781 0.642056 -0.305427 0
M  V30 1863 H 182.383 1.36343 -1.4011 0
M  V30 1864 H 181.087 3.30883 -2.42786 0
M  V30 1865 H 180.618 3.85 -0.808614 0
M  V30 1866 H 182.633 4.95783 -0.203486 0
M  V30 1867 N 181.806 0.884767 1.30421 0
M  V30 1868 C 182.736 0.367574 2.30589 0
M  V30 1869 C 183.717 -0.549464 1.60981 0
M  V30 1870 O 184.902 -0.46336 1.88591 0
M  V30 1871 C 182.032 -0.418944 3.44764 0
M  V30 1872 C 180.986 0.406316 4.26067 0
M  V30 1873 C 180.312 -0.506793 5.32293 0
M  V30 1874 C 181.612 1.64832 4.95608 0
M  V30 1875 H 183.306 1.20462 2.74097 0
M  V30 1876 H 180.852 0.580695 1.31772 0
M  V30 1877 H 182.805 -0.791395 4.13902 0
M  V30 1878 H 181.529 -1.28964 3.0006 0
M  V30 1879 H 180.188 0.760903 3.58617 0
M  V30 1880 H 179.836 -1.37519 4.83836 0
M  V30 1881 H 179.536 0.0415828 5.87585 0
M  V30 1882 H 181.06 -0.875764 6.04287 0
M  V30 1883 H 182.474 1.34646 5.57264 0
M  V30 1884 H 180.871 2.13688 5.60765 0
M  V30 1885 H 181.941 2.39284 4.21748 0
M  V30 1886 N 183.284 -1.43765 0.645699 0
M  V30 1887 C 184.532 -2.01499 0.155731 0
M  V30 1888 C 184.853 -1.51151 -1.232 0
M  V30 1889 O 184.123 -0.721044 -1.82148 0
M  V30 1890 H 182.703 -0.745003 0.0545817 0
M  V30 1891 H 185.365 -1.76075 0.835677 0
M  V30 1892 H 184.461 -3.1181 0.134577 0
M  V30 1893 N 184.763 -0.387143 -1.52771 0
M  V30 1894 C 186.174 0.0873634 -1.86495 0
M  V30 1895 C 186.525 1.46336 -1.30691 0
M  V30 1896 O 185.65 2.068 -0.637409 0
M  V30 1897 C 186.245 0.165305 -3.38396 0
M  V30 1898 C 184.804 0.584101 -3.7184 0
M  V30 1899 C 183.951 -0.255279 -2.76122 0
M  V30 1900 H 186.902 -0.605104 -1.46711 0
M  V30 1901 H 186.923 0.984848 -3.67534 0
M  V30 1902 H 186.435 -0.836301 -3.78982 0
M  V30 1903 H 184.536 1.59315 -3.36823 0
M  V30 1904 H 184.649 0.343749 -4.77865 0
M  V30 1905 H 183.013 0.279126 -2.53166 0
M  V30 1906 H 183.796 -1.25482 -3.19545 0
M  V30 1907 N 186.241 1.57166 -0.116904 0
M  V30 1908 C 187.652 1.82169 0.408809 0
M  V30 1909 C 188.003 1.03393 1.66746 0
M  V30 1910 O 187.128 0.269886 2.1471 0
M  V30 1911 C 187.723 3.30429 0.748466 0
M  V30 1912 C 186.282 3.5612 1.21882 0
M  V30 1913 C 185.429 2.76374 0.226452 0
M  V30 1914 H 188.38 1.5497 -0.342063 0
M  V30 1915 H 188.401 3.44943 1.60607 0
M  V30 1916 H 187.913 3.87737 -0.167784 0
M  V30 1917 H 186.014 3.04168 2.15204 0
M  V30 1918 H 186.127 4.64705 1.16559 0
M  V30 1919 H 184.491 2.44515 0.713063 0
M  V30 1920 H 185.274 3.3644 -0.682859 0
M  V30 1921 N 187.719 -0.156864 1.56817 0
M  V30 1922 C 188.682 -1.17781 1.96622 0
M  V30 1923 C 189.682 -1.36401 0.851555 0
M  V30 1924 O 190.872 -1.33561 1.11836 0
M  V30 1925 C 188.004 -2.54008 2.27361 0
M  V30 1926 H 189.197 -0.836564 2.87996 0
M  V30 1927 H 186.75 -0.39985 1.51099 0
M  V30 1928 H 187.485 -2.9312 1.38748 0
M  V30 1929 H 187.27 -2.41856 3.08623 0
M  V30 1930 H 188.76 -3.27558 2.59029 0
M  V30 1931 N 189.197 -1.51736 -0.425897 0
M  V30 1932 C 190.16 -1.73271 -1.50032 0
M  V30 1933 C 191.16 -0.602639 -1.4908 0
M  V30 1934 O 192.35 -0.87033 -1.509 0
M  V30 1935 C 189.482 -1.79969 -2.89523 0
M  V30 1936 H 190.675 -2.69172 -1.32237 0
M  V30 1937 H 188.228 -1.41899 -0.65532 0
M  V30 1938 H 188.963 -0.859241 -3.1271 0
M  V30 1939 H 188.748 -2.62109 -2.91619 0
M  V30 1940 H 190.238 -1.9843 -3.67444 0
M  V30 1941 N 190.675 0.682077 -1.42076 0
M  V30 1942 C 191.625 1.78823 -1.41444 0
M  V30 1943 C 192.609 1.58323 -0.28681 0
M  V30 1944 O 193.801 1.68926 -0.528498 0
M  V30 1945 C 190.93 3.17232 -1.3122 0
M  V30 1946 C 190.016 3.4338 -2.489 0
M  V30 1947 N 190.407 3.40152 -3.7434 0
M  V30 1948 C 188.705 3.73986 -2.43003 0
M  V30 1949 C 189.406 3.65581 -4.52466 0
M  V30 1950 N 188.382 3.85989 -3.8277 0
M  V30 1951 H 192.184 1.7471 -2.36334 0
M  V30 1952 H 189.698 0.882622 -1.36321 0
M  V30 1953 H 191.695 3.96489 -1.2885 0
M  V30 1954 H 190.355 3.22547 -0.373263 0
M  V30 1955 H 191.366 3.20221 -4.07037 0
M  V30 1956 H 188.043 3.86591 -1.57651 0
M  V30 1957 H 189.433 3.69108 -5.61435 0
M  V30 1958 N 192.153 1.28127 0.917671 0
M  V30 1959 C 193.378 1.18007 1.70555 0
M  V30 1960 C 193.803 -0.258257 1.86319 0
M  V30 1961 O 193.161 -1.1869 1.37049 0
M  V30 1962 C 193.209 1.87948 3.07746 0
M  V30 1963 O 192.313 1.18427 3.9503 0
M  V30 1964 H 191.654 0.409867 0.522403 0
M  V30 1965 H 194.184 1.69379 1.1477 0
M  V30 1966 H 194.194 1.95701 3.58001 0
M  V30 1967 H 192.869 2.92573 2.95591 0
M  V30 1968 H 191.446 1.18811 3.53466 0
M  V30 1969 N 193.631 -1.12557 1.10312 0
M  V30 1970 C 194.561 -2.20341 0.772798 0
M  V30 1971 C 195.542 -1.68198 -0.25365 0
M  V30 1972 O 196.727 -1.93831 -0.119699 0
M  V30 1973 C 193.857 -3.46709 0.202443 0
M  V30 1974 C 192.811 -4.11996 1.15943 0
M  V30 1975 C 192.137 -5.328 0.450345 0
M  V30 1976 C 193.437 -4.5828 2.50552 0
M  V30 1977 H 195.131 -2.48229 1.674 0
M  V30 1978 H 192.677 -1.19308 0.806326 0
M  V30 1979 H 194.63 -4.2138 -0.0407752 0
M  V30 1980 H 193.354 -3.18245 -0.734001 0
M  V30 1981 H 192.013 -3.39305 1.38808 0
M  V30 1982 H 191.661 -5.00602 -0.490531 0
M  V30 1983 H 191.361 -5.7743 1.08851 0
M  V30 1984 H 192.885 -6.10219 0.215642 0
M  V30 1985 H 194.299 -5.2433 2.31843 0
M  V30 1986 H 192.696 -5.13683 3.10242 0
M  V30 1987 H 193.766 -3.72329 3.10643 0
M  V30 1988 N 195.109 -0.891671 -1.2995 0
M  V30 1989 C 196.334 -0.527932 -2.00568 0
M  V30 1990 C 196.759 0.877969 -1.66353 0
M  V30 1991 O 196.117 1.58301 -0.883762 0
M  V30 1992 C 196.165 -0.717745 -3.53385 0
M  V30 1993 O 195.269 0.233376 -4.11739 0
M  V30 1994 H 194.61 -0.20722 -0.630837 0
M  V30 1995 H 197.14 -1.20105 -1.65638 0
M  V30 1996 H 197.15 -0.619307 -4.03272 0
M  V30 1997 H 195.825 -1.74276 -3.77625 0
M  V30 1998 H 194.402 0.0880706 -3.72796 0
M  V30 1999 N 196.587 1.43421 -0.653314 0
M  V30 2000 C 197.497 2.34568 0.0388565 0
M  V30 2001 C 198.513 1.53888 0.81207 0
M  V30 2002 O 199.689 1.86539 0.759294 0
M  V30 2003 C 196.754 3.32167 0.993269 0
M  V30 2004 C 195.815 4.28751 0.216977 0
M  V30 2005 C 195.048 5.21688 1.12593 0
M  V30 2006 O 195.271 5.19052 2.36519 0
M  V30 2007 O 194.205 5.98919 0.598284 0
M  V30 2008 H 198.031 2.95251 -0.711386 0
M  V30 2009 H 195.616 1.43564 -0.413502 0
M  V30 2010 H 197.498 3.92183 1.54176 0
M  V30 2011 H 196.173 2.73987 1.72374 0
M  V30 2012 H 195.08 3.72215 -0.375101 0
M  V30 2013 H 196.413 4.89913 -0.473924 0
M  V30 2014 N 198.065 0.39524 1.52563 0
M  V30 2015 C 198.975 -0.444232 2.30356 0
M  V30 2016 C 199.991 -1.06615 1.37511 0
M  V30 2017 O 201.167 -1.07067 1.70583 0
M  V30 2018 C 198.232 -1.55315 3.09964 0
M  V30 2019 C 197.293 -0.955734 4.18526 0
M  V30 2020 C 196.526 -2.01181 4.9433 0
M  V30 2021 O 196.749 -3.22781 4.70285 0
M  V30 2022 O 195.683 -1.62579 5.79527 0
M  V30 2023 H 199.509 0.189667 3.03107 0
M  V30 2024 H 197.094 0.1588 1.48554 0
M  V30 2025 H 198.976 -2.19724 3.59582 0
M  V30 2026 H 197.651 -2.17191 2.4002 0
M  V30 2027 H 196.558 -0.274743 3.7309 0
M  V30 2028 H 197.891 -0.381109 4.90722 0
M  V30 2029 N 199.544 -1.57102 0.125237 0
M  V30 2030 C 200.477 -2.11371 -0.860094 0
M  V30 2031 C 201.455 -1.03168 -1.25679 0
M  V30 2032 O 202.639 -1.30862 -1.35674 0
M  V30 2033 C 199.766 -2.61555 -2.1519 0
M  V30 2034 C 198.812 -3.81701 -1.9028 0
M  V30 2035 S 199.645 -5.23797 -1.11343 0
M  V30 2036 C 200.801 -5.77353 -2.41689 0
M  V30 2037 H 201.034 -2.94617 -0.39852 0
M  V30 2038 H 198.567 -1.54145 -0.0886555 0
M  V30 2039 H 200.525 -2.91122 -2.89411 0
M  V30 2040 H 199.186 -1.78479 -2.58465 0
M  V30 2041 H 198.379 -4.14985 -2.86014 0
M  V30 2042 H 197.981 -3.52783 -1.24178 0
M  V30 2043 H 200.273 -5.87458 -3.37489 0
M  V30 2044 H 201.216 -6.75323 -2.12942 0
M  V30 2045 H 201.624 -5.05457 -2.51342 0
M  V30 2046 N 201.022 0.148545 -1.56898 0
M  V30 2047 C 201.932 1.20293 -2.01412 0
M  V30 2048 C 202.948 1.47107 -0.929273 0
M  V30 2049 O 204.124 1.58807 -1.23863 0
M  V30 2050 C 201.189 2.51682 -2.38447 0
M  V30 2051 C 200.25 2.32529 -3.60872 0
M  V30 2052 C 199.483 3.57653 -3.96132 0
M  V30 2053 O 199.706 4.63771 -3.32073 0
M  V30 2054 O 198.64 3.50408 -4.89385 0
M  V30 2055 H 202.466 0.855025 -2.91416 0
M  V30 2056 H 200.051 0.357151 -1.45068 0
M  V30 2057 H 201.933 3.29147 -2.63135 0
M  V30 2058 H 200.608 2.86006 -1.51599 0
M  V30 2059 H 199.515 1.53019 -3.41373 0
M  V30 2060 H 200.848 2.03121 -4.48333 0
M  V30 2061 N 202.5 1.5196 0.417844 0
M  V30 2062 C 203.43 1.77634 1.51554 0
M  V30 2063 C 204.411 0.626918 1.58126 0
M  V30 2064 O 205.596 0.871632 1.7354 0
M  V30 2065 C 202.726 1.91911 2.8946 0
M  V30 2066 C 201.68 3.07463 2.97743 0
M  V30 2067 C 201.006 3.06951 4.37819 0
M  V30 2068 C 202.306 4.47082 2.70027 0
M  V30 2069 H 204 2.6955 1.3032 0
M  V30 2070 H 201.546 1.29706 0.625492 0
M  V30 2071 H 203.499 2.08455 3.6623 0
M  V30 2072 H 202.223 0.966598 3.11969 0
M  V30 2073 H 200.882 2.90656 2.23416 0
M  V30 2074 H 200.53 2.09438 4.57323 0
M  V30 2075 H 200.23 3.84556 4.44286 0
M  V30 2076 H 201.754 3.25613 5.16535 0
M  V30 2077 H 203.168 4.6414 3.36522 0
M  V30 2078 H 201.565 5.2654 2.87881 0
M  V30 2079 H 202.635 4.55777 1.65514 0
M  V30 2080 N 203.978 -0.674533 1.42435 0
M  V30 2081 C 204.888 -1.81751 1.48337 0
M  V30 2082 C 205.904 -1.69975 0.372099 0
M  V30 2083 O 207.08 -1.91521 0.62304 0
M  V30 2084 C 204.145 -3.17895 1.38361 0
M  V30 2085 C 203.206 -3.41625 2.59982 0
M  V30 2086 C 202.439 -4.71274 2.50473 0
M  V30 2087 O 202.662 -5.49197 1.54075 0
M  V30 2088 O 201.596 -4.96254 3.4061 0
M  V30 2089 H 205.422 -1.79728 2.44809 0
M  V30 2090 H 203.007 -0.830312 1.24202 0
M  V30 2091 H 204.889 -3.99136 1.35161 0
M  V30 2092 H 203.564 -3.20555 0.450144 0
M  V30 2093 H 202.471 -2.60231 2.68757 0
M  V30 2094 H 203.804 -3.43796 3.52229 0
M  V30 2095 N 205.456 -1.28612 -0.910864 0
M  V30 2096 C 206.703 -1.15934 -1.66029 0
M  V30 2097 C 207.031 0.291483 -1.92303 0
M  V30 2098 O 206.286 1.22816 -1.52364 0
M  V30 2099 C 206.585 -1.90624 -3.0232 0
M  V30 2100 C 206.251 -3.40405 -2.95695 0
M  V30 2101 C 204.913 -3.81255 -2.93595 0
M  V30 2102 C 207.265 -4.359 -2.85728 0
M  V30 2103 C 204.593 -5.15936 -2.79334 0
M  V30 2104 C 206.945 -5.70657 -2.73007 0
M  V30 2105 C 205.609 -6.10779 -2.69267 0
M  V30 2106 H 204.879 -0.424234 -0.607541 0
M  V30 2107 H 207.526 -1.5942 -1.06101 0
M  V30 2108 H 205.831 -1.39696 -3.6605 0
M  V30 2109 H 207.528 -1.78228 -3.59215 0
M  V30 2110 H 204.118 -3.07927 -2.98125 0
M  V30 2111 H 208.302 -4.053 -2.86436 0
M  V30 2112 H 203.558 -5.46146 -2.74835 0
M  V30 2113 H 207.732 -6.44311 -2.64264 0
M  V30 2114 H 205.359 -7.1509 -2.57974 0
M  V30 2115 N 206.934 1.1197 -1.10907 0
M  V30 2116 C 208.35 1.35591 -0.841852 0
M  V30 2117 C 208.55 1.94233 0.536246 0
M  V30 2118 O 207.606 2.1717 1.28816 0
M  V30 2119 C 208.919 2.29284 -1.94549 0
M  V30 2120 C 210.467 2.42862 -1.97451 0
M  V30 2121 C 210.942 3.39873 -3.07002 0
M  V30 2122 N 212.433 3.47433 -3.06341 0
M  V30 2123 C 213.168 4.22421 -3.87748 0
M  V30 2124 N 212.664 5.00432 -4.79103 0
M  V30 2125 N 214.457 4.17876 -3.75946 0
M  V30 2126 H 206.608 0.722664 -1.99728 0
M  V30 2127 H 208.871 0.380635 -0.868229 0
M  V30 2128 H 208.577 1.93378 -2.93765 0
M  V30 2129 H 208.451 3.29452 -1.83688 0
M  V30 2130 H 210.838 2.78046 -0.988645 0
M  V30 2131 H 210.919 1.42566 -2.12388 0
M  V30 2132 H 210.563 3.05417 -4.05811 0
M  V30 2133 H 210.493 4.40011 -2.89306 0
M  V30 2134 H 212.984 2.91784 -2.40147 0
M  V30 2135 H 213.297 5.55002 -5.37766 0
M  V30 2136 H 211.642 4.99612 -4.83128 0
M  V30 2137 H 214.833 3.56016 -3.03924 0
M  V30 2138 H 215.006 4.76061 -4.39624 0
M  V30 2139 N 208.412 0.89855 1.29475 0
M  V30 2140 C 209.359 0.373819 2.27753 0
M  V30 2141 C 210.329 -0.543444 1.56958 0
M  V30 2142 O 211.514 -0.468934 1.84948 0
M  V30 2143 C 208.654 -0.393648 3.42848 0
M  V30 2144 C 207.767 0.554379 4.28428 0
M  V30 2145 C 206.902 -0.230026 5.30702 0
M  V30 2146 C 205.941 0.712599 6.07938 0
M  V30 2147 N 205.078 -0.0373283 7.0209 0
M  V30 2148 H 209.918 1.21699 2.72017 0
M  V30 2149 H 207.455 0.611456 1.33789 0
M  V30 2150 H 209.413 -0.85466 4.08352 0
M  V30 2151 H 208.043 -1.20128 2.99615 0
M  V30 2152 H 207.095 1.13391 3.63107 0
M  V30 2153 H 208.407 1.27597 4.82204 0
M  V30 2154 H 207.561 -0.752288 6.02018 0
M  V30 2155 H 206.3 -0.984758 4.77654 0
M  V30 2156 H 205.305 1.24637 5.35486 0
M  V30 2157 H 206.53 1.46664 6.63074 0
M  V30 2158 H 204.476 -0.774348 6.51414 0
M  V30 2159 H 204.393 0.624374 7.53417 0
M  V30 2160 H 205.661 -0.539891 7.77628 0
M  V30 2161 N 209.89 -1.43072 0.660911 0
M  V30 2162 C 211.306 -1.56169 0.329173 0
M  V30 2163 C 211.506 -1.64317 -1.16629 0
M  V30 2164 O 210.562 -1.60245 -1.95135 0
M  V30 2165 C 211.875 -2.81873 1.04729 0
M  V30 2166 C 213.423 -2.95627 1.02828 0
M  V30 2167 C 213.898 -4.24174 1.72744 0
M  V30 2168 N 215.389 -4.31055 1.69545 0
M  V30 2169 C 216.124 -5.29304 2.20511 0
M  V30 2170 N 215.62 -6.33786 2.79799 0
M  V30 2171 N 217.413 -5.21008 2.10966 0
M  V30 2172 H 209.564 -1.36027 1.63127 0
M  V30 2173 H 211.827 -0.653823 0.686454 0
M  V30 2174 H 211.533 -2.81942 2.10242 0
M  V30 2175 H 211.407 -3.72338 0.603702 0
M  V30 2176 H 213.794 -2.95094 -0.0184742 0
M  V30 2177 H 213.875 -2.06431 1.51063 0
M  V30 2178 H 213.519 -4.25467 2.7738 0
M  V30 2179 H 213.449 -5.1228 1.2197 0
M  V30 2180 H 215.94 -3.56174 1.26288 0
M  V30 2181 H 216.253 -7.05086 3.16344 0
M  V30 2182 H 214.598 -6.34387 2.83863 0
M  V30 2183 H 217.789 -4.38301 1.64347 0
M  V30 2184 H 217.962 -5.97416 2.50993 0
M  V30 2185 N 211.368 -0.403325 -1.52352 0
M  V30 2186 C 212.593 0.176499 -2.06648 0
M  V30 2187 C 213.018 1.38577 -1.27193 0
M  V30 2188 O 212.376 1.7879 -0.300637 0
M  V30 2189 C 212.424 0.511061 -3.5696 0
M  V30 2190 O 211.528 1.60294 -3.79973 0
M  V30 2191 H 210.869 0.0167337 -0.663789 0
M  V30 2192 H 213.399 -0.574848 -1.96359 0
M  V30 2193 H 213.409 0.771362 -4.00642 0
M  V30 2194 H 212.084 -0.37296 -4.14224 0
M  V30 2195 H 210.661 1.33526 -3.48174 0
M  V30 2196 N 212.846 1.57033 -0.133567 0
M  V30 2197 C 214.257 1.82593 0.389464 0
M  V30 2198 C 214.608 1.05156 1.6564 0
M  V30 2199 O 213.733 0.292644 2.14412 0
M  V30 2200 C 214.328 3.31204 0.713377 0
M  V30 2201 C 212.887 3.57393 1.18098 0
M  V30 2202 C 212.034 2.76598 0.197126 0
M  V30 2203 H 214.985 1.54598 -0.358481 0
M  V30 2204 H 215.006 3.46627 1.56939 0
M  V30 2205 H 214.518 3.87537 -0.2089 0
M  V30 2206 H 212.619 3.06433 2.11966 0
M  V30 2207 H 212.732 4.65915 1.11624 0
M  V30 2208 H 211.096 2.45257 0.687088 0
M  V30 2209 H 211.879 3.35697 -0.718504 0
M  V30 2210 N 214.325 -0.140222 1.56975 0
M  V30 2211 C 215.555 -0.865181 1.87612 0
M  V30 2212 C 215.963 -1.74942 0.72055 0
M  V30 2213 O 215.306 -1.80917 -0.318561 0
M  V30 2214 C 215.368 -1.76782 3.13031 0
M  V30 2215 C 215.032 -1.06005 4.44536 0
M  V30 2216 C 216.029 -0.410768 5.18275 0
M  V30 2217 C 213.714 -1.04754 4.91255 0
M  V30 2218 C 215.708 0.241572 6.36942 0
M  V30 2219 C 213.395 -0.391394 6.09845 0
M  V30 2220 C 214.393 0.252029 6.82535 0
M  V30 2221 O 214.081 0.897757 7.98871 0
M  V30 2222 H 213.813 -0.255188 0.625983 0
M  V30 2223 H 216.367 -0.135653 2.04952 0
M  V30 2224 H 214.597 -2.53846 2.91718 0
M  V30 2225 H 216.286 -2.36533 3.29859 0
M  V30 2226 H 217.052 -0.412195 4.83245 0
M  V30 2227 H 212.931 -1.53777 4.34596 0
M  V30 2228 H 216.475 0.744375 6.93617 0
M  V30 2229 H 212.372 -0.387656 6.44335 0
M  V30 2230 H 213.14 0.800102 8.1458 0
M  V30 2231 N 215.803 -1.52179 -0.40978 0
M  V30 2232 C 216.751 -1.76086 -1.51975 0
M  V30 2233 C 217.745 -0.627964 -1.57331 0
M  V30 2234 O 218.951 -0.809993 -1.60745 0
M  V30 2235 H 215.326 -0.556829 -0.505416 0
M  V30 2236 H 217.297 -2.69077 -1.28996 0
M  V30 2237 C 216.046 -1.92799 -2.8935 0
M  V30 2238 H 215.369 -2.79392 -2.85972 0
M  V30 2239 H 216.809 -2.13527 -3.66309 0
M  V30 2240 C 215.268 -0.694923 -3.29655 0
M  V30 2241 O 215.798 0.13751 -4.01465 0
M  V30 2242 N 214.004 -0.53101 -2.85707 0
M  V30 2243 H 213.551 -1.20952 -2.27439 0
M  V30 2244 H 213.509 0.292718 -3.13034 0
M  V30 2245 N 217.281 0.66697 -1.42791 0
M  V30 2246 C 218.511 1.45294 -1.46878 0
M  V30 2247 C 218.919 1.89027 -0.0809861 0
M  V30 2248 O 218.262 1.59219 0.916246 0
M  V30 2249 C 218.324 2.72908 -2.34012 0
M  V30 2250 C 217.988 2.51203 -3.81767 0
M  V30 2251 C 218.985 2.15302 -4.73224 0
M  V30 2252 C 216.67 2.65954 -4.26115 0
M  V30 2253 C 218.664 1.94431 -6.07022 0
M  V30 2254 C 216.351 2.44699 -5.59969 0
M  V30 2255 C 217.349 2.08992 -6.5024 0
M  V30 2256 O 217.037 1.87948 -7.81621 0
M  V30 2257 H 216.769 0.453306 -0.501487 0
M  V30 2258 H 219.323 0.826232 -1.88049 0
M  V30 2259 H 217.553 3.38089 -1.87703 0
M  V30 2260 H 219.242 3.34816 -2.29462 0
M  V30 2261 H 220.008 2.03495 -4.40244 0
M  V30 2262 H 215.887 2.92724 -3.56137 0
M  V30 2263 H 219.431 1.66484 -6.77443 0
M  V30 2264 H 215.328 2.56105 -5.9252 0
M  V30 2265 H 216.096 2.02483 -7.93059 0
M  V30 2266 N 218.759 1.29093 0.90403 0
M  V30 2267 C 219.689 1.16401 2.02418 0
M  V30 2268 C 220.67 0.0593085 1.69997 0
M  V30 2269 O 221.855 0.238021 1.92736 0
M  V30 2270 C 218.985 0.835233 3.37107 0
M  V30 2271 C 217.939 1.89578 3.83724 0
M  V30 2272 C 217.265 1.42041 5.15489 0
M  V30 2273 C 218.565 3.30394 4.04521 0
M  V30 2274 H 220.259 2.10109 2.13295 0
M  V30 2275 H 217.805 1.01157 1.02486 0
M  V30 2276 H 219.758 0.733169 4.14973 0
M  V30 2277 H 218.482 -0.137543 3.2631 0
M  V30 2278 H 217.141 1.98715 3.08071 0
M  V30 2279 H 216.789 0.436426 5.01103 0
M  V30 2280 H 216.489 2.12964 5.4765 0
M  V30 2281 H 218.013 1.33176 5.959 0
M  V30 2282 H 219.427 3.24123 4.72882 0
M  V30 2283 H 217.824 3.99237 4.48029 0
M  V30 2284 H 218.894 3.73692 3.09002 0
M  V30 2285 N 220.237 -1.11381 1.11499 0
M  V30 2286 C 221.169 -2.17207 0.731704 0
M  V30 2287 C 222.182 -1.61066 -0.236957 0
M  V30 2288 O 223.371 -1.78489 -0.0197591 0
M  V30 2289 C 220.471 -3.38846 0.0607624 0
M  V30 2290 C 219.644 -4.24451 1.0564 0
M  V30 2291 C 218.703 -5.24562 0.4149 0
M  V30 2292 O 217.729 -5.59071 1.069 0
M  V30 2293 N 218.931 -5.74651 -0.821943 0
M  V30 2294 H 221.696 -2.50699 1.64225 0
M  V30 2295 H 219.257 -1.26908 1.00529 0
M  V30 2296 H 221.249 -4.02911 -0.380139 0
M  V30 2297 H 219.819 -3.03411 -0.752376 0
M  V30 2298 H 219.039 -3.56833 1.67524 0
M  V30 2299 H 220.327 -4.78486 1.72998 0
M  V30 2300 H 219.725 -5.48797 -1.37252 0
M  V30 2301 H 218.282 -6.40549 -1.20582 0
M  V30 2302 N 221.715 -0.905404 -1.28997 0
M  V30 2303 C 222.961 -0.535039 -1.95615 0
M  V30 2304 C 223.294 0.917404 -1.71165 0
M  V30 2305 O 222.569 1.65123 -1.02785 0
M  V30 2306 C 222.852 -0.834918 -3.50287 0
M  V30 2307 C 222.705 -2.33948 -3.84172 0
M  V30 2308 C 224.024 -0.325318 -4.38896 0
M  V30 2309 H 221.143 -0.195861 -0.710498 0
M  V30 2310 H 223.785 -1.13313 -1.52513 0
M  V30 2311 H 221.935 -0.325904 -3.87131 0
M  V30 2312 H 223.607 -2.91847 -3.57243 0
M  V30 2313 H 221.85 -2.79789 -3.31513 0
M  V30 2314 H 222.521 -2.49987 -4.92149 0
M  V30 2315 H 224.997 -0.761256 -4.09077 0
M  V30 2316 H 223.873 -0.564295 -5.45992 0
M  V30 2317 H 224.134 0.774144 -4.35269 0
M  V30 2318 N 223.193 1.4272 -0.668489 0
M  V30 2319 C 224.156 2.292 0.00448567 0
M  V30 2320 C 225.156 1.43001 0.735339 0
M  V30 2321 O 226.346 1.64461 0.57429 0
M  V30 2322 C 223.478 3.25375 1.01705 0
M  V30 2323 H 224.671 2.90199 -0.756608 0
M  V30 2324 H 222.224 1.50254 -0.430506 0
M  V30 2325 H 222.959 2.69301 1.80686 0
M  V30 2326 H 222.744 3.88944 0.496463 0
M  V30 2327 H 224.234 3.90245 1.48655 0
M  V30 2328 N 224.671 0.411399 1.52136 0
M  V30 2329 C 225.901 -0.16284 2.05957 0
M  V30 2330 C 226.309 -1.3922 1.28119 0
M  V30 2331 O 225.652 -1.80768 0.326881 0
M  V30 2332 C 225.714 -0.575946 3.54856 0
M  V30 2333 C 225.378 0.542998 4.53763 0
M  V30 2334 C 226.375 1.40726 5.00492 0
M  V30 2335 C 224.06 0.716337 4.97166 0
M  V30 2336 C 226.054 2.4298 5.8927 0
M  V30 2337 C 223.741 1.74218 5.8574 0
M  V30 2338 C 224.739 2.59731 6.31687 0
M  V30 2339 O 224.427 3.60558 7.18507 0
M  V30 2340 H 224.159 -0.0229125 0.675612 0
M  V30 2341 H 226.713 0.581634 1.96993 0
M  V30 2342 H 224.943 -1.37274 3.61515 0
M  V30 2343 H 226.632 -1.07836 3.91313 0
M  V30 2344 H 227.398 1.28476 4.67674 0
M  V30 2345 H 223.277 0.0603857 4.6096 0
M  V30 2346 H 226.821 3.0976 6.25055 0
M  V30 2347 H 222.718 1.86498 6.17971 0
M  V30 2348 H 223.486 3.56829 7.36624 0
M  V30 2349 N 226.149 -1.5696 0.141893 0
M  V30 2350 C 227.396 -1.9596 -0.510492 0
M  V30 2351 C 227.724 -1.02648 -1.65208 0
M  V30 2352 O 226.979 -0.0546947 -1.95624 0
M  V30 2353 C 227.278 -3.41242 -1.06249 0
M  V30 2354 C 226.944 -4.50882 -0.0398791 0
M  V30 2355 C 225.606 -4.80595 0.241247 0
M  V30 2356 C 227.958 -5.17058 0.65578 0
M  V30 2357 C 225.286 -5.73792 1.22393 0
M  V30 2358 C 227.638 -6.11313 1.62724 0
M  V30 2359 C 226.302 -6.39407 1.91612 0
M  V30 2360 H 225.572 -0.717068 -0.186802 0
M  V30 2361 H 228.219 -1.90142 0.227643 0
M  V30 2362 H 226.524 -3.43866 -1.87785 0
M  V30 2363 H 228.221 -3.68742 -1.57576 0
M  V30 2364 H 224.811 -4.27754 -0.269174 0
M  V30 2365 H 228.995 -4.94239 0.451779 0
M  V30 2366 H 224.251 -5.93853 1.45424 0
M  V30 2367 H 228.425 -6.61668 2.17183 0
M  V30 2368 H 226.052 -7.11427 2.6791 0
M  V30 2369 N 227.627 0.131896 -1.57047 0
M  V30 2370 C 228.574 1.16236 -1.99393 0
M  V30 2371 C 229.544 1.41863 -0.863943 0
M  V30 2372 O 230.729 1.53946 -1.12718 0
M  V30 2373 C 227.869 2.48708 -2.39245 0
M  V30 2374 C 226.982 2.30127 -3.65603 0
M  V30 2375 C 226.117 3.55738 -3.94492 0
M  V30 2376 C 225.156 3.32259 -5.14073 0
M  V30 2377 N 224.293 4.50039 -5.38896 0
M  V30 2378 H 229.133 0.794251 -2.87221 0
M  V30 2379 H 226.67 0.380707 -1.42088 0
M  V30 2380 H 228.628 3.25969 -2.60384 0
M  V30 2381 H 227.258 2.83437 -1.54478 0
M  V30 2382 H 226.31 1.43845 -3.52154 0
M  V30 2383 H 227.622 2.08746 -4.5302 0
M  V30 2384 H 226.776 4.41423 -4.1621 0
M  V30 2385 H 225.515 3.80138 -3.05526 0
M  V30 2386 H 224.52 2.44963 -4.92212 0
M  V30 2387 H 225.745 3.09242 -6.04604 0
M  V30 2388 H 223.691 4.74584 -4.52886 0
M  V30 2389 H 223.608 4.31716 -6.2061 0
M  V30 2390 H 224.876 5.36895 -5.65123 0
M  V30 2391 N 229.106 1.52395 0.401703 0
M  V30 2392 C 230.355 1.66044 1.14509 0
M  V30 2393 C 230.668 0.400216 1.91462 0
M  V30 2394 O 231.874 0.416632 2.68284 0
M  V30 2395 C 230.33 2.93388 2.0845 0
M  V30 2396 C 229.938 4.26545 1.36978 0
M  V30 2397 C 231.682 3.16402 2.83001 0
M  V30 2398 C 229.589 5.45007 2.29611 0
M  V30 2399 H 228.519 0.618562 0.431158 0
M  V30 2400 H 231.17 1.78886 0.40892 0
M  V30 2401 H 229.552 2.74263 2.8565 0
M  V30 2402 H 230.726 4.56179 0.650916 0
M  V30 2403 H 229.041 4.09692 0.74438 0
M  V30 2404 H 231.638 4.02085 3.52465 0
M  V30 2405 H 231.981 2.30943 3.46368 0
M  V30 2406 H 232.514 3.36034 2.12898 0
M  V30 2407 H 229.253 6.32835 1.70879 0
M  V30 2408 H 228.773 5.19702 2.9945 0
M  V30 2409 H 230.452 5.7838 2.89974 0
M  V30 2410 N 230.584 -0.659388 1.43143 0
M  V30 2411 C 231.532 -1.79374 1.4808 0
M  V30 2412 C 232.526 -1.65639 0.354988 0
M  V30 2413 O 233.732 -1.7206 0.528704 0
M  V30 2414 H 230.107 -0.591705 0.4641 0
M  V30 2415 H 232.078 -1.72329 2.43609 0
M  V30 2416 C 230.827 -3.17606 1.41499 0
M  V30 2417 H 230.15 -3.28809 2.27431 0
M  V30 2418 H 231.59 -3.96951 1.49015 0
M  V30 2419 C 230.049 -3.36642 0.131765 0
M  V30 2420 O 230.579 -3.93461 -0.809386 0
M  V30 2421 N 228.785 -2.90567 0.0439396 0
M  V30 2422 H 228.332 -2.44513 0.810619 0
M  V30 2423 H 228.29 -3.03681 -0.813969 0
M  V30 2424 N 232.062 -1.29571 -0.897171 0
M  V30 2425 C 233.009 -1.14916 -2.00158 0
M  V30 2426 C 233.979 -0.0418149 -1.66047 0
M  V30 2427 O 235.164 -0.209793 -1.89643 0
M  V30 2428 C 232.304 -0.834307 -3.34863 0
M  V30 2429 C 231.417 -2.02234 -3.8174 0
M  V30 2430 C 230.552 -1.64664 -5.05034 0
M  V30 2431 C 229.591 -2.80033 -5.44286 0
M  V30 2432 N 228.728 -2.42843 -6.58765 0
M  V30 2433 H 233.568 -2.09403 -2.12025 0
M  V30 2434 H 231.105 -1.042 -1.0383 0
M  V30 2435 H 233.063 -0.632436 -4.12379 0
M  V30 2436 H 231.693 0.0736656 -3.22716 0
M  V30 2437 H 230.745 -2.33583 -3.00238 0
M  V30 2438 H 232.057 -2.88673 -4.06779 0
M  V30 2439 H 231.211 -1.4078 -5.9014 0
M  V30 2440 H 229.95 -0.753766 -4.8184 0
M  V30 2441 H 228.955 -3.04596 -4.57713 0
M  V30 2442 H 230.18 -3.69989 -5.6946 0
M  V30 2443 H 228.126 -1.56046 -6.3717 0
M  V30 2444 H 228.043 -3.22815 -6.83613 0
M  V30 2445 H 229.311 -2.22285 -7.47134 0
M  V30 2446 N 233.54 1.10788 -1.12088 0
M  V30 2447 C 234.47 2.19083 -0.807755 0
M  V30 2448 C 235.451 1.6858 0.226859 0
M  V30 2449 O 236.636 1.93997 0.0888475 0
M  V30 2450 C 233.766 3.46344 -0.257576 0
M  V30 2451 C 232.72 4.101 -1.22483 0
M  V30 2452 C 232.046 5.32016 -0.535052 0
M  V30 2453 C 233.346 4.54236 -2.57811 0
M  V30 2454 H 235.04 2.45534 -1.71328 0
M  V30 2455 H 232.586 1.1801 -0.825205 0
M  V30 2456 H 234.539 4.21392 -0.0262679 0
M  V30 2457 H 233.263 3.19373 0.683278 0
M  V30 2458 H 231.922 3.37054 -1.44189 0
M  V30 2459 H 231.57 5.01319 0.410827 0
M  V30 2460 H 231.27 5.75625 -1.18024 0
M  V30 2461 H 232.794 6.09799 -0.312695 0
M  V30 2462 H 234.208 5.20575 -2.40155 0
M  V30 2463 H 232.605 5.08682 -3.18375 0
M  V30 2464 H 233.675 3.6734 -3.16528 0
M  V30 2465 N 235.018 0.912232 1.28515 0
M  V30 2466 C 235.928 0.404506 2.31086 0
M  V30 2467 C 236.944 -0.50707 1.66448 0
M  V30 2468 O 238.12 -0.393624 1.97516 0
M  V30 2469 C 235.185 -0.348572 3.44943 0
M  V30 2470 C 234.246 0.59604 4.25142 0
M  V30 2471 C 233.479 -0.121194 5.33562 0
M  V30 2472 O 233.702 -1.34317 5.5436 0
M  V30 2473 O 232.636 0.542716 5.99448 0
M  V30 2474 H 236.462 1.25579 2.76521 0
M  V30 2475 H 234.047 0.676998 1.33181 0
M  V30 2476 H 235.929 -0.77395 4.14232 0
M  V30 2477 H 234.604 -1.17571 3.01594 0
M  V30 2478 H 233.511 1.07079 3.58448 0
M  V30 2479 H 234.844 1.38995 4.72167 0
M  V30 2480 N 236.496 -1.42363 0.676048 0
M  V30 2481 C 237.443 -2.308 -0.00150904 0
M  V30 2482 C 238.413 -1.46032 -0.791444 0
M  V30 2483 O 239.598 -1.74861 -0.76344 0
M  V30 2484 C 236.738 -3.31883 -0.945919 0
M  V30 2485 C 235.851 -4.31741 -0.149675 0
M  V30 2486 C 234.986 -5.19898 -1.08995 0
M  V30 2487 C 234.025 -6.11434 -0.285465 0
M  V30 2488 N 233.162 -6.92138 -1.17851 0
M  V30 2489 H 238.002 -2.88187 0.758455 0
M  V30 2490 H 235.539 -1.41952 0.38576 0
M  V30 2491 H 237.497 -3.89019 -1.50731 0
M  V30 2492 H 236.127 -2.76093 -1.6725 0
M  V30 2493 H 235.179 -3.76713 0.528359 0
M  V30 2494 H 236.491 -4.96534 0.474866 0
M  V30 2495 H 235.645 -5.81772 -1.72123 0
M  V30 2496 H 234.384 -4.55284 -1.74837 0
M  V30 2497 H 233.389 -5.48627 0.359018 0
M  V30 2498 H 234.614 -6.78097 0.368883 0
M  V30 2499 H 232.56 -6.30152 -1.82332 0
M  V30 2500 H 232.477 -7.53542 -0.609082 0
M  V30 2501 H 233.745 -7.58499 -1.79722 0
M  V30 2502 N 237.974 -0.419461 -1.51915 0
M  V30 2503 C 238.937 0.389116 -2.25873 0
M  V30 2504 C 239.937 0.964924 -1.28631 0
M  V30 2505 O 241.127 0.842179 -1.52489 0
M  V30 2506 C 238.259 1.54874 -3.03689 0
M  V30 2507 H 239.452 -0.258799 -2.98781 0
M  V30 2508 H 237.005 -0.172209 -1.55348 0
M  V30 2509 H 237.74 2.23323 -2.35154 0
M  V30 2510 H 237.525 1.14223 -3.75094 0
M  V30 2511 H 239.015 2.12046 -3.59759 0
M  V30 2512 N 239.452 1.56882 -0.150215 0
M  V30 2513 C 240.698 1.96518 0.500834 0
M  V30 2514 C 241.031 1.03527 1.64304 0
M  V30 2515 O 240.306 0.0782751 1.94342 0
M  V30 2516 C 240.589 3.45822 1.00395 0
M  V30 2517 C 240.442 4.49591 -0.136983 0
M  V30 2518 C 241.761 3.97704 1.88467 0
M  V30 2519 H 238.88 0.714535 0.18058 0
M  V30 2520 H 241.522 1.88577 -0.232091 0
M  V30 2521 H 239.672 3.5272 1.62851 0
M  V30 2522 H 241.344 4.5477 -0.77343 0
M  V30 2523 H 239.587 4.26441 -0.795652 0
M  V30 2524 H 240.258 5.51402 0.256815 0
M  V30 2525 H 242.734 3.93304 1.35834 0
M  V30 2526 H 241.61 5.0263 2.20578 0
M  V30 2527 H 241.871 3.40252 2.82279 0
M  V30 2528 N 240.93 -0.123565 1.57115 0
M  V30 2529 C 241.893 -1.13583 1.99076 0
M  V30 2530 C 242.893 -1.34564 0.880296 0
M  V30 2531 O 244.083 -1.31158 1.14644 0
M  V30 2532 C 241.215 -2.49128 2.32698 0
M  V30 2533 H 242.408 -0.775287 2.89706 0
M  V30 2534 H 239.961 -0.36771 1.51913 0
M  V30 2535 H 240.696 -2.90111 1.44934 0
M  V30 2536 H 240.481 -2.35255 3.13684 0
M  V30 2537 H 241.971 -3.2199 2.65918 0
M  V30 2538 N 242.408 -1.52605 -0.393616 0
M  V30 2539 C 243.371 -1.76415 -1.46323 0
M  V30 2540 C 244.371 -0.634126 -1.47768 0
M  V30 2541 O 245.561 -0.902142 -1.4902 0
M  V30 2542 C 242.693 -1.8607 -2.85641 0
M  V30 2543 H 243.886 -2.71916 -1.26498 0
M  V30 2544 H 241.439 -1.43257 -0.625073 0
M  V30 2545 H 242.174 -0.925378 -3.10817 0
M  V30 2546 H 241.959 -2.68235 -2.85993 0
M  V30 2547 H 243.449 -2.06179 -3.63153 0
M  V30 2548 N 243.887 0.651787 -1.4349 0
M  V30 2549 C 244.85 1.74647 -1.48429 0
M  V30 2550 C 245.85 1.56513 -0.368817 0
M  V30 2551 O 247.04 1.62385 -0.630623 0
M  V30 2552 C 244.172 3.13533 -1.33827 0
M  V30 2553 H 245.365 1.71649 -2.4592 0
M  V30 2554 H 242.918 0.863573 -1.30277 0
M  V30 2555 H 243.653 3.22142 -0.37349 0
M  V30 2556 H 243.438 3.28101 -2.14691 0
M  V30 2557 H 244.928 3.93356 -1.40218 0
M  V30 2558 N 245.365 1.30045 0.890287 0
M  V30 2559 C 246.315 1.12592 1.9826 0
M  V30 2560 C 247.299 0.0426021 1.60844 0
M  V30 2561 O 248.491 0.265346 1.75 0
M  V30 2562 C 245.62 0.814301 3.33503 0
M  V30 2563 C 244.706 1.93761 3.7725 0
M  V30 2564 N 245.097 3.18232 3.93143 0
M  V30 2565 C 243.395 1.83277 4.06602 0
M  V30 2566 C 244.096 3.9158 4.30163 0
M  V30 2567 N 243.072 3.19591 4.3973 0
M  V30 2568 H 246.874 2.07003 2.08631 0
M  V30 2569 H 244.388 1.21307 1.07974 0
M  V30 2570 H 246.385 0.67029 4.11476 0
M  V30 2571 H 245.045 -0.121797 3.24471 0
M  V30 2572 H 246.056 3.53581 3.78419 0
M  V30 2573 H 242.733 0.97001 4.06075 0
M  V30 2574 H 244.123 4.98744 4.50226 0
M  V30 2575 N 246.843 -1.10192 1.12674 0
M  V30 2576 C 248.071 -1.85983 0.906527 0
M  V30 2577 C 248.486 -1.80783 -0.544333 0
M  V30 2578 O 247.843 -1.19834 -1.37645 0
M  V30 2579 C 247.894 -3.34281 1.37618 0
M  V30 2580 O 247.615 -3.39401 2.77017 0
M  V30 2581 C 249.116 -4.26938 1.19325 0
M  V30 2582 H 246.336 -0.587716 0.323775 0
M  V30 2583 H 248.88 -1.39284 1.49734 0
M  V30 2584 H 247.035 -3.78436 0.828539 0
M  V30 2585 H 247.449 -4.31838 2.97684 0
M  V30 2586 H 248.923 -5.29181 1.57071 0
M  V30 2587 H 249.4 -4.38995 0.134097 0
M  V30 2588 H 250.006 -3.8859 1.72852 0
M  V30 2589 N 248.321 -0.919034 -1.28029 0
M  V30 2590 C 249.568 -0.554934 -1.94748 0
M  V30 2591 C 249.896 0.90231 -1.72304 0
M  V30 2592 O 249.151 1.65767 -1.04018 0
M  V30 2593 C 249.45 -0.816855 -3.4794 0
M  V30 2594 C 249.116 -2.25448 -3.90492 0
M  V30 2595 C 247.778 -2.64752 -4.01821 0
M  V30 2596 C 250.13 -3.18977 -4.12193 0
M  V30 2597 C 247.458 -3.96727 -4.32232 0
M  V30 2598 C 249.81 -4.50523 -4.44086 0
M  V30 2599 C 248.474 -4.89673 -4.53626 0
M  V30 2600 H 247.744 -0.203065 -0.712633 0
M  V30 2601 H 250.391 -1.16136 -1.52265 0
M  V30 2602 H 248.696 -0.127677 -3.91592 0
M  V30 2603 H 250.393 -0.514238 -3.97689 0
M  V30 2604 H 246.983 -1.93952 -3.82205 0
M  V30 2605 H 251.167 -2.89817 -4.02889 0
M  V30 2606 H 246.423 -4.26754 -4.37825 0
M  V30 2607 H 250.597 -5.23005 -4.59825 0
M  V30 2608 H 248.224 -5.91969 -4.76946 0
M  V30 2609 N 249.799 1.42003 -0.683588 0
M  V30 2610 C 251.046 2.01413 -0.209514 0
M  V30 2611 C 251.374 1.54088 1.1869 0
M  V30 2612 O 250.629 0.737591 1.81268 0
M  V30 2613 C 250.928 3.56827 -0.202357 0
M  V30 2614 C 250.594 4.23617 -1.54464 0
M  V30 2615 C 249.256 4.41577 -1.91215 0
M  V30 2616 C 251.608 4.61178 -2.42826 0
M  V30 2617 C 248.936 4.9437 -3.15935 0
M  V30 2618 C 251.288 5.15355 -3.66867 0
M  V30 2619 C 249.952 5.31528 -4.03776 0
M  V30 2620 H 249.222 0.737023 -0.0766668 0
M  V30 2621 H 251.869 1.70067 -0.880312 0
M  V30 2622 H 250.174 3.87892 0.551969 0
M  V30 2623 H 251.871 4.00588 0.181793 0
M  V30 2624 H 248.461 4.10004 -1.24877 0
M  V30 2625 H 252.645 4.46968 -2.15717 0
M  V30 2626 H 247.901 5.05076 -3.44541 0
M  V30 2627 H 252.075 5.43402 -4.35531 0
M  V30 2628 H 249.702 5.72199 -5.00492 0
M  V30 2629 N 251.277 0.427512 1.51691 0
M  V30 2630 C 252.523 -0.142439 2.02299 0
M  V30 2631 C 252.856 -1.43214 1.31162 0
M  V30 2632 O 252.131 -1.89833 0.423511 0
M  V30 2633 C 252.414 -0.371301 3.58181 0
M  V30 2634 C 252.267 0.936358 4.39946 0
M  V30 2635 C 253.586 -1.14542 4.24933 0
M  V30 2636 H 250.705 -0.0502937 0.735282 0
M  V30 2637 H 253.347 0.564584 1.81418 0
M  V30 2638 H 251.497 -0.973559 3.76104 0
M  V30 2639 H 253.169 1.57184 4.33694 0
M  V30 2640 H 251.412 1.5432 4.05423 0
M  V30 2641 H 252.083 0.730388 5.47147 0
M  V30 2642 H 254.559 -0.635362 4.11221 0
M  V30 2643 H 253.435 -1.27431 5.33903 0
M  V30 2644 H 253.696 -2.17093 3.85127 0
M  V30 2645 N 252.755 -1.56801 0.158532 0
M  V30 2646 C 254.003 -1.96102 -0.488712 0
M  V30 2647 C 254.324 -1.04498 -1.64636 0
M  V30 2648 O 253.594 -0.108783 -1.95598 0
M  V30 2649 H 252.174 -0.724102 -0.183535 0
M  V30 2650 H 254.836 -1.93457 0.236728 0
M  V30 2651 H 253.932 -3.00097 -0.857219 0
M  V30 2652 N 254.233 0.115231 -1.57178 0
M  V30 2653 C 255.181 1.16014 -2.01602 0
M  V30 2654 C 256.175 1.42653 -0.913587 0
M  V30 2655 O 257.381 1.42571 -1.09879 0
M  V30 2656 H 253.756 0.391252 -0.642204 0
M  V30 2657 H 255.727 0.758998 -2.88586 0
M  V30 2658 C 254.476 2.47767 -2.4394 0
M  V30 2659 H 253.799 2.28108 -3.28339 0
M  V30 2660 H 255.239 3.19432 -2.78818 0
M  V30 2661 C 253.698 3.10617 -1.30455 0
M  V30 2662 O 254.228 3.96846 -0.622585 0
M  V30 2663 N 252.434 2.70553 -1.06064 0
M  V30 2664 H 251.981 2.00527 -1.61699 0
M  V30 2665 H 251.939 3.12934 -0.303284 0
M  V30 2666 N 255.711 1.52812 0.385517 0
M  V30 2667 C 257.122 1.5993 0.963293 0
M  V30 2668 C 257.473 0.454302 1.90868 0
M  V30 2669 O 256.598 -0.422132 2.12243 0
M  V30 2670 C 257.193 2.89871 1.75387 0
M  V30 2671 C 255.752 2.99389 2.28129 0
M  V30 2672 C 254.899 2.55071 1.08783 0
M  V30 2673 H 257.85 1.5784 0.164948 0
M  V30 2674 H 257.871 2.76553 2.61341 0
M  V30 2675 H 257.383 3.73186 1.06554 0
M  V30 2676 H 255.484 2.20619 3.00263 0
M  V30 2677 H 255.597 4.04096 2.57377 0
M  V30 2678 H 253.961 2.09473 1.4489 0
M  V30 2679 H 254.744 3.40785 0.414807 0
M  V30 2680 N 257.189 -0.644168 1.43834 0
M  V30 2681 C 258.099 -1.78563 1.52159 0
M  V30 2682 C 259.115 -1.69147 0.408069 0
M  V30 2683 O 260.291 -1.90156 0.663524 0
M  V30 2684 C 257.356 -3.14888 1.45073 0
M  V30 2685 C 256.417 -3.36034 2.6717 0
M  V30 2686 C 255.65 -4.65855 2.60413 0
M  V30 2687 O 255.873 -5.45805 1.65689 0
M  V30 2688 O 254.807 -4.88918 3.5106 0
M  V30 2689 H 258.633 -1.74494 2.48567 0
M  V30 2690 H 256.218 -0.80378 1.25935 0
M  V30 2691 H 258.1 -3.96179 1.43597 0
M  V30 2692 H 256.775 -3.19528 0.518037 0
M  V30 2693 H 255.682 -2.54472 2.74217 0
M  V30 2694 H 257.015 -3.36247 3.59442 0
M  V30 2695 N 258.668 -1.30515 -0.883378 0
M  V30 2696 C 259.618 -1.13641 -1.9766 0
M  V30 2697 C 260.602 -0.0511314 -1.60819 0
M  V30 2698 O 261.794 -0.274623 -1.74857 0
M  V30 2699 C 258.923 -0.831976 -3.33066 0
M  V30 2700 C 258.009 -1.95759 -3.76217 0
M  V30 2701 N 258.4 -3.20313 -3.9145 0
M  V30 2702 C 256.698 -1.85431 -4.05625 0
M  V30 2703 C 257.399 -3.93856 -4.2808 0
M  V30 2704 N 256.375 -3.21919 -4.38029 0
M  V30 2705 H 260.177 -2.08106 -2.07531 0
M  V30 2706 H 257.691 -1.21877 -1.0733 0
M  V30 2707 H 259.688 -0.692102 -4.11115 0
M  V30 2708 H 258.348 0.104588 -3.24532 0
M  V30 2709 H 259.359 -3.55583 -3.76538 0
M  V30 2710 H 256.036 -0.991531 -4.05555 0
M  V30 2711 H 257.426 -5.01125 -4.47575 0
M  V30 2712 N 260.146 1.09593 -1.13257 0
M  V30 2713 C 261.079 2.15451 -0.752061 0
M  V30 2714 C 262.057 1.60493 0.260913 0
M  V30 2715 O 263.241 1.8788 0.152819 0
M  V30 2716 C 260.368 3.38506 -0.114594 0
M  V30 2717 C 259.414 4.12183 -1.09579 0
M  V30 2718 S 260.247 4.6661 -2.62745 0
M  V30 2719 C 261.403 5.92966 -2.00354 0
M  V30 2720 H 261.636 2.47395 -1.64872 0
M  V30 2721 H 259.169 1.21515 -0.952545 0
M  V30 2722 H 261.127 4.09757 0.246808 0
M  V30 2723 H 259.788 3.04784 0.759309 0
M  V30 2724 H 258.981 5.00445 -0.597545 0
M  V30 2725 H 258.583 3.46785 -1.40057 0
M  V30 2726 H 260.875 6.63882 -1.35156 0
M  V30 2727 H 261.818 6.47467 -2.86691 0
M  V30 2728 H 262.226 5.45405 -1.4558 0
M  V30 2729 N 261.624 0.925811 1.2754 0
M  V30 2730 C 262.534 0.428993 2.30644 0
M  V30 2731 C 263.55 -0.489387 1.66976 0
M  V30 2732 O 264.726 -0.372653 1.97922 0
M  V30 2733 C 261.791 -0.311967 3.45294 0
M  V30 2734 C 260.852 0.641098 4.24486 0
M  V30 2735 C 260.085 -0.0645955 5.33661 0
M  V30 2736 O 260.308 -1.28429 5.55754 0
M  V30 2737 O 259.242 0.606265 5.98839 0
M  V30 2738 H 263.068 1.28504 2.75173 0
M  V30 2739 H 260.653 0.691086 1.32455 0
M  V30 2740 H 262.535 -0.729972 4.15029 0
M  V30 2741 H 261.21 -1.14365 3.02824 0
M  V30 2742 H 260.117 1.10874 3.57292 0
M  V30 2743 H 261.45 1.43995 4.70666 0
M  V30 2744 N 263.102 -1.41638 0.69111 0
M  V30 2745 C 264.035 -2.28183 -0.0274913 0
M  V30 2746 C 265.013 -1.41984 -0.792424 0
M  V30 2747 O 266.197 -1.71415 -0.784169 0
M  V30 2748 C 263.324 -3.22135 -1.04628 0
M  V30 2749 C 262.37 -4.24848 -0.375037 0
M  V30 2750 S 263.203 -5.28231 0.879321 0
M  V30 2751 C 264.359 -6.25748 -0.137983 0
M  V30 2752 H 264.592 -2.88782 0.706553 0
M  V30 2753 H 262.125 -1.46709 0.481222 0
M  V30 2754 H 264.083 -3.76797 -1.62894 0
M  V30 2755 H 262.744 -2.6064 -1.75287 0
M  V30 2756 H 261.937 -4.90837 -1.14433 0
M  V30 2757 H 261.539 -3.73758 0.134434 0
M  V30 2758 H 263.831 -6.70188 -0.992659 0
M  V30 2759 H 264.774 -7.06417 0.487867 0
M  V30 2760 H 265.182 -5.62363 -0.490762 0
M  V30 2761 N 264.58 -0.43555 -1.51462 0
M  V30 2762 C 265.512 0.41257 -2.25456 0
M  V30 2763 C 266.525 0.987822 -1.29406 0
M  V30 2764 O 267.714 0.882266 -1.55172 0
M  V30 2765 C 264.814 1.58894 -2.99342 0
M  V30 2766 C 263.987 1.13288 -4.22474 0
M  V30 2767 C 263.046 2.17917 -4.78956 0
M  V30 2768 O 262.072 1.77425 -5.40841 0
M  V30 2769 N 263.274 3.50382 -4.62832 0
M  V30 2770 H 266.039 -0.221603 -2.9888 0
M  V30 2771 H 263.6 -0.264342 -1.59727 0
M  V30 2772 H 265.592 2.28508 -3.34015 0
M  V30 2773 H 264.162 2.12849 -2.28941 0
M  V30 2774 H 263.382 0.263881 -3.93316 0
M  V30 2775 H 264.67 0.805542 -5.02383 0
M  V30 2776 H 264.068 3.86013 -4.13534 0
M  V30 2777 H 262.625 4.15895 -5.01871 0
M  V30 2778 N 266.058 1.56714 -0.166846 0
M  V30 2779 C 266.99 2.14914 0.796537 0
M  V30 2780 C 268.003 1.10357 1.19688 0
M  V30 2781 O 269.192 1.37561 1.13751 0
M  V30 2782 C 266.292 2.67326 2.08303 0
M  V30 2783 C 265.465 3.96493 1.84696 0
M  V30 2784 C 264.524 4.34014 2.97521 0
M  V30 2785 O 263.55 5.01973 2.6835 0
M  V30 2786 N 264.752 3.95208 4.25196 0
M  V30 2787 H 267.517 2.98205 0.299006 0
M  V30 2788 H 265.078 1.61892 0.0160839 0
M  V30 2789 H 267.07 2.89428 2.82867 0
M  V30 2790 H 265.64 1.88649 2.4926 0
M  V30 2791 H 264.86 3.82814 0.940602 0
M  V30 2792 H 266.148 4.8086 1.66285 0
M  V30 2793 H 265.546 3.40487 4.51758 0
M  V30 2794 H 264.103 4.2232 4.96477 0
M  V30 2795 N 267.536 -0.106894 1.57237 0
M  V30 2796 C 268.484 -1.14944 2.02215 0
M  V30 2797 C 269.478 -1.42167 0.92114 0
M  V30 2798 O 270.684 -1.41987 1.10634 0
M  V30 2799 H 267.059 -0.387841 0.64427 0
M  V30 2800 H 269.03 -0.743683 2.88984 0
M  V30 2801 C 267.779 -2.4647 2.4525 0
M  V30 2802 H 267.102 -2.26363 3.29545 0
M  V30 2803 H 268.542 -3.17948 2.80508 0
M  V30 2804 C 267.001 -3.09921 1.321 0
M  V30 2805 O 267.531 -3.9651 0.643622 0
M  V30 2806 N 265.737 -2.69986 1.07497 0
M  V30 2807 H 265.284 -1.99667 1.62761 0
M  V30 2808 H 265.242 -3.12769 0.319876 0
M  V30 2809 N 269.014 -1.53014 -0.377408 0
M  V30 2810 C 269.944 -1.81589 -1.46791 0
M  V30 2811 C 270.925 -0.668622 -1.56408 0
M  V30 2812 O 272.11 -0.917337 -1.71168 0
M  V30 2813 C 269.24 -1.99519 -2.8427 0
M  V30 2814 C 268.194 -3.15249 -2.89486 0
M  V30 2815 C 267.52 -3.18451 -4.29527 0
M  V30 2816 C 268.82 -4.54084 -2.58079 0
M  V30 2817 H 270.514 -2.7291 -1.23127 0
M  V30 2818 H 268.06 -1.31319 -0.590883 0
M  V30 2819 H 270.013 -2.18092 -3.60575 0
M  V30 2820 H 268.737 -1.04897 -3.09296 0
M  V30 2821 H 267.396 -2.96477 -2.15631 0
M  V30 2822 H 267.044 -2.2149 -4.5161 0
M  V30 2823 H 266.744 -3.962 -4.33934 0
M  V30 2824 H 268.268 -3.39193 -5.07721 0
M  V30 2825 H 269.682 -4.72899 -3.24098 0
M  V30 2826 H 268.079 -5.33987 -2.7382 0
M  V30 2827 H 269.149 -4.60006 -1.53372 0
M  V30 2828 N 270.492 0.636531 -1.44174 0
M  V30 2829 C 271.769 1.39463 -1.37148 0
M  V30 2830 C 272.149 2.11082 -0.027507 0
M  V30 2831 O 271.497 2.05954 0.989716 0
M  V30 2832 C 271.707 2.36552 -2.56601 0
M  V30 2833 C 273.055 3.00048 -3.00427 0
M  V30 2834 O 274.079 2.46878 -2.56767 0
M  V30 2835 O 272.938 3.96488 -3.76111 0
M  V30 2836 H 270.032 0.623903 -0.542839 0
M  V30 2837 H 272.578 0.662039 -1.56253 0
M  V30 2838 H 271.35 1.82692 -3.46034 0
M  V30 2839 H 270.973 3.17236 -2.39681 0
M  V30 2840 N 271.97 1.30982 0.876444 0
M  V30 2841 C 273.2 1.23063 1.65949 0
M  V30 2842 C 273.608 -0.207537 1.88058 0
M  V30 2843 O 272.951 -1.14781 1.43426 0
M  V30 2844 C 273.013 1.89768 3.05333 0
M  V30 2845 C 272.677 3.39106 3.0636 0
M  V30 2846 C 273.674 4.3496 2.84791 0
M  V30 2847 C 271.359 3.80693 3.27686 0
M  V30 2848 C 273.353 5.70375 2.84519 0
M  V30 2849 C 271.04 5.16223 3.27043 0
M  V30 2850 C 272.038 6.10875 3.05485 0
M  V30 2851 O 271.726 7.43928 3.04674 0
M  V30 2852 H 271.458 0.426685 0.524324 0
M  V30 2853 H 274.012 1.7329 1.10271 0
M  V30 2854 H 272.242 1.34082 3.6271 0
M  V30 2855 H 273.931 1.75853 3.65829 0
M  V30 2856 H 274.697 4.0416 2.68103 0
M  V30 2857 H 270.576 3.07457 3.43499 0
M  V30 2858 H 274.12 6.44228 2.67611 0
M  V30 2859 H 270.017 5.4666 3.43269 0
M  V30 2860 H 270.785 7.53022 3.2078 0
M  V30 2861 N 273.449 -1.08991 1.13837 0
M  V30 2862 C 274.679 -1.84743 0.924859 0
M  V30 2863 C 275.087 -1.81629 -0.529874 0
M  V30 2864 O 274.43 -1.21397 -1.37872 0
M  V30 2865 C 274.492 -3.33568 1.34061 0
M  V30 2866 C 274.156 -3.60425 2.80968 0
M  V30 2867 C 275.153 -3.55771 3.79108 0
M  V30 2868 C 272.838 -3.88627 3.18236 0
M  V30 2869 C 274.832 -3.78939 5.12527 0
M  V30 2870 C 272.519 -4.11449 4.51833 0
M  V30 2871 C 273.517 -4.06598 5.48787 0
M  V30 2872 O 273.205 -4.28826 6.79973 0
M  V30 2873 H 272.937 -0.590258 0.329502 0
M  V30 2874 H 275.491 -1.38598 1.51591 0
M  V30 2875 H 273.721 -3.80442 0.692853 0
M  V30 2876 H 275.41 -3.90743 1.09886 0
M  V30 2877 H 276.176 -3.34005 3.51661 0
M  V30 2878 H 272.055 -3.91526 2.43369 0
M  V30 2879 H 275.599 -3.75068 5.88192 0
M  V30 2880 H 271.496 -4.32698 4.79002 0
M  V30 2881 H 272.264 -4.46264 6.86142 0
M  V30 2882 N 274.927 -0.932562 -1.27047 0
M  V30 2883 C 275.859 -0.392734 -2.2581 0
M  V30 2884 C 276.872 0.479241 -1.55586 0
M  V30 2885 O 278.061 0.291078 -1.76111 0
M  V30 2886 C 275.161 0.455456 -3.35826 0
M  V30 2887 C 274.334 -0.398355 -4.35582 0
M  V30 2888 C 273.393 0.387985 -5.24768 0
M  V30 2889 O 272.419 -0.206003 -5.68827 0
M  V30 2890 N 273.621 1.68664 -5.55457 0
M  V30 2891 H 276.386 -1.24173 -2.72766 0
M  V30 2892 H 273.947 -0.800511 -1.40725 0
M  V30 2893 H 275.939 0.988692 -3.92437 0
M  V30 2894 H 274.509 1.20522 -2.88432 0
M  V30 2895 H 273.729 -1.11286 -3.78165 0
M  V30 2896 H 275.017 -0.981889 -4.99236 0
M  V30 2897 H 274.415 2.19147 -5.21528 0
M  V30 2898 H 272.972 2.1663 -6.14748 0
M  V30 2899 N 276.405 1.4127 -0.698611 0
M  V30 2900 C 277.633 2.05503 -0.239992 0
M  V30 2901 C 278.048 1.52584 1.11191 0
M  V30 2902 O 277.405 0.675323 1.69545 0
M  V30 2903 C 277.456 3.60987 -0.192429 0
M  V30 2904 O 277.177 4.1195 -1.49094 0
M  V30 2905 C 278.678 4.42371 0.28681 0
M  V30 2906 H 275.898 0.661748 -0.111045 0
M  V30 2907 H 278.442 1.80987 -0.95205 0
M  V30 2908 H 276.597 3.84533 0.470472 0
M  V30 2909 H 277.011 5.06018 -1.38007 0
M  V30 2910 H 278.485 5.51344 0.26896 0
M  V30 2911 H 278.962 4.18699 1.32619 0
M  V30 2912 H 279.568 4.23897 -0.345201 0
M  V30 2913 N 277.883 0.443576 1.51229 0
M  V30 2914 C 278.816 -0.410089 2.24485 0
M  V30 2915 C 279.794 -1.01949 1.26669 0
M  V30 2916 O 280.978 -1.06075 1.55821 0
M  V30 2917 C 278.105 -1.57211 3.00004 0
M  V30 2918 C 277.151 -1.08279 4.12526 0
M  V30 2919 S 277.984 -0.0197476 5.35496 0
M  V30 2920 C 279.14 -1.18629 6.14555 0
M  V30 2921 H 279.373 0.211832 2.96544 0
M  V30 2922 H 276.906 0.228156 1.52705 0
M  V30 2923 H 278.864 -2.23825 3.44111 0
M  V30 2924 H 277.525 -2.16547 2.27522 0
M  V30 2925 H 276.718 -1.95193 4.64667 0
M  V30 2926 H 276.32 -0.494797 3.70713 0
M  V30 2927 H 278.612 -2.10344 6.4402 0
M  V30 2928 H 279.555 -0.70472 7.04584 0
M  V30 2929 H 279.963 -1.42768 5.46148 0
M  V30 2930 N 279.361 -1.56624 0.175154 0
M  V30 2931 C 280.586 -2.01813 -0.478137 0
M  V30 2932 C 281.011 -1.05457 -1.55757 0
M  V30 2933 O 280.369 -0.0347439 -1.81267 0
M  V30 2934 C 280.417 -3.45581 -1.02987 0
M  V30 2935 O 279.521 -3.52305 -2.14371 0
M  V30 2936 H 278.862 -0.65413 -0.114059 0
M  V30 2937 H 281.392 -2.02673 0.280173 0
M  V30 2938 H 281.402 -3.84965 -1.35151 0
M  V30 2939 H 280.077 -4.1521 -0.239556 0
M  V30 2940 H 278.654 -3.24783 -1.83222 0
M  V30 2941 N 280.839 0.0985539 -1.57292 0
M  V30 2942 C 282.087 0.801092 -1.85545 0
M  V30 2943 C 282.408 1.79438 -0.763353 0
M  V30 2944 O 281.678 1.94763 0.21073 0
M  V30 2945 H 280.258 0.29884 -0.684619 0
M  V30 2946 H 282.92 0.0810064 -1.94732 0
M  V30 2947 H 282.016 1.3338 -2.82163 0
M  V30 2948 N 282.317 1.53212 0.369288 0
M  V30 2949 C 283.563 1.69466 1.11397 0
M  V30 2950 C 283.896 0.443257 1.89074 0
M  V30 2951 O 283.171 -0.559386 1.86282 0
M  V30 2952 C 283.454 2.9422 2.07621 0
M  V30 2953 C 283.307 4.29508 1.33577 0
M  V30 2954 C 284.626 3.14565 3.07794 0
M  V30 2955 H 281.745 0.616667 0.403597 0
M  V30 2956 H 284.387 1.85845 0.395179 0
M  V30 2957 H 282.537 2.80387 2.68916 0
M  V30 2958 H 284.209 4.55147 0.750955 0
M  V30 2959 H 282.452 4.29088 0.637618 0
M  V30 2960 H 283.123 5.12926 2.03989 0
M  V30 2961 H 285.599 3.2756 2.56601 0
M  V30 2962 H 284.475 4.03297 3.72348 0
M  V30 2963 H 284.736 2.29675 3.77759 0
M  V30 2964 N 283.795 -0.628877 1.44509 0
M  V30 2965 C 284.742 -1.74074 1.51549 0
M  V30 2966 C 285.712 -1.62084 0.363021 0
M  V30 2967 O 286.897 -1.81975 0.573567 0
M  V30 2968 C 284.037 -3.12328 1.46784 0
M  V30 2969 C 283.15 -3.35277 2.72422 0
M  V30 2970 C 282.285 -4.63515 2.59475 0
M  V30 2971 C 281.324 -4.7965 3.80266 0
M  V30 2972 N 280.461 -5.99168 3.65981 0
M  V30 2973 H 285.301 -1.67392 2.46544 0
M  V30 2974 H 282.838 -0.816527 1.22357 0
M  V30 2975 H 284.796 -3.92286 1.42012 0
M  V30 2976 H 283.426 -3.18018 0.553544 0
M  V30 2977 H 282.478 -2.49242 2.87372 0
M  V30 2978 H 283.79 -3.43078 3.62076 0
M  V30 2979 H 282.944 -5.51638 2.52548 0
M  V30 2980 H 281.683 -4.58076 1.67384 0
M  V30 2981 H 280.688 -3.89957 3.87574 0
M  V30 2982 H 281.913 -4.86902 4.73395 0
M  V30 2983 H 279.859 -5.94814 2.76644 0
M  V30 2984 H 279.776 -6.08035 4.49254 0
M  V30 2985 H 281.044 -6.89846 3.6295 0
M  V30 2986 N 285.273 -1.31445 -0.869486 0
M  V30 2987 C 286.183 -1.21097 -2.0093 0
M  V30 2988 C 287.199 -0.127584 -1.73532 0
M  V30 2989 O 288.375 -0.345477 -1.98415 0
M  V30 2990 C 285.44 -0.919378 -3.34288 0
M  V30 2991 C 284.501 -2.08971 -3.75006 0
M  V30 2992 C 283.734 -1.81194 -5.02001 0
M  V30 2993 O 283.957 -0.747296 -5.65484 0
M  V30 2994 O 282.891 -2.66883 -5.39497 0
M  V30 2995 H 286.717 -2.16883 -2.12592 0
M  V30 2996 H 284.302 -1.11189 -0.997868 0
M  V30 2997 H 286.184 -0.772625 -4.14257 0
M  V30 2998 H 284.859 0.00844772 -3.23699 0
M  V30 2999 H 283.766 -2.29187 -2.95676 0
M  V30 3000 H 285.099 -2.9998 -3.90221 0
M  V30 3001 N 286.751 1.08385 -1.14413 0
M  V30 3002 C 287.714 2.13486 -0.834048 0
M  V30 3003 C 288.714 1.59988 0.161418 0
M  V30 3004 O 289.904 1.74071 -0.0669575 0
M  V30 3005 C 287.036 3.4003 -0.243354 0
M  V30 3006 H 288.229 2.42425 -1.7655 0
M  V30 3007 H 285.782 1.24101 -0.950189 0
M  V30 3008 H 286.517 3.16726 0.696807 0
M  V30 3009 H 286.302 3.80157 -0.960367 0
M  V30 3010 H 287.792 4.17577 -0.0436242 0
M  V30 3011 N 288.23 0.939286 1.26551 0
M  V30 3012 C 289.507 0.5038 1.89001 0
M  V30 3013 C 289.887 -1.01854 1.84903 0
M  V30 3014 O 289.235 -1.87773 1.30206 0
M  V30 3015 C 289.445 1.063 3.32417 0
M  V30 3016 C 290.793 1.13051 4.09273 0
M  V30 3017 O 291.817 1.01345 3.41479 0
M  V30 3018 O 290.676 1.31233 5.30509 0
M  V30 3019 H 287.77 0.163897 0.810597 0
M  V30 3020 H 290.316 1.03173 1.34735 0
M  V30 3021 H 289.088 2.10665 3.29752 0
M  V30 3022 H 288.711 0.517408 3.94219 0
M  V30 3023 N 289.708 -1.40897 0.706093 0
M  V30 3024 C 290.955 -2.01054 0.241531 0
M  V30 3025 C 291.283 -1.55956 -1.16223 0
M  V30 3026 O 290.538 -0.766336 -1.80072 0
M  V30 3027 C 290.837 -3.5646 0.259099 0
M  V30 3028 C 290.503 -4.21106 1.61184 0
M  V30 3029 C 289.165 -4.38479 1.98216 0
M  V30 3030 C 291.517 -4.57256 2.50132 0
M  V30 3031 C 288.845 -4.89282 3.2376 0
M  V30 3032 C 291.197 -5.09454 3.7502 0
M  V30 3033 C 289.861 -5.25037 4.12181 0
M  V30 3034 H 289.131 -0.73571 0.0883825 0
M  V30 3035 H 291.778 -1.68645 0.907257 0
M  V30 3036 H 290.083 -3.88721 -0.490189 0
M  V30 3037 H 291.78 -4.00826 -0.11804 0
M  V30 3038 H 288.37 -4.07966 1.31384 0
M  V30 3039 H 292.554 -4.43479 2.228 0
M  V30 3040 H 287.81 -4.99531 3.52532 0
M  V30 3041 H 291.984 -5.36404 4.44121 0
M  V30 3042 H 289.611 -5.64164 5.09532 0
M  V30 3043 N 291.186 -0.45159 -1.50991 0
M  V30 3044 C 292.133 0.352625 -2.2809 0
M  V30 3045 C 293.103 1.0044 -1.32291 0
M  V30 3046 O 294.288 1.02058 -1.6121 0
M  V30 3047 C 291.428 1.43983 -3.13629 0
M  V30 3048 C 290.541 0.804772 -4.24438 0
M  V30 3049 C 289.676 1.86822 -4.97263 0
M  V30 3050 C 288.715 1.21236 -5.99973 0
M  V30 3051 N 287.852 2.2178 -6.66152 0
M  V30 3052 H 292.692 -0.311186 -2.96371 0
M  V30 3053 H 290.229 -0.165308 -1.46168 0
M  V30 3054 H 292.187 2.08161 -3.61559 0
M  V30 3055 H 290.817 2.07307 -2.47434 0
M  V30 3056 H 289.869 0.0509129 -3.80366 0
M  V30 3057 H 291.181 0.286076 -4.97979 0
M  V30 3058 H 290.335 2.58628 -5.48813 0
M  V30 3059 H 289.074 2.42068 -4.23385 0
M  V30 3060 H 288.079 0.479828 -5.47702 0
M  V30 3061 H 289.304 0.667051 -6.75816 0
M  V30 3062 H 287.25 2.76079 -5.95077 0
M  V30 3063 H 287.167 1.74841 -7.35504 0
M  V30 3064 H 288.435 2.93026 -7.22327 0
M  V30 3065 N 292.664 1.56529 -0.183458 0
M  V30 3066 C 293.941 1.88959 0.50536 0
M  V30 3067 C 294.321 1.09523 1.80466 0
M  V30 3068 O 293.669 0.19278 2.27685 0
M  V30 3069 C 293.879 3.41162 0.73547 0
M  V30 3070 C 295.227 4.11155 1.06005 0
M  V30 3071 O 296.251 3.46548 0.823594 0
M  V30 3072 O 295.11 5.25318 1.50675 0
M  V30 3073 H 292.204 0.78441 0.261973 0
M  V30 3074 H 294.75 1.68231 -0.222802 0
M  V30 3075 H 293.522 3.90874 -0.182561 0
M  V30 3076 H 293.145 3.67543 1.51651 0
M  V30 3077 N 294.142 -0.090211 1.57342 0
M  V30 3078 C 295.072 -1.10976 2.05443 0
M  V30 3079 C 296.053 -1.41482 0.944284 0
M  V30 3080 O 297.238 -1.51428 1.21586 0
M  V30 3081 C 294.368 -2.42831 2.48295 0
M  V30 3082 C 293.322 -2.26721 3.63018 0
M  V30 3083 C 292.648 -3.63796 3.91863 0
M  V30 3084 C 293.948 -1.7037 4.93732 0
M  V30 3085 H 295.642 -0.709564 2.9087 0
M  V30 3086 H 293.188 -0.339874 1.39932 0
M  V30 3087 H 295.141 -3.14431 2.80555 0
M  V30 3088 H 293.865 -2.84795 1.59873 0
M  V30 3089 H 292.524 -1.57565 3.31012 0
M  V30 3090 H 292.172 -4.03297 3.00601 0
M  V30 3091 H 291.872 -3.53861 4.69101 0
M  V30 3092 H 293.396 -4.36855 4.26603 0
M  V30 3093 H 294.81 -2.31816 5.24342 0
M  V30 3094 H 293.207 -1.71181 5.75167 0
M  V30 3095 H 294.277 -0.663542 4.80339 0
M  V30 3096 N 295.62 -1.53406 -0.361157 0
M  V30 3097 C 296.53 -1.83122 -1.4664 0
M  V30 3098 C 297.546 -0.719943 -1.58407 0
M  V30 3099 O 298.722 -1.01046 -1.74218 0
M  V30 3100 C 295.787 -2.01891 -2.81853 0
M  V30 3101 C 294.848 -3.25784 -2.79577 0
M  V30 3102 C 294.081 -3.43648 -4.0834 0
M  V30 3103 O 294.304 -2.65714 -5.0473 0
M  V30 3104 O 293.238 -4.37018 -4.13883 0
M  V30 3105 H 297.064 -2.7703 -1.24451 0
M  V30 3106 H 294.649 -1.38841 -0.551678 0
M  V30 3107 H 296.531 -2.15782 -3.61962 0
M  V30 3108 H 295.206 -1.11173 -3.0401 0
M  V30 3109 H 294.113 -3.17312 -1.98151 0
M  V30 3110 H 295.446 -4.16439 -2.62373 0
M  V30 3111 N 297.098 0.621204 -1.44841 0
M  V30 3112 C 298.326 1.40752 -1.51646 0
M  V30 3113 C 298.741 1.88246 -0.144549 0
M  V30 3114 O 298.098 1.61422 0.851416 0
M  V30 3115 C 298.149 2.62119 -2.4895 0
M  V30 3116 O 297.87 2.16602 -3.80808 0
M  V30 3117 C 299.371 3.55135 -2.65319 0
M  V30 3118 H 296.591 0.431325 -0.514004 0
M  V30 3119 H 299.135 0.758835 -1.899 0
M  V30 3120 H 297.29 3.23058 -2.13805 0
M  V30 3121 H 297.704 2.95358 -4.33433 0
M  V30 3122 H 299.178 4.36874 -3.37409 0
M  V30 3123 H 299.655 4.04592 -1.70886 0
M  V30 3124 H 300.261 3.00058 -3.01405 0
M  V30 3125 N 298.576 1.31904 0.862503 0
M  V30 3126 C 299.508 1.16005 1.97675 0
M  V30 3127 C 300.521 0.0971234 1.6251 0
M  V30 3128 O 301.71 0.345337 1.75128 0
M  V30 3129 C 298.81 0.751791 3.30456 0
M  V30 3130 C 297.983 1.90133 3.93914 0
M  V30 3131 C 297.042 1.4779 5.05019 0
M  V30 3132 O 296.068 2.18872 5.25437 0
M  V30 3133 N 297.27 0.369491 5.79323 0
M  V30 3134 H 300.035 2.11982 2.11857 0
M  V30 3135 H 297.596 1.24337 1.03691 0
M  V30 3136 H 299.588 0.451084 4.02178 0
M  V30 3137 H 298.158 -0.116593 3.12382 0
M  V30 3138 H 297.378 2.36896 3.15078 0
M  V30 3139 H 298.666 2.67111 4.33047 0
M  V30 3140 H 298.064 -0.222299 5.65263 0
M  V30 3141 H 296.621 0.128354 6.51674 0
M  V30 3142 N 300.054 -1.07777 1.14986 0
M  V30 3143 C 301.465 -1.61766 0.932127 0
M  V30 3144 C 301.816 -1.88974 -0.527581 0
M  V30 3145 O 300.941 -1.65198 -1.39781 0
M  V30 3146 C 301.536 -2.93891 1.68563 0
M  V30 3147 C 300.095 -3.44639 1.5133 0
M  V30 3148 C 299.242 -2.18767 1.704 0
M  V30 3149 H 302.193 -0.909201 1.30074 0
M  V30 3150 H 302.214 -3.62623 1.15259 0
M  V30 3151 H 301.726 -2.74057 2.74799 0
M  V30 3152 H 299.827 -3.69564 0.474702 0
M  V30 3153 H 299.94 -4.20966 2.28746 0
M  V30 3154 H 298.304 -2.28253 1.13016 0
M  V30 3155 H 299.087 -2.01433 2.77992 0
M  V30 3156 N 301.532 -0.945985 -1.26051 0
M  V30 3157 C 302.482 -0.430164 -2.23905 0
M  V30 3158 C 303.466 0.47579 -1.53704 0
M  V30 3159 O 304.658 0.310252 -1.7426 0
M  V30 3160 C 301.787 0.298957 -3.41996 0
M  V30 3161 C 300.873 -0.624566 -4.19476 0
M  V30 3162 N 301.264 -1.75245 -4.74471 0
M  V30 3163 C 299.562 -0.431082 -4.43912 0
M  V30 3164 C 300.263 -2.32834 -5.3307 0
M  V30 3165 N 299.239 -1.61583 -5.1903 0
M  V30 3166 H 303.041 -1.29107 -2.64024 0
M  V30 3167 H 300.555 -0.802428 -1.41191 0
M  V30 3168 H 302.552 0.685565 -4.11225 0
M  V30 3169 H 301.212 1.15657 -3.03403 0
M  V30 3170 H 302.223 -2.13449 -4.71868 0
M  V30 3171 H 298.9 0.384364 -4.15727 0
M  V30 3172 H 300.29 -3.27893 -5.86461 0
M  V30 3173 N 303.011 1.40521 -0.713556 0
M  V30 3174 C 303.944 2.28198 -0.00881422 0
M  V30 3175 C 304.922 1.43227 0.769735 0
M  V30 3176 O 306.106 1.72641 0.756799 0
M  V30 3177 C 303.233 3.23758 0.994899 0
M  V30 3178 C 302.279 4.25391 0.3074 0
M  V30 3179 S 303.112 5.26765 -0.963247 0
M  V30 3180 C 304.268 6.25888 0.0384143 0
M  V30 3181 H 304.501 2.87622 -0.752407 0
M  V30 3182 H 302.034 1.45925 -0.504502 0
M  V30 3183 H 303.992 3.79341 1.56879 0
M  V30 3184 H 302.653 2.63396 1.71118 0
M  V30 3185 H 301.846 4.92596 1.0661 0
M  V30 3186 H 301.448 3.73497 -0.193879 0
M  V30 3187 H 303.74 6.71683 0.885912 0
M  V30 3188 H 304.683 7.05552 -0.60019 0
M  V30 3189 H 305.091 5.63072 0.401233 0
M  V30 3190 N 304.489 0.459591 1.5075 0
M  V30 3191 C 305.421 -0.37665 2.26084 0
M  V30 3192 C 306.434 -0.967109 1.30961 0
M  V30 3193 O 307.623 -0.857468 1.56556 0
M  V30 3194 C 304.723 -1.54112 3.01832 0
M  V30 3195 C 303.896 -1.06553 4.24223 0
M  V30 3196 C 302.955 -2.1027 4.82362 0
M  V30 3197 O 301.981 -1.68798 5.43595 0
M  V30 3198 N 303.183 -3.42974 4.68347 0
M  V30 3199 H 305.948 0.269124 2.98489 0
M  V30 3200 H 303.509 0.28972 1.59287 0
M  V30 3201 H 305.501 -2.23165 3.37608 0
M  V30 3202 H 304.071 -2.0918 2.32298 0
M  V30 3203 H 303.291 -0.201274 3.93686 0
M  V30 3204 H 304.579 -0.725516 5.03601 0
M  V30 3205 H 303.977 -3.79385 4.19623 0
M  V30 3206 H 302.534 -4.07858 5.08424 0
M  V30 3207 N 305.967 -1.56429 0.191757 0
M  V30 3208 C 306.877 -2.22541 -0.742481 0
M  V30 3209 C 307.893 -1.22342 -1.23727 0
M  V30 3210 O 309.069 -1.55069 -1.28513 0
M  V30 3211 C 306.134 -2.8692 -1.94623 0
M  V30 3212 C 305.195 -4.02378 -1.49633 0
M  V30 3213 C 304.428 -4.63678 -2.6427 0
M  V30 3214 O 304.651 -4.23895 -3.81666 0
M  V30 3215 O 303.585 -5.53202 -2.37174 0
M  V30 3216 H 307.411 -3.02977 -0.209462 0
M  V30 3217 H 304.996 -1.49353 -0.0373832 0
M  V30 3218 H 306.878 -3.27663 -2.64982 0
M  V30 3219 H 305.553 -2.09466 -2.46791 0
M  V30 3220 H 304.46 -3.66265 -0.761636 0
M  V30 3221 H 305.793 -4.81487 -1.02134 0
M  V30 3222 N 307.445 0.0818655 -1.57387 0
M  V30 3223 C 308.692 0.782914 -1.86753 0
M  V30 3224 C 309.02 1.78082 -0.782118 0
M  V30 3225 O 308.275 1.94426 0.22295 0
M  V30 3226 C 308.574 1.53513 -3.22752 0
M  V30 3227 C 308.24 0.678134 -4.45771 0
M  V30 3228 C 306.902 0.441929 -4.79166 0
M  V30 3229 C 309.254 0.0832243 -5.21134 0
M  V30 3230 C 306.582 -0.398833 -5.85343 0
M  V30 3231 C 308.934 -0.744935 -6.28199 0
M  V30 3232 C 307.598 -0.991107 -6.60101 0
M  V30 3233 H 306.868 0.286489 -0.683378 0
M  V30 3234 H 309.515 0.0439808 -1.91449 0
M  V30 3235 H 307.82 2.34599 -3.138 0
M  V30 3236 H 309.517 2.08218 -3.42705 0
M  V30 3237 H 306.107 0.872357 -4.19628 0
M  V30 3238 H 310.291 0.252847 -4.95655 0
M  V30 3239 H 305.547 -0.598405 -6.08465 0
M  V30 3240 H 309.721 -1.21271 -6.8576 0
M  V30 3241 H 307.348 -1.64437 -7.42202 0
M  V30 3242 N 308.923 1.53595 0.353017 0
M  V30 3243 C 310.339 1.43648 0.695516 0
M  V30 3244 C 310.539 0.585617 1.92802 0
M  V30 3245 O 309.595 0.0729223 2.52395 0
M  V30 3246 C 310.908 2.8701 0.896991 0
M  V30 3247 C 312.456 2.96723 0.996209 0
M  V30 3248 C 312.931 4.41173 1.23007 0
M  V30 3249 N 314.422 4.44657 1.29749 0
M  V30 3250 C 315.157 5.53547 1.49577 0
M  V30 3251 N 314.653 6.72461 1.66639 0
M  V30 3252 N 316.446 5.41145 1.52048 0
M  V30 3253 H 308.597 2.07415 -0.457481 0
M  V30 3254 H 310.86 0.9372 -0.142687 0
M  V30 3255 H 310.566 3.51644 0.0629938 0
M  V30 3256 H 310.44 3.31401 1.80148 0
M  V30 3257 H 312.827 2.32235 1.82074 0
M  V30 3258 H 312.908 2.55707 0.0688331 0
M  V30 3259 H 312.552 5.06238 0.410505 0
M  V30 3260 H 312.482 4.79772 2.17086 0
M  V30 3261 H 314.973 3.58963 1.18126 0
M  V30 3262 H 315.286 7.51214 1.81378 0
M  V30 3263 H 313.631 6.75423 1.63794 0
M  V30 3264 H 316.822 4.47205 1.38294 0
M  V30 3265 H 316.995 6.26068 1.67159 0
M  V30 3266 N 310.401 -0.613514 1.45168 0
M  V30 3267 C 311.331 -1.7354 1.56225 0
M  V30 3268 C 312.312 -1.64981 0.41414 0
M  V30 3269 O 313.497 -1.83472 0.636526 0
M  V30 3270 C 310.627 -3.12128 1.52295 0
M  V30 3271 C 309.581 -3.35491 2.65762 0
M  V30 3272 C 308.907 -4.74291 2.46885 0
M  V30 3273 C 310.207 -3.26325 4.0781 0
M  V30 3274 H 311.901 -1.64543 2.50132 0
M  V30 3275 H 309.447 -0.790185 1.20383 0
M  V30 3276 H 311.4 -3.90404 1.58628 0
M  V30 3277 H 310.124 -3.2195 0.549139 0
M  V30 3278 H 308.783 -2.59603 2.58847 0
M  V30 3279 H 308.431 -4.80839 1.47657 0
M  V30 3280 H 308.131 -4.9088 3.22972 0
M  V30 3281 H 309.655 -5.54775 2.55063 0
M  V30 3282 H 311.069 -3.94483 4.16 0
M  V30 3283 H 309.466 -3.54445 4.8424 0
M  V30 3284 H 310.536 -2.23855 4.30136 0
M  V30 3285 N 311.879 -1.3236 -0.855495 0
M  V30 3286 C 313.127 -1.22629 -1.60644 0
M  V30 3287 C 313.448 0.212136 -1.93843 0
M  V30 3288 O 312.718 1.13666 -1.59552 0
M  V30 3289 H 311.298 -0.450882 -0.595579 0
M  V30 3290 H 313.96 -1.65871 -1.02337 0
M  V30 3291 H 313.056 -1.80832 -2.54374 0
M  V30 3292 N 313.357 1.07166 -1.15556 0
M  V30 3293 C 314.603 1.80065 -0.932984 0
M  V30 3294 C 314.936 1.86586 0.53845 0
M  V30 3295 O 314.211 1.35098 1.39924 0
M  V30 3296 C 314.494 3.25022 -1.55025 0
M  V30 3297 C 314.347 3.26634 -3.09242 0
M  V30 3298 C 315.666 4.22341 -1.2376 0
M  V30 3299 H 312.785 0.653697 -0.340366 0
M  V30 3300 H 315.427 1.25389 -1.4275 0
M  V30 3301 H 313.577 3.71712 -1.12972 0
M  V30 3302 H 315.249 2.88173 -3.60214 0
M  V30 3303 H 313.492 2.65539 -3.43033 0
M  V30 3304 H 314.163 4.28854 -3.47546 0
M  V30 3305 H 316.639 3.8405 -1.60139 0
M  V30 3306 H 315.515 5.22053 -1.69564 0
M  V30 3307 H 315.776 4.41828 -0.154938 0
M  V30 3308 N 314.835 0.952656 1.25548 0
M  V30 3309 C 316.251 0.656769 1.4546 0
M  V30 3310 C 316.451 -0.78633 1.85524 0
M  V30 3311 O 315.507 -1.56183 1.98402 0
M  V30 3312 C 316.82 1.62801 2.52817 0
M  V30 3313 C 318.368 1.63897 2.66659 0
M  V30 3314 C 318.843 2.5978 3.77198 0
M  V30 3315 N 320.334 2.58133 3.84606 0
M  V30 3316 C 321.069 3.29003 4.69621 0
M  V30 3317 N 320.565 4.09339 5.58939 0
M  V30 3318 N 322.358 3.179 4.63569 0
M  V30 3319 H 314.509 1.88526 0.978344 0
M  V30 3320 H 316.772 0.810815 0.491206 0
M  V30 3321 H 316.478 2.65869 2.30232 0
M  V30 3322 H 316.352 1.38898 3.50695 0
M  V30 3323 H 318.739 0.615481 2.8861 0
M  V30 3324 H 318.82 1.91858 1.69187 0
M  V30 3325 H 318.464 3.62254 3.55997 0
M  V30 3326 H 318.394 2.29105 4.7415 0
M  V30 3327 H 320.885 1.99809 3.20757 0
M  V30 3328 H 321.198 4.6034 6.20731 0
M  V30 3329 H 319.543 4.13438 5.58654 0
M  V30 3330 H 322.734 2.54612 3.92798 0
M  V30 3331 H 322.907 3.73398 5.29602 0
M  V30 3332 N 316.313 -1.40141 0.720998 0
M  V30 3333 C 317.243 -2.33339 0.0867621 0
M  V30 3334 C 318.224 -1.53178 -0.739622 0
M  V30 3335 O 319.409 -1.81625 -0.687449 0
M  V30 3336 C 316.539 -3.37194 -0.831728 0
M  V30 3337 C 315.493 -4.27857 -0.110558 0
M  V30 3338 C 314.819 -5.22294 -1.14513 0
M  V30 3339 C 316.119 -5.11872 1.0385 0
M  V30 3340 H 317.813 -2.86626 0.865219 0
M  V30 3341 H 315.359 -1.37814 0.417516 0
M  V30 3342 H 317.312 -4.01335 -1.28485 0
M  V30 3343 H 316.036 -2.82314 -1.64214 0
M  V30 3344 H 314.695 -3.65176 0.322797 0
M  V30 3345 H 314.343 -4.63717 -1.94874 0
M  V30 3346 H 314.043 -5.83797 -0.667446 0
M  V30 3347 H 315.567 -5.89312 -1.59824 0
M  V30 3348 H 316.981 -5.69436 0.664482 0
M  V30 3349 H 315.378 -5.82445 1.4449 0
M  V30 3350 H 316.448 -4.4753 1.86668 0
M  V30 3351 N 317.792 -0.46758 -1.50504 0
M  V30 3352 C 319.022 0.086288 -2.0642 0
M  V30 3353 C 319.43 1.34369 -1.33197 0
M  V30 3354 O 318.773 1.79431 -0.393747 0
M  V30 3355 C 318.835 0.443846 -3.5675 0
M  V30 3356 C 318.499 -0.711035 -4.51435 0
M  V30 3357 C 319.496 -1.59205 -4.94924 0
M  V30 3358 C 317.181 -0.900363 -4.94165 0
M  V30 3359 C 319.175 -2.64683 -5.79846 0
M  V30 3360 C 316.862 -1.95837 -5.7887 0
M  V30 3361 C 317.86 -2.82997 -6.21612 0
M  V30 3362 O 317.548 -3.86977 -7.0463 0
M  V30 3363 H 317.28 -0.00217814 -0.675996 0
M  V30 3364 H 319.834 -0.654346 -1.94698 0
M  V30 3365 H 318.064 1.23762 -3.6636 0
M  V30 3366 H 319.753 0.932386 -3.95046 0
M  V30 3367 H 320.519 -1.45745 -4.62583 0
M  V30 3368 H 316.398 -0.231427 -4.60419 0
M  V30 3369 H 319.942 -3.32745 -6.13128 0
M  V30 3370 H 315.839 -2.09305 -6.10624 0
M  V30 3371 H 316.607 -3.83923 -7.22873 0
M  V30 3372 N 319.27 1.56325 -0.20005 0
M  V30 3373 C 320.495 2.02548 0.44597 0
M  V30 3374 C 320.92 1.07922 1.5406 0
M  V30 3375 O 320.278 0.0635775 1.81188 0
M  V30 3376 C 320.326 3.47175 0.974761 0
M  V30 3377 O 319.43 3.55671 2.08739 0
M  V30 3378 H 318.771 0.655862 0.103638 0
M  V30 3379 H 321.301 2.02201 -0.312381 0
M  V30 3380 H 321.311 3.87067 1.2901 0
M  V30 3381 H 319.986 4.15538 0.17347 0
M  V30 3382 H 318.563 3.27657 1.78032 0
M  V30 3383 N 320.748 -0.0735177 1.57428 0
M  V30 3384 C 321.658 -1.10547 2.06922 0
M  V30 3385 C 322.674 -1.42506 0.998402 0
M  V30 3386 O 323.85 -1.52717 1.31299 0
M  V30 3387 C 320.915 -2.40019 2.50184 0
M  V30 3388 C 319.976 -2.15046 3.71556 0
M  V30 3389 C 319.209 -3.38345 4.12745 0
M  V30 3390 O 319.432 -4.47399 3.53822 0
M  V30 3391 O 318.366 -3.2666 5.05546 0
M  V30 3392 H 322.192 -0.715013 2.95163 0
M  V30 3393 H 319.777 -0.287531 1.46607 0
M  V30 3394 H 321.659 -3.16218 2.78539 0
M  V30 3395 H 320.334 -2.78447 1.65072 0
M  V30 3396 H 319.241 -1.36558 3.48285 0
M  V30 3397 H 320.574 -1.81499 4.57514 0
M  V30 3398 N 322.226 -1.5378 -0.344866 0
M  V30 3399 C 323.136 -1.84667 -1.4469 0
M  V30 3400 C 324.152 -0.736704 -1.57635 0
M  V30 3401 O 325.328 -1.02888 -1.73136 0
M  V30 3402 C 322.393 -2.04869 -2.79696 0
M  V30 3403 C 321.454 -3.28731 -2.76106 0
M  V30 3404 C 320.687 -3.4796 -4.04673 0
M  V30 3405 O 320.91 -2.71052 -5.01883 0
M  V30 3406 O 319.844 -4.41383 -4.09224 0
M  V30 3407 H 323.67 -2.78334 -1.21506 0
M  V30 3408 H 321.255 -1.39418 -0.536921 0
M  V30 3409 H 323.137 -2.19609 -3.59652 0
M  V30 3410 H 321.812 -1.14391 -3.02814 0
M  V30 3411 H 320.719 -3.19396 -1.94774 0
M  V30 3412 H 322.052 -4.19198 -2.57941 0
M  V30 3413 N 323.704 0.605807 -1.45491 0
M  V30 3414 C 324.636 1.73031 -1.5031 0
M  V30 3415 C 325.649 1.57968 -0.393687 0
M  V30 3416 O 326.838 1.65817 -0.660839 0
M  V30 3417 C 323.938 3.11049 -1.34543 0
M  V30 3418 C 323.111 3.52334 -2.59189 0
M  V30 3419 C 322.17 4.69323 -2.37954 0
M  V30 3420 O 321.196 4.7635 -3.11575 0
M  V30 3421 N 322.398 5.62705 -1.4263 0
M  V30 3422 H 325.163 1.6936 -2.4726 0
M  V30 3423 H 322.724 0.79114 -1.41254 0
M  V30 3424 H 324.716 3.87071 -1.18144 0
M  V30 3425 H 323.286 3.09217 -0.458623 0
M  V30 3426 H 322.506 2.66256 -2.90691 0
M  V30 3427 H 323.794 3.76677 -3.42041 0
M  V30 3428 H 323.192 5.59744 -0.818758 0
M  V30 3429 H 321.749 6.38252 -1.32202 0
M  V30 3430 N 325.182 1.32811 0.848464 0
M  V30 3431 C 326.593 1.21315 1.41914 0
M  V30 3432 C 326.944 -0.171847 1.95446 0
M  V30 3433 O 326.069 -1.07093 1.88043 0
M  V30 3434 C 326.664 2.19631 2.57968 0
M  V30 3435 C 325.223 2.12003 3.11017 0
M  V30 3436 C 324.37 2.07651 1.83783 0
M  V30 3437 H 327.321 1.44549 0.655071 0
M  V30 3438 H 327.342 1.79845 3.35315 0
M  V30 3439 H 326.854 3.20423 2.18976 0
M  V30 3440 H 324.955 1.14481 3.54577 0
M  V30 3441 H 325.068 3.02111 3.71841 0
M  V30 3442 H 323.432 1.52983 2.03638 0
M  V30 3443 H 324.215 3.10235 1.47 0
M  V30 3444 N 326.66 -1.06551 1.16123 0
M  V30 3445 C 327.592 -2.13908 0.823171 0
M  V30 3446 C 328.605 -1.61926 -0.16843 0
M  V30 3447 O 329.794 -1.78412 0.055962 0
M  V30 3448 C 326.894 -3.38283 0.204424 0
M  V30 3449 C 326.067 -4.19589 1.23548 0
M  V30 3450 C 325.126 -5.2233 0.637011 0
M  V30 3451 O 324.152 -5.54034 1.30516 0
M  V30 3452 N 325.354 -5.77621 -0.577474 0
M  V30 3453 H 328.119 -2.43508 1.74711 0
M  V30 3454 H 325.68 -1.2253 1.05821 0
M  V30 3455 H 327.672 -4.0416 -0.208909 0
M  V30 3456 H 326.242 -3.06329 -0.623012 0
M  V30 3457 H 325.462 -3.49406 1.82507 0
M  V30 3458 H 326.75 -4.70718 1.93137 0
M  V30 3459 H 326.148 -5.54125 -1.13853 0
M  V30 3460 H 324.705 -6.45087 -0.933053 0
M  V30 3461 N 328.138 -0.959301 -1.25041 0
M  V30 3462 C 329.048 -0.489994 -2.29426 0
M  V30 3463 C 330.064 0.444944 -1.68215 0
M  V30 3464 O 331.24 0.320046 -1.98841 0
M  V30 3465 C 328.305 0.220309 -3.45999 0
M  V30 3466 C 327.366 -0.753418 -4.22637 0
M  V30 3467 C 326.599 -0.076918 -5.33645 0
M  V30 3468 O 326.822 1.13649 -5.58963 0
M  V30 3469 O 325.756 -0.764824 -5.97021 0
M  V30 3470 H 329.582 -1.35755 -2.71669 0
M  V30 3471 H 327.167 -0.725961 -1.30576 0
M  V30 3472 H 329.049 0.619677 -4.16819 0
M  V30 3473 H 327.724 1.06296 -3.0575 0
M  V30 3474 H 326.631 -1.20308 -3.54227 0
M  V30 3475 H 327.964 -1.56423 -4.66683 0
M  V30 3476 N 329.616 1.39756 -0.72842 0
M  V30 3477 C 330.579 2.29012 -0.0927297 0
M  V30 3478 C 331.579 1.45992 0.674025 0
M  V30 3479 O 332.769 1.66749 0.50402 0
M  V30 3480 C 329.901 3.29396 0.878137 0
M  V30 3481 H 331.094 2.86729 -0.879011 0
M  V30 3482 H 328.647 1.48293 -0.493847 0
M  V30 3483 H 329.382 2.76722 1.69101 0
M  V30 3484 H 329.167 3.907 0.331051 0
M  V30 3485 H 330.657 3.96199 1.3197 0
M  V30 3486 N 331.094 0.475555 1.50254 0
M  V30 3487 C 332.34 -0.0780073 2.0265 0
M  V30 3488 C 332.673 -1.38968 1.35652 0
M  V30 3489 O 331.948 -1.8839 0.483691 0
M  V30 3490 C 332.231 -0.257161 3.59181 0
M  V30 3491 C 332.084 1.07585 4.36744 0
M  V30 3492 C 333.403 -1.00965 4.28362 0
M  V30 3493 H 330.522 -0.0268758 0.73651 0
M  V30 3494 H 333.164 0.622015 1.7953 0
M  V30 3495 H 331.314 -0.853412 3.79011 0
M  V30 3496 H 332.986 1.70902 4.28474 0
M  V30 3497 H 331.229 1.6714 4.00308 0
M  V30 3498 H 331.9 0.904088 5.44546 0
M  V30 3499 H 334.376 -0.504214 4.13034 0
M  V30 3500 H 333.252 -1.10381 5.37687 0
M  V30 3501 H 333.513 -2.04731 3.91839 0
M  V30 3502 N 332.573 -1.56217 0.208337 0
M  V30 3503 C 333.984 -1.84243 -0.301904 0
M  V30 3504 C 334.335 -1.12939 -1.60434 0
M  V30 3505 O 333.46 -0.39461 -2.12772 0
M  V30 3506 C 334.055 -3.34231 -0.554543 0
M  V30 3507 C 332.614 -3.62621 -1.00912 0
M  V30 3508 C 331.761 -2.77224 -0.064933 0
M  V30 3509 H 334.712 -1.52712 0.431833 0
M  V30 3510 H 334.733 -3.5372 -1.40223 0
M  V30 3511 H 334.245 -3.86099 0.393561 0
M  V30 3512 H 332.346 -3.16197 -1.97104 0
M  V30 3513 H 332.459 -4.7071 -0.892674 0
M  V30 3514 H 330.823 -2.48256 -0.56929 0
M  V30 3515 H 331.606 -3.31887 0.877851 0
M  V30 3516 N 334.051 0.0651679 -1.57465 0
M  V30 3517 C 335.001 1.0838 -2.00594 0
M  V30 3518 C 335.985 1.34106 -0.889071 0
M  V30 3519 O 337.177 1.34295 -1.15299 0
M  V30 3520 C 334.306 2.39565 -2.45894 0
M  V30 3521 C 333.392 2.17085 -3.64328 0
M  V30 3522 N 333.783 1.64553 -4.78285 0
M  V30 3523 C 332.081 2.4753 -3.71006 0
M  V30 3524 C 332.782 1.57042 -5.60101 0
M  V30 3525 N 331.758 2.03328 -5.04141 0
M  V30 3526 H 335.56 0.671062 -2.86136 0
M  V30 3527 H 333.074 0.27213 -1.60104 0
M  V30 3528 H 335.071 3.13308 -2.75034 0
M  V30 3529 H 333.731 2.81549 -1.61741 0
M  V30 3530 H 334.742 1.33323 -5.00445 0
M  V30 3531 H 331.419 2.92835 -2.9758 0
M  V30 3532 H 332.809 1.17223 -6.61595 0
M  V30 3533 N 335.529 1.53961 0.336706 0
M  V30 3534 C 336.459 1.85417 1.41925 0
M  V30 3535 C 337.44 0.709856 1.5458 0
M  V30 3536 O 338.625 0.962396 1.68676 0
M  V30 3537 C 335.755 2.06985 2.78881 0
M  V30 3538 C 334.709 3.22813 2.81026 0
M  V30 3539 C 334.035 3.29727 4.20932 0
M  V30 3540 C 335.335 4.60767 2.45949 0
M  V30 3541 H 337.029 2.76079 1.15848 0
M  V30 3542 H 334.575 1.32839 0.555859 0
M  V30 3543 H 336.528 2.27575 3.54665 0
M  V30 3544 H 335.252 1.13061 3.06406 0
M  V30 3545 H 333.911 3.0209 2.07695 0
M  V30 3546 H 333.559 2.33385 4.45579 0
M  V30 3547 H 333.259 4.07566 4.23277 0
M  V30 3548 H 334.783 3.52536 4.98549 0
M  V30 3549 H 336.197 4.81325 3.11446 0
M  V30 3550 H 334.594 5.4106 2.59566 0
M  V30 3551 H 335.664 4.6391 1.41122 0
M  V30 3552 N 337.007 -0.598083 1.45811 0
M  V30 3553 C 337.917 -1.73632 1.57763 0
M  V30 3554 C 338.933 -1.67763 0.461676 0
M  V30 3555 O 340.109 -1.87949 0.723685 0
M  V30 3556 C 337.174 -3.10114 1.55018 0
M  V30 3557 C 336.235 -3.27364 2.77726 0
M  V30 3558 C 335.468 -4.57334 2.75102 0
M  V30 3559 O 335.691 -5.40258 1.8297 0
M  V30 3560 O 334.625 -4.77502 3.66437 0
M  V30 3561 H 338.451 -1.66498 2.53992 0
M  V30 3562 H 336.036 -0.763308 1.28429 0
M  V30 3563 H 337.918 -3.9141 1.56129 0
M  V30 3564 H 336.593 -3.17718 0.619431 0
M  V30 3565 H 335.5 -2.45619 2.82174 0
M  V30 3566 H 336.833 -3.24641 3.69958 0
M  V30 3567 N 338.485 -1.33259 -0.841409 0
M  V30 3568 C 339.448 -1.23221 -1.9326 0
M  V30 3569 C 340.448 -0.151895 -1.60081 0
M  V30 3570 O 341.638 -0.403246 -1.69468 0
M  V30 3571 C 338.77 -0.898123 -3.28856 0
M  V30 3572 H 339.963 -2.2021 -2.03587 0
M  V30 3573 H 337.516 -1.17281 -1.03319 0
M  V30 3574 H 338.251 0.0693841 -3.24226 0
M  V30 3575 H 338.036 -1.67934 -3.54317 0
M  V30 3576 H 339.526 -0.852563 -4.08805 0
M  V30 3577 N 339.963 1.05934 -1.16686 0
M  V30 3578 C 340.926 2.11669 -0.879144 0
M  V30 3579 C 341.926 1.60294 0.127445 0
M  V30 3580 O 343.116 1.7389 -0.103865 0
M  V30 3581 C 340.248 3.39438 -0.315425 0
M  V30 3582 H 341.441 2.38626 -1.81653 0
M  V30 3583 H 338.994 1.22058 -0.976299 0
M  V30 3584 H 339.729 3.18132 0.629468 0
M  V30 3585 H 339.514 3.78034 -1.04079 0
M  V30 3586 H 341.004 4.17391 -0.132189 0
M  V30 3587 N 341.441 0.965919 1.2453 0
M  V30 3588 C 342.371 0.513476 2.27784 0
M  V30 3589 C 343.352 -0.445974 1.6415 0
M  V30 3590 O 344.537 -0.342485 1.91156 0
M  V30 3591 C 341.667 -0.198839 3.4673 0
M  V30 3592 C 340.621 0.676456 4.2262 0
M  V30 3593 C 339.947 -0.167248 5.34438 0
M  V30 3594 C 341.247 1.96017 4.84123 0
M  V30 3595 H 342.941 1.3765 2.65881 0
M  V30 3596 H 340.487 0.663321 1.27813 0
M  V30 3597 H 342.44 -0.526567 4.18097 0
M  V30 3598 H 341.164 -1.0962 3.07654 0
M  V30 3599 H 339.823 0.98743 3.53052 0
M  V30 3600 H 339.471 -1.0647 4.91603 0
M  V30 3601 H 339.171 0.415181 5.86131 0
M  V30 3602 H 340.695 -0.489688 6.08633 0
M  V30 3603 H 342.109 1.69814 5.47573 0
M  V30 3604 H 340.506 2.48918 5.4604 0
M  V30 3605 H 341.576 2.65622 4.05676 0
M  V30 3606 N 342.919 -1.39368 0.735821 0
M  V30 3607 C 343.851 -2.2913 0.0567723 0
M  V30 3608 C 344.864 -1.46859 -0.702589 0
M  V30 3609 O 346.053 -1.69925 -0.546616 0
M  V30 3610 C 343.153 -3.25492 -0.943823 0
M  V30 3611 C 342.326 -4.36709 -0.24581 0
M  V30 3612 C 341.385 -5.13376 -1.15463 0
M  V30 3613 O 340.411 -5.65683 -0.631803 0
M  V30 3614 N 341.613 -5.24656 -2.48427 0
M  V30 3615 H 344.378 -2.88047 0.827582 0
M  V30 3616 H 341.939 -1.50957 0.585112 0
M  V30 3617 H 343.931 -3.73657 -1.55443 0
M  V30 3618 H 342.501 -2.676 -1.61583 0
M  V30 3619 H 341.721 -3.9041 0.545286 0
M  V30 3620 H 343.009 -5.08244 0.237891 0
M  V30 3621 H 342.407 -4.83679 -2.93379 0
M  V30 3622 H 340.964 -5.76258 -3.04582 0
M  V30 3623 N 344.397 -0.483516 -1.5 0
M  V30 3624 C 345.307 0.309172 -2.32554 0
M  V30 3625 C 346.323 0.984159 -1.43493 0
M  V30 3626 O 347.499 0.969399 -1.76535 0
M  V30 3627 C 344.564 1.36979 -3.18493 0
M  V30 3628 C 343.625 0.710095 -4.23387 0
M  V30 3629 C 342.858 1.72018 -5.05218 0
M  V30 3630 O 343.081 2.94813 -4.88305 0
M  V30 3631 O 342.015 1.28515 -5.8802 0
M  V30 3632 H 345.841 -0.366064 -3.01486 0
M  V30 3633 H 343.426 -0.24514 -1.47375 0
M  V30 3634 H 345.308 1.98385 -3.71781 0
M  V30 3635 H 343.983 2.02828 -2.52275 0
M  V30 3636 H 342.89 0.0567539 -3.74057 0
M  V30 3637 H 344.223 0.0943557 -4.9211 0
M  V30 3638 N 345.875 1.56104 -0.216619 0
M  V30 3639 C 347.105 2.02269 0.420802 0
M  V30 3640 C 347.513 1.09575 1.5424 0
M  V30 3641 O 346.856 0.0967308 1.83445 0
M  V30 3642 C 346.918 3.44784 1.01806 0
M  V30 3643 C 346.582 4.56988 0.0325154 0
M  V30 3644 C 347.579 5.14225 -0.766055 0
M  V30 3645 C 345.264 5.02228 -0.0848092 0
M  V30 3646 C 347.258 6.15169 -1.6687 0
M  V30 3647 C 344.945 6.03011 -0.990994 0
M  V30 3648 C 345.943 6.59357 -1.78149 0
M  V30 3649 O 345.631 7.58179 -2.67245 0
M  V30 3650 H 345.363 0.667353 0.107776 0
M  V30 3651 H 347.917 2.02747 -0.329034 0
M  V30 3652 H 346.147 3.41359 1.81689 0
M  V30 3653 H 347.836 3.74626 1.56237 0
M  V30 3654 H 348.602 4.80126 -0.685836 0
M  V30 3655 H 344.481 4.58054 0.520349 0
M  V30 3656 H 348.025 6.59076 -2.28615 0
M  V30 3657 H 343.922 6.36532 -1.07225 0
M  V30 3658 H 344.69 7.75682 -2.61265 0
M  V30 3659 N 347.353 -0.0568162 1.57498 0
M  V30 3660 C 348.6 -0.753104 1.87975 0
M  V30 3661 C 348.928 -1.76815 0.81035 0
M  V30 3662 O 348.183 -1.94756 -0.19199 0
M  V30 3663 C 348.482 -1.48359 3.25153 0
M  V30 3664 C 348.148 -0.60713 4.46794 0
M  V30 3665 C 346.81 -0.365642 4.79809 0
M  V30 3666 C 349.162 -0.000305978 5.212 0
M  V30 3667 C 346.49 0.491905 5.84634 0
M  V30 3668 C 348.842 0.844781 6.26934 0
M  V30 3669 C 347.506 1.096 6.58441 0
M  V30 3670 H 346.776 -0.27558 0.687849 0
M  V30 3671 H 349.423 -0.0135173 1.91495 0
M  V30 3672 H 347.728 -2.29577 3.17492 0
M  V30 3673 H 349.425 -2.02739 3.45974 0
M  V30 3674 H 346.015 -0.805487 4.20963 0
M  V30 3675 H 350.199 -0.173961 4.95995 0
M  V30 3676 H 345.455 0.695131 6.07436 0
M  V30 3677 H 349.629 1.32165 6.83744 0
M  V30 3678 H 347.256 1.76224 7.39492 0
M  V30 3679 N 348.832 -1.54138 -0.328536 0
M  V30 3680 C 350.078 -1.7236 -1.06865 0
M  V30 3681 C 350.411 -0.493231 -1.87832 0
M  V30 3682 O 349.686 0.5098 -1.877 0
M  V30 3683 C 349.969 -2.99621 -1.99747 0
M  V30 3684 C 349.822 -4.32899 -1.22143 0
M  V30 3685 C 351.141 -3.22615 -2.99345 0
M  V30 3686 H 348.26 -0.627151 -0.387105 0
M  V30 3687 H 350.902 -1.86827 -0.345767 0
M  V30 3688 H 349.052 -2.87418 -2.61387 0
M  V30 3689 H 350.724 -4.56978 -0.630017 0
M  V30 3690 H 348.967 -4.30628 -0.523628 0
M  V30 3691 H 349.638 -5.18154 -1.90318 0
M  V30 3692 H 352.114 -3.34248 -2.47826 0
M  V30 3693 H 350.99 -4.13027 -3.61524 0
M  V30 3694 H 351.251 -2.3961 -3.71536 0
M  V30 3695 N 350.31 0.590341 -1.46126 0
M  V30 3696 C 351.273 1.68194 -1.55703 0
M  V30 3697 C 352.273 1.54808 -0.434868 0
M  V30 3698 O 353.463 1.59564 -0.698928 0
M  V30 3699 C 350.595 3.07575 -1.47005 0
M  V30 3700 H 351.788 1.61064 -2.52979 0
M  V30 3701 H 349.341 0.807541 -1.33823 0
M  V30 3702 H 350.076 3.20268 -0.509785 0
M  V30 3703 H 349.861 3.187 -2.28414 0
M  V30 3704 H 351.351 3.87055 -1.56776 0
M  V30 3705 N 351.788 1.33704 0.83433 0
M  V30 3706 C 353.018 1.28281 1.6195 0
M  V30 3707 C 353.426 -0.147603 1.88623 0
M  V30 3708 O 352.769 -1.1016 1.47005 0
M  V30 3709 C 352.831 1.99386 2.99141 0
M  V30 3710 C 352.495 3.48681 2.95416 0
M  V30 3711 C 353.492 4.438 2.70809 0
M  V30 3712 C 351.177 3.90925 3.15409 0
M  V30 3713 C 353.171 5.79138 2.66229 0
M  V30 3714 C 350.858 5.26366 3.10454 0
M  V30 3715 C 351.856 6.20284 2.85895 0
M  V30 3716 O 351.544 7.53245 2.80852 0
M  V30 3717 H 351.276 0.44315 0.510484 0
M  V30 3718 H 353.83 1.76711 1.04702 0
M  V30 3719 H 352.06 1.45554 3.58261 0
M  V30 3720 H 353.749 1.87403 3.60049 0
M  V30 3721 H 354.515 4.12485 2.5511 0
M  V30 3722 H 350.394 3.18229 3.33543 0
M  V30 3723 H 353.938 6.52416 2.4698 0
M  V30 3724 H 349.835 5.57304 3.25703 0
M  V30 3725 H 350.603 7.62846 2.96661 0
M  V30 3726 N 353.266 -1.05314 1.17247 0
M  V30 3727 C 354.176 -2.16538 0.90268 0
M  V30 3728 C 355.192 -1.73523 -0.128707 0
M  V30 3729 O 356.368 -2.01337 0.0502701 0
M  V30 3730 C 353.433 -3.44167 0.418356 0
M  V30 3731 C 352.494 -4.01635 1.51618 0
M  V30 3732 C 351.727 -5.23171 1.05487 0
M  V30 3733 O 351.95 -5.70327 -0.0914715 0
M  V30 3734 O 350.884 -5.72848 1.8474 0
M  V30 3735 H 354.71 -2.42145 1.83302 0
M  V30 3736 H 352.295 -1.15037 0.953246 0
M  V30 3737 H 354.177 -4.21112 0.155726 0
M  V30 3738 H 352.852 -3.20063 -0.48385 0
M  V30 3739 H 351.759 -3.26135 1.83268 0
M  V30 3740 H 353.092 -4.30053 2.39405 0
M  V30 3741 N 354.744 -0.972509 -1.24016 0
M  V30 3742 C 355.654 -0.5143 -2.28893 0
M  V30 3743 C 356.67 0.427078 -1.68677 0
M  V30 3744 O 357.846 0.298939 -1.99169 0
M  V30 3745 C 354.911 0.183598 -3.46214 0
M  V30 3746 C 353.972 -0.798202 -4.21814 0
M  V30 3747 C 353.205 -0.133514 -5.33533 0
M  V30 3748 O 353.428 1.07714 -5.60137 0
M  V30 3749 O 352.362 -0.828103 -5.96176 0
M  V30 3750 H 356.188 -1.38629 -2.70214 0
M  V30 3751 H 353.773 -0.739769 -1.29799 0
M  V30 3752 H 355.655 0.575433 -4.17453 0
M  V30 3753 H 354.33 1.03048 -3.0686 0
M  V30 3754 H 353.237 -1.24059 -3.52931 0
M  V30 3755 H 354.57 -1.61364 -4.64997 0
M  V30 3756 N 356.222 1.38976 -0.743202 0
M  V30 3757 C 357.462 2.02193 -0.29954 0
M  V30 3758 C 357.826 1.5771 1.09506 0
M  V30 3759 O 359.027 2.13184 1.63726 0
M  V30 3760 C 357.298 3.55077 -0.406822 0
M  V30 3761 S 358.857 4.38778 -0.0442109 0
M  V30 3762 H 355.675 0.701335 -0.116836 0
M  V30 3763 H 358.277 1.69651 -0.971529 0
M  V30 3764 H 356.981 3.84942 -1.42295 0
M  V30 3765 H 356.512 3.92383 0.282707 0
M  V30 3766 H 358.527 4.82222 1.16947 0
M  V30 3767 N 357.7 0.491464 1.49741 0
M  V30 3768 C 359.116 0.146835 1.58923 0
M  V30 3769 C 359.316 -1.34804 1.49767 0
M  V30 3770 O 358.372 -2.12317 1.36667 0
M  V30 3771 C 359.685 0.715157 2.92072 0
M  V30 3772 C 361.233 0.680407 3.05515 0
M  V30 3773 C 361.708 1.22663 4.41269 0
M  V30 3774 N 363.199 1.18691 4.47735 0
M  V30 3775 C 363.934 1.57984 5.51207 0
M  V30 3776 N 363.43 2.04824 6.6183 0
M  V30 3777 N 365.223 1.49459 5.41866 0
M  V30 3778 H 357.374 1.46347 1.53936 0
M  V30 3779 H 359.637 0.606453 0.728642 0
M  V30 3780 H 359.343 1.76317 3.04311 0
M  V30 3781 H 359.217 0.17018 3.76816 0
M  V30 3782 H 361.604 -0.358743 2.92911 0
M  V30 3783 H 361.685 1.26242 2.22478 0
M  V30 3784 H 361.329 2.26451 4.54623 0
M  V30 3785 H 361.259 0.620637 5.2293 0
M  V30 3786 H 363.75 0.843605 3.68364 0
M  V30 3787 H 364.063 2.32901 7.3687 0
M  V30 3788 H 362.408 2.08791 6.62896 0
M  V30 3789 H 365.599 1.12692 4.54333 0
M  V30 3790 H 365.772 1.80406 6.22381 0
M  V30 3791 N 359.178 -1.55987 0.224894 0
M  V30 3792 C 360.141 -2.19178 -0.670348 0
M  V30 3793 C 361.141 -1.15461 -1.11917 0
M  V30 3794 O 362.331 -1.40675 -1.02743 0
M  V30 3795 C 359.463 -2.81777 -1.9187 0
M  V30 3796 H 360.656 -2.99662 -0.119364 0
M  V30 3797 H 358.209 -1.5628 -0.0247128 0
M  V30 3798 H 358.944 -2.05172 -2.51147 0
M  V30 3799 H 358.729 -3.57732 -1.60531 0
M  V30 3800 H 360.219 -3.30205 -2.55645 0
M  V30 3801 N 360.656 0.0484629 -1.57525 0
M  V30 3802 C 361.586 1.0549 -2.08313 0
M  V30 3803 C 362.567 1.38929 -0.981463 0
M  V30 3804 O 363.752 1.48151 -1.25558 0
M  V30 3805 C 360.882 2.36162 -2.54646 0
M  V30 3806 C 359.836 2.17016 -3.68901 0
M  V30 3807 C 359.162 3.53278 -4.01371 0
M  V30 3808 C 360.462 1.57219 -4.98076 0
M  V30 3809 H 362.156 0.632195 -2.92649 0
M  V30 3810 H 359.702 0.302654 -1.40784 0
M  V30 3811 H 361.655 3.06882 -2.88793 0
M  V30 3812 H 360.379 2.80456 -1.67368 0
M  V30 3813 H 359.038 1.48733 -3.35073 0
M  V30 3814 H 358.686 3.95185 -3.11188 0
M  V30 3815 H 358.386 3.41299 -4.78318 0
M  V30 3816 H 359.91 4.25391 -4.38035 0
M  V30 3817 H 361.324 2.17832 -5.30304 0
M  V30 3818 H 359.721 1.55871 -5.79503 0
M  V30 3819 H 360.791 0.535956 -4.81929 0
M  V30 3820 N 362.134 1.5431 0.320358 0
M  V30 3821 C 363.374 1.74395 1.0661 0
M  V30 3822 C 363.738 0.508602 1.85141 0
M  V30 3823 O 364.939 0.586856 2.62316 0
M  V30 3824 C 363.21 2.98619 1.96371 0
M  V30 3825 S 364.769 3.39621 2.77854 0
M  V30 3826 H 361.587 0.613204 0.359863 0
M  V30 3827 H 364.189 1.9249 0.341727 0
M  V30 3828 H 362.893 3.86673 1.3752 0
M  V30 3829 H 362.424 2.83055 2.73209 0
M  V30 3830 H 364.439 2.95172 3.98858 0
M  V30 3831 N 363.613 -0.582584 1.46437 0
M  V30 3832 C 364.523 -1.71949 1.59595 0
M  V30 3833 C 365.539 -1.67264 0.479443 0
M  V30 3834 O 366.715 -1.87171 0.743579 0
M  V30 3835 C 363.78 -3.08452 1.58298 0
M  V30 3836 C 362.841 -3.244 2.81182 0
M  V30 3837 C 362.074 -4.54391 2.79937 0
M  V30 3838 O 362.297 -5.38287 1.8869 0
M  V30 3839 O 361.231 -4.73588 3.71481 0
M  V30 3840 H 365.057 -1.63795 2.55744 0
M  V30 3841 H 362.642 -0.749643 1.29231 0
M  V30 3842 H 364.524 -3.89732 1.60271 0
M  V30 3843 H 363.199 -3.17043 0.653094 0
M  V30 3844 H 362.106 -2.42613 2.84763 0
M  V30 3845 H 363.439 -3.20699 3.7338 0
M  V30 3846 N 365.091 -1.34144 -0.827227 0
M  V30 3847 C 366.339 -1.26009 -1.58007 0
M  V30 3848 C 366.66 0.170971 -1.94249 0
M  V30 3849 O 365.93 1.10256 -1.61927 0
M  V30 3850 H 364.51 -0.463414 -0.585881 0
M  V30 3851 H 367.172 -1.68005 -0.987951 0
M  V30 3852 H 366.268 -1.86187 -2.50481 0
M  V30 3853 N 366.569 1.04691 -1.17803 0
M  V30 3854 C 367.98 1.59238 -0.974689 0
M  V30 3855 C 368.331 1.90306 0.477292 0
M  V30 3856 O 367.456 1.68846 1.35352 0
M  V30 3857 C 368.051 2.89318 -1.76296 0
M  V30 3858 C 366.61 3.40506 -1.60414 0
M  V30 3859 C 365.757 2.14172 -1.76141 0
M  V30 3860 H 368.708 0.874395 -1.32439 0
M  V30 3861 H 368.729 3.5944 -1.24833 0
M  V30 3862 H 368.241 2.66675 -2.81968 0
M  V30 3863 H 366.342 3.68175 -0.572519 0
M  V30 3864 H 366.455 4.14753 -2.39827 0
M  V30 3865 H 364.819 2.25176 -1.19028 0
M  V30 3866 H 365.602 1.93992 -2.83235 0
M  V30 3867 N 368.047 0.979072 1.23499 0
M  V30 3868 C 369.277 0.664237 1.95631 0
M  V30 3869 C 369.685 -0.772653 1.72704 0
M  V30 3870 O 369.028 -1.53141 1.01457 0
M  V30 3871 C 369.09 0.873115 3.48736 0
M  V30 3872 C 368.754 2.29182 3.95379 0
M  V30 3873 C 369.751 3.2704 4.04155 0
M  V30 3874 C 367.436 2.62256 4.28401 0
M  V30 3875 C 369.43 4.56052 4.45304 0
M  V30 3876 C 367.117 3.91491 4.69231 0
M  V30 3877 C 368.115 4.88201 4.77649 0
M  V30 3878 O 367.803 6.15129 5.17563 0
M  V30 3879 H 367.535 0.245915 0.629684 0
M  V30 3880 H 370.089 1.3127 1.57979 0
M  V30 3881 H 368.319 0.167476 3.86337 0
M  V30 3882 H 370.008 0.555642 4.02079 0
M  V30 3883 H 370.774 3.02819 3.78848 0
M  V30 3884 H 366.653 1.87692 4.21061 0
M  V30 3885 H 370.197 5.31538 4.51789 0
M  V30 3886 H 366.094 4.15508 4.93987 0
M  V30 3887 H 366.862 6.18862 5.35679 0
M  V30 3888 N 369.525 -1.3858 0.750561 0
M  V30 3889 C 370.802 -1.94231 0.231009 0
M  V30 3890 C 371.182 -1.68611 -1.27018 0
M  V30 3891 O 370.53 -1.02296 -2.04323 0
M  V30 3892 C 370.74 -3.44123 0.581428 0
M  V30 3893 C 372.088 -4.2116 0.539389 0
M  V30 3894 O 373.112 -3.52391 0.519541 0
M  V30 3895 O 371.971 -5.43749 0.54765 0
M  V30 3896 H 369.065 -0.825639 0.0474263 0
M  V30 3897 H 371.611 -1.4799 0.830478 0
M  V30 3898 H 370.383 -3.56267 1.61833 0
M  V30 3899 H 370.006 -3.97573 -0.0462047 0
M  V30 3900 N 371.003 -0.499398 -1.49478 0
M  V30 3901 C 372.233 0.0424839 -2.06556 0
M  V30 3902 C 372.641 1.31514 -1.36018 0
M  V30 3903 O 371.984 1.78555 -0.431718 0
M  V30 3904 C 372.046 0.368074 -3.57611 0
M  V30 3905 C 371.71 -0.806631 -4.49825 0
M  V30 3906 C 372.707 -1.69667 -4.91436 0
M  V30 3907 C 370.392 -1.00498 -4.92144 0
M  V30 3908 C 372.386 -2.76923 -5.74101 0
M  V30 3909 C 370.073 -2.08072 -5.74586 0
M  V30 3910 C 371.071 -2.96119 -6.15469 0
M  V30 3911 O 370.759 -4.01836 -6.96264 0
M  V30 3912 H 370.491 -0.0165165 -0.675798 0
M  V30 3913 H 373.045 -0.695497 -1.93267 0
M  V30 3914 H 371.275 1.15963 -3.68903 0
M  V30 3915 H 372.964 0.848381 -3.96935 0
M  V30 3916 H 373.73 -1.55524 -4.59388 0
M  V30 3917 H 369.609 -0.329036 -4.59824 0
M  V30 3918 H 373.153 -3.45676 -6.05932 0
M  V30 3919 H 369.05 -2.22211 -6.06047 0
M  V30 3920 H 369.818 -3.9917 -7.14567 0
M  V30 3921 N 372.481 1.55866 -0.233164 0
M  V30 3922 C 373.758 1.90471 0.444988 0
M  V30 3923 C 374.138 1.15209 1.7689 0
M  V30 3924 O 373.486 0.265119 2.26957 0
M  V30 3925 C 373.696 3.4333 0.626559 0
M  V30 3926 C 375.044 4.14319 0.92871 0
M  V30 3927 O 376.068 3.48993 0.712926 0
M  V30 3928 O 374.927 5.29846 1.33887 0
M  V30 3929 H 372.021 0.792347 0.236885 0
M  V30 3930 H 374.567 1.67437 -0.276211 0
M  V30 3931 H 373.339 3.90095 -0.306822 0
M  V30 3932 H 372.962 3.72181 1.39881 0
M  V30 3933 N 373.959 -0.0401083 1.57549 0
M  V30 3934 C 375.207 -0.731677 1.8839 0
M  V30 3935 C 375.528 -1.76481 0.829425 0
M  V30 3936 O 374.798 -1.95411 -0.1383 0
M  V30 3937 H 373.378 -0.273225 0.695239 0
M  V30 3938 H 376.04 -0.00867725 1.94898 0
M  V30 3939 H 375.136 -1.22816 2.86919 0
M  V30 3940 N 375.437 -1.54477 -0.31217 0
M  V30 3941 C 376.667 -1.76948 -1.06645 0
M  V30 3942 C 377.075 -0.523593 -1.81811 0
M  V30 3943 O 376.418 0.51578 -1.76311 0
M  V30 3944 C 376.48 -2.91668 -2.10166 0
M  V30 3945 C 376.144 -4.30165 -1.54296 0
M  V30 3946 C 377.141 -5.10603 -0.978793 0
M  V30 3947 C 374.826 -4.76738 -1.58196 0
M  V30 3948 C 376.82 -6.3573 -0.461048 0
M  V30 3949 C 374.507 -6.01831 -1.06034 0
M  V30 3950 C 375.505 -6.81161 -0.500844 0
M  V30 3951 O 375.193 -8.03899 0.0128958 0
M  V30 3952 H 374.925 -0.594088 -0.322546 0
M  V30 3953 H 377.479 -2.02213 -0.360441 0
M  V30 3954 H 375.709 -2.62001 -2.84416 0
M  V30 3955 H 377.398 -3.01817 -2.71406 0
M  V30 3956 H 378.164 -4.75771 -0.941651 0
M  V30 3957 H 374.043 -4.15027 -2.00683 0
M  V30 3958 H 377.587 -6.97596 -0.0236894 0
M  V30 3959 H 373.484 -6.36152 -1.09459 0
M  V30 3960 H 374.252 -8.18437 -0.101457 0
M  V30 3961 N 376.915 0.57481 -1.46744 0
M  V30 3962 C 377.863 1.70435 -1.58286 0
M  V30 3963 C 378.857 1.63287 -0.450956 0
M  V30 3964 O 380.063 1.68685 -0.628121 0
M  V30 3965 H 376.438 0.56364 -0.497809 0
M  V30 3966 H 378.409 1.57833 -2.53242 0
M  V30 3967 C 377.158 3.08815 -1.59776 0
M  V30 3968 H 376.481 3.1499 -2.46214 0
M  V30 3969 H 377.921 3.87588 -1.71905 0
M  V30 3970 C 376.38 3.35301 -0.327812 0
M  V30 3971 O 376.91 3.97511 0.57861 0
M  V30 3972 N 375.116 2.89816 -0.213274 0
M  V30 3973 H 374.663 2.39371 -0.951798 0
M  V30 3974 H 374.621 3.0791 0.63553 0
M  V30 3975 N 378.394 1.34581 0.820102 0
M  V30 3976 C 379.624 1.29991 1.6058 0
M  V30 3977 C 380.032 -0.127588 1.88769 0
M  V30 3978 O 379.375 -1.08595 1.48165 0
M  V30 3979 C 379.437 2.02548 2.9701 0
M  V30 3980 C 379.101 3.51794 2.91701 0
M  V30 3981 C 380.098 4.46647 2.66087 0
M  V30 3982 C 377.783 3.94249 3.11245 0
M  V30 3983 C 379.777 5.81929 2.60071 0
M  V30 3984 C 377.464 5.2963 3.04853 0
M  V30 3985 C 378.462 6.23282 2.793 0
M  V30 3986 O 378.15 7.56181 2.72847 0
M  V30 3987 H 377.882 0.448539 0.505756 0
M  V30 3988 H 380.436 1.77811 1.02822 0
M  V30 3989 H 378.666 1.49345 3.56697 0
M  V30 3990 H 380.355 1.91211 3.58041 0
M  V30 3991 H 381.121 4.15168 2.5072 0
M  V30 3992 H 377 3.21749 3.30149 0
M  V30 3993 H 380.544 6.54999 2.40046 0
M  V30 3994 H 376.441 5.60727 3.19774 0
M  V30 3995 H 377.209 7.6595 2.88553 0
M  V30 3996 N 379.872 -1.04064 1.18357 0
M  V30 3997 C 380.802 -2.14001 0.934113 0
M  V30 3998 C 381.783 -1.69616 -0.128186 0
M  V30 3999 O 382.968 -1.94185 0.0244093 0
M  V30 4000 C 380.098 -3.44253 0.459066 0
M  V30 4001 C 379.052 -4.02261 1.46185 0
M  V30 4002 C 378.378 -5.27992 0.844322 0
M  V30 4003 C 379.678 -4.38432 2.83856 0
M  V30 4004 H 381.372 -2.35127 1.85352 0
M  V30 4005 H 378.918 -1.12998 0.892604 0
M  V30 4006 H 380.871 -4.20522 0.271907 0
M  V30 4007 H 379.595 -3.22813 -0.495912 0
M  V30 4008 H 378.254 -3.28074 1.63595 0
M  V30 4009 H 377.902 -5.02862 -0.117845 0
M  V30 4010 H 377.602 -5.67765 1.51384 0
M  V30 4011 H 379.126 -6.06938 0.667693 0
M  V30 4012 H 380.54 -5.05688 2.70098 0
M  V30 4013 H 378.937 -4.89254 3.47491 0
M  V30 4014 H 380.007 -3.4826 3.37406 0
M  V30 4015 N 381.35 -0.985608 -1.22978 0
M  V30 4016 C 382.26 -0.538548 -2.28335 0
M  V30 4017 C 383.276 0.409163 -1.69121 0
M  V30 4018 O 384.452 0.277797 -1.99475 0
M  V30 4019 C 381.517 0.146867 -3.46389 0
M  V30 4020 C 380.578 -0.842896 -4.20944 0
M  V30 4021 C 379.811 -0.190095 -5.33361 0
M  V30 4022 O 380.034 1.01767 -5.61248 0
M  V30 4023 O 378.968 -0.891289 -5.95264 0
M  V30 4024 H 382.794 -1.41487 -2.68729 0
M  V30 4025 H 380.379 -0.753495 -1.29007 0
M  V30 4026 H 382.261 0.531125 -4.1804 0
M  V30 4027 H 380.936 0.997871 -3.07935 0
M  V30 4028 H 379.843 -1.27795 -3.51595 0
M  V30 4029 H 381.176 -1.66287 -4.6326 0
M  V30 4030 N 382.828 1.3818 -0.7579 0
M  V30 4031 C 384.058 2.04004 -0.326463 0
M  V30 4032 C 384.466 1.57286 1.05156 0
M  V30 4033 O 383.809 0.743144 1.67997 0
M  V30 4034 C 383.871 3.58444 -0.275402 0
M  V30 4035 C 383.535 4.28237 -1.59569 0
M  V30 4036 C 384.532 4.53312 -2.54566 0
M  V30 4037 C 382.217 4.66341 -1.86631 0
M  V30 4038 C 384.211 5.15531 -3.74842 0
M  V30 4039 C 381.898 5.28283 -3.0718 0
M  V30 4040 C 382.896 5.52814 -4.01106 0
M  V30 4041 O 382.584 6.13465 -5.19534 0
M  V30 4042 H 382.316 0.662026 -0.136739 0
M  V30 4043 H 384.87 1.7777 -1.02893 0
M  V30 4044 H 383.1 3.83667 0.483337 0
M  V30 4045 H 384.789 4.05701 0.127099 0
M  V30 4046 H 385.555 4.24299 -2.34936 0
M  V30 4047 H 381.434 4.46591 -1.14358 0
M  V30 4048 H 384.978 5.34594 -4.48168 0
M  V30 4049 H 380.875 5.56719 -3.26702 0
M  V30 4050 H 381.643 6.31951 -5.20173 0
M  V30 4051 N 384.306 0.507319 1.49211 0
M  V30 4052 C 385.254 -0.281364 2.30892 0
M  V30 4053 C 386.248 -0.95687 1.39787 0
M  V30 4054 O 387.454 -0.883838 1.56807 0
M  V30 4055 H 383.829 -0.109597 0.743971 0
M  V30 4056 H 385.8 0.42744 2.95323 0
M  V30 4057 C 384.549 -1.32918 3.21291 0
M  V30 4058 H 383.872 -0.818799 3.91326 0
M  V30 4059 H 385.312 -1.85288 3.81372 0
M  V30 4060 C 383.771 -2.35074 2.41333 0
M  V30 4061 O 384.301 -3.4108 2.12197 0
M  V30 4062 N 382.507 -2.07705 2.03241 0
M  V30 4063 H 382.054 -1.2152 2.27136 0
M  V30 4064 H 382.012 -2.76283 1.50051 0
M  V30 4065 N 385.784 -1.5574 0.241426 0
M  V30 4066 C 386.747 -2.19877 -0.647063 0
M  V30 4067 C 387.747 -1.16642 -1.10686 0
M  V30 4068 O 388.937 -1.41757 -1.01245 0
M  V30 4069 C 386.069 -2.83797 -1.88871 0
M  V30 4070 H 387.262 -2.99772 -0.087574 0
M  V30 4071 H 384.815 -1.56298 -0.00813574 0
M  V30 4072 H 385.55 -2.07824 -2.48957 0
M  V30 4073 H 385.335 -3.59414 -1.56728 0
M  V30 4074 H 386.825 -3.32898 -2.52129 0
M  V30 4075 N 387.262 0.0317525 -1.57568 0
M  V30 4076 C 388.539 0.758366 -1.803 0
M  V30 4077 C 388.919 1.93718 -0.838845 0
M  V30 4078 O 388.267 2.28187 0.119571 0
M  V30 4079 C 388.477 1.19392 -3.27943 0
M  V30 4080 C 389.825 1.61094 -3.92854 0
M  V30 4081 O 390.849 1.28857 -3.32076 0
M  V30 4082 O 389.708 2.20918 -4.99858 0
M  V30 4083 H 386.802 0.366514 -0.741348 0
M  V30 4084 H 389.348 0.00873765 -1.69698 0
M  V30 4085 H 388.12 0.352275 -3.89711 0
M  V30 4086 H 387.743 2.00365 -3.43424 0
M  V30 4087 N 388.74 1.54641 0.303973 0
M  V30 4088 C 389.67 1.88386 1.3796 0
M  V30 4089 C 390.651 0.742485 1.5304 0
M  V30 4090 O 391.836 0.997959 1.66597 0
M  V30 4091 C 388.966 2.12854 2.74427 0
M  V30 4092 C 387.92 3.28702 2.74115 0
M  V30 4093 C 387.246 3.38582 4.13844 0
M  V30 4094 C 388.546 4.65881 2.3612 0
M  V30 4095 H 390.24 2.78474 1.09966 0
M  V30 4096 H 387.786 1.33988 0.527556 0
M  V30 4097 H 389.739 2.35047 3.49758 0
M  V30 4098 H 388.463 1.19535 3.03939 0
M  V30 4099 H 387.122 3.06428 2.0124 0
M  V30 4100 H 386.77 2.42784 4.40528 0
M  V30 4101 H 386.47 4.16453 4.14537 0
M  V30 4102 H 387.994 3.63031 4.90959 0
M  V30 4103 H 389.408 4.87823 3.01167 0
M  V30 4104 H 387.805 5.46444 2.48031 0
M  V30 4105 H 388.875 4.66799 1.3125 0
M  V30 4106 N 390.218 -0.567019 1.47046 0
M  V30 4107 C 391.465 -1.32462 1.53167 0
M  V30 4108 C 391.793 -1.93571 0.189841 0
M  V30 4109 O 391.048 -1.77865 -0.816243 0
M  V30 4110 C 391.347 -2.4623 2.59047 0
M  V30 4111 C 391.013 -2.03014 4.02612 0
M  V30 4112 C 389.675 -1.90944 4.41694 0
M  V30 4113 C 392.027 -1.69895 4.92732 0
M  V30 4114 C 389.355 -1.44035 5.68745 0
M  V30 4115 C 391.707 -1.2446 6.20236 0
M  V30 4116 C 390.371 -1.10979 6.5821 0
M  V30 4117 H 389.641 -0.484713 0.560477 0
M  V30 4118 H 392.288 -0.636888 1.80599 0
M  V30 4119 H 390.593 -3.20517 2.25335 0
M  V30 4120 H 392.29 -3.04427 2.61008 0
M  V30 4121 H 388.88 -2.13348 3.71726 0
M  V30 4122 H 393.064 -1.78098 4.63244 0
M  V30 4123 H 388.32 -1.32254 5.96925 0
M  V30 4124 H 392.494 -0.978924 6.89485 0
M  V30 4125 H 390.121 -0.744078 7.5655 0
M  V30 4126 N 391.696 -1.35014 -0.812953 0
M  V30 4127 C 392.628 -1.23262 -1.93233 0
M  V30 4128 C 393.641 -0.157371 -1.62038 0
M  V30 4129 O 394.83 -0.410096 -1.73725 0
M  V30 4130 C 391.93 -0.87392 -3.27438 0
M  V30 4131 C 391.103 -2.04622 -3.86586 0
M  V30 4132 C 390.162 -1.66432 -4.99186 0
M  V30 4133 O 389.188 -2.38222 -5.16951 0
M  V30 4134 N 390.39 -0.584248 -5.77552 0
M  V30 4135 H 393.155 -2.19699 -2.03844 0
M  V30 4136 H 390.716 -1.281 -0.99005 0
M  V30 4137 H 392.708 -0.600039 -4.00227 0
M  V30 4138 H 391.278 0.00057392 -3.126 0
M  V30 4139 H 390.498 -2.48427 -3.06068 0
M  V30 4140 H 391.786 -2.82999 -4.22835 0
M  V30 4141 H 391.184 0.0123526 -5.65699 0
M  V30 4142 H 389.741 -0.37013 -6.50748 0
M  V30 4143 N 393.175 1.03435 -1.18907 0
M  V30 4144 C 394.138 2.09756 -0.923844 0
M  V30 4145 C 395.138 1.60528 0.093416 0
M  V30 4146 O 396.328 1.73631 -0.140727 0
M  V30 4147 C 393.46 3.38692 -0.387354 0
M  V30 4148 H 394.653 2.34719 -1.86674 0
M  V30 4149 H 392.206 1.19959 -1.00197 0
M  V30 4150 H 392.941 3.19396 0.561845 0
M  V30 4151 H 392.726 3.75742 -1.12074 0
M  V30 4152 H 394.216 4.17016 -0.220694 0
M  V30 4153 N 394.653 0.992116 1.22453 0
M  V30 4154 C 395.902 0.662992 1.90492 0
M  V30 4155 C 396.215 -0.808407 1.78113 0
M  V30 4156 O 397.421 -1.24908 2.41061 0
M  V30 4157 C 395.877 1.1353 3.41524 0
M  V30 4158 C 395.485 2.63187 3.62542 0
M  V30 4159 C 397.229 0.880465 4.15269 0
M  V30 4160 C 395.136 3.04024 5.0727 0
M  V30 4161 H 394.066 0.244278 0.713333 0
M  V30 4162 H 396.717 1.20157 1.38688 0
M  V30 4163 H 395.099 0.52485 3.92506 0
M  V30 4164 H 396.273 3.2957 3.22056 0
M  V30 4165 H 394.588 2.86543 3.02129 0
M  V30 4166 H 397.185 1.16128 5.21937 0
M  V30 4167 H 397.528 -0.183408 4.15896 0
M  V30 4168 H 398.061 1.45307 3.70312 0
M  V30 4169 H 394.8 4.09584 5.11782 0
M  V30 4170 H 394.32 2.42343 5.48662 0
M  V30 4171 H 395.999 2.95282 5.75689 0
M  V30 4172 N 396.131 -1.37776 0.765217 0
M  V30 4173 C 397.359 -2.04124 0.337767 0
M  V30 4174 C 397.774 -1.57715 -1.03785 0
M  V30 4175 O 397.131 -0.755447 -1.6613 0
M  V30 4176 C 397.182 -3.59658 0.364442 0
M  V30 4177 O 396.903 -4.04367 1.68579 0
M  V30 4178 C 398.404 -4.43236 -0.0754221 0
M  V30 4179 H 395.624 -0.655696 0.142491 0
M  V30 4180 H 398.168 -1.76238 1.03732 0
M  V30 4181 H 396.323 -3.86339 -0.286471 0
M  V30 4182 H 396.737 -4.98857 1.61993 0
M  V30 4183 H 398.211 -5.52 -0.00560067 0
M  V30 4184 H 398.688 -4.2455 -1.12491 0
M  V30 4185 H 399.294 -4.21767 0.547055 0
M  V30 4186 N 397.609 -0.515225 -1.4894 0
M  V30 4187 C 398.886 0.0879088 -1.95402 0
M  V30 4188 C 399.266 1.52745 -1.45712 0
M  V30 4189 O 398.614 2.18238 -0.677093 0
M  V30 4190 C 398.824 -0.0141055 -3.48997 0
M  V30 4191 C 400.172 0.152646 -4.24326 0
M  V30 4192 O 401.196 0.0604025 -3.56149 0
M  V30 4193 O 400.055 0.34384 -5.45417 0
M  V30 4194 H 397.149 0.0874636 -0.822362 0
M  V30 4195 H 399.695 -0.578775 -1.59525 0
M  V30 4196 H 398.467 -1.01745 -3.77841 0
M  V30 4197 H 398.09 0.692091 -3.9153 0
M  V30 4198 N 399.087 1.5561 -0.249682 0
M  V30 4199 C 400.037 2.18157 0.662673 0
M  V30 4200 C 401.021 1.1383 1.13717 0
M  V30 4201 O 402.213 1.39731 1.08648 0
M  V30 4202 C 399.342 2.88672 1.85805 0
M  V30 4203 C 398.428 4.00258 1.40193 0
M  V30 4204 N 398.819 5.01473 0.660213 0
M  V30 4205 C 397.117 4.12864 1.68698 0
M  V30 4206 C 397.818 5.80155 0.423695 0
M  V30 4207 N 396.794 5.34533 0.988721 0
M  V30 4208 H 400.596 2.93769 0.0878688 0
M  V30 4209 H 398.11 1.62316 -0.0521183 0
M  V30 4210 H 400.107 3.31912 2.5227 0
M  V30 4211 H 398.767 2.14564 2.43705 0
M  V30 4212 H 399.778 5.16971 0.310047 0
M  V30 4213 H 396.455 3.4993 2.27717 0
M  V30 4214 H 397.845 6.71688 -0.168616 0
M  V30 4215 N 400.565 -0.0233959 1.57583 0
M  V30 4216 C 401.795 -0.723631 1.93513 0
M  V30 4217 C 402.203 -1.69115 0.848333 0
M  V30 4218 O 401.546 -1.82781 -0.183484 0
M  V30 4219 C 401.608 -1.53075 3.25282 0
M  V30 4220 C 401.272 -0.727388 4.51174 0
M  V30 4221 C 402.269 -0.0251924 5.19894 0
M  V30 4222 C 399.954 -0.680256 4.97672 0
M  V30 4223 C 401.948 0.713374 6.33395 0
M  V30 4224 C 399.635 0.0620523 6.11068 0
M  V30 4225 C 400.633 0.757622 6.78785 0
M  V30 4226 O 400.321 1.48787 7.90011 0
M  V30 4227 H 400.053 -0.208051 0.643188 0
M  V30 4228 H 402.607 0.0167489 2.05393 0
M  V30 4229 H 400.837 -2.31508 3.09744 0
M  V30 4230 H 402.526 -2.11413 3.46496 0
M  V30 4231 H 403.292 -0.0526003 4.84971 0
M  V30 4232 H 399.171 -1.21116 4.44805 0
M  V30 4233 H 402.715 1.25683 6.86185 0
M  V30 4234 H 398.612 0.0913634 6.45435 0
M  V30 4235 H 399.38 1.40213 8.06401 0
M  V30 4236 N 402.043 -1.548 -0.295768 0
M  V30 4237 C 403.292 -1.73538 -1.02798 0
M  V30 4238 C 403.605 -0.531159 -1.8825 0
M  V30 4239 O 404.811 -0.600458 -2.64777 0
M  V30 4240 C 403.267 -3.07051 -1.87744 0
M  V30 4241 C 402.875 -4.34968 -1.07269 0
M  V30 4242 C 404.619 -3.35146 -2.60533 0
M  V30 4243 C 402.526 -5.5953 -1.91521 0
M  V30 4244 H 401.456 -0.646794 -0.387522 0
M  V30 4245 H 404.107 -1.81278 -0.284718 0
M  V30 4246 H 402.489 -2.93289 -2.66078 0
M  V30 4247 H 403.663 -4.5958 -0.335117 0
M  V30 4248 H 401.978 -4.13847 -0.460384 0
M  V30 4249 H 404.575 -4.2541 -3.23929 0
M  V30 4250 H 404.918 -2.54255 -3.29636 0
M  V30 4251 H 405.451 -3.49902 -1.89244 0
M  V30 4252 H 402.19 -6.43103 -1.26878 0
M  V30 4253 H 401.71 -5.39096 -2.62937 0
M  V30 4254 H 403.389 -5.96982 -2.49442 0
M  V30 4255 N 403.521 0.559213 -1.47345 0
M  V30 4256 C 404.453 1.68161 -1.55738 0
M  V30 4257 C 405.466 1.56636 -0.443744 0
M  V30 4258 O 406.655 1.6363 -0.713258 0
M  V30 4259 C 403.755 3.06611 -1.4437 0
M  V30 4260 C 402.928 3.4391 -2.70268 0
M  V30 4261 C 401.987 4.61515 -2.52765 0
M  V30 4262 O 401.013 4.66197 -3.26572 0
M  V30 4263 N 402.215 5.57883 -1.6046 0
M  V30 4264 H 404.98 1.61408 -2.52522 0
M  V30 4265 H 402.541 0.7458 -1.43699 0
M  V30 4266 H 404.533 3.83117 -1.30398 0
M  V30 4267 H 403.103 3.07602 -0.556766 0
M  V30 4268 H 402.323 2.56873 -2.99015 0
M  V30 4269 H 403.611 3.65605 -3.53851 0
M  V30 4270 H 403.009 5.56855 -0.996422 0
M  V30 4271 H 401.566 6.33723 -1.52441 0
M  V30 4272 N 404.999 1.35443 0.805782 0
M  V30 4273 C 406.245 1.28952 1.56522 0
M  V30 4274 C 406.578 -0.135597 1.93726 0
M  V30 4275 O 405.853 -1.08516 1.61414 0
M  V30 4276 C 406.136 2.19678 2.85331 0
M  V30 4277 C 405.989 3.7081 2.54598 0
M  V30 4278 C 407.308 2.09495 3.8704 0
M  V30 4279 H 404.427 0.469764 0.567883 0
M  V30 4280 H 407.069 1.65851 0.927001 0
M  V30 4281 H 405.219 1.8834 3.39795 0
M  V30 4282 H 406.891 4.12593 2.06312 0
M  V30 4283 H 405.134 3.91051 1.8778 0
M  V30 4284 H 405.805 4.29679 3.46525 0
M  V30 4285 H 408.281 2.37045 3.41978 0
M  V30 4286 H 407.157 2.75173 4.74943 0
M  V30 4287 H 407.418 1.07714 4.28777 0
M  V30 4288 N 406.477 -1.02803 1.19454 0
M  V30 4289 C 407.407 -2.12999 0.956758 0
M  V30 4290 C 408.388 -1.69743 -0.110188 0
M  V30 4291 O 409.573 -1.94148 0.0450038 0
M  V30 4292 C 406.703 -3.43746 0.495553 0
M  V30 4293 C 405.657 -4.00688 1.50443 0
M  V30 4294 C 404.983 -5.27067 0.900275 0
M  V30 4295 C 406.283 -4.35397 2.8849 0
M  V30 4296 H 407.977 -2.33148 1.87836 0
M  V30 4297 H 405.523 -1.12045 0.904539 0
M  V30 4298 H 407.476 -4.2021 0.316493 0
M  V30 4299 H 406.2 -3.23321 -0.461646 0
M  V30 4300 H 404.859 -3.2632 1.67065 0
M  V30 4301 H 404.507 -5.02959 -0.064503 0
M  V30 4302 H 404.207 -5.66127 1.57397 0
M  V30 4303 H 405.731 -6.06196 0.73203 0
M  V30 4304 H 407.145 -5.02795 2.75446 0
M  V30 4305 H 405.542 -4.85541 3.52661 0
M  V30 4306 H 406.612 -3.44662 3.41081 0
M  V30 4307 N 407.956 -0.998596 -1.21925 0
M  V30 4308 C 408.904 -0.546641 -2.26085 0
M  V30 4309 C 409.898 0.405576 -1.64473 0
M  V30 4310 O 411.104 0.277471 -1.77849 0
M  V30 4311 H 407.479 -0.158403 -0.735127 0
M  V30 4312 H 409.45 -1.43645 -2.61551 0
M  V30 4313 C 408.199 0.117388 -3.47502 0
M  V30 4314 H 407.522 -0.606277 -3.95176 0
M  V30 4315 H 408.962 0.396993 -4.22137 0
M  V30 4316 C 407.421 1.35455 -3.0847 0
M  V30 4317 O 407.951 2.44944 -3.18379 0
M  V30 4318 N 406.157 1.23191 -2.63196 0
M  V30 4319 H 405.704 0.341006 -2.55333 0
M  V30 4320 H 405.662 2.06071 -2.37449 0
M  V30 4321 N 409.434 1.37368 -0.772513 0
M  V30 4322 C 410.674 2.01512 -0.342361 0
M  V30 4323 C 411.038 1.59997 1.06136 0
M  V30 4324 O 412.239 2.16609 1.59167 0
M  V30 4325 C 410.51 3.54134 -0.482048 0
M  V30 4326 S 412.069 4.38585 -0.137272 0
M  V30 4327 H 408.887 0.698699 -0.131686 0
M  V30 4328 H 411.489 1.67552 -1.0073 0
M  V30 4329 H 410.193 3.81837 -1.50428 0
M  V30 4330 H 409.724 3.92894 0.199413 0
M  V30 4331 H 411.739 4.84594 1.06692 0
M  V30 4332 N 410.912 0.523116 1.48665 0
M  V30 4333 C 411.859 -0.243398 2.29513 0
M  V30 4334 C 412.829 -0.940139 1.36933 0
M  V30 4335 O 414.014 -0.942503 1.65896 0
M  V30 4336 C 411.154 -1.28855 3.20141 0
M  V30 4337 C 410.267 -0.60135 4.27794 0
M  V30 4338 C 409.402 -1.62884 5.05611 0
M  V30 4339 C 408.441 -0.924726 6.05075 0
M  V30 4340 N 407.578 -1.89744 6.75975 0
M  V30 4341 H 412.418 0.452234 2.94549 0
M  V30 4342 H 409.955 0.234858 1.45213 0
M  V30 4343 H 411.913 -1.90674 3.71079 0
M  V30 4344 H 410.543 -1.95266 2.57043 0
M  V30 4345 H 409.595 0.130623 3.80176 0
M  V30 4346 H 410.907 -0.0481585 4.98777 0
M  V30 4347 H 410.061 -2.32149 5.60528 0
M  V30 4348 H 408.8 -2.21592 4.34452 0
M  V30 4349 H 407.805 -0.217966 5.49368 0
M  V30 4350 H 409.03 -0.343851 6.78229 0
M  V30 4351 H 406.976 -2.47373 6.07571 0
M  V30 4352 H 406.893 -1.3955 7.43009 0
M  V30 4353 H 408.161 -2.58229 7.35485 0
M  V30 4354 N 412.39 -1.55475 0.257931 0
M  V30 4355 C 413.322 -2.19192 -0.669881 0
M  V30 4356 C 414.335 -1.17148 -1.1305 0
M  V30 4357 O 415.524 -1.43959 -1.05537 0
M  V30 4358 C 412.624 -2.79016 -1.92363 0
M  V30 4359 C 411.797 -4.06586 -1.61265 0
M  V30 4360 C 410.856 -4.50622 -2.7171 0
M  V30 4361 O 409.882 -5.16765 -2.38627 0
M  V30 4362 N 411.084 -4.19325 -4.01431 0
M  V30 4363 H 413.849 -2.99441 -0.124635 0
M  V30 4364 H 411.41 -1.6171 0.0783311 0
M  V30 4365 H 413.402 -3.05427 -2.65511 0
M  V30 4366 H 411.972 -2.0286 -2.37837 0
M  V30 4367 H 411.192 -3.87646 -0.715811 0
M  V30 4368 H 412.48 -4.89737 -1.37967 0
M  V30 4369 H 411.878 -3.66247 -4.31138 0
M  V30 4370 H 410.435 -4.50547 -4.7101 0
M  V30 4371 N 413.868 0.0150385 -1.57593 0
M  V30 4372 C 414.816 1.02958 -2.08572 0
M  V30 4373 C 415.81 1.36554 -1.00246 0
M  V30 4374 O 417.016 1.35295 -1.18724 0
M  V30 4375 H 413.391 0.349619 -0.665786 0
M  V30 4376 H 415.362 0.573932 -2.92829 0
M  V30 4377 C 414.111 2.31752 -2.59203 0
M  V30 4378 H 413.434 2.06765 -3.42182 0
M  V30 4379 H 414.874 3.01053 -2.98568 0
M  V30 4380 C 413.333 3.01692 -1.49945 0
M  V30 4381 O 413.863 3.92083 -0.873704 0
M  V30 4382 N 412.069 2.6326 -1.23056 0
M  V30 4383 H 411.616 1.89838 -1.74125 0
M  V30 4384 H 411.574 3.10372 -0.501685 0
M  V30 4385 N 415.346 1.54954 0.287554 0
M  V30 4386 C 416.586 1.76617 1.02887 0
M  V30 4387 C 416.95 0.547759 1.84021 0
M  V30 4388 O 418.151 0.642365 2.61012 0
M  V30 4389 C 416.422 3.02717 1.89993 0
M  V30 4390 S 417.981 3.45438 2.70588 0
M  V30 4391 H 414.799 0.6207 0.346775 0
M  V30 4392 H 417.401 1.93172 0.30082 0
M  V30 4393 H 416.105 3.89503 1.29287 0
M  V30 4394 H 415.636 2.88787 2.67144 0
M  V30 4395 H 417.651 3.03566 3.92508 0
M  V30 4396 N 416.824 -0.551391 1.4764 0
M  V30 4397 C 418.07 -1.31024 1.54792 0
M  V30 4398 C 418.403 -1.9304 0.211967 0
M  V30 4399 O 417.678 -1.78175 -0.77999 0
M  V30 4400 C 417.961 -2.41593 2.67029 0
M  V30 4401 C 417.814 -1.84408 4.10261 0
M  V30 4402 C 419.133 -3.43488 2.75143 0
M  V30 4403 H 416.252 -0.475031 0.563485 0
M  V30 4404 H 418.894 -0.616454 1.79722 0
M  V30 4405 H 417.044 -3.00772 2.45904 0
M  V30 4406 H 418.716 -1.29445 4.42766 0
M  V30 4407 H 416.959 -1.15051 4.18265 0
M  V30 4408 H 417.63 -2.64367 4.84576 0
M  V30 4409 H 420.106 -2.94236 2.94218 0
M  V30 4410 H 418.982 -4.18274 3.55441 0
M  V30 4411 H 419.243 -4.02703 1.82435 0
M  V30 4412 N 418.302 -1.35869 -0.798587 0
M  V30 4413 C 419.53 -1.32722 -1.58722 0
M  V30 4414 C 419.945 0.0935631 -1.88568 0
M  V30 4415 O 419.302 1.04784 -1.49421 0
M  V30 4416 C 419.353 -2.13974 -2.91371 0
M  V30 4417 O 419.074 -3.50514 -2.62815 0
M  V30 4418 C 420.575 -2.18504 -3.85708 0
M  V30 4419 H 417.795 -0.45562 -0.492596 0
M  V30 4420 H 420.339 -1.78837 -0.991843 0
M  V30 4421 H 418.494 -1.71438 -3.47402 0
M  V30 4422 H 418.908 -3.92806 -3.47568 0
M  V30 4423 H 420.382 -2.79732 -4.75872 0
M  V30 4424 H 420.859 -1.18597 -4.22885 0
M  V30 4425 H 421.465 -2.61236 -3.35612 0
M  V30 4426 N 419.78 1.02168 -1.19998 0
M  V30 4427 C 420.69 2.14069 -0.959774 0
M  V30 4428 C 421.706 1.73804 0.082655 0
M  V30 4429 O 422.882 2.01133 -0.103633 0
M  V30 4430 C 419.947 3.42936 -0.509459 0
M  V30 4431 C 419.008 3.97474 -1.62213 0
M  V30 4432 C 418.241 5.2019 -1.19321 0
M  V30 4433 O 418.464 5.70369 -0.0597726 0
M  V30 4434 O 417.398 5.67749 -1.99863 0
M  V30 4435 H 421.224 2.37199 -1.89658 0
M  V30 4436 H 418.809 1.12469 -0.983411 0
M  V30 4437 H 420.691 4.20551 -0.267322 0
M  V30 4438 H 419.366 3.21234 0.398821 0
M  V30 4439 H 418.273 3.21161 -1.9185 0
M  V30 4440 H 419.606 4.23555 -2.50723 0
M  V30 4441 N 421.258 1.00505 1.21394 0
M  V30 4442 C 422.188 0.585684 2.26035 0
M  V30 4443 C 423.169 -0.393525 1.65485 0
M  V30 4444 O 424.354 -0.281497 1.92149 0
M  V30 4445 C 421.484 -0.0884283 3.47187 0
M  V30 4446 C 420.438 0.810567 4.20254 0
M  V30 4447 C 419.764 0.00286382 5.347 0
M  V30 4448 C 421.064 2.1132 4.77641 0
M  V30 4449 H 422.758 1.46039 2.61368 0
M  V30 4450 H 420.304 0.703648 1.25638 0
M  V30 4451 H 422.257 -0.393286 4.19561 0
M  V30 4452 H 420.981 -0.997766 3.10986 0
M  V30 4453 H 419.64 1.09925 3.49731 0
M  V30 4454 H 419.288 -0.907765 4.94741 0
M  V30 4455 H 418.988 0.601444 5.84514 0
M  V30 4456 H 420.512 -0.295808 6.09883 0
M  V30 4457 H 421.926 1.87148 5.41893 0
M  V30 4458 H 420.323 2.66164 5.37845 0
M  V30 4459 H 421.393 2.78393 3.9702 0
M  V30 4460 N 422.737 -1.36956 0.779787 0
M  V30 4461 C 423.7 -2.2851 0.177662 0
M  V30 4462 C 424.7 -1.48393 -0.619377 0
M  V30 4463 O 425.89 -1.68505 -0.441785 0
M  V30 4464 C 423.022 -3.32428 -0.755279 0
M  V30 4465 H 424.215 -2.83269 0.984823 0
M  V30 4466 H 421.768 -1.46358 0.548544 0
M  V30 4467 H 422.503 -2.82808 -1.58714 0
M  V30 4468 H 422.288 -3.91659 -0.185817 0
M  V30 4469 H 423.778 -4.00824 -1.17174 0
M  V30 4470 N 424.215 -0.530993 -1.48385 0
M  V30 4471 C 425.44 0.000729535 -2.074 0
M  V30 4472 C 425.865 1.27298 -1.3848 0
M  V30 4473 O 425.223 1.75599 -0.451081 0
M  V30 4474 C 425.271 0.206697 -3.60007 0
M  V30 4475 O 424.375 1.27514 -3.92191 0
M  V30 4476 H 423.716 -0.039583 -0.662819 0
M  V30 4477 H 426.246 -0.739194 -1.9078 0
M  V30 4478 H 426.256 0.42904 -4.05738 0
M  V30 4479 H 424.931 -0.722675 -4.09573 0
M  V30 4480 H 423.508 1.03537 -3.58238 0
M  V30 4481 N 425.693 1.55336 -0.266172 0
M  V30 4482 C 426.643 2.18848 0.639497 0
M  V30 4483 C 427.627 1.1503 1.12503 0
M  V30 4484 O 428.819 1.40875 1.0716 0
M  V30 4485 C 425.948 2.90626 1.82733 0
M  V30 4486 C 425.034 4.01723 1.35939 0
M  V30 4487 N 425.425 5.02145 0.606988 0
M  V30 4488 C 423.723 4.1463 1.6431 0
M  V30 4489 C 424.424 5.80572 0.362138 0
M  V30 4490 N 423.4 5.35551 0.931971 0
M  V30 4491 H 427.202 2.93845 0.0567057 0
M  V30 4492 H 424.716 1.62252 -0.0693312 0
M  V30 4493 H 426.713 3.34569 2.48735 0
M  V30 4494 H 425.373 2.17137 2.41416 0
M  V30 4495 H 426.384 5.17271 0.255198 0
M  V30 4496 H 423.061 3.52326 2.23993 0
M  V30 4497 H 424.451 6.71472 -0.239848 0
M  V30 4498 N 427.171 -0.0066808 1.57599 0
M  V30 4499 C 428.582 -0.550379 1.78403 0
M  V30 4500 C 428.933 -1.74339 0.900014 0
M  V30 4501 O 428.058 -2.16166 0.100713 0
M  V30 4502 C 428.653 -1.00523 3.23544 0
M  V30 4503 C 427.212 -1.49428 3.45468 0
M  V30 4504 C 426.359 -0.442444 2.73748 0
M  V30 4505 H 429.31 0.219508 1.57175 0
M  V30 4506 H 429.331 -1.87157 3.31289 0
M  V30 4507 H 428.843 -0.136735 3.87859 0
M  V30 4508 H 426.944 -2.3839 2.86358 0
M  V30 4509 H 427.057 -1.52635 4.54136 0
M  V30 4510 H 425.421 -0.902578 2.38171 0
M  V30 4511 H 426.204 0.416973 3.40758 0
M  V30 4512 N 428.649 -1.55105 -0.279332 0
M  V30 4513 C 429.874 -1.7976 -1.03446 0
M  V30 4514 C 430.299 -0.565952 -1.79384 0
M  V30 4515 O 429.657 0.484259 -1.74713 0
M  V30 4516 C 429.705 -3.0179 -1.97371 0
M  V30 4517 O 428.809 -2.76432 -3.06038 0
M  V30 4518 H 428.15 -0.594334 -0.29608 0
M  V30 4519 H 430.68 -2.02235 -0.310165 0
M  V30 4520 H 430.69 -3.30351 -2.39441 0
M  V30 4521 H 429.365 -3.91085 -1.4151 0
M  V30 4522 H 427.942 -2.58949 -2.68328 0
M  V30 4523 N 430.127 0.543554 -1.4793 0
M  V30 4524 C 431.543 0.870806 -1.3375 0
M  V30 4525 C 431.743 1.9864 -0.338261 0
M  V30 4526 O 430.799 2.51305 0.245371 0
M  V30 4527 C 432.112 1.25114 -2.73435 0
M  V30 4528 C 433.66 1.3618 -2.81823 0
M  V30 4529 C 434.135 1.77563 -4.22179 0
M  V30 4530 N 435.626 1.8469 -4.24787 0
M  V30 4531 C 436.361 2.18067 -5.30315 0
M  V30 4532 N 435.857 2.49963 -6.46135 0
M  V30 4533 N 437.65 2.18958 -5.17701 0
M  V30 4534 H 429.801 -0.19275 -2.11524 0
M  V30 4535 H 432.064 -0.0235777 -0.947707 0
M  V30 4536 H 431.77 0.50514 -3.48053 0
M  V30 4537 H 431.644 2.20431 -3.06088 0
M  V30 4538 H 434.031 2.09859 -2.07468 0
M  V30 4539 H 434.112 0.390169 -2.52807 0
M  V30 4540 H 433.756 1.04449 -4.97044 0
M  V30 4541 H 433.686 2.75753 -4.48629 0
M  V30 4542 H 436.177 1.62372 -3.41239 0
M  V30 4543 H 436.49 2.74497 -7.22406 0
M  V30 4544 H 434.835 2.47513 -6.49432 0
M  V30 4545 H 438.026 1.93488 -4.2624 0
M  V30 4546 H 438.199 2.44639 -6.00047 0
M  V30 4547 N 431.605 1.3629 0.791371 0
M  V30 4548 C 432.515 1.32606 1.93527 0
M  V30 4549 C 433.531 0.228541 1.72493 0
M  V30 4550 O 434.707 0.460571 1.96063 0
M  V30 4551 C 431.772 1.11271 3.28359 0
M  V30 4552 C 430.833 2.3048 3.62185 0
M  V30 4553 C 430.066 2.10154 4.90583 0
M  V30 4554 O 430.289 1.07572 5.60165 0
M  V30 4555 O 429.223 2.97884 5.23019 0
M  V30 4556 H 433.049 2.28909 1.99585 0
M  V30 4557 H 430.634 1.16818 0.931344 0
M  V30 4558 H 432.516 1.01283 4.09047 0
M  V30 4559 H 431.191 0.180292 3.23198 0
M  V30 4560 H 430.098 2.46036 2.81811 0
M  V30 4561 H 431.431 3.22221 3.72068 0
M  V30 4562 N 433.083 -1.0153 1.20538 0
M  V30 4563 C 434.03 -2.10098 0.955383 0
M  V30 4564 C 435 -1.65702 -0.114878 0
M  V30 4565 O 436.185 -1.90776 0.0301118 0
M  V30 4566 C 433.325 -3.41236 0.514969 0
M  V30 4567 C 432.438 -3.99102 1.65353 0
M  V30 4568 C 431.573 -5.18306 1.16329 0
M  V30 4569 C 430.612 -5.68258 2.27485 0
M  V30 4570 N 429.749 -6.78722 1.7967 0
M  V30 4571 H 434.589 -2.30818 1.88486 0
M  V30 4572 H 432.126 -1.13189 0.939499 0
M  V30 4573 H 434.084 -4.16504 0.240935 0
M  V30 4574 H 432.714 -3.20585 -0.377512 0
M  V30 4575 H 431.766 -3.20918 2.04245 0
M  V30 4576 H 433.078 -4.32177 2.49047 0
M  V30 4577 H 432.232 -6.00782 0.845302 0
M  V30 4578 H 430.971 -4.86799 0.296254 0
M  V30 4579 H 429.976 -4.84385 2.60099 0
M  V30 4580 H 431.201 -6.01798 3.14667 0
M  V30 4581 H 429.147 -6.49042 0.95295 0
M  V30 4582 H 429.064 -7.10996 2.56944 0
M  V30 4583 H 430.332 -7.64759 1.50875 0
M  V30 4584 N 434.561 -1.01147 -1.20859 0
M  V30 4585 C 435.972 -0.730205 -1.71828 0
M  V30 4586 C 436.323 0.751662 -1.8123 0
M  V30 4587 O 435.448 1.58686 -1.47132 0
M  V30 4588 C 436.043 -1.31885 -3.12077 0
M  V30 4589 C 434.602 -1.08656 -3.60376 0
M  V30 4590 C 433.749 -1.42769 -2.37723 0
M  V30 4591 H 436.7 -1.18158 -1.05945 0
M  V30 4592 H 436.721 -0.706793 -3.73878 0
M  V30 4593 H 436.233 -2.39737 -3.05201 0
M  V30 4594 H 434.334 -0.0254814 -3.72591 0
M  V30 4595 H 434.447 -1.76301 -4.45483 0
M  V30 4596 H 432.811 -0.846603 -2.40218 0
M  V30 4597 H 433.594 -2.51666 -2.33493 0
M  V30 4598 N 436.039 1.36541 -0.78704 0
M  V30 4599 C 437.286 1.99304 -0.358341 0
M  V30 4600 C 437.614 1.62467 1.06933 0
M  V30 4601 O 436.869 0.870019 1.75297 0
M  V30 4602 C 437.168 3.54343 -0.466485 0
M  V30 4603 C 436.834 4.10993 -1.85461 0
M  V30 4604 C 435.496 4.26177 -2.23443 0
M  V30 4605 C 437.848 4.41895 -2.76366 0
M  V30 4606 C 435.176 4.69573 -3.51736 0
M  V30 4607 C 437.528 4.86722 -4.04084 0
M  V30 4608 C 436.192 5.00112 -4.42091 0
M  V30 4609 H 435.462 0.729306 -0.131126 0
M  V30 4610 H 438.109 1.63068 -1.00404 0
M  V30 4611 H 436.414 3.90918 0.262719 0
M  V30 4612 H 438.111 4.00833 -0.115854 0
M  V30 4613 H 434.701 3.99612 -1.54946 0
M  V30 4614 H 438.885 4.29735 -2.48277 0
M  V30 4615 H 434.141 4.78127 -3.81057 0
M  V30 4616 H 438.315 5.09598 -4.7464 0
M  V30 4617 H 435.942 5.33498 -5.41557 0
M  V30 4618 N 437.518 0.538854 1.48102 0
M  V30 4619 C 438.428 -0.222648 2.33541 0
M  V30 4620 C 439.444 -0.930225 1.47047 0
M  V30 4621 O 440.62 -0.903211 1.80011 0
M  V30 4622 C 437.685 -1.25064 3.23357 0
M  V30 4623 C 436.746 -0.552469 4.2573 0
M  V30 4624 C 435.979 -1.53149 5.11254 0
M  V30 4625 O 436.202 -2.76487 4.9891 0
M  V30 4626 O 435.136 -1.06602 5.92385 0
M  V30 4627 H 438.962 0.477707 2.99919 0
M  V30 4628 H 436.547 0.299669 1.46364 0
M  V30 4629 H 438.429 -1.8445 3.78888 0
M  V30 4630 H 437.104 -1.93325 2.59629 0
M  V30 4631 H 436.011 0.082114 3.7401 0
M  V30 4632 H 437.344 0.0883526 4.92121 0
M  V30 4633 N 438.996 -1.55193 0.274407 0
M  V30 4634 C 440.273 -1.91584 -0.394331 0
M  V30 4635 C 440.653 -1.19858 -1.73774 0
M  V30 4636 O 440.001 -0.3252 -2.26174 0
M  V30 4637 C 440.211 -3.4487 -0.535311 0
M  V30 4638 C 441.559 -4.16636 -0.818534 0
M  V30 4639 O 442.583 -3.5076 -0.620146 0
M  V30 4640 O 441.442 -5.33209 -1.19792 0
M  V30 4641 H 438.536 -0.798349 -0.215794 0
M  V30 4642 H 441.082 -1.66646 0.320507 0
M  V30 4643 H 439.854 -3.89145 0.410141 0
M  V30 4644 H 439.477 -3.75759 -1.29964 0
M  V30 4645 N 440.474 -0.00167713 -1.576 0
M  V30 4646 C 441.721 0.68282 -1.90641 0
M  V30 4647 C 442.049 1.73686 -0.875415 0
M  V30 4648 O 441.304 1.95334 0.119575 0
M  V30 4649 C 441.603 1.36189 -3.30435 0
M  V30 4650 C 441.269 0.440887 -4.48739 0
M  V30 4651 C 439.931 0.187312 -4.80835 0
M  V30 4652 C 442.283 -0.193134 -5.20842 0
M  V30 4653 C 439.611 -0.70855 -5.82406 0
M  V30 4654 C 441.963 -1.07688 -6.23367 0
M  V30 4655 C 440.627 -1.33962 -6.53919 0
M  V30 4656 H 439.897 0.249862 -0.697603 0
M  V30 4657 H 442.544 -0.0575642 -1.91413 0
M  V30 4658 H 440.849 2.17636 -3.25794 0
M  V30 4659 H 442.546 1.89759 -3.5326 0
M  V30 4660 H 439.136 0.648694 -4.23663 0
M  V30 4661 H 443.32 -0.0102445 -4.96299 0
M  V30 4662 H 438.576 -0.920097 -6.04437 0
M  V30 4663 H 442.75 -1.57451 -6.78367 0
M  V30 4664 H 440.377 -2.03549 -7.32442 0
M  V30 4665 N 441.952 1.55251 0.271103 0
M  V30 4666 C 442.882 1.9127 1.33933 0
M  V30 4667 C 443.863 0.77478 1.5143 0
M  V30 4668 O 445.048 1.03307 1.64442 0
M  V30 4669 C 442.178 2.18627 2.69851 0
M  V30 4670 C 441.132 3.34442 2.67081 0
M  V30 4671 C 440.458 3.47284 4.06569 0
M  V30 4672 C 441.758 4.70784 2.26185 0
M  V30 4673 H 443.452 2.80744 1.04035 0
M  V30 4674 H 440.998 1.35077 0.499017 0
M  V30 4675 H 442.951 2.42413 3.44694 0
M  V30 4676 H 441.675 1.25955 3.01335 0
M  V30 4677 H 440.334 3.10627 1.94695 0
M  V30 4678 H 439.982 2.52074 4.35279 0
M  V30 4679 H 439.682 4.25152 4.0561 0
M  V30 4680 H 441.206 3.73363 4.83148 0
M  V30 4681 H 442.62 4.94102 2.90751 0
M  V30 4682 H 441.017 5.51582 2.36384 0
M  V30 4683 H 442.087 4.69478 1.21319 0
M  V30 4684 N 443.43 -0.535701 1.48216 0
M  V30 4685 C 444.841 -1.11769 1.49548 0
M  V30 4686 C 445.192 -1.94442 0.26207 0
M  V30 4687 O 444.317 -2.06987 -0.631287 0
M  V30 4688 C 444.912 -2.03367 2.70975 0
M  V30 4689 C 443.471 -2.56795 2.75196 0
M  V30 4690 C 442.618 -1.33631 2.42977 0
M  V30 4691 H 445.569 -0.321232 1.55415 0
M  V30 4692 H 445.59 -2.87569 2.49167 0
M  V30 4693 H 445.102 -1.43169 3.60727 0
M  V30 4694 H 443.203 -3.20731 1.89638 0
M  V30 4695 H 443.316 -2.9632 3.76472 0
M  V30 4696 H 441.68 -1.6502 1.94012 0
M  V30 4697 H 442.463 -0.75194 3.34964 0
M  V30 4698 N 444.908 -1.36708 -0.784132 0
M  V30 4699 C 446.133 -1.34565 -1.5782 0
M  V30 4700 C 446.558 0.0695257 -1.87971 0
M  V30 4701 O 445.916 1.04302 -1.48293 0
M  V30 4702 C 445.964 -2.17952 -2.87279 0
M  V30 4703 O 445.068 -1.57563 -3.81114 0
M  V30 4704 H 444.409 -0.460337 -0.478524 0
M  V30 4705 H 446.939 -1.80064 -0.971495 0
M  V30 4706 H 446.949 -2.30721 -3.365 0
M  V30 4707 H 445.624 -3.20823 -2.64661 0
M  V30 4708 H 444.201 -1.53764 -3.39722 0
M  V30 4709 N 446.386 1.0089 -1.21074 0
M  V30 4710 C 447.336 2.0799 -0.934034 0
M  V30 4711 C 448.32 1.60529 0.10919 0
M  V30 4712 O 449.512 1.76722 -0.0992198 0
M  V30 4713 C 446.641 3.39693 -0.496334 0
M  V30 4714 C 445.727 3.93833 -1.57341 0
M  V30 4715 N 446.118 4.21388 -2.7976 0
M  V30 4716 C 444.416 4.22067 -1.44137 0
M  V30 4717 C 445.117 4.65156 -3.49292 0
M  V30 4718 N 444.093 4.67895 -2.76722 0
M  V30 4719 H 447.895 2.27213 -1.86417 0
M  V30 4720 H 445.409 1.18927 -1.10589 0
M  V30 4721 H 447.406 4.15962 -0.279471 0
M  V30 4722 H 446.066 3.21879 0.427084 0
M  V30 4723 H 447.077 4.10061 -3.1634 0
M  V30 4724 H 443.754 4.1341 -0.582947 0
M  V30 4725 H 445.144 4.95231 -4.54088 0
M  V30 4726 N 447.864 1.01787 1.20321 0
M  V30 4727 C 449.094 0.72614 1.93419 0
M  V30 4728 C 449.502 -0.717317 1.75075 0
M  V30 4729 O 448.845 -1.49836 1.06278 0
M  V30 4730 C 448.907 0.983621 3.45782 0
M  V30 4731 C 448.571 2.41645 3.87888 0
M  V30 4732 C 449.568 3.39732 3.93545 0
M  V30 4733 C 447.253 2.75752 4.19841 0
M  V30 4734 C 449.247 4.69988 4.30569 0
M  V30 4735 C 446.934 4.06221 4.56539 0
M  V30 4736 C 447.932 5.0315 4.61876 0
M  V30 4737 O 447.62 6.31284 4.97731 0
M  V30 4738 H 447.352 0.265824 0.621541 0
M  V30 4739 H 449.906 1.3623 1.53722 0
M  V30 4740 H 448.136 0.290301 3.85609 0
M  V30 4741 H 449.825 0.683279 4.00108 0
M  V30 4742 H 450.591 3.14718 3.69022 0
M  V30 4743 H 446.47 2.00993 4.14877 0
M  V30 4744 H 450.014 5.45642 4.3465 0
M  V30 4745 H 445.911 4.31013 4.80518 0
M  V30 4746 H 446.679 6.35591 5.15719 0
M  V30 4747 N 449.342 -1.36122 0.79427 0
M  V30 4748 C 450.29 -2.31871 0.184023 0
M  V30 4749 C 451.284 -1.56041 -0.659365 0
M  V30 4750 O 452.49 -1.71266 -0.553906 0
M  V30 4751 H 448.865 -0.750896 0.0407373 0
M  V30 4752 H 450.836 -2.80898 1.00693 0
M  V30 4753 C 449.585 -3.41324 -0.662813 0
M  V30 4754 H 448.908 -3.99793 -0.0231944 0
M  V30 4755 H 450.348 -4.10629 -1.05639 0
M  V30 4756 C 448.807 -2.83308 -1.82313 0
M  V30 4757 O 449.337 -2.75863 -2.91997 0
M  V30 4758 N 447.543 -2.40529 -1.63077 0
M  V30 4759 H 447.09 -2.46785 -0.738591 0
M  V30 4760 H 447.048 -2.02059 -2.40872 0
M  V30 4761 N 450.82 -0.546701 -1.47814 0
M  V30 4762 C 452.05 -0.0232519 -2.06587 0
M  V30 4763 C 452.458 1.2712 -1.40133 0
M  V30 4764 O 451.801 1.77091 -0.488305 0
M  V30 4765 C 451.863 0.254117 -3.58601 0
M  V30 4766 C 451.527 -0.949331 -4.47031 0
M  V30 4767 C 452.524 -1.85216 -4.85789 0
M  V30 4768 C 450.209 -1.16104 -4.88697 0
M  V30 4769 C 452.203 -2.95047 -5.65001 0
M  V30 4770 C 449.89 -2.26247 -5.67676 0
M  V30 4771 C 450.888 -3.1555 -6.05737 0
M  V30 4772 O 450.576 -4.23784 -6.83127 0
M  V30 4773 H 450.308 -0.0380082 -0.674931 0
M  V30 4774 H 452.862 -0.756631 -1.90956 0
M  V30 4775 H 451.092 1.04168 -3.72406 0
M  V30 4776 H 452.781 0.72167 -3.99433 0
M  V30 4777 H 453.547 -1.70061 -4.54207 0
M  V30 4778 H 449.426 -0.475159 -4.58545 0
M  V30 4779 H 452.97 -3.64778 -5.94628 0
M  V30 4780 H 448.867 -2.41379 -5.98671 0
M  V30 4781 H 449.635 -4.21701 -7.01506 0
M  V30 4782 N 452.299 1.55045 -0.282633 0
M  V30 4783 C 453.229 2.2579 0.595066 0
M  V30 4784 C 454.21 1.25074 1.15284 0
M  V30 4785 O 455.395 1.5381 1.18559 0
M  V30 4786 C 452.525 2.98472 1.77572 0
M  V30 4787 C 451.479 4.0618 1.34914 0
M  V30 4788 C 450.805 4.66477 2.6135 0
M  V30 4789 C 452.105 5.1996 0.493821 0
M  V30 4790 H 453.799 2.994 0.00505653 0
M  V30 4791 H 451.345 1.44 0.000992001 0
M  V30 4792 H 453.298 3.46677 2.39568 0
M  V30 4793 H 452.022 2.2241 2.39168 0
M  V30 4794 H 450.681 3.58797 0.752338 0
M  V30 4795 H 450.329 3.87074 3.2122 0
M  V30 4796 H 450.029 5.39207 2.33516 0
M  V30 4797 H 451.553 5.17435 3.24181 0
M  V30 4798 H 452.967 5.64172 1.01898 0
M  V30 4799 H 451.364 5.99299 0.310047 0
M  V30 4800 H 452.434 4.82462 -0.485593 0
M  V30 4801 N 453.777 0.010035 1.57597 0
M  V30 4802 C 454.709 -1.00649 2.05918 0
M  V30 4803 C 455.722 -1.30077 0.978964 0
M  V30 4804 O 456.911 -1.26878 1.25556 0
M  V30 4805 C 454.011 -2.33876 2.45265 0
M  V30 4806 C 453.184 -2.23242 3.7614 0
M  V30 4807 C 452.243 -3.39242 4.02245 0
M  V30 4808 O 451.269 -3.1698 4.72771 0
M  V30 4809 N 452.471 -4.6242 3.50924 0
M  V30 4810 H 455.236 -0.594333 2.93748 0
M  V30 4811 H 452.797 -0.17714 1.60928 0
M  V30 4812 H 454.789 -3.1027 2.59836 0
M  V30 4813 H 453.359 -2.66799 1.62902 0
M  V30 4814 H 452.579 -1.31696 3.71551 0
M  V30 4815 H 453.867 -2.13321 4.61922 0
M  V30 4816 H 453.265 -4.83404 2.93832 0
M  V30 4817 H 451.822 -5.36046 3.70807 0
M  V30 4818 N 455.255 -1.55392 -0.262866 0
M  V30 4819 C 456.502 -1.76476 -0.993109 0
M  V30 4820 C 456.83 -0.571479 -1.85915 0
M  V30 4821 O 456.085 0.445733 -1.90556 0
M  V30 4822 C 456.384 -3.02889 -1.89718 0
M  V30 4823 C 456.05 -4.34974 -1.18781 0
M  V30 4824 C 454.712 -4.7087 -0.991699 0
M  V30 4825 C 457.064 -5.16695 -0.683798 0
M  V30 4826 C 454.392 -5.86036 -0.279024 0
M  V30 4827 C 456.744 -6.32598 0.0153327 0
M  V30 4828 C 455.408 -6.67127 0.223062 0
M  V30 4829 H 454.678 -0.64577 -0.363404 0
M  V30 4830 H 457.325 -1.89664 -0.264525 0
M  V30 4831 H 455.63 -2.84644 -2.6923 0
M  V30 4832 H 457.327 -3.16399 -2.46359 0
M  V30 4833 H 453.917 -4.06765 -1.35058 0
M  V30 4834 H 458.101 -4.8943 -0.8229 0
M  V30 4835 H 453.357 -6.11306 -0.107456 0
M  V30 4836 H 457.531 -6.95171 0.413584 0
M  V30 4837 H 455.158 -7.56216 0.777265 0
M  V30 4838 N 456.733 0.527833 -1.48498 0
M  V30 4839 C 457.696 1.61439 -1.62696 0
M  V30 4840 C 458.696 1.52824 -0.500136 0
M  V30 4841 O 459.886 1.56456 -0.765976 0
M  V30 4842 C 457.018 3.01063 -1.59918 0
M  V30 4843 H 458.211 1.50189 -2.59583 0
M  V30 4844 H 455.764 0.750055 -1.37127 0
M  V30 4845 H 456.499 3.17818 -0.645163 0
M  V30 4846 H 456.284 3.08725 -2.41726 0
M  V30 4847 H 457.774 3.80057 -1.73051 0
M  V30 4848 N 458.211 1.37122 0.776871 0
M  V30 4849 C 459.441 1.35034 1.56363 0
M  V30 4850 C 459.849 -0.0674681 1.8908 0
M  V30 4851 O 459.192 -1.03826 1.51545 0
M  V30 4852 C 459.254 2.11894 2.90415 0
M  V30 4853 C 458.918 3.60897 2.80362 0
M  V30 4854 C 459.915 4.54887 2.51742 0
M  V30 4855 C 457.6 4.03951 2.98545 0
M  V30 4856 C 459.594 5.89909 2.41426 0
M  V30 4857 C 457.281 5.3906 2.87849 0
M  V30 4858 C 458.279 6.31852 2.5933 0
M  V30 4859 O 457.967 7.64479 2.48651 0
M  V30 4860 H 457.699 0.464402 0.49123 0
M  V30 4861 H 460.253 1.80992 0.971127 0
M  V30 4862 H 458.483 1.60618 3.51765 0
M  V30 4863 H 460.172 2.02505 3.51776 0
M  V30 4864 H 460.938 4.22934 2.37385 0
M  V30 4865 H 456.817 3.3209 3.19746 0
M  V30 4866 H 460.361 6.62304 2.19086 0
M  V30 4867 H 456.258 5.70617 3.01773 0
M  V30 4868 H 457.026 7.74742 2.64039 0
M  V30 4869 N 459.689 -1.00246 1.21608 0
M  V30 4870 C 460.919 -1.77373 1.05935 0
M  V30 4871 C 461.327 -1.85059 -0.393686 0
M  V30 4872 O 460.67 -1.31289 -1.28487 0
M  V30 4873 C 460.732 -3.22705 1.58435 0
M  V30 4874 C 460.396 -3.38591 3.06929 0
M  V30 4875 C 461.393 -3.2667 4.04454 0
M  V30 4876 C 459.078 -3.6395 3.46187 0
M  V30 4877 C 461.072 -3.39877 5.39224 0
M  V30 4878 C 458.759 -3.768 4.81108 0
M  V30 4879 C 459.757 -3.6477 5.77436 0
M  V30 4880 O 459.445 -3.77206 7.09909 0
M  V30 4881 H 459.177 -0.56419 0.372378 0
M  V30 4882 H 461.731 -1.26971 1.61454 0
M  V30 4883 H 459.961 -3.74255 0.973147 0
M  V30 4884 H 461.65 -3.81515 1.38568 0
M  V30 4885 H 462.416 -3.06999 3.75468 0
M  V30 4886 H 458.295 -3.72395 2.71741 0
M  V30 4887 H 461.839 -3.30404 6.14393 0
M  V30 4888 H 457.736 -3.95975 5.09779 0
M  V30 4889 H 458.504 -3.94138 7.17355 0
M  V30 4890 N 461.167 -1.02423 -1.1978 0
M  V30 4891 C 462.115 -0.594474 -2.24875 0
M  V30 4892 C 463.109 0.370598 -1.65296 0
M  V30 4893 O 464.315 0.239684 -1.78397 0
M  V30 4894 H 460.69 -0.173961 -0.731602 0
M  V30 4895 H 462.661 -1.4916 -2.58445 0
M  V30 4896 C 461.41 0.0436512 -3.47673 0
M  V30 4897 H 460.733 -0.689963 -3.93801 0
M  V30 4898 H 462.173 0.307362 -4.22884 0
M  V30 4899 C 460.632 1.28881 -3.11274 0
M  V30 4900 O 461.162 2.38135 -3.23503 0
M  V30 4901 N 459.368 1.1758 -2.6575 0
M  V30 4902 H 458.915 0.286769 -2.55999 0
M  V30 4903 H 458.873 2.00988 -2.41767 0
M  V30 4904 N 462.645 1.35699 -0.801477 0
M  V30 4905 C 463.894 1.98165 -0.375979 0
M  V30 4906 C 464.207 1.64306 1.06127 0
M  V30 4907 O 465.413 2.20097 1.58964 0
M  V30 4908 C 463.869 3.54497 -0.621305 0
M  V30 4909 C 463.477 3.9727 -2.07076 0
M  V30 4910 C 465.221 4.23697 -0.26091 0
M  V30 4911 C 463.128 5.46427 -2.26211 0
M  V30 4912 H 462.058 0.741478 -0.136844 0
M  V30 4913 H 464.709 1.54834 -0.984814 0
M  V30 4914 H 463.091 3.95958 0.0574112 0
M  V30 4915 H 464.265 3.66974 -2.78687 0
M  V30 4916 H 462.58 3.40943 -2.39054 0
M  V30 4917 H 465.177 5.33334 -0.381994 0
M  V30 4918 H 465.52 4.0869 0.792344 0
M  V30 4919 H 466.053 3.87639 -0.893339 0
M  V30 4920 H 462.792 5.66396 -3.29963 0
M  V30 4921 H 462.312 5.78309 -1.59119 0
M  V30 4922 H 463.991 6.12819 -2.07513 0
M  V30 4923 N 464.123 0.554532 1.47522 0
M  V30 4924 C 465.371 0.0294208 2.02079 0
M  V30 4925 C 465.692 -1.32411 1.43151 0
M  V30 4926 O 464.962 -1.863 0.605728 0
M  V30 4927 H 463.542 0.00788672 0.746958 0
M  V30 4928 H 466.204 0.723934 1.80956 0
M  V30 4929 H 465.3 -0.0606745 3.12041 0
M  V30 4930 N 465.601 -1.54893 0.290851 0
M  V30 4931 C 466.549 -2.24579 -0.605576 0
M  V30 4932 C 467.543 -1.24824 -1.14522 0
M  V30 4933 O 468.749 -1.42706 -1.09704 0
M  V30 4934 H 465.124 -0.720946 -0.213872 0
M  V30 4935 H 467.095 -2.984 0.0048173 0
M  V30 4936 C 465.844 -2.99224 -1.77088 0
M  V30 4937 H 465.167 -3.75782 -1.36484 0
M  V30 4938 H 466.607 -3.51281 -2.3744 0
M  V30 4939 C 465.066 -2.05602 -2.66888 0
M  V30 4940 O 465.596 -1.61745 -3.67698 0
M  V30 4941 N 463.802 -1.71771 -2.34399 0
M  V30 4942 H 463.349 -2.07633 -1.52468 0
M  V30 4943 H 463.307 -1.09403 -2.94751 0
M  V30 4944 N 467.08 -0.0183926 -1.57589 0
M  V30 4945 C 468.31 0.67207 -1.95363 0
M  V30 4946 C 468.718 1.66807 -0.892872 0
M  V30 4947 O 468.061 1.83204 0.134958 0
M  V30 4948 C 468.123 1.44397 -3.29226 0
M  V30 4949 C 467.787 0.607511 -4.52944 0
M  V30 4950 C 468.784 -0.112657 -5.19778 0
M  V30 4951 C 466.469 0.548068 -4.99301 0
M  V30 4952 C 468.463 -0.881057 -6.31281 0
M  V30 4953 C 466.15 -0.224044 -6.10689 0
M  V30 4954 C 467.148 -0.937323 -6.76538 0
M  V30 4955 O 466.836 -1.6968 -7.85789 0
M  V30 4956 H 466.568 0.190925 -0.648478 0
M  V30 4957 H 469.122 -0.0711994 -2.05277 0
M  V30 4958 H 467.352 2.23214 -3.15773 0
M  V30 4959 H 469.041 2.02152 -3.51979 0
M  V30 4960 H 469.807 -0.0759998 -4.8494 0
M  V30 4961 H 465.686 1.09281 -4.4786 0
M  V30 4962 H 469.23 -1.43832 -6.82611 0
M  V30 4963 H 465.127 -0.262457 -6.44966 0
M  V30 4964 H 465.895 -1.61544 -8.024 0
M  V30 4965 N 468.558 1.5553 0.254621 0
M  V30 4966 C 469.786 1.81046 1.00149 0
M  V30 4967 C 470.201 0.593047 1.79244 0
M  V30 4968 O 469.558 -0.438196 1.77161 0
M  V30 4969 C 469.609 3.04684 1.94551 0
M  V30 4970 O 469.33 4.21725 1.18658 0
M  V30 4971 C 470.831 3.42943 2.80901 0
M  V30 4972 H 468.051 0.602653 0.295044 0
M  V30 4973 H 470.595 2.02576 0.279842 0
M  V30 4974 H 468.75 2.85226 2.62154 0
M  V30 4975 H 469.164 4.91746 1.82445 0
M  V30 4976 H 470.638 4.32576 3.42902 0
M  V30 4977 H 471.115 2.63176 3.51617 0
M  V30 4978 H 471.721 3.64724 2.18762 0
M  V30 4979 N 470.036 -0.519951 1.48776 0
M  V30 4980 C 470.968 -1.63973 1.60142 0
M  V30 4981 C 471.981 -1.55404 0.485117 0
M  V30 4982 O 473.17 -1.61682 0.756391 0
M  V30 4983 C 470.27 -3.02676 1.52449 0
M  V30 4984 C 469.443 -3.36624 2.79291 0
M  V30 4985 C 468.502 -4.54652 2.64912 0
M  V30 4986 O 467.528 -4.57374 3.38818 0
M  V30 4987 N 468.73 -5.53432 1.75195 0
M  V30 4988 H 471.495 -1.54656 2.56713 0
M  V30 4989 H 469.056 -0.707439 1.45626 0
M  V30 4990 H 471.048 -3.79525 1.4051 0
M  V30 4991 H 469.618 -3.06018 0.638125 0
M  V30 4992 H 468.838 -2.48855 3.0572 0
M  V30 4993 H 470.126 -3.56094 3.6342 0
M  V30 4994 H 469.524 -5.54018 1.14371 0
M  V30 4995 H 468.081 -6.29459 1.69189 0
M  V30 4996 N 471.514 -1.37532 -0.769588 0
M  V30 4997 C 472.477 -1.33292 -1.86456 0
M  V30 4998 C 473.477 -0.236537 -1.59051 0
M  V30 4999 O 474.667 -0.492511 -1.67093 0
M  V30 5000 C 471.799 -1.07118 -3.23633 0
M  V30 5001 H 472.992 -2.30692 -1.91628 0
M  V30 5002 H 470.545 -1.22593 -0.969572 0
M  V30 5003 H 471.28 -0.102578 -3.24138 0
M  V30 5004 H 471.065 -1.86479 -3.44917 0
M  V30 5005 H 472.555 -1.06806 -4.03711 0
M  V30 5006 N 472.992 0.995999 -1.22138 0
M  V30 5007 C 474.238 1.73767 -1.04561 0
M  V30 5008 C 474.571 1.89633 0.418698 0
M  V30 5009 O 473.846 1.43723 1.3105 0
M  V30 5010 C 474.129 3.14505 -1.75382 0
M  V30 5011 C 473.982 3.06306 -3.29388 0
M  V30 5012 C 475.301 4.13615 -1.50369 0
M  V30 5013 H 472.42 0.630728 -0.38125 0
M  V30 5014 H 475.062 1.16057 -1.50435 0
M  V30 5015 H 473.212 3.63775 -1.36383 0
M  V30 5016 H 474.884 2.64681 -3.77812 0
M  V30 5017 H 473.127 2.43186 -3.59226 0
M  V30 5018 H 473.798 4.05884 -3.74116 0
M  V30 5019 H 476.274 3.73089 -1.84239 0
M  V30 5020 H 475.15 5.10212 -2.02421 0
M  V30 5021 H 475.411 4.39949 -0.435611 0
M  V30 5022 N 474.47 1.03057 1.19235 0
M  V30 5023 C 475.38 0.622922 2.26179 0
M  V30 5024 C 476.396 -0.346113 1.70523 0
M  V30 5025 O 477.572 -0.203572 2.00369 0
M  V30 5026 C 474.637 -0.0182063 3.46695 0
M  V30 5027 C 473.698 0.998546 4.17526 0
M  V30 5028 C 472.931 0.387917 5.32288 0
M  V30 5029 O 473.154 -0.808668 5.64639 0
M  V30 5030 O 472.088 1.1116 5.91546 0
M  V30 5031 H 475.914 1.51363 2.63292 0
M  V30 5032 H 473.499 0.800856 1.26122 0
M  V30 5033 H 475.381 -0.375606 4.19723 0
M  V30 5034 H 474.056 -0.882895 3.11427 0
M  V30 5035 H 472.963 1.40756 3.4661 0
M  V30 5036 H 474.296 1.83366 4.56769 0
M  V30 5037 N 475.948 -1.35272 0.808662 0
M  V30 5038 C 477.188 -2.00534 0.395668 0
M  V30 5039 C 477.552 -1.62755 -1.01857 0
M  V30 5040 O 478.753 -2.20752 -1.53368 0
M  V30 5041 C 477.024 -3.52732 0.575771 0
M  V30 5042 S 478.583 -4.38067 0.253507 0
M  V30 5043 H 475.401 -0.694962 0.150165 0
M  V30 5044 H 478.003 -1.64823 1.05137 0
M  V30 5045 H 476.707 -3.77714 1.60499 0
M  V30 5046 H 476.238 -3.93285 -0.0951739 0
M  V30 5047 H 478.253 -4.87252 -0.938068 0
M  V30 5048 N 477.426 -0.562348 -1.47226 0
M  V30 5049 C 478.389 0.172056 -2.28553 0
M  V30 5050 C 479.389 0.837928 -1.37242 0
M  V30 5051 O 480.579 0.693001 -1.59822 0
M  V30 5052 C 477.711 1.25223 -3.17068 0
M  V30 5053 H 478.904 -0.542401 -2.94954 0
M  V30 5054 H 476.457 -0.319493 -1.53 0
M  V30 5055 H 477.192 1.99892 -2.55369 0
M  V30 5056 H 476.977 0.779515 -3.84273 0
M  V30 5057 H 478.467 1.76791 -3.78332 0
M  V30 5058 N 478.904 1.54736 -0.299062 0
M  V30 5059 C 479.851 2.23448 0.577899 0
M  V30 5060 C 480.821 1.21637 1.13109 0
M  V30 5061 O 482.006 1.50252 1.17597 0
M  V30 5062 C 479.146 2.9774 1.74484 0
M  V30 5063 C 478.259 4.1432 1.22323 0
M  V30 5064 C 477.394 4.76199 2.35388 0
M  V30 5065 C 476.433 5.84927 1.80351 0
M  V30 5066 N 475.57 6.4077 2.86982 0
M  V30 5067 H 480.41 2.97996 -0.0146545 0
M  V30 5068 H 477.947 1.47088 -0.0190013 0
M  V30 5069 H 479.905 3.39045 2.43114 0
M  V30 5070 H 478.535 2.25572 2.30905 0
M  V30 5071 H 477.587 3.7797 0.429249 0
M  V30 5072 H 478.899 4.92659 0.780309 0
M  V30 5073 H 478.053 5.20346 3.11969 0
M  V30 5074 H 476.792 3.97188 2.83006 0
M  V30 5075 H 475.797 5.40207 1.02259 0
M  V30 5076 H 477.022 6.65821 1.3364 0
M  V30 5077 H 474.968 5.64643 3.33938 0
M  V30 5078 H 474.885 7.1445 2.4718 0
M  V30 5079 H 476.153 6.89574 3.63466 0
M  V30 5080 N 480.382 0.0267497 1.57577 0
M  V30 5081 C 481.61 -0.662661 1.96001 0
M  V30 5082 C 482.025 -1.65799 0.903117 0
M  V30 5083 O 481.382 -1.82135 -0.115317 0
M  V30 5084 C 481.433 -1.37112 3.34488 0
M  V30 5085 O 481.154 -0.415683 4.36123 0
M  V30 5086 C 482.655 -2.15257 3.8753 0
M  V30 5087 H 479.875 -0.18287 0.6456 0
M  V30 5088 H 482.419 0.0858116 2.0432 0
M  V30 5089 H 480.574 -2.07101 3.27395 0
M  V30 5090 H 480.988 -0.918496 5.16395 0
M  V30 5091 H 482.462 -2.60285 4.86781 0
M  V30 5092 H 482.939 -2.99063 3.21649 0
M  V30 5093 H 483.545 -1.50231 3.97883 0
M  V30 5094 N 481.861 -1.55662 -0.24637 0
M  V30 5095 C 483.091 -1.81312 -0.990438 0
M  V30 5096 C 483.499 -0.600234 -1.79426 0
M  V30 5097 O 482.842 0.440537 -1.78339 0
M  V30 5098 C 482.904 -3.0032 -1.97607 0
M  V30 5099 C 482.568 -4.36322 -1.35912 0
M  V30 5100 C 483.565 -5.14295 -0.761348 0
M  V30 5101 C 481.25 -4.83019 -1.37833 0
M  V30 5102 C 483.244 -6.37114 -0.190998 0
M  V30 5103 C 480.931 -6.05786 -0.804128 0
M  V30 5104 C 481.929 -6.82672 -0.211489 0
M  V30 5105 O 481.617 -8.03121 0.353845 0
M  V30 5106 H 481.349 -0.607233 -0.297058 0
M  V30 5107 H 483.903 -2.0356 -0.274351 0
M  V30 5108 H 482.133 -2.73829 -2.73047 0
M  V30 5109 H 483.822 -3.13057 -2.58361 0
M  V30 5110 H 484.588 -4.79337 -0.739013 0
M  V30 5111 H 480.467 -4.23165 -1.829 0
M  V30 5112 H 484.011 -6.97069 0.272206 0
M  V30 5113 H 479.908 -6.40222 -0.823792 0
M  V30 5114 H 480.676 -8.18131 0.245761 0
M  V30 5115 N 483.339 0.512053 -1.4905 0
M  V30 5116 C 484.269 1.62365 -1.67809 0
M  V30 5117 C 485.25 1.61737 -0.526809 0
M  V30 5118 O 486.435 1.78651 -0.761404 0
M  V30 5119 C 483.565 3.00895 -1.73435 0
M  V30 5120 C 482.519 3.16387 -2.88242 0
M  V30 5121 C 481.845 4.56157 -2.78971 0
M  V30 5122 C 483.145 2.97457 -4.29321 0
M  V30 5123 H 484.839 1.46921 -2.60873 0
M  V30 5124 H 482.385 0.705379 -1.2554 0
M  V30 5125 H 484.338 3.78549 -1.85145 0
M  V30 5126 H 483.062 3.17403 -0.769619 0
M  V30 5127 H 481.721 2.41155 -2.76116 0
M  V30 5128 H 481.369 4.69525 -1.8043 0
M  V30 5129 H 481.069 4.67465 -3.5602 0
M  V30 5130 H 482.593 5.35886 -2.92675 0
M  V30 5131 H 484.007 3.64888 -4.42187 0
M  V30 5132 H 482.404 3.20245 -5.07507 0
M  V30 5133 H 483.474 1.93692 -4.44535 0
M  V30 5134 N 484.817 1.37938 0.762283 0
M  V30 5135 C 485.747 1.37176 1.88958 0
M  V30 5136 C 486.728 0.238945 1.68413 0
M  V30 5137 O 487.913 0.440726 1.89133 0
M  V30 5138 C 485.043 1.18742 3.2637 0
M  V30 5139 C 483.997 2.29136 3.61498 0
M  V30 5140 C 483.323 1.95816 4.97554 0
M  V30 5141 C 484.623 3.71363 3.6727 0
M  V30 5142 H 486.317 2.31509 1.89853 0
M  V30 5143 H 483.863 1.11438 0.912005 0
M  V30 5144 H 485.816 1.16837 4.04879 0
M  V30 5145 H 484.54 0.208683 3.25933 0
M  V30 5146 H 483.199 2.30213 2.85303 0
M  V30 5147 H 482.847 0.964475 4.93667 0
M  V30 5148 H 482.547 2.69745 5.22026 0
M  V30 5149 H 484.071 1.95513 5.78452 0
M  V30 5150 H 485.485 3.72364 4.35911 0
M  V30 5151 H 483.882 4.44425 4.03245 0
M  V30 5152 H 484.952 4.04305 2.67704 0
M  V30 5153 N 486.295 -0.989507 1.22664 0
M  V30 5154 C 487.542 -1.72953 1.05325 0
M  V30 5155 C 487.87 -1.90104 -0.411168 0
M  V30 5156 O 487.125 -1.44386 -1.32103 0
M  V30 5157 C 487.424 -3.13649 1.71345 0
M  V30 5158 C 487.09 -3.16403 3.21248 0
M  V30 5159 C 485.752 -3.16862 3.62149 0
M  V30 5160 C 488.104 -3.12428 4.17179 0
M  V30 5161 C 485.432 -3.11051 4.97458 0
M  V30 5162 C 487.784 -3.08159 5.52468 0
M  V30 5163 C 486.448 -3.06935 5.92746 0
M  V30 5164 H 485.718 -0.632881 0.385412 0
M  V30 5165 H 488.365 -1.15863 1.52473 0
M  V30 5166 H 486.67 -3.74069 1.16532 0
M  V30 5167 H 488.367 -3.69658 1.55416 0
M  V30 5168 H 484.957 -3.16798 2.88682 0
M  V30 5169 H 489.141 -3.11221 3.86595 0
M  V30 5170 H 484.397 -3.0845 5.27891 0
M  V30 5171 H 488.571 -3.04039 6.26525 0
M  V30 5172 H 486.198 -3.02186 6.97558 0
M  V30 5173 N 487.773 -1.03688 -1.18687 0
M  V30 5174 C 489.02 -0.73803 -1.88572 0
M  V30 5175 C 489.348 0.733973 -1.8012 0
M  V30 5176 O 488.603 1.55098 -1.19344 0
M  V30 5177 C 488.902 -1.14477 -3.3857 0
M  V30 5178 C 488.568 -2.61641 -3.67226 0
M  V30 5179 C 487.23 -3.01846 -3.74757 0
M  V30 5180 C 489.582 -3.56812 -3.79914 0
M  V30 5181 C 486.91 -4.36118 -3.92451 0
M  V30 5182 C 489.262 -4.90799 -3.99123 0
M  V30 5183 C 487.926 -5.3068 -4.04888 0
M  V30 5184 H 487.196 -0.270064 -0.690034 0
M  V30 5185 H 489.843 -1.3012 -1.40503 0
M  V30 5186 H 488.148 -0.500337 -3.88592 0
M  V30 5187 H 489.845 -0.89095 -3.90977 0
M  V30 5188 H 486.435 -2.29498 -3.61979 0
M  V30 5189 H 490.619 -3.26899 -3.73431 0
M  V30 5190 H 485.875 -4.66542 -3.95157 0
M  V30 5191 H 490.049 -5.64451 -4.07882 0
M  V30 5192 H 487.676 -6.34733 -4.18351 0
M  V30 5193 N 489.251 1.34841 -0.815825 0
M  V30 5194 C 490.662 1.80937 -0.46029 0
M  V30 5195 C 491.013 1.67685 1.01863 0
M  V30 5196 O 490.138 1.21277 1.79223 0
M  V30 5197 C 490.733 3.28509 -0.828708 0
M  V30 5198 C 489.292 3.72712 -0.525644 0
M  V30 5199 C 488.439 2.56676 -1.04941 0
M  V30 5200 H 491.39 1.22688 -1.00664 0
M  V30 5201 H 491.411 3.80279 -0.129757 0
M  V30 5202 H 490.923 3.38122 -1.90513 0
M  V30 5203 H 489.024 3.68642 0.541666 0
M  V30 5204 H 489.137 4.67119 -1.06474 0
M  V30 5205 H 487.501 2.50302 -0.471286 0
M  V30 5206 H 488.284 2.69063 -2.13214 0
M  V30 5207 N 490.729 0.570148 1.46925 0
M  V30 5208 C 491.677 -0.183181 2.31878 0
M  V30 5209 C 492.671 -0.896721 1.43719 0
M  V30 5210 O 493.877 -0.816536 1.60414 0
M  V30 5211 H 490.252 -0.077944 0.74795 0
M  V30 5212 H 492.223 0.552312 2.93244 0
M  V30 5213 C 490.972 -1.19172 3.2664 0
M  V30 5214 H 490.295 -0.652088 3.94446 0
M  V30 5215 H 491.735 -1.68946 3.88887 0
M  V30 5216 C 490.194 -2.24627 2.51086 0
M  V30 5217 O 490.724 -3.31773 2.26472 0
M  V30 5218 N 488.93 -1.98898 2.11867 0
M  V30 5219 H 488.477 -1.11777 2.32086 0
M  V30 5220 H 488.435 -2.6967 1.61634 0
M  V30 5221 N 492.207 -1.54576 0.307264 0
M  V30 5222 C 493.484 -1.92377 -0.353605 0
M  V30 5223 C 493.864 -1.23517 -1.71192 0
M  V30 5224 O 493.212 -0.373101 -2.25433 0
M  V30 5225 C 493.422 -3.45928 -0.462039 0
M  V30 5226 C 494.77 -4.18278 -0.729975 0
M  V30 5227 O 495.794 -3.51997 -0.545605 0
M  V30 5228 O 494.653 -5.3563 -1.08454 0
M  V30 5229 H 491.747 -0.802747 -0.198812 0
M  V30 5230 H 494.293 -1.65929 0.355783 0
M  V30 5231 H 493.065 -3.88187 0.492592 0
M  V30 5232 H 492.688 -3.78431 -1.21965 0
M  V30 5233 N 493.685 -0.035106 -1.57561 0
M  V30 5234 C 494.595 0.960295 -2.14046 0
M  V30 5235 C 495.611 1.3529 -1.0942 0
M  V30 5236 O 496.787 1.43309 -1.41508 0
M  V30 5237 C 493.852 2.22214 -2.66124 0
M  V30 5238 C 492.913 1.8894 -3.85487 0
M  V30 5239 C 492.146 3.09109 -4.35072 0
M  V30 5240 O 492.369 4.21963 -3.83802 0
M  V30 5241 O 491.303 2.91058 -5.26848 0
M  V30 5242 H 495.129 0.509983 -2.99387 0
M  V30 5243 H 492.714 0.185853 -1.48239 0
M  V30 5244 H 494.596 2.96279 -2.99661 0
M  V30 5245 H 493.271 2.66414 -1.83862 0
M  V30 5246 H 492.178 1.12241 -3.56865 0
M  V30 5247 H 493.511 1.49551 -4.6893 0
M  V30 5248 N 495.163 1.55791 0.238111 0
M  V30 5249 C 496.409 1.78297 0.966337 0
M  V30 5250 C 496.742 0.601903 1.84637 0
M  V30 5251 O 496.017 -0.399499 1.90353 0
M  V30 5252 C 496.3 3.10758 1.81939 0
M  V30 5253 C 496.153 4.39283 0.966958 0
M  V30 5254 C 497.472 3.39519 2.80027 0
M  V30 5255 H 494.591 0.648654 0.349882 0
M  V30 5256 H 497.233 1.88525 0.236253 0
M  V30 5257 H 495.383 3.02168 2.44185 0
M  V30 5258 H 497.055 4.59873 0.362514 0
M  V30 5259 H 495.298 4.32948 0.271669 0
M  V30 5260 H 495.969 5.28368 1.59784 0
M  V30 5261 H 498.445 3.48128 2.27917 0
M  V30 5262 H 497.321 4.33402 3.36829 0
M  V30 5263 H 497.582 2.60864 3.56934 0
M  V30 5264 N 496.642 -0.504142 1.49319 0
M  V30 5265 C 497.575 -1.62361 1.60356 0
M  V30 5266 C 498.553 -1.56169 0.45277 0
M  V30 5267 O 499.737 -1.76271 0.667892 0
M  V30 5268 C 496.864 -3.00864 1.55559 0
M  V30 5269 C 495.91 -3.25328 2.75797 0
M  V30 5270 S 496.743 -3.08791 4.37503 0
M  V30 5271 C 497.899 -4.49695 4.35345 0
M  V30 5272 H 498.132 -1.52753 2.55056 0
M  V30 5273 H 495.665 -0.689065 1.38171 0
M  V30 5274 H 497.623 -3.8073 1.53477 0
M  V30 5275 H 496.284 -3.0789 0.621515 0
M  V30 5276 H 495.477 -4.2643 2.68651 0
M  V30 5277 H 495.079 -2.53179 2.75275 0
M  V30 5278 H 497.371 -5.41721 4.06871 0
M  V30 5279 H 498.314 -4.61891 5.36714 0
M  V30 5280 H 498.722 -4.30227 3.65465 0
M  V30 5281 N 498.12 -1.38341 -0.754957 0
M  V30 5282 C 499.068 -1.35573 -1.89005 0
M  V30 5283 C 500.062 -0.241824 -1.67665 0
M  V30 5284 O 501.268 -0.410785 -1.7525 0
M  V30 5285 H 497.643 -0.422898 -0.621821 0
M  V30 5286 H 499.614 -2.31359 -1.88455 0
M  V30 5287 C 498.363 -1.19631 -3.26471 0
M  V30 5288 H 497.686 -2.04605 -3.43477 0
M  V30 5289 H 499.126 -1.21748 -4.06144 0
M  V30 5290 C 497.585 0.0968705 -3.36761 0
M  V30 5291 O 498.115 1.07439 -3.87066 0
M  V30 5292 N 496.321 0.153242 -2.90196 0
M  V30 5293 H 495.868 -0.642908 -2.49448 0
M  V30 5294 H 495.826 1.01807 -2.9746 0
M  V30 5295 N 499.598 0.982988 -1.23187 0
M  V30 5296 C 500.53 2.07729 -0.968572 0
M  V30 5297 C 501.543 1.62702 0.0564821 0
M  V30 5298 O 502.732 1.77603 -0.178733 0
M  V30 5299 C 499.832 3.36071 -0.436974 0
M  V30 5300 C 499.005 4.10081 -1.52159 0
M  V30 5301 C 498.064 5.16701 -0.99532 0
M  V30 5302 O 497.09 5.43727 -1.68373 0
M  V30 5303 N 498.292 5.80226 0.178192 0
M  V30 5304 H 501.057 2.30894 -1.9107 0
M  V30 5305 H 498.618 1.14949 -1.1401 0
M  V30 5306 H 500.61 4.04639 -0.0700051 0
M  V30 5307 H 499.18 3.09893 0.410509 0
M  V30 5308 H 498.4 3.36004 -2.06144 0
M  V30 5309 H 499.688 4.56295 -2.25105 0
M  V30 5310 H 499.086 5.60651 0.754096 0
M  V30 5311 H 497.643 6.49982 0.486449 0
M  V30 5312 N 501.076 1.04316 1.18135 0
M  V30 5313 C 502.024 0.630175 2.23901 0
M  V30 5314 C 503.018 -0.344254 1.65865 0
M  V30 5315 O 504.224 -0.211273 1.78756 0
M  V30 5316 H 500.599 0.185578 0.728742 0
M  V30 5317 H 502.57 1.53253 2.56039 0
M  V30 5318 C 501.319 0.011666 3.47698 0
M  V30 5319 H 500.642 0.752526 3.92654 0
M  V30 5320 H 502.082 -0.240046 4.2332 0
M  V30 5321 C 500.541 -1.23913 3.13285 0
M  V30 5322 O 501.071 -2.32959 3.27251 0
M  V30 5323 N 499.277 -1.13338 2.67587 0
M  V30 5324 H 498.824 -0.246006 2.56423 0
M  V30 5325 H 498.782 -1.97116 2.44934 0
M  V30 5326 N 502.554 -1.34406 0.822964 0
M  V30 5327 C 503.484 -2.32052 0.259608 0
M  V30 5328 C 504.465 -1.58243 -0.623961 0
M  V30 5329 O 505.65 -1.86224 -0.55083 0
M  V30 5330 C 502.78 -3.42434 -0.579314 0
M  V30 5331 C 501.734 -4.27499 0.20712 0
M  V30 5332 C 501.06 -5.29349 -0.754547 0
M  V30 5333 C 502.36 -5.02758 1.41533 0
M  V30 5334 H 504.054 -2.79418 1.07545 0
M  V30 5335 H 501.6 -1.34338 0.518593 0
M  V30 5336 H 503.553 -4.0976 -0.983612 0
M  V30 5337 H 502.277 -2.93717 -1.4282 0
M  V30 5338 H 500.936 -3.61776 0.592787 0
M  V30 5339 H 500.584 -4.76895 -1.59939 0
M  V30 5340 H 500.284 -5.8714 -0.232561 0
M  V30 5341 H 501.808 -5.99544 -1.1567 0
M  V30 5342 H 503.222 -5.62938 1.08504 0
M  V30 5343 H 501.619 -5.70123 1.87296 0
M  V30 5344 H 502.689 -4.32451 2.1935 0
M  V30 5345 N 504.032 -0.577932 -1.46621 0
M  V30 5346 C 504.995 0.147805 -2.28723 0
M  V30 5347 C 505.995 0.823325 -1.38123 0
M  V30 5348 O 507.185 0.676011 -1.60548 0
M  V30 5349 C 504.317 1.21853 -3.18378 0
M  V30 5350 H 505.51 -0.573654 -2.94362 0
M  V30 5351 H 503.063 -0.335703 -1.52652 0
M  V30 5352 H 503.798 1.97173 -2.57475 0
M  V30 5353 H 503.583 0.738714 -3.85078 0
M  V30 5354 H 505.073 1.72768 -3.80186 0
M  V30 5355 N 505.51 1.54411 -0.315457 0
M  V30 5356 C 506.74 2.04536 0.291315 0
M  V30 5357 C 507.148 1.19162 1.4696 0
M  V30 5358 O 506.491 0.213199 1.82459 0
M  V30 5359 C 506.553 3.5056 0.796725 0
M  V30 5360 C 506.217 4.5627 -0.258178 0
M  V30 5361 C 507.214 5.08312 -1.09153 0
M  V30 5362 C 504.899 5.00672 -0.404036 0
M  V30 5363 C 506.893 6.03312 -2.05655 0
M  V30 5364 C 504.58 5.95488 -1.37248 0
M  V30 5365 C 505.578 6.46693 -2.19721 0
M  V30 5366 O 505.266 7.39648 -3.14921 0
M  V30 5367 H 504.998 0.672856 0.0651165 0
M  V30 5368 H 507.552 2.00244 -0.457308 0
M  V30 5369 H 505.782 3.52223 1.59612 0
M  V30 5370 H 507.471 3.83804 1.32096 0
M  V30 5371 H 508.237 4.74793 -0.98979 0
M  V30 5372 H 504.116 4.60436 0.22799 0
M  V30 5373 H 507.66 6.43203 -2.70067 0
M  V30 5374 H 503.557 6.28424 -1.47489 0
M  V30 5375 H 504.325 7.57496 -3.10067 0
M  V30 5376 N 506.988 0.0434614 1.5754 0
M  V30 5377 C 508.218 -0.640905 1.96408 0
M  V30 5378 C 508.626 -1.65365 0.919297 0
M  V30 5379 O 507.969 -1.83395 -0.105795 0
M  V30 5380 C 508.031 -1.39141 3.31482 0
M  V30 5381 C 507.695 -0.535375 4.53853 0
M  V30 5382 C 508.692 0.195335 5.19533 0
M  V30 5383 C 506.377 -0.468564 5.0011 0
M  V30 5384 C 508.371 0.981377 6.298 0
M  V30 5385 C 506.058 0.321171 6.10255 0
M  V30 5386 C 507.056 1.04484 6.74961 0
M  V30 5387 O 506.744 1.8216 7.8299 0
M  V30 5388 H 506.476 -0.180584 0.651433 0
M  V30 5389 H 509.03 0.103848 2.05137 0
M  V30 5390 H 507.26 -2.18162 3.19284 0
M  V30 5391 H 508.949 -1.96526 3.55151 0
M  V30 5392 H 509.715 0.15314 4.84758 0
M  V30 5393 H 505.594 -1.02142 4.49542 0
M  V30 5394 H 509.138 1.54674 6.80237 0
M  V30 5395 H 505.035 0.365032 6.44467 0
M  V30 5396 H 505.803 1.74289 7.99728 0
M  V30 5397 N 508.466 -1.55915 -0.229846 0
M  V30 5398 C 509.429 -1.90914 -1.26824 0
M  V30 5399 C 510.429 -0.786999 -1.40225 0
M  V30 5400 O 511.619 -1.05484 -1.38632 0
M  V30 5401 C 508.751 -2.15264 -2.64337 0
M  V30 5402 H 509.944 -2.8378 -0.969998 0
M  V30 5403 H 507.497 -1.49069 -0.4699 0
M  V30 5404 H 508.232 -1.24923 -2.99274 0
M  V30 5405 H 508.017 -2.97005 -2.55989 0
M  V30 5406 H 509.507 -2.43467 -3.39284 0
M  V30 5407 N 509.944 0.496216 -1.49584 0
M  V30 5408 C 510.907 1.57952 -1.66084 0
M  V30 5409 C 511.907 1.51729 -0.53244 0
M  V30 5410 O 513.097 1.54796 -0.79899 0
M  V30 5411 C 510.229 2.97604 -1.66268 0
M  V30 5412 H 511.422 1.44649 -2.6271 0
M  V30 5413 H 508.975 0.7208 -1.38687 0
M  V30 5414 H 509.71 3.16378 -0.712432 0
M  V30 5415 H 509.495 3.03528 -2.4822 0
M  V30 5416 H 510.985 3.76301 -1.81073 0
M  V30 5417 N 511.423 1.38739 0.74761 0
M  V30 5418 C 512.356 1.3083 1.86972 0
M  V30 5419 C 513.334 0.184229 1.61553 0
M  V30 5420 O 514.518 0.36256 1.8498 0
M  V30 5421 C 511.645 1.02854 3.22705 0
M  V30 5422 C 510.691 2.17281 3.67003 0
M  V30 5423 S 511.524 3.79468 3.77842 0
M  V30 5424 C 512.68 3.53692 5.16385 0
M  V30 5425 H 512.913 2.258 1.93395 0
M  V30 5426 H 510.446 1.24646 0.911199 0
M  V30 5427 H 512.404 0.87397 4.01089 0
M  V30 5428 H 511.065 0.0959295 3.13953 0
M  V30 5429 H 510.258 1.93267 4.65472 0
M  V30 5430 H 509.86 2.28876 2.9579 0
M  V30 5431 H 512.152 3.10176 6.02327 0
M  V30 5432 H 513.095 4.51576 5.45422 0
M  V30 5433 H 513.503 2.8807 4.85464 0
M  V30 5434 N 512.901 -0.976442 1.23707 0
M  V30 5435 C 513.831 -2.08749 1.04624 0
M  V30 5436 C 514.812 -1.70057 -0.0380956 0
M  V30 5437 O 515.997 -1.93782 0.127308 0
M  V30 5438 C 513.127 -3.41335 0.640902 0
M  V30 5439 C 512.081 -3.93947 1.67302 0
M  V30 5440 C 511.407 -5.22774 1.12301 0
M  V30 5441 C 512.707 -4.22769 3.06697 0
M  V30 5442 H 514.401 -2.24972 1.97555 0
M  V30 5443 H 511.947 -1.08108 0.951247 0
M  V30 5444 H 513.9 -4.18489 0.494434 0
M  V30 5445 H 512.624 -3.24988 -0.324099 0
M  V30 5446 H 511.283 -3.18941 1.80755 0
M  V30 5447 H 510.931 -5.0278 0.148877 0
M  V30 5448 H 510.631 -5.58942 1.81267 0
M  V30 5449 H 512.155 -6.02546 0.988479 0
M  V30 5450 H 513.569 -4.90659 2.96524 0
M  V30 5451 H 511.966 -4.70147 3.72937 0
M  V30 5452 H 513.036 -3.29885 3.55392 0
M  V30 5453 N 514.379 -1.04941 -1.1758 0
M  V30 5454 C 515.627 -0.756492 -1.87408 0
M  V30 5455 C 515.948 0.718478 -1.81281 0
M  V30 5456 O 515.218 1.519 -1.23706 0
M  V30 5457 H 513.798 -0.276841 -0.693807 0
M  V30 5458 H 516.46 -1.32803 -1.42652 0
M  V30 5459 H 515.556 -1.06918 -2.93215 0
M  V30 5460 N 515.857 1.33968 -0.830081 0
M  V30 5461 C 516.767 2.33164 -0.259207 0
M  V30 5462 C 517.783 1.62951 0.610164 0
M  V30 5463 O 518.959 1.94668 0.516369 0
M  V30 5464 C 516.024 3.42088 0.563598 0
M  V30 5465 C 515.085 4.28037 -0.329014 0
M  V30 5466 C 514.318 5.3176 0.454616 0
M  V30 5467 O 514.541 5.44876 1.6872 0
M  V30 5468 O 513.475 6.01669 -0.166794 0
M  V30 5469 H 517.301 2.83832 -1.08041 0
M  V30 5470 H 514.886 1.37154 -0.59239 0
M  V30 5471 H 516.768 4.08581 1.03147 0
M  V30 5472 H 515.443 2.93651 1.36201 0
M  V30 5473 H 514.35 3.64443 -0.844538 0
M  V30 5474 H 515.683 4.79934 -1.09196 0
M  V30 5475 N 517.335 0.585699 1.46312 0
M  V30 5476 C 518.245 -0.148236 2.34131 0
M  V30 5477 C 519.261 -0.882972 1.49932 0
M  V30 5478 O 520.437 -0.845484 1.82794 0
M  V30 5479 C 517.502 -1.14714 3.27172 0
M  V30 5480 C 516.563 -0.416746 4.27272 0
M  V30 5481 C 515.796 -1.36806 5.15868 0
M  V30 5482 O 516.019 -2.60475 5.07454 0
M  V30 5483 O 514.953 -0.877018 5.95476 0
M  V30 5484 H 518.779 0.572882 2.98248 0
M  V30 5485 H 516.364 0.346082 1.45336 0
M  V30 5486 H 518.246 -1.72303 3.84564 0
M  V30 5487 H 516.921 -1.84967 2.65648 0
M  V30 5488 H 515.828 0.201061 3.73559 0
M  V30 5489 H 517.161 0.244872 4.9159 0
M  V30 5490 N 518.813 -1.54241 0.323641 0
M  V30 5491 C 519.763 -2.21071 -0.557833 0
M  V30 5492 C 520.747 -1.19126 -1.08157 0
M  V30 5493 O 521.939 -1.44755 -1.01857 0
M  V30 5494 C 519.068 -2.97208 -1.71821 0
M  V30 5495 C 518.154 -4.06491 -1.20936 0
M  V30 5496 N 518.545 -5.04052 -0.420202 0
M  V30 5497 C 516.843 -4.20443 -1.48808 0
M  V30 5498 C 517.544 -5.81516 -0.146413 0
M  V30 5499 N 516.52 -5.38641 -0.732562 0
M  V30 5500 H 520.322 -2.93853 0.0523921 0
M  V30 5501 H 517.836 -1.61883 0.129502 0
M  V30 5502 H 519.833 -3.4357 -2.36146 0
M  V30 5503 H 518.493 -2.25947 -2.33191 0
M  V30 5504 H 519.504 -5.17862 -0.0630401 0
M  V30 5505 H 516.181 -3.60396 -2.10762 0
M  V30 5506 H 517.571 -6.70119 0.488895 0
M  V30 5507 N 520.291 -0.0518155 -1.57515 0
M  V30 5508 C 521.519 0.631395 -1.9703 0
M  V30 5509 C 521.934 1.64341 -0.92938 0
M  V30 5510 O 521.291 1.82296 0.0863266 0
M  V30 5511 C 521.342 1.31774 -3.36627 0
M  V30 5512 O 521.063 0.346247 -4.3673 0
M  V30 5513 C 522.564 2.09065 -3.90905 0
M  V30 5514 H 519.784 0.172576 -0.648428 0
M  V30 5515 H 522.328 -0.118306 -2.04158 0
M  V30 5516 H 520.483 2.01867 -3.30649 0
M  V30 5517 H 520.897 0.836226 -5.17791 0
M  V30 5518 H 522.371 2.52508 -4.9086 0
M  V30 5519 H 522.848 2.93908 -3.26366 0
M  V30 5520 H 523.454 1.43882 -4.00223 0
M  V30 5521 N 521.769 1.56035 0.221574 0
M  V30 5522 C 523.185 1.49026 0.571271 0
M  V30 5523 C 523.385 0.746912 1.87146 0
M  V30 5524 O 522.441 0.286566 2.50869 0
M  V30 5525 C 523.754 2.93579 0.650522 0
M  V30 5526 C 525.302 3.04099 0.741151 0
M  V30 5527 C 525.777 4.5001 0.851747 0
M  V30 5528 N 527.268 4.54053 0.915968 0
M  V30 5529 C 528.003 5.64232 1.02125 0
M  V30 5530 N 527.499 6.84164 1.09049 0
M  V30 5531 N 529.292 5.52084 1.05639 0
M  V30 5532 H 521.443 2.02791 -0.63162 0
M  V30 5533 H 523.706 0.921736 -0.221602 0
M  V30 5534 H 523.412 3.50912 -0.235253 0
M  V30 5535 H 523.286 3.45476 1.51413 0
M  V30 5536 H 525.673 2.4683 1.61737 0
M  V30 5537 H 525.754 2.55371 -0.148128 0
M  V30 5538 H 525.398 5.07896 -0.0200117 0
M  V30 5539 H 525.328 4.96444 1.75644 0
M  V30 5540 H 527.819 3.67683 0.872782 0
M  V30 5541 H 528.132 7.63883 1.1706 0
M  V30 5542 H 526.477 6.86875 1.05962 0
M  V30 5543 H 529.668 4.57317 0.998953 0
M  V30 5544 H 529.841 6.37983 1.13498 0
M  V30 5545 N 523.247 -0.488276 1.49845 0
M  V30 5546 C 524.472 -1.26997 1.63971 0
M  V30 5547 C 524.897 -1.85427 0.315994 0
M  V30 5548 O 524.255 -1.66475 -0.718032 0
M  V30 5549 C 524.303 -2.36689 2.72049 0
M  V30 5550 O 523.407 -3.40882 2.32107 0
M  V30 5551 H 522.748 -0.374376 0.548396 0
M  V30 5552 H 525.278 -0.583104 1.96115 0
M  V30 5553 H 525.288 -2.82262 2.94605 0
M  V30 5554 H 523.963 -1.93529 3.68129 0
M  V30 5555 H 522.54 -3.01139 2.19931 0
M  V30 5556 N 524.725 -1.39134 -0.740242 0
M  V30 5557 C 525.974 -1.35384 -1.49512 0
M  V30 5558 C 526.287 0.04919 -1.95538 0
M  V30 5559 O 527.493 0.209257 -2.70692 0
M  V30 5560 C 525.949 -2.37812 -2.70136 0
M  V30 5561 C 525.557 -3.83804 -2.31081 0
M  V30 5562 C 527.301 -2.4313 -3.47977 0
M  V30 5563 C 525.208 -4.77886 -3.48395 0
M  V30 5564 H 524.138 -0.503297 -0.561434 0
M  V30 5565 H 526.789 -1.64754 -0.807974 0
M  V30 5566 H 525.171 -2.01505 -3.40899 0
M  V30 5567 H 526.345 -4.29123 -1.67898 0
M  V30 5568 H 524.66 -3.81732 -1.66343 0
M  V30 5569 H 527.257 -3.10614 -4.35228 0
M  V30 5570 H 527.6 -1.45423 -3.90074 0
M  V30 5571 H 528.133 -2.78304 -2.84239 0
M  V30 5572 H 524.872 -5.76836 -3.11353 0
M  V30 5573 H 524.392 -4.3725 -4.10576 0
M  V30 5574 H 526.071 -4.96538 -4.148 0
M  V30 5575 N 526.204 0.969867 -1.24223 0
M  V30 5576 C 527.452 1.70918 -1.0785 0
M  V30 5577 C 527.773 1.91186 0.383763 0
M  V30 5578 O 527.043 1.48806 1.27411 0
M  V30 5579 H 525.623 0.633334 -0.396103 0
M  V30 5580 H 528.285 1.16689 -1.56108 0
M  V30 5581 H 527.381 2.69455 -1.57482 0
M  V30 5582 N 527.682 1.05563 1.17022 0
M  V30 5583 C 529.093 0.793475 1.69 0
M  V30 5584 C 529.444 -0.683882 1.83895 0
M  V30 5585 O 528.569 -1.53116 1.5292 0
M  V30 5586 C 529.164 1.43376 3.06967 0
M  V30 5587 C 527.723 1.21956 3.56095 0
M  V30 5588 C 526.87 1.51494 2.3226 0
M  V30 5589 H 529.821 1.22008 1.01487 0
M  V30 5590 H 529.842 0.845068 3.70997 0
M  V30 5591 H 529.354 2.50899 2.96093 0
M  V30 5592 H 527.455 0.163749 3.7224 0
M  V30 5593 H 527.568 1.92713 4.38633 0
M  V30 5594 H 525.932 0.935175 2.3691 0
M  V30 5595 H 526.715 2.60159 2.23992 0
M  V30 5596 N 529.16 -1.33526 0.837174 0
M  V30 5597 C 530.576 -1.50727 0.524743 0
M  V30 5598 C 530.776 -1.77792 -0.948279 0
M  V30 5599 O 529.832 -1.83719 -1.73216 0
M  V30 5600 C 531.145 -2.66299 1.39661 0
M  V30 5601 C 532.693 -2.80183 1.39521 0
M  V30 5602 C 533.168 -3.98815 2.25189 0
M  V30 5603 N 534.659 -4.06047 2.2289 0
M  V30 5604 C 535.394 -4.97032 2.85915 0
M  V30 5605 N 534.89 -5.93143 3.57985 0
M  V30 5606 N 536.683 -4.90015 2.75394 0
M  V30 5607 H 528.834 -1.1422 1.79074 0
M  V30 5608 H 531.097 -0.561399 0.763894 0
M  V30 5609 H 530.803 -2.52974 2.4433 0
M  V30 5610 H 530.677 -3.61663 1.07145 0
M  V30 5611 H 533.064 -2.92942 0.356253 0
M  V30 5612 H 533.145 -1.85586 1.76044 0
M  V30 5613 H 532.789 -3.86817 3.29143 0
M  V30 5614 H 532.719 -4.92654 1.86009 0
M  V30 5615 H 535.21 -3.37262 1.70478 0
M  V30 5616 H 535.523 -6.59227 4.03286 0
M  V30 5617 H 533.868 -5.93223 3.62093 0
M  V30 5618 H 537.059 -4.13894 2.18654 0
M  V30 5619 H 537.232 -5.60724 3.24796 0
M  V30 5620 N 530.638 -0.59345 -1.46 0
M  V30 5621 C 531.548 0.135817 -2.34207 0
M  V30 5622 C 532.564 0.875008 -1.50398 0
M  V30 5623 O 533.74 0.835778 -1.83239 0
M  V30 5624 C 530.805 1.12977 -3.27776 0
M  V30 5625 C 529.866 0.394081 -4.27487 0
M  V30 5626 C 529.099 1.34068 -5.16586 0
M  V30 5627 O 529.322 2.5778 -5.08828 0
M  V30 5628 O 528.256 0.845426 -5.95933 0
M  V30 5629 H 532.082 -0.588691 -2.9794 0
M  V30 5630 H 529.667 -0.353784 -1.45151 0
M  V30 5631 H 531.549 1.70261 -3.85473 0
M  V30 5632 H 530.224 1.83556 -2.66625 0
M  V30 5633 H 529.131 -0.220869 -3.73447 0
M  V30 5634 H 530.464 -0.270939 -4.91454 0
M  V30 5635 N 532.116 1.54067 -0.331816 0
M  V30 5636 C 533.341 2.05599 0.272705 0
M  V30 5637 C 533.766 1.2059 1.44359 0
M  V30 5638 O 533.124 0.216907 1.79998 0
M  V30 5639 C 533.172 3.54188 0.677021 0
M  V30 5640 O 532.276 3.72082 1.77844 0
M  V30 5641 H 531.617 0.662286 0.0476801 0
M  V30 5642 H 534.147 1.98826 -0.482624 0
M  V30 5643 H 534.157 3.96608 0.957415 0
M  V30 5644 H 532.832 4.15513 -0.179325 0
M  V30 5645 H 531.409 3.41566 1.49622 0
M  V30 5646 N 533.594 0.0601682 1.57485 0
M  V30 5647 C 534.557 -0.896373 2.10945 0
M  V30 5648 C 535.557 -1.23402 1.03095 0
M  V30 5649 O 536.747 -1.16921 1.29132 0
M  V30 5650 C 533.879 -2.20346 2.60116 0
M  V30 5651 H 535.072 -0.432778 2.96761 0
M  V30 5652 H 532.625 -0.188372 1.55161 0
M  V30 5653 H 533.36 -2.71268 1.7772 0
M  V30 5654 H 533.145 -1.9714 3.38937 0
M  V30 5655 H 534.635 -2.88846 3.01592 0
M  V30 5656 N 535.072 -1.5615 -0.213296 0
M  V30 5657 C 536.019 -1.93086 -1.26437 0
M  V30 5658 C 536.989 -0.789086 -1.4616 0
M  V30 5659 O 538.174 -1.04569 -1.59593 0
M  V30 5660 C 535.314 -2.26003 -2.608 0
M  V30 5661 C 534.427 -3.53156 -2.48807 0
M  V30 5662 C 533.562 -3.7548 -3.7575 0
M  V30 5663 C 532.601 -4.96119 -3.58514 0
M  V30 5664 N 531.738 -5.14791 -4.77425 0
M  V30 5665 H 536.578 -2.82707 -0.942376 0
M  V30 5666 H 534.115 -1.39919 -0.454001 0
M  V30 5667 H 536.073 -2.431 -3.39055 0
M  V30 5668 H 534.703 -1.39546 -2.91079 0
M  V30 5669 H 533.755 -3.44207 -1.61944 0
M  V30 5670 H 535.067 -4.41565 -2.31996 0
M  V30 5671 H 534.221 -3.92718 -4.62447 0
M  V30 5672 H 532.96 -2.85368 -3.95495 0
M  V30 5673 H 531.965 -4.78823 -2.70201 0
M  V30 5674 H 533.19 -5.87724 -3.40231 0
M  V30 5675 H 531.136 -4.27623 -4.97468 0
M  V30 5676 H 531.053 -5.97347 -4.63371 0
M  V30 5677 H 532.321 -5.36471 -5.65525 0
M  V30 5678 N 536.55 0.480323 -1.50102 0
M  V30 5679 C 537.46 1.60547 -1.71061 0
M  V30 5680 C 538.476 1.63564 -0.593529 0
M  V30 5681 O 539.652 1.81604 -0.870751 0
M  V30 5682 C 536.717 2.96814 -1.79171 0
M  V30 5683 C 535.778 3.04259 -3.02861 0
M  V30 5684 C 535.011 4.34027 -3.10574 0
M  V30 5685 O 535.234 5.24009 -2.25323 0
M  V30 5686 O 534.168 4.46873 -4.03223 0
M  V30 5687 H 537.994 1.45788 -2.6642 0
M  V30 5688 H 535.579 0.658838 -1.34088 0
M  V30 5689 H 537.461 3.77765 -1.86738 0
M  V30 5690 H 536.136 3.11791 -0.869947 0
M  V30 5691 H 535.043 2.22419 -3.008 0
M  V30 5692 H 536.376 2.94216 -3.94586 0
M  V30 5693 N 538.028 1.39524 0.732853 0
M  V30 5694 C 539.258 1.3994 1.51988 0
M  V30 5695 C 539.666 -0.00727973 1.89199 0
M  V30 5696 O 539.009 -0.989521 1.54771 0
M  V30 5697 C 539.071 2.21026 2.83527 0
M  V30 5698 C 538.735 3.69633 2.68738 0
M  V30 5699 C 539.732 4.62665 2.37143 0
M  V30 5700 C 537.417 4.13244 2.85542 0
M  V30 5701 C 539.411 5.97291 2.22536 0
M  V30 5702 C 537.098 5.47945 2.70554 0
M  V30 5703 C 538.096 6.39783 2.39097 0
M  V30 5704 O 537.784 7.72002 2.24204 0
M  V30 5705 H 537.516 0.479795 0.476206 0
M  V30 5706 H 540.07 1.8399 0.913054 0
M  V30 5707 H 538.3 1.71728 3.46477 0
M  V30 5708 H 539.989 2.13594 3.45156 0
M  V30 5709 H 540.755 4.30272 2.2381 0
M  V30 5710 H 536.634 3.42094 3.09019 0
M  V30 5711 H 540.178 6.68939 1.97905 0
M  V30 5712 H 536.075 5.79928 2.83466 0
M  V30 5713 H 536.843 7.8275 2.39258 0
M  V30 5714 N 539.506 -0.963266 1.24736 0
M  V30 5715 C 540.922 -1.23273 1.01371 0
M  V30 5716 C 541.122 -1.99618 -0.274776 0
M  V30 5717 O 540.178 -2.32293 -0.989769 0
M  V30 5718 C 541.491 -2.01554 2.23152 0
M  V30 5719 C 543.039 -2.14629 2.27823 0
M  V30 5720 C 543.514 -2.96307 3.49237 0
M  V30 5721 N 545.005 -3.03887 3.49581 0
M  V30 5722 C 545.74 -3.67456 4.40186 0
M  V30 5723 N 545.236 -4.32706 5.41052 0
M  V30 5724 N 547.029 -3.64511 4.27888 0
M  V30 5725 H 539.18 -0.452294 2.07528 0
M  V30 5726 H 541.443 -0.262521 0.910926 0
M  V30 5727 H 541.149 -1.52847 3.1675 0
M  V30 5728 H 541.023 -3.02278 2.25628 0
M  V30 5729 H 543.41 -2.62537 1.34753 0
M  V30 5730 H 543.491 -1.13238 2.2937 0
M  V30 5731 H 543.135 -2.49091 4.42624 0
M  V30 5732 H 543.065 -3.97905 3.44933 0
M  V30 5733 H 545.556 -2.57477 2.76611 0
M  V30 5734 H 545.869 -4.79042 6.06415 0
M  V30 5735 H 544.214 -4.31361 5.44934 0
M  V30 5736 H 547.405 -3.12715 3.4832 0
M  V30 5737 H 547.578 -4.13768 4.98698 0
M  V30 5738 N 540.985 -1.06182 -1.16461 0
M  V30 5739 C 541.917 -0.629584 -2.20383 0
M  V30 5740 C 542.93 0.311834 -1.59786 0
M  V30 5741 O 544.119 0.103 -1.78203 0
M  V30 5742 C 541.219 0.0973695 -3.3876 0
M  V30 5743 C 540.392 -0.857252 -4.28917 0
M  V30 5744 C 539.451 -0.169749 -5.25926 0
M  V30 5745 O 538.477 -0.807044 -5.6345 0
M  V30 5746 N 539.679 1.08911 -5.70192 0
M  V30 5747 H 542.444 -1.52352 -2.58087 0
M  V30 5748 H 540.005 -0.944993 -1.31459 0
M  V30 5749 H 541.997 0.567676 -4.00699 0
M  V30 5750 H 540.567 0.893093 -2.99571 0
M  V30 5751 H 539.787 -1.50696 -3.64259 0
M  V30 5752 H 541.075 -1.50489 -4.86035 0
M  V30 5753 H 540.473 1.62703 -5.41797 0
M  V30 5754 H 539.03 1.50331 -6.34227 0
M  V30 5755 N 542.463 1.3308 -0.844243 0
M  V30 5756 C 543.879 1.50447 -0.532729 0
M  V30 5757 C 544.079 1.78292 0.938837 0
M  V30 5758 O 543.135 1.84635 1.72239 0
M  V30 5759 C 544.448 2.65555 -1.41072 0
M  V30 5760 C 545.996 2.7944 -1.41005 0
M  V30 5761 C 546.471 3.97616 -2.27301 0
M  V30 5762 N 547.962 4.0486 -2.2504 0
M  V30 5763 C 548.697 4.95508 -2.88547 0
M  V30 5764 N 548.193 5.91236 -3.61126 0
M  V30 5765 N 549.986 4.88548 -2.77989 0
M  V30 5766 H 542.137 1.13269 -1.79677 0
M  V30 5767 H 544.4 0.55734 -0.766861 0
M  V30 5768 H 544.106 2.51675 -2.45668 0
M  V30 5769 H 543.98 3.61089 -1.09061 0
M  V30 5770 H 546.367 2.92749 -0.371784 0
M  V30 5771 H 546.448 1.8465 -1.77026 0
M  V30 5772 H 546.092 3.85066 -3.3119 0
M  V30 5773 H 546.022 4.91661 -1.88619 0
M  V30 5774 H 548.513 3.36353 -1.72264 0
M  V30 5775 H 548.826 6.57079 -4.06776 0
M  V30 5776 H 547.171 5.91295 -3.65234 0
M  V30 5777 H 550.362 4.12729 -2.20846 0
M  V30 5778 H 550.535 5.58994 -3.27765 0
M  V30 5779 N 543.941 0.601185 1.45683 0
M  V30 5780 C 545.166 0.0982245 2.07167 0
M  V30 5781 C 545.591 -1.20546 1.44396 0
M  V30 5782 O 544.949 -1.73247 0.534347 0
M  V30 5783 C 544.997 -0.0346976 3.60583 0
M  V30 5784 O 544.101 -1.08657 3.97828 0
M  V30 5785 H 543.442 0.0711618 0.660176 0
M  V30 5786 H 545.972 0.829376 1.87036 0
M  V30 5787 H 545.982 -0.234969 4.07323 0
M  V30 5788 H 544.657 0.917265 4.05659 0
M  V30 5789 H 543.234 -0.863275 3.6277 0
M  V30 5790 N 545.419 -1.53889 0.339982 0
M  V30 5791 C 546.349 -2.27843 -0.510856 0
M  V30 5792 C 547.33 -1.29267 -1.10563 0
M  V30 5793 O 548.515 -1.58104 -1.12768 0
M  V30 5794 C 545.645 -3.04857 -1.66372 0
M  V30 5795 C 544.599 -4.10907 -1.19746 0
M  V30 5796 C 543.925 -4.75855 -2.43857 0
M  V30 5797 C 545.225 -5.21435 -0.300501 0
M  V30 5798 H 546.919 -2.99212 0.106067 0
M  V30 5799 H 544.465 -1.43904 0.0524533 0
M  V30 5800 H 546.418 -3.5533 -2.26537 0
M  V30 5801 H 545.142 -2.31133 -2.30749 0
M  V30 5802 H 543.801 -3.61342 -0.618654 0
M  V30 5803 H 543.449 -3.9873 -3.06633 0
M  V30 5804 H 543.149 -5.47502 -2.13343 0
M  V30 5805 H 544.673 -5.2911 -3.04754 0
M  V30 5806 H 546.087 -5.67565 -0.80889 0
M  V30 5807 H 544.484 -6.00036 -0.0874076 0
M  V30 5808 H 545.554 -4.80328 0.664321 0
M  V30 5809 N 546.897 -0.0685191 -1.57451 0
M  V30 5810 C 547.827 0.89747 -2.15564 0
M  V30 5811 C 548.808 1.31266 -1.08181 0
M  V30 5812 O 549.993 1.38429 -1.36202 0
M  V30 5813 C 547.123 2.16623 -2.71463 0
M  V30 5814 C 546.077 1.89054 -3.83982 0
M  V30 5815 C 545.403 3.22532 -4.26471 0
M  V30 5816 C 546.703 1.1984 -5.08366 0
M  V30 5817 H 548.397 0.413373 -2.96533 0
M  V30 5818 H 545.943 0.197391 -1.42641 0
M  V30 5819 H 547.896 2.84614 -3.10761 0
M  V30 5820 H 546.62 2.67269 -1.8771 0
M  V30 5821 H 545.279 1.23469 -3.45183 0
M  V30 5822 H 544.927 3.71013 -3.39644 0
M  V30 5823 H 544.627 3.04879 -5.02317 0
M  V30 5824 H 546.151 3.91727 -4.68383 0
M  V30 5825 H 547.565 1.77896 -5.45001 0
M  V30 5826 H 545.962 1.12456 -5.89469 0
M  V30 5827 H 547.032 0.176996 -4.84577 0
M  V30 5828 N 548.375 1.56261 0.205012 0
M  V30 5829 C 549.285 1.96944 1.27476 0
M  V30 5830 C 550.301 0.875636 1.50362 0
M  V30 5831 O 551.477 1.18058 1.6317 0
M  V30 5832 C 548.542 2.29219 2.60115 0
M  V30 5833 C 547.603 3.52255 2.45387 0
M  V30 5834 C 546.836 3.8298 3.71701 0
M  V30 5835 O 547.059 3.15138 4.75441 0
M  V30 5836 O 545.993 4.76435 3.67823 0
M  V30 5837 H 549.819 2.88144 0.959527 0
M  V30 5838 H 547.404 1.43686 0.409217 0
M  V30 5839 H 549.286 2.51098 3.3842 0
M  V30 5840 H 547.961 1.4119 2.91285 0
M  V30 5841 H 546.868 3.35635 1.65227 0
M  V30 5842 H 548.201 4.40719 2.19152 0
M  V30 5843 N 549.853 -0.472356 1.50355 0
M  V30 5844 C 550.8 -1.57051 1.69126 0
M  V30 5845 C 551.77 -1.5733 0.532574 0
M  V30 5846 O 552.955 -1.7488 0.762994 0
M  V30 5847 C 550.095 -2.95033 1.79024 0
M  V30 5848 C 549.208 -3.04552 3.06386 0
M  V30 5849 C 548.343 -4.33441 3.07087 0
M  V30 5850 C 547.382 -4.36697 4.28908 0
M  V30 5851 N 546.519 -5.57056 4.27356 0
M  V30 5852 H 551.359 -1.40351 2.62879 0
M  V30 5853 H 548.896 -0.682403 1.30314 0
M  V30 5854 H 550.854 -3.75048 1.82744 0
M  V30 5855 H 549.484 -3.10371 0.887109 0
M  V30 5856 H 548.536 -2.17419 3.12143 0
M  V30 5857 H 549.848 -3.02818 3.96362 0
M  V30 5858 H 549.002 -5.21801 3.09529 0
M  V30 5859 H 547.741 -4.37782 2.14939 0
M  V30 5860 H 546.746 -3.46734 4.2668 0
M  V30 5861 H 547.971 -4.34049 5.22282 0
M  V30 5862 H 545.917 -5.62184 3.3806 0
M  V30 5863 H 545.834 -5.57058 5.111 0
M  V30 5864 H 547.102 -6.47545 4.33942 0
M  V30 5865 N 551.331 -1.39911 -0.725443 0
M  V30 5866 C 552.241 -1.41688 -1.8698 0
M  V30 5867 C 553.257 -0.310579 -1.71206 0
M  V30 5868 O 554.433 -0.55359 -1.93642 0
M  V30 5869 C 551.498 -1.26811 -3.22676 0
M  V30 5870 C 550.559 -2.47497 -3.50776 0
M  V30 5871 C 549.792 -2.3332 -4.79997 0
M  V30 5872 O 550.015 -1.34175 -5.54394 0
M  V30 5873 O 548.949 -3.22498 -5.08211 0
M  V30 5874 H 552.775 -2.38171 -1.88436 0
M  V30 5875 H 550.36 -1.21128 -0.874548 0
M  V30 5876 H 552.242 -1.20684 -4.03749 0
M  V30 5877 H 550.917 -0.334289 -3.21969 0
M  V30 5878 H 549.824 -2.59201 -2.69751 0
M  V30 5879 H 551.157 -3.39606 -3.5627 0
M  V30 5880 N 552.809 0.956637 -1.25245 0
M  V30 5881 C 553.739 2.07058 -1.07931 0
M  V30 5882 C 554.72 1.70096 0.0110361 0
M  V30 5883 O 555.905 1.93555 -0.158121 0
M  V30 5884 C 553.035 3.40272 -0.695124 0
M  V30 5885 C 551.989 3.91235 -1.73549 0
M  V30 5886 C 551.315 5.20921 -1.20604 0
M  V30 5887 C 552.615 4.17837 -3.13385 0
M  V30 5888 H 554.309 2.218 -2.01109 0
M  V30 5889 H 551.855 1.06581 -0.968326 0
M  V30 5890 H 553.808 4.1765 -0.560949 0
M  V30 5891 H 552.532 3.25462 0.272355 0
M  V30 5892 H 551.191 3.16025 -1.85807 0
M  V30 5893 H 550.839 5.02479 -0.228846 0
M  V30 5894 H 550.539 5.55987 -1.90136 0
M  V30 5895 H 552.063 6.00897 -1.08421 0
M  V30 5896 H 553.477 4.8588 -3.04292 0
M  V30 5897 H 551.874 4.64154 -3.80369 0
M  V30 5898 H 552.944 3.2419 -3.60595 0
M  V30 5899 N 554.287 1.06798 1.15896 0
M  V30 5900 C 555.217 0.704677 2.22613 0
M  V30 5901 C 556.198 -0.305252 1.67339 0
M  V30 5902 O 557.383 -0.179247 1.93371 0
M  V30 5903 C 554.513 0.0957325 3.47168 0
M  V30 5904 C 553.467 1.0322 4.15367 0
M  V30 5905 C 552.793 0.286293 5.33933 0
M  V30 5906 C 554.093 2.36341 4.65768 0
M  V30 5907 H 555.787 1.59688 2.53259 0
M  V30 5908 H 553.333 0.769257 1.21731 0
M  V30 5909 H 555.286 -0.170333 4.21056 0
M  V30 5910 H 554.01 -0.831516 3.15838 0
M  V30 5911 H 552.669 1.28309 3.43413 0
M  V30 5912 H 552.317 -0.644237 4.98857 0
M  V30 5913 H 552.017 0.910436 5.80504 0
M  V30 5914 H 553.541 0.0278938 6.10594 0
M  V30 5915 H 554.955 2.1561 5.31211 0
M  V30 5916 H 553.352 2.94299 5.2298 0
M  V30 5917 H 554.422 2.99047 3.81705 0
M  V30 5918 N 555.766 -1.3263 0.851289 0
M  V30 5919 C 557.013 -1.97368 0.453023 0
M  V30 5920 C 557.341 -1.67384 -0.990596 0
M  V30 5921 O 556.596 -0.952665 -1.70947 0
M  V30 5922 C 556.895 -3.51713 0.635015 0
M  V30 5923 C 556.561 -4.01676 2.04859 0
M  V30 5924 C 555.223 -4.15031 2.43522 0
M  V30 5925 C 557.575 -4.28206 2.97135 0
M  V30 5926 C 554.903 -4.52257 3.73739 0
M  V30 5927 C 557.255 -4.66889 4.26846 0
M  V30 5928 C 555.919 -4.7845 4.65448 0
M  V30 5929 H 555.189 -0.722219 0.165773 0
M  V30 5930 H 557.836 -1.58092 1.0807 0
M  V30 5931 H 556.141 -3.91726 -0.0759081 0
M  V30 5932 H 557.838 -3.99823 0.306964 0
M  V30 5933 H 554.428 -3.91764 1.73836 0
M  V30 5934 H 558.612 -4.174 2.68498 0
M  V30 5935 H 553.868 -4.59402 4.03435 0
M  V30 5936 H 558.042 -4.86372 4.98413 0
M  V30 5937 H 555.669 -5.07052 5.66395 0
M  V30 5938 N 557.244 -0.608902 -1.45362 0
M  V30 5939 C 558.491 -0.104607 -2.0223 0
M  V30 5940 C 558.819 1.26534 -1.47714 0
M  V30 5941 O 558.074 1.84855 -0.642435 0
M  V30 5942 C 558.373 -0.0167296 -3.57396 0
M  V30 5943 C 558.039 -1.32251 -4.31069 0
M  V30 5944 C 556.701 -1.68019 -4.50914 0
M  V30 5945 C 559.053 -2.18542 -4.73169 0
M  V30 5946 C 556.381 -2.89828 -5.10114 0
M  V30 5947 C 558.733 -3.39602 -5.33717 0
M  V30 5948 C 557.397 -3.7562 -5.51784 0
M  V30 5949 H 556.667 -0.0382785 -0.740011 0
M  V30 5950 H 559.314 -0.790782 -1.7441 0
M  V30 5951 H 557.619 0.752715 -3.84502 0
M  V30 5952 H 559.316 0.389634 -3.99103 0
M  V30 5953 H 555.906 -1.03411 -4.15938 0
M  V30 5954 H 560.09 -1.92208 -4.5757 0
M  V30 5955 H 555.346 -3.17839 -5.22291 0
M  V30 5956 H 559.52 -4.06716 -5.65292 0
M  V30 5957 H 557.147 -4.70093 -5.97425 0
M  V30 5958 N 558.722 1.53707 -0.348139 0
M  V30 5959 C 559.685 2.23812 0.494058 0
M  V30 5960 C 560.685 1.23989 1.02388 0
M  V30 5961 O 561.875 1.48395 0.912396 0
M  V30 5962 C 559.007 2.96133 1.68872 0
M  V30 5963 H 560.2 2.99663 -0.119141 0
M  V30 5964 H 557.753 1.55983 -0.0995539 0
M  V30 5965 H 558.488 2.24481 2.34049 0
M  V30 5966 H 558.273 3.69357 1.31596 0
M  V30 5967 H 559.763 3.49475 2.28597 0
M  V30 5968 N 560.2 0.0768682 1.57412 0
M  V30 5969 C 561.43 -0.5991 1.97723 0
M  V30 5970 C 561.838 -1.63378 0.954166 0
M  V30 5971 O 561.181 -1.83578 -0.0668706 0
M  V30 5972 C 561.243 -1.32078 3.34358 0
M  V30 5973 C 560.907 -0.438985 4.54887 0
M  V30 5974 C 561.904 0.305492 5.19002 0
M  V30 5975 C 559.589 -0.362378 5.00991 0
M  V30 5976 C 561.583 1.11475 6.27576 0
M  V30 5977 C 559.27 0.450543 6.09437 0
M  V30 5978 C 560.268 1.18777 6.72593 0
M  V30 5979 O 559.956 1.98727 7.7895 0
M  V30 5980 H 559.688 -0.166725 0.655117 0
M  V30 5981 H 562.242 0.147337 2.04871 0
M  V30 5982 H 560.472 -2.1134 3.2384 0
M  V30 5983 H 562.161 -1.88949 3.5924 0
M  V30 5984 H 562.927 0.25593 4.84324 0
M  V30 5985 H 558.806 -0.925832 4.51608 0
M  V30 5986 H 562.35 1.69068 6.76803 0
M  V30 5987 H 558.247 0.501651 6.43548 0
M  V30 5988 H 559.015 1.91214 7.95851 0
M  V30 5989 N 561.678 -1.56367 -0.196722 0
M  V30 5990 C 562.955 -1.71359 -0.943159 0
M  V30 5991 C 563.335 -0.631192 -2.01443 0
M  V30 5992 O 562.683 0.358071 -2.25677 0
M  V30 5993 C 562.893 -3.13623 -1.53106 0
M  V30 5994 C 564.241 -3.73806 -2.01381 0
M  V30 5995 O 565.265 -3.16742 -1.62951 0
M  V30 5996 O 564.124 -4.73951 -2.7209 0
M  V30 5997 H 561.218 -0.698851 -0.442195 0
M  V30 5998 H 563.764 -1.68672 -0.186547 0
M  V30 5999 H 562.536 -3.83873 -0.758785 0
M  V30 6000 H 562.159 -3.20532 -2.35255 0
M  V30 6001 N 563.156 0.464375 -1.50603 0
M  V30 6002 C 564.402 1.21776 -1.62168 0
M  V30 6003 C 564.735 1.91476 -0.324154 0
M  V30 6004 O 564.01 1.8242 0.674782 0
M  V30 6005 C 564.293 2.25614 -2.80661 0
M  V30 6006 C 564.146 1.60175 -4.20314 0
M  V30 6007 C 565.465 3.26862 -2.94702 0
M  V30 6008 H 562.584 0.44137 -0.590222 0
M  V30 6009 H 565.226 0.510623 -1.8301 0
M  V30 6010 H 563.376 2.85923 -2.63021 0
M  V30 6011 H 565.048 1.03411 -4.4956 0
M  V30 6012 H 563.291 0.904697 -4.24261 0
M  V30 6013 H 563.962 2.35665 -4.99165 0
M  V30 6014 H 566.438 2.76582 -3.10872 0
M  V30 6015 H 565.314 3.96839 -3.79223 0
M  V30 6016 H 565.575 3.91382 -2.05603 0
M  V30 6017 N 564.634 1.40294 0.718013 0
M  V30 6018 C 565.881 1.3844 1.47786 0
M  V30 6019 C 566.209 -0.0140838 1.94495 0
M  V30 6020 O 565.464 -0.998165 1.68331 0
M  V30 6021 C 565.763 2.31814 2.72024 0
M  V30 6022 C 565.429 3.79117 2.44093 0
M  V30 6023 C 564.091 4.19249 2.36185 0
M  V30 6024 C 566.443 4.72212 2.20602 0
M  V30 6025 C 563.771 5.50516 2.02851 0
M  V30 6026 C 566.123 6.03775 1.88781 0
M  V30 6027 C 564.787 6.42953 1.79354 0
M  V30 6028 H 564.057 0.506588 0.540786 0
M  V30 6029 H 566.704 1.72929 0.822663 0
M  V30 6030 H 565.009 1.90501 3.42369 0
M  V30 6031 H 566.706 2.27664 3.30106 0
M  V30 6032 H 563.296 3.47318 2.51133 0
M  V30 6033 H 567.48 4.42026 2.25669 0
M  V30 6034 H 562.736 5.79776 1.94088 0
M  V30 6035 H 566.91 6.75428 1.69617 0
M  V30 6036 H 564.537 7.44584 1.53291 0
M  V30 6037 N 566.112 -0.949982 1.2575 0
M  V30 6038 C 567.36 -1.6918 1.10555 0
M  V30 6039 C 567.681 -1.91773 -0.353298 0
M  V30 6040 O 566.951 -1.50814 -1.25027 0
M  V30 6041 H 565.531 -0.626952 0.406129 0
M  V30 6042 H 568.193 -1.1419 1.57945 0
M  V30 6043 H 567.289 -2.66915 1.61749 0
M  V30 6044 N 567.59 -1.07411 -1.15328 0
M  V30 6045 C 568.839 -0.792643 -1.85473 0
M  V30 6046 C 569.152 0.683789 -1.83259 0
M  V30 6047 O 570.358 1.08005 -2.49093 0
M  V30 6048 C 568.814 -1.36787 -3.32892 0
M  V30 6049 C 568.422 -2.87536 -3.43551 0
M  V30 6050 C 570.166 -1.16444 -4.08217 0
M  V30 6051 C 568.073 -3.38247 -4.85122 0
M  V30 6052 H 567.003 -0.292838 -0.694811 0
M  V30 6053 H 569.654 -1.29426 -1.30082 0
M  V30 6054 H 568.036 -0.793993 -3.87958 0
M  V30 6055 H 569.21 -3.50973 -2.98588 0
M  V30 6056 H 567.525 -3.06676 -2.81672 0
M  V30 6057 H 570.122 -1.51808 -5.12697 0
M  V30 6058 H 570.465 -0.10353 -4.16171 0
M  V30 6059 H 570.998 -1.70472 -3.59422 0
M  V30 6060 H 567.737 -4.43866 -4.82351 0
M  V30 6061 H 567.257 -2.79564 -5.30664 0
M  V30 6062 H 568.936 -3.34238 -5.5398 0
M  V30 6063 N 569.068 1.32177 -0.85831 0
M  V30 6064 C 570.479 1.79381 -0.517621 0
M  V30 6065 C 570.83 1.70841 0.964769 0
M  V30 6066 O 569.955 1.26917 1.75274 0
M  V30 6067 C 570.55 3.25706 -0.932801 0
M  V30 6068 C 569.109 3.70851 -0.643953 0
M  V30 6069 C 568.256 2.53208 -1.13054 0
M  V30 6070 H 571.207 1.19424 -1.04516 0
M  V30 6071 H 571.228 3.79673 -0.250674 0
M  V30 6072 H 570.74 3.31889 -2.01174 0
M  V30 6073 H 568.841 3.70178 0.424112 0
M  V30 6074 H 568.954 4.63495 -1.21281 0
M  V30 6075 H 567.318 2.48676 -0.550679 0
M  V30 6076 H 568.101 2.62143 -2.21666 0
M  V30 6077 N 570.547 0.616602 1.45037 0
M  V30 6078 C 571.794 0.115331 2.02171 0
M  V30 6079 C 572.122 -1.25748 1.48383 0
M  V30 6080 O 571.377 -1.84511 0.652229 0
M  V30 6081 C 571.676 0.0356829 3.57382 0
M  V30 6082 C 571.342 1.34535 4.30362 0
M  V30 6083 C 570.004 1.70408 4.50016 0
M  V30 6084 C 572.356 2.21049 4.72003 0
M  V30 6085 C 569.684 2.92529 5.0857 0
M  V30 6086 C 572.036 3.42427 5.31908 0
M  V30 6087 C 570.7 3.78541 5.49784 0
M  V30 6088 H 569.97 0.0422024 0.739797 0
M  V30 6089 H 572.617 0.80002 1.73988 0
M  V30 6090 H 570.922 -0.732314 3.84895 0
M  V30 6091 H 572.619 -0.368463 3.99304 0
M  V30 6092 H 569.209 1.05615 4.15383 0
M  V30 6093 H 573.393 1.94632 4.56544 0
M  V30 6094 H 568.649 3.20605 5.20598 0
M  V30 6095 H 572.823 4.09709 5.63127 0
M  V30 6096 H 570.45 4.73255 5.94923 0
M  V30 6097 N 572.025 -1.5352 0.356285 0
M  V30 6098 C 573.271 -2.01414 -0.236653 0
M  V30 6099 C 573.604 -1.24339 -1.49176 0
M  V30 6100 O 572.879 -0.334496 -1.91602 0
M  V30 6101 C 573.162 -3.56059 -0.537982 0
M  V30 6102 C 573.015 -4.43835 0.730112 0
M  V30 6103 C 574.334 -4.19127 -1.34239 0
M  V30 6104 H 571.453 -0.732135 -0.0845386 0
M  V30 6105 H 574.095 -1.83854 0.479341 0
M  V30 6106 H 572.245 -3.71153 -1.14795 0
M  V30 6107 H 573.917 -4.40555 1.36782 0
M  V30 6108 H 572.16 -4.1218 1.3524 0
M  V30 6109 H 572.831 -5.49958 0.474358 0
M  V30 6110 H 575.307 -4.07809 -0.826498 0
M  V30 6111 H 574.183 -5.27378 -1.52198 0
M  V30 6112 H 574.444 -3.74581 -2.34822 0
M  V30 6113 N 573.503 -0.0852151 -1.57369 0
M  V30 6114 C 574.78 0.622534 -1.85429 0
M  V30 6115 C 575.16 1.86962 -0.980229 0
M  V30 6116 O 574.508 2.28445 -0.0500219 0
M  V30 6117 C 574.718 0.947374 -3.35896 0
M  V30 6118 C 576.066 1.31509 -4.03721 0
M  V30 6119 O 577.09 1.03869 -3.40719 0
M  V30 6120 O 575.949 1.83231 -5.14868 0
M  V30 6121 H 573.043 0.310513 -0.766492 0
M  V30 6122 H 575.589 -0.117164 -1.69295 0
M  V30 6123 H 574.361 0.0622264 -3.91251 0
M  V30 6124 H 573.984 1.74338 -3.5734 0
M  V30 6125 N 574.981 1.5647 0.188427 0
M  V30 6126 C 576.392 1.70864 0.752494 0
M  V30 6127 C 576.743 0.692905 1.83557 0
M  V30 6128 O 575.868 -0.149307 2.15884 0
M  V30 6129 C 576.463 3.09789 1.37173 0
M  V30 6130 C 575.022 3.25925 1.88281 0
M  V30 6131 C 574.169 2.66817 0.755259 0
M  V30 6132 H 577.12 1.58657 -0.0367408 0
M  V30 6133 H 577.141 3.07489 2.24122 0
M  V30 6134 H 576.653 3.83693 0.583219 0
M  V30 6135 H 574.754 2.56948 2.6983 0
M  V30 6136 H 574.867 4.33498 2.04001 0
M  V30 6137 H 573.231 2.2617 1.17128 0
M  V30 6138 H 574.014 3.43294 -0.0211237 0
M  V30 6139 N 576.459 -0.456382 1.50847 0
M  V30 6140 C 577.736 -1.21739 1.53098 0
M  V30 6141 C 578.116 -2.09179 0.284132 0
M  V30 6142 O 577.464 -2.16466 -0.731773 0
M  V30 6143 C 577.674 -2.03573 2.83477 0
M  V30 6144 C 579.022 -2.61264 3.34703 0
M  V30 6145 O 580.046 -2.13802 2.84898 0
M  V30 6146 O 578.905 -3.47779 4.21559 0
M  V30 6147 H 575.999 -0.553219 0.614718 0
M  V30 6148 H 578.545 -0.467003 1.63148 0
M  V30 6149 H 577.317 -1.39232 3.65691 0
M  V30 6150 H 576.94 -2.85716 2.76499 0
M  V30 6151 N 577.937 -1.40673 -0.710563 0
M  V30 6152 C 579.162 -1.42741 -1.50465 0
M  V30 6153 C 579.587 -0.0302116 -1.88076 0
M  V30 6154 O 578.945 0.962945 -1.53613 0
M  V30 6155 C 578.993 -2.32873 -2.75322 0
M  V30 6156 O 578.097 -1.77544 -3.72226 0
M  V30 6157 H 577.438 -0.485056 -0.45345 0
M  V30 6158 H 579.968 -1.84961 -0.874681 0
M  V30 6159 H 579.978 -2.48233 -3.23797 0
M  V30 6160 H 578.653 -3.34401 -2.47283 0
M  V30 6161 H 577.23 -1.71556 -3.31093 0
M  V30 6162 N 579.415 0.9433 -1.26252 0
M  V30 6163 C 580.661 1.69226 -1.12846 0
M  V30 6164 C 581.016 1.8963 0.325282 0
M  V30 6165 O 580.309 1.46435 1.23561 0
M  V30 6166 C 580.503 3.07073 -1.82868 0
M  V30 6167 C 580.332 3.00118 -3.34902 0
M  V30 6168 C 579.102 3.03251 -4.04186 0
M  V30 6169 C 581.3 2.80418 -4.31127 0
M  V30 6170 N 579.282 2.86573 -5.42908 0
M  V30 6171 C 580.653 2.72287 -5.5701 0
M  V30 6172 C 582.708 2.65185 -4.21404 0
M  V30 6173 C 581.411 2.50479 -6.74279 0
M  V30 6174 C 583.437 2.4475 -5.38378 0
M  V30 6175 C 582.799 2.37349 -6.63208 0
M  V30 6176 H 578.898 0.626716 -0.467708 0
M  V30 6177 H 581.482 1.11645 -1.5951 0
M  V30 6178 H 579.653 3.62797 -1.38682 0
M  V30 6179 H 581.385 3.70816 -1.62103 0
M  V30 6180 H 578.14 3.12882 -3.55531 0
M  V30 6181 H 578.564 2.81408 -6.15742 0
M  V30 6182 H 583.206 2.69675 -3.25631 0
M  V30 6183 H 580.924 2.4473 -7.70151 0
M  V30 6184 H 584.51 2.33872 -5.32724 0
M  V30 6185 H 583.39 2.21746 -7.52196 0
M  V30 6186 N 580.893 1.08022 1.14757 0
M  V30 6187 C 582.121 0.828847 1.89572 0
M  V30 6188 C 582.536 -0.618621 1.78377 0
M  V30 6189 O 581.893 -1.42482 1.1404 0
M  V30 6190 C 581.944 1.23677 3.39685 0
M  V30 6191 O 581.665 2.62746 3.50566 0
M  V30 6192 C 583.166 1.01569 4.31507 0
M  V30 6193 H 580.386 0.299196 0.600602 0
M  V30 6194 H 582.93 1.43846 1.45357 0
M  V30 6195 H 581.085 0.671347 3.81539 0
M  V30 6196 H 581.499 2.79573 4.43778 0
M  V30 6197 H 582.973 1.35055 5.35223 0
M  V30 6198 H 583.45 -0.0475433 4.39174 0
M  V30 6199 H 584.056 1.56636 3.95405 0
M  V30 6200 N 582.371 -1.3172 0.865308 0
M  V30 6201 C 583.782 -1.79104 0.527126 0
M  V30 6202 C 584.133 -1.7135 -0.955695 0
M  V30 6203 O 583.258 -1.27845 -1.74598 0
M  V30 6204 C 583.853 -3.25207 0.950061 0
M  V30 6205 C 582.412 -3.70504 0.663611 0
M  V30 6206 C 581.559 -2.52605 1.14395 0
M  V30 6207 H 584.51 -1.18868 1.05148 0
M  V30 6208 H 584.531 -3.79535 0.270805 0
M  V30 6209 H 584.043 -3.30818 2.02931 0
M  V30 6210 H 582.144 -3.70398 -0.404474 0
M  V30 6211 H 582.257 -4.62845 1.23737 0
M  V30 6212 H 580.621 -2.4838 0.563859 0
M  V30 6213 H 581.404 -2.60964 2.23053 0
M  V30 6214 N 583.85 -0.624285 -1.44708 0
M  V30 6215 C 584.76 0.0861083 -2.34442 0
M  V30 6216 C 585.776 0.84291 -1.5222 0
M  V30 6217 O 586.952 0.796723 -1.84971 0
M  V30 6218 C 584.017 1.05999 -3.30099 0
M  V30 6219 C 583.077 0.303316 -4.28227 0
M  V30 6220 C 582.311 1.23081 -5.19314 0
M  V30 6221 O 582.534 2.46929 -5.14181 0
M  V30 6222 O 581.468 0.71883 -5.97592 0
M  V30 6223 H 585.293 -0.651756 -2.96624 0
M  V30 6224 H 582.879 -0.384493 -1.44368 0
M  V30 6225 H 584.76 1.62046 -3.88997 0
M  V30 6226 H 583.436 1.77859 -2.70459 0
M  V30 6227 H 582.343 -0.300033 -3.72895 0
M  V30 6228 H 583.676 -0.375123 -4.90768 0
M  V30 6229 N 585.328 1.53329 -0.364422 0
M  V30 6230 C 586.238 2.29414 0.490552 0
M  V30 6231 C 587.254 1.35335 1.09363 0
M  V30 6232 O 588.43 1.68391 1.10483 0
M  V30 6233 C 585.495 3.06772 1.61529 0
M  V30 6234 C 584.556 4.16516 1.03986 0
M  V30 6235 C 583.789 4.90176 2.111 0
M  V30 6236 O 584.012 4.63687 3.32191 0
M  V30 6237 O 582.946 5.76134 1.74222 0
M  V30 6238 H 586.772 3.03428 -0.12856 0
M  V30 6239 H 584.357 1.48843 -0.128837 0
M  V30 6240 H 586.239 3.55082 2.26924 0
M  V30 6241 H 584.914 2.35596 2.21983 0
M  V30 6242 H 583.821 3.7246 0.349856 0
M  V30 6243 H 585.154 4.89855 0.4799 0
M  V30 6244 N 586.806 0.0935595 1.57322 0
M  V30 6245 C 588.052 -0.571355 1.94585 0
M  V30 6246 C 588.385 -1.67929 0.975366 0
M  V30 6247 O 587.66 -1.94498 0.00816206 0
M  V30 6248 C 587.943 -1.12797 3.41978 0
M  V30 6249 C 587.796 -0.0251881 4.49793 0
M  V30 6250 C 589.115 -2.02682 3.90651 0
M  V30 6251 H 586.234 -0.206223 0.70756 0
M  V30 6252 H 588.876 0.163956 1.89291 0
M  V30 6253 H 587.026 -1.75461 3.4662 0
M  V30 6254 H 588.698 0.608979 4.57263 0
M  V30 6255 H 586.941 0.641399 4.29032 0
M  V30 6256 H 587.612 -0.455433 5.50118 0
M  V30 6257 H 590.088 -1.49925 3.88152 0
M  V30 6258 H 588.964 -2.38555 4.94351 0
M  V30 6259 H 589.225 -2.94362 3.29854 0
M  V30 6260 N 588.284 -1.56567 -0.180126 0
M  V30 6261 C 589.533 -1.80685 -0.896426 0
M  V30 6262 C 589.846 -0.669335 -1.83791 0
M  V30 6263 O 591.052 -0.795209 -2.59593 0
M  V30 6264 C 589.508 -3.20132 -1.6445 0
M  V30 6265 C 589.116 -4.41727 -0.747088 0
M  V30 6266 C 590.86 -3.53549 -2.34955 0
M  V30 6267 C 588.767 -5.72195 -1.49489 0
M  V30 6268 H 587.697 -0.673758 -0.338477 0
M  V30 6269 H 590.348 -1.8289 -0.149467 0
M  V30 6270 H 588.73 -3.12218 -2.43589 0
M  V30 6271 H 589.904 -4.608 0.00671129 0
M  V30 6272 H 588.219 -4.16122 -0.152134 0
M  V30 6273 H 590.816 -4.48267 -2.91481 0
M  V30 6274 H 591.159 -2.78006 -3.09868 0
M  V30 6275 H 591.692 -3.62976 -1.62768 0
M  V30 6276 H 588.431 -6.50743 -0.788251 0
M  V30 6277 H 587.951 -5.57115 -2.22224 0
M  V30 6278 H 589.63 -6.1384 -2.04472 0
M  V30 6279 N 589.762 0.448376 -1.51087 0
M  V30 6280 C 591.173 1.0286 -1.5581 0
M  V30 6281 C 591.524 1.92583 -0.374989 0
M  V30 6282 O 590.649 2.10316 0.509533 0
M  V30 6283 C 591.244 1.87223 -2.8237 0
M  V30 6284 C 589.803 2.40314 -2.897 0
M  V30 6285 C 588.95 1.19238 -2.50355 0
M  V30 6286 H 591.901 0.230075 -1.57023 0
M  V30 6287 H 591.922 2.72553 -2.6551 0
M  V30 6288 H 591.434 1.21894 -3.68461 0
M  V30 6289 H 589.535 3.09129 -2.08014 0
M  V30 6290 H 589.648 2.73866 -3.93108 0
M  V30 6291 H 588.012 1.53428 -2.03303 0
M  V30 6292 H 588.795 0.555367 -3.38778 0
M  V30 6293 N 591.24 1.41047 0.703093 0
M  V30 6294 C 592.187 1.42302 1.81711 0
M  V30 6295 C 593.157 0.278336 1.63751 0
M  V30 6296 O 594.342 0.478266 1.84709 0
M  V30 6297 C 591.482 1.30362 3.19531 0
M  V30 6298 C 590.595 2.54638 3.48975 0
M  V30 6299 C 589.73 2.35047 4.76368 0
M  V30 6300 C 588.769 3.54837 4.98756 0
M  V30 6301 N 587.906 3.34363 6.1737 0
M  V30 6302 H 592.746 2.37516 1.79973 0
M  V30 6303 H 590.283 1.1795 0.878983 0
M  V30 6304 H 592.241 1.21443 3.99134 0
M  V30 6305 H 590.871 0.387602 3.20464 0
M  V30 6306 H 589.923 2.74037 2.63833 0
M  V30 6307 H 591.235 3.43766 3.61423 0
M  V30 6308 H 590.389 2.23552 5.64012 0
M  V30 6309 H 589.128 1.43363 4.66153 0
M  V30 6310 H 588.133 3.66795 4.09563 0
M  V30 6311 H 589.358 4.47464 5.10835 0
M  V30 6312 H 587.304 2.45373 6.08382 0
M  V30 6313 H 587.221 4.17063 6.30551 0
M  V30 6314 H 588.489 3.26626 7.07768 0
M  V30 6315 N 592.718 -0.936591 1.26751 0
M  V30 6316 C 594.134 -1.21095 1.03963 0
M  V30 6317 C 594.334 -2.00156 -0.232372 0
M  V30 6318 O 593.39 -2.3434 -0.940274 0
M  V30 6319 C 594.703 -1.96775 2.27377 0
M  V30 6320 C 596.251 -2.09749 2.32324 0
M  V30 6321 C 596.726 -2.88832 3.55443 0
M  V30 6322 N 598.217 -2.96404 3.55948 0
M  V30 6323 C 598.952 -3.58036 4.47881 0
M  V30 6324 N 598.448 -4.21132 5.50109 0
M  V30 6325 N 600.241 -3.55353 4.35523 0
M  V30 6326 H 592.392 -0.408173 2.08441 0
M  V30 6327 H 594.655 -0.243139 0.91629 0
M  V30 6328 H 594.361 -1.46094 3.19921 0
M  V30 6329 H 594.235 -2.97424 2.31989 0
M  V30 6330 H 596.622 -2.5962 1.40291 0
M  V30 6331 H 596.703 -1.08347 2.31721 0
M  V30 6332 H 596.347 -2.39647 4.47808 0
M  V30 6333 H 596.277 -3.90499 3.53296 0
M  V30 6334 H 598.768 -2.51552 2.82011 0
M  V30 6335 H 599.081 -4.66071 6.16439 0
M  V30 6336 H 597.426 -4.19705 5.53961 0
M  V30 6337 H 600.617 -3.05256 3.54875 0
M  V30 6338 H 600.79 -4.03097 5.07363 0
M  V30 6339 N 594.196 -1.08629 -1.14182 0
M  V30 6340 C 595.126 -0.740003 -2.21464 0
M  V30 6341 C 596.107 0.278591 -1.67803 0
M  V30 6342 O 597.292 0.148461 -1.93632 0
M  V30 6343 C 594.422 -0.150952 -3.46972 0
M  V30 6344 C 593.376 -1.09815 -4.13672 0
M  V30 6345 C 592.702 -0.3712 -5.3341 0
M  V30 6346 C 594.002 -2.43722 -4.61949 0
M  V30 6347 H 595.696 -1.63697 -2.50686 0
M  V30 6348 H 593.242 -0.788526 -1.20492 0
M  V30 6349 H 595.195 0.103325 -4.21273 0
M  V30 6350 H 593.919 0.781164 -3.1712 0
M  V30 6351 H 592.578 -1.33756 -3.41328 0
M  V30 6352 H 592.226 0.564792 -4.99819 0
M  V30 6353 H 591.926 -1.00267 -5.78982 0
M  V30 6354 H 593.45 -0.12503 -6.10472 0
M  V30 6355 H 594.864 -2.24034 -5.27714 0
M  V30 6356 H 593.261 -3.02582 -5.18232 0
M  V30 6357 H 594.331 -3.05082 -3.76899 0
M  V30 6358 N 595.674 1.31259 -0.872281 0
M  V30 6359 C 596.606 2.27396 -0.28697 0
M  V30 6360 C 597.619 1.53181 0.551297 0
M  V30 6361 O 598.808 1.74561 0.372914 0
M  V30 6362 C 595.908 3.33335 0.611617 0
M  V30 6363 C 595.081 4.36966 -0.194729 0
M  V30 6364 C 594.14 5.22387 0.632358 0
M  V30 6365 O 593.166 5.69169 0.0595691 0
M  V30 6366 N 594.368 5.46985 1.94391 0
M  V30 6367 H 597.133 2.78261 -1.11314 0
M  V30 6368 H 594.694 1.44306 -0.733994 0
M  V30 6369 H 596.686 3.87398 1.17068 0
M  V30 6370 H 595.256 2.82496 1.33846 0
M  V30 6371 H 594.476 3.82945 -0.935241 0
M  V30 6372 H 595.764 5.03273 -0.747935 0
M  V30 6373 H 595.162 5.10737 2.43237 0
M  V30 6374 H 593.719 6.03973 2.45071 0
M  V30 6375 N 597.152 0.631951 1.44375 0
M  V30 6376 C 598.062 -0.073674 2.34484 0
M  V30 6377 C 599.078 -0.834825 1.52665 0
M  V30 6378 O 600.254 -0.786902 1.85391 0
M  V30 6379 C 597.319 -1.04247 3.30656 0
M  V30 6380 C 596.38 -0.280602 4.28382 0
M  V30 6381 C 595.613 -1.20325 5.19959 0
M  V30 6382 O 595.836 -2.44199 5.15484 0
M  V30 6383 O 594.77 -0.687128 5.97965 0
M  V30 6384 H 598.596 0.667477 2.96274 0
M  V30 6385 H 596.181 0.392144 1.44162 0
M  V30 6386 H 598.063 -1.59981 3.89851 0
M  V30 6387 H 596.738 -1.76422 2.71398 0
M  V30 6388 H 595.645 0.319804 3.72731 0
M  V30 6389 H 596.978 0.401144 4.90563 0
M  V30 6390 N 598.631 -1.53133 0.372548 0
M  V30 6391 C 599.578 -2.25951 -0.470631 0
M  V30 6392 C 600.548 -1.26895 -1.07176 0
M  V30 6393 O 601.733 -1.55691 -1.10294 0
M  V30 6394 C 598.873 -3.05726 -1.6008 0
M  V30 6395 C 597.986 -4.19684 -1.02416 0
M  V30 6396 C 597.121 -4.86888 -2.124 0
M  V30 6397 C 596.16 -5.92866 -1.52238 0
M  V30 6398 N 595.297 -6.53732 -2.56084 0
M  V30 6399 H 600.137 -2.97587 0.156816 0
M  V30 6400 H 597.674 -1.4683 0.0891571 0
M  V30 6401 H 599.632 -3.50258 -2.26661 0
M  V30 6402 H 598.262 -2.36331 -2.1988 0
M  V30 6403 H 597.314 -3.79588 -0.248426 0
M  V30 6404 H 598.626 -4.95821 -0.544366 0
M  V30 6405 H 597.78 -5.34638 -2.86787 0
M  V30 6406 H 596.519 -4.10239 -2.63734 0
M  V30 6407 H 595.524 -5.4447 -0.763685 0
M  V30 6408 H 596.749 -6.71439 -1.0172 0
M  V30 6409 H 594.695 -5.79932 -3.06618 0
M  V30 6410 H 594.612 -7.25429 -2.12811 0
M  V30 6411 H 595.88 -7.0613 -3.30152 0
M  V30 6412 N 600.109 -0.101901 -1.5727 0
M  V30 6413 C 601.041 0.884723 -2.11436 0
M  V30 6414 C 602.054 1.24149 -1.05314 0
M  V30 6415 O 603.243 1.19341 -1.3274 0
M  V30 6416 C 600.343 2.19179 -2.58484 0
M  V30 6417 C 599.516 2.00933 -3.88516 0
M  V30 6418 C 598.575 3.15213 -4.2134 0
M  V30 6419 O 597.601 2.88877 -4.90448 0
M  V30 6420 N 598.803 4.41174 -3.77288 0
M  V30 6421 H 601.568 0.422058 -2.96713 0
M  V30 6422 H 599.129 0.0830128 -1.61687 0
M  V30 6423 H 601.121 2.94593 -2.77484 0
M  V30 6424 H 599.691 2.56847 -1.7818 0
M  V30 6425 H 598.911 1.09809 -3.78597 0
M  V30 6426 H 600.199 1.86026 -4.73573 0
M  V30 6427 H 599.597 4.6545 -3.21516 0
M  V30 6428 H 598.154 5.13515 -4.01429 0
M  V30 6429 N 601.587 1.56661 0.17182 0
M  V30 6430 C 602.534 1.96371 1.21273 0
M  V30 6431 C 603.504 0.82756 1.44016 0
M  V30 6432 O 604.689 1.08764 1.56764 0
M  V30 6433 C 601.829 2.32838 2.54716 0
M  V30 6434 C 600.942 3.59628 2.39356 0
M  V30 6435 C 600.077 3.85311 3.65662 0
M  V30 6436 C 599.116 5.0545 3.45234 0
M  V30 6437 N 598.253 5.27268 4.63608 0
M  V30 6438 H 603.093 2.85106 0.86709 0
M  V30 6439 H 600.63 1.41073 0.416744 0
M  V30 6440 H 602.588 2.52004 3.3249 0
M  V30 6441 H 601.218 1.47214 2.87277 0
M  V30 6442 H 600.27 3.4838 1.52761 0
M  V30 6443 H 601.582 4.4756 2.20207 0
M  V30 6444 H 600.736 4.04841 4.51872 0
M  V30 6445 H 599.475 2.95753 3.8779 0
M  V30 6446 H 598.48 4.85819 2.5741 0
M  V30 6447 H 599.705 5.96538 3.24529 0
M  V30 6448 H 597.651 4.40662 4.85956 0
M  V30 6449 H 597.568 6.09422 4.4737 0
M  V30 6450 H 598.836 5.51277 5.51103 0
M  V30 6451 N 603.065 -0.440357 1.51323 0
M  V30 6452 C 604.29 -1.21716 1.67928 0
M  V30 6453 C 604.715 -1.84328 0.374826 0
M  V30 6454 O 604.073 -1.68675 -0.664706 0
M  V30 6455 C 604.121 -2.27914 2.79442 0
M  V30 6456 O 603.225 -3.33325 2.42834 0
M  V30 6457 H 602.566 -0.35674 0.560029 0
M  V30 6458 H 605.096 -0.520417 1.97871 0
M  V30 6459 H 605.106 -2.72746 3.03436 0
M  V30 6460 H 603.781 -1.8172 3.741 0
M  V30 6461 H 602.358 -2.9399 2.294 0
M  V30 6462 N 604.543 -1.41418 -0.695603 0
M  V30 6463 C 605.453 -1.45622 -1.83933 0
M  V30 6464 C 606.469 -0.346825 -1.70508 0
M  V30 6465 O 607.645 -0.59454 -1.92424 0
M  V30 6466 C 604.71 -1.33627 -3.19914 0
M  V30 6467 C 603.771 -2.54882 -3.45447 0
M  V30 6468 C 603.004 -2.43449 -4.7494 0
M  V30 6469 O 603.227 -1.45905 -5.51424 0
M  V30 6470 O 602.161 -3.33206 -5.01256 0
M  V30 6471 H 605.987 -2.42114 -1.83342 0
M  V30 6472 H 603.572 -1.22956 -0.848658 0
M  V30 6473 H 605.454 -1.29221 -4.01098 0
M  V30 6474 H 604.129 -0.402508 -3.21188 0
M  V30 6475 H 603.036 -2.64865 -2.64192 0
M  V30 6476 H 604.369 -3.47087 -3.48987 0
M  V30 6477 N 606.021 0.929856 -1.27246 0
M  V30 6478 C 607.437 1.20542 -1.04603 0
M  V30 6479 C 607.637 2.00276 0.221754 0
M  V30 6480 O 606.693 2.34835 0.927833 0
M  V30 6481 C 608.006 1.95566 -2.28417 0
M  V30 6482 C 609.554 2.08513 -2.33433 0
M  V30 6483 C 610.029 2.86943 -3.5697 0
M  V30 6484 N 611.52 2.94512 -3.57515 0
M  V30 6485 C 612.255 3.55656 -4.49774 0
M  V30 6486 N 611.751 4.18209 -5.52334 0
M  V30 6487 N 613.544 3.53038 -4.37402 0
M  V30 6488 H 605.695 0.397113 -2.08655 0
M  V30 6489 H 607.958 0.238277 -0.917566 0
M  V30 6490 H 607.664 1.44395 -3.20691 0
M  V30 6491 H 607.538 2.9619 -2.33563 0
M  V30 6492 H 609.925 2.58872 -1.41666 0
M  V30 6493 H 610.006 1.07117 -2.32292 0
M  V30 6494 H 609.65 2.37268 -4.49072 0
M  V30 6495 H 609.58 3.8862 -3.55362 0
M  V30 6496 H 612.071 2.50053 -2.83341 0
M  V30 6497 H 612.384 4.62796 -6.18902 0
M  V30 6498 H 610.729 4.16761 -5.56179 0
M  V30 6499 H 613.92 3.0337 -3.56489 0
M  V30 6500 H 614.093 4.004 -5.09493 0
M  V30 6501 N 607.499 1.09233 1.13605 0
M  V30 6502 C 608.409 0.741939 2.22559 0
M  V30 6503 C 609.425 -0.255236 1.72118 0
M  V30 6504 O 610.601 -0.0970747 2.01166 0
M  V30 6505 C 607.666 0.165595 3.46304 0
M  V30 6506 C 606.727 1.21846 4.11645 0
M  V30 6507 C 605.96 0.669526 5.29484 0
M  V30 6508 O 606.183 -0.508228 5.68131 0
M  V30 6509 O 605.117 1.42361 5.84822 0
M  V30 6510 H 608.943 1.65107 2.54899 0
M  V30 6511 H 606.528 0.866584 1.21699 0
M  V30 6512 H 608.41 -0.152592 4.21124 0
M  V30 6513 H 607.085 -0.716573 3.15669 0
M  V30 6514 H 605.992 1.58931 3.38662 0
M  V30 6515 H 607.325 2.07321 4.46407 0
M  V30 6516 N 608.977 -1.30795 0.87923 0
M  V30 6517 C 610.205 -2.00527 0.509548 0
M  V30 6518 C 610.62 -1.65944 -0.90045 0
M  V30 6519 O 609.977 -0.893525 -1.5913 0
M  V30 6520 C 610.028 -3.55276 0.667943 0
M  V30 6521 O 609.749 -3.88625 2.02242 0
M  V30 6522 C 611.25 -4.4228 0.300494 0
M  V30 6523 H 608.47 -0.641261 0.197549 0
M  V30 6524 H 611.014 -1.66813 1.18295 0
M  V30 6525 H 609.169 -3.87377 0.0419843 0
M  V30 6526 H 609.583 -4.83334 2.03688 0
M  V30 6527 H 611.057 -5.50061 0.462242 0
M  V30 6528 H 611.534 -4.32556 -0.76106 0
M  V30 6529 H 612.14 -4.15613 0.902536 0
M  V30 6530 N 610.455 -0.639598 -1.44038 0
M  V30 6531 C 611.418 0.0506628 -2.29144 0
M  V30 6532 C 612.418 0.764001 -1.41491 0
M  V30 6533 O 613.608 0.607309 -1.63271 0
M  V30 6534 C 610.74 1.0824 -3.2326 0
M  V30 6535 H 611.933 -0.697987 -2.91664 0
M  V30 6536 H 609.486 -0.400146 -1.51091 0
M  V30 6537 H 610.221 1.86075 -2.65606 0
M  V30 6538 H 610.006 0.574725 -3.87865 0
M  V30 6539 H 611.496 1.56487 -3.87171 0
M  V30 6540 N 611.933 1.52934 -0.380664 0
M  V30 6541 C 613.179 2.01765 0.20458 0
M  V30 6542 C 613.512 1.26696 1.47179 0
M  V30 6543 O 612.787 0.364936 1.91046 0
M  V30 6544 C 613.07 3.56869 0.481269 0
M  V30 6545 C 612.923 4.42617 -0.800629 0
M  V30 6546 C 614.242 4.2121 1.27554 0
M  V30 6547 H 611.361 0.733388 0.0728803 0
M  V30 6548 H 614.003 1.83068 -0.50853 0
M  V30 6549 H 612.153 3.72932 1.08875 0
M  V30 6550 H 613.825 4.38323 -1.43773 0
M  V30 6551 H 612.068 4.09977 -1.4178 0
M  V30 6552 H 612.739 5.49134 -0.561791 0
M  V30 6553 H 615.215 4.09072 0.761514 0
M  V30 6554 H 614.091 5.29732 1.43788 0
M  V30 6555 H 614.352 3.78269 2.28833 0
M  V30 6556 N 613.412 0.11024 1.57214 0
M  V30 6557 C 614.828 -0.24638 1.57687 0
M  V30 6558 C 615.028 -1.67344 1.12241 0
M  V30 6559 O 614.084 -2.39298 0.805783 0
M  V30 6560 C 615.397 -0.0210288 3.00693 0
M  V30 6561 C 616.945 -0.0876077 3.12877 0
M  V30 6562 C 617.42 0.10994 4.57868 0
M  V30 6563 N 618.911 0.0556135 4.63167 0
M  V30 6564 C 619.646 0.183495 5.73106 0
M  V30 6565 N 619.142 0.367058 6.91827 0
M  V30 6566 N 620.935 0.123689 5.61964 0
M  V30 6567 H 613.086 1.04246 1.85058 0
M  V30 6568 H 615.349 0.40979 0.854854 0
M  V30 6569 H 615.055 0.965203 3.38196 0
M  V30 6570 H 614.929 -0.756748 3.69531 0
M  V30 6571 H 617.316 -1.06436 2.75237 0
M  V30 6572 H 617.397 0.67985 2.466 0
M  V30 6573 H 617.041 1.08362 4.96206 0
M  V30 6574 H 616.971 -0.677397 5.22225 0
M  V30 6575 H 619.462 -0.0831062 3.77809 0
M  V30 6576 H 619.775 0.455739 7.71455 0
M  V30 6577 H 618.12 0.40292 6.93831 0
M  V30 6578 H 621.311 -0.0186928 4.68096 0
M  V30 6579 H 621.484 0.226797 6.47603 0
M  V30 6580 N 614.89 -1.56749 -0.16351 0
M  V30 6581 C 616.139 -1.81626 -0.877211 0
M  V30 6582 C 616.452 -0.688791 -1.83071 0
M  V30 6583 O 617.658 -0.822697 -2.58735 0
M  V30 6584 C 616.114 -3.21858 -1.61045 0
M  V30 6585 C 615.722 -4.42494 -0.700195 0
M  V30 6586 C 617.466 -3.56021 -2.31192 0
M  V30 6587 C 615.373 -5.73748 -1.43412 0
M  V30 6588 H 614.303 -0.67731 -0.331312 0
M  V30 6589 H 616.954 -1.83039 -0.13006 0
M  V30 6590 H 615.336 -3.14784 -2.40264 0
M  V30 6591 H 616.51 -4.60766 0.0555849 0
M  V30 6592 H 614.825 -4.1626 -0.10799 0
M  V30 6593 H 617.422 -4.51333 -2.8671 0
M  V30 6594 H 617.765 -2.81277 -3.06902 0
M  V30 6595 H 618.298 -3.64682 -1.58909 0
M  V30 6596 H 615.037 -6.51543 -0.719186 0
M  V30 6597 H 614.557 -5.5944 -2.16302 0
M  V30 6598 H 616.236 -6.15975 -1.9795 0
M  V30 6599 N 616.368 0.432326 -1.51554 0
M  V30 6600 C 617.593 1.20824 -1.68571 0
M  V30 6601 C 618.018 1.84126 -0.384596 0
M  V30 6602 O 617.376 1.69025 0.655751 0
M  V30 6603 C 617.424 2.26429 -2.80646 0
M  V30 6604 O 616.528 3.32032 -2.44598 0
M  V30 6605 H 615.869 0.353765 -0.561913 0
M  V30 6606 H 618.399 0.509916 -1.98144 0
M  V30 6607 H 618.409 2.71133 -3.04878 0
M  V30 6608 H 617.084 1.79733 -3.75058 0
M  V30 6609 H 615.661 2.92769 -2.30956 0
M  V30 6610 N 617.846 1.41785 0.688094 0
M  V30 6611 C 618.778 1.40159 1.81351 0
M  V30 6612 C 619.791 0.30262 1.59963 0
M  V30 6613 O 620.98 0.564841 1.69327 0
M  V30 6614 C 618.08 1.16517 3.1824 0
M  V30 6615 C 617.253 2.38597 3.66593 0
M  V30 6616 C 616.312 2.10699 4.82174 0
M  V30 6617 O 615.338 2.83798 4.93404 0
M  V30 6618 N 616.54 1.10187 5.69947 0
M  V30 6619 H 619.305 2.3716 1.83236 0
M  V30 6620 H 616.866 1.36494 0.870697 0
M  V30 6621 H 618.858 0.957941 3.93199 0
M  V30 6622 H 617.428 0.280873 3.11336 0
M  V30 6623 H 616.648 2.74974 2.82459 0
M  V30 6624 H 617.936 3.19919 3.95638 0
M  V30 6625 H 617.334 0.497016 5.63512 0
M  V30 6626 H 615.891 0.954518 6.44773 0
M  V30 6627 N 619.324 -0.923095 1.27737 0
M  V30 6628 C 620.234 -2.05765 1.12685 0
M  V30 6629 C 621.25 -1.73911 0.0557197 0
M  V30 6630 O 622.426 -1.99674 0.263137 0
M  V30 6631 C 619.491 -3.37804 0.780363 0
M  V30 6632 C 618.552 -3.83326 1.93286 0
M  V30 6633 C 617.785 -5.09064 1.60281 0
M  V30 6634 O 618.008 -5.6809 0.512828 0
M  V30 6635 O 616.942 -5.50071 2.44347 0
M  V30 6636 H 620.768 -2.21378 2.07907 0
M  V30 6637 H 618.353 -1.04299 1.06968 0
M  V30 6638 H 620.235 -4.17097 0.600668 0
M  V30 6639 H 618.91 -3.23387 -0.142291 0
M  V30 6640 H 617.817 -3.049 2.16764 0
M  V30 6641 H 619.15 -4.02292 2.83588 0
M  V30 6642 N 620.802 -1.09834 -1.13024 0
M  V30 6643 C 622.051 -0.831806 -1.83749 0
M  V30 6644 C 622.364 0.644763 -1.84668 0
M  V30 6645 O 623.57 1.02697 -2.51327 0
M  V30 6646 C 622.026 -1.43817 -3.29916 0
M  V30 6647 C 621.634 -2.94759 -3.37374 0
M  V30 6648 C 623.378 -1.25077 -4.05655 0
M  V30 6649 C 621.285 -3.48461 -4.77838 0
M  V30 6650 H 620.215 -0.30751 -0.688443 0
M  V30 6651 H 622.866 -1.32156 -1.27307 0
M  V30 6652 H 621.248 -0.876106 -3.86187 0
M  V30 6653 H 622.422 -3.57228 -2.91076 0
M  V30 6654 H 620.737 -3.12581 -2.75103 0
M  V30 6655 H 623.334 -1.62649 -5.09362 0
M  V30 6656 H 623.677 -0.191782 -4.15858 0
M  V30 6657 H 624.21 -1.78057 -3.55725 0
M  V30 6658 H 620.949 -4.53998 -4.72828 0
M  V30 6659 H 620.469 -2.90757 -5.24615 0
M  V30 6660 H 622.148 -3.45914 -5.46766 0
M  V30 6661 N 622.28 1.30327 -0.886154 0
M  V30 6662 C 623.528 1.9571 -0.504195 0
M  V30 6663 C 623.849 1.70294 0.950003 0
M  V30 6664 O 623.119 1.02718 1.66811 0
M  V30 6665 H 621.699 0.72412 -0.183465 0
M  V30 6666 H 624.361 1.58835 -1.12949 0
M  V30 6667 H 623.457 3.04704 -0.675431 0
M  V30 6668 N 623.758 0.647228 1.43697 0
M  V30 6669 C 624.706 -0.0600105 2.32523 0
M  V30 6670 C 625.7 -0.819277 1.48271 0
M  V30 6671 O 626.906 -0.730356 1.64517 0
M  V30 6672 H 623.281 -0.0381872 0.75103 0
M  V30 6673 H 625.252 0.706978 2.89904 0
M  V30 6674 C 624.001 -1.0169 3.32497 0
M  V30 6675 H 623.324 -0.442083 3.97348 0
M  V30 6676 H 624.764 -1.48095 3.97296 0
M  V30 6677 C 623.223 -2.11002 2.6264 0
M  V30 6678 O 623.753 -3.19302 2.4374 0
M  V30 6679 N 621.959 -1.87388 2.22113 0
M  V30 6680 H 621.506 -0.993174 2.37684 0
M  V30 6681 H 621.464 -2.60723 1.75701 0
M  V30 6682 N 625.236 -1.5273 0.388769 0
M  V30 6683 C 626.166 -2.29353 -0.438111 0
M  V30 6684 C 627.147 -1.32719 -1.06394 0
M  V30 6685 O 628.332 -1.61612 -1.07681 0
M  V30 6686 C 625.462 -3.09995 -1.56589 0
M  V30 6687 C 624.416 -4.14509 -1.06613 0
M  V30 6688 C 623.742 -4.83372 -2.28594 0
M  V30 6689 C 625.042 -5.22127 -0.134459 0
M  V30 6690 H 626.736 -2.98723 0.201206 0
M  V30 6691 H 624.282 -1.43665 0.0982089 0
M  V30 6692 H 626.235 -3.62357 -2.15118 0
M  V30 6693 H 624.959 -2.38357 -2.23279 0
M  V30 6694 H 623.618 -3.63128 -0.503383 0
M  V30 6695 H 623.266 -4.08283 -2.93792 0
M  V30 6696 H 622.966 -5.54012 -1.95817 0
M  V30 6697 H 624.49 -5.38538 -2.87766 0
M  V30 6698 H 625.904 -5.69851 -0.627914 0
M  V30 6699 H 624.301 -6.00011 0.103534 0
M  V30 6700 H 625.371 -4.77971 0.816798 0
M  V30 6701 N 626.714 -0.118576 -1.57153 0
M  V30 6702 C 627.647 0.869046 -2.11004 0
M  V30 6703 C 628.625 1.26115 -1.02634 0
M  V30 6704 O 629.809 1.36228 -1.30285 0
M  V30 6705 C 626.936 2.16297 -2.6064 0
M  V30 6706 C 625.982 1.91896 -3.80891 0
M  V30 6707 S 626.815 1.13562 -5.2332 0
M  V30 6708 C 627.971 2.44135 -5.76324 0
M  V30 6709 H 628.204 0.411005 -2.94445 0
M  V30 6710 H 625.737 0.0951891 -1.54106 0
M  V30 6711 H 627.695 2.90642 -2.89892 0
M  V30 6712 H 626.356 2.59219 -1.77382 0
M  V30 6713 H 625.549 2.8777 -4.13768 0
M  V30 6714 H 625.151 1.25672 -3.52253 0
M  V30 6715 H 627.443 3.39976 -5.86022 0
M  V30 6716 H 628.386 2.15803 -6.74414 0
M  V30 6717 H 628.794 2.53483 -5.04387 0
M  V30 6718 N 628.193 1.56834 0.155195 0
M  V30 6719 C 629.14 1.97646 1.19184 0
M  V30 6720 C 630.11 0.842788 1.4313 0
M  V30 6721 O 631.295 1.1042 1.55602 0
M  V30 6722 C 628.435 2.35527 2.52232 0
M  V30 6723 C 627.548 3.62147 2.35529 0
M  V30 6724 C 626.683 3.89167 3.61555 0
M  V30 6725 C 625.722 5.09084 3.39853 0
M  V30 6726 N 624.859 5.32156 4.5799 0
M  V30 6727 H 629.699 2.8601 0.836802 0
M  V30 6728 H 627.236 1.41507 0.401758 0
M  V30 6729 H 629.194 2.55516 3.29799 0
M  V30 6730 H 627.824 1.50253 2.85699 0
M  V30 6731 H 626.876 3.4998 1.49057 0
M  V30 6732 H 628.188 4.49871 2.15448 0
M  V30 6733 H 627.342 4.09611 4.47553 0
M  V30 6734 H 626.081 2.9985 3.84632 0
M  V30 6735 H 625.086 4.88522 2.52243 0
M  V30 6736 H 626.311 5.99947 3.18183 0
M  V30 6737 H 624.257 4.45791 4.81255 0
M  V30 6738 H 624.174 6.14133 4.40882 0
M  V30 6739 H 625.442 5.57091 5.45225 0
M  V30 6740 N 629.671 -0.424282 1.51781 0
M  V30 6741 C 630.581 -1.54087 1.76902 0
M  V30 6742 C 631.597 -1.61249 0.653826 0
M  V30 6743 O 632.773 -1.78247 0.937552 0
M  V30 6744 C 629.838 -2.8996 1.90063 0
M  V30 6745 C 628.899 -2.92809 3.13945 0
M  V30 6746 C 628.132 -4.22201 3.26469 0
M  V30 6747 O 628.355 -5.15286 2.44616 0
M  V30 6748 O 627.289 -4.31599 4.1953 0
M  V30 6749 H 631.115 -1.358 2.71647 0
M  V30 6750 H 628.7 -0.608618 1.36441 0
M  V30 6751 H 630.582 -3.70575 2.0063 0
M  V30 6752 H 629.257 -3.08347 0.985067 0
M  V30 6753 H 628.164 -2.11102 3.08847 0
M  V30 6754 H 629.497 -2.79369 4.05233 0
M  V30 6755 N 631.149 -1.42148 -0.680565 0
M  V30 6756 C 632.398 -1.41604 -1.43636 0
M  V30 6757 C 632.711 -0.0337887 -1.95571 0
M  V30 6758 O 633.917 0.0942588 -2.71336 0
M  V30 6759 C 632.373 -2.49056 -2.59806 0
M  V30 6760 C 631.981 -3.9326 -2.14594 0
M  V30 6761 C 633.725 -2.5767 -3.37352 0
M  V30 6762 C 631.632 -4.92232 -3.27813 0
M  V30 6763 H 630.562 -0.526656 -0.539583 0
M  V30 6764 H 633.213 -1.68033 -0.737369 0
M  V30 6765 H 631.595 -2.15782 -3.32045 0
M  V30 6766 H 632.769 -4.35858 -1.49546 0
M  V30 6767 H 631.084 -3.88443 -1.50002 0
M  V30 6768 H 633.681 -3.28794 -4.21662 0
M  V30 6769 H 634.024 -1.61837 -3.83555 0
M  V30 6770 H 634.557 -2.90109 -2.72179 0
M  V30 6771 H 631.296 -5.89522 -2.86607 0
M  V30 6772 H 630.816 -4.5427 -3.91661 0
M  V30 6773 H 632.495 -5.13684 -3.93367 0
M  V30 6774 N 632.627 0.916307 -1.28225 0
M  V30 6775 C 633.537 2.05165 -1.13775 0
M  V30 6776 C 634.553 1.73879 -0.0649418 0
M  V30 6777 O 635.729 1.99531 -0.273722 0
M  V30 6778 C 632.794 3.37385 -0.798267 0
M  V30 6779 C 631.855 3.82296 -1.95316 0
M  V30 6780 C 631.088 5.08206 -1.62978 0
M  V30 6781 O 631.311 5.6781 -0.542948 0
M  V30 6782 O 630.245 5.48768 -2.47261 0
M  V30 6783 H 634.071 2.20273 -2.09078 0
M  V30 6784 H 631.656 1.0373 -1.07519 0
M  V30 6785 H 633.538 4.16773 -0.62278 0
M  V30 6786 H 632.213 3.23458 0.125139 0
M  V30 6787 H 631.12 3.03746 -2.18378 0
M  V30 6788 H 632.453 4.00782 -2.85718 0
M  V30 6789 N 634.105 1.10431 1.1244 0
M  V30 6790 C 635.333 0.868872 1.87772 0
M  V30 6791 C 635.748 -0.580645 1.7965 0
M  V30 6792 O 635.105 -1.40031 1.17036 0
M  V30 6793 C 635.156 1.30855 3.36986 0
M  V30 6794 O 634.877 2.70123 3.44914 0
M  V30 6795 C 636.378 1.107 4.29256 0
M  V30 6796 H 633.598 0.311868 0.59412 0
M  V30 6797 H 636.142 1.46897 1.42273 0
M  V30 6798 H 634.297 0.752126 3.80029 0
M  V30 6799 H 634.711 2.88923 4.37748 0
M  V30 6800 H 636.185 1.46378 5.32238 0
M  V30 6801 H 636.662 0.0456228 4.39176 0
M  V30 6802 H 637.268 1.64988 3.91994 0
M  V30 6803 N 635.583 -1.29855 0.893053 0
M  V30 6804 C 636.513 -2.3035 0.382249 0
M  V30 6805 C 637.494 -1.61328 -0.539203 0
M  V30 6806 O 638.679 -1.88882 -0.451342 0
M  V30 6807 C 635.809 -3.45024 -0.396983 0
M  V30 6808 C 634.763 -4.258 0.433437 0
M  V30 6809 C 634.089 -5.32605 -0.472889 0
M  V30 6810 C 635.389 -4.94549 1.67984 0
M  V30 6811 H 637.083 -2.73325 1.22205 0
M  V30 6812 H 634.629 -1.314 0.589073 0
M  V30 6813 H 636.582 -4.14398 -0.765024 0
M  V30 6814 H 635.306 -3.00875 -1.2705 0
M  V30 6815 H 633.965 -3.58125 0.783723 0
M  V30 6816 H 633.613 -4.84702 -1.34435 0
M  V30 6817 H 633.313 -5.87547 0.0789958 0
M  V30 6818 H 634.837 -6.04832 -0.837269 0
M  V30 6819 H 636.251 -5.56395 1.38192 0
M  V30 6820 H 634.648 -5.59393 2.17254 0
M  V30 6821 H 635.718 -4.20215 2.41965 0
M  V30 6822 N 637.061 -0.65484 -1.43351 0
M  V30 6823 C 638.307 -0.169142 -2.02093 0
M  V30 6824 C 638.64 1.21431 -1.51553 0
M  V30 6825 O 637.915 1.81105 -0.709317 0
M  V30 6826 C 638.198 -0.181775 -3.59641 0
M  V30 6827 C 638.051 -1.59926 -4.20409 0
M  V30 6828 C 639.37 0.480945 -4.37464 0
M  V30 6829 H 636.489 -0.0629371 -0.734308 0
M  V30 6830 H 639.131 -0.835833 -1.70628 0
M  V30 6831 H 637.281 0.385918 -3.86578 0
M  V30 6832 H 638.953 -2.21766 -4.04497 0
M  V30 6833 H 637.196 -2.14605 -3.76998 0
M  V30 6834 H 637.867 -1.55994 -5.295 0
M  V30 6835 H 640.343 -0.00208273 -4.161 0
M  V30 6836 H 639.219 0.441384 -5.47122 0
M  V30 6837 H 639.48 1.55533 -4.13838 0
M  V30 6838 N 638.539 1.52521 -0.396863 0
M  V30 6839 C 639.449 2.30403 0.44178 0
M  V30 6840 C 640.465 1.37625 1.06468 0
M  V30 6841 O 641.641 1.70697 1.06886 0
M  V30 6842 C 638.706 3.1013 1.54986 0
M  V30 6843 C 637.767 4.18628 0.951279 0
M  V30 6844 C 637 4.94543 2.00655 0
M  V30 6845 O 637.223 4.70629 3.22281 0
M  V30 6846 O 636.157 5.797 1.61962 0
M  V30 6847 H 639.983 3.03087 -0.192892 0
M  V30 6848 H 637.568 1.48537 -0.16038 0
M  V30 6849 H 639.45 3.59816 2.19341 0
M  V30 6850 H 638.125 2.40251 2.16935 0
M  V30 6851 H 637.032 3.73119 0.270773 0
M  V30 6852 H 638.365 4.90763 0.375887 0
M  V30 6853 N 640.017 0.126909 1.57088 0
M  V30 6854 C 640.927 -0.833867 2.1928 0
M  V30 6855 C 641.943 -1.2868 1.17122 0
M  V30 6856 O 643.119 -1.34815 1.49622 0
M  V30 6857 C 640.184 -2.0632 2.78627 0
M  V30 6858 C 639.245 -1.66143 3.95847 0
M  V30 6859 C 638.478 -2.83217 4.52354 0
M  V30 6860 O 638.701 -3.98868 4.0775 0
M  V30 6861 O 637.635 -2.59846 5.42922 0
M  V30 6862 H 641.461 -0.334564 3.01852 0
M  V30 6863 H 639.046 -0.0991091 1.49071 0
M  V30 6864 H 640.928 -2.78304 3.16425 0
M  V30 6865 H 639.603 -2.55242 1.99082 0
M  V30 6866 H 638.51 -0.912435 3.62802 0
M  V30 6867 H 639.843 -1.21957 4.76852 0
M  V30 6868 N 641.495 -1.56914 -0.146875 0
M  V30 6869 C 642.442 -1.98275 -1.18134 0
M  V30 6870 C 643.412 -0.850367 -1.42681 0
M  V30 6871 O 644.597 -1.11244 -1.55014 0
M  V30 6872 C 641.737 -2.36861 -2.5098 0
M  V30 6873 C 640.85 -3.63391 -2.33605 0
M  V30 6874 C 639.985 -3.91079 -3.59486 0
M  V30 6875 C 639.024 -5.10879 -3.37149 0
M  V30 6876 N 638.161 -5.34577 -4.55161 0
M  V30 6877 H 643.001 -2.8645 -0.821622 0
M  V30 6878 H 640.538 -1.41718 -0.394248 0
M  V30 6879 H 642.496 -2.57262 -3.28439 0
M  V30 6880 H 641.126 -1.51766 -2.84898 0
M  V30 6881 H 640.178 -3.50766 -1.47199 0
M  V30 6882 H 641.49 -4.51007 -2.13059 0
M  V30 6883 H 640.644 -4.11979 -4.45374 0
M  V30 6884 H 639.383 -3.01885 -3.83036 0
M  V30 6885 H 638.388 -4.89853 -2.49649 0
M  V30 6886 H 639.613 -6.01626 -3.14997 0
M  V30 6887 H 637.559 -4.48337 -4.78884 0
M  V30 6888 H 637.476 -6.16463 -4.37618 0
M  V30 6889 H 638.744 -5.59975 -5.42263 0
M  V30 6890 N 642.974 0.416227 -1.52004 0
M  V30 6891 C 644.202 1.18573 -1.69553 0
M  V30 6892 C 644.617 1.84472 -0.401919 0
M  V30 6893 O 643.974 1.71593 0.621463 0
M  V30 6894 C 644.025 2.25413 -2.82615 0
M  V30 6895 O 643.746 1.62205 -4.06966 0
M  V30 6896 C 645.247 3.15297 -3.11613 0
M  V30 6897 H 642.467 0.356582 -0.56841 0
M  V30 6898 H 645.011 0.490618 -1.98528 0
M  V30 6899 H 643.166 2.90604 -2.56179 0
M  V30 6900 H 643.58 2.3298 -4.69916 0
M  V30 6901 H 645.054 3.86351 -3.94255 0
M  V30 6902 H 645.531 3.77264 -2.24874 0
M  V30 6903 H 646.137 2.55783 -3.39787 0
M  V30 6904 N 644.452 1.42507 0.673017 0
M  V30 6905 C 645.399 1.46124 1.78651 0
M  V30 6906 C 646.369 0.313007 1.63124 0
M  V30 6907 O 647.554 0.517337 1.83653 0
M  V30 6908 C 644.694 1.3711 3.16694 0
M  V30 6909 C 643.807 2.61983 3.43495 0
M  V30 6910 C 642.942 2.45098 4.71275 0
M  V30 6911 C 641.981 3.65336 4.91117 0
M  V30 6912 N 641.118 3.47383 6.10139 0
M  V30 6913 H 645.958 2.4128 1.74895 0
M  V30 6914 H 643.495 1.19788 0.853766 0
M  V30 6915 H 645.453 1.29881 3.96468 0
M  V30 6916 H 644.083 0.45549 3.1957 0
M  V30 6917 H 643.135 2.79571 2.57961 0
M  V30 6918 H 644.447 3.51355 3.5405 0
M  V30 6919 H 643.601 2.35466 5.59143 0
M  V30 6920 H 642.34 1.53219 4.63007 0
M  V30 6921 H 641.345 3.754 4.0169 0
M  V30 6922 H 642.57 4.58199 5.01229 0
M  V30 6923 H 640.516 2.58222 6.0304 0
M  V30 6924 H 640.433 4.30344 6.21563 0
M  V30 6925 H 641.701 3.41565 7.00681 0
M  V30 6926 N 645.93 -0.909495 1.28709 0
M  V30 6927 C 646.84 -2.04558 1.14861 0
M  V30 6928 C 647.856 -1.73842 0.0741621 0
M  V30 6929 O 649.032 -1.99383 0.2843 0
M  V30 6930 C 646.097 -3.36957 0.816148 0
M  V30 6931 C 645.158 -3.81255 1.97341 0
M  V30 6932 C 644.391 -5.07335 1.65671 0
M  V30 6933 O 644.614 -5.67514 0.573053 0
M  V30 6934 O 643.548 -5.47449 2.50167 0
M  V30 6935 H 647.374 -2.19161 2.10243 0
M  V30 6936 H 644.959 -1.03159 1.08068 0
M  V30 6937 H 646.841 -4.16436 0.644873 0
M  V30 6938 H 645.516 -3.2352 -0.107983 0
M  V30 6939 H 644.423 -3.02584 2.19986 0
M  V30 6940 H 645.756 -3.99261 2.87839 0
M  V30 6941 N 647.408 -1.11026 -1.11852 0
M  V30 6942 C 648.633 -0.879064 -1.87849 0
M  V30 6943 C 649.058 0.565406 -1.79401 0
M  V30 6944 O 648.416 1.39886 -1.15333 0
M  V30 6945 C 648.464 -1.33985 -3.34784 0
M  V30 6946 O 647.568 -0.508803 -4.09249 0
M  V30 6947 H 646.909 -0.316992 -0.583448 0
M  V30 6948 H 649.439 -1.47863 -1.41413 0
M  V30 6949 H 649.449 -1.33248 -3.85628 0
M  V30 6950 H 648.124 -2.39172 -3.40249 0
M  V30 6951 H 646.701 -0.581913 -3.68332 0
M  V30 6952 N 648.886 1.2938 -0.899927 0
M  V30 6953 C 649.816 2.30144 -0.39446 0
M  V30 6954 C 650.797 1.61611 0.530639 0
M  V30 6955 O 651.982 1.89119 0.441319 0
M  V30 6956 C 649.112 3.45229 0.37868 0
M  V30 6957 C 648.066 4.25564 -0.456012 0
M  V30 6958 C 647.392 5.32848 0.444637 0
M  V30 6959 C 648.692 4.93651 -1.70605 0
M  V30 6960 H 650.386 2.72673 -1.23653 0
M  V30 6961 H 647.932 1.31086 -0.596034 0
M  V30 6962 H 649.885 4.14797 0.743037 0
M  V30 6963 H 648.609 3.01545 1.25453 0
M  V30 6964 H 647.268 3.57704 -0.802704 0
M  V30 6965 H 646.916 4.85408 1.31863 0
M  V30 6966 H 646.616 5.87497 -0.110154 0
M  V30 6967 H 648.14 6.05268 0.805182 0
M  V30 6968 H 649.554 5.55655 -1.41141 0
M  V30 6969 H 647.951 5.58233 -2.20217 0
M  V30 6970 H 649.021 4.18926 -2.4419 0
M  V30 6971 N 650.364 0.662433 1.43002 0
M  V30 6972 C 651.641 0.109096 1.95296 0
M  V30 6973 C 652.021 -1.37313 1.60338 0
M  V30 6974 O 651.369 -2.1032 0.893187 0
M  V30 6975 C 651.579 0.365096 3.47085 0
M  V30 6976 C 652.927 0.274964 4.23709 0
M  V30 6977 O 653.951 0.29816 3.5495 0
M  V30 6978 O 652.81 0.206549 5.4611 0
M  V30 6979 H 649.904 -0.00429724 0.826989 0
M  V30 6980 H 652.45 0.736308 1.52894 0
M  V30 6981 H 651.222 1.39237 3.65689 0
M  V30 6982 H 650.845 -0.294733 3.96506 0
M  V30 6983 N 651.842 -1.52309 0.404946 0
M  V30 6984 C 653.088 -2.02065 -0.172455 0
M  V30 6985 C 653.421 -1.29022 -1.45145 0
M  V30 6986 O 652.696 -0.395284 -1.90441 0
M  V30 6987 C 652.979 -3.5759 -0.424433 0
M  V30 6988 C 652.832 -4.41287 0.870945 0
M  V30 6989 C 654.151 -4.23186 -1.20837 0
M  V30 6990 H 651.27 -0.734454 -0.0612035 0
M  V30 6991 H 653.912 -1.82236 0.53759 0
M  V30 6992 H 652.062 -3.74617 -1.02929 0
M  V30 6993 H 653.734 -4.3598 1.50729 0
M  V30 6994 H 651.977 -4.07669 1.48284 0
M  V30 6995 H 652.648 -5.48171 0.649083 0
M  V30 6996 H 655.124 -4.10232 -0.696338 0
M  V30 6997 H 654 -5.31953 -1.35343 0
M  V30 6998 H 654.261 -3.81862 -2.22786 0
M  V30 6999 N 653.32 -0.135238 -1.57019 0
M  V30 7000 C 654.545 0.529343 -2.00531 0
M  V30 7001 C 654.97 1.58391 -1.01459 0
M  V30 7002 O 654.328 1.81296 0.0113986 0
M  V30 7003 C 654.376 1.11748 -3.42848 0
M  V30 7004 O 653.48 2.23267 -3.46736 0
M  V30 7005 H 652.821 0.130669 -0.651016 0
M  V30 7006 H 655.351 -0.228503 -2.0332 0
M  V30 7007 H 655.361 1.44905 -3.81401 0
M  V30 7008 H 654.036 0.345147 -4.14465 0
M  V30 7009 H 652.613 1.91428 -3.20015 0
M  V30 7010 N 654.798 1.5699 0.138552 0
M  V30 7011 C 656.214 1.51844 0.491472 0
M  V30 7012 C 656.414 0.845063 1.82923 0
M  V30 7013 O 655.47 0.419143 2.48997 0
M  V30 7014 C 656.783 2.96615 0.493987 0
M  V30 7015 C 658.331 3.076 0.578913 0
M  V30 7016 C 658.806 4.53893 0.612009 0
M  V30 7017 N 660.297 4.5827 0.673997 0
M  V30 7018 C 661.032 5.68852 0.720729 0
M  V30 7019 N 660.528 6.88982 0.726292 0
M  V30 7020 N 662.321 5.56908 0.762253 0
M  V30 7021 H 654.472 1.99158 -0.738228 0
M  V30 7022 H 656.735 0.908693 -0.270149 0
M  V30 7023 H 656.441 3.49172 -0.420933 0
M  V30 7024 H 656.315 3.53017 1.32887 0
M  V30 7025 H 658.702 2.55057 1.48425 0
M  V30 7026 H 658.783 2.54227 -0.283286 0
M  V30 7027 H 658.427 5.07076 -0.289208 0
M  V30 7028 H 658.357 5.05057 1.49082 0
M  V30 7029 H 660.848 3.71793 0.676654 0
M  V30 7030 H 661.161 7.69014 0.764032 0
M  V30 7031 H 659.506 6.91526 0.69403 0
M  V30 7032 H 662.697 4.61969 0.755135 0
M  V30 7033 H 662.87 6.43102 0.795207 0
M  V30 7034 N 656.276 -0.40816 1.52223 0
M  V30 7035 C 657.206 -1.5042 1.78595 0
M  V30 7036 C 658.187 -1.57723 0.636974 0
M  V30 7037 O 659.372 -1.72982 0.882664 0
M  V30 7038 C 656.502 -2.88232 1.93751 0
M  V30 7039 C 655.456 -2.95779 3.09352 0
M  V30 7040 C 654.782 -4.35855 3.09732 0
M  V30 7041 C 656.082 -2.67175 4.48793 0
M  V30 7042 H 657.776 -1.28601 2.70374 0
M  V30 7043 H 655.322 -0.617221 1.30101 0
M  V30 7044 H 657.275 -3.64895 2.10783 0
M  V30 7045 H 655.999 -3.11347 0.986443 0
M  V30 7046 H 654.658 -2.21561 2.92072 0
M  V30 7047 H 654.306 -4.55981 2.12346 0
M  V30 7048 H 654.006 -4.41829 3.87377 0
M  V30 7049 H 655.53 -5.14451 3.28895 0
M  V30 7050 H 656.944 -3.3356 4.66273 0
M  V30 7051 H 655.341 -2.84523 5.28362 0
M  V30 7052 H 656.411 -1.62609 4.56822 0
M  V30 7053 N 657.755 -1.42862 -0.66545 0
M  V30 7054 C 658.983 -1.47246 -1.45349 0
M  V30 7055 C 659.398 -0.0865944 -1.88601 0
M  V30 7056 O 658.755 0.900652 -1.58728 0
M  V30 7057 C 658.806 -2.40772 -2.6965 0
M  V30 7058 O 658.527 -3.73968 -2.2821 0
M  V30 7059 C 660.028 -2.54272 -3.63126 0
M  V30 7060 H 657.248 -0.500497 -0.446927 0
M  V30 7061 H 659.792 -1.87477 -0.816871 0
M  V30 7062 H 657.947 -2.0377 -3.29479 0
M  V30 7063 H 658.361 -4.24146 -3.08546 0
M  V30 7064 H 659.835 -3.23815 -4.47043 0
M  V30 7065 H 660.312 -1.58364 -4.09656 0
M  V30 7066 H 660.918 -2.92036 -3.09185 0
M  V30 7067 N 659.233 0.902656 -1.29189 0
M  V30 7068 C 660.649 1.18296 -1.07137 0
M  V30 7069 C 660.849 2.00701 0.179223 0
M  V30 7070 O 659.905 2.3675 0.877812 0
M  V30 7071 C 661.218 1.90677 -2.32514 0
M  V30 7072 C 662.766 2.03515 -2.37804 0
M  V30 7073 C 663.241 2.79307 -3.62976 0
M  V30 7074 N 664.732 2.86862 -3.63681 0
M  V30 7075 C 665.467 3.46035 -4.57217 0
M  V30 7076 N 664.963 4.06399 -5.61081 0
M  V30 7077 N 666.756 3.43681 -4.44792 0
M  V30 7078 H 658.907 0.352765 -2.0945 0
M  V30 7079 H 661.17 0.21876 -0.922414 0
M  V30 7080 H 660.876 1.3756 -3.23682 0
M  V30 7081 H 660.75 2.91169 -2.39793 0
M  V30 7082 H 663.137 2.55809 -1.47125 0
M  V30 7083 H 663.218 1.02166 -2.34512 0
M  V30 7084 H 662.862 2.2769 -4.54004 0
M  V30 7085 H 662.792 3.80995 -3.63525 0
M  V30 7086 H 665.283 2.43987 -2.88581 0
M  V30 7087 H 665.596 4.49564 -6.2858 0
M  V30 7088 H 663.941 4.0487 -5.64894 0
M  V30 7089 H 667.132 2.9574 -3.62843 0
M  V30 7090 H 667.305 3.89503 -5.17872 0
M  V30 7091 N 660.711 1.11618 1.11262 0
M  V30 7092 C 661.621 0.78898 2.20935 0
M  V30 7093 C 662.637 -0.21867 1.7262 0
M  V30 7094 O 663.813 -0.0543826 2.01327 0
M  V30 7095 C 660.878 0.239014 3.45875 0
M  V30 7096 C 659.939 1.3055 4.08968 0
M  V30 7097 C 659.172 0.781687 5.27944 0
M  V30 7098 O 659.395 -0.387605 5.69082 0
M  V30 7099 O 658.329 1.54734 5.81671 0
M  V30 7100 H 662.155 1.70477 2.51339 0
M  V30 7101 H 659.74 0.892203 1.19834 0
M  V30 7102 H 661.622 -0.0632312 4.21353 0
M  V30 7103 H 660.297 -0.649454 3.17118 0
M  V30 7104 H 659.204 1.66079 3.35214 0
M  V30 7105 H 660.537 2.16743 4.41909 0
M  V30 7106 N 662.189 -1.289 0.906776 0
M  V30 7107 C 663.437 -1.94883 0.535266 0
M  V30 7108 C 663.758 -1.71784 -0.922791 0
M  V30 7109 O 663.028 -1.05359 -1.65156 0
M  V30 7110 H 661.608 -0.721109 0.194962 0
M  V30 7111 H 664.27 -1.57018 1.15461 0
M  V30 7112 H 663.366 -3.03591 0.723821 0
M  V30 7113 N 663.667 -0.670007 -1.42649 0
M  V30 7114 C 664.915 -0.18991 -2.01206 0
M  V30 7115 C 665.236 1.20617 -1.53221 0
M  V30 7116 O 664.506 1.80898 -0.751856 0
M  V30 7117 H 663.086 -0.0672189 -0.743969 0
M  V30 7118 H 665.748 -0.865442 -1.74631 0
M  V30 7119 H 664.844 -0.187481 -3.11536 0
M  V30 7120 N 665.145 1.52092 -0.413018 0
M  V30 7121 C 666.556 1.86617 0.0556967 0
M  V30 7122 C 666.907 1.33156 1.44097 0
M  V30 7123 O 666.032 0.672417 2.05688 0
M  V30 7124 C 666.627 3.38628 0.107844 0
M  V30 7125 C 665.186 3.72778 0.520904 0
M  V30 7126 C 664.333 2.75649 -0.302109 0
M  V30 7127 H 667.284 1.45663 -0.629919 0
M  V30 7128 H 667.305 3.69152 0.922324 0
M  V30 7129 H 666.817 3.77508 -0.900506 0
M  V30 7130 H 664.918 3.39478 1.53575 0
M  V30 7131 H 665.031 4.7838 0.262591 0
M  V30 7132 H 663.395 2.53603 0.236115 0
M  V30 7133 H 664.178 3.17369 -1.30888 0
M  V30 7134 N 666.623 0.143563 1.56945 0
M  V30 7135 C 667.553 -0.7936 2.196 0
M  V30 7136 C 668.534 -1.25955 1.14321 0
M  V30 7137 O 669.719 -1.31773 1.42651 0
M  V30 7138 C 666.849 -2.03424 2.81489 0
M  V30 7139 C 665.803 -1.70519 3.92565 0
M  V30 7140 C 665.129 -3.01817 4.41373 0
M  V30 7141 C 666.429 -0.95449 5.13504 0
M  V30 7142 H 668.123 -0.271423 2.98167 0
M  V30 7143 H 665.669 -0.12911 1.4342 0
M  V30 7144 H 667.622 -2.69463 3.23987 0
M  V30 7145 H 666.346 -2.58008 2.00248 0
M  V30 7146 H 665.005 -1.06859 3.5068 0
M  V30 7147 H 664.653 -3.54386 3.56959 0
M  V30 7148 H 664.353 -2.80565 5.16292 0
M  V30 7149 H 665.877 -3.68934 4.86539 0
M  V30 7150 H 667.291 -1.5169 5.52868 0
M  V30 7151 H 665.688 -0.842035 5.94163 0
M  V30 7152 H 666.758 0.0544033 4.84869 0
M  V30 7153 N 668.101 -1.57061 -0.130224 0
M  V30 7154 C 669.031 -2.02552 -1.16168 0
M  V30 7155 C 670.012 -0.907971 -1.4384 0
M  V30 7156 O 671.197 -1.17693 -1.54473 0
M  V30 7157 C 668.327 -2.42035 -2.49071 0
M  V30 7158 C 667.281 -3.5713 -2.35886 0
M  V30 7159 C 666.607 -3.82478 -3.7365 0
M  V30 7160 C 667.907 -4.89236 -1.8288 0
M  V30 7161 H 669.601 -2.8897 -0.783359 0
M  V30 7162 H 667.147 -1.39021 -0.375376 0
M  V30 7163 H 669.1 -2.72462 -3.21469 0
M  V30 7164 H 667.824 -1.52573 -2.88771 0
M  V30 7165 H 666.483 -3.26895 -1.65938 0
M  V30 7166 H 666.131 -2.9024 -4.10816 0
M  V30 7167 H 665.831 -4.59944 -3.65685 0
M  V30 7168 H 667.355 -4.15347 -4.47571 0
M  V30 7169 H 668.769 -5.18272 -2.45085 0
M  V30 7170 H 667.166 -5.70624 -1.85763 0
M  V30 7171 H 668.236 -4.78494 -0.785571 0
M  V30 7172 N 669.579 0.400081 -1.52437 0
M  V30 7173 C 670.809 1.16598 -1.70553 0
M  V30 7174 C 671.217 1.8451 -0.418665 0
M  V30 7175 O 670.56 1.73069 0.615855 0
M  V30 7176 C 670.622 2.26517 -2.7916 0
M  V30 7177 C 670.286 1.78666 -4.20628 0
M  V30 7178 C 671.283 1.26946 -5.04163 0
M  V30 7179 C 668.968 1.85225 -4.66902 0
M  V30 7180 C 670.962 0.824187 -6.32049 0
M  V30 7181 C 668.649 1.40309 -5.94774 0
M  V30 7182 C 669.647 0.889922 -6.77178 0
M  V30 7183 O 669.335 0.447281 -8.02655 0
M  V30 7184 H 669.067 0.356023 -0.574651 0
M  V30 7185 H 671.621 0.475598 -1.99818 0
M  V30 7186 H 669.851 2.98946 -2.45292 0
M  V30 7187 H 671.54 2.88237 -2.85787 0
M  V30 7188 H 672.306 1.21244 -4.69601 0
M  V30 7189 H 668.185 2.24111 -4.02859 0
M  V30 7190 H 671.729 0.422958 -6.96317 0
M  V30 7191 H 667.626 1.45693 -6.28843 0
M  V30 7192 H 668.394 0.569768 -8.16514 0
M  V30 7193 N 671.057 1.43213 0.657864 0
M  V30 7194 C 671.967 1.50448 1.80007 0
M  V30 7195 C 672.983 0.39191 1.69529 0
M  V30 7196 O 674.159 0.645349 1.90781 0
M  V30 7197 C 671.224 1.42062 3.16258 0
M  V30 7198 C 670.285 2.63951 3.38568 0
M  V30 7199 C 669.518 2.55956 4.68318 0
M  V30 7200 O 669.741 1.60473 5.47361 0
M  V30 7201 O 668.675 3.46378 4.92245 0
M  V30 7202 H 672.501 2.4689 1.76858 0
M  V30 7203 H 670.086 1.25163 0.81576 0
M  V30 7204 H 671.968 1.3981 3.97531 0
M  V30 7205 H 670.643 0.487524 3.20008 0
M  V30 7206 H 669.55 2.71776 2.57077 0
M  V30 7207 H 670.883 3.56217 3.39662 0
M  V30 7208 N 672.536 -0.895792 1.29666 0
M  V30 7209 C 673.784 -1.64339 1.17631 0
M  V30 7210 C 674.105 -1.93099 -0.271643 0
M  V30 7211 O 673.375 -1.55981 -1.18518 0
M  V30 7212 H 671.955 -0.609162 0.432354 0
M  V30 7213 H 674.617 -1.07389 1.62646 0
M  V30 7214 H 673.713 -2.59815 1.72924 0
M  V30 7215 N 674.014 -1.12206 -1.10668 0
M  V30 7216 C 675.263 -0.870595 -1.81944 0
M  V30 7217 C 675.576 0.605447 -1.85994 0
M  V30 7218 O 676.782 0.973433 -2.53449 0
M  V30 7219 C 675.238 -1.50783 -3.26791 0
M  V30 7220 C 674.846 -3.01849 -3.31046 0
M  V30 7221 C 676.59 -1.33653 -4.02911 0
M  V30 7222 C 674.497 -3.58518 -4.70339 0
M  V30 7223 H 673.427 -0.322043 -0.681765 0
M  V30 7224 H 676.078 -1.34827 -1.24475 0
M  V30 7225 H 674.46 -0.957825 -3.84242 0
M  V30 7226 H 675.634 -3.63321 -2.83433 0
M  V30 7227 H 673.949 -3.18346 -2.68411 0
M  V30 7228 H 676.546 -1.73416 -5.05797 0
M  V30 7229 H 676.889 -0.279949 -4.15358 0
M  V30 7230 H 677.422 -1.85562 -3.51868 0
M  V30 7231 H 674.161 -4.63925 -4.63091 0
M  V30 7232 H 673.681 -3.01819 -5.18329 0
M  V30 7233 H 675.36 -3.57434 -5.39305 0
M  V30 7234 N 675.492 1.28418 -0.913599 0
M  V30 7235 C 676.717 1.99643 -0.561899 0
M  V30 7236 C 677.142 1.67819 0.849608 0
M  V30 7237 O 676.5 0.910503 1.56779 0
M  V30 7238 C 676.548 3.52116 -0.777622 0
M  V30 7239 O 675.652 4.12076 0.163457 0
M  V30 7240 H 674.993 0.627229 -0.217898 0
M  V30 7241 H 677.523 1.63575 -1.229 0
M  V30 7242 H 677.533 4.02163 -0.687666 0
M  V30 7243 H 676.208 3.74613 -1.8066 0
M  V30 7244 H 674.785 3.72892 0.0247827 0
M  V30 7245 N 676.97 0.677563 1.42291 0
M  V30 7246 C 677.9 0.014968 2.33495 0
M  V30 7247 C 678.881 -0.786376 1.50831 0
M  V30 7248 O 680.066 -0.742975 1.79426 0
M  V30 7249 C 677.196 -0.935023 3.34477 0
M  V30 7250 C 676.15 -0.242074 4.27315 0
M  V30 7251 C 675.476 -1.30519 5.18526 0
M  V30 7252 C 676.776 0.880604 5.14823 0
M  V30 7253 H 678.47 0.776671 2.89151 0
M  V30 7254 H 676.016 0.37494 1.39033 0
M  V30 7255 H 677.969 -1.40766 3.97194 0
M  V30 7256 H 676.693 -1.72818 2.77131 0
M  V30 7257 H 675.352 0.210351 3.65996 0
M  V30 7258 H 675 -2.09041 4.57505 0
M  V30 7259 H 674.7 -0.846652 5.81468 0
M  V30 7260 H 676.224 -1.7787 5.84119 0
M  V30 7261 H 677.638 0.489062 5.7121 0
M  V30 7262 H 676.035 1.26511 5.86613 0
M  V30 7263 H 677.105 1.72818 4.53059 0
M  V30 7264 N 678.448 -1.51871 0.421078 0
M  V30 7265 C 679.676 -2.06356 -0.14994 0
M  V30 7266 C 680.091 -1.29006 -1.37851 0
M  V30 7267 O 679.448 -0.345139 -1.79207 0
M  V30 7268 C 679.499 -3.58185 -0.488454 0
M  V30 7269 O 679.22 -4.32611 0.691341 0
M  V30 7270 C 680.721 -4.29129 -1.11191 0
M  V30 7271 H 677.941 -0.67083 -0.0151186 0
M  V30 7272 H 680.485 -1.95638 0.595476 0
M  V30 7273 H 678.64 -3.68871 -1.18376 0
M  V30 7274 H 679.054 -5.22927 0.405906 0
M  V30 7275 H 680.528 -5.36501 -1.29889 0
M  V30 7276 H 681.005 -3.86371 -2.0884 0
M  V30 7277 H 681.611 -4.22843 -0.456458 0
M  V30 7278 N 679.926 -0.151884 -1.56866 0
M  V30 7279 C 680.859 0.824094 -2.128 0
M  V30 7280 C 681.837 1.2391 -1.05286 0
M  V30 7281 O 683.021 1.33433 -1.33146 0
M  V30 7282 C 680.148 2.1072 -2.65169 0
M  V30 7283 C 679.194 1.83774 -3.84876 0
M  V30 7284 S 680.027 1.02436 -5.25611 0
M  V30 7285 C 681.183 2.31855 -5.81373 0
M  V30 7286 H 681.416 0.348456 -2.95251 0
M  V30 7287 H 678.949 0.0624794 -1.54274 0
M  V30 7288 H 680.907 2.84428 -2.95992 0
M  V30 7289 H 679.568 2.55398 -1.8284 0
M  V30 7290 H 678.761 2.78929 -4.19779 0
M  V30 7291 H 678.363 1.18172 -3.5484 0
M  V30 7292 H 680.655 3.27469 -5.93102 0
M  V30 7293 H 681.598 2.01449 -6.7884 0
M  V30 7294 H 682.006 2.42727 -5.09651 0
M  V30 7295 N 681.404 1.57128 0.121893 0
M  V30 7296 C 682.352 2.01109 1.16868 0
M  V30 7297 C 683.346 0.907532 1.43039 0
M  V30 7298 O 684.552 1.09274 1.43036 0
M  V30 7299 H 680.927 0.640539 0.393971 0
M  V30 7300 H 682.898 2.88261 0.771224 0
M  V30 7301 C 681.647 2.42887 2.48799 0
M  V30 7302 H 680.97 3.2737 2.29498 0
M  V30 7303 H 682.41 2.77461 3.20611 0
M  V30 7304 C 680.869 1.29137 3.11168 0
M  V30 7305 O 681.399 0.605756 3.97106 0
M  V30 7306 N 679.605 1.04916 2.71 0
M  V30 7307 H 679.152 1.60848 2.01211 0
M  V30 7308 H 679.11 0.290016 3.1306 0
M  V30 7309 N 682.882 -0.391992 1.52647 0
M  V30 7310 C 684.107 -1.16312 1.71716 0
M  V30 7311 C 684.532 -1.83042 0.433279 0
M  V30 7312 O 683.89 -1.70705 -0.610707 0
M  V30 7313 C 683.938 -2.18908 2.86551 0
M  V30 7314 O 683.042 -3.2543 2.53316 0
M  V30 7315 H 682.383 -0.338743 0.571095 0
M  V30 7316 H 684.913 -0.457202 1.99426 0
M  V30 7317 H 684.923 -2.62954 3.1196 0
M  V30 7318 H 683.598 -1.69726 3.79692 0
M  V30 7319 H 682.175 -2.86543 2.38637 0
M  V30 7320 N 684.36 -1.4356 -0.65026 0
M  V30 7321 C 685.307 -1.48948 -1.76304 0
M  V30 7322 C 686.277 -0.338919 -1.62605 0
M  V30 7323 O 687.462 -0.54649 -1.82806 0
M  V30 7324 C 684.602 -1.42131 -3.14472 0
M  V30 7325 C 683.715 -2.67415 -3.39284 0
M  V30 7326 C 682.85 -2.52565 -4.67316 0
M  V30 7327 C 681.889 -3.73103 -4.85243 0
M  V30 7328 N 681.026 -3.57046 -6.04535 0
M  V30 7329 H 685.866 -2.44032 -1.71034 0
M  V30 7330 H 683.403 -1.21131 -0.834601 0
M  V30 7331 H 685.361 -1.36172 -3.94351 0
M  V30 7332 H 683.991 -0.506273 -3.18805 0
M  V30 7333 H 683.043 -2.8364 -2.53481 0
M  V30 7334 H 684.355 -3.56943 -3.48415 0
M  V30 7335 H 683.509 -2.44331 -5.55326 0
M  V30 7336 H 682.248 -1.60566 -4.60511 0
M  V30 7337 H 681.253 -3.81743 -3.95667 0
M  V30 7338 H 682.478 -4.66115 -4.93876 0
M  V30 7339 H 680.424 -2.67783 -5.98856 0
M  V30 7340 H 680.341 -4.40178 -6.14638 0
M  V30 7341 H 681.609 -3.52669 -6.95158 0
M  V30 7342 N 685.838 0.888903 -1.30139 0
M  V30 7343 C 686.768 2.01046 -1.18755 0
M  V30 7344 C 687.749 1.69916 -0.0791438 0
M  V30 7345 O 688.934 1.92445 -0.260498 0
M  V30 7346 C 686.064 3.36109 -0.874518 0
M  V30 7347 C 685.018 3.81486 -1.94043 0
M  V30 7348 C 684.344 5.13796 -1.48047 0
M  V30 7349 C 685.644 4.00637 -3.35093 0
M  V30 7350 H 687.338 2.10828 -2.12584 0
M  V30 7351 H 684.884 1.01298 -1.02346 0
M  V30 7352 H 686.837 4.14089 -0.781548 0
M  V30 7353 H 685.561 3.26449 0.0994519 0
M  V30 7354 H 684.22 3.05731 -2.02297 0
M  V30 7355 H 683.868 5.0056 -0.494878 0
M  V30 7356 H 683.568 5.45127 -2.19341 0
M  V30 7357 H 685.092 5.94305 -1.40121 0
M  V30 7358 H 686.506 4.69067 -3.2962 0
M  V30 7359 H 684.903 4.43339 -4.04438 0
M  V30 7360 H 685.973 3.0462 -3.77273 0
M  V30 7361 N 687.317 1.12792 1.10072 0
M  V30 7362 C 688.247 0.821688 2.18565 0
M  V30 7363 C 689.228 -0.21612 1.68721 0
M  V30 7364 O 690.413 -0.0764932 1.94049 0
M  V30 7365 C 687.543 0.279624 3.46172 0
M  V30 7366 C 686.497 1.25092 4.09312 0
M  V30 7367 C 685.823 0.568916 5.31665 0
M  V30 7368 C 687.123 2.60699 4.52585 0
M  V30 7369 H 688.817 1.72888 2.44438 0
M  V30 7370 H 686.363 0.832702 1.17482 0
M  V30 7371 H 688.316 0.053099 4.21367 0
M  V30 7372 H 687.04 -0.662929 3.19801 0
M  V30 7373 H 685.699 1.46332 3.36129 0
M  V30 7374 H 685.347 -0.378898 5.01571 0
M  V30 7375 H 685.047 1.21687 5.74862 0
M  V30 7376 H 686.571 0.351517 6.09587 0
M  V30 7377 H 687.985 2.43465 5.19035 0
M  V30 7378 H 686.382 3.21608 5.06644 0
M  V30 7379 H 687.452 3.1886 3.65317 0
M  V30 7380 N 688.795 -1.27931 0.920396 0
M  V30 7381 C 689.743 -2.29061 0.404191 0
M  V30 7382 C 690.737 -1.61615 -0.507634 0
M  V30 7383 O 691.943 -1.75765 -0.388144 0
M  V30 7384 H 688.318 -0.743594 0.112123 0
M  V30 7385 H 690.289 -2.70021 1.27008 0
M  V30 7386 C 689.038 -3.46088 -0.334466 0
M  V30 7387 H 688.361 -3.98194 0.35797 0
M  V30 7388 H 689.801 -4.18829 -0.660196 0
M  V30 7389 C 688.26 -2.99396 -1.54479 0
M  V30 7390 O 688.79 -3.02439 -2.64374 0
M  V30 7391 N 686.996 -2.54978 -1.39408 0
M  V30 7392 H 686.543 -2.52701 -0.500009 0
M  V30 7393 H 686.501 -2.24098 -2.20516 0
M  V30 7394 N 690.273 -0.685099 -1.4193 0
M  V30 7395 C 691.521 -0.21124 -2.00993 0
M  V30 7396 C 691.842 1.18985 -1.54491 0
M  V30 7397 O 691.112 1.8009 -0.771 0
M  V30 7398 H 689.692 -0.0751059 -0.743215 0
M  V30 7399 H 692.354 -0.883915 -1.73704 0
M  V30 7400 H 691.45 -0.220513 -3.1132 0
M  V30 7401 N 691.751 1.51645 -0.429126 0
M  V30 7402 C 692.976 2.06917 0.141399 0
M  V30 7403 C 693.401 1.29527 1.36398 0
M  V30 7404 O 692.759 0.33094 1.78254 0
M  V30 7405 C 692.807 3.57776 0.4504 0
M  V30 7406 O 691.911 3.82639 1.53821 0
M  V30 7407 H 691.252 0.663978 0.0054647 0
M  V30 7408 H 693.782 1.95355 -0.608093 0
M  V30 7409 H 693.792 4.01894 0.703249 0
M  V30 7410 H 692.467 4.13532 -0.443213 0
M  V30 7411 H 691.044 3.5039 1.27597 0
M  V30 7412 N 693.229 0.160201 1.56784 0
M  V30 7413 C 694.161 -0.80564 2.14574 0
M  V30 7414 C 695.174 -1.20154 1.09849 0
M  V30 7415 O 696.363 -1.14333 1.37078 0
M  V30 7416 C 693.463 -2.09434 2.6644 0
M  V30 7417 C 692.636 -1.86375 3.95706 0
M  V30 7418 C 691.695 -2.99358 4.32749 0
M  V30 7419 O 690.721 -2.70475 5.00831 0
M  V30 7420 N 691.923 -4.26867 3.93402 0
M  V30 7421 H 694.688 -0.311644 2.98075 0
M  V30 7422 H 692.249 -0.0229465 1.61884 0
M  V30 7423 H 694.241 -2.84091 2.88226 0
M  V30 7424 H 692.811 -2.50057 1.8759 0
M  V30 7425 H 692.031 -0.956821 3.82412 0
M  V30 7426 H 693.319 -1.68322 4.80151 0
M  V30 7427 H 692.717 -4.53197 3.38569 0
M  V30 7428 H 691.274 -4.98263 4.20211 0
M  V30 7429 N 694.707 -1.5719 -0.113559 0
M  V30 7430 C 696.123 -1.52607 -0.467253 0
M  V30 7431 C 696.323 -0.874058 -1.81556 0
M  V30 7432 O 695.379 -0.458703 -2.48299 0
M  V30 7433 C 696.692 -2.97363 -0.446736 0
M  V30 7434 C 698.24 -3.08482 -0.529903 0
M  V30 7435 C 698.715 -4.54809 -0.539721 0
M  V30 7436 N 700.206 -4.59284 -0.601005 0
M  V30 7437 C 700.941 -5.69927 -0.630138 0
M  V30 7438 N 700.437 -6.90051 -0.616589 0
M  V30 7439 N 702.23 -5.5805 -0.673558 0
M  V30 7440 H 694.381 -1.97958 0.769819 0
M  V30 7441 H 696.644 -0.90428 0.284572 0
M  V30 7442 H 696.35 -3.48458 0.47643 0
M  V30 7443 H 696.224 -3.55086 -1.27254 0
M  V30 7444 H 698.611 -2.57386 -1.44349 0
M  V30 7445 H 698.692 -2.53744 0.323695 0
M  V30 7446 H 698.336 -5.06552 0.369843 0
M  V30 7447 H 698.266 -5.07364 -1.41028 0
M  V30 7448 H 700.757 -3.72822 -0.617419 0
M  V30 7449 H 701.07 -7.70132 -0.641592 0
M  V30 7450 H 699.415 -6.92543 -0.583927 0
M  V30 7451 H 702.606 -4.63112 -0.681544 0
M  V30 7452 H 702.779 -6.44286 -0.692794 0
M  V30 7453 N 696.185 0.383891 -1.52853 0
M  V30 7454 C 697.431 1.13009 -1.68395 0
M  V30 7455 C 697.764 1.89488 -0.425195 0
M  V30 7456 O 697.039 1.8574 0.577136 0
M  V30 7457 C 697.322 2.10419 -2.92226 0
M  V30 7458 C 697.175 1.3767 -4.28214 0
M  V30 7459 C 698.494 3.10781 -3.11614 0
M  V30 7460 H 695.613 0.409463 -0.612788 0
M  V30 7461 H 698.255 0.412895 -1.85459 0
M  V30 7462 H 696.405 2.71579 -2.77808 0
M  V30 7463 H 698.077 0.794352 -4.54409 0
M  V30 7464 H 696.32 0.678533 -4.2846 0
M  V30 7465 H 696.991 2.08874 -5.10956 0
M  V30 7466 H 699.467 2.59715 -3.25096 0
M  V30 7467 H 698.343 3.76179 -3.99725 0
M  V30 7468 H 698.604 3.79933 -2.2606 0
M  V30 7469 N 697.663 1.43903 0.642637 0
M  V30 7470 C 698.909 1.46296 1.40447 0
M  V30 7471 C 699.242 0.0908361 1.93987 0
M  V30 7472 O 698.517 -0.889884 1.72949 0
M  V30 7473 C 698.8 2.51399 2.57819 0
M  V30 7474 C 698.653 3.97926 2.09702 0
M  V30 7475 C 699.972 2.53125 3.60022 0
M  V30 7476 H 697.091 0.532676 0.509338 0
M  V30 7477 H 699.733 1.75515 0.727635 0
M  V30 7478 H 697.883 2.26614 3.1556 0
M  V30 7479 H 699.555 4.33804 1.5688 0
M  V30 7480 H 697.798 4.10252 1.40982 0
M  V30 7481 H 698.469 4.67096 2.94152 0
M  V30 7482 H 700.945 2.75242 3.12059 0
M  V30 7483 H 699.821 3.28589 4.39682 0
M  V30 7484 H 700.082 1.56895 4.13324 0
M  V30 7485 N 699.141 -0.881989 1.30609 0
M  V30 7486 C 700.074 -1.99066 1.11571 0
M  V30 7487 C 701.052 -1.62584 0.022516 0
M  V30 7488 O 702.236 -1.87671 0.176644 0
M  V30 7489 C 699.363 -3.3134 0.702237 0
M  V30 7490 C 698.409 -3.86807 1.79673 0
M  V30 7491 S 699.242 -4.13735 3.39976 0
M  V30 7492 C 700.398 -5.49024 3.00538 0
M  V30 7493 H 700.631 -2.1491 2.05429 0
M  V30 7494 H 698.164 -1.03074 1.14957 0
M  V30 7495 H 700.122 -4.07796 0.470415 0
M  V30 7496 H 698.783 -3.13349 -0.217034 0
M  V30 7497 H 697.976 -4.82397 1.45977 0
M  V30 7498 H 697.578 -3.17102 1.98298 0
M  V30 7499 H 699.87 -6.30208 2.48684 0
M  V30 7500 H 700.813 -5.8766 3.95046 0
M  V30 7501 H 701.221 -5.11726 2.3832 0
M  V30 7502 N 700.619 -1.13374 -1.09472 0
M  V30 7503 C 701.896 -0.806329 -1.78207 0
M  V30 7504 C 702.276 0.702191 -1.99079 0
M  V30 7505 O 701.624 1.63931 -1.59182 0
M  V30 7506 C 701.834 -1.59271 -3.10538 0
M  V30 7507 C 703.182 -1.78509 -3.85253 0
M  V30 7508 O 704.206 -1.55866 -3.20288 0
M  V30 7509 O 703.065 -2.16287 -5.01879 0
M  V30 7510 H 700.159 -0.29435 -0.772843 0
M  V30 7511 H 702.705 -1.23833 -1.16033 0
M  V30 7512 H 701.477 -2.61792 -2.90828 0
M  V30 7513 H 701.1 -1.15562 -3.80436 0
M  V30 7514 N 702.098 1.27442 -0.927168 0
M  V30 7515 C 703.346 1.94007 -0.566203 0
M  V30 7516 C 703.667 1.7323 0.895345 0
M  V30 7517 O 702.937 1.07973 1.63459 0
M  V30 7518 H 701.517 0.717917 -0.206409 0
M  V30 7519 H 704.179 1.55161 -1.17945 0
M  V30 7520 H 703.275 3.02401 -0.772028 0
M  V30 7521 N 703.576 0.692616 1.41565 0
M  V30 7522 C 704.822 0.222664 2.01574 0
M  V30 7523 C 705.155 -1.1737 1.54719 0
M  V30 7524 O 704.43 -1.79161 0.757084 0
M  V30 7525 C 704.713 0.277064 3.59033 0
M  V30 7526 C 704.566 1.71016 4.16021 0
M  V30 7527 C 705.885 -0.36479 4.38586 0
M  V30 7528 H 703.004 0.0823839 0.732381 0
M  V30 7529 H 705.646 0.880778 1.68352 0
M  V30 7530 H 703.796 -0.283288 3.87466 0
M  V30 7531 H 705.468 2.32413 3.98475 0
M  V30 7532 H 703.711 2.24525 3.71175 0
M  V30 7533 H 704.382 1.69978 5.25178 0
M  V30 7534 H 706.858 0.112404 4.15948 0
M  V30 7535 H 705.734 -0.296169 5.481 0
M  V30 7536 H 705.995 -1.44506 4.17816 0
M  V30 7537 N 705.054 -1.51416 0.437162 0
M  V30 7538 C 706.303 -2.01275 -0.130865 0
M  V30 7539 C 706.616 -1.32593 -1.438 0
M  V30 7540 O 707.822 -1.7342 -2.08897 0
M  V30 7541 C 706.278 -3.5878 -0.283763 0
M  V30 7542 C 705.886 -4.36399 1.01293 0
M  V30 7543 C 707.63 -4.16786 -0.805569 0
M  V30 7544 C 705.537 -5.85608 0.825687 0
M  V30 7545 H 704.467 -0.752157 -0.0526818 0
M  V30 7546 H 707.118 -1.74524 0.566896 0
M  V30 7547 H 705.5 -3.81976 -1.04452 0
M  V30 7548 H 706.674 -4.24948 1.78201 0
M  V30 7549 H 704.989 -3.89843 1.46326 0
M  V30 7550 H 707.586 -5.25972 -0.962146 0
M  V30 7551 H 707.929 -3.75949 -1.78796 0
M  V30 7552 H 708.462 -3.97666 -0.103125 0
M  V30 7553 H 705.201 -6.30857 1.78045 0
M  V30 7554 H 704.721 -5.99723 0.0964029 0
M  V30 7555 H 706.4 -6.45226 0.478815 0
M  V30 7556 N 706.532 -0.168513 -1.56696 0
M  V30 7557 C 707.757 0.486688 -2.01609 0
M  V30 7558 C 708.182 1.56203 -1.04796 0
M  V30 7559 O 707.54 1.8128 -0.0270596 0
M  V30 7560 C 707.588 1.04451 -3.45141 0
M  V30 7561 O 706.692 2.15862 -3.51393 0
M  V30 7562 H 706.033 0.116831 -0.653641 0
M  V30 7563 H 708.563 -0.271579 -2.0279 0
M  V30 7564 H 708.573 1.36782 -3.84389 0
M  V30 7565 H 707.248 0.257155 -4.15104 0
M  V30 7566 H 705.825 1.84597 -3.24004 0
M  V30 7567 N 708.01 1.57248 0.105221 0
M  V30 7568 C 709.287 1.76566 0.841647 0
M  V30 7569 C 709.667 0.747566 1.9742 0
M  V30 7570 O 709.015 -0.225886 2.27381 0
M  V30 7571 C 709.225 3.22016 1.3456 0
M  V30 7572 C 710.573 3.84911 1.79244 0
M  V30 7573 O 711.597 3.25703 1.44207 0
M  V30 7574 O 710.456 4.89008 2.43995 0
M  V30 7575 H 707.55 0.723443 0.400698 0
M  V30 7576 H 710.096 1.69472 0.0878893 0
M  V30 7577 H 708.868 3.87644 0.533685 0
M  V30 7578 H 708.491 3.33703 2.16167 0
M  V30 7579 N 709.488 -0.375779 1.53054 0
M  V30 7580 C 710.438 -1.45965 1.75152 0
M  V30 7581 C 711.422 -1.49059 0.605823 0
M  V30 7582 O 712.614 -1.54472 0.864133 0
M  V30 7583 C 709.743 -2.83524 1.93569 0
M  V30 7584 C 708.829 -2.84949 3.1411 0
M  V30 7585 N 709.22 -2.56029 4.36214 0
M  V30 7586 C 707.518 -3.16113 3.14625 0
M  V30 7587 C 708.219 -2.64873 5.17897 0
M  V30 7588 N 707.195 -2.99159 4.53878 0
M  V30 7589 H 710.997 -1.22454 2.67175 0
M  V30 7590 H 708.511 -0.583867 1.51541 0
M  V30 7591 H 710.508 -3.61578 2.07525 0
M  V30 7592 H 709.168 -3.08008 1.02768 0
M  V30 7593 H 710.179 -2.29808 4.64121 0
M  V30 7594 H 706.856 -3.45977 2.3368 0
M  V30 7595 H 708.246 -2.45947 6.25268 0
M  V30 7596 N 710.966 -1.44241 -0.634997 0
M  V30 7597 C 711.876 -1.53293 -1.77591 0
M  V30 7598 C 712.892 -0.418831 -1.68884 0
M  V30 7599 O 714.068 -0.675619 -1.8973 0
M  V30 7600 C 711.133 -1.47075 -3.13958 0
M  V30 7601 C 710.194 -2.69304 -3.34326 0
M  V30 7602 C 709.427 -2.63374 -4.64187 0
M  V30 7603 O 709.65 -1.69161 -5.44739 0
M  V30 7604 O 708.584 -3.54166 -4.86673 0
M  V30 7605 H 712.41 -2.49673 -1.72908 0
M  V30 7606 H 709.995 -1.26445 -0.795745 0
M  V30 7607 H 711.877 -1.46117 -3.95257 0
M  V30 7608 H 710.552 -0.538373 -3.19192 0
M  V30 7609 H 709.459 -2.75831 -2.52721 0
M  V30 7610 H 710.792 -3.61576 -3.33951 0
M  V30 7611 N 712.444 0.87505 -1.31075 0
M  V30 7612 C 713.684 1.64174 -1.21763 0
M  V30 7613 C 714.048 1.90713 0.221933 0
M  V30 7614 O 715.249 2.652 0.438458 0
M  V30 7615 C 713.52 2.93932 -2.0332 0
M  V30 7616 S 715.079 3.84841 -2.10815 0
M  V30 7617 H 711.897 0.563358 -0.433761 0
M  V30 7618 H 714.499 1.03788 -1.65675 0
M  V30 7619 H 713.203 2.72349 -3.07009 0
M  V30 7620 H 712.734 3.59345 -1.60108 0
M  V30 7621 H 714.749 4.80385 -1.24276 0
M  V30 7622 N 713.922 1.13953 1.08869 0
M  V30 7623 C 714.854 0.779906 2.15523 0
M  V30 7624 C 715.867 -0.20102 1.61554 0
M  V30 7625 O 717.056 0.0200049 1.78489 0
M  V30 7626 C 714.156 0.136226 3.38626 0
M  V30 7627 C 713.329 1.15069 4.21993 0
M  V30 7628 C 712.388 0.531645 5.23507 0
M  V30 7629 O 711.414 1.19327 5.56552 0
M  V30 7630 N 712.616 -0.693734 5.7634 0
M  V30 7631 H 715.381 1.69769 2.46979 0
M  V30 7632 H 712.942 1.03331 1.24637 0
M  V30 7633 H 714.934 -0.290295 4.03658 0
M  V30 7634 H 713.504 -0.684603 3.05011 0
M  V30 7635 H 712.724 1.75431 3.53012 0
M  V30 7636 H 714.012 1.83614 4.74514 0
M  V30 7637 H 713.41 -1.24994 5.51718 0
M  V30 7638 H 711.967 -1.06283 6.43076 0
M  V30 7639 N 715.4 -1.26948 0.933913 0
M  V30 7640 C 716.31 -2.30366 0.443671 0
M  V30 7641 C 717.326 -1.67284 -0.478745 0
M  V30 7642 O 718.502 -1.98156 -0.360043 0
M  V30 7643 C 715.567 -3.45485 -0.289974 0
M  V30 7644 C 714.628 -4.24069 0.668114 0
M  V30 7645 C 713.861 -5.33691 -0.0306138 0
M  V30 7646 O 714.084 -5.5656 -1.24888 0
M  V30 7647 O 713.018 -5.98441 0.644384 0
M  V30 7648 H 716.844 -2.74349 1.30254 0
M  V30 7649 H 714.429 -1.32012 0.699506 0
M  V30 7650 H 716.311 -4.15486 -0.70353 0
M  V30 7651 H 714.986 -3.03546 -1.12435 0
M  V30 7652 H 713.893 -3.56579 1.13147 0
M  V30 7653 H 715.226 -4.69739 1.46989 0
M  V30 7654 N 716.879 -0.700114 -1.41195 0
M  V30 7655 C 717.809 -0.0521132 -2.33442 0
M  V30 7656 C 718.79 0.76228 -1.52063 0
M  V30 7657 O 719.975 0.714336 -1.80585 0
M  V30 7658 C 717.105 0.881693 -3.35922 0
M  V30 7659 C 716.059 0.174062 -4.27646 0
M  V30 7660 C 715.385 1.22254 -5.20536 0
M  V30 7661 C 716.685 -0.962396 -5.13357 0
M  V30 7662 H 718.379 -0.822574 -2.87879 0
M  V30 7663 H 715.925 -0.397011 -1.38419 0
M  V30 7664 H 717.878 1.34429 -3.99383 0
M  V30 7665 H 716.602 1.68387 -2.79845 0
M  V30 7666 H 715.261 -0.268551 -3.65615 0
M  V30 7667 H 714.909 2.01736 -4.60773 0
M  V30 7668 H 714.609 0.754038 -5.82742 0
M  V30 7669 H 716.133 1.68555 -5.86874 0
M  V30 7670 H 717.547 -0.579875 -5.7036 0
M  V30 7671 H 715.944 -1.35828 -5.84526 0
M  V30 7672 H 717.014 -1.80003 -4.50252 0
M  V30 7673 N 718.357 1.51182 -0.445186 0
M  V30 7674 C 719.289 2.25714 0.398206 0
M  V30 7675 C 720.302 1.30032 0.979562 0
M  V30 7676 O 721.491 1.55731 0.872368 0
M  V30 7677 C 718.591 3.00348 1.56985 0
M  V30 7678 C 717.764 4.23187 1.10596 0
M  V30 7679 C 716.823 4.80334 2.14863 0
M  V30 7680 O 715.849 5.4196 1.73977 0
M  V30 7681 N 717.051 4.65053 3.47427 0
M  V30 7682 H 719.816 2.98732 -0.240629 0
M  V30 7683 H 717.377 1.59556 -0.274507 0
M  V30 7684 H 719.369 3.35464 2.26376 0
M  V30 7685 H 717.939 2.30291 2.11387 0
M  V30 7686 H 717.159 3.93476 0.238832 0
M  V30 7687 H 718.447 5.02886 0.773537 0
M  V30 7688 H 717.845 4.15984 3.83372 0
M  V30 7689 H 716.402 5.04509 4.12691 0
M  V30 7690 N 719.835 0.176821 1.56605 0
M  V30 7691 C 721.251 -0.179278 1.5859 0
M  V30 7692 C 721.451 -1.62433 1.19238 0
M  V30 7693 O 720.507 -2.35665 0.906552 0
M  V30 7694 C 721.82 0.106524 3.00511 0
M  V30 7695 C 723.368 0.0451731 3.12967 0
M  V30 7696 C 723.843 0.304038 4.5699 0
M  V30 7697 N 725.334 0.252008 4.62514 0
M  V30 7698 C 726.069 0.426404 5.71812 0
M  V30 7699 N 725.565 0.660155 6.89648 0
M  V30 7700 N 727.358 0.361926 5.60934 0
M  V30 7701 H 719.509 1.12001 1.8047 0
M  V30 7702 H 721.772 0.445679 0.836704 0
M  V30 7703 H 721.478 1.10778 3.33798 0
M  V30 7704 H 721.352 -0.599337 3.72408 0
M  V30 7705 H 723.739 -0.946662 2.79504 0
M  V30 7706 H 723.82 0.78383 2.43495 0
M  V30 7707 H 723.464 1.29311 4.91163 0
M  V30 7708 H 723.394 -0.455294 5.24628 0
M  V30 7709 H 725.885 0.0772102 3.77821 0
M  V30 7710 H 726.198 0.782529 7.68828 0
M  V30 7711 H 724.543 0.696835 6.91498 0
M  V30 7712 H 727.734 0.17986 4.67754 0
M  V30 7713 H 727.907 0.501263 6.46058 0
M  V30 7714 N 721.313 -1.57302 -0.09688 0
M  V30 7715 C 722.243 -2.0497 -1.11846 0
M  V30 7716 C 723.224 -0.938278 -1.41882 0
M  V30 7717 O 724.409 -1.20943 -1.51942 0
M  V30 7718 C 721.539 -2.47264 -2.43881 0
M  V30 7719 C 720.493 -3.62053 -2.28257 0
M  V30 7720 C 719.819 -3.90318 -3.65453 0
M  V30 7721 C 721.119 -4.93005 -1.72461 0
M  V30 7722 H 722.813 -2.90567 -0.721888 0
M  V30 7723 H 720.359 -1.39786 -0.345803 0
M  V30 7724 H 722.312 -2.7922 -3.15617 0
M  V30 7725 H 721.036 -1.58664 -2.8547 0
M  V30 7726 H 719.695 -3.30341 -1.58967 0
M  V30 7727 H 719.343 -2.98889 -4.04567 0
M  V30 7728 H 719.043 -4.67597 -3.55846 0
M  V30 7729 H 720.567 -4.24747 -4.3866 0
M  V30 7730 H 721.981 -5.23354 -2.34036 0
M  V30 7731 H 720.378 -5.74436 -1.73618 0
M  V30 7732 H 721.448 -4.80053 -0.683898 0
M  V30 7733 N 722.791 0.367657 -1.53252 0
M  V30 7734 C 724.019 1.13119 -1.73239 0
M  V30 7735 C 724.434 1.831 -0.460404 0
M  V30 7736 O 723.791 1.73483 0.566557 0
M  V30 7737 C 723.842 2.16308 -2.89643 0
M  V30 7738 O 723.563 1.49175 -4.1192 0
M  V30 7739 C 725.064 3.05224 -3.21486 0
M  V30 7740 H 722.284 0.338318 -0.579467 0
M  V30 7741 H 724.828 0.42721 -1.99988 0
M  V30 7742 H 722.983 2.82307 -2.65295 0
M  V30 7743 H 723.397 2.17912 -4.7709 0
M  V30 7744 H 724.871 3.73613 -4.06346 0
M  V30 7745 H 725.348 3.69919 -2.36763 0
M  V30 7746 H 725.954 2.44843 -3.47753 0
M  V30 7747 N 724.269 1.44576 0.627338 0
M  V30 7748 C 725.217 1.52039 1.76031 0
M  V30 7749 C 726.211 0.391796 1.64807 0
M  V30 7750 O 727.417 0.5669 1.7084 0
M  V30 7751 H 723.792 0.477165 0.581221 0
M  V30 7752 H 725.763 2.47387 1.6686 0
M  V30 7753 C 724.512 1.48539 3.14375 0
M  V30 7754 H 723.835 2.34699 3.23661 0
M  V30 7755 H 725.275 1.57821 3.93534 0
M  V30 7756 C 723.734 0.20672 3.36265 0
M  V30 7757 O 724.264 -0.72154 3.95167 0
M  V30 7758 N 722.47 0.108654 2.90397 0
M  V30 7759 H 722.017 0.864884 2.42647 0
M  V30 7760 H 721.975 -0.746121 3.05418 0
M  V30 7761 N 725.747 -0.868086 1.31537 0
M  V30 7762 C 726.993 -1.62367 1.2151 0
M  V30 7763 C 727.326 -1.92883 -0.225819 0
M  V30 7764 O 726.601 -1.56176 -1.15927 0
M  V30 7765 C 726.884 -2.95268 2.06129 0
M  V30 7766 C 726.737 -2.71619 3.58529 0
M  V30 7767 C 728.056 -3.96391 1.91212 0
M  V30 7768 H 725.175 -0.589178 0.442762 0
M  V30 7769 H 727.817 -1.00336 1.61347 0
M  V30 7770 H 725.967 -3.4821 1.72284 0
M  V30 7771 H 727.639 -2.25334 4.0252 0
M  V30 7772 H 725.882 -2.05817 3.81866 0
M  V30 7773 H 726.553 -3.66192 4.13047 0
M  V30 7774 H 729.029 -3.52663 2.20834 0
M  V30 7775 H 727.905 -4.87263 2.52718 0
M  V30 7776 H 728.166 -4.33335 0.875953 0
M  V30 7777 N 727.225 -1.14528 -1.08264 0
M  V30 7778 C 728.188 -0.83632 -2.13397 0
M  V30 7779 C 729.188 0.159715 -1.60005 0
M  V30 7780 O 730.378 -0.0688098 -1.74064 0
M  V30 7781 C 727.51 -0.246973 -3.40004 0
M  V30 7782 H 728.703 -1.76808 -2.42237 0
M  V30 7783 H 726.256 -0.951509 -1.24 0
M  V30 7784 H 726.991 0.693436 -3.168 0
M  V30 7785 H 726.776 -0.964412 -3.80055 0
M  V30 7786 H 728.266 -0.0480679 -4.17572 0
M  V30 7787 N 728.703 1.26451 -0.940633 0
M  V30 7788 C 729.666 2.24651 -0.454378 0
M  V30 7789 C 730.666 1.54826 0.434222 0
M  V30 7790 O 731.856 1.72628 0.233477 0
M  V30 7791 C 728.988 3.39148 0.345192 0
M  V30 7792 H 730.181 2.69182 -1.32217 0
M  V30 7793 H 727.734 1.38596 -0.722547 0
M  V30 7794 H 728.469 3.00018 1.23125 0
M  V30 7795 H 728.254 3.9101 -0.292107 0
M  V30 7796 H 729.744 4.12103 0.675341 0
M  V30 7797 N 730.181 0.707592 1.40822 0
M  V30 7798 C 731.409 0.253073 2.05346 0
M  V30 7799 C 731.824 -1.10218 1.53289 0
M  V30 7800 O 731.181 -1.69112 0.686105 0
M  V30 7801 C 731.232 0.215411 3.60858 0
M  V30 7802 O 730.953 1.51714 4.10992 0
M  V30 7803 C 732.454 -0.258636 4.42545 0
M  V30 7804 H 729.674 0.115256 0.661027 0
M  V30 7805 H 732.218 0.963555 1.80377 0
M  V30 7806 H 730.373 -0.445978 3.84824 0
M  V30 7807 H 730.787 1.41226 5.05129 0
M  V30 7808 H 732.261 -0.233849 5.51504 0
M  V30 7809 H 732.738 -1.2995 4.19535 0
M  V30 7810 H 733.344 0.372186 4.23668 0
M  V30 7811 N 731.66 -1.50943 0.453197 0
M  V30 7812 C 732.885 -2.07116 -0.108463 0
M  V30 7813 C 733.31 -1.31681 -1.3432 0
M  V30 7814 O 732.668 -0.359256 -1.77705 0
M  V30 7815 C 732.716 -3.58447 -0.393424 0
M  V30 7816 O 731.82 -3.85038 -1.47714 0
M  V30 7817 H 731.161 -0.66398 0.0050993 0
M  V30 7818 H 733.691 -1.94362 0.639095 0
M  V30 7819 H 733.701 -4.02961 -0.639222 0
M  V30 7820 H 732.376 -4.12774 0.508946 0
M  V30 7821 H 730.953 -3.52376 -1.22006 0
M  V30 7822 N 733.138 -0.185124 -1.56509 0
M  V30 7823 C 734.386 0.455357 -1.96903 0
M  V30 7824 C 734.707 1.62839 -1.07277 0
M  V30 7825 O 733.977 1.95385 -0.141966 0
M  V30 7826 H 732.557 0.171218 -0.727113 0
M  V30 7827 H 735.219 -0.26953 -1.93027 0
M  V30 7828 H 734.315 0.80616 -3.01509 0
M  V30 7829 N 734.616 1.57351 0.0885366 0
M  V30 7830 C 735.893 1.77449 0.822873 0
M  V30 7831 C 736.273 0.768463 1.96616 0
M  V30 7832 O 735.621 -0.201757 2.27608 0
M  V30 7833 C 735.831 3.23425 1.31137 0
M  V30 7834 C 737.179 3.86791 1.75152 0
M  V30 7835 O 738.203 3.27215 1.40745 0
M  V30 7836 O 737.062 4.91568 2.38794 0
M  V30 7837 H 734.156 0.727653 0.393002 0
M  V30 7838 H 736.702 1.69556 0.0699095 0
M  V30 7839 H 735.474 3.88188 0.49254 0
M  V30 7840 H 735.097 3.35977 2.12615 0
M  V30 7841 N 736.094 -0.359525 1.53444 0
M  V30 7842 C 737.342 -1.09935 1.69584 0
M  V30 7843 C 737.663 -1.89656 0.453371 0
M  V30 7844 O 736.933 -1.8852 -0.53263 0
M  V30 7845 H 735.513 -0.408843 0.625185 0
M  V30 7846 H 738.175 -0.40467 1.90653 0
M  V30 7847 H 737.271 -1.78575 2.55964 0
M  V30 7848 N 737.572 -1.44907 -0.619662 0
M  V30 7849 C 738.802 -1.51575 -1.40387 0
M  V30 7850 C 739.21 -0.14309 -1.88658 0
M  V30 7851 O 738.553 0.863403 -1.62145 0
M  V30 7852 C 738.615 -2.42858 -2.65067 0
M  V30 7853 C 738.279 -3.8982 -2.38515 0
M  V30 7854 C 739.276 -4.80047 -1.99627 0
M  V30 7855 C 736.961 -4.34628 -2.51801 0
M  V30 7856 C 738.955 -6.13086 -1.74369 0
M  V30 7857 C 736.642 -5.67712 -2.26156 0
M  V30 7858 C 737.64 -6.56759 -1.875 0
M  V30 7859 O 737.328 -7.87377 -1.62148 0
M  V30 7860 H 737.06 -0.51612 -0.436573 0
M  V30 7861 H 739.614 -1.90664 -0.763959 0
M  V30 7862 H 737.844 -1.98717 -3.31735 0
M  V30 7863 H 739.533 -2.40346 -3.27091 0
M  V30 7864 H 740.299 -4.46697 -1.8891 0
M  V30 7865 H 736.178 -3.65568 -2.80857 0
M  V30 7866 H 739.722 -6.8255 -1.44122 0
M  V30 7867 H 735.619 -6.0062 -2.36486 0
M  V30 7868 H 736.387 -7.99288 -1.763 0
M  V30 7869 N 739.05 0.861098 -1.31996 0
M  V30 7870 C 740.466 1.14827 -1.10846 0
M  V30 7871 C 740.666 2.0117 0.11528 0
M  V30 7872 O 739.722 2.39423 0.802048 0
M  V30 7873 C 741.035 1.83183 -2.38462 0
M  V30 7874 C 742.583 1.95847 -2.44158 0
M  V30 7875 C 743.058 2.67617 -3.71679 0
M  V30 7876 N 744.549 2.75147 -3.72624 0
M  V30 7877 C 745.284 3.31314 -4.67994 0
M  V30 7878 N 744.78 3.88343 -5.73726 0
M  V30 7879 N 746.573 3.29356 -4.55501 0
M  V30 7880 H 738.724 0.285951 -2.10466 0
M  V30 7881 H 740.987 0.189303 -0.928907 0
M  V30 7882 H 740.693 1.27193 -3.27895 0
M  V30 7883 H 740.567 2.83393 -2.48935 0
M  V30 7884 H 742.954 2.50999 -1.55189 0
M  V30 7885 H 743.035 0.94653 -2.37644 0
M  V30 7886 H 742.679 2.13131 -4.61018 0
M  V30 7887 H 742.609 3.69237 -3.75462 0
M  V30 7888 H 745.1 2.34682 -2.96197 0
M  V30 7889 H 745.413 4.29338 -6.42564 0
M  V30 7890 H 743.758 3.86693 -5.77489 0
M  V30 7891 H 746.949 2.84047 -3.72069 0
M  V30 7892 H 747.122 3.7283 -5.30001 0
M  V30 7893 N 740.528 1.15101 1.07655 0
M  V30 7894 C 741.776 0.922149 1.79836 0
M  V30 7895 C 742.097 -0.552346 1.87014 0
M  V30 7896 O 741.367 -1.40145 1.3688 0
M  V30 7897 H 739.947 0.338182 0.666064 0
M  V30 7898 H 742.609 1.45107 1.30115 0
M  V30 7899 H 741.705 1.32883 2.82398 0
M  V30 7900 N 742.006 -1.2595 0.947325 0
M  V30 7901 C 742.938 -2.25336 0.41906 0
M  V30 7902 C 743.951 -1.56135 -0.461051 0
M  V30 7903 O 745.14 -1.76438 -0.270505 0
M  V30 7904 C 742.24 -3.36334 -0.416233 0
M  V30 7905 C 741.413 -4.35088 0.449162 0
M  V30 7906 C 740.472 -5.25185 -0.326716 0
M  V30 7907 O 739.498 -5.68548 0.272374 0
M  V30 7908 N 740.7 -5.57388 -1.6217 0
M  V30 7909 H 743.465 -2.71298 1.27348 0
M  V30 7910 H 741.026 -1.39781 0.81688 0
M  V30 7911 H 743.018 -3.93564 -0.942826 0
M  V30 7912 H 741.588 -2.89819 -1.17148 0
M  V30 7913 H 740.808 -3.76841 1.15692 0
M  V30 7914 H 742.096 -4.98056 1.04008 0
M  V30 7915 H 741.494 -5.2405 -2.13046 0
M  V30 7916 H 740.051 -6.17234 -2.0944 0
M  V30 7917 N 743.484 -0.715051 -1.40445 0
M  V30 7918 C 744.712 -0.263959 -2.05209 0
M  V30 7919 C 745.127 1.09403 -1.53871 0
M  V30 7920 O 744.484 1.68746 -0.695064 0
M  V30 7921 C 744.535 -0.234545 -3.60738 0
M  V30 7922 O 744.256 -1.53891 -4.10182 0
M  V30 7923 C 745.757 0.235164 -4.42676 0
M  V30 7924 H 742.977 -0.11876 -0.660407 0
M  V30 7925 H 745.521 -0.973107 -1.79864 0
M  V30 7926 H 743.676 0.425563 -3.85055 0
M  V30 7927 H 744.09 -1.43903 -5.04373 0
M  V30 7928 H 745.564 0.204598 -5.51621 0
M  V30 7929 H 746.041 1.27724 -4.20218 0
M  V30 7930 H 746.647 -0.394649 -4.23465 0
M  V30 7931 N 744.962 1.50701 -0.461195 0
M  V30 7932 C 746.187 2.07171 0.0974773 0
M  V30 7933 C 746.612 1.32391 1.3362 0
M  V30 7934 O 745.97 0.368676 1.77512 0
M  V30 7935 C 746.018 3.58651 0.374409 0
M  V30 7936 O 745.122 3.85816 1.4567 0
M  V30 7937 H 744.463 0.663944 -0.00862047 0
M  V30 7938 H 746.993 1.94021 -0.649394 0
M  V30 7939 H 747.003 4.03295 0.617843 0
M  V30 7940 H 745.678 4.12498 -0.530829 0
M  V30 7941 H 744.255 3.53018 1.20136 0
M  V30 7942 N 746.441 0.193421 1.56409 0
M  V30 7943 C 747.852 -0.319471 1.83946 0
M  V30 7944 C 748.203 -1.61505 1.11403 0
M  V30 7945 O 747.328 -2.13139 0.374289 0
M  V30 7946 C 747.923 -0.586411 3.33686 0
M  V30 7947 C 746.482 -1.04368 3.61641 0
M  V30 7948 C 745.629 -0.0913834 2.77149 0
M  V30 7949 H 748.58 0.417242 1.53117 0
M  V30 7950 H 748.601 -1.43591 3.52366 0
M  V30 7951 H 748.113 0.356701 3.86457 0
M  V30 7952 H 746.214 -2.00113 3.14302 0
M  V30 7953 H 746.327 -0.937549 4.69837 0
M  V30 7954 H 744.691 -0.592954 2.47702 0
M  V30 7955 H 745.474 0.846142 3.32709 0
M  V30 7956 N 747.919 -1.57396 -0.0801906 0
M  V30 7957 C 748.869 -1.9955 -1.10289 0
M  V30 7958 C 749.853 -0.876234 -1.34948 0
M  V30 7959 O 751.045 -1.14012 -1.35389 0
M  V30 7960 C 748.174 -2.43596 -2.419 0
M  V30 7961 C 747.26 -3.6224 -2.20551 0
M  V30 7962 N 747.651 -4.76693 -1.69109 0
M  V30 7963 C 745.949 -3.68627 -2.51059 0
M  V30 7964 C 746.65 -5.58577 -1.62379 0
M  V30 7965 N 745.626 -5.02178 -2.0813 0
M  V30 7966 H 749.428 -2.85483 -0.698335 0
M  V30 7967 H 746.942 -1.59837 -0.287395 0
M  V30 7968 H 748.939 -2.72031 -3.15919 0
M  V30 7969 H 747.599 -1.59047 -2.8308 0
M  V30 7970 H 748.61 -4.9915 -1.38092 0
M  V30 7971 H 745.287 -2.94772 -2.95661 0
M  V30 7972 H 746.677 -6.60447 -1.2353 0
M  V30 7973 N 749.397 0.351382 -1.53633 0
M  V30 7974 C 750.625 1.11275 -1.74429 0
M  V30 7975 C 751.04 1.82602 -0.479798 0
M  V30 7976 O 750.397 1.74074 0.548125 0
M  V30 7977 C 750.448 2.13223 -2.91921 0
M  V30 7978 O 750.169 1.44798 -4.13479 0
M  V30 7979 C 751.67 3.01797 -3.24706 0
M  V30 7980 H 748.89 0.332153 -0.583023 0
M  V30 7981 H 751.434 0.405974 -2.0043 0
M  V30 7982 H 749.589 2.79477 -2.68274 0
M  V30 7983 H 750.003 2.12839 -4.79374 0
M  V30 7984 H 751.477 3.69282 -4.10286 0
M  V30 7985 H 751.954 3.67387 -2.40673 0
M  V30 7986 H 752.56 2.41141 -3.5033 0
M  V30 7987 N 750.875 1.45233 0.611969 0
M  V30 7988 C 752.286 1.4354 1.19387 0
M  V30 7989 C 752.637 0.160713 1.95541 0
M  V30 7990 O 751.762 -0.737954 2.03429 0
M  V30 7991 C 752.357 2.60045 2.17169 0
M  V30 7992 C 750.916 2.61486 2.70744 0
M  V30 7993 C 750.063 2.35708 1.46072 0
M  V30 7994 H 753.014 1.53536 0.401529 0
M  V30 7995 H 753.035 2.33893 3.00124 0
M  V30 7996 H 752.547 3.52803 1.61714 0
M  V30 7997 H 750.648 1.72721 3.30149 0
M  V30 7998 H 750.761 3.60572 3.15476 0
M  V30 7999 H 749.125 1.85178 1.74875 0
M  V30 8000 H 749.908 3.30606 0.924922 0
M  V30 8001 N 752.353 -0.854086 1.3245 0
M  V30 8002 C 753.301 -1.98411 1.21391 0
M  V30 8003 C 754.295 -1.68984 0.118586 0
M  V30 8004 O 755.501 -1.77784 0.281549 0
M  V30 8005 H 751.876 -0.651077 0.376301 0
M  V30 8006 H 753.847 -2.04867 2.16961 0
M  V30 8007 C 752.596 -3.34345 0.954407 0
M  V30 8008 H 751.919 -3.57518 1.78944 0
M  V30 8009 H 753.359 -4.13959 0.917269 0
M  V30 8010 C 751.818 -3.35151 -0.342838 0
M  V30 8011 O 752.348 -3.78174 -1.35452 0
M  V30 8012 N 750.554 -2.88298 -0.365012 0
M  V30 8013 H 750.101 -2.53481 0.4588 0
M  V30 8014 H 750.059 -2.8922 -1.23284 0
M  V30 8015 N 753.831 -1.1567 -1.07043 0
M  V30 8016 C 754.741 -0.870435 -2.17855 0
M  V30 8017 C 755.757 0.154452 -1.73313 0
M  V30 8018 O 756.933 -0.0203759 -2.0139 0
M  V30 8019 C 753.998 -0.367219 -3.4475 0
M  V30 8020 C 753.059 -1.45639 -4.03841 0
M  V30 8021 C 752.292 -0.977092 -5.2468 0
M  V30 8022 O 752.515 0.176127 -5.70128 0
M  V30 8023 O 751.449 -1.76215 -5.75527 0
M  V30 8024 H 755.275 -1.79687 -2.44839 0
M  V30 8025 H 752.86 -0.936064 -1.1644 0
M  V30 8026 H 754.742 -0.0931947 -4.21297 0
M  V30 8027 H 753.417 0.53131 -3.1931 0
M  V30 8028 H 752.324 -1.78406 -3.28819 0
M  V30 8029 H 753.657 -2.32995 -4.3356 0
M  V30 8030 N 755.309 1.25446 -0.953992 0
M  V30 8031 C 756.256 2.25912 -0.472485 0
M  V30 8032 C 757.226 1.59173 0.47469 0
M  V30 8033 O 758.411 1.86812 0.388082 0
M  V30 8034 C 755.551 3.44235 0.244218 0
M  V30 8035 C 754.664 4.25613 -0.740121 0
M  V30 8036 C 753.799 5.312 -0.000922267 0
M  V30 8037 C 752.838 6.04265 -0.976236 0
M  V30 8038 N 751.975 7.01589 -0.267952 0
M  V30 8039 H 756.815 2.66469 -1.3341 0
M  V30 8040 H 754.352 1.31005 -0.669045 0
M  V30 8041 H 756.31 4.11682 0.676314 0
M  V30 8042 H 754.94 3.04554 1.06988 0
M  V30 8043 H 753.992 3.57834 -1.2907 0
M  V30 8044 H 755.304 4.762 -1.48441 0
M  V30 8045 H 754.458 6.04719 0.48984 0
M  V30 8046 H 753.197 4.81484 0.776159 0
M  V30 8047 H 752.202 5.29561 -1.478 0
M  V30 8048 H 753.427 6.5607 -1.75354 0
M  V30 8049 H 751.373 6.54164 0.490403 0
M  V30 8050 H 751.29 7.4999 -0.951344 0
M  V30 8051 H 752.558 7.7924 0.201294 0
M  V30 8052 N 756.787 0.722489 1.40064 0
M  V30 8053 C 758.034 0.264979 2.00759 0
M  V30 8054 C 758.362 -1.14395 1.57302 0
M  V30 8055 O 757.617 -1.79165 0.787298 0
M  V30 8056 C 757.916 0.300682 3.56133 0
M  V30 8057 C 757.582 1.66087 4.19197 0
M  V30 8058 C 756.244 2.03319 4.36136 0
M  V30 8059 C 758.596 2.55452 4.54306 0
M  V30 8060 C 755.924 3.29448 4.8547 0
M  V30 8061 C 758.276 3.8094 5.05042 0
M  V30 8062 C 756.94 4.1828 5.2019 0
M  V30 8063 H 756.21 0.0969625 0.734629 0
M  V30 8064 H 758.857 0.926877 1.67575 0
M  V30 8065 H 757.162 -0.44479 3.89267 0
M  V30 8066 H 758.859 -0.0712542 4.00937 0
M  V30 8067 H 755.449 1.36137 4.06405 0
M  V30 8068 H 759.633 2.27961 4.40849 0
M  V30 8069 H 754.889 3.58338 4.95382 0
M  V30 8070 H 759.063 4.50351 5.31184 0
M  V30 8071 H 756.69 5.16081 5.58179 0
M  V30 8072 N 758.265 -1.50454 0.469181 0
M  V30 8073 C 759.495 -2.06429 -0.0840913 0
M  V30 8074 C 759.903 -1.3334 -1.34227 0
M  V30 8075 O 759.246 -0.395656 -1.79389 0
M  V30 8076 C 759.308 -3.56797 -0.440049 0
M  V30 8077 C 758.972 -4.51359 0.715838 0
M  V30 8078 C 759.969 -4.94754 1.59732 0
M  V30 8079 C 757.654 -4.94069 0.905621 0
M  V30 8080 C 759.648 -5.79564 2.653 0
M  V30 8081 C 757.335 -5.78662 1.96453 0
M  V30 8082 C 758.333 -6.21311 2.83658 0
M  V30 8083 O 758.021 -7.04218 3.87727 0
M  V30 8084 H 757.753 -0.675994 0.00289751 0
M  V30 8085 H 760.307 -1.94629 0.656417 0
M  V30 8086 H 758.537 -3.66492 -1.23372 0
M  V30 8087 H 760.226 -3.95145 -0.928181 0
M  V30 8088 H 760.992 -4.62428 1.46237 0
M  V30 8089 H 756.871 -4.60394 0.236326 0
M  V30 8090 H 760.415 -6.12774 3.33398 0
M  V30 8091 H 756.312 -6.10401 2.09955 0
M  V30 8092 H 757.08 -7.22464 3.84692 0
M  V30 8093 N 759.743 -0.201713 -1.56304 0
M  V30 8094 C 760.991 0.434447 -1.97375 0
M  V30 8095 C 761.312 1.61692 -1.08998 0
M  V30 8096 O 760.582 1.95223 -0.162682 0
M  V30 8097 H 759.162 0.163497 -0.728888 0
M  V30 8098 H 761.824 -0.289988 -1.92731 0
M  V30 8099 H 760.92 0.774136 -3.02347 0
M  V30 8100 N 761.222 1.57436 0.0718424 0
M  V30 8101 C 762.468 1.87525 0.772149 0
M  V30 8102 C 762.801 0.79399 1.77227 0
M  V30 8103 O 762.076 -0.195733 1.93513 0
M  V30 8104 C 762.359 3.28272 1.48018 0
M  V30 8105 C 762.212 4.47052 0.49647 0
M  V30 8106 C 763.531 3.67256 2.42509 0
M  V30 8107 H 760.65 0.682049 0.279245 0
M  V30 8108 H 763.292 1.89967 0.03534 0
M  V30 8109 H 761.442 3.26321 2.10824 0
M  V30 8110 H 763.114 4.61127 -0.126375 0
M  V30 8111 H 761.357 4.33392 -0.188205 0
M  V30 8112 H 762.028 5.42315 1.02949 0
M  V30 8113 H 764.504 3.70301 1.89781 0
M  V30 8114 H 763.38 4.66626 2.89053 0
M  V30 8115 H 763.641 2.97186 3.27312 0
M  V30 8116 N 762.7 -0.34323 1.53817 0
M  V30 8117 C 763.928 -1.10348 1.75017 0
M  V30 8118 C 764.343 -1.82345 0.489475 0
M  V30 8119 O 763.7 -1.74362 -0.538886 0
M  V30 8120 C 763.751 -2.11672 2.93048 0
M  V30 8121 O 763.472 -1.42603 4.14241 0
M  V30 8122 C 764.973 -3.0007 3.26301 0
M  V30 8123 H 762.193 -0.329056 0.584776 0
M  V30 8124 H 764.737 -0.395339 2.00642 0
M  V30 8125 H 762.892 -2.78051 2.69753 0
M  V30 8126 H 763.306 -2.10294 4.80496 0
M  V30 8127 H 764.78 -3.67101 4.12239 0
M  V30 8128 H 765.257 -3.66105 2.42618 0
M  V30 8129 H 765.863 -2.3928 3.51604 0
M  V30 8130 N 764.178 -1.45556 -0.604258 0
M  V30 8131 C 765.424 -1.49968 -1.36519 0
M  V30 8132 C 765.757 -0.142236 -1.93678 0
M  V30 8133 O 765.032 0.843717 -1.75247 0
M  V30 8134 C 765.315 -2.58146 -2.51063 0
M  V30 8135 C 765.168 -4.03346 -1.99078 0
M  V30 8136 C 766.487 -2.62581 -3.53184 0
M  V30 8137 H 763.606 -0.545993 -0.495036 0
M  V30 8138 H 766.248 -1.77382 -0.680845 0
M  V30 8139 H 764.398 -2.34901 -3.09441 0
M  V30 8140 H 766.07 -4.37811 -1.45323 0
M  V30 8141 H 764.313 -4.13845 -1.30055 0
M  V30 8142 H 764.984 -4.74731 -2.81664 0
M  V30 8143 H 767.46 -2.83419 -3.04652 0
M  V30 8144 H 766.336 -3.40131 -4.30816 0
M  V30 8145 H 766.597 -1.67798 -4.09019 0
M  V30 8146 N 765.656 0.84705 -1.32902 0
M  V30 8147 C 766.903 1.60176 -1.23894 0
M  V30 8148 C 767.231 1.93496 0.197341 0
M  V30 8149 O 766.486 1.58173 1.15238 0
M  V30 8150 C 766.785 2.92663 -2.05142 0
M  V30 8151 C 766.451 2.7874 -3.54422 0
M  V30 8152 C 765.113 2.7465 -3.95121 0
M  V30 8153 C 767.465 2.64128 -4.49317 0
M  V30 8154 C 764.793 2.53837 -5.28946 0
M  V30 8155 C 767.145 2.44849 -5.83294 0
M  V30 8156 C 765.809 2.39156 -6.23186 0
M  V30 8157 H 765.079 0.586127 -0.453361 0
M  V30 8158 H 767.726 0.981994 -1.64405 0
M  V30 8159 H 766.031 3.588 -1.57383 0
M  V30 8160 H 767.728 3.50095 -1.95537 0
M  V30 8161 H 764.318 2.82751 -3.22102 0
M  V30 8162 H 768.502 2.66327 -4.18788 0
M  V30 8163 H 763.758 2.4787 -5.58901 0
M  V30 8164 H 767.932 2.32524 -6.56434 0
M  V30 8165 H 765.559 2.22789 -7.26821 0
M  V30 8166 N 767.134 1.16236 1.06428 0
M  V30 8167 C 768.081 0.86769 2.13869 0
M  V30 8168 C 769.051 -0.183298 1.65086 0
M  V30 8169 O 770.236 -0.0488002 1.90738 0
M  V30 8170 C 767.376 0.373427 3.43074 0
M  V30 8171 C 766.489 1.48708 4.05598 0
M  V30 8172 C 765.624 0.947977 5.22673 0
M  V30 8173 C 764.663 2.03793 5.77178 0
M  V30 8174 N 763.8 1.51451 6.85571 0
M  V30 8175 H 768.64 1.78781 2.38414 0
M  V30 8176 H 766.177 0.891892 1.16977 0
M  V30 8177 H 768.135 0.0685035 4.17144 0
M  V30 8178 H 766.765 -0.509752 3.1875 0
M  V30 8179 H 765.817 1.908 3.29089 0
M  V30 8180 H 767.129 2.30964 4.42105 0
M  V30 8181 H 766.283 0.596154 6.03764 0
M  V30 8182 H 765.022 0.0947081 4.87608 0
M  V30 8183 H 764.027 2.39847 4.94726 0
M  V30 8184 H 765.252 2.89514 6.14295 0
M  V30 8185 H 763.198 0.683755 6.52427 0
M  V30 8186 H 763.115 2.27325 7.21013 0
M  V30 8187 H 764.383 1.19123 7.70344 0
M  V30 8188 N 768.612 -1.24939 0.960631 0
M  V30 8189 C 769.575 -2.239 0.49006 0
M  V30 8190 C 770.575 -1.55497 -0.409535 0
M  V30 8191 O 771.765 -1.72978 -0.205984 0
M  V30 8192 C 768.897 -3.39654 -0.291193 0
M  V30 8193 H 770.09 -2.67044 1.36482 0
M  V30 8194 H 767.643 -1.37429 0.744505 0
M  V30 8195 H 768.378 -3.01939 -1.18336 0
M  V30 8196 H 768.163 -3.90496 0.354276 0
M  V30 8197 H 769.653 -4.13125 -0.609693 0
M  V30 8198 N 770.09 -0.729906 -1.39679 0
M  V30 8199 C 771.02 -0.101618 -2.33279 0
M  V30 8200 C 772.001 0.729854 -1.53646 0
M  V30 8201 O 773.186 0.67587 -1.82059 0
M  V30 8202 C 770.316 0.81024 -3.37716 0
M  V30 8203 C 769.27 0.0833126 -4.27919 0
M  V30 8204 C 768.596 1.11185 -5.23012 0
M  V30 8205 C 769.896 -1.07107 -5.112 0
M  V30 8206 H 771.59 -0.883452 -2.86069 0
M  V30 8207 H 769.136 -0.426283 -1.37546 0
M  V30 8208 H 771.089 1.25927 -4.02145 0
M  V30 8209 H 769.813 1.62413 -2.83354 0
M  V30 8210 H 768.472 -0.346043 -3.64963 0
M  V30 8211 H 768.12 1.91917 -4.64948 0
M  V30 8212 H 767.82 0.63026 -5.8421 0
M  V30 8213 H 769.344 1.56068 -5.90318 0
M  V30 8214 H 770.758 -0.700726 -5.69002 0
M  V30 8215 H 769.155 -1.48196 -5.81514 0
M  V30 8216 H 770.225 -1.89513 -4.46332 0
M  V30 8217 N 771.568 1.50203 -0.477153 0
M  V30 8218 C 772.515 2.28656 0.31386 0
M  V30 8219 C 773.485 1.33977 0.981802 0
M  V30 8220 O 774.67 1.62919 0.993072 0
M  V30 8221 C 771.81 3.16027 1.38639 0
M  V30 8222 C 770.923 4.25743 0.732615 0
M  V30 8223 C 770.058 5.00363 1.78355 0
M  V30 8224 C 769.097 6.01945 1.11035 0
M  V30 8225 N 768.234 6.6982 2.10441 0
M  V30 8226 H 773.074 2.958 -0.361445 0
M  V30 8227 H 770.611 1.45867 -0.190093 0
M  V30 8228 H 772.569 3.6504 2.01994 0
M  V30 8229 H 771.199 2.50917 2.03077 0
M  V30 8230 H 770.251 3.80398 -0.0136546 0
M  V30 8231 H 771.563 4.98393 0.201513 0
M  V30 8232 H 770.717 5.53124 2.49276 0
M  V30 8233 H 769.456 4.27432 2.34847 0
M  V30 8234 H 768.461 5.48438 0.386797 0
M  V30 8235 H 769.686 6.76851 0.552248 0
M  V30 8236 H 767.632 5.99677 2.65939 0
M  V30 8237 H 767.549 7.38366 1.62332 0
M  V30 8238 H 768.817 7.27196 2.80724 0
M  V30 8239 N 773.046 0.209999 1.56195 0
M  V30 8240 C 773.976 -0.699746 2.22769 0
M  V30 8241 C 774.957 -1.20993 1.1956 0
M  V30 8242 O 776.142 -1.25605 1.48112 0
M  V30 8243 C 773.272 -1.91302 2.89863 0
M  V30 8244 C 772.226 -1.53715 3.99444 0
M  V30 8245 C 771.552 -2.82826 4.53777 0
M  V30 8246 C 772.852 -0.735836 5.17091 0
M  V30 8247 H 774.546 -0.144716 2.9905 0
M  V30 8248 H 772.092 -0.0681645 1.43839 0
M  V30 8249 H 774.045 -2.5548 3.35124 0
M  V30 8250 H 772.769 -2.49283 2.11011 0
M  V30 8251 H 771.428 -0.918892 3.54897 0
M  V30 8252 H 771.076 -3.38927 3.71669 0
M  V30 8253 H 770.776 -2.58415 5.27727 0
M  V30 8254 H 772.3 -3.47966 5.01749 0
M  V30 8255 H 773.714 -1.28105 5.58804 0
M  V30 8256 H 772.111 -0.589272 5.972 0
M  V30 8257 H 773.181 0.260004 4.84202 0
M  V30 8258 N 774.524 -1.57472 -0.0634922 0
M  V30 8259 C 775.772 -1.87283 -0.759563 0
M  V30 8260 C 776.093 -0.803135 -1.77693 0
M  V30 8261 O 775.363 0.167293 -1.95184 0
M  V30 8262 H 773.943 -0.691106 -0.283516 0
M  V30 8263 H 776.605 -1.94864 -0.0376091 0
M  V30 8264 H 775.701 -2.85064 -1.27062 0
M  V30 8265 N 776.003 0.335068 -1.53997 0
M  V30 8266 C 776.935 1.4327 -1.78903 0
M  V30 8267 C 777.948 1.48347 -0.670598 0
M  V30 8268 O 779.137 1.51277 -0.947494 0
M  V30 8269 C 776.237 2.81878 -1.88144 0
M  V30 8270 C 775.41 3.00141 -3.18174 0
M  V30 8271 C 774.469 4.19041 -3.18263 0
M  V30 8272 O 773.495 4.12751 -3.9195 0
M  V30 8273 N 774.697 5.28004 -2.41231 0
M  V30 8274 H 777.462 1.22272 -2.73623 0
M  V30 8275 H 775.023 0.524996 -1.53152 0
M  V30 8276 H 777.015 3.59609 -1.85644 0
M  V30 8277 H 775.585 2.9598 -1.00572 0
M  V30 8278 H 774.805 2.09808 -3.33728 0
M  V30 8279 H 776.093 3.0923 -4.04047 0
M  V30 8280 H 775.491 5.35986 -1.8093 0
M  V30 8281 H 774.048 6.04196 -2.44521 0
M  V30 8282 N 777.481 1.45874 0.596531 0
M  V30 8283 C 778.391 1.57947 1.73464 0
M  V30 8284 C 779.407 0.463461 1.67714 0
M  V30 8285 O 780.583 0.725685 1.87872 0
M  V30 8286 C 777.648 1.55348 3.09948 0
M  V30 8287 C 776.709 2.78074 3.27068 0
M  V30 8288 C 775.942 2.75589 4.57041 0
M  V30 8289 O 776.165 1.83545 5.40063 0
M  V30 8290 O 775.099 3.66945 4.77111 0
M  V30 8291 H 778.925 2.54169 1.66228 0
M  V30 8292 H 776.51 1.2851 0.76194 0
M  V30 8293 H 778.392 1.56545 3.91244 0
M  V30 8294 H 777.067 0.622811 3.17652 0
M  V30 8295 H 775.974 2.82435 2.45319 0
M  V30 8296 H 777.307 3.70303 3.24248 0
M  V30 8297 N 778.959 -0.83999 1.33349 0
M  V30 8298 C 780.207 -1.59202 1.24496 0
M  V30 8299 C 780.528 -1.94077 -0.189499 0
M  V30 8300 O 779.798 -1.60868 -1.11796 0
M  V30 8301 H 778.378 -0.590276 0.457802 0
M  V30 8302 H 781.04 -1.00394 1.67054 0
M  V30 8303 H 780.136 -2.52247 1.83788 0
M  V30 8304 N 780.437 -1.16799 -1.0581 0
M  V30 8305 C 781.384 -0.87902 -2.13405 0
M  V30 8306 C 782.354 0.174541 -1.6518 0
M  V30 8307 O 783.539 0.0386843 -1.90761 0
M  V30 8308 C 780.679 -0.391616 -3.42871 0
M  V30 8309 C 779.792 -1.50857 -4.04804 0
M  V30 8310 C 778.927 -0.975682 -5.22163 0
M  V30 8311 C 777.966 -2.06851 -5.76089 0
M  V30 8312 N 777.103 -1.55085 -6.84758 0
M  V30 8313 H 781.943 -1.80043 -2.37463 0
M  V30 8314 H 779.48 -0.898083 -1.16503 0
M  V30 8315 H 781.438 -0.0906247 -4.17102 0
M  V30 8316 H 780.068 0.49284 -3.19016 0
M  V30 8317 H 779.12 -1.92542 -3.28073 0
M  V30 8318 H 780.432 -2.33305 -4.40874 0
M  V30 8319 H 779.586 -0.628165 -6.03439 0
M  V30 8320 H 778.325 -0.120566 -4.87551 0
M  V30 8321 H 777.33 -2.42467 -4.93447 0
M  V30 8322 H 778.555 -2.92768 -6.12751 0
M  V30 8323 H 776.501 -0.718345 -6.52055 0
M  V30 8324 H 776.418 -2.31145 -7.19797 0
M  V30 8325 H 777.686 -1.23206 -7.69702 0
M  V30 8326 N 781.915 1.24427 -0.967243 0
M  V30 8327 C 783.161 1.92772 -0.629812 0
M  V30 8328 C 783.494 1.75436 0.832827 0
M  V30 8329 O 782.769 1.10716 1.59913 0
M  V30 8330 C 783.052 3.45798 -1.00477 0
M  V30 8331 C 782.905 3.72304 -2.52407 0
M  V30 8332 C 784.224 4.36787 -0.538999 0
M  V30 8333 H 781.343 0.700099 -0.230282 0
M  V30 8334 H 783.985 1.46805 -1.20616 0
M  V30 8335 H 782.135 3.8508 -0.514336 0
M  V30 8336 H 783.807 3.42584 -3.08924 0
M  V30 8337 H 782.05 3.17472 -2.95625 0
M  V30 8338 H 782.721 4.7937 -2.73693 0
M  V30 8339 H 785.197 4.04877 -0.959874 0
M  V30 8340 H 784.073 5.4259 -0.829926 0
M  V30 8341 H 784.334 4.38527 0.560923 0
M  V30 8342 N 783.393 0.737304 1.3929 0
M  V30 8343 C 784.804 0.355966 1.83275 0
M  V30 8344 C 785.155 -1.11295 1.6158 0
M  V30 8345 O 784.28 -1.85871 1.10819 0
M  V30 8346 C 784.875 0.63931 3.32713 0
M  V30 8347 C 783.434 0.31144 3.75109 0
M  V30 8348 C 782.581 0.900765 2.62262 0
M  V30 8349 H 785.532 0.934763 1.28249 0
M  V30 8350 H 785.553 -0.0881293 3.80398 0
M  V30 8351 H 785.065 1.70847 3.48472 0
M  V30 8352 H 783.166 -0.751791 3.64937 0
M  V30 8353 H 783.279 0.795611 4.72448 0
M  V30 8354 H 781.643 0.327239 2.52589 0
M  V30 8355 H 782.426 1.97463 2.80826 0
M  V30 8356 N 784.871 -1.49948 0.485112 0
M  V30 8357 C 785.801 -2.31675 -0.291364 0
M  V30 8358 C 786.782 -1.39216 -0.977383 0
M  V30 8359 O 787.967 -1.68133 -0.971855 0
M  V30 8360 C 785.097 -3.19326 -1.36558 0
M  V30 8361 C 784.051 -4.2045 -0.800359 0
M  V30 8362 C 783.377 -4.96931 -1.97391 0
M  V30 8363 C 784.677 -5.21925 0.197867 0
M  V30 8364 H 786.371 -2.96839 0.390775 0
M  V30 8365 H 783.917 -1.42749 0.189375 0
M  V30 8366 H 785.87 -3.75304 -1.91638 0
M  V30 8367 H 784.594 -2.52074 -2.07668 0
M  V30 8368 H 783.253 -3.65594 -0.271428 0
M  V30 8369 H 782.901 -4.26141 -2.67232 0
M  V30 8370 H 782.601 -5.65344 -1.60187 0
M  V30 8371 H 784.125 -5.55749 -2.52935 0
M  V30 8372 H 785.539 -5.72691 -0.264239 0
M  V30 8373 H 783.936 -5.98138 0.484908 0
M  V30 8374 H 785.006 -4.71809 1.11912 0
M  V30 8375 N 786.349 -0.21828 -1.56081 0
M  V30 8376 C 787.281 0.725447 -2.17416 0
M  V30 8377 C 788.294 1.15995 -1.14233 0
M  V30 8378 O 789.483 1.09166 -1.41227 0
M  V30 8379 C 786.583 1.99401 -2.7403 0
M  V30 8380 C 785.756 1.7156 -4.02351 0
M  V30 8381 C 784.815 2.8309 -4.43561 0
M  V30 8382 O 783.841 2.51701 -5.10525 0
M  V30 8383 N 785.043 4.11972 -4.08973 0
M  V30 8384 H 787.808 0.200801 -2.99027 0
M  V30 8385 H 785.369 -0.0371514 -1.61857 0
M  V30 8386 H 787.361 2.73198 -2.98571 0
M  V30 8387 H 785.931 2.42923 -1.96742 0
M  V30 8388 H 785.151 0.814233 -3.85699 0
M  V30 8389 H 786.439 1.50385 -4.86068 0
M  V30 8390 H 785.837 4.40319 -3.55156 0
M  V30 8391 H 784.394 4.82323 -4.38415 0
M  V30 8392 N 787.827 1.57504 0.0551401 0
M  V30 8393 C 789.052 1.92682 0.767352 0
M  V30 8394 C 789.477 0.81614 1.69472 0
M  V30 8395 O 788.835 -0.229989 1.79835 0
M  V30 8396 C 788.883 3.26866 1.52286 0
M  V30 8397 O 787.987 3.17274 2.63459 0
M  V30 8398 H 787.328 0.630502 0.208238 0
M  V30 8399 H 789.858 2.04592 0.0184026 0
M  V30 8400 H 789.868 3.61138 1.8985 0
M  V30 8401 H 788.543 4.07276 0.842541 0
M  V30 8402 H 787.12 2.94589 2.2863 0
M  V30 8403 N 789.305 -0.326896 1.54172 0
M  V30 8404 C 790.268 -1.38515 1.8261 0
M  V30 8405 C 791.268 -1.44872 0.697771 0
M  V30 8406 O 792.458 -1.44957 0.966078 0
M  V30 8407 C 789.59 -2.77281 1.98313 0
M  V30 8408 H 790.783 -1.14556 2.77159 0
M  V30 8409 H 788.336 -0.562199 1.45839 0
M  V30 8410 H 789.071 -3.065 1.05964 0
M  V30 8411 H 788.856 -2.74061 2.80416 0
M  V30 8412 H 790.346 -3.53845 2.21773 0
M  V30 8413 N 790.784 -1.46188 -0.588786 0
M  V30 8414 C 791.734 -1.5271 -1.69303 0
M  V30 8415 C 792.718 -0.388578 -1.56137 0
M  V30 8416 O 793.91 -0.636616 -1.65155 0
M  V30 8417 C 791.039 -1.51457 -3.08084 0
M  V30 8418 C 790.125 -2.70581 -3.26568 0
M  V30 8419 N 790.516 -3.9555 -3.15236 0
M  V30 8420 C 788.814 -2.66676 -3.57491 0
M  V30 8421 C 789.515 -4.75157 -3.35561 0
M  V30 8422 N 788.491 -4.06927 -3.60432 0
M  V30 8423 H 792.293 -2.47136 -1.59063 0
M  V30 8424 H 789.807 -1.41743 -0.792632 0
M  V30 8425 H 791.804 -1.54216 -3.87328 0
M  V30 8426 H 790.464 -0.581036 -3.19459 0
M  V30 8427 H 791.475 -4.2689 -2.93232 0
M  V30 8428 H 788.152 -1.82317 -3.75588 0
M  V30 8429 H 789.542 -5.84126 -3.32034 0
M  V30 8430 N 792.262 0.832906 -1.33792 0
M  V30 8431 C 793.192 1.95828 -1.27176 0
M  V30 8432 C 794.173 1.69427 -0.15114 0
M  V30 8433 O 795.358 1.91167 -0.341886 0
M  V30 8434 C 792.488 3.32098 -1.01629 0
M  V30 8435 C 791.442 3.72912 -2.10049 0
M  V30 8436 C 790.768 5.07054 -1.69706 0
M  V30 8437 C 792.068 3.86064 -3.51783 0
M  V30 8438 H 793.762 2.01622 -2.21334 0
M  V30 8439 H 791.308 0.96866 -1.0655 0
M  V30 8440 H 793.261 4.10402 -0.956474 0
M  V30 8441 H 791.985 3.26577 -0.0390956 0
M  V30 8442 H 790.644 2.96876 -2.15082 0
M  V30 8443 H 790.292 4.9801 -0.706737 0
M  V30 8444 H 789.992 5.35333 -2.42264 0
M  V30 8445 H 791.516 5.87827 -1.65202 0
M  V30 8446 H 792.93 4.54665 -3.49218 0
M  V30 8447 H 791.327 4.25787 -4.22878 0
M  V30 8448 H 792.397 2.88344 -3.89854 0
M  V30 8449 N 793.74 1.17359 1.05189 0
M  V30 8450 C 794.97 0.985099 1.81602 0
M  V30 8451 C 795.378 -0.469872 1.83273 0
M  V30 8452 O 794.721 -1.33806 1.25864 0
M  V30 8453 C 794.783 1.44956 3.2898 0
M  V30 8454 C 794.447 2.92666 3.50993 0
M  V30 8455 C 795.444 3.906 3.43115 0
M  V30 8456 C 793.129 3.30841 3.77954 0
M  V30 8457 C 795.123 5.24709 3.61883 0
M  V30 8458 C 792.81 4.65116 3.96371 0
M  V30 8459 C 793.808 5.61859 3.88335 0
M  V30 8460 O 793.496 6.93704 4.06238 0
M  V30 8461 H 793.228 0.348731 0.579105 0
M  V30 8462 H 795.782 1.56066 1.33539 0
M  V30 8463 H 794.012 0.817559 3.77959 0
M  V30 8464 H 795.701 1.22674 3.86919 0
M  V30 8465 H 796.467 3.62453 3.22262 0
M  V30 8466 H 792.346 2.5611 3.83313 0
M  V30 8467 H 795.89 6.00205 3.55527 0
M  V30 8468 H 791.787 4.92969 4.16715 0
M  V30 8469 H 792.555 7.00443 4.23463 0
M  V30 8470 N 795.218 -1.23913 0.973828 0
M  V30 8471 C 796.448 -1.95911 0.655938 0
M  V30 8472 C 796.856 -1.72375 -0.779967 0
M  V30 8473 O 796.199 -1.00807 -1.5357 0
M  V30 8474 C 796.261 -3.49103 0.858324 0
M  V30 8475 C 795.925 -3.96347 2.27504 0
M  V30 8476 C 796.922 -4.05537 3.25324 0
M  V30 8477 C 794.607 -4.29509 2.60437 0
M  V30 8478 C 796.601 -4.47233 4.5416 0
M  V30 8479 C 794.288 -4.70887 3.89498 0
M  V30 8480 C 795.286 -4.79714 4.86172 0
M  V30 8481 O 794.974 -5.20166 6.1293 0
M  V30 8482 H 794.706 -0.630721 0.243244 0
M  V30 8483 H 797.26 -1.58534 1.30599 0
M  V30 8484 H 795.49 -3.86405 0.151097 0
M  V30 8485 H 797.179 -4.02311 0.538592 0
M  V30 8486 H 797.945 -3.80128 3.0121 0
M  V30 8487 H 793.824 -4.21853 1.85906 0
M  V30 8488 H 797.368 -4.54038 5.29618 0
M  V30 8489 H 793.265 -4.95744 4.1341 0
M  V30 8490 H 794.033 -5.38298 6.16586 0
M  V30 8491 N 796.696 -0.74468 -1.38897 0
M  V30 8492 C 797.644 -0.100312 -2.32384 0
M  V30 8493 C 798.638 0.715191 -1.53562 0
M  V30 8494 O 799.844 0.615288 -1.69157 0
M  V30 8495 H 796.219 -0.0136403 -0.751876 0
M  V30 8496 H 798.19 -0.905007 -2.84345 0
M  V30 8497 C 796.939 0.785432 -3.38713 0
M  V30 8498 H 796.262 0.167308 -3.9945 0
M  V30 8499 H 797.702 1.20374 -4.06554 0
M  V30 8500 C 796.161 1.92408 -2.76552 0
M  V30 8501 O 796.691 3.01752 -2.65157 0
M  V30 8502 N 794.897 1.71642 -2.34494 0
M  V30 8503 H 794.444 0.827079 -2.43961 0
M  V30 8504 H 794.402 2.48 -1.93244 0
M  V30 8505 N 798.174 1.49689 -0.493057 0
M  V30 8506 C 799.42 2.02727 0.0543518 0
M  V30 8507 C 799.753 1.37264 1.37376 0
M  V30 8508 O 799.028 0.505644 1.87812 0
M  V30 8509 C 799.311 3.59456 0.215226 0
M  V30 8510 C 799.164 4.35459 -1.12675 0
M  V30 8511 C 800.483 4.29511 0.959586 0
M  V30 8512 H 797.602 0.736773 0.0182786 0
M  V30 8513 H 800.244 1.78792 -0.642924 0
M  V30 8514 H 798.394 3.79981 0.809122 0
M  V30 8515 H 800.066 4.2645 -1.75891 0
M  V30 8516 H 798.309 3.9833 -1.71801 0
M  V30 8517 H 798.98 5.43454 -0.967578 0
M  V30 8518 H 801.456 4.13594 0.455977 0
M  V30 8519 H 800.332 5.38939 1.04098 0
M  V30 8520 H 800.593 3.94202 2.00144 0
M  V30 8521 N 799.652 0.226554 1.55963 0
M  V30 8522 C 800.88 -0.408507 2.02827 0
M  V30 8523 C 801.295 -1.52994 1.10627 0
M  V30 8524 O 800.652 -1.82126 0.116809 0
M  V30 8525 C 800.703 -0.93545 3.49187 0
M  V30 8526 O 800.424 0.141273 4.37872 0
M  V30 8527 C 801.925 -1.64325 4.11719 0
M  V30 8528 H 799.145 -0.099442 0.66359 0
M  V30 8529 H 801.689 0.344471 2.01578 0
M  V30 8530 H 799.844 -1.63868 3.51036 0
M  V30 8531 H 800.258 -0.25558 5.23877 0
M  V30 8532 H 801.732 -1.9639 5.15883 0
M  V30 8533 H 802.209 -2.55815 3.57009 0
M  V30 8534 H 802.815 -0.9851 4.13734 0
M  V30 8535 N 801.13 -1.57531 -0.0467866 0
M  V30 8536 C 802.04 -2.08768 -1.07018 0
M  V30 8537 C 803.056 -1.02245 -1.40791 0
M  V30 8538 O 804.232 -1.33873 -1.50466 0
M  V30 8539 C 801.297 -2.54221 -2.35738 0
M  V30 8540 C 800.358 -3.75152 -2.08709 0
M  V30 8541 C 799.591 -4.18428 -3.31291 0
M  V30 8542 O 799.814 -3.61365 -4.4133 0
M  V30 8543 O 798.748 -5.11018 -3.18032 0
M  V30 8544 H 802.574 -2.96334 -0.664812 0
M  V30 8545 H 800.159 -1.47074 -0.262605 0
M  V30 8546 H 802.041 -2.83866 -3.11445 0
M  V30 8547 H 800.716 -1.69774 -2.75605 0
M  V30 8548 H 799.623 -3.50553 -1.30627 0
M  V30 8549 H 800.956 -4.60528 -1.73708 0
M  V30 8550 N 802.608 0.318715 -1.54344 0
M  V30 8551 C 803.555 1.39242 -1.84066 0
M  V30 8552 C 804.525 1.51175 -0.688134 0
M  V30 8553 O 805.71 1.66318 -0.935039 0
M  V30 8554 C 802.85 2.75528 -2.07794 0
M  V30 8555 C 801.963 2.72187 -3.35467 0
M  V30 8556 C 801.098 4.00352 -3.4913 0
M  V30 8557 C 800.137 3.91338 -4.7066 0
M  V30 8558 N 799.274 5.11242 -4.81224 0
M  V30 8559 H 804.114 1.13196 -2.75664 0
M  V30 8560 H 801.651 0.547857 -1.36517 0
M  V30 8561 H 803.609 3.54763 -2.19543 0
M  V30 8562 H 802.239 2.99873 -1.19482 0
M  V30 8563 H 801.291 1.84917 -3.3243 0
M  V30 8564 H 802.603 2.61411 -4.24812 0
M  V30 8565 H 801.757 4.88019 -3.60448 0
M  V30 8566 H 800.496 4.1394 -2.57886 0
M  V30 8567 H 799.501 3.02055 -4.59394 0
M  V30 8568 H 800.726 3.7931 -5.63294 0
M  V30 8569 H 798.672 5.25327 -3.92897 0
M  V30 8570 H 798.589 5.0282 -5.64543 0
M  V30 8571 H 799.857 6.0061 -4.96879 0
M  V30 8572 N 804.086 1.46499 0.581025 0
M  V30 8573 C 805.332 1.52121 1.34116 0
M  V30 8574 C 805.665 0.173031 1.93428 0
M  V30 8575 O 804.94 -0.815729 1.76568 0
M  V30 8576 C 805.223 2.62108 2.46924 0
M  V30 8577 C 805.076 4.06462 1.92636 0
M  V30 8578 C 806.395 2.68167 3.48962 0
M  V30 8579 H 803.514 0.5538 0.486287 0
M  V30 8580 H 806.156 1.78443 0.652538 0
M  V30 8581 H 804.306 2.39794 3.05665 0
M  V30 8582 H 805.978 4.40068 1.3834 0
M  V30 8583 H 804.221 4.15862 1.23455 0
M  V30 8584 H 804.892 4.79152 2.74076 0
M  V30 8585 H 807.368 2.8823 3.00104 0
M  V30 8586 H 806.244 3.46942 4.2535 0
M  V30 8587 H 806.505 1.74284 4.06297 0
M  V30 8588 N 805.565 -0.825799 1.34232 0
M  V30 8589 C 806.981 -1.11848 1.13851 0
M  V30 8590 C 807.181 -2.01405 -0.0619031 0
M  V30 8591 O 806.237 -2.41465 -0.738287 0
M  V30 8592 C 807.55 -1.76797 2.43235 0
M  V30 8593 C 809.098 -1.89304 2.49265 0
M  V30 8594 C 809.573 -2.57669 3.78643 0
M  V30 8595 N 811.064 -2.65171 3.79788 0
M  V30 8596 C 811.799 -3.1879 4.76614 0
M  V30 8597 N 811.295 -3.72995 5.83821 0
M  V30 8598 N 813.088 -3.17164 4.64073 0
M  V30 8599 H 805.239 -0.230049 2.11151 0
M  V30 8600 H 807.502 -0.164609 0.9336 0
M  V30 8601 H 807.208 -1.18455 3.31152 0
M  V30 8602 H 807.082 -2.76693 2.56361 0
M  V30 8603 H 809.469 -2.46796 1.6179 0
M  V30 8604 H 809.55 -0.883191 2.4007 0
M  V30 8605 H 809.194 -2.00833 4.66507 0
M  V30 8606 H 809.124 -3.59152 3.8512 0
M  V30 8607 H 811.615 -2.26746 3.02315 0
M  V30 8608 H 811.928 -4.12151 6.53721 0
M  V30 8609 H 810.273 -3.71246 5.87538 0
M  V30 8610 H 813.464 -2.74082 3.79469 0
M  V30 8611 H 813.637 -3.58647 5.397 0
M  V30 8612 N 807.043 -1.17915 -1.04565 0
M  V30 8613 C 808.459 -0.927761 -1.29864 0
M  V30 8614 C 808.659 0.409536 -1.97294 0
M  V30 8615 O 807.715 1.14505 -2.25044 0
M  V30 8616 C 809.028 -2.08967 -2.16225 0
M  V30 8617 C 810.576 -2.12741 -2.29587 0
M  V30 8618 C 811.051 -3.28335 -3.19312 0
M  V30 8619 N 812.542 -3.28164 -3.26898 0
M  V30 8620 C 813.277 -4.14249 -3.96466 0
M  V30 8621 N 812.773 -5.10457 -4.68407 0
M  V30 8622 N 814.566 -4.02179 -3.92694 0
M  V30 8623 H 806.717 -2.03983 -0.592011 0
M  V30 8624 H 808.98 -0.891023 -0.323701 0
M  V30 8625 H 808.686 -3.05654 -1.73979 0
M  V30 8626 H 808.56 -2.04606 -3.16885 0
M  V30 8627 H 810.947 -1.16636 -2.71072 0
M  V30 8628 H 811.028 -2.21162 -1.28535 0
M  V30 8629 H 810.672 -4.2471 -2.78539 0
M  V30 8630 H 810.602 -3.17151 -4.20384 0
M  V30 8631 H 813.093 -2.58511 -2.75646 0
M  V30 8632 H 813.406 -5.72526 -5.1907 0
M  V30 8633 H 811.751 -5.14422 -4.67328 0
M  V30 8634 H 814.942 -3.26308 -3.3562 0
M  V30 8635 H 815.115 -4.69486 -4.4664 0
M  V30 8636 N 808.521 1.23394 -0.980386 0
M  V30 8637 C 809.77 1.91116 -0.644785 0
M  V30 8638 C 810.083 1.77333 0.825367 0
M  V30 8639 O 811.289 2.39858 1.27203 0
M  V30 8640 C 809.745 3.42592 -1.10266 0
M  V30 8641 C 809.353 3.65037 -2.59715 0
M  V30 8642 C 811.097 4.1609 -0.8408 0
M  V30 8643 C 809.004 5.10148 -2.9917 0
M  V30 8644 H 807.934 0.715632 -0.23746 0
M  V30 8645 H 810.585 1.39829 -1.18828 0
M  V30 8646 H 808.967 3.92989 -0.487372 0
M  V30 8647 H 810.141 3.25186 -3.26482 0
M  V30 8648 H 808.456 3.04849 -2.83647 0
M  V30 8649 H 811.053 5.23021 -1.11143 0
M  V30 8650 H 811.396 4.15702 0.223085 0
M  V30 8651 H 811.929 3.71681 -1.41767 0
M  V30 8652 H 808.668 5.15668 -4.04682 0
M  V30 8653 H 808.188 5.50949 -2.37097 0
M  V30 8654 H 809.867 5.7848 -2.89775 0
M  V30 8655 N 809.999 0.752036 1.385 0
M  V30 8656 C 810.932 0.0717411 2.28087 0
M  V30 8657 C 811.91 -0.729945 1.45295 0
M  V30 8658 O 813.094 -0.708902 1.74662 0
M  V30 8659 C 810.221 -0.905237 3.26379 0
M  V30 8660 C 809.267 -0.189973 4.26077 0
M  V30 8661 S 810.1 1.10815 5.23909 0
M  V30 8662 C 811.256 0.134202 6.25756 0
M  V30 8663 H 811.489 0.831438 2.85437 0
M  V30 8664 H 809.022 0.544552 1.44478 0
M  V30 8665 H 810.98 -1.46358 3.83523 0
M  V30 8666 H 809.641 -1.63789 2.68015 0
M  V30 8667 H 808.834 -0.92985 4.95348 0
M  V30 8668 H 808.436 0.296804 3.7282 0
M  V30 8669 H 810.728 -0.700345 6.7387 0
M  V30 8670 H 811.671 0.794532 7.03628 0
M  V30 8671 H 812.079 -0.245801 5.63965 0
M  V30 8672 N 811.477 -1.49425 0.500989 0
M  V30 8673 C 812.387 -2.32899 -0.282011 0
M  V30 8674 C 813.403 -1.44632 -0.967346 0
M  V30 8675 O 814.579 -1.77654 -0.94873 0
M  V30 8676 C 811.644 -3.20069 -1.33253 0
M  V30 8677 C 810.705 -4.24186 -0.660636 0
M  V30 8678 C 809.938 -5.07191 -1.6611 0
M  V30 8679 O 810.161 -4.91712 -2.89094 0
M  V30 8680 O 809.095 -5.8948 -1.21643 0
M  V30 8681 H 812.921 -3.01038 0.401224 0
M  V30 8682 H 810.506 -1.47079 0.262323 0
M  V30 8683 H 812.388 -3.74071 -1.94033 0
M  V30 8684 H 811.063 -2.54625 -1.9987 0
M  V30 8685 H 809.97 -3.74098 -0.0130959 0
M  V30 8686 H 811.303 -4.92186 -0.0369179 0
M  V30 8687 N 812.955 -0.234822 -1.55841 0
M  V30 8688 C 814.18 0.400741 -2.03492 0
M  V30 8689 C 814.605 1.51618 -1.11327 0
M  V30 8690 O 813.963 1.81002 -0.103922 0
M  V30 8691 C 814.011 0.897184 -3.49261 0
M  V30 8692 O 813.115 2.00764 -3.60233 0
M  V30 8693 H 812.456 0.0890023 -0.658008 0
M  V30 8694 H 814.986 -0.357345 -2.01455 0
M  V30 8695 H 814.996 1.20356 -3.89844 0
M  V30 8696 H 813.671 0.0808639 -4.15821 0
M  V30 8697 H 812.248 1.70689 -3.31541 0
M  V30 8698 N 814.433 1.57553 0.0384317 0
M  V30 8699 C 815.663 1.92813 0.742064 0
M  V30 8700 C 816.071 0.832157 1.69917 0
M  V30 8701 O 815.414 -0.200917 1.82598 0
M  V30 8702 C 815.476 3.23806 1.56172 0
M  V30 8703 C 815.14 4.50459 0.770407 0
M  V30 8704 C 816.137 5.19846 0.0748006 0
M  V30 8705 C 813.822 4.97001 0.727714 0
M  V30 8706 C 815.816 6.34047 -0.652902 0
M  V30 8707 C 813.503 6.111 -0.00373992 0
M  V30 8708 C 814.501 6.79477 -0.692816 0
M  V30 8709 O 814.189 7.91395 -1.41241 0
M  V30 8710 H 813.921 0.641174 0.214179 0
M  V30 8711 H 816.475 2.054 0.00285095 0
M  V30 8712 H 814.705 3.0752 2.34453 0
M  V30 8713 H 816.394 3.44463 2.14709 0
M  V30 8714 H 817.16 4.84899 0.098875 0
M  V30 8715 H 813.039 4.43629 1.25355 0
M  V30 8716 H 816.583 6.87353 -1.1913 0
M  V30 8717 H 812.48 6.45493 -0.0297703 0
M  V30 8718 H 813.248 8.07702 -1.32512 0
M  V30 8719 N 815.911 -0.310526 1.54511 0
M  V30 8720 C 817.158 -1.04691 1.73338 0
M  V30 8721 C 817.486 -1.87584 0.514038 0
M  V30 8722 O 816.741 -1.89096 -0.504119 0
M  V30 8723 C 817.04 -1.98942 2.96912 0
M  V30 8724 C 816.706 -1.321 4.31115 0
M  V30 8725 C 815.368 -1.13603 4.67598 0
M  V30 8726 C 817.72 -0.842362 5.14348 0
M  V30 8727 C 815.048 -0.459102 5.84901 0
M  V30 8728 C 817.4 -0.179202 6.32346 0
M  V30 8729 C 816.064 0.0178111 6.67498 0
M  V30 8730 H 815.334 -0.38309 0.634289 0
M  V30 8731 H 817.981 -0.322723 1.88761 0
M  V30 8732 H 816.286 -2.77856 2.76231 0
M  V30 8733 H 817.983 -2.55972 3.08674 0
M  V30 8734 H 814.573 -1.47502 4.02419 0
M  V30 8735 H 818.757 -0.973013 4.86668 0
M  V30 8736 H 814.013 -0.295385 6.10686 0
M  V30 8737 H 818.187 0.199619 6.96114 0
M  V30 8738 H 815.814 0.544356 7.58249 0
M  V30 8739 N 817.389 -1.46805 -0.573248 0
M  V30 8740 C 818.805 -1.31969 -0.897577 0
M  V30 8741 C 819.005 -0.298171 -1.99282 0
M  V30 8742 O 818.061 0.295953 -2.5076 0
M  V30 8743 C 819.374 -2.70859 -1.30598 0
M  V30 8744 C 820.922 -2.79022 -1.4183 0
M  V30 8745 C 821.397 -4.18516 -1.86033 0
M  V30 8746 N 822.888 -4.2098 -1.9321 0
M  V30 8747 C 823.623 -5.25814 -2.28707 0
M  V30 8748 N 823.119 -6.40968 -2.6293 0
M  V30 8749 N 824.912 -5.13184 -2.29343 0
M  V30 8750 H 817.063 -2.11869 0.150094 0
M  V30 8751 H 819.326 -0.947989 0.00447895 0
M  V30 8752 H 819.032 -3.46965 -0.575161 0
M  V30 8753 H 818.906 -3.01585 -2.26554 0
M  V30 8754 H 821.293 -2.03198 -2.13996 0
M  V30 8755 H 821.374 -2.51969 -0.441024 0
M  V30 8756 H 821.018 -4.94839 -1.14442 0
M  V30 8757 H 820.948 -4.42982 -2.84735 0
M  V30 8758 H 823.439 -3.37898 -1.69214 0
M  V30 8759 H 823.752 -7.16729 -2.88996 0
M  V30 8760 H 822.097 -6.44314 -2.60547 0
M  V30 8761 H 825.288 -4.22255 -2.02036 0
M  V30 8762 H 825.461 -5.94996 -2.56679 0
M  V30 8763 N 818.867 0.818669 -1.34668 0
M  V30 8764 C 819.797 1.94468 -1.29245 0
M  V30 8765 C 820.778 1.69257 -0.169101 0
M  V30 8766 O 821.963 1.90794 -0.362143 0
M  V30 8767 C 819.093 3.31001 -1.05145 0
M  V30 8768 C 818.047 3.70663 -2.13992 0
M  V30 8769 C 817.373 5.05226 -1.75074 0
M  V30 8770 C 818.673 3.82312 -3.55858 0
M  V30 8771 H 820.367 1.99263 -2.2346 0
M  V30 8772 H 817.913 0.957304 -1.07572 0
M  V30 8773 H 819.866 4.09364 -0.999949 0
M  V30 8774 H 818.59 3.26517 -0.0737312 0
M  V30 8775 H 817.249 2.94578 -2.18219 0
M  V30 8776 H 816.897 4.97233 -0.759518 0
M  V30 8777 H 816.597 5.32734 -2.47928 0
M  V30 8778 H 818.121 5.86042 -1.71427 0
M  V30 8779 H 819.535 4.50935 -3.5402 0
M  V30 8780 H 817.932 4.21278 -4.2737 0
M  V30 8781 H 819.002 2.84193 -3.9289 0
M  V30 8782 N 820.346 1.18468 1.03938 0
M  V30 8783 C 821.623 0.890435 1.74157 0
M  V30 8784 C 822.003 -0.606409 2.02203 0
M  V30 8785 O 821.351 -1.5615 1.66822 0
M  V30 8786 C 821.561 1.73906 3.02585 0
M  V30 8787 C 822.909 1.96686 3.76297 0
M  V30 8788 O 823.933 1.70969 3.12487 0
M  V30 8789 O 822.792 2.39986 4.90988 0
M  V30 8790 H 819.886 0.330889 0.757919 0
M  V30 8791 H 822.432 1.29228 1.09992 0
M  V30 8792 H 821.204 2.75369 2.78006 0
M  V30 8793 H 820.827 1.33581 3.74489 0
M  V30 8794 N 821.824 -1.22873 0.986916 0
M  V30 8795 C 823.052 -1.95487 0.677663 0
M  V30 8796 C 823.467 -1.72978 -0.756572 0
M  V30 8797 O 822.824 -1.02517 -1.50985 0
M  V30 8798 C 822.875 -3.48337 0.966638 0
M  V30 8799 O 822.596 -3.70087 2.34451 0
M  V30 8800 C 824.097 -4.38142 0.674248 0
M  V30 8801 H 821.317 -0.622211 0.251185 0
M  V30 8802 H 823.861 -1.56187 1.32007 0
M  V30 8803 H 822.016 -3.85628 0.370137 0
M  V30 8804 H 822.43 -4.64332 2.43918 0
M  V30 8805 H 823.904 -5.44165 0.926759 0
M  V30 8806 H 824.381 -4.3745 -0.391728 0
M  V30 8807 H 824.987 -4.06469 1.25152 0
M  V30 8808 N 823.302 -0.75937 -1.38099 0
M  V30 8809 C 824.713 -0.385078 -1.82686 0
M  V30 8810 C 825.064 1.0871 -1.6333 0
M  V30 8811 O 824.189 1.84084 -1.13762 0
M  V30 8812 C 824.784 -0.692161 -3.31654 0
M  V30 8813 C 823.343 -0.371077 -3.74566 0
M  V30 8814 C 822.49 -0.942375 -2.60796 0
M  V30 8815 H 825.441 -0.955048 -1.26746 0
M  V30 8816 H 825.462 0.0276001 -3.8049 0
M  V30 8817 H 824.974 -1.76369 -3.4571 0
M  V30 8818 H 823.075 0.693637 -3.66087 0
M  V30 8819 H 823.188 -0.870672 -4.71122 0
M  V30 8820 H 821.552 -0.367383 -2.52036 0
M  V30 8821 H 822.335 -2.01905 -2.77649 0
M  V30 8822 N 824.78 1.49157 -0.508906 0
M  V30 8823 C 825.71 2.32109 0.254469 0
M  V30 8824 C 826.691 1.40754 0.955111 0
M  V30 8825 O 827.876 1.69658 0.944983 0
M  V30 8826 C 825.006 3.21458 1.3146 0
M  V30 8827 C 823.96 4.2167 0.733368 0
M  V30 8828 C 823.286 5.00009 1.8946 0
M  V30 8829 C 824.586 5.21544 -0.280875 0
M  V30 8830 H 826.28 2.9618 -0.43795 0
M  V30 8831 H 823.826 1.4243 -0.212062 0
M  V30 8832 H 825.779 3.78305 1.85643 0
M  V30 8833 H 824.503 2.55346 2.03632 0
M  V30 8834 H 823.162 3.65979 0.213231 0
M  V30 8835 H 822.81 4.30338 2.60419 0
M  V30 8836 H 822.51 5.67821 1.51173 0
M  V30 8837 H 824.034 5.59702 2.44061 0
M  V30 8838 H 825.448 5.73039 0.173095 0
M  V30 8839 H 823.845 5.97291 -0.580006 0
M  V30 8840 H 824.915 4.69969 -1.19404 0
M  V30 8841 N 826.258 0.243083 1.55714 0
M  V30 8842 C 827.488 -0.38641 2.02954 0
M  V30 8843 C 827.896 -1.52358 1.12177 0
M  V30 8844 O 827.239 -1.83255 0.127853 0
M  V30 8845 C 827.301 -0.959388 3.46462 0
M  V30 8846 C 826.965 0.0450546 4.56978 0
M  V30 8847 C 827.962 0.853224 5.12851 0
M  V30 8848 C 825.647 0.170041 5.02012 0
M  V30 8849 C 827.641 1.77288 6.12248 0
M  V30 8850 C 825.328 1.0932 6.01242 0
M  V30 8851 C 826.326 1.89315 6.56238 0
M  V30 8852 O 826.014 2.80075 7.53534 0
M  V30 8853 H 825.746 -0.0964333 0.669086 0
M  V30 8854 H 828.3 0.363399 2.0216 0
M  V30 8855 H 826.53 -1.75869 3.44394 0
M  V30 8856 H 828.219 -1.49856 3.77224 0
M  V30 8857 H 828.985 0.767229 4.78893 0
M  V30 8858 H 824.864 -0.442528 4.58871 0
M  V30 8859 H 828.408 2.39768 6.55101 0
M  V30 8860 H 824.305 1.18013 6.3462 0
M  V30 8861 H 825.073 2.74393 7.71136 0
M  V30 8862 N 827.736 -1.57571 -0.0300757 0
M  V30 8863 C 828.983 -1.89226 -0.721091 0
M  V30 8864 C 829.311 -0.840244 -1.75414 0
M  V30 8865 O 828.566 0.158906 -1.95054 0
M  V30 8866 C 828.865 -3.27624 -1.42818 0
M  V30 8867 C 828.531 -4.4776 -0.531208 0
M  V30 8868 C 827.193 -4.8036 -0.28415 0
M  V30 8869 C 829.545 -5.21125 0.0881582 0
M  V30 8870 C 826.873 -5.83715 0.591065 0
M  V30 8871 C 829.225 -6.2541 0.95107 0
M  V30 8872 C 827.889 -6.56486 1.2076 0
M  V30 8873 H 827.159 -0.692428 -0.263866 0
M  V30 8874 H 829.806 -1.91491 0.0189874 0
M  V30 8875 H 828.111 -3.21343 -2.24155 0
M  V30 8876 H 829.808 -3.49365 -1.96838 0
M  V30 8877 H 826.398 -4.2227 -0.73392 0
M  V30 8878 H 830.582 -4.96219 -0.0897496 0
M  V30 8879 H 825.838 -6.06168 0.798132 0
M  V30 8880 H 830.012 -6.81402 1.43751 0
M  V30 8881 H 827.639 -7.36395 1.88751 0
M  V30 8882 N 829.214 0.302327 -1.54673 0
M  V30 8883 C 830.439 1.06103 -1.78205 0
M  V30 8884 C 830.864 1.80204 -0.53926 0
M  V30 8885 O 830.222 1.73975 0.510142 0
M  V30 8886 C 830.27 2.01829 -2.98827 0
M  V30 8887 O 829.374 3.10108 -2.71858 0
M  V30 8888 H 828.715 0.30487 -0.589873 0
M  V30 8889 H 831.245 0.340153 -2.01753 0
M  V30 8890 H 831.255 2.44319 -3.2676 0
M  V30 8891 H 829.93 1.473 -3.88942 0
M  V30 8892 H 828.507 2.72142 -2.54937 0
M  V30 8893 N 830.692 1.47107 0.565454 0
M  V30 8894 C 831.922 1.56681 1.34664 0
M  V30 8895 C 832.33 0.213011 1.87997 0
M  V30 8896 O 831.673 -0.802629 1.65238 0
M  V30 8897 C 831.735 2.52528 2.55871 0
M  V30 8898 C 831.399 3.98403 2.23883 0
M  V30 8899 C 832.396 4.87125 1.81673 0
M  V30 8900 C 830.081 4.43674 2.35496 0
M  V30 8901 C 832.075 6.19135 1.51494 0
M  V30 8902 C 829.762 5.75714 2.0493 0
M  V30 8903 C 830.76 6.63266 1.62996 0
M  V30 8904 O 830.448 7.92853 1.32813 0
M  V30 8905 H 830.18 0.531967 0.417117 0
M  V30 8906 H 832.734 1.93368 0.692669 0
M  V30 8907 H 830.964 2.10893 3.24131 0
M  V30 8908 H 832.653 2.5232 3.17945 0
M  V30 8909 H 833.419 4.534 1.72201 0
M  V30 8910 H 829.298 3.7574 2.67096 0
M  V30 8911 H 832.842 6.87429 1.1869 0
M  V30 8912 H 828.739 6.08983 2.14031 0
M  V30 8913 H 829.507 8.0528 1.46513 0
M  V30 8914 N 832.17 -0.811516 1.35101 0
M  V30 8915 C 833.395 -1.60499 1.31358 0
M  V30 8916 C 833.82 -1.87793 -0.107383 0
M  V30 8917 O 833.178 -1.46161 -1.07268 0
M  V30 8918 C 833.226 -2.91612 2.12119 0
M  V30 8919 O 832.33 -3.84211 1.49853 0
M  V30 8920 H 831.671 -0.487702 0.450603 0
M  V30 8921 H 834.201 -1.00758 1.7807 0
M  V30 8922 H 834.211 -3.4108 2.23894 0
M  V30 8923 H 832.886 -2.71071 3.15426 0
M  V30 8924 H 831.463 -3.42751 1.46889 0
M  V30 8925 N 833.648 -1.19017 -1.03309 0
M  V30 8926 C 834.598 -0.89194 -2.0983 0
M  V30 8927 C 835.582 0.14151 -1.60277 0
M  V30 8928 O 836.774 -0.0635946 -1.76886 0
M  V30 8929 C 833.903 -0.427793 -3.40624 0
M  V30 8930 C 832.989 -1.49374 -3.96923 0
M  V30 8931 N 833.38 -2.71213 -4.26939 0
M  V30 8932 C 831.678 -1.35605 -4.24885 0
M  V30 8933 C 832.379 -3.39849 -4.72099 0
M  V30 8934 N 831.355 -2.67239 -4.73375 0
M  V30 8935 H 835.157 -1.81801 -2.30923 0
M  V30 8936 H 832.671 -1.08171 -1.21131 0
M  V30 8937 H 834.668 -0.195608 -4.16441 0
M  V30 8938 H 833.328 0.491848 -3.20953 0
M  V30 8939 H 834.339 -3.08014 -4.16351 0
M  V30 8940 H 831.016 -0.499537 -4.14501 0
M  V30 8941 H 832.406 -4.44018 -5.04279 0
M  V30 8942 N 835.127 1.22348 -0.993418 0
M  V30 8943 C 836.057 2.26584 -0.564088 0
M  V30 8944 C 837.038 1.65102 0.409298 0
M  V30 8945 O 838.223 1.91872 0.299819 0
M  V30 8946 C 835.353 3.47087 0.121554 0
M  V30 8947 C 834.307 4.21009 -0.770429 0
M  V30 8948 C 833.633 5.34678 0.0481586 0
M  V30 8949 C 834.933 4.79636 -2.06752 0
M  V30 8950 H 836.627 2.62749 -1.43538 0
M  V30 8951 H 834.173 1.26303 -0.691628 0
M  V30 8952 H 836.126 4.19166 0.433303 0
M  V30 8953 H 834.85 3.1002 1.0274 0
M  V30 8954 H 833.509 3.50764 -1.06583 0
M  V30 8955 H 833.157 4.93852 0.954933 0
M  V30 8956 H 832.857 5.85061 -0.545641 0
M  V30 8957 H 834.381 6.09573 0.353991 0
M  V30 8958 H 835.795 5.43654 -1.81969 0
M  V30 8959 H 834.192 5.4036 -2.61019 0
M  V30 8960 H 835.262 3.99659 -2.74592 0
M  V30 8961 N 836.605 0.766683 1.37694 0
M  V30 8962 C 837.851 0.329201 2.0011 0
M  V30 8963 C 838.184 -1.09004 1.60723 0
M  V30 8964 O 837.459 -1.74895 0.850989 0
M  V30 8965 C 837.742 0.466989 3.57059 0
M  V30 8966 C 837.595 1.92828 4.06371 0
M  V30 8967 C 838.914 -0.131792 4.39903 0
M  V30 8968 H 836.033 0.12109 0.726984 0
M  V30 8969 H 838.675 0.968779 1.63446 0
M  V30 8970 H 836.825 -0.0775023 3.88423 0
M  V30 8971 H 838.497 2.53208 3.85595 0
M  V30 8972 H 836.74 2.43884 3.58752 0
M  V30 8973 H 837.411 1.97577 5.15429 0
M  V30 8974 H 839.887 0.332731 4.14768 0
M  V30 8975 H 838.763 -0.005217 5.489 0
M  V30 8976 H 839.024 -1.22156 4.24889 0
M  V30 8977 N 838.083 -1.48885 0.516809 0
M  V30 8978 C 839.323 -2.0439 -0.0202232 0
M  V30 8979 C 839.687 -1.38652 -1.32814 0
M  V30 8980 O 840.888 -1.84968 -1.95039 0
M  V30 8981 C 839.159 -3.57071 -0.153257 0
M  V30 8982 S 840.718 -4.34074 -0.642256 0
M  V30 8983 H 837.536 -0.710977 0.00576322 0
M  V30 8984 H 840.138 -1.82753 0.694376 0
M  V30 8985 H 838.842 -4.02454 0.803695 0
M  V30 8986 H 838.373 -3.83139 -0.892627 0
M  V30 8987 H 840.388 -4.58011 -1.90893 0
M  V30 8988 N 839.561 -0.251338 -1.55583 0
M  V30 8989 C 840.977 0.103409 -1.59265 0
M  V30 8990 C 841.177 1.56559 -1.26852 0
M  V30 8991 O 840.233 2.31071 -1.01796 0
M  V30 8992 C 841.546 -0.249781 -2.99661 0
M  V30 8993 C 843.094 -0.194442 -3.12395 0
M  V30 8994 C 843.569 -0.521728 -4.55019 0
M  V30 8995 N 845.06 -0.472393 -4.60785 0
M  V30 8996 C 845.795 -0.698737 -5.69127 0
M  V30 8997 N 845.291 -0.988443 -6.85713 0
M  V30 8998 N 847.084 -0.629143 -5.58568 0
M  V30 8999 H 839.235 -1.20484 -1.74921 0
M  V30 9000 H 841.498 -0.485092 -0.814488 0
M  V30 9001 H 841.204 -1.26577 -3.28133 0
M  V30 9002 H 841.078 0.420973 -3.74844 0
M  V30 9003 H 843.465 0.812229 -2.83702 0
M  V30 9004 H 843.546 -0.899111 -2.39478 0
M  V30 9005 H 843.19 -1.52597 -4.84434 0
M  V30 9006 H 843.12 0.204468 -5.26203 0
M  V30 9007 H 845.611 -0.257386 -3.77022 0
M  V30 9008 H 845.924 -1.14846 -7.64219 0
M  V30 9009 H 844.269 -1.02596 -6.87386 0
M  V30 9010 H 847.46 -0.402826 -4.66364 0
M  V30 9011 H 847.633 -0.808935 -6.42931 0
M  V30 9012 N 841.039 1.57585 0.0217189 0
M  V30 9013 C 842.267 1.93871 0.722619 0
M  V30 9014 C 842.682 0.851706 1.68498 0
M  V30 9015 O 842.039 -0.17127 1.81695 0
M  V30 9016 C 842.09 3.30114 1.47333 0
M  V30 9017 O 841.811 4.34639 0.549597 0
M  V30 9018 C 843.312 3.80727 2.27072 0
M  V30 9019 H 840.532 0.639671 0.202637 0
M  V30 9020 H 843.076 2.04487 -0.0229414 0
M  V30 9021 H 841.231 3.20872 2.17071 0
M  V30 9022 H 841.645 5.13326 1.07686 0
M  V30 9023 H 843.119 4.78547 2.75131 0
M  V30 9024 H 843.596 3.12301 3.08812 0
M  V30 9025 H 844.202 3.93075 1.62395 0
M  V30 9026 N 842.517 -0.29412 1.54831 0
M  V30 9027 C 843.48 -1.3461 1.85507 0
M  V30 9028 C 844.48 -1.43359 0.728343 0
M  V30 9029 O 845.67 -1.42875 0.996609 0
M  V30 9030 C 842.802 -2.73012 2.0415 0
M  V30 9031 H 843.995 -1.08651 2.79526 0
M  V30 9032 H 841.548 -0.531138 1.46999 0
M  V30 9033 H 842.283 -3.04183 1.12441 0
M  V30 9034 H 842.068 -2.68051 2.86166 0
M  V30 9035 H 843.558 -3.49061 2.29229 0
M  V30 9036 N 843.995 -1.47404 -0.557645 0
M  V30 9037 C 845.244 -1.53268 -1.31118 0
M  V30 9038 C 845.557 -0.199414 -1.94581 0
M  V30 9039 O 846.763 -0.136039 -2.71159 0
M  V30 9040 C 845.219 -2.70178 -2.37764 0
M  V30 9041 C 844.827 -4.10032 -1.80493 0
M  V30 9042 C 846.571 -2.85334 -3.14301 0
M  V30 9043 C 844.478 -5.18244 -2.84916 0
M  V30 9044 H 843.408 -0.570491 -0.493007 0
M  V30 9045 H 846.059 -1.73678 -0.592308 0
M  V30 9046 H 844.441 -2.43147 -3.12563 0
M  V30 9047 H 845.615 -4.46964 -1.12069 0
M  V30 9048 H 843.93 -3.99759 -1.16542 0
M  V30 9049 H 846.527 -3.63347 -3.92279 0
M  V30 9050 H 846.87 -1.93761 -3.68459 0
M  V30 9051 H 847.403 -3.12133 -2.46613 0
M  V30 9052 H 844.142 -6.11691 -2.35614 0
M  V30 9053 H 843.662 -4.85829 -3.51753 0
M  V30 9054 H 845.341 -5.45174 -3.48417 0
M  V30 9055 N 845.473 0.80434 -1.35529 0
M  V30 9056 C 846.383 1.94784 -1.30753 0
M  V30 9057 C 847.399 1.72703 -0.212071 0
M  V30 9058 O 848.575 1.96494 -0.441841 0
M  V30 9059 C 845.64 3.29406 -1.08133 0
M  V30 9060 C 844.701 3.64367 -2.27013 0
M  V30 9061 C 843.934 4.92566 -2.05463 0
M  V30 9062 O 844.157 5.61166 -1.02222 0
M  V30 9063 O 843.091 5.25838 -2.92879 0
M  V30 9064 H 846.917 2.01761 -2.26994 0
M  V30 9065 H 844.502 0.942448 -1.15924 0
M  V30 9066 H 846.384 4.09995 -0.973756 0
M  V30 9067 H 845.059 3.23355 -0.149444 0
M  V30 9068 H 843.966 2.84146 -2.43335 0
M  V30 9069 H 845.299 3.75125 -3.18656 0
M  V30 9070 N 846.951 1.19563 1.02676 0
M  V30 9071 C 847.861 0.950691 2.14474 0
M  V30 9072 C 848.877 -0.0900219 1.73767 0
M  V30 9073 O 850.053 0.0951063 2.01175 0
M  V30 9074 C 847.118 0.494917 3.43149 0
M  V30 9075 C 846.179 1.60527 3.98158 0
M  V30 9076 C 845.412 1.17115 5.20692 0
M  V30 9077 O 845.635 0.0355937 5.70389 0
M  V30 9078 O 844.569 1.97454 5.68591 0
M  V30 9079 H 848.395 1.88651 2.38001 0
M  V30 9080 H 845.98 0.978635 1.12885 0
M  V30 9081 H 847.862 0.249492 4.20661 0
M  V30 9082 H 846.537 -0.412434 3.21062 0
M  V30 9083 H 845.444 1.90487 3.21971 0
M  V30 9084 H 846.777 2.48925 4.24614 0
M  V30 9085 N 848.429 -1.21819 0.999893 0
M  V30 9086 C 849.675 -1.91035 0.680701 0
M  V30 9087 C 850.008 -1.77582 -0.786021 0
M  V30 9088 O 849.283 -1.14917 -1.56921 0
M  V30 9089 C 849.566 -3.43013 1.0961 0
M  V30 9090 C 849.419 -3.65481 2.6219 0
M  V30 9091 C 850.738 -4.35204 0.654616 0
M  V30 9092 H 847.857 -0.693748 0.248763 0
M  V30 9093 H 850.499 -1.43555 1.24466 0
M  V30 9094 H 848.649 -3.83581 0.616253 0
M  V30 9095 H 850.321 -3.34273 3.17899 0
M  V30 9096 H 848.564 -3.09522 3.03938 0
M  V30 9097 H 849.235 -4.71945 2.86307 0
M  V30 9098 H 851.711 -4.0219 1.06688 0
M  V30 9099 H 850.587 -5.40198 0.973492 0
M  V30 9100 H 850.848 -4.3986 -0.444458 0
M  V30 9101 N 849.908 -0.773975 -1.37286 0
M  V30 9102 C 850.84 -0.119938 -2.28886 0
M  V30 9103 C 851.853 0.661822 -1.48741 0
M  V30 9104 O 853.042 0.499548 -1.71367 0
M  V30 9105 C 850.142 0.853703 -3.27971 0
M  V30 9106 C 849.315 0.125286 -4.37221 0
M  V30 9107 C 848.374 1.01261 -5.16365 0
M  V30 9108 O 847.4 0.475565 -5.6721 0
M  V30 9109 N 848.602 2.33864 -5.31308 0
M  V30 9110 H 851.367 -0.906702 -2.85655 0
M  V30 9111 H 848.928 -0.626519 -1.49286 0
M  V30 9112 H 850.92 1.4508 -3.77801 0
M  V30 9113 H 849.49 1.54142 -2.71954 0
M  V30 9114 H 848.71 -0.652742 -3.88758 0
M  V30 9115 H 849.998 -0.377959 -5.07394 0
M  V30 9116 H 849.396 2.79929 -4.91585 0
M  V30 9117 H 847.953 2.88575 -5.84438 0
M  V30 9118 N 851.386 1.48609 -0.524698 0
M  V30 9119 C 852.349 2.28041 0.230166 0
M  V30 9120 C 853.349 1.35065 0.872584 0
M  V30 9121 O 854.539 1.58007 0.73345 0
M  V30 9122 C 851.671 3.13778 1.33252 0
M  V30 9123 H 852.864 2.96239 -0.467161 0
M  V30 9124 H 850.417 1.53763 -0.280452 0
M  V30 9125 H 851.152 2.502 2.06327 0
M  V30 9126 H 850.937 3.82165 0.877058 0
M  V30 9127 H 852.427 3.7371 1.86362 0
M  V30 9128 N 852.864 0.259585 1.55447 0
M  V30 9129 C 853.774 -0.645026 2.25558 0
M  V30 9130 C 854.79 -1.18291 1.27606 0
M  V30 9131 O 855.966 -1.21649 1.6051 0
M  V30 9132 C 853.031 -1.81964 2.9511 0
M  V30 9133 C 852.092 -1.31997 4.08504 0
M  V30 9134 C 851.325 -2.43861 4.74729 0
M  V30 9135 O 851.548 -3.62876 4.40088 0
M  V30 9136 O 850.482 -2.12898 5.6299 0
M  V30 9137 H 854.308 -0.0775399 3.03601 0
M  V30 9138 H 851.893 0.0275859 1.49375 0
M  V30 9139 H 853.775 -2.50485 3.38873 0
M  V30 9140 H 852.45 -2.37451 2.19997 0
M  V30 9141 H 851.357 -0.601676 3.6923 0
M  V30 9142 H 852.69 -0.811045 4.85472 0
M  V30 9143 N 854.342 -1.57594 -0.0133615 0
M  V30 9144 C 855.758 -1.5527 -0.369255 0
M  V30 9145 C 855.958 -0.987751 -1.7563 0
M  V30 9146 O 855.014 -0.615683 -2.44879 0
M  V30 9147 C 856.327 -2.99602 -0.25672 0
M  V30 9148 C 857.875 -3.11227 -0.332647 0
M  V30 9149 C 858.35 -4.57321 -0.249387 0
M  V30 9150 N 859.841 -4.62177 -0.3077 0
M  V30 9151 C 860.576 -5.72781 -0.26641 0
M  V30 9152 N 860.072 -6.92575 -0.176494 0
M  V30 9153 N 861.865 -5.61204 -0.317295 0
M  V30 9154 H 854.016 -1.92662 0.894154 0
M  V30 9155 H 856.279 -0.884352 0.341505 0
M  V30 9156 H 855.985 -3.44723 0.697072 0
M  V30 9157 H 855.859 -3.6246 -1.04415 0
M  V30 9158 H 858.246 -2.66045 -1.27688 0
M  V30 9159 H 858.327 -2.51171 0.484412 0
M  V30 9160 H 857.971 -5.03174 0.691242 0
M  V30 9161 H 857.901 -5.15306 -1.08476 0
M  V30 9162 H 860.392 -3.75994 -0.379069 0
M  V30 9163 H 860.705 -7.72653 -0.150518 0
M  V30 9164 H 859.05 -6.94854 -0.142314 0
M  V30 9165 H 862.241 -4.66509 -0.385643 0
M  V30 9166 H 862.414 -6.47388 -0.28165 0
M  V30 9167 N 855.82 0.285905 -1.54985 0
M  V30 9168 C 856.767 1.35306 -1.86978 0
M  V30 9169 C 857.737 1.49682 -0.720046 0
M  V30 9170 O 858.922 1.64297 -0.970107 0
M  V30 9171 C 856.062 2.71059 -2.13591 0
M  V30 9172 C 855.175 2.6501 -3.41165 0
M  V30 9173 C 854.31 3.92856 -3.57544 0
M  V30 9174 C 853.349 3.81266 -4.78855 0
M  V30 9175 N 852.486 5.00919 -4.9196 0
M  V30 9176 H 857.326 1.07323 -2.78003 0
M  V30 9177 H 854.863 0.518776 -1.37649 0
M  V30 9178 H 856.821 3.50026 -2.27019 0
M  V30 9179 H 855.451 2.97271 -1.25816 0
M  V30 9180 H 854.503 1.77824 -3.36278 0
M  V30 9181 H 855.815 2.52342 -4.30262 0
M  V30 9182 H 854.969 4.80263 -3.70718 0
M  V30 9183 H 853.708 4.08377 -2.66608 0
M  V30 9184 H 852.713 2.92243 -4.65698 0
M  V30 9185 H 853.938 3.67277 -5.71213 0
M  V30 9186 H 851.884 5.16875 -4.03951 0
M  V30 9187 H 851.801 4.90732 -5.75081 0
M  V30 9188 H 853.069 5.89935 -5.09507 0
M  V30 9189 N 857.298 1.47698 0.54982 0
M  V30 9190 C 858.575 1.45185 1.31075 0
M  V30 9191 C 858.955 0.152768 2.10547 0
M  V30 9192 O 858.303 -0.865706 2.11466 0
M  V30 9193 C 858.513 2.70192 2.20902 0
M  V30 9194 C 859.861 3.1771 2.81683 0
M  V30 9195 O 860.885 2.70971 2.312 0
M  V30 9196 O 859.744 3.98986 3.7346 0
M  V30 9197 H 856.838 0.57892 0.590577 0
M  V30 9198 H 859.384 1.59908 0.568112 0
M  V30 9199 H 858.156 3.56269 1.61828 0
M  V30 9200 H 857.779 2.58091 3.02448 0
M  V30 9201 N 858.776 -0.797141 1.35954 0
M  V30 9202 C 860.053 -1.54224 1.2031 0
M  V30 9203 C 860.433 -2.10013 -0.213926 0
M  V30 9204 O 859.781 -1.93292 -1.21862 0
M  V30 9205 C 859.991 -2.6433 2.27883 0
M  V30 9206 C 861.339 -3.32418 2.64165 0
M  V30 9207 O 862.363 -2.74607 2.26868 0
M  V30 9208 O 861.222 -4.36876 3.28331 0
M  V30 9209 H 858.316 -0.681857 0.467974 0
M  V30 9210 H 860.862 -0.836288 1.47663 0
M  V30 9211 H 859.634 -2.21044 3.22885 0
M  V30 9212 H 859.257 -3.42551 2.01853 0
M  V30 9213 N 860.254 -1.20106 -1.0204 0
M  V30 9214 C 861.479 -1.0351 -1.79723 0
M  V30 9215 C 861.904 0.411328 -1.83548 0
M  V30 9216 O 861.262 1.29608 -1.26773 0
M  V30 9217 C 861.31 -1.61876 -3.22224 0
M  V30 9218 O 860.414 -0.853813 -4.03465 0
M  V30 9219 H 859.755 -0.365299 -0.554484 0
M  V30 9220 H 862.285 -1.59316 -1.28373 0
M  V30 9221 H 862.295 -1.65451 -3.72948 0
M  V30 9222 H 860.97 -2.67148 -3.18755 0
M  V30 9223 H 859.547 -0.891983 -3.62075 0
M  V30 9224 N 861.732 1.21287 -1.00634 0
M  V30 9225 C 862.682 2.21541 -0.53886 0
M  V30 9226 C 863.666 1.55842 0.400256 0
M  V30 9227 O 864.858 1.75566 0.224889 0
M  V30 9228 C 861.987 3.43047 0.131796 0
M  V30 9229 C 861.073 4.1593 -0.828419 0
M  V30 9230 N 861.464 4.65359 -1.98178 0
M  V30 9231 C 859.762 4.41281 -0.647083 0
M  V30 9232 C 860.463 5.21079 -2.58557 0
M  V30 9233 N 859.439 5.10531 -1.86705 0
M  V30 9234 H 863.241 2.57413 -1.41831 0
M  V30 9235 H 860.755 1.37109 -0.870338 0
M  V30 9236 H 862.752 4.14079 0.484178 0
M  V30 9237 H 861.412 3.08683 1.00721 0
M  V30 9238 H 862.423 4.60896 -2.3621 0
M  V30 9239 H 859.1 4.17107 0.181139 0
M  V30 9240 H 860.49 5.6977 -3.56107 0
M  V30 9241 N 863.21 0.781244 1.36873 0
M  V30 9242 C 864.621 0.414093 1.8205 0
M  V30 9243 C 864.972 -1.06098 1.65039 0
M  V30 9244 O 864.097 -1.82251 1.16677 0
M  V30 9245 C 864.692 0.744837 3.30511 0
M  V30 9246 C 863.251 0.430621 3.73929 0
M  V30 9247 C 862.398 0.983746 2.59264 0
M  V30 9248 H 865.349 0.975091 1.2521 0
M  V30 9249 H 865.37 0.032936 3.80486 0
M  V30 9250 H 864.882 1.81847 3.42861 0
M  V30 9251 H 862.983 -0.635308 3.67144 0
M  V30 9252 H 863.096 0.945514 4.69677 0
M  V30 9253 H 861.46 0.407433 2.5142 0
M  V30 9254 H 862.243 2.06297 2.74402 0
M  V30 9255 N 864.689 -1.48329 0.532571 0
M  V30 9256 C 865.935 -2.028 -0.000583219 0
M  V30 9257 C 866.268 -1.40858 -1.33688 0
M  V30 9258 O 865.543 -0.555261 -1.86406 0
M  V30 9259 C 865.826 -3.59901 -0.119846 0
M  V30 9260 C 865.679 -4.32318 1.2418 0
M  V30 9261 C 866.998 -4.31904 -0.845372 0
M  V30 9262 H 864.117 -0.736999 0.00126205 0
M  V30 9263 H 866.759 -1.77024 0.690102 0
M  V30 9264 H 864.909 -3.81993 -0.708092 0
M  V30 9265 H 866.581 -4.21637 1.87136 0
M  V30 9266 H 864.824 -3.93635 1.82301 0
M  V30 9267 H 865.495 -5.40697 1.11132 0
M  V30 9268 H 867.971 -4.14658 -0.346159 0
M  V30 9269 H 866.847 -5.41509 -0.897723 0
M  V30 9270 H 867.108 -3.99369 -1.89622 0
M  V30 9271 N 866.167 -0.267825 -1.55308 0
M  V30 9272 C 867.117 0.637168 -2.18916 0
M  V30 9273 C 868.101 1.12381 -1.15149 0
M  V30 9274 O 869.293 1.0701 -1.40989 0
M  V30 9275 C 866.422 1.82423 -2.90821 0
M  V30 9276 C 865.508 1.35512 -4.01867 0
M  V30 9277 N 865.899 0.601644 -5.02209 0
M  V30 9278 C 864.197 1.63868 -4.14805 0
M  V30 9279 C 864.898 0.35596 -5.8061 0
M  V30 9280 N 863.874 0.926271 -5.3565 0
M  V30 9281 H 867.676 0.0535787 -2.93851 0
M  V30 9282 H 865.19 -0.0710577 -1.62244 0
M  V30 9283 H 867.187 2.48379 -3.34834 0
M  V30 9284 H 865.847 2.41185 -2.17394 0
M  V30 9285 H 866.858 0.249693 -5.17298 0
M  V30 9286 H 863.535 2.23618 -3.52564 0
M  V30 9287 H 864.925 -0.246994 -6.71446 0
M  V30 9288 N 867.645 1.57599 0.00500368 0
M  V30 9289 C 868.891 1.90631 0.691919 0
M  V30 9290 C 869.224 0.868443 1.737 0
M  V30 9291 O 868.499 -0.113482 1.94169 0
M  V30 9292 C 868.782 3.34255 1.33961 0
M  V30 9293 C 868.635 4.48755 0.306413 0
M  V30 9294 C 869.954 3.77211 2.26715 0
M  V30 9295 H 867.073 0.693279 0.250066 0
M  V30 9296 H 869.715 1.89946 -0.0452634 0
M  V30 9297 H 867.865 3.3497 1.96793 0
M  V30 9298 H 869.537 4.60176 -0.321841 0
M  V30 9299 H 867.78 4.32203 -0.371852 0
M  V30 9300 H 868.451 5.46193 0.798554 0
M  V30 9301 H 870.927 3.78017 1.73904 0
M  V30 9302 H 869.803 4.78466 2.69002 0
M  V30 9303 H 870.064 3.10801 3.14413 0
M  V30 9304 N 869.123 -0.277682 1.55134 0
M  V30 9305 C 870.4 -1.0309 1.66228 0
M  V30 9306 C 870.78 -2.0445 0.525701 0
M  V30 9307 O 870.128 -2.23512 -0.474816 0
M  V30 9308 C 870.338 -1.6919 3.05247 0
M  V30 9309 C 871.686 -2.20526 3.62841 0
M  V30 9310 O 872.71 -1.79185 3.07849 0
M  V30 9311 O 871.569 -2.96342 4.59177 0
M  V30 9312 H 868.663 -0.4779 0.674937 0
M  V30 9313 H 871.209 -0.273912 1.67475 0
M  V30 9314 H 869.981 -0.957163 3.79413 0
M  V30 9315 H 869.604 -2.51587 3.07879 0
M  V30 9316 N 870.601 -1.47988 -0.541979 0
M  V30 9317 C 871.549 -1.62044 -1.66867 0
M  V30 9318 C 872.543 -0.487217 -1.62242 0
M  V30 9319 O 873.749 -0.66554 -1.67244 0
M  V30 9320 H 870.124 -0.51024 -0.552412 0
M  V30 9321 H 872.095 -2.56695 -1.52153 0
M  V30 9322 C 870.844 -1.66615 -3.0518 0
M  V30 9323 H 870.167 -2.5317 -3.09427 0
M  V30 9324 H 871.607 -1.80496 -3.83663 0
M  V30 9325 C 870.066 -0.402421 -3.34488 0
M  V30 9326 O 870.596 0.48992 -3.98701 0
M  V30 9327 N 868.802 -0.277778 -2.89269 0
M  V30 9328 H 868.349 -1.00488 -2.37192 0
M  V30 9329 H 868.307 0.566784 -3.09249 0
M  V30 9330 N 872.079 0.78992 -1.36375 0
M  V30 9331 C 873.319 1.56098 -1.31958 0
M  V30 9332 C 873.683 1.91738 0.100197 0
M  V30 9333 O 874.884 2.67451 0.268913 0
M  V30 9334 C 873.155 2.80406 -2.21601 0
M  V30 9335 S 874.714 3.70655 -2.34863 0
M  V30 9336 H 871.532 0.534632 -0.46871 0
M  V30 9337 H 874.134 0.930417 -1.7194 0
M  V30 9338 H 872.838 2.52273 -3.23707 0
M  V30 9339 H 872.369 3.48436 -1.82637 0
M  V30 9340 H 874.384 4.71509 -1.54575 0
M  V30 9341 N 873.557 1.20646 1.01402 0
M  V30 9342 C 874.806 1.01242 1.7445 0
M  V30 9343 C 875.119 -0.455732 1.90217 0
M  V30 9344 O 876.325 -0.768951 2.60383 0
M  V30 9345 C 874.781 1.76275 3.13776 0
M  V30 9346 C 874.389 3.27201 3.06013 0
M  V30 9347 C 876.133 1.65248 3.91016 0
M  V30 9348 C 874.04 3.9476 4.40362 0
M  V30 9349 H 872.97 0.375202 0.654018 0
M  V30 9350 H 875.621 1.44292 1.13367 0
M  V30 9351 H 874.003 1.26013 3.75415 0
M  V30 9352 H 875.177 3.84695 2.53665 0
M  V30 9353 H 873.492 3.38669 2.42265 0
M  V30 9354 H 876.089 2.13061 4.90417 0
M  V30 9355 H 876.432 0.609128 4.1182 0
M  V30 9356 H 876.965 2.12937 3.3601 0
M  V30 9357 H 873.704 4.99258 4.24761 0
M  V30 9358 H 873.224 3.42054 4.92706 0
M  V30 9359 H 874.903 3.99159 5.09196 0
M  V30 9360 N 875.035 -1.20752 1.01276 0
M  V30 9361 C 875.965 -2.25658 0.600064 0
M  V30 9362 C 876.946 -1.65733 -0.38298 0
M  V30 9363 O 878.131 -1.92324 -0.269256 0
M  V30 9364 C 875.261 -3.47237 -0.0663197 0
M  V30 9365 C 874.215 -4.1973 0.83731 0
M  V30 9366 C 873.541 -5.34687 0.0369102 0
M  V30 9367 C 874.841 -4.76286 2.14357 0
M  V30 9368 H 876.535 -2.60432 1.477 0
M  V30 9369 H 874.081 -1.25187 0.711634 0
M  V30 9370 H 876.034 -4.19803 -0.366563 0
M  V30 9371 H 874.758 -3.11615 -0.977944 0
M  V30 9372 H 873.417 -3.49024 1.1215 0
M  V30 9373 H 873.065 -4.95309 -0.876244 0
M  V30 9374 H 872.765 -5.84119 0.63865 0
M  V30 9375 H 874.289 -6.10059 -0.256968 0
M  V30 9376 H 875.703 -5.40691 1.90595 0
M  V30 9377 H 874.1 -5.36139 2.69583 0
M  V30 9378 H 875.17 -3.9524 2.80916 0
M  V30 9379 N 876.513 -0.788492 -1.36457 0
M  V30 9380 C 877.461 -0.174192 -2.31947 0
M  V30 9381 C 878.455 0.665974 -1.5576 0
M  V30 9382 O 879.661 0.561161 -1.71029 0
M  V30 9383 H 876.036 -0.0375538 -0.751062 0
M  V30 9384 H 878.007 -0.995011 -2.81322 0
M  V30 9385 C 876.756 0.677276 -3.4104 0
M  V30 9386 H 876.079 0.0401418 -3.9978 0
M  V30 9387 H 877.519 1.07379 -4.10178 0
M  V30 9388 C 875.978 1.83512 -2.82533 0
M  V30 9389 O 876.508 2.93164 -2.74623 0
M  V30 9390 N 874.714 1.64095 -2.39836 0
M  V30 9391 H 874.261 0.749046 -2.46469 0
M  V30 9392 H 874.219 2.41726 -2.01037 0
M  V30 9393 N 877.991 1.48044 -0.54043 0
M  V30 9394 C 878.954 2.28273 0.205966 0
M  V30 9395 C 879.954 1.35983 0.858209 0
M  V30 9396 O 881.144 1.58776 0.716651 0
M  V30 9397 C 878.276 3.15174 1.29917 0
M  V30 9398 H 879.469 2.95727 -0.498555 0
M  V30 9399 H 877.022 1.53457 -0.296745 0
M  V30 9400 H 877.757 2.52374 2.03661 0
M  V30 9401 H 877.542 3.83074 0.836475 0
M  V30 9402 H 879.032 3.75666 1.82387 0
M  V30 9403 N 879.47 0.276058 1.55163 0
M  V30 9404 C 880.38 -0.621066 2.2623 0
M  V30 9405 C 881.396 -1.16931 1.28853 0
M  V30 9406 O 882.572 -1.1994 1.61791 0
M  V30 9407 C 879.637 -1.78824 2.97023 0
M  V30 9408 C 878.698 -1.27657 4.09881 0
M  V30 9409 C 877.931 -2.38812 4.77289 0
M  V30 9410 O 878.154 -3.58188 4.43912 0
M  V30 9411 O 877.088 -2.06915 5.65217 0
M  V30 9412 H 880.914 -0.0453346 3.03666 0
M  V30 9413 H 878.499 0.0434275 1.49337 0
M  V30 9414 H 880.381 -2.46877 3.41511 0
M  V30 9415 H 879.056 -2.35104 2.22503 0
M  V30 9416 H 877.963 -0.56248 3.69847 0
M  V30 9417 H 879.296 -0.759509 4.86305 0
M  V30 9418 N 880.948 -1.576 0.00335426 0
M  V30 9419 C 882.176 -1.94996 -0.691685 0
M  V30 9420 C 882.591 -0.878405 -1.67121 0
M  V30 9421 O 881.948 0.142343 -1.81944 0
M  V30 9422 C 881.999 -3.32416 -1.42063 0
M  V30 9423 O 881.72 -4.35458 -0.48038 0
M  V30 9424 C 883.221 -3.84291 -2.20987 0
M  V30 9425 H 880.441 -0.642814 -0.192434 0
M  V30 9426 H 882.985 -2.04425 0.0554706 0
M  V30 9427 H 881.14 -3.24285 -2.11939 0
M  V30 9428 H 881.554 -5.14975 -0.995054 0
M  V30 9429 H 883.028 -4.82863 -2.67483 0
M  V30 9430 H 883.505 -3.17174 -3.03805 0
M  V30 9431 H 884.111 -3.95609 -1.56121 0
M  V30 9432 N 882.426 0.269451 -1.5528 0
M  V30 9433 C 883.356 1.33729 -1.91413 0
M  V30 9434 C 884.337 1.51348 -0.776391 0
M  V30 9435 O 885.522 1.64332 -1.03482 0
M  V30 9436 C 882.652 2.69618 -2.18914 0
M  V30 9437 C 881.606 2.66725 -3.34726 0
M  V30 9438 C 880.932 4.06199 -3.47716 0
M  V30 9439 C 882.232 2.25684 -4.71025 0
M  V30 9440 H 883.926 1.03736 -2.80854 0
M  V30 9441 H 881.472 0.497579 -1.3513 0
M  V30 9442 H 883.425 3.44436 -2.42779 0
M  V30 9443 H 882.149 3.01201 -1.26275 0
M  V30 9444 H 880.808 1.94365 -3.10834 0
M  V30 9445 H 880.456 4.3501 -2.52537 0
M  V30 9446 H 880.156 4.05157 -4.25583 0
M  V30 9447 H 881.68 4.8275 -3.73877 0
M  V30 9448 H 883.094 2.90225 -4.94411 0
M  V30 9449 H 881.491 2.35797 -5.51833 0
M  V30 9450 H 882.561 1.20819 -4.69607 0
M  V30 9451 N 883.904 1.48273 0.534124 0
M  V30 9452 C 885.15 1.56311 1.29208 0
M  V30 9453 C 885.483 0.234481 1.92779 0
M  V30 9454 O 884.758 -0.759143 1.79073 0
M  V30 9455 C 885.041 2.69831 2.3846 0
M  V30 9456 C 884.894 4.12385 1.79608 0
M  V30 9457 C 886.213 2.79133 3.40254 0
M  V30 9458 H 883.332 0.56899 0.468422 0
M  V30 9459 H 885.974 1.80429 0.595438 0
M  V30 9460 H 884.124 2.49397 2.97881 0
M  V30 9461 H 885.796 4.44246 1.24269 0
M  V30 9462 H 884.039 4.19579 1.10162 0
M  V30 9463 H 884.71 4.87629 2.58693 0
M  V30 9464 H 887.186 2.97632 2.90783 0
M  V30 9465 H 886.062 3.60298 4.14097 0
M  V30 9466 H 886.323 1.87122 4.00547 0
M  V30 9467 N 885.382 -0.782676 1.36792 0
M  V30 9468 C 886.622 -1.55396 1.32784 0
M  V30 9469 C 886.986 -1.91789 -0.0900272 0
M  V30 9470 O 888.187 -2.6759 -0.254725 0
M  V30 9471 C 886.458 -2.79227 2.23085 0
M  V30 9472 S 888.017 -3.69404 2.36825 0
M  V30 9473 H 884.835 -0.532139 0.471539 0
M  V30 9474 H 887.437 -0.921285 1.72431 0
M  V30 9475 H 886.141 -2.50553 3.25041 0
M  V30 9476 H 885.672 -3.47462 1.84482 0
M  V30 9477 H 887.687 -4.70683 1.57074 0
M  V30 9478 N 886.86 -1.21182 -1.00761 0
M  V30 9479 C 888.106 -1.02898 -1.74756 0
M  V30 9480 C 888.439 0.436774 -1.89225 0
M  V30 9481 O 887.714 1.32415 -1.42466 0
M  V30 9482 C 887.997 -1.72372 -3.16164 0
M  V30 9483 C 887.85 -3.2645 -3.09435 0
M  V30 9484 C 889.169 -1.46415 -4.15031 0
M  V30 9485 H 886.288 -0.375214 -0.634337 0
M  V30 9486 H 888.93 -1.49321 -1.17487 0
M  V30 9487 H 887.08 -1.32906 -3.65059 0
M  V30 9488 H 888.752 -3.75269 -2.68274 0
M  V30 9489 H 886.995 -3.56889 -2.46603 0
M  V30 9490 H 887.666 -3.70226 -4.09435 0
M  V30 9491 H 890.142 -1.80671 -3.7483 0
M  V30 9492 H 889.018 -1.97544 -5.12121 0
M  V30 9493 H 889.279 -0.39361 -4.40344 0
M  V30 9494 N 888.338 1.20213 -1.01915 0
M  V30 9495 C 889.285 2.2309 -0.591571 0
M  V30 9496 C 890.255 1.61465 0.389649 0
M  V30 9497 O 891.44 1.88606 0.288511 0
M  V30 9498 C 888.58 3.45045 0.0614028 0
M  V30 9499 C 887.693 4.21091 -0.964688 0
M  V30 9500 C 886.828 5.30448 -0.282499 0
M  V30 9501 C 885.867 5.98241 -1.29517 0
M  V30 9502 N 885.004 6.99182 -0.639472 0
M  V30 9503 H 889.844 2.59023 -1.47347 0
M  V30 9504 H 887.381 1.27274 -0.737547 0
M  V30 9505 H 889.339 4.14688 0.45714 0
M  V30 9506 H 887.969 3.09797 0.906937 0
M  V30 9507 H 887.021 3.50489 -1.47857 0
M  V30 9508 H 888.333 4.67662 -1.73475 0
M  V30 9509 H 887.487 6.06466 0.168603 0
M  V30 9510 H 886.226 4.84922 0.519843 0
M  V30 9511 H 885.231 5.20982 -1.75663 0
M  V30 9512 H 886.456 6.45853 -2.09884 0
M  V30 9513 H 884.402 6.55844 0.142955 0
M  V30 9514 H 884.319 7.43893 -1.34756 0
M  V30 9515 H 885.587 7.79212 -0.212047 0
M  V30 9516 N 889.816 0.795718 1.36037 0
M  V30 9517 C 890.726 0.199784 2.33748 0
M  V30 9518 C 891.742 -0.651436 1.61345 0
M  V30 9519 O 892.918 -0.565743 1.93291 0
M  V30 9520 C 889.983 -0.650475 3.40543 0
M  V30 9521 C 889.044 0.219974 4.28736 0
M  V30 9522 C 888.277 -0.589798 5.30431 0
M  V30 9523 O 888.5 -1.82532 5.40406 0
M  V30 9524 O 887.434 0.0136187 6.01898 0
M  V30 9525 H 891.26 1.00782 2.8649 0
M  V30 9526 H 888.845 0.557293 1.38617 0
M  V30 9527 H 890.727 -1.13512 4.05824 0
M  V30 9528 H 889.402 -1.4363 2.9009 0
M  V30 9529 H 888.309 0.751516 3.66474 0
M  V30 9530 H 889.642 0.969468 4.82558 0
M  V30 9531 N 891.294 -1.47756 0.548274 0
M  V30 9532 C 892.705 -1.8636 0.112547 0
M  V30 9533 C 893.056 -1.45589 -1.31523 0
M  V30 9534 O 892.181 -0.854874 -1.98799 0
M  V30 9535 C 892.776 -3.38224 0.197473 0
M  V30 9536 C 891.335 -3.75954 -0.183163 0
M  V30 9537 C 890.482 -2.7181 0.549059 0
M  V30 9538 H 893.433 -1.394 0.758506 0
M  V30 9539 H 893.454 -3.75957 -0.586217 0
M  V30 9540 H 892.966 -3.67868 1.23673 0
M  V30 9541 H 891.067 -3.51926 -1.22387 0
M  V30 9542 H 891.18 -4.78801 0.169178 0
M  V30 9543 H 889.544 -2.54699 -0.00682862 0
M  V30 9544 H 890.327 -3.04296 1.5893 0
M  V30 9545 N 892.772 -0.284283 -1.55015 0
M  V30 9546 C 894.183 0.211681 -1.85496 0
M  V30 9547 C 894.534 1.54735 -1.2063 0
M  V30 9548 O 893.659 2.10594 -0.497918 0
M  V30 9549 C 894.254 0.390864 -3.36538 0
M  V30 9550 C 892.813 0.831055 -3.67111 0
M  V30 9551 C 891.96 -0.0703581 -2.77211 0
M  V30 9552 H 894.911 -0.505803 -1.50424 0
M  V30 9553 H 894.932 1.22803 -3.60138 0
M  V30 9554 H 894.444 -0.581409 -3.8372 0
M  V30 9555 H 892.545 1.81447 -3.25434 0
M  V30 9556 H 892.658 0.662026 -4.74504 0
M  V30 9557 H 891.022 0.447528 -2.50737 0
M  V30 9558 H 891.805 -1.03868 -3.2721 0
M  V30 9559 N 894.251 1.57596 -0.0117121 0
M  V30 9560 C 895.214 2.08089 0.960816 0
M  V30 9561 C 896.214 0.992519 1.26514 0
M  V30 9562 O 897.404 1.25475 1.20837 0
M  V30 9563 C 894.536 2.53217 2.28241 0
M  V30 9564 H 895.729 2.9529 0.523829 0
M  V30 9565 H 893.282 1.54508 0.235995 0
M  V30 9566 H 894.017 1.69294 2.76604 0
M  V30 9567 H 893.802 3.32714 2.0747 0
M  V30 9568 H 895.292 2.92568 2.97983 0
M  V30 9569 N 895.729 -0.261212 1.5542 0
M  V30 9570 C 896.959 -1.00769 1.80358 0
M  V30 9571 C 897.367 -1.79991 0.583085 0
M  V30 9572 O 896.71 -1.77911 -0.457534 0
M  V30 9573 C 896.772 -2.00463 2.9842 0
M  V30 9574 C 896.436 -1.4007 4.35005 0
M  V30 9575 C 897.433 -0.810388 5.13545 0
M  V30 9576 C 895.118 -1.42436 4.81682 0
M  V30 9577 C 897.112 -0.251784 6.36903 0
M  V30 9578 C 894.799 -0.861897 6.04991 0
M  V30 9579 C 895.797 -0.276622 6.8244 0
M  V30 9580 O 895.485 0.277194 8.03422 0
M  V30 9581 H 895.217 -0.302839 0.604371 0
M  V30 9582 H 897.771 -0.293763 2.03288 0
M  V30 9583 H 896.001 -2.75648 2.71211 0
M  V30 9584 H 897.69 -2.61336 3.10577 0
M  V30 9585 H 898.456 -0.784719 4.7861 0
M  V30 9586 H 894.335 -1.8693 4.214 0
M  V30 9587 H 897.879 0.205678 6.97297 0
M  V30 9588 H 893.776 -0.884846 6.39407 0
M  V30 9589 H 894.544 0.167682 8.18328 0
M  V30 9590 N 897.207 -1.48554 -0.526253 0
M  V30 9591 C 898.435 -1.60429 -1.30652 0
M  V30 9592 C 898.85 -0.265963 -1.86917 0
M  V30 9593 O 898.207 0.745262 -1.6659 0
M  V30 9594 C 898.258 -2.65377 -2.45473 0
M  V30 9595 O 897.979 -3.94017 -1.91527 0
M  V30 9596 C 899.48 -2.87726 -3.37237 0
M  V30 9597 H 896.7 -0.540817 -0.397187 0
M  V30 9598 H 899.244 -1.94409 -0.634461 0
M  V30 9599 H 897.399 -2.34246 -3.08557 0
M  V30 9600 H 897.813 -4.51623 -2.66715 0
M  V30 9601 H 899.287 -3.64951 -4.14144 0
M  V30 9602 H 899.764 -1.96688 -3.92696 0
M  V30 9603 H 900.37 -3.20176 -2.79942 0
M  V30 9604 N 898.685 0.775411 -1.37205 0
M  V30 9605 C 899.932 1.53384 -1.32211 0
M  V30 9606 C 900.26 1.9427 0.0944958 0
M  V30 9607 O 899.515 1.64059 1.06692 0
M  V30 9608 C 899.814 2.81377 -2.20367 0
M  V30 9609 C 899.48 2.59561 -3.68699 0
M  V30 9610 C 898.142 2.53319 -4.09124 0
M  V30 9611 C 900.494 2.39939 -4.62686 0
M  V30 9612 C 897.822 2.25442 -5.41658 0
M  V30 9613 C 900.174 2.13586 -5.95453 0
M  V30 9614 C 898.838 2.05786 -6.34987 0
M  V30 9615 H 898.108 0.561271 -0.483793 0
M  V30 9616 H 900.755 0.893466 -1.6938 0
M  V30 9617 H 899.06 3.49954 -1.76181 0
M  V30 9618 H 900.757 3.39238 -2.13819 0
M  V30 9619 H 897.347 2.6528 -3.36637 0
M  V30 9620 H 901.531 2.43753 -4.32317 0
M  V30 9621 H 896.787 2.17896 -5.71254 0
M  V30 9622 H 900.961 1.97401 -6.67837 0
M  V30 9623 H 898.588 1.83948 -7.37609 0
M  V30 9624 N 900.163 1.21714 1.00117 0
M  V30 9625 C 901.579 0.97532 1.26332 0
M  V30 9626 C 901.779 -0.336029 1.98678 0
M  V30 9627 O 900.835 -1.06073 2.29139 0
M  V30 9628 C 902.148 2.16848 2.0832 0
M  V30 9629 C 903.696 2.21115 2.21533 0
M  V30 9630 C 904.171 3.3996 3.06906 0
M  V30 9631 N 905.662 3.40071 3.14494 0
M  V30 9632 C 906.397 4.28678 3.80818 0
M  V30 9633 N 905.893 5.2749 4.49139 0
M  V30 9634 N 907.686 4.16476 3.77497 0
M  V30 9635 H 899.837 2.06039 0.515897 0
M  V30 9636 H 902.1 0.902423 0.290408 0
M  V30 9637 H 901.806 3.119 1.62515 0
M  V30 9638 H 901.68 2.16226 3.09073 0
M  V30 9639 H 904.067 1.26616 2.66557 0
M  V30 9640 H 904.148 2.2578 1.20238 0
M  V30 9641 H 903.792 4.34755 2.62585 0
M  V30 9642 H 903.722 3.32534 4.08324 0
M  V30 9643 H 906.213 2.68563 2.65861 0
M  V30 9644 H 906.526 5.91397 4.97463 0
M  V30 9645 H 904.871 5.31412 4.47914 0
M  V30 9646 H 908.062 3.38539 3.23278 0
M  V30 9647 H 908.235 4.85739 4.28908 0
M  V30 9648 N 901.641 -1.19671 1.02551 0
M  V30 9649 C 902.918 -1.85014 0.634771 0
M  V30 9650 C 903.298 -1.91574 -0.886706 0
M  V30 9651 O 902.646 -1.43022 -1.78205 0
M  V30 9652 C 902.856 -3.24167 1.29292 0
M  V30 9653 C 904.204 -4.00363 1.41402 0
M  V30 9654 O 905.228 -3.33553 1.24983 0
M  V30 9655 O 904.087 -5.2003 1.6802 0
M  V30 9656 H 901.181 -0.797147 0.220196 0
M  V30 9657 H 903.727 -1.27188 1.12345 0
M  V30 9658 H 902.499 -3.14208 2.33215 0
M  V30 9659 H 902.122 -3.89634 0.791895 0
M  V30 9660 N 903.119 -0.802921 -1.35613 0
M  V30 9661 C 904.349 -0.393359 -2.02821 0
M  V30 9662 C 904.757 0.999282 -1.60658 0
M  V30 9663 O 904.1 1.65463 -0.797977 0
M  V30 9664 C 904.162 -0.393102 -3.57344 0
M  V30 9665 C 903.826 -1.73563 -4.22759 0
M  V30 9666 C 904.823 -2.69333 -4.44698 0
M  V30 9667 C 902.508 -2.01863 -4.59953 0
M  V30 9668 C 904.502 -3.91589 -5.02928 0
M  V30 9669 C 902.189 -3.24383 -5.17898 0
M  V30 9670 C 903.187 -4.19064 -5.39328 0
M  V30 9671 O 902.875 -5.39422 -5.96053 0
M  V30 9672 H 902.607 -0.158431 -0.657172 0
M  V30 9673 H 905.161 -1.08682 -1.74291 0
M  V30 9674 H 903.391 0.356934 -3.85049 0
M  V30 9675 H 905.08 -0.00635596 -4.059 0
M  V30 9676 H 905.846 -2.48759 -4.16346 0
M  V30 9677 H 901.725 -1.28979 -4.42589 0
M  V30 9678 H 905.269 -4.65502 -5.1957 0
M  V30 9679 H 901.166 -3.44829 -5.45677 0
M  V30 9680 H 901.934 -5.40669 -6.14507 0
M  V30 9681 N 904.597 1.47463 -0.556102 0
M  V30 9682 C 905.822 2.07371 -0.0344729 0
M  V30 9683 C 906.247 1.40621 1.2493 0
M  V30 9684 O 905.605 0.48082 1.74808 0
M  V30 9685 C 905.653 3.60306 0.145563 0
M  V30 9686 O 904.757 3.94299 1.20839 0
M  V30 9687 H 904.098 0.662052 -0.0508274 0
M  V30 9688 H 906.628 1.89498 -0.771469 0
M  V30 9689 H 906.638 4.06408 0.360112 0
M  V30 9690 H 905.313 4.08288 -0.792089 0
M  V30 9691 H 903.89 3.59944 0.97442 0
M  V30 9692 N 906.075 0.2925 1.54862 0
M  V30 9693 C 907.038 -0.574423 2.21885 0
M  V30 9694 C 908.038 -1.06791 1.20218 0
M  V30 9695 O 909.228 -0.9653 1.45009 0
M  V30 9696 C 906.36 -1.79438 2.89853 0
M  V30 9697 H 907.553 0.0110319 2.99898 0
M  V30 9698 H 905.106 0.043256 1.5624 0
M  V30 9699 H 905.841 -2.4199 2.15897 0
M  V30 9700 H 905.626 -1.44827 3.64373 0
M  V30 9701 H 907.116 -2.41048 3.41007 0
M  V30 9702 N 907.553 -1.57587 0.0200696 0
M  V30 9703 C 908.802 -1.90602 -0.659822 0
M  V30 9704 C 909.115 -0.897216 -1.73808 0
M  V30 9705 O 910.321 -1.11829 -2.47399 0
M  V30 9706 C 908.777 -3.38416 -1.22484 0
M  V30 9707 C 908.385 -4.47637 -0.180339 0
M  V30 9708 C 910.129 -3.80513 -1.88176 0
M  V30 9709 C 908.036 -5.86542 -0.756482 0
M  V30 9710 H 906.966 -0.711272 -0.250216 0
M  V30 9711 H 909.617 -1.83308 0.0838942 0
M  V30 9712 H 907.999 -3.40613 -2.01987 0
M  V30 9713 H 909.173 -4.56987 0.591573 0
M  V30 9714 H 907.488 -4.14687 0.377302 0
M  V30 9715 H 910.085 -4.8164 -2.32222 0
M  V30 9716 H 910.428 -3.15091 -2.72073 0
M  V30 9717 H 910.961 -3.80701 -1.15377 0
M  V30 9718 H 907.7 -6.55485 0.0441468 0
M  V30 9719 H 907.22 -5.80816 -1.49709 0
M  V30 9720 H 908.899 -6.3483 -1.249 0
M  V30 9721 N 909.032 0.252966 -1.55557 0
M  V30 9722 C 909.962 1.31691 -1.9282 0
M  V30 9723 C 910.943 1.50516 -0.7924 0
M  V30 9724 O 912.128 1.63225 -1.05219 0
M  V30 9725 C 909.258 2.67281 -2.21762 0
M  V30 9726 C 908.212 2.6316 -3.37536 0
M  V30 9727 C 907.538 4.02488 -3.52005 0
M  V30 9728 C 908.838 2.20675 -4.73392 0
M  V30 9729 H 910.532 1.00751 -2.81939 0
M  V30 9730 H 908.078 0.483219 -1.3565 0
M  V30 9731 H 910.031 3.41842 -2.46419 0
M  V30 9732 H 908.755 2.99845 -1.29463 0
M  V30 9733 H 907.414 1.91057 -3.12878 0
M  V30 9734 H 907.062 4.32307 -2.57137 0
M  V30 9735 H 906.762 4.00621 -4.29857 0
M  V30 9736 H 908.286 4.78758 -3.78977 0
M  V30 9737 H 909.7 2.84965 -4.97461 0
M  V30 9738 H 908.097 2.29931 -5.54303 0
M  V30 9739 H 909.167 1.15831 -4.70862 0
M  V30 9740 N 910.51 1.48831 0.518367 0
M  V30 9741 C 911.74 1.60886 1.29612 0
M  V30 9742 C 912.148 0.272713 1.87224 0
M  V30 9743 O 911.491 -0.749653 1.67708 0
M  V30 9744 C 911.553 2.60541 2.47707 0
M  V30 9745 C 911.217 4.05324 2.11095 0
M  V30 9746 C 912.214 4.92658 1.66084 0
M  V30 9747 C 909.899 4.50942 2.21262 0
M  V30 9748 C 911.893 6.23641 1.3172 0
M  V30 9749 C 909.58 5.81943 1.8651 0
M  V30 9750 C 910.578 6.68116 1.41812 0
M  V30 9751 O 910.266 7.96677 1.07522 0
M  V30 9752 H 909.998 0.544968 0.399982 0
M  V30 9753 H 912.552 1.95474 0.630799 0
M  V30 9754 H 910.782 2.21098 3.17258 0
M  V30 9755 H 912.471 2.62308 3.09757 0
M  V30 9756 H 913.237 4.58649 1.5769 0
M  V30 9757 H 909.116 3.84048 2.55007 0
M  V30 9758 H 912.66 6.90857 0.967598 0
M  V30 9759 H 908.557 6.15484 1.94549 0
M  V30 9760 H 909.325 8.09534 1.2082 0
M  V30 9761 N 911.988 -0.768124 1.37614 0
M  V30 9762 C 912.918 -1.89537 1.36374 0
M  V30 9763 C 913.899 -1.68513 0.231803 0
M  V30 9764 O 915.084 -1.89318 0.432705 0
M  V30 9765 C 912.214 -3.26871 1.17358 0
M  V30 9766 C 911.168 -3.62466 2.27602 0
M  V30 9767 C 910.494 -4.9838 1.93705 0
M  V30 9768 C 911.794 -3.68841 3.69802 0
M  V30 9769 H 913.488 -1.90832 2.30702 0
M  V30 9770 H 911.034 -0.91672 1.11051 0
M  V30 9771 H 912.987 -4.05371 1.15119 0
M  V30 9772 H 911.711 -3.26018 0.194865 0
M  V30 9773 H 910.37 -2.86276 2.29002 0
M  V30 9774 H 910.018 -4.94071 0.943539 0
M  V30 9775 H 909.718 -5.23165 2.6753 0
M  V30 9776 H 911.242 -5.79276 1.93059 0
M  V30 9777 H 912.656 -4.37485 3.70513 0
M  V30 9778 H 911.053 -4.05126 4.42711 0
M  V30 9779 H 912.123 -2.69415 4.03167 0
M  V30 9780 N 913.466 -1.22244 -0.994698 0
M  V30 9781 C 914.414 -0.988118 -2.10568 0
M  V30 9782 C 915.408 0.0681541 -1.69263 0
M  V30 9783 O 916.614 -0.0841311 -1.79803 0
M  V30 9784 H 912.989 -0.302343 -0.688544 0
M  V30 9785 H 914.96 -1.93091 -2.27505 0
M  V30 9786 C 913.709 -0.580557 -3.42819 0
M  V30 9787 H 913.032 -1.385 -3.75044 0
M  V30 9788 H 914.472 -0.456004 -4.21541 0
M  V30 9789 C 912.931 0.709692 -3.2934 0
M  V30 9790 O 913.461 1.76259 -3.60965 0
M  V30 9791 N 911.667 0.680155 -2.82528 0
M  V30 9792 H 911.214 -0.176977 -2.56991 0
M  V30 9793 H 911.172 1.54372 -2.73892 0
M  V30 9794 N 914.944 1.19125 -1.03184 0
M  V30 9795 C 916.192 1.8851 -0.728587 0
M  V30 9796 C 916.513 1.80195 0.74531 0
M  V30 9797 O 915.783 1.21437 1.5372 0
M  V30 9798 H 914.363 0.69784 -0.266511 0
M  V30 9799 H 917.025 1.44607 -1.3067 0
M  V30 9800 H 916.121 2.9477 -1.02554 0
M  V30 9801 N 916.422 0.810101 1.35185 0
M  V30 9802 C 917.699 0.315235 1.93043 0
M  V30 9803 C 918.079 -1.19567 1.73974 0
M  V30 9804 O 917.427 -1.99682 1.11083 0
M  V30 9805 C 917.637 0.730492 3.41269 0
M  V30 9806 C 918.985 0.721985 4.18417 0
M  V30 9807 O 920.009 0.672258 3.49799 0
M  V30 9808 O 918.868 0.783535 5.40854 0
M  V30 9809 H 915.962 0.0832774 0.822796 0
M  V30 9810 H 918.508 0.894034 1.4424 0
M  V30 9811 H 917.28 1.77169 3.48894 0
M  V30 9812 H 916.903 0.12669 3.97398 0
M  V30 9813 N 917.9 -1.47166 0.563914 0
M  V30 9814 C 919.147 -2.02456 0.042371 0
M  V30 9815 C 919.475 -1.43753 -1.31016 0
M  V30 9816 O 918.73 -0.585287 -1.86743 0
M  V30 9817 C 919.029 -3.57279 -0.0931797 0
M  V30 9818 C 918.695 -4.34932 1.18933 0
M  V30 9819 C 917.357 -4.55867 1.54073 0
M  V30 9820 C 919.709 -4.79665 2.03889 0
M  V30 9821 C 917.037 -5.18785 2.74005 0
M  V30 9822 C 919.389 -5.43907 3.23029 0
M  V30 9823 C 918.053 -5.63074 3.58475 0
M  V30 9824 H 917.323 -0.740838 0.0155047 0
M  V30 9825 H 919.97 -1.76759 0.736776 0
M  V30 9826 H 918.275 -3.82005 -0.870596 0
M  V30 9827 H 919.972 -3.97716 -0.512176 0
M  V30 9828 H 916.562 -4.18921 0.905718 0
M  V30 9829 H 920.746 -4.63264 1.78046 0
M  V30 9830 H 916.002 -5.31818 3.01628 0
M  V30 9831 H 920.176 -5.77531 3.89141 0
M  V30 9832 H 917.803 -6.11598 4.515 0
M  V30 9833 N 919.378 -0.300708 -1.54705 0
M  V30 9834 C 920.655 0.361757 -1.92226 0
M  V30 9835 C 921.035 1.71714 -1.2279 0
M  V30 9836 O 920.383 2.2559 -0.363542 0
M  V30 9837 C 920.593 0.476699 -3.45729 0
M  V30 9838 C 921.941 0.7477 -4.17965 0
M  V30 9839 O 922.965 0.560521 -3.51762 0
M  V30 9840 O 921.824 1.10724 -5.35166 0
M  V30 9841 H 918.918 0.202213 -0.801897 0
M  V30 9842 H 921.464 -0.348746 -1.66078 0
M  V30 9843 H 920.236 -0.476132 -3.88392 0
M  V30 9844 H 919.859 1.23568 -3.77911 0
M  V30 9845 N 920.856 1.57574 -0.0284266 0
M  V30 9846 C 922.104 1.91393 0.649079 0
M  V30 9847 C 922.425 0.905368 1.72708 0
M  V30 9848 O 921.695 -0.0532107 1.95828 0
M  V30 9849 H 920.275 0.70646 0.24274 0
M  V30 9850 H 922.937 1.94752 -0.076066 0
M  V30 9851 H 922.033 2.91988 1.10226 0
M  V30 9852 N 922.334 -0.244713 1.55689 0
M  V30 9853 C 923.582 -0.970525 1.77272 0
M  V30 9854 C 923.903 -1.85771 0.592804 0
M  V30 9855 O 923.173 -1.91952 -0.391323 0
M  V30 9856 H 921.753 -0.361342 0.653789 0
M  V30 9857 H 924.415 -0.262134 1.93129 0
M  V30 9858 H 923.511 -1.59096 2.68505 0
M  V30 9859 N 923.813 -1.49104 -0.510467 0
M  V30 9860 C 924.761 -1.65547 -1.63392 0
M  V30 9861 C 925.755 -0.521522 -1.61172 0
M  V30 9862 O 926.961 -0.700865 -1.65795 0
M  V30 9863 H 923.336 -0.521843 -0.541464 0
M  V30 9864 H 925.307 -2.59864 -1.46673 0
M  V30 9865 C 924.056 -1.73051 -3.01577 0
M  V30 9866 H 923.379 -2.59676 -3.03987 0
M  V30 9867 H 924.819 -1.88594 -3.79748 0
M  V30 9868 C 923.278 -0.47328 -3.33559 0
M  V30 9869 O 923.808 0.405239 -3.99651 0
M  V30 9870 N 922.014 -0.339074 -2.88615 0
M  V30 9871 H 921.561 -1.05497 -2.35007 0
M  V30 9872 H 921.519 0.501061 -3.10382 0
M  V30 9873 N 925.291 0.760815 -1.38019 0
M  V30 9874 C 926.538 1.51973 -1.3383 0
M  V30 9875 C 926.866 1.9436 0.0738855 0
M  V30 9876 O 926.121 1.65181 1.04946 0
M  V30 9877 C 926.42 2.79024 -2.23339 0
M  V30 9878 C 926.086 2.55636 -3.71431 0
M  V30 9879 C 924.748 2.48966 -4.11788 0
M  V30 9880 C 927.1 2.35018 -4.65205 0
M  V30 9881 C 924.428 2.19684 -5.44018 0
M  V30 9882 C 926.78 2.07258 -5.97685 0
M  V30 9883 C 925.444 1.9904 -6.37134 0
M  V30 9884 H 924.714 0.556108 -0.489719 0
M  V30 9885 H 927.361 0.87545 -1.70318 0
M  V30 9886 H 925.666 3.48065 -1.79883 0
M  V30 9887 H 927.363 3.36951 -2.17405 0
M  V30 9888 H 923.953 2.61695 -3.39432 0
M  V30 9889 H 928.137 2.39154 -4.34878 0
M  V30 9890 H 923.393 2.11825 -5.73533 0
M  V30 9891 H 927.567 1.90307 -6.69893 0
M  V30 9892 H 925.194 1.76115 -7.39519 0
M  V30 9893 N 926.769 1.22769 0.988202 0
M  V30 9894 C 927.999 1.07998 1.76125 0
M  V30 9895 C 928.407 -0.372062 1.85506 0
M  V30 9896 O 927.75 -1.26946 1.3278 0
M  V30 9897 C 927.812 1.6219 3.20834 0
M  V30 9898 C 927.476 3.1086 3.34986 0
M  V30 9899 C 928.473 4.08239 3.21927 0
M  V30 9900 C 926.158 3.50411 3.59886 0
M  V30 9901 C 928.152 5.43154 3.33561 0
M  V30 9902 C 925.839 4.85473 3.71159 0
M  V30 9903 C 926.837 5.81653 3.58006 0
M  V30 9904 O 926.525 7.14263 3.68895 0
M  V30 9905 H 926.257 0.378937 0.559806 0
M  V30 9906 H 928.811 1.62925 1.25078 0
M  V30 9907 H 927.041 1.01676 3.73094 0
M  V30 9908 H 928.73 1.43011 3.79872 0
M  V30 9909 H 929.496 3.79025 3.02597 0
M  V30 9910 H 925.375 2.76068 3.69198 0
M  V30 9911 H 928.919 6.18207 3.23211 0
M  V30 9912 H 924.816 5.14365 3.89998 0
M  V30 9913 H 925.584 7.21906 3.85739 0
M  V30 9914 N 928.247 -1.18576 1.03814 0
M  V30 9915 C 929.494 -1.88493 0.740036 0
M  V30 9916 C 929.822 -1.80198 -0.732056 0
M  V30 9917 O 929.077 -1.19509 -1.54971 0
M  V30 9918 C 929.376 -3.38448 1.14837 0
M  V30 9919 C 929.042 -3.66947 2.62031 0
M  V30 9920 C 927.704 -3.74435 3.02244 0
M  V30 9921 C 930.056 -3.79534 3.57217 0
M  V30 9922 C 927.384 -3.91986 4.36536 0
M  V30 9923 C 929.736 -3.986 4.91223 0
M  V30 9924 C 928.4 -4.04323 5.31111 0
M  V30 9925 H 927.67 -0.689746 0.270798 0
M  V30 9926 H 930.317 -1.40364 1.3027 0
M  V30 9927 H 928.622 -3.88539 0.504472 0
M  V30 9928 H 930.319 -3.90882 0.89511 0
M  V30 9929 H 926.909 -3.61734 2.29883 0
M  V30 9930 H 931.093 -3.73083 3.27296 0
M  V30 9931 H 926.349 -3.9466 4.66962 0
M  V30 9932 H 930.523 -4.07281 5.64885 0
M  V30 9933 H 928.15 -4.17676 6.35178 0
M  V30 9934 N 929.725 -0.817259 -1.34754 0
M  V30 9935 C 930.953 -0.415451 -2.02686 0
M  V30 9936 C 931.368 0.97688 -1.61563 0
M  V30 9937 O 930.725 1.63125 -0.818321 0
M  V30 9938 C 930.776 -0.501486 -3.58005 0
M  V30 9939 O 930.497 -1.83893 -3.97637 0
M  V30 9940 C 931.998 -0.0938504 -4.43201 0
M  V30 9941 H 929.218 -0.16742 -0.649778 0
M  V30 9942 H 931.762 -1.10384 -1.7215 0
M  V30 9943 H 929.917 0.138766 -3.87151 0
M  V30 9944 H 930.331 -1.8092 -4.92309 0
M  V30 9945 H 931.805 -0.205145 -5.51619 0
M  V30 9946 H 932.282 0.962011 -4.28535 0
M  V30 9947 H 932.888 -0.707677 -4.19371 0
M  V30 9948 N 931.203 1.46865 -0.571711 0
M  V30 9949 C 932.113 2.33979 0.170571 0
M  V30 9950 C 933.129 1.49083 0.897239 0
M  V30 9951 O 934.305 1.81979 0.862888 0
M  V30 9952 C 931.37 3.26063 1.17831 0
M  V30 9953 C 930.431 4.26855 0.457499 0
M  V30 9954 C 929.664 5.14539 1.41722 0
M  V30 9955 O 929.887 5.04945 2.65305 0
M  V30 9956 O 928.821 5.94612 0.9338 0
M  V30 9957 H 932.647 2.98781 -0.544396 0
M  V30 9958 H 930.232 1.4566 -0.332198 0
M  V30 9959 H 932.114 3.82903 1.75965 0
M  V30 9960 H 930.789 2.63871 1.87493 0
M  V30 9961 H 929.696 3.73734 -0.165406 0
M  V30 9962 H 931.029 4.91802 -0.197953 0
M  V30 9963 N 932.681 0.308908 1.54543 0
M  V30 9964 C 933.611 -0.556657 2.26768 0
M  V30 9965 C 934.592 -1.13145 1.27013 0
M  V30 9966 O 935.777 -1.15931 1.558 0
M  V30 9967 C 932.907 -1.72481 3.01443 0
M  V30 9968 C 931.861 -1.28001 4.08411 0
M  V30 9969 C 931.187 -2.53395 4.70845 0
M  V30 9970 C 932.487 -0.405497 5.20724 0
M  V30 9971 H 934.181 0.0457618 2.99365 0
M  V30 9972 H 931.727 0.0234495 1.43981 0
M  V30 9973 H 933.68 -2.3365 3.50693 0
M  V30 9974 H 932.404 -2.35359 2.26437 0
M  V30 9975 H 931.063 -0.69133 3.60022 0
M  V30 9976 H 930.711 -3.14604 3.92471 0
M  V30 9977 H 930.411 -2.2433 5.43093 0
M  V30 9978 H 931.935 -3.15352 5.22863 0
M  V30 9979 H 933.349 -0.923076 5.6582 0
M  V30 9980 H 931.746 -0.208282 5.99738 0
M  V30 9981 H 932.816 0.567412 4.81569 0
M  V30 9982 N 934.159 -1.57557 0.0367827 0
M  V30 9983 C 935.436 -1.83427 -0.679261 0
M  V30 9984 C 935.816 -0.922274 -1.89888 0
M  V30 9985 O 935.164 0.02025 -2.28491 0
M  V30 9986 C 935.374 -3.32823 -1.05022 0
M  V30 9987 C 936.722 -3.99486 -1.43861 0
M  V30 9988 O 937.746 -3.37364 -1.14297 0
M  V30 9989 O 936.605 -5.0899 -1.98977 0
M  V30 9990 H 933.699 -0.756581 -0.333936 0
M  V30 9991 H 936.245 -1.69575 0.0650494 0
M  V30 9992 H 935.017 -3.90874 -0.182509 0
M  V30 9993 H 934.64 -3.5181 -1.85244 0
M  V30 9994 N 935.637 0.236453 -1.55816 0
M  V30 9995 C 936.6 1.27633 -1.90375 0
M  V30 9996 C 937.6 1.40557 -0.781048 0
M  V30 9997 O 938.79 1.39078 -1.04895 0
M  V30 9998 C 935.922 2.65247 -2.14142 0
M  V30 9999 H 937.115 0.982019 -2.83366 0
M  V30 10000 H 934.668 0.476215 -1.48869 0
M  V30 10001 H 935.403 2.99801 -1.23653 0
M  V30 10002 H 935.188 2.57246 -2.95917 0
M  V30 10003 H 936.678 3.40313 -2.42026 0
M  V30 10004 N 937.115 1.49373 0.502552 0
M  V30 10005 C 938.062 1.65927 1.60427 0
M  V30 10006 C 939.032 0.500768 1.58371 0
M  V30 10007 O 940.217 0.727606 1.76382 0
M  V30 10008 C 937.357 1.73043 2.9858 0
M  V30 10009 C 936.47 3.00187 3.10663 0
M  V30 10010 C 935.605 2.98292 4.3954 0
M  V30 10011 C 934.644 4.20022 4.4525 0
M  V30 10012 N 933.781 4.16046 5.65553 0
M  V30 10013 H 938.621 2.59998 1.45619 0
M  V30 10014 H 936.158 1.28912 0.708519 0
M  V30 10015 H 938.116 1.7515 3.78653 0
M  V30 10016 H 936.746 0.824397 3.12095 0
M  V30 10017 H 935.798 3.07699 2.23663 0
M  V30 10018 H 937.11 3.9018 3.10742 0
M  V30 10019 H 936.264 2.98953 5.27932 0
M  V30 10020 H 935.003 2.06075 4.42023 0
M  V30 10021 H 934.008 4.19607 3.5526 0
M  V30 10022 H 935.233 5.13431 4.44484 0
M  V30 10023 H 933.179 3.26665 5.68881 0
M  V30 10024 H 933.096 4.99773 5.67242 0
M  V30 10025 H 934.364 4.20807 6.56156 0
M  V30 10026 N 938.594 -0.753485 1.38421 0
M  V30 10027 C 939.822 -1.54272 1.37868 0
M  V30 10028 C 940.237 -1.88774 -0.0315155 0
M  V30 10029 O 939.594 -1.52785 -0.998148 0
M  V30 10030 C 939.645 -2.84179 2.23438 0
M  V30 10031 O 939.366 -2.51149 3.58965 0
M  V30 10032 C 940.867 -3.78316 2.31067 0
M  V30 10033 H 938.087 -0.47735 0.47157 0
M  V30 10034 H 940.631 -0.932509 1.82001 0
M  V30 10035 H 938.786 -3.41577 1.82767 0
M  V30 10036 H 939.2 -3.34466 4.04021 0
M  V30 10037 H 940.674 -4.66418 2.95226 0
M  V30 10038 H 941.151 -4.18757 1.32436 0
M  V30 10039 H 941.757 -3.26842 2.72129 0
M  V30 10040 N 940.072 -1.23292 -0.981677 0
M  V30 10041 C 941.318 -1.06582 -1.72535 0
M  V30 10042 C 941.651 0.396538 -1.90108 0
M  V30 10043 O 940.926 1.29363 -1.45243 0
M  V30 10044 C 941.209 -1.7904 -3.12437 0
M  V30 10045 C 941.062 -3.32941 -3.02441 0
M  V30 10046 C 942.381 -1.55185 -4.11832 0
M  V30 10047 H 939.5 -0.388585 -0.626236 0
M  V30 10048 H 942.142 -1.51779 -1.14293 0
M  V30 10049 H 940.292 -1.40619 -3.62158 0
M  V30 10050 H 941.964 -3.80875 -2.60254 0
M  V30 10051 H 940.207 -3.62039 -2.38977 0
M  V30 10052 H 940.878 -3.78827 -4.0149 0
M  V30 10053 H 943.354 -1.88581 -3.70913 0
M  V30 10054 H 942.23 -2.08362 -5.07815 0
M  V30 10055 H 942.491 -0.486925 -4.3941 0
M  V30 10056 N 941.55 1.18024 -1.04442 0
M  V30 10057 C 942.778 1.92032 -0.770161 0
M  V30 10058 C 943.193 1.76391 0.673181 0
M  V30 10059 O 942.55 1.09604 1.45922 0
M  V30 10060 C 942.601 3.43328 -1.13173 0
M  V30 10061 O 942.322 3.5848 -2.51841 0
M  V30 10062 C 943.823 4.34427 -0.882523 0
M  V30 10063 H 941.043 0.609518 -0.280586 0
M  V30 10064 H 943.587 1.49711 -1.39308 0
M  V30 10065 H 941.742 3.83423 -0.553704 0
M  V30 10066 H 942.156 4.52166 -2.65794 0
M  V30 10067 H 943.63 5.39123 -1.18533 0
M  V30 10068 H 944.107 4.3882 0.18257 0
M  V30 10069 H 944.713 4.00035 -1.44403 0
M  V30 10070 N 943.028 0.824394 1.34319 0
M  V30 10071 C 943.991 0.252696 2.27803 0
M  V30 10072 C 944.991 -0.570254 1.50349 0
M  V30 10073 O 946.181 -0.386145 1.69866 0
M  V30 10074 C 943.313 -0.645575 3.34731 0
M  V30 10075 H 944.506 1.07742 2.79878 0
M  V30 10076 H 942.059 0.596367 1.44475 0
M  V30 10077 H 942.794 -1.4933 2.87873 0
M  V30 10078 H 942.579 -0.0569478 3.92059 0
M  V30 10079 H 944.069 -1.03933 4.0446 0
M  V30 10080 N 944.506 -1.46559 0.579492 0
M  V30 10081 C 945.416 -2.34066 -0.15816 0
M  V30 10082 C 946.432 -1.49556 -0.88932 0
M  V30 10083 O 947.608 -1.82434 -0.853226 0
M  V30 10084 C 944.673 -3.26683 -1.161 0
M  V30 10085 C 943.734 -4.27092 -0.434855 0
M  V30 10086 C 942.967 -5.15283 -1.38992 0
M  V30 10087 O 943.19 -5.06345 -2.62623 0
M  V30 10088 O 942.124 -5.95099 -0.902253 0
M  V30 10089 H 945.95 -2.98488 0.560234 0
M  V30 10090 H 943.535 -1.45482 0.339918 0
M  V30 10091 H 945.417 -3.8383 -1.73932 0
M  V30 10092 H 944.092 -2.64862 -1.86091 0
M  V30 10093 H 942.999 -3.73641 0.185224 0
M  V30 10094 H 944.332 -4.9169 0.224031 0
M  V30 10095 N 945.984 -0.3171 -1.54377 0
M  V30 10096 C 947.23 0.287836 -2.00747 0
M  V30 10097 C 947.563 1.52292 -1.20502 0
M  V30 10098 O 946.838 1.92391 -0.285626 0
M  V30 10099 C 947.121 0.628423 -3.54574 0
M  V30 10100 C 946.974 -0.616922 -4.45549 0
M  V30 10101 C 948.293 1.44862 -4.15575 0
M  V30 10102 H 945.412 0.103144 -0.729747 0
M  V30 10103 H 948.054 -0.432396 -1.85014 0
M  V30 10104 H 946.204 1.24203 -3.68111 0
M  V30 10105 H 947.876 -1.25526 -4.43893 0
M  V30 10106 H 946.119 -1.24706 -4.15489 0
M  V30 10107 H 946.79 -0.334243 -5.50987 0
M  V30 10108 H 949.266 0.930015 -4.05574 0
M  V30 10109 H 948.142 1.6557 -5.23333 0
M  V30 10110 H 948.403 2.44279 -3.68484 0
M  V30 10111 N 947.462 1.57535 -0.0451378 0
M  V30 10112 C 948.394 2.08109 0.960372 0
M  V30 10113 C 949.407 1.0077 1.27864 0
M  V30 10114 O 950.596 1.28351 1.24049 0
M  V30 10115 C 947.696 2.50414 2.28355 0
M  V30 10116 C 946.869 3.8102 2.14808 0
M  V30 10117 C 945.928 4.09702 3.30198 0
M  V30 10118 O 944.954 4.79715 3.0637 0
M  V30 10119 N 946.156 3.61138 4.54489 0
M  V30 10120 H 948.921 2.94999 0.528752 0
M  V30 10121 H 946.482 1.61283 0.141248 0
M  V30 10122 H 948.474 2.66683 3.04405 0
M  V30 10123 H 947.044 1.68805 2.63104 0
M  V30 10124 H 946.264 3.74392 1.23387 0
M  V30 10125 H 947.552 4.66559 2.02978 0
M  V30 10126 H 946.95 3.04527 4.76739 0
M  V30 10127 H 945.507 3.82656 5.27653 0
M  V30 10128 N 948.94 -0.228186 1.55939 0
M  V30 10129 C 950.351 -0.795734 1.68893 0
M  V30 10130 C 950.702 -1.85261 0.645967 0
M  V30 10131 O 949.827 -2.15434 -0.2042 0
M  V30 10132 C 950.422 -1.45013 3.06197 0
M  V30 10133 C 948.981 -1.96514 3.21028 0
M  V30 10134 C 948.128 -0.822918 2.64808 0
M  V30 10135 H 951.079 -0.0036485 1.587 0
M  V30 10136 H 951.1 -2.31875 3.01685 0
M  V30 10137 H 950.612 -0.680678 3.82084 0
M  V30 10138 H 948.713 -2.76282 2.49998 0
M  V30 10139 H 948.826 -2.14967 4.28166 0
M  V30 10140 H 947.19 -1.22846 2.23116 0
M  V30 10141 H 947.973 -0.0662493 3.43236 0
M  V30 10142 N 950.418 -1.49637 -0.494624 0
M  V30 10143 C 951.35 -1.62902 -1.61231 0
M  V30 10144 C 952.363 -0.511425 -1.54558 0
M  V30 10145 O 953.552 -0.783724 -1.60375 0
M  V30 10146 C 950.652 -1.57564 -3.00045 0
M  V30 10147 C 949.825 -2.84964 -3.31835 0
M  V30 10148 C 948.884 -2.72591 -4.5009 0
M  V30 10149 O 947.91 -3.46532 -4.51558 0
M  V30 10150 N 949.112 -1.84563 -5.50379 0
M  V30 10151 H 951.877 -2.59301 -1.50276 0
M  V30 10152 H 949.438 -1.46806 -0.68262 0
M  V30 10153 H 951.43 -1.46932 -3.77085 0
M  V30 10154 H 950 -0.689974 -3.0489 0
M  V30 10155 H 949.22 -3.099 -2.4363 0
M  V30 10156 H 950.508 -3.69412 -3.49875 0
M  V30 10157 H 949.906 -1.23758 -5.51997 0
M  V30 10158 H 948.463 -1.79849 -6.26496 0
M  V30 10159 N 951.896 0.746133 -1.38819 0
M  V30 10160 C 953.136 1.51821 -1.36857 0
M  V30 10161 C 953.5 1.9196 0.0391461 0
M  V30 10162 O 954.701 2.68172 0.183689 0
M  V30 10163 C 952.972 2.73214 -2.3041 0
M  V30 10164 S 954.531 3.62995 -2.46536 0
M  V30 10165 H 951.349 0.51945 -0.485482 0
M  V30 10166 H 953.951 0.875244 -1.74813 0
M  V30 10167 H 952.655 2.41847 -3.31569 0
M  V30 10168 H 952.186 3.42449 -1.9363 0
M  V30 10169 H 954.201 4.66353 -1.69498 0
M  V30 10170 N 953.375 1.23811 0.975125 0
M  V30 10171 C 954.623 1.07124 1.71373 0
M  V30 10172 C 954.944 -0.391864 1.91022 0
M  V30 10173 O 954.214 -1.28041 1.48265 0
M  V30 10174 H 952.794 0.393415 0.635007 0
M  V30 10175 H 955.456 1.55612 1.17349 0
M  V30 10176 H 954.552 1.56338 2.7012 0
M  V30 10177 N 954.853 -1.17469 1.05066 0
M  V30 10178 C 956.269 -1.39699 0.771769 0
M  V30 10179 C 956.469 -1.91253 -0.634382 0
M  V30 10180 O 955.525 -2.10334 -1.39699 0
M  V30 10181 C 956.838 -2.38886 1.82631 0
M  V30 10182 C 958.386 -2.52595 1.84838 0
M  V30 10183 C 958.861 -3.55054 2.89311 0
M  V30 10184 N 960.352 -3.6257 2.88266 0
M  V30 10185 C 961.087 -4.41603 3.65752 0
M  V30 10186 N 960.583 -5.24162 4.53019 0
M  V30 10187 N 962.376 -4.36464 3.54197 0
M  V30 10188 H 954.527 -0.823355 1.95792 0
M  V30 10189 H 956.79 -0.42432 0.847736 0
M  V30 10190 H 956.496 -2.08075 2.83545 0
M  V30 10191 H 956.37 -3.38371 1.66687 0
M  V30 10192 H 958.757 -2.82717 0.845888 0
M  V30 10193 H 958.838 -1.53188 2.04859 0
M  V30 10194 H 958.482 -3.2567 3.89745 0
M  V30 10195 H 958.412 -4.54162 2.66542 0
M  V30 10196 H 960.903 -3.03625 2.24989 0
M  V30 10197 H 961.216 -5.81646 5.0883 0
M  V30 10198 H 959.561 -5.23547 4.57081 0
M  V30 10199 H 962.752 -3.7102 2.85416 0
M  V30 10200 H 962.925 -4.97814 4.14832 0
M  V30 10201 N 956.331 -0.831506 -1.3388 0
M  V30 10202 C 957.294 -0.264773 -2.27666 0
M  V30 10203 C 958.294 0.562273 -1.50649 0
M  V30 10204 O 959.484 0.377131 -1.70069 0
M  V30 10205 C 956.616 0.627814 -3.35069 0
M  V30 10206 H 957.809 -1.09225 -2.79303 0
M  V30 10207 H 955.362 -0.604021 -1.44157 0
M  V30 10208 H 956.097 1.47802 -2.88661 0
M  V30 10209 H 955.882 0.0361552 -3.92083 0
M  V30 10210 H 957.372 1.01786 -4.05005 0
M  V30 10211 N 957.809 1.4625 -0.587256 0
M  V30 10212 C 959.055 2.02662 -0.0746851 0
M  V30 10213 C 959.388 1.45723 1.28368 0
M  V30 10214 O 958.663 0.624062 1.84216 0
M  V30 10215 C 958.946 3.60097 -0.0138109 0
M  V30 10216 C 958.799 4.27412 -1.4014 0
M  V30 10217 C 960.118 4.34744 0.684491 0
M  V30 10218 H 957.237 0.736444 -0.0286144 0
M  V30 10219 H 959.879 1.74341 -0.755328 0
M  V30 10220 H 958.029 3.84357 0.56583 0
M  V30 10221 H 959.701 4.14401 -2.02656 0
M  V30 10222 H 957.944 3.86598 -1.96785 0
M  V30 10223 H 958.615 5.362 -1.31124 0
M  V30 10224 H 961.091 4.15657 0.192023 0
M  V30 10225 H 959.967 5.44468 0.696127 0
M  V30 10226 H 960.228 4.06132 1.74669 0
M  V30 10227 N 959.287 0.325282 1.54207 0
M  V30 10228 C 960.535 -0.276229 2.00203 0
M  V30 10229 C 960.856 -1.52519 1.21503 0
M  V30 10230 O 960.126 -1.93313 0.317302 0
M  V30 10231 H 958.706 -0.105059 0.739575 0
M  V30 10232 H 961.368 0.442225 1.89817 0
M  V30 10233 H 960.464 -0.531427 3.07542 0
M  V30 10234 N 960.765 -1.57509 0.0534917 0
M  V30 10235 C 962.012 -1.92782 -0.619772 0
M  V30 10236 C 962.34 -0.932046 -1.70714 0
M  V30 10237 O 961.595 0.0552891 -1.95622 0
M  V30 10238 C 961.894 -3.34734 -1.25251 0
M  V30 10239 C 961.56 -4.49946 -0.293113 0
M  V30 10240 C 960.222 -4.81191 -0.0291223 0
M  V30 10241 C 962.574 -5.19925 0.364271 0
M  V30 10242 C 959.902 -5.79761 0.899649 0
M  V30 10243 C 962.254 -6.19489 1.28125 0
M  V30 10244 C 960.918 -6.49161 1.55389 0
M  V30 10245 H 960.188 -0.705441 -0.226791 0
M  V30 10246 H 962.835 -1.91121 0.120466 0
M  V30 10247 H 961.14 -3.32774 -2.06807 0
M  V30 10248 H 962.837 -3.59308 -1.78042 0
M  V30 10249 H 959.427 -4.25566 -0.509053 0
M  V30 10250 H 963.611 -4.95997 0.173411 0
M  V30 10251 H 958.867 -6.01085 1.11833 0
M  V30 10252 H 963.041 -6.72824 1.79669 0
M  V30 10253 H 960.668 -7.25354 2.2752 0
M  V30 10254 N 962.243 0.219913 -1.56058 0
M  V30 10255 C 963.468 0.965073 -1.83579 0
M  V30 10256 C 963.893 1.77092 -0.634024 0
M  V30 10257 O 963.251 1.76434 0.417205 0
M  V30 10258 C 963.299 1.85705 -3.09105 0
M  V30 10259 O 962.403 2.95261 -2.87914 0
M  V30 10260 H 961.744 0.273173 -0.605204 0
M  V30 10261 H 964.274 0.23273 -2.03272 0
M  V30 10262 H 964.284 2.26655 -3.39252 0
M  V30 10263 H 962.959 1.26476 -3.96203 0
M  V30 10264 H 961.536 2.58246 -2.69005 0
M  V30 10265 N 963.721 1.49897 0.486681 0
M  V30 10266 C 964.946 1.64106 1.26823 0
M  V30 10267 C 965.371 0.317967 1.85393 0
M  V30 10268 O 964.729 -0.71626 1.66551 0
M  V30 10269 C 964.777 2.72301 2.36399 0
M  V30 10270 O 963.881 2.32469 3.40634 0
M  V30 10271 H 963.222 0.548794 0.373793 0
M  V30 10272 H 965.752 1.96177 0.581017 0
M  V30 10273 H 965.762 2.94906 2.81948 0
M  V30 10274 H 964.437 3.68335 1.93137 0
M  V30 10275 H 963.014 2.20251 3.00905 0
M  V30 10276 N 965.199 -0.738761 1.39212 0
M  V30 10277 C 966.447 -1.49529 1.35962 0
M  V30 10278 C 966.768 -1.94948 -0.0450152 0
M  V30 10279 O 966.038 -1.68717 -0.995552 0
M  V30 10280 H 964.618 -0.554692 0.500326 0
M  V30 10281 H 967.28 -0.877255 1.74041 0
M  V30 10282 H 966.376 -2.37919 2.01993 0
M  V30 10283 N 966.677 -1.24326 -0.968545 0
M  V30 10284 C 967.905 -1.10947 -1.74638 0
M  V30 10285 C 968.32 0.338064 -1.85749 0
M  V30 10286 O 967.677 1.23331 -1.3452 0
M  V30 10287 C 967.728 -1.74254 -3.1673 0
M  V30 10288 O 967.449 -3.13347 -3.06178 0
M  V30 10289 C 968.95 -1.66473 -4.10855 0
M  V30 10290 H 966.17 -0.38767 -0.547679 0
M  V30 10291 H 968.714 -1.64415 -1.21605 0
M  V30 10292 H 966.869 -1.2479 -3.66751 0
M  V30 10293 H 967.283 -3.44255 -3.95713 0
M  V30 10294 H 968.757 -2.15452 -5.08217 0
M  V30 10295 H 969.234 -0.625785 -4.34719 0
M  V30 10296 H 969.84 -2.15359 -3.66743 0
M  V30 10297 N 968.156 1.1691 -1.05688 0
M  V30 10298 C 969.066 2.24735 -0.67315 0
M  V30 10299 C 970.082 1.71252 0.308043 0
M  V30 10300 O 971.258 2.00772 0.158889 0
M  V30 10301 C 968.323 3.4665 -0.059026 0
M  V30 10302 C 967.384 4.15198 -1.0913 0
M  V30 10303 C 966.617 5.31292 -0.50639 0
M  V30 10304 O 966.84 5.663 0.682692 0
M  V30 10305 O 965.774 5.88923 -1.2431 0
M  V30 10306 H 969.6 2.59855 -1.57191 0
M  V30 10307 H 967.185 1.24306 -0.828751 0
M  V30 10308 H 969.067 4.20455 0.282018 0
M  V30 10309 H 967.742 3.13316 0.813304 0
M  V30 10310 H 966.649 3.43389 -1.48442 0
M  V30 10311 H 967.982 4.52571 -1.93495 0
M  V30 10312 N 969.634 0.838594 1.33437 0
M  V30 10313 C 970.582 0.260158 2.31141 0
M  V30 10314 C 971.576 -0.607706 1.58124 0
M  V30 10315 O 972.782 -0.497298 1.72994 0
M  V30 10316 H 969.157 0.0654031 0.74915 0
M  V30 10317 H 971.128 1.09874 2.77435 0
M  V30 10318 C 969.877 -0.550234 3.43319 0
M  V30 10319 H 969.2 0.108262 3.99653 0
M  V30 10320 H 970.64 -0.920815 4.1388 0
M  V30 10321 C 969.099 -1.729 2.89149 0
M  V30 10322 O 969.629 -2.82769 2.85315 0
M  V30 10323 N 967.835 -1.5508 2.45761 0
M  V30 10324 H 967.382 -0.657055 2.49079 0
M  V30 10325 H 967.34 -2.34099 2.0987 0
M  V30 10326 N 971.112 -1.45937 0.595003 0
M  V30 10327 C 972.523 -1.85908 0.171779 0
M  V30 10328 C 972.874 -1.497 -1.26824 0
M  V30 10329 O 971.999 -0.917688 -1.95978 0
M  V30 10330 C 972.594 -3.37425 0.304976 0
M  V30 10331 C 971.153 -3.76346 -0.0634635 0
M  V30 10332 C 970.3 -2.69926 0.635255 0
M  V30 10333 H 973.251 -1.36916 0.802471 0
M  V30 10334 H 973.272 -3.77632 -0.466313 0
M  V30 10335 H 972.784 -3.63747 1.35314 0
M  V30 10336 H 970.885 -3.55642 -1.11129 0
M  V30 10337 H 970.998 -4.78021 0.321419 0
M  V30 10338 H 969.362 -2.54592 0.0742054 0
M  V30 10339 H 970.145 -2.99086 1.68531 0
M  V30 10340 N 972.59 -0.333456 -1.54032 0
M  V30 10341 C 973.54 0.543745 -2.21421 0
M  V30 10342 C 974.524 1.07396 -1.19812 0
M  V30 10343 O 975.716 1.00934 -1.45401 0
M  V30 10344 C 972.845 1.69925 -2.98296 0
M  V30 10345 C 971.931 1.18345 -4.07253 0
M  V30 10346 N 972.322 0.388098 -5.04309 0
M  V30 10347 C 970.62 1.46128 -4.21382 0
M  V30 10348 C 971.321 0.109383 -5.81597 0
M  V30 10349 N 970.297 0.69825 -5.39097 0
M  V30 10350 H 974.099 -0.0711018 -2.93814 0
M  V30 10351 H 971.613 -0.139807 -1.61797 0
M  V30 10352 H 973.61 2.33954 -3.45067 0
M  V30 10353 H 972.27 2.31747 -2.27428 0
M  V30 10354 H 973.281 0.0300645 -5.17891 0
M  V30 10355 H 969.958 2.08463 -3.61731 0
M  V30 10356 H 971.348 -0.531554 -6.69794 0
M  V30 10357 N 974.068 1.57479 -0.061844 0
M  V30 10358 C 975.316 1.92727 0.608336 0
M  V30 10359 C 975.637 0.941799 1.70749 0
M  V30 10360 O 974.907 -0.0116608 1.95897 0
M  V30 10361 H 973.487 0.71145 0.2277 0
M  V30 10362 H 976.149 1.94546 -0.117359 0
M  V30 10363 H 975.245 2.9426 1.04007 0
M  V30 10364 N 975.546 -0.211634 1.56173 0
M  V30 10365 C 976.792 -0.935935 1.79911 0
M  V30 10366 C 977.125 -1.83589 0.633155 0
M  V30 10367 O 976.4 -1.91004 -0.367132 0
M  V30 10368 C 976.683 -1.76638 3.13801 0
M  V30 10369 C 976.536 -0.892259 4.40861 0
M  V30 10370 C 977.855 -2.74224 3.44223 0
M  V30 10371 H 974.974 -0.338822 0.654499 0
M  V30 10372 H 977.616 -0.20422 1.88899 0
M  V30 10373 H 975.766 -2.39021 3.0627 0
M  V30 10374 H 977.438 -0.284407 4.60422 0
M  V30 10375 H 975.681 -0.198145 4.33347 0
M  V30 10376 H 976.352 -1.50793 5.31004 0
M  V30 10377 H 978.828 -2.21975 3.51946 0
M  V30 10378 H 977.704 -3.29424 4.39057 0
M  V30 10379 H 977.965 -3.52455 2.66885 0
M  V30 10380 N 977.024 -1.50153 -0.478725 0
M  V30 10381 C 977.971 -1.68458 -1.57767 0
M  V30 10382 C 978.941 -0.5259 -1.57555 0
M  V30 10383 O 980.126 -0.755574 -1.75202 0
M  V30 10384 C 977.266 -1.77772 -2.95789 0
M  V30 10385 C 976.379 -3.05092 -3.05848 0
M  V30 10386 C 975.514 -3.05247 -4.34739 0
M  V30 10387 C 974.553 -4.27053 -4.38512 0
M  V30 10388 N 973.69 -4.24991 -5.58862 0
M  V30 10389 H 978.53 -2.62282 -1.41464 0
M  V30 10390 H 976.067 -1.30023 -0.687921 0
M  V30 10391 H 978.025 -1.81152 -3.75819 0
M  V30 10392 H 976.655 -0.873944 -3.10744 0
M  V30 10393 H 975.707 -3.11219 -2.1874 0
M  V30 10394 H 977.019 -3.95075 -3.04495 0
M  V30 10395 H 976.173 -3.07314 -5.23109 0
M  V30 10396 H 974.912 -2.13081 -4.38689 0
M  V30 10397 H 973.917 -4.25206 -3.4854 0
M  V30 10398 H 975.142 -5.20437 -4.36259 0
M  V30 10399 H 973.088 -3.35674 -5.63612 0
M  V30 10400 H 973.005 -5.08734 -5.59219 0
M  V30 10401 H 974.273 -4.31193 -6.49379 0
M  V30 10402 N 978.502 0.731368 -1.39602 0
M  V30 10403 C 979.465 1.8271 -1.38383 0
M  V30 10404 C 980.465 1.58338 -0.280309 0
M  V30 10405 O 981.655 1.65671 -0.538402 0
M  V30 10406 C 978.787 3.20556 -1.16002 0
M  V30 10407 H 979.98 1.85193 -2.35889 0
M  V30 10408 H 977.533 0.935396 -1.2522 0
M  V30 10409 H 978.268 3.23732 -0.191927 0
M  V30 10410 H 978.053 3.39643 -1.9592 0
M  V30 10411 H 979.543 4.00612 -1.17899 0
M  V30 10412 N 979.98 1.24838 0.961938 0
M  V30 10413 C 981.226 1.09313 1.70817 0
M  V30 10414 C 981.559 -0.366244 1.90715 0
M  V30 10415 O 980.834 -1.27036 1.47282 0
M  V30 10416 C 981.117 1.83988 3.09549 0
M  V30 10417 C 980.97 3.3771 2.97106 0
M  V30 10418 C 982.289 1.61718 4.09311 0
M  V30 10419 H 979.408 0.398498 0.619974 0
M  V30 10420 H 982.05 1.53579 1.11864 0
M  V30 10421 H 980.2 1.46363 3.59875 0
M  V30 10422 H 981.872 3.84967 2.54161 0
M  V30 10423 H 980.115 3.65795 2.33187 0
M  V30 10424 H 980.786 3.85166 3.95412 0
M  V30 10425 H 983.262 1.94458 3.67866 0
M  V30 10426 H 982.138 2.16415 5.04436 0
M  V30 10427 H 982.399 0.55677 4.3858 0
M  V30 10428 N 981.458 -1.16348 1.06306 0
M  V30 10429 C 982.686 -1.90782 0.800614 0
M  V30 10430 C 983.101 -1.77439 -0.645033 0
M  V30 10431 O 982.458 -1.11912 -1.4416 0
M  V30 10432 C 982.509 -3.41484 1.18621 0
M  V30 10433 O 982.23 -3.54428 2.57512 0
M  V30 10434 C 983.731 -4.32968 0.951525 0
M  V30 10435 H 980.951 -0.604977 0.290247 0
M  V30 10436 H 983.495 -1.47476 1.41672 0
M  V30 10437 H 981.65 -3.82493 0.614633 0
M  V30 10438 H 982.064 -4.4788 2.72954 0
M  V30 10439 H 983.538 -5.37169 1.27095 0
M  V30 10440 H 984.015 -4.39055 -0.112734 0
M  V30 10441 H 984.621 -3.97687 1.50749 0
M  V30 10442 N 982.937 -0.845659 -1.3299 0
M  V30 10443 C 984.353 -0.53433 -1.5039 0
M  V30 10444 C 984.553 0.936939 -1.78392 0
M  V30 10445 O 983.609 1.72043 -1.84818 0
M  V30 10446 C 984.922 -1.41354 -2.65404 0
M  V30 10447 C 986.47 -1.41303 -2.79289 0
M  V30 10448 C 986.945 -2.27724 -3.97373 0
M  V30 10449 N 988.436 -2.25471 -4.0462 0
M  V30 10450 C 989.171 -2.89074 -4.95201 0
M  V30 10451 N 988.667 -3.61755 -5.90851 0
M  V30 10452 N 990.46 -2.78508 -4.88251 0
M  V30 10453 H 982.611 -1.79798 -1.13078 0
M  V30 10454 H 984.874 -0.767454 -0.556524 0
M  V30 10455 H 984.58 -2.45936 -2.51413 0
M  V30 10456 H 984.454 -1.09445 -3.60973 0
M  V30 10457 H 986.841 -0.374899 -2.92709 0
M  V30 10458 H 986.922 -1.77222 -1.84461 0
M  V30 10459 H 986.566 -3.316 -3.84713 0
M  V30 10460 H 986.496 -1.89142 -4.9146 0
M  V30 10461 H 988.987 -1.72622 -3.3617 0
M  V30 10462 H 989.3 -4.07475 -6.56646 0
M  V30 10463 H 987.645 -3.65863 -5.90906 0
M  V30 10464 H 990.836 -2.21285 -4.12493 0
M  V30 10465 H 991.009 -3.2836 -5.58645 0
M  V30 10466 N 984.415 1.45619 -0.602734 0
M  V30 10467 C 985.663 2.01873 -0.095844 0
M  V30 10468 C 985.984 1.47427 1.27633 0
M  V30 10469 O 985.254 0.666652 1.84208 0
M  V30 10470 H 983.834 0.746295 -0.0324408 0
M  V30 10471 H 986.496 1.78478 -0.783037 0
M  V30 10472 H 985.592 3.12072 -0.0419507 0
M  V30 10473 N 985.893 0.34162 1.53853 0
M  V30 10474 C 986.825 -0.550383 2.22494 0
M  V30 10475 C 987.838 -1.0655 1.23089 0
M  V30 10476 O 989.027 -0.975985 1.49455 0
M  V30 10477 C 986.127 -1.76995 2.89009 0
M  V30 10478 C 985.3 -1.39045 4.14711 0
M  V30 10479 C 984.359 -2.46947 4.64654 0
M  V30 10480 O 983.385 -2.10336 5.28912 0
M  V30 10481 N 984.587 -3.7817 4.40418 0
M  V30 10482 H 987.352 0.037456 2.99677 0
M  V30 10483 H 984.913 0.165654 1.6105 0
M  V30 10484 H 986.905 -2.48608 3.19337 0
M  V30 10485 H 985.475 -2.2652 2.15424 0
M  V30 10486 H 984.695 -0.505161 3.9095 0
M  V30 10487 H 985.983 -1.11284 4.96481 0
M  V30 10488 H 985.381 -4.10704 3.89023 0
M  V30 10489 H 983.938 -4.45959 4.75356 0
M  V30 10490 N 987.371 -1.57444 0.0701946 0
M  V30 10491 C 988.787 -1.57009 -0.286431 0
M  V30 10492 C 988.987 -1.07946 -1.70147 0
M  V30 10493 O 988.043 -0.744622 -2.41271 0
M  V30 10494 C 989.356 -3.00542 -0.0975466 0
M  V30 10495 C 990.904 -3.12553 -0.167205 0
M  V30 10496 C 991.379 -4.58 -0.00662047 0
M  V30 10497 N 992.87 -4.63158 -0.0622778 0
M  V30 10498 C 993.605 -5.73388 0.0375831 0
M  V30 10499 N 993.101 -6.92537 0.190873 0
M  V30 10500 N 994.894 -5.62097 -0.0193672 0
M  V30 10501 H 987.045 -1.87651 0.995023 0
M  V30 10502 H 989.308 -0.865006 0.387902 0
M  V30 10503 H 989.014 -3.40543 0.878822 0
M  V30 10504 H 988.888 -3.67485 -0.850547 0
M  V30 10505 H 991.275 -2.72439 -1.13406 0
M  V30 10506 H 991.356 -2.48251 0.616871 0
M  V30 10507 H 991 -4.98803 0.956992 0
M  V30 10508 H 990.93 -5.20332 -0.810081 0
M  V30 10509 H 993.421 -3.77475 -0.179229 0
M  V30 10510 H 993.734 -7.72365 0.25926 0
M  V30 10511 H 992.079 -6.94632 0.226214 0
M  V30 10512 H 995.27 -4.67897 -0.137815 0
M  V30 10513 H 995.443 -6.4797 0.0619121 0
M  V30 10514 N 988.849 0.203349 -1.56283 0
M  V30 10515 C 990.089 0.931871 -1.81922 0
M  V30 10516 C 990.453 1.8079 -0.646459 0
M  V30 10517 O 991.654 2.57157 -0.782556 0
M  V30 10518 C 989.925 1.73347 -3.12547 0
M  V30 10519 S 991.484 2.51514 -3.59564 0
M  V30 10520 H 988.302 0.312706 -0.638542 0
M  V30 10521 H 990.904 0.195931 -1.94516 0
M  V30 10522 H 989.608 1.08038 -3.95924 0
M  V30 10523 H 989.139 2.51138 -3.02809 0
M  V30 10524 H 991.154 3.7552 -3.24345 0
M  V30 10525 N 990.327 1.50405 0.470755 0
M  V30 10526 C 991.29 1.68741 1.5511 0
M  V30 10527 C 992.29 0.558116 1.50804 0
M  V30 10528 O 993.48 0.825149 1.53418 0
M  V30 10529 C 990.612 1.71295 2.94739 0
M  V30 10530 H 991.805 2.65127 1.40169 0
M  V30 10531 H 989.358 1.39891 0.697156 0
M  V30 10532 H 990.093 0.766029 3.15123 0
M  V30 10533 H 989.878 2.53336 2.99271 0
M  V30 10534 H 991.368 1.87434 3.73173 0
M  V30 10535 N 991.805 -0.723954 1.39988 0
M  V30 10536 C 993.054 -1.47922 1.3712 0
M  V30 10537 C 993.367 -1.95582 -0.0263665 0
M  V30 10538 O 994.573 -2.70918 -0.177652 0
M  V30 10539 C 993.029 -2.67342 2.40949 0
M  V30 10540 C 992.637 -2.26586 3.86475 0
M  V30 10541 C 994.381 -3.45116 2.47174 0
M  V30 10542 C 992.288 -3.42794 4.81919 0
M  V30 10543 H 991.218 -0.555522 0.509815 0
M  V30 10544 H 993.869 -0.788692 1.65686 0
M  V30 10545 H 992.251 -3.38524 2.0547 0
M  V30 10546 H 993.425 -1.62878 4.31054 0
M  V30 10547 H 991.74 -1.61876 3.83647 0
M  V30 10548 H 994.337 -4.31573 3.15672 0
M  V30 10549 H 994.68 -3.8835 1.49966 0
M  V30 10550 H 995.213 -2.80971 2.81602 0
M  V30 10551 H 991.952 -3.046 5.8043 0
M  V30 10552 H 991.472 -4.05445 4.42012 0
M  V30 10553 H 993.151 -4.08977 5.01345 0
M  V30 10554 N 993.283 -1.25346 -0.955304 0
M  V30 10555 C 994.246 -1.05754 -2.03344 0
M  V30 10556 C 995.246 -0.0105743 -1.60797 0
M  V30 10557 O 996.436 -0.252699 -1.72357 0
M  V30 10558 C 993.568 -0.605536 -3.35479 0
M  V30 10559 H 994.761 -2.01459 -2.22158 0
M  V30 10560 H 992.314 -1.07744 -1.1323 0
M  V30 10561 H 993.049 0.354154 -3.2236 0
M  V30 10562 H 992.834 -1.36134 -3.67709 0
M  V30 10563 H 994.324 -0.489867 -4.14717 0
M  V30 10564 N 994.761 1.15782 -1.06922 0
M  V30 10565 C 995.691 2.22538 -0.707045 0
M  V30 10566 C 996.672 1.67371 0.303471 0
M  V30 10567 O 997.857 1.9339 0.177189 0
M  V30 10568 C 994.987 3.47158 -0.0994269 0
M  V30 10569 C 993.941 4.15257 -1.03661 0
M  V30 10570 C 993.267 5.33902 -0.291974 0
M  V30 10571 C 994.567 4.65516 -2.36837 0
M  V30 10572 H 996.261 2.53089 -1.59958 0
M  V30 10573 H 993.807 1.21649 -0.770552 0
M  V30 10574 H 995.76 4.21073 0.165852 0
M  V30 10575 H 994.484 3.15926 0.828155 0
M  V30 10576 H 993.143 3.43276 -1.28674 0
M  V30 10577 H 992.791 4.98926 0.638928 0
M  V30 10578 H 992.491 5.80407 -0.916613 0
M  V30 10579 H 994.015 6.1059 -0.0343915 0
M  V30 10580 H 995.429 5.30981 -2.16175 0
M  V30 10581 H 993.826 5.22666 -2.94856 0
M  V30 10582 H 994.896 3.81387 -2.99453 0
M  V30 10583 N 996.239 0.8527 1.3254 0
M  V30 10584 C 997.485 0.46507 1.98012 0
M  V30 10585 C 997.84 -0.968179 1.66265 0
M  V30 10586 O 997.133 -1.66985 0.9395 0
M  V30 10587 C 997.327 0.638757 3.51646 0
M  V30 10588 C 997.156 2.08734 3.98322 0
M  V30 10589 C 995.926 2.72544 4.25497 0
M  V30 10590 C 998.124 3.0577 4.13533 0
M  V30 10591 N 996.106 4.08333 4.58408 0
M  V30 10592 C 997.477 4.26542 4.49958 0
M  V30 10593 C 999.532 3.01991 3.95861 0
M  V30 10594 C 998.235 5.4403 4.70557 0
M  V30 10595 C 1000.26 4.18722 4.17643 0
M  V30 10596 C 999.623 5.38252 4.54383 0
M  V30 10597 H 995.722 0.218881 0.750743 0
M  V30 10598 H 998.306 1.10368 1.60397 0
M  V30 10599 H 996.477 0.0298629 3.88389 0
M  V30 10600 H 998.209 0.221215 4.04095 0
M  V30 10601 H 994.964 2.23594 4.17496 0
M  V30 10602 H 995.388 4.78372 4.79051 0
M  V30 10603 H 1000.03 2.107 3.66559 0
M  V30 10604 H 997.748 6.35854 4.98714 0
M  V30 10605 H 1001.33 4.17232 4.05474 0
M  V30 10606 H 1000.21 6.27075 4.709 0
M  V30 10607 N 997.718 -1.45297 0.610449 0
M  V30 10608 C 998.965 -2.02218 0.106759 0
M  V30 10609 C 999.293 -1.47849 -1.26376 0
M  V30 10610 O 998.548 -0.644402 -1.84786 0
M  V30 10611 C 998.847 -3.57394 0.0205329 0
M  V30 10612 C 998.513 -4.30928 1.32709 0
M  V30 10613 C 997.175 -4.50735 1.68498 0
M  V30 10614 C 999.527 -4.72936 2.19046 0
M  V30 10615 C 996.855 -5.09806 2.90371 0
M  V30 10616 C 999.207 -5.33355 3.40169 0
M  V30 10617 C 997.871 -5.51384 3.76207 0
M  V30 10618 H 997.141 -0.739969 0.039066 0
M  V30 10619 H 999.788 -1.74326 0.792638 0
M  V30 10620 H 998.093 -3.84581 -0.748623 0
M  V30 10621 H 999.79 -3.99144 -0.385386 0
M  V30 10622 H 996.38 -4.15827 1.03854 0
M  V30 10623 H 1000.56 -4.57365 1.92695 0
M  V30 10624 H 995.82 -5.21953 3.18395 0
M  V30 10625 H 999.994 -5.64859 4.07318 0
M  V30 10626 H 997.621 -5.96924 4.70729 0
M  V30 10627 N 999.196 -0.349774 -1.5367 0
M  V30 10628 C 1000.42 0.246038 -2.05432 0
M  V30 10629 C 1000.84 1.43719 -1.22435 0
M  V30 10630 O 1000.2 1.80622 -0.261166 0
M  V30 10631 C 1000.25 0.65501 -3.55516 0
M  V30 10632 O 999.968 -0.488782 -4.35365 0
M  V30 10633 C 1001.47 1.31088 -4.23475 0
M  V30 10634 H 998.689 0.0463952 -0.669394 0
M  V30 10635 H 1001.23 -0.503566 -1.98203 0
M  V30 10636 H 999.388 1.35455 -3.62947 0
M  V30 10637 H 999.802 -0.161528 -5.24251 0
M  V30 10638 H 1001.28 1.54774 -5.29857 0
M  V30 10639 H 1001.75 2.26636 -3.76208 0
M  V30 10640 H 1002.36 0.653211 -4.20254 0
M  V30 10641 N 1000.67 1.57404 -0.0785433 0
M  V30 10642 C 1001.6 2.16131 0.883726 0
M  V30 10643 C 1002.58 1.09015 1.30575 0
M  V30 10644 O 1003.77 1.3708 1.37559 0
M  V30 10645 C 1000.9 2.72836 2.1489 0
M  V30 10646 C 999.854 3.85178 1.86605 0
M  V30 10647 C 999.18 4.28516 3.1981 0
M  V30 10648 C 1000.48 5.09118 1.16601 0
M  V30 10649 H 1002.17 2.9679 0.394484 0
M  V30 10650 H 999.72 1.42763 0.188304 0
M  V30 10651 H 1001.67 3.12567 2.8263 0
M  V30 10652 H 1000.4 1.89408 2.66068 0
M  V30 10653 H 999.056 3.45962 1.21268 0
M  V30 10654 H 998.704 3.42 3.68843 0
M  V30 10655 H 998.404 5.04249 3.01674 0
M  V30 10656 H 999.928 4.70868 3.88737 0
M  V30 10657 H 1001.34 5.46123 1.74422 0
M  V30 10658 H 999.739 5.90173 1.087 0
M  V30 10659 H 1000.81 4.8468 0.146138 0
M  V30 10660 N 1002.15 -0.195058 1.56388 0
M  V30 10661 C 1003.43 -0.941335 1.71459 0
M  V30 10662 C 1003.81 -2.01375 0.633336 0
M  V30 10663 O 1003.16 -2.25715 -0.35567 0
M  V30 10664 C 1003.37 -1.52772 3.13786 0
M  V30 10665 C 1004.71 -2.00983 3.7402 0
M  V30 10666 O 1005.74 -1.62614 3.16915 0
M  V30 10667 O 1004.6 -2.71586 4.7424 0
M  V30 10668 H 1001.69 -0.441451 0.699321 0
M  V30 10669 H 1004.24 -0.184752 1.68691 0
M  V30 10670 H 1003.01 -0.754699 3.83953 0
M  V30 10671 H 1002.63 -2.34914 3.20782 0
M  V30 10672 N 1003.63 -1.50653 -0.462772 0
M  V30 10673 C 1005.04 -1.54821 -1.04342 0
M  V30 10674 C 1005.39 -0.356595 -1.92932 0
M  V30 10675 O 1004.52 0.529579 -2.0982 0
M  V30 10676 C 1005.11 -2.80571 -1.89909 0
M  V30 10677 C 1003.67 -2.87394 -2.43067 0
M  V30 10678 C 1002.82 -2.49206 -1.21621 0
M  V30 10679 H 1005.77 -1.56797 -0.245048 0
M  V30 10680 H 1005.79 -2.62897 -2.75074 0
M  V30 10681 H 1005.3 -3.67281 -1.25405 0
M  V30 10682 H 1003.4 -2.05055 -3.111 0
M  V30 10683 H 1003.52 -3.90477 -2.77605 0
M  V30 10684 H 1001.88 -2.01829 -1.55361 0
M  V30 10685 H 1002.66 -3.38233 -0.587669 0
M  V30 10686 N 1005.11 0.71652 -1.4037 0
M  V30 10687 C 1006.52 1.02447 -1.22379 0
M  V30 10688 C 1006.72 2.0126 -0.0983394 0
M  V30 10689 O 1005.78 2.46569 0.544071 0
M  V30 10690 C 1007.09 1.56909 -2.56515 0
M  V30 10691 C 1008.64 1.68898 -2.6352 0
M  V30 10692 C 1009.12 2.26765 -3.97922 0
M  V30 10693 N 1010.61 2.34152 -3.99658 0
M  V30 10694 C 1011.34 2.79907 -5.00439 0
M  V30 10695 N 1010.84 3.25422 -6.11615 0
M  V30 10696 N 1012.63 2.79283 -4.87809 0
M  V30 10697 H 1004.78 0.0615306 -2.12311 0
M  V30 10698 H 1007.05 0.0898994 -0.943728 0
M  V30 10699 H 1006.75 0.917649 -3.39517 0
M  V30 10700 H 1006.63 2.55446 -2.77538 0
M  V30 10701 H 1009.01 2.33159 -1.8089 0
M  V30 10702 H 1009.09 0.689626 -2.46329 0
M  V30 10703 H 1008.74 1.63126 -4.80991 0
M  V30 10704 H 1008.67 3.27413 -4.12442 0
M  V30 10705 H 1011.16 2.02006 -3.19378 0
M  V30 10706 H 1011.47 3.58899 -6.84406 0
M  V30 10707 H 1009.82 3.23383 -6.15181 0
M  V30 10708 H 1013.01 2.43061 -4.00049 0
M  V30 10709 H 1013.18 3.14626 -5.66493 0
M  V30 10710 N 1006.59 1.25851 0.948643 0
M  V30 10711 C 1007.54 1.03437 2.03187 0
M  V30 10712 C 1008.52 -0.0307632 1.60871 0
M  V30 10713 O 1009.71 0.185296 1.76027 0
M  V30 10714 C 1006.84 0.661426 3.36868 0
M  V30 10715 C 1005.93 1.76363 3.8569 0
M  V30 10716 N 1006.32 2.9998 4.07241 0
M  V30 10717 C 1004.62 1.64552 4.14534 0
M  V30 10718 C 1005.32 3.71564 4.47566 0
M  V30 10719 N 1004.29 2.99214 4.53841 0
M  V30 10720 H 1008.1 1.97277 2.17851 0
M  V30 10721 H 1005.61 1.16258 1.13392 0
M  V30 10722 H 1007.61 0.482021 4.14104 0
M  V30 10723 H 1006.27 -0.269582 3.23579 0
M  V30 10724 H 1007.28 3.35963 3.94143 0
M  V30 10725 H 1003.95 0.783891 4.10075 0
M  V30 10726 H 1005.34 4.77702 4.72494 0
M  V30 10727 N 1008.06 -1.15214 1.07534 0
M  V30 10728 C 1009.29 -1.90463 0.820883 0
M  V30 10729 C 1009.71 -1.77578 -0.620305 0
M  V30 10730 O 1009.07 -1.10976 -1.43366 0
M  V30 10731 C 1009.12 -3.38746 1.23627 0
M  V30 10732 O 1008.22 -4.1062 0.382715 0
M  V30 10733 H 1007.57 -0.59292 0.298901 0
M  V30 10734 H 1010.1 -1.45893 1.43445 0
M  V30 10735 H 1010.11 -3.89543 1.21327 0
M  V30 10736 H 1008.78 -3.47443 2.28596 0
M  V30 10737 H 1007.36 -3.69947 0.468374 0
M  V30 10738 N 1009.54 -0.859717 -1.32086 0
M  V30 10739 C 1010.45 -0.31108 -2.32528 0
M  V30 10740 C 1011.47 0.573714 -1.6427 0
M  V30 10741 O 1012.64 0.472878 -1.9577 0
M  V30 10742 C 1009.71 0.487256 -3.43259 0
M  V30 10743 C 1008.77 -0.424279 -4.27198 0
M  V30 10744 C 1008 0.336051 -5.32641 0
M  V30 10745 O 1008.23 1.56541 -5.48499 0
M  V30 10746 O 1007.16 -0.300777 -6.01148 0
M  V30 10747 H 1010.99 -1.14336 -2.81355 0
M  V30 10748 H 1008.57 -0.622794 -1.358 0
M  V30 10749 H 1010.45 0.940203 -4.10777 0
M  V30 10750 H 1009.13 1.29626 -2.96612 0
M  V30 10751 H 1008.04 -0.925509 -3.62471 0
M  V30 10752 H 1009.37 -1.1986 -4.77383 0
M  V30 10753 N 1011.02 1.44971 -0.618145 0
M  V30 10754 C 1012.44 1.57077 -0.282666 0
M  V30 10755 C 1012.64 1.60782 1.21456 0
M  V30 10756 O 1011.69 1.54382 1.99806 0
M  V30 10757 C 1013.01 2.84858 -0.963148 0
M  V30 10758 C 1014.55 2.9855 -0.940062 0
M  V30 10759 C 1015.03 4.29115 -1.60076 0
M  V30 10760 N 1016.52 4.35899 -1.56674 0
M  V30 10761 C 1017.25 5.35617 -2.04701 0
M  V30 10762 N 1016.75 6.41813 -2.6086 0
M  V30 10763 N 1018.54 5.27042 -1.95406 0
M  V30 10764 H 1010.69 1.4081 -1.59017 0
M  V30 10765 H 1012.96 0.673914 -0.666741 0
M  V30 10766 H 1012.66 2.88059 -2.0178 0
M  V30 10767 H 1012.54 3.73966 -0.492901 0
M  V30 10768 H 1014.92 2.94909 0.10607 0
M  V30 10769 H 1015.01 2.10825 -1.44868 0
M  V30 10770 H 1014.65 4.33514 -2.64627 0
M  V30 10771 H 1014.58 5.15675 -1.06708 0
M  V30 10772 H 1017.07 3.59766 -1.15659 0
M  V30 10773 H 1017.38 7.14166 -2.95273 0
M  V30 10774 H 1015.73 6.42534 -2.64905 0
M  V30 10775 H 1018.92 4.42987 -1.51263 0
M  V30 10776 H 1019.09 6.04604 -2.33147 0
M  V30 10777 N 1012.5 0.357919 1.53482 0
M  V30 10778 C 1013.78 -0.290164 1.93436 0
M  V30 10779 C 1014.16 -1.67039 1.29079 0
M  V30 10780 O 1013.5 -2.24085 0.447017 0
M  V30 10781 C 1013.71 -0.348055 3.4726 0
M  V30 10782 C 1015.06 -0.59206 4.20452 0
M  V30 10783 O 1016.09 -0.429581 3.536 0
M  V30 10784 O 1014.94 -0.907855 5.38907 0
M  V30 10785 H 1012.04 -0.172312 0.80885 0
M  V30 10786 H 1014.58 0.410144 1.64669 0
M  V30 10787 H 1013.36 0.619953 3.86358 0
M  V30 10788 H 1012.98 -1.09457 3.82237 0
M  V30 10789 N 1013.98 -1.5736 0.0868897 0
M  V30 10790 C 1015.39 -1.57304 -0.269762 0
M  V30 10791 C 1015.59 -1.09745 -1.68992 0
M  V30 10792 O 1014.65 -0.77017 -2.40468 0
M  V30 10793 C 1015.96 -3.00628 -0.0656646 0
M  V30 10794 C 1017.51 -3.12713 -0.134045 0
M  V30 10795 C 1017.98 -4.57981 0.0419569 0
M  V30 10796 N 1019.48 -4.63198 -0.0131501 0
M  V30 10797 C 1020.21 -5.73316 0.0983964 0
M  V30 10798 N 1019.71 -6.92296 0.264315 0
M  V30 10799 N 1021.5 -5.62086 0.0402517 0
M  V30 10800 H 1013.65 -1.86585 1.01487 0
M  V30 10801 H 1015.91 -0.860843 0.397055 0
M  V30 10802 H 1015.62 -3.39592 0.914891 0
M  V30 10803 H 1015.49 -3.68367 -0.811522 0
M  V30 10804 H 1017.88 -2.73627 -1.1051 0
M  V30 10805 H 1017.96 -2.47582 0.643167 0
M  V30 10806 H 1017.61 -4.9776 1.00984 0
M  V30 10807 H 1017.54 -5.21162 -0.754847 0
M  V30 10808 H 1020.03 -3.77644 -0.139183 0
M  V30 10809 H 1020.34 -7.72047 0.341165 0
M  V30 10810 H 1018.68 -6.94353 0.299876 0
M  V30 10811 H 1021.88 -4.68017 -0.0881801 0
M  V30 10812 H 1022.05 -6.47868 0.130635 0
M  V30 10813 N 1015.45 0.186762 -1.56489 0
M  V30 10814 C 1016.7 0.907194 -1.81378 0
M  V30 10815 C 1017.03 1.82558 -0.662283 0
M  V30 10816 O 1016.31 1.91564 0.336699 0
M  V30 10817 C 1016.59 1.71624 -3.16571 0
M  V30 10818 C 1016.44 0.822009 -4.42225 0
M  V30 10819 C 1017.76 2.68713 -3.48542 0
M  V30 10820 H 1014.88 0.328366 -0.659806 0
M  V30 10821 H 1017.52 0.174142 -1.892 0
M  V30 10822 H 1015.67 2.34119 -3.10033 0
M  V30 10823 H 1017.35 0.211122 -4.60817 0
M  V30 10824 H 1015.59 0.129178 -4.33608 0
M  V30 10825 H 1016.26 1.42326 -5.33336 0
M  V30 10826 H 1018.74 2.16348 -3.55433 0
M  V30 10827 H 1017.61 3.22397 -4.44242 0
M  V30 10828 H 1017.87 3.48165 -2.72459 0
M  V30 10829 N 1016.93 1.50896 0.454776 0
M  V30 10830 C 1017.86 1.6712 1.56855 0
M  V30 10831 C 1018.88 0.552223 1.53148 0
M  V30 10832 O 1020.07 0.825969 1.5824 0
M  V30 10833 C 1017.17 1.65464 2.95762 0
M  V30 10834 C 1016.34 2.93662 3.24163 0
M  V30 10835 C 1015.4 2.84428 4.42704 0
M  V30 10836 O 1014.42 3.58382 4.42211 0
M  V30 10837 N 1015.63 1.9909 5.45292 0
M  V30 10838 H 1018.39 2.63194 1.43349 0
M  V30 10839 H 1015.95 1.48564 0.643457 0
M  V30 10840 H 1017.94 1.56878 3.73057 0
M  V30 10841 H 1016.51 0.770568 3.02954 0
M  V30 10842 H 1015.73 3.16251 2.35328 0
M  V30 10843 H 1017.02 3.78558 3.39957 0
M  V30 10844 H 1016.42 1.3835 5.48521 0
M  V30 10845 H 1014.98 1.96396 6.21508 0
M  V30 10846 N 1018.41 -0.709066 1.40748 0
M  V30 10847 C 1019.37 -1.80485 1.41272 0
M  V30 10848 C 1020.37 -1.57872 0.305463 0
M  V30 10849 O 1021.56 -1.64793 0.564691 0
M  V30 10850 C 1018.7 -3.1867 1.21087 0
M  V30 10851 H 1019.89 -1.81417 2.38805 0
M  V30 10852 H 1017.44 -0.915356 1.26692 0
M  V30 10853 H 1018.18 -3.23385 0.243406 0
M  V30 10854 H 1017.96 -3.36484 2.01299 0
M  V30 10855 H 1019.45 -3.98685 1.24257 0
M  V30 10856 N 1019.89 -1.26353 -0.941956 0
M  V30 10857 C 1021.17 -1.02601 -1.6653 0
M  V30 10858 C 1021.55 0.44381 -2.06382 0
M  V30 10859 O 1020.89 1.42399 -1.78703 0
M  V30 10860 C 1021.1 -1.97401 -2.87809 0
M  V30 10861 C 1022.45 -2.25967 -3.59478 0
M  V30 10862 O 1023.48 -1.95261 -2.97912 0
M  V30 10863 O 1022.34 -2.78244 -4.70364 0
M  V30 10864 H 1019.43 -0.39007 -0.729228 0
M  V30 10865 H 1021.98 -1.37559 -0.993754 0
M  V30 10866 H 1020.75 -2.9659 -2.55245 0
M  V30 10867 H 1020.37 -1.62918 -3.62689 0
M  V30 10868 N 1021.37 1.14642 -1.08144 0
M  V30 10869 C 1022.64 1.81774 -0.72232 0
M  V30 10870 C 1023.02 1.95587 0.794294 0
M  V30 10871 O 1022.37 1.51361 1.71178 0
M  V30 10872 C 1022.58 3.1763 -1.44611 0
M  V30 10873 C 1023.93 3.93161 -1.60343 0
M  V30 10874 O 1024.95 3.2721 -1.40755 0
M  V30 10875 O 1023.81 5.11422 -1.9264 0
M  V30 10876 H 1020.91 0.785733 -0.257978 0
M  V30 10877 H 1023.45 1.21683 -1.18285 0
M  V30 10878 H 1022.23 3.02723 -2.4794 0
M  V30 10879 H 1021.85 3.85412 -0.976892 0
M  V30 10880 N 1022.85 0.866709 1.31628 0
M  V30 10881 C 1023.78 0.335762 2.31073 0
M  V30 10882 C 1024.76 -0.571597 1.60209 0
M  V30 10883 O 1025.94 -0.489306 1.87935 0
M  V30 10884 C 1023.07 -0.466416 3.44154 0
M  V30 10885 C 1022.03 0.347561 4.26586 0
M  V30 10886 C 1021.35 -0.5801 5.31544 0
M  V30 10887 C 1022.65 1.57986 4.97833 0
M  V30 10888 H 1024.35 1.16673 2.75731 0
M  V30 10889 H 1021.89 0.56248 1.3256 0
M  V30 10890 H 1023.84 -0.84836 4.12772 0
M  V30 10891 H 1022.57 -1.33086 2.98254 0
M  V30 10892 H 1021.23 0.71141 3.59631 0
M  V30 10893 H 1020.88 -1.44174 4.81895 0
M  V30 10894 H 1020.58 -0.0393965 5.87587 0
M  V30 10895 H 1022.1 -0.958958 6.03023 0
M  V30 10896 H 1023.51 1.26954 5.59067 0
M  V30 10897 H 1021.91 2.05939 5.63657 0
M  V30 10898 H 1022.98 2.3345 4.25005 0
M  V30 10899 N 1024.32 -1.44642 0.625825 0
M  V30 10900 C 1025.57 -2.02393 0.128391 0
M  V30 10901 C 1025.9 -1.49075 -1.2446 0
M  V30 10902 O 1025.18 -0.672684 -1.82497 0
M  V30 10903 C 1025.46 -3.59934 0.109279 0
M  V30 10904 C 1025.31 -4.23546 1.51423 0
M  V30 10905 C 1026.63 -4.36406 -0.568985 0
M  V30 10906 H 1023.75 -0.735427 0.0481299 0
M  V30 10907 H 1026.39 -1.72277 0.801286 0
M  V30 10908 H 1024.54 -3.85722 -0.463726 0
M  V30 10909 H 1026.22 -4.08882 2.13572 0
M  V30 10910 H 1024.46 -3.81245 2.06966 0
M  V30 10911 H 1025.13 -5.32535 1.45294 0
M  V30 10912 H 1027.61 -4.1602 -0.0817516 0
M  V30 10913 H 1026.48 -5.46122 -0.551527 0
M  V30 10914 H 1026.74 -4.1062 -1.6384 0
M  V30 10915 N 1025.8 -0.366053 -1.5329 0
M  V30 10916 C 1026.75 0.480205 -2.25749 0
M  V30 10917 C 1027.72 1.07713 -1.2644 0
M  V30 10918 O 1028.9 1.10953 -1.55222 0
M  V30 10919 C 1026.04 1.61374 -3.05045 0
M  V30 10920 C 1025.16 1.04194 -4.19246 0
M  V30 10921 C 1024.29 2.14462 -4.85983 0
M  V30 10922 C 1023.33 1.5475 -5.92215 0
M  V30 10923 N 1022.47 2.58852 -6.52641 0
M  V30 10924 H 1027.31 -0.144199 -2.97651 0
M  V30 10925 H 1024.84 -0.0829321 -1.46866 0
M  V30 10926 H 1026.8 2.28144 -3.49294 0
M  V30 10927 H 1025.43 2.2088 -2.35397 0
M  V30 10928 H 1024.48 0.264514 -3.79479 0
M  V30 10929 H 1025.8 0.565379 -4.95585 0
M  V30 10930 H 1024.95 2.89051 -5.33418 0
M  V30 10931 H 1023.69 2.6547 -4.09117 0
M  V30 10932 H 1022.69 0.786759 -5.44142 0
M  V30 10933 H 1023.92 1.04566 -6.71001 0
M  V30 10934 H 1021.87 3.09073 -5.78627 0
M  V30 10935 H 1021.78 2.15884 -7.24521 0
M  V30 10936 H 1023.05 3.33142 -7.04724 0
M  V30 10937 N 1027.28 1.57312 -0.0952337 0
M  V30 10938 C 1028.21 2.09691 0.900274 0
M  V30 10939 C 1029.19 1.0075 1.27625 0
M  V30 10940 O 1030.37 1.28249 1.38147 0
M  V30 10941 C 1027.5 2.574 2.20142 0
M  V30 10942 C 1026.55 3.78 1.9753 0
M  V30 10943 S 1027.38 5.21577 1.21318 0
M  V30 10944 C 1028.54 5.72636 2.52663 0
M  V30 10945 H 1028.77 2.93803 0.45467 0
M  V30 10946 H 1026.3 1.53948 0.118056 0
M  V30 10947 H 1028.26 2.85546 2.94914 0
M  V30 10948 H 1026.92 1.73514 2.61824 0
M  V30 10949 H 1026.11 4.09451 2.93881 0
M  V30 10950 H 1025.72 3.50349 1.30888 0
M  V30 10951 H 1028.01 5.80911 3.48638 0
M  V30 10952 H 1028.95 6.71136 2.25791 0
M  V30 10953 H 1029.36 5.00569 2.60943 0
M  V30 10954 N 1028.76 -0.17846 1.56586 0
M  V30 10955 C 1029.69 -1.22342 1.98884 0
M  V30 10956 C 1030.67 -1.46564 0.86331 0
M  V30 10957 O 1031.85 -1.58019 1.12887 0
M  V30 10958 C 1028.98 -2.56396 2.34261 0
M  V30 10959 C 1027.94 -2.46756 3.49708 0
M  V30 10960 C 1027.26 -3.85235 3.70807 0
M  V30 10961 C 1028.56 -1.97838 4.83381 0
M  V30 10962 H 1030.26 -0.871848 2.86425 0
M  V30 10963 H 1027.8 -0.417948 1.37801 0
M  V30 10964 H 1029.76 -3.29695 2.62448 0
M  V30 10965 H 1028.48 -2.93327 1.43621 0
M  V30 10966 H 1027.14 -1.75912 3.21637 0
M  V30 10967 H 1026.79 -4.19547 2.7747 0
M  V30 10968 H 1026.49 -3.79655 4.48481 0
M  V30 10969 H 1028.01 -4.60131 4.01387 0
M  V30 10970 H 1029.43 -2.60906 5.10491 0
M  V30 10971 H 1027.82 -2.03223 5.64642 0
M  V30 10972 H 1028.89 -0.932339 4.75852 0
M  V30 10973 N 1030.24 -1.51135 -0.446768 0
M  V30 10974 C 1031.48 -1.63336 -1.19698 0
M  V30 10975 C 1031.81 -0.345099 -1.91414 0
M  V30 10976 O 1031.07 0.670365 -1.8386 0
M  V30 10977 C 1031.36 -2.78034 -2.2457 0
M  V30 10978 C 1031.03 -4.17652 -1.69934 0
M  V30 10979 C 1029.69 -4.55636 -1.54756 0
M  V30 10980 C 1032.04 -5.04813 -1.29665 0
M  V30 10981 C 1029.37 -5.78496 -0.977689 0
M  V30 10982 C 1031.72 -6.28244 -0.741112 0
M  V30 10983 C 1030.39 -6.65009 -0.576156 0
M  V30 10984 H 1029.66 -0.597689 -0.438006 0
M  V30 10985 H 1032.31 -1.85141 -0.48939 0
M  V30 10986 H 1030.61 -2.50413 -3.01331 0
M  V30 10987 H 1032.31 -2.84675 -2.8242 0
M  V30 10988 H 1028.9 -3.87699 -1.82722 0
M  V30 10989 H 1033.08 -4.76081 -1.40216 0
M  V30 10990 H 1028.34 -6.05636 -0.837563 0
M  V30 10991 H 1032.51 -6.95129 -0.42053 0
M  V30 10992 H 1030.14 -7.60085 -0.132443 0
M  V30 10993 N 1031.71 0.701592 -1.41122 0
M  V30 10994 C 1032.94 1.49553 -1.43696 0
M  V30 10995 C 1033.36 1.88053 -0.0421865 0
M  V30 10996 O 1032.72 1.54223 0.953144 0
M  V30 10997 C 1032.77 2.73834 -2.34622 0
M  V30 10998 O 1031.87 3.71088 -1.7991 0
M  V30 10999 H 1031.21 0.450352 -0.487933 0
M  V30 11000 H 1033.74 0.862886 -1.85514 0
M  V30 11001 H 1033.75 3.22209 -2.5029 0
M  V30 11002 H 1032.43 2.45149 -3.35969 0
M  V30 11003 H 1031.01 3.29994 -1.73661 0
M  V30 11004 N 1033.19 1.2685 0.935242 0
M  V30 11005 C 1034.6 1.11569 1.49697 0
M  V30 11006 C 1034.95 -0.301952 1.93863 0
M  V30 11007 O 1034.08 -1.19408 1.80473 0
M  V30 11008 C 1034.67 2.01918 2.72056 0
M  V30 11009 C 1033.23 1.90765 3.24477 0
M  V30 11010 C 1032.38 1.94918 1.97237 0
M  V30 11011 H 1035.33 1.39853 0.750116 0
M  V30 11012 H 1035.35 1.57056 3.46574 0
M  V30 11013 H 1034.86 3.05088 2.39881 0
M  V30 11014 H 1032.96 0.905521 3.61429 0
M  V30 11015 H 1033.08 2.76611 3.91182 0
M  V30 11016 H 1031.44 1.39046 2.13397 0
M  V30 11017 H 1032.22 2.99729 1.67385 0
M  V30 11018 N 1034.67 -1.14067 1.0875 0
M  V30 11019 C 1035.58 -2.22871 0.732498 0
M  V30 11020 C 1036.6 -1.72008 -0.26253 0
M  V30 11021 O 1037.77 -2.01123 -0.105601 0
M  V30 11022 C 1034.84 -3.46371 0.150913 0
M  V30 11023 C 1033.9 -4.12158 1.201 0
M  V30 11024 C 1033.13 -5.29763 0.647075 0
M  V30 11025 O 1033.35 -5.67911 -0.532307 0
M  V30 11026 O 1032.29 -5.8542 1.3988 0
M  V30 11027 H 1036.11 -2.55596 1.64025 0
M  V30 11028 H 1033.7 -1.22065 0.861417 0
M  V30 11029 H 1035.58 -4.21055 -0.170442 0
M  V30 11030 H 1034.26 -3.15362 -0.729948 0
M  V30 11031 H 1033.16 -3.39332 1.57494 0
M  V30 11032 H 1034.5 -4.47282 2.05426 0
M  V30 11033 N 1036.15 -0.873678 -1.31166 0
M  V30 11034 C 1037.06 -0.335726 -2.32185 0
M  V30 11035 C 1038.07 0.556259 -1.64869 0
M  V30 11036 O 1039.25 0.452087 -1.9626 0
M  V30 11037 C 1036.32 0.450822 -3.43756 0
M  V30 11038 C 1035.38 -0.469565 -4.26724 0
M  V30 11039 C 1034.61 0.279538 -5.32967 0
M  V30 11040 O 1034.83 1.50715 -5.50128 0
M  V30 11041 O 1033.77 -0.36452 -6.00795 0
M  V30 11042 H 1037.59 -1.17314 -2.80127 0
M  V30 11043 H 1035.18 -0.637163 -1.35132 0
M  V30 11044 H 1037.06 0.896582 -4.11752 0
M  V30 11045 H 1035.73 1.26472 -2.9797 0
M  V30 11046 H 1034.64 -0.963902 -3.61469 0
M  V30 11047 H 1035.97 -1.24916 -4.76085 0
M  V30 11048 N 1037.63 1.44308 -0.633487 0
M  V30 11049 C 1038.56 2.27887 0.119397 0
M  V30 11050 C 1039.54 1.38676 0.848981 0
M  V30 11051 O 1040.72 1.68116 0.85259 0
M  V30 11052 C 1037.85 3.17658 1.17521 0
M  V30 11053 C 1036.89 4.22992 0.54589 0
M  V30 11054 S 1037.73 5.31345 -0.6658 0
M  V30 11055 C 1038.88 6.24684 0.389965 0
M  V30 11056 H 1039.12 2.91394 -0.589638 0
M  V30 11057 H 1036.65 1.48529 -0.421727 0
M  V30 11058 H 1038.61 3.69929 1.77941 0
M  V30 11059 H 1037.27 2.53367 1.85645 0
M  V30 11060 H 1036.46 4.85828 1.34115 0
M  V30 11061 H 1036.06 3.73996 0.0162506 0
M  V30 11062 H 1038.36 6.65645 1.26185 0
M  V30 11063 H 1039.3 7.07809 -0.202878 0
M  V30 11064 H 1039.71 5.59929 0.716922 0
M  V30 11065 N 1039.1 0.374177 1.53094 0
M  V30 11066 C 1040.38 -0.269632 1.93733 0
M  V30 11067 C 1040.76 -1.6566 1.30843 0
M  V30 11068 O 1040.11 -2.23598 0.470759 0
M  V30 11069 C 1040.32 -0.311204 3.4761 0
M  V30 11070 C 1041.67 -0.547432 4.21056 0
M  V30 11071 O 1042.69 -0.392053 3.54036 0
M  V30 11072 O 1041.55 -0.850645 5.39839 0
M  V30 11073 H 1038.64 -0.163723 0.810632 0
M  V30 11074 H 1041.19 0.427586 1.64225 0
M  V30 11075 H 1039.96 0.660897 3.85678 0
M  V30 11076 H 1039.59 -1.05397 3.83376 0
M  V30 11077 N 1040.58 -1.57259 0.103575 0
M  V30 11078 C 1041.51 -2.17509 -0.84923 0
M  V30 11079 C 1042.49 -1.11079 -1.28824 0
M  V30 11080 O 1043.68 -1.39252 -1.35361 0
M  V30 11081 C 1040.81 -2.76221 -2.10522 0
M  V30 11082 C 1039.76 -3.88098 -1.80454 0
M  V30 11083 C 1039.09 -4.33549 -3.12952 0
M  V30 11084 C 1040.39 -5.10909 -1.08486 0
M  V30 11085 H 1042.08 -2.9738 -0.347217 0
M  V30 11086 H 1039.63 -1.43045 -0.165568 0
M  V30 11087 H 1041.58 -3.17024 -2.77621 0
M  V30 11088 H 1040.31 -1.93617 -2.63021 0
M  V30 11089 H 1038.96 -3.47847 -1.15749 0
M  V30 11090 H 1038.61 -3.47825 -3.63355 0
M  V30 11091 H 1038.31 -5.08984 -2.93614 0
M  V30 11092 H 1039.84 -4.76992 -3.81196 0
M  V30 11093 H 1041.25 -5.48828 -1.65711 0
M  V30 11094 H 1039.65 -5.91828 -0.992973 0
M  V30 11095 H 1040.72 -4.84851 -0.0690108 0
M  V30 11096 N 1042.06 0.170153 -1.56679 0
M  V30 11097 C 1043.29 0.90618 -1.86556 0
M  V30 11098 C 1043.71 1.74986 -0.690044 0
M  V30 11099 O 1043.07 1.77672 0.360862 0
M  V30 11100 C 1043.12 1.75777 -3.14857 0
M  V30 11101 O 1042.22 2.85952 -2.97162 0
M  V30 11102 H 1041.56 0.253781 -0.613589 0
M  V30 11103 H 1044.09 0.167943 -2.0391 0
M  V30 11104 H 1044.1 2.15747 -3.46291 0
M  V30 11105 H 1042.78 1.13807 -4.00026 0
M  V30 11106 H 1041.35 2.49557 -2.77084 0
M  V30 11107 N 1043.54 1.5137 0.438746 0
M  V30 11108 C 1044.47 1.68774 1.55074 0
M  V30 11109 C 1045.48 0.568436 1.52554 0
M  V30 11110 O 1046.67 0.842707 1.57355 0
M  V30 11111 C 1043.77 1.68592 2.9399 0
M  V30 11112 C 1042.95 2.97084 3.2103 0
M  V30 11113 C 1042 2.89108 4.39663 0
M  V30 11114 O 1041.03 3.63052 4.38385 0
M  V30 11115 N 1042.23 2.04863 5.4315 0
M  V30 11116 H 1045 2.647 1.40549 0
M  V30 11117 H 1042.56 1.49238 0.627663 0
M  V30 11118 H 1044.55 1.60826 3.71372 0
M  V30 11119 H 1043.12 0.802657 3.02119 0
M  V30 11120 H 1042.34 3.18729 2.3196 0
M  V30 11121 H 1043.63 3.82143 3.35923 0
M  V30 11122 H 1043.03 1.4416 5.47023 0
M  V30 11123 H 1041.58 2.02977 6.1939 0
M  V30 11124 N 1045.02 -0.694098 1.41492 0
M  V30 11125 C 1045.93 -1.83778 1.45818 0
M  V30 11126 C 1046.94 -1.70471 0.348639 0
M  V30 11127 O 1048.12 -1.92361 0.596588 0
M  V30 11128 C 1045.18 -3.19771 1.33967 0
M  V30 11129 C 1044.24 -3.45175 2.5525 0
M  V30 11130 C 1043.48 -4.74681 2.43955 0
M  V30 11131 O 1043.7 -5.51268 1.46491 0
M  V30 11132 O 1042.63 -5.00901 3.33739 0
M  V30 11133 H 1046.46 -1.83084 2.42309 0
M  V30 11134 H 1044.05 -0.847349 1.23046 0
M  V30 11135 H 1045.93 -4.00961 1.29648 0
M  V30 11136 H 1044.6 -3.21145 0.405926 0
M  V30 11137 H 1043.51 -2.6391 2.65146 0
M  V30 11138 H 1044.84 -3.48617 3.47458 0
M  V30 11139 N 1046.49 -1.27344 -0.928501 0
M  V30 11140 C 1047.43 -1.05797 -2.03322 0
M  V30 11141 C 1048.44 -0.0143086 -1.62794 0
M  V30 11142 O 1049.63 -0.25578 -1.76658 0
M  V30 11143 C 1046.73 -0.582673 -3.33853 0
M  V30 11144 C 1045.9 -1.69844 -4.03078 0
M  V30 11145 C 1044.96 -1.21902 -5.11885 0
M  V30 11146 O 1043.99 -1.91853 -5.35893 0
M  V30 11147 N 1045.19 -0.0742392 -5.80453 0
M  V30 11148 H 1047.95 -2.00928 -2.22369 0
M  V30 11149 H 1045.51 -1.189 -1.09883 0
M  V30 11150 H 1047.51 -0.245862 -4.03952 0
M  V30 11151 H 1046.08 0.27539 -3.11385 0
M  V30 11152 H 1045.3 -2.20557 -3.26723 0
M  V30 11153 H 1046.58 -2.4473 -4.46077 0
M  V30 11154 H 1045.98 0.509631 -5.634 0
M  V30 11155 H 1044.54 0.203399 -6.51483 0
M  V30 11156 N 1047.97 1.13488 -1.09353 0
M  V30 11157 C 1049.38 1.66299 -0.848609 0
M  V30 11158 C 1049.73 1.86044 0.623051 0
M  V30 11159 O 1048.86 1.57871 1.48005 0
M  V30 11160 C 1049.45 3.02087 -1.53391 0
M  V30 11161 C 1048.01 3.51893 -1.33598 0
M  V30 11162 C 1047.16 2.27154 -1.59048 0
M  V30 11163 H 1050.11 0.974208 -1.25279 0
M  V30 11164 H 1050.13 3.68018 -0.966587 0
M  V30 11165 H 1049.64 2.87684 -2.60498 0
M  V30 11166 H 1047.75 3.715 -0.286045 0
M  V30 11167 H 1047.86 4.32059 -2.0703 0
M  V30 11168 H 1046.22 2.33708 -1.01256 0
M  V30 11169 H 1047.01 2.15317 -2.67383 0
M  V30 11170 N 1049.45 0.880621 1.30701 0
M  V30 11171 C 1050.38 0.360251 2.30704 0
M  V30 11172 C 1051.36 -0.554572 1.60806 0
M  V30 11173 O 1052.55 -0.469345 1.88443 0
M  V30 11174 C 1049.68 -0.429888 3.44629 0
M  V30 11175 C 1048.63 0.392786 4.26194 0
M  V30 11176 C 1047.96 -0.52369 5.32129 0
M  V30 11177 C 1049.26 1.63258 4.96129 0
M  V30 11178 H 1050.95 1.19591 2.74478 0
M  V30 11179 H 1048.5 0.576508 1.31956 0
M  V30 11180 H 1050.45 -0.804532 4.13649 0
M  V30 11181 H 1049.17 -1.29916 2.99649 0
M  V30 11182 H 1047.83 0.749514 3.58856 0
M  V30 11183 H 1047.48 -1.39054 4.83397 0
M  V30 11184 H 1047.18 0.0229272 5.87596 0
M  V30 11185 H 1048.71 -0.894946 6.04006 0
M  V30 11186 H 1050.12 1.32877 5.57689 0
M  V30 11187 H 1048.52 2.11906 5.61441 0
M  V30 11188 H 1049.59 2.37944 4.22505 0
M  V30 11189 N 1050.93 -1.4397 0.641131 0
M  V30 11190 C 1052.21 -1.95436 0.0800918 0
M  V30 11191 C 1052.59 -1.58282 -1.39678 0
M  V30 11192 O 1051.93 -0.861867 -2.11623 0
M  V30 11193 C 1052.14 -3.47589 0.313531 0
M  V30 11194 C 1053.49 -4.2407 0.212034 0
M  V30 11195 O 1054.52 -3.55353 0.245434 0
M  V30 11196 O 1053.38 -5.46356 0.125455 0
M  V30 11197 H 1050.47 -0.826834 -0.0165735 0
M  V30 11198 H 1053.02 -1.5397 0.71353 0
M  V30 11199 H 1051.79 -3.67716 1.33793 0
M  V30 11200 H 1051.41 -3.96025 -0.353563 0
M  V30 11201 N 1052.41 -0.382291 -1.52893 0
M  V30 11202 C 1053.37 0.44408 -2.24857 0
M  V30 11203 C 1054.37 0.996004 -1.26239 0
M  V30 11204 O 1055.56 0.879114 -1.5039 0
M  V30 11205 C 1052.69 1.62234 -2.99822 0
M  V30 11206 H 1053.89 -0.185862 -2.99324 0
M  V30 11207 H 1051.44 -0.134275 -1.55722 0
M  V30 11208 H 1052.17 2.28991 -2.29638 0
M  V30 11209 H 1051.96 1.23336 -3.72197 0
M  V30 11210 H 1053.45 2.20756 -3.54481 0
M  V30 11211 N 1053.89 1.57202 -0.111913 0
M  V30 11212 C 1054.82 2.11995 0.871242 0
M  V30 11213 C 1055.83 1.06102 1.23475 0
M  V30 11214 O 1057.02 1.33497 1.18494 0
M  V30 11215 C 1054.12 2.59874 2.17528 0
M  V30 11216 C 1053.29 3.89788 1.98455 0
M  V30 11217 C 1052.35 4.23339 3.12523 0
M  V30 11218 O 1051.38 4.92277 2.85748 0
M  V30 11219 N 1052.58 3.80089 4.38762 0
M  V30 11220 H 1055.34 2.96976 0.403157 0
M  V30 11221 H 1052.91 1.61737 0.0727159 0
M  V30 11222 H 1054.9 2.79354 2.9282 0
M  V30 11223 H 1053.47 1.79812 2.55707 0
M  V30 11224 H 1052.69 3.79288 1.07396 0
M  V30 11225 H 1053.98 4.74748 1.83007 0
M  V30 11226 H 1053.37 3.24473 4.63394 0
M  V30 11227 H 1051.93 4.04691 5.10949 0
M  V30 11228 N 1055.36 -0.161842 1.56767 0
M  V30 11229 C 1056.3 -1.22499 1.93718 0
M  V30 11230 C 1057.31 -1.39975 0.831314 0
M  V30 11231 O 1058.5 -1.3981 1.10975 0
M  V30 11232 C 1055.6 -2.59222 2.18306 0
M  V30 11233 C 1054.77 -2.6292 3.4956 0
M  V30 11234 C 1053.83 -3.81074 3.62863 0
M  V30 11235 O 1052.86 -3.66633 4.35395 0
M  V30 11236 N 1054.06 -4.97923 2.98418 0
M  V30 11237 H 1056.82 -0.911043 2.85517 0
M  V30 11238 H 1054.38 -0.351533 1.58038 0
M  V30 11239 H 1056.38 -3.36749 2.24461 0
M  V30 11240 H 1054.95 -2.82969 1.32844 0
M  V30 11241 H 1054.17 -1.71418 3.54978 0
M  V30 11242 H 1055.45 -2.62409 4.35911 0
M  V30 11243 H 1054.85 -5.12557 2.39378 0
M  V30 11244 H 1053.41 -5.73277 3.10155 0
M  V30 11245 N 1056.84 -1.516 -0.430713 0
M  V30 11246 C 1058.09 -1.64271 -1.17726 0
M  V30 11247 C 1058.41 -0.364406 -1.91565 0
M  V30 11248 O 1057.68 0.619991 -1.8583 0
M  V30 11249 H 1056.26 -0.605432 -0.437562 0
M  V30 11250 H 1058.92 -1.88557 -0.493166 0
M  V30 11251 H 1058.02 -2.47355 -1.90321 0
M  V30 11252 N 1058.32 0.686584 -1.41858 0
M  V30 11253 C 1059.73 1.26682 -1.37145 0
M  V30 11254 C 1060.08 1.96112 -0.058922 0
M  V30 11255 O 1059.21 1.99321 0.842629 0
M  V30 11256 C 1059.8 2.30383 -2.48413 0
M  V30 11257 C 1058.36 2.83961 -2.47069 0
M  V30 11258 C 1057.51 1.58119 -2.27802 0
M  V30 11259 H 1060.46 0.480742 -1.51243 0
M  V30 11260 H 1060.48 3.11868 -2.17987 0
M  V30 11261 H 1059.99 1.79822 -3.43927 0
M  V30 11262 H 1058.09 3.38675 -1.55338 0
M  V30 11263 H 1058.21 3.3378 -3.43697 0
M  V30 11264 H 1056.57 1.84258 -1.75844 0
M  V30 11265 H 1057.35 1.09541 -3.25355 0
M  V30 11266 N 1059.8 1.27835 0.921735 0
M  V30 11267 C 1061.21 1.13151 1.48505 0
M  V30 11268 C 1061.56 -0.281373 1.94172 0
M  V30 11269 O 1060.68 -1.17487 1.8173 0
M  V30 11270 C 1061.28 2.04792 2.69899 0
M  V30 11271 C 1059.84 1.94196 3.22436 0
M  V30 11272 C 1058.99 1.96999 1.95158 0
M  V30 11273 H 1061.94 1.40641 0.735241 0
M  V30 11274 H 1061.96 1.60724 3.44889 0
M  V30 11275 H 1061.47 3.07615 2.36631 0
M  V30 11276 H 1059.57 0.943805 3.60448 0
M  V30 11277 H 1059.68 2.80744 3.88226 0
M  V30 11278 H 1058.05 1.41301 2.11911 0
M  V30 11279 H 1058.83 3.01487 1.64196 0
M  V30 11280 N 1061.28 -1.12907 1.09954 0
M  V30 11281 C 1062.19 -2.22082 0.756095 0
M  V30 11282 C 1063.2 -1.72277 -0.244272 0
M  V30 11283 O 1064.38 -2.01224 -0.0842637 0
M  V30 11284 C 1061.44 -3.46192 0.187642 0
M  V30 11285 C 1060.5 -4.10861 1.24465 0
M  V30 11286 C 1059.74 -5.29047 0.703227 0
M  V30 11287 O 1059.96 -5.68443 -0.472043 0
M  V30 11288 O 1058.89 -5.83904 1.46082 0
M  V30 11289 H 1062.72 -2.53842 1.66727 0
M  V30 11290 H 1060.3 -1.21145 0.874316 0
M  V30 11291 H 1062.19 -4.21212 -0.125774 0
M  V30 11292 H 1060.86 -3.16119 -0.696459 0
M  V30 11293 H 1059.77 -3.37643 1.61085 0
M  V30 11294 H 1061.1 -4.45078 2.10159 0
M  V30 11295 N 1062.75 -0.88754 -1.30232 0
M  V30 11296 C 1064.16 -0.55745 -1.78184 0
M  V30 11297 C 1064.52 0.926474 -1.72948 0
M  V30 11298 O 1063.64 1.72403 -1.3079 0
M  V30 11299 C 1064.24 -1.00512 -3.23547 0
M  V30 11300 C 1062.79 -0.726402 -3.69324 0
M  V30 11301 C 1061.94 -1.18666 -2.50627 0
M  V30 11302 H 1064.89 -1.07151 -1.17066 0
M  V30 11303 H 1064.91 -0.335185 -3.79021 0
M  V30 11304 H 1064.43 -2.08517 -3.27326 0
M  V30 11305 H 1062.53 0.341548 -3.71031 0
M  V30 11306 H 1062.64 -1.31575 -4.60679 0
M  V30 11307 H 1061 -0.605936 -2.47387 0
M  V30 11308 H 1061.79 -2.2745 -2.57141 0
M  V30 11309 N 1064.23 1.43628 -0.648757 0
M  V30 11310 C 1065.2 2.29172 0.0360713 0
M  V30 11311 C 1066.2 1.41974 0.754976 0
M  V30 11312 O 1067.39 1.63654 0.5969 0
M  V30 11313 C 1064.52 3.23942 1.0618 0
M  V30 11314 H 1065.71 2.91214 -0.716544 0
M  V30 11315 H 1063.26 1.50833 -0.409759 0
M  V30 11316 H 1064 2.66786 1.8438 0
M  V30 11317 H 1063.78 3.88223 0.550016 0
M  V30 11318 H 1065.27 3.8816 1.54019 0
M  V30 11319 N 1065.71 0.390394 1.52688 0
M  V30 11320 C 1066.64 -0.479319 2.24132 0
M  V30 11321 C 1067.66 -1.0258 1.26416 0
M  V30 11322 O 1068.84 -0.927943 1.52484 0
M  V30 11323 C 1065.94 -1.67711 2.94493 0
M  V30 11324 C 1065.12 -1.2578 4.18925 0
M  V30 11325 C 1064.18 -2.3204 4.72275 0
M  V30 11326 O 1063.2 -1.93402 5.35336 0
M  V30 11327 N 1064.4 -3.63967 4.52226 0
M  V30 11328 H 1067.17 0.132777 2.99406 0
M  V30 11329 H 1064.73 0.216807 1.60442 0
M  V30 11330 H 1066.72 -2.38323 3.27084 0
M  V30 11331 H 1065.29 -2.19552 2.22521 0
M  V30 11332 H 1064.51 -0.380528 3.92359 0
M  V30 11333 H 1065.8 -0.954329 4.9977 0
M  V30 11334 H 1065.2 -3.98119 4.01892 0
M  V30 11335 H 1063.76 -4.30611 4.89303 0
M  V30 11336 N 1067.19 -1.57141 0.120249 0
M  V30 11337 C 1068.1 -2.18925 -0.843155 0
M  V30 11338 C 1069.11 -1.16575 -1.29175 0
M  V30 11339 O 1070.29 -1.4905 -1.35448 0
M  V30 11340 C 1067.36 -2.7775 -2.075 0
M  V30 11341 C 1066.42 -3.95139 -1.6782 0
M  V30 11342 C 1065.65 -4.51149 -2.85132 0
M  V30 11343 O 1065.87 -4.06056 -4.00593 0
M  V30 11344 O 1064.81 -5.41815 -2.62145 0
M  V30 11345 H 1068.63 -3.01707 -0.347357 0
M  V30 11346 H 1066.22 -1.49028 -0.105427 0
M  V30 11347 H 1068.1 -3.15243 -2.79643 0
M  V30 11348 H 1066.77 -1.97998 -2.56083 0
M  V30 11349 H 1065.68 -3.62412 -0.927807 0
M  V30 11350 H 1067.01 -4.7633 -1.23977 0
M  V30 11351 N 1068.67 0.153526 -1.5685 0
M  V30 11352 C 1069.89 0.886343 -1.87507 0
M  V30 11353 C 1070.32 1.74244 -0.708565 0
M  V30 11354 O 1069.67 1.78045 0.341997 0
M  V30 11355 C 1069.72 1.72428 -3.16703 0
M  V30 11356 O 1068.83 2.82784 -3.00178 0
M  V30 11357 H 1068.17 0.247259 -0.616246 0
M  V30 11358 H 1070.7 0.146306 -2.04076 0
M  V30 11359 H 1070.71 2.12062 -3.4856 0
M  V30 11360 H 1069.38 1.09558 -4.01211 0
M  V30 11361 H 1067.96 2.46604 -2.79716 0
M  V30 11362 N 1070.14 1.51827 0.422667 0
M  V30 11363 C 1071.07 1.77152 1.52117 0
M  V30 11364 C 1072.06 0.621895 1.58324 0
M  V30 11365 O 1073.24 0.866118 1.73816 0
M  V30 11366 C 1070.37 1.90991 2.90068 0
M  V30 11367 C 1069.32 3.06516 2.98717 0
M  V30 11368 C 1068.65 3.05559 4.38791 0
M  V30 11369 C 1069.95 4.46223 2.71445 0
M  V30 11370 H 1071.64 2.69135 1.31175 0
M  V30 11371 H 1069.19 1.29507 0.629607 0
M  V30 11372 H 1071.14 2.07291 3.6689 0
M  V30 11373 H 1069.87 0.956688 3.12274 0
M  V30 11374 H 1068.53 2.89945 2.24338 0
M  V30 11375 H 1068.17 2.07985 4.57986 0
M  V30 11376 H 1067.87 3.83144 4.45505 0
M  V30 11377 H 1069.4 3.23971 5.17566 0
M  V30 11378 H 1070.81 4.63069 3.37994 0
M  V30 11379 H 1069.21 5.25623 2.89552 0
M  V30 11380 H 1070.28 4.5525 1.6696 0
M  V30 11381 N 1071.62 -0.679052 1.4222 0
M  V30 11382 C 1072.85 -1.47248 1.46058 0
M  V30 11383 C 1073.27 -1.87962 0.0720987 0
M  V30 11384 O 1072.63 -1.5572 -0.928488 0
M  V30 11385 C 1072.68 -2.70067 2.38948 0
M  V30 11386 O 1071.78 -3.68178 1.85791 0
M  V30 11387 H 1071.12 -0.442533 0.495036 0
M  V30 11388 H 1073.65 -0.833263 1.86863 0
M  V30 11389 H 1073.66 -3.18187 2.55385 0
M  V30 11390 H 1072.34 -2.39773 3.39826 0
M  V30 11391 H 1070.92 -3.2719 1.78889 0
M  V30 11392 N 1073.1 -1.28322 -0.914942 0
M  V30 11393 C 1074.35 -1.15179 -1.66067 0
M  V30 11394 C 1074.67 0.300279 -1.92674 0
M  V30 11395 O 1073.94 1.20821 -1.54205 0
M  V30 11396 H 1072.52 -0.423264 -0.615513 0
M  V30 11397 H 1075.18 -1.61034 -1.09791 0
M  V30 11398 H 1074.28 -1.69048 -2.62353 0
M  V30 11399 N 1074.58 1.12322 -1.10551 0
M  V30 11400 C 1075.8 1.8822 -0.871093 0
M  V30 11401 C 1076.23 1.7916 0.573005 0
M  V30 11402 O 1075.59 1.14738 1.40374 0
M  V30 11403 C 1075.63 3.35349 -1.32565 0
M  V30 11404 O 1074.74 4.09461 -0.49145 0
M  V30 11405 H 1074.08 0.584787 -0.314516 0
M  V30 11406 H 1076.61 1.42039 -1.47262 0
M  V30 11407 H 1076.62 3.86189 -1.31612 0
M  V30 11408 H 1075.29 3.4126 -2.37728 0
M  V30 11409 H 1073.87 3.68575 -0.566294 0
M  V30 11410 N 1076.06 0.894434 1.2976 0
M  V30 11411 C 1076.97 0.372622 2.31622 0
M  V30 11412 C 1077.98 -0.52996 1.65733 0
M  V30 11413 O 1079.16 -0.420807 1.96955 0
M  V30 11414 C 1076.22 -0.396076 3.4443 0
M  V30 11415 C 1075.28 0.537394 4.25923 0
M  V30 11416 C 1074.52 -0.194713 5.33345 0
M  V30 11417 O 1074.74 -1.41943 5.52457 0
M  V30 11418 O 1073.67 0.460055 6.00139 0
M  V30 11419 H 1077.5 1.21756 2.78225 0
M  V30 11420 H 1075.09 0.65858 1.34101 0
M  V30 11421 H 1076.97 -0.830962 4.13126 0
M  V30 11422 H 1075.64 -1.21716 2.99945 0
M  V30 11423 H 1074.55 1.02129 3.5989 0
M  V30 11424 H 1075.88 1.32475 4.74037 0
M  V30 11425 N 1077.53 -1.43282 0.656365 0
M  V30 11426 C 1078.76 -2.06641 0.177245 0
M  V30 11427 C 1079.18 -1.48893 -1.14946 0
M  V30 11428 O 1078.54 -0.600099 -1.7108 0
M  V30 11429 C 1078.59 -3.60453 0.10299 0
M  V30 11430 O 1077.69 -4.01687 -0.933895 0
M  V30 11431 H 1077.04 -0.656978 0.096314 0
M  V30 11432 H 1079.57 -1.83733 0.900178 0
M  V30 11433 H 1079.58 -4.07923 -0.079291 0
M  V30 11434 H 1078.25 -4.01861 1.07147 0
M  V30 11435 H 1076.83 -3.65801 -0.724148 0
M  V30 11436 N 1079.01 -0.398486 -1.52479 0
M  V30 11437 C 1079.96 0.432212 -2.26717 0
M  V30 11438 C 1080.93 1.05007 -1.28696 0
M  V30 11439 O 1082.12 1.07636 -1.57541 0
M  V30 11440 C 1079.26 1.54868 -3.08399 0
M  V30 11441 C 1078.37 0.952779 -4.21362 0
M  V30 11442 C 1077.5 2.04106 -4.90423 0
M  V30 11443 C 1076.54 1.42153 -5.95364 0
M  V30 11444 N 1075.68 2.44951 -6.57984 0
M  V30 11445 H 1080.52 -0.207303 -2.97278 0
M  V30 11446 H 1078.06 -0.114066 -1.46657 0
M  V30 11447 H 1080.01 2.20684 -3.54054 0
M  V30 11448 H 1078.64 2.15837 -2.4003 0
M  V30 11449 H 1077.7 0.183962 -3.79955 0
M  V30 11450 H 1079.01 0.460131 -4.96673 0
M  V30 11451 H 1078.16 2.77672 -5.39429 0
M  V30 11452 H 1076.9 2.56733 -4.14656 0
M  V30 11453 H 1075.91 0.671161 -5.45688 0
M  V30 11454 H 1077.13 0.903093 -6.73068 0
M  V30 11455 H 1075.08 2.9673 -5.85053 0
M  V30 11456 H 1074.99 2.00468 -7.28937 0
M  V30 11457 H 1076.26 3.18119 -7.11632 0
M  V30 11458 N 1080.49 1.57075 -0.12858 0
M  V30 11459 C 1081.9 1.82468 0.39526 0
M  V30 11460 C 1082.25 1.0463 1.65973 0
M  V30 11461 O 1081.38 0.285835 2.14504 0
M  V30 11462 C 1081.97 3.30976 0.723889 0
M  V30 11463 C 1080.53 3.57016 1.19232 0
M  V30 11464 C 1079.68 2.76534 0.205907 0
M  V30 11465 H 1082.63 1.54711 -0.353571 0
M  V30 11466 H 1082.65 3.46127 1.58039 0
M  V30 11467 H 1082.16 3.87602 -0.196595 0
M  V30 11468 H 1080.26 3.05758 2.12938 0
M  V30 11469 H 1080.38 4.65558 1.13103 0
M  V30 11470 H 1078.74 2.45038 0.694872 0
M  V30 11471 H 1079.52 3.35923 -0.707842 0
M  V30 11472 N 1081.97 -0.145205 1.5693 0
M  V30 11473 C 1082.92 -1.17923 1.98401 0
M  V30 11474 C 1083.89 -1.42591 0.851885 0
M  V30 11475 O 1085.07 -1.54896 1.11409 0
M  V30 11476 C 1082.21 -2.50727 2.37128 0
M  V30 11477 C 1081.32 -2.33218 3.63639 0
M  V30 11478 C 1080.46 -3.5907 3.91462 0
M  V30 11479 C 1079.5 -3.36605 5.11237 0
M  V30 11480 N 1078.64 -4.54592 5.35061 0
M  V30 11481 H 1083.48 -0.818573 2.86537 0
M  V30 11482 H 1081.01 -0.392739 1.4176 0
M  V30 11483 H 1082.97 -3.28165 2.57611 0
M  V30 11484 H 1081.6 -2.84736 1.52069 0
M  V30 11485 H 1080.65 -1.46826 3.50922 0
M  V30 11486 H 1081.96 -2.12579 4.51234 0
M  V30 11487 H 1081.12 -4.44936 4.12453 0
M  V30 11488 H 1079.86 -3.82715 3.02293 0
M  V30 11489 H 1078.86 -2.49127 4.90118 0
M  V30 11490 H 1080.09 -3.14357 6.01961 0
M  V30 11491 H 1078.03 -4.78406 4.48847 0
M  V30 11492 H 1077.95 -4.36962 6.16928 0
M  V30 11493 H 1079.22 -5.41666 5.60551 0
M  V30 11494 N 1083.45 -1.52049 -0.414609 0
M  V30 11495 C 1084.72 -1.56397 -1.17471 0
M  V30 11496 C 1085.1 -0.34171 -2.08316 0
M  V30 11497 O 1084.45 0.6718 -2.18401 0
M  V30 11498 C 1084.66 -2.88983 -1.95678 0
M  V30 11499 C 1086.01 -3.41781 -2.51935 0
M  V30 11500 O 1087.03 -2.90686 -2.05865 0
M  V30 11501 O 1085.89 -4.30989 -3.36022 0
M  V30 11502 H 1082.99 -0.62974 -0.536056 0
M  V30 11503 H 1085.53 -1.64374 -0.421834 0
M  V30 11504 H 1084.31 -3.69392 -1.29094 0
M  V30 11505 H 1083.93 -2.84274 -2.77983 0
M  V30 11506 N 1084.93 0.6715 -1.42579 0
M  V30 11507 C 1085.84 1.81435 -1.48723 0
M  V30 11508 C 1086.85 1.69895 -0.375716 0
M  V30 11509 O 1088.03 1.91388 -0.627115 0
M  V30 11510 C 1085.09 3.17599 -1.39038 0
M  V30 11511 C 1084.15 3.41071 -2.60709 0
M  V30 11512 C 1083.39 4.7074 -2.51476 0
M  V30 11513 O 1083.61 5.48868 -1.55243 0
M  V30 11514 O 1082.54 4.95528 -3.41666 0
M  V30 11515 H 1086.37 1.79206 -2.45191 0
M  V30 11516 H 1083.95 0.827666 -1.24379 0
M  V30 11517 H 1085.84 3.98847 -1.3601 0
M  V30 11518 H 1084.51 3.20458 -0.456966 0
M  V30 11519 H 1083.42 2.59659 -2.69311 0
M  V30 11520 H 1084.75 3.43045 -3.5296 0
M  V30 11521 N 1086.4 1.28806 0.908124 0
M  V30 11522 C 1087.33 1.15758 2.02787 0
M  V30 11523 C 1088.31 0.053911 1.70015 0
M  V30 11524 O 1089.5 0.231901 1.9281 0
M  V30 11525 C 1086.63 0.824526 3.37371 0
M  V30 11526 C 1085.58 1.88359 3.84324 0
M  V30 11527 C 1084.91 1.40404 5.15937 0
M  V30 11528 C 1086.21 3.29108 4.05568 0
M  V30 11529 H 1087.9 2.09431 2.13961 0
M  V30 11530 H 1085.45 1.00831 1.02806 0
M  V30 11531 H 1087.4 0.71999 4.15204 0
M  V30 11532 H 1086.13 -0.147902 3.26265 0
M  V30 11533 H 1084.79 1.97736 3.087 0
M  V30 11534 H 1084.43 0.420515 5.01239 0
M  V30 11535 H 1084.13 2.11224 5.48323 0
M  V30 11536 H 1085.66 1.31283 5.9632 0
M  V30 11537 H 1087.07 3.2262 4.73909 0
M  V30 11538 H 1085.47 3.97812 4.49294 0
M  V30 11539 H 1086.54 3.72709 3.10187 0
M  V30 11540 O 1087.92 -1.04325 1.23282 0
M  V30 11541 H 1088.61 -1.65689 1.00334 0
M  V30 END ATOM
M  V30 BEGIN BOND
M  V30 END BOND
M  V30 END CTAB
M  END
$$$$
