drugbank_target|P22256 4-aminobutyrate aminotransferase GabT (DB02142; DB02783)
 OpenBabel12092119553D

  0  0  0     0  0            999 V3000
M  V30 BEGIN CTAB
M  V30 COUNTS 6447 6506 0 0 0
M  V30 BEGIN ATOM
M  V30 1 H -0.908 1.98254 -0.117106 0
M  V30 2 N 0 1.576 0 0
M  V30 3 C 0.933 2.03868 1.02534 0
M  V30 4 C 1.911 0.928543 1.3348 0
M  V30 5 O 3.095 1.19667 1.45644 0
M  V30 6 C 0.222 2.43627 2.35294 0
M  V30 7 C -0.732 3.65373 2.2001 0
M  V30 8 S 0.101 5.13292 1.52614 0
M  V30 9 C 1.257 5.56322 2.86805 0
M  V30 10 H 1.49 2.90518 0.631377 0
M  V30 11 H -0.977 1.52953 0.210867 0
M  V30 12 H 0.981 2.67203 3.11629 0
M  V30 13 H -0.358 1.57376 2.7183 0
M  V30 14 H -1.165 3.90944 3.18086 0
M  V30 15 H -1.563 3.418 1.51819 0
M  V30 16 H 0.729 5.58782 3.83104 0
M  V30 17 H 1.672 6.56266 2.65933 0
M  V30 18 H 2.08 4.83886 2.90714 0
M  V30 19 N 1.4781 -0.272755 1.55222 0
M  V30 20 C 2.4261 -1.35705 1.88909 0
M  V30 21 C 3.4201 -1.5112 0.765456 0
M  V30 22 O 4.6261 -1.52901 0.949802 0
M  V30 23 H 1.0011 -0.453868 0.59959 0
M  V30 24 H 2.9721 -1.04544 2.79487 0
M  V30 25 C 1.7211 -2.71049 2.17779 0
M  V30 26 H 1.0441 -2.59979 3.03728 0
M  V30 27 H 2.4841 -3.45858 2.45272 0
M  V30 28 C 0.9431 -3.22165 0.985473 0
M  V30 29 O 1.4731 -4.01096 0.220233 0
M  V30 30 N -0.3209 -2.7985 0.783108 0
M  V30 31 H -0.7739 -2.15775 1.40708 0
M  V30 32 H -0.8159 -3.14397 -0.0130392 0
M  V30 33 N 2.9562 -1.48159 -0.537278 0
M  V30 34 C 4.1812 -1.59707 -1.32319 0
M  V30 35 C 4.6062 -0.254859 -1.86365 0
M  V30 36 O 3.9642 0.772378 -1.64024 0
M  V30 37 C 4.0122 -2.6412 -2.45505 0
M  V30 38 O 3.1162 -2.20774 -3.48328 0
M  V30 39 H 2.4572 -0.535791 -0.392204 0
M  V30 40 H 4.9872 -1.94092 -0.647268 0
M  V30 41 H 4.9972 -2.85166 -2.91795 0
M  V30 42 H 3.6722 -3.61567 -2.05528 0
M  V30 43 H 2.2492 -2.09911 -3.08207 0
M  V30 44 N 4.4343 0.785586 -1.36625 0
M  V30 45 C 5.3823 1.91978 -1.31329 0
M  V30 46 C 6.3763 1.68162 -0.204416 0
M  V30 47 O 7.5823 1.76122 -0.371645 0
M  V30 48 H 3.9573 0.631087 -0.408942 0
M  V30 49 H 5.9283 1.93562 -2.27104 0
M  V30 50 C 4.6773 3.29055 -1.12329 0
M  V30 51 H 4.0003 3.4795 -1.96903 0
M  V30 52 H 5.4403 4.08756 -1.12671 0
M  V30 53 C 3.8993 3.36461 0.171861 0
M  V30 54 O 4.4293 3.84576 1.16035 0
M  V30 55 N 2.6353 2.89782 0.217846 0
M  V30 56 H 2.1823 2.50819 -0.587183 0
M  V30 57 H 2.1403 2.95119 1.08408 0
M  V30 58 N 5.9124 1.20967 1.01018 0
M  V30 59 C 6.8594 0.964281 2.09691 0
M  V30 60 C 7.8294 -0.107853 1.65749 0
M  V30 61 O 9.0144 0.0381987 1.90762 0
M  V30 62 C 6.1544 0.52943 3.41015 0
M  V30 63 C 5.2674 1.67043 3.98398 0
M  V30 64 C 4.4024 1.18525 5.17808 0
M  V30 65 C 3.4414 2.29892 5.67288 0
M  V30 66 N 2.5784 1.82546 6.77954 0
M  V30 67 H 7.4184 1.89463 2.30017 0
M  V30 68 H 4.9554 0.944289 1.1279 0
M  V30 69 H 6.9134 0.258588 4.16398 0
M  V30 70 H 5.5434 -0.363919 3.20742 0
M  V30 71 H 4.5954 2.05603 3.20049 0
M  V30 72 H 5.9074 2.50877 4.31117 0
M  V30 73 H 5.0614 0.870762 6.00419 0
M  V30 74 H 3.8004 0.316887 4.86669 0
M  V30 75 H 2.8054 2.6215 4.83278 0
M  V30 76 H 4.0304 3.17216 6.00459 0
M  V30 77 H 1.9764 0.980454 6.48632 0
M  V30 78 H 1.8934 2.59956 7.09901 0
M  V30 79 H 3.1614 1.54115 7.64113 0
M  V30 80 N 7.3905 -1.2043 1.01659 0
M  V30 81 C 8.3005 -2.2689 0.596484 0
M  V30 82 C 9.3165 -1.70107 -0.36599 0
M  V30 83 O 10.4925 -2.00117 -0.226942 0
M  V30 84 C 7.5575 -3.4665 -0.0586659 0
M  V30 85 C 6.6185 -4.18662 0.949751 0
M  V30 86 C 5.8515 -5.32705 0.32577 0
M  V30 87 O 6.0745 -5.63656 -0.874509 0
M  V30 88 O 5.0085 -5.92803 1.04249 0
M  V30 89 H 8.8345 -2.65041 1.4828 0
M  V30 90 H 6.4195 -1.27048 0.786082 0
M  V30 91 H 8.3015 -4.19256 -0.424564 0
M  V30 92 H 6.9765 -3.10375 -0.91918 0
M  V30 93 H 5.8835 -3.48229 1.36702 0
M  V30 94 H 7.2165 -4.58878 1.78023 0
M  V30 95 N 8.8686 -0.792821 -1.36206 0
M  V30 96 C 9.7986 -0.207853 -2.32573 0
M  V30 97 C 10.7796 0.659055 -1.56813 0
M  V30 98 O 11.9646 0.592176 -1.84951 0
M  V30 99 C 9.0946 0.655449 -3.41059 0
M  V30 100 C 8.0486 -0.111842 -4.27854 0
M  V30 101 C 7.3746 0.872274 -5.27537 0
M  V30 102 C 8.6746 -1.30299 -5.05786 0
M  V30 103 H 10.3686 -1.01294 -2.81744 0
M  V30 104 H 7.9146 -0.48854 -1.3546 0
M  V30 105 H 9.8676 1.07464 -4.07467 0
M  V30 106 H 8.5916 1.49328 -2.90463 0
M  V30 107 H 7.2506 -0.512053 -3.63006 0
M  V30 108 H 6.8986 1.70523 -4.73214 0
M  V30 109 H 6.5986 0.363291 -5.86476 0
M  V30 110 H 8.1226 1.28996 -5.96818 0
M  V30 111 H 9.5366 -0.959379 -5.65216 0
M  V30 112 H 7.9336 -1.7455 -5.74154 0
M  V30 113 H 9.0036 -2.09663 -4.37229 0
M  V30 114 N 10.3467 1.47872 -0.545128 0
M  V30 115 C 11.2797 2.2675 0.256885 0
M  V30 116 C 12.2577 1.33293 0.931228 0
M  V30 117 O 13.4417 1.62657 0.95262 0
M  V30 118 C 10.5687 3.09976 1.36501 0
M  V30 119 C 9.6147 4.1892 0.800496 0
M  V30 120 S 10.4477 5.34397 -0.343505 0
M  V30 121 C 11.6037 6.21186 0.766733 0
M  V30 122 H 11.8367 2.94425 -0.412479 0
M  V30 123 H 9.3697 1.50806 -0.331204 0
M  V30 124 H 11.3277 3.585 1.9997 0
M  V30 125 H 9.9887 2.41686 2.00616 0
M  V30 126 H 9.1817 4.76836 1.63227 0
M  V30 127 H 8.7837 3.73215 0.242217 0
M  V30 128 H 11.0757 6.56804 1.66178 0
M  V30 129 H 12.0187 7.07742 0.225204 0
M  V30 130 H 12.4267 5.54574 1.05396 0
M  V30 131 N 11.8248 0.280983 1.55075 0
M  V30 132 C 12.7568 -0.637268 2.20163 0
M  V30 133 C 13.7698 -1.11298 1.18813 0
M  V30 134 O 14.9588 -1.03388 1.4551 0
M  V30 135 C 12.0588 -1.88199 2.81841 0
M  V30 136 C 11.2318 -1.55211 4.08936 0
M  V30 137 C 10.2908 -2.64991 4.54606 0
M  V30 138 O 9.3168 -2.30929 5.2025 0
M  V30 139 N 10.5188 -3.95161 4.25238 0
M  V30 140 H 13.2838 -0.0801694 2.99593 0
M  V30 141 H 10.8448 0.102329 1.61576 0
M  V30 142 H 12.8368 -2.60948 3.09335 0
M  V30 143 H 11.4068 -2.34799 2.06369 0
M  V30 144 H 10.6268 -0.658185 3.88666 0
M  V30 145 H 11.9148 -1.30681 4.91732 0
M  V30 146 H 11.3128 -4.25653 3.72607 0
M  V30 147 H 9.8698 -4.6427 4.5749 0
M  V30 148 N 13.3029 -1.57598 0.00835791 0
M  V30 149 C 14.7189 -1.55764 -0.347822 0
M  V30 150 C 14.9189 -1.01186 -1.74252 0
M  V30 151 O 13.9749 -0.649371 -2.44007 0
M  V30 152 C 15.2879 -2.99927 -0.215407 0
M  V30 153 C 16.8359 -3.11656 -0.289725 0
M  V30 154 C 17.3109 -4.57621 -0.18634 0
M  V30 155 N 18.8019 -4.62557 -0.243978 0
M  V30 156 C 19.5369 -5.73094 -0.18745 0
M  V30 157 N 19.0329 -6.92753 -0.0810331 0
M  V30 158 N 20.8259 -5.61588 -0.239925 0
M  V30 159 H 12.9769 -1.91411 0.92062 0
M  V30 160 H 15.2399 -0.879562 0.353659 0
M  V30 161 H 14.9459 -3.43729 0.744512 0
M  V30 162 H 14.8199 -3.63865 -0.994097 0
M  V30 163 H 17.2069 -2.67779 -1.24009 0
M  V30 164 H 17.2879 -2.5048 0.51898 0
M  V30 165 H 16.9319 -5.02174 0.760519 0
M  V30 166 H 16.8619 -5.16752 -1.01364 0
M  V30 167 H 19.3529 -3.76481 -0.327217 0
M  V30 168 H 19.6659 -7.72787 -0.0440241 0
M  V30 169 H 18.0109 -6.94984 -0.0465419 0
M  V30 170 H 21.2019 -4.66996 -0.321317 0
M  V30 171 H 21.3749 -6.47714 -0.192407 0
M  V30 172 N 14.781 0.264519 -1.55364 0
M  V30 173 C 16.197 0.61215 -1.47394 0
M  V30 174 C 16.397 1.89134 -0.695018 0
M  V30 175 O 15.453 2.51563 -0.217275 0
M  V30 176 C 16.766 0.731235 -2.91674 0
M  V30 177 C 18.314 0.82473 -3.01939 0
M  V30 178 C 18.789 0.975522 -4.4749 0
M  V30 179 N 20.28 1.04083 -4.51354 0
M  V30 180 C 21.015 1.17646 -5.61201 0
M  V30 181 N 20.511 1.27874 -6.80896 0
M  V30 182 N 22.304 1.20823 -5.48961 0
M  V30 183 H 14.455 -0.575456 -2.04456 0
M  V30 184 H 16.718 -0.196099 -0.927496 0
M  V30 185 H 16.424 -0.138392 -3.51428 0
M  V30 186 H 16.298 1.60883 -3.41169 0
M  V30 187 H 18.685 1.68482 -2.42276 0
M  V30 188 H 18.766 -0.0776479 -2.55682 0
M  V30 189 H 18.41 0.120058 -5.07758 0
M  V30 190 H 18.34 1.89268 -4.91412 0
M  V30 191 H 20.831 0.973846 -3.65136 0
M  V30 192 H 21.144 1.38081 -7.60364 0
M  V30 193 H 19.489 1.24863 -6.83692 0
M  V30 194 H 22.68 1.12469 -4.54388 0
M  V30 195 H 22.853 1.31049 -6.3461 0
M  V30 196 N 16.2591 1.48442 0.529413 0
M  V30 197 C 17.4841 1.60406 1.31471 0
M  V30 198 C 17.9091 0.264738 1.86228 0
M  V30 199 O 17.2671 -0.763668 1.64432 0
M  V30 200 C 17.3151 2.65419 2.44101 0
M  V30 201 O 16.4191 2.22618 3.47153 0
M  V30 202 H 15.7601 0.537863 0.389357 0
M  V30 203 H 18.2901 1.94432 0.636965 0
M  V30 204 H 18.3001 2.86709 2.90279 0
M  V30 205 H 16.9751 3.62652 2.03608 0
M  V30 206 H 15.5521 2.11543 3.0709 0
M  V30 207 N 17.7372 -0.778329 1.37039 0
M  V30 208 C 18.6692 -1.90034 1.2814 0
M  V30 209 C 19.6822 -1.61585 0.198558 0
M  V30 210 O 20.8712 -1.72625 0.454175 0
M  V30 211 C 17.9712 -3.25108 0.956968 0
M  V30 212 C 17.1442 -3.81253 2.14394 0
M  V30 213 C 16.2032 -4.94789 1.79082 0
M  V30 214 O 15.2292 -5.10721 2.51301 0
M  V30 215 N 16.4312 -5.75878 0.731043 0
M  V30 216 H 19.1962 -1.98186 2.24816 0
M  V30 217 H 16.7572 -0.957129 1.30578 0
M  V30 218 H 18.7492 -3.9857 0.701701 0
M  V30 219 H 17.3192 -3.125 0.0789812 0
M  V30 220 H 16.5392 -2.99647 2.56135 0
M  V30 221 H 17.8272 -4.15495 2.93668 0
M  V30 222 H 17.2252 -5.65547 0.131618 0
M  V30 223 H 15.7822 -6.49596 0.535622 0
M  V30 224 N 19.2153 -1.21501 -1.00376 0
M  V30 225 C 20.1783 -0.976927 -2.07337 0
M  V30 226 C 21.1783 0.0525322 -1.60714 0
M  V30 227 O 22.3683 -0.184869 -1.73216 0
M  V30 228 C 19.5003 -0.473423 -3.37597 0
M  V30 229 H 20.6933 -1.92587 -2.29892 0
M  V30 230 H 18.2463 -1.03217 -1.17371 0
M  V30 231 H 18.9813 0.480379 -3.20722 0
M  V30 232 H 18.7663 -1.216 -3.72768 0
M  V30 233 H 20.2563 -0.32675 -4.1632 0
M  V30 234 N 20.6934 1.19889 -1.02296 0
M  V30 235 C 21.9424 1.88743 -0.711257 0
M  V30 236 C 22.2554 1.80112 0.762817 0
M  V30 237 O 23.4614 2.44161 1.18733 0
M  V30 238 C 21.9174 3.38525 -1.22185 0
M  V30 239 C 21.5254 3.55727 -2.72328 0
M  V30 240 C 23.2694 4.12893 -0.985864 0
M  V30 241 C 21.1764 4.99369 -3.16835 0
M  V30 242 H 20.1064 0.706885 -0.262353 0
M  V30 243 H 22.7574 1.35586 -1.23648 0
M  V30 244 H 21.1394 3.91044 -0.624571 0
M  V30 245 H 22.3134 3.13564 -3.3766 0
M  V30 246 H 20.6284 2.94739 -2.9414 0
M  V30 247 H 23.2254 5.18813 -1.29374 0
M  V30 248 H 23.5684 4.16228 0.0775055 0
M  V30 249 H 24.1014 3.66494 -1.54684 0
M  V30 250 H 20.8404 5.01193 -4.22476 0
M  V30 251 H 20.3604 5.42317 -2.56228 0
M  V30 252 H 22.0394 5.67988 -3.09837 0
M  V30 253 N 22.1715 0.800033 1.35784 0
M  V30 254 C 23.5825 0.439142 1.81462 0
M  V30 255 C 23.9335 -1.03813 1.66485 0
M  V30 256 O 23.0585 -1.80626 1.19177 0
M  V30 257 C 23.6535 0.790314 3.29453 0
M  V30 258 C 22.2125 0.482111 3.733 0
M  V30 259 C 21.3595 1.01938 2.57883 0
M  V30 260 H 24.3105 0.992254 1.23855 0
M  V30 261 H 24.3315 0.0853677 3.80404 0
M  V30 262 H 23.8435 1.86554 3.40322 0
M  V30 263 H 21.9445 -0.584652 3.67984 0
M  V30 264 H 22.0575 1.01015 4.6833 0
M  V30 265 H 20.4215 0.442043 2.50835 0
M  V30 266 H 21.2045 2.10059 2.71533 0
M  V30 267 N 23.6496 -1.47581 0.552962 0
M  V30 268 C 25.0656 -1.5818 0.212424 0
M  V30 269 C 25.2656 -1.55213 -1.28496 0
M  V30 270 O 24.3216 -1.45329 -2.06484 0
M  V30 271 C 25.6346 -2.88865 0.835318 0
M  V30 272 C 27.1826 -3.0244 0.806156 0
M  V30 273 C 27.6576 -4.35819 1.40804 0
M  V30 274 N 29.1486 -4.42444 1.37103 0
M  V30 275 C 29.8836 -5.44202 1.80641 0
M  V30 276 N 29.3796 -6.52795 2.32015 0
M  V30 277 N 31.1726 -5.35222 1.71738 0
M  V30 278 H 23.3236 -1.47753 1.52587 0
M  V30 279 H 25.5866 -0.702941 0.636064 0
M  V30 280 H 25.2926 -2.9676 1.88749 0
M  V30 281 H 25.1666 -3.7579 0.325848 0
M  V30 282 H 27.5536 -2.94144 -0.237317 0
M  V30 283 H 27.6346 -2.17068 1.35334 0
M  V30 284 H 27.2786 -4.44871 2.45056 0
M  V30 285 H 27.2086 -5.19916 0.836338 0
M  V30 286 H 29.6996 -3.6456 0.995202 0
M  V30 287 H 30.0126 -7.26609 2.63171 0
M  V30 288 H 28.3576 -6.53696 2.36023 0
M  V30 289 H 31.5486 -4.49284 1.31382 0
M  V30 290 H 31.7216 -6.14389 2.05987 0
M  V30 291 N 25.1277 -0.289203 -1.54924 0
M  V30 292 C 26.3757 0.322879 -1.99504 0
M  V30 293 C 26.6967 1.55313 -1.1791 0
M  V30 294 O 25.9667 1.94001 -0.272097 0
M  V30 295 H 24.5467 0.122291 -0.736922 0
M  V30 296 H 27.2087 -0.397802 -1.90797 0
M  V30 297 H 26.3047 0.603061 -3.06218 0
M  V30 298 N 26.6058 1.57591 -0.0167156 0
M  V30 299 C 27.8518 1.91567 0.665582 0
M  V30 300 C 28.1848 0.892298 1.72487 0
M  V30 301 O 27.4598 -0.0867127 1.94307 0
M  V30 302 C 27.7428 3.36069 1.29342 0
M  V30 303 C 27.5958 4.49135 0.244541 0
M  V30 304 C 28.9148 3.803 2.21495 0
M  V30 305 H 26.0338 0.69666 0.240488 0
M  V30 306 H 28.6758 1.89866 -0.0714356 0
M  V30 307 H 26.8258 3.3765 1.92158 0
M  V30 308 H 28.4978 4.59689 -0.385228 0
M  V30 309 H 26.7408 4.3165 -0.431379 0
M  V30 310 H 27.4118 5.47242 0.723207 0
M  V30 311 H 29.8878 3.80377 1.68678 0
M  V30 312 H 28.7638 4.82127 2.62382 0
M  V30 313 H 29.0248 3.15104 3.101 0
M  V30 314 N 28.0839 -0.256276 1.55502 0
M  V30 315 C 29.3319 -0.983672 1.76545 0
M  V30 316 C 29.6529 -1.86206 0.578982 0
M  V30 317 O 28.9229 -1.91656 -0.405577 0
M  V30 318 H 27.5029 -0.366191 0.651086 0
M  V30 319 H 30.1649 -0.276479 1.92929 0
M  V30 320 H 29.2609 -1.61087 2.67315 0
M  V30 321 N 29.562 -1.4872 -0.521534 0
M  V30 322 C 30.494 -1.59968 -1.64143 0
M  V30 323 C 31.507 -0.483463 -1.55456 0
M  V30 324 O 32.696 -0.75467 -1.61762 0
M  V30 325 C 29.796 -1.52127 -3.02838 0
M  V30 326 C 28.969 -2.78932 -3.36921 0
M  V30 327 C 28.028 -2.64428 -4.54933 0
M  V30 328 O 27.054 -3.38331 -4.57735 0
M  V30 329 N 28.256 -1.74606 -5.53618 0
M  V30 330 H 31.021 -2.56548 -1.54929 0
M  V30 331 H 28.582 -1.45551 -0.708988 0
M  V30 332 H 30.574 -1.40106 -3.79674 0
M  V30 333 H 29.144 -0.634868 -3.06085 0
M  V30 334 H 28.364 -3.05455 -2.4918 0
M  V30 335 H 29.652 -3.63041 -3.56481 0
M  V30 336 H 29.05 -1.13782 -5.54139 0
M  V30 337 H 27.607 -1.6852 -6.29638 0
M  V30 338 N 31.0401 0.771051 -1.3745 0
M  V30 339 C 32.2891 1.52491 -1.3202 0
M  V30 340 C 32.6021 1.9538 0.0927347 0
M  V30 341 O 33.8081 2.70159 0.269503 0
M  V30 342 C 32.2641 2.75366 -2.31736 0
M  V30 343 C 31.8721 2.39573 -3.78562 0
M  V30 344 C 33.6161 3.53307 -2.35318 0
M  V30 345 C 31.5231 3.58954 -4.70007 0
M  V30 346 H 30.4531 0.572506 -0.490666 0
M  V30 347 H 33.1041 0.844474 -1.62914 0
M  V30 348 H 31.4861 3.45303 -1.93861 0
M  V30 349 H 32.6601 1.77415 -4.25277 0
M  V30 350 H 30.9751 1.74805 -3.77932 0
M  V30 351 H 33.5721 4.42039 -3.00842 0
M  V30 352 H 33.9151 3.93217 -1.36698 0
M  V30 353 H 34.4481 2.90367 -2.71904 0
M  V30 354 H 31.1871 3.24125 -5.69757 0
M  V30 355 H 30.7071 4.20214 -4.27996 0
M  V30 356 H 32.3861 4.25758 -4.87175 0
M  V30 357 N 32.5182 1.22032 0.997298 0
M  V30 358 C 33.4682 0.953838 2.07089 0
M  V30 359 C 34.4522 -0.0938669 1.60626 0
M  V30 360 O 35.6442 0.116078 1.76619 0
M  V30 361 C 32.7732 0.528726 3.39204 0
M  V30 362 C 31.8592 1.61092 3.92314 0
M  V30 363 N 32.2502 2.83768 4.18699 0
M  V30 364 C 30.5482 1.48158 4.20672 0
M  V30 365 C 31.2492 3.53715 4.61802 0
M  V30 366 N 30.2252 2.81174 4.65233 0
M  V30 367 H 34.0272 1.88577 2.25424 0
M  V30 368 H 31.5412 1.11719 1.17867 0
M  V30 369 H 33.5382 0.31915 4.15677 0
M  V30 370 H 32.1982 -0.39635 3.22272 0
M  V30 371 H 33.2092 3.20238 4.07023 0
M  V30 372 H 29.8862 0.622369 4.12835 0
M  V30 373 H 31.2762 4.58793 4.90875 0
M  V30 374 N 33.9963 -1.19345 1.0293 0
M  V30 375 C 35.4073 -1.70725 0.755633 0
M  V30 376 C 35.7583 -1.82326 -0.724676 0
M  V30 377 O 34.8833 -1.49471 -1.56484 0
M  V30 378 C 35.4783 -3.10084 1.36503 0
M  V30 379 C 34.0373 -3.58723 1.13994 0
M  V30 380 C 33.1843 -2.35577 1.46283 0
M  V30 381 H 36.1353 -1.0418 1.19718 0
M  V30 382 H 36.1563 -3.72787 0.762217 0
M  V30 383 H 35.6683 -3.01609 2.44241 0
M  V30 384 H 33.7693 -3.72512 0.0807901 0
M  V30 385 H 33.8823 -4.42816 1.82894 0
M  V30 386 H 32.2463 -2.38935 0.88217 0
M  V30 387 H 33.0293 -2.29731 2.55105 0
M  V30 388 N 35.4744 -0.807222 -1.35358 0
M  V30 389 C 36.7234 -0.384376 -1.98004 0
M  V30 390 C 37.0364 1.0543 -1.64754 0
M  V30 391 O 38.2424 1.58029 -2.20769 0
M  V30 392 C 36.6984 -0.636326 -3.5423 0
M  V30 393 C 36.3064 -2.08759 -3.96388 0
M  V30 394 C 38.0504 -0.278869 -4.23583 0
M  V30 395 C 35.9574 -2.28525 -5.45463 0
M  V30 396 H 34.8874 -0.139986 -0.740891 0
M  V30 397 H 37.5384 -0.991369 -1.54415 0
M  V30 398 H 35.9204 0.0406256 -3.95979 0
M  V30 399 H 37.0944 -2.8024 -3.6579 0
M  V30 400 H 35.4094 -2.40497 -3.39926 0
M  V30 401 H 38.0064 -0.404599 -5.33167 0
M  V30 402 H 38.3494 0.775012 -4.09022 0
M  V30 403 H 38.8824 -0.909764 -3.87257 0
M  V30 404 H 35.6214 -3.32361 -5.64992 0
M  V30 405 H 35.1414 -1.61569 -5.77629 0
M  V30 406 H 36.8204 -2.10109 -6.11934 0
M  V30 407 N 36.9525 1.47285 -0.560781 0
M  V30 408 C 38.1995 2.02464 -0.038062 0
M  V30 409 C 38.5275 1.43474 1.31322 0
M  V30 410 O 37.7825 0.581311 1.86867 0
M  V30 411 C 38.0815 3.57258 0.100784 0
M  V30 412 C 37.7475 4.35184 -1.18007 0
M  V30 413 C 36.4095 4.56194 -1.53103 0
M  V30 414 C 38.7615 4.80098 -2.02867 0
M  V30 415 C 36.0895 5.19367 -2.729 0
M  V30 416 C 38.4415 5.44593 -3.21871 0
M  V30 417 C 37.1055 5.63835 -3.57276 0
M  V30 418 H 36.3755 0.740869 -0.0139279 0
M  V30 419 H 39.0225 1.76916 -0.733012 0
M  V30 420 H 37.3275 3.81819 0.878724 0
M  V30 421 H 39.0245 3.97606 0.520639 0
M  V30 422 H 35.6145 4.19113 -0.8968 0
M  V30 423 H 39.7985 4.63642 -1.7706 0
M  V30 424 H 35.0545 5.32459 -3.00496 0
M  V30 425 H 39.2285 5.78358 -3.87911 0
M  V30 426 H 36.8555 6.12557 -4.50197 0
M  V30 427 N 38.4306 0.297415 1.54768 0
M  V30 428 C 39.3936 -0.567375 2.22066 0
M  V30 429 C 40.3936 -1.06409 1.20556 0
M  V30 430 O 41.5836 -0.960691 1.45315 0
M  V30 431 C 38.7156 -1.78517 2.90421 0
M  V30 432 H 39.9086 0.0205534 2.99893 0
M  V30 433 H 37.4616 0.0482163 1.56226 0
M  V30 434 H 38.1966 -2.41303 2.16664 0
M  V30 435 H 37.9816 -1.43669 3.64831 0
M  V30 436 H 39.4716 -2.39964 3.41771 0
M  V30 437 N 39.9087 -1.5758 0.0250728 0
M  V30 438 C 41.1857 -1.82917 -0.692873 0
M  V30 439 C 41.5657 -0.908137 -1.90568 0
M  V30 440 O 40.9137 0.0372298 -2.2847 0
M  V30 441 C 41.1237 -3.32034 -1.07492 0
M  V30 442 C 42.4717 -3.98406 -1.46826 0
M  V30 443 O 43.4957 -3.36505 -1.16801 0
M  V30 444 O 42.3547 -5.07497 -2.02754 0
M  V30 445 H 39.4487 -0.754079 -0.33955 0
M  V30 446 H 41.9947 -1.69619 0.0524456 0
M  V30 447 H 40.7667 -3.90728 -0.211552 0
M  V30 448 H 40.3897 -3.50424 -1.87854 0
M  V30 449 N 41.3868 0.248026 -1.55636 0
M  V30 450 C 42.8028 0.596483 -1.48035 0
M  V30 451 C 43.0028 1.88386 -0.715039 0
M  V30 452 O 42.0588 2.51319 -0.243944 0
M  V30 453 C 43.3718 0.700258 -2.92433 0
M  V30 454 C 44.9198 0.792659 -3.02797 0
M  V30 455 C 45.3948 0.928005 -4.485 0
M  V30 456 N 46.8858 0.992903 -4.52433 0
M  V30 457 C 47.6208 1.11687 -5.62418 0
M  V30 458 N 47.1168 1.20645 -6.82214 0
M  V30 459 N 48.9098 1.14994 -5.50212 0
M  V30 460 H 41.0608 -0.597109 -2.03834 0
M  V30 461 H 43.3238 -0.205925 -0.925364 0
M  V30 462 H 43.0298 -0.175658 -3.51261 0
M  V30 463 H 42.9038 1.57255 -3.42857 0
M  V30 464 H 45.2908 1.65903 -2.4405 0
M  V30 465 H 45.3718 -0.104762 -2.55585 0
M  V30 466 H 45.0158 0.0661971 -5.07857 0
M  V30 467 H 44.9458 1.84045 -4.93391 0
M  V30 468 H 47.4368 0.935064 -3.66149 0
M  V30 469 H 47.7498 1.30008 -7.61786 0
M  V30 470 H 46.0948 1.17605 -6.84977 0
M  V30 471 H 49.2858 1.07643 -4.55555 0
M  V30 472 H 49.4588 1.24311 -6.35965 0
M  V30 473 N 42.8649 1.48995 0.513639 0
M  V30 474 C 43.8279 1.64229 1.59879 0
M  V30 475 C 44.8279 0.514696 1.5234 0
M  V30 476 O 46.0179 0.78087 1.55718 0
M  V30 477 C 43.1499 1.62783 2.99524 0
M  V30 478 H 44.3429 2.61004 1.47705 0
M  V30 479 H 41.8959 1.37837 0.736936 0
M  V30 480 H 42.6309 0.675461 3.17188 0
M  V30 481 H 42.4159 2.4466 3.06404 0
M  V30 482 H 43.9059 1.76669 3.78388 0
M  V30 483 N 44.343 -0.763751 1.37857 0
M  V30 484 C 45.253 -1.90817 1.36478 0
M  V30 485 C 46.269 -1.71997 0.263248 0
M  V30 486 O 47.445 -1.95095 0.499979 0
M  V30 487 C 44.51 -3.2605 1.17864 0
M  V30 488 C 43.571 -3.57467 2.3773 0
M  V30 489 C 42.804 -4.86249 2.19995 0
M  V30 490 O 43.027 -5.57884 1.18836 0
M  V30 491 O 41.961 -5.16911 3.08361 0
M  V30 492 H 45.787 -1.94933 2.32884 0
M  V30 493 H 43.372 -0.907619 1.1867 0
M  V30 494 H 45.254 -4.06924 1.09504 0
M  V30 495 H 43.929 -3.22769 0.245372 0
M  V30 496 H 42.836 -2.76796 2.51664 0
M  V30 497 H 44.169 -3.655 3.29652 0
M  V30 498 N 45.8211 -1.22559 -0.990812 0
M  V30 499 C 46.7691 -0.994798 -2.10253 0
M  V30 500 C 47.7631 0.0627798 -1.69284 0
M  V30 501 O 48.9691 -0.0898392 -1.79776 0
M  V30 502 H 45.3441 -0.304527 -0.687581 0
M  V30 503 H 47.3151 -1.93812 -2.26891 0
M  V30 504 C 46.0641 -0.591439 -3.42633 0
M  V30 505 H 45.3871 -1.3969 -3.74602 0
M  V30 506 H 46.8271 -0.469385 -4.21394 0
M  V30 507 C 45.2861 0.699232 -3.29564 0
M  V30 508 O 45.8161 1.75112 -3.61523 0
M  V30 509 N 44.0221 0.671182 -2.82743 0
M  V30 510 H 43.5691 -0.185136 -2.56934 0
M  V30 511 H 43.5271 1.53502 -2.7438 0
M  V30 512 N 47.2992 1.18797 -1.03562 0
M  V30 513 C 48.5392 1.90346 -0.744832 0
M  V30 514 C 48.9032 1.78231 0.713972 0
M  V30 515 O 50.1042 2.44441 1.11813 0
M  V30 516 C 48.3752 3.36942 -1.19184 0
M  V30 517 S 49.9342 4.26638 -1.02593 0
M  V30 518 H 46.7522 0.657343 -0.270963 0
M  V30 519 H 49.3542 1.43579 -1.32685 0
M  V30 520 H 48.0582 3.43287 -2.24905 0
M  V30 521 H 47.5892 3.88745 -0.603397 0
M  V30 522 H 49.6042 4.96164 0.0596033 0
M  V30 523 N 48.7773 0.814389 1.34928 0
M  V30 524 C 50.1933 0.499084 1.51596 0
M  V30 525 C 50.3933 -0.978319 1.76157 0
M  V30 526 O 49.4493 -1.76309 1.80752 0
M  V30 527 C 50.7623 1.35121 2.68631 0
M  V30 528 C 52.3103 1.34746 2.82511 0
M  V30 529 C 52.7853 2.18388 4.0258 0
M  V30 530 N 54.2763 2.15966 4.09772 0
M  V30 531 C 55.0113 2.77437 5.01813 0
M  V30 532 N 54.5073 3.47866 5.99134 0
M  V30 533 N 56.3003 2.67037 4.94619 0
M  V30 534 H 48.4513 1.7711 1.17243 0
M  V30 535 H 50.7143 0.754256 0.574284 0
M  V30 536 H 50.4203 2.40001 2.57085 0
M  V30 537 H 50.2943 1.00991 3.63429 0
M  V30 538 H 52.6813 0.30648 2.93504 0
M  V30 539 H 52.7623 1.72869 1.88547 0
M  V30 540 H 52.4063 3.2253 3.92347 0
M  V30 541 H 52.3363 1.77621 4.9574 0
M  V30 542 H 54.8273 1.64729 3.40107 0
M  V30 543 H 55.1403 3.92038 6.65977 0
M  V30 544 H 53.4853 3.51972 5.99284 0
M  V30 545 H 56.6763 2.11597 4.17546 0
M  V30 546 H 56.8493 3.15232 5.66156 0
M  V30 547 N 50.2554 -1.46986 0.568584 0
M  V30 548 C 51.5014 -2.02741 0.0488709 0
M  V30 549 C 51.8344 -1.44077 -1.30214 0
M  V30 550 O 51.1094 -0.600552 -1.84996 0
M  V30 551 C 51.3924 -3.60086 -0.032047 0
M  V30 552 C 51.2454 -4.29162 1.34686 0
M  V30 553 C 52.5644 -4.33838 -0.739798 0
M  V30 554 H 49.6834 -0.736749 0.0192338 0
M  V30 555 H 52.3254 -1.75289 0.733065 0
M  V30 556 H 50.4754 -3.83606 -0.61473 0
M  V30 557 H 52.1474 -4.16948 1.97362 0
M  V30 558 H 50.3904 -3.89073 1.91846 0
M  V30 559 H 51.0614 -5.37826 1.24285 0
M  V30 560 H 53.5374 -4.15378 -0.244939 0
M  V30 561 H 52.4134 -5.43537 -0.765406 0
M  V30 562 H 52.6744 -4.03875 -1.79827 0
M  V30 563 N 51.7335 -0.305618 -1.54608 0
M  V30 564 C 52.9795 0.295595 -2.01241 0
M  V30 565 C 53.3345 1.51171 -1.19018 0
M  V30 566 O 52.6275 1.89832 -0.259684 0
M  V30 567 C 52.8215 0.698983 -3.50498 0
M  V30 568 C 52.6505 -0.476491 -4.47168 0
M  V30 569 C 51.4205 -0.969963 -4.95903 0
M  V30 570 C 53.6185 -1.32294 -4.96994 0
M  V30 571 N 51.6005 -2.11172 -5.76437 0
M  V30 572 C 52.9715 -2.31212 -5.75275 0
M  V30 573 C 55.0265 -1.35278 -4.7917 0
M  V30 574 C 53.7295 -3.32896 -6.37631 0
M  V30 575 C 55.7555 -2.35823 -5.42348 0
M  V30 576 C 55.1175 -3.33469 -6.20466 0
M  V30 577 H 51.2165 0.0724992 -0.778632 0
M  V30 578 H 53.8005 -0.436583 -1.89742 0
M  V30 579 H 51.9715 1.40032 -3.62278 0
M  V30 580 H 53.7035 1.28013 -3.8392 0
M  V30 581 H 50.4585 -0.544178 -4.70463 0
M  V30 582 H 50.8825 -2.68714 -6.21387 0
M  V30 583 H 55.5245 -0.61157 -4.18354 0
M  V30 584 H 53.2425 -4.07933 -6.97579 0
M  V30 585 H 56.8285 -2.38911 -5.30484 0
M  V30 586 H 55.7085 -4.09996 -6.68485 0
M  V30 587 N 53.2116 1.57565 -0.0334293 0
M  V30 588 C 54.4886 1.83282 0.683163 0
M  V30 589 C 54.8686 0.91823 1.90084 0
M  V30 590 O 54.2166 -0.025113 2.28486 0
M  V30 591 C 54.4266 3.32599 1.0573 0
M  V30 592 C 55.7746 3.99179 1.44711 0
M  V30 593 O 56.7986 3.3712 1.15015 0
M  V30 594 O 55.6576 5.08565 2.0006 0
M  V30 595 H 52.7516 0.755869 0.335546 0
M  V30 596 H 55.2976 1.69589 -0.0614402 0
M  V30 597 H 54.0696 3.90834 0.190828 0
M  V30 598 H 53.6926 3.51415 1.85993 0
M  V30 599 N 54.6897 -0.239769 1.55765 0
M  V30 600 C 55.9357 -0.968234 1.78194 0
M  V30 601 C 56.2687 -1.84701 0.599938 0
M  V30 602 O 55.5437 -1.9031 -0.401524 0
M  V30 603 C 55.8267 -1.8227 3.10564 0
M  V30 604 C 55.6797 -0.971633 4.3918 0
M  V30 605 C 56.9987 -2.80388 3.39221 0
M  V30 606 H 54.1177 -0.350572 0.648281 0
M  V30 607 H 56.7597 -0.238259 1.885 0
M  V30 608 H 54.9097 -2.44507 3.01908 0
M  V30 609 H 56.5817 -0.367408 4.59835 0
M  V30 610 H 54.8247 -0.276276 4.32919 0
M  V30 611 H 55.4957 -1.60346 5.28198 0
M  V30 612 H 57.9717 -2.28287 3.47885 0
M  V30 613 H 56.8477 -3.3729 4.33044 0
M  V30 614 H 57.1087 -3.57212 2.60484 0
M  V30 615 N 56.1678 -1.49265 -0.50573 0
M  V30 616 C 57.0778 -1.68312 -1.63427 0
M  V30 617 C 58.0938 -0.565682 -1.64548 0
M  V30 618 O 59.2698 -0.839801 -1.83055 0
M  V30 619 C 56.3348 -1.74107 -2.99813 0
M  V30 620 C 55.3958 -2.97653 -3.09356 0
M  V30 621 C 54.6288 -3.03163 -4.39236 0
M  V30 622 O 54.8518 -2.16396 -5.27758 0
M  V30 623 O 53.7858 -3.9558 -4.53652 0
M  V30 624 H 57.6118 -2.63907 -1.50289 0
M  V30 625 H 55.1968 -1.32951 -0.681502 0
M  V30 626 H 57.0788 -1.803 -3.80881 0
M  V30 627 H 55.7538 -0.816901 -3.13223 0
M  V30 628 H 54.6608 -2.96981 -2.27493 0
M  V30 629 H 55.9938 -3.89535 -3.00871 0
M  V30 630 N 57.6459 0.756429 -1.3826 0
M  V30 631 C 58.8939 1.51248 -1.34047 0
M  V30 632 C 59.2149 1.94875 0.0698372 0
M  V30 633 O 58.4849 1.67436 1.01696 0
M  V30 634 H 57.0649 0.561018 -0.493222 0
M  V30 635 H 59.7269 0.899347 -1.7291 0
M  V30 636 H 58.8229 2.40472 -1.98947 0
M  V30 637 N 59.124 1.23083 0.984299 0
M  V30 638 C 60.54 0.992637 1.24975 0
M  V30 639 C 60.74 -0.308618 1.99123 0
M  V30 640 O 59.796 -1.02905 2.30579 0
M  V30 641 C 61.109 2.19698 2.05312 0
M  V30 642 C 62.657 2.24147 2.18465 0
M  V30 643 C 63.132 3.44157 3.02192 0
M  V30 644 N 64.623 3.44372 3.09777 0
M  V30 645 C 65.358 4.33886 3.74874 0
M  V30 646 N 64.854 5.3363 4.41827 0
M  V30 647 N 66.647 4.21639 3.71721 0
M  V30 648 H 58.798 2.06731 0.487453 0
M  V30 649 H 61.061 0.906339 0.277944 0
M  V30 650 H 60.767 3.1411 1.58201 0
M  V30 651 H 60.641 2.20465 3.06064 0
M  V30 652 H 63.028 1.30277 2.64786 0
M  V30 653 H 63.109 2.27415 1.17115 0
M  V30 654 H 62.753 4.38332 2.56568 0
M  V30 655 H 62.683 3.3813 4.03702 0
M  V30 656 H 65.174 2.72201 2.62135 0
M  V30 657 H 65.487 5.98196 4.89266 0
M  V30 658 H 63.832 5.37534 4.40548 0
M  V30 659 H 67.023 3.42962 3.18582 0
M  V30 660 H 67.196 4.91604 4.22173 0
M  V30 661 N 60.6021 -1.18246 1.0419 0
M  V30 662 C 61.5121 -2.25574 0.644476 0
M  V30 663 C 62.5281 -1.70845 -0.329826 0
M  V30 664 O 63.7041 -2.00554 -0.184443 0
M  V30 665 C 60.7691 -3.46697 0.014877 0
M  V30 666 C 59.8301 -4.16554 1.03834 0
M  V30 667 C 59.0631 -5.31894 0.438692 0
M  V30 668 O 59.2861 -5.65385 -0.754752 0
M  V30 669 O 58.2201 -5.90459 1.168 0
M  V30 670 H 62.0461 -2.61836 1.53869 0
M  V30 671 H 59.6311 -1.25352 0.812854 0
M  V30 672 H 61.5131 -4.20062 -0.335538 0
M  V30 673 H 60.1881 -3.12255 -0.853138 0
M  V30 674 H 59.0951 -3.45251 1.44057 0
M  V30 675 H 60.4281 -4.54998 1.87716 0
M  V30 676 N 62.0802 -0.821533 -1.34494 0
M  V30 677 C 63.3102 -0.421272 -2.02259 0
M  V30 678 C 63.7182 0.977047 -1.6202 0
M  V30 679 O 63.0612 1.64348 -0.820703 0
M  V30 680 C 63.1232 -0.44231 -3.56769 0
M  V30 681 C 62.7872 -1.79372 -4.20327 0
M  V30 682 C 63.7842 -2.75435 -4.40944 0
M  V30 683 C 61.4692 -2.08182 -4.57127 0
M  V30 684 C 63.4632 -3.98482 -4.97484 0
M  V30 685 C 61.1502 -3.31489 -5.13379 0
M  V30 686 C 62.1482 -4.26457 -5.33501 0
M  V30 687 O 61.8362 -5.47585 -5.88562 0
M  V30 688 H 61.5682 -0.167473 -0.654927 0
M  V30 689 H 64.1222 -1.11073 -1.72777 0
M  V30 690 H 62.3522 0.303836 -3.85505 0
M  V30 691 H 64.0412 -0.0622925 -4.05852 0
M  V30 692 H 64.8072 -2.54473 -4.12878 0
M  V30 693 H 60.6862 -1.35066 -4.4077 0
M  V30 694 H 64.2302 -4.72618 -5.13106 0
M  V30 695 H 60.1272 -3.52316 -5.40873 0
M  V30 696 H 60.8952 -5.49086 -6.06998 0
M  V30 697 N 63.5583 1.46682 -0.576371 0
M  V30 698 C 64.4883 2.33028 0.148397 0
M  V30 699 C 65.4693 1.44961 0.889956 0
M  V30 700 O 66.6543 1.73789 0.866662 0
M  V30 701 C 63.7843 3.27117 1.1667 0
M  V30 702 C 62.7383 4.24575 0.540386 0
M  V30 703 C 62.0643 5.08126 1.6647 0
M  V30 704 C 63.3643 5.19722 -0.518331 0
M  V30 705 H 65.0583 2.93875 -0.572509 0
M  V30 706 H 62.6043 1.41315 -0.276768 0
M  V30 707 H 64.5573 3.86374 1.68204 0
M  V30 708 H 63.2813 2.64364 1.9178 0
M  V30 709 H 61.9403 3.66571 0.0461769 0
M  V30 710 H 61.5883 4.41762 2.40531 0
M  V30 711 H 61.2883 5.74122 1.25131 0
M  V30 712 H 62.8123 5.70246 2.18293 0
M  V30 713 H 64.2263 5.73232 -0.0883058 0
M  V30 714 H 62.6233 5.94026 -0.851679 0
M  V30 715 H 63.6933 4.64037 -1.40703 0
M  V30 716 N 65.0364 0.313813 1.54444 0
M  V30 717 C 66.3134 -0.345447 1.92525 0
M  V30 718 C 66.6934 -1.70667 1.24242 0
M  V30 719 O 66.0414 -2.25273 0.382654 0
M  V30 720 C 66.2514 -0.44737 3.46121 0
M  V30 721 C 67.5994 -0.712238 4.18584 0
M  V30 722 O 68.6234 -0.530678 3.52225 0
M  V30 723 O 67.4824 -1.06183 5.36085 0
M  V30 724 H 64.5764 -0.195407 0.803583 0
M  V30 725 H 67.1224 0.362813 1.65776 0
M  V30 726 H 65.8944 0.509043 3.87975 0
M  V30 727 H 65.5174 -1.20359 3.78945 0
M  V30 728 N 66.5145 -1.57545 0.0417849 0
M  V30 729 C 67.7615 -1.92317 -0.634082 0
M  V30 730 C 68.0895 -0.919334 -1.71402 0
M  V30 731 O 67.3445 0.0698253 -1.95575 0
M  V30 732 C 67.6435 -3.33794 -1.27735 0
M  V30 733 C 67.3095 -4.49716 -0.326543 0
M  V30 734 C 65.9715 -4.81156 -0.0648814 0
M  V30 735 C 68.3235 -5.20182 0.325623 0
M  V30 736 C 65.6515 -5.80414 0.856539 0
M  V30 737 C 68.0035 -6.20424 1.23518 0
M  V30 738 C 66.6675 -6.50298 1.5056 0
M  V30 739 H 65.9375 -0.703736 -0.232027 0
M  V30 740 H 68.5845 -1.91205 0.106259 0
M  V30 741 H 66.8895 -3.31228 -2.09274 0
M  V30 742 H 68.5865 -3.57975 -1.80707 0
M  V30 743 H 65.1765 -4.25176 -0.540665 0
M  V30 744 H 69.3605 -4.96112 0.136546 0
M  V30 745 H 64.6165 -6.019 1.07363 0
M  V30 746 H 68.7905 -6.74141 1.74664 0
M  V30 747 H 66.4175 -7.27025 2.22123 0
M  V30 748 N 67.9926 0.231505 -1.5589 0
M  V30 749 C 68.9556 1.27028 -1.90779 0
M  V30 750 C 69.9556 1.40308 -0.785507 0
M  V30 751 O 71.1456 1.38744 -1.05336 0
M  V30 752 C 68.2776 2.64566 -2.14983 0
M  V30 753 H 69.4706 0.973017 -2.83677 0
M  V30 754 H 67.0236 0.471486 -1.49019 0
M  V30 755 H 67.7586 2.99406 -1.24604 0
M  V30 756 H 67.5436 2.56305 -2.96732 0
M  V30 757 H 69.0336 3.39543 -2.43105 0
M  V30 758 N 69.4707 1.49531 0.497807 0
M  V30 759 C 70.7187 1.58865 1.24926 0
M  V30 760 C 71.0397 0.278721 1.92998 0
M  V30 761 O 70.3097 -0.702144 1.82885 0
M  V30 762 H 68.8897 0.585343 0.464094 0
M  V30 763 H 71.5517 1.86174 0.57666 0
M  V30 764 H 70.6477 2.38633 2.01149 0
M  V30 765 N 70.9488 -0.749086 1.3866 0
M  V30 766 C 72.1968 -1.50535 1.34847 0
M  V30 767 C 72.5178 -1.94909 -0.0595016 0
M  V30 768 O 71.7878 -1.67973 -1.00806 0
M  V30 769 H 70.3678 -0.558395 0.49619 0
M  V30 770 H 73.0298 -0.890165 1.73384 0
M  V30 771 H 72.1258 -2.39413 2.00219 0
M  V30 772 N 72.4269 -1.23603 -0.977757 0
M  V30 773 C 73.6759 -1.06377 -1.71368 0
M  V30 774 C 73.9889 0.399062 -1.91486 0
M  V30 775 O 75.1949 0.691312 -2.62551 0
M  V30 776 C 73.6509 -1.85512 -3.08404 0
M  V30 777 C 73.2589 -3.36141 -2.96164 0
M  V30 778 C 75.0029 -1.76783 -3.85938 0
M  V30 779 C 72.9099 -4.07659 -4.28449 0
M  V30 780 H 71.8399 -0.394452 -0.642591 0
M  V30 781 H 74.4909 -1.47594 -1.09034 0
M  V30 782 H 72.8729 -1.37103 -3.71509 0
M  V30 783 H 74.0469 -3.92056 -2.42133 0
M  V30 784 H 72.3619 -3.45712 -2.32104 0
M  V30 785 H 74.9589 -2.27526 -4.83876 0
M  V30 786 H 75.3019 -0.731116 -4.0983 0
M  V30 787 H 75.8349 -2.22818 -3.2954 0
M  V30 788 H 72.5739 -5.11648 -4.09752 0
M  V30 789 H 72.0939 -3.5653 -4.82334 0
M  V30 790 H 73.7729 -4.141 -4.97122 0
M  V30 791 N 73.905 1.17692 -1.04816 0
M  V30 792 C 74.868 2.19787 -0.650117 0
M  V30 793 C 75.868 1.58044 0.296427 0
M  V30 794 O 77.058 1.74012 0.0808097 0
M  V30 795 C 74.19 3.40869 0.0456987 0
M  V30 796 H 75.383 2.56516 -1.5537 0
M  V30 797 H 72.936 1.31708 -0.841594 0
M  V30 798 H 73.671 3.09681 0.962726 0
M  V30 799 H 73.456 3.86928 -0.634727 0
M  V30 800 H 74.946 4.16445 0.310432 0
M  V30 801 N 75.3831 0.828654 1.34056 0
M  V30 802 C 76.6291 0.42008 1.98402 0
M  V30 803 C 76.9621 -1.01564 1.65525 0
M  V30 804 O 76.2371 -1.70834 0.929831 0
M  V30 805 C 76.5201 0.62927 3.54559 0
M  V30 806 C 76.3731 2.11152 3.97159 0
M  V30 807 C 77.6921 0.0688756 4.40046 0
M  V30 808 H 74.8111 0.154104 0.720709 0
M  V30 809 H 77.4531 1.04228 1.5886 0
M  V30 810 H 75.6031 0.0996418 3.88372 0
M  V30 811 H 77.2751 2.70522 3.73651 0
M  V30 812 H 75.5181 2.59985 3.47261 0
M  V30 813 H 76.1891 2.20868 5.05887 0
M  V30 814 H 78.6651 0.521458 4.1282 0
M  V30 815 H 77.5411 0.245006 5.48353 0
M  V30 816 H 77.8021 -1.0266 4.30015 0
M  V30 817 N 76.8612 -1.46375 0.584142 0
M  V30 818 C 77.7912 -2.33103 -0.136037 0
M  V30 819 C 78.7722 -1.45431 -0.882255 0
M  V30 820 O 79.9572 -1.74246 -0.857434 0
M  V30 821 C 77.0872 -3.27731 -1.14933 0
M  V30 822 C 76.0412 -4.24855 -0.517862 0
M  V30 823 C 75.3672 -5.09001 -1.63773 0
M  V30 824 C 76.6672 -5.19439 0.545886 0
M  V30 825 H 78.3612 -2.93568 0.588086 0
M  V30 826 H 75.9072 -1.41166 0.284259 0
M  V30 827 H 77.8602 -3.87261 -1.66153 0
M  V30 828 H 76.5842 -2.65377 -1.90375 0
M  V30 829 H 75.2432 -3.6659 -0.0267361 0
M  V30 830 H 74.8912 -4.43031 -2.38185 0
M  V30 831 H 74.5912 -5.74777 -1.22085 0
M  V30 832 H 76.1152 -5.71396 -2.15266 0
M  V30 833 H 77.5292 -5.73177 0.118704 0
M  V30 834 H 75.9262 -5.93566 0.88317 0
M  V30 835 H 76.9962 -4.63285 1.43162 0
M  V30 836 N 78.3393 -0.321999 -1.54275 0
M  V30 837 C 79.2873 0.560206 -2.25753 0
M  V30 838 C 80.2813 1.11984 -1.27106 0
M  V30 839 O 81.4873 1.06806 -1.44888 0
M  V30 840 H 77.8623 0.199304 -0.725108 0
M  V30 841 H 79.8333 -0.0649365 -2.98329 0
M  V30 842 C 78.5823 1.71023 -3.02731 0
M  V30 843 H 77.9053 1.28885 -3.78456 0
M  V30 844 H 79.3453 2.30314 -3.55993 0
M  V30 845 C 77.8043 2.62692 -2.10938 0
M  V30 846 O 78.3343 3.64364 -1.6912 0
M  V30 847 N 76.5403 2.30891 -1.76459 0
M  V30 848 H 76.0873 1.48253 -2.10663 0
M  V30 849 H 76.0453 2.92487 -1.1532 0
M  V30 850 N 79.8174 1.5752 -0.0501392 0
M  V30 851 C 81.0454 1.96963 0.633492 0
M  V30 852 C 81.4604 0.927631 1.6444 0
M  V30 853 O 80.8174 -0.0882665 1.82286 0
M  V30 854 C 80.8684 3.36487 1.32132 0
M  V30 855 O 80.5894 4.36693 0.350894 0
M  V30 856 C 82.0904 3.90682 2.09481 0
M  V30 857 H 79.3104 0.648244 0.173266 0
M  V30 858 H 81.8544 2.0417 -0.116134 0
M  V30 859 H 80.0094 3.30434 2.02218 0
M  V30 860 H 80.4234 5.17702 0.841735 0
M  V30 861 H 81.8974 4.90591 2.5303 0
M  V30 862 H 82.3744 3.26053 2.94255 0
M  V30 863 H 82.9804 4.00069 1.44307 0
M  V30 864 N 81.2955 -0.223234 1.56011 0
M  V30 865 C 82.5435 -0.946003 1.78592 0
M  V30 866 C 82.8645 -1.84936 0.618349 0
M  V30 867 O 82.1345 -1.92473 -0.364833 0
M  V30 868 H 80.7145 -0.352298 0.658707 0
M  V30 869 H 83.3765 -0.235494 1.93472 0
M  V30 870 H 82.4725 -1.55381 2.70672 0
M  V30 871 N 82.7736 -1.49793 -0.48987 0
M  V30 872 C 83.7236 -1.63673 -1.5873 0
M  V30 873 C 84.7076 -0.491956 -1.53195 0
M  V30 874 O 85.8996 -0.745461 -1.60536 0
M  V30 875 C 83.0286 -1.71689 -2.97284 0
M  V30 876 C 82.1146 -2.91781 -3.07774 0
M  V30 877 N 82.5056 -4.15714 -2.88124 0
M  V30 878 C 80.8036 -2.89949 -3.38889 0
M  V30 879 C 81.5046 -4.965 -3.03088 0
M  V30 880 N 80.4806 -4.30083 -3.3246 0
M  V30 881 H 84.2826 -2.57204 -1.42208 0
M  V30 882 H 81.7966 -1.46719 -0.69623 0
M  V30 883 H 83.7936 -1.79732 -3.76168 0
M  V30 884 H 82.4536 -0.793024 -3.14867 0
M  V30 885 H 83.4646 -4.45515 -2.64077 0
M  V30 886 H 80.1416 -2.06987 -3.62578 0
M  V30 887 H 81.5316 -6.04991 -2.92294 0
M  V30 888 N 84.2517 0.741722 -1.39055 0
M  V30 889 C 85.1817 1.869 -1.39966 0
M  V30 890 C 86.1627 1.6804 -0.26392 0
M  V30 891 O 87.3477 1.88458 -0.468755 0
M  V30 892 C 84.4777 3.24572 -1.23574 0
M  V30 893 C 83.4317 3.58056 -2.34477 0
M  V30 894 C 82.7577 4.94593 -2.0318 0
M  V30 895 C 84.0577 3.61716 -3.76774 0
M  V30 896 H 85.7517 1.86395 -2.34302 0
M  V30 897 H 83.2977 0.895361 -1.1278 0
M  V30 898 H 85.2507 4.031 -1.22834 0
M  V30 899 H 83.9747 3.25587 -0.257045 0
M  V30 900 H 82.6337 2.81854 -2.34423 0
M  V30 901 H 82.2817 4.92181 -1.03765 0
M  V30 902 H 81.9817 5.17964 -2.77465 0
M  V30 903 H 83.5057 5.75486 -2.04079 0
M  V30 904 H 84.9197 4.30335 -3.78794 0
M  V30 905 H 83.3167 3.96603 -4.50362 0
M  V30 906 H 84.3867 2.61672 -4.08235 0
M  V30 907 N 85.7298 1.2412 0.971189 0
M  V30 908 C 86.6798 0.997551 2.05019 0
M  V30 909 C 87.6638 -0.0597747 1.60789 0
M  V30 910 O 88.8558 0.153516 1.76333 0
M  V30 911 C 85.9848 0.600557 3.38006 0
M  V30 912 C 85.0708 1.69377 3.88809 0
M  V30 913 N 85.4618 2.92586 4.12586 0
M  V30 914 C 83.7598 1.57048 4.17435 0
M  V30 915 C 84.4608 3.63431 4.54195 0
M  V30 916 N 83.4368 2.90979 4.59165 0
M  V30 917 H 87.2388 1.93316 2.21374 0
M  V30 918 H 84.7528 1.14194 1.1547 0
M  V30 919 H 86.7498 0.40725 4.14906 0
M  V30 920 H 85.4098 -0.327903 3.2304 0
M  V30 921 H 86.4208 3.288 4.00139 0
M  V30 922 H 83.0978 0.709798 4.11422 0
M  V30 923 H 84.4878 4.69102 4.81033 0
M  V30 924 N 87.2079 -1.17134 1.05439 0
M  V30 925 C 88.6189 -1.69084 0.791676 0
M  V30 926 C 88.9699 -1.83822 -0.685839 0
M  V30 927 O 88.0949 -1.52757 -1.53278 0
M  V30 928 C 88.6899 -3.07119 1.4305 0
M  V30 929 C 87.2489 -3.56225 1.21577 0
M  V30 930 C 86.3959 -2.32421 1.51247 0
M  V30 931 H 89.3469 -1.01617 1.219 0
M  V30 932 H 89.3679 -3.71087 0.84112 0
M  V30 933 H 88.8799 -2.9636 2.50584 0
M  V30 934 H 86.9809 -3.72257 0.159787 0
M  V30 935 H 87.0939 -4.38837 1.92246 0
M  V30 936 H 85.4579 -2.3701 0.932653 0
M  V30 937 H 86.2409 -2.24268 2.5992 0
M  V30 938 N 88.686 -0.835752 -1.33615 0
M  V30 939 C 89.633 -0.26473 -2.29277 0
M  V30 940 C 90.603 0.617712 -1.54187 0
M  V30 941 O 91.788 0.556641 -1.825 0
M  V30 942 C 88.928 0.556777 -3.40579 0
M  V30 943 C 88.041 -0.349339 -4.30585 0
M  V30 944 C 87.176 0.482969 -5.29 0
M  V30 945 C 86.215 -0.421732 -6.10645 0
M  V30 946 N 85.352 0.372262 -7.01112 0
M  V30 947 H 90.192 -1.08582 -2.77514 0
M  V30 948 H 87.729 -0.546927 -1.36554 0
M  V30 949 H 89.687 1.04852 -4.03809 0
M  V30 950 H 88.317 1.34286 -2.93542 0
M  V30 951 H 87.369 -0.959372 -3.68104 0
M  V30 952 H 88.681 -1.04445 -4.87742 0
M  V30 953 H 87.835 1.03866 -5.97743 0
M  V30 954 H 86.574 1.21153 -4.72412 0
M  V30 955 H 85.579 -0.989464 -5.40823 0
M  V30 956 H 86.804 -1.14861 -6.69316 0
M  V30 957 H 84.75 1.08426 -6.46977 0
M  V30 958 H 84.667 -0.264198 -7.55538 0
M  V30 959 H 85.935 0.910293 -7.74167 0
M  V30 960 N 90.1641 1.46063 -0.591896 0
M  V30 961 C 91.4101 2.02638 -0.0811191 0
M  V30 962 C 91.7431 1.4613 1.27905 0
M  V30 963 O 91.0181 0.629908 1.84017 0
M  V30 964 C 91.3011 3.60091 -0.0252436 0
M  V30 965 C 91.1541 4.26965 -1.41496 0
M  V30 966 C 92.4731 4.3496 0.670685 0
M  V30 967 H 89.5921 0.73635 -0.0309524 0
M  V30 968 H 92.2341 1.741 -0.760859 0
M  V30 969 H 90.3841 3.84535 0.553624 0
M  V30 970 H 92.0561 4.13756 -2.0397 0
M  V30 971 H 90.2991 3.85971 -1.98011 0
M  V30 972 H 90.9701 5.35781 -1.32825 0
M  V30 973 H 93.4461 4.15716 0.178825 0
M  V30 974 H 92.3221 5.44686 0.678837 0
M  V30 975 H 92.5831 4.06685 1.73379 0
M  V30 976 N 91.6422 0.330177 1.54103 0
M  V30 977 C 92.8882 -0.270806 2.00984 0
M  V30 978 C 93.2212 -1.51265 1.21789 0
M  V30 979 O 92.4962 -1.92142 0.301927 0
M  V30 980 C 92.7792 -0.598339 3.55094 0
M  V30 981 C 92.6322 0.654674 4.4501 0
M  V30 982 C 93.9512 -1.41334 4.16789 0
M  V30 983 H 91.0702 -0.0969531 0.730595 0
M  V30 984 H 93.7122 0.448066 1.84641 0
M  V30 985 H 91.8622 -1.21078 3.69151 0
M  V30 986 H 93.5342 1.29285 4.42813 0
M  V30 987 H 91.7772 1.28224 4.14416 0
M  V30 988 H 92.4482 0.380944 5.50684 0
M  V30 989 H 94.9242 -0.895597 4.06347 0
M  V30 990 H 93.8002 -1.61127 5.24718 0
M  V30 991 H 94.0612 -2.41146 3.70541 0
M  V30 992 N 93.1203 -1.57491 0.0584922 0
M  V30 993 C 94.0833 -2.1085 -0.898617 0
M  V30 994 C 95.0833 -1.02964 -1.23511 0
M  V30 995 O 96.2733 -1.29007 -1.17059 0
M  V30 996 C 93.4053 -2.59881 -2.20623 0
M  V30 997 H 94.5983 -2.96715 -0.435936 0
M  V30 998 H 92.1513 -1.55141 -0.190023 0
M  V30 999 H 92.8863 -1.77431 -2.71457 0
M  V30 1000 H 92.6713 -3.38727 -1.97501 0
M  V30 1001 H 94.1613 -3.01285 -2.89166 0
M  V30 1002 N 94.5984 0.214957 -1.56127 0
M  V30 1003 C 95.5614 1.24997 -1.92116 0
M  V30 1004 C 96.5614 1.39467 -0.800344 0
M  V30 1005 O 97.7514 1.37619 -1.06802 0
M  V30 1006 C 94.8834 2.62271 -2.17777 0
M  V30 1007 H 96.0764 0.942875 -2.84693 0
M  V30 1008 H 93.6294 0.455654 -1.49511 0
M  V30 1009 H 94.3644 2.98068 -1.27773 0
M  V30 1010 H 94.1494 2.53143 -2.99434 0
M  V30 1011 H 95.6394 3.36946 -2.46693 0
M  V30 1012 N 96.0765 1.50051 0.48192 0
M  V30 1013 C 97.3225 1.60736 1.2366 0
M  V30 1014 C 97.6555 0.301786 1.91841 0
M  V30 1015 O 96.9305 -0.696025 1.8162 0
M  V30 1016 C 97.2135 2.78009 2.28874 0
M  V30 1017 C 97.0665 4.18416 1.65069 0
M  V30 1018 C 98.3855 2.90867 3.30279 0
M  V30 1019 H 95.5045 0.585031 0.448228 0
M  V30 1020 H 98.1465 1.82402 0.531946 0
M  V30 1021 H 96.2965 2.59667 2.88973 0
M  V30 1022 H 97.9685 4.48322 1.0865 0
M  V30 1023 H 96.2115 4.23177 0.954148 0
M  V30 1024 H 96.8825 4.96381 2.41474 0
M  V30 1025 H 99.3585 3.07623 2.80191 0
M  V30 1026 H 98.2345 3.74566 4.01238 0
M  V30 1027 H 98.4955 2.01021 3.93755 0
M  V30 1028 N 97.5546 -0.734337 1.39446 0
M  V30 1029 C 98.4646 -1.87879 1.40495 0
M  V30 1030 C 99.4806 -1.714 0.299672 0
M  V30 1031 O 100.657 -1.93991 0.541249 0
M  V30 1032 C 97.7216 -3.23477 1.24754 0
M  V30 1033 C 96.7826 -3.52344 2.45259 0
M  V30 1034 C 96.0156 -4.81473 2.30259 0
M  V30 1035 O 96.2386 -5.55237 1.30643 0
M  V30 1036 O 95.1726 -5.10254 3.19256 0
M  V30 1037 H 98.9986 -1.89949 2.36966 0
M  V30 1038 H 96.5836 -0.882243 1.20569 0
M  V30 1039 H 98.4656 -4.04509 1.18111 0
M  V30 1040 H 97.1406 -3.22176 0.313781 0
M  V30 1041 H 96.0476 -2.71396 2.57478 0
M  V30 1042 H 97.3806 -3.58426 3.37331 0
M  V30 1043 N 99.0327 -1.24633 -0.964593 0
M  V30 1044 C 99.9957 -1.0424 -2.04124 0
M  V30 1045 C 100.996 0.00137563 -1.608 0
M  V30 1046 O 102.186 -0.239883 -1.7254 0
M  V30 1047 C 99.3177 -0.580588 -3.3592 0
M  V30 1048 H 100.511 -1.99803 -2.23649 0
M  V30 1049 H 98.0637 -1.06899 -1.14027 0
M  V30 1050 H 98.7987 0.3781 -3.22088 0
M  V30 1051 H 98.5837 -1.33398 -3.6871 0
M  V30 1052 H 100.074 -0.459034 -4.15069 0
M  V30 1053 N 100.511 1.16574 -1.06058 0
M  V30 1054 C 101.443 2.2045 -0.627239 0
M  V30 1055 C 102.456 1.59752 0.313534 0
M  V30 1056 O 103.645 1.78192 0.104896 0
M  V30 1057 C 100.745 3.3875 0.100974 0
M  V30 1058 C 99.9178 4.29008 -0.852687 0
M  V30 1059 C 98.9768 5.25944 -0.164152 0
M  V30 1060 O 98.0028 5.63535 -0.801047 0
M  V30 1061 N 99.2048 5.70075 1.09518 0
M  V30 1062 H 101.97 2.58249 -1.52077 0
M  V30 1063 H 99.5308 1.3156 -0.943594 0
M  V30 1064 H 101.523 4.00638 0.57194 0
M  V30 1065 H 100.093 2.99476 0.89628 0
M  V30 1066 H 99.3128 3.64419 -1.50308 0
M  V30 1067 H 100.601 4.86195 -1.49972 0
M  V30 1068 H 99.9988 5.41624 1.6328 0
M  V30 1069 H 98.5558 6.34067 1.51006 0
M  V30 1070 N 101.989 0.842826 1.3317 0
M  V30 1071 C 102.919 0.294028 2.31641 0
M  V30 1072 C 103.9 -0.600401 1.59151 0
M  V30 1073 O 105.085 -0.523124 1.87022 0
M  V30 1074 C 102.215 -0.528416 3.43257 0
M  V30 1075 C 101.169 0.27056 4.27144 0
M  V30 1076 C 100.495 -0.675881 5.30411 0
M  V30 1077 C 101.795 1.48981 5.00602 0
M  V30 1078 H 103.489 1.11681 2.77791 0
M  V30 1079 H 101.035 0.538478 1.33553 0
M  V30 1080 H 102.988 -0.922674 4.11175 0
M  V30 1081 H 101.712 -1.38445 2.95805 0
M  V30 1082 H 100.371 0.646427 3.60856 0
M  V30 1083 H 100.019 -1.52842 4.79216 0
M  V30 1084 H 99.7189 -0.145374 5.8742 0
M  V30 1085 H 101.243 -1.06757 6.01195 0
M  V30 1086 H 102.657 1.16849 5.61266 0
M  V30 1087 H 101.054 1.95739 5.6728 0
M  V30 1088 H 102.124 2.25746 4.29147 0
M  V30 1089 N 103.467 -1.45747 0.599634 0
M  V30 1090 C 104.414 -2.30467 -0.123849 0
M  V30 1091 C 105.384 -1.41632 -0.86774 0
M  V30 1092 O 106.569 -1.70568 -0.855056 0
M  V30 1093 C 103.709 -3.26402 -1.12051 0
M  V30 1094 C 102.822 -4.3034 -0.37832 0
M  V30 1095 C 101.957 -5.13389 -1.364 0
M  V30 1096 C 100.996 -6.09061 -0.609171 0
M  V30 1097 N 100.133 -6.84918 -1.54374 0
M  V30 1098 H 104.973 -2.91802 0.604627 0
M  V30 1099 H 102.51 -1.43797 0.309972 0
M  V30 1100 H 104.468 -3.80482 -1.7114 0
M  V30 1101 H 103.098 -2.66839 -1.8165 0
M  V30 1102 H 102.15 -3.78984 0.327929 0
M  V30 1103 H 103.462 -4.98354 0.210997 0
M  V30 1104 H 102.616 -5.7183 -2.02719 0
M  V30 1105 H 101.355 -4.45376 -1.98725 0
M  V30 1106 H 100.36 -5.49758 0.0676979 0
M  V30 1107 H 101.585 -6.79099 0.00891991 0
M  V30 1108 H 99.531 -6.19601 -2.15478 0
M  V30 1109 H 99.448 -7.49254 -1.00766 0
M  V30 1110 H 100.716 -7.47906 -2.19676 0
M  V30 1111 N 104.945 -0.338344 -1.53925 0
M  V30 1112 C 105.892 0.520845 -2.24846 0
M  V30 1113 C 106.862 1.09976 -1.24477 0
M  V30 1114 O 108.047 1.13735 -1.53196 0
M  V30 1115 C 105.187 1.6685 -3.02084 0
M  V30 1116 C 104.3 1.11739 -4.17299 0
M  V30 1117 C 103.435 2.23193 -4.82036 0
M  V30 1118 C 102.474 1.65407 -5.89328 0
M  V30 1119 N 101.611 2.70582 -6.47866 0
M  V30 1120 H 106.451 -0.0904881 -2.97863 0
M  V30 1121 H 103.988 -0.0564282 -1.46992 0
M  V30 1122 H 105.946 2.34407 -3.45122 0
M  V30 1123 H 104.576 2.2509 -2.31375 0
M  V30 1124 H 103.628 0.332919 -3.7894 0
M  V30 1125 H 104.94 0.654677 -4.94485 0
M  V30 1126 H 104.094 2.98626 -5.28117 0
M  V30 1127 H 102.833 2.72807 -4.04262 0
M  V30 1128 H 101.838 0.884779 -5.42634 0
M  V30 1129 H 103.063 1.16652 -6.69006 0
M  V30 1130 H 101.009 3.1946 -5.72959 0
M  V30 1131 H 100.926 2.28917 -7.20509 0
M  V30 1132 H 102.194 3.45799 -6.98601 0
M  V30 1133 N 106.423 1.57458 -0.0668435 0
M  V30 1134 C 107.353 2.15468 0.899764 0
M  V30 1135 C 108.334 1.08042 1.31381 0
M  V30 1136 O 109.519 1.36054 1.38574 0
M  V30 1137 C 106.649 2.71232 2.16911 0
M  V30 1138 C 105.603 3.83781 1.89463 0
M  V30 1139 C 104.929 4.26127 3.22986 0
M  V30 1140 C 106.229 5.08238 1.20381 0
M  V30 1141 H 107.923 2.96488 0.416529 0
M  V30 1142 H 105.469 1.4262 0.198908 0
M  V30 1143 H 107.422 3.10458 2.84945 0
M  V30 1144 H 106.146 1.87426 2.67468 0
M  V30 1145 H 104.805 3.45051 1.23836 0
M  V30 1146 H 104.453 3.39249 3.71374 0
M  V30 1147 H 104.153 5.01993 3.05413 0
M  V30 1148 H 105.677 4.67966 3.92225 0
M  V30 1149 H 107.091 5.44811 1.78475 0
M  V30 1150 H 105.488 5.89349 1.13083 0
M  V30 1151 H 106.558 4.84558 0.182153 0
M  V30 1152 N 107.901 -0.206675 1.56239 0
M  V30 1153 C 109.126 -0.949474 1.8439 0
M  V30 1154 C 109.551 -1.76549 0.649016 0
M  V30 1155 O 108.909 -1.76782 -0.402231 0
M  V30 1156 C 108.957 -1.83078 3.10668 0
M  V30 1157 O 108.061 -2.9281 2.90407 0
M  V30 1158 H 107.402 -0.268033 0.607499 0
M  V30 1159 H 109.932 -0.215488 2.03462 0
M  V30 1160 H 109.942 -2.2377 3.41161 0
M  V30 1161 H 108.617 -1.23112 3.97261 0
M  V30 1162 H 107.194 -2.55956 2.71184 0
M  V30 1163 N 109.379 -1.50304 -0.473955 0
M  V30 1164 C 110.329 -1.65347 -1.56985 0
M  V30 1165 C 111.313 -0.508176 -1.52664 0
M  V30 1166 O 112.505 -0.762446 -1.59737 0
M  V30 1167 C 109.634 -1.74832 -2.95447 0
M  V30 1168 C 108.72 -2.95028 -3.04662 0
M  V30 1169 N 109.111 -4.18747 -2.83698 0
M  V30 1170 C 107.409 -2.93527 -3.35795 0
M  V30 1171 C 108.11 -4.99687 -2.97805 0
M  V30 1172 N 107.086 -4.33585 -3.2788 0
M  V30 1173 H 110.888 -2.58698 -1.39472 0
M  V30 1174 H 108.402 -1.47449 -0.680629 0
M  V30 1175 H 110.399 -1.83712 -3.7424 0
M  V30 1176 H 109.059 -0.826376 -3.14008 0
M  V30 1177 H 110.07 -4.48291 -2.59337 0
M  V30 1178 H 106.747 -2.10821 -3.60362 0
M  V30 1179 H 108.137 -6.08057 -2.85861 0
M  V30 1180 N 110.857 0.726932 -1.39834 0
M  V30 1181 C 112.085 1.51613 -1.40787 0
M  V30 1182 C 112.5 1.88799 -0.00451505 0
M  V30 1183 O 111.857 1.54662 0.968809 0
M  V30 1184 C 111.908 2.79863 -2.28821 0
M  V30 1185 O 111.629 2.44253 -3.63692 0
M  V30 1186 C 113.13 3.73837 -2.38245 0
M  V30 1187 H 110.35 0.468264 -0.480593 0
M  V30 1188 H 112.894 0.897607 -1.83748 0
M  V30 1189 H 111.049 3.38027 -1.89252 0
M  V30 1190 H 111.463 3.26695 -4.1033 0
M  V30 1191 H 112.937 4.60699 -3.04073 0
M  V30 1192 H 113.414 4.16153 -1.40403 0
M  V30 1193 H 114.02 3.21589 -2.78317 0
M  V30 1194 N 112.336 1.25143 0.95797 0
M  V30 1195 C 113.576 1.10893 1.71703 0
M  V30 1196 C 113.94 -0.34478 1.88879 0
M  V30 1197 O 115.141 -0.609014 2.6181 0
M  V30 1198 C 113.412 1.83889 3.06463 0
M  V30 1199 S 114.971 1.85491 3.97666 0
M  V30 1200 H 111.789 0.396428 0.590226 0
M  V30 1201 H 114.391 1.58618 1.14283 0
M  V30 1202 H 113.095 2.88756 2.9163 0
M  V30 1203 H 112.626 1.36538 3.68946 0
M  V30 1204 H 114.641 0.929553 4.87415 0
M  V30 1205 N 113.814 -1.1601 1.06675 0
M  V30 1206 C 115.061 -1.86633 0.785781 0
M  V30 1207 C 115.389 -1.81929 -0.687896 0
M  V30 1208 O 114.644 -1.23253 -1.52011 0
M  V30 1209 C 114.943 -3.35547 1.23057 0
M  V30 1210 C 114.609 -3.60448 2.70902 0
M  V30 1211 C 113.271 -3.66954 3.11285 0
M  V30 1212 C 115.623 -3.7071 3.66365 0
M  V30 1213 C 112.951 -3.81225 4.45965 0
M  V30 1214 C 115.303 -3.86503 5.00797 0
M  V30 1215 C 113.967 -3.91252 5.40813 0
M  V30 1216 H 113.237 -0.682937 0.287538 0
M  V30 1217 H 115.884 -1.37146 1.33654 0
M  V30 1218 H 114.189 -3.87193 0.59907 0
M  V30 1219 H 115.886 -3.88583 0.990163 0
M  V30 1220 H 112.476 -3.56021 2.38636 0
M  V30 1221 H 116.66 -3.64991 3.36296 0
M  V30 1222 H 111.916 -3.83155 4.76447 0
M  V30 1223 H 116.09 -3.93385 5.74649 0
M  V30 1224 H 113.717 -4.02062 6.45174 0
M  V30 1225 N 115.292 -0.849877 -1.32721 0
M  V30 1226 C 116.224 -0.248332 -2.27851 0
M  V30 1227 C 117.237 0.577218 -1.52224 0
M  V30 1228 O 118.426 0.402489 -1.73903 0
M  V30 1229 C 115.526 0.668107 -3.32249 0
M  V30 1230 C 114.699 -0.120534 -4.37234 0
M  V30 1231 C 113.758 0.720932 -5.21238 0
M  V30 1232 O 112.784 0.156166 -5.68986 0
M  V30 1233 N 113.986 2.03647 -5.43607 0
M  V30 1234 H 116.751 -1.06575 -2.80111 0
M  V30 1235 H 114.312 -0.709395 -1.45531 0
M  V30 1236 H 116.304 1.23627 -3.85355 0
M  V30 1237 H 114.874 1.38621 -2.80184 0
M  V30 1238 H 114.094 -0.870108 -3.84477 0
M  V30 1239 H 115.382 -0.662406 -5.0447 0
M  V30 1240 H 114.78 2.51871 -5.06535 0
M  V30 1241 H 113.337 2.55287 -5.99727 0
M  V30 1242 N 116.77 1.45427 -0.607355 0
M  V30 1243 C 118.016 2.0254 -0.102607 0
M  V30 1244 C 118.349 1.47478 1.26348 0
M  V30 1245 O 117.624 0.64939 1.83339 0
M  V30 1246 C 117.907 3.60044 -0.0634347 0
M  V30 1247 C 117.76 4.2544 -1.46017 0
M  V30 1248 C 119.079 4.35646 0.624514 0
M  V30 1249 H 116.198 0.73598 -0.0387607 0
M  V30 1250 H 118.84 1.73284 -0.779282 0
M  V30 1251 H 116.99 3.85101 0.512808 0
M  V30 1252 H 118.662 4.11569 -2.08347 0
M  V30 1253 H 116.905 3.83849 -2.02094 0
M  V30 1254 H 117.576 5.34342 -1.385 0
M  V30 1255 H 120.052 4.15882 0.134723 0
M  V30 1256 H 118.928 5.45376 0.621028 0
M  V30 1257 H 119.189 4.08501 1.69055 0
M  V30 1258 N 118.248 0.346503 1.53744 0
M  V30 1259 C 119.178 -0.501193 2.28058 0
M  V30 1260 C 120.159 -1.10014 1.29734 0
M  V30 1261 O 121.344 -1.12097 1.58581 0
M  V30 1262 C 118.474 -1.65078 3.05559 0
M  V30 1263 C 117.428 -1.18003 4.11411 0
M  V30 1264 C 116.754 -2.41837 4.76884 0
M  V30 1265 C 118.054 -0.278394 5.21558 0
M  V30 1266 H 119.748 0.11875 2.99164 0
M  V30 1267 H 117.294 0.0585531 1.43881 0
M  V30 1268 H 119.247 -2.25028 3.56287 0
M  V30 1269 H 117.971 -2.29767 2.32109 0
M  V30 1270 H 116.63 -0.603331 3.61601 0
M  V30 1271 H 116.278 -3.0494 4.00026 0
M  V30 1272 H 115.978 -2.1102 5.48402 0
M  V30 1273 H 117.502 -3.02508 5.30397 0
M  V30 1274 H 118.916 -0.784823 5.67903 0
M  V30 1275 H 117.313 -0.0619707 6.00068 0
M  V30 1276 H 118.383 0.684677 4.80042 0
M  V30 1277 N 119.726 -1.57421 0.075193 0
M  V30 1278 C 120.689 -2.11791 -0.876203 0
M  V30 1279 C 121.689 -1.04268 -1.22412 0
M  V30 1280 O 122.879 -1.30242 -1.15684 0
M  V30 1281 C 120.011 -2.62207 -2.17854 0
M  V30 1282 H 121.204 -2.9716 -0.40444 0
M  V30 1283 H 118.757 -1.55333 -0.173557 0
M  V30 1284 H 119.492 -1.803 -2.6956 0
M  V30 1285 H 119.277 -3.40802 -1.93897 0
M  V30 1286 H 120.767 -3.04335 -2.85955 0
M  V30 1287 N 121.204 0.198386 -1.56346 0
M  V30 1288 C 122.434 0.934215 -1.84271 0
M  V30 1289 C 122.842 1.77496 -0.655125 0
M  V30 1290 O 122.185 1.7961 0.385488 0
M  V30 1291 C 122.247 1.88278 -3.06254 0
M  V30 1292 C 121.911 1.22431 -4.40295 0
M  V30 1293 C 122.908 0.602839 -5.16393 0
M  V30 1294 C 120.593 1.22915 -4.87029 0
M  V30 1295 C 122.587 -0.0050083 -6.374 0
M  V30 1296 C 120.274 0.617465 -6.07973 0
M  V30 1297 C 121.272 0.00146341 -6.83 0
M  V30 1298 O 120.96 -0.600642 -8.01653 0
M  V30 1299 H 120.692 0.278245 -0.616081 0
M  V30 1300 H 123.246 0.211626 -2.04307 0
M  V30 1301 H 121.476 2.64498 -2.82095 0
M  V30 1302 H 123.165 2.48612 -3.20853 0
M  V30 1303 H 123.931 0.591265 -4.81382 0
M  V30 1304 H 119.81 1.69801 -4.28589 0
M  V30 1305 H 123.354 -0.48643 -6.95902 0
M  V30 1306 H 119.251 0.62653 -6.42452 0
M  V30 1307 H 120.019 -0.497225 -8.16988 0
M  V30 1308 N 122.682 1.50554 0.465978 0
M  V30 1309 C 123.592 1.72585 1.58907 0
M  V30 1310 C 124.608 0.60911 1.6299 0
M  V30 1311 O 125.784 0.88804 1.80765 0
M  V30 1312 C 122.849 1.81995 2.95091 0
M  V30 1313 C 121.91 3.05751 3.01355 0
M  V30 1314 C 121.143 3.14702 4.31043 0
M  V30 1315 O 121.366 2.30313 5.21835 0
M  V30 1316 O 120.3 4.07468 4.43005 0
M  V30 1317 H 124.126 2.67799 1.43239 0
M  V30 1318 H 121.711 1.34711 0.646013 0
M  V30 1319 H 123.593 1.90335 3.75966 0
M  V30 1320 H 122.268 0.899659 3.10947 0
M  V30 1321 H 121.175 3.02908 2.19539 0
M  V30 1322 H 122.508 3.97375 2.90437 0
M  V30 1323 N 124.16 -0.719506 1.40217 0
M  V30 1324 C 125.571 -1.29848 1.34151 0
M  V30 1325 C 125.922 -1.96196 0.0131349 0
M  V30 1326 O 125.047 -1.973 -0.88892 0
M  V30 1327 C 125.642 -2.36118 2.42968 0
M  V30 1328 C 124.201 -2.8965 2.40374 0
M  V30 1329 C 123.348 -1.63393 2.24049 0
M  V30 1330 H 126.299 -0.51591 1.5008 0
M  V30 1331 H 126.32 -3.16871 2.10649 0
M  V30 1332 H 125.832 -1.878 3.39636 0
M  V30 1333 H 123.933 -3.42208 1.47392 0
M  V30 1334 H 124.046 -3.4171 3.35814 0
M  V30 1335 H 122.41 -1.88312 1.71495 0
M  V30 1336 H 123.193 -1.17104 3.2271 0
M  V30 1337 N 125.638 -1.25649 -0.95132 0
M  V30 1338 C 126.868 -1.13179 -1.72841 0
M  V30 1339 C 127.276 0.316827 -1.86528 0
M  V30 1340 O 126.619 1.22948 -1.3649 0
M  V30 1341 C 126.681 -1.71644 -3.15878 0
M  V30 1342 C 126.345 -3.20667 -3.25609 0
M  V30 1343 C 127.342 -4.17616 -3.09666 0
M  V30 1344 C 125.027 -3.6094 -3.49324 0
M  V30 1345 C 127.021 -5.52817 -3.17289 0
M  V30 1346 C 124.708 -4.96278 -3.56584 0
M  V30 1347 C 125.706 -5.92025 -3.40581 0
M  V30 1348 O 125.394 -7.24899 -3.47528 0
M  V30 1349 H 125.126 -0.395389 -0.54831 0
M  V30 1350 H 127.68 -1.66566 -1.20187 0
M  V30 1351 H 125.91 -1.12707 -3.69911 0
M  V30 1352 H 127.599 -1.54225 -3.75459 0
M  V30 1353 H 128.365 -3.87842 -2.91211 0
M  V30 1354 H 124.244 -2.86907 -3.6084 0
M  V30 1355 H 127.788 -6.2753 -3.04716 0
M  V30 1356 H 123.685 -5.25716 -3.74556 0
M  V30 1357 H 124.453 -7.33039 -3.64138 0
M  V30 1358 N 127.117 1.15442 -1.07289 0
M  V30 1359 C 128.047 2.22312 -0.714107 0
M  V30 1360 C 129.028 1.67467 0.298155 0
M  V30 1361 O 130.213 1.93445 0.171048 0
M  V30 1362 C 127.343 3.47124 -0.110448 0
M  V30 1363 C 126.297 4.14926 -1.04979 0
M  V30 1364 C 125.623 5.33807 -0.308924 0
M  V30 1365 C 126.923 4.64762 -2.38314 0
M  V30 1366 H 128.617 2.5258 -1.6076 0
M  V30 1367 H 126.163 1.21404 -0.77441 0
M  V30 1368 H 128.116 4.21124 0.152482 0
M  V30 1369 H 126.84 3.16187 0.81812 0
M  V30 1370 H 125.499 3.42866 -1.29764 0
M  V30 1371 H 125.147 4.99126 0.623084 0
M  V30 1372 H 124.847 5.80113 -0.935036 0
M  V30 1373 H 126.371 6.10576 -0.0537771 0
M  V30 1374 H 127.785 5.30292 -2.1786 0
M  V30 1375 H 126.182 5.21728 -2.96514 0
M  V30 1376 H 127.252 3.80434 -3.00663 0
M  V30 1377 N 128.595 0.856903 1.32268 0
M  V30 1378 C 129.505 0.306131 2.32594 0
M  V30 1379 C 130.521 -0.577209 1.64147 0
M  V30 1380 O 131.697 -0.477043 1.95669 0
M  V30 1381 C 128.762 -0.494561 3.43154 0
M  V30 1382 C 127.823 0.415186 4.27288 0
M  V30 1383 C 127.056 -0.347387 5.32568 0
M  V30 1384 O 127.279 -1.57708 5.48165 0
M  V30 1385 O 126.213 0.287982 6.01211 0
M  V30 1386 H 130.039 1.13737 2.81598 0
M  V30 1387 H 127.624 0.619902 1.35932 0
M  V30 1388 H 129.506 -0.948944 4.10576 0
M  V30 1389 H 128.181 -1.30257 2.96336 0
M  V30 1390 H 127.088 0.917793 3.62667 0
M  V30 1391 H 128.421 1.18844 4.77637 0
M  V30 1392 N 130.073 -1.45103 0.615059 0
M  V30 1393 C 131.003 -2.33339 -0.0865619 0
M  V30 1394 C 131.984 -1.4727 -0.851209 0
M  V30 1395 O 133.169 -1.76026 -0.820281 0
M  V30 1396 C 130.299 -3.30095 -1.07956 0
M  V30 1397 C 129.253 -4.25858 -0.427628 0
M  V30 1398 C 128.579 -5.12361 -1.5294 0
M  V30 1399 C 129.879 -5.18165 0.655944 0
M  V30 1400 H 131.573 -2.92254 0.650224 0
M  V30 1401 H 129.119 -1.40532 0.314138 0
M  V30 1402 H 131.072 -3.90698 -1.57901 0
M  V30 1403 H 129.796 -2.69355 -1.84703 0
M  V30 1404 H 128.455 -3.66564 0.0510292 0
M  V30 1405 H 128.103 -4.47984 -2.28734 0
M  V30 1406 H 127.803 -5.77238 -1.09865 0
M  V30 1407 H 129.327 -5.75833 -2.03098 0
M  V30 1408 H 130.741 -5.72796 0.240257 0
M  V30 1409 H 129.138 -5.91559 1.00888 0
M  V30 1410 H 130.208 -4.60144 1.52957 0
M  V30 1411 N 131.551 -0.354651 -1.53558 0
M  V30 1412 C 132.791 0.238651 -2.03002 0
M  V30 1413 C 133.155 1.46878 -1.23656 0
M  V30 1414 O 134.356 2.13699 -1.63053 0
M  V30 1415 C 132.627 0.534175 -3.53386 0
M  V30 1416 S 134.186 1.10271 -4.24719 0
M  V30 1417 H 131.004 0.0702908 -0.707517 0
M  V30 1418 H 133.606 -0.494987 -1.8913 0
M  V30 1419 H 132.31 -0.368765 -4.0874 0
M  V30 1420 H 131.841 1.29718 -3.71398 0
M  V30 1421 H 133.856 2.38772 -4.34974 0
M  V30 1422 N 133.029 1.57378 -0.0835403 0
M  V30 1423 C 133.939 2.16897 0.894021 0
M  V30 1424 C 134.955 1.13528 1.31861 0
M  V30 1425 O 136.131 1.45848 1.3889 0
M  V30 1426 C 133.196 2.72831 2.13925 0
M  V30 1427 C 132.257 3.91115 1.76997 0
M  V30 1428 C 131.49 4.44371 2.95584 0
M  V30 1429 O 131.713 3.96596 4.09961 0
M  V30 1430 O 130.647 5.35549 2.74719 0
M  V30 1431 H 134.473 3.00814 0.417679 0
M  V30 1432 H 132.058 1.48741 0.140181 0
M  V30 1433 H 133.94 3.0863 2.86924 0
M  V30 1434 H 132.615 1.91967 2.60635 0
M  V30 1435 H 131.522 3.60148 1.01214 0
M  V30 1436 H 132.855 4.73307 1.3506 0
M  V30 1437 N 134.507 -0.190092 1.56449 0
M  V30 1438 C 135.756 -0.907912 1.80111 0
M  V30 1439 C 136.069 -1.84214 0.657619 0
M  V30 1440 O 137.275 -2.60094 0.778663 0
M  V30 1441 C 135.731 -1.66485 3.19078 0
M  V30 1442 C 135.339 -0.7752 4.41242 0
M  V30 1443 C 137.083 -2.37201 3.52045 0
M  V30 1444 C 134.99 -1.53129 5.71231 0
M  V30 1445 H 133.92 -0.34276 0.671589 0
M  V30 1446 H 136.571 -0.161109 1.82791 0
M  V30 1447 H 134.953 -2.45572 3.10661 0
M  V30 1448 H 136.127 -0.0226298 4.60794 0
M  V30 1449 H 134.442 -0.178627 4.16017 0
M  V30 1450 H 137.039 -2.94329 4.46402 0
M  V30 1451 H 137.382 -3.11632 2.76028 0
M  V30 1452 H 137.915 -1.65075 3.61932 0
M  V30 1453 H 134.654 -0.82967 6.50228 0
M  V30 1454 H 134.174 -2.25767 5.55688 0
M  V30 1455 H 135.853 -2.08377 6.12526 0
M  V30 1456 N 135.985 -1.50799 -0.457987 0
M  V30 1457 C 136.918 -1.65273 -1.57353 0
M  V30 1458 C 137.896 -0.500578 -1.54703 0
M  V30 1459 O 139.08 -0.721781 -1.74134 0
M  V30 1460 C 136.207 -1.64737 -2.95938 0
M  V30 1461 C 135.253 -2.8567 -3.16693 0
M  V30 1462 S 136.086 -4.46791 -2.95191 0
M  V30 1463 C 137.242 -4.48968 -4.36095 0
M  V30 1464 H 137.475 -2.59633 -1.44838 0
M  V30 1465 H 135.008 -1.40225 -0.64625 0
M  V30 1466 H 136.966 -1.65112 -3.7583 0
M  V30 1467 H 135.627 -0.715899 -3.05833 0
M  V30 1468 H 134.82 -2.81637 -4.17967 0
M  V30 1469 H 134.422 -2.8293 -2.44594 0
M  V30 1470 H 136.714 -4.23337 -5.28954 0
M  V30 1471 H 137.657 -5.50664 -4.45168 0
M  V30 1472 H 138.065 -3.78522 -4.18786 0
M  V30 1473 N 137.463 0.71206 -1.40597 0
M  V30 1474 C 138.411 1.84746 -1.41321 0
M  V30 1475 C 139.405 1.66842 -0.293268 0
M  V30 1476 O 140.611 1.73904 -0.464481 0
M  V30 1477 H 136.986 0.608522 -0.441819 0
M  V30 1478 H 138.957 1.81252 -2.37045 0
M  V30 1479 C 137.706 3.22638 -1.29614 0
M  V30 1480 H 137.029 3.37023 -2.15071 0
M  V30 1481 H 138.469 4.02209 -1.3418 0
M  V30 1482 C 136.928 3.36899 -0.00673121 0
M  V30 1483 O 137.458 3.90186 0.954859 0
M  V30 1484 N 135.664 2.9053 0.0639327 0
M  V30 1485 H 135.211 2.47353 -0.719311 0
M  V30 1486 H 135.169 3.0045 0.926118 0
M  V30 1487 N 138.941 1.26152 0.944643 0
M  V30 1488 C 139.873 1.03199 2.04652 0
M  V30 1489 C 140.886 -0.00642356 1.62799 0
M  V30 1490 O 142.075 0.233263 1.76969 0
M  V30 1491 C 139.175 0.540111 3.34568 0
M  V30 1492 C 138.348 1.64697 4.05208 0
M  V30 1493 C 137.407 1.15374 5.13396 0
M  V30 1494 O 136.433 1.85013 5.38293 0
M  V30 1495 N 137.635 0.00031529 5.805 0
M  V30 1496 H 140.4 1.9808 2.2491 0
M  V30 1497 H 137.961 1.17491 1.11389 0
M  V30 1498 H 139.953 0.194401 4.04233 0
M  V30 1499 H 138.523 -0.315021 3.11009 0
M  V30 1500 H 137.743 2.16379 3.29506 0
M  V30 1501 H 139.031 2.3903 4.49157 0
M  V30 1502 H 138.429 -0.581336 5.62705 0
M  V30 1503 H 136.986 -0.286346 6.51171 0
M  V30 1504 N 140.419 -1.14872 1.07899 0
M  V30 1505 C 141.366 -2.19791 0.704319 0
M  V30 1506 C 142.336 -1.63238 -0.306987 0
M  V30 1507 O 143.521 -1.8983 -0.192171 0
M  V30 1508 C 140.661 -3.44911 0.114244 0
M  V30 1509 C 139.774 -4.15637 1.1777 0
M  V30 1510 C 138.909 -5.28324 0.552037 0
M  V30 1511 C 137.948 -5.90875 1.59789 0
M  V30 1512 N 137.085 -6.95022 0.994404 0
M  V30 1513 H 141.925 -2.5119 1.60336 0
M  V30 1514 H 139.462 -1.23356 0.801352 0
M  V30 1515 H 141.42 -4.16477 -0.245544 0
M  V30 1516 H 140.05 -3.14011 -0.74813 0
M  V30 1517 H 139.102 -3.42512 1.65499 0
M  V30 1518 H 140.414 -4.5823 1.97046 0
M  V30 1519 H 139.568 -6.06538 0.1402 0
M  V30 1520 H 138.307 -4.86939 -0.272431 0
M  V30 1521 H 137.312 -5.11369 2.01945 0
M  V30 1522 H 138.537 -6.34337 2.42474 0
M  V30 1523 H 136.483 -6.55722 0.190939 0
M  V30 1524 H 136.4 -7.36073 1.72432 0
M  V30 1525 H 137.668 -7.77123 0.608253 0
M  V30 1526 N 141.898 -0.863906 -1.31812 0
M  V30 1527 C 143.144 -0.472535 -1.97218 0
M  V30 1528 C 143.477 0.971394 -1.68159 0
M  V30 1529 O 142.752 1.68309 -0.974798 0
M  V30 1530 C 143.035 -0.723054 -3.52766 0
M  V30 1531 C 142.888 -2.21608 -3.91421 0
M  V30 1532 C 144.207 -0.185522 -4.39709 0
M  V30 1533 H 141.326 -0.173158 -0.71637 0
M  V30 1534 H 143.968 -1.08403 -1.56041 0
M  V30 1535 H 142.118 -0.202577 -3.87971 0
M  V30 1536 H 143.79 -2.80334 -3.66347 0
M  V30 1537 H 142.033 -2.691 -3.40246 0
M  V30 1538 H 142.704 -2.34203 -4.99853 0
M  V30 1539 H 145.18 -0.630726 -4.11292 0
M  V30 1540 H 144.056 -0.390306 -5.47511 0
M  V30 1541 H 144.317 0.912229 -4.32586 0
M  V30 1542 N 143.376 1.44774 -0.622745 0
M  V30 1543 C 144.787 1.85546 -0.207226 0
M  V30 1544 C 145.138 1.52093 1.23944 0
M  V30 1545 O 144.263 0.95492 1.94191 0
M  V30 1546 C 144.858 3.36781 -0.369313 0
M  V30 1547 C 143.417 3.76399 -0.00836847 0
M  V30 1548 C 142.564 2.68664 -0.686651 0
M  V30 1549 H 145.515 1.3536 -0.828454 0
M  V30 1550 H 145.536 3.78453 0.394162 0
M  V30 1551 H 145.048 3.61098 -1.42231 0
M  V30 1552 H 143.149 3.57698 1.04322 0
M  V30 1553 H 143.262 4.7732 -0.412584 0
M  V30 1554 H 141.626 2.54404 -0.122777 0
M  V30 1555 H 142.409 2.95815 -1.74208 0
M  V30 1556 N 144.854 0.36279 1.53368 0
M  V30 1557 C 146.102 -0.227326 2.00817 0
M  V30 1558 C 146.423 -1.49511 1.25186 0
M  V30 1559 O 145.693 -1.92482 0.364348 0
M  V30 1560 H 144.273 -0.0869923 0.741917 0
M  V30 1561 H 146.935 0.488381 1.88682 0
M  V30 1562 H 146.031 -0.456273 3.08747 0
M  V30 1563 N 146.332 -1.57332 0.0918853 0
M  V30 1564 C 147.609 -1.85691 -0.614668 0
M  V30 1565 C 147.989 -0.988146 -1.86545 0
M  V30 1566 O 147.337 -0.0597055 -2.28422 0
M  V30 1567 C 147.547 -3.36294 -0.933126 0
M  V30 1568 C 148.895 -4.04275 -1.29796 0
M  V30 1569 O 149.919 -3.41157 -1.02424 0
M  V30 1570 O 148.778 -5.1564 -1.81047 0
M  V30 1571 H 145.872 -0.767802 -0.307261 0
M  V30 1572 H 148.418 -1.69244 0.12434 0
M  V30 1573 H 147.19 -3.91273 -0.0456404 0
M  V30 1574 H 146.813 -3.58076 -1.72822 0
M  V30 1575 N 147.81 0.181792 -1.56548 0
M  V30 1576 C 149.057 0.900097 -1.81396 0
M  V30 1577 C 149.385 1.82695 -0.667281 0
M  V30 1578 O 148.64 1.92614 0.346146 0
M  V30 1579 C 148.939 1.73728 -3.12335 0
M  V30 1580 C 148.605 0.960255 -4.40556 0
M  V30 1581 C 147.267 0.745766 -4.75386 0
M  V30 1582 C 149.619 0.414477 -5.19549 0
M  V30 1583 C 146.947 -0.0257694 -5.86694 0
M  V30 1584 C 149.299 -0.343916 -6.31664 0
M  V30 1585 C 147.963 -0.569301 -6.65068 0
M  V30 1586 H 147.233 0.329369 -0.663775 0
M  V30 1587 H 149.88 0.165647 -1.90782 0
M  V30 1588 H 148.185 2.54081 -2.98245 0
M  V30 1589 H 149.882 2.29591 -3.28769 0
M  V30 1590 H 146.472 1.13746 -4.13231 0
M  V30 1591 H 150.656 0.567554 -4.93044 0
M  V30 1592 H 145.912 -0.210233 -6.11038 0
M  V30 1593 H 150.086 -0.774133 -6.92084 0
M  V30 1594 H 147.713 -1.16903 -7.51158 0
M  V30 1595 N 149.288 1.51039 0.449983 0
M  V30 1596 C 150.251 1.70863 1.5277 0
M  V30 1597 C 151.251 0.578846 1.5002 0
M  V30 1598 O 152.441 0.846213 1.52266 0
M  V30 1599 C 149.573 1.75341 2.9235 0
M  V30 1600 H 150.766 2.67034 1.36502 0
M  V30 1601 H 148.319 1.40838 0.677812 0
M  V30 1602 H 149.054 0.809383 3.14037 0
M  V30 1603 H 148.839 2.57436 2.95752 0
M  V30 1604 H 150.329 1.92559 3.70555 0
M  V30 1605 N 150.766 -0.704594 1.40972 0
M  V30 1606 C 151.713 -1.81862 1.42109 0
M  V30 1607 C 152.683 -1.63781 0.276593 0
M  V30 1608 O 153.868 -1.84759 0.4763 0
M  V30 1609 C 151.008 -3.19669 1.30022 0
M  V30 1610 C 150.121 -3.49246 2.54267 0
M  V30 1611 C 149.256 -4.76618 2.3454 0
M  V30 1612 C 148.295 -4.99133 3.54306 0
M  V30 1613 N 147.432 -6.17726 3.33706 0
M  V30 1614 H 152.272 -1.80226 2.37324 0
M  V30 1615 H 149.809 -0.880238 1.17857 0
M  V30 1616 H 151.767 -3.99263 1.21018 0
M  V30 1617 H 150.397 -3.20506 0.384192 0
M  V30 1618 H 149.449 -2.64125 2.73756 0
M  V30 1619 H 150.761 -3.61788 3.43381 0
M  V30 1620 H 149.915 -5.64249 2.22952 0
M  V30 1621 H 148.654 -4.66305 1.42867 0
M  V30 1622 H 147.659 -4.09953 3.66359 0
M  V30 1623 H 148.884 -5.11311 4.4692 0
M  V30 1624 H 146.83 -6.08642 2.44725 0
M  V30 1625 H 146.747 -6.30995 4.16391 0
M  V30 1626 H 148.015 -7.08115 3.25873 0
M  V30 1627 N 152.244 -1.26651 -0.937939 0
M  V30 1628 C 153.191 -1.0849 -2.03712 0
M  V30 1629 C 154.161 0.011033 -1.66096 0
M  V30 1630 O 155.346 -0.149353 -1.90215 0
M  V30 1631 C 152.486 -0.72735 -3.37348 0
M  V30 1632 C 151.599 -1.89986 -3.87981 0
M  V30 1633 C 150.734 -1.48513 -5.10017 0
M  V30 1634 C 149.773 -2.62575 -5.5292 0
M  V30 1635 N 148.91 -2.21762 -6.66158 0
M  V30 1636 H 153.75 -2.02551 -2.18579 0
M  V30 1637 H 151.287 -1.00844 -1.07093 0
M  V30 1638 H 153.245 -0.50092 -4.14182 0
M  V30 1639 H 151.875 0.176298 -3.22318 0
M  V30 1640 H 150.927 -2.23913 -3.07518 0
M  V30 1641 H 152.239 -2.75586 -4.15757 0
M  V30 1642 H 151.393 -1.21934 -5.94321 0
M  V30 1643 H 150.132 -0.60009 -4.83994 0
M  V30 1644 H 149.137 -2.8988 -4.67172 0
M  V30 1645 H 150.362 -3.51685 -5.80943 0
M  V30 1646 H 148.308 -1.35696 -6.41812 0
M  V30 1647 H 148.225 -3.00903 -6.93537 0
M  V30 1648 H 149.493 -1.98403 -7.53828 0
M  V30 1649 N 153.722 1.14298 -1.08507 0
M  V30 1650 C 154.95 1.89219 -0.836876 0
M  V30 1651 C 155.365 1.78638 0.611054 0
M  V30 1652 O 154.722 1.14643 1.41998 0
M  V30 1653 C 154.773 3.39158 -1.25116 0
M  V30 1654 O 154.494 3.49449 -2.64229 0
M  V30 1655 C 155.995 4.31073 -1.03398 0
M  V30 1656 H 153.215 0.599328 -0.301739 0
M  V30 1657 H 155.759 1.44746 -1.44461 0
M  V30 1658 H 153.914 3.81251 -0.687514 0
M  V30 1659 H 154.328 4.42589 -2.81452 0
M  V30 1660 H 155.802 5.34646 -1.37323 0
M  V30 1661 H 156.279 4.3919 0.0289259 0
M  V30 1662 H 156.885 3.94738 -1.58311 0
M  V30 1663 N 155.201 0.870884 1.31352 0
M  V30 1664 C 156.131 0.343096 2.30966 0
M  V30 1665 C 157.112 -0.566507 1.60389 0
M  V30 1666 O 158.297 -0.483336 1.88089 0
M  V30 1667 C 155.427 -0.455487 3.443 0
M  V30 1668 C 154.381 0.361103 4.26474 0
M  V30 1669 C 153.707 -0.563221 5.31725 0
M  V30 1670 C 155.007 1.59566 4.97329 0
M  V30 1671 H 156.701 1.17548 2.75359 0
M  V30 1672 H 154.247 0.566686 1.32381 0
M  V30 1673 H 156.2 -0.83525 4.13039 0
M  V30 1674 H 154.924 -1.32139 2.98675 0
M  V30 1675 H 153.583 0.722825 3.59403 0
M  V30 1676 H 153.231 -1.42643 4.82351 0
M  V30 1677 H 152.931 -0.0207409 5.87596 0
M  V30 1678 H 154.455 -0.939808 6.03324 0
M  V30 1679 H 155.869 1.28728 5.58661 0
M  V30 1680 H 154.266 2.07728 5.63 0
M  V30 1681 H 155.336 2.34798 4.24262 0
M  V30 1682 N 156.679 -1.44442 0.630414 0
M  V30 1683 C 157.609 -2.33418 -0.0618083 0
M  V30 1684 C 158.59 -1.48165 -0.835541 0
M  V30 1685 O 159.775 -1.76886 -0.801564 0
M  V30 1686 C 156.905 -3.31222 -1.04449 0
M  V30 1687 C 155.859 -4.26288 -0.382436 0
M  V30 1688 C 155.185 -5.13954 -1.47497 0
M  V30 1689 C 156.485 -5.1744 0.710865 0
M  V30 1690 H 158.179 -2.91548 0.681184 0
M  V30 1691 H 155.725 -1.40191 0.329026 0
M  V30 1692 H 157.678 -3.92351 -1.53748 0
M  V30 1693 H 156.402 -2.71299 -1.81836 0
M  V30 1694 H 155.061 -3.6649 0.0899054 0
M  V30 1695 H 154.709 -4.50385 -2.2397 0
M  V30 1696 H 154.409 -5.7837 -1.03737 0
M  V30 1697 H 155.933 -5.77955 -1.96979 0
M  V30 1698 H 157.347 -5.72509 0.300996 0
M  V30 1699 H 155.744 -5.90455 1.07156 0
M  V30 1700 H 156.814 -4.58496 1.57829 0
M  V30 1701 N 158.157 -0.370918 -1.53173 0
M  V30 1702 C 159.403 0.217423 -2.01631 0
M  V30 1703 C 159.736 1.47983 -1.25756 0
M  V30 1704 O 159.011 1.91274 -0.352764 0
M  V30 1705 C 159.294 0.503982 -3.56556 0
M  V30 1706 C 159.147 -0.77243 -4.43118 0
M  V30 1707 C 160.466 1.30234 -4.20389 0
M  V30 1708 H 157.585 0.0775486 -0.732909 0
M  V30 1709 H 160.227 -0.496863 -1.83388 0
M  V30 1710 H 158.377 1.11248 -3.72231 0
M  V30 1711 H 160.049 -1.4098 -4.39229 0
M  V30 1712 H 158.292 -1.39167 -4.10871 0
M  V30 1713 H 158.963 -0.526815 -5.4948 0
M  V30 1714 H 161.439 0.787546 -4.08579 0
M  V30 1715 H 160.315 1.47158 -5.28806 0
M  V30 1716 H 160.576 2.31237 -3.76805 0
M  V30 1717 N 159.635 1.57281 -0.100228 0
M  V30 1718 C 160.863 1.98879 0.570509 0
M  V30 1719 C 161.278 0.979476 1.61405 0
M  V30 1720 O 160.635 -0.0302288 1.82475 0
M  V30 1721 C 160.686 3.4052 1.2136 0
M  V30 1722 O 160.407 4.37588 0.211786 0
M  V30 1723 C 161.908 3.97149 1.96945 0
M  V30 1724 H 159.128 0.653428 0.152555 0
M  V30 1725 H 161.672 2.03697 -0.18103 0
M  V30 1726 H 159.827 3.367 1.91603 0
M  V30 1727 H 160.241 5.20118 0.676607 0
M  V30 1728 H 161.715 4.98393 2.37294 0
M  V30 1729 H 162.192 3.3525 2.83733 0
M  V30 1730 H 162.798 4.04458 1.31506 0
M  V30 1731 N 161.113 -0.173488 1.56642 0
M  V30 1732 C 162.341 -0.906095 1.86004 0
M  V30 1733 C 162.756 -1.75921 0.685355 0
M  V30 1734 O 162.113 -1.79198 -0.345578 0
M  V30 1735 C 162.164 -1.78462 3.14378 0
M  V30 1736 O 161.885 -0.965914 4.27319 0
M  V30 1737 C 163.386 -2.62707 3.57071 0
M  V30 1738 H 160.606 -0.263341 0.617165 0
M  V30 1739 H 163.15 -0.174236 2.03756 0
M  V30 1740 H 161.305 -2.46984 2.98459 0
M  V30 1741 H 161.719 -1.56655 5.00559 0
M  V30 1742 H 163.193 -3.19969 4.49804 0
M  V30 1743 H 163.67 -3.37472 2.81086 0
M  V30 1744 H 164.276 -1.99521 3.75595 0
M  V30 1745 N 162.591 -1.51276 -0.441967 0
M  V30 1746 C 163.839 -1.63392 -1.18943 0
M  V30 1747 C 164.16 -0.350159 -1.9183 0
M  V30 1748 O 163.43 0.633784 -1.85364 0
M  V30 1749 H 162.01 -0.602164 -0.442049 0
M  V30 1750 H 164.672 -1.88186 -0.507165 0
M  V30 1751 H 163.768 -2.45934 -1.92154 0
M  V30 1752 N 164.069 0.697108 -1.41344 0
M  V30 1753 C 165.294 1.49096 -1.44171 0
M  V30 1754 C 165.719 1.88038 -0.0481568 0
M  V30 1755 O 165.077 1.54525 0.948243 0
M  V30 1756 C 165.125 2.73088 -2.3549 0
M  V30 1757 O 164.229 3.70514 -1.81088 0
M  V30 1758 H 163.57 0.448801 -0.489361 0
M  V30 1759 H 166.1 0.856992 -1.85787 0
M  V30 1760 H 166.11 3.21413 -2.51312 0
M  V30 1761 H 164.785 2.44081 -3.36745 0
M  V30 1762 H 163.362 3.29441 -1.74708 0
M  V30 1763 N 165.547 1.27147 0.931209 0
M  V30 1764 C 166.457 1.11372 2.06478 0
M  V30 1765 C 167.473 0.044645 1.73943 0
M  V30 1766 O 168.649 0.250417 1.99837 0
M  V30 1767 C 165.714 0.758838 3.38294 0
M  V30 1768 C 164.775 1.90841 3.84549 0
M  V30 1769 C 164.008 1.57036 5.10074 0
M  V30 1770 O 164.231 0.476645 5.68405 0
M  V30 1771 O 163.165 2.40839 5.51616 0
M  V30 1772 H 166.991 2.06493 2.22698 0
M  V30 1773 H 164.576 1.06301 1.04978 0
M  V30 1774 H 166.458 0.574098 4.17471 0
M  V30 1775 H 165.133 -0.162879 3.2329 0
M  V30 1776 H 164.04 2.14819 3.06274 0
M  V30 1777 H 165.373 2.81021 4.04089 0
M  V30 1778 N 167.025 -1.13721 1.09112 0
M  V30 1779 C 167.988 -2.17222 0.731241 0
M  V30 1780 C 168.988 -1.59035 -0.237566 0
M  V30 1781 O 170.178 -1.74192 -0.0161704 0
M  V30 1782 C 167.31 -3.40804 0.0808443 0
M  V30 1783 H 168.503 -2.50573 1.64783 0
M  V30 1784 H 166.056 -1.28493 0.889897 0
M  V30 1785 H 166.791 -3.1304 -0.847127 0
M  V30 1786 H 166.576 -3.84306 0.777896 0
M  V30 1787 H 168.066 -4.1731 -0.155657 0
M  V30 1788 N 168.503 -0.877838 -1.30888 0
M  V30 1789 C 169.749 -0.493426 -1.96706 0
M  V30 1790 C 170.082 0.953504 -1.6918 0
M  V30 1791 O 169.357 1.67266 -0.992594 0
M  V30 1792 C 169.64 -0.760429 -3.51979 0
M  V30 1793 C 169.493 -2.25747 -3.89048 0
M  V30 1794 C 170.812 -0.232148 -4.39487 0
M  V30 1795 H 167.931 -0.180746 -0.714493 0
M  V30 1796 H 170.573 -1.10052 -1.54882 0
M  V30 1797 H 168.723 -0.243715 -3.87735 0
M  V30 1798 H 170.395 -2.84204 -3.63354 0
M  V30 1799 H 168.638 -2.72694 -3.37373 0
M  V30 1800 H 169.309 -2.39491 -4.97341 0
M  V30 1801 H 171.785 -0.674314 -4.106 0
M  V30 1802 H 170.661 -0.448355 -5.47066 0
M  V30 1803 H 170.922 0.866297 -4.33529 0
M  V30 1804 N 169.982 1.44106 -0.638065 0
M  V30 1805 C 170.892 2.34513 0.0637334 0
M  V30 1806 C 171.908 1.53018 0.828346 0
M  V30 1807 O 173.084 1.85723 0.779036 0
M  V30 1808 C 170.149 3.31095 1.02844 0
M  V30 1809 C 169.21 4.28497 0.26244 0
M  V30 1810 C 168.443 5.20465 1.1812 0
M  V30 1811 O 168.666 5.16514 2.42011 0
M  V30 1812 O 167.6 5.98251 0.661774 0
M  V30 1813 H 171.426 2.95989 -0.68003 0
M  V30 1814 H 169.011 1.43994 -0.398252 0
M  V30 1815 H 170.893 3.90526 1.58327 0
M  V30 1816 H 169.568 2.72144 1.7527 0
M  V30 1817 H 168.475 3.72592 -0.335602 0
M  V30 1818 H 169.808 4.90388 -0.421936 0
M  V30 1819 N 171.46 0.379036 1.52974 0
M  V30 1820 C 172.408 -0.476033 2.27677 0
M  V30 1821 C 173.402 -1.0719 1.31174 0
M  V30 1822 O 174.608 -1.01355 1.48752 0
M  V30 1823 H 170.983 -0.172255 0.732006 0
M  V30 1824 H 172.954 0.175615 2.97883 0
M  V30 1825 C 171.703 -1.5967 3.0887 0
M  V30 1826 H 171.026 -1.1475 3.82978 0
M  V30 1827 H 172.466 -2.16943 3.64296 0
M  V30 1828 C 170.925 -2.54682 2.20542 0
M  V30 1829 O 171.455 -3.57836 1.82527 0
M  V30 1830 N 169.661 -2.24183 1.84907 0
M  V30 1831 H 169.208 -1.40333 2.1602 0
M  V30 1832 H 169.166 -2.88006 1.26096 0
M  V30 1833 N 172.938 -1.57226 0.108567 0
M  V30 1834 C 173.901 -2.13602 -0.831082 0
M  V30 1835 C 174.901 -1.06841 -1.20173 0
M  V30 1836 O 176.091 -1.32666 -1.12895 0
M  V30 1837 C 173.223 -2.66769 -2.12243 0
M  V30 1838 H 174.416 -2.97951 -0.341317 0
M  V30 1839 H 171.969 -1.55667 -0.14057 0
M  V30 1840 H 172.704 -1.85977 -2.65675 0
M  V30 1841 H 172.489 -3.44839 -1.86625 0
M  V30 1842 H 173.979 -3.10332 -2.79435 0
M  V30 1843 N 174.416 0.165178 -1.56732 0
M  V30 1844 C 175.662 0.882112 -1.82611 0
M  V30 1845 C 175.995 1.81628 -0.687378 0
M  V30 1846 O 175.27 1.92009 0.310267 0
M  V30 1847 C 175.553 1.67245 -3.18906 0
M  V30 1848 C 175.406 0.760987 -4.43316 0
M  V30 1849 C 176.725 2.63884 -3.52212 0
M  V30 1850 H 173.844 0.319242 -0.664269 0
M  V30 1851 H 176.486 0.148052 -1.89422 0
M  V30 1852 H 174.636 2.29824 -3.1323 0
M  V30 1853 H 176.308 0.147596 -4.61064 0
M  V30 1854 H 174.551 0.0694102 -4.33744 0
M  V30 1855 H 175.222 1.34962 -5.35247 0
M  V30 1856 H 177.698 2.11429 -3.58381 0
M  V30 1857 H 176.574 3.16245 -4.48643 0
M  V30 1858 H 176.835 3.44377 -2.77231 0
M  V30 1859 N 175.894 1.51508 0.433938 0
M  V30 1860 C 176.841 1.73068 1.52696 0
M  V30 1861 C 177.811 0.572441 1.55924 0
M  V30 1862 O 178.996 0.807253 1.72882 0
M  V30 1863 C 176.136 1.86474 2.90381 0
M  V30 1864 C 175.249 3.14037 2.96656 0
M  V30 1865 C 174.384 3.18019 4.25485 0
M  V30 1866 C 173.423 4.39882 4.2564 0
M  V30 1867 N 172.56 4.41394 5.45999 0
M  V30 1868 H 177.4 2.66366 1.33615 0
M  V30 1869 H 174.937 1.32008 0.649018 0
M  V30 1870 H 176.895 1.92229 3.70275 0
M  V30 1871 H 175.525 0.965809 3.08013 0
M  V30 1872 H 174.577 3.17575 2.09404 0
M  V30 1873 H 175.889 4.0394 2.92633 0
M  V30 1874 H 175.043 3.22708 5.13755 0
M  V30 1875 H 173.782 2.2601 4.3217 0
M  V30 1876 H 172.787 4.35366 3.35763 0
M  V30 1877 H 174.012 5.33159 4.20617 0
M  V30 1878 H 171.958 3.52258 5.53399 0
M  V30 1879 H 171.875 5.25111 5.4387 0
M  V30 1880 H 173.143 4.50281 6.36292 0
M  V30 1881 N 177.372 -0.689602 1.41712 0
M  V30 1882 C 178.621 -1.44534 1.40686 0
M  V30 1883 C 178.934 -1.95588 0.0213352 0
M  V30 1884 O 180.14 -2.71271 -0.111534 0
M  V30 1885 C 178.596 -2.61387 2.47396 0
M  V30 1886 C 178.204 -2.17094 3.91885 0
M  V30 1887 C 179.948 -3.38986 2.55517 0
M  V30 1888 C 177.855 -3.3094 4.90135 0
M  V30 1889 H 176.785 -0.542925 0.52321 0
M  V30 1890 H 179.436 -0.748054 1.6756 0
M  V30 1891 H 177.818 -3.33412 2.13664 0
M  V30 1892 H 178.992 -1.52318 4.34897 0
M  V30 1893 H 177.307 -1.52473 3.8748 0
M  V30 1894 H 179.904 -4.23747 3.26102 0
M  V30 1895 H 180.247 -3.84578 1.59391 0
M  V30 1896 H 180.78 -2.74021 2.8837 0
M  V30 1897 H 177.519 -2.90355 5.87685 0
M  V30 1898 H 177.039 -3.94546 4.51767 0
M  V30 1899 H 178.718 -3.9663 5.11169 0
M  V30 1900 N 178.85 -1.27639 -0.924453 0
M  V30 1901 C 179.813 -1.10681 -2.00705 0
M  V30 1902 C 180.813 -0.0497823 -1.60723 0
M  V30 1903 O 182.003 -0.294654 -1.7169 0
M  V30 1904 C 179.135 -0.687164 -3.33902 0
M  V30 1905 H 180.328 -2.06817 -2.17179 0
M  V30 1906 H 177.881 -1.10473 -1.10569 0
M  V30 1907 H 178.616 0.275439 -3.23128 0
M  V30 1908 H 178.401 -1.45061 -3.6428 0
M  V30 1909 H 179.891 -0.590853 -4.13399 0
M  V30 1910 N 180.328 1.1314 -1.09713 0
M  V30 1911 C 181.744 1.36477 -0.827423 0
M  V30 1912 C 181.944 1.93654 0.556817 0
M  V30 1913 O 181 2.15791 1.31112 0
M  V30 1914 C 182.313 2.31334 -1.92106 0
M  V30 1915 C 183.861 2.44943 -1.94864 0
M  V30 1916 C 184.336 3.4311 -3.0338 0
M  V30 1917 N 185.827 3.50662 -3.02639 0
M  V30 1918 C 186.562 4.2651 -3.83246 0
M  V30 1919 N 186.058 5.05485 -4.73768 0
M  V30 1920 N 187.851 4.2184 -3.71493 0
M  V30 1921 H 180.002 0.743807 -1.9895 0
M  V30 1922 H 182.265 0.389823 -0.864143 0
M  V30 1923 H 181.971 1.96483 -2.91698 0
M  V30 1924 H 181.845 3.31381 -1.80184 0
M  V30 1925 H 184.232 2.79079 -0.959099 0
M  V30 1926 H 184.313 1.4481 -2.10864 0
M  V30 1927 H 183.957 3.09704 -4.02549 0
M  V30 1928 H 183.887 4.43055 -2.84622 0
M  V30 1929 H 186.378 2.94315 -2.37039 0
M  V30 1930 H 186.691 5.60675 -5.3185 0
M  V30 1931 H 185.036 5.04708 -4.77802 0
M  V30 1932 H 188.227 3.5922 -3.00131 0
M  V30 1933 H 188.4 4.80697 -4.3455 0
M  V30 1934 N 181.806 0.884767 1.30421 0
M  V30 1935 C 182.769 0.356277 2.26414 0
M  V30 1936 C 183.769 -0.501124 1.52792 0
M  V30 1937 O 184.959 -0.30831 1.7145 0
M  V30 1938 C 182.091 -0.492316 3.37326 0
M  V30 1939 H 183.284 1.20389 2.74675 0
M  V30 1940 H 180.837 0.661607 1.41607 0
M  V30 1941 H 181.572 -1.36052 2.94381 0
M  V30 1942 H 181.357 0.121832 3.91911 0
M  V30 1943 H 182.847 -0.853871 4.08777 0
M  V30 1944 N 183.284 -1.43765 0.645699 0
M  V30 1945 C 184.247 -2.29163 -0.0409488 0
M  V30 1946 C 185.247 -1.41813 -0.757996 0
M  V30 1947 O 186.437 -1.63527 -0.600382 0
M  V30 1948 C 183.569 -3.23716 -1.06869 0
M  V30 1949 H 184.762 -2.91366 0.710345 0
M  V30 1950 H 182.315 -1.5092 0.406547 0
M  V30 1951 H 183.05 -2.66393 -1.84947 0
M  V30 1952 H 182.835 -3.88105 -0.558277 0
M  V30 1953 H 184.325 -3.87831 -1.54845 0
M  V30 1954 N 184.763 -0.387143 -1.52771 0
M  V30 1955 C 185.991 0.195869 -2.05971 0
M  V30 1956 C 186.406 1.40691 -1.25903 0
M  V30 1957 O 185.763 1.79931 -0.305134 0
M  V30 1958 C 185.814 0.56812 -3.57008 0
M  V30 1959 O 185.535 -0.594803 -4.34043 0
M  V30 1960 C 187.036 1.20723 -4.26545 0
M  V30 1961 H 184.256 0.0300578 -0.670326 0
M  V30 1962 H 186.8 -0.551749 -1.96916 0
M  V30 1963 H 184.955 1.26564 -3.66143 0
M  V30 1964 H 185.369 -0.289322 -5.23701 0
M  V30 1965 H 186.843 1.41807 -5.33474 0
M  V30 1966 H 187.32 2.17395 -3.81623 0
M  V30 1967 H 187.926 0.550535 -4.21722 0
M  V30 1968 N 186.241 1.57166 -0.116904 0
M  V30 1969 C 187.188 2.15202 0.83408 0
M  V30 1970 C 188.158 1.07644 1.26499 0
M  V30 1971 O 189.343 1.35541 1.34288 0
M  V30 1972 C 186.483 2.75405 2.07957 0
M  V30 1973 C 185.596 3.97264 1.69721 0
M  V30 1974 C 184.731 4.45561 2.89221 0
M  V30 1975 C 183.77 5.59956 2.47215 0
M  V30 1976 N 182.907 6.03006 3.59622 0
M  V30 1977 H 187.747 2.96141 0.332335 0
M  V30 1978 H 185.284 1.46309 0.152349 0
M  V30 1979 H 187.242 3.08439 2.80929 0
M  V30 1980 H 185.872 1.97159 2.55594 0
M  V30 1981 H 184.924 3.70404 0.866316 0
M  V30 1982 H 186.236 4.80226 1.34849 0
M  V30 1983 H 185.39 4.80493 3.7042 0
M  V30 1984 H 184.129 3.61544 3.27318 0
M  V30 1985 H 183.134 5.2463 1.64448 0
M  V30 1986 H 184.359 6.45738 2.10238 0
M  V30 1987 H 182.305 5.21931 3.97396 0
M  V30 1988 H 182.222 6.80819 3.28667 0
M  V30 1989 H 183.49 6.42576 4.41267 0
M  V30 1990 N 187.719 -0.156864 1.56817 0
M  V30 1991 C 189.135 -0.50916 1.5126 0
M  V30 1992 C 189.335 -1.83897 0.823658 0
M  V30 1993 O 188.391 -2.49469 0.390055 0
M  V30 1994 C 189.704 -0.52857 2.96018 0
M  V30 1995 C 191.252 -0.614771 3.06903 0
M  V30 1996 C 191.727 -0.664938 4.53147 0
M  V30 1997 N 193.218 -0.727433 4.57452 0
M  V30 1998 C 193.953 -0.787067 5.67973 0
M  V30 1999 N 193.449 -0.806649 6.88088 0
M  V30 2000 N 195.242 -0.827195 5.5598 0
M  V30 2001 H 187.393 0.714935 2.00006 0
M  V30 2002 H 189.656 0.259526 0.911784 0
M  V30 2003 H 189.362 0.380154 3.49639 0
M  V30 2004 H 189.236 -1.36998 3.51442 0
M  V30 2005 H 191.623 -1.51392 2.53307 0
M  V30 2006 H 191.704 0.253597 2.5454 0
M  V30 2007 H 191.348 0.230011 5.07379 0
M  V30 2008 H 191.278 -1.54966 5.03282 0
M  V30 2009 H 193.769 -0.719998 3.70978 0
M  V30 2010 H 194.082 -0.853727 7.6807 0
M  V30 2011 H 192.427 -0.774687 6.90669 0
M  V30 2012 H 195.618 -0.808998 4.61056 0
M  V30 2013 H 195.791 -0.870206 6.4213 0
M  V30 2014 N 189.197 -1.51736 -0.425897 0
M  V30 2015 C 190.422 -1.69082 -1.20108 0
M  V30 2016 C 190.847 -0.392398 -1.83962 0
M  V30 2017 O 190.205 0.64858 -1.69302 0
M  V30 2018 C 190.253 -2.81604 -2.25237 0
M  V30 2019 O 189.357 -2.46004 -3.30992 0
M  V30 2020 H 188.698 -0.563408 -0.35138 0
M  V30 2021 H 191.228 -1.98358 -0.501512 0
M  V30 2022 H 191.238 -3.06025 -2.69838 0
M  V30 2023 H 189.913 -3.75817 -1.78142 0
M  V30 2024 H 188.49 -2.32195 -2.91787 0
M  V30 2025 N 190.675 0.682077 -1.42076 0
M  V30 2026 C 191.923 1.4393 -1.41876 0
M  V30 2027 C 192.244 1.94971 -0.0335599 0
M  V30 2028 O 191.514 1.72591 0.926773 0
M  V30 2029 H 190.094 0.534085 -0.522267 0
M  V30 2030 H 192.756 0.806427 -1.77434 0
M  V30 2031 H 191.852 2.29588 -2.11414 0
M  V30 2032 N 192.153 1.28127 0.917671 0
M  V30 2033 C 193.381 1.17892 1.70026 0
M  V30 2034 C 193.796 -0.262958 1.8696 0
M  V30 2035 O 193.153 -1.17811 1.3938 0
M  V30 2036 C 193.204 1.86872 3.09453 0
M  V30 2037 O 192.925 3.25428 2.93306 0
M  V30 2038 C 194.426 1.8289 4.03815 0
M  V30 2039 H 191.646 0.40942 0.531617 0
M  V30 2040 H 194.19 1.69181 1.14883 0
M  V30 2041 H 192.345 1.39464 3.61426 0
M  V30 2042 H 192.759 3.59918 3.81523 0
M  V30 2043 H 194.233 2.35751 4.99125 0
M  V30 2044 H 194.71 0.800412 4.31845 0
M  V30 2045 H 195.316 2.29959 3.57769 0
M  V30 2046 N 193.631 -1.12557 1.10312 0
M  V30 2047 C 194.88 -1.83395 0.839588 0
M  V30 2048 C 195.193 -1.84939 -0.636929 0
M  V30 2049 O 196.399 -2.51761 -1.01631 0
M  V30 2050 C 194.855 -3.29303 1.45215 0
M  V30 2051 C 194.463 -3.36122 2.96186 0
M  V30 2052 C 196.207 -4.05121 1.26796 0
M  V30 2053 C 194.114 -4.76357 3.50483 0
M  V30 2054 H 193.044 -0.687133 0.310425 0
M  V30 2055 H 195.695 -1.26746 1.32694 0
M  V30 2056 H 194.077 -3.85812 0.892469 0
M  V30 2057 H 195.251 -2.89559 3.58458 0
M  V30 2058 H 193.566 -2.73776 3.13745 0
M  V30 2059 H 196.163 -5.08668 1.64806 0
M  V30 2060 H 196.506 -4.15773 0.209409 0
M  V30 2061 H 197.039 -3.54967 1.79563 0
M  V30 2062 H 193.778 -4.70899 4.55998 0
M  V30 2063 H 193.298 -5.23377 2.92978 0
M  V30 2064 H 194.977 -5.45294 3.48228 0
M  V30 2065 N 195.109 -0.891671 -1.2995 0
M  V30 2066 C 196.072 -0.36828 -2.26222 0
M  V30 2067 C 197.072 0.493014 -1.53056 0
M  V30 2068 O 198.262 0.299213 -1.71611 0
M  V30 2069 C 195.394 0.47442 -3.37583 0
M  V30 2070 H 196.587 -1.21844 -2.74033 0
M  V30 2071 H 194.14 -0.669107 -1.41254 0
M  V30 2072 H 194.875 1.34489 -2.95099 0
M  V30 2073 H 194.66 -0.142615 -3.91841 0
M  V30 2074 H 196.15 0.83218 -4.09224 0
M  V30 2075 N 196.587 1.43421 -0.653314 0
M  V30 2076 C 197.834 2.01812 -0.166745 0
M  V30 2077 C 198.162 1.51535 1.21931 0
M  V30 2078 O 197.417 0.698975 1.82792 0
M  V30 2079 C 197.716 3.57176 -0.126623 0
M  V30 2080 C 197.382 4.26798 -1.45444 0
M  V30 2081 C 196.044 4.45534 -1.81805 0
M  V30 2082 C 198.396 4.66225 -2.32989 0
M  V30 2083 C 195.724 5.00961 -3.05377 0
M  V30 2084 C 198.076 5.23021 -3.55853 0
M  V30 2085 C 196.74 5.39973 -3.9241 0
M  V30 2086 H 196.01 0.738484 -0.0610162 0
M  V30 2087 H 198.657 1.71896 -0.84404 0
M  V30 2088 H 196.962 3.86634 0.634123 0
M  V30 2089 H 198.659 4.00112 0.266723 0
M  V30 2090 H 195.249 4.12561 -1.16153 0
M  V30 2091 H 199.433 4.51443 -2.06187 0
M  V30 2092 H 194.689 5.12271 -3.3375 0
M  V30 2093 H 198.863 5.52518 -4.23907 0
M  V30 2094 H 196.49 5.82687 -4.88242 0
M  V30 2095 N 198.065 0.39524 1.52563 0
M  V30 2096 C 199.29 -0.187456 2.06551 0
M  V30 2097 C 199.715 -1.39249 1.26457 0
M  V30 2098 O 199.073 -1.78947 0.291151 0
M  V30 2099 C 199.121 -0.529985 3.56684 0
M  V30 2100 O 198.225 -1.62307 3.79118 0
M  V30 2101 H 197.566 -0.0202537 0.663691 0
M  V30 2102 H 200.096 0.564426 1.96661 0
M  V30 2103 H 200.106 -0.792598 4.00227 0
M  V30 2104 H 198.781 0.350987 4.14416 0
M  V30 2105 H 197.358 -1.3537 3.47461 0
M  V30 2106 N 199.544 -1.57102 0.125237 0
M  V30 2107 C 200.792 -1.95021 -0.530198 0
M  V30 2108 C 201.113 -1.00982 -1.66816 0
M  V30 2109 O 200.383 -0.0672693 -1.95784 0
M  V30 2110 H 198.963 -0.720046 -0.198853 0
M  V30 2111 H 201.625 -1.93916 0.19564 0
M  V30 2112 H 200.721 -2.98211 -0.920681 0
M  V30 2113 N 201.022 0.148545 -1.56898 0
M  V30 2114 C 201.985 1.16736 -1.97244 0
M  V30 2115 C 202.985 1.35947 -0.858777 0
M  V30 2116 O 204.175 1.32966 -1.12542 0
M  V30 2117 C 201.307 2.52798 -2.28705 0
M  V30 2118 H 202.5 0.821279 -2.88435 0
M  V30 2119 H 200.053 0.391831 -1.51309 0
M  V30 2120 H 200.788 2.92381 -1.403 0
M  V30 2121 H 200.573 2.40216 -3.09901 0
M  V30 2122 H 202.063 3.26179 -2.60762 0
M  V30 2123 N 202.5 1.5196 0.417844 0
M  V30 2124 C 203.73 1.69181 1.18581 0
M  V30 2125 C 204.138 0.397104 1.84986 0
M  V30 2126 O 203.481 -0.636011 1.72339 0
M  V30 2127 C 203.543 2.76497 2.29759 0
M  V30 2128 C 203.207 4.18514 1.83563 0
M  V30 2129 C 204.204 5.02648 1.32821 0
M  V30 2130 C 201.889 4.64708 1.90661 0
M  V30 2131 C 203.883 6.31044 0.897894 0
M  V30 2132 C 201.57 5.93096 1.47241 0
M  V30 2133 C 202.568 6.76093 0.968891 0
M  V30 2134 O 202.256 8.02078 0.540924 0
M  V30 2135 H 201.988 0.570457 0.362705 0
M  V30 2136 H 204.542 1.99249 0.498885 0
M  V30 2137 H 202.772 2.41786 3.01789 0
M  V30 2138 H 204.461 2.82403 2.91553 0
M  V30 2139 H 205.227 4.68154 1.26716 0
M  V30 2140 H 201.106 4.00216 2.28797 0
M  V30 2141 H 204.65 6.95776 0.504192 0
M  V30 2142 H 200.547 6.271 1.53022 0
M  V30 2143 H 201.315 8.15794 0.66502 0
M  V30 2144 N 203.978 -0.674533 1.42435 0
M  V30 2145 C 204.928 -1.7807 1.4239 0
M  V30 2146 C 205.912 -1.58169 0.295202 0
M  V30 2147 O 207.104 -1.68643 0.537449 0
M  V30 2148 C 204.233 -3.16532 1.32901 0
M  V30 2149 C 203.319 -3.42055 2.50717 0
M  V30 2150 N 203.71 -3.38162 3.76139 0
M  V30 2151 C 202.008 -3.72692 2.44983 0
M  V30 2152 C 202.709 -3.63177 4.54398 0
M  V30 2153 N 201.685 -3.83954 3.84812 0
M  V30 2154 H 205.487 -1.73454 2.37257 0
M  V30 2155 H 203.001 -0.875381 1.36788 0
M  V30 2156 H 204.998 -3.958 1.30951 0
M  V30 2157 H 203.658 -3.22345 0.390363 0
M  V30 2158 H 204.669 -3.18057 4.0873 0
M  V30 2159 H 201.346 -3.85749 1.59699 0
M  V30 2160 H 202.736 -3.66125 5.63384 0
M  V30 2161 N 205.456 -1.28612 -0.910864 0
M  V30 2162 C 206.704 -1.15705 -1.65701 0
M  V30 2163 C 207.025 0.29416 -1.92769 0
M  V30 2164 O 206.295 1.20331 -1.54588 0
M  V30 2165 H 204.875 -0.425216 -0.614167 0
M  V30 2166 H 207.537 -1.61381 -1.0928 0
M  V30 2167 H 206.633 -1.6988 -2.61815 0
M  V30 2168 N 206.934 1.1197 -1.10907 0
M  V30 2169 C 208.35 1.35591 -0.841852 0
M  V30 2170 C 208.55 1.94233 0.536246 0
M  V30 2171 O 207.606 2.1717 1.28816 0
M  V30 2172 C 208.919 2.29284 -1.94549 0
M  V30 2173 C 210.467 2.42862 -1.97451 0
M  V30 2174 C 210.942 3.39873 -3.07002 0
M  V30 2175 N 212.433 3.47433 -3.06341 0
M  V30 2176 C 213.168 4.22421 -3.87748 0
M  V30 2177 N 212.664 5.00432 -4.79103 0
M  V30 2178 N 214.457 4.17876 -3.75946 0
M  V30 2179 H 206.608 0.722664 -1.99728 0
M  V30 2180 H 208.871 0.380635 -0.868229 0
M  V30 2181 H 208.577 1.93378 -2.93765 0
M  V30 2182 H 208.451 3.29452 -1.83688 0
M  V30 2183 H 210.838 2.78046 -0.988645 0
M  V30 2184 H 210.919 1.42566 -2.12388 0
M  V30 2185 H 210.563 3.05417 -4.05811 0
M  V30 2186 H 210.493 4.40011 -2.89306 0
M  V30 2187 H 212.984 2.91784 -2.40147 0
M  V30 2188 H 213.297 5.55002 -5.37766 0
M  V30 2189 H 211.642 4.99612 -4.83128 0
M  V30 2190 H 214.833 3.56016 -3.03924 0
M  V30 2191 H 215.006 4.76061 -4.39624 0
M  V30 2192 N 208.412 0.89855 1.29475 0
M  V30 2193 C 209.64 0.539261 1.99749 0
M  V30 2194 C 210.055 -0.875716 1.67262 0
M  V30 2195 O 209.412 -1.57786 0.917049 0
M  V30 2196 C 209.463 0.72061 3.54245 0
M  V30 2197 O 209.184 2.07989 3.8558 0
M  V30 2198 C 210.685 0.366118 4.41786 0
M  V30 2199 H 207.905 0.207047 0.638258 0
M  V30 2200 H 210.449 1.20758 1.65039 0
M  V30 2201 H 208.604 0.0994862 3.87272 0
M  V30 2202 H 209.018 2.10841 4.80257 0
M  V30 2203 H 210.492 0.543848 5.49314 0
M  V30 2204 H 210.969 -0.696763 4.33638 0
M  V30 2205 H 211.575 0.964135 4.14228 0
M  V30 2206 N 209.89 -1.43072 0.660911 0
M  V30 2207 C 210.84 -2.27948 -0.04847 0
M  V30 2208 C 211.824 -1.40325 -0.787246 0
M  V30 2209 O 213.016 -1.63893 -0.668446 0
M  V30 2210 C 210.145 -3.28143 -1.00881 0
M  V30 2211 C 209.231 -4.23252 -0.268108 0
M  V30 2212 N 209.622 -5.00656 0.719528 0
M  V30 2213 C 207.92 -4.43092 -0.508493 0
M  V30 2214 C 208.621 -5.70019 1.15988 0
M  V30 2215 N 207.597 -5.41364 0.492584 0
M  V30 2216 H 211.399 -2.85213 0.709279 0
M  V30 2217 H 208.913 -1.54869 0.488822 0
M  V30 2218 H 210.91 -3.87736 -1.53188 0
M  V30 2219 H 209.57 -2.7244 -1.76654 0
M  V30 2220 H 210.581 -5.06115 1.09855 0
M  V30 2221 H 207.258 -3.98449 -1.24679 0
M  V30 2222 H 208.648 -6.4214 1.97751 0
M  V30 2223 N 211.368 -0.403325 -1.52352 0
M  V30 2224 C 212.598 0.17376 -2.05868 0
M  V30 2225 C 213.006 1.39898 -1.27378 0
M  V30 2226 O 212.349 1.80939 -0.31729 0
M  V30 2227 C 212.411 0.594756 -3.54546 0
M  V30 2228 C 212.075 -0.518926 -4.54044 0
M  V30 2229 C 213.072 -1.3807 -5.01231 0
M  V30 2230 C 210.757 -0.689961 -4.97539 0
M  V30 2231 C 212.751 -2.39852 -5.90551 0
M  V30 2232 C 210.438 -1.71109 -5.86656 0
M  V30 2233 C 211.436 -2.56378 -6.33056 0
M  V30 2234 O 211.124 -3.56743 -7.20409 0
M  V30 2235 H 210.856 0.0264951 -0.675481 0
M  V30 2236 H 213.41 -0.571179 -1.97299 0
M  V30 2237 H 211.64 1.39189 -3.60782 0
M  V30 2238 H 213.329 1.0991 -3.90736 0
M  V30 2239 H 214.095 -1.25994 -4.68349 0
M  V30 2240 H 209.974 -0.035939 -4.60986 0
M  V30 2241 H 213.518 -3.06441 -6.26689 0
M  V30 2242 H 209.415 -1.83218 -6.18952 0
M  V30 2243 H 210.183 -3.52918 -7.38506 0
M  V30 2244 N 212.846 1.57033 -0.133567 0
M  V30 2245 C 214.074 2.00044 0.528195 0
M  V30 2246 C 214.489 1.01349 1.59291 0
M  V30 2247 O 213.846 0.00848369 1.82498 0
M  V30 2248 C 213.897 3.43018 1.1411 0
M  V30 2249 O 213.618 4.37939 0.11892 0
M  V30 2250 C 215.119 4.01237 1.88477 0
M  V30 2251 H 212.339 0.656517 0.138661 0
M  V30 2252 H 214.883 2.03267 -0.224196 0
M  V30 2253 H 213.038 3.40688 1.84418 0
M  V30 2254 H 213.452 5.21436 0.56613 0
M  V30 2255 H 214.926 5.03314 2.26669 0
M  V30 2256 H 215.403 3.41193 2.76558 0
M  V30 2257 H 216.009 4.07156 1.22898 0
M  V30 2258 N 214.325 -0.140222 1.56975 0
M  V30 2259 C 215.255 -1.17456 2.01808 0
M  V30 2260 C 216.236 -1.44415 0.898794 0
M  V30 2261 O 217.421 -1.5522 1.16707 0
M  V30 2262 C 214.551 -2.50607 2.40444 0
M  V30 2263 C 213.505 -2.38155 3.55621 0
M  V30 2264 C 212.831 -3.76078 3.80091 0
M  V30 2265 C 214.131 -1.85991 4.88062 0
M  V30 2266 H 215.825 -0.801743 2.88466 0
M  V30 2267 H 213.371 -0.38422 1.38779 0
M  V30 2268 H 215.324 -3.23197 2.7041 0
M  V30 2269 H 214.048 -2.89737 1.50732 0
M  V30 2270 H 212.707 -1.68016 3.25832 0
M  V30 2271 H 212.355 -4.12656 2.87618 0
M  V30 2272 H 212.055 -3.68606 4.57606 0
M  V30 2273 H 213.579 -4.50206 4.12488 0
M  V30 2274 H 214.993 -2.4838 5.16701 0
M  V30 2275 H 213.39 -1.89393 5.6943 0
M  V30 2276 H 214.46 -0.816023 4.77984 0
M  V30 2277 N 215.803 -1.52179 -0.40978 0
M  V30 2278 C 216.766 -1.74853 -1.48186 0
M  V30 2279 C 217.766 -0.618417 -1.48433 0
M  V30 2280 O 218.956 -0.886286 -1.49969 0
M  V30 2281 C 216.088 -1.8303 -2.87598 0
M  V30 2282 H 217.281 -2.70559 -1.29374 0
M  V30 2283 H 214.834 -1.42586 -0.640233 0
M  V30 2284 H 215.569 -0.89236 -3.11781 0
M  V30 2285 H 215.354 -2.65187 -2.88822 0
M  V30 2286 H 216.844 -2.02316 -3.65319 0
M  V30 2287 N 217.281 0.66697 -1.42791 0
M  V30 2288 C 218.211 1.79218 -1.49677 0
M  V30 2289 C 219.192 1.66405 -0.352623 0
M  V30 2290 O 220.377 1.85708 -0.567993 0
M  V30 2291 C 217.507 3.17565 -1.40605 0
M  V30 2292 C 216.461 3.45124 -2.53127 0
M  V30 2293 C 215.787 4.83127 -2.29112 0
M  V30 2294 C 217.087 3.41236 -3.95418 0
M  V30 2295 H 218.781 1.73713 -2.43853 0
M  V30 2296 H 216.327 0.83432 -1.17367 0
M  V30 2297 H 218.28 3.96022 -1.44029 0
M  V30 2298 H 217.004 3.23767 -0.429271 0
M  V30 2299 H 215.663 2.69031 -2.49034 0
M  V30 2300 H 215.311 4.85988 -1.29709 0
M  V30 2301 H 215.011 5.02528 -3.04531 0
M  V30 2302 H 216.535 5.63859 -2.34297 0
M  V30 2303 H 217.949 4.09651 -4.01073 0
M  V30 2304 H 216.346 3.72173 -4.70752 0
M  V30 2305 H 217.416 2.39665 -4.21532 0
M  V30 2306 N 218.759 1.29093 0.90403 0
M  V30 2307 C 219.987 1.19689 1.68766 0
M  V30 2308 C 220.402 -0.243113 1.87228 0
M  V30 2309 O 219.759 -1.16326 1.40621 0
M  V30 2310 C 219.81 1.90144 3.07453 0
M  V30 2311 O 219.531 3.2852 2.89838 0
M  V30 2312 C 221.032 1.87162 4.01852 0
M  V30 2313 H 218.252 0.415035 0.527244 0
M  V30 2314 H 220.796 1.7039 1.13082 0
M  V30 2315 H 218.951 1.43289 3.59926 0
M  V30 2316 H 219.365 3.63944 3.77684 0
M  V30 2317 H 220.839 2.41032 4.96596 0
M  V30 2318 H 221.316 0.84617 4.30972 0
M  V30 2319 H 221.922 2.33741 3.5531 0
M  V30 2320 N 220.237 -1.11381 1.11499 0
M  V30 2321 C 221.485 -1.8277 0.862524 0
M  V30 2322 C 221.806 -1.85097 -0.613534 0
M  V30 2323 O 221.076 -1.32198 -1.4457 0
M  V30 2324 H 219.656 -0.676823 0.316101 0
M  V30 2325 H 222.318 -1.34816 1.4075 0
M  V30 2326 H 221.414 -2.86614 1.23527 0
M  V30 2327 N 221.715 -0.905404 -1.28997 0
M  V30 2328 C 222.662 -0.385892 -2.27551 0
M  V30 2329 C 223.632 0.535113 -1.57244 0
M  V30 2330 O 224.817 0.459119 -1.85194 0
M  V30 2331 C 221.957 0.375461 -3.43051 0
M  V30 2332 C 221.07 -0.577092 -4.28128 0
M  V30 2333 C 220.205 0.201879 -5.30816 0
M  V30 2334 C 219.244 -0.744829 -6.07551 0
M  V30 2335 N 218.381 9.42587e-05 -7.021 0
M  V30 2336 H 223.221 -1.23139 -2.71368 0
M  V30 2337 H 220.758 -0.618542 -1.33463 0
M  V30 2338 H 222.716 0.832992 -4.088 0
M  V30 2339 H 221.346 1.18537 -3.00248 0
M  V30 2340 H 220.398 -1.15315 -3.62501 0
M  V30 2341 H 221.71 -1.30152 -4.8152 0
M  V30 2342 H 220.864 0.720351 -6.02408 0
M  V30 2343 H 219.603 0.959413 -4.7817 0
M  V30 2344 H 218.608 -1.27475 -5.34818 0
M  V30 2345 H 219.833 -1.50178 -6.62286 0
M  V30 2346 H 217.779 0.739791 -6.51815 0
M  V30 2347 H 217.696 -0.664321 -7.53076 0
M  V30 2348 H 218.964 0.498644 -7.77903 0
M  V30 2349 N 223.193 1.4272 -0.668489 0
M  V30 2350 C 224.439 2.01923 -0.188419 0
M  V30 2351 C 224.772 1.52704 1.19979 0
M  V30 2352 O 224.047 0.726566 1.8042 0
M  V30 2353 C 224.33 3.59451 -0.216085 0
M  V30 2354 C 224.183 4.18864 -1.6393 0
M  V30 2355 C 225.502 4.37903 0.439179 0
M  V30 2356 H 222.621 0.733674 -0.0699412 0
M  V30 2357 H 225.263 1.69822 -0.852076 0
M  V30 2358 H 223.413 3.86929 0.349012 0
M  V30 2359 H 225.085 4.02362 -2.25616 0
M  V30 2360 H 223.328 3.74933 -2.18193 0
M  V30 2361 H 223.999 5.27987 -1.61039 0
M  V30 2362 H 226.475 4.16079 -0.0417878 0
M  V30 2363 H 225.351 5.47519 0.389157 0
M  V30 2364 H 225.612 4.15303 1.51577 0
M  V30 2365 N 224.671 0.411399 1.52136 0
M  V30 2366 C 225.619 -0.427633 2.28635 0
M  V30 2367 C 226.613 -1.04383 1.33419 0
M  V30 2368 O 227.819 -0.981772 1.50868 0
M  V30 2369 H 224.194 -0.156689 0.735495 0
M  V30 2370 H 226.165 0.238761 2.97443 0
M  V30 2371 C 224.914 -1.53082 3.12188 0
M  V30 2372 H 224.237 -1.06601 3.85326 0
M  V30 2373 H 225.677 -2.09167 3.68816 0
M  V30 2374 C 224.136 -2.49946 2.25895 0
M  V30 2375 O 224.666 -3.53884 1.90076 0
M  V30 2376 N 222.872 -2.2021 1.8962 0
M  V30 2377 H 222.419 -1.35719 2.18948 0
M  V30 2378 H 222.377 -2.85266 1.32176 0
M  V30 2379 N 226.149 -1.5696 0.141893 0
M  V30 2380 C 227.56 -1.82797 -0.379776 0
M  V30 2381 C 227.911 -1.06033 -1.6508 0
M  V30 2382 O 227.036 -0.304011 -2.14254 0
M  V30 2383 C 227.631 -3.31578 -0.695802 0
M  V30 2384 C 226.19 -3.58014 -1.16201 0
M  V30 2385 C 225.337 -2.76699 -0.182455 0
M  V30 2386 H 228.288 -1.54406 0.366675 0
M  V30 2387 H 228.309 -3.47454 -1.55099 0
M  V30 2388 H 227.821 -3.87421 0.229449 0
M  V30 2389 H 225.922 -3.07553 -2.10338 0
M  V30 2390 H 226.035 -4.66501 -1.09151 0
M  V30 2391 H 224.399 -2.45618 -0.674072 0
M  V30 2392 H 225.182 -3.35311 0.736297 0
M  V30 2393 N 227.627 0.131896 -1.57047 0
M  V30 2394 C 228.857 0.855219 -1.88068 0
M  V30 2395 C 229.265 1.74557 -0.729817 0
M  V30 2396 O 228.608 1.81083 0.308962 0
M  V30 2397 C 228.67 1.75119 -3.13964 0
M  V30 2398 C 228.334 1.03646 -4.45091 0
M  V30 2399 C 229.331 0.383276 -5.18485 0
M  V30 2400 C 227.016 1.02148 -4.91804 0
M  V30 2401 C 229.01 -0.275347 -6.36805 0
M  V30 2402 C 226.697 0.359047 -6.10044 0
M  V30 2403 C 227.695 -0.288222 -6.82392 0
M  V30 2404 O 227.383 -0.94011 -7.98384 0
M  V30 2405 H 227.115 0.251864 -0.627328 0
M  V30 2406 H 229.669 0.124782 -2.05021 0
M  V30 2407 H 227.899 2.52295 -2.9306 0
M  V30 2408 H 229.588 2.3478 -3.31109 0
M  V30 2409 H 230.354 0.386562 -4.83457 0
M  V30 2410 H 226.233 1.5147 -4.35405 0
M  V30 2411 H 229.777 -0.781148 -6.93213 0
M  V30 2412 H 225.674 0.35348 -6.44531 0
M  V30 2413 H 226.442 -0.84329 -8.14144 0
M  V30 2414 N 229.106 1.52395 0.401703 0
M  V30 2415 C 230.331 1.70972 1.17403 0
M  V30 2416 C 230.756 0.421615 1.83314 0
M  V30 2417 O 230.114 -0.621564 1.70312 0
M  V30 2418 C 230.162 2.85151 2.20728 0
M  V30 2419 O 229.266 2.51238 3.27037 0
M  V30 2420 H 228.607 0.568927 0.342372 0
M  V30 2421 H 231.137 1.99131 0.469891 0
M  V30 2422 H 231.147 3.10279 2.64936 0
M  V30 2423 H 229.822 3.78603 1.7214 0
M  V30 2424 H 228.399 2.36808 2.88057 0
M  V30 2425 N 230.584 -0.659388 1.43143 0
M  V30 2426 C 231.547 -1.75432 1.47501 0
M  V30 2427 C 232.547 -1.56707 0.360512 0
M  V30 2428 O 233.737 -1.62717 0.622002 0
M  V30 2429 C 230.869 -3.14239 1.32162 0
M  V30 2430 H 232.062 -1.7295 2.45006 0
M  V30 2431 H 229.615 -0.870469 1.29817 0
M  V30 2432 H 230.35 -3.22336 0.356401 0
M  V30 2433 H 230.135 -3.29235 2.12948 0
M  V30 2434 H 231.625 -3.94094 1.3813 0
M  V30 2435 N 232.062 -1.29571 -0.897171 0
M  V30 2436 C 233.31 -1.17456 -1.64464 0
M  V30 2437 C 233.631 0.273698 -1.9307 0
M  V30 2438 O 232.901 1.18684 -1.55855 0
M  V30 2439 H 231.481 -0.431706 -0.609622 0
M  V30 2440 H 234.143 -1.62531 -1.07562 0
M  V30 2441 H 233.239 -1.72648 -2.59998 0
M  V30 2442 N 233.54 1.10788 -1.12088 0
M  V30 2443 C 234.473 2.16237 -0.729168 0
M  V30 2444 C 235.451 1.60207 0.277921 0
M  V30 2445 O 236.635 1.87707 0.172737 0
M  V30 2446 C 233.762 3.38609 -0.0786848 0
M  V30 2447 C 232.808 4.13322 -1.05201 0
M  V30 2448 S 233.641 4.69371 -2.57781 0
M  V30 2449 C 234.797 5.95058 -1.94053 0
M  V30 2450 H 235.03 2.4913 -1.62239 0
M  V30 2451 H 232.563 1.22519 -0.939603 0
M  V30 2452 H 234.521 4.09473 0.290254 0
M  V30 2453 H 233.182 3.03962 0.791593 0
M  V30 2454 H 232.375 5.01051 -0.544433 0
M  V30 2455 H 231.977 3.48251 -1.36371 0
M  V30 2456 H 234.269 6.65278 -1.28107 0
M  V30 2457 H 235.212 6.50472 -2.79807 0
M  V30 2458 H 235.62 5.46918 -1.39787 0
M  V30 2459 N 235.018 0.912232 1.28515 0
M  V30 2460 C 236.266 0.543523 1.94654 0
M  V30 2461 C 236.587 -0.9155 1.72173 0
M  V30 2462 O 235.857 -1.64708 1.06058 0
M  V30 2463 H 234.437 0.198017 0.720277 0
M  V30 2464 H 237.099 1.16126 1.56527 0
M  V30 2465 H 236.195 0.736684 3.03281 0
M  V30 2466 N 236.496 -1.42363 0.676048 0
M  V30 2467 C 237.426 -2.33497 0.0124832 0
M  V30 2468 C 238.407 -1.50748 -0.787981 0
M  V30 2469 O 239.592 -1.79346 -0.744884 0
M  V30 2470 C 236.722 -3.34377 -0.938582 0
M  V30 2471 C 235.676 -4.27289 -0.246622 0
M  V30 2472 C 235.002 -5.18386 -1.31071 0
M  V30 2473 C 236.302 -5.14916 0.875125 0
M  V30 2474 H 237.996 -2.89233 0.773593 0
M  V30 2475 H 235.542 -1.39073 0.37346 0
M  V30 2476 H 237.495 -3.97044 -1.41188 0
M  V30 2477 H 236.219 -2.76947 -1.73113 0
M  V30 2478 H 234.878 -3.66018 0.206456 0
M  V30 2479 H 234.526 -4.57282 -2.09528 0
M  V30 2480 H 234.226 -5.81378 -0.852839 0
M  V30 2481 H 235.75 -5.83929 -1.78492 0
M  V30 2482 H 237.164 -5.71262 0.482983 0
M  V30 2483 H 235.561 -5.86747 1.25887 0
M  V30 2484 H 236.631 -4.53242 1.72335 0
M  V30 2485 N 237.974 -0.419461 -1.51915 0
M  V30 2486 C 238.907 0.445751 -2.23804 0
M  V30 2487 C 239.885 1.03951 -1.25031 0
M  V30 2488 O 241.069 1.08541 -1.54114 0
M  V30 2489 C 238.196 1.61964 -2.97465 0
M  V30 2490 C 237.242 1.14828 -4.10751 0
M  V30 2491 S 238.075 0.104938 -5.35397 0
M  V30 2492 C 239.231 1.28391 -6.1259 0
M  V30 2493 H 239.464 -0.164627 -2.96844 0
M  V30 2494 H 236.997 -0.203833 -1.53049 0
M  V30 2495 H 238.955 2.29271 -3.40507 0
M  V30 2496 H 237.616 2.20139 -2.24048 0
M  V30 2497 H 236.809 2.02561 -4.61503 0
M  V30 2498 H 236.411 0.553712 -3.69878 0
M  V30 2499 H 238.703 2.20563 -6.40592 0
M  V30 2500 H 239.646 0.816724 -7.03374 0
M  V30 2501 H 240.054 1.51439 -5.43807 0
M  V30 2502 N 239.452 1.56882 -0.150215 0
M  V30 2503 C 240.863 1.82995 0.370076 0
M  V30 2504 C 241.214 1.06907 1.64515 0
M  V30 2505 O 240.339 0.315369 2.1409 0
M  V30 2506 C 240.934 3.31942 0.678208 0
M  V30 2507 C 239.493 3.58625 1.14301 0
M  V30 2508 C 238.64 2.76792 0.167778 0
M  V30 2509 H 241.591 1.54209 -0.374858 0
M  V30 2510 H 241.612 3.48272 1.53254 0
M  V30 2511 H 241.124 3.87294 -0.249991 0
M  V30 2512 H 239.225 3.08664 2.08704 0
M  V30 2513 H 239.338 4.67073 1.06676 0
M  V30 2514 H 237.702 2.45972 0.661037 0
M  V30 2515 H 238.485 3.34916 -0.754069 0
M  V30 2516 N 240.93 -0.123565 1.57115 0
M  V30 2517 C 242.178 -0.83051 1.84247 0
M  V30 2518 C 242.499 -1.80629 0.73471 0
M  V30 2519 O 241.769 -1.94403 -0.241688 0
M  V30 2520 H 240.349 -0.309694 0.679778 0
M  V30 2521 H 243.011 -0.111976 1.94578 0
M  V30 2522 H 242.107 -1.37852 2.80006 0
M  V30 2523 N 242.408 -1.52605 -0.393616 0
M  V30 2524 C 243.358 -1.73436 -1.48 0
M  V30 2525 C 244.342 -0.588386 -1.49756 0
M  V30 2526 O 245.534 -0.846047 -1.5547 0
M  V30 2527 C 242.663 -1.90247 -2.85764 0
M  V30 2528 C 241.749 -3.10763 -2.88595 0
M  V30 2529 N 242.14 -4.33196 -2.61103 0
M  V30 2530 C 240.438 -3.10914 -3.19763 0
M  V30 2531 C 241.139 -5.1477 -2.70899 0
M  V30 2532 N 240.115 -4.50356 -3.04435 0
M  V30 2533 H 243.917 -2.65727 -1.25563 0
M  V30 2534 H 241.431 -1.5085 -0.601513 0
M  V30 2535 H 243.428 -2.03291 -3.63976 0
M  V30 2536 H 242.088 -0.991663 -3.09186 0
M  V30 2537 H 243.099 -4.61408 -2.35209 0
M  V30 2538 H 239.776 -2.29626 -3.4868 0
M  V30 2539 H 241.166 -6.22355 -2.53227 0
M  V30 2540 N 243.887 0.651787 -1.4349 0
M  V30 2541 C 245.133 1.41376 -1.45398 0
M  V30 2542 C 245.466 1.94041 -0.0784823 0
M  V30 2543 O 244.741 1.72379 0.900878 0
M  V30 2544 C 245.024 2.59414 -2.49752 0
M  V30 2545 C 244.877 2.12232 -3.96582 0
M  V30 2546 C 246.196 3.61626 -2.50827 0
M  V30 2547 H 243.315 0.512719 -0.529422 0
M  V30 2548 H 245.957 0.738796 -1.75048 0
M  V30 2549 H 244.107 3.16997 -2.246 0
M  V30 2550 H 245.779 1.59639 -4.32797 0
M  V30 2551 H 244.022 1.43592 -4.09346 0
M  V30 2552 H 244.693 2.9712 -4.65214 0
M  V30 2553 H 247.169 3.13805 -2.7325 0
M  V30 2554 H 246.045 4.41766 -3.25783 0
M  V30 2555 H 246.306 4.14314 -1.5426 0
M  V30 2556 N 245.365 1.30045 0.890287 0
M  V30 2557 C 246.595 1.21296 1.67245 0
M  V30 2558 C 247.003 -0.227471 1.87828 0
M  V30 2559 O 246.346 -1.16296 1.422 0
M  V30 2560 C 246.408 1.86519 3.07329 0
M  V30 2561 C 246.072 3.35837 3.09939 0
M  V30 2562 C 247.069 4.31915 2.89389 0
M  V30 2563 C 244.754 3.77196 3.31706 0
M  V30 2564 C 246.748 5.67325 2.90552 0
M  V30 2565 C 244.435 5.12725 3.32499 0
M  V30 2566 C 245.433 6.076 3.11947 0
M  V30 2567 O 245.121 7.40655 3.12547 0
M  V30 2568 H 244.853 0.4211 0.528821 0
M  V30 2569 H 247.407 1.72111 1.12103 0
M  V30 2570 H 245.637 1.30228 3.64112 0
M  V30 2571 H 247.326 1.71963 3.67673 0
M  V30 2572 H 248.092 4.01294 2.72375 0
M  V30 2573 H 243.971 3.03796 3.4674 0
M  V30 2574 H 247.515 6.41354 2.74429 0
M  V30 2575 H 243.412 5.42988 3.49047 0
M  V30 2576 H 244.18 7.49577 3.28749 0
M  V30 2577 N 246.843 -1.10192 1.12674 0
M  V30 2578 C 248.259 -1.34235 0.863317 0
M  V30 2579 C 248.459 -1.95062 -0.505277 0
M  V30 2580 O 247.515 -2.19192 -1.25345 0
M  V30 2581 C 248.828 -2.2616 1.98172 0
M  V30 2582 C 250.376 -2.3969 2.0129 0
M  V30 2583 C 250.851 -3.34946 3.1237 0
M  V30 2584 N 252.342 -3.42515 3.11829 0
M  V30 2585 C 253.077 -4.16199 3.94419 0
M  V30 2586 N 252.573 -4.92747 4.87004 0
M  V30 2587 N 254.366 -4.11843 3.82547 0
M  V30 2588 H 246.517 -0.690798 2.00853 0
M  V30 2589 H 248.78 -0.366774 0.874174 0
M  V30 2590 H 248.486 -1.8868 2.96804 0
M  V30 2591 H 248.36 -3.26488 1.88906 0
M  V30 2592 H 250.747 -2.76438 1.03276 0
M  V30 2593 H 250.828 -1.39169 2.14629 0
M  V30 2594 H 250.472 -2.98923 4.10619 0
M  V30 2595 H 250.402 -4.35353 2.96269 0
M  V30 2596 H 252.893 -2.87926 2.44759 0
M  V30 2597 H 253.206 -5.46376 5.46528 0
M  V30 2598 H 251.551 -4.91862 4.91016 0
M  V30 2599 H 254.742 -3.51136 3.0955 0
M  V30 2600 H 254.915 -4.69007 4.47142 0
M  V30 2601 N 248.321 -0.919034 -1.28029 0
M  V30 2602 C 249.284 -0.416182 -2.2539 0
M  V30 2603 C 250.284 0.460438 -1.54067 0
M  V30 2604 O 251.474 0.262744 -1.72207 0
M  V30 2605 C 248.606 0.402707 -3.38513 0
M  V30 2606 H 249.799 -1.27629 -2.71387 0
M  V30 2607 H 247.352 -0.698919 -1.39803 0
M  V30 2608 H 248.087 1.282 -2.97885 0
M  V30 2609 H 247.872 -0.225698 -3.9145 0
M  V30 2610 H 249.362 0.745191 -4.10897 0
M  V30 2611 N 249.799 1.42003 -0.683588 0
M  V30 2612 C 250.729 2.33487 -0.024866 0
M  V30 2613 C 251.71 1.51163 0.779975 0
M  V30 2614 O 252.895 1.79739 0.735362 0
M  V30 2615 C 250.025 3.3487 0.920836 0
M  V30 2616 C 248.979 4.27414 0.223958 0
M  V30 2617 C 248.305 5.19074 1.2832 0
M  V30 2618 C 249.605 5.14445 -0.90242 0
M  V30 2619 H 251.299 2.88819 -0.788921 0
M  V30 2620 H 248.845 1.38873 -0.38083 0
M  V30 2621 H 250.798 3.97787 1.39081 0
M  V30 2622 H 249.522 2.77861 1.71642 0
M  V30 2623 H 248.181 3.65904 -0.225864 0
M  V30 2624 H 247.829 4.58387 2.071 0
M  V30 2625 H 247.529 5.81822 0.821995 0
M  V30 2626 H 249.053 5.84867 1.75392 0
M  V30 2627 H 250.467 5.70998 -0.513272 0
M  V30 2628 H 248.864 5.86072 -1.28997 0
M  V30 2629 H 249.934 4.52322 -1.74737 0
M  V30 2630 N 251.277 0.427512 1.51691 0
M  V30 2631 C 252.507 -0.140986 2.06118 0
M  V30 2632 C 252.915 -1.37854 1.29588 0
M  V30 2633 O 252.258 -1.80411 0.346036 0
M  V30 2634 C 252.32 -0.538276 3.55447 0
M  V30 2635 C 251.984 0.591095 4.53161 0
M  V30 2636 C 252.981 1.46027 4.98971 0
M  V30 2637 C 250.666 0.769028 4.96378 0
M  V30 2638 C 252.66 2.49216 5.8666 0
M  V30 2639 C 250.347 1.80421 5.83859 0
M  V30 2640 C 251.345 2.66417 6.28897 0
M  V30 2641 O 251.033 3.68159 7.14643 0
M  V30 2642 H 250.765 -0.0157455 0.675817 0
M  V30 2643 H 253.319 0.602495 1.96365 0
M  V30 2644 H 251.549 -1.33432 3.6295 0
M  V30 2645 H 253.238 -1.0368 3.92435 0
M  V30 2646 H 254.004 1.33429 4.66285 0
M  V30 2647 H 249.883 0.109273 4.6087 0
M  V30 2648 H 253.427 3.16372 6.21735 0
M  V30 2649 H 249.324 1.93042 6.15959 0
M  V30 2650 H 250.092 3.64622 7.32798 0
M  V30 2651 N 252.755 -1.56801 0.158532 0
M  V30 2652 C 254.166 -1.83189 -0.360366 0
M  V30 2653 C 254.517 -1.07778 -1.63946 0
M  V30 2654 O 253.642 -0.326718 -2.13919 0
M  V30 2655 C 254.237 -3.32297 -0.660595 0
M  V30 2656 C 252.796 -3.59227 -1.12398 0
M  V30 2657 C 251.943 -2.76877 -0.153097 0
M  V30 2658 H 254.894 -1.54008 0.383031 0
M  V30 2659 H 254.915 -3.4908 -1.51405 0
M  V30 2660 H 254.427 -3.87156 0.270527 0
M  V30 2661 H 252.528 -3.09766 -2.07064 0
M  V30 2662 H 252.641 -4.67632 -1.04197 0
M  V30 2663 H 251.005 -2.46319 -0.647983 0
M  V30 2664 H 251.788 -3.34511 0.77182 0
M  V30 2665 N 254.233 0.115231 -1.57178 0
M  V30 2666 C 255.473 0.828199 -1.8687 0
M  V30 2667 C 255.837 1.76873 -0.747002 0
M  V30 2668 O 257.038 2.52354 -0.925785 0
M  V30 2669 C 255.309 1.55515 -3.21792 0
M  V30 2670 S 256.868 2.30917 -3.73125 0
M  V30 2671 H 253.686 0.27634 -0.655101 0
M  V30 2672 H 256.288 0.0863469 -1.95309 0
M  V30 2673 H 254.992 0.856248 -4.01368 0
M  V30 2674 H 254.523 2.3373 -3.16439 0
M  V30 2675 H 256.538 3.56705 -3.44929 0
M  V30 2676 N 255.711 1.52812 0.385517 0
M  V30 2677 C 257.122 1.5993 0.963293 0
M  V30 2678 C 257.473 0.454302 1.90868 0
M  V30 2679 O 256.598 -0.422132 2.12243 0
M  V30 2680 C 257.193 2.89871 1.75387 0
M  V30 2681 C 255.752 2.99389 2.28129 0
M  V30 2682 C 254.899 2.55071 1.08783 0
M  V30 2683 H 257.85 1.5784 0.164948 0
M  V30 2684 H 257.871 2.76553 2.61341 0
M  V30 2685 H 257.383 3.73186 1.06554 0
M  V30 2686 H 255.484 2.20619 3.00263 0
M  V30 2687 H 255.597 4.04096 2.57377 0
M  V30 2688 H 253.961 2.09473 1.4489 0
M  V30 2689 H 254.744 3.40785 0.414807 0
M  V30 2690 N 257.189 -0.644168 1.43834 0
M  V30 2691 C 258.119 -1.76814 1.52509 0
M  V30 2692 C 259.1 -1.65823 0.379052 0
M  V30 2693 O 260.285 -1.84781 0.597466 0
M  V30 2694 C 257.415 -3.15288 1.4564 0
M  V30 2695 C 256.369 -3.41053 2.58586 0
M  V30 2696 C 255.695 -4.79421 2.36769 0
M  V30 2697 C 256.995 -3.34902 4.00797 0
M  V30 2698 H 258.689 -1.69812 2.46586 0
M  V30 2699 H 256.235 -0.815542 1.1868 0
M  V30 2700 H 258.188 -3.93681 1.50311 0
M  V30 2701 H 256.912 -3.23043 0.480725 0
M  V30 2702 H 255.571 -2.65035 2.53282 0
M  V30 2703 H 255.219 -4.83863 1.37424 0
M  V30 2704 H 254.919 -4.9762 3.12487 0
M  V30 2705 H 256.443 -5.6006 2.43238 0
M  V30 2706 H 257.857 -4.03218 4.07539 0
M  V30 2707 H 256.254 -3.64637 4.76613 0
M  V30 2708 H 257.324 -2.32928 4.25291 0
M  V30 2709 N 258.668 -1.30515 -0.883378 0
M  V30 2710 C 259.618 -1.13641 -1.9766 0
M  V30 2711 C 260.602 -0.0511314 -1.60819 0
M  V30 2712 O 261.794 -0.274623 -1.74857 0
M  V30 2713 C 258.923 -0.831976 -3.33066 0
M  V30 2714 C 258.009 -1.95759 -3.76217 0
M  V30 2715 N 258.4 -3.20313 -3.9145 0
M  V30 2716 C 256.698 -1.85431 -4.05625 0
M  V30 2717 C 257.399 -3.93856 -4.2808 0
M  V30 2718 N 256.375 -3.21919 -4.38029 0
M  V30 2719 H 260.177 -2.08106 -2.07531 0
M  V30 2720 H 257.691 -1.21877 -1.0733 0
M  V30 2721 H 259.688 -0.692102 -4.11115 0
M  V30 2722 H 258.348 0.104588 -3.24532 0
M  V30 2723 H 259.359 -3.55583 -3.76538 0
M  V30 2724 H 256.036 -0.991531 -4.05555 0
M  V30 2725 H 257.426 -5.01125 -4.47575 0
M  V30 2726 N 260.146 1.09593 -1.13257 0
M  V30 2727 C 261.394 1.81375 -0.891492 0
M  V30 2728 C 261.715 1.86049 0.584009 0
M  V30 2729 O 260.985 1.34481 1.42449 0
M  V30 2730 H 259.565 0.671708 -0.326828 0
M  V30 2731 H 262.227 1.3256 -1.42877 0
M  V30 2732 H 261.323 2.84612 -1.28071 0
M  V30 2733 N 261.624 0.925811 1.2754 0
M  V30 2734 C 262.873 0.561084 1.93739 0
M  V30 2735 C 263.186 -0.901685 1.73577 0
M  V30 2736 O 264.392 -1.37511 2.34101 0
M  V30 2737 C 262.848 0.952668 3.47062 0
M  V30 2738 C 262.456 2.43599 3.75983 0
M  V30 2739 C 264.2 0.659103 4.19352 0
M  V30 2740 C 262.107 2.76707 5.22673 0
M  V30 2741 H 261.037 0.206122 0.725279 0
M  V30 2742 H 263.688 1.12637 1.44863 0
M  V30 2743 H 262.07 0.316053 3.94737 0
M  V30 2744 H 263.244 3.12035 3.39073 0
M  V30 2745 H 261.559 2.70125 3.16893 0
M  V30 2746 H 264.156 0.882985 5.27359 0
M  V30 2747 H 264.499 -0.403607 4.14339 0
M  V30 2748 H 265.032 1.25473 3.77494 0
M  V30 2749 H 261.771 3.8188 5.32774 0
M  V30 2750 H 261.291 2.12919 5.60737 0
M  V30 2751 H 262.97 2.6435 5.90532 0
M  V30 2752 N 263.102 -1.41638 0.69111 0
M  V30 2753 C 264.327 -2.06148 0.227583 0
M  V30 2754 C 264.752 -1.51652 -1.11281 0
M  V30 2755 O 264.11 -0.64164 -1.69566 0
M  V30 2756 C 264.158 -3.60095 0.190858 0
M  V30 2757 O 263.262 -4.03845 -0.835664 0
M  V30 2758 H 262.603 -0.654434 0.112306 0
M  V30 2759 H 265.133 -1.81484 0.944714 0
M  V30 2760 H 265.143 -4.07995 0.020207 0
M  V30 2761 H 263.818 -3.99129 1.16915 0
M  V30 2762 H 262.395 -3.67458 -0.63473 0
M  V30 2763 N 264.58 -0.43555 -1.51462 0
M  V30 2764 C 265.49 0.383001 -2.31453 0
M  V30 2765 C 266.506 1.02931 -1.4029 0
M  V30 2766 O 267.682 1.02507 -1.73362 0
M  V30 2767 C 264.747 1.47043 -3.13973 0
M  V30 2768 C 263.808 0.844433 -4.20913 0
M  V30 2769 C 263.041 1.88004 -4.9949 0
M  V30 2770 O 263.264 3.10199 -4.78678 0
M  V30 2771 O 262.198 1.47157 -5.83634 0
M  V30 2772 H 266.024 -0.269964 -3.02498 0
M  V30 2773 H 263.609 -0.19813 -1.4808 0
M  V30 2774 H 265.491 2.10113 -3.65281 0
M  V30 2775 H 264.166 2.10751 -2.45695 0
M  V30 2776 H 263.073 0.175729 -3.73687 0
M  V30 2777 H 264.406 0.250869 -4.9156 0
M  V30 2778 N 266.058 1.56714 -0.166846 0
M  V30 2779 C 267.335 1.88412 0.525373 0
M  V30 2780 C 267.715 1.07602 1.81618 0
M  V30 2781 O 267.063 0.168621 2.27877 0
M  V30 2782 C 267.273 3.40363 0.771613 0
M  V30 2783 C 268.621 4.10007 1.1036 0
M  V30 2784 O 269.645 3.45655 0.860304 0
M  V30 2785 O 268.504 5.2369 1.56239 0
M  V30 2786 H 265.598 0.781587 0.270278 0
M  V30 2787 H 268.144 1.68458 -0.204946 0
M  V30 2788 H 266.916 3.91046 -0.141093 0
M  V30 2789 H 266.539 3.65914 1.55541 0
M  V30 2790 N 267.536 -0.106894 1.57237 0
M  V30 2791 C 268.813 -0.843526 1.76477 0
M  V30 2792 C 269.193 -1.97499 0.745464 0
M  V30 2793 O 268.541 -2.27357 -0.228306 0
M  V30 2794 C 268.751 -1.34903 3.21873 0
M  V30 2795 C 270.099 -1.79654 3.8472 0
M  V30 2796 O 271.123 -1.44554 3.2555 0
M  V30 2797 O 269.982 -2.44515 4.88748 0
M  V30 2798 H 267.076 -0.401468 0.723016 0
M  V30 2799 H 269.622 -0.0896927 1.69463 0
M  V30 2800 H 268.394 -0.53781 3.87586 0
M  V30 2801 H 268.017 -2.16522 3.33473 0
M  V30 2802 N 269.014 -1.53014 -0.377408 0
M  V30 2803 C 269.977 -1.77957 -1.44444 0
M  V30 2804 C 270.977 -0.649763 -1.47087 0
M  V30 2805 O 272.167 -0.917897 -1.48055 0
M  V30 2806 C 269.299 -1.89089 -2.83651 0
M  V30 2807 H 270.492 -2.73243 -1.23606 0
M  V30 2808 H 268.045 -1.43912 -0.609844 0
M  V30 2809 H 268.78 -0.958293 -3.09818 0
M  V30 2810 H 268.565 -2.71254 -2.83132 0
M  V30 2811 H 270.055 -2.1002 -3.60945 0
M  V30 2812 N 270.492 0.636531 -1.44174 0
M  V30 2813 C 271.741 1.39213 -1.45954 0
M  V30 2814 C 272.054 1.95374 -0.0939119 0
M  V30 2815 O 273.26 2.71498 0.0107767 0
M  V30 2816 C 271.716 2.52025 -2.56927 0
M  V30 2817 C 271.324 2.024 -3.99673 0
M  V30 2818 C 273.068 3.29269 -2.67922 0
M  V30 2819 C 270.975 3.12521 -5.0208 0
M  V30 2820 H 269.905 0.523132 -0.542999 0
M  V30 2821 H 272.556 0.685349 -1.70221 0
M  V30 2822 H 270.938 3.25253 -2.25891 0
M  V30 2823 H 272.112 1.36073 -4.40251 0
M  V30 2824 H 270.427 1.37987 -3.92872 0
M  V30 2825 H 273.024 4.11352 -3.41605 0
M  V30 2826 H 273.367 3.78397 -1.73555 0
M  V30 2827 H 273.9 2.63129 -2.98342 0
M  V30 2828 H 270.639 2.68343 -5.98057 0
M  V30 2829 H 270.159 3.77507 -4.66099 0
M  V30 2830 H 271.838 3.77385 -5.25538 0
M  V30 2831 N 271.97 1.30982 0.876444 0
M  V30 2832 C 272.933 1.18054 1.96459 0
M  V30 2833 C 273.933 0.109399 1.60427 0
M  V30 2834 O 275.123 0.358173 1.70478 0
M  V30 2835 C 272.255 0.810616 3.31122 0
M  V30 2836 H 273.448 2.14735 2.09354 0
M  V30 2837 H 271.001 1.145 1.06392 0
M  V30 2838 H 271.736 -0.155322 3.23928 0
M  V30 2839 H 271.521 1.58481 3.58645 0
M  V30 2840 H 273.011 0.743876 4.10921 0
M  V30 2841 N 273.449 -1.08991 1.13837 0
M  V30 2842 C 274.674 -1.85551 0.926585 0
M  V30 2843 C 275.099 -1.80782 -0.519566 0
M  V30 2844 O 274.457 -1.18855 -1.36906 0
M  V30 2845 C 274.505 -3.31266 1.42462 0
M  V30 2846 O 273.609 -4.07822 0.612789 0
M  V30 2847 H 272.95 -0.575192 0.331738 0
M  V30 2848 H 275.48 -1.37604 1.51414 0
M  V30 2849 H 275.49 -3.82112 1.43019 0
M  V30 2850 H 274.165 -3.34052 2.47754 0
M  V30 2851 H 272.742 -3.66731 0.675463 0
M  V30 2852 N 274.927 -0.932562 -1.27047 0
M  V30 2853 C 276.176 -0.571351 -1.93439 0
M  V30 2854 C 276.489 0.892467 -1.74053 0
M  V30 2855 O 277.695 1.36267 -2.34826 0
M  V30 2856 C 276.151 -0.97106 -3.46552 0
M  V30 2857 C 275.759 -2.4559 -3.74686 0
M  V30 2858 C 277.503 -0.681333 -4.18997 0
M  V30 2859 C 275.41 -2.79475 -5.21198 0
M  V30 2860 H 274.34 -0.209966 -0.724176 0
M  V30 2861 H 276.991 -1.13403 -1.44263 0
M  V30 2862 H 275.373 -0.336983 -3.94564 0
M  V30 2863 H 276.547 -3.13829 -3.37414 0
M  V30 2864 H 274.862 -2.71802 -3.15456 0
M  V30 2865 H 277.459 -0.910939 -5.26883 0
M  V30 2866 H 277.802 0.381628 -4.14547 0
M  V30 2867 H 278.335 -1.27473 -3.76823 0
M  V30 2868 H 275.074 -3.847 -5.30741 0
M  V30 2869 H 274.594 -2.1589 -5.596 0
M  V30 2870 H 276.273 -2.67478 -5.89122 0
M  V30 2871 N 276.405 1.4127 -0.698611 0
M  V30 2872 C 277.355 2.27997 -0.0119836 0
M  V30 2873 C 278.339 1.42363 0.749765 0
M  V30 2874 O 279.531 1.65607 0.624758 0
M  V30 2875 C 276.66 3.30702 0.921458 0
M  V30 2876 C 275.746 4.23814 0.155796 0
M  V30 2877 N 276.137 4.98572 -0.852015 0
M  V30 2878 C 274.435 4.44284 0.390836 0
M  V30 2879 C 275.136 5.66744 -1.3106 0
M  V30 2880 N 274.112 5.39867 -0.635944 0
M  V30 2881 H 277.914 2.83232 -0.784649 0
M  V30 2882 H 275.428 1.53518 -0.529711 0
M  V30 2883 H 277.425 3.91661 1.42854 0
M  V30 2884 H 276.085 2.77028 1.69369 0
M  V30 2885 H 277.096 5.03024 -1.23235 0
M  V30 2886 H 273.773 4.01614 1.14071 0
M  V30 2887 H 275.163 6.36672 -2.14707 0
M  V30 2888 N 277.883 0.443576 1.51229 0
M  V30 2889 C 279.299 0.0962001 1.5931 0
M  V30 2890 C 279.499 -1.39501 1.45402 0
M  V30 2891 O 278.555 -2.16557 1.29843 0
M  V30 2892 C 279.868 0.621875 2.94199 0
M  V30 2893 C 281.416 0.582865 3.07525 0
M  V30 2894 C 281.891 1.08562 4.44948 0
M  V30 2895 N 283.382 1.04387 4.51284 0
M  V30 2896 C 284.117 1.40368 5.55954 0
M  V30 2897 N 283.613 1.83664 6.68011 0
M  V30 2898 N 285.406 1.32145 5.46346 0
M  V30 2899 H 277.557 1.41376 1.58514 0
M  V30 2900 H 279.82 0.582965 0.747567 0
M  V30 2901 H 279.526 1.66546 3.09767 0
M  V30 2902 H 279.4 0.0502125 3.77167 0
M  V30 2903 H 281.787 -0.451749 2.91622 0
M  V30 2904 H 281.868 1.191 2.26382 0
M  V30 2905 H 281.512 2.11873 4.61598 0
M  V30 2906 H 281.442 0.453956 5.2464 0
M  V30 2907 H 283.933 0.725986 3.70861 0
M  V30 2908 H 284.246 2.0934 7.43906 0
M  V30 2909 H 282.591 1.87596 6.69203 0
M  V30 2910 H 285.782 0.981808 4.57688 0
M  V30 2911 H 285.955 1.60514 6.27805 0
M  V30 2912 N 279.361 -1.56624 0.175154 0
M  V30 2913 C 280.61 -1.96173 -0.468921 0
M  V30 2914 C 280.923 -1.06401 -1.64128 0
M  V30 2915 O 282.129 -1.35648 -2.35185 0
M  V30 2916 C 280.585 -3.48833 -0.885633 0
M  V30 2917 C 280.193 -4.47237 0.261343 0
M  V30 2918 C 281.937 -3.97194 -1.49791 0
M  V30 2919 C 279.844 -5.9114 -0.175214 0
M  V30 2920 H 278.774 -0.732455 -0.178958 0
M  V30 2921 H 281.425 -1.81591 0.263997 0
M  V30 2922 H 279.807 -3.58848 -1.67464 0
M  V30 2923 H 280.981 -4.4894 1.03871 0
M  V30 2924 H 279.296 -4.08956 0.783827 0
M  V30 2925 H 281.893 -5.02167 -1.83665 0
M  V30 2926 H 282.236 -3.40351 -2.39722 0
M  V30 2927 H 282.769 -3.90212 -0.773267 0
M  V30 2928 H 279.508 -6.51865 0.689414 0
M  V30 2929 H 279.028 -5.92735 -0.91786 0
M  V30 2930 H 280.707 -6.44044 -0.617792 0
M  V30 2931 N 280.839 0.0985539 -1.57292 0
M  V30 2932 C 282.086 0.802678 -1.85912 0
M  V30 2933 C 282.414 1.78901 -0.763186 0
M  V30 2934 O 281.669 1.94178 0.243559 0
M  V30 2935 C 281.968 1.56927 -3.21105 0
M  V30 2936 C 281.634 0.725376 -4.45027 0
M  V30 2937 C 280.296 0.492726 -4.78671 0
M  V30 2938 C 282.648 0.138493 -5.21016 0
M  V30 2939 C 279.976 -0.336727 -5.85733 0
M  V30 2940 C 282.328 -0.678264 -6.28953 0
M  V30 2941 C 280.992 -0.921039 -6.61115 0
M  V30 2942 H 280.262 0.293721 -0.680301 0
M  V30 2943 H 282.909 0.0642841 -1.91392 0
M  V30 2944 H 281.214 2.37914 -3.11294 0
M  V30 2945 H 282.911 2.11841 -3.40477 0
M  V30 2946 H 279.501 0.916815 -4.18679 0
M  V30 2947 H 283.685 0.305404 -4.95359 0
M  V30 2948 H 278.941 -0.533836 -6.09065 0
M  V30 2949 H 283.115 -1.1399 -6.87007 0
M  V30 2950 H 280.742 -1.56556 -7.43905 0
M  V30 2951 N 282.317 1.53212 0.369288 0
M  V30 2952 C 283.264 1.79388 1.45219 0
M  V30 2953 C 284.234 0.638059 1.53356 0
M  V30 2954 O 285.419 0.879852 1.69302 0
M  V30 2955 C 282.559 1.98623 2.82211 0
M  V30 2956 C 281.672 3.26337 2.8307 0
M  V30 2957 C 280.807 3.35779 4.11614 0
M  V30 2958 C 279.846 4.5754 4.06601 0
M  V30 2959 N 278.983 4.64155 5.26787 0
M  V30 2960 H 283.823 2.71794 1.22198 0
M  V30 2961 H 281.36 1.34642 0.592444 0
M  V30 2962 H 283.318 2.07761 3.61789 0
M  V30 2963 H 281.948 1.09558 3.03639 0
M  V30 2964 H 281 3.26171 1.95747 0
M  V30 2965 H 282.312 4.15988 2.75237 0
M  V30 2966 H 281.466 3.44208 4.99606 0
M  V30 2967 H 280.205 2.44137 4.22195 0
M  V30 2968 H 279.21 4.49215 3.16996 0
M  V30 2969 H 280.435 5.50519 3.97625 0
M  V30 2970 H 278.381 3.75413 5.3796 0
M  V30 2971 H 278.298 5.47706 5.21109 0
M  V30 2972 H 279.566 4.76863 6.16621 0
M  V30 2973 N 283.795 -0.628877 1.44509 0
M  V30 2974 C 284.743 -1.76193 1.51852 0
M  V30 2975 C 285.737 -1.64849 0.390042 0
M  V30 2976 O 286.943 -1.709 0.565082 0
M  V30 2977 H 283.318 -0.581728 0.476547 0
M  V30 2978 H 285.289 -1.67123 2.47209 0
M  V30 2979 C 284.038 -3.14533 1.48204 0
M  V30 2980 H 283.361 -3.23911 2.34354 0
M  V30 2981 H 284.801 -3.93701 1.57402 0
M  V30 2982 C 283.26 -3.36287 0.203142 0
M  V30 2983 O 283.79 -3.9509 -0.725745 0
M  V30 2984 N 281.996 -2.90408 0.105563 0
M  V30 2985 H 281.543 -2.42739 0.862301 0
M  V30 2986 H 281.501 -3.05339 -0.749371 0
M  V30 2987 N 285.273 -1.31445 -0.869486 0
M  V30 2988 C 286.55 -1.11795 -1.60503 0
M  V30 2989 C 286.93 0.327168 -2.08549 0
M  V30 2990 O 286.278 1.32135 -1.8642 0
M  V30 2991 C 286.488 -2.13258 -2.76265 0
M  V30 2992 C 287.836 -2.45805 -3.46215 0
M  V30 2993 O 288.86 -2.11688 -2.86473 0
M  V30 2994 O 287.719 -3.04228 -4.5399 0
M  V30 2995 H 284.813 -0.430421 -0.706163 0
M  V30 2996 H 287.359 -1.42925 -0.914907 0
M  V30 2997 H 286.131 -3.10461 -2.3818 0
M  V30 2998 H 285.754 -1.83035 -3.52964 0
M  V30 2999 N 286.751 1.08385 -1.14413 0
M  V30 3000 C 287.714 2.13486 -0.834048 0
M  V30 3001 C 288.714 1.59988 0.161418 0
M  V30 3002 O 289.904 1.74071 -0.0669575 0
M  V30 3003 C 287.036 3.4003 -0.243354 0
M  V30 3004 H 288.229 2.42425 -1.7655 0
M  V30 3005 H 285.782 1.24101 -0.950189 0
M  V30 3006 H 286.517 3.16726 0.696807 0
M  V30 3007 H 286.302 3.80157 -0.960367 0
M  V30 3008 H 287.792 4.17577 -0.0436242 0
M  V30 3009 N 288.23 0.939286 1.26551 0
M  V30 3010 C 289.193 0.451987 2.24699 0
M  V30 3011 C 290.193 -0.435869 1.5478 0
M  V30 3012 O 291.383 -0.235314 1.72603 0
M  V30 3013 C 288.515 -0.348801 3.39111 0
M  V30 3014 H 289.708 1.3193 2.69322 0
M  V30 3015 H 287.261 0.721072 1.38673 0
M  V30 3016 H 287.996 -1.23444 2.99887 0
M  V30 3017 H 287.781 0.287945 3.91041 0
M  V30 3018 H 289.271 -0.679726 4.12031 0
M  V30 3019 N 289.708 -1.40897 0.706093 0
M  V30 3020 C 291.119 -1.84023 0.315052 0
M  V30 3021 C 291.47 -1.5906 -1.14866 0
M  V30 3022 O 290.595 -1.06651 -1.88293 0
M  V30 3023 C 291.19 -3.34055 0.565038 0
M  V30 3024 C 289.749 -3.7571 0.227806 0
M  V30 3025 C 288.896 -2.64204 0.842122 0
M  V30 3026 H 291.847 -1.303 0.905963 0
M  V30 3027 H 291.868 -3.80107 -0.172843 0
M  V30 3028 H 291.38 -3.52192 1.63042 0
M  V30 3029 H 289.481 -3.63172 -0.832895 0
M  V30 3030 H 289.594 -4.74103 0.690174 0
M  V30 3031 H 287.958 -2.53255 0.270893 0
M  V30 3032 H 288.741 -2.85155 1.91158 0
M  V30 3033 N 291.186 -0.45159 -1.50991 0
M  V30 3034 C 292.096 0.358431 -2.31846 0
M  V30 3035 C 293.112 1.01438 -1.41373 0
M  V30 3036 O 294.288 1.00663 -1.74439 0
M  V30 3037 C 291.353 1.43704 -3.15515 0
M  V30 3038 C 290.414 0.799742 -4.21785 0
M  V30 3039 C 289.647 1.82696 -5.01456 0
M  V30 3040 O 289.87 3.05105 -4.81941 0
M  V30 3041 O 288.804 1.40958 -5.85162 0
M  V30 3042 H 292.63 -0.302032 -3.02194 0
M  V30 3043 H 290.215 -0.213825 -1.47862 0
M  V30 3044 H 292.097 2.06227 -3.67489 0
M  V30 3045 H 290.772 2.08133 -2.47916 0
M  V30 3046 H 289.679 0.136084 -3.73852 0
M  V30 3047 H 291.012 0.198718 -4.91799 0
M  V30 3048 N 292.664 1.56529 -0.183458 0
M  V30 3049 C 293.941 1.88959 0.50536 0
M  V30 3050 C 294.321 1.09523 1.80466 0
M  V30 3051 O 293.669 0.19278 2.27685 0
M  V30 3052 C 293.879 3.41162 0.73547 0
M  V30 3053 C 295.227 4.11155 1.06005 0
M  V30 3054 O 296.251 3.46548 0.823594 0
M  V30 3055 O 295.11 5.25318 1.50675 0
M  V30 3056 H 292.204 0.78441 0.261973 0
M  V30 3057 H 294.75 1.68231 -0.222802 0
M  V30 3058 H 293.522 3.90874 -0.182561 0
M  V30 3059 H 293.145 3.67543 1.51651 0
M  V30 3060 N 294.142 -0.090211 1.57342 0
M  V30 3061 C 295.391 -0.791531 1.8552 0
M  V30 3062 C 295.704 -1.79659 0.773441 0
M  V30 3063 O 296.91 -2.54616 0.942497 0
M  V30 3064 C 295.366 -1.45856 3.2902 0
M  V30 3065 C 294.974 -0.493017 4.45279 0
M  V30 3066 C 296.718 -2.14332 3.66418 0
M  V30 3067 C 294.625 -1.16491 5.79814 0
M  V30 3068 H 293.555 -0.299356 0.692027 0
M  V30 3069 H 296.206 -0.0445343 1.83446 0
M  V30 3070 H 294.588 -2.25318 3.2565 0
M  V30 3071 H 295.762 0.270464 4.60006 0
M  V30 3072 H 294.077 0.0863061 4.16311 0
M  V30 3073 H 296.674 -2.65344 4.64216 0
M  V30 3074 H 297.017 -2.93447 2.95287 0
M  V30 3075 H 297.55 -1.41724 3.71698 0
M  V30 3076 H 294.289 -0.41447 6.54188 0
M  V30 3077 H 293.809 -1.8997 5.68921 0
M  V30 3078 H 295.488 -1.69001 6.24538 0
M  V30 3079 N 295.62 -1.53406 -0.361157 0
M  V30 3080 C 296.583 -1.79479 -1.42548 0
M  V30 3081 C 297.583 -0.665327 -1.4639 0
M  V30 3082 O 298.773 -0.933549 -1.47073 0
M  V30 3083 C 295.905 -1.92087 -2.8163 0
M  V30 3084 H 297.098 -2.74538 -1.20701 0
M  V30 3085 H 294.651 -1.4455 -0.594546 0
M  V30 3086 H 295.386 -0.991099 -3.08784 0
M  V30 3087 H 295.171 -2.74241 -2.80239 0
M  V30 3088 H 296.661 -2.13836 -3.58697 0
M  V30 3089 N 297.098 0.621204 -1.44841 0
M  V30 3090 C 298.061 1.71459 -1.521 0
M  V30 3091 C 299.061 1.55696 -0.401933 0
M  V30 3092 O 300.251 1.61011 -0.664925 0
M  V30 3093 C 297.383 3.10624 -1.40447 0
M  V30 3094 H 298.576 1.66394 -2.49506 0
M  V30 3095 H 296.129 0.835745 -1.3208 0
M  V30 3096 H 296.864 3.21277 -0.441737 0
M  V30 3097 H 296.649 3.23473 -2.21602 0
M  V30 3098 H 298.139 3.90293 -1.4853 0
M  V30 3099 N 298.576 1.31904 0.862503 0
M  V30 3100 C 299.825 1.21373 1.61094 0
M  V30 3101 C 300.138 -0.22504 1.94301 0
M  V30 3102 O 301.344 -0.452121 2.67709 0
M  V30 3103 C 299.8 2.12525 2.9045 0
M  V30 3104 C 299.408 3.61441 2.64697 0
M  V30 3105 C 301.152 2.10813 3.68454 0
M  V30 3106 C 299.059 4.44578 3.90006 0
M  V30 3107 H 297.989 0.450705 0.604468 0
M  V30 3108 H 300.64 1.56811 0.953027 0
M  V30 3109 H 299.022 1.69994 3.57656 0
M  V30 3110 H 300.196 4.12264 2.05851 0
M  V30 3111 H 298.511 3.65205 2.00036 0
M  V30 3112 H 301.108 2.70167 4.61426 0
M  V30 3113 H 301.451 1.09713 4.01583 0
M  V30 3114 H 301.984 2.51583 3.08141 0
M  V30 3115 H 298.723 5.46461 3.62023 0
M  V30 3116 H 298.243 3.98508 4.48276 0
M  V30 3117 H 299.922 4.57176 4.5782 0
M  V30 3118 N 300.054 -1.07777 1.14986 0
M  V30 3119 C 301.3 -1.80557 0.923422 0
M  V30 3120 C 301.633 -1.86298 -0.548337 0
M  V30 3121 O 300.908 -1.34354 -1.40639 0
M  V30 3122 C 301.191 -3.25839 1.53299 0
M  V30 3123 C 301.044 -3.28269 3.07505 0
M  V30 3124 C 302.363 -4.22991 1.21518 0
M  V30 3125 H 299.482 -0.655493 0.336894 0
M  V30 3126 H 302.124 -1.26144 1.42083 0
M  V30 3127 H 300.274 -3.72306 1.10999 0
M  V30 3128 H 301.946 -2.90079 3.58681 0
M  V30 3129 H 300.189 -2.67355 3.4162 0
M  V30 3130 H 300.86 -4.30691 3.45266 0
M  V30 3131 H 303.336 -3.84894 1.581 0
M  V30 3132 H 302.212 -5.22945 1.66793 0
M  V30 3133 H 302.473 -4.41904 0.131505 0
M  V30 3134 N 301.532 -0.945985 -1.26051 0
M  V30 3135 C 302.781 -0.591836 -1.92822 0
M  V30 3136 C 303.094 0.873956 -1.7499 0
M  V30 3137 O 304.3 1.33769 -2.36259 0
M  V30 3138 C 302.756 -1.00776 -3.45503 0
M  V30 3139 C 302.364 -2.4955 -3.7206 0
M  V30 3140 C 304.108 -0.725735 -4.1825 0
M  V30 3141 C 302.015 -2.84988 -5.18205 0
M  V30 3142 H 300.945 -0.217635 -0.721908 0
M  V30 3143 H 303.596 -1.14927 -1.43052 0
M  V30 3144 H 301.978 -0.378812 -3.94184 0
M  V30 3145 H 303.152 -3.1739 -3.34066 0
M  V30 3146 H 301.467 -2.75133 -3.12555 0
M  V30 3147 H 304.064 -0.966771 -5.25887 0
M  V30 3148 H 304.407 0.337639 -4.14929 0
M  V30 3149 H 304.94 -1.31463 -3.7545 0
M  V30 3150 H 301.679 -3.90307 -5.26631 0
M  V30 3151 H 301.199 -2.21813 -5.57278 0
M  V30 3152 H 302.878 -2.73712 -5.86252 0
M  V30 3153 N 303.011 1.40521 -0.713556 0
M  V30 3154 C 303.921 2.34522 -0.0606667 0
M  V30 3155 C 304.937 1.57193 0.74607 0
M  V30 3156 O 306.113 1.89591 0.679493 0
M  V30 3157 C 303.178 3.36081 0.851491 0
M  V30 3158 C 302.239 4.29286 0.0349339 0
M  V30 3159 C 301.472 5.25994 0.903649 0
M  V30 3160 O 301.695 5.28616 2.14292 0
M  V30 3161 O 300.629 6.00918 0.343723 0
M  V30 3162 H 304.455 2.91968 -0.835972 0
M  V30 3163 H 302.04 1.41681 -0.47402 0
M  V30 3164 H 303.922 3.98369 1.37404 0
M  V30 3165 H 302.597 2.81052 1.60598 0
M  V30 3166 H 301.504 3.70289 -0.532633 0
M  V30 3167 H 302.837 4.87462 -0.681287 0
M  V30 3168 N 304.489 0.459591 1.5075 0
M  V30 3169 C 305.9 0.00171547 1.867 0
M  V30 3170 C 306.251 -1.39934 1.37525 0
M  V30 3171 O 305.376 -2.03523 0.735349 0
M  V30 3172 C 305.971 -0.00366298 3.388 0
M  V30 3173 C 304.53 -0.406026 3.74204 0
M  V30 3174 C 303.677 0.38673 2.7459 0
M  V30 3175 H 306.628 0.674413 1.43657 0
M  V30 3176 H 306.649 -0.808371 3.71814 0
M  V30 3177 H 306.161 1.01617 3.74561 0
M  V30 3178 H 304.262 -1.43063 3.4404 0
M  V30 3179 H 304.375 -0.115362 4.78961 0
M  V30 3180 H 302.739 -0.158019 2.54209 0
M  V30 3181 H 303.522 1.40585 3.13194 0
M  V30 3182 N 305.967 -1.56429 0.191757 0
M  V30 3183 C 307.213 -1.97777 -0.448554 0
M  V30 3184 C 307.546 -1.07847 -1.61501 0
M  V30 3185 O 306.821 -0.129774 -1.94067 0
M  V30 3186 C 307.104 -3.48362 -0.911906 0
M  V30 3187 C 306.957 -4.4907 0.256136 0
M  V30 3188 C 308.276 -4.02561 -1.77857 0
M  V30 3189 H 305.395 -0.719071 -0.161572 0
M  V30 3190 H 308.037 -1.87896 0.282007 0
M  V30 3191 H 306.187 -3.56914 -1.53442 0
M  V30 3192 H 307.859 -4.5256 0.893733 0
M  V30 3193 H 306.102 -4.24181 0.908436 0
M  V30 3194 H 306.773 -5.51889 -0.11053 0
M  V30 3195 H 309.249 -3.96767 -1.25359 0
M  V30 3196 H 308.125 -5.08301 -2.07174 0
M  V30 3197 H 308.386 -3.47616 -2.73158 0
M  V30 3198 N 307.445 0.0818655 -1.57387 0
M  V30 3199 C 308.377 1.12484 -1.997 0
M  V30 3200 C 309.39 1.35564 -0.90146 0
M  V30 3201 O 310.579 1.33982 -1.17945 0
M  V30 3202 C 307.679 2.47778 -2.31213 0
M  V30 3203 C 306.852 2.44793 -3.62485 0
M  V30 3204 C 305.911 3.62117 -3.81782 0
M  V30 3205 O 304.937 3.44005 -4.53486 0
M  V30 3206 N 306.139 4.82094 -3.23367 0
M  V30 3207 H 308.904 0.764585 -2.89783 0
M  V30 3208 H 306.465 0.270664 -1.59621 0
M  V30 3209 H 308.457 3.24891 -2.41304 0
M  V30 3210 H 307.027 2.75843 -1.4707 0
M  V30 3211 H 306.247 1.53134 -3.6324 0
M  V30 3212 H 307.535 2.39889 -4.48699 0
M  V30 3213 H 306.933 4.99713 -2.65148 0
M  V30 3214 H 305.49 5.56753 -3.38923 0
M  V30 3215 N 308.923 1.53595 0.353017 0
M  V30 3216 C 310.171 1.70049 1.09215 0
M  V30 3217 C 310.492 0.461406 1.89463 0
M  V30 3218 O 309.762 -0.524633 1.88744 0
M  V30 3219 H 308.342 0.626912 0.40619 0
M  V30 3220 H 311.004 1.90822 0.396585 0
M  V30 3221 H 310.1 2.56718 1.77488 0
M  V30 3222 N 310.401 -0.613514 1.45168 0
M  V30 3223 C 311.311 -1.75296 1.55912 0
M  V30 3224 C 312.327 -1.68244 0.443856 0
M  V30 3225 O 313.503 -1.88706 0.70371 0
M  V30 3226 C 310.568 -3.1174 1.5172 0
M  V30 3227 C 309.629 -3.30291 2.74238 0
M  V30 3228 C 308.862 -4.60226 2.70236 0
M  V30 3229 O 309.085 -5.42168 1.77229 0
M  V30 3230 O 308.019 -4.81361 3.61352 0
M  V30 3231 H 311.845 -1.69183 2.52212 0
M  V30 3232 H 309.43 -0.776886 1.27612 0
M  V30 3233 H 311.312 -3.93044 1.51968 0
M  V30 3234 H 309.987 -3.18357 0.585697 0
M  V30 3235 H 308.894 -2.48598 2.79553 0
M  V30 3236 H 310.227 -3.28547 3.66494 0
M  V30 3237 N 311.879 -1.3236 -0.855495 0
M  V30 3238 C 313.127 -1.22629 -1.60644 0
M  V30 3239 C 313.448 0.212136 -1.93843 0
M  V30 3240 O 312.718 1.13666 -1.59552 0
M  V30 3241 H 311.298 -0.450882 -0.595579 0
M  V30 3242 H 313.96 -1.65871 -1.02337 0
M  V30 3243 H 313.056 -1.80832 -2.54374 0
M  V30 3244 N 313.357 1.07166 -1.15556 0
M  V30 3245 C 314.605 1.79443 -0.929764 0
M  V30 3246 C 314.926 1.87246 0.544414 0
M  V30 3247 O 314.196 1.37473 1.39564 0
M  V30 3248 H 312.776 0.664625 -0.341003 0
M  V30 3249 H 315.438 1.29499 -1.45657 0
M  V30 3250 H 314.534 2.81832 -1.34079 0
M  V30 3251 N 314.835 0.952656 1.25548 0
M  V30 3252 C 316.082 0.606373 1.93208 0
M  V30 3253 C 316.41 -0.85631 1.74636 0
M  V30 3254 O 315.665 -1.62951 1.08376 0
M  V30 3255 C 315.964 0.908818 3.45652 0
M  V30 3256 C 315.63 2.35722 3.84378 0
M  V30 3257 C 314.292 2.75312 3.9466 0
M  V30 3258 C 316.644 3.29793 4.03591 0
M  V30 3259 C 313.972 4.08047 4.21562 0
M  V30 3260 C 316.324 4.62138 4.31985 0
M  V30 3261 C 314.988 5.01528 4.40484 0
M  V30 3262 H 314.258 0.221888 0.706998 0
M  V30 3263 H 316.905 1.20132 1.49133 0
M  V30 3264 H 315.21 0.231456 3.91116 0
M  V30 3265 H 316.907 0.619498 3.96186 0
M  V30 3266 H 313.497 2.04017 3.76928 0
M  V30 3267 H 317.681 3.00397 3.95064 0
M  V30 3268 H 312.937 4.38212 4.26357 0
M  V30 3269 H 317.111 5.35012 4.45797 0
M  V30 3270 H 314.738 6.04406 4.61083 0
M  V30 3271 N 316.313 -1.40141 0.720998 0
M  V30 3272 C 317.543 -2.04798 0.27226 0
M  V30 3273 C 317.951 -1.54442 -1.09289 0
M  V30 3274 O 317.294 -0.698342 -1.69908 0
M  V30 3275 C 317.356 -3.59048 0.18027 0
M  V30 3276 C 317.02 -4.32317 1.48159 0
M  V30 3277 C 318.017 -4.59902 2.42458 0
M  V30 3278 C 315.702 -4.71125 1.74202 0
M  V30 3279 C 317.696 -5.25288 3.61042 0
M  V30 3280 C 315.383 -5.36242 2.93066 0
M  V30 3281 C 316.381 -5.63254 3.86308 0
M  V30 3282 O 316.069 -6.27024 5.03086 0
M  V30 3283 H 315.801 -0.665419 0.119139 0
M  V30 3284 H 318.355 -1.80436 0.981432 0
M  V30 3285 H 316.585 -3.82251 -0.58489 0
M  V30 3286 H 318.274 -4.05221 -0.234618 0
M  V30 3287 H 319.04 -4.30379 2.23604 0
M  V30 3288 H 314.919 -4.49466 1.02477 0
M  V30 3289 H 318.463 -5.46289 4.33837 0
M  V30 3290 H 314.36 -5.65185 3.11826 0
M  V30 3291 H 315.128 -6.4552 5.03235 0
M  V30 3292 N 317.792 -0.46758 -1.50504 0
M  V30 3293 C 318.755 0.317059 -2.26996 0
M  V30 3294 C 319.755 0.923513 -1.31635 0
M  V30 3295 O 320.945 0.793239 -1.55091 0
M  V30 3296 C 318.077 1.45134 -3.08462 0
M  V30 3297 H 319.27 -0.353723 -2.97807 0
M  V30 3298 H 316.823 -0.221545 -1.54722 0
M  V30 3299 H 317.558 2.15728 -2.4214 0
M  V30 3300 H 317.343 1.02232 -3.78538 0
M  V30 3301 H 318.833 2.00493 -3.66323 0
M  V30 3302 N 319.27 1.56325 -0.20005 0
M  V30 3303 C 320.495 2.02548 0.44597 0
M  V30 3304 C 320.92 1.07922 1.5406 0
M  V30 3305 O 320.278 0.0635775 1.81188 0
M  V30 3306 C 320.326 3.47175 0.974761 0
M  V30 3307 O 319.43 3.55671 2.08739 0
M  V30 3308 H 318.771 0.655862 0.103638 0
M  V30 3309 H 321.301 2.02201 -0.312381 0
M  V30 3310 H 321.311 3.87067 1.2901 0
M  V30 3311 H 319.986 4.15538 0.17347 0
M  V30 3312 H 318.563 3.27657 1.78032 0
M  V30 3313 N 320.748 -0.0735177 1.57428 0
M  V30 3314 C 321.973 -0.789787 1.91774 0
M  V30 3315 C 322.398 -1.70413 0.796306 0
M  V30 3316 O 321.756 -1.79555 -0.250961 0
M  V30 3317 C 321.804 -1.5609 3.25067 0
M  V30 3318 O 320.908 -2.67144 3.14178 0
M  V30 3319 H 320.249 -0.215582 0.628029 0
M  V30 3320 H 322.779 -0.0422781 2.04556 0
M  V30 3321 H 322.789 -1.94052 3.58898 0
M  V30 3322 H 321.464 -0.890015 4.06265 0
M  V30 3323 H 320.041 -2.32052 2.91901 0
M  V30 3324 N 322.226 -1.5378 -0.344866 0
M  V30 3325 C 323.637 -1.62428 -0.920552 0
M  V30 3326 C 323.988 -0.504747 -1.89596 0
M  V30 3327 O 323.113 0.365711 -2.13287 0
M  V30 3328 C 323.708 -2.94419 -1.67639 0
M  V30 3329 C 322.267 -3.05333 -2.20111 0
M  V30 3330 C 321.414 -2.57866 -1.01982 0
M  V30 3331 H 324.365 -1.58222 -0.123042 0
M  V30 3332 H 324.386 -2.83384 -2.53917 0
M  V30 3333 H 323.898 -3.7588 -0.966224 0
M  V30 3334 H 321.999 -2.28502 -2.94308 0
M  V30 3335 H 322.112 -4.10778 -2.46573 0
M  V30 3336 H 320.476 -2.13241 -1.39285 0
M  V30 3337 H 321.259 -3.41765 -0.324308 0
M  V30 3338 N 323.704 0.605807 -1.45491 0
M  V30 3339 C 324.667 1.69836 -1.5391 0
M  V30 3340 C 325.667 1.55261 -0.418424 0
M  V30 3341 O 326.857 1.60296 -0.681965 0
M  V30 3342 C 323.989 3.09117 -1.43734 0
M  V30 3343 H 325.182 1.63738 -2.51257 0
M  V30 3344 H 322.735 0.821689 -1.32959 0
M  V30 3345 H 323.47 3.20791 -0.475788 0
M  V30 3346 H 323.255 3.21104 -2.25021 0
M  V30 3347 H 324.745 3.88696 -1.52661 0
M  V30 3348 N 325.182 1.32811 0.848464 0
M  V30 3349 C 326.429 1.23724 1.60308 0
M  V30 3350 C 326.757 -0.1994 1.93475 0
M  V30 3351 O 326.012 -1.15406 1.5805 0
M  V30 3352 C 326.311 2.04831 2.92881 0
M  V30 3353 C 325.977 3.54125 2.79117 0
M  V30 3354 C 324.639 3.94829 2.7507 0
M  V30 3355 C 326.991 4.49036 2.64606 0
M  V30 3356 C 324.319 5.28675 2.544 0
M  V30 3357 C 326.671 5.83033 2.4547 0
M  V30 3358 C 325.335 6.22931 2.39819 0
M  V30 3359 H 324.605 0.452737 0.586609 0
M  V30 3360 H 327.252 1.64301 0.983743 0
M  V30 3361 H 325.557 1.57001 3.58968 0
M  V30 3362 H 327.254 1.95164 3.50303 0
M  V30 3363 H 323.844 3.21801 2.83094 0
M  V30 3364 H 328.028 4.18505 2.66772 0
M  V30 3365 H 323.284 5.58637 2.48465 0
M  V30 3366 H 327.458 6.56186 2.33222 0
M  V30 3367 H 325.085 7.26584 2.23562 0
M  V30 3368 N 326.66 -1.06551 1.16123 0
M  V30 3369 C 327.593 -2.13382 0.80892 0
M  V30 3370 C 328.571 -1.61128 -0.21827 0
M  V30 3371 O 329.755 -1.88219 -0.102952 0
M  V30 3372 C 326.882 -3.38083 0.204303 0
M  V30 3373 C 325.928 -4.09133 1.20469 0
M  V30 3374 S 326.761 -4.5948 2.75024 0
M  V30 3375 C 327.917 -5.87446 2.16005 0
M  V30 3376 H 328.15 -2.42937 1.71373 0
M  V30 3377 H 325.683 -1.18947 0.984428 0
M  V30 3378 H 327.641 -4.10268 -0.138081 0
M  V30 3379 H 326.302 -3.0669 -0.678234 0
M  V30 3380 H 325.495 -4.98685 0.730019 0
M  V30 3381 H 325.097 -3.4295 1.49202 0
M  V30 3382 H 327.389 -6.60065 1.5271 0
M  V30 3383 H 328.332 -6.39639 3.03756 0
M  V30 3384 H 328.74 -5.41354 1.59989 0
M  V30 3385 N 328.138 -0.959301 -1.25041 0
M  V30 3386 C 329.07 -0.440543 -2.24926 0
M  V30 3387 C 330.083 0.446131 -1.56568 0
M  V30 3388 O 331.272 0.253657 -1.76689 0
M  V30 3389 C 328.372 0.38412 -3.36716 0
M  V30 3390 C 327.545 -0.490658 -4.34639 0
M  V30 3391 C 326.604 0.276587 -5.25473 0
M  V30 3392 O 325.63 -0.326614 -5.68262 0
M  V30 3393 N 326.832 1.56844 -5.5891 0
M  V30 3394 H 329.597 -1.29931 -2.70071 0
M  V30 3395 H 327.158 -0.830181 -1.38995 0
M  V30 3396 H 329.15 0.905228 -3.94446 0
M  V30 3397 H 327.72 1.14377 -2.90924 0
M  V30 3398 H 326.94 -1.19282 -3.7572 0
M  V30 3399 H 328.228 -1.08756 -4.97041 0
M  V30 3400 H 327.626 2.08036 -5.26059 0
M  V30 3401 H 326.183 2.03541 -6.19205 0
M  V30 3402 N 329.616 1.39756 -0.72842 0
M  V30 3403 C 331.032 1.5442 -0.403308 0
M  V30 3404 C 331.232 1.69694 1.08656 0
M  V30 3405 O 330.288 1.69373 1.87267 0
M  V30 3406 C 331.601 2.76555 -1.18058 0
M  V30 3407 C 333.149 2.90384 -1.16815 0
M  V30 3408 C 333.624 4.15449 -1.92785 0
M  V30 3409 N 335.115 4.22475 -1.89918 0
M  V30 3410 C 335.85 5.1818 -2.45514 0
M  V30 3411 N 335.346 6.19714 -3.09719 0
M  V30 3412 N 337.139 5.1035 -2.35584 0
M  V30 3413 H 329.29 1.28089 -1.69431 0
M  V30 3414 H 331.553 0.620327 -0.716867 0
M  V30 3415 H 331.259 2.7159 -2.23455 0
M  V30 3416 H 331.133 3.69033 -0.780662 0
M  V30 3417 H 333.52 2.94846 -0.12234 0
M  V30 3418 H 333.601 1.98988 -1.6074 0
M  V30 3419 H 333.245 4.11749 -2.97364 0
M  V30 3420 H 333.175 5.05877 -1.46272 0
M  V30 3421 H 335.666 3.49743 -1.43138 0
M  V30 3422 H 335.979 6.8919 -3.49625 0
M  V30 3423 H 334.324 6.20121 -3.13807 0
M  V30 3424 H 337.515 4.2996 -1.85072 0
M  V30 3425 H 337.688 5.84761 -2.79211 0
M  V30 3426 N 331.094 0.475555 1.50254 0
M  V30 3427 C 332.024 -0.30611 2.31485 0
M  V30 3428 C 333.005 -0.986228 1.38591 0
M  V30 3429 O 334.19 -0.982541 1.67511 0
M  V30 3430 C 331.32 -1.38588 3.1845 0
M  V30 3431 C 330.274 -0.827115 4.19932 0
M  V30 3432 C 329.6 -2.00551 4.95665 0
M  V30 3433 C 330.9 0.16463 5.2204 0
M  V30 3434 H 332.594 0.371866 2.97082 0
M  V30 3435 H 330.14 0.180282 1.42867 0
M  V30 3436 H 332.093 -1.94023 3.74076 0
M  V30 3437 H 330.817 -2.09269 2.50747 0
M  V30 3438 H 329.476 -0.294702 3.65414 0
M  V30 3439 H 329.124 -2.6994 4.2443 0
M  V30 3440 H 328.824 -1.63784 5.64313 0
M  V30 3441 H 330.348 -2.56468 5.54127 0
M  V30 3442 H 331.762 -0.300699 5.72511 0
M  V30 3443 H 330.159 0.446813 5.98434 0
M  V30 3444 H 331.229 1.08905 4.72512 0
M  V30 3445 N 332.573 -1.56217 0.208337 0
M  V30 3446 C 333.989 -1.58919 -0.14729 0
M  V30 3447 C 334.189 -1.22486 -1.59998 0
M  V30 3448 O 333.245 -0.953849 -2.3379 0
M  V30 3449 C 334.558 -3.00236 0.167048 0
M  V30 3450 C 336.106 -3.12813 0.108219 0
M  V30 3451 C 336.581 -4.56284 0.396049 0
M  V30 3452 N 338.072 -4.61912 0.345142 0
M  V30 3453 C 338.807 -5.70837 0.541523 0
M  V30 3454 N 338.303 -6.88178 0.798968 0
M  V30 3455 N 340.096 -5.60091 0.474867 0
M  V30 3456 H 332.247 -1.78177 1.15614 0
M  V30 3457 H 334.51 -0.827555 0.462446 0
M  V30 3458 H 334.216 -3.31499 1.1748 0
M  V30 3459 H 334.09 -3.7354 -0.524184 0
M  V30 3460 H 336.477 -2.81354 -0.890157 0
M  V30 3461 H 336.558 -2.41866 0.832729 0
M  V30 3462 H 336.202 -4.88458 1.3918 0
M  V30 3463 H 336.132 -5.25439 -0.349502 0
M  V30 3464 H 338.623 -3.77589 0.153316 0
M  V30 3465 H 338.936 -7.67095 0.93727 0
M  V30 3466 H 337.281 -6.89953 0.836013 0
M  V30 3467 H 340.472 -4.67297 0.274064 0
M  V30 3468 H 340.645 -6.44917 0.631326 0
M  V30 3469 N 334.051 0.0651679 -1.57465 0
M  V30 3470 C 335.014 1.06117 -2.03155 0
M  V30 3471 C 336.014 1.31204 -0.929632 0
M  V30 3472 O 337.204 1.26813 -1.19432 0
M  V30 3473 C 334.336 2.4032 -2.41783 0
M  V30 3474 H 335.529 0.667231 -2.92383 0
M  V30 3475 H 333.082 0.311075 -1.53173 0
M  V30 3476 H 333.817 2.84532 -1.55601 0
M  V30 3477 H 333.602 2.23451 -3.22199 0
M  V30 3478 H 335.092 3.11898 -2.77685 0
M  V30 3479 N 335.529 1.53961 0.336706 0
M  V30 3480 C 336.459 1.85417 1.41925 0
M  V30 3481 C 337.44 0.709856 1.5458 0
M  V30 3482 O 338.625 0.962396 1.68676 0
M  V30 3483 C 335.755 2.06985 2.78881 0
M  V30 3484 C 334.709 3.22813 2.81026 0
M  V30 3485 C 334.035 3.29727 4.20932 0
M  V30 3486 C 335.335 4.60767 2.45949 0
M  V30 3487 H 337.029 2.76079 1.15848 0
M  V30 3488 H 334.575 1.32839 0.555859 0
M  V30 3489 H 336.528 2.27575 3.54665 0
M  V30 3490 H 335.252 1.13061 3.06406 0
M  V30 3491 H 333.911 3.0209 2.07695 0
M  V30 3492 H 333.559 2.33385 4.45579 0
M  V30 3493 H 333.259 4.07566 4.23277 0
M  V30 3494 H 334.783 3.52536 4.98549 0
M  V30 3495 H 336.197 4.81325 3.11446 0
M  V30 3496 H 334.594 5.4106 2.59566 0
M  V30 3497 H 335.664 4.6391 1.41122 0
M  V30 3498 N 337.007 -0.598083 1.45811 0
M  V30 3499 C 338.247 -1.36802 1.5187 0
M  V30 3500 C 338.611 -1.9133 0.160224 0
M  V30 3501 O 339.812 -2.6863 0.0955302 0
M  V30 3502 C 338.083 -2.47835 2.57513 0
M  V30 3503 S 339.642 -3.35458 2.82866 0
M  V30 3504 H 336.46 -0.466278 0.536755 0
M  V30 3505 H 339.062 -0.689152 1.82951 0
M  V30 3506 H 337.766 -2.06141 3.54872 0
M  V30 3507 H 337.297 -3.20512 2.28114 0
M  V30 3508 H 339.312 -4.46251 2.16967 0
M  V30 3509 N 338.485 -1.33259 -0.841409 0
M  V30 3510 C 339.762 -1.15174 -1.58096 0
M  V30 3511 C 340.142 0.282858 -2.09196 0
M  V30 3512 O 339.49 1.28151 -1.89181 0
M  V30 3513 C 339.7 -2.1907 -2.71679 0
M  V30 3514 C 341.048 -2.53093 -3.40924 0
M  V30 3515 O 342.072 -2.17717 -2.81918 0
M  V30 3516 O 340.931 -3.1379 -4.47435 0
M  V30 3517 H 338.025 -0.445303 -0.696875 0
M  V30 3518 H 340.571 -1.44833 -0.884385 0
M  V30 3519 H 339.343 -3.15443 -2.31541 0
M  V30 3520 H 338.966 -1.90481 -3.49002 0
M  V30 3521 N 339.963 1.05934 -1.16686 0
M  V30 3522 C 340.873 2.17014 -0.891183 0
M  V30 3523 C 341.889 1.73453 0.137907 0
M  V30 3524 O 343.065 2.01361 -0.039592 0
M  V30 3525 C 340.13 3.44384 -0.400099 0
M  V30 3526 C 339.191 4.02433 -1.49486 0
M  V30 3527 C 338.424 5.23723 -1.02711 0
M  V30 3528 O 338.647 5.7027 0.121716 0
M  V30 3529 O 337.581 5.7382 -1.81699 0
M  V30 3530 H 341.407 2.43113 -1.82015 0
M  V30 3531 H 338.992 1.15541 -0.947132 0
M  V30 3532 H 340.874 4.21189 -0.133392 0
M  V30 3533 H 339.549 3.19802 0.500817 0
M  V30 3534 H 338.456 3.27102 -1.81535 0
M  V30 3535 H 339.789 4.31317 -2.37121 0
M  V30 3536 N 341.441 0.965919 1.2453 0
M  V30 3537 C 342.391 0.465731 2.23193 0
M  V30 3538 C 343.375 -0.451277 1.54442 0
M  V30 3539 O 344.567 -0.282489 1.74731 0
M  V30 3540 C 341.696 -0.244511 3.42428 0
M  V30 3541 C 340.782 0.691222 4.18429 0
M  V30 3542 N 341.173 1.82771 4.71623 0
M  V30 3543 C 339.471 0.501649 4.4317 0
M  V30 3544 C 340.172 2.41285 5.29298 0
M  V30 3545 N 339.148 1.69819 5.16394 0
M  V30 3546 H 342.95 1.33291 2.61937 0
M  V30 3547 H 340.464 0.824789 1.39896 0
M  V30 3548 H 342.461 -0.620056 4.12263 0
M  V30 3549 H 341.121 -1.10815 3.05205 0
M  V30 3550 H 342.132 2.20929 4.68413 0
M  V30 3551 H 338.809 -0.318177 4.16286 0
M  V30 3552 H 340.199 3.37181 5.8117 0
M  V30 3553 N 342.919 -1.39368 0.735821 0
M  V30 3554 C 344.167 -2.00101 0.283562 0
M  V30 3555 C 344.488 -1.5868 -1.13338 0
M  V30 3556 O 343.758 -0.835423 -1.77193 0
M  V30 3557 H 342.338 -0.740024 0.101851 0
M  V30 3558 H 345 -1.70404 0.945962 0
M  V30 3559 H 344.096 -3.10323 0.332604 0
M  V30 3560 N 344.397 -0.483516 -1.5 0
M  V30 3561 C 345.646 0.0689102 -2.01582 0
M  V30 3562 C 345.959 1.39655 -1.36952 0
M  V30 3563 O 347.165 2.03465 -1.79762 0
M  V30 3564 C 345.621 0.173302 -3.59483 0
M  V30 3565 C 345.229 -1.14665 -4.33077 0
M  V30 3566 C 346.973 0.677024 -4.19066 0
M  V30 3567 C 344.88 -1.00537 -5.82792 0
M  V30 3568 H 343.81 0.0295277 -0.753422 0
M  V30 3569 H 346.461 -0.620295 -1.72698 0
M  V30 3570 H 344.843 0.926569 -3.85007 0
M  V30 3571 H 346.017 -1.91184 -4.19268 0
M  V30 3572 H 344.332 -1.58244 -3.85159 0
M  V30 3573 H 346.929 0.799952 -5.28682 0
M  V30 3574 H 347.272 1.67151 -3.81269 0
M  V30 3575 H 347.805 -0.0192083 -3.97795 0
M  V30 3576 H 344.544 -1.9736 -6.25083 0
M  V30 3577 H 344.064 -0.280776 -5.99142 0
M  V30 3578 H 345.743 -0.677 -6.43448 0
M  V30 3579 N 345.875 1.56104 -0.216619 0
M  V30 3580 C 346.808 2.16026 0.735395 0
M  V30 3581 C 347.786 1.1032 1.1945 0
M  V30 3582 O 348.97 1.38549 1.27814 0
M  V30 3583 C 346.097 2.73656 1.99575 0
M  V30 3584 C 345.143 3.92146 1.67702 0
M  V30 3585 S 345.976 5.29397 0.806145 0
M  V30 3586 C 347.132 5.90463 2.07617 0
M  V30 3587 H 347.365 2.96439 0.226072 0
M  V30 3588 H 344.898 1.544 -0.00136639 0
M  V30 3589 H 346.856 3.075 2.71945 0
M  V30 3590 H 345.517 1.93245 2.47619 0
M  V30 3591 H 344.71 4.30954 2.61332 0
M  V30 3592 H 344.312 3.59423 1.03398 0
M  V30 3593 H 346.604 6.06136 3.02664 0
M  V30 3594 H 347.547 6.86589 1.73207 0
M  V30 3595 H 347.955 5.19252 2.21445 0
M  V30 3596 N 347.353 -0.0568162 1.57498 0
M  V30 3597 C 348.283 -1.06593 2.0775 0
M  V30 3598 C 349.264 -1.39448 0.974082 0
M  V30 3599 O 350.449 -1.48815 1.24771 0
M  V30 3600 C 347.579 -2.37509 2.5339 0
M  V30 3601 C 346.533 -2.1897 3.67745 0
M  V30 3602 C 345.859 -3.55402 3.99492 0
M  V30 3603 C 347.159 -1.59859 4.97235 0
M  V30 3604 H 348.853 -0.647706 2.9231 0
M  V30 3605 H 346.399 -0.310116 1.40621 0
M  V30 3606 H 348.352 -3.08409 2.87162 0
M  V30 3607 H 347.076 -2.8134 1.65878 0
M  V30 3608 H 345.735 -1.50508 3.3428 0
M  V30 3609 H 345.383 -3.9683 3.09088 0
M  V30 3610 H 345.083 -3.43831 4.76502 0
M  V30 3611 H 346.607 -4.27708 4.35773 0
M  V30 3612 H 348.021 -2.20642 5.29141 0
M  V30 3613 H 346.418 -1.58942 5.78669 0
M  V30 3614 H 347.488 -0.561506 4.81638 0
M  V30 3615 N 348.832 -1.54138 -0.328536 0
M  V30 3616 C 350.081 -1.71318 -1.06456 0
M  V30 3617 C 350.394 -0.491109 -1.89334 0
M  V30 3618 O 351.6 -0.54416 -2.65991 0
M  V30 3619 C 350.056 -3.03 -1.94214 0
M  V30 3620 C 349.664 -4.32595 -1.16471 0
M  V30 3621 C 351.408 -3.29544 -2.67583 0
M  V30 3622 C 349.315 -5.55341 -2.03347 0
M  V30 3623 H 348.245 -0.638429 -0.401155 0
M  V30 3624 H 350.896 -1.80633 -0.323106 0
M  V30 3625 H 349.278 -2.87579 -2.72239 0
M  V30 3626 H 350.452 -4.58766 -0.432525 0
M  V30 3627 H 348.767 -4.12777 -0.548063 0
M  V30 3628 H 351.364 -4.18444 -3.3288 0
M  V30 3629 H 351.707 -2.47206 -3.34955 0
M  V30 3630 H 352.24 -3.45809 -1.96623 0
M  V30 3631 H 348.979 -6.40268 -1.40491 0
M  V30 3632 H 348.499 -5.33397 -2.74313 0
M  V30 3633 H 350.178 -5.91557 -2.62049 0
M  V30 3634 N 350.31 0.590341 -1.46126 0
M  V30 3635 C 351.273 1.68194 -1.55703 0
M  V30 3636 C 352.273 1.54808 -0.434868 0
M  V30 3637 O 353.463 1.59564 -0.698928 0
M  V30 3638 C 350.595 3.07575 -1.47005 0
M  V30 3639 H 351.788 1.61064 -2.52979 0
M  V30 3640 H 349.341 0.807541 -1.33823 0
M  V30 3641 H 350.076 3.20268 -0.509785 0
M  V30 3642 H 349.861 3.187 -2.28414 0
M  V30 3643 H 351.351 3.87055 -1.56776 0
M  V30 3644 N 351.788 1.33704 0.83433 0
M  V30 3645 C 353.065 1.16011 1.57483 0
M  V30 3646 C 353.445 -0.27176 2.09343 0
M  V30 3647 O 352.793 -1.27146 1.89858 0
M  V30 3648 C 353.003 2.20507 2.70514 0
M  V30 3649 C 354.351 2.54898 3.39577 0
M  V30 3650 O 355.375 2.19209 2.80759 0
M  V30 3651 O 354.234 3.16158 4.45765 0
M  V30 3652 H 351.328 0.448992 0.694503 0
M  V30 3653 H 353.874 1.453 0.876691 0
M  V30 3654 H 352.646 3.16667 2.29865 0
M  V30 3655 H 352.269 1.92329 3.47987 0
M  V30 3656 N 353.266 -1.05314 1.17247 0
M  V30 3657 C 354.176 -2.16538 0.90268 0
M  V30 3658 C 355.192 -1.73523 -0.128707 0
M  V30 3659 O 356.368 -2.01337 0.0502701 0
M  V30 3660 C 353.433 -3.44167 0.418356 0
M  V30 3661 C 352.494 -4.01635 1.51618 0
M  V30 3662 C 351.727 -5.23171 1.05487 0
M  V30 3663 O 351.95 -5.70327 -0.0914715 0
M  V30 3664 O 350.884 -5.72848 1.8474 0
M  V30 3665 H 354.71 -2.42145 1.83302 0
M  V30 3666 H 352.295 -1.15037 0.953246 0
M  V30 3667 H 354.177 -4.21112 0.155726 0
M  V30 3668 H 352.852 -3.20063 -0.48385 0
M  V30 3669 H 351.759 -3.26135 1.83268 0
M  V30 3670 H 353.092 -4.30053 2.39405 0
M  V30 3671 N 354.744 -0.972509 -1.24016 0
M  V30 3672 C 355.99 -0.637978 -1.92504 0
M  V30 3673 C 356.323 0.825383 -1.75787 0
M  V30 3674 O 355.598 1.59442 -1.11393 0
M  V30 3675 C 355.881 -1.01942 -3.45369 0
M  V30 3676 C 355.734 -2.53983 -3.71231 0
M  V30 3677 C 357.053 -0.55751 -4.36555 0
M  V30 3678 H 354.172 -0.233248 -0.699117 0
M  V30 3679 H 356.814 -1.21238 -1.46292 0
M  V30 3680 H 354.964 -0.530656 -3.84859 0
M  V30 3681 H 356.636 -3.10374 -3.41271 0
M  V30 3682 H 354.879 -2.96968 -3.16216 0
M  V30 3683 H 355.55 -2.75723 -4.78206 0
M  V30 3684 H 358.026 -0.977029 -4.04467 0
M  V30 3685 H 356.902 -0.85292 -5.42233 0
M  V30 3686 H 357.163 0.542328 -4.38761 0
M  V30 3687 N 356.222 1.38976 -0.743202 0
M  V30 3688 C 357.154 2.29096 -0.0689228 0
M  V30 3689 C 358.167 1.47229 0.694791 0
M  V30 3690 O 359.356 1.70212 0.537597 0
M  V30 3691 C 356.456 3.25988 0.926548 0
M  V30 3692 C 355.629 4.36833 0.222647 0
M  V30 3693 C 354.688 5.13981 1.12739 0
M  V30 3694 O 353.714 5.6601 0.601795 0
M  V30 3695 N 354.916 5.25966 2.45641 0
M  V30 3696 H 357.681 2.87604 -0.842846 0
M  V30 3697 H 355.242 1.50645 -0.593109 0
M  V30 3698 H 357.234 3.74476 1.5346 0
M  V30 3699 H 355.804 2.68453 1.60162 0
M  V30 3700 H 355.024 3.90116 -0.565983 0
M  V30 3701 H 356.312 5.0811 -0.264841 0
M  V30 3702 H 355.71 4.85228 2.9081 0
M  V30 3703 H 354.267 5.77865 3.01522 0
M  V30 3704 N 357.7 0.491464 1.49741 0
M  V30 3705 C 358.925 -0.0557177 2.07325 0
M  V30 3706 C 359.35 -1.30925 1.35056 0
M  V30 3707 O 358.708 -1.76733 0.404365 0
M  V30 3708 C 358.756 -0.302074 3.59333 0
M  V30 3709 O 357.86 -1.37868 3.88672 0
M  V30 3710 H 357.201 0.0219956 0.663636 0
M  V30 3711 H 359.731 0.688352 1.92673 0
M  V30 3712 H 359.741 -0.536464 4.04458 0
M  V30 3713 H 358.416 0.61383 4.11345 0
M  V30 3714 H 356.993 -1.12999 3.55367 0
M  V30 3715 N 359.178 -1.55987 0.224894 0
M  V30 3716 C 360.426 -1.97998 -0.405099 0
M  V30 3717 C 360.747 -1.11387 -1.60056 0
M  V30 3718 O 360.017 -0.191645 -1.9496 0
M  V30 3719 H 358.597 -0.731235 -0.152658 0
M  V30 3720 H 361.259 -1.92279 0.318567 0
M  V30 3721 H 360.355 -3.03463 -0.729167 0
M  V30 3722 N 360.656 0.0484629 -1.57525 0
M  V30 3723 C 361.619 1.03956 -2.04269 0
M  V30 3724 C 362.619 1.30211 -0.943496 0
M  V30 3725 O 363.809 1.25539 -1.20771 0
M  V30 3726 C 360.941 2.37742 -2.44319 0
M  V30 3727 H 362.134 0.636182 -2.93075 0
M  V30 3728 H 359.687 0.294811 -1.53494 0
M  V30 3729 H 360.422 2.82866 -1.5861 0
M  V30 3730 H 360.207 2.20021 -3.24551 0
M  V30 3731 H 361.697 3.08936 -2.80978 0
M  V30 3732 N 362.134 1.5431 0.320358 0
M  V30 3733 C 363.382 1.72327 1.05583 0
M  V30 3734 C 363.703 0.50149 1.88441 0
M  V30 3735 O 362.973 -0.48448 1.89815 0
M  V30 3736 H 361.553 0.635387 0.3928 0
M  V30 3737 H 364.215 1.91621 0.356019 0
M  V30 3738 H 363.311 2.60426 1.72003 0
M  V30 3739 N 363.613 -0.582584 1.46437 0
M  V30 3740 C 365.029 -0.905962 1.31394 0
M  V30 3741 C 365.229 -1.99468 0.285476 0
M  V30 3742 O 364.285 -2.50566 -0.311914 0
M  V30 3743 C 365.598 -1.3232 2.70022 0
M  V30 3744 C 367.146 -1.43604 2.78113 0
M  V30 3745 C 367.621 -1.88694 4.17323 0
M  V30 3746 N 369.112 -1.95887 4.19741 0
M  V30 3747 C 369.847 -2.32051 5.24347 0
M  V30 3748 N 369.343 -2.67006 6.39281 0
M  V30 3749 N 371.136 -2.32606 5.11713 0
M  V30 3750 H 363.287 0.1366 2.1196 0
M  V30 3751 H 365.55 -0.00155736 0.947999 0
M  V30 3752 H 365.256 -0.597242 3.46592 0
M  V30 3753 H 365.13 -2.28469 3.00136 0
M  V30 3754 H 367.517 -2.15286 2.01832 0
M  V30 3755 H 367.598 -0.457059 2.51684 0
M  V30 3756 H 367.242 -1.1759 4.941 0
M  V30 3757 H 367.172 -2.8755 4.4116 0
M  V30 3758 H 369.663 -1.71362 3.36814 0
M  V30 3759 H 369.976 -2.93554 7.14875 0
M  V30 3760 H 368.321 -2.64644 6.42642 0
M  V30 3761 H 371.512 -2.04721 4.2096 0
M  V30 3762 H 371.685 -2.60462 5.93349 0
M  V30 3763 N 365.091 -1.34144 -0.827227 0
M  V30 3764 C 366.319 -1.29325 -1.61501 0
M  V30 3765 C 366.734 0.13354 -1.88327 0
M  V30 3766 O 366.091 1.0793 -1.47164 0
M  V30 3767 C 366.142 -2.07746 -2.95844 0
M  V30 3768 O 365.863 -3.4486 -2.70191 0
M  V30 3769 C 367.364 -2.10273 -3.90256 0
M  V30 3770 H 364.584 -0.445069 -0.50215 0
M  V30 3771 H 367.128 -1.76693 -1.02955 0
M  V30 3772 H 365.283 -1.6403 -3.5096 0
M  V30 3773 H 365.697 -3.85345 -3.55822 0
M  V30 3774 H 367.171 -2.69575 -4.81698 0
M  V30 3775 H 367.648 -1.096 -4.25305 0
M  V30 3776 H 368.254 -2.54059 -3.41078 0
M  V30 3777 N 366.569 1.04691 -1.17803 0
M  V30 3778 C 367.817 1.7743 -0.967617 0
M  V30 3779 C 368.138 1.88359 0.504574 0
M  V30 3780 O 367.408 1.40402 1.36617 0
M  V30 3781 H 365.988 0.657242 -0.355024 0
M  V30 3782 H 368.65 1.2638 -1.48371 0
M  V30 3783 H 367.746 2.78924 -1.40027 0
M  V30 3784 N 368.047 0.979072 1.23499 0
M  V30 3785 C 369.275 0.665202 1.95915 0
M  V30 3786 C 369.69 -0.767571 1.72493 0
M  V30 3787 O 369.047 -1.51635 1.01554 0
M  V30 3788 C 369.098 0.944438 3.48945 0
M  V30 3789 O 368.819 2.3209 3.71572 0
M  V30 3790 C 370.32 0.646336 4.38563 0
M  V30 3791 H 367.54 0.247218 0.623798 0
M  V30 3792 H 370.084 1.31009 1.57025 0
M  V30 3793 H 368.239 0.345575 3.85856 0
M  V30 3794 H 368.653 2.40957 4.65876 0
M  V30 3795 H 370.127 0.892091 5.44744 0
M  V30 3796 H 370.604 -0.419575 4.37191 0
M  V30 3797 H 371.21 1.22562 4.07258 0
M  V30 3798 N 369.525 -1.3858 0.750561 0
M  V30 3799 C 370.455 -2.33102 0.136237 0
M  V30 3800 C 371.436 -1.54713 -0.706965 0
M  V30 3801 O 372.621 -1.83043 -0.648769 0
M  V30 3802 C 369.751 -3.38882 -0.760017 0
M  V30 3803 C 368.705 -4.27995 -0.0197785 0
M  V30 3804 C 368.031 -5.24605 -1.03408 0
M  V30 3805 C 369.331 -5.09554 1.14684 0
M  V30 3806 H 371.025 -2.84726 0.925822 0
M  V30 3807 H 368.571 -1.36898 0.446654 0
M  V30 3808 H 370.524 -4.0397 -1.19943 0
M  V30 3809 H 369.248 -2.85734 -1.58189 0
M  V30 3810 H 367.907 -3.64409 0.400184 0
M  V30 3811 H 367.555 -4.67746 -1.84994 0
M  V30 3812 H 367.255 -5.85081 -0.543464 0
M  V30 3813 H 368.779 -5.9257 -1.47288 0
M  V30 3814 H 370.193 -5.67899 0.785118 0
M  V30 3815 H 368.59 -5.7925 1.56812 0
M  V30 3816 H 369.66 -4.4347 1.96118 0
M  V30 3817 N 371.003 -0.499398 -1.49478 0
M  V30 3818 C 372.25 0.0456899 -2.02448 0
M  V30 3819 C 372.578 1.37142 -1.37921 0
M  V30 3820 O 371.833 1.89111 -0.503544 0
M  V30 3821 C 372.132 0.248424 -3.56536 0
M  V30 3822 C 371.798 -0.999107 -4.39692 0
M  V30 3823 C 370.46 -1.34108 -4.62135 0
M  V30 3824 C 372.812 -1.82842 -4.88076 0
M  V30 3825 C 370.14 -2.51191 -5.30208 0
M  V30 3826 C 372.492 -2.99076 -5.57437 0
M  V30 3827 C 371.156 -3.33655 -5.78127 0
M  V30 3828 H 370.426 0.0167191 -0.740811 0
M  V30 3829 H 373.073 -0.65923 -1.79795 0
M  V30 3830 H 371.378 1.03586 -3.77859 0
M  V30 3831 H 373.075 0.684605 -3.95113 0
M  V30 3832 H 369.665 -0.722729 -4.22463 0
M  V30 3833 H 373.849 -1.57737 -4.70566 0
M  V30 3834 H 369.105 -2.78221 -5.44429 0
M  V30 3835 H 373.279 -3.63664 -5.93904 0
M  V30 3836 H 370.906 -4.24483 -6.30649 0
M  V30 3837 N 372.481 1.55866 -0.233164 0
M  V30 3838 C 373.444 2.1953 0.658715 0
M  V30 3839 C 374.444 1.16053 1.11303 0
M  V30 3840 O 375.634 1.41218 1.01996 0
M  V30 3841 C 372.766 2.82791 1.90373 0
M  V30 3842 H 373.959 2.99721 0.10347 0
M  V30 3843 H 371.512 1.56291 0.0164245 0
M  V30 3844 H 372.247 2.06501 2.50056 0
M  V30 3845 H 372.032 3.58578 1.58632 0
M  V30 3846 H 373.522 3.31556 2.53891 0
M  V30 3847 N 373.959 -0.0401083 1.57549 0
M  V30 3848 C 374.892 -1.07689 2.01192 0
M  V30 3849 C 375.87 -1.358 0.894273 0
M  V30 3850 O 377.054 -1.48642 1.15921 0
M  V30 3851 C 374.181 -2.41418 2.3756 0
M  V30 3852 C 373.227 -2.29237 3.59656 0
M  V30 3853 S 374.06 -1.65628 5.09242 0
M  V30 3854 C 375.216 -3.0087 5.48843 0
M  V30 3855 H 375.449 -0.705108 2.88817 0
M  V30 3856 H 372.982 -0.249724 1.52367 0
M  V30 3857 H 374.94 -3.18329 2.59186 0
M  V30 3858 H 373.601 -2.75747 1.50407 0
M  V30 3859 H 372.794 -3.27932 3.82722 0
M  V30 3860 H 372.396 -1.60469 3.37825 0
M  V30 3861 H 374.688 -3.97201 5.48851 0
M  V30 3862 H 375.631 -2.82549 6.49286 0
M  V30 3863 H 376.039 -3.02934 4.76331 0
M  V30 3864 N 375.437 -1.54477 -0.31217 0
M  V30 3865 C 376.347 -1.87695 -1.4074 0
M  V30 3866 C 377.363 -0.769975 -1.56036 0
M  V30 3867 O 378.539 -1.06537 -1.70915 0
M  V30 3868 C 375.604 -2.10755 -2.75287 0
M  V30 3869 C 374.665 -3.34514 -2.69071 0
M  V30 3870 C 373.898 -3.56465 -3.97201 0
M  V30 3871 O 374.121 -2.81637 -4.96021 0
M  V30 3872 O 373.055 -4.49964 -3.9977 0
M  V30 3873 H 376.881 -2.80849 -1.15574 0
M  V30 3874 H 374.466 -1.40526 -0.507228 0
M  V30 3875 H 376.348 -2.27188 -3.54913 0
M  V30 3876 H 375.023 -1.20788 -3.0032 0
M  V30 3877 H 373.93 -3.23456 -1.87955 0
M  V30 3878 H 375.263 -4.24575 -2.48992 0
M  V30 3879 N 376.915 0.57481 -1.46744 0
M  V30 3880 C 377.847 1.69804 -1.53946 0
M  V30 3881 C 378.86 1.57098 -0.427106 0
M  V30 3882 O 380.049 1.64378 -0.695863 0
M  V30 3883 C 377.149 3.08125 -1.4111 0
M  V30 3884 C 376.322 3.46757 -2.66605 0
M  V30 3885 C 375.381 4.6417 -2.47855 0
M  V30 3886 O 374.407 4.69634 -3.21609 0
M  V30 3887 N 375.609 5.59553 -1.54534 0
M  V30 3888 H 378.374 1.64077 -2.50796 0
M  V30 3889 H 375.935 0.761 -1.429 0
M  V30 3890 H 377.927 3.84478 -1.26328 0
M  V30 3891 H 376.497 3.08175 -0.524109 0
M  V30 3892 H 375.717 2.6003 -2.96274 0
M  V30 3893 H 377.005 3.69337 -3.49954 0
M  V30 3894 H 376.403 5.57881 -0.937304 0
M  V30 3895 H 374.96 6.35304 -1.45711 0
M  V30 3896 N 378.394 1.34581 0.820102 0
M  V30 3897 C 379.327 1.20735 1.93644 0
M  V30 3898 C 380.305 0.0983343 1.62302 0
M  V30 3899 O 381.489 0.263997 1.86642 0
M  V30 3900 C 378.616 0.856037 3.27704 0
M  V30 3901 C 377.662 1.97521 3.78005 0
M  V30 3902 S 378.495 3.58906 3.97425 0
M  V30 3903 C 379.651 3.25822 5.34407 0
M  V30 3904 H 379.884 2.15231 2.05093 0
M  V30 3905 H 377.417 1.1964 0.97599 0
M  V30 3906 H 379.375 0.660133 4.05157 0
M  V30 3907 H 378.036 -0.0706253 3.14021 0
M  V30 3908 H 377.229 1.68321 4.75062 0
M  V30 3909 H 376.831 2.12875 3.07507 0
M  V30 3910 H 379.123 2.77812 6.17922 0
M  V30 3911 H 380.066 4.22029 5.68592 0
M  V30 3912 H 380.474 2.61932 5.00052 0
M  V30 3913 N 379.872 -1.04064 1.18357 0
M  V30 3914 C 381.12 -1.76915 0.977013 0
M  V30 3915 C 381.441 -1.88624 -0.494577 0
M  V30 3916 O 380.711 -1.41125 -1.3587 0
M  V30 3917 H 379.291 -0.65535 0.358504 0
M  V30 3918 H 381.953 -1.25592 1.49039 0
M  V30 3919 H 381.049 -2.78178 1.41504 0
M  V30 3920 N 381.35 -0.985608 -1.22978 0
M  V30 3921 C 382.596 -0.65836 -1.91816 0
M  V30 3922 C 382.929 0.806692 -1.76653 0
M  V30 3923 O 382.204 1.58252 -1.13078 0
M  V30 3924 C 382.487 -1.056 -3.44268 0
M  V30 3925 C 382.34 -2.57906 -3.68516 0
M  V30 3926 C 383.659 -0.603781 -4.35939 0
M  V30 3927 H 380.778 -0.24065 -0.696604 0
M  V30 3928 H 383.42 -1.22783 -1.44998 0
M  V30 3929 H 381.57 -0.571445 -3.84274 0
M  V30 3930 H 383.242 -3.13976 -3.3796 0
M  V30 3931 H 381.485 -3.00305 -3.13048 0
M  V30 3932 H 382.156 -2.80779 -4.75255 0
M  V30 3933 H 384.632 -1.01987 -4.03408 0
M  V30 3934 H 383.508 -0.910383 -5.41298 0
M  V30 3935 H 383.769 0.495761 -4.39312 0
M  V30 3936 N 382.828 1.3818 -0.7579 0
M  V30 3937 C 383.791 2.28764 -0.141286 0
M  V30 3938 C 384.791 1.47388 0.642907 0
M  V30 3939 O 385.981 1.67781 0.468536 0
M  V30 3940 C 383.113 3.31184 0.808069 0
M  V30 3941 H 384.306 2.848 -0.939633 0
M  V30 3942 H 381.859 1.47212 -0.525191 0
M  V30 3943 H 382.594 2.80247 1.63193 0
M  V30 3944 H 382.379 3.91314 0.248104 0
M  V30 3945 H 383.869 3.98909 1.23536 0
M  V30 3946 N 384.306 0.507319 1.49211 0
M  V30 3947 C 385.717 0.0611118 1.866 0
M  V30 3948 C 386.068 -1.35488 1.41907 0
M  V30 3949 O 385.193 -2.0108 0.799726 0
M  V30 3950 C 385.788 0.104125 3.3864 0
M  V30 3951 C 384.347 -0.28677 3.75306 0
M  V30 3952 C 383.494 0.473893 2.73221 0
M  V30 3953 H 386.445 0.719775 1.41439 0
M  V30 3954 H 386.466 -0.689672 3.74198 0
M  V30 3955 H 385.978 1.13482 3.71138 0
M  V30 3956 H 384.079 -1.32046 3.48417 0
M  V30 3957 H 384.192 0.0370745 4.79086 0
M  V30 3958 H 382.556 -0.0770644 2.54583 0
M  V30 3959 H 383.339 1.50478 3.08563 0
M  V30 3960 N 385.784 -1.5574 0.241426 0
M  V30 3961 C 387.061 -1.90704 -0.434881 0
M  V30 3962 C 387.441 -1.16145 -1.76277 0
M  V30 3963 O 386.789 -0.277152 -2.26813 0
M  V30 3964 C 386.999 -3.43657 -0.608343 0
M  V30 3965 C 388.347 -4.14806 -0.906725 0
M  V30 3966 O 389.371 -3.49366 -0.694408 0
M  V30 3967 O 388.23 -5.30548 -1.31075 0
M  V30 3968 H 385.324 -0.793592 -0.23268 0
M  V30 3969 H 387.87 -1.67288 0.285086 0
M  V30 3970 H 386.642 -3.89927 0.327505 0
M  V30 3971 H 386.265 -3.72918 -1.37906 0
M  V30 3972 N 387.262 0.0317525 -1.57568 0
M  V30 3973 C 388.192 1.03274 -2.0942 0
M  V30 3974 C 389.173 1.3788 -0.996143 0
M  V30 3975 O 390.358 1.46811 -1.27122 0
M  V30 3976 C 387.488 2.33448 -2.57137 0
M  V30 3977 C 386.442 2.13091 -3.71182 0
M  V30 3978 C 385.768 3.49001 -4.05095 0
M  V30 3979 C 387.068 1.51928 -4.99715 0
M  V30 3980 H 388.762 0.60112 -2.93303 0
M  V30 3981 H 386.308 0.287705 -1.41097 0
M  V30 3982 H 388.261 3.03802 -2.92032 0
M  V30 3983 H 386.985 2.78665 -1.70333 0
M  V30 3984 H 385.644 1.45171 -3.36632 0
M  V30 3985 H 385.292 3.91862 -3.15362 0
M  V30 3986 H 384.992 3.36207 -4.81911 0
M  V30 3987 H 386.516 4.20721 -4.42522 0
M  V30 3988 H 387.93 2.12196 -5.32584 0
M  V30 3989 H 386.327 1.49716 -5.81124 0
M  V30 3990 H 387.397 0.484811 -4.8247 0
M  V30 3991 N 388.74 1.54641 0.303973 0
M  V30 3992 C 389.968 1.77768 1.05858 0
M  V30 3993 C 390.383 0.535722 1.8104 0
M  V30 3994 O 389.74 -0.494337 1.75677 0
M  V30 3995 C 389.791 2.9834 2.04146 0
M  V30 3996 O 389.512 4.17736 1.32015 0
M  V30 3997 C 391.013 3.33832 2.91669 0
M  V30 3998 H 388.233 0.592961 0.314067 0
M  V30 3999 H 390.777 2.01583 0.344149 0
M  V30 4000 H 388.932 2.76742 2.71096 0
M  V30 4001 H 389.346 4.85693 1.97998 0
M  V30 4002 H 390.82 4.21448 3.56491 0
M  V30 4003 H 391.297 2.51857 3.59812 0
M  V30 4004 H 391.903 3.57579 2.30254 0
M  V30 4005 N 390.218 -0.567019 1.47046 0
M  V30 4006 C 391.446 -1.35027 1.56765 0
M  V30 4007 C 391.861 -1.8758 0.214316 0
M  V30 4008 O 391.218 -1.64471 -0.790919 0
M  V30 4009 C 391.269 -2.52698 2.58507 0
M  V30 4010 O 390.99 -2.0232 3.88585 0
M  V30 4011 C 392.491 -3.45043 2.78316 0
M  V30 4012 H 389.711 -0.41195 0.529658 0
M  V30 4013 H 392.255 -0.687832 1.92585 0
M  V30 4014 H 390.41 -3.149 2.25648 0
M  V30 4015 H 390.824 -2.79068 4.44096 0
M  V30 4016 H 392.298 -4.2405 3.53391 0
M  V30 4017 H 392.775 -3.97971 1.85784 0
M  V30 4018 H 393.381 -2.88665 3.12334 0
M  V30 4019 N 391.696 -1.35014 -0.812953 0
M  V30 4020 C 392.943 -1.27931 -1.56971 0
M  V30 4021 C 393.271 0.148034 -1.93936 0
M  V30 4022 O 392.526 1.11175 -1.61054 0
M  V30 4023 C 392.825 -2.12524 -2.87347 0
M  V30 4024 C 392.491 -3.61401 -2.6963 0
M  V30 4025 C 391.153 -4.01983 -2.64506 0
M  V30 4026 C 393.505 -4.55894 -2.52607 0
M  V30 4027 C 390.833 -5.35235 -2.40293 0
M  V30 4028 C 393.185 -5.89336 -2.29925 0
M  V30 4029 C 391.849 -6.2907 -2.23219 0
M  V30 4030 H 391.119 -0.468131 -0.574399 0
M  V30 4031 H 393.766 -1.66851 -0.939836 0
M  V30 4032 H 392.071 -1.66463 -3.54679 0
M  V30 4033 H 393.768 -2.04383 -3.45005 0
M  V30 4034 H 390.358 -3.29193 -2.74463 0
M  V30 4035 H 394.542 -4.25431 -2.55583 0
M  V30 4036 H 389.798 -5.65028 -2.33566 0
M  V30 4037 H 393.972 -6.62139 -2.15743 0
M  V30 4038 H 391.599 -7.32256 -2.04219 0
M  V30 4039 N 393.175 1.03435 -1.18907 0
M  V30 4040 C 394.138 2.09756 -0.923844 0
M  V30 4041 C 395.138 1.60528 0.093416 0
M  V30 4042 O 396.328 1.73631 -0.140727 0
M  V30 4043 C 393.46 3.38692 -0.387354 0
M  V30 4044 H 394.653 2.34719 -1.86674 0
M  V30 4045 H 392.206 1.19959 -1.00197 0
M  V30 4046 H 392.941 3.19396 0.561845 0
M  V30 4047 H 392.726 3.75742 -1.12074 0
M  V30 4048 H 394.216 4.17016 -0.220694 0
M  V30 4049 N 394.653 0.992116 1.22453 0
M  V30 4050 C 395.6 0.541731 2.24352 0
M  V30 4051 C 396.57 -0.425519 1.60557 0
M  V30 4052 O 397.755 -0.330453 1.87917 0
M  V30 4053 C 394.895 -0.138248 3.44823 0
M  V30 4054 C 394.008 0.870649 4.23136 0
M  V30 4055 C 393.143 0.164269 5.30946 0
M  V30 4056 C 392.182 1.16159 6.00977 0
M  V30 4057 N 391.319 0.483568 7.00433 0
M  V30 4058 H 396.159 1.41541 2.62241 0
M  V30 4059 H 393.696 0.709013 1.28885 0
M  V30 4060 H 395.654 -0.5494 4.13567 0
M  V30 4061 H 394.284 -0.975721 3.077 0
M  V30 4062 H 393.336 1.40013 3.53696 0
M  V30 4063 H 394.648 1.63014 4.7141 0
M  V30 4064 H 393.802 -0.303653 6.0594 0
M  V30 4065 H 392.541 -0.627733 4.83643 0
M  V30 4066 H 391.546 1.64015 5.24766 0
M  V30 4067 H 392.771 1.95445 6.50368 0
M  V30 4068 H 390.717 -0.289012 6.55363 0
M  V30 4069 H 390.634 1.18152 7.4671 0
M  V30 4070 H 391.902 0.0384219 7.79491 0
M  V30 4071 N 396.131 -1.37776 0.765217 0
M  V30 4072 C 397.356 -2.04651 0.336537 0
M  V30 4073 C 397.781 -1.57337 -1.03086 0
M  V30 4074 O 397.139 -0.730621 -1.65927 0
M  V30 4075 C 397.187 -3.58577 0.381468 0
M  V30 4076 O 396.291 -4.07706 -0.62042 0
M  V30 4077 H 395.632 -0.64756 0.146838 0
M  V30 4078 H 398.162 -1.76221 1.03959 0
M  V30 4079 H 398.172 -4.07314 0.236448 0
M  V30 4080 H 396.847 -3.9237 1.37907 0
M  V30 4081 H 395.424 -3.70306 -0.439056 0
M  V30 4082 N 397.609 -0.515225 -1.4894 0
M  V30 4083 C 398.858 0.0261361 -2.01683 0
M  V30 4084 C 399.171 1.36719 -1.39883 0
M  V30 4085 O 400.377 1.99606 -1.84037 0
M  V30 4086 C 398.833 0.0970111 -3.59769 0
M  V30 4087 C 398.441 -1.23825 -4.30548 0
M  V30 4088 C 400.185 0.587981 -4.20408 0
M  V30 4089 C 398.092 -1.12877 -5.80528 0
M  V30 4090 H 397.022 0.0135398 -0.753878 0
M  V30 4091 H 399.673 -0.656787 -1.71343 0
M  V30 4092 H 398.055 0.844694 -3.86886 0
M  V30 4093 H 399.229 -2.00034 -4.15118 0
M  V30 4094 H 397.544 -1.66379 -3.81716 0
M  V30 4095 H 400.141 0.68763 -5.3026 0
M  V30 4096 H 400.484 1.59026 -3.84729 0
M  V30 4097 H 401.017 -0.103582 -3.97665 0
M  V30 4098 H 397.756 -2.10575 -6.20756 0
M  V30 4099 H 397.276 -0.407799 -5.98412 0
M  V30 4100 H 398.955 -0.813332 -6.41868 0
M  V30 4101 N 399.087 1.5561 -0.249682 0
M  V30 4102 C 400.05 2.20217 0.635394 0
M  V30 4103 C 401.05 1.17227 1.10066 0
M  V30 4104 O 402.24 1.42292 1.00492 0
M  V30 4105 C 399.372 2.84794 1.87363 0
M  V30 4106 H 400.565 2.99814 0.0716752 0
M  V30 4107 H 398.118 1.563 -0.000153234 0
M  V30 4108 H 398.853 2.09142 2.47851 0
M  V30 4109 H 398.638 3.60241 1.5482 0
M  V30 4110 H 400.128 3.3423 2.5036 0
M  V30 4111 N 400.565 -0.0233959 1.57583 0
M  V30 4112 C 401.813 -0.711654 1.89156 0
M  V30 4113 C 402.134 -1.75591 0.848096 0
M  V30 4114 O 401.404 -1.95547 -0.117566 0
M  V30 4115 H 399.984 -0.265835 0.698098 0
M  V30 4116 H 402.646 0.0119948 1.94896 0
M  V30 4117 H 401.742 -1.19766 2.88206 0
M  V30 4118 N 402.043 -1.548 -0.295768 0
M  V30 4119 C 403.291 -1.73985 -1.02828 0
M  V30 4120 C 403.612 -0.531406 -1.87619 0
M  V30 4121 O 402.882 0.454221 -1.90561 0
M  V30 4122 H 401.462 -0.641556 -0.382642 0
M  V30 4123 H 404.124 -1.92163 -0.325489 0
M  V30 4124 H 403.22 -2.63129 -1.67838 0
M  V30 4125 N 403.521 0.559213 -1.47345 0
M  V30 4126 C 404.768 1.31648 -1.53867 0
M  V30 4127 C 405.096 1.93468 -0.200104 0
M  V30 4128 O 404.351 1.78295 0.806799 0
M  V30 4129 C 404.65 2.44853 -2.6035 0
M  V30 4130 C 404.316 2.00876 -4.03683 0
M  V30 4131 C 402.978 1.88599 -4.42701 0
M  V30 4132 C 405.33 1.67279 -4.93626 0
M  V30 4133 C 402.658 1.41017 -5.69501 0
M  V30 4134 C 405.01 1.21169 -6.20887 0
M  V30 4135 C 403.674 1.07487 -6.58789 0
M  V30 4136 H 402.944 0.481734 -0.56304 0
M  V30 4137 H 405.591 0.627301 -1.80934 0
M  V30 4138 H 403.896 3.19318 -2.27032 0
M  V30 4139 H 405.593 3.03039 -2.62619 0
M  V30 4140 H 402.183 2.11374 -3.72853 0
M  V30 4141 H 406.367 1.75638 -4.64182 0
M  V30 4142 H 401.623 1.29086 -5.97618 0
M  V30 4143 H 405.797 0.942345 -6.89995 0
M  V30 4144 H 403.424 0.703946 -7.56934 0
M  V30 4145 N 404.999 1.35443 0.805782 0
M  V30 4146 C 406.41 1.25768 1.37983 0
M  V30 4147 C 406.761 -0.10958 1.95894 0
M  V30 4148 O 405.886 -1.01056 1.91355 0
M  V30 4149 C 406.481 2.27727 2.5085 0
M  V30 4150 C 405.04 2.2179 3.04115 0
M  V30 4151 C 404.187 2.13393 1.77084 0
M  V30 4152 H 407.138 1.4656 0.608752 0
M  V30 4153 H 407.159 1.90422 3.29424 0
M  V30 4154 H 406.671 3.27227 2.08671 0
M  V30 4155 H 404.772 1.25703 3.50756 0
M  V30 4156 H 404.885 3.13788 3.62042 0
M  V30 4157 H 403.249 1.59384 1.98668 0
M  V30 4158 H 404.032 3.14755 1.37056 0
M  V30 4159 N 406.477 -1.02803 1.19454 0
M  V30 4160 C 407.407 -2.12999 0.956758 0
M  V30 4161 C 408.388 -1.69743 -0.110188 0
M  V30 4162 O 409.573 -1.94148 0.0450038 0
M  V30 4163 C 406.703 -3.43746 0.495553 0
M  V30 4164 C 405.657 -4.00688 1.50443 0
M  V30 4165 C 404.983 -5.27067 0.900275 0
M  V30 4166 C 406.283 -4.35397 2.8849 0
M  V30 4167 H 407.977 -2.33148 1.87836 0
M  V30 4168 H 405.523 -1.12045 0.904539 0
M  V30 4169 H 407.476 -4.2021 0.316493 0
M  V30 4170 H 406.2 -3.23321 -0.461646 0
M  V30 4171 H 404.859 -3.2632 1.67065 0
M  V30 4172 H 404.507 -5.02959 -0.064503 0
M  V30 4173 H 404.207 -5.66127 1.57397 0
M  V30 4174 H 405.731 -6.06196 0.73203 0
M  V30 4175 H 407.145 -5.02795 2.75446 0
M  V30 4176 H 405.542 -4.85541 3.52661 0
M  V30 4177 H 406.612 -3.44662 3.41081 0
M  V30 4178 N 407.956 -0.998596 -1.21925 0
M  V30 4179 C 408.919 -0.558679 -2.22287 0
M  V30 4180 C 409.919 0.361525 -1.56683 0
M  V30 4181 O 411.109 0.152695 -1.73529 0
M  V30 4182 C 408.241 0.18661 -3.40389 0
M  V30 4183 H 409.434 -1.4463 -2.62721 0
M  V30 4184 H 406.987 -0.786413 -1.35075 0
M  V30 4185 H 407.722 1.08996 -3.05435 0
M  V30 4186 H 407.507 -0.474188 -3.89222 0
M  V30 4187 H 408.997 0.482367 -4.14805 0
M  V30 4188 N 409.434 1.37368 -0.772513 0
M  V30 4189 C 410.682 1.99279 -0.336516 0
M  V30 4190 C 411.003 1.6163 1.09091 0
M  V30 4191 O 410.273 0.882109 1.74916 0
M  V30 4192 H 408.853 0.737063 -0.121435 0
M  V30 4193 H 411.515 1.67836 -0.990809 0
M  V30 4194 H 410.611 3.09332 -0.414763 0
M  V30 4195 N 410.912 0.523116 1.48665 0
M  V30 4196 C 412.158 -0.0134963 2.02796 0
M  V30 4197 C 412.491 -1.34582 1.40004 0
M  V30 4198 O 411.766 -1.86756 0.543381 0
M  V30 4199 C 412.049 -0.14276 3.59817 0
M  V30 4200 C 411.902 1.21425 4.331 0
M  V30 4201 C 413.221 -0.872856 4.31357 0
M  V30 4202 H 410.34 -0.00343074 0.736992 0
M  V30 4203 H 412.982 0.678816 1.7746 0
M  V30 4204 H 411.132 -0.732401 3.81534 0
M  V30 4205 H 412.804 1.84447 4.2282 0
M  V30 4206 H 411.047 1.79791 3.94788 0
M  V30 4207 H 411.718 1.07687 5.41394 0
M  V30 4208 H 414.194 -0.372555 4.14429 0
M  V30 4209 H 413.07 -0.932185 5.40927 0
M  V30 4210 H 413.331 -1.92161 3.98154 0
M  V30 4211 N 412.39 -1.55475 0.257931 0
M  V30 4212 C 413.618 -2.03609 -0.367559 0
M  V30 4213 C 414.033 -1.13687 -1.50734 0
M  V30 4214 O 413.39 -0.153479 -1.81853 0
M  V30 4215 C 413.441 -3.51001 -0.864908 0
M  V30 4216 O 413.162 -4.37499 0.229465 0
M  V30 4217 C 414.663 -4.14946 -1.55997 0
M  V30 4218 H 411.883 -0.665459 -0.0860521 0
M  V30 4219 H 414.427 -2.00843 0.385014 0
M  V30 4220 H 412.582 -3.54266 -1.56762 0
M  V30 4221 H 412.996 -5.24286 -0.14998 0
M  V30 4222 H 414.47 -5.19735 -1.85956 0
M  V30 4223 H 414.947 -3.6209 -2.4857 0
M  V30 4224 H 415.553 -4.15635 -0.901543 0
M  V30 4225 N 413.868 0.0150385 -1.57593 0
M  V30 4226 C 415.116 0.701613 -1.8953 0
M  V30 4227 C 415.437 1.75139 -0.857396 0
M  V30 4228 O 414.707 1.95607 0.107194 0
M  V30 4229 H 413.287 0.26213 -0.699498 0
M  V30 4230 H 415.949 -0.0223304 -1.94887 0
M  V30 4231 H 415.045 1.18236 -2.88837 0
M  V30 4232 N 415.346 1.54954 0.287554 0
M  V30 4233 C 416.762 1.46469 0.633964 0
M  V30 4234 C 416.962 0.666865 1.90145 0
M  V30 4235 O 416.018 0.179906 2.51858 0
M  V30 4236 C 417.331 2.90556 0.774454 0
M  V30 4237 C 418.879 3.00681 0.869462 0
M  V30 4238 C 419.354 4.45993 1.04184 0
M  V30 4239 N 420.845 4.4976 1.10772 0
M  V30 4240 C 421.58 5.59393 1.25964 0
M  V30 4241 N 421.076 6.78923 1.37968 0
M  V30 4242 N 422.869 5.47107 1.28959 0
M  V30 4243 H 415.02 2.05288 -0.545041 0
M  V30 4244 H 417.283 0.930305 -0.182308 0
M  V30 4245 H 416.989 3.51594 -0.086207 0
M  V30 4246 H 416.863 3.38743 1.6593 0
M  V30 4247 H 419.25 2.39749 1.7206 0
M  V30 4248 H 419.331 2.55769 -0.0396831 0
M  V30 4249 H 418.975 5.07524 0.195422 0
M  V30 4250 H 418.905 4.88548 1.96542 0
M  V30 4251 H 421.396 3.63651 1.02794 0
M  V30 4252 H 421.709 7.58231 1.49353 0
M  V30 4253 H 420.054 6.81763 1.34999 0
M  V30 4254 H 423.245 4.52668 1.19202 0
M  V30 4255 H 423.418 6.32595 1.40455 0
M  V30 4256 N 416.824 -0.551391 1.4764 0
M  V30 4257 C 417.787 -1.64007 1.60107 0
M  V30 4258 C 418.787 -1.53601 0.47576 0
M  V30 4259 O 419.977 -1.57655 0.740988 0
M  V30 4260 C 417.109 -3.03569 1.55108 0
M  V30 4261 H 418.302 -1.543 2.57161 0
M  V30 4262 H 415.855 -0.771776 1.35917 0
M  V30 4263 H 416.59 -3.18804 0.594519 0
M  V30 4264 H 416.375 -3.12532 2.36783 0
M  V30 4265 H 417.865 -3.82762 1.66982 0
M  V30 4266 N 418.302 -1.35869 -0.798587 0
M  V30 4267 C 419.212 -1.31578 -1.94228 0
M  V30 4268 C 420.228 -0.21939 -1.72611 0
M  V30 4269 O 421.404 -0.450167 -1.96305 0
M  V30 4270 C 418.469 -1.09528 -3.28944 0
M  V30 4271 C 417.53 -2.28556 -3.63402 0
M  V30 4272 C 416.763 -2.07549 -4.9169 0
M  V30 4273 O 416.986 -1.046 -5.60727 0
M  V30 4274 O 415.92 -2.95106 -5.24591 0
M  V30 4275 H 419.746 -2.27847 -2.00796 0
M  V30 4276 H 417.331 -1.16322 -0.937526 0
M  V30 4277 H 419.213 -0.991127 -4.09579 0
M  V30 4278 H 417.888 -0.16315 -3.23289 0
M  V30 4279 H 416.795 -2.44538 -2.83112 0
M  V30 4280 H 418.128 -3.20244 -3.73771 0
M  V30 4281 N 419.78 1.02168 -1.19998 0
M  V30 4282 C 421.026 1.75945 -1.00852 0
M  V30 4283 C 421.359 1.88702 0.458828 0
M  V30 4284 O 420.634 1.40911 1.34069 0
M  V30 4285 C 420.917 3.18154 -1.68671 0
M  V30 4286 C 420.77 3.13224 -3.22817 0
M  V30 4287 C 422.089 4.16711 -1.41561 0
M  V30 4288 H 419.208 0.638673 -0.367785 0
M  V30 4289 H 421.85 1.19222 -1.4794 0
M  V30 4290 H 420 3.66586 -1.28636 0
M  V30 4291 H 421.672 2.72635 -3.72112 0
M  V30 4292 H 419.915 2.50751 -3.53986 0
M  V30 4293 H 420.586 4.13728 -3.65422 0
M  V30 4294 H 423.062 3.76913 -1.76284 0
M  V30 4295 H 421.938 5.14391 -1.91553 0
M  V30 4296 H 422.199 4.40774 -0.342193 0
M  V30 4297 N 421.258 1.00505 1.21394 0
M  V30 4298 C 422.191 0.51032 2.22421 0
M  V30 4299 C 423.169 -0.436 1.56645 0
M  V30 4300 O 424.353 -0.358709 1.85055 0
M  V30 4301 C 421.48 -0.258733 3.3771 0
M  V30 4302 C 420.526 0.635395 4.2174 0
M  V30 4303 S 421.359 2.09783 4.92698 0
M  V30 4304 C 422.515 1.33862 6.11418 0
M  V30 4305 H 422.748 1.36637 2.64041 0
M  V30 4306 H 420.281 0.812991 1.31262 0
M  V30 4307 H 422.239 -0.696372 4.0455 0
M  V30 4308 H 420.9 -1.0902 2.94573 0
M  V30 4309 H 420.093 0.0430189 5.03982 0
M  V30 4310 H 419.695 1.01031 3.60095 0
M  V30 4311 H 421.987 0.612541 6.74725 0
M  V30 4312 H 422.93 2.13675 6.75092 0
M  V30 4313 H 423.338 0.846568 5.58116 0
M  V30 4314 N 422.737 -1.36956 0.779787 0
M  V30 4315 C 424.014 -1.93697 0.272156 0
M  V30 4316 C 424.394 -1.71267 -1.23413 0
M  V30 4317 O 423.742 -1.06607 -2.02107 0
M  V30 4318 C 423.952 -3.42812 0.654291 0
M  V30 4319 C 425.3 -4.19921 0.628602 0
M  V30 4320 O 426.324 -3.51209 0.594172 0
M  V30 4321 O 425.183 -5.42465 0.662864 0
M  V30 4322 H 422.277 -0.824447 0.0649286 0
M  V30 4323 H 424.823 -1.46196 0.861682 0
M  V30 4324 H 423.595 -3.52754 1.69353 0
M  V30 4325 H 423.218 -3.97582 0.0381369 0
M  V30 4326 N 424.215 -0.530993 -1.48385 0
M  V30 4327 C 425.178 0.220497 -2.28137 0
M  V30 4328 C 426.178 0.866851 -1.35434 0
M  V30 4329 O 427.368 0.726746 -1.58316 0
M  V30 4330 C 424.5 1.31921 -3.1434 0
M  V30 4331 H 425.693 -0.479714 -2.96038 0
M  V30 4332 H 423.246 -0.286968 -1.53643 0
M  V30 4333 H 423.981 2.05264 -2.51072 0
M  V30 4334 H 423.766 0.86085 -3.82533 0
M  V30 4335 H 425.256 1.84776 -3.74497 0
M  V30 4336 N 425.693 1.55336 -0.266172 0
M  V30 4337 C 426.939 1.99692 0.353681 0
M  V30 4338 C 427.272 1.1543 1.56172 0
M  V30 4339 O 426.547 0.222218 1.93226 0
M  V30 4340 C 426.83 3.52316 0.74466 0
M  V30 4341 C 426.683 4.47337 -0.470101 0
M  V30 4342 C 428.002 4.10588 1.58447 0
M  V30 4343 H 425.121 0.725961 0.12708 0
M  V30 4344 H 427.763 1.86336 -0.371333 0
M  V30 4345 H 425.913 3.63829 1.36239 0
M  V30 4346 H 427.585 4.4778 -1.10864 0
M  V30 4347 H 425.828 4.19364 -1.10978 0
M  V30 4348 H 426.499 5.51788 -0.15291 0
M  V30 4349 H 428.975 4.02297 1.06286 0
M  V30 4350 H 427.851 5.17607 1.82686 0
M  V30 4351 H 428.112 3.60253 2.56262 0
M  V30 4352 N 427.171 -0.0066808 1.57599 0
M  V30 4353 C 428.134 -0.985035 2.06953 0
M  V30 4354 C 429.134 -1.27663 0.977687 0
M  V30 4355 O 430.324 -1.22293 1.24057 0
M  V30 4356 C 427.456 -2.3118 2.50536 0
M  V30 4357 H 428.649 -0.558255 2.94658 0
M  V30 4358 H 426.202 -0.254011 1.54222 0
M  V30 4359 H 426.937 -2.78561 1.66054 0
M  V30 4360 H 426.722 -2.11338 3.3027 0
M  V30 4361 H 428.212 -3.01377 2.8907 0
M  V30 4362 N 428.649 -1.55105 -0.279332 0
M  V30 4363 C 430.06 -1.66186 -0.850832 0
M  V30 4364 C 430.411 -0.584707 -1.87285 0
M  V30 4365 O 429.536 0.274919 -2.14647 0
M  V30 4366 C 430.131 -3.01264 -1.55001 0
M  V30 4367 C 428.69 -3.14394 -2.06963 0
M  V30 4368 C 427.837 -2.61959 -0.909536 0
M  V30 4369 H 430.788 -1.58602 -0.0558235 0
M  V30 4370 H 430.809 -2.93899 -2.41669 0
M  V30 4371 H 430.321 -3.7964 -0.805931 0
M  V30 4372 H 428.422 -2.4078 -2.84352 0
M  V30 4373 H 428.535 -4.20867 -2.28928 0
M  V30 4374 H 426.899 -2.18957 -1.30116 0
M  V30 4375 H 427.682 -3.42833 -0.179062 0
M  V30 4376 N 430.127 0.543554 -1.4793 0
M  V30 4377 C 431.375 1.29752 -1.54948 0
M  V30 4378 C 431.696 1.93764 -0.219242 0
M  V30 4379 O 430.966 1.80639 0.75805 0
M  V30 4380 H 429.546 0.481874 -0.570795 0
M  V30 4381 H 432.208 0.633636 -1.84312 0
M  V30 4382 H 431.304 2.08392 -2.32334 0
M  V30 4383 N 431.605 1.3629 0.791371 0
M  V30 4384 C 432.853 1.30154 1.5461 0
M  V30 4385 C 433.174 -0.119409 1.94634 0
M  V30 4386 O 432.444 -1.05924 1.64794 0
M  V30 4387 H 431.024 0.478784 0.573389 0
M  V30 4388 H 433.686 1.70565 0.94306 0
M  V30 4389 H 432.782 1.92762 2.45457 0
M  V30 4390 N 433.083 -1.0153 1.20538 0
M  V30 4391 C 434.013 -2.11972 0.979295 0
M  V30 4392 C 434.994 -1.6985 -0.0921787 0
M  V30 4393 O 436.179 -1.94089 0.0655932 0
M  V30 4394 C 433.309 -3.43201 0.531984 0
M  V30 4395 C 432.263 -3.9907 1.54685 0
M  V30 4396 C 431.589 -5.26082 0.956127 0
M  V30 4397 C 432.889 -4.32313 2.93092 0
M  V30 4398 H 434.583 -2.31143 1.90298 0
M  V30 4399 H 432.129 -1.11079 0.916372 0
M  V30 4400 H 434.082 -4.1985 0.361044 0
M  V30 4401 H 432.806 -3.23792 -0.427327 0
M  V30 4402 H 431.465 -3.2453 1.70517 0
M  V30 4403 H 431.113 -5.02999 -0.0111538 0
M  V30 4404 H 430.813 -5.64426 1.63393 0
M  V30 4405 H 432.337 -6.05386 0.796284 0
M  V30 4406 H 433.751 -4.99845 2.80763 0
M  V30 4407 H 432.148 -4.81774 3.57791 0
M  V30 4408 H 433.218 -3.41025 3.44717 0
M  V30 4409 N 434.561 -1.01147 -1.20859 0
M  V30 4410 C 435.809 -0.696486 -1.89719 0
M  V30 4411 C 436.13 0.775788 -1.78904 0
M  V30 4412 O 435.4 1.55759 -1.18811 0
M  V30 4413 H 433.98 -0.254628 -0.702263 0
M  V30 4414 H 436.642 -1.28197 -1.46804 0
M  V30 4415 H 435.738 -0.975357 -2.96468 0
M  V30 4416 N 436.039 1.36541 -0.78704 0
M  V30 4417 C 437.287 1.98911 -0.357633 0
M  V30 4418 C 437.608 1.62778 1.07371 0
M  V30 4419 O 436.878 0.900612 1.73971 0
M  V30 4420 H 435.458 0.735734 -0.129246 0
M  V30 4421 H 438.12 1.66776 -1.00855 0
M  V30 4422 H 437.216 3.08874 -0.447549 0
M  V30 4423 N 437.518 0.538854 1.48102 0
M  V30 4424 C 438.746 0.0123136 2.06896 0
M  V30 4425 C 439.161 -1.27312 1.39417 0
M  V30 4426 O 438.518 -1.75949 0.484582 0
M  V30 4427 C 438.569 -0.206118 3.60912 0
M  V30 4428 O 438.29 1.0284 4.25859 0
M  V30 4429 C 439.791 -0.772033 4.36526 0
M  V30 4430 H 437.011 0.0375239 0.66995 0
M  V30 4431 H 439.555 0.747032 1.90367 0
M  V30 4432 H 437.71 -0.89091 3.77017 0
M  V30 4433 H 438.124 0.814654 5.18135 0
M  V30 4434 H 439.598 -0.874251 5.45033 0
M  V30 4435 H 440.075 -1.77904 4.01555 0
M  V30 4436 H 440.681 -0.123526 4.25121 0
M  V30 4437 N 438.996 -1.55193 0.274407 0
M  V30 4438 C 440.226 -2.03692 -0.345442 0
M  V30 4439 C 440.634 -1.15224 -1.50067 0
M  V30 4440 O 439.977 -0.164749 -1.8296 0
M  V30 4441 C 440.039 -3.48325 -0.88939 0
M  V30 4442 C 439.703 -4.56794 0.137115 0
M  V30 4443 C 440.7 -5.11028 0.956378 0
M  V30 4444 C 438.385 -5.01568 0.27115 0
M  V30 4445 C 440.379 -6.08552 1.89587 0
M  V30 4446 C 438.066 -5.98918 1.21412 0
M  V30 4447 C 439.064 -6.52291 2.02498 0
M  V30 4448 O 438.752 -7.47738 2.952 0
M  V30 4449 H 438.484 -0.670893 -0.0829332 0
M  V30 4450 H 441.038 -2.01387 0.404056 0
M  V30 4451 H 439.268 -3.47867 -1.68895 0
M  V30 4452 H 440.957 -3.80167 -1.42225 0
M  V30 4453 H 441.723 -4.7725 0.863559 0
M  V30 4454 H 437.602 -4.5967 -0.349987 0
M  V30 4455 H 441.146 -6.50137 2.52918 0
M  V30 4456 H 437.043 -6.32114 1.30776 0
M  V30 4457 H 437.811 -7.65451 2.89874 0
M  V30 4458 N 440.474 -0.00167713 -1.576 0
M  V30 4459 C 441.437 0.974046 -2.07473 0
M  V30 4460 C 442.437 1.27143 -0.984444 0
M  V30 4461 O 443.627 1.21633 -1.24703 0
M  V30 4462 C 440.759 2.29849 -2.51759 0
M  V30 4463 H 441.952 0.54262 -2.9495 0
M  V30 4464 H 439.505 0.245829 -1.54355 0
M  V30 4465 H 440.24 2.77677 -1.67529 0
M  V30 4466 H 440.025 2.09584 -3.31386 0
M  V30 4467 H 441.515 2.9984 -2.90664 0
M  V30 4468 N 441.952 1.55251 0.271103 0
M  V30 4469 C 443.2 1.75599 1.00047 0
M  V30 4470 C 443.521 0.561188 1.8675 0
M  V30 4471 O 442.791 -0.423846 1.9126 0
M  V30 4472 H 441.371 0.647562 0.372387 0
M  V30 4473 H 444.033 1.92656 0.294876 0
M  V30 4474 H 443.129 2.65766 1.6363 0
M  V30 4475 N 443.43 -0.535701 1.48216 0
M  V30 4476 C 444.378 -1.66179 1.62749 0
M  V30 4477 C 445.372 -1.62034 0.49409 0
M  V30 4478 O 446.578 -1.6696 0.672624 0
M  V30 4479 H 442.953 -0.550244 0.512578 0
M  V30 4480 H 444.924 -1.51063 2.57337 0
M  V30 4481 C 443.673 -3.04471 1.67907 0
M  V30 4482 H 442.996 -3.08351 2.54479 0
M  V30 4483 H 444.436 -3.82894 1.82121 0
M  V30 4484 C 442.895 -3.34314 0.416596 0
M  V30 4485 O 443.425 -3.98905 -0.473014 0
M  V30 4486 N 441.631 -2.89149 0.290038 0
M  V30 4487 H 441.178 -2.36764 1.01493 0
M  V30 4488 H 441.136 -3.09486 -0.55367 0
M  V30 4489 N 444.908 -1.36708 -0.784132 0
M  V30 4490 C 446.319 -1.27947 -1.35965 0
M  V30 4491 C 446.67 0.0784013 -1.96043 0
M  V30 4492 O 445.795 0.979989 -1.92938 0
M  V30 4493 C 446.39 -2.31689 -2.47195 0
M  V30 4494 C 444.949 -2.26601 -3.00548 0
M  V30 4495 C 444.096 -2.16184 -1.73666 0
M  V30 4496 H 447.047 -1.4751 -0.585358 0
M  V30 4497 H 447.068 -1.95638 -3.26352 0
M  V30 4498 H 446.58 -3.30506 -2.03439 0
M  V30 4499 H 444.681 -1.31268 -3.48711 0
M  V30 4500 H 444.794 -3.19508 -3.57004 0
M  V30 4501 H 443.158 -1.62524 -1.96107 0
M  V30 4502 H 443.941 -3.16896 -1.32031 0
M  V30 4503 N 446.386 1.0089 -1.21074 0
M  V30 4504 C 447.635 1.74019 -1.01981 0
M  V30 4505 C 447.948 1.90408 0.447665 0
M  V30 4506 O 449.154 2.60707 0.757906 0
M  V30 4507 C 447.61 3.13026 -1.77603 0
M  V30 4508 C 447.218 3.04623 -3.28495 0
M  V30 4509 C 448.962 3.90312 -1.66904 0
M  V30 4510 C 446.869 4.38685 -3.96623 0
M  V30 4511 H 445.799 0.652422 -0.377971 0
M  V30 4512 H 448.45 1.12755 -1.44771 0
M  V30 4513 H 446.832 3.74878 -1.27604 0
M  V30 4514 H 448.006 2.52032 -3.85767 0
M  V30 4515 H 446.321 2.40827 -3.39693 0
M  V30 4516 H 448.918 4.8951 -2.15138 0
M  V30 4517 H 449.261 4.11558 -0.62658 0
M  V30 4518 H 449.794 3.35104 -2.14359 0
M  V30 4519 H 446.533 4.22641 -5.01054 0
M  V30 4520 H 446.053 4.91252 -3.4414 0
M  V30 4521 H 447.732 5.075 -4.01314 0
M  V30 4522 N 447.864 1.01787 1.20321 0
M  V30 4523 C 448.827 0.593972 2.2137 0
M  V30 4524 C 449.827 -0.336553 1.57239 0
M  V30 4525 O 451.017 -0.125069 1.7375 0
M  V30 4526 C 448.149 -0.132433 3.40643 0
M  V30 4527 H 449.342 1.48791 2.60387 0
M  V30 4528 H 446.895 0.807803 1.33807 0
M  V30 4529 H 447.63 -1.04123 3.0713 0
M  V30 4530 H 447.415 0.53605 3.88418 0
M  V30 4531 H 448.905 -0.416314 4.1552 0
M  V30 4532 N 449.342 -1.36122 0.79427 0
M  V30 4533 C 450.582 -2.00942 0.374376 0
M  V30 4534 C 450.946 -1.61666 -1.03577 0
M  V30 4535 O 452.147 -2.19113 -1.55701 0
M  V30 4536 C 450.418 -3.53323 0.538327 0
M  V30 4537 S 451.977 -4.38311 0.20703 0
M  V30 4538 H 448.795 -0.696515 0.142785 0
M  V30 4539 H 451.397 -1.65929 1.03382 0
M  V30 4540 H 450.101 -3.79395 1.56484 0
M  V30 4541 H 449.632 -3.93162 -0.136882 0
M  V30 4542 H 451.647 -4.8623 -0.989695 0
M  V30 4543 N 450.82 -0.546701 -1.47814 0
M  V30 4544 C 452.066 -0.0187684 -2.02791 0
M  V30 4545 C 452.399 1.32338 -1.42128 0
M  V30 4546 O 451.674 1.85867 -0.573023 0
M  V30 4547 C 451.957 0.0854985 -3.59998 0
M  V30 4548 C 451.81 -1.283 -4.31114 0
M  V30 4549 C 453.129 0.80412 -4.32691 0
M  V30 4550 H 450.248 -0.0082946 -0.736953 0
M  V30 4551 H 452.89 -0.706962 -1.76358 0
M  V30 4552 H 451.04 0.671609 -3.82651 0
M  V30 4553 H 452.712 -1.91151 -4.19832 0
M  V30 4554 H 450.955 -1.86049 -3.91878 0
M  V30 4555 H 451.626 -1.16287 -5.39612 0
M  V30 4556 H 454.102 0.306576 -4.14969 0
M  V30 4557 H 452.978 0.846011 -5.42341 0
M  V30 4558 H 453.239 1.85802 -4.01161 0
M  V30 4559 N 452.299 1.55045 -0.282633 0
M  V30 4560 C 453.262 2.21515 0.588539 0
M  V30 4561 C 454.262 1.19535 1.07554 0
M  V30 4562 O 455.452 1.44391 0.974514 0
M  V30 4563 C 452.584 2.88704 1.8128 0
M  V30 4564 H 453.777 2.99899 0.00806397 0
M  V30 4565 H 451.33 1.56265 -0.0333067 0
M  V30 4566 H 452.065 2.14352 2.43359 0
M  V30 4567 H 451.85 3.63443 1.47144 0
M  V30 4568 H 453.34 3.39465 2.43214 0
M  V30 4569 N 453.777 0.010035 1.57597 0
M  V30 4570 C 454.74 -0.963029 2.07986 0
M  V30 4571 C 455.74 -1.26619 0.991173 0
M  V30 4572 O 456.93 -1.2097 1.25347 0
M  V30 4573 C 454.062 -2.2851 2.52974 0
M  V30 4574 H 455.255 -0.526971 2.95234 0
M  V30 4575 H 452.808 -0.237639 1.54483 0
M  V30 4576 H 453.543 -2.76784 1.69 0
M  V30 4577 H 453.328 -2.07824 3.32493 0
M  V30 4578 H 454.818 -2.98294 2.9225 0
M  V30 4579 N 455.255 -1.55392 -0.262866 0
M  V30 4580 C 456.185 -1.91978 -1.32917 0
M  V30 4581 C 457.166 -0.7828 -1.51017 0
M  V30 4582 O 458.351 -1.04178 -1.63892 0
M  V30 4583 C 455.481 -2.20055 -2.68687 0
M  V30 4584 C 454.435 -3.35854 -2.65304 0
M  V30 4585 C 453.761 -3.49435 -4.04721 0
M  V30 4586 C 455.061 -4.71977 -2.23685 0
M  V30 4587 H 456.755 -2.81292 -1.02544 0
M  V30 4588 H 454.301 -1.3534 -0.491846 0
M  V30 4589 H 456.254 -2.44237 -3.43404 0
M  V30 4590 H 454.978 -1.27551 -3.00663 0
M  V30 4591 H 453.637 -3.11655 -1.93045 0
M  V30 4592 H 453.285 -2.54379 -4.33936 0
M  V30 4593 H 452.985 -4.27297 -4.0335 0
M  V30 4594 H 454.509 -3.7592 -4.81161 0
M  V30 4595 H 455.923 -4.95637 -2.88127 0
M  V30 4596 H 454.32 -5.52828 -2.33456 0
M  V30 4597 H 455.39 -4.70115 -1.18827 0
M  V30 4598 N 456.733 0.527833 -1.48498 0
M  V30 4599 C 457.643 1.65907 -1.65867 0
M  V30 4600 C 458.659 1.6537 -0.541192 0
M  V30 4601 O 459.835 1.84282 -0.812534 0
M  V30 4602 C 456.9 3.02364 -1.69637 0
M  V30 4603 C 455.961 3.1374 -2.93028 0
M  V30 4604 C 455.194 4.43688 -2.96609 0
M  V30 4605 O 455.417 5.30913 -2.08538 0
M  V30 4606 O 454.351 4.59475 -3.88802 0
M  V30 4607 H 458.177 1.5419 -2.61647 0
M  V30 4608 H 455.762 0.701163 -1.31924 0
M  V30 4609 H 457.644 3.83515 -1.74625 0
M  V30 4610 H 456.319 3.14401 -0.770312 0
M  V30 4611 H 455.226 2.31877 -2.93571 0
M  V30 4612 H 456.559 3.06621 -3.85026 0
M  V30 4613 N 458.211 1.37122 0.776871 0
M  V30 4614 C 459.457 1.32243 1.53752 0
M  V30 4615 C 459.79 -0.0944745 1.9397 0
M  V30 4616 O 459.065 -1.05068 1.6368 0
M  V30 4617 C 459.348 2.25681 2.80607 0
M  V30 4618 C 459.201 3.76127 2.46676 0
M  V30 4619 C 460.52 2.17657 3.82509 0
M  V30 4620 H 457.639 0.481704 0.557791 0
M  V30 4621 H 460.281 1.6778 0.891612 0
M  V30 4622 H 458.431 1.95505 3.35723 0
M  V30 4623 H 460.103 4.16877 1.97513 0
M  V30 4624 H 458.346 3.94946 1.79443 0
M  V30 4625 H 459.017 4.36933 3.37333 0
M  V30 4626 H 461.493 2.44245 3.36873 0
M  V30 4627 H 460.369 2.85185 4.69 0
M  V30 4628 H 460.63 1.16785 4.26396 0
M  V30 4629 N 459.689 -1.00246 1.21608 0
M  V30 4630 C 460.619 -2.10921 1.00172 0
M  V30 4631 C 461.6 -1.69938 -0.0741587 0
M  V30 4632 O 462.785 -1.94009 0.0861753 0
M  V30 4633 C 459.915 -3.42618 0.568355 0
M  V30 4634 C 458.869 -3.97407 1.58909 0
M  V30 4635 C 458.195 -5.25038 1.01187 0
M  V30 4636 C 459.495 -4.2918 2.97661 0
M  V30 4637 H 461.189 -2.29112 1.92739 0
M  V30 4638 H 458.735 -1.10101 0.928102 0
M  V30 4639 H 460.688 -4.19444 0.405555 0
M  V30 4640 H 459.412 -3.24227 -0.392961 0
M  V30 4641 H 458.071 -3.22703 1.73949 0
M  V30 4642 H 457.719 -5.02982 0.0421965 0
M  V30 4643 H 457.419 -5.62661 1.6937 0
M  V30 4644 H 458.943 -6.04507 0.860448 0
M  V30 4645 H 460.357 -4.96839 2.86049 0
M  V30 4646 H 458.754 -4.77952 3.6288 0
M  V30 4647 H 459.824 -3.3735 3.48315 0
M  V30 4648 N 461.167 -1.02423 -1.1978 0
M  V30 4649 C 462.114 -0.601023 -2.22837 0
M  V30 4650 C 463.084 0.382801 -1.61629 0
M  V30 4651 O 464.269 0.280514 -1.88727 0
M  V30 4652 C 461.409 0.0467755 -3.45068 0
M  V30 4653 C 460.522 -0.98253 -4.20678 0
M  V30 4654 C 459.657 -0.304982 -5.30324 0
M  V30 4655 C 458.696 -1.32052 -5.97686 0
M  V30 4656 N 457.833 -0.669105 -6.98904 0
M  V30 4657 H 462.673 -1.48444 -2.58396 0
M  V30 4658 H 460.21 -0.742936 -1.2696 0
M  V30 4659 H 462.168 0.439556 -4.14878 0
M  V30 4660 H 460.798 0.893796 -3.10179 0
M  V30 4661 H 459.85 -1.49341 -3.49859 0
M  V30 4662 H 461.162 -1.75455 -4.66923 0
M  V30 4663 H 460.316 0.142893 -6.06532 0
M  V30 4664 H 459.055 0.499283 -4.85138 0
M  V30 4665 H 458.06 -1.7787 -5.20233 0
M  V30 4666 H 459.285 -2.1262 -6.44957 0
M  V30 4667 H 457.231 0.115152 -6.55899 0
M  V30 4668 H 457.148 -1.37908 -7.43315 0
M  V30 4669 H 458.416 -0.245076 -7.79115 0
M  V30 4670 N 462.645 1.35699 -0.801477 0
M  V30 4671 C 463.891 1.99208 -0.380022 0
M  V30 4672 C 464.224 1.63445 1.04878 0
M  V30 4673 O 463.499 0.895223 1.72673 0
M  V30 4674 C 463.782 3.55755 -0.557708 0
M  V30 4675 C 463.635 4.01332 -2.03107 0
M  V30 4676 C 464.954 4.40096 0.0197968 0
M  V30 4677 H 462.073 0.723667 -0.139552 0
M  V30 4678 H 464.715 1.60928 -1.01006 0
M  V30 4679 H 462.865 3.88494 -0.0213741 0
M  V30 4680 H 464.537 3.79026 -2.62939 0
M  V30 4681 H 462.78 3.52429 -2.52936 0
M  V30 4682 H 463.451 5.10234 -2.1063 0
M  V30 4683 H 465.927 4.13786 -0.438179 0
M  V30 4684 H 464.803 5.48735 -0.134477 0
M  V30 4685 H 465.064 4.2786 1.11303 0
M  V30 4686 N 464.123 0.554532 1.47522 0
M  V30 4687 C 465.37 0.029479 2.02479 0
M  V30 4688 C 465.698 -1.31929 1.42916 0
M  V30 4689 O 464.953 -1.87112 0.573385 0
M  V30 4690 C 465.252 -0.115927 3.57212 0
M  V30 4691 C 464.918 1.16161 4.3568 0
M  V30 4692 C 463.58 1.51168 4.56839 0
M  V30 4693 C 465.932 2.0083 4.80954 0
M  V30 4694 C 463.26 2.70696 5.2052 0
M  V30 4695 C 465.612 3.19559 5.45953 0
M  V30 4696 C 464.276 3.54882 5.65345 0
M  V30 4697 H 463.546 0.0107871 0.740921 0
M  V30 4698 H 466.193 0.725506 1.77225 0
M  V30 4699 H 464.498 -0.894902 3.81443 0
M  V30 4700 H 466.195 -0.53749 3.97381 0
M  V30 4701 H 462.785 0.879026 4.19489 0
M  V30 4702 H 466.969 1.75093 4.64388 0
M  V30 4703 H 462.225 2.98236 5.33728 0
M  V30 4704 H 466.399 3.85456 5.79997 0
M  V30 4705 H 464.026 4.47596 6.1446 0
M  V30 4706 N 465.601 -1.54893 0.290851 0
M  V30 4707 C 466.511 -2.26812 -0.59945 0
M  V30 4708 C 467.527 -1.29963 -1.15696 0
M  V30 4709 O 468.703 -1.62928 -1.18391 0
M  V30 4710 C 465.768 -2.98716 -1.75982 0
M  V30 4711 C 464.829 -4.1108 -1.2374 0
M  V30 4712 C 464.062 -4.79546 -2.34246 0
M  V30 4713 O 464.285 -4.47309 -3.53936 0
M  V30 4714 O 463.219 -5.67165 -2.01512 0
M  V30 4715 H 467.045 -3.03696 -0.0163561 0
M  V30 4716 H 464.63 -1.49289 0.0576755 0
M  V30 4717 H 466.512 -3.43851 -2.43607 0
M  V30 4718 H 465.187 -2.24737 -2.3297 0
M  V30 4719 H 464.094 -3.70367 -0.527163 0
M  V30 4720 H 465.427 -4.87007 -0.71307 0
M  V30 4721 N 467.08 -0.0183926 -1.57589 0
M  V30 4722 C 468.012 0.995557 -2.06449 0
M  V30 4723 C 469.025 1.29556 -0.985849 0
M  V30 4724 O 470.214 1.2621 -1.26227 0
M  V30 4725 C 467.314 2.32572 -2.46502 0
M  V30 4726 C 466.487 2.21245 -3.77319 0
M  V30 4727 C 465.546 3.37104 -4.04039 0
M  V30 4728 O 464.572 3.14468 -4.74445 0
M  V30 4729 N 465.774 4.60553 -3.53372 0
M  V30 4730 H 468.539 0.578746 -2.94059 0
M  V30 4731 H 466.1 0.168603 -1.6102 0
M  V30 4732 H 468.092 3.08887 -2.61478 0
M  V30 4733 H 466.662 2.65931 -1.64315 0
M  V30 4734 H 465.882 1.29723 -3.72244 0
M  V30 4735 H 467.17 2.10868 -4.63047 0
M  V30 4736 H 466.568 4.81839 -2.96391 0
M  V30 4737 H 465.125 5.34072 -3.73644 0
M  V30 4738 N 468.558 1.5553 0.254621 0
M  V30 4739 C 469.468 1.92789 1.33677 0
M  V30 4740 C 470.484 0.827356 1.53071 0
M  V30 4741 O 471.66 1.12807 1.66843 0
M  V30 4742 C 468.725 2.20827 2.67275 0
M  V30 4743 C 467.786 3.4427 2.5647 0
M  V30 4744 C 467.019 3.70961 3.83697 0
M  V30 4745 O 467.242 2.99852 4.85227 0
M  V30 4746 O 466.176 4.64491 3.82794 0
M  V30 4747 H 470.002 2.84945 1.05071 0
M  V30 4748 H 467.587 1.42312 0.454723 0
M  V30 4749 H 469.469 2.40204 3.46237 0
M  V30 4750 H 468.144 1.31851 2.9563 0
M  V30 4751 H 467.051 3.30209 1.75821 0
M  V30 4752 H 468.384 4.33524 2.33062 0
M  V30 4753 N 470.036 -0.519951 1.48776 0
M  V30 4754 C 470.984 -1.64443 1.64503 0
M  V30 4755 C 471.978 -1.61501 0.511248 0
M  V30 4756 O 473.184 -1.66238 0.690294 0
M  V30 4757 H 469.559 -0.544776 0.518385 0
M  V30 4758 H 471.53 -1.48325 2.58925 0
M  V30 4759 C 470.279 -3.02673 1.71127 0
M  V30 4760 H 469.602 -3.05635 2.57735 0
M  V30 4761 H 471.042 -3.80941 1.86172 0
M  V30 4762 C 469.501 -3.33854 0.452032 0
M  V30 4763 O 470.031 -3.99385 -0.430678 0
M  V30 4764 N 468.237 -2.88825 0.32069 0
M  V30 4765 H 467.784 -2.35674 1.03998 0
M  V30 4766 H 467.742 -3.10056 -0.520814 0
M  V30 4767 N 471.514 -1.37532 -0.769588 0
M  V30 4768 C 472.444 -1.36172 -1.89682 0
M  V30 4769 C 473.425 -0.23001 -1.68538 0
M  V30 4770 O 474.61 -0.43069 -1.89364 0
M  V30 4771 C 471.74 -1.1701 -3.26995 0
M  V30 4772 C 470.694 -2.27216 -3.62708 0
M  V30 4773 C 470.02 -1.93174 -4.98586 0
M  V30 4774 C 471.32 -3.6941 -3.69234 0
M  V30 4775 H 473.014 -2.30499 -1.91078 0
M  V30 4776 H 470.56 -1.10953 -0.917902 0
M  V30 4777 H 472.513 -1.14688 -4.05493 0
M  V30 4778 H 471.237 -0.191395 -3.26039 0
M  V30 4779 H 469.896 -2.28697 -2.86519 0
M  V30 4780 H 469.544 -0.938281 -4.94171 0
M  V30 4781 H 469.244 -2.66973 -5.23449 0
M  V30 4782 H 470.768 -1.92443 -5.79481 0
M  V30 4783 H 472.182 -3.70047 -4.37879 0
M  V30 4784 H 470.579 -4.4228 -4.05597 0
M  V30 4785 H 471.649 -4.0288 -2.69844 0
M  V30 4786 N 472.992 0.995999 -1.22138 0
M  V30 4787 C 473.922 2.10387 -1.01289 0
M  V30 4788 C 474.903 1.69975 0.0651454 0
M  V30 4789 O 476.088 1.9396 -0.0964628 0
M  V30 4790 C 473.218 3.42312 -0.586517 0
M  V30 4791 C 472.172 3.96558 -1.61014 0
M  V30 4792 C 471.498 5.24494 -1.0397 0
M  V30 4793 C 472.798 4.27595 -2.99933 0
M  V30 4794 H 474.492 2.28086 -1.93951 0
M  V30 4795 H 472.038 1.09607 -0.933928 0
M  V30 4796 H 473.991 4.19223 -0.427793 0
M  V30 4797 H 472.715 3.24431 0.375761 0
M  V30 4798 H 471.374 3.21776 -1.75658 0
M  V30 4799 H 471.022 5.02953 -0.0688703 0
M  V30 4800 H 470.722 5.61755 -1.72352 0
M  V30 4801 H 472.246 6.04042 -0.892494 0
M  V30 4802 H 473.66 4.95315 -2.8868 0
M  V30 4803 H 472.057 4.76021 -3.6541 0
M  V30 4804 H 473.127 3.35498 -3.50099 0
M  V30 4805 N 474.47 1.03057 1.19235 0
M  V30 4806 C 475.402 0.570932 2.21975 0
M  V30 4807 C 476.415 -0.354088 1.58903 0
M  V30 4808 O 477.604 -0.150211 1.77867 0
M  V30 4809 C 474.704 -0.187152 3.38383 0
M  V30 4810 C 473.877 0.743231 4.31039 0
M  V30 4811 C 472.936 0.0302493 5.26191 0
M  V30 4812 O 471.962 0.657371 5.65391 0
M  V30 4813 N 473.164 -1.23991 5.67104 0
M  V30 4814 H 475.929 1.45456 2.62036 0
M  V30 4815 H 473.49 0.909807 1.33918 0
M  V30 4816 H 475.482 -0.673715 3.99053 0
M  V30 4817 H 474.052 -0.972205 2.97098 0
M  V30 4818 H 473.272 1.40985 3.68126 0
M  V30 4819 H 474.56 1.3755 4.89854 0
M  V30 4820 H 473.958 -1.77011 5.37293 0
M  V30 4821 H 472.515 -1.67093 6.30018 0
M  V30 4822 N 475.948 -1.35272 0.808662 0
M  V30 4823 C 476.895 -2.29764 0.218482 0
M  V30 4824 C 477.865 -1.52911 -0.648652 0
M  V30 4825 O 479.05 -1.81341 -0.593297 0
M  V30 4826 C 476.19 -3.39388 -0.625282 0
M  V30 4827 C 475.303 -4.31202 0.262516 0
M  V30 4828 C 474.438 -5.27919 -0.589451 0
M  V30 4829 C 473.477 -6.11371 0.298617 0
M  V30 4830 N 472.614 -7.0022 -0.513443 0
M  V30 4831 H 477.454 -2.79645 1.02968 0
M  V30 4832 H 474.991 -1.37629 0.519303 0
M  V30 4833 H 476.949 -4.01615 -1.12966 0
M  V30 4834 H 475.579 -2.90777 -1.40173 0
M  V30 4835 H 474.631 -3.69962 0.885013 0
M  V30 4836 H 475.943 -4.89748 0.945971 0
M  V30 4837 H 475.097 -5.95529 -1.15888 0
M  V30 4838 H 473.836 -4.69875 -1.30647 0
M  V30 4839 H 472.841 -5.42707 0.880301 0
M  V30 4840 H 474.066 -6.71494 1.01352 0
M  V30 4841 H 472.012 -6.44662 -1.21439 0
M  V30 4842 H 471.929 -7.55917 0.111922 0
M  V30 4843 H 473.197 -7.72175 -1.06608 0
M  V30 4844 N 477.426 -0.562348 -1.47226 0
M  V30 4845 C 478.389 0.172056 -2.28553 0
M  V30 4846 C 479.389 0.837928 -1.37242 0
M  V30 4847 O 480.579 0.693001 -1.59822 0
M  V30 4848 C 477.711 1.25223 -3.17068 0
M  V30 4849 H 478.904 -0.542401 -2.94954 0
M  V30 4850 H 476.457 -0.319493 -1.53 0
M  V30 4851 H 477.192 1.99892 -2.55369 0
M  V30 4852 H 476.977 0.779515 -3.84273 0
M  V30 4853 H 478.467 1.76791 -3.78332 0
M  V30 4854 N 478.904 1.54736 -0.299062 0
M  V30 4855 C 479.852 2.24897 0.593658 0
M  V30 4856 C 480.846 1.25429 1.13859 0
M  V30 4857 O 482.052 1.43286 1.08945 0
M  V30 4858 H 478.427 0.72207 0.210046 0
M  V30 4859 H 480.398 2.98393 -0.0206421 0
M  V30 4860 C 479.147 3.00159 1.75499 0
M  V30 4861 H 478.47 3.76501 1.34489 0
M  V30 4862 H 479.91 3.52535 2.35574 0
M  V30 4863 C 478.369 2.07015 2.65794 0
M  V30 4864 O 478.899 1.63692 3.66835 0
M  V30 4865 N 477.105 1.73012 2.33485 0
M  V30 4866 H 476.652 2.08439 1.51364 0
M  V30 4867 H 476.61 1.10965 2.94167 0
M  V30 4868 N 480.382 0.0267497 1.57577 0
M  V30 4869 C 481.659 -0.690926 1.82991 0
M  V30 4870 C 482.039 -1.90471 0.910164 0
M  V30 4871 O 481.387 -2.28474 -0.0347985 0
M  V30 4872 C 481.597 -1.07139 3.32148 0
M  V30 4873 C 482.945 -1.46402 3.98562 0
M  V30 4874 O 483.969 -1.16443 3.36629 0
M  V30 4875 O 482.828 -2.02214 5.07712 0
M  V30 4876 H 479.922 -0.338747 0.75444 0
M  V30 4877 H 482.468 0.0542506 1.69613 0
M  V30 4878 H 481.24 -0.207394 3.9075 0
M  V30 4879 H 480.863 -1.87481 3.50623 0
M  V30 4880 N 481.861 -1.55662 -0.24637 0
M  V30 4881 C 482.791 -1.93377 -1.30873 0
M  V30 4882 C 483.772 -0.798773 -1.50179 0
M  V30 4883 O 484.957 -1.0591 -1.62778 0
M  V30 4884 C 482.087 -2.22893 -2.66338 0
M  V30 4885 C 481.041 -3.38649 -2.61727 0
M  V30 4886 C 480.367 -3.53708 -4.00992 0
M  V30 4887 C 481.667 -4.74323 -2.18666 0
M  V30 4888 H 483.361 -2.82363 -0.995552 0
M  V30 4889 H 480.907 -1.35854 -0.477464 0
M  V30 4890 H 482.86 -2.47866 -3.40794 0
M  V30 4891 H 481.584 -1.30733 -2.99293 0
M  V30 4892 H 480.243 -3.13685 -1.89729 0
M  V30 4893 H 479.891 -2.58967 -4.31214 0
M  V30 4894 H 479.591 -4.31551 -3.98795 0
M  V30 4895 H 481.115 -3.81003 -4.77147 0
M  V30 4896 H 482.529 -4.98665 -2.82854 0
M  V30 4897 H 480.926 -5.55273 -2.27579 0
M  V30 4898 H 481.996 -4.71349 -1.13834 0
M  V30 4899 N 483.339 0.512053 -1.4905 0
M  V30 4900 C 484.587 1.26436 -1.57665 0
M  V30 4901 C 484.908 1.93255 -0.260293 0
M  V30 4902 O 484.178 1.82206 0.719564 0
M  V30 4903 H 482.758 0.469658 -0.580888 0
M  V30 4904 H 485.42 0.594398 -1.85615 0
M  V30 4905 H 484.516 2.03417 -2.36702 0
M  V30 4906 N 484.817 1.37938 0.762283 0
M  V30 4907 C 485.749 1.30349 1.88525 0
M  V30 4908 C 486.762 0.217402 1.61342 0
M  V30 4909 O 487.951 0.474291 1.72084 0
M  V30 4910 C 485.051 0.994844 3.23969 0
M  V30 4911 C 484.224 2.18829 3.78725 0
M  V30 4912 C 483.283 1.84844 4.92665 0
M  V30 4913 O 482.309 2.57244 5.07754 0
M  V30 4914 N 483.511 0.798201 5.74986 0
M  V30 4915 H 486.276 2.27114 1.95549 0
M  V30 4916 H 483.837 1.31686 0.941825 0
M  V30 4917 H 485.829 0.748168 3.97724 0
M  V30 4918 H 484.399 0.115446 3.12387 0
M  V30 4919 H 483.619 2.59615 2.96637 0
M  V30 4920 H 484.907 2.98497 4.1204 0
M  V30 4921 H 484.305 0.197611 5.65355 0
M  V30 4922 H 482.862 0.611396 6.48926 0
M  V30 4923 N 486.295 -0.989507 1.22664 0
M  V30 4924 C 487.242 -2.08024 0.999733 0
M  V30 4925 C 488.212 -1.65909 -0.0797047 0
M  V30 4926 O 489.397 -1.90669 0.0705715 0
M  V30 4927 C 486.537 -3.40067 0.587234 0
M  V30 4928 C 485.65 -3.95505 1.73781 0
M  V30 4929 C 484.785 -5.15722 1.27297 0
M  V30 4930 C 483.824 -5.63305 2.39488 0
M  V30 4931 N 482.961 -6.74758 1.94026 0
M  V30 4932 H 487.801 -2.26768 1.9334 0
M  V30 4933 H 485.338 -1.11171 0.963297 0
M  V30 4934 H 487.296 -4.15899 0.329227 0
M  V30 4935 H 485.926 -3.21314 -0.309426 0
M  V30 4936 H 484.978 -3.16513 2.11006 0
M  V30 4937 H 486.29 -4.26797 2.58158 0
M  V30 4938 H 485.444 -5.98854 0.972546 0
M  V30 4939 H 484.183 -4.86061 0.399445 0
M  V30 4940 H 483.188 -4.78759 2.70315 0
M  V30 4941 H 484.413 -5.94988 3.27362 0
M  V30 4942 H 482.359 -6.46874 1.09041 0
M  V30 4943 H 482.276 -7.05386 2.71968 0
M  V30 4944 H 483.544 -7.61387 1.67062 0
M  V30 4945 N 487.773 -1.03688 -1.18687 0
M  V30 4946 C 488.703 -0.645407 -2.24403 0
M  V30 4947 C 489.684 0.349511 -1.66471 0
M  V30 4948 O 490.869 0.230453 -1.92828 0
M  V30 4949 C 487.999 -0.00365337 -3.473 0
M  V30 4950 C 486.953 -0.921705 -4.17958 0
M  V30 4951 C 486.279 -0.144629 -5.34504 0
M  V30 4952 C 487.579 -2.23909 -4.71871 0
M  V30 4953 H 489.273 -1.52917 -2.57404 0
M  V30 4954 H 486.819 -0.736711 -1.23728 0
M  V30 4955 H 488.772 0.281908 -4.20456 0
M  V30 4956 H 487.496 0.914963 -3.13522 0
M  V30 4957 H 486.155 -1.19159 -3.46694 0
M  V30 4958 H 485.803 0.776274 -4.96974 0
M  V30 4959 H 485.503 -0.756206 -5.82714 0
M  V30 4960 H 487.027 0.134004 -6.10453 0
M  V30 4961 H 488.441 -2.0145 -5.36741 0
M  V30 4962 H 486.838 -2.8033 -5.30599 0
M  V30 4963 H 487.908 -2.88822 -3.895 0
M  V30 4964 N 489.251 1.34841 -0.815825 0
M  V30 4965 C 490.198 2.29644 -0.230664 0
M  V30 4966 C 491.168 1.53253 0.640533 0
M  V30 4967 O 492.353 1.81653 0.583672 0
M  V30 4968 C 489.493 3.39715 0.607275 0
M  V30 4969 C 488.606 4.31056 -0.28538 0
M  V30 4970 C 487.741 5.28225 0.561446 0
M  V30 4971 C 486.78 6.11204 -0.331035 0
M  V30 4972 N 485.917 7.00483 0.476302 0
M  V30 4973 H 490.757 2.79095 -1.0445 0
M  V30 4974 H 488.294 1.37351 -0.526595 0
M  V30 4975 H 490.252 4.02208 1.10835 0
M  V30 4976 H 488.882 2.91517 1.38629 0
M  V30 4977 H 487.934 3.69487 -0.904621 0
M  V30 4978 H 489.246 4.89239 -0.97193 0
M  V30 4979 H 488.4 5.96135 1.12728 0
M  V30 4980 H 487.139 4.70562 1.28153 0
M  V30 4981 H 486.144 5.42232 -0.909069 0
M  V30 4982 H 487.369 6.70947 -1.04912 0
M  V30 4983 H 485.315 6.45296 1.18019 0
M  V30 4984 H 485.232 7.55847 -0.152008 0
M  V30 4985 H 486.5 7.7273 1.02512 0
M  V30 4986 N 490.729 0.570148 1.46925 0
M  V30 4987 C 492.006 -0.0153259 1.95594 0
M  V30 4988 C 492.386 -1.47232 1.51281 0
M  V30 4989 O 491.734 -2.15574 0.757624 0
M  V30 4990 C 491.944 0.143624 3.48704 0
M  V30 4991 C 493.292 0.00494484 4.246 0
M  V30 4992 O 494.316 0.0718214 3.56128 0
M  V30 4993 O 493.175 -0.141175 5.46318 0
M  V30 4994 H 490.269 -0.0568819 0.825041 0
M  V30 4995 H 492.815 0.637583 1.57267 0
M  V30 4996 H 491.587 1.15699 3.73804 0
M  V30 4997 H 491.21 -0.5463 3.93829 0
M  V30 4998 N 492.207 -1.54576 0.307264 0
M  V30 4999 C 493.455 -1.99867 -0.299574 0
M  V30 5000 C 493.776 -1.19714 -1.53927 0
M  V30 5001 O 493.046 -0.29472 -1.9367 0
M  V30 5002 H 491.626 -0.738299 -0.113683 0
M  V30 5003 H 494.288 -1.9032 0.420042 0
M  V30 5004 H 493.384 -3.06901 -0.567283 0
M  V30 5005 N 493.685 -0.035106 -1.57561 0
M  V30 5006 C 494.615 0.942993 -2.13612 0
M  V30 5007 C 495.596 1.33531 -1.05373 0
M  V30 5008 O 496.781 1.41287 -1.33235 0
M  V30 5009 C 493.911 2.22332 -2.66807 0
M  V30 5010 C 492.865 1.97156 -3.79886 0
M  V30 5011 C 492.191 3.31506 -4.19533 0
M  V30 5012 C 493.491 1.30596 -5.05709 0
M  V30 5013 H 495.185 0.476179 -2.95589 0
M  V30 5014 H 492.731 0.227602 -1.4219 0
M  V30 5015 H 494.684 2.91142 -3.04654 0
M  V30 5016 H 493.408 2.7119 -1.81999 0
M  V30 5017 H 492.067 1.30763 -3.42486 0
M  V30 5018 H 491.715 3.78134 -3.31698 0
M  V30 5019 H 491.415 3.15465 -4.95738 0
M  V30 5020 H 492.939 4.01574 -4.59968 0
M  V30 5021 H 494.353 1.89416 -5.41105 0
M  V30 5022 H 492.75 1.24934 -5.86951 0
M  V30 5023 H 493.82 0.279742 -4.84092 0
M  V30 5024 N 495.163 1.55791 0.238111 0
M  V30 5025 C 496.093 1.94068 1.29846 0
M  V30 5026 C 497.074 0.806726 1.49753 0
M  V30 5027 O 498.259 1.06772 1.62214 0
M  V30 5028 C 495.389 2.24302 2.65153 0
M  V30 5029 C 494.343 3.40032 2.59927 0
M  V30 5030 C 493.669 3.55829 3.99111 0
M  V30 5031 C 494.969 4.75476 2.16148 0
M  V30 5032 H 496.663 2.82887 0.980563 0
M  V30 5033 H 494.209 1.36105 0.470253 0
M  V30 5034 H 496.162 2.4967 3.39475 0
M  V30 5035 H 494.886 1.32318 2.98596 0
M  V30 5036 H 493.545 3.14687 1.88063 0
M  V30 5037 H 493.193 2.6125 4.29834 0
M  V30 5038 H 492.893 4.3366 3.96501 0
M  V30 5039 H 494.417 3.83528 4.7512 0
M  V30 5040 H 495.831 5.00158 2.80205 0
M  V30 5041 H 494.228 5.56472 2.24631 0
M  V30 5042 H 495.298 4.71946 1.11333 0
M  V30 5043 N 496.642 -0.504142 1.49319 0
M  V30 5044 C 497.605 -1.5883 1.65244 0
M  V30 5045 C 498.605 -1.52009 0.524386 0
M  V30 5046 O 499.795 -1.55218 0.79077 0
M  V30 5047 C 496.927 -2.98481 1.64687 0
M  V30 5048 H 498.12 -1.4604 2.61939 0
M  V30 5049 H 495.673 -0.728144 1.38303 0
M  V30 5050 H 496.408 -3.16751 0.695644 0
M  V30 5051 H 496.193 -3.0484 2.46607 0
M  V30 5052 H 497.683 -3.77256 1.79075 0
M  V30 5053 N 498.12 -1.38341 -0.754957 0
M  V30 5054 C 499.369 -1.33791 -1.5094 0
M  V30 5055 C 499.682 0.0699267 -1.95475 0
M  V30 5056 O 500.888 0.237956 -2.70455 0
M  V30 5057 C 499.344 -2.34934 -2.72643 0
M  V30 5058 C 498.952 -3.81332 -2.35138 0
M  V30 5059 C 500.696 -2.39425 -3.50536 0
M  V30 5060 C 498.603 -4.74164 -3.53444 0
M  V30 5061 H 497.533 -0.497314 -0.566741 0
M  V30 5062 H 500.184 -1.63888 -0.825403 0
M  V30 5063 H 498.566 -1.97878 -3.43017 0
M  V30 5064 H 499.74 -4.27319 -1.7244 0
M  V30 5065 H 498.055 -3.79946 -1.70382 0
M  V30 5066 H 500.652 -3.0598 -4.38498 0
M  V30 5067 H 500.995 -1.41278 -3.91594 0
M  V30 5068 H 501.528 -2.75274 -2.87174 0
M  V30 5069 H 498.267 -5.73501 -3.17453 0
M  V30 5070 H 497.787 -4.3287 -4.15191 0
M  V30 5071 H 499.466 -4.92111 -4.20043 0
M  V30 5072 N 499.598 0.982988 -1.23187 0
M  V30 5073 C 500.561 2.05649 -1.01198 0
M  V30 5074 C 501.561 1.6078 0.0252464 0
M  V30 5075 O 502.751 1.72878 -0.214243 0
M  V30 5076 C 499.883 3.36744 -0.530656 0
M  V30 5077 H 501.076 2.2659 -1.96461 0
M  V30 5078 H 498.629 1.15602 -1.05195 0
M  V30 5079 H 499.364 3.21492 0.425873 0
M  V30 5080 H 499.149 3.7065 -1.2791 0
M  V30 5081 H 500.639 4.15705 -0.397366 0
M  V30 5082 N 501.076 1.04316 1.18135 0
M  V30 5083 C 501.986 0.646876 2.25505 0
M  V30 5084 C 503.002 -0.328008 1.7088 0
M  V30 5085 O 504.178 -0.182309 2.00573 0
M  V30 5086 C 501.243 0.0185664 3.46695 0
M  V30 5087 C 500.304 1.04277 4.16443 0
M  V30 5088 C 499.537 0.444352 5.31847 0
M  V30 5089 O 499.76 -0.748735 5.65465 0
M  V30 5090 O 498.694 1.17428 5.90334 0
M  V30 5091 H 502.52 1.54147 2.61672 0
M  V30 5092 H 500.105 0.814188 1.25265 0
M  V30 5093 H 501.987 -0.331068 4.20097 0
M  V30 5094 H 500.662 -0.849814 3.12346 0
M  V30 5095 H 499.569 1.44425 3.45098 0
M  V30 5096 H 500.902 1.882 4.54798 0
M  V30 5097 N 502.554 -1.34406 0.822964 0
M  V30 5098 C 503.501 -2.29519 0.24284 0
M  V30 5099 C 504.471 -1.5359 -0.632397 0
M  V30 5100 O 505.656 -1.8196 -0.57403 0
M  V30 5101 C 502.796 -3.40032 -0.58925 0
M  V30 5102 C 501.909 -4.30899 0.308236 0
M  V30 5103 C 501.044 -5.28515 -0.533425 0
M  V30 5104 C 500.083 -6.1102 0.363444 0
M  V30 5105 N 499.22 -7.00725 -0.439147 0
M  V30 5106 H 504.06 -2.78537 1.05929 0
M  V30 5107 H 501.597 -1.3707 0.533872 0
M  V30 5108 H 503.555 -4.0279 -1.087 0
M  V30 5109 H 502.185 -2.92248 -1.37081 0
M  V30 5110 H 501.237 -3.69002 0.924203 0
M  V30 5111 H 502.549 -4.88717 0.997862 0
M  V30 5112 H 501.703 -5.96725 -1.09565 0
M  V30 5113 H 500.442 -4.71235 -1.25656 0
M  V30 5114 H 499.447 -5.41743 0.937812 0
M  V30 5115 H 500.672 -6.70381 1.08469 0
M  V30 5116 H 498.618 -6.45913 -1.14595 0
M  V30 5117 H 498.535 -7.55756 0.19209 0
M  V30 5118 H 499.803 -7.73263 -0.984124 0
M  V30 5119 N 504.032 -0.577932 -1.46621 0
M  V30 5120 C 504.982 0.178869 -2.27297 0
M  V30 5121 C 505.966 0.866279 -1.35589 0
M  V30 5122 O 507.158 0.761163 -1.59798 0
M  V30 5123 C 504.287 1.19499 -3.2183 0
M  V30 5124 C 503.373 0.50994 -4.21023 0
M  V30 5125 N 503.764 -0.43177 -5.03954 0
M  V30 5126 C 502.062 0.761287 -4.39455 0
M  V30 5127 C 502.763 -0.831693 -5.75724 0
M  V30 5128 N 501.739 -0.181897 -5.43296 0
M  V30 5129 H 505.541 -0.544859 -2.88805 0
M  V30 5130 H 503.055 -0.399373 -1.57413 0
M  V30 5131 H 505.052 1.75131 -3.78332 0
M  V30 5132 H 503.712 1.91959 -2.61881 0
M  V30 5133 H 504.723 -0.807045 -5.11573 0
M  V30 5134 H 501.4 1.47282 -3.90659 0
M  V30 5135 H 502.79 -1.6067 -6.52407 0
M  V30 5136 N 505.51 1.54411 -0.315457 0
M  V30 5137 C 506.921 1.85885 0.174265 0
M  V30 5138 C 507.272 1.23723 1.52273 0
M  V30 5139 O 506.397 0.540246 2.09548 0
M  V30 5140 C 506.992 3.37257 0.322981 0
M  V30 5141 C 505.551 3.68711 0.756922 0
M  V30 5142 C 504.698 2.77013 -0.126195 0
M  V30 5143 H 507.649 1.49374 -0.536007 0
M  V30 5144 H 507.67 3.62539 1.15522 0
M  V30 5145 H 507.182 3.82471 -0.658602 0
M  V30 5146 H 505.283 3.29024 1.74854 0
M  V30 5147 H 505.396 4.75741 0.566291 0
M  V30 5148 H 503.76 2.51588 0.39692 0
M  V30 5149 H 504.543 3.25051 -1.1044 0
M  V30 5150 N 506.988 0.0434614 1.5754 0
M  V30 5151 C 507.898 -0.94893 2.14552 0
M  V30 5152 C 508.914 -1.34707 1.10136 0
M  V30 5153 O 510.09 -1.42557 1.42266 0
M  V30 5154 C 507.155 -2.208 2.67298 0
M  V30 5155 C 506.216 -1.86893 3.86484 0
M  V30 5156 C 505.449 -3.06797 4.36705 0
M  V30 5157 O 505.672 -4.19921 3.86034 0
M  V30 5158 O 504.606 -2.8826 5.28384 0
M  V30 5159 H 508.432 -0.494099 2.99654 0
M  V30 5160 H 506.017 -0.177989 1.48336 0
M  V30 5161 H 507.899 -2.94686 3.01228 0
M  V30 5162 H 506.574 -2.65436 1.85272 0
M  V30 5163 H 505.481 -1.10347 3.57455 0
M  V30 5164 H 506.814 -1.47062 4.69716 0
M  V30 5165 N 508.466 -1.55915 -0.229846 0
M  V30 5166 C 509.715 -1.77742 -0.953455 0
M  V30 5167 C 510.028 -0.610524 -1.85828 0
M  V30 5168 O 511.234 -0.712219 -2.61992 0
M  V30 5169 C 509.69 -3.14738 -1.74551 0
M  V30 5170 C 509.298 -4.39126 -0.887242 0
M  V30 5171 C 511.042 -3.45895 -2.46084 0
M  V30 5172 C 508.949 -5.67149 -1.67617 0
M  V30 5173 H 507.879 -0.662648 -0.359741 0
M  V30 5174 H 510.53 -1.82322 -0.207576 0
M  V30 5175 H 508.912 -3.04311 -2.53399 0
M  V30 5176 H 510.086 -4.60588 -0.139892 0
M  V30 5177 H 508.401 -4.15427 -0.284443 0
M  V30 5178 H 510.998 -4.38767 -3.05594 0
M  V30 5179 H 511.341 -2.68007 -3.18556 0
M  V30 5180 H 511.874 -3.57614 -1.74233 0
M  V30 5181 H 508.613 -6.47906 -0.994881 0
M  V30 5182 H 508.133 -5.49763 -2.39836 0
M  V30 5183 H 509.812 -6.07025 -2.23898 0
M  V30 5184 N 509.944 0.496216 -1.49584 0
M  V30 5185 C 511.192 1.24756 -1.58998 0
M  V30 5186 C 511.513 1.92968 -0.280775 0
M  V30 5187 O 510.783 1.82959 0.700198 0
M  V30 5188 H 509.363 0.463471 -0.585836 0
M  V30 5189 H 512.025 0.574678 -1.86235 0
M  V30 5190 H 511.121 2.00895 -2.38847 0
M  V30 5191 N 511.423 1.38739 0.74761 0
M  V30 5192 C 512.7 1.25791 1.49786 0
M  V30 5193 C 513.08 -0.138075 2.10648 0
M  V30 5194 O 512.428 -1.14815 1.9756 0
M  V30 5195 C 512.638 2.37265 2.55942 0
M  V30 5196 C 513.986 2.75978 3.22679 0
M  V30 5197 O 515.01 2.36621 2.6625 0
M  V30 5198 O 513.869 3.43867 4.24756 0
M  V30 5199 H 510.963 0.492251 0.664543 0
M  V30 5200 H 513.509 1.50582 0.782511 0
M  V30 5201 H 512.281 3.30644 2.0926 0
M  V30 5202 H 511.904 2.14071 3.35051 0
M  V30 5203 N 512.901 -0.976442 1.23707 0
M  V30 5204 C 514.147 -1.72081 1.07312 0
M  V30 5205 C 514.48 -1.90275 -0.388476 0
M  V30 5206 O 513.755 -1.4579 -1.28746 0
M  V30 5207 C 514.038 -3.11675 1.80363 0
M  V30 5208 C 513.891 -3.01027 3.3422 0
M  V30 5209 C 515.21 -4.1117 1.5693 0
M  V30 5210 H 512.329 -0.624583 0.391236 0
M  V30 5211 H 514.971 -1.13649 1.52263 0
M  V30 5212 H 513.121 -3.61559 1.42153 0
M  V30 5213 H 514.793 -2.58637 3.81975 0
M  V30 5214 H 513.036 -2.3744 3.63049 0
M  V30 5215 H 513.707 -3.9988 3.80525 0
M  V30 5216 H 516.183 -3.7011 1.90151 0
M  V30 5217 H 515.059 -5.06928 2.10513 0
M  V30 5218 H 515.32 -4.392 0.505548 0
M  V30 5219 N 514.379 -1.04941 -1.1758 0
M  V30 5220 C 515.795 -0.770282 -1.39781 0
M  V30 5221 C 515.995 0.636417 -1.91186 0
M  V30 5222 O 515.051 1.39923 -2.10185 0
M  V30 5223 C 516.364 -1.82376 -2.3908 0
M  V30 5224 C 517.912 -1.84569 -2.52791 0
M  V30 5225 C 518.387 -2.88933 -3.55361 0
M  V30 5226 N 519.878 -2.8788 -3.62877 0
M  V30 5227 C 520.613 -3.65282 -4.41992 0
M  V30 5228 N 520.109 -4.52461 -5.24643 0
M  V30 5229 N 521.902 -3.53732 -4.36841 0
M  V30 5230 H 514.053 -1.95705 -0.825438 0
M  V30 5231 H 516.316 -0.847284 -0.425222 0
M  V30 5232 H 516.022 -2.83323 -2.08376 0
M  V30 5233 H 515.896 -1.66327 -3.38549 0
M  V30 5234 H 518.283 -0.842879 -2.82807 0
M  V30 5235 H 518.364 -2.04696 -1.53406 0
M  V30 5236 H 518.008 -3.89398 -3.26085 0
M  V30 5237 H 517.938 -2.66059 -4.54445 0
M  V30 5238 H 520.429 -2.24666 -3.03864 0
M  V30 5239 H 520.742 -5.08211 -5.82187 0
M  V30 5240 H 519.087 -4.56524 -5.24033 0
M  V30 5241 H 522.278 -2.85021 -3.71323 0
M  V30 5242 H 522.451 -4.14302 -4.98255 0
M  V30 5243 N 515.857 1.33968 -0.830081 0
M  V30 5244 C 517.105 1.97672 -0.420734 0
M  V30 5245 C 517.426 1.66111 1.02138 0
M  V30 5246 O 516.696 0.955503 1.71017 0
M  V30 5247 H 515.276 0.73125 -0.152587 0
M  V30 5248 H 517.938 1.63483 -1.0611 0
M  V30 5249 H 517.034 3.07294 -0.545588 0
M  V30 5250 N 517.335 0.585699 1.46312 0
M  V30 5251 C 518.265 -0.133556 2.33118 0
M  V30 5252 C 519.246 -0.880707 1.45525 0
M  V30 5253 O 520.431 -0.855579 1.74337 0
M  V30 5254 C 517.561 -1.14585 3.27853 0
M  V30 5255 C 516.515 -0.513341 4.2491 0
M  V30 5256 C 515.841 -1.63231 5.09175 0
M  V30 5257 C 517.141 0.551413 5.19381 0
M  V30 5258 H 518.835 0.59121 2.93505 0
M  V30 5259 H 516.381 0.285761 1.41136 0
M  V30 5260 H 518.334 -1.65741 3.87438 0
M  V30 5261 H 517.058 -1.90093 2.65579 0
M  V30 5262 H 515.717 -0.0228349 3.66593 0
M  V30 5263 H 515.365 -2.37713 4.43285 0
M  V30 5264 H 515.065 -1.21473 5.74907 0
M  V30 5265 H 516.589 -2.14658 5.71624 0
M  V30 5266 H 518.003 0.124804 5.73164 0
M  V30 5267 H 516.4 0.889486 5.93471 0
M  V30 5268 H 517.47 1.43655 4.63132 0
M  V30 5269 N 518.813 -1.54241 0.323641 0
M  V30 5270 C 520.061 -2.00174 -0.278359 0
M  V30 5271 C 520.382 -1.2134 -1.52648 0
M  V30 5272 O 519.652 -0.315244 -1.93347 0
M  V30 5273 H 518.232 -0.739463 -0.105845 0
M  V30 5274 H 520.894 -1.89864 0.440204 0
M  V30 5275 H 519.99 -3.07486 -0.5347 0
M  V30 5276 N 520.291 -0.0518155 -1.57515 0
M  V30 5277 C 521.254 0.907547 -2.10467 0
M  V30 5278 C 522.254 1.23947 -1.02439 0
M  V30 5279 O 523.444 1.17604 -1.2851 0
M  V30 5280 C 520.576 2.21723 -2.58944 0
M  V30 5281 H 521.769 0.44851 -2.96527 0
M  V30 5282 H 519.322 0.196598 -1.55059 0
M  V30 5283 H 520.057 2.72206 -1.76279 0
M  V30 5284 H 519.842 1.98935 -3.37886 0
M  V30 5285 H 521.332 2.90441 -3.00056 0
M  V30 5286 N 521.769 1.56035 0.221574 0
M  V30 5287 C 522.702 1.87427 1.30178 0
M  V30 5288 C 523.68 0.731658 1.45209 0
M  V30 5289 O 524.864 0.980016 1.61022 0
M  V30 5290 C 521.991 2.08127 2.67209 0
M  V30 5291 C 521.037 3.30813 2.69194 0
M  V30 5292 S 521.87 4.86738 2.23263 0
M  V30 5293 C 523.026 5.10474 3.62171 0
M  V30 5294 H 523.259 2.78756 1.03355 0
M  V30 5295 H 520.792 1.48469 0.423813 0
M  V30 5296 H 522.75 2.20736 3.46101 0
M  V30 5297 H 521.411 1.17595 2.91256 0
M  V30 5298 H 520.604 3.42341 3.6989 0
M  V30 5299 H 520.206 3.1706 1.98366 0
M  V30 5300 H 522.498 4.9937 4.5786 0
M  V30 5301 H 523.441 6.12359 3.55558 0
M  V30 5302 H 523.849 4.38208 3.55857 0
M  V30 5303 N 523.247 -0.488276 1.49845 0
M  V30 5304 C 524.496 -1.23826 1.59217 0
M  V30 5305 C 524.809 -1.93439 0.289966 0
M  V30 5306 O 526.015 -2.70229 0.262382 0
M  V30 5307 C 524.471 -2.24902 2.80976 0
M  V30 5308 C 524.079 -1.6117 4.18005 0
M  V30 5309 C 525.823 -3.00648 2.99685 0
M  V30 5310 C 523.73 -2.60431 5.3097 0
M  V30 5311 H 522.66 -0.465858 0.592868 0
M  V30 5312 H 525.311 -0.510645 1.76252 0
M  V30 5313 H 523.693 -3.0088 2.57463 0
M  V30 5314 H 524.867 -0.910968 4.51706 0
M  V30 5315 H 523.182 -0.97767 4.0476 0
M  V30 5316 H 525.779 -3.74903 3.81251 0
M  V30 5317 H 526.122 -3.5902 2.10738 0
M  V30 5318 H 526.655 -2.31784 3.23297 0
M  V30 5319 H 523.394 -2.06823 6.22017 0
M  V30 5320 H 522.914 -3.28707 5.01709 0
M  V30 5321 H 524.593 -3.22606 5.60834 0
M  V30 5322 N 524.725 -1.39134 -0.740242 0
M  V30 5323 C 525.688 -1.37217 -1.83587 0
M  V30 5324 C 526.688 -0.270221 -1.58513 0
M  V30 5325 O 527.878 -0.527843 -1.6601 0
M  V30 5326 C 525.01 -1.13959 -3.21288 0
M  V30 5327 H 526.203 -2.34705 -1.86691 0
M  V30 5328 H 523.756 -1.24622 -0.94335 0
M  V30 5329 H 524.491 -0.17131 -3.23847 0
M  V30 5330 H 524.276 -1.93754 -3.40884 0
M  V30 5331 H 525.766 -1.15346 -4.01354 0
M  V30 5332 N 526.204 0.969867 -1.24223 0
M  V30 5333 C 527.453 1.70687 -1.07466 0
M  V30 5334 C 527.766 1.91736 0.386861 0
M  V30 5335 O 528.972 2.62986 0.674581 0
M  V30 5336 C 527.428 3.07217 -1.87472 0
M  V30 5337 C 527.036 2.94018 -3.3802 0
M  V30 5338 C 528.78 3.84804 -1.79237 0
M  V30 5339 C 526.687 4.25844 -4.10379 0
M  V30 5340 H 525.617 0.640067 -0.398536 0
M  V30 5341 H 528.268 1.08092 -1.48285 0
M  V30 5342 H 526.65 3.70628 -1.39466 0
M  V30 5343 H 527.824 2.39632 -3.9359 0
M  V30 5344 H 526.139 2.29898 -3.47183 0
M  V30 5345 H 528.736 4.82417 -2.30603 0
M  V30 5346 H 529.079 4.09356 -0.757197 0
M  V30 5347 H 529.612 3.28115 -2.24912 0
M  V30 5348 H 526.351 4.06486 -5.14246 0
M  V30 5349 H 525.871 4.80054 -3.59594 0
M  V30 5350 H 527.55 4.94475 -4.17257 0
M  V30 5351 N 527.682 1.05563 1.17022 0
M  V30 5352 C 528.592 0.670758 2.24807 0
M  V30 5353 C 529.608 -0.309865 1.71219 0
M  V30 5354 O 530.784 -0.161025 2.00755 0
M  V30 5355 C 527.849 0.055337 3.46656 0
M  V30 5356 C 526.91 1.08688 4.15314 0
M  V30 5357 C 526.143 0.500736 5.31346 0
M  V30 5358 O 526.366 -0.688718 5.66227 0
M  V30 5359 O 525.3 1.23683 5.89055 0
M  V30 5360 H 529.126 1.56914 2.60023 0
M  V30 5361 H 526.711 0.827428 1.24395 0
M  V30 5362 H 528.593 -0.286492 4.20425 0
M  V30 5363 H 527.268 -0.816638 3.13229 0
M  V30 5364 H 526.175 1.48077 3.43546 0
M  V30 5365 H 527.508 1.93014 4.52777 0
M  V30 5366 N 529.16 -1.33526 0.837174 0
M  V30 5367 C 530.09 -2.31764 0.284206 0
M  V30 5368 C 531.071 -1.58896 -0.607142 0
M  V30 5369 O 532.256 -1.86798 -0.531047 0
M  V30 5370 C 529.386 -3.43029 -0.542962 0
M  V30 5371 C 528.34 -4.27255 0.252451 0
M  V30 5372 C 527.666 -5.3012 -0.69836 0
M  V30 5373 C 528.966 -5.01229 1.46858 0
M  V30 5374 H 530.66 -2.78262 1.10502 0
M  V30 5375 H 528.206 -1.3378 0.532812 0
M  V30 5376 H 530.159 -4.1078 -0.940096 0
M  V30 5377 H 528.883 -2.95216 -1.39697 0
M  V30 5378 H 527.542 -3.61127 0.631124 0
M  V30 5379 H 527.19 -4.78564 -1.54872 0
M  V30 5380 H 526.89 -5.87353 -0.170274 0
M  V30 5381 H 528.414 -6.00737 -1.09305 0
M  V30 5382 H 529.828 -5.61756 1.14469 0
M  V30 5383 H 528.225 -5.68104 1.93333 0
M  V30 5384 H 529.295 -4.301 2.23924 0
M  V30 5385 N 530.638 -0.59345 -1.46 0
M  V30 5386 C 531.885 -0.0831523 -2.02329 0
M  V30 5387 C 532.213 1.28093 -1.46364 0
M  V30 5388 O 531.468 1.85526 -0.622793 0
M  V30 5389 C 531.767 0.021178 -3.57394 0
M  V30 5390 C 531.433 -1.27671 -4.32448 0
M  V30 5391 C 530.095 -1.63227 -4.5267 0
M  V30 5392 C 532.447 -2.13511 -4.7546 0
M  V30 5393 C 529.775 -2.84401 -5.1316 0
M  V30 5394 C 532.127 -3.33922 -5.37289 0
M  V30 5395 C 530.791 -3.69747 -5.55737 0
M  V30 5396 H 530.061 -0.0304276 -0.740375 0
M  V30 5397 H 532.708 -0.772239 -1.75239 0
M  V30 5398 H 531.013 0.793454 -3.83682 0
M  V30 5399 H 532.71 0.431942 -3.98667 0
M  V30 5400 H 529.3 -0.989937 -4.17011 0
M  V30 5401 H 533.484 -1.87344 -4.59582 0
M  V30 5402 H 528.74 -3.12282 -5.25633 0
M  V30 5403 H 532.914 -4.00698 -5.69574 0
M  V30 5404 H 530.541 -4.6373 -6.02377 0
M  V30 5405 N 532.116 1.54067 -0.331816 0
M  V30 5406 C 533.026 2.28322 0.539104 0
M  V30 5407 C 534.042 1.32985 1.1221 0
M  V30 5408 O 535.218 1.6601 1.1403 0
M  V30 5409 C 532.283 3.03277 1.68 0
M  V30 5410 C 531.344 4.14216 1.12798 0
M  V30 5411 C 530.577 4.85588 2.2145 0
M  V30 5412 O 530.8 4.56536 3.41952 0
M  V30 5413 O 529.734 5.72309 1.86404 0
M  V30 5414 H 533.56 3.03632 -0.0641692 0
M  V30 5415 H 531.145 1.49083 -0.0972365 0
M  V30 5416 H 533.027 3.50189 2.34405 0
M  V30 5417 H 531.702 2.30834 2.2693 0
M  V30 5418 H 530.609 3.71635 0.428782 0
M  V30 5419 H 531.942 4.88727 0.583698 0
M  V30 5420 N 533.594 0.0601682 1.57485 0
M  V30 5421 C 534.871 -0.651956 1.84415 0
M  V30 5422 C 535.251 -1.88498 0.950361 0
M  V30 5423 O 534.599 -2.28496 0.0136719 0
M  V30 5424 C 534.809 -1.00069 3.34346 0
M  V30 5425 C 536.157 -1.37915 4.01578 0
M  V30 5426 O 537.181 -1.09277 3.39024 0
M  V30 5427 O 536.04 -1.91399 5.11887 0
M  V30 5428 H 533.134 -0.322668 0.761455 0
M  V30 5429 H 535.68 0.0902159 1.6946 0
M  V30 5430 H 534.452 -0.124463 3.91102 0
M  V30 5431 H 534.075 -1.80001 3.54521 0
M  V30 5432 N 535.072 -1.5615 -0.213296 0
M  V30 5433 C 536.32 -1.79191 -0.934612 0
M  V30 5434 C 536.641 -0.630112 -1.84539 0
M  V30 5435 O 535.911 0.35257 -1.92701 0
M  V30 5436 H 534.491 -0.660937 -0.348097 0
M  V30 5437 H 537.153 -1.93618 -0.22317 0
M  V30 5438 H 536.249 -2.71656 -1.53654 0
M  V30 5439 N 536.55 0.480323 -1.50102 0
M  V30 5440 C 537.827 1.24159 -1.51142 0
M  V30 5441 C 538.207 2.09605 -0.250818 0
M  V30 5442 O 537.555 2.15274 0.766118 0
M  V30 5443 C 537.765 2.08057 -2.80202 0
M  V30 5444 C 539.113 2.66556 -3.30504 0
M  V30 5445 O 540.137 2.18308 -2.81461 0
M  V30 5446 O 538.996 3.54442 -4.15973 0
M  V30 5447 H 536.09 0.562928 -0.605839 0
M  V30 5448 H 538.636 0.492899 -1.62384 0
M  V30 5449 H 537.408 1.45032 -3.6343 0
M  V30 5450 H 537.031 2.90079 -2.71919 0
M  V30 5451 N 538.028 1.39524 0.732853 0
M  V30 5452 C 538.978 1.34905 1.83806 0
M  V30 5453 C 539.962 0.229546 1.59254 0
M  V30 5454 O 541.154 0.467255 1.70721 0
M  V30 5455 C 538.283 1.19699 3.21756 0
M  V30 5456 C 537.369 2.36359 3.5213 0
M  V30 5457 N 537.76 3.61834 3.53426 0
M  V30 5458 C 536.058 2.29363 3.82503 0
M  V30 5459 C 536.759 4.38992 3.81655 0
M  V30 5460 N 535.735 3.68606 3.99538 0
M  V30 5461 H 539.537 2.29882 1.83116 0
M  V30 5462 H 537.051 1.33051 0.931194 0
M  V30 5463 H 539.048 1.14472 4.00876 0
M  V30 5464 H 537.708 0.256739 3.23683 0
M  V30 5465 H 538.719 3.95228 3.34686 0
M  V30 5466 H 535.396 1.43612 3.92023 0
M  V30 5467 H 536.786 5.47763 3.89108 0
M  V30 5468 N 539.506 -0.963266 1.24736 0
M  V30 5469 C 540.454 -2.07985 1.04139 0
M  V30 5470 C 541.448 -1.69381 -0.0250556 0
M  V30 5471 O 542.654 -1.79531 0.129863 0
M  V30 5472 H 539.029 -0.680627 0.319768 0
M  V30 5473 H 541 -2.22517 1.98818 0
M  V30 5474 C 539.749 -3.4123 0.667615 0
M  V30 5475 H 539.072 -3.71397 1.48 0
M  V30 5476 H 540.512 -4.20244 0.563136 0
M  V30 5477 C 538.971 -3.3104 -0.625647 0
M  V30 5478 O 539.501 -3.65334 -1.67016 0
M  V30 5479 N 537.707 -2.84168 -0.608033 0
M  V30 5480 H 537.254 -2.56458 0.242323 0
M  V30 5481 H 537.212 -2.77732 -1.47352 0
M  V30 5482 N 540.985 -1.06182 -1.16461 0
M  V30 5483 C 541.932 -0.671613 -2.20812 0
M  V30 5484 C 542.902 0.331186 -1.62765 0
M  V30 5485 O 544.087 0.22033 -1.89524 0
M  V30 5486 C 541.227 -0.063029 -3.45042 0
M  V30 5487 C 540.34 -1.11587 -4.1734 0
M  V30 5488 C 539.475 -0.473546 -5.29085 0
M  V30 5489 C 538.514 -1.51 -5.93182 0
M  V30 5490 N 537.651 -0.891118 -6.96422 0
M  V30 5491 H 542.491 -1.56589 -2.53542 0
M  V30 5492 H 540.028 -0.782951 -1.24532 0
M  V30 5493 H 541.986 0.307344 -4.16066 0
M  V30 5494 H 540.616 0.794663 -3.12866 0
M  V30 5495 H 539.668 -1.60396 -3.44931 0
M  V30 5496 H 540.98 -1.90221 -4.61104 0
M  V30 5497 H 540.134 -0.0501432 -6.06679 0
M  V30 5498 H 538.873 0.344687 -4.8648 0
M  V30 5499 H 537.878 -1.94331 -5.14311 0
M  V30 5500 H 539.103 -2.33031 -6.37866 0
M  V30 5501 H 537.049 -0.0935753 -6.55933 0
M  V30 5502 H 536.966 -1.61486 -7.38551 0
M  V30 5503 H 538.234 -0.492822 -7.77941 0
M  V30 5504 N 542.463 1.3308 -0.844243 0
M  V30 5505 C 543.874 1.7992 -0.498566 0
M  V30 5506 C 544.225 1.69808 0.982834 0
M  V30 5507 O 543.35 1.25051 1.7661 0
M  V30 5508 C 543.945 3.26677 -0.898204 0
M  V30 5509 C 542.504 3.71513 -0.604583 0
M  V30 5510 C 541.651 2.54393 -1.10362 0
M  V30 5511 H 544.602 1.20526 -1.03244 0
M  V30 5512 H 544.623 3.79918 -0.21039 0
M  V30 5513 H 544.135 3.34004 -1.97643 0
M  V30 5514 H 542.236 3.69708 0.46335 0
M  V30 5515 H 542.349 4.64755 -1.16358 0
M  V30 5516 H 540.713 2.49246 -0.524273 0
M  V30 5517 H 541.496 2.6448 -2.18873 0
M  V30 5518 N 543.941 0.601185 1.45683 0
M  V30 5519 C 545.218 0.0261659 1.95582 0
M  V30 5520 C 545.598 -1.4399 1.5437 0
M  V30 5521 O 544.946 -2.13919 0.80318 0
M  V30 5522 C 545.156 0.217557 3.48321 0
M  V30 5523 C 546.504 0.0950076 4.24494 0
M  V30 5524 O 547.528 0.147345 3.55895 0
M  V30 5525 O 546.387 -0.025261 5.46494 0
M  V30 5526 H 543.481 -0.0393688 0.826062 0
M  V30 5527 H 546.027 0.670798 1.55879 0
M  V30 5528 H 544.799 1.23601 3.71266 0
M  V30 5529 H 544.422 -0.46264 3.94899 0
M  V30 5530 N 545.419 -1.53889 0.339982 0
M  V30 5531 C 546.382 -2.23547 -0.50592 0
M  V30 5532 C 547.382 -1.23445 -1.03044 0
M  V30 5533 O 548.572 -1.47909 -0.920253 0
M  V30 5534 C 545.704 -2.95234 -1.7044 0
M  V30 5535 H 546.897 -2.99722 0.103247 0
M  V30 5536 H 544.45 -1.56033 0.0912804 0
M  V30 5537 H 545.185 -2.23236 -2.35236 0
M  V30 5538 H 544.97 -3.68654 -1.33553 0
M  V30 5539 H 546.46 -3.48258 -2.30447 0
M  V30 5540 N 546.897 -0.0685191 -1.57451 0
M  V30 5541 C 547.844 0.899861 -2.12535 0
M  V30 5542 C 548.814 1.29749 -1.03703 0
M  V30 5543 O 549.999 1.38392 -1.31348 0
M  V30 5544 C 547.139 2.16328 -2.6888 0
M  V30 5545 C 546.252 1.81857 -3.91857 0
M  V30 5546 C 545.387 3.02786 -4.36457 0
M  V30 5547 C 544.426 2.64317 -5.5209 0
M  V30 5548 N 543.563 3.77994 -5.91663 0
M  V30 5549 H 548.403 0.423243 -2.94979 0
M  V30 5550 H 545.94 0.197268 -1.45771 0
M  V30 5551 H 547.898 2.90281 -2.99655 0
M  V30 5552 H 546.528 2.61536 -1.89206 0
M  V30 5553 H 545.58 0.979808 -3.67565 0
M  V30 5554 H 546.892 1.49553 -4.75852 0
M  V30 5555 H 546.046 3.85021 -4.68875 0
M  V30 5556 H 544.785 3.38281 -3.51308 0
M  V30 5557 H 543.79 1.80503 -5.19325 0
M  V30 5558 H 545.015 2.29995 -6.38967 0
M  V30 5559 H 542.961 4.13258 -5.09464 0
M  V30 5560 H 542.878 3.49447 -6.7039 0
M  V30 5561 H 544.146 4.60818 -6.28703 0
M  V30 5562 N 548.375 1.56261 0.205012 0
M  V30 5563 C 549.305 1.96779 1.257 0
M  V30 5564 C 550.286 0.838309 1.48008 0
M  V30 5565 O 551.471 1.10189 1.59913 0
M  V30 5566 C 548.601 2.29876 2.60335 0
M  V30 5567 C 547.555 3.45469 2.52656 0
M  V30 5568 C 546.881 3.64215 3.91473 0
M  V30 5569 C 548.181 4.79954 2.06014 0
M  V30 5570 H 549.875 2.84904 0.920338 0
M  V30 5571 H 547.421 1.37072 0.441277 0
M  V30 5572 H 549.374 2.56814 3.34102 0
M  V30 5573 H 548.098 1.38622 2.95722 0
M  V30 5574 H 546.757 3.18605 1.81345 0
M  V30 5575 H 546.405 2.70309 4.24196 0
M  V30 5576 H 546.105 4.41973 3.87213 0
M  V30 5577 H 547.629 3.93519 4.66878 0
M  V30 5578 H 549.043 5.05989 2.69533 0
M  V30 5579 H 547.44 5.61111 2.12777 0
M  V30 5580 H 548.51 4.74201 1.01297 0
M  V30 5581 N 549.853 -0.472356 1.50355 0
M  V30 5582 C 551.081 -1.24784 1.65035 0
M  V30 5583 C 551.496 -1.85837 0.333176 0
M  V30 5584 O 550.853 -1.69168 -0.68472 0
M  V30 5585 C 550.904 -2.35747 2.74054 0
M  V30 5586 O 550.625 -1.77197 4.00665 0
M  V30 5587 C 552.126 -3.26645 2.99696 0
M  V30 5588 H 549.346 -0.377432 0.554785 0
M  V30 5589 H 551.89 -0.563962 1.9657 0
M  V30 5590 H 550.045 -2.99912 2.45217 0
M  V30 5591 H 550.459 -2.5026 4.60945 0
M  V30 5592 H 551.933 -4.00718 3.79644 0
M  V30 5593 H 552.41 -3.8535 2.10718 0
M  V30 5594 H 553.016 -2.68218 3.3006 0
M  V30 5595 N 551.331 -1.39911 -0.725443 0
M  V30 5596 C 552.294 -1.39156 -1.82121 0
M  V30 5597 C 553.294 -0.287018 -1.58218 0
M  V30 5598 O 554.484 -0.545421 -1.65441 0
M  V30 5599 C 551.616 -1.1736 -3.20062 0
M  V30 5600 H 552.809 -2.36672 -1.84191 0
M  V30 5601 H 550.362 -1.25615 -0.930079 0
M  V30 5602 H 551.097 -0.205648 -3.23647 0
M  V30 5603 H 550.882 -1.97358 -3.3881 0
M  V30 5604 H 552.372 -1.19596 -4.00108 0
M  V30 5605 N 552.809 0.956637 -1.25245 0
M  V30 5606 C 553.719 2.0868 -1.0719 0
M  V30 5607 C 554.735 1.73997 -0.00959074 0
M  V30 5608 O 555.911 2.00301 -0.210104 0
M  V30 5609 C 552.976 3.39754 -0.690526 0
M  V30 5610 C 552.037 3.88316 -1.83055 0
M  V30 5611 C 551.27 5.13134 -1.46728 0
M  V30 5612 O 551.493 5.6925 -0.362029 0
M  V30 5613 O 550.427 5.56356 -2.29677 0
M  V30 5614 H 554.253 2.26813 -2.01965 0
M  V30 5615 H 551.838 1.07098 -1.04165 0
M  V30 5616 H 553.72 4.18543 -0.489871 0
M  V30 5617 H 552.395 3.22896 0.227981 0
M  V30 5618 H 551.302 3.1054 -2.08604 0
M  V30 5619 H 552.635 4.09669 -2.72822 0
M  V30 5620 N 554.287 1.06798 1.15896 0
M  V30 5621 C 555.536 0.782796 1.8589 0
M  V30 5622 C 555.849 -0.693498 1.82893 0
M  V30 5623 O 557.055 -1.09325 2.48516 0
M  V30 5624 C 555.511 1.3502 3.33613 0
M  V30 5625 C 555.119 2.8571 3.45071 0
M  V30 5626 C 556.863 1.14278 4.08829 0
M  V30 5627 C 554.77 3.35669 4.86909 0
M  V30 5628 H 553.7 0.289149 0.696354 0
M  V30 5629 H 556.351 1.28734 1.30766 0
M  V30 5630 H 554.733 0.773407 3.88374 0
M  V30 5631 H 555.907 3.49385 3.00445 0
M  V30 5632 H 554.222 3.05178 2.83294 0
M  V30 5633 H 556.819 1.49087 5.13495 0
M  V30 5634 H 557.162 0.0814575 4.1622 0
M  V30 5635 H 557.695 1.68563 3.60321 0
M  V30 5636 H 554.434 4.41302 4.84698 0
M  V30 5637 H 553.954 2.76745 5.32139 0
M  V30 5638 H 555.633 3.31296 5.55745 0
M  V30 5639 N 555.766 -1.3263 0.851289 0
M  V30 5640 C 557.012 -1.9766 0.453694 0
M  V30 5641 C 557.345 -1.67225 -0.987396 0
M  V30 5642 O 556.62 -0.958693 -1.69232 0
M  V30 5643 C 556.903 -3.5344 0.68936 0
M  V30 5644 C 556.756 -3.93517 2.17862 0
M  V30 5645 C 558.075 -4.39866 0.143555 0
M  V30 5646 H 555.194 -0.717989 0.166314 0
M  V30 5647 H 557.836 -1.57068 1.06909 0
M  V30 5648 H 555.986 -3.88147 0.165546 0
M  V30 5649 H 557.658 -3.69006 2.76826 0
M  V30 5650 H 555.901 -3.42798 2.65841 0
M  V30 5651 H 556.572 -5.02065 2.29422 0
M  V30 5652 H 559.048 -4.11875 0.591451 0
M  V30 5653 H 557.924 -5.47858 0.338043 0
M  V30 5654 H 558.185 -4.31696 -0.953466 0
M  V30 5655 N 557.244 -0.608902 -1.45362 0
M  V30 5656 C 558.207 0.0992563 -2.28985 0
M  V30 5657 C 559.207 0.793841 -1.39838 0
M  V30 5658 O 560.397 0.641804 -1.61946 0
M  V30 5659 C 557.529 1.15073 -3.20891 0
M  V30 5660 H 558.722 -0.635964 -2.93079 0
M  V30 5661 H 556.275 -0.368007 -1.51906 0
M  V30 5662 H 557.01 1.91667 -2.616 0
M  V30 5663 H 556.795 0.656867 -3.86559 0
M  V30 5664 H 558.285 1.64665 -3.83765 0
M  V30 5665 N 558.722 1.53707 -0.348139 0
M  V30 5666 C 560.138 1.596 0.00361134 0
M  V30 5667 C 560.338 1.36394 1.4832 0
M  V30 5668 O 559.394 1.16046 2.24253 0
M  V30 5669 C 560.707 2.97512 -0.436682 0
M  V30 5670 C 562.255 3.10568 -0.389416 0
M  V30 5671 C 562.73 4.50866 -0.805249 0
M  V30 5672 N 564.221 4.56929 -0.759616 0
M  V30 5673 C 564.956 5.63643 -1.05327 0
M  V30 5674 N 564.452 6.78189 -1.41531 0
M  V30 5675 N 566.245 5.5354 -0.977207 0
M  V30 5676 H 558.396 1.67044 -1.31187 0
M  V30 5677 H 560.659 0.782559 -0.535075 0
M  V30 5678 H 560.365 3.19575 -1.46849 0
M  V30 5679 H 560.239 3.76742 0.185744 0
M  V30 5680 H 562.626 2.88226 0.633228 0
M  V30 5681 H 562.707 2.33387 -1.04711 0
M  V30 5682 H 562.351 4.73943 -1.82593 0
M  V30 5683 H 562.281 5.26452 -0.124989 0
M  V30 5684 H 564.772 3.74675 -0.49265 0
M  V30 5685 H 565.085 7.55541 -1.62411 0
M  V30 5686 H 563.43 6.79624 -1.45381 0
M  V30 5687 H 566.621 4.62932 -0.693675 0
M  V30 5688 H 566.794 6.36614 -1.2094 0
M  V30 5689 N 560.2 0.0768682 1.57412 0
M  V30 5690 C 561.163 -0.873949 2.11884 0
M  V30 5691 C 562.163 -1.22301 1.04398 0
M  V30 5692 O 563.353 -1.15545 1.30365 0
M  V30 5693 C 560.485 -2.17575 2.62438 0
M  V30 5694 H 561.678 -0.401278 2.97203 0
M  V30 5695 H 559.231 -0.171904 1.55352 0
M  V30 5696 H 559.966 -2.69368 1.80587 0
M  V30 5697 H 559.751 -1.93534 3.41009 0
M  V30 5698 H 561.241 -2.85631 3.04639 0
M  V30 5699 N 561.678 -1.56367 -0.196722 0
M  V30 5700 C 563.094 -1.49916 -0.54749 0
M  V30 5701 C 563.294 -0.77659 -1.85934 0
M  V30 5702 O 562.35 -0.32644 -2.50381 0
M  V30 5703 C 563.663 -2.94577 -0.603734 0
M  V30 5704 C 565.211 -3.05239 -0.692677 0
M  V30 5705 C 565.686 -4.51308 -0.780046 0
M  V30 5706 N 567.177 -4.55453 -0.843616 0
M  V30 5707 C 567.912 -5.65786 -0.931358 0
M  V30 5708 N 567.408 -6.85812 -0.981503 0
M  V30 5709 N 569.201 -5.53695 -0.968421 0
M  V30 5710 H 561.352 -2.01761 0.663803 0
M  V30 5711 H 563.615 -0.918094 0.236238 0
M  V30 5712 H 563.321 -3.50494 0.29105 0
M  V30 5713 H 563.195 -3.47841 -1.45898 0
M  V30 5714 H 565.582 -2.49372 -1.57789 0
M  V30 5715 H 565.663 -2.55103 0.188736 0
M  V30 5716 H 565.307 -5.078 0.100811 0
M  V30 5717 H 565.237 -4.99176 -1.67724 0
M  V30 5718 H 567.728 -3.69025 -0.814176 0
M  V30 5719 H 568.041 -7.65648 -1.04892 0
M  V30 5720 H 566.386 -6.88474 -0.950208 0
M  V30 5721 H 569.577 -4.58848 -0.926072 0
M  V30 5722 H 569.75 -6.39708 -1.03334 0
M  V30 5723 N 563.156 0.464375 -1.50603 0
M  V30 5724 C 564.433 1.22549 -1.5245 0
M  V30 5725 C 564.813 2.09327 -0.273035 0
M  V30 5726 O 564.161 2.16074 0.743242 0
M  V30 5727 C 564.371 2.05074 -2.82393 0
M  V30 5728 C 565.719 2.63036 -3.33313 0
M  V30 5729 O 566.743 2.1531 -2.8376 0
M  V30 5730 O 565.602 3.5001 -4.19709 0
M  V30 5731 H 562.696 0.556471 -0.611775 0
M  V30 5732 H 565.242 0.475648 -1.62898 0
M  V30 5733 H 564.014 1.41169 -3.64948 0
M  V30 5734 H 563.637 2.87179 -2.7498 0
M  V30 5735 N 564.634 1.40294 0.718013 0
M  V30 5736 C 565.581 1.40367 1.8321 0
M  V30 5737 C 566.551 0.260952 1.64037 0
M  V30 5738 O 567.736 0.458648 1.85205 0
M  V30 5739 C 564.876 1.26965 3.20895 0
M  V30 5740 C 563.989 2.50922 3.51656 0
M  V30 5741 C 563.124 2.29981 4.78834 0
M  V30 5742 C 562.163 3.49527 5.02491 0
M  V30 5743 N 561.3 3.27796 6.20882 0
M  V30 5744 H 566.14 2.35593 1.82482 0
M  V30 5745 H 563.677 1.17012 0.891444 0
M  V30 5746 H 565.635 1.17202 4.00399 0
M  V30 5747 H 564.265 0.353591 3.20858 0
M  V30 5748 H 563.317 2.71223 2.66725 0
M  V30 5749 H 564.629 3.39913 3.65048 0
M  V30 5750 H 563.783 2.17558 5.66351 0
M  V30 5751 H 562.522 1.38411 4.67647 0
M  V30 5752 H 561.527 3.6243 4.1343 0
M  V30 5753 H 562.752 4.42021 5.15553 0
M  V30 5754 H 560.698 2.38906 6.1095 0
M  V30 5755 H 560.615 4.10351 6.34939 0
M  V30 5756 H 561.883 3.19101 7.11193 0
M  V30 5757 N 566.112 -0.949982 1.2575 0
M  V30 5758 C 567.36 -1.6918 1.10555 0
M  V30 5759 C 567.681 -1.91773 -0.353298 0
M  V30 5760 O 566.951 -1.50814 -1.25027 0
M  V30 5761 H 565.531 -0.626952 0.406129 0
M  V30 5762 H 568.193 -1.1419 1.57945 0
M  V30 5763 H 567.289 -2.66915 1.61749 0
M  V30 5764 N 567.59 -1.07411 -1.15328 0
M  V30 5765 C 568.52 -0.716472 -2.22236 0
M  V30 5766 C 569.501 0.296373 -1.67498 0
M  V30 5767 O 570.686 0.168989 -1.93463 0
M  V30 5768 C 567.816 -0.114142 -3.47112 0
M  V30 5769 C 566.77 -1.05421 -4.14814 0
M  V30 5770 C 566.096 -0.314604 -5.33774 0
M  V30 5771 C 567.396 -2.38808 -4.64508 0
M  V30 5772 H 569.09 -1.61029 -2.52408 0
M  V30 5773 H 566.636 -0.775702 -1.21321 0
M  V30 5774 H 568.589 0.148001 -4.2114 0
M  V30 5775 H 567.313 0.814755 -3.16274 0
M  V30 5776 H 565.972 -1.30128 -3.42728 0
M  V30 5777 H 565.62 0.617772 -4.99192 0
M  V30 5778 H 565.32 -0.941209 -5.80013 0
M  V30 5779 H 566.844 -0.0602747 -6.1057 0
M  V30 5780 H 568.258 -2.18424 -5.3006 0
M  V30 5781 H 566.655 -2.97069 -5.21412 0
M  V30 5782 H 567.725 -3.01067 -3.80114 0
M  V30 5783 N 569.068 1.32177 -0.85831 0
M  V30 5784 C 570.317 1.96392 -0.459689 0
M  V30 5785 C 570.63 1.68659 0.990632 0
M  V30 5786 O 571.836 2.26641 1.49485 0
M  V30 5787 C 570.292 3.51542 -0.7711 0
M  V30 5788 C 569.9 3.8813 -2.2374 0
M  V30 5789 C 571.644 4.2221 -0.44038 0
M  V30 5790 C 569.551 5.36341 -2.49183 0
M  V30 5791 H 568.481 0.735007 -0.168169 0
M  V30 5792 H 571.132 1.50518 -1.0496 0
M  V30 5793 H 569.514 3.95846 -0.11058 0
M  V30 5794 H 570.688 3.54824 -2.94001 0
M  V30 5795 H 569.003 3.30497 -2.533 0
M  V30 5796 H 571.6 5.31234 -0.607855 0
M  V30 5797 H 571.943 4.11683 0.618291 0
M  V30 5798 H 572.476 3.83502 -1.05695 0
M  V30 5799 H 569.215 5.51892 -3.53689 0
M  V30 5800 H 568.735 5.7104 -1.83504 0
M  V30 5801 H 570.414 6.03466 -2.33318 0
M  V30 5802 N 570.547 0.616602 1.45037 0
M  V30 5803 C 571.477 -0.0840787 2.33349 0
M  V30 5804 C 572.458 -0.849641 1.4736 0
M  V30 5805 O 573.643 -0.818407 1.76113 0
M  V30 5806 C 570.773 -1.07604 3.3021 0
M  V30 5807 C 569.727 -0.423096 4.25904 0
M  V30 5808 C 569.053 -1.52394 5.12523 0
M  V30 5809 C 570.353 0.661457 5.18095 0
M  V30 5810 H 572.047 0.653333 2.92185 0
M  V30 5811 H 569.593 0.315634 1.40498 0
M  V30 5812 H 571.546 -1.57485 3.90866 0
M  V30 5813 H 570.27 -1.84416 2.69552 0
M  V30 5814 H 568.929 0.05493 3.66559 0
M  V30 5815 H 568.577 -2.28257 4.48227 0
M  V30 5816 H 568.277 -1.09251 5.77354 0
M  V30 5817 H 569.801 -2.02485 5.76049 0
M  V30 5818 H 571.215 0.246353 5.7277 0
M  V30 5819 H 569.612 1.01517 5.91451 0
M  V30 5820 H 570.682 1.53446 4.59981 0
M  V30 5821 N 572.025 -1.5352 0.356285 0
M  V30 5822 C 572.955 -2.28372 -0.486661 0
M  V30 5823 C 573.936 -1.30432 -1.09185 0
M  V30 5824 O 575.121 -1.59291 -1.11085 0
M  V30 5825 C 572.251 -3.06604 -1.63129 0
M  V30 5826 C 571.205 -4.12154 -1.15381 0
M  V30 5827 C 570.531 -4.78415 -2.38796 0
M  V30 5828 C 571.831 -5.21724 -0.245179 0
M  V30 5829 H 573.525 -2.99083 0.137797 0
M  V30 5830 H 571.071 -1.43841 0.0677134 0
M  V30 5831 H 573.024 -3.57712 -2.22755 0
M  V30 5832 H 571.748 -2.33568 -2.28284 0
M  V30 5833 H 570.407 -3.61978 -0.580294 0
M  V30 5834 H 570.055 -4.01959 -3.02387 0
M  V30 5835 H 569.755 -5.49734 -2.07524 0
M  V30 5836 H 571.279 -5.32313 -2.99125 0
M  V30 5837 H 572.693 -5.68391 -0.748646 0
M  V30 5838 H 571.09 -6.00095 -0.0237608 0
M  V30 5839 H 572.16 -4.79596 0.715229 0
M  V30 5840 N 573.503 -0.0852151 -1.57369 0
M  V30 5841 C 574.728 0.592872 -1.98746 0
M  V30 5842 C 575.153 1.61538 -0.963689 0
M  V30 5843 O 574.511 1.81168 0.069071 0
M  V30 5844 C 574.559 1.22599 -3.39119 0
M  V30 5845 O 573.663 2.34185 -3.39457 0
M  V30 5846 H 573.004 0.151314 -0.646529 0
M  V30 5847 H 575.534 -0.163703 -2.03944 0
M  V30 5848 H 575.544 1.56965 -3.76598 0
M  V30 5849 H 574.219 0.476831 -4.13158 0
M  V30 5850 H 572.796 2.01512 -3.13763 0
M  V30 5851 N 574.981 1.5647 0.188427 0
M  V30 5852 C 576.221 1.82803 0.914469 0
M  V30 5853 C 576.585 0.663681 1.80165 0
M  V30 5854 O 577.786 0.807059 2.56398 0
M  V30 5855 C 576.057 3.14187 1.70357 0
M  V30 5856 S 577.616 3.61947 2.48072 0
M  V30 5857 H 574.434 0.641497 0.306599 0
M  V30 5858 H 577.036 1.94694 0.177361 0
M  V30 5859 H 575.74 3.96937 1.04255 0
M  V30 5860 H 575.271 3.05192 2.48237 0
M  V30 5861 H 577.286 3.27913 3.72407 0
M  V30 5862 N 576.459 -0.456382 1.50847 0
M  V30 5863 C 577.707 -1.20497 1.62249 0
M  V30 5864 C 578.028 -1.92156 0.331839 0
M  V30 5865 O 577.298 -1.84751 -0.651443 0
M  V30 5866 H 575.878 -0.447775 0.597918 0
M  V30 5867 H 578.54 -0.525099 1.87693 0
M  V30 5868 H 577.636 -1.94492 2.44089 0
M  V30 5869 N 577.937 -1.40673 -0.710563 0
M  V30 5870 C 579.348 -1.34975 -1.28991 0
M  V30 5871 C 579.699 -0.0256272 -1.96183 0
M  V30 5872 O 578.824 0.876339 -1.97862 0
M  V30 5873 C 579.419 -2.44467 -2.34567 0
M  V30 5874 C 577.978 -2.42213 -2.88114 0
M  V30 5875 C 577.125 -2.25085 -1.61963 0
M  V30 5876 H 580.076 -1.50406 -0.506343 0
M  V30 5877 H 580.097 -2.12663 -3.15523 0
M  V30 5878 H 579.609 -3.40825 -1.85634 0
M  V30 5879 H 577.71 -1.49568 -3.41263 0
M  V30 5880 H 577.823 -3.37983 -3.39565 0
M  V30 5881 H 576.187 -1.72691 -1.87216 0
M  V30 5882 H 576.97 -3.23449 -1.15047 0
M  V30 5883 N 579.415 0.9433 -1.26252 0
M  V30 5884 C 580.645 1.72117 -1.14277 0
M  V30 5885 C 581.053 1.86726 0.304944 0
M  V30 5886 O 580.396 1.3727 1.22076 0
M  V30 5887 C 580.458 3.14778 -1.73651 0
M  V30 5888 C 580.122 3.23561 -3.22734 0
M  V30 5889 C 581.119 3.07001 -4.19579 0
M  V30 5890 C 578.804 3.47019 -3.63157 0
M  V30 5891 C 580.798 3.13763 -5.54826 0
M  V30 5892 C 578.485 3.53416 -4.98538 0
M  V30 5893 C 579.483 3.36804 -5.94182 0
M  V30 5894 O 579.171 3.42906 -7.27098 0
M  V30 5895 H 578.903 0.545781 -0.398873 0
M  V30 5896 H 581.457 1.19123 -1.67328 0
M  V30 5897 H 579.687 3.69186 -1.1506 0
M  V30 5898 H 581.376 3.74469 -1.56613 0
M  V30 5899 H 582.142 2.88736 -3.89688 0
M  V30 5900 H 578.021 3.59006 -2.89199 0
M  V30 5901 H 581.565 3.00714 -6.29458 0
M  V30 5902 H 577.462 3.71201 -5.28091 0
M  V30 5903 H 578.23 3.59463 -7.35342 0
M  V30 5904 N 580.893 1.08022 1.14757 0
M  V30 5905 C 582.123 0.827646 1.89298 0
M  V30 5906 C 582.531 -0.623506 1.78631 0
M  V30 5907 O 581.874 -1.43991 1.14071 0
M  V30 5908 C 581.936 1.16553 3.40082 0
M  V30 5909 C 581.6 2.61866 3.74533 0
M  V30 5910 C 582.597 3.60116 3.74984 0
M  V30 5911 C 580.282 2.97619 4.04633 0
M  V30 5912 C 582.276 4.92151 4.05051 0
M  V30 5913 C 579.963 4.2985 4.34364 0
M  V30 5914 C 580.961 5.26926 4.34555 0
M  V30 5915 O 580.649 6.5678 4.63568 0
M  V30 5916 H 580.381 0.298396 0.606577 0
M  V30 5917 H 582.935 1.44187 1.46285 0
M  V30 5918 H 581.165 0.494296 3.83528 0
M  V30 5919 H 582.854 0.894407 3.95923 0
M  V30 5920 H 583.62 3.33837 3.51821 0
M  V30 5921 H 579.499 2.22702 4.03639 0
M  V30 5922 H 583.043 5.67915 4.05115 0
M  V30 5923 H 578.94 4.55879 4.56995 0
M  V30 5924 H 579.708 6.62035 4.81303 0
M  V30 5925 N 582.371 -1.3172 0.865308 0
M  V30 5926 C 583.319 -2.30569 0.306674 0
M  V30 5927 C 584.313 -1.59317 -0.575724 0
M  V30 5928 O 585.519 -1.73961 -0.462343 0
M  V30 5929 H 581.894 -0.747681 0.0804834 0
M  V30 5930 H 583.865 -2.75165 1.15441 0
M  V30 5931 C 582.614 -3.44358 -0.480952 0
M  V30 5932 H 581.937 -3.99354 0.18876 0
M  V30 5933 H 583.377 -4.15652 -0.837241 0
M  V30 5934 C 581.836 -2.92574 -1.67039 0
M  V30 5935 O 582.366 -2.90954 -2.76964 0
M  V30 5936 N 580.572 -2.48835 -1.50097 0
M  V30 5937 H 580.119 -2.50353 -0.606738 0
M  V30 5938 H 580.077 -2.14543 -2.29823 0
M  V30 5939 N 583.85 -0.624285 -1.44708 0
M  V30 5940 C 585.096 -0.126237 -2.02407 0
M  V30 5941 C 585.428 1.24618 -1.48943 0
M  V30 5942 O 584.704 1.82569 -0.670742 0
M  V30 5943 C 584.986 -0.105449 -3.59946 0
M  V30 5944 C 584.84 -1.50972 -4.23707 0
M  V30 5945 C 586.159 0.573629 -4.36346 0
M  V30 5946 H 583.278 -0.0473472 -0.735478 0
M  V30 5947 H 585.92 -0.799452 -1.72362 0
M  V30 5948 H 584.07 0.46783 -3.85673 0
M  V30 5949 H 585.742 -2.13136 -4.0911 0
M  V30 5950 H 583.985 -2.0656 -3.81465 0
M  V30 5951 H 584.656 -1.44727 -5.32689 0
M  V30 5952 H 587.132 0.0861787 -4.16011 0
M  V30 5953 H 586.008 0.557338 -5.46063 0
M  V30 5954 H 586.269 1.64276 -4.10446 0
M  V30 5955 N 585.328 1.53329 -0.364422 0
M  V30 5956 C 586.258 2.28627 0.474543 0
M  V30 5957 C 587.239 1.31009 1.08492 0
M  V30 5958 O 588.424 1.59878 1.10239 0
M  V30 5959 C 585.554 3.07465 1.61501 0
M  V30 5960 C 584.508 4.1276 1.13194 0
M  V30 5961 C 583.834 4.79674 2.36255 0
M  V30 5962 C 585.134 5.21847 0.217507 0
M  V30 5963 H 586.828 2.99005 -0.153656 0
M  V30 5964 H 584.374 1.43803 -0.0753406 0
M  V30 5965 H 586.327 3.58889 2.20855 0
M  V30 5966 H 585.051 2.34775 2.27042 0
M  V30 5967 H 583.71 3.62281 0.56109 0
M  V30 5968 H 583.358 4.03557 3.00251 0
M  V30 5969 H 583.058 5.50827 2.04606 0
M  V30 5970 H 584.582 5.33892 2.96297 0
M  V30 5971 H 585.996 5.6878 0.718493 0
M  V30 5972 H 584.393 6.00099 -0.00806408 0
M  V30 5973 H 585.463 4.7921 -0.740653 0
M  V30 5974 N 586.806 0.0935595 1.57322 0
M  V30 5975 C 588.222 -0.263091 1.57417 0
M  V30 5976 C 588.422 -1.68526 1.1046 0
M  V30 5977 O 587.478 -2.40139 0.780357 0
M  V30 5978 C 588.791 -0.0529201 3.00653 0
M  V30 5979 C 590.339 -0.120788 3.12767 0
M  V30 5980 C 590.814 0.0613707 4.57959 0
M  V30 5981 N 592.305 0.00648534 4.632 0
M  V30 5982 C 593.04 0.122699 5.73269 0
M  V30 5983 N 592.536 0.29366 6.92177 0
M  V30 5984 N 594.329 0.0640787 5.62063 0
M  V30 5985 H 586.48 1.02277 1.86154 0
M  V30 5986 H 588.743 0.4007 0.859153 0
M  V30 5987 H 588.449 0.929279 3.39201 0
M  V30 5988 H 588.323 -0.795899 3.68708 0
M  V30 5989 H 590.71 -1.09349 2.74093 0
M  V30 5990 H 590.791 0.653656 2.47307 0
M  V30 5991 H 590.435 1.03093 4.97327 0
M  V30 5992 H 590.365 -0.732748 5.21477 0
M  V30 5993 H 592.856 -0.123173 3.77699 0
M  V30 5994 H 593.169 0.37389 7.71895 0
M  V30 5995 H 591.514 0.329307 6.94219 0
M  V30 5996 H 594.705 -0.0683396 4.6805 0
M  V30 5997 H 594.878 0.158097 6.47807 0
M  V30 5998 N 588.284 -1.56567 -0.180126 0
M  V30 5999 C 589.533 -1.80685 -0.896426 0
M  V30 6000 C 589.846 -0.669335 -1.83791 0
M  V30 6001 O 591.052 -0.795209 -2.59593 0
M  V30 6002 C 589.508 -3.20132 -1.6445 0
M  V30 6003 C 589.116 -4.41727 -0.747088 0
M  V30 6004 C 590.86 -3.53549 -2.34955 0
M  V30 6005 C 588.767 -5.72195 -1.49489 0
M  V30 6006 H 587.697 -0.673758 -0.338477 0
M  V30 6007 H 590.348 -1.8289 -0.149467 0
M  V30 6008 H 588.73 -3.12218 -2.43589 0
M  V30 6009 H 589.904 -4.608 0.00671129 0
M  V30 6010 H 588.219 -4.16122 -0.152134 0
M  V30 6011 H 590.816 -4.48267 -2.91481 0
M  V30 6012 H 591.159 -2.78006 -3.09868 0
M  V30 6013 H 591.692 -3.62976 -1.62768 0
M  V30 6014 H 588.431 -6.50743 -0.788251 0
M  V30 6015 H 587.951 -5.57115 -2.22224 0
M  V30 6016 H 589.63 -6.1384 -2.04472 0
M  V30 6017 N 589.762 0.448376 -1.51087 0
M  V30 6018 C 590.692 1.55102 -1.74544 0
M  V30 6019 C 591.673 1.59357 -0.594932 0
M  V30 6020 O 592.858 1.75261 -0.836491 0
M  V30 6021 C 589.988 2.93268 -1.86041 0
M  V30 6022 C 588.942 3.03877 -3.01402 0
M  V30 6023 C 588.268 4.43914 -2.98068 0
M  V30 6024 C 589.568 2.7898 -4.41551 0
M  V30 6025 H 591.262 1.35724 -2.66869 0
M  V30 6026 H 588.808 0.651498 -1.28419 0
M  V30 6027 H 590.761 3.70356 -2.01034 0
M  V30 6028 H 589.485 3.13853 -0.903548 0
M  V30 6029 H 588.144 2.29227 -2.86096 0
M  V30 6030 H 587.792 4.6145 -2.00182 0
M  V30 6031 H 587.492 4.51944 -3.75527 0
M  V30 6032 H 589.016 5.22991 -3.1514 0
M  V30 6033 H 590.43 3.45805 -4.57265 0
M  V30 6034 H 588.827 2.98431 -5.20633 0
M  V30 6035 H 589.897 1.74663 -4.5235 0
M  V30 6036 N 591.24 1.41047 0.703093 0
M  V30 6037 C 592.486 1.40207 1.46526 0
M  V30 6038 C 592.819 0.00847763 1.94198 0
M  V30 6039 O 592.094 -0.962437 1.69019 0
M  V30 6040 C 592.377 2.40238 2.6825 0
M  V30 6041 C 592.23 3.88674 2.26391 0
M  V30 6042 C 593.549 2.37627 3.70434 0
M  V30 6043 H 590.668 0.510594 0.531472 0
M  V30 6044 H 593.31 1.72271 0.801422 0
M  V30 6045 H 591.46 2.13026 3.24888 0
M  V30 6046 H 593.132 4.2676 1.75138 0
M  V30 6047 H 591.375 4.03903 1.58255 0
M  V30 6048 H 592.046 4.542 3.13698 0
M  V30 6049 H 594.522 2.61759 3.23452 0
M  V30 6050 H 593.398 3.09645 4.53223 0
M  V30 6051 H 593.659 1.39223 4.19606 0
M  V30 6052 N 592.718 -0.936591 1.26751 0
M  V30 6053 C 594.129 -1.49816 1.1141 0
M  V30 6054 C 594.48 -1.9383 -0.304015 0
M  V30 6055 O 593.605 -1.80346 -1.196 0
M  V30 6056 C 594.2 -2.72271 2.01629 0
M  V30 6057 C 592.759 -3.2468 1.9042 0
M  V30 6058 C 591.906 -1.97444 1.94708 0
M  V30 6059 H 594.857 -0.751604 1.39773 0
M  V30 6060 H 594.878 -3.46741 1.56688 0
M  V30 6061 H 594.39 -2.40205 3.04833 0
M  V30 6062 H 592.491 -3.61525 0.901674 0
M  V30 6063 H 592.604 -3.91476 2.76195 0
M  V30 6064 H 590.968 -2.13545 1.38818 0
M  V30 6065 H 591.751 -1.67703 2.9955 0
M  V30 6066 N 594.196 -1.08629 -1.14182 0
M  V30 6067 C 595.126 -0.740003 -2.21464 0
M  V30 6068 C 596.107 0.278591 -1.67803 0
M  V30 6069 O 597.292 0.148461 -1.93632 0
M  V30 6070 C 594.422 -0.150952 -3.46972 0
M  V30 6071 C 593.376 -1.09815 -4.13672 0
M  V30 6072 C 592.702 -0.3712 -5.3341 0
M  V30 6073 C 594.002 -2.43722 -4.61949 0
M  V30 6074 H 595.696 -1.63697 -2.50686 0
M  V30 6075 H 593.242 -0.788526 -1.20492 0
M  V30 6076 H 595.195 0.103325 -4.21273 0
M  V30 6077 H 593.919 0.781164 -3.1712 0
M  V30 6078 H 592.578 -1.33756 -3.41328 0
M  V30 6079 H 592.226 0.564792 -4.99819 0
M  V30 6080 H 591.926 -1.00267 -5.78982 0
M  V30 6081 H 593.45 -0.12503 -6.10472 0
M  V30 6082 H 594.864 -2.24034 -5.27714 0
M  V30 6083 H 593.261 -3.02582 -5.18232 0
M  V30 6084 H 594.331 -3.05082 -3.76899 0
M  V30 6085 N 595.674 1.31259 -0.872281 0
M  V30 6086 C 596.902 2.00795 -0.498907 0
M  V30 6087 C 597.317 1.65464 0.909238 0
M  V30 6088 O 596.674 0.885073 1.59602 0
M  V30 6089 C 596.725 3.55625 -0.649092 0
M  V30 6090 O 596.446 3.89692 -2.00179 0
M  V30 6091 C 597.947 4.42434 -0.277034 0
M  V30 6092 H 595.167 0.642299 -0.194145 0
M  V30 6093 H 597.711 1.67438 -1.17408 0
M  V30 6094 H 595.866 3.87394 -0.0214402 0
M  V30 6095 H 596.28 4.84407 -2.01122 0
M  V30 6096 H 597.754 5.50299 -0.433064 0
M  V30 6097 H 598.231 4.32146 0.783989 0
M  V30 6098 H 598.837 4.16086 -0.880483 0
M  V30 6099 N 597.152 0.631951 1.44375 0
M  V30 6100 C 598.401 0.134214 2.01253 0
M  V30 6101 C 598.714 -1.25171 1.50305 0
M  V30 6102 O 599.92 -1.8435 1.99317 0
M  V30 6103 C 598.376 0.189187 3.59402 0
M  V30 6104 C 597.984 1.57647 4.19346 0
M  V30 6105 C 599.728 -0.252044 4.23751 0
M  V30 6106 C 597.635 1.58651 5.69722 0
M  V30 6107 H 596.565 0.0464101 0.75257 0
M  V30 6108 H 599.216 0.790868 1.65582 0
M  V30 6109 H 597.598 -0.534584 3.92375 0
M  V30 6110 H 598.772 2.32389 3.97909 0
M  V30 6111 H 597.087 1.96186 3.67288 0
M  V30 6112 H 599.684 -0.264084 5.34047 0
M  V30 6113 H 600.027 -1.27951 3.96149 0
M  V30 6114 H 600.56 0.41926 3.95584 0
M  V30 6115 H 597.299 2.59237 6.0206 0
M  V30 6116 H 596.819 0.882039 5.93279 0
M  V30 6117 H 598.498 1.32082 6.33375 0
M  V30 6118 N 598.631 -1.53133 0.372548 0
M  V30 6119 C 599.541 -2.29671 -0.478379 0
M  V30 6120 C 600.557 -1.35913 -1.08644 0
M  V30 6121 O 601.733 -1.68975 -1.09588 0
M  V30 6122 C 598.798 -3.07625 -1.599 0
M  V30 6123 C 597.859 -4.17061 -1.01776 0
M  V30 6124 C 597.092 -4.91289 -2.08497 0
M  V30 6125 O 597.315 -4.65442 -3.29727 0
M  V30 6126 O 596.249 -5.7705 -1.71164 0
M  V30 6127 H 600.075 -3.03355 0.144649 0
M  V30 6128 H 597.66 -1.48773 0.136729 0
M  V30 6129 H 599.542 -3.56281 -2.25038 0
M  V30 6130 H 598.217 -2.3677 -2.2073 0
M  V30 6131 H 597.124 -3.72641 -0.330098 0
M  V30 6132 H 598.457 -4.90102 -0.453915 0
M  V30 6133 N 600.109 -0.101901 -1.5727 0
M  V30 6134 C 601.386 0.602832 -1.86079 0
M  V30 6135 C 601.766 1.85912 -1 0
M  V30 6136 O 601.114 2.28379 -0.0742488 0
M  V30 6137 C 601.324 0.911694 -3.36881 0
M  V30 6138 C 602.672 1.2722 -4.05093 0
M  V30 6139 O 603.696 1.0025 -3.41802 0
M  V30 6140 O 602.555 1.7776 -5.16782 0
M  V30 6141 H 599.649 0.302366 -0.769743 0
M  V30 6142 H 602.195 -0.135113 -1.69161 0
M  V30 6143 H 600.967 0.0207256 -3.91295 0
M  V30 6144 H 600.59 1.70538 -3.59169 0
M  V30 6145 N 601.587 1.56661 0.17182 0
M  V30 6146 C 602.55 1.9549 1.19651 0
M  V30 6147 C 603.55 0.838501 1.37207 0
M  V30 6148 O 604.74 1.10556 1.34622 0
M  V30 6149 C 601.872 2.24927 2.56166 0
M  V30 6150 H 603.065 2.87184 0.864007 0
M  V30 6151 H 600.618 1.50711 0.41425 0
M  V30 6152 H 601.353 1.35944 2.94431 0
M  V30 6153 H 601.138 3.06301 2.4479 0
M  V30 6154 H 602.628 2.55891 3.30014 0
M  V30 6155 N 603.065 -0.440357 1.51323 0
M  V30 6156 C 603.997 -1.55254 1.68609 0
M  V30 6157 C 605.01 -1.52614 0.566812 0
M  V30 6158 O 606.199 -1.57445 0.841032 0
M  V30 6159 C 603.299 -2.94169 1.68279 0
M  V30 6160 C 602.472 -3.21346 2.96742 0
M  V30 6161 C 601.531 -4.3997 2.8864 0
M  V30 6162 O 600.557 -4.38771 3.62586 0
M  V30 6163 N 601.759 -5.43367 2.04285 0
M  V30 6164 H 604.524 -1.40831 2.6455 0
M  V30 6165 H 602.085 -0.629251 1.49171 0
M  V30 6166 H 604.077 -3.71543 1.60431 0
M  V30 6167 H 602.647 -3.02205 0.799441 0
M  V30 6168 H 601.867 -2.32299 3.18482 0
M  V30 6169 H 603.155 -3.3633 3.81785 0
M  V30 6170 H 602.553 -5.47176 1.43578 0
M  V30 6171 H 601.11 -6.19605 2.02318 0
M  V30 6172 N 604.543 -1.41418 -0.695603 0
M  V30 6173 C 605.792 -1.40073 -1.4513 0
M  V30 6174 C 606.105 -0.0130439 -1.95596 0
M  V30 6175 O 607.311 0.123032 -2.71221 0
M  V30 6176 C 605.767 -2.46286 -2.62433 0
M  V30 6177 C 605.375 -3.90962 -2.18753 0
M  V30 6178 C 607.119 -2.54077 -3.40066 0
M  V30 6179 C 605.026 -4.88728 -3.33015 0
M  V30 6180 H 603.956 -0.520903 -0.545138 0
M  V30 6181 H 606.607 -1.67242 -0.75515 0
M  V30 6182 H 604.989 -2.12248 -3.34315 0
M  V30 6183 H 606.163 -4.34248 -1.54161 0
M  V30 6184 H 604.478 -3.86831 -1.54114 0
M  V30 6185 H 607.075 -3.24303 -4.25125 0
M  V30 6186 H 607.418 -1.5776 -3.8525 0
M  V30 6187 H 607.951 -2.87206 -2.75241 0
M  V30 6188 H 604.69 -5.86449 -2.92844 0
M  V30 6189 H 604.21 -4.50091 -3.96457 0
M  V30 6190 H 605.889 -5.09483 -3.98793 0
M  V30 6191 N 606.021 0.929856 -1.27246 0
M  V30 6192 C 607.437 1.20542 -1.04603 0
M  V30 6193 C 607.637 2.00276 0.221754 0
M  V30 6194 O 606.693 2.34835 0.927833 0
M  V30 6195 C 608.006 1.95566 -2.28417 0
M  V30 6196 C 609.554 2.08513 -2.33433 0
M  V30 6197 C 610.029 2.86943 -3.5697 0
M  V30 6198 N 611.52 2.94512 -3.57515 0
M  V30 6199 C 612.255 3.55656 -4.49774 0
M  V30 6200 N 611.751 4.18209 -5.52334 0
M  V30 6201 N 613.544 3.53038 -4.37402 0
M  V30 6202 H 605.695 0.397113 -2.08655 0
M  V30 6203 H 607.958 0.238277 -0.917566 0
M  V30 6204 H 607.664 1.44395 -3.20691 0
M  V30 6205 H 607.538 2.9619 -2.33563 0
M  V30 6206 H 609.925 2.58872 -1.41666 0
M  V30 6207 H 610.006 1.07117 -2.32292 0
M  V30 6208 H 609.65 2.37268 -4.49072 0
M  V30 6209 H 609.58 3.8862 -3.55362 0
M  V30 6210 H 612.071 2.50053 -2.83341 0
M  V30 6211 H 612.384 4.62796 -6.18902 0
M  V30 6212 H 610.729 4.16761 -5.56179 0
M  V30 6213 H 613.92 3.0337 -3.56489 0
M  V30 6214 H 614.093 4.004 -5.09493 0
M  V30 6215 N 607.499 1.09233 1.13605 0
M  V30 6216 C 608.431 0.687794 2.18637 0
M  V30 6217 C 609.444 -0.26936 1.60556 0
M  V30 6218 O 610.633 -0.0557162 1.78413 0
M  V30 6219 C 607.733 -0.00751901 3.38899 0
M  V30 6220 C 606.906 0.97067 4.26494 0
M  V30 6221 C 605.965 0.309129 5.25291 0
M  V30 6222 O 604.991 0.956149 5.61112 0
M  V30 6223 N 606.193 -0.937555 5.72879 0
M  V30 6224 H 608.958 1.59141 2.53957 0
M  V30 6225 H 606.519 0.979515 1.28907 0
M  V30 6226 H 608.511 -0.461238 4.02063 0
M  V30 6227 H 607.081 -0.813353 3.01833 0
M  V30 6228 H 606.301 1.603 3.60135 0
M  V30 6229 H 607.589 1.63323 4.81875 0
M  V30 6230 H 606.987 -1.48281 5.4592 0
M  V30 6231 H 605.544 -1.33463 6.3799 0
M  V30 6232 N 608.977 -1.30795 0.87923 0
M  V30 6233 C 610.225 -1.95974 0.493809 0
M  V30 6234 C 610.546 -1.69787 -0.959021 0
M  V30 6235 O 609.816 -1.01832 -1.67353 0
M  V30 6236 H 608.396 -0.725083 0.179622 0
M  V30 6237 H 611.058 -1.59432 1.12105 0
M  V30 6238 H 610.154 -3.05058 0.659263 0
M  V30 6239 N 610.455 -0.639598 -1.44038 0
M  V30 6240 C 611.385 0.0469443 -2.33453 0
M  V30 6241 C 612.366 0.82609 -1.48694 0
M  V30 6242 O 613.551 0.790285 -1.77393 0
M  V30 6243 C 610.681 1.02338 -3.3188 0
M  V30 6244 C 609.635 0.355284 -4.26523 0
M  V30 6245 C 608.961 1.44221 -5.14883 0
M  V30 6246 C 610.261 -0.743798 -5.16977 0
M  V30 6247 H 611.955 -0.699735 -2.91108 0
M  V30 6248 H 609.501 -0.337946 -1.39978 0
M  V30 6249 H 611.454 1.51247 -3.93322 0
M  V30 6250 H 610.178 1.80105 -2.72451 0
M  V30 6251 H 608.837 -0.113239 -3.66425 0
M  V30 6252 H 608.485 2.21097 -4.51802 0
M  V30 6253 H 608.185 1.00052 -5.79019 0
M  V30 6254 H 609.709 1.93295 -5.79197 0
M  V30 6255 H 611.123 -0.337444 -5.72306 0
M  V30 6256 H 609.52 -1.10914 -5.89761 0
M  V30 6257 H 610.59 -1.60745 -4.57481 0
M  V30 6258 N 611.933 1.52934 -0.380664 0
M  V30 6259 C 612.843 2.29921 0.466192 0
M  V30 6260 C 613.859 1.36488 1.07922 0
M  V30 6261 O 615.035 1.69553 1.0869 0
M  V30 6262 C 612.1 3.08468 1.58266 0
M  V30 6263 C 611.161 4.17595 0.995627 0
M  V30 6264 C 610.394 4.92387 2.05889 0
M  V30 6265 O 610.617 4.67184 3.27254 0
M  V30 6266 O 609.551 5.77949 1.68102 0
M  V30 6267 H 613.377 3.03274 -0.160735 0
M  V30 6268 H 610.962 1.48698 -0.144617 0
M  V30 6269 H 612.844 3.57469 2.23145 0
M  V30 6270 H 611.519 2.37937 2.19471 0
M  V30 6271 H 610.426 3.72811 0.310332 0
M  V30 6272 H 611.759 4.90336 0.427918 0
M  V30 6273 N 613.412 0.11024 1.57214 0
M  V30 6274 C 614.661 -0.549638 1.94067 0
M  V30 6275 C 614.974 -1.68388 0.995234 0
M  V30 6276 O 616.18 -2.40593 1.25807 0
M  V30 6277 C 614.636 -1.02912 3.44873 0
M  V30 6278 C 614.244 0.0761861 4.47935 0
M  V30 6279 C 615.988 -1.66087 3.9066 0
M  V30 6280 C 613.895 -0.419502 5.8991 0
M  V30 6281 H 612.825 -0.209092 0.724428 0
M  V30 6282 H 615.476 0.188683 1.82527 0
M  V30 6283 H 613.858 -1.82159 3.51616 0
M  V30 6284 H 615.032 0.852185 4.52851 0
M  V30 6285 H 613.347 0.614052 4.11847 0
M  V30 6286 H 615.944 -2.04272 4.94143 0
M  V30 6287 H 616.287 -2.53591 3.30148 0
M  V30 6288 H 616.82 -0.933959 3.86681 0
M  V30 6289 H 613.559 0.419277 6.54158 0
M  V30 6290 H 613.079 -1.16217 5.88433 0
M  V30 6291 H 614.758 -0.883577 6.40938 0
M  V30 6292 N 614.89 -1.56749 -0.16351 0
M  V30 6293 C 616.139 -1.81626 -0.877211 0
M  V30 6294 C 616.452 -0.688791 -1.83071 0
M  V30 6295 O 617.658 -0.822697 -2.58735 0
M  V30 6296 C 616.114 -3.21858 -1.61045 0
M  V30 6297 C 615.722 -4.42494 -0.700195 0
M  V30 6298 C 617.466 -3.56021 -2.31192 0
M  V30 6299 C 615.373 -5.73748 -1.43412 0
M  V30 6300 H 614.303 -0.67731 -0.331312 0
M  V30 6301 H 616.954 -1.83039 -0.13006 0
M  V30 6302 H 615.336 -3.14784 -2.40264 0
M  V30 6303 H 616.51 -4.60766 0.0555849 0
M  V30 6304 H 614.825 -4.1626 -0.10799 0
M  V30 6305 H 617.422 -4.51333 -2.8671 0
M  V30 6306 H 617.765 -2.81277 -3.06902 0
M  V30 6307 H 618.298 -3.64682 -1.58909 0
M  V30 6308 H 615.037 -6.51543 -0.719186 0
M  V30 6309 H 614.557 -5.5944 -2.16302 0
M  V30 6310 H 616.236 -6.15975 -1.9795 0
M  V30 6311 N 616.368 0.432326 -1.51554 0
M  V30 6312 C 617.593 1.20824 -1.68571 0
M  V30 6313 C 618.018 1.84126 -0.384596 0
M  V30 6314 O 617.376 1.69025 0.655751 0
M  V30 6315 C 617.424 2.26429 -2.80646 0
M  V30 6316 O 616.528 3.32032 -2.44598 0
M  V30 6317 H 615.869 0.353765 -0.561913 0
M  V30 6318 H 618.399 0.509916 -1.98144 0
M  V30 6319 H 618.409 2.71133 -3.04878 0
M  V30 6320 H 617.084 1.79733 -3.75058 0
M  V30 6321 H 615.661 2.92769 -2.30956 0
M  V30 6322 N 617.846 1.41785 0.688094 0
M  V30 6323 C 618.778 1.40159 1.81351 0
M  V30 6324 C 619.791 0.30262 1.59963 0
M  V30 6325 O 620.98 0.564841 1.69327 0
M  V30 6326 C 618.08 1.16517 3.1824 0
M  V30 6327 C 617.253 2.38597 3.66593 0
M  V30 6328 C 616.312 2.10699 4.82174 0
M  V30 6329 O 615.338 2.83798 4.93404 0
M  V30 6330 N 616.54 1.10187 5.69947 0
M  V30 6331 H 619.305 2.3716 1.83236 0
M  V30 6332 H 616.866 1.36494 0.870697 0
M  V30 6333 H 618.858 0.957941 3.93199 0
M  V30 6334 H 617.428 0.280873 3.11336 0
M  V30 6335 H 616.648 2.74974 2.82459 0
M  V30 6336 H 617.936 3.19919 3.95638 0
M  V30 6337 H 617.334 0.497016 5.63512 0
M  V30 6338 H 615.891 0.954518 6.44773 0
M  V30 6339 N 619.324 -0.923095 1.27737 0
M  V30 6340 C 620.564 -1.6858 1.15586 0
M  V30 6341 C 620.928 -1.89758 -0.292562 0
M  V30 6342 O 622.129 -2.6339 -0.536583 0
M  V30 6343 C 620.4 -3.01275 1.92271 0
M  V30 6344 S 621.959 -3.924 1.96387 0
M  V30 6345 H 618.777 -0.579069 0.412554 0
M  V30 6346 H 621.379 -1.09866 1.61709 0
M  V30 6347 H 620.083 -2.83556 2.96689 0
M  V30 6348 H 619.614 -3.6504 1.46661 0
M  V30 6349 H 621.629 -4.84667 1.06361 0
M  V30 6350 N 620.802 -1.09834 -1.13024 0
M  V30 6351 C 622.049 -0.83695 -1.84395 0
M  V30 6352 C 622.377 0.637463 -1.83757 0
M  V30 6353 O 621.632 1.48554 -1.27398 0
M  V30 6354 C 621.931 -1.32263 -3.32026 0
M  V30 6355 C 621.597 -2.80739 -3.52841 0
M  V30 6356 C 620.259 -3.21286 -3.5823 0
M  V30 6357 C 622.611 -3.76449 -3.60466 0
M  V30 6358 C 619.939 -4.56308 -3.68781 0
M  V30 6359 C 622.291 -5.11266 -3.72546 0
M  V30 6360 C 620.955 -5.51397 -3.76189 0
M  V30 6361 H 620.225 -0.306262 -0.674748 0
M  V30 6362 H 622.872 -1.37385 -1.33408 0
M  V30 6363 H 621.177 -0.705618 -3.85394 0
M  V30 6364 H 622.874 -1.09695 -3.85705 0
M  V30 6365 H 619.464 -2.48363 -3.49305 0
M  V30 6366 H 623.648 -3.46234 -3.55578 0
M  V30 6367 H 618.904 -4.86832 -3.69871 0
M  V30 6368 H 623.078 -5.85279 -3.77388 0
M  V30 6369 H 620.705 -6.56017 -3.84117 0
M  V30 6370 N 622.28 1.30327 -0.886154 0
M  V30 6371 C 623.557 1.90922 -0.425217 0
M  V30 6372 C 623.937 1.80533 1.09413 0
M  V30 6373 O 623.285 1.2233 1.92996 0
M  V30 6374 C 623.495 3.36529 -0.924638 0
M  V30 6375 C 624.843 4.13598 -0.960305 0
M  V30 6376 O 625.867 3.45377 -0.871382 0
M  V30 6377 O 624.726 5.35482 -1.09184 0
M  V30 6378 H 621.82 0.81668 -0.130238 0
M  V30 6379 H 624.366 1.38886 -0.975132 0
M  V30 6380 H 623.138 3.38181 -1.96849 0
M  V30 6381 H 622.761 3.96021 -0.353955 0
M  V30 6382 N 623.758 0.647228 1.43697 0
M  V30 6383 C 624.668 -0.0487997 2.34549 0
M  V30 6384 C 625.684 -0.818586 1.53542 0
M  V30 6385 O 626.86 -0.767195 1.86215 0
M  V30 6386 C 623.925 -1.00734 3.31743 0
M  V30 6387 C 622.986 -0.23515 4.28655 0
M  V30 6388 C 622.219 -1.14803 5.21206 0
M  V30 6389 O 622.442 -2.38717 5.18045 0
M  V30 6390 O 621.376 -0.623667 5.9866 0
M  V30 6391 H 625.202 0.698863 2.9555 0
M  V30 6392 H 622.787 0.407412 1.43738 0
M  V30 6393 H 624.669 -1.55837 3.91526 0
M  V30 6394 H 623.344 -1.73534 2.73254 0
M  V30 6395 H 622.251 0.359319 3.7237 0
M  V30 6396 H 623.584 0.453152 4.9011 0
M  V30 6397 N 625.236 -1.5273 0.388769 0
M  V30 6398 C 626.199 -2.25043 -0.434544 0
M  V30 6399 C 627.199 -1.26661 -0.990644 0
M  V30 6400 O 628.389 -1.50762 -0.872731 0
M  V30 6401 C 625.521 -3.00507 -1.60961 0
M  V30 6402 H 626.714 -2.99242 0.198549 0
M  V30 6403 H 624.267 -1.55664 0.140875 0
M  V30 6404 H 625.002 -2.30607 -2.28015 0
M  V30 6405 H 624.787 -3.72716 -1.21757 0
M  V30 6406 H 626.277 -3.55413 -2.19251 0
M  V30 6407 N 626.714 -0.118576 -1.57153 0
M  V30 6408 C 627.661 0.831789 -2.1529 0
M  V30 6409 C 628.631 1.26385 -1.07778 0
M  V30 6410 O 629.816 1.34144 -1.35684 0
M  V30 6411 C 626.956 2.07664 -2.75626 0
M  V30 6412 C 626.069 1.69298 -3.97444 0
M  V30 6413 C 625.204 2.88747 -4.45868 0
M  V30 6414 C 624.243 2.46619 -5.60219 0
M  V30 6415 N 623.38 3.5898 -6.03389 0
M  V30 6416 H 628.22 0.329183 -2.96176 0
M  V30 6417 H 625.757 0.150792 -1.46325 0
M  V30 6418 H 627.715 2.80601 -3.08738 0
M  V30 6419 H 626.345 2.55384 -1.97431 0
M  V30 6420 H 625.397 0.862374 -3.70496 0
M  V30 6421 H 626.709 1.34338 -4.80369 0
M  V30 6422 H 625.863 3.69909 -4.80887 0
M  V30 6423 H 624.602 3.26933 -3.61892 0
M  V30 6424 H 623.607 1.63889 -5.24805 0
M  V30 6425 H 624.832 2.0955 -6.45961 0
M  V30 6426 H 622.778 3.9684 -5.22354 0
M  V30 6427 H 622.695 3.27942 -6.81168 0
M  V30 6428 H 623.963 4.40583 -6.43045 0
M  V30 6429 N 628.193 1.56834 0.155195 0
M  V30 6430 C 629.125 1.94235 1.21677 0
M  V30 6431 C 630.138 0.83724 1.39621 0
M  V30 6432 O 631.327 1.11567 1.39338 0
M  V30 6433 C 628.427 2.19402 2.58294 0
M  V30 6434 C 627.6 3.50671 2.61436 0
M  V30 6435 C 626.659 3.64475 3.79532 0
M  V30 6436 O 625.685 4.36945 3.64784 0
M  V30 6437 N 626.887 3.00526 4.96653 0
M  V30 6438 H 629.652 2.85901 0.898932 0
M  V30 6439 H 627.213 1.58185 0.34483 0
M  V30 6440 H 629.205 2.25886 3.35794 0
M  V30 6441 H 627.775 1.34042 2.82403 0
M  V30 6442 H 626.995 3.55702 1.69912 0
M  V30 6443 H 628.283 4.3702 2.60559 0
M  V30 6444 H 627.681 2.41549 5.11538 0
M  V30 6445 H 626.238 3.12583 5.71958 0
M  V30 6446 O 629.71 -0.29999 1.58689 0
M  V30 6447 H 630.401 -0.947015 1.68971 0
M  V30 END ATOM
M  V30 BEGIN BOND
M  V30 END BOND
M  V30 END CTAB
M  END
$$$$
