drugbank_target|P13702 3-hydroxy-3-methylglutaryl-coenzyme A reductase (DB01992; DB03169; DB03518; DB03785)
 OpenBabel12092120013D

  0  0  0     0  0            999 V3000
M  V30 BEGIN CTAB
M  V30 COUNTS 6449 6498 0 0 0
M  V30 BEGIN ATOM
M  V30 1 H -0.908 1.98254 -0.117106 0
M  V30 2 N 0 1.576 0 0
M  V30 3 C 0.933 2.03868 1.02534 0
M  V30 4 C 1.911 0.928543 1.3348 0
M  V30 5 O 3.095 1.19667 1.45644 0
M  V30 6 C 0.222 2.43627 2.35294 0
M  V30 7 C -0.732 3.65373 2.2001 0
M  V30 8 S 0.101 5.13292 1.52614 0
M  V30 9 C 1.257 5.56322 2.86805 0
M  V30 10 H 1.49 2.90518 0.631377 0
M  V30 11 H -0.977 1.52953 0.210867 0
M  V30 12 H 0.981 2.67203 3.11629 0
M  V30 13 H -0.358 1.57376 2.7183 0
M  V30 14 H -1.165 3.90944 3.18086 0
M  V30 15 H -1.563 3.418 1.51819 0
M  V30 16 H 0.729 5.58782 3.83104 0
M  V30 17 H 1.672 6.56266 2.65933 0
M  V30 18 H 2.08 4.83886 2.90714 0
M  V30 19 N 1.4781 -0.272755 1.55222 0
M  V30 20 C 2.7031 -1.02683 1.80197 0
M  V30 21 C 3.1281 -1.79142 0.573551 0
M  V30 22 O 2.4861 -1.74917 -0.476849 0
M  V30 23 C 2.5341 -1.9609 3.02624 0
M  V30 24 O 1.6381 -3.04863 2.77727 0
M  V30 25 H 0.9791 -0.293557 0.595584 0
M  V30 26 H 3.5091 -0.30159 2.02365 0
M  V30 27 H 3.5191 -2.38039 3.31363 0
M  V30 28 H 2.1941 -1.39851 3.91682 0
M  V30 29 H 0.7711 -2.67228 2.60084 0
M  V30 30 N 2.9562 -1.48159 -0.537278 0
M  V30 31 C 3.8862 -1.65029 -1.6519 0
M  V30 32 C 4.8672 -0.499281 -1.62607 0
M  V30 33 O 6.0522 -0.730972 -1.79918 0
M  V30 34 C 3.1822 -1.68303 -3.03795 0
M  V30 35 C 2.1362 -2.8283 -3.21234 0
M  V30 36 C 1.4622 -2.71189 -4.60826 0
M  V30 37 C 2.7622 -4.24211 -3.04701 0
M  V30 38 H 4.4562 -2.58341 -1.51328 0
M  V30 39 H 2.0022 -1.24325 -0.726585 0
M  V30 40 H 3.9552 -1.78693 -3.81637 0
M  V30 41 H 2.6792 -0.715635 -3.18663 0
M  V30 42 H 1.3382 -2.71983 -2.45807 0
M  V30 43 H 0.9862 -1.72435 -4.7252 0
M  V30 44 H 0.6862 -3.48035 -4.7344 0
M  V30 45 H 2.2102 -2.83537 -5.40777 0
M  V30 46 H 3.6242 -4.3593 -3.72341 0
M  V30 47 H 2.0212 -5.01998 -3.28813 0
M  V30 48 H 3.0912 -4.41184 -2.01209 0
M  V30 49 N 4.4343 0.785586 -1.36625 0
M  V30 50 C 5.7113 1.53198 -1.21613 0
M  V30 51 C 6.0913 2.10187 0.196113 0
M  V30 52 O 5.4393 1.94318 1.20219 0
M  V30 53 C 5.6493 2.62388 -2.30116 0
M  V30 54 C 6.9973 3.30167 -2.66974 0
M  V30 55 O 8.0213 2.72674 -2.29188 0
M  V30 56 O 6.8803 4.34077 -3.32023 0
M  V30 57 H 3.9743 0.677865 -0.473738 0
M  V30 58 H 6.5203 0.823739 -1.48367 0
M  V30 59 H 5.2923 2.18299 -3.24748 0
M  V30 60 H 4.9153 3.40827 -2.0475 0
M  V30 61 N 5.9124 1.20967 1.01018 0
M  V30 62 C 7.1374 1.0503 1.78839 0
M  V30 63 C 7.5624 -0.395752 1.8389 0
M  V30 64 O 6.9204 -1.28529 1.27867 0
M  V30 65 C 6.9684 1.64602 3.2084 0
M  V30 66 O 6.0724 0.887988 4.02726 0
M  V30 67 H 5.4134 0.369987 0.551367 0
M  V30 68 H 7.9434 1.60399 1.27018 0
M  V30 69 H 7.9534 1.68607 3.71532 0
M  V30 70 H 6.6284 2.69841 3.16479 0
M  V30 71 H 5.2054 0.922648 3.61305 0
M  V30 72 N 7.3905 -1.2043 1.01659 0
M  V30 73 C 8.8065 -1.41852 0.731442 0
M  V30 74 C 9.0065 -1.89358 -0.688898 0
M  V30 75 O 8.0625 -2.06247 -1.45666 0
M  V30 76 C 9.3755 -2.44019 1.75714 0
M  V30 77 C 10.9235 -2.57785 1.77527 0
M  V30 78 C 11.3985 -3.63194 2.79023 0
M  V30 79 N 12.8895 -3.70678 2.77763 0
M  V30 80 C 13.6245 -4.51897 3.52954 0
M  V30 81 N 13.1205 -5.36921 4.37821 0
M  V30 82 N 14.9135 -4.4643 3.41551 0
M  V30 83 H 7.0645 -0.879093 1.93354 0
M  V30 84 H 9.3275 -0.448425 0.835236 0
M  V30 85 H 9.0335 -2.1611 2.77469 0
M  V30 86 H 8.9075 -3.43007 1.56927 0
M  V30 87 H 11.2945 -2.85023 0.764569 0
M  V30 88 H 11.3755 -1.58992 2.00387 0
M  V30 89 H 11.0195 -3.36699 3.80258 0
M  V30 90 H 10.9495 -4.61609 2.53425 0
M  V30 91 H 13.4405 -3.09944 2.16201 0
M  V30 92 H 13.7535 -5.95981 4.91962 0
M  V30 93 H 12.0985 -5.36424 4.41899 0
M  V30 94 H 15.2895 -3.79042 2.74672 0
M  V30 95 H 15.4625 -5.09491 4.00404 0
M  V30 96 N 8.8686 -0.792821 -1.36206 0
M  V30 97 C 9.7986 -0.207853 -2.32573 0
M  V30 98 C 10.7796 0.659055 -1.56813 0
M  V30 99 O 11.9646 0.592176 -1.84951 0
M  V30 100 C 9.0946 0.655449 -3.41059 0
M  V30 101 C 8.0486 -0.111842 -4.27854 0
M  V30 102 C 7.3746 0.872274 -5.27537 0
M  V30 103 C 8.6746 -1.30299 -5.05786 0
M  V30 104 H 10.3686 -1.01294 -2.81744 0
M  V30 105 H 7.9146 -0.48854 -1.3546 0
M  V30 106 H 9.8676 1.07464 -4.07467 0
M  V30 107 H 8.5916 1.49328 -2.90463 0
M  V30 108 H 7.2506 -0.512053 -3.63006 0
M  V30 109 H 6.8986 1.70523 -4.73214 0
M  V30 110 H 6.5986 0.363291 -5.86476 0
M  V30 111 H 8.1226 1.28996 -5.96818 0
M  V30 112 H 9.5366 -0.959379 -5.65216 0
M  V30 113 H 7.9336 -1.7455 -5.74154 0
M  V30 114 H 9.0036 -2.09663 -4.37229 0
M  V30 115 N 10.3467 1.47872 -0.545128 0
M  V30 116 C 11.7577 1.86384 -0.108581 0
M  V30 117 C 12.1087 1.45309 1.31832 0
M  V30 118 O 11.2337 0.850641 1.9898 0
M  V30 119 C 11.8287 3.38265 -0.190274 0
M  V30 120 C 10.3877 3.75914 0.191164 0
M  V30 121 C 9.5347 2.71926 -0.543273 0
M  V30 122 H 12.4857 1.39561 -0.755537 0
M  V30 123 H 12.5067 3.75831 0.594217 0
M  V30 124 H 12.0187 3.6813 -1.2289 0
M  V30 125 H 10.1197 3.51665 1.23136 0
M  V30 126 H 10.2327 4.78836 -0.158987 0
M  V30 127 H 8.5967 2.54697 0.0122495 0
M  V30 128 H 9.3797 3.04634 -1.58282 0
M  V30 129 N 11.8248 0.280983 1.55075 0
M  V30 130 C 12.7878 -0.590896 2.21452 0
M  V30 131 C 13.7878 -1.07682 1.19421 0
M  V30 132 O 14.9778 -0.97605 1.44288 0
M  V30 133 C 12.1098 -1.81587 2.88511 0
M  V30 134 H 13.3028 -0.0112554 2.99898 0
M  V30 135 H 10.8558 0.0316438 1.56268 0
M  V30 136 H 11.5908 -2.43587 2.14093 0
M  V30 137 H 11.3758 -1.4753 3.63287 0
M  V30 138 H 12.8658 -2.43575 3.39206 0
M  V30 139 N 13.3029 -1.57598 0.00835791 0
M  V30 140 C 14.5499 -1.90928 -0.674732 0
M  V30 141 C 14.8779 -0.88277 -1.73313 0
M  V30 142 O 14.1329 0.111294 -1.95383 0
M  V30 143 C 14.4319 -3.3101 -1.34787 0
M  V30 144 C 14.0979 -4.48922 -0.421861 0
M  V30 145 C 12.7599 -4.8091 -0.166927 0
M  V30 146 C 15.1119 -5.20755 0.215211 0
M  V30 147 C 12.4399 -5.821 0.733232 0
M  V30 148 C 14.7919 -6.22905 1.1033 0
M  V30 149 C 13.4559 -6.53346 1.36733 0
M  V30 150 H 12.7259 -0.698656 -0.246902 0
M  V30 151 H 15.3729 -1.91387 0.0656779 0
M  V30 152 H 13.6779 -3.26714 -2.16253 0
M  V30 153 H 15.3749 -3.54061 -1.8826 0
M  V30 154 H 11.9649 -4.23934 -0.630729 0
M  V30 155 H 16.1489 -4.9629 0.0312829 0
M  V30 156 H 11.4049 -6.04042 0.945712 0
M  V30 157 H 15.5789 -6.77694 1.60325 0
M  V30 158 H 13.2059 -7.31573 2.06652 0
M  V30 159 N 14.781 0.264519 -1.55364 0
M  V30 160 C 16.197 0.61215 -1.47394 0
M  V30 161 C 16.397 1.89134 -0.695018 0
M  V30 162 O 15.453 2.51563 -0.217275 0
M  V30 163 C 16.766 0.731235 -2.91674 0
M  V30 164 C 18.314 0.82473 -3.01939 0
M  V30 165 C 18.789 0.975522 -4.4749 0
M  V30 166 N 20.28 1.04083 -4.51354 0
M  V30 167 C 21.015 1.17646 -5.61201 0
M  V30 168 N 20.511 1.27874 -6.80896 0
M  V30 169 N 22.304 1.20823 -5.48961 0
M  V30 170 H 14.455 -0.575456 -2.04456 0
M  V30 171 H 16.718 -0.196099 -0.927496 0
M  V30 172 H 16.424 -0.138392 -3.51428 0
M  V30 173 H 16.298 1.60883 -3.41169 0
M  V30 174 H 18.685 1.68482 -2.42276 0
M  V30 175 H 18.766 -0.0776479 -2.55682 0
M  V30 176 H 18.41 0.120058 -5.07758 0
M  V30 177 H 18.34 1.89268 -4.91412 0
M  V30 178 H 20.831 0.973846 -3.65136 0
M  V30 179 H 21.144 1.38081 -7.60364 0
M  V30 180 H 19.489 1.24863 -6.83692 0
M  V30 181 H 22.68 1.12469 -4.54388 0
M  V30 182 H 22.853 1.31049 -6.3461 0
M  V30 183 N 16.2591 1.48442 0.529413 0
M  V30 184 C 17.2071 1.63452 1.65487 0
M  V30 185 C 18.2011 0.500955 1.61823 0
M  V30 186 O 19.4071 0.679695 1.66674 0
M  V30 187 H 15.7821 0.514905 0.548066 0
M  V30 188 H 17.7531 2.57975 1.49971 0
M  V30 189 C 16.5021 1.69196 3.03756 0
M  V30 190 H 15.8251 2.55784 3.07269 0
M  V30 191 H 17.2651 1.83743 3.82119 0
M  V30 192 C 15.7241 0.430765 3.34135 0
M  V30 193 O 16.2541 -0.4561 3.99102 0
M  V30 194 N 14.4601 0.302293 2.89023 0
M  V30 195 H 14.0071 1.02496 2.36331 0
M  V30 196 H 13.9651 -0.540546 3.09718 0
M  V30 197 N 17.7372 -0.778329 1.37039 0
M  V30 198 C 18.6672 -1.90546 1.34962 0
M  V30 199 C 19.6482 -1.68681 0.219274 0
M  V30 200 O 20.8332 -1.89634 0.418624 0
M  V30 201 C 17.9632 -3.27734 1.14925 0
M  V30 202 C 16.9172 -3.64147 2.24902 0
M  V30 203 C 16.2432 -4.99806 1.89996 0
M  V30 204 C 17.5432 -3.71579 3.67051 0
M  V30 205 H 19.2372 -1.92541 2.29277 0
M  V30 206 H 16.7832 -0.924948 1.10366 0
M  V30 207 H 18.7362 -4.06215 1.12104 0
M  V30 208 H 17.4602 -3.26154 0.170631 0
M  V30 209 H 16.1192 -2.8797 2.26868 0
M  V30 210 H 15.7672 -4.94759 0.906796 0
M  V30 211 H 15.4672 -5.25139 2.63634 0
M  V30 212 H 16.9912 -5.80694 1.88749 0
M  V30 213 H 18.4052 -4.40227 3.67251 0
M  V30 214 H 16.8022 -4.08405 4.39688 0
M  V30 215 H 17.8722 -2.72404 4.01154 0
M  V30 216 N 19.2153 -1.21501 -1.00376 0
M  V30 217 C 20.4403 -1.05977 -1.78279 0
M  V30 218 C 20.8653 0.385994 -1.84097 0
M  V30 219 O 20.2233 1.27849 -1.28547 0
M  V30 220 C 20.2713 -1.66302 -3.19963 0
M  V30 221 O 19.3753 -0.909333 -4.0225 0
M  V30 222 H 18.7163 -0.372906 -0.549397 0
M  V30 223 H 21.2463 -1.6107 -1.26165 0
M  V30 224 H 21.2563 -1.70574 -3.70632 0
M  V30 225 H 19.9313 -2.71515 -3.15043 0
M  V30 226 H 18.5083 -0.941795 -3.60811 0
M  V30 227 N 20.6934 1.19889 -1.02296 0
M  V30 228 C 22.1044 1.71124 -0.746568 0
M  V30 229 C 22.4554 1.81939 0.734335 0
M  V30 230 O 21.5804 1.48639 1.57275 0
M  V30 231 C 22.1754 3.10804 -1.34857 0
M  V30 232 C 20.7344 3.59323 -1.1209 0
M  V30 233 C 19.8814 2.3635 -1.45031 0
M  V30 234 H 22.8324 1.04813 -1.19163 0
M  V30 235 H 22.8534 3.73186 -0.742437 0
M  V30 236 H 22.3654 3.029 -2.42638 0
M  V30 237 H 20.4664 3.7255 -0.0610337 0
M  V30 238 H 20.5794 4.4378 -1.80544 0
M  V30 239 H 18.9434 2.39399 -0.869487 0
M  V30 240 H 19.7264 2.31081 -2.53883 0
M  V30 241 N 22.1715 0.800033 1.35784 0
M  V30 242 C 23.1345 0.211565 2.28221 0
M  V30 243 C 24.1345 -0.59728 1.49296 0
M  V30 244 O 25.3245 -0.416721 1.69142 0
M  V30 245 C 22.4565 -0.705846 3.33513 0
M  V30 246 H 23.6495 1.02677 2.81776 0
M  V30 247 H 21.2025 0.570211 1.45528 0
M  V30 248 H 21.9375 -1.54498 2.85133 0
M  V30 249 H 21.7225 -0.127655 3.91892 0
M  V30 250 H 23.2125 -1.11211 4.02519 0
M  V30 251 N 23.6496 -1.47581 0.552962 0
M  V30 252 C 24.6126 -2.28439 -0.186605 0
M  V30 253 C 25.6126 -1.36706 -0.84665 0
M  V30 254 O 26.8026 -1.59378 -0.703164 0
M  V30 255 C 23.9346 -3.16264 -1.2724 0
M  V30 256 H 25.1276 -2.95294 0.523609 0
M  V30 257 H 22.6806 -1.532 0.309745 0
M  V30 258 H 23.4156 -2.54091 -2.01514 0
M  V30 259 H 23.2006 -3.83769 -0.803968 0
M  V30 260 H 24.6906 -3.77198 -1.79196 0
M  V30 261 N 25.1277 -0.289203 -1.54924 0
M  V30 262 C 26.5437 0.0645403 -1.59469 0
M  V30 263 C 26.7437 1.53419 -1.30632 0
M  V30 264 O 25.7997 2.2852 -1.074 0
M  V30 265 C 27.1127 -0.32278 -2.98963 0
M  V30 266 C 28.6607 -0.270564 -3.11828 0
M  V30 267 C 29.1357 -0.632532 -4.53611 0
M  V30 268 N 30.6267 -0.584617 -4.59496 0
M  V30 269 C 31.3617 -0.837314 -5.67254 0
M  V30 270 N 30.8577 -1.15536 -6.83098 0
M  V30 271 N 32.6507 -0.765166 -5.56868 0
M  V30 272 H 24.8017 -1.24714 -1.71931 0
M  V30 273 H 27.0647 -0.504809 -0.802416 0
M  V30 274 H 26.7707 -1.34541 -3.24948 0
M  V30 275 H 26.6447 0.32944 -3.75759 0
M  V30 276 H 29.0317 0.742805 -2.85598 0
M  V30 277 H 29.1127 -0.957242 -2.37214 0
M  V30 278 H 28.7567 -1.64365 -4.80569 0
M  V30 279 H 28.6867 0.07609 -5.26545 0
M  V30 280 H 31.1777 -0.349248 -3.76283 0
M  V30 281 H 31.4907 -1.33447 -7.61191 0
M  V30 282 H 29.8357 -1.19328 -6.84679 0
M  V30 283 H 33.0267 -0.516432 -4.65243 0
M  V30 284 H 33.1997 -0.965477 -6.40767 0
M  V30 285 N 26.6058 1.57591 -0.0167156 0
M  V30 286 C 27.5358 2.12496 0.967858 0
M  V30 287 C 28.5168 1.03807 1.34752 0
M  V30 288 O 29.7018 1.31577 1.42833 0
M  V30 289 C 26.8318 2.64194 2.25431 0
M  V30 290 C 25.7858 3.77559 2.01576 0
M  V30 291 C 25.1118 4.15636 3.36379 0
M  V30 292 C 26.4118 5.04151 1.36489 0
M  V30 293 H 28.1058 2.95013 0.510643 0
M  V30 294 H 25.6518 1.41915 0.244181 0
M  V30 295 H 27.6048 3.01236 2.94678 0
M  V30 296 H 26.3288 1.78821 2.73296 0
M  V30 297 H 24.9878 3.40937 1.34751 0
M  V30 298 H 24.6358 3.27263 3.81979 0
M  V30 299 H 24.3358 4.92022 3.21229 0
M  V30 300 H 25.8598 4.5525 4.06915 0
M  V30 301 H 27.2738 5.38857 1.95718 0
M  V30 302 H 25.6708 5.85453 1.31776 0
M  V30 303 H 26.7408 4.83733 0.336219 0
M  V30 304 N 28.0839 -0.256276 1.55502 0
M  V30 305 C 29.3609 -1.00789 1.67633 0
M  V30 306 C 29.7409 -2.03706 0.553826 0
M  V30 307 O 29.0889 -2.24145 -0.443969 0
M  V30 308 C 29.2989 -1.64968 3.07549 0
M  V30 309 C 30.6469 -2.15505 3.65845 0
M  V30 310 O 31.6709 -1.74925 3.1029 0
M  V30 311 O 30.5299 -2.89986 4.63217 0
M  V30 312 H 27.6239 -0.468553 0.681459 0
M  V30 313 H 30.1699 -0.250806 1.67836 0
M  V30 314 H 28.9419 -0.904785 3.80696 0
M  V30 315 H 28.5649 -2.47321 3.11317 0
M  V30 316 N 29.562 -1.4872 -0.521534 0
M  V30 317 C 30.512 -1.60269 -1.62166 0
M  V30 318 C 31.496 -0.45935 -1.54204 0
M  V30 319 O 32.688 -0.711241 -1.62081 0
M  V30 320 C 29.817 -1.65344 -3.00859 0
M  V30 321 C 28.903 -2.85187 -3.13894 0
M  V30 322 N 29.294 -4.09509 -2.96877 0
M  V30 323 C 27.592 -2.82695 -3.44963 0
M  V30 324 C 28.293 -4.89959 -3.13552 0
M  V30 325 N 27.269 -4.22934 -3.41508 0
M  V30 326 H 31.071 -2.5413 -1.47632 0
M  V30 327 H 28.585 -1.45209 -0.727194 0
M  V30 328 H 30.582 -1.71713 -3.79895 0
M  V30 329 H 29.242 -0.726058 -3.16478 0
M  V30 330 H 30.253 -4.39814 -2.73467 0
M  V30 331 H 26.93 -1.99249 -3.66887 0
M  V30 332 H 28.32 -5.98654 -3.05061 0
M  V30 333 N 31.0401 0.771051 -1.3745 0
M  V30 334 C 32.2891 1.52491 -1.3202 0
M  V30 335 C 32.6021 1.9538 0.0927347 0
M  V30 336 O 33.8081 2.70159 0.269503 0
M  V30 337 C 32.2641 2.75366 -2.31736 0
M  V30 338 C 31.8721 2.39573 -3.78562 0
M  V30 339 C 33.6161 3.53307 -2.35318 0
M  V30 340 C 31.5231 3.58954 -4.70007 0
M  V30 341 H 30.4531 0.572506 -0.490666 0
M  V30 342 H 33.1041 0.844474 -1.62914 0
M  V30 343 H 31.4861 3.45303 -1.93861 0
M  V30 344 H 32.6601 1.77415 -4.25277 0
M  V30 345 H 30.9751 1.74805 -3.77932 0
M  V30 346 H 33.5721 4.42039 -3.00842 0
M  V30 347 H 33.9151 3.93217 -1.36698 0
M  V30 348 H 34.4481 2.90367 -2.71904 0
M  V30 349 H 31.1871 3.24125 -5.69757 0
M  V30 350 H 30.7071 4.20214 -4.27996 0
M  V30 351 H 32.3861 4.25758 -4.87175 0
M  V30 352 N 32.5182 1.22032 0.997298 0
M  V30 353 C 33.7662 1.04016 1.73278 0
M  V30 354 C 34.0872 -0.426255 1.90284 0
M  V30 355 O 33.3572 -1.30694 1.45931 0
M  V30 356 H 31.9372 0.381897 0.642 0
M  V30 357 H 34.5992 1.5347 1.20137 0
M  V30 358 H 33.6952 1.51441 2.72896 0
M  V30 359 N 33.9963 -1.19345 1.0293 0
M  V30 360 C 34.9283 -2.22036 0.56857 0
M  V30 361 C 35.9413 -1.58865 -0.355779 0
M  V30 362 O 37.1303 -1.77851 -0.152103 0
M  V30 363 C 34.2303 -3.38363 -0.190752 0
M  V30 364 C 33.4033 -4.31118 0.738643 0
M  V30 365 C 32.4623 -5.26194 0.0246497 0
M  V30 366 O 31.4883 -5.65461 0.651354 0
M  V30 367 N 32.6903 -5.66971 -1.24594 0
M  V30 368 H 35.4553 -2.6219 1.45177 0
M  V30 369 H 33.0163 -1.34015 0.908381 0
M  V30 370 H 35.0083 -3.98981 -0.677961 0
M  V30 371 H 33.5783 -2.96994 -0.975366 0
M  V30 372 H 32.7983 -3.68276 1.40593 0
M  V30 373 H 34.0863 -4.90001 1.37029 0
M  V30 374 H 33.4843 -5.37104 -1.77583 0
M  V30 375 H 32.0413 -6.2984 -1.67764 0
M  V30 376 N 35.4744 -0.807222 -1.35358 0
M  V30 377 C 36.4044 -0.232509 -2.3234 0
M  V30 378 C 37.3854 0.642386 -1.57504 0
M  V30 379 O 38.5704 0.572526 -1.85569 0
M  V30 380 C 35.7004 0.619238 -3.41735 0
M  V30 381 C 34.6544 -0.157215 -4.27711 0
M  V30 382 C 33.9804 0.816273 -5.28433 0
M  V30 383 C 35.2804 -1.35656 -5.04376 0
M  V30 384 H 36.9744 -1.04276 -2.80654 0
M  V30 385 H 34.5204 -0.50288 -1.34934 0
M  V30 386 H 36.4734 1.03137 -4.08584 0
M  V30 387 H 35.1974 1.46239 -2.92031 0
M  V30 388 H 33.8564 -0.550525 -3.62443 0
M  V30 389 H 33.5044 1.65494 -4.74996 0
M  V30 390 H 33.2044 0.301067 -5.86828 0
M  V30 391 H 34.7284 1.22659 -5.98153 0
M  V30 392 H 36.1424 -1.01927 -5.64166 0
M  V30 393 H 34.5394 -1.8063 -5.7227 0
M  V30 394 H 35.6094 -2.14288 -4.34981 0
M  V30 395 N 36.9525 1.47285 -0.560781 0
M  V30 396 C 37.8825 2.32857 0.173105 0
M  V30 397 C 38.8635 1.44009 0.905281 0
M  V30 398 O 40.0485 1.7286 0.885046 0
M  V30 399 C 37.1785 3.25861 1.20133 0
M  V30 400 C 36.1325 4.23978 0.585388 0
M  V30 401 C 35.4585 5.06332 1.7185 0
M  V30 402 C 36.7585 5.20242 -0.463178 0
M  V30 403 H 38.4525 2.94466 -0.541307 0
M  V30 404 H 35.9985 1.41601 -0.261764 0
M  V30 405 H 37.9515 3.84569 1.72293 0
M  V30 406 H 36.6755 2.62315 1.94573 0
M  V30 407 H 35.3345 3.66501 0.085054 0
M  V30 408 H 34.9825 4.39186 2.45203 0
M  V30 409 H 34.6825 5.72762 1.31213 0
M  V30 410 H 36.2065 5.67899 2.24329 0
M  V30 411 H 37.6205 5.73293 -0.027502 0
M  V30 412 H 36.0175 5.94896 -0.788627 0
M  V30 413 H 37.0875 4.65504 -1.35773 0
M  V30 414 N 38.4306 0.297415 1.54768 0
M  V30 415 C 39.6786 -0.312295 1.99673 0
M  V30 416 C 39.9996 -1.54686 1.18732 0
M  V30 417 O 39.2696 -1.93854 0.282382 0
M  V30 418 H 37.8496 -0.118381 0.73756 0
M  V30 419 H 40.5116 0.407915 1.90583 0
M  V30 420 H 39.6076 -0.586813 3.06534 0
M  V30 421 N 39.9087 -1.5758 0.0250728 0
M  V30 422 C 40.8387 -2.13007 -0.956575 0
M  V30 423 C 41.8197 -1.0452 -1.342 0
M  V30 424 O 43.0047 -1.32332 -1.42133 0
M  V30 425 C 40.1347 -2.65386 -2.24026 0
M  V30 426 C 39.0887 -3.78623 -1.99571 0
M  V30 427 C 38.4147 -4.17414 -3.3417 0
M  V30 428 C 39.7147 -5.04867 -1.33814 0
M  V30 429 H 41.4087 -2.9528 -0.494991 0
M  V30 430 H 38.9547 -1.42042 -0.236651 0
M  V30 431 H 40.9077 -3.02794 -2.93076 0
M  V30 432 H 39.6317 -1.80268 -2.72343 0
M  V30 433 H 38.2907 -3.41646 -1.32941 0
M  V30 434 H 37.9387 -3.29284 -3.80238 0
M  V30 435 H 37.6387 -4.93719 -3.18615 0
M  V30 436 H 39.1627 -4.57402 -4.04495 0
M  V30 437 H 40.5767 -5.39888 -1.92857 0
M  V30 438 H 38.9737 -5.86144 -1.28669 0
M  V30 439 H 40.0437 -4.83904 -0.310561 0
M  V30 440 N 41.3868 0.248026 -1.55636 0
M  V30 441 C 42.6118 0.998028 -1.81808 0
M  V30 442 C 43.0368 1.78207 -0.601979 0
M  V30 443 O 42.3948 1.75653 0.448961 0
M  V30 444 C 42.4428 1.9125 -3.05705 0
M  V30 445 O 41.5468 3.00406 -2.82542 0
M  V30 446 H 40.8878 0.284045 -0.600179 0
M  V30 447 H 43.4178 0.269357 -2.02819 0
M  V30 448 H 43.4278 2.32737 -3.35108 0
M  V30 449 H 42.1028 1.33602 -3.93857 0
M  V30 450 H 40.6798 2.63056 -2.64303 0
M  V30 451 N 42.8649 1.48995 0.513639 0
M  V30 452 C 43.8149 1.61127 1.61314 0
M  V30 453 C 44.7989 0.467521 1.53958 0
M  V30 454 O 45.9909 0.719826 1.61702 0
M  V30 455 C 43.1199 1.66937 2.99978 0
M  V30 456 C 42.2059 2.86847 3.12377 0
M  V30 457 N 42.5969 4.11078 2.94701 0
M  V30 458 C 40.8949 2.84521 3.43459 0
M  V30 459 C 41.5959 4.91615 3.10949 0
M  V30 460 N 40.5719 4.24739 3.3926 0
M  V30 461 H 44.3739 2.54909 1.46282 0
M  V30 462 H 41.8879 1.45593 0.719483 0
M  V30 463 H 43.8849 1.73725 3.78979 0
M  V30 464 H 42.5449 0.742831 3.16089 0
M  V30 465 H 43.5559 4.41258 2.71131 0
M  V30 466 H 40.2329 2.01192 3.65825 0
M  V30 467 H 41.6229 6.00264 3.01882 0
M  V30 468 N 44.343 -0.763751 1.37857 0
M  V30 469 C 45.62 -1.51244 1.24035 0
M  V30 470 C 46 -2.10472 -0.162649 0
M  V30 471 O 45.348 -1.96206 -1.17112 0
M  V30 472 C 45.558 -2.58694 2.34261 0
M  V30 473 C 46.906 -3.25878 2.72193 0
M  V30 474 O 47.93 -2.68993 2.33497 0
M  V30 475 O 46.789 -4.2874 3.38887 0
M  V30 476 H 43.883 -0.670243 0.484462 0
M  V30 477 H 46.429 -0.800031 1.49658 0
M  V30 478 H 45.201 -2.13105 3.2818 0
M  V30 479 H 44.824 -3.37527 2.10146 0
M  V30 480 N 45.8211 -1.22559 -0.990812 0
M  V30 481 C 47.0981 -0.959875 -1.70428 0
M  V30 482 C 47.4781 0.524455 -2.04481 0
M  V30 483 O 46.8261 1.49302 -1.72977 0
M  V30 484 C 47.0361 -1.85955 -2.95333 0
M  V30 485 C 48.3841 -2.11687 -3.68068 0
M  V30 486 O 49.4081 -1.8342 -3.05345 0
M  V30 487 O 48.2671 -2.59572 -4.80921 0
M  V30 488 H 45.3611 -0.361154 -0.743974 0
M  V30 489 H 47.9071 -1.33554 -1.04697 0
M  V30 490 H 46.6791 -2.86346 -2.66687 0
M  V30 491 H 46.3021 -1.4856 -3.68803 0
M  V30 492 N 47.2992 1.18797 -1.03562 0
M  V30 493 C 48.5452 1.8893 -0.737113 0
M  V30 494 C 48.8782 1.79837 0.732956 0
M  V30 495 O 48.1532 1.19525 1.5344 0
M  V30 496 C 48.4362 3.39607 -1.19745 0
M  V30 497 C 48.2892 3.57537 -2.72924 0
M  V30 498 C 49.6082 4.33069 -0.783526 0
M  V30 499 H 46.7272 0.686057 -0.269249 0
M  V30 500 H 49.3692 1.39797 -1.28673 0
M  V30 501 H 47.5192 3.81583 -0.729855 0
M  V30 502 H 49.1912 3.24688 -3.27682 0
M  V30 503 H 47.4342 3.00363 -3.12993 0
M  V30 504 H 48.1052 4.63238 -3.00191 0
M  V30 505 H 50.5812 3.98846 -1.18581 0
M  V30 506 H 49.4572 5.3707 -1.13343 0
M  V30 507 H 49.7182 4.40986 0.313681 0
M  V30 508 N 48.7773 0.814389 1.34928 0
M  V30 509 C 50.0023 0.410097 2.03305 0
M  V30 510 C 50.4273 -0.973464 1.60951 0
M  V30 511 O 49.7853 -1.63185 0.789964 0
M  V30 512 C 49.8333 0.51049 3.56968 0
M  V30 513 O 48.9373 -0.473035 4.09678 0
M  V30 514 H 48.2783 0.170088 0.641846 0
M  V30 515 H 50.8083 1.10244 1.72358 0
M  V30 516 H 50.8183 0.383135 4.06197 0
M  V30 517 H 49.4933 1.51963 3.87144 0
M  V30 518 H 48.0703 -0.305272 3.71648 0
M  V30 519 N 50.2554 -1.46986 0.568584 0
M  V30 520 C 51.1854 -2.32946 -0.160753 0
M  V30 521 C 52.1664 -1.44487 -0.897631 0
M  V30 522 O 53.3514 -1.73327 -0.875867 0
M  V30 523 C 50.4814 -3.26494 -1.18403 0
M  V30 524 C 49.4354 -4.24282 -0.562895 0
M  V30 525 C 48.7614 -5.07236 -1.69163 0
M  V30 526 C 50.0614 -5.19989 0.490761 0
M  V30 527 H 51.7554 -2.94175 0.556916 0
M  V30 528 H 49.3014 -1.4146 0.26927 0
M  V30 529 H 51.2544 -3.85477 -1.70251 0
M  V30 530 H 49.9784 -2.63343 -1.93179 0
M  V30 531 H 48.6374 -3.66541 -0.0656164 0
M  V30 532 H 48.2854 -4.4048 -2.42871 0
M  V30 533 H 47.9854 -5.7345 -1.28174 0
M  V30 534 H 49.5094 -5.6908 -2.21314 0
M  V30 535 H 50.9234 -5.73271 0.0579047 0
M  V30 536 H 49.3204 -5.94469 0.820165 0
M  V30 537 H 50.3904 -4.64777 1.3824 0
M  V30 538 N 51.7335 -0.305618 -1.54608 0
M  V30 539 C 52.6635 0.561482 -2.26649 0
M  V30 540 C 53.6445 1.13415 -1.26772 0
M  V30 541 O 54.8295 1.16262 -1.55553 0
M  V30 542 C 51.9595 1.73122 -3.01075 0
M  V30 543 C 50.9135 1.2887 -4.08138 0
M  V30 544 C 50.2395 2.54396 -4.70305 0
M  V30 545 C 51.5395 0.416578 -5.20636 0
M  V30 546 H 53.2335 -0.0393902 -2.99374 0
M  V30 547 H 50.7795 -0.020385 -1.43986 0
M  V30 548 H 52.7325 2.34396 -3.50195 0
M  V30 549 H 51.4565 2.3584 -2.25936 0
M  V30 550 H 50.1155 0.698991 -3.59875 0
M  V30 551 H 49.7635 3.15439 -3.918 0
M  V30 552 H 49.4635 2.25486 -5.42614 0
M  V30 553 H 50.9875 3.16464 -5.2219 0
M  V30 554 H 52.4015 0.935116 -5.65622 0
M  V30 555 H 50.7985 0.221046 -5.99693 0
M  V30 556 H 51.8685 -0.557162 -4.81688 0
M  V30 557 N 53.2116 1.57565 -0.0334293 0
M  V30 558 C 54.1746 2.09393 0.932048 0
M  V30 559 C 55.1746 1.00986 1.25134 0
M  V30 560 O 56.3646 1.27129 1.19096 0
M  V30 561 C 53.4966 2.56338 2.2473 0
M  V30 562 H 54.6896 2.95984 0.483085 0
M  V30 563 H 52.2426 1.54819 0.21468 0
M  V30 564 H 52.9776 1.7309 2.74245 0
M  V30 565 H 52.7626 3.35542 2.02865 0
M  V30 566 H 54.2526 2.96646 2.93923 0
M  V30 567 N 54.6897 -0.239769 1.55765 0
M  V30 568 C 55.6377 -1.31668 1.91745 0
M  V30 569 C 56.6317 -1.49462 0.797338 0
M  V30 570 O 57.8377 -1.50852 0.982021 0
M  V30 571 H 54.2127 -0.441048 0.609082 0
M  V30 572 H 56.1837 -0.985923 2.81642 0
M  V30 573 C 54.9327 -2.66368 2.2348 0
M  V30 574 H 54.2557 -2.53478 3.09175 0
M  V30 575 H 55.6957 -3.40578 2.52553 0
M  V30 576 C 54.1547 -3.20002 1.05359 0
M  V30 577 O 54.6847 -4.00538 0.305261 0
M  V30 578 N 52.8907 -2.78126 0.842292 0
M  V30 579 H 52.4377 -2.12742 1.45253 0
M  V30 580 H 52.3957 -3.14354 0.053652 0
M  V30 581 N 56.1678 -1.49265 -0.50573 0
M  V30 582 C 57.1308 -1.65075 -1.59006 0
M  V30 583 C 58.1308 -0.522768 -1.52065 0
M  V30 584 O 59.3208 -0.789117 -1.55302 0
M  V30 585 C 56.4528 -1.64369 -2.98656 0
M  V30 586 H 57.6458 -2.61784 -1.46319 0
M  V30 587 H 55.1988 -1.38226 -0.729616 0
M  V30 588 H 55.9338 -0.692272 -3.16825 0
M  V30 589 H 55.7188 -2.46282 -3.05103 0
M  V30 590 H 57.2088 -1.78674 -3.77446 0
M  V30 591 N 57.6459 0.756429 -1.3826 0
M  V30 592 C 58.8939 1.51248 -1.34047 0
M  V30 593 C 59.2149 1.94875 0.0698372 0
M  V30 594 O 58.4849 1.67436 1.01696 0
M  V30 595 H 57.0649 0.561018 -0.493222 0
M  V30 596 H 59.7269 0.899347 -1.7291 0
M  V30 597 H 58.8229 2.40472 -1.98947 0
M  V30 598 N 59.124 1.23083 0.984299 0
M  V30 599 C 60.087 1.00979 2.05757 0
M  V30 600 C 61.087 -0.0269573 1.60777 0
M  V30 601 O 62.277 0.212403 1.729 0
M  V30 602 C 59.409 0.527072 3.36801 0
M  V30 603 H 60.602 1.9622 2.26799 0
M  V30 604 H 58.155 1.05072 1.15714 0
M  V30 605 H 58.89 -0.429294 3.21446 0
M  V30 606 H 58.675 1.27515 3.70786 0
M  V30 607 H 60.165 0.392942 4.15747 0
M  V30 608 N 60.6021 -1.18246 1.0419 0
M  V30 609 C 61.5321 -2.24127 0.654914 0
M  V30 610 C 62.5131 -1.66617 -0.342451 0
M  V30 611 O 63.6981 -1.92924 -0.222277 0
M  V30 612 C 60.8281 -3.47295 0.0183757 0
M  V30 613 C 59.7821 -4.17563 0.939414 0
M  V30 614 C 59.1081 -5.34438 0.167286 0
M  V30 615 C 60.4081 -4.70917 2.25908 0
M  V30 616 H 62.1021 -2.56753 1.54007 0
M  V30 617 H 59.6481 -1.23414 0.74195 0
M  V30 618 H 61.6011 -4.20572 -0.264082 0
M  V30 619 H 60.3251 -3.13907 -0.901664 0
M  V30 620 H 58.9841 -3.46186 1.20628 0
M  V30 621 H 58.6321 -4.97298 -0.7552 0
M  V30 622 H 58.3321 -5.82388 0.780901 0
M  V30 623 H 59.8561 -6.10504 -0.108125 0
M  V30 624 H 61.2701 -5.35882 2.03724 0
M  V30 625 H 59.6671 -5.29406 2.82577 0
M  V30 626 H 60.7371 -3.88272 2.9047 0
M  V30 627 N 62.0802 -0.821533 -1.34494 0
M  V30 628 C 63.4912 -0.467956 -1.8074 0
M  V30 629 C 63.8422 1.01151 -1.68116 0
M  V30 630 O 62.9672 1.78707 -1.22036 0
M  V30 631 C 63.5622 -0.842627 -3.28154 0
M  V30 632 C 62.1212 -0.541439 -3.72485 0
M  V30 633 C 61.2682 -1.06028 -2.56229 0
M  V30 634 H 64.2192 -1.01183 -1.22261 0
M  V30 635 H 64.2402 -0.145876 -3.8022 0
M  V30 636 H 63.7522 -1.91945 -3.37311 0
M  V30 637 H 61.8532 0.526034 -3.68868 0
M  V30 638 H 61.9662 -1.08453 -4.66663 0
M  V30 639 H 60.3302 -0.481892 -2.501 0
M  V30 640 H 61.1132 -2.14352 -2.68157 0
M  V30 641 N 63.5583 1.46682 -0.576371 0
M  V30 642 C 64.4913 2.27243 0.208731 0
M  V30 643 C 65.4693 1.35238 0.902746 0
M  V30 644 O 66.6533 1.64641 0.917904 0
M  V30 645 C 63.7803 3.12802 1.29896 0
M  V30 646 C 62.8263 4.20524 0.711457 0
M  V30 647 S 63.6593 5.33548 -0.456781 0
M  V30 648 C 64.8153 6.22673 0.634798 0
M  V30 649 H 65.0483 2.93484 -0.474838 0
M  V30 650 H 62.5813 1.50069 -0.363118 0
M  V30 651 H 64.5393 3.62661 1.92321 0
M  V30 652 H 63.2003 2.45887 1.95444 0
M  V30 653 H 62.3933 4.80191 1.53076 0
M  V30 654 H 61.9953 3.73645 0.162999 0
M  V30 655 H 64.2873 6.60181 1.52209 0
M  V30 656 H 65.2303 7.0806 0.0750311 0
M  V30 657 H 65.6383 5.56684 0.936092 0
M  V30 658 N 65.0364 0.313813 1.54444 0
M  V30 659 C 66.3134 -0.345447 1.92525 0
M  V30 660 C 66.6934 -1.70667 1.24242 0
M  V30 661 O 66.0414 -2.25273 0.382654 0
M  V30 662 C 66.2514 -0.44737 3.46121 0
M  V30 663 C 67.5994 -0.712238 4.18584 0
M  V30 664 O 68.6234 -0.530678 3.52225 0
M  V30 665 O 67.4824 -1.06183 5.36085 0
M  V30 666 H 64.5764 -0.195407 0.803583 0
M  V30 667 H 67.1224 0.362813 1.65776 0
M  V30 668 H 65.8944 0.509043 3.87975 0
M  V30 669 H 65.5174 -1.20359 3.78945 0
M  V30 670 N 66.5145 -1.57545 0.0417849 0
M  V30 671 C 67.7635 -1.91494 -0.633492 0
M  V30 672 C 68.0765 -0.921084 -1.72556 0
M  V30 673 O 69.2825 -1.15228 -2.45835 0
M  V30 674 C 67.7385 -3.40072 -1.17808 0
M  V30 675 C 67.3465 -4.47843 -0.118633 0
M  V30 676 C 69.0905 -3.8307 -1.82915 0
M  V30 677 C 66.9975 -5.87529 -0.675578 0
M  V30 678 H 65.9275 -0.714653 -0.24039 0
M  V30 679 H 68.5785 -1.83175 0.109148 0
M  V30 680 H 66.9605 -3.43364 -1.97274 0
M  V30 681 H 68.1345 -4.56128 0.654494 0
M  V30 682 H 66.4495 -4.14128 0.434414 0
M  V30 683 H 69.0465 -4.84794 -2.25563 0
M  V30 684 H 69.3895 -3.1881 -2.67705 0
M  V30 685 H 69.9225 -3.82255 -1.10119 0
M  V30 686 H 66.6615 -6.55362 0.134475 0
M  V30 687 H 66.1815 -5.82824 -1.4169 0
M  V30 688 H 67.8605 -6.36491 -1.1614 0
M  V30 689 N 67.9926 0.231505 -1.5589 0
M  V30 690 C 68.9556 1.27028 -1.90779 0
M  V30 691 C 69.9556 1.40308 -0.785507 0
M  V30 692 O 71.1456 1.38744 -1.05336 0
M  V30 693 C 68.2776 2.64566 -2.14983 0
M  V30 694 H 69.4706 0.973017 -2.83677 0
M  V30 695 H 67.0236 0.471486 -1.49019 0
M  V30 696 H 67.7586 2.99406 -1.24604 0
M  V30 697 H 67.5436 2.56305 -2.96732 0
M  V30 698 H 69.0336 3.39543 -2.43105 0
M  V30 699 N 69.4707 1.49531 0.497807 0
M  V30 700 C 70.4187 1.66926 1.61983 0
M  V30 701 C 71.4127 0.535167 1.60724 0
M  V30 702 O 72.6187 0.714896 1.65195 0
M  V30 703 H 68.9937 0.526415 0.537021 0
M  V30 704 H 70.9647 2.61098 1.44465 0
M  V30 705 C 69.7137 1.75602 3.00099 0
M  V30 706 H 69.0367 2.62244 3.01775 0
M  V30 707 H 70.4767 1.91807 3.78135 0
M  V30 708 C 68.9357 0.501543 3.33146 0
M  V30 709 O 69.4657 -0.371342 3.9998 0
M  V30 710 N 67.6717 0.363531 2.88317 0
M  V30 711 H 67.2187 1.07485 2.34104 0
M  V30 712 H 67.1767 -0.474728 3.10795 0
M  V30 713 N 70.9488 -0.749086 1.3866 0
M  V30 714 C 72.1968 -1.50535 1.34847 0
M  V30 715 C 72.5178 -1.94909 -0.0595016 0
M  V30 716 O 71.7878 -1.67973 -1.00806 0
M  V30 717 H 70.3678 -0.558395 0.49619 0
M  V30 718 H 73.0298 -0.890165 1.73384 0
M  V30 719 H 72.1258 -2.39413 2.00219 0
M  V30 720 N 72.4269 -1.23603 -0.977757 0
M  V30 721 C 73.3599 -0.962772 -2.06896 0
M  V30 722 C 74.3379 0.0998743 -1.62293 0
M  V30 723 O 75.5219 -0.0349421 -1.88468 0
M  V30 724 C 72.6489 -0.45095 -3.35685 0
M  V30 725 C 71.6949 -1.50061 -3.99229 0
M  V30 726 S 72.5279 -3.07884 -4.38142 0
M  V30 727 C 73.6839 -2.58378 -5.7008 0
M  V30 728 H 73.9169 -1.88677 -2.29757 0
M  V30 729 H 71.4499 -1.06876 -1.11431 0
M  V30 730 H 73.4079 -0.162261 -4.10179 0
M  V30 731 H 72.0689 0.452179 -3.10828 0
M  V30 732 H 71.2619 -1.09269 -4.92013 0
M  V30 733 H 70.8639 -1.73878 -3.31123 0
M  V30 734 H 73.1559 -2.00563 -6.47133 0
M  V30 735 H 74.0989 -3.49711 -6.15717 0
M  V30 736 H 74.5069 -1.99143 -5.28207 0
M  V30 737 N 73.905 1.17692 -1.04816 0
M  V30 738 C 75.154 1.87192 -0.751132 0
M  V30 739 C 75.467 1.8169 0.724441 0
M  V30 740 O 76.673 2.46625 1.13527 0
M  V30 741 C 75.129 3.35857 -1.29338 0
M  V30 742 C 74.737 3.4987 -2.79812 0
M  V30 743 C 76.481 4.10709 -1.07322 0
M  V30 744 C 74.388 4.92536 -3.27356 0
M  V30 745 H 73.318 0.701162 -0.277288 0
M  V30 746 H 75.969 1.32932 -1.26496 0
M  V30 747 H 74.351 3.89631 -0.707376 0
M  V30 748 H 75.525 3.06332 -3.44235 0
M  V30 749 H 73.84 2.88433 -3.00325 0
M  V30 750 H 76.437 5.15952 -1.4035 0
M  V30 751 H 76.78 4.16299 -0.0108001 0
M  V30 752 H 77.313 3.6313 -1.62423 0
M  V30 753 H 74.052 4.92119 -4.33012 0
M  V30 754 H 73.572 5.3676 -2.67673 0
M  V30 755 H 75.251 5.61288 -3.21815 0
M  V30 756 N 75.3831 0.828654 1.34056 0
M  V30 757 C 76.2931 0.256725 2.33191 0
M  V30 758 C 77.3091 -0.611898 1.62886 0
M  V30 759 O 78.4851 -0.51844 1.94613 0
M  V30 760 C 75.5501 -0.567238 3.42028 0
M  V30 761 C 74.6111 0.324458 4.28072 0
M  V30 762 C 73.8441 -0.460274 5.31712 0
M  V30 763 O 74.0671 -1.693 5.44696 0
M  V30 764 O 73.0011 0.160391 6.01686 0
M  V30 765 H 76.8271 1.07739 2.83947 0
M  V30 766 H 74.4121 0.59093 1.37217 0
M  V30 767 H 76.2941 -1.03582 4.08471 0
M  V30 768 H 74.9691 -1.36513 2.93506 0
M  V30 769 H 73.8761 0.840659 3.64532 0
M  V30 770 H 75.2091 1.08685 4.8005 0
M  V30 771 N 76.8612 -1.46375 0.584142 0
M  V30 772 C 77.8092 -2.32042 -0.161047 0
M  V30 773 C 78.8032 -1.44569 -0.882966 0
M  V30 774 O 80.0092 -1.61186 -0.801191 0
M  V30 775 H 76.3842 -0.748659 -0.0708033 0
M  V30 776 H 78.3552 -2.92704 0.580269 0
M  V30 777 C 77.1042 -3.27762 -1.1605 0
M  V30 778 H 76.4272 -3.95051 -0.614419 0
M  V30 779 H 77.8672 -3.90481 -1.65228 0
M  V30 780 C 76.3262 -2.53218 -2.22221 0
M  V30 781 O 76.8562 -2.29628 -3.29597 0
M  V30 782 N 75.0622 -2.13756 -1.96868 0
M  V30 783 H 74.6092 -2.33142 -1.09557 0
M  V30 784 H 74.5672 -1.642 -2.68115 0
M  V30 785 N 78.3393 -0.321999 -1.54275 0
M  V30 786 C 79.5853 0.281461 -2.00837 0
M  V30 787 C 79.9183 1.51909 -1.20985 0
M  V30 788 O 79.1933 1.923 -0.291733 0
M  V30 789 C 79.4763 0.617162 -3.54772 0
M  V30 790 C 79.3293 -0.631064 -4.45351 0
M  V30 791 C 80.6483 1.43542 -4.16033 0
M  V30 792 H 77.7673 0.100826 -0.730071 0
M  V30 793 H 80.4093 -0.438268 -1.84876 0
M  V30 794 H 78.5593 1.23034 -3.68504 0
M  V30 795 H 80.2313 -1.26934 -4.43492 0
M  V30 796 H 78.4743 -1.26025 -4.15091 0
M  V30 797 H 79.1453 -0.351735 -5.50878 0
M  V30 798 H 81.6213 0.917134 -4.05867 0
M  V30 799 H 80.4973 1.63907 -5.23856 0
M  V30 800 H 80.7583 2.43108 -3.69257 0
M  V30 801 N 79.8174 1.5752 -0.0501392 0
M  V30 802 C 81.0664 1.91827 0.623328 0
M  V30 803 C 81.3794 0.930222 1.72065 0
M  V30 804 O 82.5854 1.1653 2.4522 0
M  V30 805 C 81.0414 3.40692 1.16003 0
M  V30 806 C 80.6494 4.479 0.0948811 0
M  V30 807 C 82.3934 3.84034 1.80881 0
M  V30 808 C 80.3004 5.87879 0.644411 0
M  V30 809 H 79.2304 0.715918 0.236596 0
M  V30 810 H 81.8814 1.83115 -0.118861 0
M  V30 811 H 80.2634 3.44405 1.9545 0
M  V30 812 H 81.4374 4.55775 -0.678675 0
M  V30 813 H 79.7524 4.13892 -0.45637 0
M  V30 814 H 82.3494 4.85984 2.22988 0
M  V30 815 H 82.6924 3.20225 2.6601 0
M  V30 816 H 83.2254 3.82833 1.0809 0
M  V30 817 H 79.9644 6.55282 -0.169229 0
M  V30 818 H 79.4844 5.83567 1.38598 0
M  V30 819 H 81.1634 6.37098 1.12763 0
M  V30 820 N 81.2955 -0.223234 1.56011 0
M  V30 821 C 82.5435 -0.946003 1.78592 0
M  V30 822 C 82.8645 -1.84936 0.618349 0
M  V30 823 O 82.1345 -1.92473 -0.364833 0
M  V30 824 H 80.7145 -0.352298 0.658707 0
M  V30 825 H 83.3765 -0.235494 1.93472 0
M  V30 826 H 82.4725 -1.55381 2.70672 0
M  V30 827 N 82.7736 -1.49793 -0.48987 0
M  V30 828 C 84.0016 -1.63568 -1.26701 0
M  V30 829 C 84.4166 -0.311465 -1.86213 0
M  V30 830 O 83.7736 0.704416 -1.68357 0
M  V30 831 C 83.8246 -2.71284 -2.38929 0
M  V30 832 O 83.5456 -3.9857 -1.81861 0
M  V30 833 C 85.0466 -2.95864 -3.3012 0
M  V30 834 H 82.2666 -0.550342 -0.383881 0
M  V30 835 H 84.8106 -1.95898 -0.586864 0
M  V30 836 H 82.9656 -2.417 -3.02753 0
M  V30 837 H 83.3796 -4.57993 -2.55622 0
M  V30 838 H 84.8536 -3.74941 -4.05121 0
M  V30 839 H 85.3306 -2.06206 -3.87783 0
M  V30 840 H 85.9366 -3.26907 -2.72051 0
M  V30 841 N 84.2517 0.741722 -1.39055 0
M  V30 842 C 85.4987 1.50114 -1.35912 0
M  V30 843 C 85.8267 1.94443 0.0470937 0
M  V30 844 O 85.0817 1.66612 1.02659 0
M  V30 845 C 85.3807 2.7592 -2.27163 0
M  V30 846 C 85.0467 2.50493 -3.74919 0
M  V30 847 C 83.7087 2.43267 -4.1518 0
M  V30 848 C 86.0607 2.28585 -4.684 0
M  V30 849 C 83.3887 2.12166 -5.46994 0
M  V30 850 C 85.7407 1.99002 -6.00484 0
M  V30 851 C 84.4047 1.90241 -6.39816 0
M  V30 852 H 83.6747 0.549306 -0.497336 0
M  V30 853 H 86.3217 0.851896 -1.71508 0
M  V30 854 H 84.6267 3.45553 -1.84663 0
M  V30 855 H 86.3237 3.33923 -2.22028 0
M  V30 856 H 82.9137 2.56992 -3.43006 0
M  V30 857 H 87.0977 2.33139 -4.38132 0
M  V30 858 H 82.3537 2.03901 -5.76398 0
M  V30 859 H 86.5277 1.81057 -6.72452 0
M  V30 860 H 84.1547 1.65907 -7.41875 0
M  V30 861 N 85.7298 1.2412 0.971189 0
M  V30 862 C 86.6398 1.04747 2.09917 0
M  V30 863 C 87.6558 -0.0107162 1.73997 0
M  V30 864 O 88.8318 0.186714 2.00533 0
M  V30 865 C 85.8968 0.650828 3.40537 0
M  V30 866 C 84.9578 1.7851 3.90426 0
M  V30 867 C 84.1908 1.40729 5.14812 0
M  V30 868 O 84.4138 0.29557 5.69634 0
M  V30 869 O 83.3478 2.23168 5.58999 0
M  V30 870 H 87.1738 1.99304 2.29154 0
M  V30 871 H 84.7588 1.02908 1.08307 0
M  V30 872 H 86.6408 0.440992 4.19086 0
M  V30 873 H 85.3158 -0.265649 3.22608 0
M  V30 874 H 84.2228 2.04966 3.12953 0
M  V30 875 H 85.5558 2.68023 4.12825 0
M  V30 876 N 87.2079 -1.17134 1.05439 0
M  V30 877 C 88.1379 -2.2342 0.678649 0
M  V30 878 C 89.1189 -1.66971 -0.32476 0
M  V30 879 O 90.3039 -1.93149 -0.201802 0
M  V30 880 C 87.4339 -3.47256 0.0552099 0
M  V30 881 C 86.3879 -4.16543 0.98365 0
M  V30 882 C 85.7139 -5.34231 0.223961 0
M  V30 883 C 87.0139 -4.68495 2.3089 0
M  V30 884 H 88.7079 -2.55105 1.56722 0
M  V30 885 H 86.2539 -1.2262 0.754998 0
M  V30 886 H 88.2069 -4.20828 -0.21946 0
M  V30 887 H 86.9309 -3.14846 -0.868319 0
M  V30 888 H 85.5899 -3.44887 1.24293 0
M  V30 889 H 85.2379 -4.98071 -0.702412 0
M  V30 890 H 84.9379 -5.81527 0.842627 0
M  V30 891 H 86.4619 -6.10585 -0.0433671 0
M  V30 892 H 87.8759 -5.33691 2.09396 0
M  V30 893 H 86.2729 -5.26379 2.88176 0
M  V30 894 H 87.3429 -3.85169 2.94572 0
M  V30 895 N 88.686 -0.835752 -1.33615 0
M  V30 896 C 90.097 -0.487099 -1.80234 0
M  V30 897 C 90.448 0.993627 -1.69179 0
M  V30 898 O 89.573 1.77403 -1.23924 0
M  V30 899 C 90.168 -0.877385 -3.27242 0
M  V30 900 C 88.727 -0.580915 -3.7189 0
M  V30 901 C 87.874 -1.0874 -2.5509 0
M  V30 902 H 90.825 -1.02474 -1.2118 0
M  V30 903 H 90.846 -0.186195 -3.80044 0
M  V30 904 H 90.358 -1.95512 -3.35256 0
M  V30 905 H 88.459 0.486881 -3.69405 0
M  V30 906 H 88.572 -1.13396 -4.65487 0
M  V30 907 H 86.936 -0.508392 -2.49575 0
M  V30 908 H 87.719 -2.17184 -2.65868 0
M  V30 909 N 90.1641 1.46063 -0.591896 0
M  V30 910 C 91.3941 2.06418 -0.0867676 0
M  V30 911 C 91.8021 1.43975 1.22751 0
M  V30 912 O 91.1451 0.542531 1.75506 0
M  V30 913 C 91.2071 3.59213 0.143725 0
M  V30 914 C 90.8711 4.439 -1.08635 0
M  V30 915 C 91.8681 4.79864 -2.00067 0
M  V30 916 C 89.5531 4.84896 -1.31077 0
M  V30 917 C 91.5471 5.55661 -3.12282 0
M  V30 918 C 89.2341 5.6045 -2.43596 0
M  V30 919 C 90.2321 5.95747 -3.34027 0
M  V30 920 O 89.9201 6.69772 -4.4459 0
M  V30 921 H 89.6521 0.673443 -0.0587447 0
M  V30 922 H 92.2061 1.88539 -0.814994 0
M  V30 923 H 90.4361 3.75433 0.926668 0
M  V30 924 H 92.1251 4.01463 0.5985 0
M  V30 925 H 92.8911 4.48763 -1.83947 0
M  V30 926 H 88.7701 4.56867 -0.61594 0
M  V30 927 H 92.3141 5.8313 -3.82891 0
M  V30 928 H 88.2111 5.90965 -2.59674 0
M  V30 929 H 88.9791 6.88207 -4.43073 0
M  V30 930 N 91.6422 0.330177 1.54103 0
M  V30 931 C 92.6052 -0.520144 2.2322 0
M  V30 932 C 93.6052 -1.03828 1.22786 0
M  V30 933 O 94.7952 -0.929652 1.4732 0
M  V30 934 C 91.9272 -1.72317 2.94142 0
M  V30 935 H 93.1202 0.0841605 2.99782 0
M  V30 936 H 90.6732 0.0813433 1.56088 0
M  V30 937 H 91.4082 -2.36653 2.21734 0
M  V30 938 H 91.1932 -1.35898 3.67796 0
M  V30 939 H 92.6832 -2.3266 3.46784 0
M  V30 940 N 93.1203 -1.57491 0.0584922 0
M  V30 941 C 94.3663 -1.93264 -0.614558 0
M  V30 942 C 94.6993 -0.937717 -1.7006 0
M  V30 943 O 93.9743 0.0351652 -1.94468 0
M  V30 944 C 94.2573 -3.3938 -1.20386 0
M  V30 945 C 94.1103 -4.49625 -0.125375 0
M  V30 946 C 95.4293 -3.86039 -2.11334 0
M  V30 947 H 92.5483 -0.702791 -0.221933 0
M  V30 948 H 95.1903 -1.8961 0.12175 0
M  V30 949 H 93.3403 -3.42626 -1.83139 0
M  V30 950 H 95.0123 -4.58506 0.506971 0
M  V30 951 H 93.2553 -4.30354 0.545672 0
M  V30 952 H 93.9263 -5.48967 -0.577861 0
M  V30 953 H 96.4023 -3.84716 -1.58534 0
M  V30 954 H 95.2783 -4.88914 -2.49507 0
M  V30 955 H 95.5393 -3.23215 -3.01636 0
M  V30 956 N 94.5984 0.214957 -1.56127 0
M  V30 957 C 95.5614 1.24997 -1.92116 0
M  V30 958 C 96.5614 1.39467 -0.800344 0
M  V30 959 O 97.7514 1.37619 -1.06802 0
M  V30 960 C 94.8834 2.62271 -2.17777 0
M  V30 961 H 96.0764 0.942875 -2.84693 0
M  V30 962 H 93.6294 0.455654 -1.49511 0
M  V30 963 H 94.3644 2.98068 -1.27773 0
M  V30 964 H 94.1494 2.53143 -2.99434 0
M  V30 965 H 95.6394 3.36946 -2.46693 0
M  V30 966 N 96.0765 1.50051 0.48192 0
M  V30 967 C 97.3015 1.64508 1.26301 0
M  V30 968 C 97.7265 0.323851 1.85291 0
M  V30 969 O 97.0845 -0.710969 1.66778 0
M  V30 970 C 97.1325 2.7305 2.35533 0
M  V30 971 O 96.2365 2.3355 3.39895 0
M  V30 972 H 95.5775 0.549978 0.372048 0
M  V30 973 H 98.1075 1.9636 0.574786 0
M  V30 974 H 98.1175 2.95799 2.8101 0
M  V30 975 H 96.7925 3.68946 1.91967 0
M  V30 976 H 95.3695 2.21205 3.00204 0
M  V30 977 N 97.5546 -0.734337 1.39446 0
M  V30 978 C 98.5026 -1.86971 1.38364 0
M  V30 979 C 99.4966 -1.67288 0.266687 0
M  V30 980 O 100.703 -1.74621 0.436755 0
M  V30 981 H 97.0776 -0.615474 0.432082 0
M  V30 982 H 99.0486 -1.85 2.34132 0
M  V30 983 C 97.7976 -3.2466 1.24465 0
M  V30 984 H 97.1206 -3.40402 2.09682 0
M  V30 985 H 98.5606 -4.04292 1.27764 0
M  V30 986 C 97.0196 -3.36867 -0.0468674 0
M  V30 987 O 97.5496 -3.88618 -1.01681 0
M  V30 988 N 95.7556 -2.90391 -0.110145 0
M  V30 989 H 95.3026 -2.48466 0.679868 0
M  V30 990 H 95.2606 -2.98939 -0.973799 0
M  V30 991 N 99.0327 -1.24633 -0.964593 0
M  V30 992 C 100.28 -1.08788 -1.70796 0
M  V30 993 C 100.608 0.372783 -1.90894 0
M  V30 994 O 99.8627 1.29167 -1.47018 0
M  V30 995 C 100.162 -1.7763 -3.10133 0
M  V30 996 C 99.8277 -3.27557 -3.09866 0
M  V30 997 C 98.4897 -3.6846 -3.09501 0
M  V30 998 C 100.842 -4.23389 -3.03959 0
M  V30 999 C 98.1697 -5.03624 -3.00965 0
M  V30 1000 C 100.522 -5.58565 -2.96965 0
M  V30 1001 C 99.1857 -5.98809 -2.9493 0
M  V30 1002 H 98.4557 -0.398084 -0.624988 0
M  V30 1003 H 101.103 -1.54777 -1.12767 0
M  V30 1004 H 99.4077 -1.24044 -3.71645 0
M  V30 1005 H 101.105 -1.62832 -3.66451 0
M  V30 1006 H 97.6947 -2.95006 -3.10917 0
M  V30 1007 H 101.879 -3.92787 -3.03368 0
M  V30 1008 H 97.1347 -5.33998 -2.97752 0
M  V30 1009 H 101.309 -6.32523 -2.91354 0
M  V30 1010 H 98.9357 -7.03505 -2.88071 0
M  V30 1011 N 100.511 1.16574 -1.06058 0
M  V30 1012 C 101.443 2.2045 -0.627239 0
M  V30 1013 C 102.456 1.59752 0.313534 0
M  V30 1014 O 103.645 1.78192 0.104896 0
M  V30 1015 C 100.745 3.3875 0.100974 0
M  V30 1016 C 99.9178 4.29008 -0.852687 0
M  V30 1017 C 98.9768 5.25944 -0.164152 0
M  V30 1018 O 98.0028 5.63535 -0.801047 0
M  V30 1019 N 99.2048 5.70075 1.09518 0
M  V30 1020 H 101.97 2.58249 -1.52077 0
M  V30 1021 H 99.5308 1.3156 -0.943594 0
M  V30 1022 H 101.523 4.00638 0.57194 0
M  V30 1023 H 100.093 2.99476 0.89628 0
M  V30 1024 H 99.3128 3.64419 -1.50308 0
M  V30 1025 H 100.601 4.86195 -1.49972 0
M  V30 1026 H 99.9988 5.41624 1.6328 0
M  V30 1027 H 98.5558 6.34067 1.51006 0
M  V30 1028 N 101.989 0.842826 1.3317 0
M  V30 1029 C 103.238 0.436738 1.96915 0
M  V30 1030 C 103.551 -1.01025 1.67491 0
M  V30 1031 O 104.757 -1.5212 2.24881 0
M  V30 1032 C 103.213 0.730021 3.52418 0
M  V30 1033 C 102.821 2.19195 3.90714 0
M  V30 1034 C 104.565 0.391076 4.22695 0
M  V30 1035 C 102.472 2.42907 5.39212 0
M  V30 1036 H 101.402 0.15958 0.736919 0
M  V30 1037 H 104.053 1.03196 1.51733 0
M  V30 1038 H 102.435 0.0643755 3.95948 0
M  V30 1039 H 103.609 2.8984 3.58231 0
M  V30 1040 H 101.924 2.49425 3.33431 0
M  V30 1041 H 104.521 0.545817 5.31907 0
M  V30 1042 H 104.864 -0.666294 4.10933 0
M  V30 1043 H 105.397 1.01212 3.84709 0
M  V30 1044 H 102.136 3.47224 5.55982 0
M  V30 1045 H 101.656 1.76827 5.73142 0
M  V30 1046 H 103.335 2.2626 6.06148 0
M  V30 1047 N 103.467 -1.45747 0.599634 0
M  V30 1048 C 104.415 -2.322 -0.136426 0
M  V30 1049 C 105.409 -1.45497 -0.867583 0
M  V30 1050 O 106.615 -1.62027 -0.78405 0
M  V30 1051 H 102.99 -0.749368 -0.0628588 0
M  V30 1052 H 104.961 -2.92072 0.611281 0
M  V30 1053 C 103.71 -3.28974 -1.12567 0
M  V30 1054 H 103.033 -3.9568 -0.572484 0
M  V30 1055 H 104.473 -3.92212 -1.61077 0
M  V30 1056 C 102.932 -2.55561 -2.19523 0
M  V30 1057 O 103.462 -2.33111 -3.27143 0
M  V30 1058 N 101.668 -2.15832 -1.94589 0
M  V30 1059 H 101.215 -2.3429 -1.07078 0
M  V30 1060 H 101.173 -1.67034 -2.66359 0
M  V30 1061 N 104.945 -0.338344 -1.53925 0
M  V30 1062 C 106.193 0.259245 -2.0043 0
M  V30 1063 C 106.514 1.51484 -1.22791 0
M  V30 1064 O 105.784 1.93037 -0.33368 0
M  V30 1065 H 104.364 0.0987845 -0.740439 0
M  V30 1066 H 107.026 -0.458302 -1.89435 0
M  V30 1067 H 106.122 0.505334 -3.07982 0
M  V30 1068 N 106.423 1.57458 -0.0668435 0
M  V30 1069 C 107.839 1.56947 0.289772 0
M  V30 1070 C 108.039 1.07584 1.70376 0
M  V30 1071 O 107.095 0.739486 2.41429 0
M  V30 1072 C 108.408 3.0052 0.103943 0
M  V30 1073 C 109.956 3.12517 0.173857 0
M  V30 1074 C 110.431 4.57997 0.0163682 0
M  V30 1075 N 111.922 4.63144 0.0721352 0
M  V30 1076 C 112.657 5.73394 -0.0253794 0
M  V30 1077 N 112.153 6.92576 -0.176133 0
M  V30 1078 N 113.946 5.62091 0.0313305 0
M  V30 1079 H 106.097 1.87863 -0.991027 0
M  V30 1080 H 108.36 0.86583 -0.38606 0
M  V30 1081 H 108.066 3.40729 -0.871572 0
M  V30 1082 H 107.94 3.67304 0.858366 0
M  V30 1083 H 110.327 2.72197 1.13985 0
M  V30 1084 H 110.408 2.48381 -0.611586 0
M  V30 1085 H 110.052 4.99005 -0.946374 0
M  V30 1086 H 109.982 5.20158 0.821153 0
M  V30 1087 H 112.473 3.77436 0.187263 0
M  V30 1088 H 112.786 7.72418 -0.242821 0
M  V30 1089 H 111.131 6.94678 -0.211429 0
M  V30 1090 H 114.322 4.67867 0.147773 0
M  V30 1091 H 114.495 6.47982 -0.048121 0
M  V30 1092 N 107.901 -0.206675 1.56239 0
M  V30 1093 C 109.178 -0.954051 1.70755 0
M  V30 1094 C 109.558 -2.01841 0.618353 0
M  V30 1095 O 108.906 -2.25444 -0.372434 0
M  V30 1096 C 109.116 -1.551 3.12642 0
M  V30 1097 C 110.464 -2.03757 3.72516 0
M  V30 1098 O 111.488 -1.64965 3.15698 0
M  V30 1099 O 110.347 -2.75103 4.72208 0
M  V30 1100 H 107.441 -0.446636 0.696021 0
M  V30 1101 H 109.987 -0.197283 1.68549 0
M  V30 1102 H 108.759 -0.783212 3.83382 0
M  V30 1103 H 108.382 -2.37291 3.19028 0
M  V30 1104 N 109.379 -1.50304 -0.473955 0
M  V30 1105 C 110.625 -1.61389 -1.22806 0
M  V30 1106 C 110.958 -0.311955 -1.91678 0
M  V30 1107 O 110.233 0.686384 -1.81986 0
M  V30 1108 C 110.516 -2.79219 -2.27396 0
M  V30 1109 C 110.369 -4.19286 -1.62848 0
M  V30 1110 C 111.688 -2.92614 -3.28732 0
M  V30 1111 H 108.807 -0.587399 -0.445119 0
M  V30 1112 H 111.449 -1.82681 -0.522265 0
M  V30 1113 H 109.599 -2.61195 -2.87592 0
M  V30 1114 H 111.271 -4.48892 -1.06271 0
M  V30 1115 H 109.514 -4.23677 -0.931693 0
M  V30 1116 H 110.185 -4.97655 -2.38838 0
M  V30 1117 H 112.661 -3.09105 -2.78556 0
M  V30 1118 H 111.537 -3.76688 -3.99246 0
M  V30 1119 H 111.798 -2.03107 -3.92683 0
M  V30 1120 N 110.857 0.726932 -1.39834 0
M  V30 1121 C 111.787 1.85405 -1.41941 0
M  V30 1122 C 112.768 1.67751 -0.281728 0
M  V30 1123 O 113.953 1.8795 -0.488717 0
M  V30 1124 C 111.083 3.23243 -1.2701 0
M  V30 1125 C 110.037 3.55549 -2.38262 0
M  V30 1126 C 109.363 4.9241 -2.08415 0
M  V30 1127 C 110.663 3.577 -3.80589 0
M  V30 1128 H 112.357 1.83899 -2.36266 0
M  V30 1129 H 109.903 0.883349 -1.13723 0
M  V30 1130 H 111.856 4.01775 -1.27103 0
M  V30 1131 H 110.58 3.25296 -0.291564 0
M  V30 1132 H 109.239 2.79351 -2.37399 0
M  V30 1133 H 108.887 4.91052 -1.0898 0
M  V30 1134 H 108.587 5.14992 -2.82943 0
M  V30 1135 H 110.111 5.73289 -2.10171 0
M  V30 1136 H 111.525 4.26293 -3.83337 0
M  V30 1137 H 109.922 3.91804 -4.54543 0
M  V30 1138 H 110.992 2.57328 -4.10987 0
M  V30 1139 N 112.336 1.25143 0.95797 0
M  V30 1140 C 113.582 1.09855 1.70469 0
M  V30 1141 C 113.915 -0.360187 1.90831 0
M  V30 1142 O 113.19 -1.26568 1.47685 0
M  V30 1143 C 113.473 1.8497 3.08963 0
M  V30 1144 C 113.326 3.38652 2.96032 0
M  V30 1145 C 114.645 1.63016 4.08795 0
M  V30 1146 H 111.764 0.400465 0.618706 0
M  V30 1147 H 114.406 1.53933 1.11376 0
M  V30 1148 H 112.556 1.47505 3.59409 0
M  V30 1149 H 114.228 3.85772 2.52938 0
M  V30 1150 H 112.471 3.66534 2.32025 0
M  V30 1151 H 113.142 3.8642 3.94187 0
M  V30 1152 H 115.618 1.95625 3.67247 0
M  V30 1153 H 114.494 2.18015 5.03747 0
M  V30 1154 H 114.755 0.570692 4.38401 0
M  V30 1155 N 113.814 -1.1601 1.06675 0
M  V30 1156 C 115.225 -1.68235 0.809565 0
M  V30 1157 C 115.576 -1.8454 -0.666303 0
M  V30 1158 O 114.701 -1.54374 -1.5165 0
M  V30 1159 C 115.296 -3.05585 1.46299 0
M  V30 1160 C 113.855 -3.54915 1.25349 0
M  V30 1161 C 113.002 -2.30804 1.53703 0
M  V30 1162 H 115.953 -1.00318 1.22971 0
M  V30 1163 H 115.974 -3.70174 0.880431 0
M  V30 1164 H 115.486 -2.93686 2.53713 0
M  V30 1165 H 113.587 -3.72067 0.199261 0
M  V30 1166 H 113.7 -4.36774 1.9689 0
M  V30 1167 H 112.064 -2.36007 0.957739 0
M  V30 1168 H 112.847 -2.21499 2.62284 0
M  V30 1169 N 115.292 -0.849877 -1.32721 0
M  V30 1170 C 116.222 -0.306308 -2.31482 0
M  V30 1171 C 117.203 0.591952 -1.59468 0
M  V30 1172 O 118.388 0.513199 -1.87296 0
M  V30 1173 C 115.518 0.510204 -3.43532 0
M  V30 1174 C 114.472 -0.293209 -4.26994 0
M  V30 1175 C 113.798 0.647743 -5.30762 0
M  V30 1176 C 115.098 -1.51634 -4.99804 0
M  V30 1177 H 116.792 -1.13153 -2.77195 0
M  V30 1178 H 114.338 -0.545553 -1.33266 0
M  V30 1179 H 116.291 0.900856 -4.11658 0
M  V30 1180 H 115.015 1.36874 -2.96535 0
M  V30 1181 H 113.674 -0.665555 -3.60508 0
M  V30 1182 H 113.322 1.50299 -4.8002 0
M  V30 1183 H 113.022 0.11422 -5.87489 0
M  V30 1184 H 114.546 1.03567 -6.01753 0
M  V30 1185 H 115.96 -1.19824 -5.60638 0
M  V30 1186 H 114.357 -1.98745 -5.66234 0
M  V30 1187 H 115.427 -2.28018 -4.27943 0
M  V30 1188 N 116.77 1.45427 -0.607355 0
M  V30 1189 C 118.016 2.0254 -0.102607 0
M  V30 1190 C 118.349 1.47478 1.26348 0
M  V30 1191 O 117.624 0.64939 1.83339 0
M  V30 1192 C 117.907 3.60044 -0.0634347 0
M  V30 1193 C 117.76 4.2544 -1.46017 0
M  V30 1194 C 119.079 4.35646 0.624514 0
M  V30 1195 H 116.198 0.73598 -0.0387607 0
M  V30 1196 H 118.84 1.73284 -0.779282 0
M  V30 1197 H 116.99 3.85101 0.512808 0
M  V30 1198 H 118.662 4.11569 -2.08347 0
M  V30 1199 H 116.905 3.83849 -2.02094 0
M  V30 1200 H 117.576 5.34342 -1.385 0
M  V30 1201 H 120.052 4.15882 0.134723 0
M  V30 1202 H 118.928 5.45376 0.621028 0
M  V30 1203 H 119.189 4.08501 1.69055 0
M  V30 1204 N 118.248 0.346503 1.53744 0
M  V30 1205 C 119.494 -0.249473 2.0126 0
M  V30 1206 C 119.827 -1.49965 1.23386 0
M  V30 1207 O 119.102 -1.91811 0.32229 0
M  V30 1208 C 119.385 -0.560643 3.55709 0
M  V30 1209 C 119.238 0.701836 4.44291 0
M  V30 1210 C 120.557 -1.36905 4.18264 0
M  V30 1211 H 117.676 -0.0891987 0.731582 0
M  V30 1212 H 120.318 0.467624 1.84156 0
M  V30 1213 H 118.468 -1.17156 3.70414 0
M  V30 1214 H 120.14 1.33974 4.41417 0
M  V30 1215 H 118.383 1.32612 4.13033 0
M  V30 1216 H 119.054 0.43933 5.50249 0
M  V30 1217 H 121.53 -0.852448 4.07275 0
M  V30 1218 H 120.406 -1.55553 5.26398 0
M  V30 1219 H 120.667 -2.37203 3.73078 0
M  V30 1220 N 119.726 -1.57421 0.075193 0
M  V30 1221 C 120.636 -2.1642 -0.905511 0
M  V30 1222 C 121.652 -1.12828 -1.32461 0
M  V30 1223 O 122.828 -1.45109 -1.39661 0
M  V30 1224 C 119.893 -2.71693 -2.15369 0
M  V30 1225 C 118.954 -3.90171 -1.79068 0
M  V30 1226 C 118.187 -4.42798 -2.97936 0
M  V30 1227 O 118.41 -3.94416 -4.12058 0
M  V30 1228 O 117.344 -5.34085 -2.77555 0
M  V30 1229 H 121.17 -3.00588 -0.433626 0
M  V30 1230 H 118.755 -1.48664 -0.148067 0
M  V30 1231 H 120.637 -3.07104 -2.88557 0
M  V30 1232 H 119.312 -1.90582 -2.61649 0
M  V30 1233 H 118.219 -3.59606 -1.03122 0
M  V30 1234 H 119.552 -4.72584 -1.37569 0
M  V30 1235 N 121.204 0.198386 -1.56346 0
M  V30 1236 C 122.114 1.2664 -1.97483 0
M  V30 1237 C 123.13 1.49989 -0.882002 0
M  V30 1238 O 124.306 1.62668 -1.18748 0
M  V30 1239 C 121.371 2.59141 -2.30319 0
M  V30 1240 C 120.432 2.43892 -3.53292 0
M  V30 1241 C 119.665 3.70074 -3.84553 0
M  V30 1242 O 119.888 4.74101 -3.1715 0
M  V30 1243 O 118.822 3.658 -4.7799 0
M  V30 1244 H 122.648 0.947304 -2.88548 0
M  V30 1245 H 120.233 0.403123 -1.43859 0
M  V30 1246 H 122.115 3.37352 -2.5253 0
M  V30 1247 H 120.79 2.90684 -1.42423 0
M  V30 1248 H 119.697 1.63803 -3.36332 0
M  V30 1249 H 121.03 2.17282 -4.41644 0
M  V30 1250 N 122.682 1.50554 0.465978 0
M  V30 1251 C 124.093 1.54599 1.04671 0
M  V30 1252 C 124.444 0.352488 1.93008 0
M  V30 1253 O 123.569 -0.534044 2.09707 0
M  V30 1254 C 124.164 2.80166 1.90505 0
M  V30 1255 C 122.723 2.86876 2.43678 0
M  V30 1256 C 121.87 2.48947 1.22151 0
M  V30 1257 H 124.821 1.56744 0.248384 0
M  V30 1258 H 124.842 2.62311 2.75633 0
M  V30 1259 H 124.354 3.67013 1.26186 0
M  V30 1260 H 122.455 2.04393 3.11536 0
M  V30 1261 H 122.568 3.89885 2.78436 0
M  V30 1262 H 120.932 2.01498 1.5579 0
M  V30 1263 H 121.715 3.38107 0.594866 0
M  V30 1264 N 124.16 -0.719506 1.40217 0
M  V30 1265 C 125.385 -1.51371 1.4178 0
M  V30 1266 C 125.81 -1.88091 0.0182355 0
M  V30 1267 O 125.168 -1.52997 -0.972707 0
M  V30 1268 C 125.216 -2.768 2.31115 0
M  V30 1269 O 124.32 -3.73349 1.7517 0
M  V30 1270 H 123.661 -0.456529 0.482159 0
M  V30 1271 H 126.191 -0.88644 1.844 0
M  V30 1272 H 126.201 -3.25371 2.46167 0
M  V30 1273 H 124.876 -2.49407 3.3282 0
M  V30 1274 H 123.453 -3.32179 1.69444 0
M  V30 1275 N 125.638 -1.25649 -0.95132 0
M  V30 1276 C 126.887 -1.09988 -1.69073 0
M  V30 1277 C 127.2 0.358355 -1.92289 0
M  V30 1278 O 128.406 0.635466 -2.63958 0
M  V30 1279 C 126.862 -1.92012 -3.044 0
M  V30 1280 C 126.47 -3.42347 -2.88968 0
M  V30 1281 C 128.214 -1.8493 -3.82101 0
M  V30 1282 C 126.121 -4.16655 -4.19705 0
M  V30 1283 H 125.051 -0.407993 -0.63408 0
M  V30 1284 H 127.702 -1.49873 -1.05879 0
M  V30 1285 H 126.084 -1.44952 -3.68517 0
M  V30 1286 H 127.258 -3.97104 -2.33762 0
M  V30 1287 H 125.573 -3.50557 -2.24719 0
M  V30 1288 H 128.17 -2.37739 -4.78941 0
M  V30 1289 H 128.513 -0.817883 -4.08187 0
M  V30 1290 H 129.046 -2.29758 -3.2474 0
M  V30 1291 H 125.785 -5.20224 -3.98807 0
M  V30 1292 H 125.305 -3.66681 -4.74663 0
M  V30 1293 H 126.984 -4.24551 -4.88227 0
M  V30 1294 N 127.117 1.15442 -1.07289 0
M  V30 1295 C 128.363 1.86489 -0.796846 0
M  V30 1296 C 128.696 1.82078 0.675371 0
M  V30 1297 O 127.971 1.24346 1.4956 0
M  V30 1298 C 128.254 3.35626 -1.30489 0
M  V30 1299 C 128.107 3.48673 -2.84161 0
M  V30 1300 C 129.426 4.30357 -0.920907 0
M  V30 1301 H 126.545 0.677144 -0.290939 0
M  V30 1302 H 129.187 1.35633 -1.33056 0
M  V30 1303 H 127.337 3.79068 -0.850883 0
M  V30 1304 H 129.009 3.14099 -3.37846 0
M  V30 1305 H 127.252 2.90253 -3.22391 0
M  V30 1306 H 127.923 4.53453 -3.14777 0
M  V30 1307 H 130.399 3.94871 -1.3121 0
M  V30 1308 H 129.275 5.33193 -1.30372 0
M  V30 1309 H 129.536 4.4176 0.173226 0
M  V30 1310 N 128.595 0.856903 1.32268 0
M  V30 1311 C 129.558 0.308171 2.27119 0
M  V30 1312 C 130.558 -0.533421 1.51695 0
M  V30 1313 O 131.748 -0.344607 1.70757 0
M  V30 1314 C 128.88 -0.563757 3.36206 0
M  V30 1315 H 130.073 1.14535 2.77167 0
M  V30 1316 H 127.626 0.631421 1.42978 0
M  V30 1317 H 128.361 -1.42266 2.91429 0
M  V30 1318 H 128.146 0.0386749 3.92081 0
M  V30 1319 H 129.636 -0.940386 4.06874 0
M  V30 1320 N 130.073 -1.45103 0.615059 0
M  V30 1321 C 131.036 -2.29025 -0.0895485 0
M  V30 1322 C 132.036 -1.40174 -0.787906 0
M  V30 1323 O 133.226 -1.62217 -0.634933 0
M  V30 1324 C 130.358 -3.21376 -1.13711 0
M  V30 1325 H 131.551 -2.92807 0.648382 0
M  V30 1326 H 129.104 -1.51749 0.374444 0
M  V30 1327 H 129.839 -2.6241 -1.90556 0
M  V30 1328 H 129.624 -3.86834 -0.640475 0
M  V30 1329 H 131.114 -3.84459 -1.63036 0
M  V30 1330 N 131.551 -0.354651 -1.53558 0
M  V30 1331 C 132.514 0.484566 -2.24019 0
M  V30 1332 C 133.514 1.01861 -1.24422 0
M  V30 1333 O 134.704 0.906097 -1.4878 0
M  V30 1334 C 131.836 1.67615 -2.96847 0
M  V30 1335 H 133.029 -0.131843 -2.9961 0
M  V30 1336 H 130.582 -0.106165 -1.55939 0
M  V30 1337 H 131.317 2.33095 -2.25471 0
M  V30 1338 H 131.102 1.30029 -3.69912 0
M  V30 1339 H 132.592 2.27114 -3.50441 0
M  V30 1340 N 133.029 1.57378 -0.0835403 0
M  V30 1341 C 134.254 1.98682 0.594987 0
M  V30 1342 C 134.679 0.961969 1.61641 0
M  V30 1343 O 134.037 -0.0709989 1.81161 0
M  V30 1344 C 134.085 3.38988 1.2296 0
M  V30 1345 O 133.189 3.39208 2.34546 0
M  V30 1346 H 132.53 0.646368 0.152002 0
M  V30 1347 H 135.06 2.03961 -0.161533 0
M  V30 1348 H 135.07 3.76431 1.57366 0
M  V30 1349 H 133.745 4.13107 0.481228 0
M  V30 1350 H 132.322 3.13548 2.01846 0
M  V30 1351 N 134.507 -0.190092 1.56449 0
M  V30 1352 C 135.737 -0.92443 1.84764 0
M  V30 1353 C 136.145 -1.77146 0.664529 0
M  V30 1354 O 135.488 -1.79812 -0.375957 0
M  V30 1355 C 135.55 -1.86651 3.07248 0
M  V30 1356 C 135.214 -1.20094 4.40938 0
M  V30 1357 C 136.211 -0.575445 5.16706 0
M  V30 1358 C 133.896 -1.2033 4.87674 0
M  V30 1359 C 135.89 0.0388111 6.37388 0
M  V30 1360 C 133.577 -0.585214 6.08291 0
M  V30 1361 C 134.575 0.0347578 6.82991 0
M  V30 1362 O 134.263 0.643147 8.01323 0
M  V30 1363 H 133.995 -0.274974 0.617548 0
M  V30 1364 H 136.549 -0.200788 2.04416 0
M  V30 1365 H 134.779 -2.62998 2.83494 0
M  V30 1366 H 136.468 -2.46907 3.22167 0
M  V30 1367 H 137.234 -0.565728 4.81689 0
M  V30 1368 H 133.113 -1.67526 4.29484 0
M  V30 1369 H 136.657 0.523329 6.95634 0
M  V30 1370 H 132.554 -0.592451 6.42775 0
M  V30 1371 H 133.322 0.540545 8.16713 0
M  V30 1372 N 135.985 -1.50799 -0.457987 0
M  V30 1373 C 136.918 -1.65273 -1.57353 0
M  V30 1374 C 137.896 -0.500578 -1.54703 0
M  V30 1375 O 139.08 -0.721781 -1.74134 0
M  V30 1376 C 136.207 -1.64737 -2.95938 0
M  V30 1377 C 135.253 -2.8567 -3.16693 0
M  V30 1378 S 136.086 -4.46791 -2.95191 0
M  V30 1379 C 137.242 -4.48968 -4.36095 0
M  V30 1380 H 137.475 -2.59633 -1.44838 0
M  V30 1381 H 135.008 -1.40225 -0.64625 0
M  V30 1382 H 136.966 -1.65112 -3.7583 0
M  V30 1383 H 135.627 -0.715899 -3.05833 0
M  V30 1384 H 134.82 -2.81637 -4.17967 0
M  V30 1385 H 134.422 -2.8293 -2.44594 0
M  V30 1386 H 136.714 -4.23337 -5.28954 0
M  V30 1387 H 137.657 -5.50664 -4.45168 0
M  V30 1388 H 138.065 -3.78522 -4.18786 0
M  V30 1389 N 137.463 0.71206 -1.40597 0
M  V30 1390 C 138.426 1.80785 -1.40888 0
M  V30 1391 C 139.426 1.57937 -0.302103 0
M  V30 1392 O 140.616 1.64913 -0.561182 0
M  V30 1393 C 137.748 3.18927 -1.20409 0
M  V30 1394 H 138.941 1.81924 -2.38419 0
M  V30 1395 H 136.494 0.91805 -1.26497 0
M  V30 1396 H 137.229 3.23436 -0.236522 0
M  V30 1397 H 137.014 3.36911 -2.00582 0
M  V30 1398 H 138.504 3.98949 -1.23408 0
M  V30 1399 N 138.941 1.26152 0.944643 0
M  V30 1400 C 139.888 1.07408 2.04285 0
M  V30 1401 C 140.858 -0.0198413 1.66088 0
M  V30 1402 O 142.043 0.139264 1.90291 0
M  V30 1403 C 139.183 0.70945 3.37729 0
M  V30 1404 C 138.296 1.87926 3.88983 0
M  V30 1405 C 137.431 1.45807 5.10797 0
M  V30 1406 C 136.47 2.5964 5.54305 0
M  V30 1407 N 135.607 2.18226 6.67324 0
M  V30 1408 H 140.447 2.01389 2.1965 0
M  V30 1409 H 137.984 1.00275 1.07626 0
M  V30 1410 H 139.942 0.478948 4.14442 0
M  V30 1411 H 138.572 -0.193389 3.2222 0
M  V30 1412 H 137.624 2.22279 3.08701 0
M  V30 1413 H 138.936 2.73377 4.17213 0
M  V30 1414 H 138.09 1.18781 5.94959 0
M  V30 1415 H 136.829 0.574414 4.84305 0
M  V30 1416 H 135.834 2.87399 4.68702 0
M  V30 1417 H 137.059 3.48599 5.828 0
M  V30 1418 H 135.005 1.3229 6.42523 0
M  V30 1419 H 134.922 2.97221 6.95123 0
M  V30 1420 H 136.19 1.94403 7.54869 0
M  V30 1421 N 140.419 -1.14872 1.07899 0
M  V30 1422 C 141.349 -2.2193 0.725887 0
M  V30 1423 C 142.33 -1.67622 -0.28927 0
M  V30 1424 O 143.515 -1.93533 -0.160787 0
M  V30 1425 C 140.645 -3.47061 0.128856 0
M  V30 1426 C 139.599 -4.14363 1.07178 0
M  V30 1427 C 138.925 -5.33636 0.337229 0
M  V30 1428 C 140.225 -4.63492 2.40775 0
M  V30 1429 H 141.919 -2.51724 1.62097 0
M  V30 1430 H 139.465 -1.20991 0.780838 0
M  V30 1431 H 141.418 -4.21199 -0.130147 0
M  V30 1432 H 140.142 -3.16617 -0.80134 0
M  V30 1433 H 138.801 -3.42173 1.3158 0
M  V30 1434 H 138.449 -4.99449 -0.596606 0
M  V30 1435 H 138.149 -5.79609 0.965788 0
M  V30 1436 H 139.673 -6.10539 0.0861567 0
M  V30 1437 H 141.087 -5.2913 2.20669 0
M  V30 1438 H 139.484 -5.20148 2.99276 0
M  V30 1439 H 140.554 -3.78834 3.02676 0
M  V30 1440 N 141.898 -0.863906 -1.31812 0
M  V30 1441 C 142.861 -0.320212 -2.26952 0
M  V30 1442 C 143.861 0.525369 -1.51975 0
M  V30 1443 O 145.051 0.335547 -1.70938 0
M  V30 1444 C 142.183 0.545919 -3.365 0
M  V30 1445 H 143.376 -1.16004 -2.76556 0
M  V30 1446 H 140.929 -0.638995 -1.42641 0
M  V30 1447 H 141.664 1.40718 -2.92179 0
M  V30 1448 H 141.449 -0.0594674 -3.92055 0
M  V30 1449 H 142.939 0.918796 -4.07367 0
M  V30 1450 N 143.376 1.44774 -0.622745 0
M  V30 1451 C 144.792 1.56986 -0.287652 0
M  V30 1452 C 144.992 1.61167 1.20944 0
M  V30 1453 O 144.048 1.55015 1.99315 0
M  V30 1454 C 145.361 2.84551 -0.972188 0
M  V30 1455 C 146.909 2.9825 -0.949536 0
M  V30 1456 C 147.384 4.28605 -1.61437 0
M  V30 1457 N 148.875 4.35399 -1.58057 0
M  V30 1458 C 149.61 5.34964 -2.064 0
M  V30 1459 N 149.106 6.40981 -2.62897 0
M  V30 1460 N 150.899 5.26419 -1.97078 0
M  V30 1461 H 143.05 1.40304 -1.59463 0
M  V30 1462 H 145.313 0.671794 -0.668878 0
M  V30 1463 H 145.019 2.87417 -2.02693 0
M  V30 1464 H 144.893 3.73807 -0.504771 0
M  V30 1465 H 147.28 2.94941 0.0967067 0
M  V30 1466 H 147.361 2.10364 -1.45536 0
M  V30 1467 H 147.005 4.32672 -2.66002 0
M  V30 1468 H 146.935 5.15334 -1.08344 0
M  V30 1469 H 149.426 3.59397 -1.16801 0
M  V30 1470 H 149.739 7.13225 -2.97539 0
M  V30 1471 H 148.084 6.4169 -2.66943 0
M  V30 1472 H 151.275 4.42504 -1.52669 0
M  V30 1473 H 151.448 6.03861 -2.35066 0
M  V30 1474 N 144.854 0.36279 1.53368 0
M  V30 1475 C 145.817 -0.472679 2.24273 0
M  V30 1476 C 146.817 -1.012 1.24961 0
M  V30 1477 O 148.007 -0.898194 1.49259 0
M  V30 1478 C 145.139 -1.66039 2.97731 0
M  V30 1479 H 146.332 0.14773 2.99536 0
M  V30 1480 H 143.885 0.114434 1.55881 0
M  V30 1481 H 144.62 -2.31896 2.26704 0
M  V30 1482 H 144.405 -1.28066 3.70596 0
M  V30 1483 H 145.895 -2.25252 3.51641 0
M  V30 1484 N 146.332 -1.57332 0.0918853 0
M  V30 1485 C 147.28 -2.15075 -0.885747 0
M  V30 1486 C 148.274 -1.09277 -1.29441 0
M  V30 1487 O 149.48 -1.27627 -1.26931 0
M  V30 1488 H 145.855 -0.687966 -0.303656 0
M  V30 1489 H 147.826 -2.96047 -0.373995 0
M  V30 1490 C 146.575 -2.74325 -2.13638 0
M  V30 1491 H 145.898 -3.55418 -1.8308 0
M  V30 1492 H 147.338 -3.183 -2.80109 0
M  V30 1493 C 145.797 -1.70062 -2.90827 0
M  V30 1494 O 146.327 -1.13763 -3.85254 0
M  V30 1495 N 144.533 -1.40628 -2.54307 0
M  V30 1496 H 144.08 -1.866 -1.7759 0
M  V30 1497 H 144.038 -0.711043 -3.06254 0
M  V30 1498 N 147.81 0.181792 -1.56548 0
M  V30 1499 C 149.058 0.89832 -1.81038 0
M  V30 1500 C 149.379 1.83232 -0.667164 0
M  V30 1501 O 148.649 1.93372 0.313673 0
M  V30 1502 H 147.229 0.33471 -0.667816 0
M  V30 1503 H 149.891 0.184116 -1.94028 0
M  V30 1504 H 148.987 1.4815 -2.74696 0
M  V30 1505 N 149.288 1.51039 0.449983 0
M  V30 1506 C 150.536 1.62759 1.19808 0
M  V30 1507 C 150.857 0.339981 1.92013 0
M  V30 1508 O 150.127 -0.643606 1.85026 0
M  V30 1509 H 148.707 0.599811 0.445237 0
M  V30 1510 H 151.369 1.87914 0.517138 0
M  V30 1511 H 150.465 2.44911 1.93455 0
M  V30 1512 N 150.766 -0.704594 1.40972 0
M  V30 1513 C 152.013 -1.46458 1.39844 0
M  V30 1514 C 152.341 -1.94499 0.00447594 0
M  V30 1515 O 151.596 -1.69275 -0.982057 0
M  V30 1516 C 151.895 -2.698 2.34399 0
M  V30 1517 C 151.561 -2.40464 3.81429 0
M  V30 1518 C 150.223 -2.32174 4.21484 0
M  V30 1519 C 152.575 -2.16086 4.74296 0
M  V30 1520 C 149.903 -1.97589 5.52427 0
M  V30 1521 C 152.255 -1.83011 6.05549 0
M  V30 1522 C 150.919 -1.7321 6.44635 0
M  V30 1523 H 150.189 -0.535927 0.511725 0
M  V30 1524 H 152.836 -0.806124 1.73706 0
M  V30 1525 H 151.141 -3.40536 1.93759 0
M  V30 1526 H 152.838 -3.27919 2.30804 0
M  V30 1527 H 149.428 -2.47808 3.49699 0
M  V30 1528 H 153.612 -2.2144 4.4416 0
M  V30 1529 H 148.868 -1.88547 5.81601 0
M  V30 1530 H 153.042 -1.63164 6.77016 0
M  V30 1531 H 150.669 -1.46179 7.46013 0
M  V30 1532 N 152.244 -1.26651 -0.937939 0
M  V30 1533 C 153.472 -1.15173 -1.7188 0
M  V30 1534 C 153.887 0.292668 -1.86518 0
M  V30 1535 O 153.244 1.20014 -1.37488 0
M  V30 1536 C 153.295 -1.81925 -3.12387 0
M  V30 1537 O 153.016 -3.2072 -2.98446 0
M  V30 1538 C 154.517 -1.76442 -4.06673 0
M  V30 1539 H 151.737 -0.400911 -0.538063 0
M  V30 1540 H 154.281 -1.67332 -1.1756 0
M  V30 1541 H 152.436 -1.33696 -3.63599 0
M  V30 1542 H 152.85 -3.53802 -3.872 0
M  V30 1543 H 154.324 -2.27781 -5.02812 0
M  V30 1544 H 154.801 -0.731608 -4.33064 0
M  V30 1545 H 155.407 -2.24238 -3.61382 0
M  V30 1546 N 153.722 1.14298 -1.08507 0
M  V30 1547 C 154.95 1.89219 -0.836876 0
M  V30 1548 C 155.365 1.78638 0.611054 0
M  V30 1549 O 154.722 1.14643 1.41998 0
M  V30 1550 C 154.773 3.39158 -1.25116 0
M  V30 1551 O 154.494 3.49449 -2.64229 0
M  V30 1552 C 155.995 4.31073 -1.03398 0
M  V30 1553 H 153.215 0.599328 -0.301739 0
M  V30 1554 H 155.759 1.44746 -1.44461 0
M  V30 1555 H 153.914 3.81251 -0.687514 0
M  V30 1556 H 154.328 4.42589 -2.81452 0
M  V30 1557 H 155.802 5.34646 -1.37323 0
M  V30 1558 H 156.279 4.3919 0.0289259 0
M  V30 1559 H 156.885 3.94738 -1.58311 0
M  V30 1560 N 155.201 0.870884 1.31352 0
M  V30 1561 C 156.426 0.495957 2.01383 0
M  V30 1562 C 156.851 -0.904324 1.64935 0
M  V30 1563 O 156.209 -1.59687 0.858466 0
M  V30 1564 C 156.257 0.661433 3.54482 0
M  V30 1565 O 155.361 -0.298851 4.11316 0
M  V30 1566 H 154.702 0.197158 0.634054 0
M  V30 1567 H 157.232 1.17455 1.67527 0
M  V30 1568 H 157.242 0.555072 4.04207 0
M  V30 1569 H 155.917 1.68246 3.8035 0
M  V30 1570 H 154.494 -0.147368 3.72609 0
M  V30 1571 N 156.679 -1.44442 0.630414 0
M  V30 1572 C 157.904 -2.06927 0.139944 0
M  V30 1573 C 158.329 -1.46795 -1.17613 0
M  V30 1574 O 157.687 -0.569144 -1.72135 0
M  V30 1575 C 157.735 -3.6058 0.0379581 0
M  V30 1576 O 156.839 -3.99937 -1.0062 0
M  V30 1577 H 156.18 -0.658608 0.0844483 0
M  V30 1578 H 158.71 -1.85327 0.866891 0
M  V30 1579 H 158.72 -4.07714 -0.152856 0
M  V30 1580 H 157.395 -4.03728 0.998809 0
M  V30 1581 H 155.972 -3.64436 -0.79001 0
M  V30 1582 N 158.157 -0.370918 -1.53173 0
M  V30 1583 C 159.382 0.220293 -2.06227 0
M  V30 1584 C 159.807 1.41243 -1.24225 0
M  V30 1585 O 159.165 1.79387 -0.262645 0
M  V30 1586 C 159.213 0.586663 -3.55796 0
M  V30 1587 O 158.317 1.68317 -3.76488 0
M  V30 1588 H 157.658 0.0308099 -0.663285 0
M  V30 1589 H 160.188 -0.533068 -1.97534 0
M  V30 1590 H 160.198 0.85617 -3.98916 0
M  V30 1591 H 158.873 -0.285013 -4.14922 0
M  V30 1592 H 157.45 1.40881 -3.45264 0
M  V30 1593 N 159.635 1.57281 -0.100228 0
M  V30 1594 C 160.598 2.13158 0.842398 0
M  V30 1595 C 161.598 1.06202 1.20738 0
M  V30 1596 O 162.788 1.32066 1.13597 0
M  V30 1597 C 159.92 2.65639 2.13655 0
M  V30 1598 H 161.113 2.97766 0.357114 0
M  V30 1599 H 158.666 1.5559 0.148823 0
M  V30 1600 H 159.401 1.84566 2.66657 0
M  V30 1601 H 159.186 3.43844 1.88451 0
M  V30 1602 H 160.676 3.08846 2.81077 0
M  V30 1603 N 161.113 -0.173488 1.56642 0
M  V30 1604 C 162.524 -0.736155 1.71574 0
M  V30 1605 C 162.875 -1.82888 0.710389 0
M  V30 1606 O 162 -2.16017 -0.1287 0
M  V30 1607 C 162.595 -1.34211 3.11083 0
M  V30 1608 C 161.154 -1.85162 3.27707 0
M  V30 1609 C 160.301 -0.729765 2.67525 0
M  V30 1610 H 163.252 0.0518786 1.58615 0
M  V30 1611 H 163.273 -2.21178 3.09613 0
M  V30 1612 H 162.785 -0.546579 3.84232 0
M  V30 1613 H 160.886 -2.67366 2.59512 0
M  V30 1614 H 160.999 -1.99855 4.35425 0
M  V30 1615 H 159.363 -1.14965 2.27278 0
M  V30 1616 H 160.146 0.0538806 3.43258 0
M  V30 1617 N 162.591 -1.51276 -0.441967 0
M  V30 1618 C 163.521 -1.752 -1.54361 0
M  V30 1619 C 164.502 -0.601682 -1.59103 0
M  V30 1620 O 165.687 -0.843913 -1.74905 0
M  V30 1621 C 162.817 -1.87282 -2.92477 0
M  V30 1622 C 161.771 -3.02687 -3.02596 0
M  V30 1623 C 161.097 -2.99947 -4.42647 0
M  V30 1624 C 162.397 -4.4273 -2.77106 0
M  V30 1625 H 164.091 -2.67442 -1.34592 0
M  V30 1626 H 161.637 -1.28694 -0.646048 0
M  V30 1627 H 163.59 -2.02602 -3.695 0
M  V30 1628 H 162.314 -0.916844 -3.13467 0
M  V30 1629 H 160.973 -2.87065 -2.28012 0
M  V30 1630 H 160.621 -2.02136 -4.60597 0
M  V30 1631 H 160.321 -3.77439 -4.50348 0
M  V30 1632 H 161.845 -3.17354 -5.2165 0
M  V30 1633 H 163.259 -4.58727 -3.43864 0
M  V30 1634 H 161.656 -5.21893 -2.96222 0
M  V30 1635 H 162.726 -4.53087 -1.72744 0
M  V30 1636 N 164.069 0.697108 -1.41344 0
M  V30 1637 C 165.002 1.82134 -1.37486 0
M  V30 1638 C 165.98 1.60784 -0.242351 0
M  V30 1639 O 167.164 1.83553 -0.429012 0
M  V30 1640 C 164.291 3.18788 -1.14421 0
M  V30 1641 C 163.337 3.58932 -2.3037 0
M  V30 1642 S 164.17 3.63916 -3.92843 0
M  V30 1643 C 165.326 5.03298 -3.72078 0
M  V30 1644 H 165.559 1.85129 -2.32625 0
M  V30 1645 H 163.092 0.865671 -1.2785 0
M  V30 1646 H 165.05 3.97677 -1.018 0
M  V30 1647 H 163.711 3.13404 -0.20905 0
M  V30 1648 H 162.904 4.58202 -2.09922 0
M  V30 1649 H 162.506 2.87347 -2.39391 0
M  V30 1650 H 164.798 5.90753 -3.31688 0
M  V30 1651 H 165.741 5.28788 -4.70945 0
M  V30 1652 H 166.149 4.74764 -3.05384 0
M  V30 1653 N 165.547 1.27147 0.931209 0
M  V30 1654 C 166.497 1.06227 2.01742 0
M  V30 1655 C 167.481 -0.00859065 1.60898 0
M  V30 1656 O 168.673 0.209537 1.75755 0
M  V30 1657 C 165.802 0.707787 3.35924 0
M  V30 1658 C 164.888 1.81661 3.83223 0
M  V30 1659 N 165.279 3.05564 4.03069 0
M  V30 1660 C 163.577 1.70249 4.12227 0
M  V30 1661 C 164.278 3.77697 4.42403 0
M  V30 1662 N 163.254 3.0544 4.49675 0
M  V30 1663 H 167.056 2.00261 2.15111 0
M  V30 1664 H 164.57 1.1781 1.11779 0
M  V30 1665 H 166.567 0.539043 4.134 0
M  V30 1666 H 165.227 -0.224964 3.2392 0
M  V30 1667 H 166.238 3.41363 3.89476 0
M  V30 1668 H 162.915 0.840329 4.08956 0
M  V30 1669 H 164.305 4.84168 4.65866 0
M  V30 1670 N 167.025 -1.13721 1.09112 0
M  V30 1671 C 167.988 -2.17222 0.731241 0
M  V30 1672 C 168.988 -1.59035 -0.237566 0
M  V30 1673 O 170.178 -1.74192 -0.0161704 0
M  V30 1674 C 167.31 -3.40804 0.0808443 0
M  V30 1675 H 168.503 -2.50573 1.64783 0
M  V30 1676 H 166.056 -1.28493 0.889897 0
M  V30 1677 H 166.791 -3.1304 -0.847127 0
M  V30 1678 H 166.576 -3.84306 0.777896 0
M  V30 1679 H 168.066 -4.1731 -0.155657 0
M  V30 1680 N 168.503 -0.877838 -1.30888 0
M  V30 1681 C 169.435 -0.296607 -2.27273 0
M  V30 1682 C 170.448 0.544799 -1.53414 0
M  V30 1683 O 171.637 0.365511 -1.74718 0
M  V30 1684 C 168.737 0.597481 -3.33592 0
M  V30 1685 C 167.91 -0.213251 -4.3688 0
M  V30 1686 C 166.969 0.610208 -5.2265 0
M  V30 1687 O 165.995 0.035441 -5.69189 0
M  V30 1688 N 167.197 1.92071 -5.47804 0
M  V30 1689 H 169.962 -1.12492 -2.77787 0
M  V30 1690 H 167.523 -0.740105 -1.43993 0
M  V30 1691 H 169.515 1.15425 -3.87891 0
M  V30 1692 H 168.085 1.32647 -2.83061 0
M  V30 1693 H 167.305 -0.951466 -3.82545 0
M  V30 1694 H 168.593 -0.769262 -5.02951 0
M  V30 1695 H 167.991 2.4107 -5.11763 0
M  V30 1696 H 166.548 2.42508 -6.05007 0
M  V30 1697 N 169.982 1.44106 -0.638065 0
M  V30 1698 C 171.228 2.02277 -0.145546 0
M  V30 1699 C 171.561 1.50125 1.23191 0
M  V30 1700 O 170.836 0.688133 1.8192 0
M  V30 1701 C 171.119 3.59829 -0.139791 0
M  V30 1702 C 170.972 4.22247 -1.55008 0
M  V30 1703 C 172.291 4.36873 0.531966 0
M  V30 1704 H 169.41 0.734992 -0.0543632 0
M  V30 1705 H 172.052 1.71592 -0.815863 0
M  V30 1706 H 170.202 3.86102 0.431007 0
M  V30 1707 H 171.874 4.07057 -2.1703 0
M  V30 1708 H 170.117 3.79476 -2.10191 0
M  V30 1709 H 170.788 5.31284 -1.49804 0
M  V30 1710 H 173.264 4.16074 0.0464781 0
M  V30 1711 H 172.14 5.4657 0.505206 0
M  V30 1712 H 172.401 4.11995 1.60352 0
M  V30 1713 N 171.46 0.379036 1.52974 0
M  V30 1714 C 172.392 -0.495963 2.2377 0
M  V30 1715 C 173.405 -1.03517 1.25651 0
M  V30 1716 O 174.594 -0.939249 1.51791 0
M  V30 1717 C 171.694 -1.69894 2.93239 0
M  V30 1718 C 170.867 -1.2889 4.17979 0
M  V30 1719 C 169.926 -2.35543 4.70538 0
M  V30 1720 O 168.952 -1.97375 5.33883 0
M  V30 1721 N 170.154 -3.67318 4.49508 0
M  V30 1722 H 172.919 0.110523 2.99496 0
M  V30 1723 H 170.48 0.204878 1.60598 0
M  V30 1724 H 172.472 -2.40747 3.25304 0
M  V30 1725 H 171.042 -2.212 2.20883 0
M  V30 1726 H 170.262 -0.409676 3.92065 0
M  V30 1727 H 171.55 -0.991443 4.99047 0
M  V30 1728 H 170.948 -4.01095 3.98923 0
M  V30 1729 H 169.505 -4.34235 4.8609 0
M  V30 1730 N 172.938 -1.57226 0.108567 0
M  V30 1731 C 174.187 -1.94008 -0.551703 0
M  V30 1732 C 174.5 -0.993442 -1.68494 0
M  V30 1733 O 175.706 -1.25551 -2.40726 0
M  V30 1734 C 174.162 -3.44763 -1.03279 0
M  V30 1735 C 173.77 -4.47943 0.0714193 0
M  V30 1736 C 175.514 -3.90483 -1.66503 0
M  V30 1737 C 173.421 -5.89865 -0.425779 0
M  V30 1738 H 172.351 -0.724206 -0.209863 0
M  V30 1739 H 175.002 -1.82547 0.186741 0
M  V30 1740 H 173.384 -3.51422 -1.82533 0
M  V30 1741 H 174.558 -4.52942 0.847365 0
M  V30 1742 H 172.873 -4.11913 0.609669 0
M  V30 1743 H 175.47 -4.93925 -2.04798 0
M  V30 1744 H 175.813 -3.29877 -2.53942 0
M  V30 1745 H 176.346 -3.86581 -0.938074 0
M  V30 1746 H 173.085 -6.54202 0.412316 0
M  V30 1747 H 172.605 -5.88309 -1.16843 0
M  V30 1748 H 174.284 -6.40844 -0.890397 0
M  V30 1749 N 174.416 0.165178 -1.56732 0
M  V30 1750 C 175.662 0.882112 -1.82611 0
M  V30 1751 C 175.995 1.81628 -0.687378 0
M  V30 1752 O 175.27 1.92009 0.310267 0
M  V30 1753 C 175.553 1.67245 -3.18906 0
M  V30 1754 C 175.406 0.760987 -4.43316 0
M  V30 1755 C 176.725 2.63884 -3.52212 0
M  V30 1756 H 173.844 0.319242 -0.664269 0
M  V30 1757 H 176.486 0.148052 -1.89422 0
M  V30 1758 H 174.636 2.29824 -3.1323 0
M  V30 1759 H 176.308 0.147596 -4.61064 0
M  V30 1760 H 174.551 0.0694102 -4.33744 0
M  V30 1761 H 175.222 1.34962 -5.35247 0
M  V30 1762 H 177.698 2.11429 -3.58381 0
M  V30 1763 H 176.574 3.16245 -4.48643 0
M  V30 1764 H 176.835 3.44377 -2.77231 0
M  V30 1765 N 175.894 1.51508 0.433938 0
M  V30 1766 C 177.142 1.6402 1.18075 0
M  V30 1767 C 177.463 0.360328 1.91642 0
M  V30 1768 O 176.733 -0.623945 1.85698 0
M  V30 1769 H 175.313 0.6045 0.43885 0
M  V30 1770 H 177.975 1.88452 0.497178 0
M  V30 1771 H 177.071 2.46949 1.90847 0
M  V30 1772 N 177.372 -0.689602 1.41712 0
M  V30 1773 C 178.621 -1.44534 1.40686 0
M  V30 1774 C 178.934 -1.95588 0.0213352 0
M  V30 1775 O 180.14 -2.71271 -0.111534 0
M  V30 1776 C 178.596 -2.61387 2.47396 0
M  V30 1777 C 178.204 -2.17094 3.91885 0
M  V30 1778 C 179.948 -3.38986 2.55517 0
M  V30 1779 C 177.855 -3.3094 4.90135 0
M  V30 1780 H 176.785 -0.542925 0.52321 0
M  V30 1781 H 179.436 -0.748054 1.6756 0
M  V30 1782 H 177.818 -3.33412 2.13664 0
M  V30 1783 H 178.992 -1.52318 4.34897 0
M  V30 1784 H 177.307 -1.52473 3.8748 0
M  V30 1785 H 179.904 -4.23747 3.26102 0
M  V30 1786 H 180.247 -3.84578 1.59391 0
M  V30 1787 H 180.78 -2.74021 2.8837 0
M  V30 1788 H 177.519 -2.90355 5.87685 0
M  V30 1789 H 177.039 -3.94546 4.51767 0
M  V30 1790 H 178.718 -3.9663 5.11169 0
M  V30 1791 N 178.85 -1.27639 -0.924453 0
M  V30 1792 C 179.782 -1.06442 -2.02985 0
M  V30 1793 C 180.795 -0.0194771 -1.62788 0
M  V30 1794 O 181.984 -0.261388 -1.76576 0
M  V30 1795 C 179.084 -0.59327 -3.33667 0
M  V30 1796 C 178.257 -1.71123 -4.02537 0
M  V30 1797 C 177.316 -1.23527 -5.11495 0
M  V30 1798 O 176.342 -1.93553 -5.35281 0
M  V30 1799 N 177.544 -0.0926678 -5.80426 0
M  V30 1800 H 180.309 -2.01633 -2.2173 0
M  V30 1801 H 177.87 -1.19248 -1.09505 0
M  V30 1802 H 179.862 -0.258686 -4.03872 0
M  V30 1803 H 178.432 0.265502 -3.1147 0
M  V30 1804 H 177.652 -2.21593 -3.26022 0
M  V30 1805 H 178.94 -2.46145 -4.45298 0
M  V30 1806 H 178.338 0.491741 -5.63559 0
M  V30 1807 H 176.895 0.182714 -6.51544 0
M  V30 1808 N 180.328 1.1314 -1.09713 0
M  V30 1809 C 181.605 1.80762 -0.747302 0
M  V30 1810 C 181.985 1.96663 0.767265 0
M  V30 1811 O 181.333 1.53706 1.69076 0
M  V30 1812 C 181.543 3.15606 -1.48975 0
M  V30 1813 C 182.891 3.90914 -1.65746 0
M  V30 1814 O 183.915 3.25239 -1.45251 0
M  V30 1815 O 182.774 5.08718 -1.9967 0
M  V30 1816 H 179.868 0.782103 -0.268782 0
M  V30 1817 H 182.414 1.20041 -1.19951 0
M  V30 1818 H 181.186 2.99278 -2.52088 0
M  V30 1819 H 180.809 3.84029 -1.02991 0
M  V30 1820 N 181.806 0.884767 1.30421 0
M  V30 1821 C 183.217 0.553656 1.78302 0
M  V30 1822 C 183.568 -0.930153 1.7275 0
M  V30 1823 O 182.693 -1.72681 1.30423 0
M  V30 1824 C 183.288 0.998234 3.2376 0
M  V30 1825 C 181.847 0.71854 3.69478 0
M  V30 1826 C 180.994 1.18132 2.50879 0
M  V30 1827 H 183.945 1.06901 1.17294 0
M  V30 1828 H 183.966 0.327118 3.79091 0
M  V30 1829 H 183.478 2.0782 3.27769 0
M  V30 1830 H 181.579 -0.349444 3.70958 0
M  V30 1831 H 181.692 1.30595 4.60958 0
M  V30 1832 H 180.056 0.600669 2.47516 0
M  V30 1833 H 180.839 2.26902 2.57624 0
M  V30 1834 N 183.284 -1.43765 0.645699 0
M  V30 1835 C 184.214 -2.33471 -0.0370477 0
M  V30 1836 C 185.195 -1.49042 -0.819779 0
M  V30 1837 O 186.38 -1.77726 -0.782758 0
M  V30 1838 C 183.51 -3.32311 -1.0093 0
M  V30 1839 C 182.464 -4.2667 -0.337201 0
M  V30 1840 C 181.79 -5.1549 -1.42037 0
M  V30 1841 C 183.09 -5.16657 0.765706 0
M  V30 1842 H 184.784 -2.90809 0.712069 0
M  V30 1843 H 182.33 -1.39834 0.343876 0
M  V30 1844 H 184.283 -3.9396 -1.49578 0
M  V30 1845 H 183.007 -2.73213 -1.78948 0
M  V30 1846 H 181.666 -3.66374 0.128771 0
M  V30 1847 H 181.314 -4.52735 -2.1918 0
M  V30 1848 H 181.014 -5.79438 -0.975966 0
M  V30 1849 H 182.538 -5.80012 -1.90838 0
M  V30 1850 H 183.952 -5.72158 0.361702 0
M  V30 1851 H 182.349 -5.89286 1.13413 0
M  V30 1852 H 183.419 -4.56796 1.62683 0
M  V30 1853 N 184.763 -0.387143 -1.52771 0
M  V30 1854 C 185.711 0.463953 -2.27926 0
M  V30 1855 C 186.705 1.06493 -1.31741 0
M  V30 1856 O 187.911 1.00565 -1.49287 0
M  V30 1857 H 184.286 0.16837 -0.732909 0
M  V30 1858 H 186.257 -0.19141 -2.97785 0
M  V30 1859 C 185.006 1.5803 -3.09713 0
M  V30 1860 H 184.329 1.12718 -3.83581 0
M  V30 1861 H 185.769 2.15008 -3.65442 0
M  V30 1862 C 184.228 2.53509 -2.2189 0
M  V30 1863 O 184.758 3.56863 -1.84422 0
M  V30 1864 N 182.964 2.23199 -1.86093 0
M  V30 1865 H 182.511 1.39185 -2.16761 0
M  V30 1866 H 182.469 2.87333 -1.27621 0
M  V30 1867 N 186.241 1.57166 -0.116904 0
M  V30 1868 C 187.204 2.14039 0.819742 0
M  V30 1869 C 188.204 1.07477 1.19605 0
M  V30 1870 O 189.394 1.33263 1.1219 0
M  V30 1871 C 186.526 2.67891 2.10826 0
M  V30 1872 H 187.719 2.98128 0.325511 0
M  V30 1873 H 185.272 1.55739 0.132312 0
M  V30 1874 H 186.007 1.87384 2.64685 0
M  V30 1875 H 185.792 3.45823 1.84793 0
M  V30 1876 H 187.282 3.11809 2.77785 0
M  V30 1877 N 187.719 -0.156864 1.56817 0
M  V30 1878 C 189.135 -0.50916 1.5126 0
M  V30 1879 C 189.335 -1.83897 0.823658 0
M  V30 1880 O 188.391 -2.49469 0.390055 0
M  V30 1881 C 189.704 -0.52857 2.96018 0
M  V30 1882 C 191.252 -0.614771 3.06903 0
M  V30 1883 C 191.727 -0.664938 4.53147 0
M  V30 1884 N 193.218 -0.727433 4.57452 0
M  V30 1885 C 193.953 -0.787067 5.67973 0
M  V30 1886 N 193.449 -0.806649 6.88088 0
M  V30 1887 N 195.242 -0.827195 5.5598 0
M  V30 1888 H 187.393 0.714935 2.00006 0
M  V30 1889 H 189.656 0.259526 0.911784 0
M  V30 1890 H 189.362 0.380154 3.49639 0
M  V30 1891 H 189.236 -1.36998 3.51442 0
M  V30 1892 H 191.623 -1.51392 2.53307 0
M  V30 1893 H 191.704 0.253597 2.5454 0
M  V30 1894 H 191.348 0.230011 5.07379 0
M  V30 1895 H 191.278 -1.54966 5.03282 0
M  V30 1896 H 193.769 -0.719998 3.70978 0
M  V30 1897 H 194.082 -0.853727 7.6807 0
M  V30 1898 H 192.427 -0.774687 6.90669 0
M  V30 1899 H 195.618 -0.808998 4.61056 0
M  V30 1900 H 195.791 -0.870206 6.4213 0
M  V30 1901 N 189.197 -1.51736 -0.425897 0
M  V30 1902 C 190.127 -1.76827 -1.52494 0
M  V30 1903 C 191.108 -0.618524 -1.58456 0
M  V30 1904 O 192.293 -0.862416 -1.74 0
M  V30 1905 C 189.423 -1.90374 -2.90474 0
M  V30 1906 C 188.377 -3.0588 -2.99369 0
M  V30 1907 C 187.703 -3.04625 -4.3944 0
M  V30 1908 C 189.003 -4.45644 -2.72394 0
M  V30 1909 H 190.697 -2.68855 -1.31748 0
M  V30 1910 H 188.243 -1.29372 -0.632362 0
M  V30 1911 H 190.196 -2.0651 -3.6733 0
M  V30 1912 H 188.92 -0.95004 -3.12477 0
M  V30 1913 H 187.579 -2.89467 -2.24954 0
M  V30 1914 H 187.227 -2.0701 -4.58428 0
M  V30 1915 H 186.927 -3.82195 -4.46319 0
M  V30 1916 H 188.451 -3.22869 -5.18255 0
M  V30 1917 H 189.865 -4.62348 -3.38979 0
M  V30 1918 H 188.262 -5.25006 -2.9067 0
M  V30 1919 H 189.332 -4.54893 -1.67929 0
M  V30 1920 N 190.675 0.682077 -1.42076 0
M  V30 1921 C 191.9 1.47558 -1.45744 0
M  V30 1922 C 192.325 1.87977 -0.0680981 0
M  V30 1923 O 191.683 1.55522 0.9318 0
M  V30 1924 C 191.731 2.70575 -2.38373 0
M  V30 1925 O 190.835 3.68573 -1.85007 0
M  V30 1926 H 190.176 0.443585 -0.494093 0
M  V30 1927 H 192.706 0.837238 -1.86686 0
M  V30 1928 H 192.716 3.18729 -2.54707 0
M  V30 1929 H 191.391 2.40495 -3.39315 0
M  V30 1930 H 189.968 3.2757 -1.78192 0
M  V30 1931 N 192.153 1.28127 0.917671 0
M  V30 1932 C 193.083 1.14248 2.03641 0
M  V30 1933 C 194.064 0.0412748 1.7005 0
M  V30 1934 O 195.249 0.217566 1.92977 0
M  V30 1935 C 192.379 0.799431 3.37974 0
M  V30 1936 C 191.333 1.85497 3.85713 0
M  V30 1937 C 190.659 1.36565 5.16966 0
M  V30 1938 C 191.959 3.26085 4.08002 0
M  V30 1939 H 193.653 2.07835 2.15511 0
M  V30 1940 H 191.199 1.00064 1.03553 0
M  V30 1941 H 193.152 0.689114 4.15727 0
M  V30 1942 H 191.876 -0.172145 3.26146 0
M  V30 1943 H 190.535 1.95437 3.10161 0
M  V30 1944 H 190.183 0.383253 5.01538 0
M  V30 1945 H 189.883 2.07143 5.49878 0
M  V30 1946 H 191.407 1.26848 5.97279 0
M  V30 1947 H 192.821 3.19089 4.76293 0
M  V30 1948 H 191.218 3.94462 4.52238 0
M  V30 1949 H 192.288 3.70394 3.12948 0
M  V30 1950 N 193.631 -1.12557 1.10312 0
M  V30 1951 C 194.561 -2.20341 0.772798 0
M  V30 1952 C 195.542 -1.68198 -0.25365 0
M  V30 1953 O 196.727 -1.93831 -0.119699 0
M  V30 1954 C 193.857 -3.46709 0.202443 0
M  V30 1955 C 192.811 -4.11996 1.15943 0
M  V30 1956 C 192.137 -5.328 0.450345 0
M  V30 1957 C 193.437 -4.5828 2.50552 0
M  V30 1958 H 195.131 -2.48229 1.674 0
M  V30 1959 H 192.677 -1.19308 0.806326 0
M  V30 1960 H 194.63 -4.2138 -0.0407752 0
M  V30 1961 H 193.354 -3.18245 -0.734001 0
M  V30 1962 H 192.013 -3.39305 1.38808 0
M  V30 1963 H 191.661 -5.00602 -0.490531 0
M  V30 1964 H 191.361 -5.7743 1.08851 0
M  V30 1965 H 192.885 -6.10219 0.215642 0
M  V30 1966 H 194.299 -5.2433 2.31843 0
M  V30 1967 H 192.696 -5.13683 3.10242 0
M  V30 1968 H 193.766 -3.72329 3.10643 0
M  V30 1969 N 195.109 -0.891671 -1.2995 0
M  V30 1970 C 196.525 -0.58662 -1.48428 0
M  V30 1971 C 196.725 0.873951 -1.81561 0
M  V30 1972 O 195.781 1.65471 -1.90724 0
M  V30 1973 C 197.094 -1.50553 -2.60296 0
M  V30 1974 C 198.642 -1.50988 -2.74175 0
M  V30 1975 C 199.117 -2.41488 -3.89163 0
M  V30 1976 N 200.608 -2.39489 -3.96483 0
M  V30 1977 C 201.343 -3.06223 -4.84784 0
M  V30 1978 N 200.839 -3.82206 -5.77833 0
M  V30 1979 N 202.632 -2.95421 -4.78208 0
M  V30 1980 H 194.783 -1.83644 -1.06718 0
M  V30 1981 H 197.046 -0.786455 -0.529332 0
M  V30 1982 H 196.752 -2.54581 -2.42654 0
M  V30 1983 H 196.626 -1.22008 -3.56923 0
M  V30 1984 H 199.013 -0.47708 -2.91218 0
M  V30 1985 H 199.094 -1.83567 -1.78148 0
M  V30 1986 H 198.738 -3.44857 -3.72876 0
M  V30 1987 H 198.668 -2.06222 -4.84541 0
M  V30 1988 H 201.159 -1.84278 -3.29924 0
M  V30 1989 H 201.472 -4.302 -6.41988 0
M  V30 1990 H 199.817 -3.86313 -5.77743 0
M  V30 1991 H 203.008 -2.35581 -4.04499 0
M  V30 1992 H 203.181 -3.47704 -5.46814 0
M  V30 1993 N 196.587 1.43421 -0.653314 0
M  V30 1994 C 198.003 1.56341 -0.320886 0
M  V30 1995 C 198.203 1.63696 1.17499 0
M  V30 1996 O 197.259 1.59208 1.95982 0
M  V30 1997 C 198.572 2.82424 -1.03233 0
M  V30 1998 C 200.12 2.96168 -1.01259 0
M  V30 1999 C 200.595 4.25084 -1.70492 0
M  V30 2000 N 202.086 4.31948 -1.67257 0
M  V30 2001 C 202.821 5.30466 -2.17701 0
M  V30 2002 N 202.317 6.35261 -2.76434 0
M  V30 2003 N 204.11 5.2212 -2.082 0
M  V30 2004 H 196.261 1.3689 -1.62403 0
M  V30 2005 H 198.524 0.657455 -0.682977 0
M  V30 2006 H 198.23 2.83053 -2.08744 0
M  V30 2007 H 198.104 3.72653 -0.583948 0
M  V30 2008 H 200.491 2.9508 0.0341235 0
M  V30 2009 H 200.572 2.07229 -1.49966 0
M  V30 2010 H 200.216 4.26932 -2.7512 0
M  V30 2011 H 200.146 5.1292 -1.19251 0
M  V30 2012 H 202.637 3.56838 -1.24398 0
M  V30 2013 H 202.95 7.06754 -3.12601 0
M  V30 2014 H 201.295 6.35884 -2.80495 0
M  V30 2015 H 204.486 4.39166 -1.62021 0
M  V30 2016 H 204.659 5.98739 -2.47822 0
M  V30 2017 N 198.065 0.39524 1.52563 0
M  V30 2018 C 199.012 -0.437036 2.26624 0
M  V30 2019 C 199.982 -1.05281 1.28472 0
M  V30 2020 O 201.167 -1.07971 1.57311 0
M  V30 2021 C 198.307 -1.55524 3.08069 0
M  V30 2022 C 197.42 -0.961745 4.21158 0
M  V30 2023 C 196.555 -2.05149 4.89987 0
M  V30 2024 C 195.594 -1.4342 5.95061 0
M  V30 2025 N 194.731 -2.46351 6.57462 0
M  V30 2026 H 199.571 0.200976 2.97322 0
M  V30 2027 H 197.108 0.110944 1.46681 0
M  V30 2028 H 199.066 -2.21437 3.53584 0
M  V30 2029 H 197.696 -2.16348 2.3957 0
M  V30 2030 H 196.748 -0.192048 3.79915 0
M  V30 2031 H 198.06 -0.470701 4.96574 0
M  V30 2032 H 197.214 -2.78819 5.38837 0
M  V30 2033 H 195.953 -2.57615 4.14109 0
M  V30 2034 H 194.958 -0.682774 5.45544 0
M  V30 2035 H 196.183 -0.917416 6.72875 0
M  V30 2036 H 194.129 -2.97975 5.8442 0
M  V30 2037 H 194.046 -2.02019 7.28508 0
M  V30 2038 H 195.314 -3.19633 7.10954 0
M  V30 2039 N 199.544 -1.57102 0.125237 0
M  V30 2040 C 200.821 -1.86953 -0.575142 0
M  V30 2041 C 201.201 -1.02749 -1.84407 0
M  V30 2042 O 200.549 -0.108144 -2.28244 0
M  V30 2043 C 200.759 -3.38198 -0.861583 0
M  V30 2044 C 202.107 -4.06937 -1.21192 0
M  V30 2045 O 203.131 -3.43252 -0.951645 0
M  V30 2046 O 201.99 -5.19364 -1.70068 0
M  V30 2047 H 199.084 -0.774147 -0.290906 0
M  V30 2048 H 201.63 -1.68942 0.160211 0
M  V30 2049 H 200.402 -3.91282 0.0373647 0
M  V30 2050 H 200.025 -3.61661 -1.65188 0
M  V30 2051 N 201.022 0.148545 -1.56898 0
M  V30 2052 C 201.932 1.20293 -2.01412 0
M  V30 2053 C 202.948 1.47107 -0.929273 0
M  V30 2054 O 204.124 1.58807 -1.23863 0
M  V30 2055 C 201.189 2.51682 -2.38447 0
M  V30 2056 C 200.25 2.32529 -3.60872 0
M  V30 2057 C 199.483 3.57653 -3.96132 0
M  V30 2058 O 199.706 4.63771 -3.32073 0
M  V30 2059 O 198.64 3.50408 -4.89385 0
M  V30 2060 H 202.466 0.855025 -2.91416 0
M  V30 2061 H 200.051 0.357151 -1.45068 0
M  V30 2062 H 201.933 3.29147 -2.63135 0
M  V30 2063 H 200.608 2.86006 -1.51599 0
M  V30 2064 H 199.515 1.53019 -3.41373 0
M  V30 2065 H 200.848 2.03121 -4.48333 0
M  V30 2066 N 202.5 1.5196 0.417844 0
M  V30 2067 C 203.749 1.6482 1.16264 0
M  V30 2068 C 204.062 0.379886 1.91876 0
M  V30 2069 O 205.268 0.388154 2.68711 0
M  V30 2070 C 203.724 2.91161 2.1155 0
M  V30 2071 C 203.332 4.25068 1.41495 0
M  V30 2072 C 205.076 3.13383 2.86341 0
M  V30 2073 C 202.983 5.42541 2.35379 0
M  V30 2074 H 201.913 0.613954 0.437694 0
M  V30 2075 H 204.564 1.78442 0.427871 0
M  V30 2076 H 202.946 2.71218 2.88543 0
M  V30 2077 H 204.12 4.55463 0.699263 0
M  V30 2078 H 202.435 4.0888 0.787792 0
M  V30 2079 H 205.032 3.98324 3.5671 0
M  V30 2080 H 205.375 2.27256 3.48798 0
M  V30 2081 H 205.908 3.33757 2.1645 0
M  V30 2082 H 202.647 6.30987 1.77582 0
M  V30 2083 H 202.167 5.16497 3.04945 0
M  V30 2084 H 203.846 5.75272 2.96093 0
M  V30 2085 N 203.978 -0.674533 1.42435 0
M  V30 2086 C 205.227 -1.43034 1.42212 0
M  V30 2087 C 205.54 -1.95555 0.0420788 0
M  V30 2088 O 206.746 -2.71374 -0.0827558 0
M  V30 2089 C 205.202 -2.58748 2.50155 0
M  V30 2090 C 204.81 -2.12925 3.94166 0
M  V30 2091 C 206.554 -3.36257 2.59098 0
M  V30 2092 C 204.461 -3.25723 4.93618 0
M  V30 2093 H 203.391 -0.537345 0.528939 0
M  V30 2094 H 206.042 -0.73024 1.68344 0
M  V30 2095 H 204.424 -3.31128 2.17188 0
M  V30 2096 H 205.598 -1.47697 4.36488 0
M  V30 2097 H 203.913 -1.48354 3.89076 0
M  V30 2098 H 206.51 -4.20264 3.30578 0
M  V30 2099 H 206.853 -3.82866 1.63461 0
M  V30 2100 H 207.386 -2.70947 2.9126 0
M  V30 2101 H 204.125 -2.84105 5.90732 0
M  V30 2102 H 203.645 -3.89732 4.55926 0
M  V30 2103 H 205.324 -3.91186 5.15347 0
M  V30 2104 N 205.456 -1.28612 -0.910864 0
M  V30 2105 C 206.366 -1.14643 -2.0468 0
M  V30 2106 C 207.382 -0.0723121 -1.7385 0
M  V30 2107 O 208.558 -0.282178 -1.99413 0
M  V30 2108 C 205.623 -0.812561 -3.37044 0
M  V30 2109 C 204.684 -1.96935 -3.81465 0
M  V30 2110 C 203.917 -1.65131 -5.07511 0
M  V30 2111 O 204.14 -0.567013 -5.67575 0
M  V30 2112 O 203.074 -2.49585 -5.47714 0
M  V30 2113 H 206.9 -2.1001 -2.19384 0
M  V30 2114 H 204.485 -1.07958 -1.03274 0
M  V30 2115 H 206.367 -0.640441 -4.16505 0
M  V30 2116 H 205.042 0.111426 -3.23508 0
M  V30 2117 H 203.949 -2.19664 -3.02818 0
M  V30 2118 H 205.282 -2.87414 -3.99567 0
M  V30 2119 N 206.934 1.1197 -1.10907 0
M  V30 2120 C 207.864 2.19928 -0.784473 0
M  V30 2121 C 208.845 1.6833 0.244726 0
M  V30 2122 O 210.03 1.93892 0.109418 0
M  V30 2123 C 207.16 3.46597 -0.220827 0
M  V30 2124 C 206.114 4.11376 -1.18127 0
M  V30 2125 C 205.44 5.32554 -0.478594 0
M  V30 2126 C 206.74 4.56945 -2.52979 0
M  V30 2127 H 208.434 2.47337 -1.68715 0
M  V30 2128 H 205.98 1.18879 -0.812642 0
M  V30 2129 H 207.933 4.21396 0.0184278 0
M  V30 2130 H 206.657 3.1863 0.717113 0
M  V30 2131 H 205.316 3.38564 -1.40606 0
M  V30 2132 H 204.964 5.00856 0.463976 0
M  V30 2133 H 204.664 5.76844 -1.11912 0
M  V30 2134 H 206.188 6.10096 -0.248 0
M  V30 2135 H 207.602 5.23093 -2.3462 0
M  V30 2136 H 205.999 5.1203 -3.12962 0
M  V30 2137 H 207.069 3.70676 -3.12614 0
M  V30 2138 N 208.412 0.89855 1.29475 0
M  V30 2139 C 209.375 0.380272 2.26023 0
M  V30 2140 C 210.375 -0.484891 1.53315 0
M  V30 2141 O 211.565 -0.290108 1.71767 0
M  V30 2142 C 208.697 -0.45651 3.3783 0
M  V30 2143 H 209.89 1.23295 2.73383 0
M  V30 2144 H 207.443 0.676589 1.40897 0
M  V30 2145 H 208.178 -1.32922 2.95808 0
M  V30 2146 H 207.963 0.163393 3.91759 0
M  V30 2147 H 209.453 -0.810466 4.0966 0
M  V30 2148 N 209.89 -1.43072 0.660911 0
M  V30 2149 C 210.838 -2.32569 -0.0378199 0
M  V30 2150 C 211.832 -1.49046 -0.805092 0
M  V30 2151 O 213.038 -1.65206 -0.714624 0
M  V30 2152 H 209.413 -0.75136 -0.031019 0
M  V30 2153 H 211.384 -2.89216 0.734609 0
M  V30 2154 C 210.133 -3.33453 -0.985124 0
M  V30 2155 H 209.456 -3.97752 -0.404147 0
M  V30 2156 H 210.896 -3.98691 -1.44297 0
M  V30 2157 C 209.355 -2.64642 -2.08486 0
M  V30 2158 O 209.885 -2.46776 -3.16961 0
M  V30 2159 N 208.091 -2.23891 -1.8526 0
M  V30 2160 H 207.638 -2.38621 -0.970449 0
M  V30 2161 H 207.596 -1.78181 -2.59034 0
M  V30 2162 N 211.368 -0.403325 -1.52352 0
M  V30 2163 C 212.784 -0.0539281 -1.59509 0
M  V30 2164 C 212.984 1.43307 -1.41652 0
M  V30 2165 O 212.04 2.19924 -1.24056 0
M  V30 2166 C 213.353 -0.543654 -2.95745 0
M  V30 2167 C 214.901 -0.501125 -3.08962 0
M  V30 2168 C 215.376 -0.967267 -4.47669 0
M  V30 2169 N 216.867 -0.923849 -4.53893 0
M  V30 2170 C 217.602 -1.25578 -5.5948 0
M  V30 2171 N 217.098 -1.65889 -6.72646 0
M  V30 2172 N 218.891 -1.17613 -5.49658 0
M  V30 2173 H 211.042 -1.37123 -1.62206 0
M  V30 2174 H 213.305 -0.56294 -0.76276 0
M  V30 2175 H 213.011 -1.58275 -3.14073 0
M  V30 2176 H 212.885 0.0498042 -3.77167 0
M  V30 2177 H 215.272 0.528909 -2.90321 0
M  V30 2178 H 215.353 -1.13056 -2.2946 0
M  V30 2179 H 214.997 -1.9956 -4.67053 0
M  V30 2180 H 214.927 -0.314698 -5.25659 0
M  V30 2181 H 217.418 -0.627403 -3.72655 0
M  V30 2182 H 217.731 -1.89543 -7.49195 0
M  V30 2183 H 216.076 -1.69787 -6.73942 0
M  V30 2184 H 219.267 -0.860115 -4.6013 0
M  V30 2185 H 219.44 -1.43812 -6.3184 0
M  V30 2186 N 212.846 1.57033 -0.133567 0
M  V30 2187 C 213.793 2.16074 0.811208 0
M  V30 2188 C 214.763 1.08979 1.2535 0
M  V30 2189 O 215.948 1.36958 1.32843 0
M  V30 2190 C 213.088 2.77595 2.05024 0
M  V30 2191 C 212.201 3.99042 1.65498 0
M  V30 2192 C 211.336 4.48603 2.84479 0
M  V30 2193 C 210.375 5.62547 2.41262 0
M  V30 2194 N 209.512 6.06787 3.53206 0
M  V30 2195 H 214.352 2.96477 0.300906 0
M  V30 2196 H 211.889 1.46462 0.136822 0
M  V30 2197 H 213.847 3.11402 2.77642 0
M  V30 2198 H 212.477 1.99859 2.53488 0
M  V30 2199 H 211.529 3.71302 0.826981 0
M  V30 2200 H 212.841 4.81629 1.29748 0
M  V30 2201 H 211.995 4.84395 3.65303 0
M  V30 2202 H 210.734 3.64995 3.23465 0
M  V30 2203 H 209.739 5.26345 1.58874 0
M  V30 2204 H 210.964 6.47931 2.03377 0
M  V30 2205 H 208.91 5.26117 3.91838 0
M  V30 2206 H 208.827 6.84266 3.21427 0
M  V30 2207 H 210.095 6.4722 4.34427 0
M  V30 2208 N 214.325 -0.140222 1.56975 0
M  V30 2209 C 215.602 -0.880769 1.74648 0
M  V30 2210 C 215.982 -1.99036 0.703404 0
M  V30 2211 O 215.33 -2.26821 -0.27648 0
M  V30 2212 C 215.54 -1.417 3.18939 0
M  V30 2213 C 216.888 -1.87774 3.80823 0
M  V30 2214 O 217.912 -1.51427 3.2241 0
M  V30 2215 O 216.771 -2.54827 4.83452 0
M  V30 2216 H 213.865 -0.416713 0.714338 0
M  V30 2217 H 216.411 -0.125618 1.69234 0
M  V30 2218 H 215.183 -0.619902 3.86359 0
M  V30 2219 H 214.806 -2.23546 3.28805 0
M  V30 2220 N 215.803 -1.52179 -0.40978 0
M  V30 2221 C 216.735 -1.71703 -1.51825 0
M  V30 2222 C 217.748 -0.597445 -1.51441 0
M  V30 2223 O 218.937 -0.872582 -1.55719 0
M  V30 2224 C 216.037 -1.74171 -2.90719 0
M  V30 2225 C 215.21 -3.03156 -3.15302 0
M  V30 2226 C 214.269 -2.97445 -4.34065 0
M  V30 2227 O 213.295 -3.71352 -4.31377 0
M  V30 2228 N 214.497 -2.15191 -5.39141 0
M  V30 2229 H 217.262 -2.67334 -1.35472 0
M  V30 2230 H 214.823 -1.50409 -0.599069 0
M  V30 2231 H 216.815 -1.67884 -3.68235 0
M  V30 2232 H 215.385 -0.860166 -3.00533 0
M  V30 2233 H 214.605 -3.23097 -2.25836 0
M  V30 2234 H 215.893 -3.88484 -3.28569 0
M  V30 2235 H 215.291 -1.54573 -5.44173 0
M  V30 2236 H 213.848 -2.1476 -6.15403 0
M  V30 2237 N 217.281 0.66697 -1.42791 0
M  V30 2238 C 218.211 1.79218 -1.49677 0
M  V30 2239 C 219.192 1.66405 -0.352623 0
M  V30 2240 O 220.377 1.85708 -0.567993 0
M  V30 2241 C 217.507 3.17565 -1.40605 0
M  V30 2242 C 216.461 3.45124 -2.53127 0
M  V30 2243 C 215.787 4.83127 -2.29112 0
M  V30 2244 C 217.087 3.41236 -3.95418 0
M  V30 2245 H 218.781 1.73713 -2.43853 0
M  V30 2246 H 216.327 0.83432 -1.17367 0
M  V30 2247 H 218.28 3.96022 -1.44029 0
M  V30 2248 H 217.004 3.23767 -0.429271 0
M  V30 2249 H 215.663 2.69031 -2.49034 0
M  V30 2250 H 215.311 4.85988 -1.29709 0
M  V30 2251 H 215.011 5.02528 -3.04531 0
M  V30 2252 H 216.535 5.63859 -2.34297 0
M  V30 2253 H 217.949 4.09651 -4.01073 0
M  V30 2254 H 216.346 3.72173 -4.70752 0
M  V30 2255 H 217.416 2.39665 -4.21532 0
M  V30 2256 N 218.759 1.29093 0.90403 0
M  V30 2257 C 219.689 1.16401 2.02418 0
M  V30 2258 C 220.67 0.0593085 1.69997 0
M  V30 2259 O 221.855 0.238021 1.92736 0
M  V30 2260 C 218.985 0.835233 3.37107 0
M  V30 2261 C 217.939 1.89578 3.83724 0
M  V30 2262 C 217.265 1.42041 5.15489 0
M  V30 2263 C 218.565 3.30394 4.04521 0
M  V30 2264 H 220.259 2.10109 2.13295 0
M  V30 2265 H 217.805 1.01157 1.02486 0
M  V30 2266 H 219.758 0.733169 4.14973 0
M  V30 2267 H 218.482 -0.137543 3.2631 0
M  V30 2268 H 217.141 1.98715 3.08071 0
M  V30 2269 H 216.789 0.436426 5.01103 0
M  V30 2270 H 216.489 2.12964 5.4765 0
M  V30 2271 H 218.013 1.33176 5.959 0
M  V30 2272 H 219.427 3.24123 4.72882 0
M  V30 2273 H 217.824 3.99237 4.48029 0
M  V30 2274 H 218.894 3.73692 3.09002 0
M  V30 2275 N 220.237 -1.11381 1.11499 0
M  V30 2276 C 221.185 -2.19522 0.768956 0
M  V30 2277 C 222.179 -1.67693 -0.239857 0
M  V30 2278 O 223.385 -1.79727 -0.0990755 0
M  V30 2279 H 219.76 -0.715711 0.230786 0
M  V30 2280 H 221.731 -2.45954 1.68964 0
M  V30 2281 C 220.48 -3.46945 0.229073 0
M  V30 2282 H 219.803 -3.8718 0.996596 0
M  V30 2283 H 221.243 -4.23993 0.0251441 0
M  V30 2284 C 219.702 -3.2042 -1.04079 0
M  V30 2285 O 220.232 -3.41178 -2.12038 0
M  V30 2286 N 218.438 -2.74151 -0.963823 0
M  V30 2287 H 217.985 -2.57459 -0.0851722 0
M  V30 2288 H 217.943 -2.56781 -1.81414 0
M  V30 2289 N 221.715 -0.905404 -1.28997 0
M  V30 2290 C 222.94 -0.549175 -1.99997 0
M  V30 2291 C 223.365 0.860276 -1.67275 0
M  V30 2292 O 222.723 1.57355 -0.900502 0
M  V30 2293 C 222.771 -0.755185 -3.52604 0
M  V30 2294 O 221.875 0.189692 -4.11964 0
M  V30 2295 H 221.216 -0.213899 -0.628604 0
M  V30 2296 H 223.746 -1.21856 -1.64354 0
M  V30 2297 H 223.756 -0.662045 -4.02593 0
M  V30 2298 H 222.431 -1.78271 -3.75755 0
M  V30 2299 H 221.008 0.0485257 -3.72868 0
M  V30 2300 N 223.193 1.4272 -0.668489 0
M  V30 2301 C 224.123 2.335 -0.000100175 0
M  V30 2302 C 225.104 1.50328 0.795964 0
M  V30 2303 O 226.289 1.78949 0.754385 0
M  V30 2304 C 223.419 3.33874 0.956302 0
M  V30 2305 C 222.373 4.27152 0.269278 0
M  V30 2306 C 221.699 5.17684 1.33818 0
M  V30 2307 C 222.999 5.15373 -0.847805 0
M  V30 2308 H 224.693 2.89639 -0.758244 0
M  V30 2309 H 222.239 1.39269 -0.366079 0
M  V30 2310 H 224.192 3.9629 1.43292 0
M  V30 2311 H 222.916 2.76025 1.74579 0
M  V30 2312 H 221.575 3.66123 -0.187042 0
M  V30 2313 H 221.223 4.56165 2.1195 0
M  V30 2314 H 220.923 5.80918 0.883659 0
M  V30 2315 H 222.447 5.82974 1.81586 0
M  V30 2316 H 223.861 5.7151 -0.452681 0
M  V30 2317 H 222.258 5.87407 -1.22773 0
M  V30 2318 H 223.328 4.5415 -1.69929 0
M  V30 2319 N 224.671 0.411399 1.52136 0
M  V30 2320 C 225.919 -0.163322 2.01439 0
M  V30 2321 C 226.24 -1.45453 1.29879 0
M  V30 2322 O 225.51 -1.91225 0.4254 0
M  V30 2323 H 224.09 -0.0633447 0.744309 0
M  V30 2324 H 226.752 0.548161 1.87033 0
M  V30 2325 H 225.848 -0.357817 3.10042 0
M  V30 2326 N 226.149 -1.5696 0.141893 0
M  V30 2327 C 227.397 -1.95573 -0.509484 0
M  V30 2328 C 227.718 -1.02746 -1.65736 0
M  V30 2329 O 226.988 -0.0880311 -1.95702 0
M  V30 2330 H 225.568 -0.722115 -0.191205 0
M  V30 2331 H 228.23 -1.93697 0.216196 0
M  V30 2332 H 227.326 -2.99171 -0.889 0
M  V30 2333 N 227.627 0.131896 -1.57047 0
M  V30 2334 C 228.875 0.840269 -1.83804 0
M  V30 2335 C 229.196 1.81017 -0.72512 0
M  V30 2336 O 228.466 1.94272 0.251995 0
M  V30 2337 H 227.046 0.313294 -0.678127 0
M  V30 2338 H 229.708 0.122294 -1.94516 0
M  V30 2339 H 228.804 1.39335 -2.79271 0
M  V30 2340 N 229.106 1.52395 0.401703 0
M  V30 2341 C 230.346 1.68498 1.15705 0
M  V30 2342 C 230.71 0.409748 1.87577 0
M  V30 2343 O 231.911 0.446983 2.65058 0
M  V30 2344 C 230.182 2.87789 2.11924 0
M  V30 2345 S 231.741 3.24415 2.95466 0
M  V30 2346 H 228.559 0.593267 0.391862 0
M  V30 2347 H 231.161 1.90408 0.443282 0
M  V30 2348 H 229.865 3.7884 1.57824 0
M  V30 2349 H 229.396 2.68175 2.87829 0
M  V30 2350 H 231.411 2.73614 4.13944 0
M  V30 2351 N 230.584 -0.659388 1.43143 0
M  V30 2352 C 232 -0.974337 1.26407 0
M  V30 2353 C 232.2 -2.007 0.179341 0
M  V30 2354 O 231.256 -2.4856 -0.444295 0
M  V30 2355 C 232.569 -1.46447 2.62628 0
M  V30 2356 C 234.117 -1.58144 2.7011 0
M  V30 2357 C 234.592 -2.1055 4.06734 0
M  V30 2358 N 236.083 -2.17861 4.08767 0
M  V30 2359 C 236.818 -2.59519 5.1131 0
M  V30 2360 N 236.314 -3.00518 6.24228 0
M  V30 2361 N 238.107 -2.59404 4.98664 0
M  V30 2362 H 230.258 0.0240528 2.12386 0
M  V30 2363 H 232.521 -0.0518065 0.946583 0
M  V30 2364 H 232.227 -0.780123 3.42939 0
M  V30 2365 H 232.101 -2.44058 2.87603 0
M  V30 2366 H 234.488 -2.25682 1.90136 0
M  V30 2367 H 234.569 -0.589828 2.48907 0
M  V30 2368 H 234.213 -1.43616 4.87172 0
M  V30 2369 H 234.143 -3.10531 4.25298 0
M  V30 2370 H 236.634 -1.88975 3.27257 0
M  V30 2371 H 236.947 -3.31036 6.98309 0
M  V30 2372 H 235.292 -2.98337 6.2771 0
M  V30 2373 H 238.483 -2.26747 4.09516 0
M  V30 2374 H 238.656 -2.91548 5.78709 0
M  V30 2375 N 232.062 -1.29571 -0.897171 0
M  V30 2376 C 233.339 -1.08365 -1.62839 0
M  V30 2377 C 233.719 0.371331 -2.07808 0
M  V30 2378 O 233.067 1.3606 -1.83576 0
M  V30 2379 C 233.277 -2.0735 -2.80726 0
M  V30 2380 C 234.625 -2.38406 -3.51351 0
M  V30 2381 O 235.649 -2.05564 -2.90898 0
M  V30 2382 O 234.508 -2.9453 -4.60341 0
M  V30 2383 H 231.602 -0.415345 -0.715134 0
M  V30 2384 H 234.148 -1.40952 -0.945018 0
M  V30 2385 H 232.92 -3.05339 -2.44711 0
M  V30 2386 H 232.543 -1.75507 -3.56767 0
M  V30 2387 N 233.54 1.10788 -1.12088 0
M  V30 2388 C 234.789 1.82036 -0.868659 0
M  V30 2389 C 235.102 1.85929 0.607426 0
M  V30 2390 O 236.308 2.53346 0.97613 0
M  V30 2391 C 234.764 3.26951 -1.50435 0
M  V30 2392 C 234.372 3.31367 -3.01496 0
M  V30 2393 C 236.116 4.03053 -1.33225 0
M  V30 2394 C 234.023 4.7072 -3.58017 0
M  V30 2395 H 232.953 0.682108 -0.321318 0
M  V30 2396 H 235.604 1.24618 -1.34694 0
M  V30 2397 H 233.986 3.84343 -0.953735 0
M  V30 2398 H 235.16 2.83819 -3.6302 0
M  V30 2399 H 233.475 2.6875 -3.18061 0
M  V30 2400 H 236.072 5.05981 -1.72878 0
M  V30 2401 H 236.415 4.15387 -0.275529 0
M  V30 2402 H 236.948 3.52066 -1.85188 0
M  V30 2403 H 233.687 4.63585 -4.63432 0
M  V30 2404 H 233.207 5.1865 -3.01268 0
M  V30 2405 H 234.886 5.39685 -3.56859 0
M  V30 2406 N 235.018 0.912232 1.28515 0
M  V30 2407 C 235.928 0.404506 2.31086 0
M  V30 2408 C 236.944 -0.50707 1.66448 0
M  V30 2409 O 238.12 -0.393624 1.97516 0
M  V30 2410 C 235.185 -0.348572 3.44943 0
M  V30 2411 C 234.246 0.59604 4.25142 0
M  V30 2412 C 233.479 -0.121194 5.33562 0
M  V30 2413 O 233.702 -1.34317 5.5436 0
M  V30 2414 O 232.636 0.542716 5.99448 0
M  V30 2415 H 236.462 1.25579 2.76521 0
M  V30 2416 H 234.047 0.676998 1.33181 0
M  V30 2417 H 235.929 -0.77395 4.14232 0
M  V30 2418 H 234.604 -1.17571 3.01594 0
M  V30 2419 H 233.511 1.07079 3.58448 0
M  V30 2420 H 234.844 1.38995 4.72167 0
M  V30 2421 N 236.496 -1.42363 0.676048 0
M  V30 2422 C 237.742 -2.0182 0.199125 0
M  V30 2423 C 238.075 -1.53339 -1.19168 0
M  V30 2424 O 237.35 -0.736124 -1.80032 0
M  V30 2425 C 237.633 -3.59331 0.235144 0
M  V30 2426 C 237.486 -4.17989 1.66149 0
M  V30 2427 C 238.805 -4.3813 -0.41595 0
M  V30 2428 H 235.924 -0.733293 0.0738311 0
M  V30 2429 H 238.566 -1.69368 0.86107 0
M  V30 2430 H 236.716 -3.87109 -0.328487 0
M  V30 2431 H 238.388 -4.0116 2.27747 0
M  V30 2432 H 236.631 -3.7377 2.20178 0
M  V30 2433 H 237.302 -5.27126 1.63837 0
M  V30 2434 H 239.778 -4.16051 0.0638529 0
M  V30 2435 H 238.654 -5.47717 -0.360115 0
M  V30 2436 H 238.915 -4.16101 -1.49373 0
M  V30 2437 N 237.974 -0.419461 -1.51915 0
M  V30 2438 C 238.924 0.418496 -2.24126 0
M  V30 2439 C 239.908 1.00495 -1.25656 0
M  V30 2440 O 241.1 0.926058 -1.50842 0
M  V30 2441 C 238.229 1.52899 -3.07371 0
M  V30 2442 C 237.315 0.952797 -4.13258 0
M  V30 2443 N 237.706 0.104175 -5.05693 0
M  V30 2444 C 236.004 1.22224 -4.28926 0
M  V30 2445 C 236.705 -0.21752 -5.81293 0
M  V30 2446 N 235.681 0.394293 -5.42168 0
M  V30 2447 H 239.483 -0.236048 -2.92951 0
M  V30 2448 H 236.997 -0.230481 -1.60756 0
M  V30 2449 H 238.994 2.14199 -3.57665 0
M  V30 2450 H 237.654 2.18605 -2.40088 0
M  V30 2451 H 238.665 -0.260924 -5.17242 0
M  V30 2452 H 235.342 1.87812 -3.72871 0
M  V30 2453 H 236.732 -0.906992 -6.6575 0
M  V30 2454 N 239.452 1.56882 -0.150215 0
M  V30 2455 C 240.68 2.00593 0.506948 0
M  V30 2456 C 241.095 1.03033 1.58208 0
M  V30 2457 O 240.452 0.0278396 1.82479 0
M  V30 2458 C 240.503 3.44209 1.10465 0
M  V30 2459 O 240.224 4.3804 0.0724636 0
M  V30 2460 C 241.725 4.03214 1.84211 0
M  V30 2461 H 238.945 0.65795 0.13169 0
M  V30 2462 H 241.489 2.03018 -0.245743 0
M  V30 2463 H 239.644 3.42625 1.80795 0
M  V30 2464 H 240.058 5.22007 0.510793 0
M  V30 2465 H 241.532 5.0569 2.21318 0
M  V30 2466 H 242.009 3.44107 2.72923 0
M  V30 2467 H 242.615 4.08437 1.18572 0
M  V30 2468 N 240.93 -0.123565 1.57115 0
M  V30 2469 C 242.177 -0.832153 1.84612 0
M  V30 2470 C 242.505 -1.80093 0.734627 0
M  V30 2471 O 241.76 -1.93766 -0.27442 0
M  V30 2472 C 242.059 -1.62016 3.18568 0
M  V30 2473 C 241.725 -0.796084 4.43817 0
M  V30 2474 C 240.387 -0.568816 4.77826 0
M  V30 2475 C 242.739 -0.221364 5.2073 0
M  V30 2476 C 240.067 0.243499 5.86194 0
M  V30 2477 C 242.419 0.578117 6.29953 0
M  V30 2478 C 241.083 0.815744 6.62497 0
M  V30 2479 H 240.353 -0.304507 0.675542 0
M  V30 2480 H 243 -0.0947248 1.91266 0
M  V30 2481 H 241.305 -2.42837 3.0747 0
M  V30 2482 H 243.002 -2.17231 3.37064 0
M  V30 2483 H 239.592 -0.983307 4.17168 0
M  V30 2484 H 243.776 -0.384173 4.94811 0
M  V30 2485 H 239.032 0.436871 6.09837 0
M  V30 2486 H 243.206 1.03046 6.88734 0
M  V30 2487 H 240.833 1.44701 7.46301 0
M  V30 2488 N 242.408 -1.52605 -0.393616 0
M  V30 2489 C 243.371 -1.76415 -1.46323 0
M  V30 2490 C 244.371 -0.634126 -1.47768 0
M  V30 2491 O 245.561 -0.902142 -1.4902 0
M  V30 2492 C 242.693 -1.8607 -2.85641 0
M  V30 2493 H 243.886 -2.71916 -1.26498 0
M  V30 2494 H 241.439 -1.43257 -0.625073 0
M  V30 2495 H 242.174 -0.925378 -3.10817 0
M  V30 2496 H 241.959 -2.68235 -2.85993 0
M  V30 2497 H 243.449 -2.06179 -3.63153 0
M  V30 2498 N 243.887 0.651787 -1.4349 0
M  V30 2499 C 245.164 1.40909 -1.35661 0
M  V30 2500 C 245.544 2.11099 -0.00511733 0
M  V30 2501 O 244.892 2.04892 1.0115 0
M  V30 2502 C 245.102 2.3926 -2.54078 0
M  V30 2503 C 246.45 3.03217 -2.97228 0
M  V30 2504 O 247.474 2.49588 -2.54135 0
M  V30 2505 O 246.333 4.00455 -3.71885 0
M  V30 2506 H 243.427 0.629625 -0.536191 0
M  V30 2507 H 245.973 0.678575 -1.55542 0
M  V30 2508 H 244.745 1.86352 -3.44076 0
M  V30 2509 H 244.368 3.1976 -2.36303 0
M  V30 2510 N 245.365 1.30045 0.890287 0
M  V30 2511 C 246.593 1.21472 1.67487 0
M  V30 2512 C 247.008 -0.223241 1.87476 0
M  V30 2513 O 246.365 -1.14828 1.41847 0
M  V30 2514 C 246.416 1.93394 3.05419 0
M  V30 2515 O 246.137 3.31576 2.86337 0
M  V30 2516 C 247.638 1.91414 3.99844 0
M  V30 2517 H 244.858 0.420604 0.522813 0
M  V30 2518 H 247.402 1.7158 1.11268 0
M  V30 2519 H 245.557 1.47099 3.58386 0
M  V30 2520 H 245.971 3.67929 3.73802 0
M  V30 2521 H 247.445 2.46285 4.94012 0
M  V30 2522 H 247.922 0.891833 4.3005 0
M  V30 2523 H 248.528 2.37496 3.52811 0
M  V30 2524 N 246.843 -1.10192 1.12674 0
M  V30 2525 C 248.254 -1.63707 0.897604 0
M  V30 2526 C 248.605 -1.87812 -0.567546 0
M  V30 2527 O 247.73 -1.62196 -1.43253 0
M  V30 2528 C 248.325 -2.974 1.62292 0
M  V30 2529 C 246.884 -3.47772 1.43986 0
M  V30 2530 C 246.031 -2.22332 1.65722 0
M  V30 2531 H 248.982 -0.936587 1.28116 0
M  V30 2532 H 249.003 -3.64986 1.07541 0
M  V30 2533 H 248.515 -2.79824 2.68924 0
M  V30 2534 H 246.616 -3.70487 0.396206 0
M  V30 2535 H 246.729 -4.25723 2.19765 0
M  V30 2536 H 245.093 -2.30599 1.08149 0
M  V30 2537 H 245.876 -2.07285 2.73657 0
M  V30 2538 N 248.321 -0.919034 -1.28029 0
M  V30 2539 C 249.737 -0.617972 -1.4715 0
M  V30 2540 C 249.937 0.835242 -1.83374 0
M  V30 2541 O 248.993 1.61388 -1.94191 0
M  V30 2542 C 250.306 -1.56041 -2.57044 0
M  V30 2543 C 251.854 -1.56769 -2.7091 0
M  V30 2544 C 252.329 -2.49688 -3.83953 0
M  V30 2545 N 253.82 -2.47845 -3.91314 0
M  V30 2546 C 254.555 -3.16437 -4.78179 0
M  V30 2547 N 254.051 -3.94376 -5.69596 0
M  V30 2548 N 255.844 -3.05498 -4.71834 0
M  V30 2549 H 247.995 -1.85866 -1.02798 0
M  V30 2550 H 250.258 -0.797506 -0.512531 0
M  V30 2551 H 249.964 -2.59671 -2.372 0
M  V30 2552 H 249.838 -1.29551 -3.54255 0
M  V30 2553 H 252.225 -0.538745 -2.90141 0
M  V30 2554 H 252.306 -1.87305 -1.74214 0
M  V30 2555 H 251.95 -3.52688 -3.65477 0
M  V30 2556 H 251.88 -2.16453 -4.80058 0
M  V30 2557 H 254.371 -1.91234 -3.25941 0
M  V30 2558 H 254.684 -4.43721 -6.32718 0
M  V30 2559 H 253.029 -3.98481 -5.69419 0
M  V30 2560 H 256.22 -2.44108 -3.99411 0
M  V30 2561 H 256.393 -3.59225 -5.39316 0
M  V30 2562 N 249.799 1.42003 -0.683588 0
M  V30 2563 C 251.047 2.01015 -0.209101 0
M  V30 2564 C 251.368 1.54365 1.19149 0
M  V30 2565 O 250.638 0.769083 1.80172 0
M  V30 2566 H 249.218 0.743294 -0.074315 0
M  V30 2567 H 251.88 1.73798 -0.882066 0
M  V30 2568 H 250.976 3.11343 -0.2172 0
M  V30 2569 N 251.277 0.427512 1.51691 0
M  V30 2570 C 252.688 -0.0378867 1.86662 0
M  V30 2571 C 253.039 -1.42819 1.34525 0
M  V30 2572 O 252.164 -2.05037 0.692014 0
M  V30 2573 C 252.759 -0.0755266 3.38716 0
M  V30 2574 C 251.318 -0.485309 3.73258 0
M  V30 2575 C 250.465 0.328399 2.75349 0
M  V30 2576 H 253.416 0.64379 1.45055 0
M  V30 2577 H 253.437 -0.887056 3.70016 0
M  V30 2578 H 252.949 0.936487 3.76632 0
M  V30 2579 H 251.05 -1.50329 3.40928 0
M  V30 2580 H 251.163 -0.21693 4.78609 0
M  V30 2581 H 249.527 -0.211905 2.53817 0
M  V30 2582 H 250.31 1.3391 3.16106 0
M  V30 2583 N 252.755 -1.56801 0.158532 0
M  V30 2584 C 253.688 -2.13148 -0.815065 0
M  V30 2585 C 254.666 -1.0581 -1.23462 0
M  V30 2586 O 255.85 -1.3371 -1.32868 0
M  V30 2587 C 252.977 -2.6606 -2.09594 0
M  V30 2588 C 252.023 -3.85651 -1.82141 0
M  V30 2589 S 252.856 -5.26041 -1.00207 0
M  V30 2590 C 254.012 -5.8235 -2.29389 0
M  V30 2591 H 254.245 -2.95396 -0.335937 0
M  V30 2592 H 251.778 -1.54299 -0.0559391 0
M  V30 2593 H 253.736 -2.97195 -2.8317 0
M  V30 2594 H 252.397 -1.83921 -2.54621 0
M  V30 2595 H 251.59 -4.20958 -2.77147 0
M  V30 2596 H 251.192 -3.55338 -1.16667 0
M  V30 2597 H 253.484 -5.94485 -3.24952 0
M  V30 2598 H 254.427 -6.79688 -1.9857 0
M  V30 2599 H 254.835 -5.10675 -2.40564 0
M  V30 2600 N 254.233 0.115231 -1.57178 0
M  V30 2601 C 255.163 1.1423 -2.03651 0
M  V30 2602 C 256.144 1.42967 -0.921655 0
M  V30 2603 O 257.329 1.53343 -1.19162 0
M  V30 2604 C 254.459 2.4675 -2.44401 0
M  V30 2605 C 253.413 2.32467 -3.59365 0
M  V30 2606 C 252.739 3.69984 -3.86026 0
M  V30 2607 C 254.039 1.78203 -4.90959 0
M  V30 2608 H 255.733 0.755749 -2.89705 0
M  V30 2609 H 253.279 0.362093 -1.39373 0
M  V30 2610 H 255.232 3.18854 -2.75517 0
M  V30 2611 H 253.956 2.87302 -1.55322 0
M  V30 2612 H 252.615 1.62811 -3.28463 0
M  V30 2613 H 252.263 4.08028 -2.94147 0
M  V30 2614 H 251.963 3.61279 -4.63412 0
M  V30 2615 H 253.487 4.43587 -4.19599 0
M  V30 2616 H 254.901 2.40128 -5.20587 0
M  V30 2617 H 253.298 1.8031 -5.72371 0
M  V30 2618 H 254.368 0.739876 -4.79222 0
M  V30 2619 N 255.711 1.52812 0.385517 0
M  V30 2620 C 256.957 1.68275 1.13188 0
M  V30 2621 C 257.29 0.423179 1.89533 0
M  V30 2622 O 256.565 -0.579113 1.85679 0
M  V30 2623 C 256.848 2.92001 2.1073 0
M  V30 2624 C 256.701 4.28067 1.38125 0
M  V30 2625 C 258.02 3.11283 3.11113 0
M  V30 2626 H 255.139 0.612352 0.410115 0
M  V30 2627 H 257.781 1.85415 0.414869 0
M  V30 2628 H 255.931 2.77519 2.71874 0
M  V30 2629 H 257.603 4.54324 0.799187 0
M  V30 2630 H 255.846 4.28388 0.683092 0
M  V30 2631 H 256.517 5.10733 2.09417 0
M  V30 2632 H 258.993 3.2482 2.6006 0
M  V30 2633 H 257.869 3.99325 3.76605 0
M  V30 2634 H 258.13 2.25656 3.80173 0
M  V30 2635 N 257.189 -0.644168 1.43834 0
M  V30 2636 C 258.152 -1.73857 1.49353 0
M  V30 2637 C 259.152 -1.56315 0.377112 0
M  V30 2638 O 260.342 -1.62048 0.639226 0
M  V30 2639 C 257.474 -3.12819 1.35488 0
M  V30 2640 H 258.667 -1.70342 2.46827 0
M  V30 2641 H 256.22 -0.856652 1.30733 0
M  V30 2642 H 256.955 -3.2194 0.390569 0
M  V30 2643 H 256.74 -3.26958 2.16428 0
M  V30 2644 H 258.23 -3.92606 1.42302 0
M  V30 2645 N 258.668 -1.30515 -0.883378 0
M  V30 2646 C 259.618 -1.13641 -1.9766 0
M  V30 2647 C 260.602 -0.0511314 -1.60819 0
M  V30 2648 O 261.794 -0.274623 -1.74857 0
M  V30 2649 C 258.923 -0.831976 -3.33066 0
M  V30 2650 C 258.009 -1.95759 -3.76217 0
M  V30 2651 N 258.4 -3.20313 -3.9145 0
M  V30 2652 C 256.698 -1.85431 -4.05625 0
M  V30 2653 C 257.399 -3.93856 -4.2808 0
M  V30 2654 N 256.375 -3.21919 -4.38029 0
M  V30 2655 H 260.177 -2.08106 -2.07531 0
M  V30 2656 H 257.691 -1.21877 -1.0733 0
M  V30 2657 H 259.688 -0.692102 -4.11115 0
M  V30 2658 H 258.348 0.104588 -3.24532 0
M  V30 2659 H 259.359 -3.55583 -3.76538 0
M  V30 2660 H 256.036 -0.991531 -4.05555 0
M  V30 2661 H 257.426 -5.01125 -4.47575 0
M  V30 2662 N 260.146 1.09593 -1.13257 0
M  V30 2663 C 261.076 2.18214 -0.830946 0
M  V30 2664 C 262.057 1.68812 0.208966 0
M  V30 2665 O 263.242 1.9408 0.0682666 0
M  V30 2666 C 260.372 3.46051 -0.294296 0
M  V30 2667 C 259.326 4.08778 -1.26826 0
M  V30 2668 C 258.652 5.31419 -0.591449 0
M  V30 2669 C 259.952 4.51476 -2.62615 0
M  V30 2670 H 261.646 2.43703 -1.73923 0
M  V30 2671 H 259.192 1.17128 -0.837675 0
M  V30 2672 H 261.145 4.2134 -0.0709606 0
M  V30 2673 H 259.869 3.20079 0.649366 0
M  V30 2674 H 258.528 3.35505 -1.47756 0
M  V30 2675 H 258.176 5.01727 0.357633 0
M  V30 2676 H 257.876 5.74341 -1.24123 0
M  V30 2677 H 259.4 6.09433 -0.377355 0
M  V30 2678 H 260.814 5.17999 -2.45663 0
M  V30 2679 H 259.211 5.05277 -3.23752 0
M  V30 2680 H 260.281 3.63962 -3.20406 0
M  V30 2681 N 261.624 0.925811 1.2754 0
M  V30 2682 C 262.873 0.561084 1.93739 0
M  V30 2683 C 263.186 -0.901685 1.73577 0
M  V30 2684 O 264.392 -1.37511 2.34101 0
M  V30 2685 C 262.848 0.952668 3.47062 0
M  V30 2686 C 262.456 2.43599 3.75983 0
M  V30 2687 C 264.2 0.659103 4.19352 0
M  V30 2688 C 262.107 2.76707 5.22673 0
M  V30 2689 H 261.037 0.206122 0.725279 0
M  V30 2690 H 263.688 1.12637 1.44863 0
M  V30 2691 H 262.07 0.316053 3.94737 0
M  V30 2692 H 263.244 3.12035 3.39073 0
M  V30 2693 H 261.559 2.70125 3.16893 0
M  V30 2694 H 264.156 0.882985 5.27359 0
M  V30 2695 H 264.499 -0.403607 4.14339 0
M  V30 2696 H 265.032 1.25473 3.77494 0
M  V30 2697 H 261.771 3.8188 5.32774 0
M  V30 2698 H 261.291 2.12919 5.60737 0
M  V30 2699 H 262.97 2.6435 5.90532 0
M  V30 2700 N 263.102 -1.41638 0.69111 0
M  V30 2701 C 264.348 -2.01598 0.220519 0
M  V30 2702 C 264.681 -1.54594 -1.17535 0
M  V30 2703 O 263.956 -0.755177 -1.79241 0
M  V30 2704 C 264.239 -3.59062 0.273243 0
M  V30 2705 C 264.092 -4.16203 1.70573 0
M  V30 2706 C 265.411 -4.38546 -0.369457 0
M  V30 2707 H 262.53 -0.732468 0.0816045 0
M  V30 2708 H 265.172 -1.68445 0.878986 0
M  V30 2709 H 263.322 -3.87435 -0.287411 0
M  V30 2710 H 264.994 -3.98722 2.31989 0
M  V30 2711 H 263.237 -3.71414 2.2413 0
M  V30 2712 H 263.908 -5.25358 1.69419 0
M  V30 2713 H 266.384 -4.1596 0.107977 0
M  V30 2714 H 265.26 -5.48069 -0.302002 0
M  V30 2715 H 265.521 -4.17662 -1.44951 0
M  V30 2716 N 264.58 -0.43555 -1.51462 0
M  V30 2717 C 265.857 0.191364 -1.94662 0
M  V30 2718 C 266.237 1.60254 -1.37411 0
M  V30 2719 O 265.585 2.2152 -0.560458 0
M  V30 2720 C 265.795 0.17091 -3.48581 0
M  V30 2721 C 267.143 0.377357 -4.2292 0
M  V30 2722 O 268.167 0.249104 -3.55328 0
M  V30 2723 O 267.026 0.63247 -5.42828 0
M  V30 2724 H 264.12 0.130932 -0.816569 0
M  V30 2725 H 266.666 -0.4934 -1.62369 0
M  V30 2726 H 265.438 -0.815738 -3.82703 0
M  V30 2727 H 265.061 0.898659 -3.87311 0
M  V30 2728 N 266.058 1.56714 -0.166846 0
M  V30 2729 C 267.304 1.97039 0.479962 0
M  V30 2730 C 267.637 1.05264 1.63197 0
M  V30 2731 O 266.912 0.0988833 1.94248 0
M  V30 2732 C 267.195 3.46867 0.967212 0
M  V30 2733 C 267.048 4.49421 -0.18466 0
M  V30 2734 C 268.367 3.9968 1.84238 0
M  V30 2735 H 265.486 0.71641 0.172992 0
M  V30 2736 H 268.128 1.8832 -0.252079 0
M  V30 2737 H 266.278 3.54428 1.59101 0
M  V30 2738 H 267.95 4.53924 -0.821621 0
M  V30 2739 H 266.193 4.25573 -0.840837 0
M  V30 2740 H 266.864 5.51644 0.198317 0
M  V30 2741 H 269.34 3.94723 1.31655 0
M  V30 2742 H 268.216 5.04941 2.15234 0
M  V30 2743 H 268.477 3.43226 2.78654 0
M  V30 2744 N 267.536 -0.106894 1.57237 0
M  V30 2745 C 268.952 -0.46078 1.52804 0
M  V30 2746 C 269.152 -1.81184 0.881746 0
M  V30 2747 O 268.208 -2.48102 0.469224 0
M  V30 2748 C 269.521 -0.434127 2.9755 0
M  V30 2749 C 271.069 -0.516821 3.08704 0
M  V30 2750 C 271.544 -0.520436 4.55033 0
M  V30 2751 N 273.035 -0.58153 4.59535 0
M  V30 2752 C 273.77 -0.605973 5.70189 0
M  V30 2753 N 273.266 -0.587331 6.90306 0
M  V30 2754 N 275.059 -0.649895 5.5833 0
M  V30 2755 H 267.21 0.778203 1.9763 0
M  V30 2756 H 269.473 0.288403 0.903066 0
M  V30 2757 H 269.179 0.491197 3.48253 0
M  V30 2758 H 269.053 -1.25748 3.55622 0
M  V30 2759 H 271.44 -1.43256 2.57995 0
M  V30 2760 H 271.521 0.334449 2.53604 0
M  V30 2761 H 271.165 0.391313 5.0639 0
M  V30 2762 H 271.095 -1.38876 5.07958 0
M  V30 2763 H 273.586 -0.60161 3.73081 0
M  V30 2764 H 273.899 -0.60894 7.70397 0
M  V30 2765 H 272.244 -0.554564 6.92784 0
M  V30 2766 H 275.435 -0.661907 4.63397 0
M  V30 2767 H 275.608 -0.665476 6.44574 0
M  V30 2768 N 269.014 -1.53014 -0.377408 0
M  V30 2769 C 270.291 -1.59215 -1.13622 0
M  V30 2770 C 270.671 -0.392407 -2.07421 0
M  V30 2771 O 270.019 0.618342 -2.19975 0
M  V30 2772 C 270.229 -2.93669 -1.88573 0
M  V30 2773 C 271.577 -3.47822 -2.43526 0
M  V30 2774 O 272.601 -2.9562 -1.98715 0
M  V30 2775 O 271.46 -4.39055 -3.25412 0
M  V30 2776 H 268.554 -0.642625 -0.52054 0
M  V30 2777 H 271.1 -1.65353 -0.381625 0
M  V30 2778 H 269.872 -3.7243 -1.20048 0
M  V30 2779 H 269.495 -2.90968 -2.70968 0
M  V30 2780 N 270.492 0.636531 -1.44174 0
M  V30 2781 C 271.455 1.73063 -1.50273 0
M  V30 2782 C 272.455 1.56113 -0.385397 0
M  V30 2783 O 273.645 1.61707 -0.64781 0
M  V30 2784 C 270.777 3.12096 -1.37145 0
M  V30 2785 H 271.97 1.69031 -2.47727 0
M  V30 2786 H 269.523 0.849706 -1.31186 0
M  V30 2787 H 270.258 3.21728 -0.407636 0
M  V30 2788 H 270.043 3.25805 -2.18159 0
M  V30 2789 H 271.533 3.91846 -1.44382 0
M  V30 2790 N 271.97 1.30982 0.876444 0
M  V30 2791 C 272.903 1.12414 1.98591 0
M  V30 2792 C 273.881 0.0294078 1.62573 0
M  V30 2793 O 275.065 0.184598 1.87594 0
M  V30 2794 C 272.192 0.716276 3.3104 0
M  V30 2795 C 271.238 1.81311 3.86042 0
M  V30 2796 S 272.071 3.41727 4.1229 0
M  V30 2797 C 273.227 3.02863 5.47745 0
M  V30 2798 H 273.46 2.06338 2.14037 0
M  V30 2799 H 270.993 1.15393 1.02586 0
M  V30 2800 H 272.951 0.487697 4.07593 0
M  V30 2801 H 271.612 -0.203749 3.13438 0
M  V30 2802 H 270.805 1.48021 4.81774 0
M  V30 2803 H 270.407 1.99641 3.16259 0
M  V30 2804 H 272.699 2.51353 6.29148 0
M  V30 2805 H 273.642 3.97533 5.8598 0
M  V30 2806 H 274.05 2.40487 5.10711 0
M  V30 2807 N 273.449 -1.08991 1.13837 0
M  V30 2808 C 274.697 -1.80899 0.901098 0
M  V30 2809 C 275.018 -1.86356 -0.574134 0
M  V30 2810 O 274.288 -1.35235 -1.41733 0
M  V30 2811 H 272.868 -0.669966 0.330386 0
M  V30 2812 H 275.53 -1.318 1.43578 0
M  V30 2813 H 274.626 -2.83929 1.29578 0
M  V30 2814 N 274.927 -0.932562 -1.27047 0
M  V30 2815 C 275.89 -0.440064 -2.24936 0
M  V30 2816 C 276.89 0.444071 -1.54547 0
M  V30 2817 O 278.08 0.244465 -1.72476 0
M  V30 2818 C 275.212 0.36678 -3.38921 0
M  V30 2819 H 276.405 -1.305 -2.70018 0
M  V30 2820 H 273.958 -0.713707 -1.39054 0
M  V30 2821 H 274.693 1.25033 -2.99228 0
M  V30 2822 H 274.478 -0.267204 -3.91188 0
M  V30 2823 H 275.968 0.701567 -4.11665 0
M  V30 2824 N 276.405 1.4127 -0.698611 0
M  V30 2825 C 277.353 2.32588 -0.023855 0
M  V30 2826 C 278.347 1.51128 0.765292 0
M  V30 2827 O 279.553 1.67043 0.670571 0
M  V30 2828 H 275.928 0.751918 0.0110871 0
M  V30 2829 H 277.899 2.87167 -0.811031 0
M  V30 2830 C 276.648 3.35947 0.896369 0
M  V30 2831 H 275.971 3.98684 0.298548 0
M  V30 2832 H 277.411 4.02376 1.33676 0
M  V30 2833 C 275.87 2.70076 2.01396 0
M  V30 2834 O 276.4 2.55093 3.10307 0
M  V30 2835 N 274.606 2.28724 1.79259 0
M  V30 2836 H 274.153 2.4111 0.906841 0
M  V30 2837 H 274.111 1.84986 2.54219 0
M  V30 2838 N 277.883 0.443576 1.51229 0
M  V30 2839 C 279.111 -0.11929 2.06556 0
M  V30 2840 C 279.526 -1.35921 1.31038 0
M  V30 2841 O 278.883 -1.78675 0.371704 0
M  V30 2842 C 278.934 -0.435228 3.5887 0
M  V30 2843 O 278.655 0.755486 4.31537 0
M  V30 2844 C 280.156 -1.04808 4.30732 0
M  V30 2845 H 277.376 -0.0051584 0.67098 0
M  V30 2846 H 279.92 0.624453 1.94733 0
M  V30 2847 H 278.075 -1.12887 3.70588 0
M  V30 2848 H 278.489 0.483491 5.22267 0
M  V30 2849 H 279.963 -1.2191 5.3837 0
M  V30 2850 H 280.44 -2.03081 3.89429 0
M  V30 2851 H 281.046 -0.393637 4.23474 0
M  V30 2852 N 279.361 -1.56624 0.175154 0
M  V30 2853 C 280.607 -1.9729 -0.469506 0
M  V30 2854 C 280.94 -1.06128 -1.62636 0
M  V30 2855 O 280.215 -0.109183 -1.94193 0
M  V30 2856 C 280.498 -3.47375 -0.948804 0
M  V30 2857 C 280.351 -4.49317 0.208491 0
M  V30 2858 C 281.67 -4.00652 -1.82116 0
M  V30 2859 H 278.789 -0.717317 -0.16919 0
M  V30 2860 H 281.431 -1.88184 0.262062 0
M  V30 2861 H 279.581 -3.55267 -1.57219 0
M  V30 2862 H 281.253 -4.53482 0.845682 0
M  V30 2863 H 279.496 -4.25121 0.863395 0
M  V30 2864 H 280.167 -5.51741 -0.169059 0
M  V30 2865 H 282.643 -3.95416 -1.2956 0
M  V30 2866 H 281.519 -5.06075 -2.12554 0
M  V30 2867 H 281.78 -3.44699 -2.7683 0
M  V30 2868 N 280.839 0.0985539 -1.57292 0
M  V30 2869 C 281.787 1.1387 -2.02821 0
M  V30 2870 C 282.781 1.41676 -0.928666 0
M  V30 2871 O 283.987 1.41398 -1.11385 0
M  V30 2872 H 280.362 0.384419 -0.646317 0
M  V30 2873 H 282.333 0.728347 -2.89375 0
M  V30 2874 C 281.082 2.45166 -2.46554 0
M  V30 2875 H 280.405 2.24613 -3.3074 0
M  V30 2876 H 281.845 3.16456 -2.8219 0
M  V30 2877 C 280.304 3.09216 -1.33742 0
M  V30 2878 O 280.834 3.96163 -0.66464 0
M  V30 2879 N 279.04 2.69413 -1.08928 0
M  V30 2880 H 278.587 1.98801 -1.63817 0
M  V30 2881 H 278.545 3.12594 -0.336458 0
M  V30 2882 N 282.317 1.53212 0.369288 0
M  V30 2883 C 283.545 1.73119 1.13303 0
M  V30 2884 C 283.96 0.458455 1.83149 0
M  V30 2885 O 283.317 -0.568403 1.73423 0
M  V30 2886 C 283.368 2.89413 2.16616 0
M  V30 2887 O 283.089 4.11761 1.49614 0
M  V30 2888 C 284.59 3.21161 3.05566 0
M  V30 2889 H 281.81 0.579107 0.338934 0
M  V30 2890 H 284.354 1.99942 0.429338 0
M  V30 2891 H 282.509 2.64994 2.82589 0
M  V30 2892 H 282.923 4.76858 2.18419 0
M  V30 2893 H 284.397 4.05949 3.74045 0
M  V30 2894 H 284.874 2.36369 3.70171 0
M  V30 2895 H 285.48 3.47492 2.45213 0
M  V30 2896 N 283.795 -0.628877 1.44509 0
M  V30 2897 C 284.728 -1.75367 1.46019 0
M  V30 2898 C 285.706 -1.59444 0.318787 0
M  V30 2899 O 286.89 -1.81297 0.516099 0
M  V30 2900 C 284.017 -3.12965 1.29501 0
M  V30 2901 C 283.063 -3.47532 2.47233 0
M  V30 2902 S 283.896 -3.44758 4.09758 0
M  V30 2903 C 285.052 -4.84973 3.95667 0
M  V30 2904 H 285.285 -1.7382 2.41193 0
M  V30 2905 H 282.818 -0.803686 1.31834 0
M  V30 2906 H 284.776 -3.92367 1.20658 0
M  V30 2907 H 283.437 -3.12049 0.358341 0
M  V30 2908 H 282.63 -4.47664 2.31544 0
M  V30 2909 H 282.232 -2.75598 2.52828 0
M  V30 2910 H 284.524 -5.74255 3.59496 0
M  V30 2911 H 285.467 -5.05716 4.95638 0
M  V30 2912 H 285.875 -4.59653 3.27688 0
M  V30 2913 N 285.273 -1.31445 -0.869486 0
M  V30 2914 C 286.236 -1.19094 -1.9583 0
M  V30 2915 C 287.236 -0.117906 -1.60367 0
M  V30 2916 O 288.426 -0.367208 -1.70286 0
M  V30 2917 C 285.558 -0.828165 -3.30688 0
M  V30 2918 H 286.751 -2.15842 -2.08212 0
M  V30 2919 H 284.304 -1.15063 -1.05784 0
M  V30 2920 H 285.039 0.138142 -3.24006 0
M  V30 2921 H 284.824 -1.6038 -3.578 0
M  V30 2922 H 286.314 -0.765658 -4.10521 0
M  V30 2923 N 286.751 1.08385 -1.14413 0
M  V30 2924 C 287.661 2.18856 -0.844951 0
M  V30 2925 C 288.677 1.73121 0.174668 0
M  V30 2926 O 289.853 2.014 0.00312857 0
M  V30 2927 C 286.918 3.45155 -0.32696 0
M  V30 2928 C 285.979 4.05513 -1.40916 0
M  V30 2929 C 285.212 5.25784 -0.915793 0
M  V30 2930 O 285.435 5.69884 0.242651 0
M  V30 2931 O 284.369 5.77545 -1.69487 0
M  V30 2932 H 288.195 2.46919 -1.76818 0
M  V30 2933 H 285.78 1.17524 -0.922411 0
M  V30 2934 H 287.662 4.21377 -0.0440211 0
M  V30 2935 H 286.337 3.18668 0.568539 0
M  V30 2936 H 285.244 3.30879 -1.74556 0
M  V30 2937 H 286.577 4.3625 -2.27919 0
M  V30 2938 N 288.23 0.939286 1.26551 0
M  V30 2939 C 289.193 0.451987 2.24699 0
M  V30 2940 C 290.193 -0.435869 1.5478 0
M  V30 2941 O 291.383 -0.235314 1.72603 0
M  V30 2942 C 288.515 -0.348801 3.39111 0
M  V30 2943 H 289.708 1.3193 2.69322 0
M  V30 2944 H 287.261 0.721072 1.38673 0
M  V30 2945 H 287.996 -1.23444 2.99887 0
M  V30 2946 H 287.781 0.287945 3.91041 0
M  V30 2947 H 289.271 -0.679726 4.12031 0
M  V30 2948 N 289.708 -1.40897 0.706093 0
M  V30 2949 C 290.954 -2.01352 0.241889 0
M  V30 2950 C 291.287 -1.55832 -1.15888 0
M  V30 2951 O 290.562 -0.774145 -1.7843 0
M  V30 2952 C 290.845 -3.58752 0.311311 0
M  V30 2953 C 290.698 -4.1437 1.74978 0
M  V30 2954 C 292.017 -4.38914 -0.322922 0
M  V30 2955 H 289.136 -0.731562 0.0893687 0
M  V30 2956 H 291.778 -1.67504 0.896802 0
M  V30 2957 H 289.928 -3.87718 -0.246302 0
M  V30 2958 H 291.6 -3.96239 2.36205 0
M  V30 2959 H 289.843 -3.69016 2.28057 0
M  V30 2960 H 290.514 -5.23532 1.74981 0
M  V30 2961 H 292.99 -4.15822 0.152089 0
M  V30 2962 H 291.866 -5.48358 -0.243855 0
M  V30 2963 H 292.127 -4.19176 -1.40513 0
M  V30 2964 N 291.186 -0.45159 -1.50991 0
M  V30 2965 C 292.149 0.341117 -2.26647 0
M  V30 2966 C 293.149 0.937422 -1.30649 0
M  V30 2967 O 294.339 0.809644 -1.54241 0
M  V30 2968 C 291.471 1.48398 -3.06905 0
M  V30 2969 H 292.664 -0.322117 -2.98165 0
M  V30 2970 H 290.217 -0.205122 -1.54948 0
M  V30 2971 H 290.952 2.18284 -2.39838 0
M  V30 2972 H 290.737 1.06241 -3.77432 0
M  V30 2973 H 292.227 2.04367 -3.64176 0
M  V30 2974 N 292.664 1.56529 -0.183458 0
M  V30 2975 C 294.075 1.83739 0.331177 0
M  V30 2976 C 294.426 1.10373 1.62211 0
M  V30 2977 O 293.551 0.36071 2.13373 0
M  V30 2978 C 294.146 3.33306 0.607646 0
M  V30 2979 C 292.705 3.60969 1.06668 0
M  V30 2980 C 291.852 2.77086 0.109029 0
M  V30 2981 H 294.803 1.53379 -0.407484 0
M  V30 2982 H 294.824 3.51444 1.45832 0
M  V30 2983 H 294.336 3.86677 -0.332086 0
M  V30 2984 H 292.437 3.13021 2.0211 0
M  V30 2985 H 292.55 4.69231 0.967447 0
M  V30 2986 H 290.914 2.47319 0.608714 0
M  V30 2987 H 291.697 3.33241 -0.82494 0
M  V30 2988 N 294.142 -0.090211 1.57342 0
M  V30 2989 C 295.072 -1.10976 2.05443 0
M  V30 2990 C 296.053 -1.41482 0.944284 0
M  V30 2991 O 297.238 -1.51428 1.21586 0
M  V30 2992 C 294.368 -2.42831 2.48295 0
M  V30 2993 C 293.322 -2.26721 3.63018 0
M  V30 2994 C 292.648 -3.63796 3.91863 0
M  V30 2995 C 293.948 -1.7037 4.93732 0
M  V30 2996 H 295.642 -0.709564 2.9087 0
M  V30 2997 H 293.188 -0.339874 1.39932 0
M  V30 2998 H 295.141 -3.14431 2.80555 0
M  V30 2999 H 293.865 -2.84795 1.59873 0
M  V30 3000 H 292.524 -1.57565 3.31012 0
M  V30 3001 H 292.172 -4.03297 3.00601 0
M  V30 3002 H 291.872 -3.53861 4.69101 0
M  V30 3003 H 293.396 -4.36855 4.26603 0
M  V30 3004 H 294.81 -2.31816 5.24342 0
M  V30 3005 H 293.207 -1.71181 5.75167 0
M  V30 3006 H 294.277 -0.663542 4.80339 0
M  V30 3007 N 295.62 -1.53406 -0.361157 0
M  V30 3008 C 296.553 -1.74946 -1.46524 0
M  V30 3009 C 297.531 -0.59795 -1.51206 0
M  V30 3010 O 298.715 -0.831062 -1.69191 0
M  V30 3011 C 295.842 -1.83224 -2.84863 0
M  V30 3012 C 294.888 -3.05233 -2.97885 0
M  V30 3013 S 295.721 -4.6466 -2.66179 0
M  V30 3014 C 296.877 -4.75793 -4.06659 0
M  V30 3015 H 297.11 -2.68319 -1.28033 0
M  V30 3016 H 294.643 -1.44051 -0.555764 0
M  V30 3017 H 296.601 -1.88679 -3.64569 0
M  V30 3018 H 295.262 -0.908948 -3.00661 0
M  V30 3019 H 294.455 -3.07648 -3.9921 0
M  V30 3020 H 294.057 -2.97913 -2.26106 0
M  V30 3021 H 296.349 -4.5612 -5.0096 0
M  V30 3022 H 297.292 -5.7786 -4.09247 0
M  V30 3023 H 297.7 -4.04389 -3.93865 0
M  V30 3024 N 297.098 0.621204 -1.44841 0
M  V30 3025 C 298.008 1.7612 -1.5498 0
M  V30 3026 C 299.024 1.68477 -0.434927 0
M  V30 3027 O 300.2 1.89076 -0.693693 0
M  V30 3028 C 297.265 3.1254 -1.50065 0
M  V30 3029 C 296.326 3.31741 -2.72482 0
M  V30 3030 C 295.559 4.61653 -2.67792 0
M  V30 3031 O 295.782 5.431 -1.74352 0
M  V30 3032 O 294.716 4.83271 -3.58794 0
M  V30 3033 H 298.542 1.70518 -2.51311 0
M  V30 3034 H 296.127 0.783643 -1.27198 0
M  V30 3035 H 298.009 3.93844 -1.49882 0
M  V30 3036 H 296.684 3.18663 -0.568806 0
M  V30 3037 H 295.591 2.50077 -2.7823 0
M  V30 3038 H 296.924 3.30486 -3.64746 0
M  V30 3039 N 298.576 1.31904 0.862503 0
M  V30 3040 C 299.539 1.20131 1.95195 0
M  V30 3041 C 300.539 0.126409 1.60302 0
M  V30 3042 O 301.729 0.376234 1.70089 0
M  V30 3043 C 298.861 0.845691 3.30244 0
M  V30 3044 H 300.054 2.16943 2.07064 0
M  V30 3045 H 297.607 1.15622 1.05172 0
M  V30 3046 H 298.342 -0.120957 3.24074 0
M  V30 3047 H 298.127 1.62276 3.56944 0
M  V30 3048 H 299.617 0.787418 4.10109 0
M  V30 3049 N 300.054 -1.07777 1.14986 0
M  V30 3050 C 301.303 -1.79669 0.916617 0
M  V30 3051 C 301.616 -1.87474 -0.557917 0
M  V30 3052 O 302.822 -2.55845 -0.908617 0
M  V30 3053 C 301.278 -3.22848 1.59051 0
M  V30 3054 C 300.886 -3.23257 3.10176 0
M  V30 3055 C 302.63 -3.99379 1.43864 0
M  V30 3056 C 300.537 -4.61063 3.70372 0
M  V30 3057 H 299.467 -0.673349 0.33929 0
M  V30 3058 H 302.118 -1.21003 1.37951 0
M  V30 3059 H 300.5 -3.8168 1.0553 0
M  V30 3060 H 301.674 -2.74095 3.70417 0
M  V30 3061 H 299.989 -2.60222 3.25074 0
M  V30 3062 H 302.586 -5.0122 1.86232 0
M  V30 3063 H 302.929 -4.14511 0.385564 0
M  V30 3064 H 303.462 -3.47032 1.94457 0
M  V30 3065 H 300.201 -4.51135 4.7556 0
M  V30 3066 H 299.721 -5.1048 3.14913 0
M  V30 3067 H 301.4 -5.30034 3.71043 0
M  V30 3068 N 301.532 -0.945985 -1.26051 0
M  V30 3069 C 302.76 -0.613025 -1.9761 0
M  V30 3070 C 303.175 0.813035 -1.70397 0
M  V30 3071 O 302.532 1.54274 -0.974979 0
M  V30 3072 C 302.583 -0.85159 -3.51326 0
M  V30 3073 O 302.304 -2.22157 -3.77595 0
M  V30 3074 C 303.805 -0.529831 -4.40122 0
M  V30 3075 H 301.025 -0.230593 -0.630133 0
M  V30 3076 H 303.569 -1.268 -1.60443 0
M  V30 3077 H 301.724 -0.243151 -3.86636 0
M  V30 3078 H 302.138 -2.2852 -4.721 0
M  V30 3079 H 303.612 -0.747348 -5.46917 0
M  V30 3080 H 304.089 0.535341 -4.35925 0
M  V30 3081 H 304.695 -1.11721 -4.10364 0
M  V30 3082 N 303.011 1.40521 -0.713556 0
M  V30 3083 C 304.259 2.00527 -0.251692 0
M  V30 3084 C 304.58 1.56857 1.15848 0
M  V30 3085 O 303.85 0.807127 1.785 0
M  V30 3086 H 302.43 0.741551 -0.0900646 0
M  V30 3087 H 305.092 1.71887 -0.918733 0
M  V30 3088 H 304.188 3.10813 -0.283192 0
M  V30 3089 N 304.489 0.459591 1.5075 0
M  V30 3090 C 305.737 -0.0991532 2.01857 0
M  V30 3091 C 306.058 -1.41247 1.34441 0
M  V30 3092 O 305.328 -1.89775 0.486022 0
M  V30 3093 H 303.908 -0.039633 0.745948 0
M  V30 3094 H 306.57 0.607387 1.85194 0
M  V30 3095 H 305.666 -0.258998 3.11023 0
M  V30 3096 N 305.967 -1.56429 0.191757 0
M  V30 3097 C 306.899 -2.16154 -0.762245 0
M  V30 3098 C 307.912 -1.12247 -1.17917 0
M  V30 3099 O 309.101 -1.39353 -1.11548 0
M  V30 3100 C 306.201 -2.70606 -2.04024 0
M  V30 3101 C 305.374 -3.99381 -1.78364 0
M  V30 3102 C 304.433 -4.38692 -2.90578 0
M  V30 3103 O 303.459 -5.06179 -2.6033 0
M  V30 3104 N 304.661 -4.01922 -4.18854 0
M  V30 3105 H 307.426 -2.98643 -0.251526 0
M  V30 3106 H 304.987 -1.61897 0.00967373 0
M  V30 3107 H 306.979 -2.93891 -2.78227 0
M  V30 3108 H 305.549 -1.9259 -2.46227 0
M  V30 3109 H 304.769 -3.84262 -0.879581 0
M  V30 3110 H 306.057 -4.83445 -1.58614 0
M  V30 3111 H 305.455 -3.47631 -4.46283 0
M  V30 3112 H 304.012 -4.30165 -4.89695 0
M  V30 3113 N 307.445 0.0818655 -1.57387 0
M  V30 3114 C 308.691 0.784074 -1.8703 0
M  V30 3115 C 309.024 1.77729 -0.782689 0
M  V30 3116 O 308.299 1.93384 0.208051 0
M  V30 3117 C 308.582 1.50105 -3.27323 0
M  V30 3118 C 308.435 0.524925 -4.46727 0
M  V30 3119 C 309.754 2.44843 -3.65705 0
M  V30 3120 H 306.873 0.283582 -0.680257 0
M  V30 3121 H 309.515 0.0474352 -1.89941 0
M  V30 3122 H 307.665 2.12897 -3.24972 0
M  V30 3123 H 309.337 -0.0970111 -4.61198 0
M  V30 3124 H 307.58 -0.160606 -4.33503 0
M  V30 3125 H 308.251 1.064 -5.41648 0
M  V30 3126 H 310.727 1.92135 -3.69085 0
M  V30 3127 H 309.603 2.92018 -4.64776 0
M  V30 3128 H 309.864 3.29197 -2.95096 0
M  V30 3129 N 308.923 1.53595 0.353017 0
M  V30 3130 C 310.339 1.43648 0.695516 0
M  V30 3131 C 310.539 0.585617 1.92802 0
M  V30 3132 O 309.595 0.0729223 2.52395 0
M  V30 3133 C 310.908 2.8701 0.896991 0
M  V30 3134 C 312.456 2.96723 0.996209 0
M  V30 3135 C 312.931 4.41173 1.23007 0
M  V30 3136 N 314.422 4.44657 1.29749 0
M  V30 3137 C 315.157 5.53547 1.49577 0
M  V30 3138 N 314.653 6.72461 1.66639 0
M  V30 3139 N 316.446 5.41145 1.52048 0
M  V30 3140 H 308.597 2.07415 -0.457481 0
M  V30 3141 H 310.86 0.9372 -0.142687 0
M  V30 3142 H 310.566 3.51644 0.0629938 0
M  V30 3143 H 310.44 3.31401 1.80148 0
M  V30 3144 H 312.827 2.32235 1.82074 0
M  V30 3145 H 312.908 2.55707 0.0688331 0
M  V30 3146 H 312.552 5.06238 0.410505 0
M  V30 3147 H 312.482 4.79772 2.17086 0
M  V30 3148 H 314.973 3.58963 1.18126 0
M  V30 3149 H 315.286 7.51214 1.81378 0
M  V30 3150 H 313.631 6.75423 1.63794 0
M  V30 3151 H 316.822 4.47205 1.38294 0
M  V30 3152 H 316.995 6.26068 1.67159 0
M  V30 3153 N 310.401 -0.613514 1.45168 0
M  V30 3154 C 311.331 -1.7354 1.56225 0
M  V30 3155 C 312.312 -1.64981 0.41414 0
M  V30 3156 O 313.497 -1.83472 0.636526 0
M  V30 3157 C 310.627 -3.12128 1.52295 0
M  V30 3158 C 309.581 -3.35491 2.65762 0
M  V30 3159 C 308.907 -4.74291 2.46885 0
M  V30 3160 C 310.207 -3.26325 4.0781 0
M  V30 3161 H 311.901 -1.64543 2.50132 0
M  V30 3162 H 309.447 -0.790185 1.20383 0
M  V30 3163 H 311.4 -3.90404 1.58628 0
M  V30 3164 H 310.124 -3.2195 0.549139 0
M  V30 3165 H 308.783 -2.59603 2.58847 0
M  V30 3166 H 308.431 -4.80839 1.47657 0
M  V30 3167 H 308.131 -4.9088 3.22972 0
M  V30 3168 H 309.655 -5.54775 2.55063 0
M  V30 3169 H 311.069 -3.94483 4.16 0
M  V30 3170 H 309.466 -3.54445 4.8424 0
M  V30 3171 H 310.536 -2.23855 4.30136 0
M  V30 3172 N 311.879 -1.3236 -0.855495 0
M  V30 3173 C 313.295 -1.11332 -1.14356 0
M  V30 3174 C 313.495 0.106751 -2.01217 0
M  V30 3175 O 312.551 0.791891 -2.39761 0
M  V30 3176 C 313.864 -2.39237 -1.82171 0
M  V30 3177 C 315.412 -2.44986 -1.9481 0
M  V30 3178 C 315.887 -3.7281 -2.66039 0
M  V30 3179 N 317.378 -3.73787 -2.73565 0
M  V30 3180 C 318.113 -4.69394 -3.29327 0
M  V30 3181 N 317.609 -5.75367 -3.85907 0
M  V30 3182 N 319.402 -4.56893 -3.27423 0
M  V30 3183 H 311.553 -2.10586 -0.277027 0
M  V30 3184 H 313.816 -0.929701 -0.185364 0
M  V30 3185 H 313.522 -3.28431 -1.25802 0
M  V30 3186 H 313.396 -2.50134 -2.82335 0
M  V30 3187 H 315.783 -1.56252 -2.50338 0
M  V30 3188 H 315.864 -2.38043 -0.936448 0
M  V30 3189 H 315.508 -4.61918 -2.11174 0
M  V30 3190 H 315.438 -3.77024 -3.67642 0
M  V30 3191 H 317.929 -2.97189 -2.33424 0
M  V30 3192 H 318.242 -6.44378 -4.26611 0
M  V30 3193 H 316.587 -5.79123 -3.84242 0
M  V30 3194 H 319.778 -3.73269 -2.82467 0
M  V30 3195 H 319.951 -5.31577 -3.7058 0
M  V30 3196 N 313.357 1.07166 -1.15556 0
M  V30 3197 C 314.606 1.79181 -0.926132 0
M  V30 3198 C 314.919 1.87768 0.547967 0
M  V30 3199 O 316.125 2.56323 0.895036 0
M  V30 3200 C 314.581 3.22 -1.60761 0
M  V30 3201 C 314.189 3.21607 -3.11886 0
M  V30 3202 C 315.933 3.9861 -1.4598 0
M  V30 3203 C 313.84 4.59092 -3.72812 0
M  V30 3204 H 312.77 0.67154 -0.342856 0
M  V30 3205 H 315.421 1.2027 -1.3859 0
M  V30 3206 H 313.803 3.81115 -1.07553 0
M  V30 3207 H 314.977 2.72127 -3.71865 0
M  V30 3208 H 313.292 2.58495 -3.2645 0
M  V30 3209 H 315.889 5.00225 -1.88888 0
M  V30 3210 H 316.232 4.143 -0.407541 0
M  V30 3211 H 316.765 3.45996 -1.96295 0
M  V30 3212 H 313.504 4.48606 -4.77946 0
M  V30 3213 H 313.024 5.08803 -3.17616 0
M  V30 3214 H 314.703 5.28059 -3.73848 0
M  V30 3215 N 314.835 0.952656 1.25548 0
M  V30 3216 C 315.765 0.489287 2.28316 0
M  V30 3217 C 316.746 -0.463359 1.63667 0
M  V30 3218 O 317.931 -0.36274 1.90782 0
M  V30 3219 C 315.061 -0.235603 3.465 0
M  V30 3220 C 314.015 0.631593 4.23314 0
M  V30 3221 C 313.341 -0.223923 5.34231 0
M  V30 3222 C 314.641 1.90871 4.86174 0
M  V30 3223 H 316.335 1.34822 2.67326 0
M  V30 3224 H 313.881 0.649728 1.28509 0
M  V30 3225 H 315.834 -0.570882 4.17515 0
M  V30 3226 H 314.558 -1.12877 3.06474 0
M  V30 3227 H 313.217 0.949929 3.54079 0
M  V30 3228 H 312.865 -1.11678 4.90446 0
M  V30 3229 H 312.565 0.35299 5.86539 0
M  V30 3230 H 314.089 -0.554214 6.0808 0
M  V30 3231 H 315.503 1.63997 5.49343 0
M  V30 3232 H 313.9 2.43112 5.4865 0
M  V30 3233 H 314.97 2.61304 4.08471 0
M  V30 3234 N 316.313 -1.40141 0.720998 0
M  V30 3235 C 317.538 -2.05618 0.271258 0
M  V30 3236 C 317.963 -1.53978 -1.08039 0
M  V30 3237 O 317.321 -0.677463 -1.68167 0
M  V30 3238 C 317.369 -3.59609 0.267197 0
M  V30 3239 O 316.473 -4.05526 -0.749814 0
M  V30 3240 H 315.814 -0.651904 0.126162 0
M  V30 3241 H 318.344 -1.79439 0.982997 0
M  V30 3242 H 318.354 -4.0786 0.106744 0
M  V30 3243 H 317.029 -3.96559 1.25354 0
M  V30 3244 H 315.606 -3.68722 -0.556644 0
M  V30 3245 N 317.792 -0.46758 -1.50504 0
M  V30 3246 C 318.74 0.342482 -2.30065 0
M  V30 3247 C 319.734 0.993596 -1.37201 0
M  V30 3248 O 320.94 0.925102 -1.54408 0
M  V30 3249 H 317.315 0.129283 -0.740803 0
M  V30 3250 H 319.286 -0.34899 -2.96352 0
M  V30 3251 C 318.035 1.4139 -3.17654 0
M  V30 3252 H 317.358 0.922264 -3.89017 0
M  V30 3253 H 318.798 1.95335 -3.76325 0
M  V30 3254 C 317.257 2.4139 -2.35016 0
M  V30 3255 O 317.787 3.46586 -2.03079 0
M  V30 3256 N 315.993 2.13021 -1.97662 0
M  V30 3257 H 315.54 1.27499 -2.23834 0
M  V30 3258 H 315.498 2.80164 -1.42673 0
M  V30 3259 N 319.27 1.56325 -0.20005 0
M  V30 3260 C 320.2 2.22318 0.713916 0
M  V30 3261 C 321.181 1.18788 1.21752 0
M  V30 3262 O 322.366 1.47309 1.26545 0
M  V30 3263 C 319.496 2.88639 1.93144 0
M  V30 3264 C 318.45 3.98457 1.56255 0
M  V30 3265 C 317.776 4.51967 2.85709 0
M  V30 3266 C 319.076 5.16612 0.768747 0
M  V30 3267 H 320.77 2.98952 0.163755 0
M  V30 3268 H 318.316 1.43792 0.0773219 0
M  V30 3269 H 320.269 3.33491 2.57608 0
M  V30 3270 H 318.993 2.09419 2.50621 0
M  V30 3271 H 317.652 3.54305 0.941471 0
M  V30 3272 H 317.3 3.69503 3.41287 0
M  V30 3273 H 317 5.26071 2.6177 0
M  V30 3274 H 318.524 4.99523 3.51154 0
M  V30 3275 H 319.938 5.57977 1.3166 0
M  V30 3276 H 318.335 5.96812 0.627286 0
M  V30 3277 H 319.405 4.84358 -0.229168 0
M  V30 3278 N 320.748 -0.0735177 1.57428 0
M  V30 3279 C 321.711 -1.07192 2.02589 0
M  V30 3280 C 322.711 -1.31695 0.922661 0
M  V30 3281 O 323.901 -1.27445 1.18758 0
M  V30 3282 C 321.033 -2.41599 2.40506 0
M  V30 3283 H 322.226 -0.682727 2.92025 0
M  V30 3284 H 319.779 -0.319193 1.53006 0
M  V30 3285 H 320.514 -2.85354 1.5409 0
M  V30 3286 H 320.299 -2.25156 3.21009 0
M  V30 3287 H 321.789 -3.13367 2.76027 0
M  V30 3288 N 322.226 -1.5378 -0.344866 0
M  V30 3289 C 323.503 -1.61589 -1.10219 0
M  V30 3290 C 323.883 -0.436316 -2.06542 0
M  V30 3291 O 323.231 0.571543 -2.21237 0
M  V30 3292 C 323.441 -2.97602 -1.82301 0
M  V30 3293 C 324.789 -3.5291 -2.36093 0
M  V30 3294 O 325.813 -2.99768 -1.924 0
M  V30 3295 O 324.672 -4.45859 -3.16026 0
M  V30 3296 H 321.766 -0.653522 -0.506792 0
M  V30 3297 H 324.312 -1.66126 -0.346465 0
M  V30 3298 H 323.084 -3.74893 -1.12121 0
M  V30 3299 H 322.707 -2.9665 -2.64735 0
M  V30 3300 N 323.704 0.605807 -1.45491 0
M  V30 3301 C 324.634 1.72709 -1.57143 0
M  V30 3302 C 325.615 1.6476 -0.422884 0
M  V30 3303 O 326.8 1.83132 -0.646247 0
M  V30 3304 C 323.93 3.11316 -1.53948 0
M  V30 3305 C 322.884 3.34077 -2.67537 0
M  V30 3306 C 322.21 4.72975 -2.49397 0
M  V30 3307 C 323.51 3.24158 -4.09535 0
M  V30 3308 H 325.204 1.63214 -2.51001 0
M  V30 3309 H 322.75 0.78379 -1.208 0
M  V30 3310 H 324.703 3.89557 -1.60696 0
M  V30 3311 H 323.427 3.21655 -0.566205 0
M  V30 3312 H 322.086 2.58227 -2.6022 0
M  V30 3313 H 321.734 4.8005 -1.50205 0
M  V30 3314 H 321.434 4.8916 -3.25571 0
M  V30 3315 H 322.958 5.53414 -2.58002 0
M  V30 3316 H 324.372 3.92271 -4.18086 0
M  V30 3317 H 322.769 3.51872 -4.86113 0
M  V30 3318 H 323.839 2.2157 -4.31317 0
M  V30 3319 N 325.182 1.32811 0.848464 0
M  V30 3320 C 326.598 1.11937 1.13764 0
M  V30 3321 C 326.798 -0.0960789 2.01271 0
M  V30 3322 O 325.854 -0.779165 2.40178 0
M  V30 3323 C 327.167 2.402 1.809 0
M  V30 3324 C 328.715 2.46016 1.93508 0
M  V30 3325 C 329.19 3.74215 2.64059 0
M  V30 3326 N 330.681 3.75232 2.71579 0
M  V30 3327 C 331.416 4.71134 3.26833 0
M  V30 3328 N 330.912 5.77406 3.8285 0
M  V30 3329 N 332.705 4.58623 3.24995 0
M  V30 3330 H 324.856 2.1073 0.265855 0
M  V30 3331 H 327.119 0.930671 0.180431 0
M  V30 3332 H 326.825 3.29093 1.24058 0
M  V30 3333 H 326.699 2.51628 2.81004 0
M  V30 3334 H 329.086 1.57577 2.49506 0
M  V30 3335 H 329.167 2.38536 0.923811 0
M  V30 3336 H 328.811 4.63031 2.08722 0
M  V30 3337 H 328.741 3.78968 3.65637 0
M  V30 3338 H 331.232 2.98423 2.31845 0
M  V30 3339 H 331.545 6.46632 4.23187 0
M  V30 3340 H 329.89 5.81152 3.81165 0
M  V30 3341 H 333.081 3.74762 2.80484 0
M  V30 3342 H 333.254 5.33535 3.67756 0
M  V30 3343 N 326.66 -1.06551 1.16123 0
M  V30 3344 C 327.59 -2.15935 0.88851 0
M  V30 3345 C 328.571 -1.69306 -0.164135 0
M  V30 3346 O 329.756 -1.94193 -0.0167857 0
M  V30 3347 C 326.886 -3.45149 0.385942 0
M  V30 3348 C 325.84 -4.05271 1.3762 0
M  V30 3349 C 325.166 -5.29664 0.732137 0
M  V30 3350 C 326.466 -4.44355 2.74493 0
M  V30 3351 H 328.16 -2.39006 1.80323 0
M  V30 3352 H 325.706 -1.14866 0.868435 0
M  V30 3353 H 327.659 -4.21004 0.182647 0
M  V30 3354 H 326.383 -3.21689 -0.564274 0
M  V30 3355 H 325.042 -3.3147 1.56599 0
M  V30 3356 H 324.69 -5.02499 -0.224483 0
M  V30 3357 H 324.39 -5.70848 1.39307 0
M  V30 3358 H 325.914 -6.08218 0.538802 0
M  V30 3359 H 327.328 -5.11303 2.59311 0
M  V30 3360 H 325.725 -4.96515 3.37035 0
M  V30 3361 H 326.795 -3.55339 3.29943 0
M  V30 3362 N 328.138 -0.959301 -1.25041 0
M  V30 3363 C 329.101 -0.487677 -2.23952 0
M  V30 3364 C 330.101 0.41119 -1.55454 0
M  V30 3365 O 331.291 0.207825 -1.72956 0
M  V30 3366 C 328.423 0.294807 -3.39623 0
M  V30 3367 H 329.616 -1.36198 -2.67189 0
M  V30 3368 H 327.169 -0.743042 -1.37508 0
M  V30 3369 H 327.904 1.18658 -3.01813 0
M  V30 3370 H 327.689 -0.35012 -3.90534 0
M  V30 3371 H 329.179 0.614089 -4.1306 0
M  V30 3372 N 329.616 1.39756 -0.72842 0
M  V30 3373 C 331.032 1.5442 -0.403308 0
M  V30 3374 C 331.232 1.69694 1.08656 0
M  V30 3375 O 330.288 1.69373 1.87267 0
M  V30 3376 C 331.601 2.76555 -1.18058 0
M  V30 3377 C 333.149 2.90384 -1.16815 0
M  V30 3378 C 333.624 4.15449 -1.92785 0
M  V30 3379 N 335.115 4.22475 -1.89918 0
M  V30 3380 C 335.85 5.1818 -2.45514 0
M  V30 3381 N 335.346 6.19714 -3.09719 0
M  V30 3382 N 337.139 5.1035 -2.35584 0
M  V30 3383 H 329.29 1.28089 -1.69431 0
M  V30 3384 H 331.553 0.620327 -0.716867 0
M  V30 3385 H 331.259 2.7159 -2.23455 0
M  V30 3386 H 331.133 3.69033 -0.780662 0
M  V30 3387 H 333.52 2.94846 -0.12234 0
M  V30 3388 H 333.601 1.98988 -1.6074 0
M  V30 3389 H 333.245 4.11749 -2.97364 0
M  V30 3390 H 333.175 5.05877 -1.46272 0
M  V30 3391 H 335.666 3.49743 -1.43138 0
M  V30 3392 H 335.979 6.8919 -3.49625 0
M  V30 3393 H 334.324 6.20121 -3.13807 0
M  V30 3394 H 337.515 4.2996 -1.85072 0
M  V30 3395 H 337.688 5.84761 -2.79211 0
M  V30 3396 N 331.094 0.475555 1.50254 0
M  V30 3397 C 332.057 -0.305016 2.27161 0
M  V30 3398 C 333.057 -0.916519 1.32123 0
M  V30 3399 O 334.247 -0.785003 1.5551 0
M  V30 3400 C 331.379 -1.43496 3.09227 0
M  V30 3401 H 332.572 0.369511 2.97615 0
M  V30 3402 H 330.125 0.229747 1.54602 0
M  V30 3403 H 330.86 -2.14441 2.43281 0
M  V30 3404 H 330.645 -1.00223 3.79075 0
M  V30 3405 H 332.135 -1.98548 3.67381 0
M  V30 3406 N 332.573 -1.56217 0.208337 0
M  V30 3407 C 333.505 -2.1695 -0.739276 0
M  V30 3408 C 334.518 -1.13492 -1.1672 0
M  V30 3409 O 335.707 -1.40529 -1.10063 0
M  V30 3410 C 332.807 -2.72755 -2.01142 0
M  V30 3411 C 331.98 -4.0125 -1.74118 0
M  V30 3412 C 331.039 -4.41749 -2.85909 0
M  V30 3413 O 330.065 -5.08912 -2.54946 0
M  V30 3414 N 331.267 -4.06342 -4.14568 0
M  V30 3415 H 334.032 -2.98893 -0.219837 0
M  V30 3416 H 331.593 -1.61878 0.0268445 0
M  V30 3417 H 333.585 -2.96826 -2.75094 0
M  V30 3418 H 332.155 -1.95191 -2.4417 0
M  V30 3419 H 331.375 -3.85173 -0.838775 0
M  V30 3420 H 332.663 -4.851 -1.53477 0
M  V30 3421 H 332.061 -3.52345 -4.42571 0
M  V30 3422 H 330.618 -4.35335 -4.85105 0
M  V30 3423 N 334.051 0.0651679 -1.57465 0
M  V30 3424 C 335.297 0.764193 -1.87851 0
M  V30 3425 C 335.63 1.76889 -0.801495 0
M  V30 3426 O 334.905 1.93594 0.187528 0
M  V30 3427 C 335.188 1.46625 -3.28897 0
M  V30 3428 C 335.041 0.477515 -4.47258 0
M  V30 3429 C 336.36 2.4095 -3.68281 0
M  V30 3430 H 333.479 0.276351 -0.683227 0
M  V30 3431 H 336.121 0.0272868 -1.8998 0
M  V30 3432 H 334.271 2.09438 -3.27212 0
M  V30 3433 H 335.943 -0.145922 -4.61069 0
M  V30 3434 H 334.186 -0.206576 -4.33308 0
M  V30 3435 H 334.857 1.0065 -5.42746 0
M  V30 3436 H 337.333 1.88209 -3.71102 0
M  V30 3437 H 336.209 2.87072 -4.67847 0
M  V30 3438 H 336.47 3.26049 -2.98571 0
M  V30 3439 N 335.529 1.53961 0.336706 0
M  V30 3440 C 336.945 1.44378 0.680241 0
M  V30 3441 C 337.145 0.606034 1.9217 0
M  V30 3442 O 336.201 0.099688 2.52303 0
M  V30 3443 C 337.514 2.87945 0.8665 0
M  V30 3444 C 339.062 2.97763 0.964682 0
M  V30 3445 C 339.537 4.42453 1.18321 0
M  V30 3446 N 341.028 4.46008 1.25025 0
M  V30 3447 C 341.763 5.55102 1.43697 0
M  V30 3448 N 341.259 6.7419 1.59498 0
M  V30 3449 N 343.052 5.42727 1.463 0
M  V30 3450 H 335.203 2.06918 -0.479455 0
M  V30 3451 H 337.466 0.935634 -0.152619 0
M  V30 3452 H 337.172 3.51691 0.0256937 0
M  V30 3453 H 337.046 3.33293 1.76623 0
M  V30 3454 H 339.433 2.34153 1.796 0
M  V30 3455 H 339.514 2.55766 0.041708 0
M  V30 3456 H 339.158 5.06645 0.356788 0
M  V30 3457 H 339.088 4.82048 2.11985 0
M  V30 3458 H 341.579 3.60196 1.14312 0
M  V30 3459 H 341.892 7.53095 1.734 0
M  V30 3460 H 340.237 6.77123 1.56621 0
M  V30 3461 H 343.428 4.48647 1.33543 0
M  V30 3462 H 343.601 6.27806 1.6051 0
M  V30 3463 N 337.007 -0.598083 1.45811 0
M  V30 3464 C 338.256 -1.35295 1.49594 0
M  V30 3465 C 338.569 -1.95057 0.145679 0
M  V30 3466 O 339.775 -2.71431 0.0612099 0
M  V30 3467 C 338.231 -2.45124 2.63519 0
M  V30 3468 C 337.839 -1.91732 4.04899 0
M  V30 3469 C 339.583 -3.2205 2.76558 0
M  V30 3470 C 337.49 -2.991 5.1019 0
M  V30 3471 H 336.42 -0.508552 0.556679 0
M  V30 3472 H 339.071 -0.639977 1.71978 0
M  V30 3473 H 337.453 -3.19149 2.34435 0
M  V30 3474 H 338.627 -1.24352 4.43704 0
M  V30 3475 H 336.942 -1.27522 3.96393 0
M  V30 3476 H 339.539 -4.0215 3.52391 0
M  V30 3477 H 339.882 -3.73663 1.83526 0
M  V30 3478 H 340.415 -2.55127 3.05213 0
M  V30 3479 H 337.154 -2.52393 6.04961 0
M  V30 3480 H 336.674 -3.65017 4.75944 0
M  V30 3481 H 338.353 -3.63318 5.35359 0
M  V30 3482 N 338.485 -1.33259 -0.841409 0
M  V30 3483 C 339.713 -1.27605 -1.62864 0
M  V30 3484 C 340.128 0.153507 -1.88175 0
M  V30 3485 O 339.485 1.09485 -1.46011 0
M  V30 3486 C 339.536 -2.04596 -2.98031 0
M  V30 3487 O 339.257 -3.41975 -2.73834 0
M  V30 3488 C 340.758 -2.06122 -3.92465 0
M  V30 3489 H 337.978 -0.439718 -0.506842 0
M  V30 3490 H 340.522 -1.75591 -1.04824 0
M  V30 3491 H 338.677 -1.60299 -3.5268 0
M  V30 3492 H 339.091 -3.81549 -3.59889 0
M  V30 3493 H 340.565 -2.64451 -4.84531 0
M  V30 3494 H 341.042 -1.05083 -4.26444 0
M  V30 3495 H 341.648 -2.50427 -3.43753 0
M  V30 3496 N 339.963 1.05934 -1.16686 0
M  V30 3497 C 341.374 1.60263 -0.957745 0
M  V30 3498 C 341.725 1.89789 0.49745 0
M  V30 3499 O 340.85 1.67401 1.37135 0
M  V30 3500 C 341.445 2.91172 -1.73218 0
M  V30 3501 C 340.004 3.42188 -1.56794 0
M  V30 3502 C 339.151 2.16028 -1.73859 0
M  V30 3503 H 342.102 0.888392 -1.31504 0
M  V30 3504 H 342.123 3.60744 -1.21014 0
M  V30 3505 H 341.635 2.6965 -2.79124 0
M  V30 3506 H 339.736 3.68762 -0.533437 0
M  V30 3507 H 339.849 4.17273 -2.35414 0
M  V30 3508 H 338.213 2.26426 -1.16633 0
M  V30 3509 H 338.996 1.96985 -2.81161 0
M  V30 3510 N 341.441 0.965919 1.2453 0
M  V30 3511 C 342.373 0.452465 2.2469 0
M  V30 3512 C 343.386 -0.437821 1.56802 0
M  V30 3513 O 344.575 -0.244283 1.76821 0
M  V30 3514 C 341.675 -0.366258 3.36915 0
M  V30 3515 C 340.848 0.513701 4.34373 0
M  V30 3516 C 339.907 -0.248716 5.25612 0
M  V30 3517 O 338.933 0.356745 5.68081 0
M  V30 3518 N 340.135 -1.53877 5.59734 0
M  V30 3519 H 342.9 1.31361 2.69378 0
M  V30 3520 H 340.461 0.837541 1.38553 0
M  V30 3521 H 342.453 -0.884297 3.94921 0
M  V30 3522 H 341.023 -1.12832 2.91526 0
M  V30 3523 H 340.243 1.21273 3.75082 0
M  V30 3524 H 341.531 1.11391 4.96457 0
M  V30 3525 H 340.929 -2.05243 5.27154 0
M  V30 3526 H 339.486 -2.00254 6.20275 0
M  V30 3527 N 342.919 -1.39368 0.735821 0
M  V30 3528 C 343.851 -2.2913 0.0567723 0
M  V30 3529 C 344.864 -1.46859 -0.702589 0
M  V30 3530 O 346.053 -1.69925 -0.546616 0
M  V30 3531 C 343.153 -3.25492 -0.943823 0
M  V30 3532 C 342.326 -4.36709 -0.24581 0
M  V30 3533 C 341.385 -5.13376 -1.15463 0
M  V30 3534 O 340.411 -5.65683 -0.631803 0
M  V30 3535 N 341.613 -5.24656 -2.48427 0
M  V30 3536 H 344.378 -2.88047 0.827582 0
M  V30 3537 H 341.939 -1.50957 0.585112 0
M  V30 3538 H 343.931 -3.73657 -1.55443 0
M  V30 3539 H 342.501 -2.676 -1.61583 0
M  V30 3540 H 341.721 -3.9041 0.545286 0
M  V30 3541 H 343.009 -5.08244 0.237891 0
M  V30 3542 H 342.407 -4.83679 -2.93379 0
M  V30 3543 H 340.964 -5.76258 -3.04582 0
M  V30 3544 N 344.397 -0.483516 -1.5 0
M  V30 3545 C 345.327 0.293829 -2.31644 0
M  V30 3546 C 346.308 0.978864 -1.39112 0
M  V30 3547 O 347.493 0.973644 -1.68029 0
M  V30 3548 C 344.623 1.36897 -3.19181 0
M  V30 3549 C 343.577 0.804833 -4.20365 0
M  V30 3550 C 342.903 1.9792 -4.96721 0
M  V30 3551 C 344.203 -0.192313 -5.21946 0
M  V30 3552 H 345.897 -0.387616 -2.9688 0
M  V30 3553 H 343.443 -0.187856 -1.42769 0
M  V30 3554 H 345.396 1.92037 -3.751 0
M  V30 3555 H 344.12 2.07936 -2.51853 0
M  V30 3556 H 342.779 0.275319 -3.65565 0
M  V30 3557 H 342.427 2.67686 -4.25856 0
M  V30 3558 H 342.127 1.60789 -5.65173 0
M  V30 3559 H 343.651 2.53526 -5.55479 0
M  V30 3560 H 345.065 0.270333 -5.72662 0
M  V30 3561 H 343.462 -0.478543 -5.98189 0
M  V30 3562 H 344.532 -1.11409 -4.71928 0
M  V30 3563 N 345.875 1.56104 -0.216619 0
M  V30 3564 C 346.785 2.23694 0.706982 0
M  V30 3565 C 347.801 1.24295 1.21765 0
M  V30 3566 O 348.977 1.57094 1.2603 0
M  V30 3567 C 346.042 2.8998 1.90033 0
M  V30 3568 C 345.103 4.04708 1.43213 0
M  V30 3569 C 344.336 4.67824 2.56859 0
M  V30 3570 O 344.559 4.29913 3.74874 0
M  V30 3571 O 343.493 5.56905 2.28343 0
M  V30 3572 H 347.319 3.03272 0.161235 0
M  V30 3573 H 344.904 1.49394 0.0136177 0
M  V30 3574 H 346.786 3.31837 2.59735 0
M  V30 3575 H 345.461 2.13365 2.43428 0
M  V30 3576 H 344.368 3.6743 0.70327 0
M  V30 3577 H 345.701 4.83051 0.944615 0
M  V30 3578 N 347.353 -0.0568162 1.57498 0
M  V30 3579 C 348.581 -0.765626 1.92213 0
M  V30 3580 C 348.996 -1.70353 0.813961 0
M  V30 3581 O 348.353 -1.81268 -0.211701 0
M  V30 3582 C 348.404 -1.5465 3.2675 0
M  V30 3583 O 348.125 -0.646278 4.33307 0
M  V30 3584 C 349.626 -2.35497 3.75574 0
M  V30 3585 H 346.846 -0.216835 0.634999 0
M  V30 3586 H 349.39 -0.0226146 2.04487 0
M  V30 3587 H 347.545 -2.24165 3.15957 0
M  V30 3588 H 347.959 -1.19093 5.108 0
M  V30 3589 H 349.433 -2.85722 4.72299 0
M  V30 3590 H 349.91 -3.15692 3.05344 0
M  V30 3591 H 350.516 -1.7111 3.8936 0
M  V30 3592 N 348.832 -1.54138 -0.328536 0
M  V30 3593 C 349.795 -1.82462 -1.38709 0
M  V30 3594 C 350.795 -0.696229 -1.44946 0
M  V30 3595 O 351.985 -0.964535 -1.4506 0
M  V30 3596 C 349.117 -1.98018 -2.77492 0
M  V30 3597 H 350.31 -2.77037 -1.14851 0
M  V30 3598 H 347.863 -1.45779 -0.563751 0
M  V30 3599 H 348.598 -1.05637 -3.06613 0
M  V30 3600 H 348.383 -2.80124 -2.74359 0
M  V30 3601 H 349.873 -2.21396 -3.54081 0
M  V30 3602 N 350.31 0.590341 -1.46126 0
M  V30 3603 C 351.22 1.72793 -1.58681 0
M  V30 3604 C 352.236 1.67516 -0.470566 0
M  V30 3605 O 353.412 1.87562 -0.733642 0
M  V30 3606 C 350.477 3.09287 -1.5666 0
M  V30 3607 C 349.538 3.25886 -2.79458 0
M  V30 3608 C 348.771 4.55869 -2.77524 0
M  V30 3609 O 348.994 5.3928 -1.85832 0
M  V30 3610 O 347.928 4.75552 -3.68964 0
M  V30 3611 H 351.754 1.65149 -2.54872 0
M  V30 3612 H 349.339 0.756486 -1.28832 0
M  V30 3613 H 351.221 3.90577 -1.58202 0
M  V30 3614 H 349.896 3.17385 -0.636271 0
M  V30 3615 H 348.803 2.44119 -2.83472 0
M  V30 3616 H 350.136 3.22675 -3.71674 0
M  V30 3617 N 351.788 1.33704 0.83433 0
M  V30 3618 C 353.035 1.25417 1.58987 0
M  V30 3619 C 353.363 -0.178869 1.93676 0
M  V30 3620 O 352.618 -1.13723 1.59265 0
M  V30 3621 C 352.917 2.07926 2.90692 0
M  V30 3622 C 352.583 3.57066 2.75345 0
M  V30 3623 C 351.245 3.97724 2.70867 0
M  V30 3624 C 353.597 4.51817 2.59828 0
M  V30 3625 C 350.925 5.31344 2.48778 0
M  V30 3626 C 353.277 5.85604 2.39272 0
M  V30 3627 C 351.941 6.25439 2.33199 0
M  V30 3628 H 351.211 0.458934 0.581774 0
M  V30 3629 H 353.858 1.65335 0.966261 0
M  V30 3630 H 352.163 1.608 3.57282 0
M  V30 3631 H 353.86 1.98868 3.48213 0
M  V30 3632 H 350.45 3.24785 2.79665 0
M  V30 3633 H 354.634 4.21311 2.62319 0
M  V30 3634 H 349.89 5.61241 2.42526 0
M  V30 3635 H 354.064 6.58623 2.2625 0
M  V30 3636 H 351.691 7.28914 2.15843 0
M  V30 3637 N 353.266 -1.05314 1.17247 0
M  V30 3638 C 354.491 -1.82509 0.985148 0
M  V30 3639 C 354.916 -1.82343 -0.461788 0
M  V30 3640 O 354.274 -1.23151 -1.33055 0
M  V30 3641 C 354.322 -3.26566 1.52929 0
M  V30 3642 O 353.426 -4.05666 0.742225 0
M  V30 3643 H 352.767 -0.564347 0.349869 0
M  V30 3644 H 355.297 -1.32718 1.55715 0
M  V30 3645 H 355.307 -3.77369 1.55103 0
M  V30 3646 H 353.982 -3.26001 2.58256 0
M  V30 3647 H 352.559 -3.64397 0.791794 0
M  V30 3648 N 354.744 -0.972509 -1.24016 0
M  V30 3649 C 355.992 -0.635776 -1.91839 0
M  V30 3650 C 356.313 0.832312 -1.76345 0
M  V30 3651 O 355.583 1.5946 -1.13795 0
M  V30 3652 H 354.163 -0.232157 -0.710009 0
M  V30 3653 H 356.825 -1.23462 -1.50809 0
M  V30 3654 H 355.921 -0.880545 -2.99421 0
M  V30 3655 N 356.222 1.38976 -0.743202 0
M  V30 3656 C 357.132 2.3434 -0.110399 0
M  V30 3657 C 358.148 1.58741 0.712559 0
M  V30 3658 O 359.324 1.9099 0.639125 0
M  V30 3659 C 356.389 3.37812 0.780012 0
M  V30 3660 C 355.45 4.29263 -0.0561319 0
M  V30 3661 C 354.683 5.27793 0.791875 0
M  V30 3662 O 354.906 5.33043 2.03031 0
M  V30 3663 O 353.84 6.01512 0.216183 0
M  V30 3664 H 357.666 2.90129 -0.897714 0
M  V30 3665 H 355.251 1.40643 -0.503966 0
M  V30 3666 H 357.133 4.01194 1.28923 0
M  V30 3667 H 355.808 2.84395 1.546 0
M  V30 3668 H 354.715 3.69076 -0.611056 0
M  V30 3669 H 356.048 4.85907 -0.784531 0
M  V30 3670 N 357.7 0.491464 1.49741 0
M  V30 3671 C 358.663 -0.280906 2.27472 0
M  V30 3672 C 359.663 -0.902454 1.33088 0
M  V30 3673 O 360.853 -0.768465 1.56334 0
M  V30 3674 C 357.985 -1.40209 3.10732 0
M  V30 3675 H 359.178 0.401056 2.97206 0
M  V30 3676 H 356.731 0.246131 1.5435 0
M  V30 3677 H 357.466 -2.11849 2.45541 0
M  V30 3678 H 357.251 -0.961969 3.80117 0
M  V30 3679 H 358.741 -1.9464 3.69466 0
M  V30 3680 N 359.178 -1.55987 0.224894 0
M  V30 3681 C 360.424 -1.98684 -0.406502 0
M  V30 3682 C 360.757 -1.11248 -1.59177 0
M  V30 3683 O 360.032 -0.170909 -1.93748 0
M  V30 3684 C 360.315 -3.50218 -0.837808 0
M  V30 3685 C 360.168 -4.48426 0.351332 0
M  V30 3686 C 361.487 -4.06243 -1.69278 0
M  V30 3687 H 358.606 -0.722337 -0.146283 0
M  V30 3688 H 361.248 -1.87255 0.321799 0
M  V30 3689 H 359.398 -3.60089 -1.45837 0
M  V30 3690 H 361.07 -4.50562 0.989526 0
M  V30 3691 H 359.313 -4.22159 0.998207 0
M  V30 3692 H 359.984 -5.52 0.00655905 0
M  V30 3693 H 362.46 -3.99337 -1.16914 0
M  V30 3694 H 361.336 -5.12581 -1.96346 0
M  V30 3695 H 361.597 -3.53332 -2.65723 0
M  V30 3696 N 360.656 0.0484629 -1.57525 0
M  V30 3697 C 361.905 0.742065 -1.87553 0
M  V30 3698 C 362.218 1.77545 -0.820802 0
M  V30 3699 O 363.424 2.52027 -1.00967 0
M  V30 3700 C 361.88 1.37081 -3.32771 0
M  V30 3701 C 361.488 0.374786 -4.4643 0
M  V30 3702 C 363.232 2.04542 -3.71972 0
M  V30 3703 C 361.139 1.01077 -5.82698 0
M  V30 3704 H 360.069 0.280903 -0.699721 0
M  V30 3705 H 362.72 -0.00411877 -1.835 0
M  V30 3706 H 361.102 2.16605 -3.31509 0
M  V30 3707 H 362.276 -0.392331 -4.59127 0
M  V30 3708 H 360.591 -0.196653 -4.15935 0
M  V30 3709 H 363.188 2.52943 -4.71088 0
M  V30 3710 H 363.531 2.85515 -3.02964 0
M  V30 3711 H 364.064 1.31819 -3.75325 0
M  V30 3712 H 360.803 0.240878 -6.55057 0
M  V30 3713 H 360.323 1.74819 -5.73758 0
M  V30 3714 H 362.002 1.52383 -6.28799 0
M  V30 3715 N 362.134 1.5431 0.320358 0
M  V30 3716 C 363.044 1.86946 1.41734 0
M  V30 3717 C 364.06 0.761689 1.56443 0
M  V30 3718 O 365.236 1.05629 1.71477 0
M  V30 3719 C 362.301 2.09293 2.76401 0
M  V30 3720 C 361.362 3.33082 2.70841 0
M  V30 3721 C 360.595 3.54353 3.99086 0
M  V30 3722 O 360.818 2.79002 4.97508 0
M  V30 3723 O 359.752 4.47838 4.0215 0
M  V30 3724 H 363.578 2.80232 1.17062 0
M  V30 3725 H 361.163 1.40255 0.514673 0
M  V30 3726 H 363.045 2.25303 3.56113 0
M  V30 3727 H 361.72 1.19194 3.00956 0
M  V30 3728 H 360.627 3.22454 1.89668 0
M  V30 3729 H 361.96 4.23249 2.5124 0
M  V30 3730 N 363.613 -0.582584 1.46437 0
M  V30 3731 C 364.861 -1.33814 1.51453 0
M  V30 3732 C 365.182 -1.94277 0.167792 0
M  V30 3733 O 364.452 -1.78566 -0.805677 0
M  V30 3734 H 363.032 -0.496838 0.557818 0
M  V30 3735 H 365.694 -0.682281 1.82568 0
M  V30 3736 H 364.79 -2.14479 2.26728 0
M  V30 3737 N 365.091 -1.34144 -0.827227 0
M  V30 3738 C 366.34 -1.25602 -1.5782 0
M  V30 3739 C 366.653 0.173445 -1.94829 0
M  V30 3740 O 367.859 0.380984 -2.68814 0
M  V30 3741 C 366.315 -2.20151 -2.84713 0
M  V30 3742 C 365.923 -3.68331 -2.55021 0
M  V30 3743 C 367.667 -2.20508 -3.62735 0
M  V30 3744 C 365.574 -4.54762 -3.78082 0
M  V30 3745 H 364.504 -0.466573 -0.592306 0
M  V30 3746 H 367.155 -1.59283 -0.911116 0
M  V30 3747 H 365.537 -1.79417 -3.53023 0
M  V30 3748 H 366.711 -4.17577 -1.94849 0
M  V30 3749 H 365.026 -3.7038 -1.90283 0
M  V30 3750 H 367.623 -2.82306 -4.54101 0
M  V30 3751 H 367.966 -1.20322 -3.98533 0
M  V30 3752 H 368.499 -2.59664 -3.01362 0
M  V30 3753 H 365.238 -5.55867 -3.47407 0
M  V30 3754 H 364.758 -4.10254 -4.37552 0
M  V30 3755 H 366.437 -4.69153 -4.45538 0
M  V30 3756 N 366.569 1.04691 -1.17803 0
M  V30 3757 C 367.499 2.14494 -0.92275 0
M  V30 3758 C 368.48 1.69546 0.137179 0
M  V30 3759 O 369.665 1.94195 -0.0141108 0
M  V30 3760 C 366.795 3.44491 -0.440803 0
M  V30 3761 C 365.749 4.03031 -1.4405 0
M  V30 3762 C 365.075 5.28432 -0.81631 0
M  V30 3763 C 366.375 4.39932 -2.81527 0
M  V30 3764 H 368.069 2.36107 -1.84103 0
M  V30 3765 H 365.615 1.1347 -0.886599 0
M  V30 3766 H 367.568 4.2066 -0.249602 0
M  V30 3767 H 366.292 3.22546 0.513025 0
M  V30 3768 H 364.951 3.28937 -1.61853 0
M  V30 3769 H 364.599 5.02792 0.144511 0
M  V30 3770 H 364.299 5.68559 -1.48371 0
M  V30 3771 H 365.823 6.07284 -0.635496 0
M  V30 3772 H 367.237 5.07113 -2.67412 0
M  V30 3773 H 365.634 4.9109 -3.44892 0
M  V30 3774 H 366.704 3.50045 -3.35554 0
M  V30 3775 N 368.047 0.979072 1.23499 0
M  V30 3776 C 369.324 0.563674 1.87302 0
M  V30 3777 C 369.704 -0.959199 1.88049 0
M  V30 3778 O 369.052 -1.83535 1.36114 0
M  V30 3779 C 369.262 1.16822 3.28867 0
M  V30 3780 C 370.61 1.26014 4.0547 0
M  V30 3781 O 371.634 1.12158 3.38082 0
M  V30 3782 O 370.493 1.48044 5.26066 0
M  V30 3783 H 367.587 0.189602 0.804972 0
M  V30 3784 H 370.133 1.07407 1.31384 0
M  V30 3785 H 368.905 2.21049 3.22883 0
M  V30 3786 H 368.528 0.642564 3.92373 0
M  V30 3787 N 369.525 -1.3858 0.750561 0
M  V30 3788 C 370.488 -2.28836 0.129152 0
M  V30 3789 C 371.488 -1.47045 -0.650714 0
M  V30 3790 O 372.678 -1.6753 -0.477428 0
M  V30 3791 C 369.81 -3.30751 -0.825622 0
M  V30 3792 H 371.003 -2.85294 0.924516 0
M  V30 3793 H 368.556 -1.47489 0.517376 0
M  V30 3794 H 369.291 -2.79378 -1.64677 0
M  V30 3795 H 369.076 -3.91177 -0.268852 0
M  V30 3796 H 370.566 -3.98249 -1.2565 0
M  V30 3797 N 371.003 -0.499398 -1.49478 0
M  V30 3798 C 372.233 0.0424839 -2.06556 0
M  V30 3799 C 372.641 1.31514 -1.36018 0
M  V30 3800 O 371.984 1.78555 -0.431718 0
M  V30 3801 C 372.046 0.368074 -3.57611 0
M  V30 3802 C 371.71 -0.806631 -4.49825 0
M  V30 3803 C 372.707 -1.69667 -4.91436 0
M  V30 3804 C 370.392 -1.00498 -4.92144 0
M  V30 3805 C 372.386 -2.76923 -5.74101 0
M  V30 3806 C 370.073 -2.08072 -5.74586 0
M  V30 3807 C 371.071 -2.96119 -6.15469 0
M  V30 3808 O 370.759 -4.01836 -6.96264 0
M  V30 3809 H 370.491 -0.0165165 -0.675798 0
M  V30 3810 H 373.045 -0.695497 -1.93267 0
M  V30 3811 H 371.275 1.15963 -3.68903 0
M  V30 3812 H 372.964 0.848381 -3.96935 0
M  V30 3813 H 373.73 -1.55524 -4.59388 0
M  V30 3814 H 369.609 -0.329036 -4.59824 0
M  V30 3815 H 373.153 -3.45676 -6.05932 0
M  V30 3816 H 369.05 -2.22211 -6.06047 0
M  V30 3817 H 369.818 -3.9917 -7.14567 0
M  V30 3818 N 372.481 1.55866 -0.233164 0
M  V30 3819 C 373.444 2.1953 0.658715 0
M  V30 3820 C 374.444 1.16053 1.11303 0
M  V30 3821 O 375.634 1.41218 1.01996 0
M  V30 3822 C 372.766 2.82791 1.90373 0
M  V30 3823 H 373.959 2.99721 0.10347 0
M  V30 3824 H 371.512 1.56291 0.0164245 0
M  V30 3825 H 372.247 2.06501 2.50056 0
M  V30 3826 H 372.032 3.58578 1.58632 0
M  V30 3827 H 373.522 3.31556 2.53891 0
M  V30 3828 N 373.959 -0.0401083 1.57549 0
M  V30 3829 C 375.206 -0.733125 1.88763 0
M  V30 3830 C 375.534 -1.75946 0.829058 0
M  V30 3831 O 374.789 -1.94949 -0.171323 0
M  V30 3832 C 375.088 -1.44902 3.26708 0
M  V30 3833 C 374.754 -0.559707 4.47413 0
M  V30 3834 C 373.416 -0.314731 4.8017 0
M  V30 3835 C 375.768 0.0549743 5.21171 0
M  V30 3836 C 373.096 0.553886 5.8408 0
M  V30 3837 C 375.448 0.911229 6.26003 0
M  V30 3838 C 374.112 1.16577 6.57241 0
M  V30 3839 H 373.382 -0.268269 0.690733 0
M  V30 3840 H 376.029 0.00679408 1.91499 0
M  V30 3841 H 374.334 -2.26197 3.1991 0
M  V30 3842 H 376.031 -1.99058 3.48105 0
M  V30 3843 H 372.621 -0.760793 4.21794 0
M  V30 3844 H 376.805 -0.121344 4.96152 0
M  V30 3845 H 372.061 0.759518 6.06664 0
M  V30 3846 H 376.235 1.3941 6.82303 0
M  V30 3847 H 373.862 1.84058 7.37582 0
M  V30 3848 N 375.437 -1.54477 -0.31217 0
M  V30 3849 C 376.4 -1.83923 -1.36766 0
M  V30 3850 C 377.4 -0.711563 -1.44199 0
M  V30 3851 O 378.59 -0.979866 -1.44029 0
M  V30 3852 C 375.722 -2.0095 -2.75376 0
M  V30 3853 H 376.915 -2.78239 -1.11906 0
M  V30 3854 H 374.468 -1.46369 -0.548257 0
M  V30 3855 H 375.203 -1.08883 -3.05475 0
M  V30 3856 H 374.988 -2.83018 -2.71373 0
M  V30 3857 H 376.478 -2.2514 -3.51713 0
M  V30 3858 N 376.915 0.57481 -1.46744 0
M  V30 3859 C 377.878 1.66533 -1.57478 0
M  V30 3860 C 378.878 1.54338 -0.451263 0
M  V30 3861 O 380.068 1.58814 -0.715813 0
M  V30 3862 C 377.2 3.05999 -1.50259 0
M  V30 3863 H 378.393 1.58372 -2.54673 0
M  V30 3864 H 375.946 0.793301 -1.34672 0
M  V30 3865 H 376.681 3.19709 -0.543725 0
M  V30 3866 H 376.466 3.16259 -2.31781 0
M  V30 3867 H 377.956 3.8537 -1.60872 0
M  V30 3868 N 378.394 1.34581 0.820102 0
M  V30 3869 C 379.64 1.27285 1.57881 0
M  V30 3870 C 379.973 -0.156137 1.93571 0
M  V30 3871 O 379.248 -1.10222 1.60254 0
M  V30 3872 C 379.531 2.16639 2.87645 0
M  V30 3873 C 379.384 3.68088 2.58517 0
M  V30 3874 C 380.703 2.05378 3.8924 0
M  V30 3875 H 377.822 0.463714 0.572833 0
M  V30 3876 H 380.464 1.64859 0.944539 0
M  V30 3877 H 378.614 1.84725 3.41773 0
M  V30 3878 H 380.286 4.10382 2.10676 0
M  V30 3879 H 378.529 3.89038 1.91917 0
M  V30 3880 H 379.2 4.2598 3.51063 0
M  V30 3881 H 381.676 2.33404 3.44473 0
M  V30 3882 H 380.552 2.7012 4.77835 0
M  V30 3883 H 380.813 1.0316 4.29896 0
M  V30 3884 N 379.872 -1.04064 1.18357 0
M  V30 3885 C 381.149 -1.74252 0.888581 0
M  V30 3886 C 381.529 -2.02138 -0.60856 0
M  V30 3887 O 380.877 -1.66656 -1.56327 0
M  V30 3888 C 381.087 -3.0277 1.73584 0
M  V30 3889 C 382.435 -3.76506 1.96286 0
M  V30 3890 O 383.459 -3.12668 1.70637 0
M  V30 3891 O 382.318 -4.91243 2.39464 0
M  V30 3892 H 379.412 -0.758271 0.330082 0
M  V30 3893 H 381.958 -1.1013 1.2911 0
M  V30 3894 H 380.73 -2.78299 2.75073 0
M  V30 3895 H 380.353 -3.74631 1.33183 0
M  V30 3896 N 381.35 -0.985608 -1.22978 0
M  V30 3897 C 382.761 -0.693593 -1.73338 0
M  V30 3898 C 383.112 0.789935 -1.79595 0
M  V30 3899 O 382.237 1.61771 -1.43733 0
M  V30 3900 C 382.832 -1.25235 -3.14804 0
M  V30 3901 C 381.391 -1.00987 -3.626 0
M  V30 3902 C 380.538 -1.37695 -2.40698 0
M  V30 3903 H 383.489 -1.15884 -1.08428 0
M  V30 3904 H 383.51 -0.627329 -3.75293 0
M  V30 3905 H 383.022 -2.33209 -3.10218 0
M  V30 3906 H 381.123 0.0535565 -3.72562 0
M  V30 3907 H 381.236 -1.66812 -4.49122 0
M  V30 3908 H 379.6 -0.795459 -2.4196 0
M  V30 3909 H 380.383 -2.46657 -2.38779 0
M  V30 3910 N 382.828 1.3818 -0.7579 0
M  V30 3911 C 384.058 2.04004 -0.326463 0
M  V30 3912 C 384.466 1.57286 1.05156 0
M  V30 3913 O 383.809 0.743144 1.67997 0
M  V30 3914 C 383.871 3.58444 -0.275402 0
M  V30 3915 C 383.535 4.28237 -1.59569 0
M  V30 3916 C 384.532 4.53312 -2.54566 0
M  V30 3917 C 382.217 4.66341 -1.86631 0
M  V30 3918 C 384.211 5.15531 -3.74842 0
M  V30 3919 C 381.898 5.28283 -3.0718 0
M  V30 3920 C 382.896 5.52814 -4.01106 0
M  V30 3921 O 382.584 6.13465 -5.19534 0
M  V30 3922 H 382.316 0.662026 -0.136739 0
M  V30 3923 H 384.87 1.7777 -1.02893 0
M  V30 3924 H 383.1 3.83667 0.483337 0
M  V30 3925 H 384.789 4.05701 0.127099 0
M  V30 3926 H 385.555 4.24299 -2.34936 0
M  V30 3927 H 381.434 4.46591 -1.14358 0
M  V30 3928 H 384.978 5.34594 -4.48168 0
M  V30 3929 H 380.875 5.56719 -3.26702 0
M  V30 3930 H 381.643 6.31951 -5.20173 0
M  V30 3931 N 384.306 0.507319 1.49211 0
M  V30 3932 C 385.722 0.163682 1.58758 0
M  V30 3933 C 385.922 -1.33208 1.51188 0
M  V30 3934 O 384.978 -2.10855 1.38911 0
M  V30 3935 C 386.291 0.746095 2.91297 0
M  V30 3936 C 387.839 0.712773 3.04776 0
M  V30 3937 C 388.314 1.27336 4.39943 0
M  V30 3938 N 389.805 1.23433 4.46451 0
M  V30 3939 C 390.54 1.63821 5.495 0
M  V30 3940 N 390.036 2.11832 6.5962 0
M  V30 3941 N 391.829 1.55198 5.4025 0
M  V30 3942 H 383.98 1.47972 1.52375 0
M  V30 3943 H 386.243 0.614147 0.722168 0
M  V30 3944 H 385.949 1.79534 3.02424 0
M  V30 3945 H 385.823 0.210137 3.76614 0
M  V30 3946 H 388.21 -0.327656 2.93275 0
M  V30 3947 H 388.291 1.28595 2.21127 0
M  V30 3948 H 387.935 2.3126 4.52196 0
M  V30 3949 H 387.865 0.676066 5.22242 0
M  V30 3950 H 390.356 0.882627 3.67448 0
M  V30 3951 H 390.669 2.40703 7.34358 0
M  V30 3952 H 389.014 2.1581 6.60644 0
M  V30 3953 H 392.205 1.17505 4.53112 0
M  V30 3954 H 392.378 1.86997 6.20432 0
M  V30 3955 N 385.784 -1.5574 0.241426 0
M  V30 3956 C 386.747 -2.19877 -0.647063 0
M  V30 3957 C 387.747 -1.16642 -1.10686 0
M  V30 3958 O 388.937 -1.41757 -1.01245 0
M  V30 3959 C 386.069 -2.83797 -1.88871 0
M  V30 3960 H 387.262 -2.99772 -0.087574 0
M  V30 3961 H 384.815 -1.56298 -0.00813574 0
M  V30 3962 H 385.55 -2.07824 -2.48957 0
M  V30 3963 H 385.335 -3.59414 -1.56728 0
M  V30 3964 H 386.825 -3.32898 -2.52129 0
M  V30 3965 N 387.262 0.0317525 -1.57568 0
M  V30 3966 C 388.225 1.01783 -2.0536 0
M  V30 3967 C 389.225 1.29203 -0.957253 0
M  V30 3968 O 390.415 1.24251 -1.22095 0
M  V30 3969 C 387.547 2.35137 -2.46827 0
M  V30 3970 H 388.74 0.605062 -2.93733 0
M  V30 3971 H 386.293 0.278514 -1.53799 0
M  V30 3972 H 387.028 2.81168 -1.61602 0
M  V30 3973 H 386.813 2.16566 -3.26866 0
M  V30 3974 H 388.303 3.05938 -2.84239 0
M  V30 3975 N 388.74 1.54641 0.303973 0
M  V30 3976 C 389.968 1.77768 1.05858 0
M  V30 3977 C 390.383 0.535722 1.8104 0
M  V30 3978 O 389.74 -0.494337 1.75677 0
M  V30 3979 C 389.791 2.9834 2.04146 0
M  V30 3980 O 389.512 4.17736 1.32015 0
M  V30 3981 C 391.013 3.33832 2.91669 0
M  V30 3982 H 388.233 0.592961 0.314067 0
M  V30 3983 H 390.777 2.01583 0.344149 0
M  V30 3984 H 388.932 2.76742 2.71096 0
M  V30 3985 H 389.346 4.85693 1.97998 0
M  V30 3986 H 390.82 4.21448 3.56491 0
M  V30 3987 H 391.297 2.51857 3.59812 0
M  V30 3988 H 391.903 3.57579 2.30254 0
M  V30 3989 N 390.218 -0.567019 1.47046 0
M  V30 3990 C 391.168 -1.67018 1.55207 0
M  V30 3991 C 392.152 -1.55543 0.411714 0
M  V30 3992 O 393.344 -1.64192 0.661064 0
M  V30 3993 C 390.473 -3.05801 1.56014 0
M  V30 3994 C 389.559 -3.22515 2.75399 0
M  V30 3995 N 389.95 -3.09329 4.00186 0
M  V30 3996 C 388.248 -3.53493 2.71954 0
M  V30 3997 C 388.949 -3.2847 4.80086 0
M  V30 3998 N 387.925 -3.54352 4.12233 0
M  V30 3999 H 391.727 -1.55377 2.4947 0
M  V30 4000 H 389.241 -0.771503 1.42904 0
M  V30 4001 H 391.238 -3.84996 1.59949 0
M  V30 4002 H 389.898 -3.18561 0.628396 0
M  V30 4003 H 390.909 -2.86863 4.31196 0
M  V30 4004 H 387.586 -3.7284 1.87873 0
M  V30 4005 H 388.976 -3.23326 5.88991 0
M  V30 4006 N 391.696 -1.35014 -0.812953 0
M  V30 4007 C 392.644 -1.27435 -1.94585 0
M  V30 4008 C 393.638 -0.170494 -1.6854 0
M  V30 4009 O 394.844 -0.336085 -1.76835 0
M  V30 4010 H 391.219 -0.396144 -0.639198 0
M  V30 4011 H 393.19 -2.23158 -1.98098 0
M  V30 4012 C 391.939 -1.05677 -3.31252 0
M  V30 4013 H 391.262 -1.89853 -3.51846 0
M  V30 4014 H 392.702 -1.04413 -4.10943 0
M  V30 4015 C 391.161 0.239615 -3.36047 0
M  V30 4016 O 391.691 1.23759 -3.8216 0
M  V30 4017 N 389.897 0.276186 -2.89285 0
M  V30 4018 H 389.444 -0.53653 -2.51951 0
M  V30 4019 H 389.402 1.14332 -2.92875 0
M  V30 4020 N 393.175 1.03435 -1.18907 0
M  V30 4021 C 394.122 2.11591 -0.921837 0
M  V30 4022 C 395.092 1.65499 0.141226 0
M  V30 4023 O 396.277 1.908 0.000242829 0
M  V30 4024 C 393.417 3.42012 -0.460616 0
M  V30 4025 C 392.53 4.01682 -1.58982 0
M  V30 4026 C 391.665 5.20091 -1.08069 0
M  V30 4027 C 390.704 5.71805 -2.18416 0
M  V30 4028 N 389.841 6.81494 -1.68849 0
M  V30 4029 H 394.681 2.33787 -1.8479 0
M  V30 4030 H 392.218 1.1467 -0.921373 0
M  V30 4031 H 394.176 4.16834 -0.174642 0
M  V30 4032 H 392.806 3.19944 0.428467 0
M  V30 4033 H 391.858 3.24127 -1.99113 0
M  V30 4034 H 393.17 4.36084 -2.4214 0
M  V30 4035 H 392.324 6.02051 -0.749615 0
M  V30 4036 H 391.063 4.87209 -0.218771 0
M  V30 4037 H 390.068 4.88461 -2.5236 0
M  V30 4038 H 391.293 6.06728 -3.05054 0
M  V30 4039 H 389.239 6.50475 -0.849572 0
M  V30 4040 H 389.156 7.14994 -2.45601 0
M  V30 4041 H 390.424 7.67063 -1.38689 0
M  V30 4042 N 394.653 0.992116 1.22453 0
M  V30 4043 C 395.901 0.666215 1.90804 0
M  V30 4044 C 396.222 -0.804152 1.77647 0
M  V30 4045 O 395.492 -1.57629 1.16318 0
M  V30 4046 H 394.072 0.243423 0.706225 0
M  V30 4047 H 396.734 1.25845 1.48825 0
M  V30 4048 H 395.83 0.928069 2.97982 0
M  V30 4049 N 396.131 -1.37776 0.765217 0
M  V30 4050 C 397.38 -1.99092 0.323307 0
M  V30 4051 C 397.693 -1.61434 -1.10446 0
M  V30 4052 O 398.899 -2.15805 -1.64743 0
M  V30 4053 C 397.355 -3.56019 0.527098 0
M  V30 4054 C 396.963 -4.0262 1.96471 0
M  V30 4055 C 398.707 -4.2424 0.148483 0
M  V30 4056 C 396.614 -5.52233 2.11644 0
M  V30 4057 H 395.544 -0.744846 0.117137 0
M  V30 4058 H 398.195 -1.57391 0.943417 0
M  V30 4059 H 396.577 -3.95667 -0.162372 0
M  V30 4060 H 397.751 -3.74234 2.68859 0
M  V30 4061 H 396.066 -3.47161 2.29931 0
M  V30 4062 H 398.663 -5.34159 0.240456 0
M  V30 4063 H 399.006 -4.06446 -0.900422 0
M  V30 4064 H 399.539 -3.89872 0.79025 0
M  V30 4065 H 396.278 -5.74945 3.1483 0
M  V30 4066 H 395.798 -5.82324 1.4373 0
M  V30 4067 H 397.477 -6.18106 1.91193 0
M  V30 4068 N 397.609 -0.515225 -1.4894 0
M  V30 4069 C 398.542 0.302518 -2.26186 0
M  V30 4070 C 399.52 0.957895 -1.31389 0
M  V30 4071 O 400.704 0.985198 -1.60705 0
M  V30 4072 C 397.831 1.42719 -3.07163 0
M  V30 4073 C 396.877 0.884736 -4.17223 0
M  V30 4074 S 397.71 -0.235767 -5.34981 0
M  V30 4075 C 398.866 0.891731 -6.19515 0
M  V30 4076 H 399.099 -0.353076 -2.95196 0
M  V30 4077 H 396.632 -0.300753 -1.51443 0
M  V30 4078 H 398.59 2.07152 -3.54398 0
M  V30 4079 H 397.251 2.05445 -2.37595 0
M  V30 4080 H 396.444 1.72801 -4.73451 0
M  V30 4081 H 396.046 0.317362 -3.72651 0
M  V30 4082 H 398.338 1.79377 -6.53322 0
M  V30 4083 H 399.281 0.367751 -7.07144 0
M  V30 4084 H 399.689 1.16548 -5.52338 0
M  V30 4085 N 399.087 1.5561 -0.249682 0
M  V30 4086 C 400.035 2.22894 0.664906 0
M  V30 4087 C 401.029 1.21743 1.17792 0
M  V30 4088 O 402.235 1.39748 1.13449 0
M  V30 4089 H 398.61 0.715022 0.232912 0
M  V30 4090 H 400.581 2.98307 0.0742998 0
M  V30 4091 C 399.33 2.94424 1.84959 0
M  V30 4092 H 398.653 3.72031 1.46399 0
M  V30 4093 H 400.093 3.44862 2.4667 0
M  V30 4094 C 398.552 1.98454 2.72245 0
M  V30 4095 O 399.082 1.51939 3.71857 0
M  V30 4096 N 397.288 1.65496 2.38871 0
M  V30 4097 H 396.835 2.03517 1.57919 0
M  V30 4098 H 396.793 1.0155 2.97548 0
M  V30 4099 N 400.565 -0.0233959 1.57583 0
M  V30 4100 C 401.813 -0.711654 1.89156 0
M  V30 4101 C 402.134 -1.75591 0.848096 0
M  V30 4102 O 401.404 -1.95547 -0.117566 0
M  V30 4103 H 399.984 -0.265835 0.698098 0
M  V30 4104 H 402.646 0.0119948 1.94896 0
M  V30 4105 H 401.742 -1.19766 2.88206 0
M  V30 4106 N 402.043 -1.548 -0.295768 0
M  V30 4107 C 403.292 -1.73538 -1.02798 0
M  V30 4108 C 403.605 -0.531159 -1.8825 0
M  V30 4109 O 404.811 -0.600458 -2.64777 0
M  V30 4110 C 403.267 -3.07051 -1.87744 0
M  V30 4111 C 402.875 -4.34968 -1.07269 0
M  V30 4112 C 404.619 -3.35146 -2.60533 0
M  V30 4113 C 402.526 -5.5953 -1.91521 0
M  V30 4114 H 401.456 -0.646794 -0.387522 0
M  V30 4115 H 404.107 -1.81278 -0.284718 0
M  V30 4116 H 402.489 -2.93289 -2.66078 0
M  V30 4117 H 403.663 -4.5958 -0.335117 0
M  V30 4118 H 401.978 -4.13847 -0.460384 0
M  V30 4119 H 404.575 -4.2541 -3.23929 0
M  V30 4120 H 404.918 -2.54255 -3.29636 0
M  V30 4121 H 405.451 -3.49902 -1.89244 0
M  V30 4122 H 402.19 -6.43103 -1.26878 0
M  V30 4123 H 401.71 -5.39096 -2.62937 0
M  V30 4124 H 403.389 -5.96982 -2.49442 0
M  V30 4125 N 403.521 0.559213 -1.47345 0
M  V30 4126 C 404.798 1.31997 -1.44348 0
M  V30 4127 C 405.178 2.1064 -0.139358 0
M  V30 4128 O 404.526 2.1091 0.879153 0
M  V30 4129 C 404.736 2.22618 -2.68779 0
M  V30 4130 C 406.084 2.83701 -3.1591 0
M  V30 4131 O 407.108 2.32921 -2.69493 0
M  V30 4132 O 405.967 3.75993 -3.966 0
M  V30 4133 H 403.061 0.594251 -0.575147 0
M  V30 4134 H 405.607 0.578282 -1.59543 0
M  V30 4135 H 404.379 1.64093 -3.55231 0
M  V30 4136 H 404.002 3.04085 -2.5616 0
M  V30 4137 N 404.999 1.35443 0.805782 0
M  V30 4138 C 406.41 1.25768 1.37983 0
M  V30 4139 C 406.761 -0.10958 1.95894 0
M  V30 4140 O 405.886 -1.01056 1.91355 0
M  V30 4141 C 406.481 2.27727 2.5085 0
M  V30 4142 C 405.04 2.2179 3.04115 0
M  V30 4143 C 404.187 2.13393 1.77084 0
M  V30 4144 H 407.138 1.4656 0.608752 0
M  V30 4145 H 407.159 1.90422 3.29424 0
M  V30 4146 H 406.671 3.27227 2.08671 0
M  V30 4147 H 404.772 1.25703 3.50756 0
M  V30 4148 H 404.885 3.13788 3.62042 0
M  V30 4149 H 403.249 1.59384 1.98668 0
M  V30 4150 H 404.032 3.14755 1.37056 0
M  V30 4151 N 406.477 -1.02803 1.19454 0
M  V30 4152 C 407.407 -2.12999 0.956758 0
M  V30 4153 C 408.388 -1.69743 -0.110188 0
M  V30 4154 O 409.573 -1.94148 0.0450038 0
M  V30 4155 C 406.703 -3.43746 0.495553 0
M  V30 4156 C 405.657 -4.00688 1.50443 0
M  V30 4157 C 404.983 -5.27067 0.900275 0
M  V30 4158 C 406.283 -4.35397 2.8849 0
M  V30 4159 H 407.977 -2.33148 1.87836 0
M  V30 4160 H 405.523 -1.12045 0.904539 0
M  V30 4161 H 407.476 -4.2021 0.316493 0
M  V30 4162 H 406.2 -3.23321 -0.461646 0
M  V30 4163 H 404.859 -3.2632 1.67065 0
M  V30 4164 H 404.507 -5.02959 -0.064503 0
M  V30 4165 H 404.207 -5.66127 1.57397 0
M  V30 4166 H 405.731 -6.06196 0.73203 0
M  V30 4167 H 407.145 -5.02795 2.75446 0
M  V30 4168 H 405.542 -4.85541 3.52661 0
M  V30 4169 H 406.612 -3.44662 3.41081 0
M  V30 4170 N 407.956 -0.998596 -1.21925 0
M  V30 4171 C 409.205 -0.673085 -1.90138 0
M  V30 4172 C 409.518 0.79895 -1.78539 0
M  V30 4173 O 410.724 1.23628 -2.4172 0
M  V30 4174 C 409.18 -1.15339 -3.40918 0
M  V30 4175 C 408.788 -2.65106 -3.61141 0
M  V30 4176 C 410.532 -0.902476 -4.14796 0
M  V30 4177 C 408.439 -3.0671 -5.05651 0
M  V30 4178 H 407.369 -0.248057 -0.712028 0
M  V30 4179 H 410.02 -1.20891 -1.38049 0
M  V30 4180 H 408.402 -0.545658 -3.92223 0
M  V30 4181 H 409.576 -3.31274 -3.20304 0
M  V30 4182 H 407.891 -2.88142 -3.00605 0
M  V30 4183 H 410.488 -1.18895 -5.21314 0
M  V30 4184 H 410.831 0.161349 -4.15987 0
M  V30 4185 H 411.364 -1.47269 -3.69536 0
M  V30 4186 H 408.103 -4.12292 -5.09603 0
M  V30 4187 H 407.623 -2.45249 -5.47369 0
M  V30 4188 H 409.302 -2.9833 -5.74115 0
M  V30 4189 N 409.434 1.37368 -0.772513 0
M  V30 4190 C 410.68 1.99969 -0.337681 0
M  V30 4191 C 411.013 1.61184 1.08321 0
M  V30 4192 O 410.288 0.858395 1.74533 0
M  V30 4193 C 410.571 3.56858 -0.482121 0
M  V30 4194 C 410.424 4.0555 -1.94549 0
M  V30 4195 C 411.743 4.39955 0.113143 0
M  V30 4196 H 408.862 0.726464 -0.124171 0
M  V30 4197 H 411.504 1.63034 -0.975699 0
M  V30 4198 H 409.654 3.88452 0.0610361 0
M  V30 4199 H 411.326 3.84518 -2.54841 0
M  V30 4200 H 409.569 3.57715 -2.45403 0
M  V30 4201 H 410.24 5.14587 -1.9976 0
M  V30 4202 H 412.716 4.14623 -0.35031 0
M  V30 4203 H 411.592 5.48897 -0.0180514 0
M  V30 4204 H 411.853 4.25403 1.20354 0
M  V30 4205 N 410.912 0.523116 1.48665 0
M  V30 4206 C 411.875 -0.232592 2.28017 0
M  V30 4207 C 412.875 -0.874021 1.34972 0
M  V30 4208 O 414.065 -0.735132 1.57929 0
M  V30 4209 C 411.197 -1.33586 3.13636 0
M  V30 4210 H 412.39 0.464008 2.96289 0
M  V30 4211 H 409.943 0.278816 1.53793 0
M  V30 4212 H 410.678 -2.06593 2.4998 0
M  V30 4213 H 410.463 -0.881125 3.82071 0
M  V30 4214 H 411.953 -1.86759 3.73511 0
M  V30 4215 N 412.39 -1.55475 0.257931 0
M  V30 4216 C 413.618 -2.03609 -0.367559 0
M  V30 4217 C 414.033 -1.13687 -1.50734 0
M  V30 4218 O 413.39 -0.153479 -1.81853 0
M  V30 4219 C 413.441 -3.51001 -0.864908 0
M  V30 4220 O 413.162 -4.37499 0.229465 0
M  V30 4221 C 414.663 -4.14946 -1.55997 0
M  V30 4222 H 411.883 -0.665459 -0.0860521 0
M  V30 4223 H 414.427 -2.00843 0.385014 0
M  V30 4224 H 412.582 -3.54266 -1.56762 0
M  V30 4225 H 412.996 -5.24286 -0.14998 0
M  V30 4226 H 414.47 -5.19735 -1.85956 0
M  V30 4227 H 414.947 -3.6209 -2.4857 0
M  V30 4228 H 415.553 -4.15635 -0.901543 0
M  V30 4229 N 413.868 0.0150385 -1.57593 0
M  V30 4230 C 415.116 0.701613 -1.8953 0
M  V30 4231 C 415.437 1.75139 -0.857396 0
M  V30 4232 O 414.707 1.95607 0.107194 0
M  V30 4233 H 413.287 0.26213 -0.699498 0
M  V30 4234 H 415.949 -0.0223304 -1.94887 0
M  V30 4235 H 415.045 1.18236 -2.88837 0
M  V30 4236 N 415.346 1.54954 0.287554 0
M  V30 4237 C 416.294 1.87606 1.37502 0
M  V30 4238 C 417.288 0.751001 1.51843 0
M  V30 4239 O 418.494 0.935169 1.53801 0
M  V30 4240 H 414.869 0.595231 0.459569 0
M  V30 4241 H 416.84 2.78477 1.07206 0
M  V30 4242 C 415.589 2.15183 2.73115 0
M  V30 4243 H 414.912 3.01234 2.62866 0
M  V30 4244 H 416.352 2.4196 3.48183 0
M  V30 4245 C 414.811 0.954686 3.2309 0
M  V30 4246 O 415.341 0.181949 4.01288 0
M  V30 4247 N 413.547 0.756368 2.80584 0
M  V30 4248 H 413.094 1.38643 2.17108 0
M  V30 4249 H 413.052 -0.0430391 3.14371 0
M  V30 4250 N 416.824 -0.551391 1.4764 0
M  V30 4251 C 418.101 -1.31229 1.45046 0
M  V30 4252 C 418.481 -2.10563 0.150527 0
M  V30 4253 O 417.829 -2.11374 -0.867956 0
M  V30 4254 C 418.039 -2.21189 2.69956 0
M  V30 4255 C 419.387 -2.82021 3.1741 0
M  V30 4256 O 420.411 -2.31488 2.70724 0
M  V30 4257 O 419.27 -3.73885 3.98588 0
M  V30 4258 H 416.364 -0.591193 0.578291 0
M  V30 4259 H 418.91 -0.569813 1.59847 0
M  V30 4260 H 417.682 -1.62207 3.56096 0
M  V30 4261 H 417.305 -3.02722 2.57769 0
M  V30 4262 N 418.302 -1.35869 -0.798587 0
M  V30 4263 C 419.548 -1.30788 -1.55775 0
M  V30 4264 C 419.903 0.114558 -1.92059 0
M  V30 4265 O 419.196 1.06691 -1.59147 0
M  V30 4266 C 419.39 -2.1556 -2.85077 0
M  V30 4267 C 419.219 -3.65904 -2.61428 0
M  V30 4268 C 417.989 -4.35112 -2.56915 0
M  V30 4269 C 420.187 -4.59375 -2.31255 0
M  V30 4270 N 418.169 -5.71155 -2.25068 0
M  V30 4271 C 419.54 -5.83598 -2.09316 0
M  V30 4272 C 421.595 -4.48035 -2.17185 0
M  V30 4273 C 420.298 -6.97755 -1.74731 0
M  V30 4274 C 422.324 -5.62049 -1.83998 0
M  V30 4275 C 421.686 -6.85305 -1.629 0
M  V30 4276 H 417.785 -0.533855 -0.571422 0
M  V30 4277 H 420.369 -1.7083 -0.934079 0
M  V30 4278 H 418.54 -1.77776 -3.45326 0
M  V30 4279 H 420.272 -2.01938 -3.50718 0
M  V30 4280 H 417.027 -3.87812 -2.71843 0
M  V30 4281 H 417.451 -6.42978 -2.11916 0
M  V30 4282 H 422.093 -3.53338 -2.3219 0
M  V30 4283 H 419.811 -7.92411 -1.58464 0
M  V30 4284 H 423.397 -5.55232 -1.73808 0
M  V30 4285 H 422.277 -7.72034 -1.37596 0
M  V30 4286 N 419.78 1.02168 -1.19998 0
M  V30 4287 C 421.196 1.27969 -0.953737 0
M  V30 4288 C 421.396 1.98079 0.369703 0
M  V30 4289 O 420.452 2.27306 1.09947 0
M  V30 4290 C 421.765 2.11971 -2.13281 0
M  V30 4291 C 423.313 2.25255 -2.17323 0
M  V30 4292 C 423.788 3.12632 -3.34702 0
M  V30 4293 N 425.279 3.2022 -3.34684 0
M  V30 4294 C 426.014 3.88039 -4.22153 0
M  V30 4295 N 425.51 4.58027 -5.19791 0
M  V30 4296 N 427.303 3.84511 -4.10009 0
M  V30 4297 H 419.454 0.550794 -2.05134 0
M  V30 4298 H 421.717 0.305683 -0.897364 0
M  V30 4299 H 421.423 1.67785 -3.09097 0
M  V30 4300 H 421.297 3.12699 -2.10949 0
M  V30 4301 H 423.684 2.68667 -1.22073 0
M  V30 4302 H 423.765 1.24053 -2.23706 0
M  V30 4303 H 423.409 2.69926 -4.30235 0
M  V30 4304 H 423.339 4.13909 -3.25556 0
M  V30 4305 H 425.83 2.70382 -2.64012 0
M  V30 4306 H 426.143 5.07429 -5.82868 0
M  V30 4307 H 424.488 4.56869 -5.23733 0
M  V30 4308 H 427.679 3.28978 -3.33003 0
M  V30 4309 H 427.852 4.3709 -4.78389 0
M  V30 4310 N 421.258 1.00505 1.21394 0
M  V30 4311 C 422.221 0.570459 2.21987 0
M  V30 4312 C 423.221 -0.353211 1.56873 0
M  V30 4313 O 424.411 -0.14349 1.73608 0
M  V30 4314 C 421.543 -0.168555 3.40483 0
M  V30 4315 H 422.736 1.46021 2.6195 0
M  V30 4316 H 420.289 0.793565 1.34656 0
M  V30 4317 H 421.024 -1.07374 3.06009 0
M  V30 4318 H 420.809 0.494823 3.88965 0
M  V30 4319 H 422.299 -0.460362 4.15055 0
M  V30 4320 N 422.737 -1.36956 0.779787 0
M  V30 4321 C 423.983 -1.99787 0.348281 0
M  V30 4322 C 424.316 -1.61756 -1.07465 0
M  V30 4323 O 423.591 -0.867639 -1.74075 0
M  V30 4324 C 423.874 -3.56597 0.50104 0
M  V30 4325 C 423.727 -4.04513 1.96697 0
M  V30 4326 C 425.046 -4.40008 -0.0898097 0
M  V30 4327 H 422.165 -0.725796 0.128022 0
M  V30 4328 H 424.807 -1.62514 0.984331 0
M  V30 4329 H 422.957 -3.88479 -0.0404347 0
M  V30 4330 H 424.629 -3.83161 2.56876 0
M  V30 4331 H 422.872 -3.56408 2.47297 0
M  V30 4332 H 423.543 -5.1352 2.02486 0
M  V30 4333 H 426.019 -4.14431 0.372293 0
M  V30 4334 H 424.895 -5.4888 0.0471605 0
M  V30 4335 H 425.156 -4.26035 -1.18096 0
M  V30 4336 N 424.215 -0.530993 -1.48385 0
M  V30 4337 C 425.125 0.23503 -2.3342 0
M  V30 4338 C 426.141 0.93801 -1.46552 0
M  V30 4339 O 427.317 0.912745 -1.7953 0
M  V30 4340 C 424.382 1.26778 -3.22689 0
M  V30 4341 C 423.443 0.575038 -4.25431 0
M  V30 4342 C 422.676 1.55858 -5.10435 0
M  V30 4343 O 422.899 2.79129 -4.97437 0
M  V30 4344 O 421.833 1.09742 -5.91811 0
M  V30 4345 H 425.659 -0.461794 -3.00169 0
M  V30 4346 H 423.244 -0.291903 -1.46521 0
M  V30 4347 H 425.126 1.86457 -3.77904 0
M  V30 4348 H 423.801 1.94699 -2.586 0
M  V30 4349 H 422.708 -0.0622782 -3.74048 0
M  V30 4350 H 424.041 -0.062253 -4.92161 0
M  V30 4351 N 425.693 1.55336 -0.266172 0
M  V30 4352 C 426.656 2.20878 0.612001 0
M  V30 4353 C 427.656 1.18388 1.08816 0
M  V30 4354 O 428.846 1.4335 0.989774 0
M  V30 4355 C 425.978 2.86765 1.84332 0
M  V30 4356 H 427.171 2.99873 0.0398718 0
M  V30 4357 H 424.724 1.56291 -0.0167309 0
M  V30 4358 H 425.459 2.11759 2.45619 0
M  V30 4359 H 425.244 3.61862 1.5099 0
M  V30 4360 H 426.734 3.36867 2.46801 0
M  V30 4361 N 427.171 -0.0066808 1.57599 0
M  V30 4362 C 428.419 -0.691552 1.899 0
M  V30 4363 C 428.74 -1.74682 0.866672 0
M  V30 4364 O 428.01 -1.95661 -0.0968189 0
M  V30 4365 H 426.59 -0.258416 0.700878 0
M  V30 4366 H 429.252 0.0326655 1.94873 0
M  V30 4367 H 428.348 -1.16702 2.8946 0
M  V30 4368 N 428.649 -1.55105 -0.279332 0
M  V30 4369 C 429.612 -1.86783 -1.32834 0
M  V30 4370 C 430.612 -0.74199 -1.42657 0
M  V30 4371 O 431.802 -1.0102 -1.41918 0
M  V30 4372 C 428.934 -2.06746 -2.71052 0
M  V30 4373 H 430.127 -2.8055 -1.05979 0
M  V30 4374 H 427.68 -1.47499 -0.517087 0
M  V30 4375 H 428.415 -1.15339 -3.03097 0
M  V30 4376 H 428.2 -2.88711 -2.65309 0
M  V30 4377 H 429.69 -2.32549 -3.46858 0
M  V30 4378 N 430.127 0.543554 -1.4793 0
M  V30 4379 C 431.077 1.64527 -1.57844 0
M  V30 4380 C 432.061 1.54869 -0.436408 0
M  V30 4381 O 433.253 1.63119 -0.687101 0
M  V30 4382 C 430.382 3.03281 -1.6086 0
M  V30 4383 C 429.468 3.18093 -2.80495 0
M  V30 4384 N 429.859 3.02923 -4.05057 0
M  V30 4385 C 428.157 3.49121 -2.77543 0
M  V30 4386 C 428.858 3.20791 -4.85251 0
M  V30 4387 N 427.834 3.47749 -4.17818 0
M  V30 4388 H 431.636 1.51388 -2.5191 0
M  V30 4389 H 429.15 0.748671 -1.44113 0
M  V30 4390 H 431.147 3.82403 -1.66054 0
M  V30 4391 H 429.807 3.17521 -0.678996 0
M  V30 4392 H 430.818 2.79966 -4.35705 0
M  V30 4393 H 427.495 3.69804 -1.93781 0
M  V30 4394 H 428.885 3.13915 -5.9406 0
M  V30 4395 N 431.605 1.3629 0.791371 0
M  V30 4396 C 432.568 1.30309 1.88553 0
M  V30 4397 C 433.568 0.211204 1.59407 0
M  V30 4398 O 434.758 0.465865 1.67855 0
M  V30 4399 C 431.89 1.01956 3.25297 0
M  V30 4400 H 433.083 2.27614 1.95273 0
M  V30 4401 H 430.636 1.21035 0.988953 0
M  V30 4402 H 431.371 0.050998 3.2426 0
M  V30 4403 H 431.156 1.80968 3.4784 0
M  V30 4404 H 432.646 1.0037 4.05359 0
M  V30 4405 N 433.083 -1.0153 1.20538 0
M  V30 4406 C 434.313 -1.78487 1.04048 0
M  V30 4407 C 434.721 -1.84631 -0.413292 0
M  V30 4408 O 434.064 -1.29919 -1.29872 0
M  V30 4409 C 434.126 -3.24367 1.55003 0
M  V30 4410 C 433.79 -3.41827 3.0332 0
M  V30 4411 C 434.787 -3.30941 4.00966 0
M  V30 4412 C 432.472 -3.67602 3.42307 0
M  V30 4413 C 434.466 -3.45577 5.35589 0
M  V30 4414 C 432.153 -3.81881 4.77085 0
M  V30 4415 C 433.151 -3.70874 5.73534 0
M  V30 4416 O 432.839 -3.84714 7.05868 0
M  V30 4417 H 432.571 -0.568108 0.366373 0
M  V30 4418 H 435.125 -1.28677 1.60098 0
M  V30 4419 H 433.355 -3.75266 0.933397 0
M  V30 4420 H 435.044 -3.82963 1.34514 0
M  V30 4421 H 435.81 -3.10964 3.72191 0
M  V30 4422 H 431.689 -3.75256 2.67776 0
M  V30 4423 H 435.233 -3.36902 6.10854 0
M  V30 4424 H 431.13 -4.01359 5.0555 0
M  V30 4425 H 431.898 -4.01724 7.13134 0
M  V30 4426 N 434.561 -1.01147 -1.20859 0
M  V30 4427 C 435.524 -0.582224 -2.21682 0
M  V30 4428 C 436.524 0.344887 -1.57058 0
M  V30 4429 O 437.714 0.134281 -1.73682 0
M  V30 4430 C 434.846 0.150496 -3.40568 0
M  V30 4431 H 436.039 -1.47408 -2.61172 0
M  V30 4432 H 433.592 -0.800695 -1.34233 0
M  V30 4433 H 434.327 1.0575 -3.06574 0
M  V30 4434 H 434.112 -0.515444 -3.88697 0
M  V30 4435 H 435.602 0.438344 -4.15293 0
M  V30 4436 N 436.039 1.36541 -0.78704 0
M  V30 4437 C 437.279 2.01138 -0.363714 0
M  V30 4438 C 437.643 1.61114 1.04433 0
M  V30 4439 O 438.844 2.18285 1.56861 0
M  V30 4440 C 437.115 3.53603 -0.519582 0
M  V30 4441 S 438.674 4.38415 -0.183782 0
M  V30 4442 H 435.492 0.697263 -0.13909 0
M  V30 4443 H 438.094 1.66475 -1.02501 0
M  V30 4444 H 436.798 3.8022 -1.5447 0
M  V30 4445 H 436.329 3.93084 0.15773 0
M  V30 4446 H 438.344 4.85698 1.01547 0
M  V30 4447 N 437.518 0.538854 1.48102 0
M  V30 4448 C 438.934 0.19732 1.58376 0
M  V30 4449 C 439.134 -1.29971 1.5398 0
M  V30 4450 O 438.19 -2.07861 1.43352 0
M  V30 4451 C 439.503 0.807716 2.89649 0
M  V30 4452 C 441.051 0.77726 3.03196 0
M  V30 4453 C 441.526 1.36639 4.37143 0
M  V30 4454 N 443.017 1.32875 4.43732 0
M  V30 4455 C 443.752 1.7544 5.45901 0
M  V30 4456 N 443.248 2.25776 6.54979 0
M  V30 4457 N 445.041 1.66623 5.36836 0
M  V30 4458 H 437.192 1.5117 1.49202 0
M  V30 4459 H 439.455 0.629327 0.708979 0
M  V30 4460 H 439.161 1.85909 2.98548 0
M  V30 4461 H 439.035 0.289975 3.76084 0
M  V30 4462 H 441.422 -0.265374 2.93904 0
M  V30 4463 H 441.503 1.33256 2.18349 0
M  V30 4464 H 441.147 2.408 4.47189 0
M  V30 4465 H 441.077 0.786689 5.20691 0
M  V30 4466 H 443.568 0.96037 3.65493 0
M  V30 4467 H 443.881 2.56226 7.29087 0
M  V30 4468 H 442.226 2.29775 6.55918 0
M  V30 4469 H 445.417 1.27089 4.50517 0
M  V30 4470 H 445.59 2.00115 6.16326 0
M  V30 4471 N 438.996 -1.55193 0.274407 0
M  V30 4472 C 440.221 -2.04446 -0.348824 0
M  V30 4473 C 440.646 -1.15149 -1.48735 0
M  V30 4474 O 440.004 -0.149952 -1.80679 0
M  V30 4475 C 440.052 -3.51431 -0.808009 0
M  V30 4476 O 439.156 -3.65225 -1.91531 0
M  V30 4477 H 438.497 -0.66006 -0.0722276 0
M  V30 4478 H 441.027 -2.00481 0.408498 0
M  V30 4479 H 441.037 -3.92781 -1.10395 0
M  V30 4480 H 439.712 -4.15892 0.0249865 0
M  V30 4481 H 438.289 -3.35778 -1.62196 0
M  V30 4482 N 440.474 -0.00167713 -1.576 0
M  V30 4483 C 441.722 0.681471 -1.90264 0
M  V30 4484 C 442.043 1.7422 -0.875924 0
M  V30 4485 O 441.313 1.95709 0.0864412 0
M  V30 4486 H 439.893 0.254696 -0.702239 0
M  V30 4487 H 442.555 -0.0429996 -1.94853 0
M  V30 4488 H 441.651 1.15166 -2.90075 0
M  V30 4489 N 441.952 1.55251 0.271103 0
M  V30 4490 C 442.902 1.84649 1.33749 0
M  V30 4491 C 443.886 0.705529 1.44607 0
M  V30 4492 O 445.078 0.966916 1.48256 0
M  V30 4493 C 442.207 2.12354 2.69742 0
M  V30 4494 C 441.293 3.32714 2.62988 0
M  V30 4495 N 441.684 4.52575 2.25853 0
M  V30 4496 C 439.982 3.35341 2.94045 0
M  V30 4497 C 440.683 5.34669 2.29136 0
M  V30 4498 N 439.659 4.73123 2.67685 0
M  V30 4499 H 443.461 2.74865 1.0405 0
M  V30 4500 H 440.975 1.55152 0.479738 0
M  V30 4501 H 442.972 2.31572 3.4667 0
M  V30 4502 H 441.632 1.23422 3.00328 0
M  V30 4503 H 442.643 4.78639 1.978 0
M  V30 4504 H 439.32 2.56608 3.2933 0
M  V30 4505 H 440.71 6.40509 2.02971 0
M  V30 4506 N 443.43 -0.535701 1.48216 0
M  V30 4507 C 444.66 -1.3148 1.59363 0
M  V30 4508 C 445.068 -1.8753 0.250844 0
M  V30 4509 O 444.411 -1.66821 -0.769174 0
M  V30 4510 C 444.473 -2.50731 2.57632 0
M  V30 4511 C 444.137 -2.15811 4.02833 0
M  V30 4512 C 445.134 -1.71822 4.90686 0
M  V30 4513 C 442.819 -2.26509 4.48329 0
M  V30 4514 C 444.813 -1.3899 6.22062 0
M  V30 4515 C 442.5 -1.93289 5.79726 0
M  V30 4516 C 443.498 -1.49599 6.66415 0
M  V30 4517 O 443.186 -1.16812 7.95368 0
M  V30 4518 H 442.918 -0.406315 0.540263 0
M  V30 4519 H 445.472 -0.653569 1.94725 0
M  V30 4520 H 443.702 -3.19817 2.1738 0
M  V30 4521 H 445.391 -3.12797 2.58675 0
M  V30 4522 H 446.157 -1.63031 4.56778 0
M  V30 4523 H 442.036 -2.59471 3.81045 0
M  V30 4524 H 445.58 -1.04816 6.89681 0
M  V30 4525 H 441.477 -2.01718 6.13172 0
M  V30 4526 H 442.245 -1.30259 8.08069 0
M  V30 4527 N 444.908 -1.36708 -0.784132 0
M  V30 4528 C 446.156 -1.30972 -1.53918 0
M  V30 4529 C 446.477 0.109086 -1.94695 0
M  V30 4530 O 445.747 1.05048 -1.65353 0
M  V30 4531 H 444.327 -0.481819 -0.570841 0
M  V30 4532 H 446.989 -1.71063 -0.934002 0
M  V30 4533 H 446.085 -1.94061 -2.44431 0
M  V30 4534 N 446.386 1.0089 -1.21074 0
M  V30 4535 C 447.611 1.78727 -1.05221 0
M  V30 4536 C 448.036 1.83932 0.393795 0
M  V30 4537 O 447.394 1.28004 1.28393 0
M  V30 4538 C 447.442 3.20665 -1.64944 0
M  V30 4539 O 446.546 4.02632 -0.892273 0
M  V30 4540 H 445.887 0.550973 -0.370574 0
M  V30 4541 H 448.417 1.26847 -1.60534 0
M  V30 4542 H 448.427 3.71352 -1.69002 0
M  V30 4543 H 447.102 3.16191 -2.70177 0
M  V30 4544 H 445.679 3.61207 -0.926492 0
M  V30 4545 N 447.864 1.01787 1.20321 0
M  V30 4546 C 448.794 0.609625 2.25401 0
M  V30 4547 C 449.775 -0.375951 1.65893 0
M  V30 4548 O 450.96 -0.261101 1.92437 0
M  V30 4549 C 448.09 -0.0515995 3.47262 0
M  V30 4550 C 447.044 0.855095 4.19371 0
M  V30 4551 C 446.37 0.0595757 5.34667 0
M  V30 4552 C 447.67 2.16374 4.75373 0
M  V30 4553 H 449.364 1.48803 2.59804 0
M  V30 4554 H 446.91 0.716934 1.24884 0
M  V30 4555 H 448.863 -0.348764 4.19954 0
M  V30 4556 H 447.587 -0.964726 3.12027 0
M  V30 4557 H 446.246 1.13628 3.48546 0
M  V30 4558 H 445.894 -0.85524 4.95676 0
M  V30 4559 H 445.594 0.663406 5.83843 0
M  V30 4560 H 447.118 -0.231105 6.10162 0
M  V30 4561 H 448.532 1.92885 5.39878 0
M  V30 4562 H 446.929 2.71853 5.34991 0
M  V30 4563 H 447.999 2.82589 3.94045 0
M  V30 4564 N 449.342 -1.36122 0.79427 0
M  V30 4565 C 450.57 -2.03362 0.380989 0
M  V30 4566 C 450.985 -1.59881 -1.00416 0
M  V30 4567 O 450.342 -0.790515 -1.6449 0
M  V30 4568 C 450.393 -3.58804 0.440649 0
M  V30 4569 O 450.114 -4.007 1.77118 0
M  V30 4570 C 451.615 -4.43296 0.0186117 0
M  V30 4571 H 448.835 -0.652526 0.156367 0
M  V30 4572 H 451.379 -1.73998 1.07447 0
M  V30 4573 H 449.534 -3.8686 -0.204458 0
M  V30 4574 H 449.948 -4.95309 1.72538 0
M  V30 4575 H 451.422 -5.51887 0.111488 0
M  V30 4576 H 451.899 -4.2684 -1.03461 0
M  V30 4577 H 452.505 -4.20512 0.636395 0
M  V30 4578 N 450.82 -0.546701 -1.47814 0
M  V30 4579 C 452.048 -0.0232857 -2.06887 0
M  V30 4580 C 452.463 1.26571 -1.4009 0
M  V30 4581 O 451.82 1.7569 -0.493906 0
M  V30 4582 C 451.871 0.186975 -3.61016 0
M  V30 4583 O 451.592 -1.05097 -4.25307 0
M  V30 4584 C 453.093 0.748872 -4.36929 0
M  V30 4585 H 450.313 -0.0410763 -0.669742 0
M  V30 4586 H 452.857 -0.757117 -1.89968 0
M  V30 4587 H 451.012 0.870903 -3.77484 0
M  V30 4588 H 451.426 -0.842121 -5.17695 0
M  V30 4589 H 452.9 0.845334 -5.45489 0
M  V30 4590 H 453.377 1.75772 -4.02493 0
M  V30 4591 H 453.983 0.100979 -4.2518 0
M  V30 4592 N 452.299 1.55045 -0.282633 0
M  V30 4593 C 453.545 2.0078 0.325436 0
M  V30 4594 C 453.9 1.1676 1.52921 0
M  V30 4595 O 453.193 0.231475 1.90197 0
M  V30 4596 C 453.387 3.49422 0.750938 0
M  V30 4597 C 453.216 4.47827 -0.410056 0
M  V30 4598 C 451.986 4.97288 -0.896239 0
M  V30 4599 C 454.184 4.98903 -1.24902 0
M  V30 4600 N 452.166 5.79508 -2.02591 0
M  V30 4601 C 453.537 5.78644 -2.22646 0
M  V30 4602 C 455.592 4.81126 -1.2815 0
M  V30 4603 C 454.295 6.42502 -3.23393 0
M  V30 4604 C 456.321 5.45789 -2.27745 0
M  V30 4605 C 455.683 6.25348 -3.24222 0
M  V30 4606 H 451.782 0.77747 0.08405 0
M  V30 4607 H 454.366 1.90369 -0.408368 0
M  V30 4608 H 452.537 3.60159 1.45395 0
M  V30 4609 H 454.269 3.81978 1.33698 0
M  V30 4610 H 451.024 4.71219 -0.474277 0
M  V30 4611 H 451.448 6.25308 -2.59459 0
M  V30 4612 H 456.09 4.19215 -0.549397 0
M  V30 4613 H 453.808 7.03558 -3.97533 0
M  V30 4614 H 457.394 5.33972 -2.31009 0
M  V30 4615 H 456.274 6.74498 -4.00027 0
M  V30 4616 N 453.777 0.010035 1.57597 0
M  V30 4617 C 454.687 -0.994226 2.12491 0
M  V30 4618 C 455.703 -1.37013 1.07254 0
M  V30 4619 O 456.879 -1.45542 1.3921 0
M  V30 4620 C 453.944 -2.2642 2.62555 0
M  V30 4621 C 453.005 -1.95049 3.82432 0
M  V30 4622 C 452.238 -3.15991 4.30099 0
M  V30 4623 O 452.461 -4.28015 3.7704 0
M  V30 4624 O 451.395 -2.99403 5.22151 0
M  V30 4625 H 455.221 -0.557549 2.98538 0
M  V30 4626 H 452.806 -0.209413 1.47925 0
M  V30 4627 H 454.688 -3.01009 2.9491 0
M  V30 4628 H 453.363 -2.69306 1.796 0
M  V30 4629 H 452.27 -1.17904 3.55034 0
M  V30 4630 H 453.603 -1.56992 4.66491 0
M  V30 4631 N 455.255 -1.55392 -0.262866 0
M  V30 4632 C 456.202 -1.88966 -1.32516 0
M  V30 4633 C 457.172 -0.742187 -1.48596 0
M  V30 4634 O 458.357 -0.99439 -1.62839 0
M  V30 4635 C 455.497 -2.17592 -2.67858 0
M  V30 4636 C 454.61 -3.45061 -2.59917 0
M  V30 4637 C 453.745 -3.63336 -3.87505 0
M  V30 4638 C 452.784 -4.84462 -3.74116 0
M  V30 4639 N 451.921 -4.99342 -4.93561 0
M  V30 4640 H 456.761 -2.79566 -1.03184 0
M  V30 4641 H 454.298 -1.38404 -0.498285 0
M  V30 4642 H 456.256 -2.3219 -3.46617 0
M  V30 4643 H 454.886 -1.30215 -2.95371 0
M  V30 4644 H 453.938 -3.38881 -1.72812 0
M  V30 4645 H 455.25 -4.3396 -2.45926 0
M  V30 4646 H 454.404 -3.77807 -4.74707 0
M  V30 4647 H 453.143 -2.72641 -4.04374 0
M  V30 4648 H 452.148 -4.69985 -2.85297 0
M  V30 4649 H 453.373 -5.76603 -3.58757 0
M  V30 4650 H 451.319 -4.1158 -5.10821 0
M  V30 4651 H 451.236 -5.82303 -4.82141 0
M  V30 4652 H 452.504 -5.18208 -5.82306 0
M  V30 4653 N 456.733 0.527833 -1.48498 0
M  V30 4654 C 458.01 1.28905 -1.47115 0
M  V30 4655 C 458.39 2.10297 -0.184007 0
M  V30 4656 O 457.738 2.12728 0.834218 0
M  V30 4657 C 457.948 2.16866 -2.73441 0
M  V30 4658 C 459.296 2.76936 -3.21857 0
M  V30 4659 O 460.32 2.27152 -2.74373 0
M  V30 4660 O 459.179 3.67496 -4.04486 0
M  V30 4661 H 456.273 0.581918 -0.587623 0
M  V30 4662 H 458.819 0.544311 -1.60734 0
M  V30 4663 H 457.591 1.56521 -3.58632 0
M  V30 4664 H 457.214 2.98583 -2.62553 0
M  V30 4665 N 458.211 1.37122 0.776871 0
M  V30 4666 C 459.159 1.32549 1.91138 0
M  V30 4667 C 460.153 0.215119 1.68029 0
M  V30 4668 O 461.359 0.382852 1.75881 0
M  V30 4669 H 457.734 0.412952 0.62847 0
M  V30 4670 H 459.705 2.28332 1.92112 0
M  V30 4671 C 458.454 1.14422 3.28333 0
M  V30 4672 H 457.777 1.99115 3.46689 0
M  V30 4673 H 459.217 1.15272 4.0803 0
M  V30 4674 C 457.676 -0.150434 3.36564 0
M  V30 4675 O 458.206 -1.13584 3.85307 0
M  V30 4676 N 456.412 -0.19939 2.89915 0
M  V30 4677 H 455.959 0.603142 2.5044 0
M  V30 4678 H 455.917 -1.06526 2.95803 0
M  V30 4679 N 459.689 -1.00246 1.21608 0
M  V30 4680 C 460.637 -2.11193 0.97469 0
M  V30 4681 C 461.631 -1.69216 -0.0789303 0
M  V30 4682 O 462.837 -1.79853 0.0726806 0
M  V30 4683 H 459.212 -0.690455 0.297953 0
M  V30 4684 H 461.183 -2.2873 1.91638 0
M  V30 4685 C 459.932 -3.43182 0.558717 0
M  V30 4686 H 459.255 -3.75918 1.3611 0
M  V30 4687 H 460.695 -4.21823 0.429154 0
M  V30 4688 C 459.154 -3.28882 -0.730648 0
M  V30 4689 O 459.684 -3.59835 -1.78554 0
M  V30 4690 N 457.89 -2.8209 -0.698131 0
M  V30 4691 H 457.437 -2.57099 0.16061 0
M  V30 4692 H 457.395 -2.72903 -1.56113 0
M  V30 4693 N 461.167 -1.02423 -1.1978 0
M  V30 4694 C 462.415 -0.716569 -1.8897 0
M  V30 4695 C 462.736 0.756769 -1.79716 0
M  V30 4696 O 462.006 1.5449 -1.20456 0
M  V30 4697 H 460.586 -0.262062 -0.699523 0
M  V30 4698 H 463.248 -1.29747 -1.45436 0
M  V30 4699 H 462.344 -1.00675 -2.95417 0
M  V30 4700 N 462.645 1.35699 -0.801477 0
M  V30 4701 C 463.595 2.2728 -0.181073 0
M  V30 4702 C 464.579 1.47533 0.642098 0
M  V30 4703 O 465.771 1.69785 0.500193 0
M  V30 4704 C 462.9 3.36626 0.673612 0
M  V30 4705 C 461.986 4.23802 -0.159008 0
M  V30 4706 N 462.377 4.90879 -1.2195 0
M  V30 4707 C 460.675 4.45959 0.0602005 0
M  V30 4708 C 461.376 5.5546 -1.72738 0
M  V30 4709 N 460.352 5.33663 -1.03465 0
M  V30 4710 H 464.154 2.76632 -0.992582 0
M  V30 4711 H 461.668 1.49166 -0.642127 0
M  V30 4712 H 463.665 4.01179 1.13408 0
M  V30 4713 H 462.325 2.88828 1.48353 0
M  V30 4714 H 463.336 4.92497 -1.60209 0
M  V30 4715 H 460.013 4.08969 0.839664 0
M  V30 4716 H 461.403 6.18991 -2.61342 0
M  V30 4717 N 464.123 0.554532 1.47522 0
M  V30 4718 C 465.053 -0.182974 2.32782 0
M  V30 4719 C 466.034 -0.911377 1.43624 0
M  V30 4720 O 467.219 -0.892366 1.72483 0
M  V30 4721 C 464.349 -1.21513 3.25349 0
M  V30 4722 C 463.303 -0.603355 4.23726 0
M  V30 4723 C 462.629 -1.73995 5.05598 0
M  V30 4724 C 463.929 0.441121 5.20434 0
M  V30 4725 H 465.623 0.52882 2.94693 0
M  V30 4726 H 463.169 0.255759 1.41711 0
M  V30 4727 H 465.122 -1.73922 3.83835 0
M  V30 4728 H 463.846 -1.95683 2.61487 0
M  V30 4729 H 462.505 -0.10059 3.66462 0
M  V30 4730 H 462.153 -2.47063 4.38143 0
M  V30 4731 H 461.853 -1.3364 5.72201 0
M  V30 4732 H 463.377 -2.26735 5.66942 0
M  V30 4733 H 464.791 0.00319931 5.733 0
M  V30 4734 H 463.188 0.763402 5.95224 0
M  V30 4735 H 464.258 1.33799 4.66075 0
M  V30 4736 N 465.601 -1.54893 0.290851 0
M  V30 4737 C 466.847 -2.0023 -0.321867 0
M  V30 4738 C 467.18 -1.179 -1.54316 0
M  V30 4739 O 466.455 -0.25293 -1.92848 0
M  V30 4740 C 466.738 -3.53456 -0.688515 0
M  V30 4741 C 466.591 -4.46532 0.541209 0
M  V30 4742 C 467.91 -4.13057 -1.51895 0
M  V30 4743 H 465.029 -0.727891 -0.115515 0
M  V30 4744 H 467.671 -1.85722 0.400931 0
M  V30 4745 H 465.821 -3.6595 -1.30433 0
M  V30 4746 H 467.493 -4.4596 1.17973 0
M  V30 4747 H 465.736 -4.17545 1.17636 0
M  V30 4748 H 466.407 -5.51475 0.240675 0
M  V30 4749 H 468.883 -4.03937 -0.99872 0
M  V30 4750 H 467.759 -5.20448 -1.74429 0
M  V30 4751 H 468.02 -3.64284 -2.50498 0
M  V30 4752 N 467.08 -0.0183926 -1.57589 0
M  V30 4753 C 468.328 0.661253 -1.90976 0
M  V30 4754 C 468.649 1.73281 -0.894353 0
M  V30 4755 O 467.919 1.9579 0.0656788 0
M  V30 4756 H 466.499 0.247233 -0.704901 0
M  V30 4757 H 469.161 -0.0636639 -1.94796 0
M  V30 4758 H 468.257 1.12083 -2.9128 0
M  V30 4759 N 468.558 1.5553 0.254621 0
M  V30 4760 C 469.786 1.81046 1.00149 0
M  V30 4761 C 470.201 0.593047 1.79244 0
M  V30 4762 O 469.558 -0.438196 1.77161 0
M  V30 4763 C 469.609 3.04684 1.94551 0
M  V30 4764 O 469.33 4.21725 1.18658 0
M  V30 4765 C 470.831 3.42943 2.80901 0
M  V30 4766 H 468.051 0.602653 0.295044 0
M  V30 4767 H 470.595 2.02576 0.279842 0
M  V30 4768 H 468.75 2.85226 2.62154 0
M  V30 4769 H 469.164 4.91746 1.82445 0
M  V30 4770 H 470.638 4.32576 3.42902 0
M  V30 4771 H 471.115 2.63176 3.51617 0
M  V30 4772 H 471.721 3.64724 2.18762 0
M  V30 4773 N 470.036 -0.519951 1.48776 0
M  V30 4774 C 470.966 -1.63253 1.66945 0
M  V30 4775 C 471.947 -1.62014 0.518224 0
M  V30 4776 O 473.132 -1.79053 0.751919 0
M  V30 4777 C 470.262 -3.0181 1.71836 0
M  V30 4778 C 469.216 -3.17911 2.8656 0
M  V30 4779 C 468.542 -4.5763 2.76548 0
M  V30 4780 C 469.842 -2.99729 4.27738 0
M  V30 4781 H 471.536 -1.48302 2.6009 0
M  V30 4782 H 469.082 -0.712026 1.25165 0
M  V30 4783 H 471.035 -3.79525 1.83135 0
M  V30 4784 H 469.759 -3.17806 0.752775 0
M  V30 4785 H 468.418 -2.42616 2.74833 0
M  V30 4786 H 468.066 -4.70476 1.77937 0
M  V30 4787 H 467.766 -4.69346 3.53536 0
M  V30 4788 H 469.29 -5.37431 2.89828 0
M  V30 4789 H 470.704 -3.67228 4.40246 0
M  V30 4790 H 469.101 -3.22932 5.05801 0
M  V30 4791 H 470.171 -1.96047 4.43502 0
M  V30 4792 N 471.514 -1.37532 -0.769588 0
M  V30 4793 C 472.424 -1.35668 -1.91393 0
M  V30 4794 C 473.44 -0.255954 -1.72107 0
M  V30 4795 O 474.616 -0.491704 -1.95305 0
M  V30 4796 C 471.681 -1.16481 -3.26547 0
M  V30 4797 C 470.742 -2.36212 -3.58472 0
M  V30 4798 C 469.975 -2.17932 -4.87177 0
M  V30 4799 O 470.198 -1.1647 -5.58382 0
M  V30 4800 O 469.132 -3.06167 -5.18214 0
M  V30 4801 H 472.958 -2.32055 -1.95918 0
M  V30 4802 H 470.543 -1.18284 -0.912641 0
M  V30 4803 H 472.425 -1.07778 -4.07384 0
M  V30 4804 H 471.1 -0.231687 -3.2287 0
M  V30 4805 H 470.007 -2.50488 -2.77861 0
M  V30 4806 H 471.34 -3.281 -3.66894 0
M  V30 4807 N 472.992 0.995999 -1.22138 0
M  V30 4808 C 473.925 2.08302 -0.931952 0
M  V30 4809 C 474.903 1.62127 0.123956 0
M  V30 4810 O 476.087 1.88499 -0.00696004 0
M  V30 4811 C 473.214 3.36317 -0.401068 0
M  V30 4812 C 472.26 4.01413 -1.44117 0
M  V30 4813 S 473.093 4.42664 -3.01345 0
M  V30 4814 C 474.249 5.73853 -2.49887 0
M  V30 4815 H 474.482 2.32532 -1.85246 0
M  V30 4816 H 472.015 1.13005 -1.0521 0
M  V30 4817 H 473.973 4.10375 -0.101352 0
M  V30 4818 H 472.634 3.10123 0.498272 0
M  V30 4819 H 471.827 4.9358 -1.01952 0
M  V30 4820 H 471.429 3.33668 -1.68943 0
M  V30 4821 H 473.721 6.50039 -1.90934 0
M  V30 4822 H 474.664 6.20841 -3.40532 0
M  V30 4823 H 475.072 5.31105 -1.9128 0
M  V30 4824 N 474.47 1.03057 1.19235 0
M  V30 4825 C 475.881 0.757449 1.70645 0
M  V30 4826 C 476.232 -0.722735 1.82403 0
M  V30 4827 O 475.357 -1.56325 1.49638 0
M  V30 4828 C 475.952 1.36833 3.09939 0
M  V30 4829 C 474.511 1.14375 3.58602 0
M  V30 4830 C 473.658 1.46533 2.35422 0
M  V30 4831 H 476.609 1.19828 1.04052 0
M  V30 4832 H 476.63 0.766184 3.72706 0
M  V30 4833 H 476.142 2.44562 3.01349 0
M  V30 4834 H 474.243 0.0847542 3.72504 0
M  V30 4835 H 474.356 1.83366 4.42622 0
M  V30 4836 H 472.72 0.884712 2.38841 0
M  V30 4837 H 473.503 2.55349 2.2946 0
M  V30 4838 N 475.948 -1.35272 0.808662 0
M  V30 4839 C 476.881 -2.27595 0.165994 0
M  V30 4840 C 477.859 -1.48189 -0.669241 0
M  V30 4841 O 479.043 -1.77444 -0.636073 0
M  V30 4842 C 476.17 -3.29843 -0.769505 0
M  V30 4843 C 475.216 -4.26498 -0.0136267 0
M  V30 4844 S 476.049 -5.18878 1.32384 0
M  V30 4845 C 477.205 -6.24666 0.392838 0
M  V30 4846 H 477.438 -2.81755 0.948756 0
M  V30 4847 H 474.971 -1.42103 0.603828 0
M  V30 4848 H 476.929 -3.89247 -1.30374 0
M  V30 4849 H 475.59 -2.74558 -1.52567 0
M  V30 4850 H 474.783 -4.98769 -0.724227 0
M  V30 4851 H 474.385 -3.71274 0.450713 0
M  V30 4852 H 476.677 -6.7619 -0.4211 0
M  V30 4853 H 477.62 -6.99741 1.0848 0
M  V30 4854 H 478.028 -5.64499 -0.0123908 0
M  V30 4855 N 477.426 -0.562348 -1.47226 0
M  V30 4856 C 478.837 -0.130325 -1.86245 0
M  V30 4857 C 479.188 1.30128 -1.46838 0
M  V30 4858 O 478.313 1.97974 -0.873805 0
M  V30 4859 C 478.908 -0.229738 -3.3802 0
M  V30 4860 C 477.467 0.14728 -3.76112 0
M  V30 4861 C 476.614 -0.574971 -2.71274 0
M  V30 4862 H 479.565 -0.771773 -1.3867 0
M  V30 4863 H 479.586 0.550316 -3.76499 0
M  V30 4864 H 479.098 -1.27178 -3.66671 0
M  V30 4865 H 477.199 1.19023 -3.53078 0
M  V30 4866 H 477.312 -0.214858 -4.78618 0
M  V30 4867 H 475.676 -0.0174756 -2.54694 0
M  V30 4868 H 476.459 -1.61827 -3.02766 0
M  V30 4869 N 478.904 1.54736 -0.299062 0
M  V30 4870 C 480.15 2.00397 0.311244 0
M  V30 4871 C 480.483 1.18716 1.53688 0
M  V30 4872 O 479.758 0.263154 1.92712 0
M  V30 4873 C 480.041 3.53817 0.669761 0
M  V30 4874 C 479.894 4.46239 -0.564882 0
M  V30 4875 C 481.213 4.13856 1.49702 0
M  V30 4876 H 478.332 0.728493 0.111653 0
M  V30 4877 H 480.974 1.85506 -0.410774 0
M  V30 4878 H 479.124 3.66637 1.28491 0
M  V30 4879 H 480.796 4.45328 -1.20337 0
M  V30 4880 H 479.039 4.16916 -1.19849 0
M  V30 4881 H 479.71 5.5134 -0.269918 0
M  V30 4882 H 482.186 4.04461 0.977284 0
M  V30 4883 H 481.062 5.21365 1.71666 0
M  V30 4884 H 481.323 3.65608 2.48563 0
M  V30 4885 N 480.382 0.0267497 1.57577 0
M  V30 4886 C 481.63 -0.651116 1.91324 0
M  V30 4887 C 481.951 -1.72804 0.90353 0
M  V30 4888 O 481.221 -1.95822 -0.0552946 0
M  V30 4889 H 479.801 -0.243491 0.706202 0
M  V30 4890 H 482.463 0.0739935 1.94759 0
M  V30 4891 H 481.559 -1.10536 2.9187 0
M  V30 4892 N 481.861 -1.55662 -0.24637 0
M  V30 4893 C 482.791 -1.93377 -1.30873 0
M  V30 4894 C 483.772 -0.798773 -1.50179 0
M  V30 4895 O 484.957 -1.0591 -1.62778 0
M  V30 4896 C 482.087 -2.22893 -2.66338 0
M  V30 4897 C 481.041 -3.38649 -2.61727 0
M  V30 4898 C 480.367 -3.53708 -4.00992 0
M  V30 4899 C 481.667 -4.74323 -2.18666 0
M  V30 4900 H 483.361 -2.82363 -0.995552 0
M  V30 4901 H 480.907 -1.35854 -0.477464 0
M  V30 4902 H 482.86 -2.47866 -3.40794 0
M  V30 4903 H 481.584 -1.30733 -2.99293 0
M  V30 4904 H 480.243 -3.13685 -1.89729 0
M  V30 4905 H 479.891 -2.58967 -4.31214 0
M  V30 4906 H 479.591 -4.31551 -3.98795 0
M  V30 4907 H 481.115 -3.81003 -4.77147 0
M  V30 4908 H 482.529 -4.98665 -2.82854 0
M  V30 4909 H 480.926 -5.55273 -2.27579 0
M  V30 4910 H 481.996 -4.71349 -1.13834 0
M  V30 4911 N 483.339 0.512053 -1.4905 0
M  V30 4912 C 484.585 1.26874 -1.58212 0
M  V30 4913 C 484.918 1.9241 -0.263073 0
M  V30 4914 O 484.193 1.80181 0.732476 0
M  V30 4915 C 484.476 2.34428 -2.73341 0
M  V30 4916 C 484.329 1.73466 -4.15006 0
M  V30 4917 C 485.648 3.36073 -2.84154 0
M  V30 4918 H 482.767 0.459924 -0.575881 0
M  V30 4919 H 485.409 0.568587 -1.81293 0
M  V30 4920 H 483.559 2.94146 -2.53792 0
M  V30 4921 H 485.231 1.17661 -4.46042 0
M  V30 4922 H 483.474 1.03921 -4.21168 0
M  V30 4923 H 484.145 2.51426 -4.91415 0
M  V30 4924 H 486.621 2.86332 -3.01916 0
M  V30 4925 H 485.497 4.08703 -3.66406 0
M  V30 4926 H 485.758 3.97725 -1.93048 0
M  V30 4927 N 484.817 1.37938 0.762283 0
M  V30 4928 C 486.065 1.33404 1.51815 0
M  V30 4929 C 486.386 -0.0780975 1.94844 0
M  V30 4930 O 485.656 -1.02405 1.67003 0
M  V30 4931 H 484.236 0.490839 0.563104 0
M  V30 4932 H 486.898 1.72527 0.906669 0
M  V30 4933 H 485.994 1.97926 2.41313 0
M  V30 4934 N 486.295 -0.989507 1.22664 0
M  V30 4935 C 487.543 -1.72612 1.05117 0
M  V30 4936 C 487.864 -1.90552 -0.414131 0
M  V30 4937 O 487.134 -1.4676 -1.29762 0
M  V30 4938 H 485.714 -0.639555 0.385977 0
M  V30 4939 H 488.376 -1.19158 1.54232 0
M  V30 4940 H 487.472 -2.71926 1.53175 0
M  V30 4941 N 487.773 -1.03688 -1.18687 0
M  V30 4942 C 488.736 -0.629115 -2.20397 0
M  V30 4943 C 489.736 0.311495 -1.57754 0
M  V30 4944 O 490.926 0.0974107 -1.73927 0
M  V30 4945 C 488.058 0.0782231 -3.4081 0
M  V30 4946 H 489.251 -1.52915 -2.57987 0
M  V30 4947 H 486.804 -0.828988 -1.32505 0
M  V30 4948 H 487.539 0.992233 -3.08748 0
M  V30 4949 H 487.324 -0.597776 -3.87517 0
M  V30 4950 H 488.814 0.350156 -4.16129 0
M  V30 4951 N 489.251 1.34841 -0.815825 0
M  V30 4952 C 490.479 2.0273 -0.413294 0
M  V30 4953 C 490.894 1.61459 0.978599 0
M  V30 4954 O 490.251 0.816584 1.63212 0
M  V30 4955 C 490.302 3.58058 -0.497676 0
M  V30 4956 O 490.023 3.97832 -1.8347 0
M  V30 4957 C 491.524 4.4321 -0.0891339 0
M  V30 4958 H 488.744 0.649956 -0.166728 0
M  V30 4959 H 491.288 1.72267 -1.10201 0
M  V30 4960 H 489.443 3.87136 0.142886 0
M  V30 4961 H 489.857 4.92501 -1.80396 0
M  V30 4962 H 491.331 5.5164 -0.199274 0
M  V30 4963 H 491.808 4.28432 0.966571 0
M  V30 4964 H 492.414 4.19446 -0.703214 0
M  V30 4965 N 490.729 0.570148 1.46925 0
M  V30 4966 C 491.676 -0.170257 2.30171 0
M  V30 4967 C 492.646 -0.896099 1.39855 0
M  V30 4968 O 493.831 -0.889248 1.68811 0
M  V30 4969 C 490.971 -1.18605 3.24079 0
M  V30 4970 C 490.084 -0.464947 4.29491 0
M  V30 4971 C 489.219 -1.46716 5.10537 0
M  V30 4972 C 488.258 -0.731758 6.0771 0
M  V30 4973 N 487.395 -1.68142 6.81669 0
M  V30 4974 H 492.235 0.545713 2.92961 0
M  V30 4975 H 489.772 0.280938 1.44392 0
M  V30 4976 H 491.73 -1.78771 3.76957 0
M  V30 4977 H 490.36 -1.86989 2.63125 0
M  V30 4978 H 489.412 0.251506 3.79568 0
M  V30 4979 H 490.724 0.110548 4.98677 0
M  V30 4980 H 489.878 -2.14199 5.6763 0
M  V30 4981 H 488.617 -2.07658 4.41282 0
M  V30 4982 H 487.622 -0.0430787 5.49783 0
M  V30 4983 H 488.847 -0.127904 6.7898 0
M  V30 4984 H 486.793 -2.27918 6.15134 0
M  V30 4985 H 486.71 -1.15841 7.47072 0
M  V30 4986 H 487.978 -2.347 7.43328 0
M  V30 4987 N 492.207 -1.54576 0.307264 0
M  V30 4988 C 493.435 -2.04675 -0.302597 0
M  V30 4989 C 493.85 -1.18425 -1.47041 0
M  V30 4990 O 493.207 -0.211257 -1.81273 0
M  V30 4991 C 493.258 -3.53575 -0.752801 0
M  V30 4992 O 492.979 -4.36547 0.368536 0
M  V30 4993 C 494.48 -4.19699 -1.42717 0
M  V30 4994 H 491.7 -0.66786 -0.0648374 0
M  V30 4995 H 494.244 -1.99516 0.448716 0
M  V30 4996 H 492.399 -3.59074 -1.45412 0
M  V30 4997 H 492.813 -5.24497 0.0168937 0
M  V30 4998 H 494.287 -5.25388 -1.69327 0
M  V30 4999 H 494.764 -3.69815 -2.36925 0
M  V30 5000 H 495.37 -4.18293 -0.768856 0
M  V30 5001 N 493.685 -0.035106 -1.57561 0
M  V30 5002 C 494.635 0.954034 -2.0708 0
M  V30 5003 C 495.619 1.2818 -0.972558 0
M  V30 5004 O 496.811 1.26691 -1.23606 0
M  V30 5005 C 493.94 2.23442 -2.60631 0
M  V30 5006 C 493.026 1.93475 -3.77396 0
M  V30 5007 N 493.417 1.33802 -4.87781 0
M  V30 5008 C 491.715 2.23434 -3.85996 0
M  V30 5009 C 492.416 1.21103 -5.68954 0
M  V30 5010 N 491.392 1.70855 -5.16052 0
M  V30 5011 H 495.194 0.487731 -2.89825 0
M  V30 5012 H 492.708 0.169759 -1.6151 0
M  V30 5013 H 494.705 2.95183 -2.94402 0
M  V30 5014 H 493.365 2.70693 -1.79319 0
M  V30 5015 H 494.376 1.01227 -5.07911 0
M  V30 5016 H 491.053 2.73317 -3.15601 0
M  V30 5017 H 492.443 0.749105 -6.67711 0
M  V30 5018 N 495.163 1.55791 0.238111 0
M  V30 5019 C 496.574 1.68383 0.806472 0
M  V30 5020 C 496.925 0.634157 1.85669 0
M  V30 5021 O 496.05 -0.217913 2.153 0
M  V30 5022 C 496.645 3.05268 1.46959 0
M  V30 5023 C 495.204 3.1977 1.98555 0
M  V30 5024 C 494.351 2.64279 0.839763 0
M  V30 5025 H 497.302 1.58694 0.0137535 0
M  V30 5026 H 497.323 3.00203 2.33792 0
M  V30 5027 H 496.835 3.81643 0.704993 0
M  V30 5028 H 494.936 2.48234 2.77868 0
M  V30 5029 H 495.049 4.26788 2.17689 0
M  V30 5030 H 493.413 2.22329 1.24265 0
M  V30 5031 H 494.196 3.43187 0.0881032 0
M  V30 5032 N 496.642 -0.504142 1.49319 0
M  V30 5033 C 497.572 -1.61473 1.68667 0
M  V30 5034 C 498.553 -1.61455 0.535378 0
M  V30 5035 O 499.738 -1.78245 0.770868 0
M  V30 5036 C 496.868 -2.99971 1.75028 0
M  V30 5037 C 495.822 -3.14854 2.89916 0
M  V30 5038 C 495.148 -4.54671 2.81387 0
M  V30 5039 C 496.448 -2.95176 4.30893 0
M  V30 5040 H 498.142 -1.45535 2.61648 0
M  V30 5041 H 495.688 -0.698711 1.25913 0
M  V30 5042 H 497.641 -3.77562 1.8715 0
M  V30 5043 H 496.365 -3.1699 0.786441 0
M  V30 5044 H 495.024 -2.39687 2.77391 0
M  V30 5045 H 494.672 -4.68562 1.82917 0
M  V30 5046 H 494.372 -4.6557 3.58494 0
M  V30 5047 H 495.896 -5.34327 2.95512 0
M  V30 5048 H 497.31 -3.62538 4.44116 0
M  V30 5049 H 495.707 -3.17549 5.09198 0
M  V30 5050 H 496.777 -1.91332 4.45556 0
M  V30 5051 N 498.12 -1.38341 -0.754957 0
M  V30 5052 C 499.083 -1.35262 -1.85032 0
M  V30 5053 C 500.083 -0.253393 -1.58791 0
M  V30 5054 O 501.273 -0.510205 -1.66561 0
M  V30 5055 C 498.405 -1.10544 -3.22479 0
M  V30 5056 H 499.598 -2.32712 -1.8917 0
M  V30 5057 H 497.151 -1.23614 -0.956515 0
M  V30 5058 H 497.886 -0.136952 -3.24011 0
M  V30 5059 H 497.671 -1.90127 -3.4292 0
M  V30 5060 H 499.161 -1.11082 -4.02555 0
M  V30 5061 N 499.598 0.982988 -1.23187 0
M  V30 5062 C 500.53 2.07729 -0.968572 0
M  V30 5063 C 501.543 1.62702 0.0564821 0
M  V30 5064 O 502.732 1.77603 -0.178733 0
M  V30 5065 C 499.832 3.36071 -0.436974 0
M  V30 5066 C 499.005 4.10081 -1.52159 0
M  V30 5067 C 498.064 5.16701 -0.99532 0
M  V30 5068 O 497.09 5.43727 -1.68373 0
M  V30 5069 N 498.292 5.80226 0.178192 0
M  V30 5070 H 501.057 2.30894 -1.9107 0
M  V30 5071 H 498.618 1.14949 -1.1401 0
M  V30 5072 H 500.61 4.04639 -0.0700051 0
M  V30 5073 H 499.18 3.09893 0.410509 0
M  V30 5074 H 498.4 3.36004 -2.06144 0
M  V30 5075 H 499.688 4.56295 -2.25105 0
M  V30 5076 H 499.086 5.60651 0.754096 0
M  V30 5077 H 497.643 6.49982 0.486449 0
M  V30 5078 N 501.076 1.04316 1.18135 0
M  V30 5079 C 502.006 0.657299 2.24058 0
M  V30 5080 C 502.987 -0.340678 1.66654 0
M  V30 5081 O 504.172 -0.220223 1.92947 0
M  V30 5082 C 501.302 0.0220715 3.47293 0
M  V30 5083 C 500.256 0.943857 4.17463 0
M  V30 5084 C 499.582 0.172973 5.3442 0
M  V30 5085 C 500.882 2.26409 4.70677 0
M  V30 5086 H 502.576 1.5428 2.56589 0
M  V30 5087 H 500.122 0.743263 1.23335 0
M  V30 5088 H 502.075 -0.259607 4.206 0
M  V30 5089 H 500.799 -0.898323 3.14003 0
M  V30 5090 H 499.458 1.20996 3.46057 0
M  V30 5091 H 499.106 -0.749907 4.97379 0
M  V30 5092 H 498.806 0.787098 5.82304 0
M  V30 5093 H 500.33 -0.101628 6.10515 0
M  V30 5094 H 501.744 2.04294 5.35665 0
M  V30 5095 H 500.141 2.8314 5.29105 0
M  V30 5096 H 501.211 2.90883 3.87962 0
M  V30 5097 N 502.554 -1.34406 0.822964 0
M  V30 5098 C 503.779 -2.0304 0.423034 0
M  V30 5099 C 504.204 -1.61568 -0.963196 0
M  V30 5100 O 503.562 -0.800339 -1.62678 0
M  V30 5101 C 503.61 -3.56636 0.53321 0
M  V30 5102 O 502.714 -4.09971 -0.446939 0
M  V30 5103 H 502.055 -0.64075 0.174171 0
M  V30 5104 H 504.585 -1.71653 1.11339 0
M  V30 5105 H 504.595 -4.05945 0.408991 0
M  V30 5106 H 503.27 -3.86168 1.54425 0
M  V30 5107 H 501.847 -3.71835 -0.281601 0
M  V30 5108 N 504.032 -0.577932 -1.46621 0
M  V30 5109 C 504.962 0.145917 -2.33044 0
M  V30 5110 C 505.943 0.888412 -1.45056 0
M  V30 5111 O 507.128 0.864812 -1.73881 0
M  V30 5112 C 504.258 1.16322 -3.27241 0
M  V30 5113 C 503.212 0.535868 -4.24632 0
M  V30 5114 C 502.538 1.65929 -5.08303 0
M  V30 5115 C 503.838 -0.523861 -5.19666 0
M  V30 5116 H 505.532 -0.575636 -2.93814 0
M  V30 5117 H 503.078 -0.278272 -1.41286 0
M  V30 5118 H 505.031 1.67793 -3.86553 0
M  V30 5119 H 503.755 1.91498 -2.64567 0
M  V30 5120 H 502.414 0.0422759 -3.66576 0
M  V30 5121 H 502.062 2.40061 -4.42018 0
M  V30 5122 H 501.762 1.2452 -5.74255 0
M  V30 5123 H 503.286 2.17686 -5.70478 0
M  V30 5124 H 504.7 -0.0944059 -5.73222 0
M  V30 5125 H 503.097 -0.858 -5.93935 0
M  V30 5126 H 504.167 -1.41197 -4.63887 0
M  V30 5127 N 505.51 1.54411 -0.315457 0
M  V30 5128 C 506.926 1.59556 0.037464 0
M  V30 5129 C 507.126 1.33217 1.5118 0
M  V30 5130 O 506.182 1.11264 2.26664 0
M  V30 5131 C 507.495 2.98372 -0.373477 0
M  V30 5132 C 509.043 3.11324 -0.323452 0
M  V30 5133 C 509.518 4.52472 -0.709433 0
M  V30 5134 N 511.009 4.58437 -0.662524 0
M  V30 5135 C 511.744 5.65751 -0.933474 0
M  V30 5136 N 511.24 6.81039 -1.27114 0
M  V30 5137 N 513.033 5.55489 -0.859573 0
M  V30 5138 H 505.184 1.6979 -1.27614 0
M  V30 5139 H 507.447 0.793732 -0.518356 0
M  V30 5140 H 507.153 3.22618 -1.40037 0
M  V30 5141 H 507.027 3.76264 0.265615 0
M  V30 5142 H 509.414 2.86818 0.694223 0
M  V30 5143 H 509.495 2.35555 -0.997367 0
M  V30 5144 H 509.139 4.7771 -1.72498 0
M  V30 5145 H 509.069 5.26598 -0.0132923 0
M  V30 5146 H 511.56 3.75636 -0.413065 0
M  V30 5147 H 511.873 7.58816 -1.46348 0
M  V30 5148 H 510.218 6.82555 -1.30932 0
M  V30 5149 H 513.409 4.64299 -0.595324 0
M  V30 5150 H 513.582 6.39036 -1.0741 0
M  V30 5151 N 506.988 0.0434614 1.5754 0
M  V30 5152 C 508.237 -0.631454 1.91561 0
M  V30 5153 C 508.55 -1.72457 0.92292 0
M  V30 5154 O 509.756 -2.45712 1.15489 0
M  V30 5155 C 508.212 -1.17447 3.40197 0
M  V30 5156 C 507.82 -0.113867 4.47855 0
M  V30 5157 C 509.564 -1.82507 3.83264 0
M  V30 5158 C 507.471 -0.669326 5.876 0
M  V30 5159 H 506.401 -0.239629 0.714908 0
M  V30 5160 H 509.052 0.111097 1.83163 0
M  V30 5161 H 507.434 -1.96909 3.43574 0
M  V30 5162 H 508.608 0.659348 4.56058 0
M  V30 5163 H 506.923 0.438821 4.14081 0
M  V30 5164 H 509.52 -2.25047 4.85034 0
M  V30 5165 H 509.863 -2.67365 3.19095 0
M  V30 5166 H 510.396 -1.09712 3.82372 0
M  V30 5167 H 507.135 0.141449 6.55347 0
M  V30 5168 H 506.655 -1.4107 5.82974 0
M  V30 5169 H 508.334 -1.15463 6.36614 0
M  V30 5170 N 508.466 -1.55915 -0.229846 0
M  V30 5171 C 509.396 -1.94754 -1.28815 0
M  V30 5172 C 510.377 -0.814657 -1.49323 0
M  V30 5173 O 511.562 -1.07631 -1.61645 0
M  V30 5174 C 508.692 -2.25705 -2.63959 0
M  V30 5175 C 507.646 -3.41406 -2.5812 0
M  V30 5176 C 506.972 -3.57941 -3.97218 0
M  V30 5177 C 508.272 -4.76616 -2.13623 0
M  V30 5178 H 509.966 -2.83404 -0.965547 0
M  V30 5179 H 507.512 -1.36353 -0.463028 0
M  V30 5180 H 509.465 -2.51467 -3.38146 0
M  V30 5181 H 508.189 -1.339 -2.9789 0
M  V30 5182 H 506.848 -3.1568 -1.86391 0
M  V30 5183 H 506.496 -2.63526 -4.28443 0
M  V30 5184 H 506.196 -4.35757 -3.94195 0
M  V30 5185 H 507.72 -3.86042 -4.73079 0
M  V30 5186 H 509.134 -5.01637 -2.77549 0
M  V30 5187 H 507.531 -5.57655 -2.21677 0
M  V30 5188 H 508.601 -4.7253 -1.08829 0
M  V30 5189 N 509.944 0.496216 -1.49584 0
M  V30 5190 C 511.192 1.24756 -1.58998 0
M  V30 5191 C 511.513 1.92968 -0.280775 0
M  V30 5192 O 510.783 1.82959 0.700198 0
M  V30 5193 H 509.363 0.463471 -0.585836 0
M  V30 5194 H 512.025 0.574678 -1.86235 0
M  V30 5195 H 511.121 2.00895 -2.38847 0
M  V30 5196 N 511.423 1.38739 0.74761 0
M  V30 5197 C 512.669 1.35475 1.50912 0
M  V30 5198 C 513.002 -0.0533093 1.94127 0
M  V30 5199 O 512.277 -1.01572 1.65871 0
M  V30 5200 C 512.56 2.31582 2.75757 0
M  V30 5201 C 512.413 3.81274 2.38642 0
M  V30 5202 C 513.732 2.25722 3.77806 0
M  V30 5203 H 510.851 0.493427 0.547447 0
M  V30 5204 H 513.493 1.69634 0.855823 0
M  V30 5205 H 511.643 2.02582 3.31501 0
M  V30 5206 H 513.315 4.20972 1.88626 0
M  V30 5207 H 511.558 3.98664 1.71025 0
M  V30 5208 H 512.229 4.4399 3.27989 0
M  V30 5209 H 514.705 2.51336 3.31616 0
M  V30 5210 H 513.581 2.95069 4.62845 0
M  V30 5211 H 513.842 1.25803 4.23823 0
M  V30 5212 N 512.901 -0.976442 1.23707 0
M  V30 5213 C 513.848 -2.06952 1.02174 0
M  V30 5214 C 514.818 -1.65984 -0.0621034 0
M  V30 5215 O 516.003 -1.90584 0.0907906 0
M  V30 5216 C 513.143 -3.39425 0.62327 0
M  V30 5217 C 512.256 -3.9364 1.77966 0
M  V30 5218 C 511.391 -5.14343 1.3276 0
M  V30 5219 C 510.43 -5.60733 2.45449 0
M  V30 5220 N 509.567 -6.72662 2.01172 0
M  V30 5221 H 514.407 -2.24704 1.95734 0
M  V30 5222 H 511.944 -1.10143 0.975034 0
M  V30 5223 H 513.902 -4.15526 0.37332 0
M  V30 5224 H 512.532 -3.21624 -0.275329 0
M  V30 5225 H 511.584 -3.14258 2.14351 0
M  V30 5226 H 512.896 -4.24035 2.62671 0
M  V30 5227 H 512.05 -5.97789 1.03601 0
M  V30 5228 H 510.789 -4.8561 0.450975 0
M  V30 5229 H 509.794 -4.75865 2.75378 0
M  V30 5230 H 511.019 -5.91483 3.33654 0
M  V30 5231 H 508.965 -6.45681 1.15895 0
M  V30 5232 H 508.882 -7.02462 2.79434 0
M  V30 5233 H 510.15 -7.59572 1.75129 0
M  V30 5234 N 514.379 -1.04941 -1.1758 0
M  V30 5235 C 515.607 -0.778294 -1.91703 0
M  V30 5236 C 516.022 0.665697 -1.76675 0
M  V30 5237 O 515.379 1.45456 -1.10222 0
M  V30 5238 C 515.43 -1.14628 -3.42845 0
M  V30 5239 O 515.151 -2.53359 -3.57409 0
M  V30 5240 C 516.652 -0.900931 -4.34049 0
M  V30 5241 H 513.872 -0.283167 -0.608323 0
M  V30 5242 H 516.416 -1.39942 -1.49119 0
M  V30 5243 H 514.571 -0.569953 -3.83184 0
M  V30 5244 H 514.985 -2.67709 -4.51035 0
M  V30 5245 H 516.459 -1.20817 -5.38616 0
M  V30 5246 H 516.936 0.163966 -4.38894 0
M  V30 5247 H 517.542 -1.46097 -3.99419 0
M  V30 5248 N 515.857 1.33968 -0.830081 0
M  V30 5249 C 516.82 2.27694 -0.26235 0
M  V30 5250 C 517.82 1.50589 0.563876 0
M  V30 5251 O 519.01 1.70028 0.378941 0
M  V30 5252 C 516.142 3.35002 0.63138 0
M  V30 5253 H 517.335 2.79419 -1.08928 0
M  V30 5254 H 514.888 1.44221 -0.602486 0
M  V30 5255 H 515.623 2.88504 1.48109 0
M  V30 5256 H 515.408 3.92079 0.0403276 0
M  V30 5257 H 516.898 4.04897 1.02217 0
M  V30 5258 N 517.335 0.585699 1.46312 0
M  V30 5259 C 518.267 -0.183687 2.28463 0
M  V30 5260 C 519.28 -0.85264 1.38686 0
M  V30 5261 O 520.469 -0.721701 1.6326 0
M  V30 5262 C 517.569 -1.27977 3.13808 0
M  V30 5263 C 516.742 -0.702164 4.31727 0
M  V30 5264 C 515.801 -1.68633 4.98447 0
M  V30 5265 O 514.827 -1.22121 5.55945 0
M  V30 5266 N 516.029 -3.02047 4.95729 0
M  V30 5267 H 518.794 0.521127 2.95134 0
M  V30 5268 H 516.355 0.423673 1.56258 0
M  V30 5269 H 518.347 -1.9375 3.55307 0
M  V30 5270 H 516.917 -1.8874 2.4919 0
M  V30 5271 H 516.137 0.1331 3.93975 0
M  V30 5272 H 517.425 -0.296101 5.07938 0
M  V30 5273 H 516.823 -3.42457 4.50266 0
M  V30 5274 H 515.38 -3.63301 5.41161 0
M  V30 5275 N 518.813 -1.54241 0.323641 0
M  V30 5276 C 519.776 -2.22997 -0.529602 0
M  V30 5277 C 520.776 -1.22345 -1.04347 0
M  V30 5278 O 521.966 -1.46924 -0.935889 0
M  V30 5279 C 519.098 -2.93409 -1.73562 0
M  V30 5280 H 520.291 -2.99815 0.0714518 0
M  V30 5281 H 517.844 -1.56121 0.0747258 0
M  V30 5282 H 518.579 -2.20729 -2.37591 0
M  V30 5283 H 518.364 -3.67217 -1.37456 0
M  V30 5284 H 519.854 -3.45794 -2.34128 0
M  V30 5285 N 520.291 -0.0518155 -1.57515 0
M  V30 5286 C 521.221 0.920283 -2.146 0
M  V30 5287 C 522.202 1.32406 -1.06783 0
M  V30 5288 O 523.387 1.39866 -1.34726 0
M  V30 5289 C 520.517 2.1949 -2.6915 0
M  V30 5290 C 519.471 1.93116 -3.81956 0
M  V30 5291 C 518.797 3.27037 -4.23026 0
M  V30 5292 C 520.097 1.25225 -5.07066 0
M  V30 5293 H 521.791 0.444801 -2.96077 0
M  V30 5294 H 519.337 0.212508 -1.42423 0
M  V30 5295 H 521.29 2.87894 -3.07725 0
M  V30 5296 H 520.014 2.69244 -1.84865 0
M  V30 5297 H 518.673 1.27123 -3.43854 0
M  V30 5298 H 518.321 3.74595 -3.3569 0
M  V30 5299 H 518.021 3.10189 -4.99056 0
M  V30 5300 H 519.545 3.96673 -4.64202 0
M  V30 5301 H 520.959 1.83666 -5.43083 0
M  V30 5302 H 519.356 1.18702 -5.88243 0
M  V30 5303 H 520.426 0.228382 -4.84362 0
M  V30 5304 N 521.769 1.56035 0.221574 0
M  V30 5305 C 522.732 1.91584 1.2581 0
M  V30 5306 C 523.732 0.794425 1.39805 0
M  V30 5307 O 524.922 1.06217 1.38071 0
M  V30 5308 C 522.054 2.16663 2.63192 0
M  V30 5309 H 523.247 2.8429 0.954935 0
M  V30 5310 H 520.8 1.49316 0.461988 0
M  V30 5311 H 521.535 1.26508 2.98607 0
M  V30 5312 H 521.32 2.98358 2.5441 0
M  V30 5313 H 522.81 2.45262 3.37988 0
M  V30 5314 N 523.247 -0.488276 1.49845 0
M  V30 5315 C 524.157 -1.61451 1.70207 0
M  V30 5316 C 525.173 -1.63877 0.584846 0
M  V30 5317 O 526.349 -1.82063 0.861107 0
M  V30 5318 C 523.414 -2.9776 1.77594 0
M  V30 5319 C 522.475 -3.05861 3.01243 0
M  V30 5320 C 521.708 -4.35668 3.08268 0
M  V30 5321 O 521.931 -5.25197 2.22541 0
M  V30 5322 O 520.865 -4.49005 4.00847 0
M  V30 5323 H 524.691 -1.47199 2.65643 0
M  V30 5324 H 522.276 -0.665939 1.33737 0
M  V30 5325 H 524.158 -3.7875 1.84732 0
M  V30 5326 H 522.833 -3.12248 0.8534 0
M  V30 5327 H 521.74 -2.24012 2.99616 0
M  V30 5328 H 523.073 -2.96304 3.9302 0
M  V30 5329 N 524.725 -1.39134 -0.740242 0
M  V30 5330 C 525.974 -1.35384 -1.49512 0
M  V30 5331 C 526.287 0.04919 -1.95538 0
M  V30 5332 O 527.493 0.209257 -2.70692 0
M  V30 5333 C 525.949 -2.37812 -2.70136 0
M  V30 5334 C 525.557 -3.83804 -2.31081 0
M  V30 5335 C 527.301 -2.4313 -3.47977 0
M  V30 5336 C 525.208 -4.77886 -3.48395 0
M  V30 5337 H 524.138 -0.503297 -0.561434 0
M  V30 5338 H 526.789 -1.64754 -0.807974 0
M  V30 5339 H 525.171 -2.01505 -3.40899 0
M  V30 5340 H 526.345 -4.29123 -1.67898 0
M  V30 5341 H 524.66 -3.81732 -1.66343 0
M  V30 5342 H 527.257 -3.10614 -4.35228 0
M  V30 5343 H 527.6 -1.45423 -3.90074 0
M  V30 5344 H 528.133 -2.78304 -2.84239 0
M  V30 5345 H 524.872 -5.76836 -3.11353 0
M  V30 5346 H 524.392 -4.3725 -4.10576 0
M  V30 5347 H 526.071 -4.96538 -4.148 0
M  V30 5348 N 526.204 0.969867 -1.24223 0
M  V30 5349 C 527.167 2.04564 -1.03373 0
M  V30 5350 C 528.167 1.60798 0.00819206 0
M  V30 5351 O 529.357 1.72641 -0.232567 0
M  V30 5352 C 526.489 3.36163 -0.566343 0
M  V30 5353 H 527.682 2.24494 -1.98853 0
M  V30 5354 H 525.235 1.1448 -1.06415 0
M  V30 5355 H 525.97 3.21925 0.391751 0
M  V30 5356 H 525.755 3.69273 -1.31834 0
M  V30 5357 H 527.245 4.1526 -0.441435 0
M  V30 5358 N 527.682 1.05563 1.17022 0
M  V30 5359 C 528.928 0.769074 1.87652 0
M  V30 5360 C 529.261 -0.702326 1.81055 0
M  V30 5361 O 528.536 -1.5139 1.22112 0
M  V30 5362 C 528.819 1.25492 3.37526 0
M  V30 5363 C 528.672 2.78953 3.52853 0
M  V30 5364 C 529.991 0.856919 4.31677 0
M  V30 5365 H 527.11 0.280854 0.681388 0
M  V30 5366 H 529.752 1.31027 1.37593 0
M  V30 5367 H 527.902 0.794516 3.80289 0
M  V30 5368 H 529.574 3.33146 3.19079 0
M  V30 5369 H 527.817 3.18046 2.95007 0
M  V30 5370 H 528.488 3.08011 4.58076 0
M  V30 5371 H 530.964 1.25334 3.96775 0
M  V30 5372 H 529.84 1.22443 5.35069 0
M  V30 5373 H 530.101 -0.238787 4.41455 0
M  V30 5374 N 529.16 -1.33526 0.837174 0
M  V30 5375 C 530.123 -2.27551 0.274421 0
M  V30 5376 C 531.123 -1.50886 -0.555881 0
M  V30 5377 O 532.313 -1.70227 -0.369918 0
M  V30 5378 C 529.445 -3.35332 -0.613605 0
M  V30 5379 H 530.638 -2.78837 1.10408 0
M  V30 5380 H 528.191 -1.439 0.610126 0
M  V30 5381 H 528.926 -2.89285 -1.46577 0
M  V30 5382 H 528.711 -3.92095 -0.0195341 0
M  V30 5383 H 530.201 -4.05433 -1.00068 0
M  V30 5384 N 530.638 -0.59345 -1.46 0
M  V30 5385 C 531.884 -0.0832754 -2.02629 0
M  V30 5386 C 532.217 1.27749 -1.46266 0
M  V30 5387 O 531.492 1.8395 -0.631866 0
M  V30 5388 C 531.775 -0.0290756 -3.60088 0
M  V30 5389 C 531.628 -1.41951 -4.26814 0
M  V30 5390 C 532.947 0.666055 -4.35031 0
M  V30 5391 H 530.066 -0.031736 -0.736316 0
M  V30 5392 H 532.708 -0.762711 -1.74019 0
M  V30 5393 H 530.858 0.549532 -3.84594 0
M  V30 5394 H 532.53 -2.04411 -4.13538 0
M  V30 5395 H 530.773 -1.98422 -3.8576 0
M  V30 5396 H 531.444 -1.33395 -5.3564 0
M  V30 5397 H 533.92 0.174401 -4.15734 0
M  V30 5398 H 532.796 0.673041 -5.44758 0
M  V30 5399 H 533.057 1.72946 -4.06869 0
M  V30 5400 N 532.116 1.54067 -0.331816 0
M  V30 5401 C 533.364 2.00319 0.267739 0
M  V30 5402 C 533.685 1.22148 1.52003 0
M  V30 5403 O 532.955 0.325494 1.93177 0
M  V30 5404 H 531.535 0.740014 0.101922 0
M  V30 5405 H 534.197 1.89628 -0.450267 0
M  V30 5406 H 533.293 3.07765 0.518385 0
M  V30 5407 N 533.594 0.0601682 1.57485 0
M  V30 5408 C 534.524 -0.90889 2.15085 0
M  V30 5409 C 535.505 -1.31838 1.07484 0
M  V30 5410 O 536.69 -1.3915 1.35466 0
M  V30 5411 C 533.82 -2.18059 2.7031 0
M  V30 5412 C 532.774 -1.91088 3.82974 0
M  V30 5413 C 532.1 -3.24789 4.24754 0
M  V30 5414 C 533.4 -1.22535 5.07723 0
M  V30 5415 H 535.094 -0.429093 2.96309 0
M  V30 5416 H 532.64 -0.204952 1.42534 0
M  V30 5417 H 534.593 -2.86258 3.09248 0
M  V30 5418 H 533.317 -2.6826 1.8629 0
M  V30 5419 H 531.976 -1.25297 3.44523 0
M  V30 5420 H 531.624 -3.72809 3.37672 0
M  V30 5421 H 531.324 -3.07538 5.00694 0
M  V30 5422 H 532.848 -3.94205 4.66299 0
M  V30 5423 H 534.262 -1.80783 5.4405 0
M  V30 5424 H 532.659 -1.1558 5.88864 0
M  V30 5425 H 533.729 -0.202692 4.84476 0
M  V30 5426 N 535.072 -1.5615 -0.213296 0
M  V30 5427 C 536.035 -1.92249 -1.24792 0
M  V30 5428 C 537.035 -0.801828 -1.39382 0
M  V30 5429 O 538.225 -1.06948 -1.37506 0
M  V30 5430 C 535.357 -2.18056 -2.62039 0
M  V30 5431 H 536.55 -2.84793 -0.939845 0
M  V30 5432 H 534.103 -1.49559 -0.454062 0
M  V30 5433 H 534.838 -1.2809 -2.97932 0
M  V30 5434 H 534.623 -2.99703 -2.52825 0
M  V30 5435 H 536.113 -2.47051 -3.36683 0
M  V30 5436 N 536.55 0.480323 -1.50102 0
M  V30 5437 C 537.482 1.59669 -1.64433 0
M  V30 5438 C 538.495 1.54063 -0.52615 0
M  V30 5439 O 539.684 1.59619 -0.798992 0
M  V30 5440 C 536.784 2.98527 -1.6042 0
M  V30 5441 C 535.957 3.291 -2.88117 0
M  V30 5442 C 535.016 4.47468 -2.76873 0
M  V30 5443 O 534.042 4.4823 -3.50825 0
M  V30 5444 N 535.244 5.48593 -1.89806 0
M  V30 5445 H 538.009 1.47795 -2.60723 0
M  V30 5446 H 535.57 0.66858 -1.4745 0
M  V30 5447 H 537.562 3.75666 -1.50523 0
M  V30 5448 H 536.132 3.04218 -0.719036 0
M  V30 5449 H 535.352 2.40662 -3.12211 0
M  V30 5450 H 536.64 3.46334 -3.72734 0
M  V30 5451 H 536.038 5.50791 -1.2902 0
M  V30 5452 H 534.595 6.24752 -1.85819 0
M  V30 5453 N 538.028 1.39524 0.732853 0
M  V30 5454 C 538.976 1.38563 1.86824 0
M  V30 5455 C 539.97 0.268467 1.67259 0
M  V30 5456 O 541.176 0.438613 1.74574 0
M  V30 5457 H 537.551 0.432737 0.615014 0
M  V30 5458 H 539.522 2.34328 1.84751 0
M  V30 5459 C 538.271 1.2481 3.24527 0
M  V30 5460 H 537.594 2.10044 3.40179 0
M  V30 5461 H 539.034 1.28194 4.04156 0
M  V30 5462 C 537.493 -0.0432825 3.36872 0
M  V30 5463 O 538.023 -1.01268 3.88726 0
M  V30 5464 N 536.229 -0.107055 2.90403 0
M  V30 5465 H 535.776 0.682512 2.48394 0
M  V30 5466 H 535.734 -0.970618 2.99042 0
M  V30 5467 N 539.506 -0.963266 1.24736 0
M  V30 5468 C 540.436 -2.07628 1.06832 0
M  V30 5469 C 541.417 -1.70088 -0.0200566 0
M  V30 5470 O 542.602 -1.93636 0.147854 0
M  V30 5471 C 539.732 -3.40636 0.677069 0
M  V30 5472 C 538.686 -3.9215 1.71471 0
M  V30 5473 C 538.012 -5.21553 1.1784 0
M  V30 5474 C 539.312 -4.19493 3.11164 0
M  V30 5475 H 541.006 -2.22864 1.9993 0
M  V30 5476 H 538.552 -1.07093 0.96266 0
M  V30 5477 H 540.505 -4.17941 0.538792 0
M  V30 5478 H 539.229 -3.25313 -0.289612 0
M  V30 5479 H 537.888 -3.17005 1.84128 0
M  V30 5480 H 537.536 -5.02593 0.202195 0
M  V30 5481 H 537.236 -5.56988 1.87185 0
M  V30 5482 H 538.76 -6.01463 1.05233 0
M  V30 5483 H 540.174 -4.87487 3.01711 0
M  V30 5484 H 538.571 -4.66165 3.77902 0
M  V30 5485 H 539.641 -3.26097 3.58871 0
M  V30 5486 N 540.985 -1.06182 -1.16461 0
M  V30 5487 C 542.233 -0.776326 -1.86595 0
M  V30 5488 C 542.554 0.69921 -1.82033 0
M  V30 5489 O 541.824 1.50579 -1.2531 0
M  V30 5490 H 540.404 -0.284184 -0.690832 0
M  V30 5491 H 543.066 -1.34308 -1.41235 0
M  V30 5492 H 542.162 -1.10022 -2.92064 0
M  V30 5493 N 542.463 1.3308 -0.844243 0
M  V30 5494 C 543.426 2.27403 -0.286485 0
M  V30 5495 C 544.426 1.51179 0.547872 0
M  V30 5496 O 545.616 1.70421 0.360886 0
M  V30 5497 C 542.748 3.35653 0.595813 0
M  V30 5498 H 543.941 2.78248 -1.11885 0
M  V30 5499 H 541.494 1.43574 -0.617749 0
M  V30 5500 H 542.229 2.90058 1.4504 0
M  V30 5501 H 542.014 3.921 -0.00125994 0
M  V30 5502 H 543.504 4.05958 0.979168 0
M  V30 5503 N 543.941 0.601185 1.45683 0
M  V30 5504 C 544.874 -0.17013 2.27565 0
M  V30 5505 C 545.852 -0.879661 1.36751 0
M  V30 5506 O 547.036 -0.889827 1.66176 0
M  V30 5507 C 544.163 -1.24568 3.14961 0
M  V30 5508 C 543.209 -0.639978 4.21671 0
M  V30 5509 S 544.042 0.547275 5.32696 0
M  V30 5510 C 545.198 -0.529019 6.2366 0
M  V30 5511 H 545.431 0.524583 2.92635 0
M  V30 5512 H 542.964 0.388537 1.49431 0
M  V30 5513 H 544.922 -1.86138 3.65873 0
M  V30 5514 H 543.583 -1.91243 2.49169 0
M  V30 5515 H 542.776 -1.44903 4.8272 0
M  V30 5516 H 542.378 -0.0995558 3.73867 0
M  V30 5517 H 544.67 -1.40981 6.62669 0
M  V30 5518 H 545.613 0.0451599 7.08086 0
M  V30 5519 H 546.021 -0.84147 5.58193 0
M  V30 5520 N 545.419 -1.53889 0.339982 0
M  V30 5521 C 546.835 -1.59595 -0.0120752 0
M  V30 5522 C 547.035 -1.35605 -1.49042 0
M  V30 5523 O 546.091 -1.14856 -2.24865 0
M  V30 5524 C 547.404 -2.9774 0.420898 0
M  V30 5525 C 548.952 -3.1077 0.37294 0
M  V30 5526 C 549.427 -4.51286 0.781327 0
M  V30 5527 N 550.918 -4.57325 0.735374 0
M  V30 5528 C 551.653 -5.64194 1.02336 0
M  V30 5529 N 551.149 -6.7893 1.37933 0
M  V30 5530 N 552.942 -5.54051 0.947838 0
M  V30 5531 H 545.093 -1.67738 1.30299 0
M  V30 5532 H 547.356 -0.785385 0.530918 0
M  V30 5533 H 547.062 -3.20349 1.45152 0
M  V30 5534 H 546.936 -3.76639 -0.205721 0
M  V30 5535 H 549.323 -2.87886 -0.648505 0
M  V30 5536 H 549.404 -2.33939 1.03472 0
M  V30 5537 H 549.048 -4.74905 1.80077 0
M  V30 5538 H 548.978 -5.26511 0.0970679 0
M  V30 5539 H 551.469 -3.74931 0.472773 0
M  V30 5540 H 551.782 -7.56392 1.58402 0
M  V30 5541 H 550.127 -6.80386 1.41774 0
M  V30 5542 H 553.318 -4.63293 0.669115 0
M  V30 5543 H 553.491 -6.37246 1.17563 0
M  V30 5544 N 546.897 -0.0685191 -1.57451 0
M  V30 5545 C 547.86 0.885173 -2.11417 0
M  V30 5546 C 548.86 1.22853 -1.03748 0
M  V30 5547 O 550.05 1.16235 -1.2975 0
M  V30 5548 C 547.182 2.18964 -2.61281 0
M  V30 5549 H 548.375 0.417034 -2.96986 0
M  V30 5550 H 545.928 0.18014 -1.55258 0
M  V30 5551 H 546.663 2.70321 -1.79156 0
M  V30 5552 H 546.448 1.9534 -3.39977 0
M  V30 5553 H 547.938 2.87242 -3.0312 0
M  V30 5554 N 548.375 1.56261 0.205012 0
M  V30 5555 C 549.305 1.96779 1.257 0
M  V30 5556 C 550.286 0.838309 1.48008 0
M  V30 5557 O 551.471 1.10189 1.59913 0
M  V30 5558 C 548.601 2.29876 2.60335 0
M  V30 5559 C 547.555 3.45469 2.52656 0
M  V30 5560 C 546.881 3.64215 3.91473 0
M  V30 5561 C 548.181 4.79954 2.06014 0
M  V30 5562 H 549.875 2.84904 0.920338 0
M  V30 5563 H 547.421 1.37072 0.441277 0
M  V30 5564 H 549.374 2.56814 3.34102 0
M  V30 5565 H 548.098 1.38622 2.95722 0
M  V30 5566 H 546.757 3.18605 1.81345 0
M  V30 5567 H 546.405 2.70309 4.24196 0
M  V30 5568 H 546.105 4.41973 3.87213 0
M  V30 5569 H 547.629 3.93519 4.66878 0
M  V30 5570 H 549.043 5.05989 2.69533 0
M  V30 5571 H 547.44 5.61111 2.12777 0
M  V30 5572 H 548.51 4.74201 1.01297 0
M  V30 5573 N 549.853 -0.472356 1.50355 0
M  V30 5574 C 550.816 -1.5529 1.68576 0
M  V30 5575 C 551.816 -1.50863 0.556511 0
M  V30 5576 O 553.006 -1.53505 0.823516 0
M  V30 5577 C 550.138 -2.94921 1.70981 0
M  V30 5578 H 551.331 -1.40451 2.64978 0
M  V30 5579 H 548.884 -0.698645 1.39816 0
M  V30 5580 H 549.619 -3.15204 0.762675 0
M  V30 5581 H 549.404 -2.99541 2.53017 0
M  V30 5582 H 550.894 -3.73372 1.87037 0
M  V30 5583 N 551.331 -1.39911 -0.725443 0
M  V30 5584 C 552.559 -1.40949 -1.51463 0
M  V30 5585 C 552.974 -0.0065242 -1.88799 0
M  V30 5586 O 552.331 0.967163 -1.54765 0
M  V30 5587 C 552.382 -2.29119 -2.79619 0
M  V30 5588 O 552.103 -3.63952 -2.43866 0
M  V30 5589 C 553.604 -2.38642 -3.73584 0
M  V30 5590 H 550.824 -0.481091 -0.467752 0
M  V30 5591 H 553.368 -1.83843 -0.895651 0
M  V30 5592 H 551.523 -1.89612 -3.37826 0
M  V30 5593 H 551.937 -4.10677 -3.26258 0
M  V30 5594 H 553.411 -3.04563 -4.60375 0
M  V30 5595 H 553.888 -1.40846 -4.16004 0
M  V30 5596 H 554.494 -2.78659 -3.21293 0
M  V30 5597 N 552.809 0.956637 -1.25245 0
M  V30 5598 C 553.719 2.0868 -1.0719 0
M  V30 5599 C 554.735 1.73997 -0.00959074 0
M  V30 5600 O 555.911 2.00301 -0.210104 0
M  V30 5601 C 552.976 3.39754 -0.690526 0
M  V30 5602 C 552.037 3.88316 -1.83055 0
M  V30 5603 C 551.27 5.13134 -1.46728 0
M  V30 5604 O 551.493 5.6925 -0.362029 0
M  V30 5605 O 550.427 5.56356 -2.29677 0
M  V30 5606 H 554.253 2.26813 -2.01965 0
M  V30 5607 H 551.838 1.07098 -1.04165 0
M  V30 5608 H 553.72 4.18543 -0.489871 0
M  V30 5609 H 552.395 3.22896 0.227981 0
M  V30 5610 H 551.302 3.1054 -2.08604 0
M  V30 5611 H 552.635 4.09669 -2.72822 0
M  V30 5612 N 554.287 1.06798 1.15896 0
M  V30 5613 C 555.535 0.786211 1.8618 0
M  V30 5614 C 555.856 -0.689547 1.82401 0
M  V30 5615 O 555.126 -1.49913 1.26107 0
M  V30 5616 H 553.706 0.287843 0.689315 0
M  V30 5617 H 556.368 1.35055 1.40521 0
M  V30 5618 H 555.464 1.1157 2.91477 0
M  V30 5619 N 555.766 -1.3263 0.851289 0
M  V30 5620 C 557.015 -1.96633 0.449267 0
M  V30 5621 C 557.328 -1.68131 -0.999562 0
M  V30 5622 O 558.534 -2.25845 -1.50685 0
M  V30 5623 C 556.99 -3.51946 0.752446 0
M  V30 5624 C 556.598 -3.89311 2.21678 0
M  V30 5625 C 558.342 -4.22437 0.417983 0
M  V30 5626 C 556.249 -5.37655 2.46336 0
M  V30 5627 H 555.179 -0.735888 0.164269 0
M  V30 5628 H 557.83 -1.51073 1.0416 0
M  V30 5629 H 556.212 -3.95899 0.0895858 0
M  V30 5630 H 557.386 -3.56378 2.92115 0
M  V30 5631 H 555.701 -3.31836 2.51543 0
M  V30 5632 H 558.298 -5.31549 0.579674 0
M  V30 5633 H 558.641 -4.11349 -0.640115 0
M  V30 5634 H 559.174 -3.84057 1.03659 0
M  V30 5635 H 555.913 -5.5376 3.50757 0
M  V30 5636 H 555.433 -5.72005 1.80473 0
M  V30 5637 H 557.112 -6.04695 2.30115 0
M  V30 5638 N 557.244 -0.608902 -1.45362 0
M  V30 5639 C 558.176 0.147318 -2.28726 0
M  V30 5640 C 559.189 0.830468 -1.40025 0
M  V30 5641 O 560.378 0.695636 -1.64387 0
M  V30 5642 C 557.478 1.22968 -3.15804 0
M  V30 5643 C 556.651 0.633391 -4.3279 0
M  V30 5644 C 555.71 1.60682 -5.01067 0
M  V30 5645 O 554.736 1.13261 -5.57818 0
M  V30 5646 N 555.938 2.94123 -5.00472 0
M  V30 5647 H 558.703 -0.568014 -2.94268 0
M  V30 5648 H 556.264 -0.448479 -1.55564 0
M  V30 5649 H 558.256 1.88072 -3.58345 0
M  V30 5650 H 556.826 1.84752 -2.52162 0
M  V30 5651 H 556.046 -0.195762 -3.93714 0
M  V30 5652 H 557.334 0.215255 -5.08344 0
M  V30 5653 H 556.732 3.3525 -4.55657 0
M  V30 5654 H 555.289 3.54646 -5.46872 0
M  V30 5655 N 558.722 1.53707 -0.348139 0
M  V30 5656 C 560.138 1.596 0.00361134 0
M  V30 5657 C 560.338 1.36394 1.4832 0
M  V30 5658 O 559.394 1.16046 2.24253 0
M  V30 5659 C 560.707 2.97512 -0.436682 0
M  V30 5660 C 562.255 3.10568 -0.389416 0
M  V30 5661 C 562.73 4.50866 -0.805249 0
M  V30 5662 N 564.221 4.56929 -0.759616 0
M  V30 5663 C 564.956 5.63643 -1.05327 0
M  V30 5664 N 564.452 6.78189 -1.41531 0
M  V30 5665 N 566.245 5.5354 -0.977207 0
M  V30 5666 H 558.396 1.67044 -1.31187 0
M  V30 5667 H 560.659 0.782559 -0.535075 0
M  V30 5668 H 560.365 3.19575 -1.46849 0
M  V30 5669 H 560.239 3.76742 0.185744 0
M  V30 5670 H 562.626 2.88226 0.633228 0
M  V30 5671 H 562.707 2.33387 -1.04711 0
M  V30 5672 H 562.351 4.73943 -1.82593 0
M  V30 5673 H 562.281 5.26452 -0.124989 0
M  V30 5674 H 564.772 3.74675 -0.49265 0
M  V30 5675 H 565.085 7.55541 -1.62411 0
M  V30 5676 H 563.43 6.79624 -1.45381 0
M  V30 5677 H 566.621 4.62932 -0.693675 0
M  V30 5678 H 566.794 6.36614 -1.2094 0
M  V30 5679 N 560.2 0.0768682 1.57412 0
M  V30 5680 C 561.448 -0.589918 1.93299 0
M  V30 5681 C 561.769 -1.69842 0.958049 0
M  V30 5682 O 561.039 -1.95899 0.00703261 0
M  V30 5683 H 559.619 -0.220901 0.713591 0
M  V30 5684 H 562.281 0.135917 1.94425 0
M  V30 5685 H 561.377 -1.01195 2.95239 0
M  V30 5686 N 561.678 -1.56367 -0.196722 0
M  V30 5687 C 562.628 -1.9082 -1.24787 0
M  V30 5688 C 563.612 -0.773719 -1.41076 0
M  V30 5689 O 564.804 -1.03655 -1.43474 0
M  V30 5690 C 561.933 -2.24982 -2.59303 0
M  V30 5691 C 561.019 -3.44882 -2.46814 0
M  V30 5692 N 561.41 -4.62835 -2.04003 0
M  V30 5693 C 559.708 -3.48988 -2.77711 0
M  V30 5694 C 560.409 -5.44993 -2.03366 0
M  V30 5695 N 559.385 -4.85356 -2.44807 0
M  V30 5696 H 563.187 -2.79516 -0.908175 0
M  V30 5697 H 560.701 -1.57265 -0.405166 0
M  V30 5698 H 562.698 -2.47848 -3.35227 0
M  V30 5699 H 561.358 -1.37611 -2.94098 0
M  V30 5700 H 562.369 -4.87532 -1.74738 0
M  V30 5701 H 559.046 -2.72029 -3.16712 0
M  V30 5702 H 560.436 -6.49464 -1.72181 0
M  V30 5703 N 563.156 0.464375 -1.50603 0
M  V30 5704 C 564.089 1.58052 -1.64605 0
M  V30 5705 C 565.067 1.54914 -0.494016 0
M  V30 5706 O 566.251 1.74438 -0.714393 0
M  V30 5707 C 563.378 2.96634 -1.63481 0
M  V30 5708 C 562.424 3.17901 -2.84325 0
M  V30 5709 S 563.257 2.97083 -4.45536 0
M  V30 5710 C 564.413 4.37994 -4.47115 0
M  V30 5711 H 564.646 1.45937 -2.59017 0
M  V30 5712 H 562.179 0.652189 -1.39949 0
M  V30 5713 H 564.137 3.76527 -1.63517 0
M  V30 5714 H 562.798 3.06134 -0.702928 0
M  V30 5715 H 561.991 4.19158 -2.79862 0
M  V30 5716 H 561.593 2.45792 -2.81891 0
M  V30 5717 H 563.885 5.30743 -4.21091 0
M  V30 5718 H 564.828 4.47499 -5.48772 0
M  V30 5719 H 565.236 4.20386 -3.76743 0
M  V30 5720 N 564.634 1.40294 0.718013 0
M  V30 5721 C 565.597 1.4012 1.81381 0
M  V30 5722 C 566.597 0.295405 1.58063 0
M  V30 5723 O 567.787 0.554187 1.6515 0
M  V30 5724 C 564.919 1.19056 3.19435 0
M  V30 5725 H 566.112 2.37645 1.82933 0
M  V30 5726 H 563.665 1.26107 0.923405 0
M  V30 5727 H 564.4 0.222809 3.23534 0
M  V30 5728 H 564.185 1.99152 3.37758 0
M  V30 5729 H 565.675 1.21716 3.99468 0
M  V30 5730 N 566.112 -0.949982 1.2575 0
M  V30 5731 C 567.042 -2.06483 1.09028 0
M  V30 5732 C 568.023 -1.701 -0.00201532 0
M  V30 5733 O 569.208 -1.93469 0.168383 0
M  V30 5734 C 566.338 -3.39899 0.71316 0
M  V30 5735 C 565.292 -3.90309 1.75621 0
M  V30 5736 C 564.618 -5.20274 1.23365 0
M  V30 5737 C 565.918 -4.16169 3.15596 0
M  V30 5738 H 567.612 -2.20731 2.02283 0
M  V30 5739 H 565.158 -1.06066 0.973964 0
M  V30 5740 H 567.111 -4.17346 0.58309 0
M  V30 5741 H 565.835 -3.25602 -0.255091 0
M  V30 5742 H 564.494 -3.15035 1.8748 0
M  V30 5743 H 564.142 -5.02351 0.255491 0
M  V30 5744 H 563.842 -5.54971 1.93082 0
M  V30 5745 H 565.366 -6.00314 1.11607 0
M  V30 5746 H 566.78 -4.84259 3.06864 0
M  V30 5747 H 565.177 -4.62131 3.82825 0
M  V30 5748 H 566.247 -3.22273 3.6231 0
M  V30 5749 N 567.59 -1.07411 -1.15328 0
M  V30 5750 C 568.54 -0.664788 -2.18093 0
M  V30 5751 C 569.524 0.310395 -1.57878 0
M  V30 5752 O 570.716 0.124026 -1.76565 0
M  V30 5753 C 567.845 -0.0647822 -3.43239 0
M  V30 5754 C 566.931 -1.06514 -4.10506 0
M  V30 5755 N 567.322 -2.24491 -4.53252 0
M  V30 5756 C 565.62 -0.898613 -4.36853 0
M  V30 5757 C 566.321 -2.8796 -5.05424 0
M  V30 5758 N 565.297 -2.15622 -4.99007 0
M  V30 5759 H 569.099 -1.56333 -2.48872 0
M  V30 5760 H 566.613 -0.947393 -1.31902 0
M  V30 5761 H 568.61 0.246363 -4.16171 0
M  V30 5762 H 567.27 0.828866 -3.13943 0
M  V30 5763 H 568.281 -2.62205 -4.46619 0
M  V30 5764 H 564.958 -0.0579118 -4.1746 0
M  V30 5765 H 566.348 -3.88137 -5.48452 0
M  V30 5766 N 569.068 1.32177 -0.85831 0
M  V30 5767 C 570.031 2.27086 -0.310588 0
M  V30 5768 C 571.031 1.51751 0.531806 0
M  V30 5769 O 572.221 1.70794 0.34279 0
M  V30 5770 C 569.353 3.36266 0.560179 0
M  V30 5771 H 570.546 2.77045 -1.1483 0
M  V30 5772 H 568.099 1.42911 -0.632942 0
M  V30 5773 H 568.834 2.9158 1.41956 0
M  V30 5774 H 568.619 3.92077 -0.0428473 0
M  V30 5775 H 570.109 4.06974 0.936056 0
M  V30 5776 N 570.547 0.616602 1.45037 0
M  V30 5777 C 571.963 0.280994 1.57107 0
M  V30 5778 C 572.163 -1.21627 1.60653 0
M  V30 5779 O 571.219 -1.9997 1.54169 0
M  V30 5780 C 572.532 0.960116 2.8496 0
M  V30 5781 C 574.08 0.936884 2.98649 0
M  V30 5782 C 574.555 1.59619 4.29285 0
M  V30 5783 N 576.046 1.5621 4.36065 0
M  V30 5784 C 576.781 2.04131 5.35834 0
M  V30 5785 N 576.277 2.60177 6.4209 0
M  V30 5786 N 578.07 1.94845 5.27249 0
M  V30 5787 H 570.221 1.58867 1.40979 0
M  V30 5788 H 572.484 0.666024 0.674623 0
M  V30 5789 H 572.19 2.01473 2.88273 0
M  V30 5790 H 572.064 0.488921 3.74018 0
M  V30 5791 H 574.451 -0.109209 2.94898 0
M  V30 5792 H 574.532 1.44643 2.10979 0
M  V30 5793 H 574.176 2.64166 4.33796 0
M  V30 5794 H 574.106 1.06159 5.15789 0
M  V30 5795 H 576.597 1.15276 3.59889 0
M  V30 5796 H 576.91 2.94513 7.1448 0
M  V30 5797 H 575.255 2.64221 6.42816 0
M  V30 5798 H 578.446 1.50792 4.43147 0
M  V30 5799 H 578.619 2.32504 6.04852 0
M  V30 5800 N 572.025 -1.5352 0.356285 0
M  V30 5801 C 572.973 -2.26945 -0.50978 0
M  V30 5802 C 573.967 -1.29569 -1.09125 0
M  V30 5803 O 575.173 -1.47231 -1.03552 0
M  V30 5804 H 571.548 -0.729368 -0.183102 0
M  V30 5805 H 573.519 -2.98111 0.131374 0
M  V30 5806 C 572.268 -3.06466 -1.64237 0
M  V30 5807 H 571.591 -3.81233 -1.20423 0
M  V30 5808 H 573.031 -3.61035 -2.22327 0
M  V30 5809 C 571.49 -2.16737 -2.57928 0
M  V30 5810 O 572.02 -1.77195 -3.60507 0
M  V30 5811 N 570.226 -1.81558 -2.26903 0
M  V30 5812 H 569.773 -2.13913 -1.43524 0
M  V30 5813 H 569.731 -1.21806 -2.89846 0
M  V30 5814 N 573.503 -0.0852151 -1.57369 0
M  V30 5815 C 574.752 0.580443 -1.93168 0
M  V30 5816 C 575.065 1.6995 -0.968319 0
M  V30 5817 O 576.271 2.42564 -1.21963 0
M  V30 5818 C 574.727 1.08386 -3.43192 0
M  V30 5819 C 574.335 -0.00491388 -4.48 0
M  V30 5820 C 576.079 1.72281 -3.87968 0
M  V30 5821 C 573.986 0.513299 -5.89168 0
M  V30 5822 H 572.916 0.22059 -0.72101 0
M  V30 5823 H 575.567 -0.159621 -1.82804 0
M  V30 5824 H 573.949 1.8773 -3.48674 0
M  V30 5825 H 575.123 -0.780032 -4.5415 0
M  V30 5826 H 573.438 -0.548453 -4.12772 0
M  V30 5827 H 576.035 2.12108 -4.9083 0
M  V30 5828 H 576.378 2.58811 -3.26071 0
M  V30 5829 H 576.911 0.995359 -3.85146 0
M  V30 5830 H 573.65 -0.315153 -6.54742 0
M  V30 5831 H 573.17 1.25564 -5.8651 0
M  V30 5832 H 574.849 0.985433 -6.39451 0
M  V30 5833 N 574.981 1.5647 0.188427 0
M  V30 5834 C 575.944 1.9421 1.21718 0
M  V30 5835 C 576.944 0.823901 1.38089 0
M  V30 5836 O 578.134 1.09122 1.35787 0
M  V30 5837 C 575.266 2.22197 2.58537 0
M  V30 5838 H 576.459 2.86252 0.894418 0
M  V30 5839 H 574.012 1.50263 0.430211 0
M  V30 5840 H 574.747 1.32814 2.95856 0
M  V30 5841 H 574.532 3.03688 2.48025 0
M  V30 5842 H 576.022 2.52376 3.3271 0
M  V30 5843 N 576.459 -0.456382 1.50847 0
M  V30 5844 C 577.705 -1.20914 1.62811 0
M  V30 5845 C 578.038 -1.91301 0.334304 0
M  V30 5846 O 577.313 -1.82775 -0.665098 0
M  V30 5847 C 577.596 -2.24122 2.81853 0
M  V30 5848 C 577.449 -1.57944 4.21158 0
M  V30 5849 C 578.768 -3.25295 2.96431 0
M  V30 5850 H 575.887 -0.438233 0.592554 0
M  V30 5851 H 578.529 -0.50091 1.83278 0
M  V30 5852 H 576.679 -2.84524 2.64534 0
M  V30 5853 H 578.351 -1.01025 4.50102 0
M  V30 5854 H 576.594 -0.882185 4.24735 0
M  V30 5855 H 577.265 -2.33014 5.00408 0
M  V30 5856 H 579.741 -2.7493 3.12335 0
M  V30 5857 H 578.617 -3.94822 3.81322 0
M  V30 5858 H 578.878 -3.90286 2.07676 0
M  V30 5859 N 577.937 -1.40673 -0.710563 0
M  V30 5860 C 579.183 -1.39428 -1.47267 0
M  V30 5861 C 579.516 0.00182129 -1.942 0
M  V30 5862 O 578.791 0.971387 -1.68506 0
M  V30 5863 C 579.074 -2.38812 -2.6952 0
M  V30 5864 C 578.927 -3.87467 -2.28449 0
M  V30 5865 C 580.246 -2.3566 -3.71689 0
M  V30 5866 H 577.365 -0.507768 -0.534173 0
M  V30 5867 H 580.007 -1.71843 -0.810547 0
M  V30 5868 H 578.157 -2.113 -3.26013 0
M  V30 5869 H 579.829 -4.25825 -1.77399 0
M  V30 5870 H 578.072 -4.03058 -1.60395 0
M  V30 5871 H 578.743 -4.5253 -3.16103 0
M  V30 5872 H 581.219 -2.6004 -3.24836 0
M  V30 5873 H 580.095 -3.07237 -4.54859 0
M  V30 5874 H 580.356 -1.36996 -4.20339 0
M  V30 5875 N 579.415 0.9433 -1.26252 0
M  V30 5876 C 580.378 2.02326 -1.07689 0
M  V30 5877 C 581.378 1.60779 -0.0259174 0
M  V30 5878 O 582.568 1.72108 -0.269134 0
M  V30 5879 C 579.7 3.34886 -0.63752 0
M  V30 5880 H 580.893 2.20225 -2.0357 0
M  V30 5881 H 578.446 1.12197 -1.08819 0
M  V30 5882 H 579.181 3.22684 0.323377 0
M  V30 5883 H 578.966 3.66393 -1.39637 0
M  V30 5884 H 580.456 4.14231 -0.529418 0
M  V30 5885 N 580.893 1.08022 1.14757 0
M  V30 5886 C 582.141 0.805913 1.85336 0
M  V30 5887 C 582.462 -0.670162 1.83122 0
M  V30 5888 O 581.732 -1.48567 1.2769 0
M  V30 5889 H 580.312 0.295138 0.686223 0
M  V30 5890 H 582.974 1.36538 1.3908 0
M  V30 5891 H 582.07 1.14655 2.90277 0
M  V30 5892 N 582.371 -1.3172 0.865308 0
M  V30 5893 C 583.334 -2.26918 0.322627 0
M  V30 5894 C 584.334 -1.52031 -0.523751 0
M  V30 5895 O 585.524 -1.70973 -0.333727 0
M  V30 5896 C 582.656 -3.36558 -0.542338 0
M  V30 5897 H 583.849 -2.76432 1.16298 0
M  V30 5898 H 581.402 -1.42573 0.640512 0
M  V30 5899 H 582.137 -2.92329 -1.40407 0
M  V30 5900 H 581.922 -3.92048 0.0636395 0
M  V30 5901 H 583.412 -4.07465 -0.91446 0
M  V30 5902 N 583.85 -0.624285 -1.44708 0
M  V30 5903 C 585.266 -0.289322 -1.56956 0
M  V30 5904 C 585.466 1.20773 -1.61295 0
M  V30 5905 O 584.522 1.9915 -1.55227 0
M  V30 5906 C 585.835 -0.975215 -2.84447 0
M  V30 5907 C 587.383 -0.952709 -2.98148 0
M  V30 5908 C 587.858 -1.61893 -4.28433 0
M  V30 5909 N 589.349 -1.5852 -4.35231 0
M  V30 5910 C 590.084 -2.06969 -5.34744 0
M  V30 5911 N 589.58 -2.63579 -6.40701 0
M  V30 5912 N 591.373 -1.97638 -5.26209 0
M  V30 5913 H 583.524 -1.59612 -1.40135 0
M  V30 5914 H 585.787 -0.669592 -0.671081 0
M  V30 5915 H 585.493 -2.02999 -2.87201 0
M  V30 5916 H 585.367 -0.508749 -3.73753 0
M  V30 5917 H 587.754 0.093568 -2.94952 0
M  V30 5918 H 587.835 -1.4576 -2.10209 0
M  V30 5919 H 587.479 -2.66463 -4.32389 0
M  V30 5920 H 587.409 -1.08893 -5.15218 0
M  V30 5921 H 589.899 -1.17183 -3.59272 0
M  V30 5922 H 590.213 -2.98298 -7.12908 0
M  V30 5923 H 588.558 -2.67626 -6.41406 0
M  V30 5924 H 591.749 -1.5314 -4.42341 0
M  V30 5925 H 591.922 -2.35708 -6.03611 0
M  V30 5926 N 585.328 1.53329 -0.364422 0
M  V30 5927 C 586.576 2.00842 0.225189 0
M  V30 5928 C 586.897 1.25345 1.49378 0
M  V30 5929 O 586.167 0.366396 1.92443 0
M  V30 5930 H 584.747 0.742009 0.0862027 0
M  V30 5931 H 587.409 1.8863 -0.490389 0
M  V30 5932 H 586.505 3.08795 0.452987 0
M  V30 5933 N 586.806 0.0935595 1.57322 0
M  V30 5934 C 588.083 -0.612692 1.85756 0
M  V30 5935 C 588.463 -1.86439 0.99013 0
M  V30 5936 O 587.811 -2.28416 0.0621362 0
M  V30 5937 C 588.021 -0.929547 3.36393 0
M  V30 5938 C 589.369 -1.29366 4.04413 0
M  V30 5939 O 590.393 -1.02061 3.41265 0
M  V30 5940 O 589.252 -1.80498 5.15832 0
M  V30 5941 H 586.346 -0.306444 0.768128 0
M  V30 5942 H 588.892 0.126141 1.69231 0
M  V30 5943 H 587.664 -0.0414766 3.91278 0
M  V30 5944 H 587.287 -1.72441 3.5826 0
M  V30 5945 N 588.284 -1.56567 -0.180126 0
M  V30 5946 C 589.194 -1.98947 -1.24327 0
M  V30 5947 C 590.21 -0.899446 -1.4895 0
M  V30 5948 O 591.386 -1.20639 -1.61271 0
M  V30 5949 C 588.451 -2.33328 -2.56435 0
M  V30 5950 C 587.512 -3.56114 -2.39752 0
M  V30 5951 C 586.745 -3.88845 -3.65561 0
M  V30 5952 O 586.968 -3.22662 -4.70368 0
M  V30 5953 O 585.902 -4.82226 -3.60197 0
M  V30 5954 H 589.728 -2.89634 -0.913565 0
M  V30 5955 H 587.313 -1.44319 -0.386306 0
M  V30 5956 H 589.195 -2.5645 -3.34382 0
M  V30 5957 H 587.87 -1.45806 -2.89002 0
M  V30 5958 H 586.777 -3.38221 -1.59866 0
M  V30 5959 H 588.11 -4.4415 -2.12113 0
M  V30 5960 N 589.762 0.448376 -1.51087 0
M  V30 5961 C 591.008 1.20049 -1.6345 0
M  V30 5962 C 591.341 1.91121 -0.344444 0
M  V30 5963 O 590.616 1.83125 0.655396 0
M  V30 5964 C 590.899 2.22624 -2.83038 0
M  V30 5965 C 590.752 1.55708 -4.21989 0
M  V30 5966 C 592.071 3.23718 -2.98152 0
M  V30 5967 H 589.19 0.435085 -0.59487 0
M  V30 5968 H 591.832 0.491183 -1.83541 0
M  V30 5969 H 589.982 2.83117 -2.66039 0
M  V30 5970 H 591.654 0.986367 -4.50631 0
M  V30 5971 H 589.897 0.859647 -4.25197 0
M  V30 5972 H 590.568 2.30357 -5.01637 0
M  V30 5973 H 593.044 2.73269 -3.13788 0
M  V30 5974 H 591.92 3.92795 -3.83411 0
M  V30 5975 H 592.181 3.89179 -2.09743 0
M  V30 5976 N 591.24 1.41047 0.703093 0
M  V30 5977 C 592.517 1.30493 1.45708 0
M  V30 5978 C 592.897 -0.0709892 2.10981 0
M  V30 5979 O 592.245 -1.08471 2.01113 0
M  V30 5980 C 592.455 2.45287 2.48265 0
M  V30 5981 C 593.803 2.86104 3.13735 0
M  V30 5982 O 594.827 2.44971 2.58587 0
M  V30 5983 O 593.686 3.57206 4.13601 0
M  V30 5984 H 590.78 0.513144 0.648546 0
M  V30 5985 H 593.326 1.52995 0.734208 0
M  V30 5986 H 592.098 3.37135 1.98635 0
M  V30 5987 H 591.721 2.24622 3.28071 0
M  V30 5988 N 592.718 -0.936591 1.26751 0
M  V30 5989 C 593.964 -1.68625 1.13741 0
M  V30 5990 C 594.319 -1.898 -0.315221 0
M  V30 5991 O 593.612 -1.47088 -1.22783 0
M  V30 5992 C 593.806 -3.06099 1.84494 0
M  V30 5993 C 593.635 -2.98338 3.36488 0
M  V30 5994 C 592.405 -3.01104 4.05789 0
M  V30 5995 C 594.603 -2.78128 4.32608 0
M  V30 5996 N 592.585 -2.8369 5.4442 0
M  V30 5997 C 593.956 -2.69329 5.58446 0
M  V30 5998 C 596.011 -2.62946 4.22804 0
M  V30 5999 C 594.714 -2.46899 6.75598 0
M  V30 6000 C 596.74 -2.41892 5.39669 0
M  V30 6001 C 596.102 -2.33829 6.64457 0
M  V30 6002 H 592.201 -0.624227 0.471025 0
M  V30 6003 H 594.785 -1.10798 1.601 0
M  V30 6004 H 592.956 -3.62057 1.40604 0
M  V30 6005 H 594.688 -3.69951 1.64067 0
M  V30 6006 H 591.443 -3.10992 3.57185 0
M  V30 6007 H 591.867 -2.78138 6.17226 0
M  V30 6008 H 596.509 -2.67944 3.27056 0
M  V30 6009 H 594.227 -2.40642 7.71438 0
M  V30 6010 H 597.813 -2.31043 5.33957 0
M  V30 6011 H 596.693 -2.17754 7.53361 0
M  V30 6012 N 594.196 -1.08629 -1.14182 0
M  V30 6013 C 595.442 -0.818556 -1.85546 0
M  V30 6014 C 595.775 0.654076 -1.82854 0
M  V30 6015 O 595.05 1.48099 -1.26083 0
M  V30 6016 C 595.333 -1.34397 -3.3408 0
M  V30 6017 C 595.186 -2.8821 -3.45333 0
M  V30 6018 C 596.505 -0.971069 -4.29253 0
M  V30 6019 H 593.624 -0.298821 -0.673702 0
M  V30 6020 H 596.266 -1.34629 -1.34071 0
M  V30 6021 H 594.416 -0.895064 -3.78049 0
M  V30 6022 H 596.088 -3.41488 -3.10134 0
M  V30 6023 H 594.331 -3.25756 -2.86471 0
M  V30 6024 H 595.002 -3.20047 -4.49749 0
M  V30 6025 H 597.478 -1.35809 -3.93313 0
M  V30 6026 H 596.354 -1.36586 -5.31635 0
M  V30 6027 H 596.615 0.121659 -4.41933 0
M  V30 6028 N 595.674 1.31259 -0.872281 0
M  V30 6029 C 596.637 2.26744 -0.334656 0
M  V30 6030 C 597.637 1.52307 0.515681 0
M  V30 6031 O 598.827 1.71148 0.324656 0
M  V30 6032 C 595.959 3.36841 0.524482 0
M  V30 6033 H 597.152 2.75812 -1.17762 0
M  V30 6034 H 594.705 1.42232 -0.648064 0
M  V30 6035 H 595.44 2.93069 1.38855 0
M  V30 6036 H 595.225 3.92009 -0.0844299 0
M  V30 6037 H 596.715 4.07944 0.892838 0
M  V30 6038 N 597.152 0.631951 1.44375 0
M  V30 6039 C 598.568 0.297642 1.568 0
M  V30 6040 C 598.768 -1.19916 1.61934 0
M  V30 6041 O 597.824 -1.98324 1.56281 0
M  V30 6042 C 599.137 0.990286 2.83926 0
M  V30 6043 C 600.685 0.968507 2.97639 0
M  V30 6044 C 601.16 1.64163 4.27568 0
M  V30 6045 N 602.651 1.60826 4.34384 0
M  V30 6046 C 603.386 2.09802 5.33639 0
M  V30 6047 N 602.882 2.66973 6.39294 0
M  V30 6048 N 604.675 2.00426 5.25153 0
M  V30 6049 H 596.826 1.60353 1.39286 0
M  V30 6050 H 599.089 0.673142 0.667521 0
M  V30 6051 H 598.795 2.04519 2.8612 0
M  V30 6052 H 598.669 0.528563 3.73478 0
M  V30 6053 H 601.056 -0.0779247 2.94997 0
M  V30 6054 H 601.137 1.46873 2.09433 0
M  V30 6055 H 600.781 2.68752 4.3097 0
M  V30 6056 H 600.711 1.11624 5.14634 0
M  V30 6057 H 603.202 1.19087 3.58646 0
M  V30 6058 H 603.515 3.02074 7.11316 0
M  V30 6059 H 601.86 2.71024 6.39977 0
M  V30 6060 H 605.051 1.55483 4.41523 0
M  V30 6061 H 605.224 2.38906 6.02352 0
M  V30 6062 N 598.631 -1.53133 0.372548 0
M  V30 6063 C 599.563 -2.23557 -0.505444 0
M  V30 6064 C 600.576 -1.25211 -1.04049 0
M  V30 6065 O 601.765 -1.51391 -0.945675 0
M  V30 6066 C 598.865 -2.92516 -1.71136 0
M  V30 6067 C 598.038 -4.17428 -1.30661 0
M  V30 6068 C 597.097 -4.69535 -2.37536 0
M  V30 6069 O 596.123 -5.33042 -1.99637 0
M  V30 6070 N 597.325 -4.47947 -3.6922 0
M  V30 6071 H 600.09 -2.9954 0.0978259 0
M  V30 6072 H 597.651 -1.60684 0.198068 0
M  V30 6073 H 599.643 -3.24281 -2.42124 0
M  V30 6074 H 598.213 -2.19944 -2.22134 0
M  V30 6075 H 597.433 -3.91888 -0.426292 0
M  V30 6076 H 598.721 -4.98622 -1.01259 0
M  V30 6077 H 598.119 -3.97219 -4.02783 0
M  V30 6078 H 596.676 -4.84245 -4.36292 0
M  V30 6079 N 600.109 -0.101901 -1.5727 0
M  V30 6080 C 601.039 0.851544 -2.17419 0
M  V30 6081 C 602.02 1.28942 -1.10941 0
M  V30 6082 O 603.205 1.35509 -1.39107 0
M  V30 6083 C 600.335 2.10816 -2.75996 0
M  V30 6084 C 599.289 1.80867 -3.87906 0
M  V30 6085 C 598.615 3.13413 -4.33216 0
M  V30 6086 C 599.915 1.0903 -5.10793 0
M  V30 6087 H 601.609 0.350381 -2.97343 0
M  V30 6088 H 599.155 0.16709 -1.43027 0
M  V30 6089 H 601.108 2.77959 -3.16729 0
M  V30 6090 H 599.832 2.63227 -1.93337 0
M  V30 6091 H 598.491 1.16119 -3.47724 0
M  V30 6092 H 598.139 3.63725 -3.47438 0
M  V30 6093 H 597.839 2.94155 -5.08671 0
M  V30 6094 H 599.363 3.81704 -4.76586 0
M  V30 6095 H 600.777 1.66295 -5.48652 0
M  V30 6096 H 599.174 0.99927 -5.91722 0
M  V30 6097 H 600.244 0.0741704 -4.84843 0
M  V30 6098 N 601.587 1.56661 0.17182 0
M  V30 6099 C 602.833 1.82235 0.889845 0
M  V30 6100 C 603.166 0.679673 1.81918 0
M  V30 6101 O 602.441 -0.318404 1.91876 0
M  V30 6102 C 602.724 3.18195 1.68595 0
M  V30 6103 C 602.577 4.42989 0.779773 0
M  V30 6104 C 603.896 3.5109 2.65375 0
M  V30 6105 H 601.015 0.66291 0.322056 0
M  V30 6106 H 603.657 1.89358 0.15608 0
M  V30 6107 H 601.807 3.12253 2.3115 0
M  V30 6108 H 603.479 4.60997 0.16714 0
M  V30 6109 H 601.722 4.33711 0.0877964 0
M  V30 6110 H 602.393 5.3467 1.3723 0
M  V30 6111 H 604.869 3.57482 2.12946 0
M  V30 6112 H 603.745 4.47298 3.18144 0
M  V30 6113 H 604.006 2.75768 3.45549 0
M  V30 6114 N 603.065 -0.440357 1.51323 0
M  V30 6115 C 603.975 -1.55955 1.75258 0
M  V30 6116 C 604.991 -1.61933 0.636687 0
M  V30 6117 O 606.167 -1.79231 0.918593 0
M  V30 6118 C 603.232 -2.9196 1.86977 0
M  V30 6119 C 602.293 -2.96122 3.10822 0
M  V30 6120 C 601.526 -4.2564 3.21973 0
M  V30 6121 O 601.749 -5.17851 2.39137 0
M  V30 6122 O 600.683 -4.36025 4.14929 0
M  V30 6123 H 604.509 -1.38673 2.70191 0
M  V30 6124 H 602.094 -0.623055 1.35788 0
M  V30 6125 H 603.976 -3.72682 1.96688 0
M  V30 6126 H 602.651 -3.09375 0.952307 0
M  V30 6127 H 601.558 -2.14366 3.06591 0
M  V30 6128 H 602.891 -2.83651 4.02247 0
M  V30 6129 N 604.543 -1.41418 -0.695603 0
M  V30 6130 C 605.773 -1.43921 -1.48224 0
M  V30 6131 C 606.181 -0.0428855 -1.89151 0
M  V30 6132 O 605.524 0.948138 -1.5734 0
M  V30 6133 C 605.586 -2.28466 -2.77567 0
M  V30 6134 C 605.25 -3.76629 -2.58844 0
M  V30 6135 C 606.247 -4.6879 -2.24793 0
M  V30 6136 C 603.932 -4.2067 -2.74485 0
M  V30 6137 C 605.926 -6.02981 -2.06622 0
M  V30 6138 C 603.613 -5.54926 -2.55931 0
M  V30 6139 C 604.611 -6.45897 -2.2205 0
M  V30 6140 O 604.299 -7.77675 -2.03657 0
M  V30 6141 H 604.031 -0.492252 -0.463318 0
M  V30 6142 H 606.585 -1.86347 -0.863952 0
M  V30 6143 H 604.815 -1.80853 -3.41802 0
M  V30 6144 H 606.504 -2.2267 -3.39371 0
M  V30 6145 H 607.27 -4.36055 -2.12323 0
M  V30 6146 H 603.149 -3.50167 -2.9984 0
M  V30 6147 H 606.693 -6.73951 -1.80099 0
M  V30 6148 H 602.59 -5.8724 -2.67991 0
M  V30 6149 H 603.358 -7.88819 -2.1842 0
M  V30 6150 N 606.021 0.929856 -1.27246 0
M  V30 6151 C 606.971 2.01629 -1.06442 0
M  V30 6152 C 607.955 1.60899 0.00687842 0
M  V30 6153 O 609.147 1.75733 -0.211407 0
M  V30 6154 C 606.276 3.35849 -0.711361 0
M  V30 6155 C 605.362 3.8303 -1.82069 0
M  V30 6156 N 605.753 4.02743 -3.05993 0
M  V30 6157 C 604.051 4.12046 -1.70687 0
M  V30 6158 C 604.752 4.42001 -3.78167 0
M  V30 6159 N 603.728 4.4935 -3.05918 0
M  V30 6160 H 607.53 2.14898 -2.00489 0
M  V30 6161 H 605.044 1.11654 -1.17929 0
M  V30 6162 H 607.041 4.13343 -0.543442 0
M  V30 6163 H 605.701 3.23944 0.221517 0
M  V30 6164 H 606.712 3.89112 -3.41778 0
M  V30 6165 H 603.389 4.08866 -0.844681 0
M  V30 6166 H 604.779 4.6535 -4.84664 0
M  V30 6167 N 607.499 1.09233 1.13605 0
M  V30 6168 C 608.776 0.739633 1.81077 0
M  V30 6169 C 609.156 -0.775595 1.96336 0
M  V30 6170 O 608.504 -1.69726 1.52988 0
M  V30 6171 C 608.714 1.47636 3.16235 0
M  V30 6172 C 610.062 1.64087 3.91613 0
M  V30 6173 O 611.086 1.43871 3.25852 0
M  V30 6174 O 609.945 1.97511 5.0956 0
M  V30 6175 H 607.039 0.265464 0.783236 0
M  V30 6176 H 609.585 1.19441 1.20549 0
M  V30 6177 H 608.357 2.50818 3.00344 0
M  V30 6178 H 607.98 1.01362 3.84462 0
M  V30 6179 N 608.977 -1.30795 0.87923 0
M  V30 6180 C 610.223 -1.96653 0.495519 0
M  V30 6181 C 610.556 -1.69282 -0.951703 0
M  V30 6182 O 609.831 -0.994374 -1.6716 0
M  V30 6183 C 610.114 -3.51898 0.764174 0
M  V30 6184 C 609.967 -3.88808 2.2616 0
M  V30 6185 C 611.286 -4.39462 0.236825 0
M  V30 6186 H 608.405 -0.7143 0.181507 0
M  V30 6187 H 611.047 -1.54765 1.10217 0
M  V30 6188 H 609.197 -3.87709 0.247841 0
M  V30 6189 H 610.869 -3.63051 2.8459 0
M  V30 6190 H 609.112 -3.37082 2.73053 0
M  V30 6191 H 609.783 -4.97086 2.4002 0
M  V30 6192 H 612.259 -4.10528 0.678683 0
M  V30 6193 H 611.135 -5.47018 0.454176 0
M  V30 6194 H 611.396 -4.33621 -0.861683 0
M  V30 6195 N 610.455 -0.639598 -1.44038 0
M  V30 6196 C 611.871 -0.305953 -1.5664 0
M  V30 6197 C 612.071 1.19055 -1.62567 0
M  V30 6198 O 611.127 1.97492 -1.57331 0
M  V30 6199 C 612.44 -1.00533 -2.83397 0
M  V30 6200 C 613.988 -0.984278 -2.97121 0
M  V30 6201 C 614.463 -1.66428 -4.26691 0
M  V30 6202 N 615.954 -1.63127 -4.33525 0
M  V30 6203 C 616.689 -2.12629 -5.32519 0
M  V30 6204 N 616.185 -2.70359 -6.3787 0
M  V30 6205 N 617.978 -2.03208 -5.24083 0
M  V30 6206 H 610.129 -1.6109 -1.38434 0
M  V30 6207 H 612.392 -0.676672 -0.663942 0
M  V30 6208 H 612.098 -2.06034 -2.85032 0
M  V30 6209 H 611.972 -0.548362 -3.73193 0
M  V30 6210 H 614.359 0.0622792 -2.95034 0
M  V30 6211 H 614.44 -1.47981 -2.08651 0
M  V30 6212 H 614.084 -2.71034 -4.29538 0
M  V30 6213 H 614.014 -1.14351 -5.14034 0
M  V30 6214 H 616.505 -1.20987 -3.58009 0
M  V30 6215 H 616.818 -3.05842 -7.09704 0
M  V30 6216 H 615.163 -2.74414 -6.38531 0
M  V30 6217 H 618.354 -1.57823 -4.40692 0
M  V30 6218 H 618.527 -2.42097 -6.01077 0
M  V30 6219 N 611.933 1.52934 -0.380664 0
M  V30 6220 C 612.896 2.24809 0.446473 0
M  V30 6221 C 613.896 1.26133 0.997347 0
M  V30 6222 O 615.086 1.50297 0.880714 0
M  V30 6223 C 612.218 2.99649 1.62553 0
M  V30 6224 H 613.411 2.99343 -0.182677 0
M  V30 6225 H 610.964 1.55736 -0.132618 0
M  V30 6226 H 611.699 2.29395 2.29235 0
M  V30 6227 H 611.484 3.72066 1.23732 0
M  V30 6228 H 612.974 3.54246 2.21133 0
M  V30 6229 N 613.412 0.11024 1.57214 0
M  V30 6230 C 614.689 -0.592956 1.86396 0
M  V30 6231 C 615.069 -1.85379 1.00985 0
M  V30 6232 O 614.417 -2.28337 0.0863592 0
M  V30 6233 C 614.627 -0.893816 3.3736 0
M  V30 6234 C 615.975 -1.25069 4.05762 0
M  V30 6235 O 616.999 -0.984356 3.42329 0
M  V30 6236 O 615.858 -1.75017 5.17718 0
M  V30 6237 H 612.952 -0.29828 0.771335 0
M  V30 6238 H 615.498 0.144083 1.69087 0
M  V30 6239 H 614.27 2.6031e-05 3.913 0
M  V30 6240 H 613.893 -1.68631 3.60068 0
M  V30 6241 N 614.89 -1.56749 -0.16351 0
M  V30 6242 C 616.306 -1.51043 -0.515567 0
M  V30 6243 C 616.506 -0.815855 -1.84245 0
M  V30 6244 O 615.562 -0.379477 -2.49632 0
M  V30 6245 C 616.875 -2.95791 -0.541114 0
M  V30 6246 C 618.423 -3.0664 -0.627776 0
M  V30 6247 C 618.898 -4.52861 -0.684141 0
M  V30 6248 N 620.389 -4.5714 -0.746818 0
M  V30 6249 C 621.124 -5.67634 -0.811137 0
M  V30 6250 N 620.62 -6.8774 -0.835811 0
M  V30 6251 N 622.413 -5.55624 -0.850756 0
M  V30 6252 H 614.564 -2.00307 0.70645 0
M  V30 6253 H 616.827 -0.912876 0.255659 0
M  V30 6254 H 616.533 -3.49797 0.365329 0
M  V30 6255 H 616.407 -3.50858 -1.38487 0
M  V30 6256 H 618.794 -2.52663 -1.52464 0
M  V30 6257 H 618.875 -2.54645 0.242805 0
M  V30 6258 H 618.519 -5.07472 0.2085 0
M  V30 6259 H 618.449 -5.02621 -1.57098 0
M  V30 6260 H 620.94 -3.70669 -0.735717 0
M  V30 6261 H 621.253 -7.67701 -0.886279 0
M  V30 6262 H 619.598 -6.90334 -0.803958 0
M  V30 6263 H 622.789 -4.60709 -0.828535 0
M  V30 6264 H 622.962 -6.41756 -0.897418 0
M  V30 6265 N 616.368 0.432326 -1.51554 0
M  V30 6266 C 617.331 1.50765 -1.72634 0
M  V30 6267 C 618.331 1.49334 -0.596314 0
M  V30 6268 O 619.521 1.51268 -0.863925 0
M  V30 6269 C 616.653 2.90284 -1.7874 0
M  V30 6270 H 617.846 1.33377 -2.68609 0
M  V30 6271 H 615.399 0.661329 -1.4162 0
M  V30 6272 H 616.134 3.13071 -0.845977 0
M  V30 6273 H 615.919 2.92727 -2.6087 0
M  V30 6274 H 617.409 3.68282 -1.96871 0
M  V30 6275 N 617.846 1.41785 0.688094 0
M  V30 6276 C 619.092 1.41753 1.4503 0
M  V30 6277 C 619.425 0.0290745 1.94178 0
M  V30 6278 O 618.7 -0.944456 1.7003 0
M  V30 6279 C 618.983 2.43069 2.65686 0
M  V30 6280 C 618.836 3.91053 2.22256 0
M  V30 6281 C 620.155 2.41543 3.67893 0
M  V30 6282 H 617.274 0.516202 0.526027 0
M  V30 6283 H 619.916 1.73111 0.783105 0
M  V30 6284 H 618.066 2.1646 3.2261 0
M  V30 6285 H 619.738 4.28594 1.70602 0
M  V30 6286 H 617.981 4.05559 1.53963 0
M  V30 6287 H 618.652 4.57501 3.08863 0
M  V30 6288 H 621.128 2.65175 3.20658 0
M  V30 6289 H 620.004 3.14434 4.49914 0
M  V30 6290 H 620.265 1.43666 4.18106 0
M  V30 6291 N 619.324 -0.923095 1.27737 0
M  V30 6292 C 620.287 -2.00587 1.10894 0
M  V30 6293 C 621.287 -1.60718 0.0514927 0
M  V30 6294 O 622.477 -1.71658 0.296481 0
M  V30 6295 C 619.609 -3.33829 0.690717 0
M  V30 6296 H 620.802 -2.16959 2.07048 0
M  V30 6297 H 618.355 -1.10451 1.1059 0
M  V30 6298 H 619.09 -3.23157 -0.272 0
M  V30 6299 H 618.875 -3.64125 1.45448 0
M  V30 6300 H 620.365 -4.13336 0.595252 0
M  V30 6301 N 620.802 -1.09834 -1.13024 0
M  V30 6302 C 621.732 -0.763451 -2.20666 0
M  V30 6303 C 622.713 0.260778 -1.68089 0
M  V30 6304 O 623.898 0.127915 -1.93778 0
M  V30 6305 C 621.028 -0.187744 -3.46792 0
M  V30 6306 C 619.982 -1.14196 -4.12484 0
M  V30 6307 C 619.308 -0.427755 -5.32986 0
M  V30 6308 C 620.608 -2.48607 -4.59338 0
M  V30 6309 H 622.302 -1.66347 -2.48936 0
M  V30 6310 H 619.848 -0.801261 -1.19649 0
M  V30 6311 H 621.801 0.0586375 -4.21359 0
M  V30 6312 H 620.525 0.747485 -3.17931 0
M  V30 6313 H 619.184 -1.37369 -3.3989 0
M  V30 6314 H 618.832 0.511747 -5.0039 0
M  V30 6315 H 618.532 -1.06403 -5.77886 0
M  V30 6316 H 620.056 -0.189772 -6.10305 0
M  V30 6317 H 621.47 -2.29618 -5.25308 0
M  V30 6318 H 619.867 -3.08062 -5.14993 0
M  V30 6319 H 620.937 -3.09062 -3.73642 0
M  V30 6320 N 622.28 1.30327 -0.886154 0
M  V30 6321 C 623.21 2.30549 -0.370028 0
M  V30 6322 C 624.191 1.61039 0.547751 0
M  V30 6323 O 625.376 1.8864 0.461353 0
M  V30 6324 C 622.506 3.44808 0.415275 0
M  V30 6325 C 621.46 4.26024 -0.41085 0
M  V30 6326 C 620.786 5.32347 0.501128 0
M  V30 6327 C 622.086 4.95433 -1.65359 0
M  V30 6328 H 623.78 2.73969 -1.20754 0
M  V30 6329 H 621.326 1.3171 -0.582097 0
M  V30 6330 H 623.279 4.13986 0.78699 0
M  V30 6331 H 622.003 3.00197 1.28644 0
M  V30 6332 H 620.662 3.58535 -0.764719 0
M  V30 6333 H 620.31 4.83982 1.37004 0
M  V30 6334 H 620.01 5.87581 -0.0478356 0
M  V30 6335 H 621.534 6.0438 0.869333 0
M  V30 6336 H 622.948 5.5712 -1.35239 0
M  V30 6337 H 621.345 5.60537 -2.14284 0
M  V30 6338 H 622.415 4.21493 -2.39733 0
M  V30 6339 N 623.758 0.647228 1.43697 0
M  V30 6340 C 624.705 -0.0480092 2.3075 0
M  V30 6341 C 625.675 -0.820705 1.44408 0
M  V30 6342 O 626.86 -0.798515 1.73287 0
M  V30 6343 C 624 -1.01259 3.2991 0
M  V30 6344 C 623.113 -0.236629 4.31351 0
M  V30 6345 C 622.248 -1.19447 5.17596 0
M  V30 6346 C 621.287 -0.408595 6.10735 0
M  V30 6347 N 620.424 -1.31772 6.89623 0
M  V30 6348 H 625.264 0.700238 2.89656 0
M  V30 6349 H 622.801 0.357082 1.427 0
M  V30 6350 H 624.759 -1.58538 3.85903 0
M  V30 6351 H 623.389 -1.72778 2.72667 0
M  V30 6352 H 622.441 0.452353 3.77701 0
M  V30 6353 H 623.753 0.374731 4.9739 0
M  V30 6354 H 622.907 -1.83809 5.78186 0
M  V30 6355 H 621.646 -1.83975 4.51669 0
M  V30 6356 H 620.651 0.24841 5.49239 0
M  V30 6357 H 621.876 0.232188 6.78703 0
M  V30 6358 H 619.822 -1.94991 6.2635 0
M  V30 6359 H 619.739 -0.760779 7.52162 0
M  V30 6360 H 621.007 -1.94967 7.54724 0
M  V30 6361 N 625.236 -1.5273 0.388769 0
M  V30 6362 C 626.168 -2.24081 -0.481704 0
M  V30 6363 C 627.181 -1.26307 -1.02715 0
M  V30 6364 O 628.37 -1.52386 -0.929565 0
M  V30 6365 C 625.47 -2.94315 -1.68024 0
M  V30 6366 C 624.643 -4.18791 -1.26226 0
M  V30 6367 C 623.702 -4.72028 -2.32542 0
M  V30 6368 O 622.728 -5.35129 -1.93972 0
M  V30 6369 N 623.93 -4.51838 -3.64448 0
M  V30 6370 H 626.695 -2.9942 0.129591 0
M  V30 6371 H 624.256 -1.60465 0.2151 0
M  V30 6372 H 626.248 -3.26831 -2.38671 0
M  V30 6373 H 624.818 -2.22287 -2.19789 0
M  V30 6374 H 624.038 -3.92318 -0.384703 0
M  V30 6375 H 625.326 -4.99668 -0.959647 0
M  V30 6376 H 624.724 -4.01468 -3.98547 0
M  V30 6377 H 623.281 -4.88845 -4.31131 0
M  V30 6378 N 626.714 -0.118576 -1.57153 0
M  V30 6379 C 627.661 0.831789 -2.1529 0
M  V30 6380 C 628.631 1.26385 -1.07778 0
M  V30 6381 O 629.816 1.34144 -1.35684 0
M  V30 6382 C 626.956 2.07664 -2.75626 0
M  V30 6383 C 626.069 1.69298 -3.97444 0
M  V30 6384 C 625.204 2.88747 -4.45868 0
M  V30 6385 C 624.243 2.46619 -5.60219 0
M  V30 6386 N 623.38 3.5898 -6.03389 0
M  V30 6387 H 628.22 0.329183 -2.96176 0
M  V30 6388 H 625.757 0.150792 -1.46325 0
M  V30 6389 H 627.715 2.80601 -3.08738 0
M  V30 6390 H 626.345 2.55384 -1.97431 0
M  V30 6391 H 625.397 0.862374 -3.70496 0
M  V30 6392 H 626.709 1.34338 -4.80369 0
M  V30 6393 H 625.863 3.69909 -4.80887 0
M  V30 6394 H 624.602 3.26933 -3.61892 0
M  V30 6395 H 623.607 1.63889 -5.24805 0
M  V30 6396 H 624.832 2.0955 -6.45961 0
M  V30 6397 H 622.778 3.9684 -5.22354 0
M  V30 6398 H 622.695 3.27942 -6.81168 0
M  V30 6399 H 623.963 4.40583 -6.43045 0
M  V30 6400 N 628.193 1.56834 0.155195 0
M  V30 6401 C 629.609 1.51315 0.50755 0
M  V30 6402 C 629.809 0.825614 1.83809 0
M  V30 6403 O 628.865 0.39271 2.49427 0
M  V30 6404 C 630.178 2.96074 0.52542 0
M  V30 6405 C 631.726 3.06968 0.611505 0
M  V30 6406 C 632.201 4.53218 0.660115 0
M  V30 6407 N 633.692 4.5753 0.722564 0
M  V30 6408 C 634.427 5.68056 0.781023 0
M  V30 6409 N 633.923 6.88173 0.799327 0
M  V30 6410 N 635.716 5.56068 0.821278 0
M  V30 6411 H 627.867 1.9993 -0.717063 0
M  V30 6412 H 630.13 0.911507 -0.260496 0
M  V30 6413 H 629.836 3.49599 -0.383875 0
M  V30 6414 H 629.71 3.51587 1.36624 0
M  V30 6415 H 632.097 2.53468 1.51122 0
M  V30 6416 H 632.178 2.54513 -0.256306 0
M  V30 6417 H 631.822 5.07354 -0.23541 0
M  V30 6418 H 631.752 5.03447 1.5443 0
M  V30 6419 H 634.243 3.71054 0.716049 0
M  V30 6420 H 634.556 7.6816 0.845553 0
M  V30 6421 H 632.901 6.90751 0.767337 0
M  V30 6422 H 636.092 4.61142 0.804091 0
M  V30 6423 H 636.265 6.42223 0.863372 0
M  V30 6424 N 629.671 -0.424282 1.51781 0
M  V30 6425 C 630.919 -1.17028 1.64769 0
M  V30 6426 C 631.24 -1.91409 0.372523 0
M  V30 6427 O 630.51 -1.86091 -0.612108 0
M  V30 6428 H 629.09 -0.434992 0.607282 0
M  V30 6429 H 631.752 -0.485169 1.88765 0
M  V30 6430 H 630.848 -1.8927 2.4816 0
M  V30 6431 N 631.149 -1.42148 -0.680565 0
M  V30 6432 C 632.081 -1.41119 -1.80605 0
M  V30 6433 C 633.094 -0.311099 -1.598 0
M  V30 6434 O 634.283 -0.573813 -1.69026 0
M  V30 6435 C 631.383 -1.18204 -3.17618 0
M  V30 6436 C 630.556 -2.40537 -3.65322 0
M  V30 6437 C 629.615 -2.13254 -4.8105 0
M  V30 6438 O 628.641 -2.8641 -4.91892 0
M  V30 6439 N 629.843 -1.13208 -5.69354 0
M  V30 6440 H 632.608 -2.38128 -1.81975 0
M  V30 6441 H 630.169 -1.36953 -0.863446 0
M  V30 6442 H 632.161 -0.97878 -3.92686 0
M  V30 6443 H 630.731 -0.29738 -3.11182 0
M  V30 6444 H 629.951 -2.76468 -2.80996 0
M  V30 6445 H 631.239 -3.22012 -3.93936 0
M  V30 6446 H 630.637 -0.526893 -5.63241 0
M  V30 6447 H 629.194 -0.988699 -6.44258 0
M  V30 6448 O 632.666 0.823011 -1.38956 0
M  V30 6449 H 633.357 1.46633 -1.26564 0
M  V30 END ATOM
M  V30 BEGIN BOND
M  V30 END BOND
M  V30 END CTAB
M  END
$$$$
