drugbank_target|P17844 Probable ATP-dependent RNA helicase DDX5 (DB11638)
 OpenBabel12092121093D

  0  0  0     0  0            999 V3000
M  V30 BEGIN CTAB
M  V30 COUNTS 13873 14816 0 0 0
M  V30 BEGIN ATOM
M  V30 1 H -2.588 8.49073 -0.0679273 0
M  V30 2 O -1.492 9.37262 0.0843559 0
M  V30 3 P 0 8.791 0 0
M  V30 4 O 1.422 9.31096 0.027933 0
M  V30 5 O -0.36 7.77869 -1.04071 0
M  V30 6 O -0.323 8.09533 1.41463 0
M  V30 7 C -0.483 9.0349 2.53943 0
M  V30 8 C 0.057 8.35226 3.79016 0
M  V30 9 O -0.999 7.57992 4.15078 0
M  V30 10 C 1.275 7.45087 3.67298 0
M  V30 11 O 2.013 7.27796 4.85194 0
M  V30 12 C 0.606 6.17323 3.12027 0
M  V30 13 O 1.405 5.04231 3.47188 0
M  V30 14 C -0.731 6.19961 3.81809 0
M  V30 15 H -0.699 5.58218 4.73051 0
M  V30 16 H 0.484 6.21726 2.02589 0
M  V30 17 H 1.968 7.86112 2.9231 0
M  V30 18 H 0.274 9.11627 4.55076 0
M  V30 19 H 0.084 9.9573 2.34194 0
M  V30 20 H -1.546 9.2792 2.67832 0
M  V30 21 H 1.093 4.67702 4.28772 0
M  V30 22 P 2.95057 7.39546 4.75277 0
M  V30 23 O 4.37257 7.81777 5.05738 0
M  V30 24 O 2.59057 7.1065 3.32998 0
M  V30 25 O 2.62757 6.04542 5.56673 0
M  V30 26 C 2.46757 6.22772 7.02095 0
M  V30 27 C 3.00757 4.97725 7.70406 0
M  V30 28 O 1.95157 4.13256 7.58987 0
M  V30 29 C 4.22557 4.28231 7.11815 0
M  V30 30 O 4.96357 3.49945 8.01648 0
M  V30 31 C 3.55657 3.5063 5.96244 0
M  V30 32 O 4.35557 2.36482 5.64681 0
M  V30 33 C 2.21957 3.15122 6.56374 0
M  V30 34 H 2.25157 2.13853 6.99751 0
M  V30 35 H 3.43457 4.13501 5.06559 0
M  V30 36 H 4.91857 5.03285 6.70911 0
M  V30 37 H 3.22457 5.20877 8.75697 0
M  V30 38 H 3.03457 7.11046 7.35349 0
M  V30 39 H 1.40457 6.35815 7.26986 0
M  V30 40 H 4.04357 1.61644 6.13565 0
M  V30 41 P 5.90114 3.65191 7.99657 0
M  V30 42 O 7.32314 3.84333 8.48297 0
M  V30 43 O 5.54114 4.17805 6.64342 0
M  V30 44 O 5.57814 2.07613 7.95143 0
M  V30 45 C 5.41814 1.44328 9.27336 0
M  V30 46 C 5.95814 0.0220012 9.17097 0
M  V30 47 O 4.90314 -0.626867 8.61923 0
M  V30 48 C 7.17614 -0.24586 8.30336 0
M  V30 49 O 7.91414 -1.39011 8.63583 0
M  V30 50 C 6.50814 -0.273849 6.91158 0
M  V30 51 O 7.30614 -1.06331 6.02794 0
M  V30 52 C 5.17014 -0.897649 7.22545 0
M  V30 53 N 4.12714 -0.292839 6.41732 0
M  V30 54 C 4.18914 1.00068 6.10757 0
M  V30 55 N 3.14414 1.36468 5.35794 0
M  V30 56 C 2.41014 0.258894 5.2366 0
M  V30 57 C 1.10414 0.0670682 4.65752 0
M  V30 58 O 0.37114 0.902443 4.10497 0
M  V30 59 N 0.67414 -1.2131 4.75881 0
M  V30 60 C 1.42314 -2.24934 5.37101 0
M  V30 61 N 0.82614 -3.48783 5.33984 0
M  V30 62 N 2.57614 -2.0844 5.95684 0
M  V30 63 C 3.03314 -0.81395 5.87791 0
M  V30 64 H 5.20214 -1.9841 7.04286 0
M  V30 65 H 6.38514 0.739815 6.49601 0
M  V30 66 H 7.87014 0.598315 8.36563 0
M  V30 67 H 6.17514 -0.352479 10.1829 0
M  V30 68 H 5.98514 2.00611 10.0304 0
M  V30 69 H 4.35414 1.41843 9.55327 0
M  V30 70 H -0.22186 -1.44434 4.37895 0
M  V30 71 H 4.98514 1.67697 6.42268 0
M  V30 72 H -0.08486 -3.60543 4.87699 0
M  V30 73 H 1.29114 -4.29232 5.7819 0
M  V30 74 H 6.99514 -1.95704 6.0346 0
M  V30 75 P 8.85171 -1.25109 8.70152 0
M  V30 76 O 10.2527 -1.31452 9.27431 0
M  V30 77 O 8.47371 -0.0458113 7.89887 0
M  V30 78 O 8.52871 -2.55201 7.81066 0
M  V30 79 C 8.36871 -3.79939 8.58154 0
M  V30 80 C 8.90871 -4.93969 7.72701 0
M  V30 81 O 7.85271 -5.18666 6.91125 0
M  V30 82 C 10.1257 -4.69597 6.85231 0
M  V30 83 O 10.8647 -5.83832 6.51337 0
M  V30 84 C 9.45871 -3.96706 5.66633 0
M  V30 85 O 10.2567 -4.15346 4.49615 0
M  V30 86 C 8.12071 -4.66153 5.59313 0
M  V30 87 N 7.07771 -3.71582 5.24027 0
M  V30 88 C 6.04271 -4.15133 4.44901 0
M  V30 89 O 6.08171 -5.32122 4.00336 0
M  V30 90 N 5.03071 -3.30554 4.15693 0
M  V30 91 C 5.07871 -2.04701 4.61105 0
M  V30 92 C 6.17471 -1.57111 5.38655 0
M  V30 93 C 7.14071 -2.44234 5.68454 0
M  V30 94 H 8.15271 -5.47604 4.85148 0
M  V30 95 H 9.33571 -2.8955 5.86187 0
M  V30 96 H 10.8197 -4.01995 7.36197 0
M  V30 97 H 9.12571 -5.81019 8.37003 0
M  V30 98 H 8.93471 -3.73517 9.52265 0
M  V30 99 H 7.30471 -3.97122 8.80267 0
M  V30 100 H 6.22271 -0.538464 5.72373 0
M  V30 101 H 7.98671 -2.11927 6.29377 0
M  V30 102 H 10.0407 -4.98352 4.09633 0
M  V30 103 P 11.8023 -5.75688 6.64379 0
M  V30 104 O 13.2243 -6.11849 7.01846 0
M  V30 105 O 11.4423 -4.30744 6.56026 0
M  V30 106 O 11.4793 -6.37042 5.19165 0
M  V30 107 C 11.3193 -7.83578 5.16515 0
M  V30 108 C 11.8593 -8.33398 3.83019 0
M  V30 109 O 10.8033 -8.10074 3.01034 0
M  V30 110 C 13.0773 -7.65514 3.2257 0
M  V30 111 O 13.8153 -8.4329 2.32297 0
M  V30 112 C 12.4083 -6.40075 2.62207 0
M  V30 113 O 13.2073 -5.92589 1.53712 0
M  V30 114 C 11.0713 -6.9454 2.18503 0
M  V30 115 H 11.1033 -7.23063 1.12091 0
M  V30 116 H 12.2863 -5.6025 3.37201 0
M  V30 117 H 13.7703 -7.35707 4.02681 0
M  V30 118 H 12.0763 -9.40912 3.9095 0
M  V30 119 H 11.8863 -8.29056 5.99158 0
M  V30 120 H 10.2563 -8.10073 5.25882 0
M  V30 121 H 12.8953 -6.30324 0.726794 0
M  V30 122 P 14.7528 -8.4349 2.47671 0
M  V30 123 O 16.1748 -8.94167 2.5964 0
M  V30 124 O 14.3928 -7.1704 3.19006 0
M  V30 125 O 14.4298 -8.16596 0.923387 0
M  V30 126 C 14.2698 -9.38437 0.108857 0
M  V30 127 C 14.8098 -9.08175 -1.28353 0
M  V30 128 O 13.7538 -8.44229 -1.84713 0
M  V30 129 C 16.0278 -8.18386 -1.42505 0
M  V30 130 O 16.7659 -8.3501 -2.60497 0
M  V30 131 C 15.3588 -6.80225 -1.25468 0
M  V30 132 O 16.1578 -5.81621 -1.91066 0
M  V30 133 C 14.0218 -7.02416 -1.9168 0
M  V30 134 H 14.0538 -6.6888 -2.96621 0
M  V30 135 H 15.2368 -6.53617 -0.192223 0
M  V30 136 H 16.7208 -8.36622 -0.589963 0
M  V30 137 H 15.0268 -10.0291 -1.79807 0
M  V30 138 H 14.8368 -10.2138 0.558219 0
M  V30 139 H 13.2068 -9.6579 0.0444202 0
M  V30 140 H 15.8458 -5.69556 -2.79637 0
M  V30 141 P 17.7034 -8.4349 -2.47671 0
M  V30 142 O 19.1254 -8.92593 -2.65 0
M  V30 143 O 17.3434 -7.7568 -1.19296 0
M  V30 144 O 17.3804 -7.36886 -3.63805 0
M  V30 145 C 17.2204 -7.95349 -4.982 0
M  V30 146 C 17.7604 -6.94612 -5.98974 0
M  V30 147 O 16.7044 -6.10347 -6.11815 0
M  V30 148 C 18.9784 -6.11426 -5.62335 0
M  V30 149 O 19.7164 -5.6162 -6.70584 0
M  V30 150 C 18.3094 -5.04409 -4.73308 0
M  V30 151 O 19.1084 -3.85992 -4.75183 0
M  V30 152 C 16.9724 -4.8728 -5.41006 0
M  V30 153 H 17.0044 -4.02333 -6.11157 0
M  V30 154 H 18.1874 -5.39466 -3.69543 0
M  V30 155 H 19.6714 -6.71916 -5.01943 0
M  V30 156 H 17.9774 -7.4649 -6.93477 0
M  V30 157 H 17.7874 -8.89416 -5.05237 0
M  V30 158 H 16.1574 -8.14876 -5.18409 0
M  V30 159 H 18.7964 -3.27957 -5.4317 0
M  V30 160 P 20.654 -5.75688 -6.64379 0
M  V30 161 O 22.075 -6.07692 -7.0558 0
M  V30 162 O 20.294 -5.88047 -5.19722 0
M  V30 163 O 20.331 -4.2322 -7.04443 0
M  V30 164 C 20.17 -3.99785 -8.49201 0
M  V30 165 C 20.711 -2.60516 -8.79425 0
M  V30 166 O 19.656 -1.82663 -8.44573 0
M  V30 167 C 21.929 -2.10343 -8.03628 0
M  V30 168 O 22.667 -1.09919 -8.67766 0
M  V30 169 C 21.261 -1.68446 -6.70876 0
M  V30 170 O 22.059 -0.684109 -6.08265 0
M  V30 171 C 19.923 -1.17436 -7.18567 0
M  V30 172 N 18.88 -1.52699 -6.23988 0
M  V30 173 C 19.049 -2.578 -5.40574 0
M  V30 174 N 18.022 -2.78966 -4.61193 0
M  V30 175 C 17.137 -1.78725 -4.95769 0
M  V30 176 C 15.87 -1.45727 -4.44207 0
M  V30 177 N 15.305 -0.374977 -5.05812 0
M  V30 178 C 15.907 0.345585 -6.05615 0
M  V30 179 N 17.084 0.0787651 -6.56253 0
M  V30 180 C 17.659 -1.00499 -5.96189 0
M  V30 181 H 21.138 -2.53396 -6.02698 0
M  V30 182 H 22.621 -2.93881 -7.85526 0
M  V30 183 H 20.927 -2.52078 -9.87225 0
M  V30 184 H 20.737 -4.75072 -9.05887 0
M  V30 185 H 19.107 -4.05244 -8.76668 0
M  V30 186 H 19.949 -3.18977 -5.3945 0
M  V30 187 H 21.747 0.177619 -6.34151 0
M  V30 188 P 23.6046 -1.25109 -8.70152 0
M  V30 189 O 25.0266 -1.29744 -9.22016 0
M  V30 190 O 23.2446 -2.13714 -7.55141 0
M  V30 191 O 23.2816 0.248149 -8.21425 0
M  V30 192 C 23.1216 1.22779 -9.30434 0
M  V30 193 C 23.6616 2.56293 -8.80664 0
M  V30 194 O 22.6056 3.02979 -8.09349 0
M  V30 195 C 24.8796 2.57523 -7.89775 0
M  V30 196 O 25.6176 3.7668 -7.89438 0
M  V30 197 C 24.2106 2.20997 -6.55446 0
M  V30 198 O 25.0096 2.71895 -5.48509 0
M  V30 199 C 22.8736 2.89693 -6.67988 0
M  V30 200 H 22.9056 3.88793 -6.19859 0
M  V30 201 H 24.0886 1.12046 -6.44229 0
M  V30 202 H 25.5726 1.7746 -8.19711 0
M  V30 203 H 23.8786 3.20706 -9.67112 0
M  V30 204 H 23.6886 0.901032 -10.1892 0
M  V30 205 H 22.0586 1.33049 -9.56592 0
M  V30 206 H 24.6976 3.57847 -5.23962 0
M  V30 207 P 26.5551 3.65191 -7.99657 0
M  V30 208 O 27.9761 3.89374 -8.45885 0
M  V30 209 O 26.1951 2.28472 -7.50807 0
M  V30 210 O 26.2321 4.64972 -6.77611 0
M  V30 211 C 26.0711 6.06383 -7.16428 0
M  V30 212 C 26.6121 6.91731 -6.02299 0
M  V30 213 O 25.5571 6.92369 -5.17005 0
M  V30 214 C 27.8301 6.43627 -5.25174 0
M  V30 215 O 28.5681 7.43686 -4.60469 0
M  V30 216 C 27.1621 5.40275 -4.31916 0
M  V30 217 O 27.9601 5.24878 -3.14911 0
M  V30 218 C 25.8241 6.04847 -4.05327 0
M  V30 219 N 24.7811 5.04166 -3.98114 0
M  V30 220 C 24.9501 3.84629 -4.59066 0
M  V30 221 N 23.9231 3.0363 -4.45343 0
M  V30 222 C 23.0381 3.76722 -3.68523 0
M  V30 223 C 21.7711 3.43528 -3.17088 0
M  V30 224 N 21.2061 4.44526 -2.44231 0
M  V30 225 C 21.8081 5.65243 -2.20146 0
M  V30 226 N 22.9851 6.00221 -2.65453 0
M  V30 227 C 23.5601 5.00564 -3.39083 0
M  V30 228 H 27.0391 4.42969 -4.80867 0
M  V30 229 H 28.5221 5.92458 -5.93643 0
M  V30 230 H 26.8281 7.93295 -6.39407 0
M  V30 231 H 26.6381 6.26671 -8.0846 0
M  V30 232 H 25.0081 6.29101 -7.32804 0
M  V30 233 H 25.8501 3.58193 -5.14248 0
M  V30 234 H 27.6481 5.84223 -2.47279 0
M  V30 235 P 29.5057 7.39546 -4.75277 0
M  V30 236 O 30.9277 7.84966 -5.01146 0
M  V30 237 O 29.1457 5.9812 -5.08098 0
M  V30 238 O 29.1827 7.57503 -3.1866 0
M  V30 239 C 29.0227 8.97357 -2.74833 0
M  V30 240 C 29.5627 9.0745 -1.32694 0
M  V30 241 O 28.5077 8.62072 -0.606159 0
M  V30 242 C 30.7807 8.25383 -0.938334 0
M  V30 243 O 31.5187 8.74577 0.146954 0
M  V30 244 C 30.1127 6.8802 -0.712559 0
M  V30 245 O 30.9107 6.11791 0.194623 0
M  V30 246 C 28.7747 7.27966 -0.139777 0
M  V30 247 N 27.7317 6.39368 -0.623421 0
M  V30 248 C 27.7937 5.90299 -1.85969 0
M  V30 249 N 26.7487 5.10919 -2.1133 0
M  V30 250 C 26.0147 5.14646 -1.0015 0
M  V30 251 C 24.7087 4.60057 -0.729219 0
M  V30 252 O 23.9757 3.93476 -1.47746 0
M  V30 253 N 24.2787 4.88302 0.523505 0
M  V30 254 C 25.0277 5.63646 1.46207 0
M  V30 255 N 24.4307 5.78186 2.69239 0
M  V30 256 N 26.1807 6.19285 1.21544 0
M  V30 257 C 26.6377 5.93392 -0.0308487 0
M  V30 258 H 28.8067 7.25354 0.961601 0
M  V30 259 H 29.9897 6.3246 -1.65676 0
M  V30 260 H 31.4747 8.19533 -1.78278 0
M  V30 261 H 29.7797 10.1294 -1.10029 0
M  V30 262 H 29.5897 9.64276 -3.41316 0
M  V30 263 H 27.9587 9.25417 -2.76357 0
M  V30 264 H 23.3827 4.53993 0.806451 0
M  V30 265 H 28.5897 6.11865 -2.57394 0
M  V30 266 H 23.5197 5.34046 2.87467 0
M  V30 267 H 24.8957 6.33391 3.42578 0
M  V30 268 H 30.5997 6.25169 1.0783 0
M  V30 269 P 32.4563 8.791 -9.96115e-15 0
M  V30 270 O 33.8773 9.31196 0.027936 0
M  V30 271 O 32.0963 7.77869 -1.04071 0
M  V30 272 O 32.1333 8.09533 1.41463 0
M  V30 273 C 31.9723 9.03587 2.5397 0
M  V30 274 C 32.5133 8.35226 3.79016 0
M  V30 275 O 31.4583 7.57904 4.1503 0
M  V30 276 C 33.7313 7.45087 3.67298 0
M  V30 277 O 34.4693 7.27796 4.85194 0
M  V30 278 C 33.0633 6.17323 3.12027 0
M  V30 279 O 33.8613 5.04496 3.46627 0
M  V30 280 C 31.7253 6.19961 3.81809 0
M  V30 281 N 30.6823 5.71575 2.93223 0
M  V30 282 C 30.8513 5.77362 1.59168 0
M  V30 283 N 29.8243 5.3123 0.911893 0
M  V30 284 C 28.9393 4.91717 1.89588 0
M  V30 285 C 27.6723 4.3114 1.8076 0
M  V30 286 N 27.1073 4.06823 3.02898 0
M  V30 287 C 27.7093 4.35062 4.22711 0
M  V30 288 N 28.8863 4.90805 4.35707 0
M  V30 289 C 29.4613 5.16382 3.14469 0
M  V30 290 H 32.9403 6.21428 2.0318 0
M  V30 291 H 34.4233 7.86112 2.9231 0
M  V30 292 H 32.7293 9.11171 4.55987 0
M  V30 293 H 32.5393 9.9573 2.34194 0
M  V30 294 H 30.9093 9.2792 2.67832 0
M  V30 295 H 31.7513 6.16575 1.12198 0
M  V30 296 H 33.5493 4.67628 4.28704 0
M  V30 297 P 35.4068 7.39546 4.75277 0
M  V30 298 O 36.8288 7.81777 5.05738 0
M  V30 299 O 35.0468 7.1065 3.32998 0
M  V30 300 O 35.0838 6.04542 5.56673 0
M  V30 301 C 34.9238 6.22772 7.02095 0
M  V30 302 C 35.4638 4.97725 7.70406 0
M  V30 303 O 34.4078 4.13256 7.58987 0
M  V30 304 C 36.6818 4.28231 7.11815 0
M  V30 305 O 37.4198 3.49945 8.01648 0
M  V30 306 C 36.0128 3.5063 5.96244 0
M  V30 307 O 36.8118 2.36482 5.64681 0
M  V30 308 C 34.6758 3.15122 6.56374 0
M  V30 309 H 34.7078 2.13853 6.99751 0
M  V30 310 H 35.8908 4.13501 5.06559 0
M  V30 311 H 37.3748 5.03285 6.70911 0
M  V30 312 H 35.6808 5.20877 8.75697 0
M  V30 313 H 35.4908 7.11046 7.35349 0
M  V30 314 H 33.8608 6.35815 7.26986 0
M  V30 315 H 36.4998 1.61644 6.13565 0
M  V30 316 P 38.3574 3.65191 7.99657 0
M  V30 317 O 39.7784 3.84292 8.48206 0
M  V30 318 O 37.9974 4.17805 6.64342 0
M  V30 319 O 38.0344 2.07613 7.95143 0
M  V30 320 C 37.8734 1.44344 9.27435 0
M  V30 321 C 38.4144 0.0220036 9.17197 0
M  V30 322 O 37.3594 -0.626794 8.61824 0
M  V30 323 C 39.6324 -0.24586 8.30336 0
M  V30 324 O 40.3704 -1.39011 8.63583 0
M  V30 325 C 38.9644 -0.273849 6.91158 0
M  V30 326 O 39.7624 -1.05728 6.029 0
M  V30 327 C 37.6264 -0.897649 7.22545 0
M  V30 328 N 36.5834 -0.292839 6.41732 0
M  V30 329 C 36.7524 0.950603 5.91308 0
M  V30 330 N 35.7254 1.37732 5.21105 0
M  V30 331 C 34.8404 0.318109 5.26039 0
M  V30 332 C 33.5734 0.146766 4.6727 0
M  V30 333 N 33.0084 -1.06525 4.95887 0
M  V30 334 C 33.6104 -2.0378 5.71347 0
M  V30 335 N 34.7874 -1.92445 6.27451 0
M  V30 336 C 35.3624 -0.715382 6.00353 0
M  V30 337 H 38.8414 0.733318 6.49674 0
M  V30 338 H 40.3244 0.60668 8.36503 0
M  V30 339 H 38.6304 -0.362662 10.1825 0
M  V30 340 H 38.4404 2.00611 10.0304 0
M  V30 341 H 36.8104 1.41843 9.55327 0
M  V30 342 H 37.6524 1.54076 6.07465 0
M  V30 343 H 39.4504 -1.95704 6.0346 0
M  V30 344 P 41.308 -1.25109 8.70152 0
M  V30 345 O 42.73 -1.35303 9.21419 0
M  V30 346 O 40.948 -0.0769065 7.84762 0
M  V30 347 O 40.985 -2.55232 7.81161 0
M  V30 348 C 40.825 -3.79939 8.58154 0
M  V30 349 C 41.365 -4.93969 7.72701 0
M  V30 350 O 40.31 -5.18726 6.91205 0
M  V30 351 C 42.583 -4.69597 6.85231 0
M  V30 352 O 43.321 -5.83832 6.51337 0
M  V30 353 C 41.915 -3.96706 5.66633 0
M  V30 354 O 42.713 -4.15346 4.49615 0
M  V30 355 C 40.577 -4.66153 5.59313 0
M  V30 356 N 39.534 -3.71582 5.24027 0
M  V30 357 C 39.596 -2.46018 5.67902 0
M  V30 358 N 38.551 -1.74868 5.24518 0
M  V30 359 C 37.817 -2.61333 4.54528 0
M  V30 360 C 36.511 -2.46162 3.95441 0
M  V30 361 O 35.778 -1.46013 3.94122 0
M  V30 362 N 36.081 -3.59334 3.34752 0
M  V30 363 C 36.83 -4.79605 3.3023 0
M  V30 364 N 36.233 -5.82109 2.6065 0
M  V30 365 N 37.983 -4.97402 3.8843 0
M  V30 366 C 38.44 -3.86258 4.50476 0
M  V30 367 H 40.609 -5.47679 4.85214 0
M  V30 368 H 41.792 -2.88964 5.86476 0
M  V30 369 H 43.277 -4.01947 7.36109 0
M  V30 370 H 41.582 -5.80182 8.37584 0
M  V30 371 H 41.392 -3.73517 9.52265 0
M  V30 372 H 39.761 -3.97163 8.80359 0
M  V30 373 H 35.185 -3.5825 2.90294 0
M  V30 374 H 40.392 -2.06161 6.30974 0
M  V30 375 H 35.322 -5.66979 2.15354 0
M  V30 376 H 36.698 -6.73686 2.54344 0
M  V30 377 H 42.402 -4.90891 4.01857 0
M  V30 378 P 44.2585 -5.75688 6.64379 0
M  V30 379 O 45.6805 -6.11849 7.01846 0
M  V30 380 O 43.8985 -4.30744 6.56026 0
M  V30 381 O 43.9355 -6.37042 5.19165 0
M  V30 382 C 43.7755 -7.83578 5.16515 0
M  V30 383 C 44.3155 -8.33398 3.83019 0
M  V30 384 O 43.2595 -8.10074 3.01034 0
M  V30 385 C 45.5335 -7.65514 3.2257 0
M  V30 386 O 46.2715 -8.4329 2.32297 0
M  V30 387 C 44.8645 -6.40075 2.62207 0
M  V30 388 O 45.6635 -5.92589 1.53712 0
M  V30 389 C 43.5275 -6.9454 2.18503 0
M  V30 390 H 43.5595 -7.23063 1.12091 0
M  V30 391 H 44.7425 -5.6025 3.37201 0
M  V30 392 H 46.2265 -7.35707 4.02681 0
M  V30 393 H 44.5325 -9.40912 3.9095 0
M  V30 394 H 44.3425 -8.29056 5.99158 0
M  V30 395 H 42.7125 -8.10073 5.25882 0
M  V30 396 H 45.3515 -6.30324 0.726794 0
M  V30 397 P 47.2091 -8.4349 2.47671 0
M  V30 398 O 48.6311 -8.94359 2.59696 0
M  V30 399 O 46.8491 -7.1704 3.19006 0
M  V30 400 O 46.8861 -8.16596 0.923387 0
M  V30 401 C 46.7261 -9.38437 0.108857 0
M  V30 402 C 47.2661 -9.08076 -1.28339 0
M  V30 403 O 46.2111 -8.44229 -1.84713 0
M  V30 404 C 48.4841 -8.18386 -1.42505 0
M  V30 405 O 49.2221 -8.3501 -2.60497 0
M  V30 406 C 47.8161 -6.80225 -1.25468 0
M  V30 407 O 48.6141 -5.81526 -1.91035 0
M  V30 408 C 46.4781 -7.02416 -1.9168 0
M  V30 409 N 45.4351 -6.31033 -1.20314 0
M  V30 410 C 45.4971 -6.18781 0.121293 0
M  V30 411 N 44.4521 -5.49762 0.588272 0
M  V30 412 C 43.7181 -5.22015 -0.488988 0
M  V30 413 C 42.4121 -4.61966 -0.596448 0
M  V30 414 O 41.6791 -4.19162 0.309059 0
M  V30 415 N 41.9821 -4.53773 -1.878 0
M  V30 416 C 42.7311 -4.99623 -2.99082 0
M  V30 417 N 42.1341 -4.78912 -4.21227 0
M  V30 418 N 43.8841 -5.59957 -2.91093 0
M  V30 419 C 44.3411 -5.70225 -1.64218 0
M  V30 420 H 46.5101 -6.6888 -2.96621 0
M  V30 421 H 47.6931 -6.53517 -0.192194 0
M  V30 422 H 49.1781 -8.36563 -0.598329 0
M  V30 423 H 47.4831 -10.0291 -1.79807 0
M  V30 424 H 47.2931 -10.2138 0.558219 0
M  V30 425 H 45.6621 -9.6579 0.0444202 0
M  V30 426 H 41.0861 -4.12883 -2.05283 0
M  V30 427 H 46.2931 -6.59596 0.745856 0
M  V30 428 H 41.2231 -4.31425 -4.2628 0
M  V30 429 H 42.5991 -5.11219 -5.07148 0
M  V30 430 H 48.3031 -5.69466 -2.79593 0
M  V30 431 P 50.1597 -8.4349 -2.47671 0
M  V30 432 O 51.5807 -8.92689 -2.65029 0
M  V30 433 O 49.7997 -7.7568 -1.19296 0
M  V30 434 O 49.8367 -7.36886 -3.63805 0
M  V30 435 C 49.6757 -7.95433 -4.98253 0
M  V30 436 C 50.2167 -6.94612 -5.98974 0
M  V30 437 O 49.1617 -6.10277 -6.11744 0
M  V30 438 C 51.4347 -6.11426 -5.62335 0
M  V30 439 O 52.1727 -5.6162 -6.70584 0
M  V30 440 C 50.7667 -5.04409 -4.73308 0
M  V30 441 O 51.5647 -3.86404 -4.74719 0
M  V30 442 C 49.4287 -4.8728 -5.41006 0
M  V30 443 N 48.3857 -4.65812 -4.42377 0
M  V30 444 C 48.5547 -5.09132 -3.15382 0
M  V30 445 N 47.5277 -4.84021 -2.3716 0
M  V30 446 C 46.6427 -4.18386 -3.20441 0
M  V30 447 C 45.3757 -3.6275 -2.94905 0
M  V30 448 N 44.7767 -3.65794 -1.73372 0
M  V30 449 N 44.8107 -3.05008 -4.05243 0
M  V30 450 C 45.4127 -2.98348 -5.28159 0
M  V30 451 N 46.5897 -3.48171 -5.56333 0
M  V30 452 C 47.1647 -4.06869 -4.47212 0
M  V30 453 H 49.4607 -4.02278 -6.11074 0
M  V30 454 H 50.6437 -5.39013 -3.70026 0
M  V30 455 H 52.1267 -6.71916 -5.01943 0
M  V30 456 H 50.4327 -7.45796 -6.94223 0
M  V30 457 H 50.2427 -8.89416 -5.05237 0
M  V30 458 H 48.6127 -8.14876 -5.18409 0
M  V30 459 H 44.8767 -2.47853 -6.07807 0
M  V30 460 H 49.4547 -5.59989 -2.81362 0
M  V30 461 H 43.8467 -3.23218 -1.60782 0
M  V30 462 H 45.2507 -4.10523 -0.937856 0
M  V30 463 H 51.2527 -3.27906 -5.43085 0
M  V30 464 P 53.1103 -5.75688 -6.64379 0
M  V30 465 O 54.5323 -6.07627 -7.05504 0
M  V30 466 O 52.7503 -5.88047 -5.19722 0
M  V30 467 O 52.7873 -4.2322 -7.04443 0
M  V30 468 C 52.6273 -3.99743 -8.4911 0
M  V30 469 C 53.1673 -2.60516 -8.79425 0
M  V30 470 O 52.1113 -1.82684 -8.4467 0
M  V30 471 C 54.3853 -2.10343 -8.03628 0
M  V30 472 O 55.1233 -1.09919 -8.67766 0
M  V30 473 C 53.7163 -1.68446 -6.70876 0
M  V30 474 O 54.5153 -0.678137 -6.08433 0
M  V30 475 C 52.3793 -1.17436 -7.18567 0
M  V30 476 H 52.4113 -0.0804732 -7.31656 0
M  V30 477 H 53.5943 -2.54037 -6.02537 0
M  V30 478 H 55.0783 -2.93881 -7.85526 0
M  V30 479 H 53.3843 -2.53065 -9.86973 0
M  V30 480 H 53.1943 -4.75072 -9.05887 0
M  V30 481 H 51.5643 -4.05244 -8.76668 0
M  V30 482 H 54.2033 0.177647 -6.34251 0
M  V30 483 P 56.0608 -1.25109 -8.70152 0
M  V30 484 O 57.4818 -1.29758 -9.22115 0
M  V30 485 O 55.7008 -2.13714 -7.55141 0
M  V30 486 O 55.7378 0.248149 -8.21425 0
M  V30 487 C 55.5768 1.22792 -9.30533 0
M  V30 488 C 56.1178 2.56293 -8.80664 0
M  V30 489 O 55.0628 3.02944 -8.09255 0
M  V30 490 C 57.3358 2.57523 -7.89775 0
M  V30 491 O 58.0738 3.7668 -7.89438 0
M  V30 492 C 56.6678 2.20997 -6.55446 0
M  V30 493 O 57.4658 2.71302 -5.48691 0
M  V30 494 C 55.3298 2.89693 -6.67988 0
M  V30 495 N 54.2868 2.08895 -6.07487 0
M  V30 496 C 54.4558 0.753809 -5.94137 0
M  V30 497 N 53.4288 0.146592 -5.38801 0
M  V30 498 C 52.5438 1.1768 -5.13693 0
M  V30 499 C 51.2768 1.17563 -4.52477 0
M  V30 500 N 50.7118 2.41918 -4.45789 0
M  V30 501 C 51.3138 3.56493 -4.90792 0
M  V30 502 N 52.4908 3.61423 -5.47817 0
M  V30 503 C 53.0658 2.37779 -5.5588 0
M  V30 504 H 56.5448 1.12673 -6.44018 0
M  V30 505 H 58.0278 1.7746 -8.19711 0
M  V30 506 H 56.3338 3.21673 -9.66791 0
M  V30 507 H 56.1438 0.901032 -10.1892 0
M  V30 508 H 54.5138 1.33049 -9.56592 0
M  V30 509 H 55.3558 0.233081 -6.26266 0
M  V30 510 H 57.1538 3.5779 -5.23879 0
M  V30 511 P 59.0114 3.65191 -7.99657 0
M  V30 512 O 60.4334 3.89332 -8.45794 0
M  V30 513 O 58.6514 2.28472 -7.50807 0
M  V30 514 O 58.6884 4.64972 -6.77611 0
M  V30 515 C 58.5284 6.06319 -7.16352 0
M  V30 516 C 59.0684 6.91731 -6.02299 0
M  V30 517 O 58.0124 6.92449 -5.17064 0
M  V30 518 C 60.2864 6.43627 -5.25174 0
M  V30 519 O 61.0244 7.43686 -4.60469 0
M  V30 520 C 59.6174 5.40275 -4.31916 0
M  V30 521 O 60.4164 5.25279 -3.14438 0
M  V30 522 C 58.2804 6.04847 -4.05327 0
M  V30 523 H 58.3124 6.62195 -3.11261 0
M  V30 524 H 59.4954 4.42556 -4.81383 0
M  V30 525 H 60.9794 5.92458 -5.93643 0
M  V30 526 H 59.2854 7.92655 -6.402 0
M  V30 527 H 59.0954 6.26671 -8.0846 0
M  V30 528 H 57.4654 6.29101 -7.32804 0
M  V30 529 H 60.1044 5.84315 -2.47318 0
M  V30 530 P 61.962 7.39546 -4.75277 0
M  V30 531 O 63.384 7.84966 -5.01146 0
M  V30 532 O 61.602 5.9812 -5.08098 0
M  V30 533 O 61.639 7.57503 -3.1866 0
M  V30 534 C 61.479 8.97357 -2.74833 0
M  V30 535 C 62.019 9.0745 -1.32694 0
M  V30 536 O 60.964 8.62072 -0.606159 0
M  V30 537 C 63.237 8.25383 -0.938334 0
M  V30 538 O 63.975 8.74577 0.146954 0
M  V30 539 C 62.569 6.8802 -0.712559 0
M  V30 540 O 63.367 6.11791 0.194623 0
M  V30 541 C 61.231 7.27966 -0.139777 0
M  V30 542 N 60.188 6.39368 -0.623421 0
M  V30 543 C 60.25 5.90299 -1.85969 0
M  V30 544 N 59.205 5.10919 -2.1133 0
M  V30 545 C 58.471 5.14646 -1.0015 0
M  V30 546 C 57.165 4.60057 -0.729219 0
M  V30 547 O 56.432 3.93476 -1.47746 0
M  V30 548 N 56.735 4.88302 0.523505 0
M  V30 549 C 57.484 5.63646 1.46207 0
M  V30 550 N 56.887 5.78186 2.69239 0
M  V30 551 N 58.637 6.19285 1.21544 0
M  V30 552 C 59.094 5.93392 -0.0308487 0
M  V30 553 H 61.263 7.25354 0.961601 0
M  V30 554 H 62.446 6.3246 -1.65676 0
M  V30 555 H 63.931 8.19533 -1.78278 0
M  V30 556 H 62.236 10.1294 -1.10029 0
M  V30 557 H 62.046 9.64276 -3.41316 0
M  V30 558 H 60.415 9.25417 -2.76357 0
M  V30 559 H 55.839 4.53993 0.806451 0
M  V30 560 H 61.046 6.11865 -2.57394 0
M  V30 561 H 55.976 5.34046 2.87467 0
M  V30 562 H 57.352 6.33391 3.42578 0
M  V30 563 H 63.056 6.25169 1.0783 0
M  V30 564 P 64.9125 8.791 -3.55383e-14 0
M  V30 565 O 66.3345 9.31296 0.027939 0
M  V30 566 O 64.5525 7.77869 -1.04071 0
M  V30 567 O 64.5895 8.09533 1.41463 0
M  V30 568 C 64.4295 9.0349 2.53943 0
M  V30 569 C 64.9695 8.35135 3.78975 0
M  V30 570 O 63.9145 7.57992 4.15078 0
M  V30 571 C 66.1875 7.45087 3.67298 0
M  V30 572 O 66.9255 7.27796 4.85194 0
M  V30 573 C 65.5195 6.17323 3.12027 0
M  V30 574 O 66.3175 5.04149 3.47132 0
M  V30 575 C 64.1815 6.19961 3.81809 0
M  V30 576 N 63.1385 5.71575 2.93223 0
M  V30 577 C 63.2005 5.97133 1.62693 0
M  V30 578 N 62.1555 5.44066 0.984414 0
M  V30 579 C 61.4215 4.87093 1.93987 0
M  V30 580 C 60.1155 4.26449 1.8738 0
M  V30 581 O 59.3825 4.1089 0.884377 0
M  V30 582 N 59.6855 3.82483 3.08036 0
M  V30 583 C 60.4345 3.95124 4.27727 0
M  V30 584 N 59.8375 3.4084 5.39089 0
M  V30 585 N 61.5875 4.55264 4.3706 0
M  V30 586 C 62.0445 5.00861 3.18217 0
M  V30 587 H 64.2135 5.58218 4.73051 0
M  V30 588 H 65.3965 6.21631 2.02558 0
M  V30 589 H 66.8815 7.85819 2.93096 0
M  V30 590 H 65.1865 9.11627 4.55076 0
M  V30 591 H 64.9965 9.9573 2.34194 0
M  V30 592 H 63.3655 9.2792 2.67832 0
M  V30 593 H 58.7895 3.38323 3.1329 0
M  V30 594 H 63.9965 6.53891 1.14265 0
M  V30 595 H 58.9265 2.93852 5.30559 0
M  V30 596 H 60.3025 3.47631 6.30632 0
M  V30 597 H 66.0065 4.67628 4.28704 0
M  V30 598 P 67.8631 7.39546 4.75277 0
M  V30 599 O 69.2851 7.81777 5.05738 0
M  V30 600 O 67.5031 7.1065 3.32998 0
M  V30 601 O 67.5401 6.04542 5.56673 0
M  V30 602 C 67.3801 6.22772 7.02095 0
M  V30 603 C 67.9201 4.97725 7.70406 0
M  V30 604 O 66.8641 4.13256 7.58987 0
M  V30 605 C 69.1381 4.28231 7.11815 0
M  V30 606 O 69.8761 3.49945 8.01648 0
M  V30 607 C 68.4691 3.5063 5.96244 0
M  V30 608 O 69.2681 2.36482 5.64681 0
M  V30 609 C 67.1321 3.15122 6.56374 0
M  V30 610 H 67.1641 2.13853 6.99751 0
M  V30 611 H 68.3471 4.13501 5.06559 0
M  V30 612 H 69.8311 5.03285 6.70911 0
M  V30 613 H 68.1371 5.20877 8.75697 0
M  V30 614 H 67.9471 7.11046 7.35349 0
M  V30 615 H 66.3171 6.35815 7.26986 0
M  V30 616 H 68.9561 1.61644 6.13565 0
M  V30 617 P 70.8137 3.65191 7.99657 0
M  V30 618 O 72.2347 3.84292 8.48206 0
M  V30 619 O 70.4537 4.17805 6.64342 0
M  V30 620 O 70.4907 2.07613 7.95143 0
M  V30 621 C 70.3297 1.44344 9.27435 0
M  V30 622 C 70.8707 0.0220036 9.17197 0
M  V30 623 O 69.8157 -0.626794 8.61824 0
M  V30 624 C 72.0887 -0.24586 8.30336 0
M  V30 625 O 72.8267 -1.39011 8.63583 0
M  V30 626 C 71.4207 -0.273849 6.91158 0
M  V30 627 O 72.2187 -1.05728 6.029 0
M  V30 628 C 70.0827 -0.897649 7.22545 0
M  V30 629 N 69.0397 -0.292839 6.41732 0
M  V30 630 C 69.2087 0.950603 5.91308 0
M  V30 631 N 68.1817 1.37732 5.21105 0
M  V30 632 C 67.2967 0.318109 5.26039 0
M  V30 633 C 66.0297 0.146766 4.6727 0
M  V30 634 N 65.4647 -1.06525 4.95887 0
M  V30 635 C 66.0667 -2.0378 5.71347 0
M  V30 636 N 67.2437 -1.92445 6.27451 0
M  V30 637 C 67.8187 -0.715382 6.00353 0
M  V30 638 H 71.2977 0.733318 6.49674 0
M  V30 639 H 72.7807 0.60668 8.36503 0
M  V30 640 H 71.0867 -0.362662 10.1825 0
M  V30 641 H 70.8967 2.00611 10.0304 0
M  V30 642 H 69.2667 1.41843 9.55327 0
M  V30 643 H 70.1087 1.54076 6.07465 0
M  V30 644 H 71.9067 -1.95704 6.0346 0
M  V30 645 P 73.7642 -1.25109 8.70152 0
M  V30 646 O 75.1852 -1.35288 9.2132 0
M  V30 647 O 73.4042 -0.0769065 7.84762 0
M  V30 648 O 73.4412 -2.55232 7.81161 0
M  V30 649 C 73.2802 -3.79979 8.58246 0
M  V30 650 C 73.8212 -4.94023 7.72785 0
M  V30 651 O 72.7662 -5.18666 6.91125 0
M  V30 652 C 75.0392 -4.69597 6.85231 0
M  V30 653 O 75.7772 -5.83832 6.51337 0
M  V30 654 C 74.3712 -3.96706 5.66633 0
M  V30 655 O 75.1692 -4.14896 4.5003 0
M  V30 656 C 73.0332 -4.66153 5.59313 0
M  V30 657 N 71.9902 -3.71582 5.24027 0
M  V30 658 C 72.1592 -2.39715 5.48833 0
M  V30 659 N 71.1322 -1.65863 5.12845 0
M  V30 660 C 70.2472 -2.57637 4.5973 0
M  V30 661 C 68.9802 -2.40278 4.01027 0
M  V30 662 N 68.3812 -1.19549 3.86744 0
M  V30 663 N 68.4152 -3.57711 3.59575 0
M  V30 664 C 69.0172 -4.80324 3.70476 0
M  V30 665 N 70.1942 -5.01121 4.23801 0
M  V30 666 C 70.7692 -3.84757 4.66372 0
M  V30 667 H 73.0652 -5.47604 4.85148 0
M  V30 668 H 74.2482 -2.8955 5.86187 0
M  V30 669 H 75.7312 -4.0121 7.36511 0
M  V30 670 H 74.0372 -5.81019 8.37003 0
M  V30 671 H 73.8472 -3.73517 9.52265 0
M  V30 672 H 72.2172 -3.97163 8.80359 0
M  V30 673 H 68.4812 -5.66348 3.3183 0
M  V30 674 H 73.0592 -1.98804 5.94332 0
M  V30 675 H 67.4512 -1.13147 3.4281 0
M  V30 676 H 68.8552 -0.344074 4.19692 0
M  V30 677 H 74.8572 -4.90891 4.01857 0
M  V30 678 P 76.7148 -5.75688 6.64379 0
M  V30 679 O 78.1368 -6.11981 7.01997 0
M  V30 680 O 76.3548 -4.30744 6.56026 0
M  V30 681 O 76.3918 -6.37042 5.19165 0
M  V30 682 C 76.2318 -7.83578 5.16515 0
M  V30 683 C 76.7718 -8.33307 3.82977 0
M  V30 684 O 75.7168 -8.10074 3.01034 0
M  V30 685 C 77.9898 -7.65514 3.2257 0
M  V30 686 O 78.7278 -8.4329 2.32297 0
M  V30 687 C 77.3218 -6.40075 2.62207 0
M  V30 688 O 78.1198 -5.92492 1.53687 0
M  V30 689 C 75.9838 -6.9454 2.18503 0
M  V30 690 N 74.9408 -5.95905 2.39948 0
M  V30 691 C 75.0028 -5.13994 3.44742 0
M  V30 692 N 73.9578 -4.30684 3.46712 0
M  V30 693 C 73.2238 -4.65583 2.41086 0
M  V30 694 C 71.9178 -4.20877 1.99581 0
M  V30 695 O 71.1848 -3.35913 2.52616 0
M  V30 696 N 71.4878 -4.83271 0.873406 0
M  V30 697 C 72.2368 -5.82006 0.185129 0
M  V30 698 N 71.6398 -6.30619 -0.95439 0
M  V30 699 N 73.3898 -6.28443 0.578524 0
M  V30 700 C 73.8468 -5.68486 1.70138 0
M  V30 701 H 76.0158 -7.23063 1.12091 0
M  V30 702 H 77.1988 -5.60165 3.3715 0
M  V30 703 H 78.6838 -7.3611 4.01946 0
M  V30 704 H 76.9888 -9.40912 3.9095 0
M  V30 705 H 76.7988 -8.29056 5.99158 0
M  V30 706 H 75.1678 -8.10073 5.25882 0
M  V30 707 H 70.5918 -4.58323 0.505262 0
M  V30 708 H 75.7988 -5.14564 4.1935 0
M  V30 709 H 70.7288 -5.93402 -1.25364 0
M  V30 710 H 72.1048 -7.0425 -1.50254 0
M  V30 711 H 77.8088 -6.30224 0.72668 0
M  V30 712 P 79.6654 -8.4349 2.47671 0
M  V30 713 O 81.0874 -8.94167 2.5964 0
M  V30 714 O 79.3054 -7.1704 3.19006 0
M  V30 715 O 79.3424 -8.16596 0.923387 0
M  V30 716 C 79.1824 -9.38437 0.108857 0
M  V30 717 C 79.7224 -9.08175 -1.28353 0
M  V30 718 O 78.6664 -8.44229 -1.84713 0
M  V30 719 C 80.9404 -8.18386 -1.42505 0
M  V30 720 O 81.6784 -8.3501 -2.60497 0
M  V30 721 C 80.2714 -6.80225 -1.25468 0
M  V30 722 O 81.0704 -5.81621 -1.91066 0
M  V30 723 C 78.9344 -7.02416 -1.9168 0
M  V30 724 H 78.9664 -6.6888 -2.96621 0
M  V30 725 H 80.1494 -6.53617 -0.192223 0
M  V30 726 H 81.6334 -8.36622 -0.589963 0
M  V30 727 H 79.9394 -10.0291 -1.79807 0
M  V30 728 H 79.7494 -10.2138 0.558219 0
M  V30 729 H 78.1194 -9.6579 0.0444202 0
M  V30 730 H 80.7584 -5.69556 -2.79637 0
M  V30 731 P 82.616 -8.4349 -2.47671 0
M  V30 732 O 84.038 -8.92593 -2.65 0
M  V30 733 O 82.256 -7.7568 -1.19296 0
M  V30 734 O 82.293 -7.36886 -3.63805 0
M  V30 735 C 82.133 -7.95349 -4.982 0
M  V30 736 C 82.673 -6.94612 -5.98974 0
M  V30 737 O 81.617 -6.10347 -6.11815 0
M  V30 738 C 83.891 -6.11426 -5.62335 0
M  V30 739 O 84.629 -5.6162 -6.70584 0
M  V30 740 C 83.222 -5.04409 -4.73308 0
M  V30 741 O 84.021 -3.85992 -4.75183 0
M  V30 742 C 81.885 -4.8728 -5.41006 0
M  V30 743 H 81.917 -4.02333 -6.11157 0
M  V30 744 H 83.1 -5.39466 -3.69543 0
M  V30 745 H 84.584 -6.71916 -5.01943 0
M  V30 746 H 82.89 -7.4649 -6.93477 0
M  V30 747 H 82.7 -8.89416 -5.05237 0
M  V30 748 H 81.07 -8.14876 -5.18409 0
M  V30 749 H 83.709 -3.27957 -5.4317 0
M  V30 750 P 85.5665 -5.75688 -6.64379 0
M  V30 751 O 86.9885 -6.07627 -7.05504 0
M  V30 752 O 85.2065 -5.88047 -5.19722 0
M  V30 753 O 85.2435 -4.2322 -7.04443 0
M  V30 754 C 85.0835 -3.99743 -8.4911 0
M  V30 755 C 85.6235 -2.60516 -8.79425 0
M  V30 756 O 84.5675 -1.82684 -8.4467 0
M  V30 757 C 86.8415 -2.10343 -8.03628 0
M  V30 758 O 87.5795 -1.09919 -8.67766 0
M  V30 759 C 86.1725 -1.68446 -6.70876 0
M  V30 760 O 86.9715 -0.678137 -6.08433 0
M  V30 761 C 84.8355 -1.17436 -7.18567 0
M  V30 762 H 84.8675 -0.0804732 -7.31656 0
M  V30 763 H 86.0505 -2.54037 -6.02537 0
M  V30 764 H 87.5345 -2.93881 -7.85526 0
M  V30 765 H 85.8405 -2.53065 -9.86973 0
M  V30 766 H 85.6505 -4.75072 -9.05887 0
M  V30 767 H 84.0205 -4.05244 -8.76668 0
M  V30 768 H 86.6595 0.177647 -6.34251 0
M  V30 769 P 88.5171 -1.25109 -8.70152 0
M  V30 770 O 89.9391 -1.29772 -9.22214 0
M  V30 771 O 88.1571 -2.13714 -7.55141 0
M  V30 772 O 88.1941 0.248149 -8.21425 0
M  V30 773 C 88.0341 1.22779 -9.30434 0
M  V30 774 C 88.5741 2.56265 -8.80568 0
M  V30 775 O 87.5191 3.02979 -8.09349 0
M  V30 776 C 89.7921 2.57523 -7.89775 0
M  V30 777 O 90.5301 3.7668 -7.89438 0
M  V30 778 C 89.1241 2.20997 -6.55446 0
M  V30 779 O 89.9221 2.71851 -5.48419 0
M  V30 780 C 87.7861 2.89693 -6.67988 0
M  V30 781 N 86.7431 2.08895 -6.07487 0
M  V30 782 C 86.8051 0.760559 -6.14209 0
M  V30 783 N 85.7601 0.200108 -5.52538 0
M  V30 784 C 85.0261 1.22692 -5.09742 0
M  V30 785 C 83.7201 1.24782 -4.48775 0
M  V30 786 O 82.9871 0.290617 -4.19294 0
M  V30 787 N 83.2901 2.50468 -4.22428 0
M  V30 788 C 84.0391 3.67142 -4.51974 0
M  V30 789 N 83.4421 4.85096 -4.14091 0
M  V30 790 N 85.1921 3.67821 -5.12831 0
M  V30 791 C 85.6491 2.43698 -5.4105 0
M  V30 792 H 87.8181 3.88793 -6.19859 0
M  V30 793 H 89.0011 1.12029 -6.4413 0
M  V30 794 H 90.4861 1.78279 -8.19533 0
M  V30 795 H 88.7911 3.20706 -9.67112 0
M  V30 796 H 88.6011 0.901032 -10.1892 0
M  V30 797 H 86.9701 1.33049 -9.56592 0
M  V30 798 H 82.3941 2.61953 -3.79465 0
M  V30 799 H 87.6011 0.200439 -6.63497 0
M  V30 800 H 82.5311 4.8334 -3.66367 0
M  V30 801 H 83.9071 5.7474 -4.33841 0
M  V30 802 H 89.6111 3.5779 -5.23879 0
M  V30 803 P 91.4677 3.65191 -7.99657 0
M  V30 804 O 92.8897 3.89332 -8.45794 0
M  V30 805 O 91.1077 2.28472 -7.50807 0
M  V30 806 O 91.1447 4.64972 -6.77611 0
M  V30 807 C 90.9847 6.06319 -7.16352 0
M  V30 808 C 91.5247 6.91731 -6.02299 0
M  V30 809 O 90.4687 6.92449 -5.17064 0
M  V30 810 C 92.7427 6.43627 -5.25174 0
M  V30 811 O 93.4807 7.43686 -4.60469 0
M  V30 812 C 92.0737 5.40275 -4.31916 0
M  V30 813 O 92.8727 5.25279 -3.14438 0
M  V30 814 C 90.7367 6.04847 -4.05327 0
M  V30 815 H 90.7687 6.62195 -3.11261 0
M  V30 816 H 91.9517 4.42556 -4.81383 0
M  V30 817 H 93.4357 5.92458 -5.93643 0
M  V30 818 H 91.7417 7.92655 -6.402 0
M  V30 819 H 91.5517 6.26671 -8.0846 0
M  V30 820 H 89.9217 6.29101 -7.32804 0
M  V30 821 H 92.5607 5.84315 -2.47318 0
M  V30 822 P 94.4182 7.39546 -4.75277 0
M  V30 823 O 95.8402 7.84798 -5.01039 0
M  V30 824 O 94.0582 5.9812 -5.08098 0
M  V30 825 O 94.0952 7.57503 -3.1866 0
M  V30 826 C 93.9352 8.97357 -2.74833 0
M  V30 827 C 94.4752 9.07548 -1.32709 0
M  V30 828 O 93.4192 8.62072 -0.606159 0
M  V30 829 C 95.6932 8.25383 -0.938334 0
M  V30 830 O 96.4312 8.74577 0.146954 0
M  V30 831 C 95.0242 6.8802 -0.712559 0
M  V30 832 O 95.8232 6.1189 0.194655 0
M  V30 833 C 93.6872 7.27966 -0.139777 0
M  V30 834 H 93.7192 7.25354 0.961601 0
M  V30 835 H 94.9022 6.32557 -1.65702 0
M  V30 836 H 96.3862 8.19355 -1.79097 0
M  V30 837 H 94.6922 10.1294 -1.10029 0
M  V30 838 H 94.5022 9.64276 -3.41316 0
M  V30 839 H 92.8722 9.25417 -2.76357 0
M  V30 840 H 95.5112 6.25267 1.07847 0
M  V30 841 P 97.3688 8.791 -6.89233e-14 0
M  V30 842 O 98.7908 9.31096 0.027933 0
M  V30 843 O 97.0088 7.77869 -1.04071 0
M  V30 844 O 97.0458 8.09533 1.41463 0
M  V30 845 C 96.8858 9.0349 2.53943 0
M  V30 846 C 97.4258 8.35226 3.79016 0
M  V30 847 O 96.3698 7.57992 4.15078 0
M  V30 848 C 98.6438 7.45087 3.67298 0
M  V30 849 O 99.3818 7.27796 4.85194 0
M  V30 850 C 97.9748 6.17323 3.12027 0
M  V30 851 O 98.7738 5.04231 3.47188 0
M  V30 852 C 96.6378 6.19961 3.81809 0
M  V30 853 H 96.6698 5.58218 4.73051 0
M  V30 854 H 97.8528 6.21726 2.02589 0
M  V30 855 H 99.3368 7.86112 2.9231 0
M  V30 856 H 97.6428 9.11627 4.55076 0
M  V30 857 H 97.4528 9.9573 2.34194 0
M  V30 858 H 95.8228 9.2792 2.67832 0
M  V30 859 H 98.4618 4.67702 4.28772 0
M  V30 860 P 100.319 7.39546 4.75277 0
M  V30 861 O 101.741 7.81945 5.05847 0
M  V30 862 O 99.9594 7.1065 3.32998 0
M  V30 863 O 99.9964 6.04542 5.56673 0
M  V30 864 C 99.8364 6.22772 7.02095 0
M  V30 865 C 100.376 4.97671 7.70322 0
M  V30 866 O 99.3214 4.13256 7.58987 0
M  V30 867 C 101.594 4.28231 7.11815 0
M  V30 868 O 102.332 3.49945 8.01648 0
M  V30 869 C 100.926 3.5063 5.96244 0
M  V30 870 O 101.724 2.36443 5.64589 0
M  V30 871 C 99.5884 3.15122 6.56374 0
M  V30 872 N 98.5454 3.22311 5.55692 0
M  V30 873 C 98.6074 4.14382 4.59701 0
M  V30 874 N 97.5624 4.04476 3.76958 0
M  V30 875 C 96.8284 3.04892 4.26534 0
M  V30 876 C 95.5224 2.57447 3.88189 0
M  V30 877 O 94.7894 2.9785 2.96543 0
M  V30 878 N 95.0924 1.55228 4.65922 0
M  V30 879 C 95.8414 1.01152 5.73447 0
M  V30 880 N 95.2444 -0.0472117 6.37783 0
M  V30 881 N 96.9944 1.467 6.13813 0
M  V30 882 C 97.4514 2.4931 5.38487 0
M  V30 883 H 99.6204 2.13853 6.99751 0
M  V30 884 H 100.803 4.13438 5.06482 0
M  V30 885 H 102.288 5.02614 6.71414 0
M  V30 886 H 100.593 5.20877 8.75697 0
M  V30 887 H 100.403 7.11046 7.35349 0
M  V30 888 H 98.7724 6.35815 7.26986 0
M  V30 889 H 94.1964 1.15238 4.46468 0
M  V30 890 H 99.4034 4.88312 4.49647 0
M  V30 891 H 94.3334 -0.396382 6.05203 0
M  V30 892 H 95.7094 -0.484997 7.18465 0
M  V30 893 H 101.413 1.61619 6.13468 0
M  V30 894 P 103.27 3.65191 7.99657 0
M  V30 895 O 104.692 3.8425 8.48115 0
M  V30 896 O 102.91 4.17805 6.64342 0
M  V30 897 O 102.947 2.07613 7.95143 0
M  V30 898 C 102.787 1.44328 9.27336 0
M  V30 899 C 103.327 0.0220036 9.17197 0
M  V30 900 O 102.271 -0.626867 8.61923 0
M  V30 901 C 104.545 -0.24586 8.30336 0
M  V30 902 O 105.283 -1.39011 8.63583 0
M  V30 903 C 103.876 -0.273849 6.91158 0
M  V30 904 O 104.675 -1.06348 6.02892 0
M  V30 905 C 102.539 -0.897649 7.22545 0
M  V30 906 H 102.571 -1.9841 7.04286 0
M  V30 907 H 103.754 0.739928 6.497 0
M  V30 908 H 105.238 0.60668 8.36503 0
M  V30 909 H 103.544 -0.352479 10.1829 0
M  V30 910 H 103.354 2.00611 10.0304 0
M  V30 911 H 101.724 1.41843 9.55327 0
M  V30 912 H 104.363 -1.95734 6.03555 0
M  V30 913 P 106.221 -1.25109 8.70152 0
M  V30 914 O 107.643 -1.35274 9.21221 0
M  V30 915 O 105.861 -0.0769065 7.84762 0
M  V30 916 O 105.898 -2.55232 7.81161 0
M  V30 917 C 105.738 -3.79939 8.58154 0
M  V30 918 C 106.278 -4.94023 7.72785 0
M  V30 919 O 105.222 -5.18726 6.91205 0
M  V30 920 C 107.496 -4.69597 6.85231 0
M  V30 921 O 108.234 -5.83832 6.51337 0
M  V30 922 C 106.827 -3.96706 5.66633 0
M  V30 923 O 107.626 -4.15414 4.49689 0
M  V30 924 C 105.49 -4.66153 5.59313 0
M  V30 925 H 105.522 -5.47679 4.85214 0
M  V30 926 H 106.705 -2.89008 5.86566 0
M  V30 927 H 108.189 -4.0121 7.36511 0
M  V30 928 H 106.495 -5.80182 8.37584 0
M  V30 929 H 106.305 -3.73517 9.52265 0
M  V30 930 H 104.675 -3.97163 8.80359 0
M  V30 931 H 107.314 -4.90969 4.01921 0
M  V30 932 P 109.171 -5.75688 6.64379 0
M  V30 933 O 110.593 -6.11981 7.01997 0
M  V30 934 O 108.811 -4.30744 6.56026 0
M  V30 935 O 108.848 -6.37042 5.19165 0
M  V30 936 C 108.688 -7.83578 5.16515 0
M  V30 937 C 109.228 -8.33307 3.82977 0
M  V30 938 O 108.173 -8.10074 3.01034 0
M  V30 939 C 110.446 -7.65514 3.2257 0
M  V30 940 O 111.184 -8.4329 2.32297 0
M  V30 941 C 109.778 -6.40075 2.62207 0
M  V30 942 O 110.576 -5.92492 1.53687 0
M  V30 943 C 108.44 -6.9454 2.18503 0
M  V30 944 N 107.397 -5.95905 2.39948 0
M  V30 945 C 107.459 -5.13994 3.44742 0
M  V30 946 N 106.414 -4.30684 3.46712 0
M  V30 947 C 105.68 -4.65583 2.41086 0
M  V30 948 C 104.374 -4.20877 1.99581 0
M  V30 949 O 103.641 -3.35913 2.52616 0
M  V30 950 N 103.944 -4.83271 0.873406 0
M  V30 951 C 104.693 -5.82006 0.185129 0
M  V30 952 N 104.096 -6.30619 -0.95439 0
M  V30 953 N 105.846 -6.28443 0.578524 0
M  V30 954 C 106.303 -5.68486 1.70138 0
M  V30 955 H 108.472 -7.23063 1.12091 0
M  V30 956 H 109.655 -5.60165 3.3715 0
M  V30 957 H 111.14 -7.3611 4.01946 0
M  V30 958 H 109.445 -9.40912 3.9095 0
M  V30 959 H 109.255 -8.29056 5.99158 0
M  V30 960 H 107.624 -8.10073 5.25882 0
M  V30 961 H 103.048 -4.58323 0.505262 0
M  V30 962 H 108.255 -5.14564 4.1935 0
M  V30 963 H 103.185 -5.93402 -1.25364 0
M  V30 964 H 104.561 -7.0425 -1.50254 0
M  V30 965 H 110.265 -6.30224 0.72668 0
M  V30 966 P 112.122 -8.4349 2.47671 0
M  V30 967 O 113.544 -8.94167 2.5964 0
M  V30 968 O 111.762 -7.1704 3.19006 0
M  V30 969 O 111.799 -8.16596 0.923387 0
M  V30 970 C 111.639 -9.38437 0.108857 0
M  V30 971 C 112.179 -9.08175 -1.28353 0
M  V30 972 O 111.123 -8.44229 -1.84713 0
M  V30 973 C 113.397 -8.18386 -1.42505 0
M  V30 974 O 114.135 -8.3501 -2.60497 0
M  V30 975 C 112.728 -6.80225 -1.25468 0
M  V30 976 O 113.527 -5.81621 -1.91066 0
M  V30 977 C 111.391 -7.02416 -1.9168 0
M  V30 978 H 111.423 -6.6888 -2.96621 0
M  V30 979 H 112.606 -6.53617 -0.192223 0
M  V30 980 H 114.09 -8.36622 -0.589963 0
M  V30 981 H 112.396 -10.0291 -1.79807 0
M  V30 982 H 112.206 -10.2138 0.558219 0
M  V30 983 H 110.576 -9.6579 0.0444202 0
M  V30 984 H 113.215 -5.69556 -2.79637 0
M  V30 985 P 115.072 -8.4349 -2.47671 0
M  V30 986 O 116.494 -8.92593 -2.65 0
M  V30 987 O 114.712 -7.7568 -1.19296 0
M  V30 988 O 114.749 -7.36886 -3.63805 0
M  V30 989 C 114.589 -7.95349 -4.982 0
M  V30 990 C 115.129 -6.94612 -5.98974 0
M  V30 991 O 114.073 -6.10347 -6.11815 0
M  V30 992 C 116.347 -6.11426 -5.62335 0
M  V30 993 O 117.085 -5.6162 -6.70584 0
M  V30 994 C 115.678 -5.04409 -4.73308 0
M  V30 995 O 116.477 -3.85992 -4.75183 0
M  V30 996 C 114.341 -4.8728 -5.41006 0
M  V30 997 H 114.373 -4.02333 -6.11157 0
M  V30 998 H 115.556 -5.39466 -3.69543 0
M  V30 999 H 117.04 -6.71916 -5.01943 0
M  V30 1000 H 115.346 -7.4649 -6.93477 0
M  V30 1001 H 115.156 -8.89416 -5.05237 0
M  V30 1002 H 113.526 -8.14876 -5.18409 0
M  V30 1003 H 116.165 -3.27957 -5.4317 0
M  V30 1004 P 118.023 -5.75688 -6.64379 0
M  V30 1005 O 119.445 -6.07627 -7.05504 0
M  V30 1006 O 117.663 -5.88047 -5.19722 0
M  V30 1007 O 117.7 -4.2322 -7.04443 0
M  V30 1008 C 117.54 -3.99743 -8.4911 0
M  V30 1009 C 118.08 -2.60516 -8.79425 0
M  V30 1010 O 117.024 -1.82684 -8.4467 0
M  V30 1011 C 119.298 -2.10343 -8.03628 0
M  V30 1012 O 120.036 -1.09919 -8.67766 0
M  V30 1013 C 118.629 -1.68446 -6.70876 0
M  V30 1014 O 119.428 -0.678137 -6.08433 0
M  V30 1015 C 117.292 -1.17436 -7.18567 0
M  V30 1016 H 117.324 -0.0804732 -7.31656 0
M  V30 1017 H 118.507 -2.54037 -6.02537 0
M  V30 1018 H 119.991 -2.93881 -7.85526 0
M  V30 1019 H 118.297 -2.53065 -9.86973 0
M  V30 1020 H 118.107 -4.75072 -9.05887 0
M  V30 1021 H 116.477 -4.05244 -8.76668 0
M  V30 1022 H 119.116 0.177647 -6.34251 0
M  V30 1023 P 120.973 -1.25109 -8.70152 0
M  V30 1024 O 122.395 -1.29744 -9.22016 0
M  V30 1025 O 120.613 -2.13714 -7.55141 0
M  V30 1026 O 120.65 0.248149 -8.21425 0
M  V30 1027 C 120.49 1.22779 -9.30434 0
M  V30 1028 C 121.03 2.56293 -8.80664 0
M  V30 1029 O 119.974 3.02979 -8.09349 0
M  V30 1030 C 122.248 2.57523 -7.89775 0
M  V30 1031 O 122.986 3.7668 -7.89438 0
M  V30 1032 C 121.579 2.20997 -6.55446 0
M  V30 1033 O 122.378 2.71895 -5.48509 0
M  V30 1034 C 120.242 2.89693 -6.67988 0
M  V30 1035 H 120.274 3.88793 -6.19859 0
M  V30 1036 H 121.457 1.12046 -6.44229 0
M  V30 1037 H 122.941 1.7746 -8.19711 0
M  V30 1038 H 121.247 3.20706 -9.67112 0
M  V30 1039 H 121.057 0.901032 -10.1892 0
M  V30 1040 H 119.427 1.33049 -9.56592 0
M  V30 1041 H 122.066 3.57847 -5.23962 0
M  V30 1042 P 123.924 3.65191 -7.99657 0
M  V30 1043 O 125.346 3.89332 -8.45794 0
M  V30 1044 O 123.564 2.28472 -7.50807 0
M  V30 1045 O 123.601 4.64972 -6.77611 0
M  V30 1046 C 123.441 6.06319 -7.16352 0
M  V30 1047 C 123.981 6.91731 -6.02299 0
M  V30 1048 O 122.925 6.92449 -5.17064 0
M  V30 1049 C 125.199 6.43627 -5.25174 0
M  V30 1050 O 125.937 7.43686 -4.60469 0
M  V30 1051 C 124.53 5.40275 -4.31916 0
M  V30 1052 O 125.329 5.25279 -3.14438 0
M  V30 1053 C 123.193 6.04847 -4.05327 0
M  V30 1054 H 123.225 6.62195 -3.11261 0
M  V30 1055 H 124.408 4.42556 -4.81383 0
M  V30 1056 H 125.892 5.92458 -5.93643 0
M  V30 1057 H 124.198 7.92655 -6.402 0
M  V30 1058 H 124.008 6.26671 -8.0846 0
M  V30 1059 H 122.378 6.29101 -7.32804 0
M  V30 1060 H 125.017 5.84315 -2.47318 0
M  V30 1061 P 126.875 7.39546 -4.75277 0
M  V30 1062 O 128.297 7.84798 -5.01039 0
M  V30 1063 O 126.515 5.9812 -5.08098 0
M  V30 1064 O 126.552 7.57503 -3.1866 0
M  V30 1065 C 126.392 8.97357 -2.74833 0
M  V30 1066 C 126.932 9.07548 -1.32709 0
M  V30 1067 O 125.876 8.62072 -0.606159 0
M  V30 1068 C 128.15 8.25383 -0.938334 0
M  V30 1069 O 128.888 8.74577 0.146954 0
M  V30 1070 C 127.481 6.8802 -0.712559 0
M  V30 1071 O 128.28 6.1189 0.194655 0
M  V30 1072 C 126.144 7.27966 -0.139777 0
M  V30 1073 H 126.176 7.25354 0.961601 0
M  V30 1074 H 127.359 6.32557 -1.65702 0
M  V30 1075 H 128.843 8.19355 -1.79097 0
M  V30 1076 H 127.149 10.1294 -1.10029 0
M  V30 1077 H 126.959 9.64276 -3.41316 0
M  V30 1078 H 125.329 9.25417 -2.76357 0
M  V30 1079 H 127.968 6.25267 1.07847 0
M  V30 1080 P 129.825 8.791 -1.02308e-13 0
M  V30 1081 O 131.247 9.31096 0.027933 0
M  V30 1082 O 129.465 7.77869 -1.04071 0
M  V30 1083 O 129.502 8.09533 1.41463 0
M  V30 1084 C 129.342 9.0349 2.53943 0
M  V30 1085 C 129.882 8.35226 3.79016 0
M  V30 1086 O 128.826 7.57992 4.15078 0
M  V30 1087 C 131.1 7.45087 3.67298 0
M  V30 1088 O 131.838 7.27796 4.85194 0
M  V30 1089 C 130.431 6.17323 3.12027 0
M  V30 1090 O 131.23 5.04231 3.47188 0
M  V30 1091 C 129.094 6.19961 3.81809 0
M  V30 1092 H 129.126 5.58218 4.73051 0
M  V30 1093 H 130.309 6.21726 2.02589 0
M  V30 1094 H 131.793 7.86112 2.9231 0
M  V30 1095 H 130.099 9.11627 4.55076 0
M  V30 1096 H 129.909 9.9573 2.34194 0
M  V30 1097 H 128.279 9.2792 2.67832 0
M  V30 1098 H 130.918 4.67702 4.28772 0
M  V30 1099 P 132.776 7.39546 4.75277 0
M  V30 1100 O 134.198 7.81777 5.05738 0
M  V30 1101 O 132.416 7.1065 3.32998 0
M  V30 1102 O 132.453 6.04542 5.56673 0
M  V30 1103 C 132.293 6.22772 7.02095 0
M  V30 1104 C 132.833 4.97725 7.70406 0
M  V30 1105 O 131.777 4.13256 7.58987 0
M  V30 1106 C 134.051 4.28231 7.11815 0
M  V30 1107 O 134.789 3.49945 8.01648 0
M  V30 1108 C 133.382 3.5063 5.96244 0
M  V30 1109 O 134.181 2.36482 5.64681 0
M  V30 1110 C 132.045 3.15122 6.56374 0
M  V30 1111 H 132.077 2.13853 6.99751 0
M  V30 1112 H 133.26 4.13501 5.06559 0
M  V30 1113 H 134.744 5.03285 6.70911 0
M  V30 1114 H 133.05 5.20877 8.75697 0
M  V30 1115 H 132.86 7.11046 7.35349 0
M  V30 1116 H 131.23 6.35815 7.26986 0
M  V30 1117 H 133.869 1.61644 6.13565 0
M  V30 1118 P 135.726 3.65191 7.99657 0
M  V30 1119 O 137.148 3.8425 8.48115 0
M  V30 1120 O 135.366 4.17805 6.64342 0
M  V30 1121 O 135.403 2.07613 7.95143 0
M  V30 1122 C 135.243 1.44328 9.27336 0
M  V30 1123 C 135.783 0.0220036 9.17197 0
M  V30 1124 O 134.727 -0.626867 8.61923 0
M  V30 1125 C 137.001 -0.24586 8.30336 0
M  V30 1126 O 137.739 -1.39011 8.63583 0
M  V30 1127 C 136.332 -0.273849 6.91158 0
M  V30 1128 O 137.131 -1.06348 6.02892 0
M  V30 1129 C 134.995 -0.897649 7.22545 0
M  V30 1130 H 135.027 -1.9841 7.04286 0
M  V30 1131 H 136.21 0.739928 6.497 0
M  V30 1132 H 137.694 0.60668 8.36503 0
M  V30 1133 H 136 -0.352479 10.1829 0
M  V30 1134 H 135.81 2.00611 10.0304 0
M  V30 1135 H 134.18 1.41843 9.55327 0
M  V30 1136 H 136.819 -1.95734 6.03555 0
M  V30 1137 P 138.677 -1.25109 8.70152 0
M  V30 1138 O 140.099 -1.35274 9.21221 0
M  V30 1139 O 138.317 -0.0769065 7.84762 0
M  V30 1140 O 138.354 -2.55232 7.81161 0
M  V30 1141 C 138.194 -3.79939 8.58154 0
M  V30 1142 C 138.734 -4.94023 7.72785 0
M  V30 1143 O 137.678 -5.18726 6.91205 0
M  V30 1144 C 139.952 -4.69597 6.85231 0
M  V30 1145 O 140.69 -5.83832 6.51337 0
M  V30 1146 C 139.283 -3.96706 5.66633 0
M  V30 1147 O 140.082 -4.15414 4.49689 0
M  V30 1148 C 137.946 -4.66153 5.59313 0
M  V30 1149 H 137.978 -5.47679 4.85214 0
M  V30 1150 H 139.161 -2.89008 5.86566 0
M  V30 1151 H 140.645 -4.0121 7.36511 0
M  V30 1152 H 138.951 -5.80182 8.37584 0
M  V30 1153 H 138.761 -3.73517 9.52265 0
M  V30 1154 H 137.131 -3.97163 8.80359 0
M  V30 1155 H 139.77 -4.90969 4.01921 0
M  V30 1156 P 141.627 -5.75688 6.64379 0
M  V30 1157 O 143.049 -6.11849 7.01846 0
M  V30 1158 O 141.267 -4.30744 6.56026 0
M  V30 1159 O 141.304 -6.37042 5.19165 0
M  V30 1160 C 141.144 -7.83578 5.16515 0
M  V30 1161 C 141.684 -8.33398 3.83019 0
M  V30 1162 O 140.628 -8.10074 3.01034 0
M  V30 1163 C 142.902 -7.65514 3.2257 0
M  V30 1164 O 143.64 -8.4329 2.32297 0
M  V30 1165 C 142.233 -6.40075 2.62207 0
M  V30 1166 O 143.032 -5.92589 1.53712 0
M  V30 1167 C 140.896 -6.9454 2.18503 0
M  V30 1168 H 140.928 -7.23063 1.12091 0
M  V30 1169 H 142.111 -5.6025 3.37201 0
M  V30 1170 H 143.595 -7.35707 4.02681 0
M  V30 1171 H 141.901 -9.40912 3.9095 0
M  V30 1172 H 141.711 -8.29056 5.99158 0
M  V30 1173 H 140.081 -8.10073 5.25882 0
M  V30 1174 H 142.72 -6.30324 0.726794 0
M  V30 1175 P 144.578 -8.4349 2.47671 0
M  V30 1176 O 146 -8.94167 2.5964 0
M  V30 1177 O 144.218 -7.1704 3.19006 0
M  V30 1178 O 144.255 -8.16596 0.923387 0
M  V30 1179 C 144.095 -9.38437 0.108857 0
M  V30 1180 C 144.635 -9.08175 -1.28353 0
M  V30 1181 O 143.579 -8.44229 -1.84713 0
M  V30 1182 C 145.853 -8.18386 -1.42505 0
M  V30 1183 O 146.591 -8.3501 -2.60497 0
M  V30 1184 C 145.184 -6.80225 -1.25468 0
M  V30 1185 O 145.983 -5.81621 -1.91066 0
M  V30 1186 C 143.847 -7.02416 -1.9168 0
M  V30 1187 H 143.879 -6.6888 -2.96621 0
M  V30 1188 H 145.062 -6.53617 -0.192223 0
M  V30 1189 H 146.546 -8.36622 -0.589963 0
M  V30 1190 H 144.852 -10.0291 -1.79807 0
M  V30 1191 H 144.662 -10.2138 0.558219 0
M  V30 1192 H 143.032 -9.6579 0.0444202 0
M  V30 1193 H 145.671 -5.69556 -2.79637 0
M  V30 1194 P 147.528 -8.4349 -2.47671 0
M  V30 1195 O 148.95 -8.92593 -2.65 0
M  V30 1196 O 147.168 -7.7568 -1.19296 0
M  V30 1197 O 147.205 -7.36886 -3.63805 0
M  V30 1198 C 147.045 -7.95349 -4.982 0
M  V30 1199 C 147.585 -6.94612 -5.98974 0
M  V30 1200 O 146.529 -6.10347 -6.11815 0
M  V30 1201 C 148.803 -6.11426 -5.62335 0
M  V30 1202 O 149.541 -5.6162 -6.70584 0
M  V30 1203 C 148.134 -5.04409 -4.73308 0
M  V30 1204 O 148.933 -3.85992 -4.75183 0
M  V30 1205 C 146.797 -4.8728 -5.41006 0
M  V30 1206 H 146.829 -4.02333 -6.11157 0
M  V30 1207 H 148.012 -5.39466 -3.69543 0
M  V30 1208 H 149.496 -6.71916 -5.01943 0
M  V30 1209 H 147.802 -7.4649 -6.93477 0
M  V30 1210 H 147.612 -8.89416 -5.05237 0
M  V30 1211 H 145.982 -8.14876 -5.18409 0
M  V30 1212 H 148.621 -3.27957 -5.4317 0
M  V30 1213 P 150.479 -5.75688 -6.64379 0
M  V30 1214 O 151.901 -6.07627 -7.05504 0
M  V30 1215 O 150.119 -5.88047 -5.19722 0
M  V30 1216 O 150.156 -4.2322 -7.04443 0
M  V30 1217 C 149.996 -3.99743 -8.4911 0
M  V30 1218 C 150.536 -2.60516 -8.79425 0
M  V30 1219 O 149.48 -1.82684 -8.4467 0
M  V30 1220 C 151.754 -2.10343 -8.03628 0
M  V30 1221 O 152.492 -1.09919 -8.67766 0
M  V30 1222 C 151.085 -1.68446 -6.70876 0
M  V30 1223 O 151.884 -0.678137 -6.08433 0
M  V30 1224 C 149.748 -1.17436 -7.18567 0
M  V30 1225 H 149.78 -0.0804732 -7.31656 0
M  V30 1226 H 150.963 -2.54037 -6.02537 0
M  V30 1227 H 152.447 -2.93881 -7.85526 0
M  V30 1228 H 150.753 -2.53065 -9.86973 0
M  V30 1229 H 150.563 -4.75072 -9.05887 0
M  V30 1230 H 148.933 -4.05244 -8.76668 0
M  V30 1231 H 151.572 0.177647 -6.34251 0
M  V30 1232 P 153.43 -1.25109 -8.70152 0
M  V30 1233 O 154.852 -1.29744 -9.22016 0
M  V30 1234 O 153.07 -2.13714 -7.55141 0
M  V30 1235 O 153.107 0.248149 -8.21425 0
M  V30 1236 C 152.947 1.22779 -9.30434 0
M  V30 1237 C 153.487 2.56293 -8.80664 0
M  V30 1238 O 152.431 3.02979 -8.09349 0
M  V30 1239 C 154.705 2.57523 -7.89775 0
M  V30 1240 O 155.443 3.7668 -7.89438 0
M  V30 1241 C 154.036 2.20997 -6.55446 0
M  V30 1242 O 154.835 2.71895 -5.48509 0
M  V30 1243 C 152.699 2.89693 -6.67988 0
M  V30 1244 H 152.731 3.88793 -6.19859 0
M  V30 1245 H 153.914 1.12046 -6.44229 0
M  V30 1246 H 155.398 1.7746 -8.19711 0
M  V30 1247 H 153.704 3.20706 -9.67112 0
M  V30 1248 H 153.514 0.901032 -10.1892 0
M  V30 1249 H 151.884 1.33049 -9.56592 0
M  V30 1250 H 154.523 3.57847 -5.23962 0
M  V30 1251 P 156.38 3.65191 -7.99657 0
M  V30 1252 O 157.802 3.89332 -8.45794 0
M  V30 1253 O 156.02 2.28472 -7.50807 0
M  V30 1254 O 156.057 4.64972 -6.77611 0
M  V30 1255 C 155.897 6.06319 -7.16352 0
M  V30 1256 C 156.437 6.91731 -6.02299 0
M  V30 1257 O 155.381 6.92449 -5.17064 0
M  V30 1258 C 157.655 6.43627 -5.25174 0
M  V30 1259 O 158.393 7.43686 -4.60469 0
M  V30 1260 C 156.986 5.40275 -4.31916 0
M  V30 1261 O 157.785 5.25279 -3.14438 0
M  V30 1262 C 155.649 6.04847 -4.05327 0
M  V30 1263 H 155.681 6.62195 -3.11261 0
M  V30 1264 H 156.864 4.42556 -4.81383 0
M  V30 1265 H 158.348 5.92458 -5.93643 0
M  V30 1266 H 156.654 7.92655 -6.402 0
M  V30 1267 H 156.464 6.26671 -8.0846 0
M  V30 1268 H 154.834 6.29101 -7.32804 0
M  V30 1269 H 157.473 5.84315 -2.47318 0
M  V30 1270 P 159.331 7.39546 -4.75277 0
M  V30 1271 O 160.753 7.84798 -5.01039 0
M  V30 1272 O 158.971 5.9812 -5.08098 0
M  V30 1273 O 159.008 7.57503 -3.1866 0
M  V30 1274 C 158.848 8.97357 -2.74833 0
M  V30 1275 C 159.388 9.07548 -1.32709 0
M  V30 1276 O 158.332 8.62072 -0.606159 0
M  V30 1277 C 160.606 8.25383 -0.938334 0
M  V30 1278 O 161.344 8.74577 0.146954 0
M  V30 1279 C 159.937 6.8802 -0.712559 0
M  V30 1280 O 160.736 6.1189 0.194655 0
M  V30 1281 C 158.6 7.27966 -0.139777 0
M  V30 1282 H 158.632 7.25354 0.961601 0
M  V30 1283 H 159.815 6.32557 -1.65702 0
M  V30 1284 H 161.299 8.19355 -1.79097 0
M  V30 1285 H 159.605 10.1294 -1.10029 0
M  V30 1286 H 159.415 9.64276 -3.41316 0
M  V30 1287 H 157.785 9.25417 -2.76357 0
M  V30 1288 H 160.424 6.25267 1.07847 0
M  V30 1289 P 162.281 8.791 -1.35693e-13 0
M  V30 1290 O 163.703 9.31096 0.027933 0
M  V30 1291 O 161.921 7.77869 -1.04071 0
M  V30 1292 O 161.958 8.09533 1.41463 0
M  V30 1293 C 161.798 9.0349 2.53943 0
M  V30 1294 C 162.338 8.35226 3.79016 0
M  V30 1295 O 161.282 7.57992 4.15078 0
M  V30 1296 C 163.556 7.45087 3.67298 0
M  V30 1297 O 164.294 7.27796 4.85194 0
M  V30 1298 C 162.887 6.17323 3.12027 0
M  V30 1299 O 163.686 5.04231 3.47188 0
M  V30 1300 C 161.55 6.19961 3.81809 0
M  V30 1301 H 161.582 5.58218 4.73051 0
M  V30 1302 H 162.765 6.21726 2.02589 0
M  V30 1303 H 164.249 7.86112 2.9231 0
M  V30 1304 H 162.555 9.11627 4.55076 0
M  V30 1305 H 162.365 9.9573 2.34194 0
M  V30 1306 H 160.735 9.2792 2.67832 0
M  V30 1307 H 163.374 4.67702 4.28772 0
M  V30 1308 P 165.232 7.39546 4.75277 0
M  V30 1309 O 166.654 7.81777 5.05738 0
M  V30 1310 O 164.872 7.1065 3.32998 0
M  V30 1311 O 164.909 6.04542 5.56673 0
M  V30 1312 C 164.749 6.22772 7.02095 0
M  V30 1313 C 165.289 4.97725 7.70406 0
M  V30 1314 O 164.233 4.13256 7.58987 0
M  V30 1315 C 166.507 4.28231 7.11815 0
M  V30 1316 O 167.245 3.49945 8.01648 0
M  V30 1317 C 165.838 3.5063 5.96244 0
M  V30 1318 O 166.637 2.36482 5.64681 0
M  V30 1319 C 164.501 3.15122 6.56374 0
M  V30 1320 H 164.533 2.13853 6.99751 0
M  V30 1321 H 165.716 4.13501 5.06559 0
M  V30 1322 H 167.2 5.03285 6.70911 0
M  V30 1323 H 165.506 5.20877 8.75697 0
M  V30 1324 H 165.316 7.11046 7.35349 0
M  V30 1325 H 163.686 6.35815 7.26986 0
M  V30 1326 H 166.325 1.61644 6.13565 0
M  V30 1327 P 168.182 3.65191 7.99657 0
M  V30 1328 O 169.604 3.8425 8.48115 0
M  V30 1329 O 167.822 4.17805 6.64342 0
M  V30 1330 O 167.859 2.07613 7.95143 0
M  V30 1331 C 167.699 1.44328 9.27336 0
M  V30 1332 C 168.239 0.0220036 9.17197 0
M  V30 1333 O 167.183 -0.626867 8.61923 0
M  V30 1334 C 169.457 -0.24586 8.30336 0
M  V30 1335 O 170.195 -1.39011 8.63583 0
M  V30 1336 C 168.788 -0.273849 6.91158 0
M  V30 1337 O 169.587 -1.06348 6.02892 0
M  V30 1338 C 167.451 -0.897649 7.22545 0
M  V30 1339 H 167.483 -1.9841 7.04286 0
M  V30 1340 H 168.666 0.739928 6.497 0
M  V30 1341 H 170.15 0.60668 8.36503 0
M  V30 1342 H 168.456 -0.352479 10.1829 0
M  V30 1343 H 168.266 2.00611 10.0304 0
M  V30 1344 H 166.636 1.41843 9.55327 0
M  V30 1345 H 169.275 -1.95734 6.03555 0
M  V30 1346 P 171.133 -1.25109 8.70152 0
M  V30 1347 O 172.534 -1.31452 9.27431 0
M  V30 1348 O 170.755 -0.0458113 7.89887 0
M  V30 1349 O 170.81 -2.55201 7.81066 0
M  V30 1350 C 170.65 -3.79939 8.58154 0
M  V30 1351 C 171.19 -4.93969 7.72701 0
M  V30 1352 O 170.134 -5.18666 6.91125 0
M  V30 1353 C 172.407 -4.69597 6.85231 0
M  V30 1354 O 173.146 -5.83832 6.51337 0
M  V30 1355 C 171.74 -3.96706 5.66633 0
M  V30 1356 O 172.538 -4.15346 4.49615 0
M  V30 1357 C 170.402 -4.66153 5.59313 0
M  V30 1358 N 169.359 -3.71582 5.24027 0
M  V30 1359 C 168.324 -4.15133 4.44901 0
M  V30 1360 O 168.363 -5.32122 4.00336 0
M  V30 1361 N 167.312 -3.30554 4.15693 0
M  V30 1362 C 167.36 -2.04701 4.61105 0
M  V30 1363 C 168.456 -1.57111 5.38655 0
M  V30 1364 C 169.422 -2.44234 5.68454 0
M  V30 1365 H 170.434 -5.47604 4.85148 0
M  V30 1366 H 171.617 -2.8955 5.86187 0
M  V30 1367 H 173.101 -4.01995 7.36197 0
M  V30 1368 H 171.407 -5.81019 8.37003 0
M  V30 1369 H 171.216 -3.73517 9.52265 0
M  V30 1370 H 169.586 -3.97122 8.80267 0
M  V30 1371 H 168.504 -0.538464 5.72373 0
M  V30 1372 H 170.268 -2.11927 6.29377 0
M  V30 1373 H 172.322 -4.98352 4.09633 0
M  V30 1374 P 174.084 -5.75688 6.64379 0
M  V30 1375 O 175.506 -6.11849 7.01846 0
M  V30 1376 O 173.724 -4.30744 6.56026 0
M  V30 1377 O 173.761 -6.37042 5.19165 0
M  V30 1378 C 173.601 -7.83578 5.16515 0
M  V30 1379 C 174.141 -8.33398 3.83019 0
M  V30 1380 O 173.085 -8.10074 3.01034 0
M  V30 1381 C 175.359 -7.65514 3.2257 0
M  V30 1382 O 176.097 -8.4329 2.32297 0
M  V30 1383 C 174.69 -6.40075 2.62207 0
M  V30 1384 O 175.489 -5.92589 1.53712 0
M  V30 1385 C 173.353 -6.9454 2.18503 0
M  V30 1386 H 173.385 -7.23063 1.12091 0
M  V30 1387 H 174.568 -5.6025 3.37201 0
M  V30 1388 H 176.052 -7.35707 4.02681 0
M  V30 1389 H 174.358 -9.40912 3.9095 0
M  V30 1390 H 174.168 -8.29056 5.99158 0
M  V30 1391 H 172.538 -8.10073 5.25882 0
M  V30 1392 H 175.177 -6.30324 0.726794 0
M  V30 1393 P 177.034 -8.4349 2.47671 0
M  V30 1394 O 178.456 -8.94167 2.5964 0
M  V30 1395 O 176.674 -7.1704 3.19006 0
M  V30 1396 O 176.711 -8.16596 0.923387 0
M  V30 1397 C 176.551 -9.38437 0.108857 0
M  V30 1398 C 177.091 -9.08175 -1.28353 0
M  V30 1399 O 176.035 -8.44229 -1.84713 0
M  V30 1400 C 178.309 -8.18386 -1.42505 0
M  V30 1401 O 179.047 -8.3501 -2.60497 0
M  V30 1402 C 177.64 -6.80225 -1.25468 0
M  V30 1403 O 178.439 -5.81621 -1.91066 0
M  V30 1404 C 176.303 -7.02416 -1.9168 0
M  V30 1405 H 176.335 -6.6888 -2.96621 0
M  V30 1406 H 177.518 -6.53617 -0.192223 0
M  V30 1407 H 179.002 -8.36622 -0.589963 0
M  V30 1408 H 177.308 -10.0291 -1.79807 0
M  V30 1409 H 177.118 -10.2138 0.558219 0
M  V30 1410 H 175.488 -9.6579 0.0444202 0
M  V30 1411 H 178.127 -5.69556 -2.79637 0
M  V30 1412 P 179.985 -8.4349 -2.47671 0
M  V30 1413 O 181.407 -8.92593 -2.65 0
M  V30 1414 O 179.625 -7.7568 -1.19296 0
M  V30 1415 O 179.662 -7.36886 -3.63805 0
M  V30 1416 C 179.502 -7.95349 -4.982 0
M  V30 1417 C 180.042 -6.94612 -5.98974 0
M  V30 1418 O 178.986 -6.10347 -6.11815 0
M  V30 1419 C 181.26 -6.11426 -5.62335 0
M  V30 1420 O 181.998 -5.6162 -6.70584 0
M  V30 1421 C 180.591 -5.04409 -4.73308 0
M  V30 1422 O 181.39 -3.85992 -4.75183 0
M  V30 1423 C 179.254 -4.8728 -5.41006 0
M  V30 1424 H 179.286 -4.02333 -6.11157 0
M  V30 1425 H 180.469 -5.39466 -3.69543 0
M  V30 1426 H 181.953 -6.71916 -5.01943 0
M  V30 1427 H 180.259 -7.4649 -6.93477 0
M  V30 1428 H 180.069 -8.89416 -5.05237 0
M  V30 1429 H 178.439 -8.14876 -5.18409 0
M  V30 1430 H 181.078 -3.27957 -5.4317 0
M  V30 1431 P 182.935 -5.75688 -6.64379 0
M  V30 1432 O 184.357 -6.07627 -7.05504 0
M  V30 1433 O 182.575 -5.88047 -5.19722 0
M  V30 1434 O 182.612 -4.2322 -7.04443 0
M  V30 1435 C 182.452 -3.99743 -8.4911 0
M  V30 1436 C 182.992 -2.60516 -8.79425 0
M  V30 1437 O 181.936 -1.82684 -8.4467 0
M  V30 1438 C 184.21 -2.10343 -8.03628 0
M  V30 1439 O 184.948 -1.09919 -8.67766 0
M  V30 1440 C 183.541 -1.68446 -6.70876 0
M  V30 1441 O 184.34 -0.678137 -6.08433 0
M  V30 1442 C 182.204 -1.17436 -7.18567 0
M  V30 1443 H 182.236 -0.0804732 -7.31656 0
M  V30 1444 H 183.419 -2.54037 -6.02537 0
M  V30 1445 H 184.903 -2.93881 -7.85526 0
M  V30 1446 H 183.209 -2.53065 -9.86973 0
M  V30 1447 H 183.019 -4.75072 -9.05887 0
M  V30 1448 H 181.389 -4.05244 -8.76668 0
M  V30 1449 H 184.028 0.177647 -6.34251 0
M  V30 1450 P 185.886 -1.25109 -8.70152 0
M  V30 1451 O 187.308 -1.29744 -9.22016 0
M  V30 1452 O 185.526 -2.13714 -7.55141 0
M  V30 1453 O 185.563 0.248149 -8.21425 0
M  V30 1454 C 185.403 1.22779 -9.30434 0
M  V30 1455 C 185.943 2.56293 -8.80664 0
M  V30 1456 O 184.887 3.02979 -8.09349 0
M  V30 1457 C 187.161 2.57523 -7.89775 0
M  V30 1458 O 187.899 3.7668 -7.89438 0
M  V30 1459 C 186.492 2.20997 -6.55446 0
M  V30 1460 O 187.291 2.71895 -5.48509 0
M  V30 1461 C 185.155 2.89693 -6.67988 0
M  V30 1462 H 185.187 3.88793 -6.19859 0
M  V30 1463 H 186.37 1.12046 -6.44229 0
M  V30 1464 H 187.854 1.7746 -8.19711 0
M  V30 1465 H 186.16 3.20706 -9.67112 0
M  V30 1466 H 185.97 0.901032 -10.1892 0
M  V30 1467 H 184.34 1.33049 -9.56592 0
M  V30 1468 H 186.979 3.57847 -5.23962 0
M  V30 1469 P 188.836 3.65191 -7.99657 0
M  V30 1470 O 190.258 3.89332 -8.45794 0
M  V30 1471 O 188.476 2.28472 -7.50807 0
M  V30 1472 O 188.513 4.64972 -6.77611 0
M  V30 1473 C 188.353 6.06319 -7.16352 0
M  V30 1474 C 188.893 6.91731 -6.02299 0
M  V30 1475 O 187.837 6.92449 -5.17064 0
M  V30 1476 C 190.111 6.43627 -5.25174 0
M  V30 1477 O 190.849 7.43686 -4.60469 0
M  V30 1478 C 189.442 5.40275 -4.31916 0
M  V30 1479 O 190.241 5.25279 -3.14438 0
M  V30 1480 C 188.105 6.04847 -4.05327 0
M  V30 1481 H 188.137 6.62195 -3.11261 0
M  V30 1482 H 189.32 4.42556 -4.81383 0
M  V30 1483 H 190.804 5.92458 -5.93643 0
M  V30 1484 H 189.11 7.92655 -6.402 0
M  V30 1485 H 188.92 6.26671 -8.0846 0
M  V30 1486 H 187.29 6.29101 -7.32804 0
M  V30 1487 H 189.929 5.84315 -2.47318 0
M  V30 1488 P 191.787 7.39546 -4.75277 0
M  V30 1489 O 193.208 7.84882 -5.01092 0
M  V30 1490 O 191.427 5.9812 -5.08098 0
M  V30 1491 O 191.464 7.57503 -3.1866 0
M  V30 1492 C 191.303 8.97452 -2.74862 0
M  V30 1493 C 191.844 9.07548 -1.32709 0
M  V30 1494 O 190.789 8.61972 -0.606089 0
M  V30 1495 C 193.062 8.25383 -0.938334 0
M  V30 1496 O 193.8 8.74577 0.146954 0
M  V30 1497 C 192.394 6.8802 -0.712559 0
M  V30 1498 O 193.192 6.1181 0.188505 0
M  V30 1499 C 191.056 7.27966 -0.139777 0
M  V30 1500 N 190.013 6.39368 -0.623421 0
M  V30 1501 C 190.182 5.71761 -1.78245 0
M  V30 1502 N 189.155 4.962 -2.10491 0
M  V30 1503 C 188.27 5.16158 -1.0635 0
M  V30 1504 C 187.003 4.60425 -0.810266 0
M  V30 1505 N 186.404 3.7057 -1.62914 0
M  V30 1506 N 186.438 5.06 0.348685 0
M  V30 1507 C 187.04 5.94532 1.20395 0
M  V30 1508 N 188.217 6.48452 1.01191 0
M  V30 1509 C 188.792 6.04423 -0.146291 0
M  V30 1510 H 191.088 7.25255 0.961469 0
M  V30 1511 H 192.271 6.32625 -1.65044 0
M  V30 1512 H 193.754 8.19355 -1.79097 0
M  V30 1513 H 192.06 10.1305 -1.09016 0
M  V30 1514 H 191.87 9.64276 -3.41316 0
M  V30 1515 H 190.24 9.25417 -2.76357 0
M  V30 1516 H 186.504 6.21659 2.10714 0
M  V30 1517 H 191.082 5.79354 -2.38959 0
M  V30 1518 H 185.474 3.33174 -1.38982 0
M  V30 1519 H 186.878 3.39714 -2.48836 0
M  V30 1520 H 192.88 6.25169 1.0783 0
M  V30 1521 P 194.738 8.791 1.12009e-13 0
M  V30 1522 O 196.159 9.31196 0.027936 0
M  V30 1523 O 194.378 7.77869 -1.04071 0
M  V30 1524 O 194.415 8.09533 1.41463 0
M  V30 1525 C 194.254 9.03587 2.5397 0
M  V30 1526 C 194.795 8.35226 3.79016 0
M  V30 1527 O 193.74 7.57904 4.1503 0
M  V30 1528 C 196.013 7.45087 3.67298 0
M  V30 1529 O 196.751 7.27796 4.85194 0
M  V30 1530 C 195.345 6.17323 3.12027 0
M  V30 1531 O 196.143 5.04496 3.46627 0
M  V30 1532 C 194.007 6.19961 3.81809 0
M  V30 1533 N 192.964 5.71575 2.93223 0
M  V30 1534 C 193.133 5.77362 1.59168 0
M  V30 1535 N 192.106 5.3123 0.911893 0
M  V30 1536 C 191.221 4.91717 1.89588 0
M  V30 1537 C 189.954 4.3114 1.8076 0
M  V30 1538 N 189.389 4.06823 3.02898 0
M  V30 1539 C 189.991 4.35062 4.22711 0
M  V30 1540 N 191.168 4.90805 4.35707 0
M  V30 1541 C 191.743 5.16382 3.14469 0
M  V30 1542 H 195.222 6.21428 2.0318 0
M  V30 1543 H 196.705 7.86112 2.9231 0
M  V30 1544 H 195.011 9.11171 4.55987 0
M  V30 1545 H 194.821 9.9573 2.34194 0
M  V30 1546 H 193.191 9.2792 2.67832 0
M  V30 1547 H 194.033 6.16575 1.12198 0
M  V30 1548 H 195.831 4.67628 4.28704 0
M  V30 1549 P 197.688 7.39546 4.75277 0
M  V30 1550 O 199.109 7.81861 5.05793 0
M  V30 1551 O 197.328 7.1065 3.32998 0
M  V30 1552 O 197.365 6.04542 5.56673 0
M  V30 1553 C 197.204 6.22839 7.02169 0
M  V30 1554 C 197.745 4.97725 7.70406 0
M  V30 1555 O 196.69 4.13208 7.58899 0
M  V30 1556 C 198.963 4.28231 7.11815 0
M  V30 1557 O 199.701 3.49945 8.01648 0
M  V30 1558 C 198.295 3.5063 5.96244 0
M  V30 1559 O 199.093 2.37008 5.64352 0
M  V30 1560 C 196.957 3.15122 6.56374 0
M  V30 1561 N 195.914 3.22311 5.55692 0
M  V30 1562 C 196.083 3.99655 4.46046 0
M  V30 1563 N 195.056 3.97599 3.63918 0
M  V30 1564 C 194.171 3.11159 4.25334 0
M  V30 1565 C 192.904 2.64972 3.85157 0
M  V30 1566 N 192.339 1.78482 4.74759 0
M  V30 1567 C 192.941 1.37463 5.90819 0
M  V30 1568 N 194.118 1.7733 6.31889 0
M  V30 1569 C 194.693 2.64393 5.43725 0
M  V30 1570 H 198.172 4.12931 5.06895 0
M  V30 1571 H 199.655 5.03285 6.70911 0
M  V30 1572 H 197.961 5.20001 8.76217 0
M  V30 1573 H 197.771 7.11046 7.35349 0
M  V30 1574 H 196.141 6.35815 7.26986 0
M  V30 1575 H 196.983 4.58037 4.27732 0
M  V30 1576 H 198.781 1.61619 6.13468 0
M  V30 1577 P 200.639 3.65191 7.99657 0
M  V30 1578 O 202.061 3.8425 8.48115 0
M  V30 1579 O 200.279 4.17805 6.64342 0
M  V30 1580 O 200.316 2.07613 7.95143 0
M  V30 1581 C 200.156 1.44328 9.27336 0
M  V30 1582 C 200.696 0.0220036 9.17197 0
M  V30 1583 O 199.64 -0.626867 8.61923 0
M  V30 1584 C 201.914 -0.24586 8.30336 0
M  V30 1585 O 202.652 -1.39011 8.63583 0
M  V30 1586 C 201.245 -0.273849 6.91158 0
M  V30 1587 O 202.044 -1.06348 6.02892 0
M  V30 1588 C 199.908 -0.897649 7.22545 0
M  V30 1589 H 199.94 -1.9841 7.04286 0
M  V30 1590 H 201.123 0.739928 6.497 0
M  V30 1591 H 202.607 0.60668 8.36503 0
M  V30 1592 H 200.913 -0.352479 10.1829 0
M  V30 1593 H 200.723 2.00611 10.0304 0
M  V30 1594 H 199.093 1.41843 9.55327 0
M  V30 1595 H 201.732 -1.95734 6.03555 0
M  V30 1596 P 203.589 -1.25109 8.70152 0
M  V30 1597 O 205.01 -1.35288 9.2132 0
M  V30 1598 O 203.229 -0.0769065 7.84762 0
M  V30 1599 O 203.266 -2.55232 7.81161 0
M  V30 1600 C 203.105 -3.79979 8.58246 0
M  V30 1601 C 203.646 -4.94023 7.72785 0
M  V30 1602 O 202.591 -5.18666 6.91125 0
M  V30 1603 C 204.864 -4.69597 6.85231 0
M  V30 1604 O 205.602 -5.83832 6.51337 0
M  V30 1605 C 204.196 -3.96706 5.66633 0
M  V30 1606 O 204.994 -4.14896 4.5003 0
M  V30 1607 C 202.858 -4.66153 5.59313 0
M  V30 1608 N 201.815 -3.71582 5.24027 0
M  V30 1609 C 201.984 -2.39715 5.48833 0
M  V30 1610 N 200.957 -1.65863 5.12845 0
M  V30 1611 C 200.072 -2.57637 4.5973 0
M  V30 1612 C 198.805 -2.40278 4.01027 0
M  V30 1613 N 198.206 -1.19549 3.86744 0
M  V30 1614 N 198.24 -3.57711 3.59575 0
M  V30 1615 C 198.842 -4.80324 3.70476 0
M  V30 1616 N 200.019 -5.01121 4.23801 0
M  V30 1617 C 200.594 -3.84757 4.66372 0
M  V30 1618 H 202.89 -5.47604 4.85148 0
M  V30 1619 H 204.073 -2.8955 5.86187 0
M  V30 1620 H 205.556 -4.0121 7.36511 0
M  V30 1621 H 203.862 -5.81019 8.37003 0
M  V30 1622 H 203.672 -3.73517 9.52265 0
M  V30 1623 H 202.042 -3.97163 8.80359 0
M  V30 1624 H 198.306 -5.66348 3.3183 0
M  V30 1625 H 202.884 -1.98804 5.94332 0
M  V30 1626 H 197.276 -1.13147 3.4281 0
M  V30 1627 H 198.68 -0.344074 4.19692 0
M  V30 1628 H 204.682 -4.90891 4.01857 0
M  V30 1629 P 206.54 -5.75688 6.64379 0
M  V30 1630 O 207.962 -6.11849 7.01846 0
M  V30 1631 O 206.18 -4.30744 6.56026 0
M  V30 1632 O 206.217 -6.37042 5.19165 0
M  V30 1633 C 206.057 -7.83578 5.16515 0
M  V30 1634 C 206.597 -8.33398 3.83019 0
M  V30 1635 O 205.541 -8.10074 3.01034 0
M  V30 1636 C 207.815 -7.65514 3.2257 0
M  V30 1637 O 208.553 -8.4329 2.32297 0
M  V30 1638 C 207.146 -6.40075 2.62207 0
M  V30 1639 O 207.945 -5.92589 1.53712 0
M  V30 1640 C 205.809 -6.9454 2.18503 0
M  V30 1641 H 205.841 -7.23063 1.12091 0
M  V30 1642 H 207.024 -5.6025 3.37201 0
M  V30 1643 H 208.508 -7.35707 4.02681 0
M  V30 1644 H 206.814 -9.40912 3.9095 0
M  V30 1645 H 206.624 -8.29056 5.99158 0
M  V30 1646 H 204.994 -8.10073 5.25882 0
M  V30 1647 H 207.633 -6.30324 0.726794 0
M  V30 1648 P 209.49 -8.4349 2.47671 0
M  V30 1649 O 210.912 -8.94167 2.5964 0
M  V30 1650 O 209.13 -7.1704 3.19006 0
M  V30 1651 O 209.167 -8.16596 0.923387 0
M  V30 1652 C 209.007 -9.38437 0.108857 0
M  V30 1653 C 209.547 -9.08175 -1.28353 0
M  V30 1654 O 208.491 -8.44229 -1.84713 0
M  V30 1655 C 210.765 -8.18386 -1.42505 0
M  V30 1656 O 211.503 -8.3501 -2.60497 0
M  V30 1657 C 210.096 -6.80225 -1.25468 0
M  V30 1658 O 210.895 -5.81621 -1.91066 0
M  V30 1659 C 208.759 -7.02416 -1.9168 0
M  V30 1660 H 208.791 -6.6888 -2.96621 0
M  V30 1661 H 209.974 -6.53617 -0.192223 0
M  V30 1662 H 211.458 -8.36622 -0.589963 0
M  V30 1663 H 209.764 -10.0291 -1.79807 0
M  V30 1664 H 209.574 -10.2138 0.558219 0
M  V30 1665 H 207.944 -9.6579 0.0444202 0
M  V30 1666 H 210.583 -5.69556 -2.79637 0
M  V30 1667 P 212.441 -8.4349 -2.47671 0
M  V30 1668 O 213.863 -8.92593 -2.65 0
M  V30 1669 O 212.081 -7.7568 -1.19296 0
M  V30 1670 O 212.118 -7.36886 -3.63805 0
M  V30 1671 C 211.958 -7.95349 -4.982 0
M  V30 1672 C 212.498 -6.94612 -5.98974 0
M  V30 1673 O 211.442 -6.10347 -6.11815 0
M  V30 1674 C 213.716 -6.11426 -5.62335 0
M  V30 1675 O 214.454 -5.6162 -6.70584 0
M  V30 1676 C 213.047 -5.04409 -4.73308 0
M  V30 1677 O 213.846 -3.85992 -4.75183 0
M  V30 1678 C 211.71 -4.8728 -5.41006 0
M  V30 1679 H 211.742 -4.02333 -6.11157 0
M  V30 1680 H 212.925 -5.39466 -3.69543 0
M  V30 1681 H 214.409 -6.71916 -5.01943 0
M  V30 1682 H 212.715 -7.4649 -6.93477 0
M  V30 1683 H 212.525 -8.89416 -5.05237 0
M  V30 1684 H 210.895 -8.14876 -5.18409 0
M  V30 1685 H 213.534 -3.27957 -5.4317 0
M  V30 1686 P 215.392 -5.75688 -6.64379 0
M  V30 1687 O 216.814 -6.07627 -7.05504 0
M  V30 1688 O 215.032 -5.88047 -5.19722 0
M  V30 1689 O 215.069 -4.2322 -7.04443 0
M  V30 1690 C 214.909 -3.99743 -8.4911 0
M  V30 1691 C 215.449 -2.60516 -8.79425 0
M  V30 1692 O 214.393 -1.82684 -8.4467 0
M  V30 1693 C 216.667 -2.10343 -8.03628 0
M  V30 1694 O 217.405 -1.09919 -8.67766 0
M  V30 1695 C 215.998 -1.68446 -6.70876 0
M  V30 1696 O 216.797 -0.678137 -6.08433 0
M  V30 1697 C 214.661 -1.17436 -7.18567 0
M  V30 1698 H 214.693 -0.0804732 -7.31656 0
M  V30 1699 H 215.876 -2.54037 -6.02537 0
M  V30 1700 H 217.36 -2.93881 -7.85526 0
M  V30 1701 H 215.666 -2.53065 -9.86973 0
M  V30 1702 H 215.476 -4.75072 -9.05887 0
M  V30 1703 H 213.846 -4.05244 -8.76668 0
M  V30 1704 H 216.485 0.177647 -6.34251 0
M  V30 1705 P 218.342 -1.25109 -8.70152 0
M  V30 1706 O 219.764 -1.29744 -9.22016 0
M  V30 1707 O 217.982 -2.13714 -7.55141 0
M  V30 1708 O 218.019 0.248149 -8.21425 0
M  V30 1709 C 217.859 1.22779 -9.30434 0
M  V30 1710 C 218.399 2.56293 -8.80664 0
M  V30 1711 O 217.343 3.02979 -8.09349 0
M  V30 1712 C 219.617 2.57523 -7.89775 0
M  V30 1713 O 220.355 3.7668 -7.89438 0
M  V30 1714 C 218.948 2.20997 -6.55446 0
M  V30 1715 O 219.747 2.71895 -5.48509 0
M  V30 1716 C 217.611 2.89693 -6.67988 0
M  V30 1717 H 217.643 3.88793 -6.19859 0
M  V30 1718 H 218.826 1.12046 -6.44229 0
M  V30 1719 H 220.31 1.7746 -8.19711 0
M  V30 1720 H 218.616 3.20706 -9.67112 0
M  V30 1721 H 218.426 0.901032 -10.1892 0
M  V30 1722 H 216.796 1.33049 -9.56592 0
M  V30 1723 H 219.435 3.57847 -5.23962 0
M  V30 1724 P 221.293 3.65191 -7.99657 0
M  V30 1725 O 222.694 3.87414 -8.52829 0
M  V30 1726 O 220.915 2.26932 -7.566 0
M  V30 1727 O 220.97 4.64915 -6.77529 0
M  V30 1728 C 220.81 6.06319 -7.16352 0
M  V30 1729 C 221.35 6.91655 -6.02234 0
M  V30 1730 O 220.294 6.92369 -5.17005 0
M  V30 1731 C 222.567 6.43627 -5.25174 0
M  V30 1732 O 223.306 7.43686 -4.60469 0
M  V30 1733 C 221.9 5.40275 -4.31916 0
M  V30 1734 O 222.698 5.25193 -3.14386 0
M  V30 1735 C 220.562 6.04847 -4.05327 0
M  V30 1736 N 219.519 5.04166 -3.98114 0
M  V30 1737 C 218.484 5.2366 -3.09923 0
M  V30 1738 O 218.523 6.23355 -2.34204 0
M  V30 1739 N 217.472 4.34279 -3.05727 0
M  V30 1740 C 217.52 3.26317 -3.84756 0
M  V30 1741 C 218.616 3.02504 -4.72573 0
M  V30 1742 C 219.582 3.94493 -4.76618 0
M  V30 1743 H 220.594 6.62104 -3.11218 0
M  V30 1744 H 221.777 4.42969 -4.80867 0
M  V30 1745 H 223.261 5.93122 -5.93121 0
M  V30 1746 H 221.567 7.93295 -6.39407 0
M  V30 1747 H 221.376 6.26671 -8.0846 0
M  V30 1748 H 219.746 6.29036 -7.32728 0
M  V30 1749 H 218.664 2.12921 -5.34017 0
M  V30 1750 H 220.428 3.80658 -5.44176 0
M  V30 1751 H 222.482 5.93572 -2.52637 0
M  V30 1752 P 224.243 7.39546 -4.75277 0
M  V30 1753 O 225.664 7.84882 -5.01092 0
M  V30 1754 O 223.883 5.9812 -5.08098 0
M  V30 1755 O 223.92 7.57503 -3.1866 0
M  V30 1756 C 223.759 8.97452 -2.74862 0
M  V30 1757 C 224.3 9.07548 -1.32709 0
M  V30 1758 O 223.245 8.61972 -0.606089 0
M  V30 1759 C 225.518 8.25383 -0.938334 0
M  V30 1760 O 226.256 8.74577 0.146954 0
M  V30 1761 C 224.85 6.8802 -0.712559 0
M  V30 1762 O 225.648 6.1181 0.188505 0
M  V30 1763 C 223.512 7.27966 -0.139777 0
M  V30 1764 N 222.469 6.39368 -0.623421 0
M  V30 1765 C 222.638 5.71761 -1.78245 0
M  V30 1766 N 221.611 4.962 -2.10491 0
M  V30 1767 C 220.726 5.16158 -1.0635 0
M  V30 1768 C 219.459 4.60425 -0.810266 0
M  V30 1769 N 218.894 5.06 0.348685 0
M  V30 1770 C 219.496 5.94532 1.20395 0
M  V30 1771 N 220.673 6.48452 1.01191 0
M  V30 1772 C 221.248 6.04423 -0.146291 0
M  V30 1773 H 224.727 6.32625 -1.65044 0
M  V30 1774 H 226.21 8.19355 -1.79097 0
M  V30 1775 H 224.516 10.1305 -1.09016 0
M  V30 1776 H 224.326 9.64276 -3.41316 0
M  V30 1777 H 222.696 9.25417 -2.76357 0
M  V30 1778 H 223.538 5.79354 -2.38959 0
M  V30 1779 H 225.336 6.25169 1.0783 0
M  V30 1780 P 227.194 8.791 4.22174e-13 0
M  V30 1781 O 228.615 9.31196 0.027936 0
M  V30 1782 O 226.834 7.77869 -1.04071 0
M  V30 1783 O 226.871 8.09533 1.41463 0
M  V30 1784 C 226.71 9.03587 2.5397 0
M  V30 1785 C 227.251 8.35226 3.79016 0
M  V30 1786 O 226.196 7.57904 4.1503 0
M  V30 1787 C 228.469 7.45087 3.67298 0
M  V30 1788 O 229.207 7.27796 4.85194 0
M  V30 1789 C 227.801 6.17323 3.12027 0
M  V30 1790 O 228.599 5.04496 3.46627 0
M  V30 1791 C 226.463 6.19961 3.81809 0
M  V30 1792 N 225.42 5.71575 2.93223 0
M  V30 1793 C 225.589 5.77362 1.59168 0
M  V30 1794 N 224.562 5.3123 0.911893 0
M  V30 1795 C 223.677 4.91717 1.89588 0
M  V30 1796 C 222.41 4.3114 1.8076 0
M  V30 1797 N 221.845 4.06823 3.02898 0
M  V30 1798 C 222.447 4.35062 4.22711 0
M  V30 1799 N 223.624 4.90805 4.35707 0
M  V30 1800 C 224.199 5.16382 3.14469 0
M  V30 1801 H 227.678 6.21428 2.0318 0
M  V30 1802 H 229.161 7.86112 2.9231 0
M  V30 1803 H 227.467 9.11171 4.55987 0
M  V30 1804 H 227.277 9.9573 2.34194 0
M  V30 1805 H 225.647 9.2792 2.67832 0
M  V30 1806 H 226.489 6.16575 1.12198 0
M  V30 1807 H 228.287 4.67628 4.28704 0
M  V30 1808 P 230.144 7.39546 4.75277 0
M  V30 1809 O 231.566 7.81777 5.05738 0
M  V30 1810 O 229.784 7.1065 3.32998 0
M  V30 1811 O 229.821 6.04542 5.56673 0
M  V30 1812 C 229.661 6.22772 7.02095 0
M  V30 1813 C 230.201 4.97725 7.70406 0
M  V30 1814 O 229.145 4.13256 7.58987 0
M  V30 1815 C 231.419 4.28231 7.11815 0
M  V30 1816 O 232.157 3.49945 8.01648 0
M  V30 1817 C 230.75 3.5063 5.96244 0
M  V30 1818 O 231.549 2.36482 5.64681 0
M  V30 1819 C 229.413 3.15122 6.56374 0
M  V30 1820 H 229.445 2.13853 6.99751 0
M  V30 1821 H 230.628 4.13501 5.06559 0
M  V30 1822 H 232.112 5.03285 6.70911 0
M  V30 1823 H 230.418 5.20877 8.75697 0
M  V30 1824 H 230.228 7.11046 7.35349 0
M  V30 1825 H 228.598 6.35815 7.26986 0
M  V30 1826 H 231.237 1.61644 6.13565 0
M  V30 1827 P 233.095 3.65191 7.99657 0
M  V30 1828 O 234.517 3.8425 8.48115 0
M  V30 1829 O 232.735 4.17805 6.64342 0
M  V30 1830 O 232.772 2.07613 7.95143 0
M  V30 1831 C 232.612 1.44328 9.27336 0
M  V30 1832 C 233.152 0.0220036 9.17197 0
M  V30 1833 O 232.096 -0.626867 8.61923 0
M  V30 1834 C 234.37 -0.24586 8.30336 0
M  V30 1835 O 235.108 -1.39011 8.63583 0
M  V30 1836 C 233.701 -0.273849 6.91158 0
M  V30 1837 O 234.5 -1.06348 6.02892 0
M  V30 1838 C 232.364 -0.897649 7.22545 0
M  V30 1839 H 232.396 -1.9841 7.04286 0
M  V30 1840 H 233.579 0.739928 6.497 0
M  V30 1841 H 235.063 0.60668 8.36503 0
M  V30 1842 H 233.369 -0.352479 10.1829 0
M  V30 1843 H 233.179 2.00611 10.0304 0
M  V30 1844 H 231.549 1.41843 9.55327 0
M  V30 1845 H 234.188 -1.95734 6.03555 0
M  V30 1846 P 236.046 -1.25109 8.70152 0
M  V30 1847 O 237.468 -1.35274 9.21221 0
M  V30 1848 O 235.686 -0.0769065 7.84762 0
M  V30 1849 O 235.723 -2.55232 7.81161 0
M  V30 1850 C 235.563 -3.79939 8.58154 0
M  V30 1851 C 236.103 -4.94023 7.72785 0
M  V30 1852 O 235.047 -5.18726 6.91205 0
M  V30 1853 C 237.321 -4.69597 6.85231 0
M  V30 1854 O 238.059 -5.83832 6.51337 0
M  V30 1855 C 236.652 -3.96706 5.66633 0
M  V30 1856 O 237.451 -4.15414 4.49689 0
M  V30 1857 C 235.315 -4.66153 5.59313 0
M  V30 1858 H 235.347 -5.47679 4.85214 0
M  V30 1859 H 236.53 -2.89008 5.86566 0
M  V30 1860 H 238.014 -4.0121 7.36511 0
M  V30 1861 H 236.32 -5.80182 8.37584 0
M  V30 1862 H 236.13 -3.73517 9.52265 0
M  V30 1863 H 234.5 -3.97163 8.80359 0
M  V30 1864 H 237.139 -4.90969 4.01921 0
M  V30 1865 P 238.996 -5.75688 6.64379 0
M  V30 1866 O 240.418 -6.11849 7.01846 0
M  V30 1867 O 238.636 -4.30744 6.56026 0
M  V30 1868 O 238.673 -6.37042 5.19165 0
M  V30 1869 C 238.513 -7.83578 5.16515 0
M  V30 1870 C 239.053 -8.33398 3.83019 0
M  V30 1871 O 237.997 -8.10074 3.01034 0
M  V30 1872 C 240.271 -7.65514 3.2257 0
M  V30 1873 O 241.009 -8.4329 2.32297 0
M  V30 1874 C 239.602 -6.40075 2.62207 0
M  V30 1875 O 240.401 -5.92589 1.53712 0
M  V30 1876 C 238.265 -6.9454 2.18503 0
M  V30 1877 H 238.297 -7.23063 1.12091 0
M  V30 1878 H 239.48 -5.6025 3.37201 0
M  V30 1879 H 240.964 -7.35707 4.02681 0
M  V30 1880 H 239.27 -9.40912 3.9095 0
M  V30 1881 H 239.08 -8.29056 5.99158 0
M  V30 1882 H 237.45 -8.10073 5.25882 0
M  V30 1883 H 240.089 -6.30324 0.726794 0
M  V30 1884 P 241.947 -8.4349 2.47671 0
M  V30 1885 O 243.369 -8.94167 2.5964 0
M  V30 1886 O 241.587 -7.1704 3.19006 0
M  V30 1887 O 241.624 -8.16596 0.923387 0
M  V30 1888 C 241.464 -9.38437 0.108857 0
M  V30 1889 C 242.004 -9.08175 -1.28353 0
M  V30 1890 O 240.948 -8.44229 -1.84713 0
M  V30 1891 C 243.222 -8.18386 -1.42505 0
M  V30 1892 O 243.96 -8.3501 -2.60497 0
M  V30 1893 C 242.553 -6.80225 -1.25468 0
M  V30 1894 O 243.352 -5.81621 -1.91066 0
M  V30 1895 C 241.216 -7.02416 -1.9168 0
M  V30 1896 H 241.248 -6.6888 -2.96621 0
M  V30 1897 H 242.431 -6.53617 -0.192223 0
M  V30 1898 H 243.915 -8.36622 -0.589963 0
M  V30 1899 H 242.221 -10.0291 -1.79807 0
M  V30 1900 H 242.031 -10.2138 0.558219 0
M  V30 1901 H 240.401 -9.6579 0.0444202 0
M  V30 1902 H 243.04 -5.69556 -2.79637 0
M  V30 1903 P 244.897 -8.4349 -2.47671 0
M  V30 1904 O 246.319 -8.92593 -2.65 0
M  V30 1905 O 244.537 -7.7568 -1.19296 0
M  V30 1906 O 244.574 -7.36886 -3.63805 0
M  V30 1907 C 244.414 -7.95349 -4.982 0
M  V30 1908 C 244.954 -6.94612 -5.98974 0
M  V30 1909 O 243.898 -6.10347 -6.11815 0
M  V30 1910 C 246.172 -6.11426 -5.62335 0
M  V30 1911 O 246.91 -5.6162 -6.70584 0
M  V30 1912 C 245.503 -5.04409 -4.73308 0
M  V30 1913 O 246.302 -3.85992 -4.75183 0
M  V30 1914 C 244.166 -4.8728 -5.41006 0
M  V30 1915 H 244.198 -4.02333 -6.11157 0
M  V30 1916 H 245.381 -5.39466 -3.69543 0
M  V30 1917 H 246.865 -6.71916 -5.01943 0
M  V30 1918 H 245.171 -7.4649 -6.93477 0
M  V30 1919 H 244.981 -8.89416 -5.05237 0
M  V30 1920 H 243.351 -8.14876 -5.18409 0
M  V30 1921 H 245.99 -3.27957 -5.4317 0
M  V30 1922 P 247.848 -5.75688 -6.64379 0
M  V30 1923 O 249.269 -6.07692 -7.0558 0
M  V30 1924 O 247.488 -5.88047 -5.19722 0
M  V30 1925 O 247.525 -4.2322 -7.04443 0
M  V30 1926 C 247.364 -3.99785 -8.49201 0
M  V30 1927 C 247.905 -2.60516 -8.79425 0
M  V30 1928 O 246.85 -1.82663 -8.44573 0
M  V30 1929 C 249.123 -2.10343 -8.03628 0
M  V30 1930 O 249.861 -1.09919 -8.67766 0
M  V30 1931 C 248.455 -1.68446 -6.70876 0
M  V30 1932 O 249.253 -0.684109 -6.08265 0
M  V30 1933 C 247.117 -1.17436 -7.18567 0
M  V30 1934 N 246.074 -1.52699 -6.23988 0
M  V30 1935 C 246.243 -2.578 -5.40574 0
M  V30 1936 N 245.216 -2.78966 -4.61193 0
M  V30 1937 C 244.331 -1.78725 -4.95769 0
M  V30 1938 C 243.064 -1.45727 -4.44207 0
M  V30 1939 N 242.499 -0.374977 -5.05812 0
M  V30 1940 C 243.101 0.345585 -6.05615 0
M  V30 1941 N 244.278 0.0787651 -6.56253 0
M  V30 1942 C 244.853 -1.00499 -5.96189 0
M  V30 1943 H 248.332 -2.53396 -6.02698 0
M  V30 1944 H 249.815 -2.93881 -7.85526 0
M  V30 1945 H 248.121 -2.52078 -9.87225 0
M  V30 1946 H 247.931 -4.75072 -9.05887 0
M  V30 1947 H 246.301 -4.05244 -8.76668 0
M  V30 1948 H 247.143 -3.18977 -5.3945 0
M  V30 1949 H 248.941 0.177619 -6.34151 0
M  V30 1950 P 250.798 -1.25109 -8.70152 0
M  V30 1951 O 252.22 -1.29772 -9.22214 0
M  V30 1952 O 250.438 -2.13714 -7.55141 0
M  V30 1953 O 250.475 0.248149 -8.21425 0
M  V30 1954 C 250.315 1.22779 -9.30434 0
M  V30 1955 C 250.855 2.56265 -8.80568 0
M  V30 1956 O 249.8 3.02979 -8.09349 0
M  V30 1957 C 252.073 2.57523 -7.89775 0
M  V30 1958 O 252.811 3.7668 -7.89438 0
M  V30 1959 C 251.405 2.20997 -6.55446 0
M  V30 1960 O 252.203 2.71851 -5.48419 0
M  V30 1961 C 250.067 2.89693 -6.67988 0
M  V30 1962 N 249.024 2.08895 -6.07487 0
M  V30 1963 C 249.086 0.760559 -6.14209 0
M  V30 1964 N 248.041 0.200108 -5.52538 0
M  V30 1965 C 247.307 1.22692 -5.09742 0
M  V30 1966 C 246.001 1.24782 -4.48775 0
M  V30 1967 O 245.268 0.290617 -4.19294 0
M  V30 1968 N 245.571 2.50468 -4.22428 0
M  V30 1969 C 246.32 3.67142 -4.51974 0
M  V30 1970 N 245.723 4.85096 -4.14091 0
M  V30 1971 N 247.473 3.67821 -5.12831 0
M  V30 1972 C 247.93 2.43698 -5.4105 0
M  V30 1973 H 250.099 3.88793 -6.19859 0
M  V30 1974 H 251.282 1.12029 -6.4413 0
M  V30 1975 H 252.767 1.78279 -8.19533 0
M  V30 1976 H 251.072 3.20706 -9.67112 0
M  V30 1977 H 250.882 0.901032 -10.1892 0
M  V30 1978 H 249.251 1.33049 -9.56592 0
M  V30 1979 H 244.675 2.61953 -3.79465 0
M  V30 1980 H 249.882 0.200439 -6.63497 0
M  V30 1981 H 244.812 4.8334 -3.66367 0
M  V30 1982 H 246.188 5.7474 -4.33841 0
M  V30 1983 H 251.892 3.5779 -5.23879 0
M  V30 1984 P 253.749 3.65191 -7.99657 0
M  V30 1985 O 255.171 3.89332 -8.45794 0
M  V30 1986 O 253.389 2.28472 -7.50807 0
M  V30 1987 O 253.426 4.64972 -6.77611 0
M  V30 1988 C 253.266 6.06319 -7.16352 0
M  V30 1989 C 253.806 6.91731 -6.02299 0
M  V30 1990 O 252.75 6.92449 -5.17064 0
M  V30 1991 C 255.024 6.43627 -5.25174 0
M  V30 1992 O 255.762 7.43686 -4.60469 0
M  V30 1993 C 254.355 5.40275 -4.31916 0
M  V30 1994 O 255.154 5.25279 -3.14438 0
M  V30 1995 C 253.018 6.04847 -4.05327 0
M  V30 1996 H 253.05 6.62195 -3.11261 0
M  V30 1997 H 254.233 4.42556 -4.81383 0
M  V30 1998 H 255.717 5.92458 -5.93643 0
M  V30 1999 H 254.023 7.92655 -6.402 0
M  V30 2000 H 253.833 6.26671 -8.0846 0
M  V30 2001 H 252.203 6.29101 -7.32804 0
M  V30 2002 H 254.842 5.84315 -2.47318 0
M  V30 2003 P 256.7 7.39546 -4.75277 0
M  V30 2004 O 258.122 7.84798 -5.01039 0
M  V30 2005 O 256.34 5.9812 -5.08098 0
M  V30 2006 O 256.377 7.57503 -3.1866 0
M  V30 2007 C 256.217 8.97357 -2.74833 0
M  V30 2008 C 256.757 9.07548 -1.32709 0
M  V30 2009 O 255.701 8.62072 -0.606159 0
M  V30 2010 C 257.975 8.25383 -0.938334 0
M  V30 2011 O 258.713 8.74577 0.146954 0
M  V30 2012 C 257.306 6.8802 -0.712559 0
M  V30 2013 O 258.105 6.1189 0.194655 0
M  V30 2014 C 255.969 7.27966 -0.139777 0
M  V30 2015 H 256.001 7.25354 0.961601 0
M  V30 2016 H 257.184 6.32557 -1.65702 0
M  V30 2017 H 258.668 8.19355 -1.79097 0
M  V30 2018 H 256.974 10.1294 -1.10029 0
M  V30 2019 H 256.784 9.64276 -3.41316 0
M  V30 2020 H 255.154 9.25417 -2.76357 0
M  V30 2021 H 257.793 6.25267 1.07847 0
M  V30 2022 P 259.65 8.791 7.3234e-13 0
M  V30 2023 O 261.051 9.36698 -0.018734 0
M  V30 2024 O 259.272 7.82499 -1.07878 0
M  V30 2025 O 259.327 8.09434 1.41446 0
M  V30 2026 C 259.167 9.0349 2.53943 0
M  V30 2027 C 259.707 8.35135 3.78975 0
M  V30 2028 O 258.651 7.57904 4.1503 0
M  V30 2029 C 260.924 7.45087 3.67298 0
M  V30 2030 O 261.663 7.27796 4.85194 0
M  V30 2031 C 260.257 6.17323 3.12027 0
M  V30 2032 O 261.055 5.04149 3.47132 0
M  V30 2033 C 258.919 6.19961 3.81809 0
M  V30 2034 N 257.876 5.71575 2.93223 0
M  V30 2035 C 256.841 4.99452 3.47592 0
M  V30 2036 O 256.88 4.7199 4.69732 0
M  V30 2037 N 255.829 4.58505 2.6803 0
M  V30 2038 C 255.877 4.85544 1.36995 0
M  V30 2039 N 254.867 4.45052 0.609031 0
M  V30 2040 C 256.973 5.55532 0.788532 0
M  V30 2041 C 257.939 5.97426 1.60849 0
M  V30 2042 H 258.951 5.58142 4.72986 0
M  V30 2043 H 260.134 6.21428 2.0318 0
M  V30 2044 H 261.618 7.85913 2.93131 0
M  V30 2045 H 259.924 9.11171 4.55987 0
M  V30 2046 H 259.733 9.9573 2.34194 0
M  V30 2047 H 258.103 9.27824 2.67805 0
M  V30 2048 H 257.021 5.7421 -0.281588 0
M  V30 2049 H 258.785 6.53132 1.202 0
M  V30 2050 H 254.077 3.94123 1.03159 0
M  V30 2051 H 254.872 4.64377 -0.400352 0
M  V30 2052 H 260.839 4.76386 4.34983 0
M  V30 2053 P 262.601 7.39546 4.75277 0
M  V30 2054 O 264.023 7.81777 5.05738 0
M  V30 2055 O 262.241 7.1065 3.32998 0
M  V30 2056 O 262.278 6.04542 5.56673 0
M  V30 2057 C 262.118 6.22772 7.02095 0
M  V30 2058 C 262.658 4.97725 7.70406 0
M  V30 2059 O 261.602 4.13256 7.58987 0
M  V30 2060 C 263.876 4.28231 7.11815 0
M  V30 2061 O 264.614 3.49945 8.01648 0
M  V30 2062 C 263.207 3.5063 5.96244 0
M  V30 2063 O 264.006 2.36482 5.64681 0
M  V30 2064 C 261.87 3.15122 6.56374 0
M  V30 2065 H 261.902 2.13853 6.99751 0
M  V30 2066 H 263.085 4.13501 5.06559 0
M  V30 2067 H 264.569 5.03285 6.70911 0
M  V30 2068 H 262.875 5.20877 8.75697 0
M  V30 2069 H 262.685 7.11046 7.35349 0
M  V30 2070 H 261.055 6.35815 7.26986 0
M  V30 2071 H 263.694 1.61644 6.13565 0
M  V30 2072 P 265.551 3.65191 7.99657 0
M  V30 2073 O 266.973 3.8425 8.48115 0
M  V30 2074 O 265.191 4.17805 6.64342 0
M  V30 2075 O 265.228 2.07613 7.95143 0
M  V30 2076 C 265.068 1.44328 9.27336 0
M  V30 2077 C 265.608 0.0220036 9.17197 0
M  V30 2078 O 264.552 -0.626867 8.61923 0
M  V30 2079 C 266.826 -0.24586 8.30336 0
M  V30 2080 O 267.564 -1.39011 8.63583 0
M  V30 2081 C 266.157 -0.273849 6.91158 0
M  V30 2082 O 266.956 -1.06348 6.02892 0
M  V30 2083 C 264.82 -0.897649 7.22545 0
M  V30 2084 H 264.852 -1.9841 7.04286 0
M  V30 2085 H 266.035 0.739928 6.497 0
M  V30 2086 H 267.519 0.60668 8.36503 0
M  V30 2087 H 265.825 -0.352479 10.1829 0
M  V30 2088 H 265.635 2.00611 10.0304 0
M  V30 2089 H 264.005 1.41843 9.55327 0
M  V30 2090 H 266.644 -1.95734 6.03555 0
M  V30 2091 P 268.502 -1.25109 8.70152 0
M  V30 2092 O 269.924 -1.35274 9.21221 0
M  V30 2093 O 268.142 -0.0769065 7.84762 0
M  V30 2094 O 268.179 -2.55232 7.81161 0
M  V30 2095 C 268.019 -3.79939 8.58154 0
M  V30 2096 C 268.559 -4.94023 7.72785 0
M  V30 2097 O 267.503 -5.18726 6.91205 0
M  V30 2098 C 269.777 -4.69597 6.85231 0
M  V30 2099 O 270.515 -5.83832 6.51337 0
M  V30 2100 C 269.108 -3.96706 5.66633 0
M  V30 2101 O 269.907 -4.15414 4.49689 0
M  V30 2102 C 267.771 -4.66153 5.59313 0
M  V30 2103 H 267.803 -5.47679 4.85214 0
M  V30 2104 H 268.986 -2.89008 5.86566 0
M  V30 2105 H 270.47 -4.0121 7.36511 0
M  V30 2106 H 268.776 -5.80182 8.37584 0
M  V30 2107 H 268.586 -3.73517 9.52265 0
M  V30 2108 H 266.956 -3.97163 8.80359 0
M  V30 2109 H 269.595 -4.90969 4.01921 0
M  V30 2110 P 271.452 -5.75688 6.64379 0
M  V30 2111 O 272.874 -6.11849 7.01846 0
M  V30 2112 O 271.092 -4.30744 6.56026 0
M  V30 2113 O 271.129 -6.37042 5.19165 0
M  V30 2114 C 270.969 -7.83578 5.16515 0
M  V30 2115 C 271.509 -8.33398 3.83019 0
M  V30 2116 O 270.453 -8.10074 3.01034 0
M  V30 2117 C 272.727 -7.65514 3.2257 0
M  V30 2118 O 273.465 -8.4329 2.32297 0
M  V30 2119 C 272.058 -6.40075 2.62207 0
M  V30 2120 O 272.857 -5.92589 1.53712 0
M  V30 2121 C 270.721 -6.9454 2.18503 0
M  V30 2122 H 270.753 -7.23063 1.12091 0
M  V30 2123 H 271.936 -5.6025 3.37201 0
M  V30 2124 H 273.42 -7.35707 4.02681 0
M  V30 2125 H 271.726 -9.40912 3.9095 0
M  V30 2126 H 271.536 -8.29056 5.99158 0
M  V30 2127 H 269.906 -8.10073 5.25882 0
M  V30 2128 H 272.545 -6.30324 0.726794 0
M  V30 2129 P 274.403 -8.4349 2.47671 0
M  V30 2130 O 275.825 -8.94167 2.5964 0
M  V30 2131 O 274.043 -7.1704 3.19006 0
M  V30 2132 O 274.08 -8.16596 0.923387 0
M  V30 2133 C 273.92 -9.38437 0.108857 0
M  V30 2134 C 274.46 -9.08175 -1.28353 0
M  V30 2135 O 273.404 -8.44229 -1.84713 0
M  V30 2136 C 275.678 -8.18386 -1.42505 0
M  V30 2137 O 276.416 -8.3501 -2.60497 0
M  V30 2138 C 275.009 -6.80225 -1.25468 0
M  V30 2139 O 275.808 -5.81621 -1.91066 0
M  V30 2140 C 273.672 -7.02416 -1.9168 0
M  V30 2141 H 273.704 -6.6888 -2.96621 0
M  V30 2142 H 274.887 -6.53617 -0.192223 0
M  V30 2143 H 276.371 -8.36622 -0.589963 0
M  V30 2144 H 274.677 -10.0291 -1.79807 0
M  V30 2145 H 274.487 -10.2138 0.558219 0
M  V30 2146 H 272.857 -9.6579 0.0444202 0
M  V30 2147 H 275.496 -5.69556 -2.79637 0
M  V30 2148 P 277.354 -8.4349 -2.47671 0
M  V30 2149 O 278.776 -8.92593 -2.65 0
M  V30 2150 O 276.994 -7.7568 -1.19296 0
M  V30 2151 O 277.031 -7.36886 -3.63805 0
M  V30 2152 C 276.871 -7.95349 -4.982 0
M  V30 2153 C 277.411 -6.94612 -5.98974 0
M  V30 2154 O 276.355 -6.10347 -6.11815 0
M  V30 2155 C 278.629 -6.11426 -5.62335 0
M  V30 2156 O 279.367 -5.6162 -6.70584 0
M  V30 2157 C 277.96 -5.04409 -4.73308 0
M  V30 2158 O 278.759 -3.85992 -4.75183 0
M  V30 2159 C 276.623 -4.8728 -5.41006 0
M  V30 2160 H 276.655 -4.02333 -6.11157 0
M  V30 2161 H 277.838 -5.39466 -3.69543 0
M  V30 2162 H 279.322 -6.71916 -5.01943 0
M  V30 2163 H 277.628 -7.4649 -6.93477 0
M  V30 2164 H 277.438 -8.89416 -5.05237 0
M  V30 2165 H 275.808 -8.14876 -5.18409 0
M  V30 2166 H 278.447 -3.27957 -5.4317 0
M  V30 2167 P 280.304 -5.75688 -6.64379 0
M  V30 2168 O 281.726 -6.07627 -7.05504 0
M  V30 2169 O 279.944 -5.88047 -5.19722 0
M  V30 2170 O 279.981 -4.2322 -7.04443 0
M  V30 2171 C 279.821 -3.99743 -8.4911 0
M  V30 2172 C 280.361 -2.60516 -8.79425 0
M  V30 2173 O 279.305 -1.82684 -8.4467 0
M  V30 2174 C 281.579 -2.10343 -8.03628 0
M  V30 2175 O 282.317 -1.09919 -8.67766 0
M  V30 2176 C 280.91 -1.68446 -6.70876 0
M  V30 2177 O 281.709 -0.678137 -6.08433 0
M  V30 2178 C 279.573 -1.17436 -7.18567 0
M  V30 2179 H 279.605 -0.0804732 -7.31656 0
M  V30 2180 H 280.788 -2.54037 -6.02537 0
M  V30 2181 H 282.272 -2.93881 -7.85526 0
M  V30 2182 H 280.578 -2.53065 -9.86973 0
M  V30 2183 H 280.388 -4.75072 -9.05887 0
M  V30 2184 H 278.758 -4.05244 -8.76668 0
M  V30 2185 H 281.397 0.177647 -6.34251 0
M  V30 2186 P 283.255 -1.25109 -8.70152 0
M  V30 2187 O 284.656 -1.3516 -9.26897 0
M  V30 2188 O 282.877 -2.18141 -7.59181 0
M  V30 2189 O 282.932 0.248118 -8.21325 0
M  V30 2190 C 282.772 1.22779 -9.30434 0
M  V30 2191 C 283.312 2.56265 -8.80568 0
M  V30 2192 O 282.256 3.02944 -8.09255 0
M  V30 2193 C 284.529 2.57523 -7.89775 0
M  V30 2194 O 285.268 3.7668 -7.89438 0
M  V30 2195 C 283.862 2.20997 -6.55446 0
M  V30 2196 O 284.66 2.71851 -5.48419 0
M  V30 2197 C 282.524 2.89693 -6.67988 0
M  V30 2198 N 281.481 2.08895 -6.07487 0
M  V30 2199 C 280.446 2.72974 -5.43836 0
M  V30 2200 O 280.485 3.97779 -5.34036 0
M  V30 2201 N 279.434 2.0005 -4.91983 0
M  V30 2202 C 279.482 0.66501 -5.00098 0
M  V30 2203 C 280.578 -0.0100979 -5.61099 0
M  V30 2204 C 281.544 0.74189 -6.14236 0
M  V30 2205 H 282.556 3.8874 -6.19774 0
M  V30 2206 H 283.739 1.12673 -6.44018 0
M  V30 2207 H 285.223 1.783 -8.19631 0
M  V30 2208 H 283.529 3.21673 -9.66791 0
M  V30 2209 H 283.338 0.901032 -10.1892 0
M  V30 2210 H 281.708 1.33036 -9.56493 0
M  V30 2211 H 280.626 -1.09591 -5.64358 0
M  V30 2212 H 282.39 0.260263 -6.6359 0
M  V30 2213 H 284.444 3.62759 -5.33442 0
M  V30 2214 P 286.205 3.65191 -7.99657 0
M  V30 2215 O 287.627 3.89332 -8.45794 0
M  V30 2216 O 285.845 2.28472 -7.50807 0
M  V30 2217 O 285.882 4.64972 -6.77611 0
M  V30 2218 C 285.722 6.06319 -7.16352 0
M  V30 2219 C 286.262 6.91731 -6.02299 0
M  V30 2220 O 285.206 6.92449 -5.17064 0
M  V30 2221 C 287.48 6.43627 -5.25174 0
M  V30 2222 O 288.218 7.43686 -4.60469 0
M  V30 2223 C 286.811 5.40275 -4.31916 0
M  V30 2224 O 287.61 5.25279 -3.14438 0
M  V30 2225 C 285.474 6.04847 -4.05327 0
M  V30 2226 H 285.506 6.62195 -3.11261 0
M  V30 2227 H 286.689 4.42556 -4.81383 0
M  V30 2228 H 288.173 5.92458 -5.93643 0
M  V30 2229 H 286.479 7.92655 -6.402 0
M  V30 2230 H 286.289 6.26671 -8.0846 0
M  V30 2231 H 284.659 6.29101 -7.32804 0
M  V30 2232 H 287.298 5.84315 -2.47318 0
M  V30 2233 P 289.156 7.39546 -4.75277 0
M  V30 2234 O 290.577 7.84882 -5.01092 0
M  V30 2235 O 288.796 5.9812 -5.08098 0
M  V30 2236 O 288.833 7.57503 -3.1866 0
M  V30 2237 C 288.672 8.97452 -2.74862 0
M  V30 2238 C 289.213 9.07548 -1.32709 0
M  V30 2239 O 288.158 8.61972 -0.606089 0
M  V30 2240 C 290.431 8.25383 -0.938334 0
M  V30 2241 O 291.169 8.74577 0.146954 0
M  V30 2242 C 289.763 6.8802 -0.712559 0
M  V30 2243 O 290.561 6.1181 0.188505 0
M  V30 2244 C 288.425 7.27966 -0.139777 0
M  V30 2245 N 287.382 6.39368 -0.623421 0
M  V30 2246 C 287.551 5.71761 -1.78245 0
M  V30 2247 N 286.524 4.962 -2.10491 0
M  V30 2248 C 285.639 5.16158 -1.0635 0
M  V30 2249 C 284.372 4.60425 -0.810266 0
M  V30 2250 N 283.773 3.7057 -1.62914 0
M  V30 2251 N 283.807 5.06 0.348685 0
M  V30 2252 C 284.409 5.94532 1.20395 0
M  V30 2253 N 285.586 6.48452 1.01191 0
M  V30 2254 C 286.161 6.04423 -0.146291 0
M  V30 2255 H 288.457 7.25255 0.961469 0
M  V30 2256 H 289.64 6.32625 -1.65044 0
M  V30 2257 H 291.123 8.19355 -1.79097 0
M  V30 2258 H 289.429 10.1305 -1.09016 0
M  V30 2259 H 289.239 9.64276 -3.41316 0
M  V30 2260 H 287.609 9.25417 -2.76357 0
M  V30 2261 H 283.873 6.21659 2.10714 0
M  V30 2262 H 288.451 5.79354 -2.38959 0
M  V30 2263 H 282.843 3.33174 -1.38982 0
M  V30 2264 H 284.247 3.39714 -2.48836 0
M  V30 2265 H 290.249 6.25169 1.0783 0
M  V30 2266 P 292.106 8.791 1.04251e-12 0
M  V30 2267 O 293.528 9.31096 0.027933 0
M  V30 2268 O 291.746 7.77869 -1.04071 0
M  V30 2269 O 291.783 8.09533 1.41463 0
M  V30 2270 C 291.623 9.0349 2.53943 0
M  V30 2271 C 292.163 8.35226 3.79016 0
M  V30 2272 O 291.107 7.57992 4.15078 0
M  V30 2273 C 293.381 7.45087 3.67298 0
M  V30 2274 O 294.119 7.27796 4.85194 0
M  V30 2275 C 292.712 6.17323 3.12027 0
M  V30 2276 O 293.511 5.04231 3.47188 0
M  V30 2277 C 291.375 6.19961 3.81809 0
M  V30 2278 H 291.407 5.58218 4.73051 0
M  V30 2279 H 292.59 6.21726 2.02589 0
M  V30 2280 H 294.074 7.86112 2.9231 0
M  V30 2281 H 292.38 9.11627 4.55076 0
M  V30 2282 H 292.19 9.9573 2.34194 0
M  V30 2283 H 290.56 9.2792 2.67832 0
M  V30 2284 H 293.199 4.67702 4.28772 0
M  V30 2285 P 295.057 7.39546 4.75277 0
M  V30 2286 O 296.479 7.81777 5.05738 0
M  V30 2287 O 294.697 7.1065 3.32998 0
M  V30 2288 O 294.734 6.04542 5.56673 0
M  V30 2289 C 294.574 6.22772 7.02095 0
M  V30 2290 C 295.114 4.97725 7.70406 0
M  V30 2291 O 294.058 4.13256 7.58987 0
M  V30 2292 C 296.332 4.28231 7.11815 0
M  V30 2293 O 297.07 3.49945 8.01648 0
M  V30 2294 C 295.663 3.5063 5.96244 0
M  V30 2295 O 296.462 2.36482 5.64681 0
M  V30 2296 C 294.326 3.15122 6.56374 0
M  V30 2297 H 294.358 2.13853 6.99751 0
M  V30 2298 H 295.541 4.13501 5.06559 0
M  V30 2299 H 297.025 5.03285 6.70911 0
M  V30 2300 H 295.331 5.20877 8.75697 0
M  V30 2301 H 295.141 7.11046 7.35349 0
M  V30 2302 H 293.511 6.35815 7.26986 0
M  V30 2303 H 296.15 1.61644 6.13565 0
M  V30 2304 P 298.008 3.65191 7.99657 0
M  V30 2305 O 299.43 3.8425 8.48115 0
M  V30 2306 O 297.648 4.17805 6.64342 0
M  V30 2307 O 297.685 2.07613 7.95143 0
M  V30 2308 C 297.525 1.44328 9.27336 0
M  V30 2309 C 298.065 0.0220036 9.17197 0
M  V30 2310 O 297.009 -0.626867 8.61923 0
M  V30 2311 C 299.283 -0.24586 8.30336 0
M  V30 2312 O 300.021 -1.39011 8.63583 0
M  V30 2313 C 298.614 -0.273849 6.91158 0
M  V30 2314 O 299.413 -1.06348 6.02892 0
M  V30 2315 C 297.277 -0.897649 7.22545 0
M  V30 2316 H 297.309 -1.9841 7.04286 0
M  V30 2317 H 298.492 0.739928 6.497 0
M  V30 2318 H 299.976 0.60668 8.36503 0
M  V30 2319 H 298.282 -0.352479 10.1829 0
M  V30 2320 H 298.092 2.00611 10.0304 0
M  V30 2321 H 296.462 1.41843 9.55327 0
M  V30 2322 H 299.101 -1.95734 6.03555 0
M  V30 2323 P 300.958 -1.25109 8.70152 0
M  V30 2324 O 302.379 -1.35288 9.2132 0
M  V30 2325 O 300.598 -0.0769065 7.84762 0
M  V30 2326 O 300.635 -2.55232 7.81161 0
M  V30 2327 C 300.474 -3.79979 8.58246 0
M  V30 2328 C 301.015 -4.94023 7.72785 0
M  V30 2329 O 299.96 -5.18666 6.91125 0
M  V30 2330 C 302.233 -4.69597 6.85231 0
M  V30 2331 O 302.971 -5.83832 6.51337 0
M  V30 2332 C 301.565 -3.96706 5.66633 0
M  V30 2333 O 302.363 -4.14896 4.5003 0
M  V30 2334 C 300.227 -4.66153 5.59313 0
M  V30 2335 N 299.184 -3.71582 5.24027 0
M  V30 2336 C 299.353 -2.39715 5.48833 0
M  V30 2337 N 298.326 -1.65863 5.12845 0
M  V30 2338 C 297.441 -2.57637 4.5973 0
M  V30 2339 C 296.174 -2.40278 4.01027 0
M  V30 2340 N 295.575 -1.19549 3.86744 0
M  V30 2341 N 295.609 -3.57711 3.59575 0
M  V30 2342 C 296.211 -4.80324 3.70476 0
M  V30 2343 N 297.388 -5.01121 4.23801 0
M  V30 2344 C 297.963 -3.84757 4.66372 0
M  V30 2345 H 300.259 -5.47604 4.85148 0
M  V30 2346 H 301.442 -2.8955 5.86187 0
M  V30 2347 H 302.925 -4.0121 7.36511 0
M  V30 2348 H 301.231 -5.81019 8.37003 0
M  V30 2349 H 301.041 -3.73517 9.52265 0
M  V30 2350 H 299.411 -3.97163 8.80359 0
M  V30 2351 H 295.675 -5.66348 3.3183 0
M  V30 2352 H 300.253 -1.98804 5.94332 0
M  V30 2353 H 294.645 -1.13147 3.4281 0
M  V30 2354 H 296.049 -0.344074 4.19692 0
M  V30 2355 H 302.051 -4.90891 4.01857 0
M  V30 2356 P 303.909 -5.75688 6.64379 0
M  V30 2357 O 305.331 -6.11849 7.01846 0
M  V30 2358 O 303.549 -4.30744 6.56026 0
M  V30 2359 O 303.586 -6.37042 5.19165 0
M  V30 2360 C 303.426 -7.83578 5.16515 0
M  V30 2361 C 303.966 -8.33398 3.83019 0
M  V30 2362 O 302.91 -8.10074 3.01034 0
M  V30 2363 C 305.184 -7.65514 3.2257 0
M  V30 2364 O 305.922 -8.4329 2.32297 0
M  V30 2365 C 304.515 -6.40075 2.62207 0
M  V30 2366 O 305.314 -5.92589 1.53712 0
M  V30 2367 C 303.178 -6.9454 2.18503 0
M  V30 2368 H 303.21 -7.23063 1.12091 0
M  V30 2369 H 304.393 -5.6025 3.37201 0
M  V30 2370 H 305.877 -7.35707 4.02681 0
M  V30 2371 H 304.183 -9.40912 3.9095 0
M  V30 2372 H 303.993 -8.29056 5.99158 0
M  V30 2373 H 302.363 -8.10073 5.25882 0
M  V30 2374 H 305.002 -6.30324 0.726794 0
M  V30 2375 P 306.859 -8.4349 2.47671 0
M  V30 2376 O 308.281 -8.94167 2.5964 0
M  V30 2377 O 306.499 -7.1704 3.19006 0
M  V30 2378 O 306.536 -8.16596 0.923387 0
M  V30 2379 C 306.376 -9.38437 0.108857 0
M  V30 2380 C 306.916 -9.08175 -1.28353 0
M  V30 2381 O 305.86 -8.44229 -1.84713 0
M  V30 2382 C 308.134 -8.18386 -1.42505 0
M  V30 2383 O 308.872 -8.3501 -2.60497 0
M  V30 2384 C 307.465 -6.80225 -1.25468 0
M  V30 2385 O 308.264 -5.81621 -1.91066 0
M  V30 2386 C 306.128 -7.02416 -1.9168 0
M  V30 2387 H 306.16 -6.6888 -2.96621 0
M  V30 2388 H 307.343 -6.53617 -0.192223 0
M  V30 2389 H 308.827 -8.36622 -0.589963 0
M  V30 2390 H 307.133 -10.0291 -1.79807 0
M  V30 2391 H 306.943 -10.2138 0.558219 0
M  V30 2392 H 305.313 -9.6579 0.0444202 0
M  V30 2393 H 307.952 -5.69556 -2.79637 0
M  V30 2394 P 309.81 -8.4349 -2.47671 0
M  V30 2395 O 311.232 -8.92593 -2.65 0
M  V30 2396 O 309.45 -7.7568 -1.19296 0
M  V30 2397 O 309.487 -7.36886 -3.63805 0
M  V30 2398 C 309.327 -7.95349 -4.982 0
M  V30 2399 C 309.867 -6.94612 -5.98974 0
M  V30 2400 O 308.811 -6.10347 -6.11815 0
M  V30 2401 C 311.085 -6.11426 -5.62335 0
M  V30 2402 O 311.823 -5.6162 -6.70584 0
M  V30 2403 C 310.416 -5.04409 -4.73308 0
M  V30 2404 O 311.215 -3.85992 -4.75183 0
M  V30 2405 C 309.079 -4.8728 -5.41006 0
M  V30 2406 H 309.111 -4.02333 -6.11157 0
M  V30 2407 H 310.294 -5.39466 -3.69543 0
M  V30 2408 H 311.778 -6.71916 -5.01943 0
M  V30 2409 H 310.084 -7.4649 -6.93477 0
M  V30 2410 H 309.894 -8.89416 -5.05237 0
M  V30 2411 H 308.264 -8.14876 -5.18409 0
M  V30 2412 H 310.903 -3.27957 -5.4317 0
M  V30 2413 P 312.76 -5.75688 -6.64379 0
M  V30 2414 O 314.182 -6.07627 -7.05504 0
M  V30 2415 O 312.4 -5.88047 -5.19722 0
M  V30 2416 O 312.437 -4.2322 -7.04443 0
M  V30 2417 C 312.277 -3.99743 -8.4911 0
M  V30 2418 C 312.817 -2.60516 -8.79425 0
M  V30 2419 O 311.761 -1.82684 -8.4467 0
M  V30 2420 C 314.035 -2.10343 -8.03628 0
M  V30 2421 O 314.773 -1.09919 -8.67766 0
M  V30 2422 C 313.366 -1.68446 -6.70876 0
M  V30 2423 O 314.165 -0.678137 -6.08433 0
M  V30 2424 C 312.029 -1.17436 -7.18567 0
M  V30 2425 H 312.061 -0.0804732 -7.31656 0
M  V30 2426 H 313.244 -2.54037 -6.02537 0
M  V30 2427 H 314.728 -2.93881 -7.85526 0
M  V30 2428 H 313.034 -2.53065 -9.86973 0
M  V30 2429 H 312.844 -4.75072 -9.05887 0
M  V30 2430 H 311.214 -4.05244 -8.76668 0
M  V30 2431 H 313.853 0.177647 -6.34251 0
M  V30 2432 P 315.711 -1.25109 -8.70152 0
M  V30 2433 O 317.133 -1.29744 -9.22016 0
M  V30 2434 O 315.351 -2.13714 -7.55141 0
M  V30 2435 O 315.388 0.248149 -8.21425 0
M  V30 2436 C 315.228 1.22779 -9.30434 0
M  V30 2437 C 315.768 2.56293 -8.80664 0
M  V30 2438 O 314.712 3.02979 -8.09349 0
M  V30 2439 C 316.986 2.57523 -7.89775 0
M  V30 2440 O 317.724 3.7668 -7.89438 0
M  V30 2441 C 316.317 2.20997 -6.55446 0
M  V30 2442 O 317.116 2.71895 -5.48509 0
M  V30 2443 C 314.98 2.89693 -6.67988 0
M  V30 2444 H 315.012 3.88793 -6.19859 0
M  V30 2445 H 316.195 1.12046 -6.44229 0
M  V30 2446 H 317.679 1.7746 -8.19711 0
M  V30 2447 H 315.985 3.20706 -9.67112 0
M  V30 2448 H 315.795 0.901032 -10.1892 0
M  V30 2449 H 314.165 1.33049 -9.56592 0
M  V30 2450 H 316.804 3.57847 -5.23962 0
M  V30 2451 P 318.662 3.65191 -7.99657 0
M  V30 2452 O 320.084 3.89332 -8.45794 0
M  V30 2453 O 318.302 2.28472 -7.50807 0
M  V30 2454 O 318.339 4.64972 -6.77611 0
M  V30 2455 C 318.179 6.06319 -7.16352 0
M  V30 2456 C 318.719 6.91731 -6.02299 0
M  V30 2457 O 317.663 6.92449 -5.17064 0
M  V30 2458 C 319.937 6.43627 -5.25174 0
M  V30 2459 O 320.675 7.43686 -4.60469 0
M  V30 2460 C 319.268 5.40275 -4.31916 0
M  V30 2461 O 320.067 5.25279 -3.14438 0
M  V30 2462 C 317.931 6.04847 -4.05327 0
M  V30 2463 H 317.963 6.62195 -3.11261 0
M  V30 2464 H 319.146 4.42556 -4.81383 0
M  V30 2465 H 320.63 5.92458 -5.93643 0
M  V30 2466 H 318.936 7.92655 -6.402 0
M  V30 2467 H 318.746 6.26671 -8.0846 0
M  V30 2468 H 317.116 6.29101 -7.32804 0
M  V30 2469 H 319.755 5.84315 -2.47318 0
M  V30 2470 P 321.612 7.39546 -4.75277 0
M  V30 2471 O 323.033 7.84882 -5.01092 0
M  V30 2472 O 321.252 5.9812 -5.08098 0
M  V30 2473 O 321.289 7.57503 -3.1866 0
M  V30 2474 C 321.128 8.97452 -2.74862 0
M  V30 2475 C 321.669 9.07548 -1.32709 0
M  V30 2476 O 320.614 8.61972 -0.606089 0
M  V30 2477 C 322.887 8.25383 -0.938334 0
M  V30 2478 O 323.625 8.74577 0.146954 0
M  V30 2479 C 322.219 6.8802 -0.712559 0
M  V30 2480 O 323.017 6.1181 0.188505 0
M  V30 2481 C 320.881 7.27966 -0.139777 0
M  V30 2482 N 319.838 6.39368 -0.623421 0
M  V30 2483 C 320.007 5.71761 -1.78245 0
M  V30 2484 N 318.98 4.962 -2.10491 0
M  V30 2485 C 318.095 5.16158 -1.0635 0
M  V30 2486 C 316.828 4.60425 -0.810266 0
M  V30 2487 N 316.229 3.7057 -1.62914 0
M  V30 2488 N 316.263 5.06 0.348685 0
M  V30 2489 C 316.865 5.94532 1.20395 0
M  V30 2490 N 318.042 6.48452 1.01191 0
M  V30 2491 C 318.617 6.04423 -0.146291 0
M  V30 2492 H 320.913 7.25255 0.961469 0
M  V30 2493 H 322.096 6.32625 -1.65044 0
M  V30 2494 H 323.579 8.19355 -1.79097 0
M  V30 2495 H 321.885 10.1305 -1.09016 0
M  V30 2496 H 321.695 9.64276 -3.41316 0
M  V30 2497 H 320.065 9.25417 -2.76357 0
M  V30 2498 H 316.329 6.21659 2.10714 0
M  V30 2499 H 320.907 5.79354 -2.38959 0
M  V30 2500 H 315.299 3.33174 -1.38982 0
M  V30 2501 H 316.703 3.39714 -2.48836 0
M  V30 2502 H 322.705 6.25169 1.0783 0
M  V30 2503 P 324.563 8.791 1.35267e-12 0
M  V30 2504 O 325.984 9.31196 0.027936 0
M  V30 2505 O 324.203 7.77869 -1.04071 0
M  V30 2506 O 324.24 8.09533 1.41463 0
M  V30 2507 C 324.079 9.03587 2.5397 0
M  V30 2508 C 324.62 8.35226 3.79016 0
M  V30 2509 O 323.565 7.57904 4.1503 0
M  V30 2510 C 325.838 7.45087 3.67298 0
M  V30 2511 O 326.576 7.27796 4.85194 0
M  V30 2512 C 325.17 6.17323 3.12027 0
M  V30 2513 O 325.968 5.04496 3.46627 0
M  V30 2514 C 323.832 6.19961 3.81809 0
M  V30 2515 N 322.789 5.71575 2.93223 0
M  V30 2516 C 322.958 5.77362 1.59168 0
M  V30 2517 N 321.931 5.3123 0.911893 0
M  V30 2518 C 321.046 4.91717 1.89588 0
M  V30 2519 C 319.779 4.3114 1.8076 0
M  V30 2520 N 319.214 4.06823 3.02898 0
M  V30 2521 C 319.816 4.35062 4.22711 0
M  V30 2522 N 320.993 4.90805 4.35707 0
M  V30 2523 C 321.568 5.16382 3.14469 0
M  V30 2524 H 325.047 6.21428 2.0318 0
M  V30 2525 H 326.53 7.86112 2.9231 0
M  V30 2526 H 324.836 9.11171 4.55987 0
M  V30 2527 H 324.646 9.9573 2.34194 0
M  V30 2528 H 323.016 9.2792 2.67832 0
M  V30 2529 H 323.858 6.16575 1.12198 0
M  V30 2530 H 325.656 4.67628 4.28704 0
M  V30 2531 P 327.513 7.39546 4.75277 0
M  V30 2532 O 328.935 7.81777 5.05738 0
M  V30 2533 O 327.153 7.1065 3.32998 0
M  V30 2534 O 327.19 6.04542 5.56673 0
M  V30 2535 C 327.03 6.22772 7.02095 0
M  V30 2536 C 327.57 4.97725 7.70406 0
M  V30 2537 O 326.514 4.13256 7.58987 0
M  V30 2538 C 328.788 4.28231 7.11815 0
M  V30 2539 O 329.526 3.49945 8.01648 0
M  V30 2540 C 328.119 3.5063 5.96244 0
M  V30 2541 O 328.918 2.36482 5.64681 0
M  V30 2542 C 326.782 3.15122 6.56374 0
M  V30 2543 H 326.814 2.13853 6.99751 0
M  V30 2544 H 327.997 4.13501 5.06559 0
M  V30 2545 H 329.481 5.03285 6.70911 0
M  V30 2546 H 327.787 5.20877 8.75697 0
M  V30 2547 H 327.597 7.11046 7.35349 0
M  V30 2548 H 325.967 6.35815 7.26986 0
M  V30 2549 H 328.606 1.61644 6.13565 0
M  V30 2550 P 330.464 3.65191 7.99657 0
M  V30 2551 O 331.886 3.8425 8.48115 0
M  V30 2552 O 330.104 4.17805 6.64342 0
M  V30 2553 O 330.141 2.07613 7.95143 0
M  V30 2554 C 329.981 1.44328 9.27336 0
M  V30 2555 C 330.521 0.0220036 9.17197 0
M  V30 2556 O 329.465 -0.626867 8.61923 0
M  V30 2557 C 331.739 -0.24586 8.30336 0
M  V30 2558 O 332.477 -1.39011 8.63583 0
M  V30 2559 C 331.07 -0.273849 6.91158 0
M  V30 2560 O 331.869 -1.06348 6.02892 0
M  V30 2561 C 329.733 -0.897649 7.22545 0
M  V30 2562 H 329.765 -1.9841 7.04286 0
M  V30 2563 H 330.948 0.739928 6.497 0
M  V30 2564 H 332.432 0.60668 8.36503 0
M  V30 2565 H 330.738 -0.352479 10.1829 0
M  V30 2566 H 330.548 2.00611 10.0304 0
M  V30 2567 H 328.918 1.41843 9.55327 0
M  V30 2568 H 331.557 -1.95734 6.03555 0
M  V30 2569 P 333.414 -1.25109 8.70152 0
M  V30 2570 O 334.836 -1.35274 9.21221 0
M  V30 2571 O 333.054 -0.0769065 7.84762 0
M  V30 2572 O 333.091 -2.55232 7.81161 0
M  V30 2573 C 332.931 -3.79939 8.58154 0
M  V30 2574 C 333.471 -4.94023 7.72785 0
M  V30 2575 O 332.415 -5.18726 6.91205 0
M  V30 2576 C 334.689 -4.69597 6.85231 0
M  V30 2577 O 335.427 -5.83832 6.51337 0
M  V30 2578 C 334.02 -3.96706 5.66633 0
M  V30 2579 O 334.819 -4.15414 4.49689 0
M  V30 2580 C 332.683 -4.66153 5.59313 0
M  V30 2581 H 332.715 -5.47679 4.85214 0
M  V30 2582 H 333.898 -2.89008 5.86566 0
M  V30 2583 H 335.382 -4.0121 7.36511 0
M  V30 2584 H 333.688 -5.80182 8.37584 0
M  V30 2585 H 333.498 -3.73517 9.52265 0
M  V30 2586 H 331.868 -3.97163 8.80359 0
M  V30 2587 H 334.507 -4.90969 4.01921 0
M  V30 2588 P 336.365 -5.75688 6.64379 0
M  V30 2589 O 337.787 -6.11849 7.01846 0
M  V30 2590 O 336.005 -4.30744 6.56026 0
M  V30 2591 O 336.042 -6.37042 5.19165 0
M  V30 2592 C 335.882 -7.83578 5.16515 0
M  V30 2593 C 336.422 -8.33398 3.83019 0
M  V30 2594 O 335.366 -8.10074 3.01034 0
M  V30 2595 C 337.64 -7.65514 3.2257 0
M  V30 2596 O 338.378 -8.4329 2.32297 0
M  V30 2597 C 336.971 -6.40075 2.62207 0
M  V30 2598 O 337.77 -5.92589 1.53712 0
M  V30 2599 C 335.634 -6.9454 2.18503 0
M  V30 2600 H 335.666 -7.23063 1.12091 0
M  V30 2601 H 336.849 -5.6025 3.37201 0
M  V30 2602 H 338.333 -7.35707 4.02681 0
M  V30 2603 H 336.639 -9.40912 3.9095 0
M  V30 2604 H 336.449 -8.29056 5.99158 0
M  V30 2605 H 334.819 -8.10073 5.25882 0
M  V30 2606 H 337.458 -6.30324 0.726794 0
M  V30 2607 P 339.316 -8.4349 2.47671 0
M  V30 2608 O 340.738 -8.94167 2.5964 0
M  V30 2609 O 338.956 -7.1704 3.19006 0
M  V30 2610 O 338.993 -8.16596 0.923387 0
M  V30 2611 C 338.833 -9.38437 0.108857 0
M  V30 2612 C 339.373 -9.08175 -1.28353 0
M  V30 2613 O 338.317 -8.44229 -1.84713 0
M  V30 2614 C 340.591 -8.18386 -1.42505 0
M  V30 2615 O 341.329 -8.3501 -2.60497 0
M  V30 2616 C 339.922 -6.80225 -1.25468 0
M  V30 2617 O 340.721 -5.81621 -1.91066 0
M  V30 2618 C 338.585 -7.02416 -1.9168 0
M  V30 2619 H 338.617 -6.6888 -2.96621 0
M  V30 2620 H 339.8 -6.53617 -0.192223 0
M  V30 2621 H 341.284 -8.36622 -0.589963 0
M  V30 2622 H 339.59 -10.0291 -1.79807 0
M  V30 2623 H 339.4 -10.2138 0.558219 0
M  V30 2624 H 337.77 -9.6579 0.0444202 0
M  V30 2625 H 340.409 -5.69556 -2.79637 0
M  V30 2626 P 342.266 -8.4349 -2.47671 0
M  V30 2627 O 343.688 -8.92593 -2.65 0
M  V30 2628 O 341.906 -7.7568 -1.19296 0
M  V30 2629 O 341.943 -7.36886 -3.63805 0
M  V30 2630 C 341.783 -7.95349 -4.982 0
M  V30 2631 C 342.323 -6.94612 -5.98974 0
M  V30 2632 O 341.267 -6.10347 -6.11815 0
M  V30 2633 C 343.541 -6.11426 -5.62335 0
M  V30 2634 O 344.279 -5.6162 -6.70584 0
M  V30 2635 C 342.872 -5.04409 -4.73308 0
M  V30 2636 O 343.671 -3.85992 -4.75183 0
M  V30 2637 C 341.535 -4.8728 -5.41006 0
M  V30 2638 H 341.567 -4.02333 -6.11157 0
M  V30 2639 H 342.75 -5.39466 -3.69543 0
M  V30 2640 H 344.234 -6.71916 -5.01943 0
M  V30 2641 H 342.54 -7.4649 -6.93477 0
M  V30 2642 H 342.35 -8.89416 -5.05237 0
M  V30 2643 H 340.72 -8.14876 -5.18409 0
M  V30 2644 H 343.359 -3.27957 -5.4317 0
M  V30 2645 P 345.217 -5.75688 -6.64379 0
M  V30 2646 O 346.639 -6.07627 -7.05504 0
M  V30 2647 O 344.857 -5.88047 -5.19722 0
M  V30 2648 O 344.894 -4.2322 -7.04443 0
M  V30 2649 C 344.734 -3.99743 -8.4911 0
M  V30 2650 C 345.274 -2.60516 -8.79425 0
M  V30 2651 O 344.218 -1.82684 -8.4467 0
M  V30 2652 C 346.492 -2.10343 -8.03628 0
M  V30 2653 O 347.23 -1.09919 -8.67766 0
M  V30 2654 C 345.823 -1.68446 -6.70876 0
M  V30 2655 O 346.622 -0.678137 -6.08433 0
M  V30 2656 C 344.486 -1.17436 -7.18567 0
M  V30 2657 H 344.518 -0.0804732 -7.31656 0
M  V30 2658 H 345.701 -2.54037 -6.02537 0
M  V30 2659 H 347.185 -2.93881 -7.85526 0
M  V30 2660 H 345.491 -2.53065 -9.86973 0
M  V30 2661 H 345.301 -4.75072 -9.05887 0
M  V30 2662 H 343.671 -4.05244 -8.76668 0
M  V30 2663 H 346.31 0.177647 -6.34251 0
M  V30 2664 P 348.167 -1.25109 -8.70152 0
M  V30 2665 O 349.588 -1.29758 -9.22115 0
M  V30 2666 O 347.807 -2.13714 -7.55141 0
M  V30 2667 O 347.844 0.248149 -8.21425 0
M  V30 2668 C 347.683 1.22792 -9.30533 0
M  V30 2669 C 348.224 2.56293 -8.80664 0
M  V30 2670 O 347.169 3.02944 -8.09255 0
M  V30 2671 C 349.442 2.57523 -7.89775 0
M  V30 2672 O 350.18 3.7668 -7.89438 0
M  V30 2673 C 348.774 2.20997 -6.55446 0
M  V30 2674 O 349.572 2.71302 -5.48691 0
M  V30 2675 C 347.436 2.89693 -6.67988 0
M  V30 2676 N 346.393 2.08895 -6.07487 0
M  V30 2677 C 346.562 0.753809 -5.94137 0
M  V30 2678 N 345.535 0.146592 -5.38801 0
M  V30 2679 C 344.65 1.1768 -5.13693 0
M  V30 2680 C 343.383 1.17563 -4.52477 0
M  V30 2681 N 342.784 0.057481 -4.04759 0
M  V30 2682 N 342.818 2.41918 -4.45789 0
M  V30 2683 C 343.42 3.56493 -4.90792 0
M  V30 2684 N 344.597 3.61423 -5.47817 0
M  V30 2685 C 345.172 2.37779 -5.5588 0
M  V30 2686 H 347.468 3.8874 -6.19774 0
M  V30 2687 H 348.651 1.12673 -6.44018 0
M  V30 2688 H 350.134 1.7746 -8.19711 0
M  V30 2689 H 348.44 3.21673 -9.66791 0
M  V30 2690 H 348.25 0.901032 -10.1892 0
M  V30 2691 H 346.62 1.33049 -9.56592 0
M  V30 2692 H 342.884 4.49919 -4.77947 0
M  V30 2693 H 347.462 0.233081 -6.26266 0
M  V30 2694 H 341.854 0.119831 -3.60801 0
M  V30 2695 H 343.258 -0.852272 -4.12385 0
M  V30 2696 H 349.26 3.5779 -5.23879 0
M  V30 2697 P 351.118 3.65191 -7.99657 0
M  V30 2698 O 352.54 3.89332 -8.45794 0
M  V30 2699 O 350.758 2.28472 -7.50807 0
M  V30 2700 O 350.795 4.64972 -6.77611 0
M  V30 2701 C 350.635 6.06319 -7.16352 0
M  V30 2702 C 351.175 6.91731 -6.02299 0
M  V30 2703 O 350.119 6.92449 -5.17064 0
M  V30 2704 C 352.393 6.43627 -5.25174 0
M  V30 2705 O 353.131 7.43686 -4.60469 0
M  V30 2706 C 351.724 5.40275 -4.31916 0
M  V30 2707 O 352.523 5.25279 -3.14438 0
M  V30 2708 C 350.387 6.04847 -4.05327 0
M  V30 2709 H 350.419 6.62195 -3.11261 0
M  V30 2710 H 351.602 4.42556 -4.81383 0
M  V30 2711 H 353.086 5.92458 -5.93643 0
M  V30 2712 H 351.392 7.92655 -6.402 0
M  V30 2713 H 351.202 6.26671 -8.0846 0
M  V30 2714 H 349.572 6.29101 -7.32804 0
M  V30 2715 H 352.211 5.84315 -2.47318 0
M  V30 2716 P 354.068 7.39546 -4.75277 0
M  V30 2717 O 355.49 7.84798 -5.01039 0
M  V30 2718 O 353.708 5.9812 -5.08098 0
M  V30 2719 O 353.745 7.57503 -3.1866 0
M  V30 2720 C 353.585 8.97357 -2.74833 0
M  V30 2721 C 354.125 9.07548 -1.32709 0
M  V30 2722 O 353.069 8.62072 -0.606159 0
M  V30 2723 C 355.343 8.25383 -0.938334 0
M  V30 2724 O 356.081 8.74577 0.146954 0
M  V30 2725 C 354.674 6.8802 -0.712559 0
M  V30 2726 O 355.473 6.1189 0.194655 0
M  V30 2727 C 353.337 7.27966 -0.139777 0
M  V30 2728 H 353.369 7.25354 0.961601 0
M  V30 2729 H 354.552 6.32557 -1.65702 0
M  V30 2730 H 356.036 8.19355 -1.79097 0
M  V30 2731 H 354.342 10.1294 -1.10029 0
M  V30 2732 H 354.152 9.64276 -3.41316 0
M  V30 2733 H 352.522 9.25417 -2.76357 0
M  V30 2734 H 355.161 6.25267 1.07847 0
M  V30 2735 P 357.019 8.791 1.66284e-12 0
M  V30 2736 O 358.44 9.31196 0.027936 0
M  V30 2737 O 356.659 7.77869 -1.04071 0
M  V30 2738 O 356.696 8.09533 1.41463 0
M  V30 2739 C 356.535 9.03587 2.5397 0
M  V30 2740 C 357.076 8.35226 3.79016 0
M  V30 2741 O 356.021 7.57904 4.1503 0
M  V30 2742 C 358.294 7.45087 3.67298 0
M  V30 2743 O 359.032 7.27796 4.85194 0
M  V30 2744 C 357.626 6.17323 3.12027 0
M  V30 2745 O 358.424 5.04496 3.46627 0
M  V30 2746 C 356.288 6.19961 3.81809 0
M  V30 2747 N 355.245 5.71575 2.93223 0
M  V30 2748 C 355.414 5.77362 1.59168 0
M  V30 2749 N 354.387 5.3123 0.911893 0
M  V30 2750 C 353.502 4.91717 1.89588 0
M  V30 2751 C 352.235 4.3114 1.8076 0
M  V30 2752 N 351.636 3.99821 0.632928 0
M  V30 2753 N 351.67 4.06823 3.02898 0
M  V30 2754 C 352.272 4.35062 4.22711 0
M  V30 2755 N 353.449 4.90805 4.35707 0
M  V30 2756 C 354.024 5.16382 3.14469 0
M  V30 2757 H 356.32 5.58142 4.72986 0
M  V30 2758 H 357.503 6.21428 2.0318 0
M  V30 2759 H 358.986 7.86112 2.9231 0
M  V30 2760 H 357.292 9.11171 4.55987 0
M  V30 2761 H 357.102 9.9573 2.34194 0
M  V30 2762 H 355.472 9.2792 2.67832 0
M  V30 2763 H 351.736 4.09052 5.13359 0
M  V30 2764 H 356.314 6.16575 1.12198 0
M  V30 2765 H 350.706 3.55423 0.632085 0
M  V30 2766 H 352.11 4.20317 -0.256712 0
M  V30 2767 H 358.112 4.67628 4.28704 0
M  V30 2768 P 359.97 7.39546 4.75277 0
M  V30 2769 O 361.392 7.81777 5.05738 0
M  V30 2770 O 359.61 7.1065 3.32998 0
M  V30 2771 O 359.647 6.04542 5.56673 0
M  V30 2772 C 359.487 6.22772 7.02095 0
M  V30 2773 C 360.027 4.97725 7.70406 0
M  V30 2774 O 358.971 4.13256 7.58987 0
M  V30 2775 C 361.245 4.28231 7.11815 0
M  V30 2776 O 361.983 3.49945 8.01648 0
M  V30 2777 C 360.576 3.5063 5.96244 0
M  V30 2778 O 361.375 2.36482 5.64681 0
M  V30 2779 C 359.239 3.15122 6.56374 0
M  V30 2780 H 359.271 2.13853 6.99751 0
M  V30 2781 H 360.454 4.13501 5.06559 0
M  V30 2782 H 361.938 5.03285 6.70911 0
M  V30 2783 H 360.244 5.20877 8.75697 0
M  V30 2784 H 360.054 7.11046 7.35349 0
M  V30 2785 H 358.424 6.35815 7.26986 0
M  V30 2786 H 361.063 1.61644 6.13565 0
M  V30 2787 P 362.92 3.65191 7.99657 0
M  V30 2788 O 364.342 3.84333 8.48297 0
M  V30 2789 O 362.56 4.17805 6.64342 0
M  V30 2790 O 362.597 2.07613 7.95143 0
M  V30 2791 C 362.437 1.44328 9.27336 0
M  V30 2792 C 362.977 0.0220012 9.17097 0
M  V30 2793 O 361.922 -0.626867 8.61923 0
M  V30 2794 C 364.195 -0.24586 8.30336 0
M  V30 2795 O 364.933 -1.39011 8.63583 0
M  V30 2796 C 363.527 -0.273849 6.91158 0
M  V30 2797 O 364.325 -1.06331 6.02794 0
M  V30 2798 C 362.189 -0.897649 7.22545 0
M  V30 2799 N 361.146 -0.292839 6.41732 0
M  V30 2800 C 361.208 1.00068 6.10757 0
M  V30 2801 N 360.163 1.36468 5.35794 0
M  V30 2802 C 359.429 0.258894 5.2366 0
M  V30 2803 C 358.123 0.0670682 4.65752 0
M  V30 2804 O 357.39 0.902443 4.10497 0
M  V30 2805 N 357.693 -1.2131 4.75881 0
M  V30 2806 C 358.442 -2.24934 5.37101 0
M  V30 2807 N 357.845 -3.48783 5.33984 0
M  V30 2808 N 359.595 -2.0844 5.95684 0
M  V30 2809 C 360.052 -0.81395 5.87791 0
M  V30 2810 H 362.221 -1.9841 7.04286 0
M  V30 2811 H 363.404 0.739815 6.49601 0
M  V30 2812 H 364.889 0.598315 8.36563 0
M  V30 2813 H 363.194 -0.352479 10.1829 0
M  V30 2814 H 363.004 2.00611 10.0304 0
M  V30 2815 H 361.373 1.41843 9.55327 0
M  V30 2816 H 356.797 -1.44434 4.37895 0
M  V30 2817 H 362.004 1.67697 6.42268 0
M  V30 2818 H 356.934 -3.60543 4.87699 0
M  V30 2819 H 358.31 -4.29232 5.7819 0
M  V30 2820 H 364.014 -1.95704 6.0346 0
M  V30 2821 P 365.871 -1.25109 8.70152 0
M  V30 2822 O 367.293 -1.35274 9.21221 0
M  V30 2823 O 365.511 -0.0769065 7.84762 0
M  V30 2824 O 365.548 -2.55232 7.81161 0
M  V30 2825 C 365.388 -3.79939 8.58154 0
M  V30 2826 C 365.928 -4.94023 7.72785 0
M  V30 2827 O 364.872 -5.18726 6.91205 0
M  V30 2828 C 367.146 -4.69597 6.85231 0
M  V30 2829 O 367.884 -5.83832 6.51337 0
M  V30 2830 C 366.477 -3.96706 5.66633 0
M  V30 2831 O 367.276 -4.15414 4.49689 0
M  V30 2832 C 365.14 -4.66153 5.59313 0
M  V30 2833 H 365.172 -5.47679 4.85214 0
M  V30 2834 H 366.355 -2.89008 5.86566 0
M  V30 2835 H 367.839 -4.0121 7.36511 0
M  V30 2836 H 366.145 -5.80182 8.37584 0
M  V30 2837 H 365.955 -3.73517 9.52265 0
M  V30 2838 H 364.325 -3.97163 8.80359 0
M  V30 2839 H 366.964 -4.90969 4.01921 0
M  V30 2840 P 368.821 -5.75688 6.64379 0
M  V30 2841 O 370.243 -6.11849 7.01846 0
M  V30 2842 O 368.461 -4.30744 6.56026 0
M  V30 2843 O 368.498 -6.37042 5.19165 0
M  V30 2844 C 368.338 -7.83578 5.16515 0
M  V30 2845 C 368.878 -8.33398 3.83019 0
M  V30 2846 O 367.822 -8.10074 3.01034 0
M  V30 2847 C 370.096 -7.65514 3.2257 0
M  V30 2848 O 370.834 -8.4329 2.32297 0
M  V30 2849 C 369.427 -6.40075 2.62207 0
M  V30 2850 O 370.226 -5.92589 1.53712 0
M  V30 2851 C 368.09 -6.9454 2.18503 0
M  V30 2852 H 368.122 -7.23063 1.12091 0
M  V30 2853 H 369.305 -5.6025 3.37201 0
M  V30 2854 H 370.789 -7.35707 4.02681 0
M  V30 2855 H 369.095 -9.40912 3.9095 0
M  V30 2856 H 368.905 -8.29056 5.99158 0
M  V30 2857 H 367.275 -8.10073 5.25882 0
M  V30 2858 H 369.914 -6.30324 0.726794 0
M  V30 2859 P 371.772 -8.4349 2.47671 0
M  V30 2860 O 373.194 -8.94167 2.5964 0
M  V30 2861 O 371.412 -7.1704 3.19006 0
M  V30 2862 O 371.449 -8.16596 0.923387 0
M  V30 2863 C 371.289 -9.38437 0.108857 0
M  V30 2864 C 371.829 -9.08175 -1.28353 0
M  V30 2865 O 370.773 -8.44229 -1.84713 0
M  V30 2866 C 373.047 -8.18386 -1.42505 0
M  V30 2867 O 373.785 -8.3501 -2.60497 0
M  V30 2868 C 372.378 -6.80225 -1.25468 0
M  V30 2869 O 373.177 -5.81621 -1.91066 0
M  V30 2870 C 371.041 -7.02416 -1.9168 0
M  V30 2871 H 371.073 -6.6888 -2.96621 0
M  V30 2872 H 372.256 -6.53617 -0.192223 0
M  V30 2873 H 373.74 -8.36622 -0.589963 0
M  V30 2874 H 372.046 -10.0291 -1.79807 0
M  V30 2875 H 371.856 -10.2138 0.558219 0
M  V30 2876 H 370.226 -9.6579 0.0444202 0
M  V30 2877 H 372.865 -5.69556 -2.79637 0
M  V30 2878 P 374.722 -8.4349 -2.47671 0
M  V30 2879 O 376.143 -8.92689 -2.65029 0
M  V30 2880 O 374.362 -7.7568 -1.19296 0
M  V30 2881 O 374.399 -7.36886 -3.63805 0
M  V30 2882 C 374.238 -7.95433 -4.98253 0
M  V30 2883 C 374.779 -6.94612 -5.98974 0
M  V30 2884 O 373.724 -6.10277 -6.11744 0
M  V30 2885 C 375.997 -6.11426 -5.62335 0
M  V30 2886 O 376.735 -5.6162 -6.70584 0
M  V30 2887 C 375.329 -5.04409 -4.73308 0
M  V30 2888 O 376.127 -3.86404 -4.74719 0
M  V30 2889 C 373.991 -4.8728 -5.41006 0
M  V30 2890 N 372.948 -4.65812 -4.42377 0
M  V30 2891 C 373.117 -5.09132 -3.15382 0
M  V30 2892 N 372.09 -4.84021 -2.3716 0
M  V30 2893 C 371.205 -4.18386 -3.20441 0
M  V30 2894 C 369.938 -3.6275 -2.94905 0
M  V30 2895 N 369.339 -3.65794 -1.73372 0
M  V30 2896 N 369.373 -3.05008 -4.05243 0
M  V30 2897 C 369.975 -2.98348 -5.28159 0
M  V30 2898 N 371.152 -3.48171 -5.56333 0
M  V30 2899 C 371.727 -4.06869 -4.47212 0
M  V30 2900 H 374.023 -4.02278 -6.11074 0
M  V30 2901 H 375.206 -5.39013 -3.70026 0
M  V30 2902 H 376.689 -6.71916 -5.01943 0
M  V30 2903 H 374.995 -7.45796 -6.94223 0
M  V30 2904 H 374.805 -8.89416 -5.05237 0
M  V30 2905 H 373.175 -8.14876 -5.18409 0
M  V30 2906 H 369.439 -2.47853 -6.07807 0
M  V30 2907 H 374.017 -5.59989 -2.81362 0
M  V30 2908 H 368.409 -3.23218 -1.60782 0
M  V30 2909 H 369.813 -4.10523 -0.937856 0
M  V30 2910 H 375.815 -3.27906 -5.43085 0
M  V30 2911 P 377.673 -5.75688 -6.64379 0
M  V30 2912 O 379.095 -6.07627 -7.05504 0
M  V30 2913 O 377.313 -5.88047 -5.19722 0
M  V30 2914 O 377.35 -4.2322 -7.04443 0
M  V30 2915 C 377.19 -3.99743 -8.4911 0
M  V30 2916 C 377.73 -2.60516 -8.79425 0
M  V30 2917 O 376.674 -1.82684 -8.4467 0
M  V30 2918 C 378.948 -2.10343 -8.03628 0
M  V30 2919 O 379.686 -1.09919 -8.67766 0
M  V30 2920 C 378.279 -1.68446 -6.70876 0
M  V30 2921 O 379.078 -0.678137 -6.08433 0
M  V30 2922 C 376.942 -1.17436 -7.18567 0
M  V30 2923 H 376.974 -0.0804732 -7.31656 0
M  V30 2924 H 378.157 -2.54037 -6.02537 0
M  V30 2925 H 379.641 -2.93881 -7.85526 0
M  V30 2926 H 377.947 -2.53065 -9.86973 0
M  V30 2927 H 377.757 -4.75072 -9.05887 0
M  V30 2928 H 376.127 -4.05244 -8.76668 0
M  V30 2929 H 378.766 0.177647 -6.34251 0
M  V30 2930 P 380.624 -1.25109 -8.70152 0
M  V30 2931 O 382.046 -1.29744 -9.22016 0
M  V30 2932 O 380.264 -2.13714 -7.55141 0
M  V30 2933 O 380.301 0.248149 -8.21425 0
M  V30 2934 C 380.141 1.22779 -9.30434 0
M  V30 2935 C 380.681 2.56293 -8.80664 0
M  V30 2936 O 379.625 3.02979 -8.09349 0
M  V30 2937 C 381.899 2.57523 -7.89775 0
M  V30 2938 O 382.637 3.7668 -7.89438 0
M  V30 2939 C 381.23 2.20997 -6.55446 0
M  V30 2940 O 382.029 2.71895 -5.48509 0
M  V30 2941 C 379.893 2.89693 -6.67988 0
M  V30 2942 H 379.925 3.88793 -6.19859 0
M  V30 2943 H 381.108 1.12046 -6.44229 0
M  V30 2944 H 382.592 1.7746 -8.19711 0
M  V30 2945 H 380.898 3.20706 -9.67112 0
M  V30 2946 H 380.708 0.901032 -10.1892 0
M  V30 2947 H 379.078 1.33049 -9.56592 0
M  V30 2948 H 381.717 3.57847 -5.23962 0
M  V30 2949 P 383.574 3.65191 -7.99657 0
M  V30 2950 O 384.996 3.89416 -8.45976 0
M  V30 2951 O 383.214 2.28472 -7.50807 0
M  V30 2952 O 383.251 4.64972 -6.77611 0
M  V30 2953 C 383.091 6.06319 -7.16352 0
M  V30 2954 C 383.631 6.91655 -6.02234 0
M  V30 2955 O 382.576 6.92449 -5.17064 0
M  V30 2956 C 384.849 6.43627 -5.25174 0
M  V30 2957 O 385.587 7.43686 -4.60469 0
M  V30 2958 C 384.181 5.40275 -4.31916 0
M  V30 2959 O 384.979 5.25193 -3.14386 0
M  V30 2960 C 382.843 6.04847 -4.05327 0
M  V30 2961 N 381.8 5.04166 -3.98114 0
M  V30 2962 C 381.862 3.96049 -4.75587 0
M  V30 2963 N 380.817 3.15559 -4.54006 0
M  V30 2964 C 380.083 3.78802 -3.62491 0
M  V30 2965 C 378.777 3.476 -3.10071 0
M  V30 2966 O 378.044 2.51136 -3.37021 0
M  V30 2967 N 378.347 4.39088 -2.19956 0
M  V30 2968 C 379.096 5.53215 -1.81733 0
M  V30 2969 N 378.499 6.31963 -0.860928 0
M  V30 2970 N 380.249 5.86688 -2.32562 0
M  V30 2971 C 380.706 4.97525 -3.23407 0
M  V30 2972 H 382.875 6.62195 -3.11261 0
M  V30 2973 H 384.058 4.42488 -4.8131 0
M  V30 2974 H 385.543 5.93051 -5.9305 0
M  V30 2975 H 383.848 7.92655 -6.402 0
M  V30 2976 H 383.658 6.26671 -8.0846 0
M  V30 2977 H 382.027 6.29101 -7.32804 0
M  V30 2978 H 377.451 4.25523 -1.77604 0
M  V30 2979 H 382.658 3.75576 -5.47333 0
M  V30 2980 H 377.588 6.04684 -0.468946 0
M  V30 2981 H 378.964 7.18054 -0.542422 0
M  V30 2982 H 384.668 5.84223 -2.47279 0
M  V30 2983 P 386.525 7.39546 -4.75277 0
M  V30 2984 O 387.947 7.84798 -5.01039 0
M  V30 2985 O 386.165 5.9812 -5.08098 0
M  V30 2986 O 386.202 7.57503 -3.1866 0
M  V30 2987 C 386.042 8.97357 -2.74833 0
M  V30 2988 C 386.582 9.07548 -1.32709 0
M  V30 2989 O 385.526 8.62072 -0.606159 0
M  V30 2990 C 387.8 8.25383 -0.938334 0
M  V30 2991 O 388.538 8.74577 0.146954 0
M  V30 2992 C 387.131 6.8802 -0.712559 0
M  V30 2993 O 387.93 6.1189 0.194655 0
M  V30 2994 C 385.794 7.27966 -0.139777 0
M  V30 2995 H 385.826 7.25354 0.961601 0
M  V30 2996 H 387.009 6.32557 -1.65702 0
M  V30 2997 H 388.493 8.19355 -1.79097 0
M  V30 2998 H 386.799 10.1294 -1.10029 0
M  V30 2999 H 386.609 9.64276 -3.41316 0
M  V30 3000 H 384.979 9.25417 -2.76357 0
M  V30 3001 H 387.618 6.25267 1.07847 0
M  V30 3002 P 389.475 8.791 1.973e-12 0
M  V30 3003 O 390.897 9.31096 0.027933 0
M  V30 3004 O 389.115 7.77869 -1.04071 0
M  V30 3005 O 389.152 8.09533 1.41463 0
M  V30 3006 C 388.992 9.0349 2.53943 0
M  V30 3007 C 389.532 8.35226 3.79016 0
M  V30 3008 O 388.476 7.57992 4.15078 0
M  V30 3009 C 390.75 7.45087 3.67298 0
M  V30 3010 O 391.488 7.27796 4.85194 0
M  V30 3011 C 390.081 6.17323 3.12027 0
M  V30 3012 O 390.88 5.04231 3.47188 0
M  V30 3013 C 388.744 6.19961 3.81809 0
M  V30 3014 H 388.776 5.58218 4.73051 0
M  V30 3015 H 389.959 6.21726 2.02589 0
M  V30 3016 H 391.443 7.86112 2.9231 0
M  V30 3017 H 389.749 9.11627 4.55076 0
M  V30 3018 H 389.559 9.9573 2.34194 0
M  V30 3019 H 387.929 9.2792 2.67832 0
M  V30 3020 H 390.568 4.67702 4.28772 0
M  V30 3021 P 392.426 7.39546 4.75277 0
M  V30 3022 O 393.848 7.81777 5.05738 0
M  V30 3023 O 392.066 7.1065 3.32998 0
M  V30 3024 O 392.103 6.04542 5.56673 0
M  V30 3025 C 391.943 6.22772 7.02095 0
M  V30 3026 C 392.483 4.97725 7.70406 0
M  V30 3027 O 391.427 4.13256 7.58987 0
M  V30 3028 C 393.701 4.28231 7.11815 0
M  V30 3029 O 394.439 3.49945 8.01648 0
M  V30 3030 C 393.032 3.5063 5.96244 0
M  V30 3031 O 393.831 2.36482 5.64681 0
M  V30 3032 C 391.695 3.15122 6.56374 0
M  V30 3033 H 391.727 2.13853 6.99751 0
M  V30 3034 H 392.91 4.13501 5.06559 0
M  V30 3035 H 394.394 5.03285 6.70911 0
M  V30 3036 H 392.7 5.20877 8.75697 0
M  V30 3037 H 392.51 7.11046 7.35349 0
M  V30 3038 H 390.88 6.35815 7.26986 0
M  V30 3039 H 393.519 1.61644 6.13565 0
M  V30 3040 P 395.376 3.65191 7.99657 0
M  V30 3041 O 396.798 3.8425 8.48115 0
M  V30 3042 O 395.016 4.17805 6.64342 0
M  V30 3043 O 395.053 2.07613 7.95143 0
M  V30 3044 C 394.893 1.44328 9.27336 0
M  V30 3045 C 395.433 0.0220036 9.17197 0
M  V30 3046 O 394.377 -0.626867 8.61923 0
M  V30 3047 C 396.651 -0.24586 8.30336 0
M  V30 3048 O 397.389 -1.39011 8.63583 0
M  V30 3049 C 395.982 -0.273849 6.91158 0
M  V30 3050 O 396.781 -1.06348 6.02892 0
M  V30 3051 C 394.645 -0.897649 7.22545 0
M  V30 3052 H 394.677 -1.9841 7.04286 0
M  V30 3053 H 395.86 0.739928 6.497 0
M  V30 3054 H 397.344 0.60668 8.36503 0
M  V30 3055 H 395.65 -0.352479 10.1829 0
M  V30 3056 H 395.46 2.00611 10.0304 0
M  V30 3057 H 393.83 1.41843 9.55327 0
M  V30 3058 H 396.469 -1.95734 6.03555 0
M  V30 3059 P 398.327 -1.25109 8.70152 0
M  V30 3060 O 399.749 -1.35303 9.21419 0
M  V30 3061 O 397.967 -0.0769065 7.84762 0
M  V30 3062 O 398.004 -2.55232 7.81161 0
M  V30 3063 C 397.844 -3.79939 8.58154 0
M  V30 3064 C 398.384 -4.93969 7.72701 0
M  V30 3065 O 397.329 -5.18726 6.91205 0
M  V30 3066 C 399.602 -4.69597 6.85231 0
M  V30 3067 O 400.34 -5.83832 6.51337 0
M  V30 3068 C 398.934 -3.96706 5.66633 0
M  V30 3069 O 399.732 -4.15346 4.49615 0
M  V30 3070 C 397.596 -4.66153 5.59313 0
M  V30 3071 N 396.553 -3.71582 5.24027 0
M  V30 3072 C 396.615 -2.46018 5.67902 0
M  V30 3073 N 395.57 -1.74868 5.24518 0
M  V30 3074 C 394.836 -2.61333 4.54528 0
M  V30 3075 C 393.53 -2.46162 3.95441 0
M  V30 3076 O 392.797 -1.46013 3.94122 0
M  V30 3077 N 393.1 -3.59334 3.34752 0
M  V30 3078 C 393.849 -4.79605 3.3023 0
M  V30 3079 N 393.252 -5.82109 2.6065 0
M  V30 3080 N 395.002 -4.97402 3.8843 0
M  V30 3081 C 395.459 -3.86258 4.50476 0
M  V30 3082 H 397.628 -5.47679 4.85214 0
M  V30 3083 H 398.811 -2.88964 5.86476 0
M  V30 3084 H 400.296 -4.01947 7.36109 0
M  V30 3085 H 398.601 -5.80182 8.37584 0
M  V30 3086 H 398.411 -3.73517 9.52265 0
M  V30 3087 H 396.78 -3.97163 8.80359 0
M  V30 3088 H 392.204 -3.5825 2.90294 0
M  V30 3089 H 397.411 -2.06161 6.30974 0
M  V30 3090 H 392.341 -5.66979 2.15354 0
M  V30 3091 H 393.717 -6.73686 2.54344 0
M  V30 3092 H 399.421 -4.90891 4.01857 0
M  V30 3093 P 401.278 -5.75688 6.64379 0
M  V30 3094 O 402.7 -6.11849 7.01846 0
M  V30 3095 O 400.918 -4.30744 6.56026 0
M  V30 3096 O 400.955 -6.37042 5.19165 0
M  V30 3097 C 400.795 -7.83578 5.16515 0
M  V30 3098 C 401.335 -8.33398 3.83019 0
M  V30 3099 O 400.279 -8.10074 3.01034 0
M  V30 3100 C 402.553 -7.65514 3.2257 0
M  V30 3101 O 403.291 -8.4329 2.32297 0
M  V30 3102 C 401.884 -6.40075 2.62207 0
M  V30 3103 O 402.683 -5.92589 1.53712 0
M  V30 3104 C 400.547 -6.9454 2.18503 0
M  V30 3105 H 400.579 -7.23063 1.12091 0
M  V30 3106 H 401.762 -5.6025 3.37201 0
M  V30 3107 H 403.246 -7.35707 4.02681 0
M  V30 3108 H 401.552 -9.40912 3.9095 0
M  V30 3109 H 401.362 -8.29056 5.99158 0
M  V30 3110 H 399.732 -8.10073 5.25882 0
M  V30 3111 H 402.371 -6.30324 0.726794 0
M  V30 3112 P 404.228 -8.4349 2.47671 0
M  V30 3113 O 405.649 -8.94263 2.59668 0
M  V30 3114 O 403.868 -7.1704 3.19006 0
M  V30 3115 O 403.905 -8.16596 0.923387 0
M  V30 3116 C 403.744 -9.38537 0.108869 0
M  V30 3117 C 404.285 -9.08175 -1.28353 0
M  V30 3118 O 403.23 -8.44131 -1.84692 0
M  V30 3119 C 405.503 -8.18386 -1.42505 0
M  V30 3120 O 406.241 -8.3501 -2.60497 0
M  V30 3121 C 404.835 -6.80225 -1.25468 0
M  V30 3122 O 405.633 -5.81716 -1.90454 0
M  V30 3123 C 403.497 -7.02416 -1.9168 0
M  V30 3124 N 402.454 -6.31033 -1.20314 0
M  V30 3125 C 402.623 -5.98817 0.0994088 0
M  V30 3126 N 401.596 -5.35403 0.621694 0
M  V30 3127 C 400.711 -5.25212 -0.43376 0
M  V30 3128 C 399.444 -4.64602 -0.519722 0
M  V30 3129 N 398.845 -4.01457 0.519136 0
M  V30 3130 N 398.879 -4.7568 -1.76013 0
M  V30 3131 C 399.481 -5.3653 -2.83017 0
M  V30 3132 N 400.658 -5.93676 -2.79782 0
M  V30 3133 C 401.233 -5.84061 -1.56249 0
M  V30 3134 H 403.529 -6.68789 -2.9658 0
M  V30 3135 H 404.712 -6.53498 -0.198729 0
M  V30 3136 H 406.195 -8.36622 -0.589963 0
M  V30 3137 H 404.501 -10.0273 -1.8081 0
M  V30 3138 H 404.311 -10.2138 0.558219 0
M  V30 3139 H 402.681 -9.6579 0.0444202 0
M  V30 3140 H 398.945 -5.37113 -3.77321 0
M  V30 3141 H 403.523 -6.23209 0.660562 0
M  V30 3142 H 397.915 -3.58834 0.394862 0
M  V30 3143 H 399.319 -3.96059 1.43048 0
M  V30 3144 H 405.321 -5.69466 -2.79593 0
M  V30 3145 P 407.179 -8.4349 -2.47671 0
M  V30 3146 O 408.601 -8.92593 -2.65 0
M  V30 3147 O 406.819 -7.7568 -1.19296 0
M  V30 3148 O 406.856 -7.36886 -3.63805 0
M  V30 3149 C 406.696 -7.95349 -4.982 0
M  V30 3150 C 407.236 -6.94612 -5.98974 0
M  V30 3151 O 406.18 -6.10347 -6.11815 0
M  V30 3152 C 408.454 -6.11426 -5.62335 0
M  V30 3153 O 409.192 -5.6162 -6.70584 0
M  V30 3154 C 407.785 -5.04409 -4.73308 0
M  V30 3155 O 408.584 -3.85992 -4.75183 0
M  V30 3156 C 406.448 -4.8728 -5.41006 0
M  V30 3157 H 406.48 -4.02333 -6.11157 0
M  V30 3158 H 407.663 -5.39466 -3.69543 0
M  V30 3159 H 409.147 -6.71916 -5.01943 0
M  V30 3160 H 407.453 -7.4649 -6.93477 0
M  V30 3161 H 407.263 -8.89416 -5.05237 0
M  V30 3162 H 405.633 -8.14876 -5.18409 0
M  V30 3163 H 408.272 -3.27957 -5.4317 0
M  V30 3164 P 410.129 -5.75688 -6.64379 0
M  V30 3165 O 411.551 -6.07627 -7.05504 0
M  V30 3166 O 409.769 -5.88047 -5.19722 0
M  V30 3167 O 409.806 -4.2322 -7.04443 0
M  V30 3168 C 409.646 -3.99743 -8.4911 0
M  V30 3169 C 410.186 -2.60516 -8.79425 0
M  V30 3170 O 409.13 -1.82684 -8.4467 0
M  V30 3171 C 411.404 -2.10343 -8.03628 0
M  V30 3172 O 412.142 -1.09919 -8.67766 0
M  V30 3173 C 410.735 -1.68446 -6.70876 0
M  V30 3174 O 411.534 -0.678137 -6.08433 0
M  V30 3175 C 409.398 -1.17436 -7.18567 0
M  V30 3176 H 409.43 -0.0804732 -7.31656 0
M  V30 3177 H 410.613 -2.54037 -6.02537 0
M  V30 3178 H 412.097 -2.93881 -7.85526 0
M  V30 3179 H 410.403 -2.53065 -9.86973 0
M  V30 3180 H 410.213 -4.75072 -9.05887 0
M  V30 3181 H 408.583 -4.05244 -8.76668 0
M  V30 3182 H 411.222 0.177647 -6.34251 0
M  V30 3183 P 413.08 -1.25109 -8.70152 0
M  V30 3184 O 414.502 -1.29772 -9.22214 0
M  V30 3185 O 412.72 -2.13714 -7.55141 0
M  V30 3186 O 412.757 0.248149 -8.21425 0
M  V30 3187 C 412.597 1.22779 -9.30434 0
M  V30 3188 C 413.137 2.56265 -8.80568 0
M  V30 3189 O 412.082 3.02979 -8.09349 0
M  V30 3190 C 414.355 2.57523 -7.89775 0
M  V30 3191 O 415.093 3.7668 -7.89438 0
M  V30 3192 C 413.687 2.20997 -6.55446 0
M  V30 3193 O 414.485 2.71851 -5.48419 0
M  V30 3194 C 412.349 2.89693 -6.67988 0
M  V30 3195 N 411.306 2.08895 -6.07487 0
M  V30 3196 C 411.368 0.760559 -6.14209 0
M  V30 3197 N 410.323 0.200108 -5.52538 0
M  V30 3198 C 409.589 1.22692 -5.09742 0
M  V30 3199 C 408.283 1.24782 -4.48775 0
M  V30 3200 O 407.55 0.290617 -4.19294 0
M  V30 3201 N 407.853 2.50468 -4.22428 0
M  V30 3202 C 408.602 3.67142 -4.51974 0
M  V30 3203 N 408.005 4.85096 -4.14091 0
M  V30 3204 N 409.755 3.67821 -5.12831 0
M  V30 3205 C 410.212 2.43698 -5.4105 0
M  V30 3206 H 412.381 3.88793 -6.19859 0
M  V30 3207 H 413.564 1.12029 -6.4413 0
M  V30 3208 H 415.049 1.78279 -8.19533 0
M  V30 3209 H 413.354 3.20706 -9.67112 0
M  V30 3210 H 413.164 0.901032 -10.1892 0
M  V30 3211 H 411.533 1.33049 -9.56592 0
M  V30 3212 H 406.957 2.61953 -3.79465 0
M  V30 3213 H 412.164 0.200439 -6.63497 0
M  V30 3214 H 407.094 4.8334 -3.66367 0
M  V30 3215 H 408.47 5.7474 -4.33841 0
M  V30 3216 H 414.174 3.5779 -5.23879 0
M  V30 3217 P 416.03 3.65191 -7.99657 0
M  V30 3218 O 417.452 3.89332 -8.45794 0
M  V30 3219 O 415.67 2.28472 -7.50807 0
M  V30 3220 O 415.707 4.64972 -6.77611 0
M  V30 3221 C 415.547 6.06319 -7.16352 0
M  V30 3222 C 416.087 6.91731 -6.02299 0
M  V30 3223 O 415.031 6.92449 -5.17064 0
M  V30 3224 C 417.305 6.43627 -5.25174 0
M  V30 3225 O 418.043 7.43686 -4.60469 0
M  V30 3226 C 416.636 5.40275 -4.31916 0
M  V30 3227 O 417.435 5.25279 -3.14438 0
M  V30 3228 C 415.299 6.04847 -4.05327 0
M  V30 3229 H 415.331 6.62195 -3.11261 0
M  V30 3230 H 416.514 4.42556 -4.81383 0
M  V30 3231 H 417.998 5.92458 -5.93643 0
M  V30 3232 H 416.304 7.92655 -6.402 0
M  V30 3233 H 416.114 6.26671 -8.0846 0
M  V30 3234 H 414.484 6.29101 -7.32804 0
M  V30 3235 H 417.123 5.84315 -2.47318 0
M  V30 3236 P 418.981 7.39546 -4.75277 0
M  V30 3237 O 420.403 7.84966 -5.01146 0
M  V30 3238 O 418.621 5.9812 -5.08098 0
M  V30 3239 O 418.658 7.57503 -3.1866 0
M  V30 3240 C 418.498 8.97357 -2.74833 0
M  V30 3241 C 419.038 9.0745 -1.32694 0
M  V30 3242 O 417.983 8.62072 -0.606159 0
M  V30 3243 C 420.256 8.25383 -0.938334 0
M  V30 3244 O 420.994 8.74577 0.146954 0
M  V30 3245 C 419.588 6.8802 -0.712559 0
M  V30 3246 O 420.386 6.11791 0.194623 0
M  V30 3247 C 418.25 7.27966 -0.139777 0
M  V30 3248 N 417.207 6.39368 -0.623421 0
M  V30 3249 C 417.269 5.90299 -1.85969 0
M  V30 3250 N 416.224 5.10919 -2.1133 0
M  V30 3251 C 415.49 5.14646 -1.0015 0
M  V30 3252 C 414.184 4.60057 -0.729219 0
M  V30 3253 O 413.451 3.93476 -1.47746 0
M  V30 3254 N 413.754 4.88302 0.523505 0
M  V30 3255 C 414.503 5.63646 1.46207 0
M  V30 3256 N 413.906 5.78186 2.69239 0
M  V30 3257 N 415.656 6.19285 1.21544 0
M  V30 3258 C 416.113 5.93392 -0.0308487 0
M  V30 3259 H 418.282 7.25354 0.961601 0
M  V30 3260 H 419.465 6.3246 -1.65676 0
M  V30 3261 H 420.95 8.19533 -1.78278 0
M  V30 3262 H 419.255 10.1294 -1.10029 0
M  V30 3263 H 419.065 9.64276 -3.41316 0
M  V30 3264 H 417.434 9.25417 -2.76357 0
M  V30 3265 H 412.858 4.53993 0.806451 0
M  V30 3266 H 418.065 6.11865 -2.57394 0
M  V30 3267 H 412.995 5.34046 2.87467 0
M  V30 3268 H 414.371 6.33391 3.42578 0
M  V30 3269 H 420.075 6.25169 1.0783 0
M  V30 3270 P 421.932 8.791 2.28317e-12 0
M  V30 3271 O 423.354 9.31096 0.027933 0
M  V30 3272 O 421.572 7.77869 -1.04071 0
M  V30 3273 O 421.609 8.09533 1.41463 0
M  V30 3274 C 421.449 9.0349 2.53943 0
M  V30 3275 C 421.989 8.35226 3.79016 0
M  V30 3276 O 420.933 7.57992 4.15078 0
M  V30 3277 C 423.207 7.45087 3.67298 0
M  V30 3278 O 423.945 7.27796 4.85194 0
M  V30 3279 C 422.538 6.17323 3.12027 0
M  V30 3280 O 423.337 5.04231 3.47188 0
M  V30 3281 C 421.201 6.19961 3.81809 0
M  V30 3282 H 421.233 5.58218 4.73051 0
M  V30 3283 H 422.416 6.21726 2.02589 0
M  V30 3284 H 423.9 7.86112 2.9231 0
M  V30 3285 H 422.206 9.11627 4.55076 0
M  V30 3286 H 422.016 9.9573 2.34194 0
M  V30 3287 H 420.386 9.2792 2.67832 0
M  V30 3288 H 423.025 4.67702 4.28772 0
M  V30 3289 P 424.882 7.39546 4.75277 0
M  V30 3290 O 426.304 7.81777 5.05738 0
M  V30 3291 O 424.522 7.1065 3.32998 0
M  V30 3292 O 424.559 6.04542 5.56673 0
M  V30 3293 C 424.399 6.22772 7.02095 0
M  V30 3294 C 424.939 4.97725 7.70406 0
M  V30 3295 O 423.883 4.13256 7.58987 0
M  V30 3296 C 426.157 4.28231 7.11815 0
M  V30 3297 O 426.895 3.49945 8.01648 0
M  V30 3298 C 425.488 3.5063 5.96244 0
M  V30 3299 O 426.287 2.36482 5.64681 0
M  V30 3300 C 424.151 3.15122 6.56374 0
M  V30 3301 H 424.183 2.13853 6.99751 0
M  V30 3302 H 425.366 4.13501 5.06559 0
M  V30 3303 H 426.85 5.03285 6.70911 0
M  V30 3304 H 425.156 5.20877 8.75697 0
M  V30 3305 H 424.966 7.11046 7.35349 0
M  V30 3306 H 423.336 6.35815 7.26986 0
M  V30 3307 H 425.975 1.61644 6.13565 0
M  V30 3308 P 427.833 3.65191 7.99657 0
M  V30 3309 O 429.255 3.8425 8.48115 0
M  V30 3310 O 427.473 4.17805 6.64342 0
M  V30 3311 O 427.51 2.07613 7.95143 0
M  V30 3312 C 427.35 1.44328 9.27336 0
M  V30 3313 C 427.89 0.0220036 9.17197 0
M  V30 3314 O 426.834 -0.626867 8.61923 0
M  V30 3315 C 429.108 -0.24586 8.30336 0
M  V30 3316 O 429.846 -1.39011 8.63583 0
M  V30 3317 C 428.439 -0.273849 6.91158 0
M  V30 3318 O 429.238 -1.06348 6.02892 0
M  V30 3319 C 427.102 -0.897649 7.22545 0
M  V30 3320 H 427.134 -1.9841 7.04286 0
M  V30 3321 H 428.317 0.739928 6.497 0
M  V30 3322 H 429.801 0.60668 8.36503 0
M  V30 3323 H 428.107 -0.352479 10.1829 0
M  V30 3324 H 427.917 2.00611 10.0304 0
M  V30 3325 H 426.287 1.41843 9.55327 0
M  V30 3326 H 428.926 -1.95734 6.03555 0
M  V30 3327 P 430.783 -1.25109 8.70152 0
M  V30 3328 O 432.205 -1.35274 9.21221 0
M  V30 3329 O 430.423 -0.0769065 7.84762 0
M  V30 3330 O 430.46 -2.55232 7.81161 0
M  V30 3331 C 430.3 -3.79939 8.58154 0
M  V30 3332 C 430.84 -4.94023 7.72785 0
M  V30 3333 O 429.784 -5.18726 6.91205 0
M  V30 3334 C 432.058 -4.69597 6.85231 0
M  V30 3335 O 432.796 -5.83832 6.51337 0
M  V30 3336 C 431.389 -3.96706 5.66633 0
M  V30 3337 O 432.188 -4.15414 4.49689 0
M  V30 3338 C 430.052 -4.66153 5.59313 0
M  V30 3339 H 430.084 -5.47679 4.85214 0
M  V30 3340 H 431.267 -2.89008 5.86566 0
M  V30 3341 H 432.751 -4.0121 7.36511 0
M  V30 3342 H 431.057 -5.80182 8.37584 0
M  V30 3343 H 430.867 -3.73517 9.52265 0
M  V30 3344 H 429.237 -3.97163 8.80359 0
M  V30 3345 H 431.876 -4.90969 4.01921 0
M  V30 3346 P 433.734 -5.75688 6.64379 0
M  V30 3347 O 435.135 -6.11991 7.09136 0
M  V30 3348 O 433.356 -4.30899 6.62018 0
M  V30 3349 O 433.411 -6.36965 5.19102 0
M  V30 3350 C 433.251 -7.83578 5.16515 0
M  V30 3351 C 433.791 -8.33307 3.82977 0
M  V30 3352 O 432.735 -8.0998 3.00999 0
M  V30 3353 C 435.008 -7.65514 3.2257 0
M  V30 3354 O 435.747 -8.4329 2.32297 0
M  V30 3355 C 434.341 -6.40075 2.62207 0
M  V30 3356 O 435.139 -5.92492 1.53687 0
M  V30 3357 C 433.003 -6.9454 2.18503 0
M  V30 3358 N 431.96 -5.95905 2.39948 0
M  V30 3359 C 430.925 -5.89764 1.49837 0
M  V30 3360 O 430.964 -6.64088 0.490975 0
M  V30 3361 N 429.913 -5.02821 1.70992 0
M  V30 3362 C 429.961 -4.21498 2.77236 0
M  V30 3363 C 431.057 -4.23389 3.68205 0
M  V30 3364 C 432.023 -5.12792 3.46171 0
M  V30 3365 H 433.035 -7.22964 1.12076 0
M  V30 3366 H 434.218 -5.60502 3.36589 0
M  V30 3367 H 435.702 -7.36197 4.01993 0
M  V30 3368 H 434.008 -9.41302 3.90009 0
M  V30 3369 H 433.817 -8.29056 5.99158 0
M  V30 3370 H 432.187 -8.09989 5.25828 0
M  V30 3371 H 431.105 -3.54747 4.52399 0
M  V30 3372 H 432.869 -5.18551 4.1489 0
M  V30 3373 H 434.923 -6.40705 0.751752 0
M  V30 3374 P 436.684 -8.4349 2.47671 0
M  V30 3375 O 438.106 -8.94167 2.5964 0
M  V30 3376 O 436.324 -7.1704 3.19006 0
M  V30 3377 O 436.361 -8.16596 0.923387 0
M  V30 3378 C 436.201 -9.38437 0.108857 0
M  V30 3379 C 436.741 -9.08175 -1.28353 0
M  V30 3380 O 435.685 -8.44229 -1.84713 0
M  V30 3381 C 437.959 -8.18386 -1.42505 0
M  V30 3382 O 438.697 -8.3501 -2.60497 0
M  V30 3383 C 437.29 -6.80225 -1.25468 0
M  V30 3384 O 438.089 -5.81621 -1.91066 0
M  V30 3385 C 435.953 -7.02416 -1.9168 0
M  V30 3386 H 435.985 -6.6888 -2.96621 0
M  V30 3387 H 437.168 -6.53617 -0.192223 0
M  V30 3388 H 438.652 -8.36622 -0.589963 0
M  V30 3389 H 436.958 -10.0291 -1.79807 0
M  V30 3390 H 436.768 -10.2138 0.558219 0
M  V30 3391 H 435.138 -9.6579 0.0444202 0
M  V30 3392 H 437.777 -5.69556 -2.79637 0
M  V30 3393 P 439.635 -8.4349 -2.47671 0
M  V30 3394 O 441.057 -8.92593 -2.65 0
M  V30 3395 O 439.275 -7.7568 -1.19296 0
M  V30 3396 O 439.312 -7.36886 -3.63805 0
M  V30 3397 C 439.152 -7.95349 -4.982 0
M  V30 3398 C 439.692 -6.94612 -5.98974 0
M  V30 3399 O 438.636 -6.10347 -6.11815 0
M  V30 3400 C 440.91 -6.11426 -5.62335 0
M  V30 3401 O 441.648 -5.6162 -6.70584 0
M  V30 3402 C 440.241 -5.04409 -4.73308 0
M  V30 3403 O 441.04 -3.85992 -4.75183 0
M  V30 3404 C 438.904 -4.8728 -5.41006 0
M  V30 3405 H 438.936 -4.02333 -6.11157 0
M  V30 3406 H 440.119 -5.39466 -3.69543 0
M  V30 3407 H 441.603 -6.71916 -5.01943 0
M  V30 3408 H 439.909 -7.4649 -6.93477 0
M  V30 3409 H 439.719 -8.89416 -5.05237 0
M  V30 3410 H 438.089 -8.14876 -5.18409 0
M  V30 3411 H 440.728 -3.27957 -5.4317 0
M  V30 3412 P 442.586 -5.75688 -6.64379 0
M  V30 3413 O 444.008 -6.07627 -7.05504 0
M  V30 3414 O 442.226 -5.88047 -5.19722 0
M  V30 3415 O 442.263 -4.2322 -7.04443 0
M  V30 3416 C 442.103 -3.99743 -8.4911 0
M  V30 3417 C 442.643 -2.60516 -8.79425 0
M  V30 3418 O 441.587 -1.82684 -8.4467 0
M  V30 3419 C 443.861 -2.10343 -8.03628 0
M  V30 3420 O 444.599 -1.09919 -8.67766 0
M  V30 3421 C 443.192 -1.68446 -6.70876 0
M  V30 3422 O 443.991 -0.678137 -6.08433 0
M  V30 3423 C 441.855 -1.17436 -7.18567 0
M  V30 3424 H 441.887 -0.0804732 -7.31656 0
M  V30 3425 H 443.07 -2.54037 -6.02537 0
M  V30 3426 H 444.554 -2.93881 -7.85526 0
M  V30 3427 H 442.86 -2.53065 -9.86973 0
M  V30 3428 H 442.67 -4.75072 -9.05887 0
M  V30 3429 H 441.04 -4.05244 -8.76668 0
M  V30 3430 H 443.679 0.177647 -6.34251 0
M  V30 3431 P 445.536 -1.25109 -8.70152 0
M  V30 3432 O 446.957 -1.29758 -9.22115 0
M  V30 3433 O 445.176 -2.13714 -7.55141 0
M  V30 3434 O 445.213 0.248149 -8.21425 0
M  V30 3435 C 445.052 1.22792 -9.30533 0
M  V30 3436 C 445.593 2.56293 -8.80664 0
M  V30 3437 O 444.538 3.02944 -8.09255 0
M  V30 3438 C 446.811 2.57523 -7.89775 0
M  V30 3439 O 447.549 3.7668 -7.89438 0
M  V30 3440 C 446.143 2.20997 -6.55446 0
M  V30 3441 O 446.941 2.71302 -5.48691 0
M  V30 3442 C 444.805 2.89693 -6.67988 0
M  V30 3443 N 443.762 2.08895 -6.07487 0
M  V30 3444 C 443.931 0.753809 -5.94137 0
M  V30 3445 N 442.904 0.146592 -5.38801 0
M  V30 3446 C 442.019 1.1768 -5.13693 0
M  V30 3447 C 440.752 1.17563 -4.52477 0
M  V30 3448 N 440.153 0.057481 -4.04759 0
M  V30 3449 N 440.187 2.41918 -4.45789 0
M  V30 3450 C 440.789 3.56493 -4.90792 0
M  V30 3451 N 441.966 3.61423 -5.47817 0
M  V30 3452 C 442.541 2.37779 -5.5588 0
M  V30 3453 H 444.837 3.8874 -6.19774 0
M  V30 3454 H 446.02 1.12673 -6.44018 0
M  V30 3455 H 447.503 1.7746 -8.19711 0
M  V30 3456 H 445.809 3.21673 -9.66791 0
M  V30 3457 H 445.619 0.901032 -10.1892 0
M  V30 3458 H 443.989 1.33049 -9.56592 0
M  V30 3459 H 440.253 4.49919 -4.77947 0
M  V30 3460 H 444.831 0.233081 -6.26266 0
M  V30 3461 H 439.223 0.119831 -3.60801 0
M  V30 3462 H 440.627 -0.852272 -4.12385 0
M  V30 3463 H 446.629 3.5779 -5.23879 0
M  V30 3464 P 448.487 3.65191 -7.99657 0
M  V30 3465 O 449.909 3.89332 -8.45794 0
M  V30 3466 O 448.127 2.28472 -7.50807 0
M  V30 3467 O 448.164 4.64972 -6.77611 0
M  V30 3468 C 448.004 6.06319 -7.16352 0
M  V30 3469 C 448.544 6.91731 -6.02299 0
M  V30 3470 O 447.488 6.92449 -5.17064 0
M  V30 3471 C 449.762 6.43627 -5.25174 0
M  V30 3472 O 450.5 7.43686 -4.60469 0
M  V30 3473 C 449.093 5.40275 -4.31916 0
M  V30 3474 O 449.892 5.25279 -3.14438 0
M  V30 3475 C 447.756 6.04847 -4.05327 0
M  V30 3476 H 447.788 6.62195 -3.11261 0
M  V30 3477 H 448.971 4.42556 -4.81383 0
M  V30 3478 H 450.455 5.92458 -5.93643 0
M  V30 3479 H 448.761 7.92655 -6.402 0
M  V30 3480 H 448.571 6.26671 -8.0846 0
M  V30 3481 H 446.941 6.29101 -7.32804 0
M  V30 3482 H 449.58 5.84315 -2.47318 0
M  V30 3483 P 451.437 7.39546 -4.75277 0
M  V30 3484 O 452.859 7.84798 -5.01039 0
M  V30 3485 O 451.077 5.9812 -5.08098 0
M  V30 3486 O 451.114 7.57503 -3.1866 0
M  V30 3487 C 450.954 8.97357 -2.74833 0
M  V30 3488 C 451.494 9.07548 -1.32709 0
M  V30 3489 O 450.438 8.62072 -0.606159 0
M  V30 3490 C 452.712 8.25383 -0.938334 0
M  V30 3491 O 453.45 8.74577 0.146954 0
M  V30 3492 C 452.043 6.8802 -0.712559 0
M  V30 3493 O 452.842 6.1189 0.194655 0
M  V30 3494 C 450.706 7.27966 -0.139777 0
M  V30 3495 H 450.738 7.25354 0.961601 0
M  V30 3496 H 451.921 6.32557 -1.65702 0
M  V30 3497 H 453.405 8.19355 -1.79097 0
M  V30 3498 H 451.711 10.1294 -1.10029 0
M  V30 3499 H 451.521 9.64276 -3.41316 0
M  V30 3500 H 449.891 9.25417 -2.76357 0
M  V30 3501 H 452.53 6.25267 1.07847 0
M  V30 3502 P 454.388 8.791 2.59334e-12 0
M  V30 3503 O 455.81 9.31096 0.027933 0
M  V30 3504 O 454.028 7.77869 -1.04071 0
M  V30 3505 O 454.065 8.09533 1.41463 0
M  V30 3506 C 453.905 9.0349 2.53943 0
M  V30 3507 C 454.445 8.35226 3.79016 0
M  V30 3508 O 453.389 7.57992 4.15078 0
M  V30 3509 C 455.663 7.45087 3.67298 0
M  V30 3510 O 456.401 7.27796 4.85194 0
M  V30 3511 C 454.994 6.17323 3.12027 0
M  V30 3512 O 455.793 5.04231 3.47188 0
M  V30 3513 C 453.657 6.19961 3.81809 0
M  V30 3514 H 453.689 5.58218 4.73051 0
M  V30 3515 H 454.872 6.21726 2.02589 0
M  V30 3516 H 456.356 7.86112 2.9231 0
M  V30 3517 H 454.662 9.11627 4.55076 0
M  V30 3518 H 454.472 9.9573 2.34194 0
M  V30 3519 H 452.842 9.2792 2.67832 0
M  V30 3520 H 455.481 4.67702 4.28772 0
M  V30 3521 P 457.338 7.39546 4.75277 0
M  V30 3522 O 458.76 7.81777 5.05738 0
M  V30 3523 O 456.978 7.1065 3.32998 0
M  V30 3524 O 457.015 6.04542 5.56673 0
M  V30 3525 C 456.855 6.22772 7.02095 0
M  V30 3526 C 457.395 4.97725 7.70406 0
M  V30 3527 O 456.339 4.13256 7.58987 0
M  V30 3528 C 458.613 4.28231 7.11815 0
M  V30 3529 O 459.351 3.49945 8.01648 0
M  V30 3530 C 457.944 3.5063 5.96244 0
M  V30 3531 O 458.743 2.36482 5.64681 0
M  V30 3532 C 456.607 3.15122 6.56374 0
M  V30 3533 H 456.639 2.13853 6.99751 0
M  V30 3534 H 457.822 4.13501 5.06559 0
M  V30 3535 H 459.306 5.03285 6.70911 0
M  V30 3536 H 457.612 5.20877 8.75697 0
M  V30 3537 H 457.422 7.11046 7.35349 0
M  V30 3538 H 455.792 6.35815 7.26986 0
M  V30 3539 H 458.431 1.61644 6.13565 0
M  V30 3540 P 460.289 3.65191 7.99657 0
M  V30 3541 O 461.711 3.8425 8.48115 0
M  V30 3542 O 459.929 4.17805 6.64342 0
M  V30 3543 O 459.966 2.07613 7.95143 0
M  V30 3544 C 459.806 1.44328 9.27336 0
M  V30 3545 C 460.346 0.0220036 9.17197 0
M  V30 3546 O 459.29 -0.626867 8.61923 0
M  V30 3547 C 461.564 -0.24586 8.30336 0
M  V30 3548 O 462.302 -1.39011 8.63583 0
M  V30 3549 C 460.895 -0.273849 6.91158 0
M  V30 3550 O 461.694 -1.06348 6.02892 0
M  V30 3551 C 459.558 -0.897649 7.22545 0
M  V30 3552 H 459.59 -1.9841 7.04286 0
M  V30 3553 H 460.773 0.739928 6.497 0
M  V30 3554 H 462.257 0.60668 8.36503 0
M  V30 3555 H 460.563 -0.352479 10.1829 0
M  V30 3556 H 460.373 2.00611 10.0304 0
M  V30 3557 H 458.743 1.41843 9.55327 0
M  V30 3558 H 461.382 -1.95734 6.03555 0
M  V30 3559 P 463.239 -1.25109 8.70152 0
M  V30 3560 O 464.661 -1.35274 9.21221 0
M  V30 3561 O 462.879 -0.0769065 7.84762 0
M  V30 3562 O 462.916 -2.55232 7.81161 0
M  V30 3563 C 462.756 -3.79939 8.58154 0
M  V30 3564 C 463.296 -4.94023 7.72785 0
M  V30 3565 O 462.24 -5.18726 6.91205 0
M  V30 3566 C 464.514 -4.69597 6.85231 0
M  V30 3567 O 465.252 -5.83832 6.51337 0
M  V30 3568 C 463.845 -3.96706 5.66633 0
M  V30 3569 O 464.644 -4.15414 4.49689 0
M  V30 3570 C 462.508 -4.66153 5.59313 0
M  V30 3571 H 462.54 -5.47679 4.85214 0
M  V30 3572 H 463.723 -2.89008 5.86566 0
M  V30 3573 H 465.207 -4.0121 7.36511 0
M  V30 3574 H 463.513 -5.80182 8.37584 0
M  V30 3575 H 463.323 -3.73517 9.52265 0
M  V30 3576 H 461.693 -3.97163 8.80359 0
M  V30 3577 H 464.332 -4.90969 4.01921 0
M  V30 3578 P 466.19 -5.75688 6.64379 0
M  V30 3579 O 467.612 -6.11849 7.01846 0
M  V30 3580 O 465.83 -4.30744 6.56026 0
M  V30 3581 O 465.867 -6.37042 5.19165 0
M  V30 3582 C 465.707 -7.83578 5.16515 0
M  V30 3583 C 466.247 -8.33398 3.83019 0
M  V30 3584 O 465.191 -8.10074 3.01034 0
M  V30 3585 C 467.465 -7.65514 3.2257 0
M  V30 3586 O 468.203 -8.4329 2.32297 0
M  V30 3587 C 466.796 -6.40075 2.62207 0
M  V30 3588 O 467.595 -5.92589 1.53712 0
M  V30 3589 C 465.459 -6.9454 2.18503 0
M  V30 3590 H 465.491 -7.23063 1.12091 0
M  V30 3591 H 466.674 -5.6025 3.37201 0
M  V30 3592 H 468.158 -7.35707 4.02681 0
M  V30 3593 H 466.464 -9.40912 3.9095 0
M  V30 3594 H 466.274 -8.29056 5.99158 0
M  V30 3595 H 464.644 -8.10073 5.25882 0
M  V30 3596 H 467.283 -6.30324 0.726794 0
M  V30 3597 P 469.141 -8.4349 2.47671 0
M  V30 3598 O 470.563 -8.94167 2.5964 0
M  V30 3599 O 468.781 -7.1704 3.19006 0
M  V30 3600 O 468.818 -8.16596 0.923387 0
M  V30 3601 C 468.658 -9.38437 0.108857 0
M  V30 3602 C 469.198 -9.08175 -1.28353 0
M  V30 3603 O 468.142 -8.44229 -1.84713 0
M  V30 3604 C 470.416 -8.18386 -1.42505 0
M  V30 3605 O 471.154 -8.3501 -2.60497 0
M  V30 3606 C 469.747 -6.80225 -1.25468 0
M  V30 3607 O 470.546 -5.81621 -1.91066 0
M  V30 3608 C 468.41 -7.02416 -1.9168 0
M  V30 3609 H 468.442 -6.6888 -2.96621 0
M  V30 3610 H 469.625 -6.53617 -0.192223 0
M  V30 3611 H 471.109 -8.36622 -0.589963 0
M  V30 3612 H 469.415 -10.0291 -1.79807 0
M  V30 3613 H 469.225 -10.2138 0.558219 0
M  V30 3614 H 467.595 -9.6579 0.0444202 0
M  V30 3615 H 470.234 -5.69556 -2.79637 0
M  V30 3616 P 472.091 -8.4349 -2.47671 0
M  V30 3617 O 473.513 -8.92593 -2.65 0
M  V30 3618 O 471.731 -7.7568 -1.19296 0
M  V30 3619 O 471.768 -7.36886 -3.63805 0
M  V30 3620 C 471.608 -7.95349 -4.982 0
M  V30 3621 C 472.148 -6.94612 -5.98974 0
M  V30 3622 O 471.092 -6.10347 -6.11815 0
M  V30 3623 C 473.366 -6.11426 -5.62335 0
M  V30 3624 O 474.104 -5.6162 -6.70584 0
M  V30 3625 C 472.697 -5.04409 -4.73308 0
M  V30 3626 O 473.496 -3.85992 -4.75183 0
M  V30 3627 C 471.36 -4.8728 -5.41006 0
M  V30 3628 H 471.392 -4.02333 -6.11157 0
M  V30 3629 H 472.575 -5.39466 -3.69543 0
M  V30 3630 H 474.059 -6.71916 -5.01943 0
M  V30 3631 H 472.365 -7.4649 -6.93477 0
M  V30 3632 H 472.175 -8.89416 -5.05237 0
M  V30 3633 H 470.545 -8.14876 -5.18409 0
M  V30 3634 H 473.184 -3.27957 -5.4317 0
M  V30 3635 P 475.042 -5.75688 -6.64379 0
M  V30 3636 O 476.464 -6.07627 -7.05504 0
M  V30 3637 O 474.682 -5.88047 -5.19722 0
M  V30 3638 O 474.719 -4.2322 -7.04443 0
M  V30 3639 C 474.559 -3.99743 -8.4911 0
M  V30 3640 C 475.099 -2.60516 -8.79425 0
M  V30 3641 O 474.043 -1.82684 -8.4467 0
M  V30 3642 C 476.317 -2.10343 -8.03628 0
M  V30 3643 O 477.055 -1.09919 -8.67766 0
M  V30 3644 C 475.648 -1.68446 -6.70876 0
M  V30 3645 O 476.447 -0.678137 -6.08433 0
M  V30 3646 C 474.311 -1.17436 -7.18567 0
M  V30 3647 H 474.343 -0.0804732 -7.31656 0
M  V30 3648 H 475.526 -2.54037 -6.02537 0
M  V30 3649 H 477.01 -2.93881 -7.85526 0
M  V30 3650 H 475.316 -2.53065 -9.86973 0
M  V30 3651 H 475.126 -4.75072 -9.05887 0
M  V30 3652 H 473.496 -4.05244 -8.76668 0
M  V30 3653 H 476.135 0.177647 -6.34251 0
M  V30 3654 P 477.992 -1.25109 -8.70152 0
M  V30 3655 O 479.414 -1.29744 -9.22016 0
M  V30 3656 O 477.632 -2.13714 -7.55141 0
M  V30 3657 O 477.669 0.248149 -8.21425 0
M  V30 3658 C 477.509 1.22779 -9.30434 0
M  V30 3659 C 478.049 2.56293 -8.80664 0
M  V30 3660 O 476.993 3.02979 -8.09349 0
M  V30 3661 C 479.267 2.57523 -7.89775 0
M  V30 3662 O 480.005 3.7668 -7.89438 0
M  V30 3663 C 478.598 2.20997 -6.55446 0
M  V30 3664 O 479.397 2.71895 -5.48509 0
M  V30 3665 C 477.261 2.89693 -6.67988 0
M  V30 3666 H 477.293 3.88793 -6.19859 0
M  V30 3667 H 478.476 1.12046 -6.44229 0
M  V30 3668 H 479.96 1.7746 -8.19711 0
M  V30 3669 H 478.266 3.20706 -9.67112 0
M  V30 3670 H 478.076 0.901032 -10.1892 0
M  V30 3671 H 476.446 1.33049 -9.56592 0
M  V30 3672 H 479.085 3.57847 -5.23962 0
M  V30 3673 P 480.943 3.65191 -7.99657 0
M  V30 3674 O 482.364 3.89374 -8.45885 0
M  V30 3675 O 480.583 2.28472 -7.50807 0
M  V30 3676 O 480.62 4.64972 -6.77611 0
M  V30 3677 C 480.459 6.06383 -7.16428 0
M  V30 3678 C 481 6.91731 -6.02299 0
M  V30 3679 O 479.945 6.92369 -5.17005 0
M  V30 3680 C 482.218 6.43627 -5.25174 0
M  V30 3681 O 482.956 7.43686 -4.60469 0
M  V30 3682 C 481.55 5.40275 -4.31916 0
M  V30 3683 O 482.348 5.24878 -3.14911 0
M  V30 3684 C 480.212 6.04847 -4.05327 0
M  V30 3685 N 479.169 5.04166 -3.98114 0
M  V30 3686 C 479.338 3.84629 -4.59066 0
M  V30 3687 N 478.311 3.0363 -4.45343 0
M  V30 3688 C 477.426 3.76722 -3.68523 0
M  V30 3689 C 476.159 3.43528 -3.17088 0
M  V30 3690 N 475.594 4.44526 -2.44231 0
M  V30 3691 C 476.196 5.65243 -2.20146 0
M  V30 3692 N 477.373 6.00221 -2.65453 0
M  V30 3693 C 477.948 5.00564 -3.39083 0
M  V30 3694 H 481.427 4.42969 -4.80867 0
M  V30 3695 H 482.91 5.92458 -5.93643 0
M  V30 3696 H 481.216 7.93295 -6.39407 0
M  V30 3697 H 481.026 6.26671 -8.0846 0
M  V30 3698 H 479.396 6.29101 -7.32804 0
M  V30 3699 H 480.238 3.58193 -5.14248 0
M  V30 3700 H 482.036 5.84223 -2.47279 0
M  V30 3701 P 483.893 7.39546 -4.75277 0
M  V30 3702 O 485.315 7.84966 -5.01146 0
M  V30 3703 O 483.533 5.9812 -5.08098 0
M  V30 3704 O 483.57 7.57503 -3.1866 0
M  V30 3705 C 483.41 8.97357 -2.74833 0
M  V30 3706 C 483.95 9.0745 -1.32694 0
M  V30 3707 O 482.895 8.62072 -0.606159 0
M  V30 3708 C 485.168 8.25383 -0.938334 0
M  V30 3709 O 485.906 8.74577 0.146954 0
M  V30 3710 C 484.5 6.8802 -0.712559 0
M  V30 3711 O 485.298 6.11791 0.194623 0
M  V30 3712 C 483.162 7.27966 -0.139777 0
M  V30 3713 N 482.119 6.39368 -0.623421 0
M  V30 3714 C 482.181 5.90299 -1.85969 0
M  V30 3715 N 481.136 5.10919 -2.1133 0
M  V30 3716 C 480.402 5.14646 -1.0015 0
M  V30 3717 C 479.096 4.60057 -0.729219 0
M  V30 3718 O 478.363 3.93476 -1.47746 0
M  V30 3719 N 478.666 4.88302 0.523505 0
M  V30 3720 C 479.415 5.63646 1.46207 0
M  V30 3721 N 478.818 5.78186 2.69239 0
M  V30 3722 N 480.568 6.19285 1.21544 0
M  V30 3723 C 481.025 5.93392 -0.0308487 0
M  V30 3724 H 483.194 7.25354 0.961601 0
M  V30 3725 H 484.377 6.3246 -1.65676 0
M  V30 3726 H 485.862 8.19533 -1.78278 0
M  V30 3727 H 484.167 10.1294 -1.10029 0
M  V30 3728 H 483.977 9.64276 -3.41316 0
M  V30 3729 H 482.346 9.25417 -2.76357 0
M  V30 3730 H 477.77 4.53993 0.806451 0
M  V30 3731 H 482.977 6.11865 -2.57394 0
M  V30 3732 H 477.907 5.34046 2.87467 0
M  V30 3733 H 479.283 6.33391 3.42578 0
M  V30 3734 H 484.987 6.25169 1.0783 0
M  V30 3735 P 486.844 8.791 2.9035e-12 0
M  V30 3736 O 488.266 9.31096 0.027933 0
M  V30 3737 O 486.484 7.77869 -1.04071 0
M  V30 3738 O 486.521 8.09533 1.41463 0
M  V30 3739 C 486.361 9.0349 2.53943 0
M  V30 3740 C 486.901 8.35226 3.79016 0
M  V30 3741 O 485.845 7.57992 4.15078 0
M  V30 3742 C 488.119 7.45087 3.67298 0
M  V30 3743 O 488.857 7.27796 4.85194 0
M  V30 3744 C 487.45 6.17323 3.12027 0
M  V30 3745 O 488.249 5.04231 3.47188 0
M  V30 3746 C 486.113 6.19961 3.81809 0
M  V30 3747 H 486.145 5.58218 4.73051 0
M  V30 3748 H 487.328 6.21726 2.02589 0
M  V30 3749 H 488.812 7.86112 2.9231 0
M  V30 3750 H 487.118 9.11627 4.55076 0
M  V30 3751 H 486.928 9.9573 2.34194 0
M  V30 3752 H 485.298 9.2792 2.67832 0
M  V30 3753 H 487.937 4.67702 4.28772 0
M  V30 3754 P 489.795 7.39546 4.75277 0
M  V30 3755 O 491.217 7.81945 5.05847 0
M  V30 3756 O 489.435 7.1065 3.32998 0
M  V30 3757 O 489.472 6.04542 5.56673 0
M  V30 3758 C 489.312 6.22772 7.02095 0
M  V30 3759 C 489.852 4.97671 7.70322 0
M  V30 3760 O 488.797 4.13256 7.58987 0
M  V30 3761 C 491.07 4.28231 7.11815 0
M  V30 3762 O 491.808 3.49945 8.01648 0
M  V30 3763 C 490.402 3.5063 5.96244 0
M  V30 3764 O 491.2 2.36443 5.64589 0
M  V30 3765 C 489.064 3.15122 6.56374 0
M  V30 3766 N 488.021 3.22311 5.55692 0
M  V30 3767 C 488.083 4.14382 4.59701 0
M  V30 3768 N 487.038 4.04476 3.76958 0
M  V30 3769 C 486.304 3.04892 4.26534 0
M  V30 3770 C 484.998 2.57447 3.88189 0
M  V30 3771 O 484.265 2.9785 2.96543 0
M  V30 3772 N 484.568 1.55228 4.65922 0
M  V30 3773 C 485.317 1.01152 5.73447 0
M  V30 3774 N 484.72 -0.0472117 6.37783 0
M  V30 3775 N 486.47 1.467 6.13813 0
M  V30 3776 C 486.927 2.4931 5.38487 0
M  V30 3777 H 489.096 2.13853 6.99751 0
M  V30 3778 H 490.279 4.13438 5.06482 0
M  V30 3779 H 491.764 5.02614 6.71414 0
M  V30 3780 H 490.069 5.20877 8.75697 0
M  V30 3781 H 489.879 7.11046 7.35349 0
M  V30 3782 H 488.248 6.35815 7.26986 0
M  V30 3783 H 483.672 1.15238 4.46468 0
M  V30 3784 H 488.879 4.88312 4.49647 0
M  V30 3785 H 483.809 -0.396382 6.05203 0
M  V30 3786 H 485.185 -0.484997 7.18465 0
M  V30 3787 H 490.889 1.61619 6.13468 0
M  V30 3788 P 492.745 3.65191 7.99657 0
M  V30 3789 O 494.167 3.8425 8.48115 0
M  V30 3790 O 492.385 4.17805 6.64342 0
M  V30 3791 O 492.422 2.07613 7.95143 0
M  V30 3792 C 492.262 1.44328 9.27336 0
M  V30 3793 C 492.802 0.0220036 9.17197 0
M  V30 3794 O 491.746 -0.626867 8.61923 0
M  V30 3795 C 494.02 -0.24586 8.30336 0
M  V30 3796 O 494.758 -1.39011 8.63583 0
M  V30 3797 C 493.351 -0.273849 6.91158 0
M  V30 3798 O 494.15 -1.06348 6.02892 0
M  V30 3799 C 492.014 -0.897649 7.22545 0
M  V30 3800 H 492.046 -1.9841 7.04286 0
M  V30 3801 H 493.229 0.739928 6.497 0
M  V30 3802 H 494.713 0.60668 8.36503 0
M  V30 3803 H 493.019 -0.352479 10.1829 0
M  V30 3804 H 492.829 2.00611 10.0304 0
M  V30 3805 H 491.199 1.41843 9.55327 0
M  V30 3806 H 493.838 -1.95734 6.03555 0
M  V30 3807 P 495.696 -1.25109 8.70152 0
M  V30 3808 O 497.118 -1.35274 9.21221 0
M  V30 3809 O 495.336 -0.0769065 7.84762 0
M  V30 3810 O 495.373 -2.55232 7.81161 0
M  V30 3811 C 495.213 -3.79939 8.58154 0
M  V30 3812 C 495.753 -4.94023 7.72785 0
M  V30 3813 O 494.697 -5.18726 6.91205 0
M  V30 3814 C 496.971 -4.69597 6.85231 0
M  V30 3815 O 497.709 -5.83832 6.51337 0
M  V30 3816 C 496.302 -3.96706 5.66633 0
M  V30 3817 O 497.101 -4.15414 4.49689 0
M  V30 3818 C 494.965 -4.66153 5.59313 0
M  V30 3819 H 494.997 -5.47679 4.85214 0
M  V30 3820 H 496.18 -2.89008 5.86566 0
M  V30 3821 H 497.664 -4.0121 7.36511 0
M  V30 3822 H 495.97 -5.80182 8.37584 0
M  V30 3823 H 495.78 -3.73517 9.52265 0
M  V30 3824 H 494.15 -3.97163 8.80359 0
M  V30 3825 H 496.789 -4.90969 4.01921 0
M  V30 3826 P 498.646 -5.75688 6.64379 0
M  V30 3827 O 500.047 -6.11991 7.09136 0
M  V30 3828 O 498.268 -4.30899 6.62018 0
M  V30 3829 O 498.323 -6.36965 5.19102 0
M  V30 3830 C 498.163 -7.83578 5.16515 0
M  V30 3831 C 498.703 -8.33307 3.82977 0
M  V30 3832 O 497.647 -8.0998 3.00999 0
M  V30 3833 C 499.92 -7.65514 3.2257 0
M  V30 3834 O 500.659 -8.4329 2.32297 0
M  V30 3835 C 499.253 -6.40075 2.62207 0
M  V30 3836 O 500.051 -5.92492 1.53687 0
M  V30 3837 C 497.915 -6.9454 2.18503 0
M  V30 3838 N 496.872 -5.95905 2.39948 0
M  V30 3839 C 495.837 -5.89764 1.49837 0
M  V30 3840 O 495.876 -6.64088 0.490975 0
M  V30 3841 N 494.825 -5.02821 1.70992 0
M  V30 3842 C 494.873 -4.21498 2.77236 0
M  V30 3843 N 493.863 -3.37475 2.96465 0
M  V30 3844 C 495.969 -4.23389 3.68205 0
M  V30 3845 C 496.935 -5.12792 3.46171 0
M  V30 3846 H 497.947 -7.22964 1.12076 0
M  V30 3847 H 499.13 -5.60502 3.36589 0
M  V30 3848 H 500.614 -7.36197 4.01993 0
M  V30 3849 H 498.92 -9.41302 3.90009 0
M  V30 3850 H 498.729 -8.29056 5.99158 0
M  V30 3851 H 497.099 -8.09989 5.25828 0
M  V30 3852 H 496.017 -3.54747 4.52399 0
M  V30 3853 H 497.781 -5.18551 4.1489 0
M  V30 3854 H 493.073 -3.36058 2.30304 0
M  V30 3855 H 493.868 -2.73846 3.77171 0
M  V30 3856 H 499.835 -6.40705 0.751752 0
M  V30 3857 P 501.597 -8.4349 2.47671 0
M  V30 3858 O 503.019 -8.94167 2.5964 0
M  V30 3859 O 501.237 -7.1704 3.19006 0
M  V30 3860 O 501.274 -8.16596 0.923387 0
M  V30 3861 C 501.114 -9.38437 0.108857 0
M  V30 3862 C 501.654 -9.08175 -1.28353 0
M  V30 3863 O 500.598 -8.44229 -1.84713 0
M  V30 3864 C 502.872 -8.18386 -1.42505 0
M  V30 3865 O 503.61 -8.3501 -2.60497 0
M  V30 3866 C 502.203 -6.80225 -1.25468 0
M  V30 3867 O 503.002 -5.81621 -1.91066 0
M  V30 3868 C 500.866 -7.02416 -1.9168 0
M  V30 3869 H 500.898 -6.6888 -2.96621 0
M  V30 3870 H 502.081 -6.53617 -0.192223 0
M  V30 3871 H 503.565 -8.36622 -0.589963 0
M  V30 3872 H 501.871 -10.0291 -1.79807 0
M  V30 3873 H 501.681 -10.2138 0.558219 0
M  V30 3874 H 500.051 -9.6579 0.0444202 0
M  V30 3875 H 502.69 -5.69556 -2.79637 0
M  V30 3876 P 504.547 -8.4349 -2.47671 0
M  V30 3877 O 505.969 -8.92593 -2.65 0
M  V30 3878 O 504.187 -7.7568 -1.19296 0
M  V30 3879 O 504.224 -7.36886 -3.63805 0
M  V30 3880 C 504.064 -7.95349 -4.982 0
M  V30 3881 C 504.604 -6.94612 -5.98974 0
M  V30 3882 O 503.548 -6.10347 -6.11815 0
M  V30 3883 C 505.822 -6.11426 -5.62335 0
M  V30 3884 O 506.56 -5.6162 -6.70584 0
M  V30 3885 C 505.153 -5.04409 -4.73308 0
M  V30 3886 O 505.952 -3.85992 -4.75183 0
M  V30 3887 C 503.816 -4.8728 -5.41006 0
M  V30 3888 H 503.848 -4.02333 -6.11157 0
M  V30 3889 H 505.031 -5.39466 -3.69543 0
M  V30 3890 H 506.515 -6.71916 -5.01943 0
M  V30 3891 H 504.821 -7.4649 -6.93477 0
M  V30 3892 H 504.631 -8.89416 -5.05237 0
M  V30 3893 H 503.001 -8.14876 -5.18409 0
M  V30 3894 H 505.64 -3.27957 -5.4317 0
M  V30 3895 P 507.498 -5.75688 -6.64379 0
M  V30 3896 O 508.92 -6.07627 -7.05504 0
M  V30 3897 O 507.138 -5.88047 -5.19722 0
M  V30 3898 O 507.175 -4.2322 -7.04443 0
M  V30 3899 C 507.015 -3.99743 -8.4911 0
M  V30 3900 C 507.555 -2.60516 -8.79425 0
M  V30 3901 O 506.499 -1.82684 -8.4467 0
M  V30 3902 C 508.773 -2.10343 -8.03628 0
M  V30 3903 O 509.511 -1.09919 -8.67766 0
M  V30 3904 C 508.104 -1.68446 -6.70876 0
M  V30 3905 O 508.903 -0.678137 -6.08433 0
M  V30 3906 C 506.767 -1.17436 -7.18567 0
M  V30 3907 H 506.799 -0.0804732 -7.31656 0
M  V30 3908 H 507.982 -2.54037 -6.02537 0
M  V30 3909 H 509.466 -2.93881 -7.85526 0
M  V30 3910 H 507.772 -2.53065 -9.86973 0
M  V30 3911 H 507.582 -4.75072 -9.05887 0
M  V30 3912 H 505.952 -4.05244 -8.76668 0
M  V30 3913 H 508.591 0.177647 -6.34251 0
M  V30 3914 P 510.449 -1.25109 -8.70152 0
M  V30 3915 O 511.87 -1.29758 -9.22115 0
M  V30 3916 O 510.089 -2.13714 -7.55141 0
M  V30 3917 O 510.126 0.248149 -8.21425 0
M  V30 3918 C 509.965 1.22792 -9.30533 0
M  V30 3919 C 510.506 2.56293 -8.80664 0
M  V30 3920 O 509.451 3.02944 -8.09255 0
M  V30 3921 C 511.724 2.57523 -7.89775 0
M  V30 3922 O 512.462 3.7668 -7.89438 0
M  V30 3923 C 511.056 2.20997 -6.55446 0
M  V30 3924 O 511.854 2.71302 -5.48691 0
M  V30 3925 C 509.718 2.89693 -6.67988 0
M  V30 3926 N 508.675 2.08895 -6.07487 0
M  V30 3927 C 508.844 0.753809 -5.94137 0
M  V30 3928 N 507.817 0.146592 -5.38801 0
M  V30 3929 C 506.932 1.1768 -5.13693 0
M  V30 3930 C 505.665 1.17563 -4.52477 0
M  V30 3931 N 505.066 0.057481 -4.04759 0
M  V30 3932 N 505.1 2.41918 -4.45789 0
M  V30 3933 C 505.702 3.56493 -4.90792 0
M  V30 3934 N 506.879 3.61423 -5.47817 0
M  V30 3935 C 507.454 2.37779 -5.5588 0
M  V30 3936 H 509.75 3.8874 -6.19774 0
M  V30 3937 H 510.933 1.12673 -6.44018 0
M  V30 3938 H 512.416 1.7746 -8.19711 0
M  V30 3939 H 510.722 3.21673 -9.66791 0
M  V30 3940 H 510.532 0.901032 -10.1892 0
M  V30 3941 H 508.902 1.33049 -9.56592 0
M  V30 3942 H 505.166 4.49919 -4.77947 0
M  V30 3943 H 509.744 0.233081 -6.26266 0
M  V30 3944 H 504.136 0.119831 -3.60801 0
M  V30 3945 H 505.54 -0.852272 -4.12385 0
M  V30 3946 H 511.542 3.5779 -5.23879 0
M  V30 3947 P 513.399 3.65191 -7.99657 0
M  V30 3948 O 514.821 3.89332 -8.45794 0
M  V30 3949 O 513.039 2.28472 -7.50807 0
M  V30 3950 O 513.076 4.64972 -6.77611 0
M  V30 3951 C 512.916 6.06319 -7.16352 0
M  V30 3952 C 513.456 6.91731 -6.02299 0
M  V30 3953 O 512.4 6.92449 -5.17064 0
M  V30 3954 C 514.674 6.43627 -5.25174 0
M  V30 3955 O 515.412 7.43686 -4.60469 0
M  V30 3956 C 514.005 5.40275 -4.31916 0
M  V30 3957 O 514.804 5.25279 -3.14438 0
M  V30 3958 C 512.668 6.04847 -4.05327 0
M  V30 3959 H 512.7 6.62195 -3.11261 0
M  V30 3960 H 513.883 4.42556 -4.81383 0
M  V30 3961 H 515.367 5.92458 -5.93643 0
M  V30 3962 H 513.673 7.92655 -6.402 0
M  V30 3963 H 513.483 6.26671 -8.0846 0
M  V30 3964 H 511.853 6.29101 -7.32804 0
M  V30 3965 H 514.492 5.84315 -2.47318 0
M  V30 3966 P 516.35 7.39546 -4.75277 0
M  V30 3967 O 517.772 7.84798 -5.01039 0
M  V30 3968 O 515.99 5.9812 -5.08098 0
M  V30 3969 O 516.027 7.57503 -3.1866 0
M  V30 3970 C 515.867 8.97357 -2.74833 0
M  V30 3971 C 516.407 9.07548 -1.32709 0
M  V30 3972 O 515.351 8.62072 -0.606159 0
M  V30 3973 C 517.625 8.25383 -0.938334 0
M  V30 3974 O 518.363 8.74577 0.146954 0
M  V30 3975 C 516.956 6.8802 -0.712559 0
M  V30 3976 O 517.755 6.1189 0.194655 0
M  V30 3977 C 515.619 7.27966 -0.139777 0
M  V30 3978 H 515.651 7.25354 0.961601 0
M  V30 3979 H 516.834 6.32557 -1.65702 0
M  V30 3980 H 518.318 8.19355 -1.79097 0
M  V30 3981 H 516.624 10.1294 -1.10029 0
M  V30 3982 H 516.434 9.64276 -3.41316 0
M  V30 3983 H 514.804 9.25417 -2.76357 0
M  V30 3984 H 517.443 6.25267 1.07847 0
M  V30 3985 P 519.3 8.791 3.21367e-12 0
M  V30 3986 O 520.721 9.31196 0.027936 0
M  V30 3987 O 518.94 7.77869 -1.04071 0
M  V30 3988 O 518.977 8.09533 1.41463 0
M  V30 3989 C 518.816 9.03587 2.5397 0
M  V30 3990 C 519.357 8.35226 3.79016 0
M  V30 3991 O 518.302 7.57904 4.1503 0
M  V30 3992 C 520.575 7.45087 3.67298 0
M  V30 3993 O 521.313 7.27796 4.85194 0
M  V30 3994 C 519.907 6.17323 3.12027 0
M  V30 3995 O 520.705 5.04496 3.46627 0
M  V30 3996 C 518.569 6.19961 3.81809 0
M  V30 3997 N 517.526 5.71575 2.93223 0
M  V30 3998 C 517.695 5.77362 1.59168 0
M  V30 3999 N 516.668 5.3123 0.911893 0
M  V30 4000 C 515.783 4.91717 1.89588 0
M  V30 4001 C 514.516 4.3114 1.8076 0
M  V30 4002 N 513.951 4.06823 3.02898 0
M  V30 4003 C 514.553 4.35062 4.22711 0
M  V30 4004 N 515.73 4.90805 4.35707 0
M  V30 4005 C 516.305 5.16382 3.14469 0
M  V30 4006 H 519.784 6.21428 2.0318 0
M  V30 4007 H 521.267 7.86112 2.9231 0
M  V30 4008 H 519.573 9.11171 4.55987 0
M  V30 4009 H 519.383 9.9573 2.34194 0
M  V30 4010 H 517.753 9.2792 2.67832 0
M  V30 4011 H 518.595 6.16575 1.12198 0
M  V30 4012 H 520.393 4.67628 4.28704 0
M  V30 4013 P 522.251 7.39546 4.75277 0
M  V30 4014 O 523.673 7.81777 5.05738 0
M  V30 4015 O 521.891 7.1065 3.32998 0
M  V30 4016 O 521.928 6.04542 5.56673 0
M  V30 4017 C 521.768 6.22772 7.02095 0
M  V30 4018 C 522.308 4.97725 7.70406 0
M  V30 4019 O 521.252 4.13256 7.58987 0
M  V30 4020 C 523.526 4.28231 7.11815 0
M  V30 4021 O 524.264 3.49945 8.01648 0
M  V30 4022 C 522.857 3.5063 5.96244 0
M  V30 4023 O 523.656 2.36482 5.64681 0
M  V30 4024 C 521.52 3.15122 6.56374 0
M  V30 4025 H 521.552 2.13853 6.99751 0
M  V30 4026 H 522.735 4.13501 5.06559 0
M  V30 4027 H 524.219 5.03285 6.70911 0
M  V30 4028 H 522.525 5.20877 8.75697 0
M  V30 4029 H 522.335 7.11046 7.35349 0
M  V30 4030 H 520.705 6.35815 7.26986 0
M  V30 4031 H 523.344 1.61644 6.13565 0
M  V30 4032 P 525.201 3.65191 7.99657 0
M  V30 4033 O 526.623 3.8425 8.48115 0
M  V30 4034 O 524.841 4.17805 6.64342 0
M  V30 4035 O 524.878 2.07613 7.95143 0
M  V30 4036 C 524.718 1.44328 9.27336 0
M  V30 4037 C 525.258 0.0220036 9.17197 0
M  V30 4038 O 524.202 -0.626867 8.61923 0
M  V30 4039 C 526.476 -0.24586 8.30336 0
M  V30 4040 O 527.214 -1.39011 8.63583 0
M  V30 4041 C 525.807 -0.273849 6.91158 0
M  V30 4042 O 526.606 -1.06348 6.02892 0
M  V30 4043 C 524.47 -0.897649 7.22545 0
M  V30 4044 H 524.502 -1.9841 7.04286 0
M  V30 4045 H 525.685 0.739928 6.497 0
M  V30 4046 H 527.169 0.60668 8.36503 0
M  V30 4047 H 525.475 -0.352479 10.1829 0
M  V30 4048 H 525.285 2.00611 10.0304 0
M  V30 4049 H 523.655 1.41843 9.55327 0
M  V30 4050 H 526.294 -1.95734 6.03555 0
M  V30 4051 P 528.152 -1.25109 8.70152 0
M  V30 4052 O 529.573 -1.35288 9.2132 0
M  V30 4053 O 527.792 -0.0769065 7.84762 0
M  V30 4054 O 527.829 -2.55232 7.81161 0
M  V30 4055 C 527.668 -3.79979 8.58246 0
M  V30 4056 C 528.209 -4.94023 7.72785 0
M  V30 4057 O 527.154 -5.18666 6.91125 0
M  V30 4058 C 529.427 -4.69597 6.85231 0
M  V30 4059 O 530.165 -5.83832 6.51337 0
M  V30 4060 C 528.759 -3.96706 5.66633 0
M  V30 4061 O 529.557 -4.14896 4.5003 0
M  V30 4062 C 527.421 -4.66153 5.59313 0
M  V30 4063 N 526.378 -3.71582 5.24027 0
M  V30 4064 C 526.547 -2.39715 5.48833 0
M  V30 4065 N 525.52 -1.65863 5.12845 0
M  V30 4066 C 524.635 -2.57637 4.5973 0
M  V30 4067 C 523.368 -2.40278 4.01027 0
M  V30 4068 N 522.769 -1.19549 3.86744 0
M  V30 4069 N 522.803 -3.57711 3.59575 0
M  V30 4070 C 523.405 -4.80324 3.70476 0
M  V30 4071 N 524.582 -5.01121 4.23801 0
M  V30 4072 C 525.157 -3.84757 4.66372 0
M  V30 4073 H 527.453 -5.47604 4.85148 0
M  V30 4074 H 528.636 -2.8955 5.86187 0
M  V30 4075 H 530.119 -4.0121 7.36511 0
M  V30 4076 H 528.425 -5.81019 8.37003 0
M  V30 4077 H 528.235 -3.73517 9.52265 0
M  V30 4078 H 526.605 -3.97163 8.80359 0
M  V30 4079 H 522.869 -5.66348 3.3183 0
M  V30 4080 H 527.447 -1.98804 5.94332 0
M  V30 4081 H 521.839 -1.13147 3.4281 0
M  V30 4082 H 523.243 -0.344074 4.19692 0
M  V30 4083 H 529.245 -4.90891 4.01857 0
M  V30 4084 P 531.103 -5.75688 6.64379 0
M  V30 4085 O 532.525 -6.11849 7.01846 0
M  V30 4086 O 530.743 -4.30744 6.56026 0
M  V30 4087 O 530.78 -6.37042 5.19165 0
M  V30 4088 C 530.62 -7.83578 5.16515 0
M  V30 4089 C 531.16 -8.33398 3.83019 0
M  V30 4090 O 530.104 -8.10074 3.01034 0
M  V30 4091 C 532.378 -7.65514 3.2257 0
M  V30 4092 O 533.116 -8.4329 2.32297 0
M  V30 4093 C 531.709 -6.40075 2.62207 0
M  V30 4094 O 532.508 -5.92589 1.53712 0
M  V30 4095 C 530.372 -6.9454 2.18503 0
M  V30 4096 H 530.404 -7.23063 1.12091 0
M  V30 4097 H 531.587 -5.6025 3.37201 0
M  V30 4098 H 533.071 -7.35707 4.02681 0
M  V30 4099 H 531.377 -9.40912 3.9095 0
M  V30 4100 H 531.187 -8.29056 5.99158 0
M  V30 4101 H 529.557 -8.10073 5.25882 0
M  V30 4102 H 532.196 -6.30324 0.726794 0
M  V30 4103 P 534.053 -8.4349 2.47671 0
M  V30 4104 O 535.475 -8.94167 2.5964 0
M  V30 4105 O 533.693 -7.1704 3.19006 0
M  V30 4106 O 533.73 -8.16596 0.923387 0
M  V30 4107 C 533.57 -9.38437 0.108857 0
M  V30 4108 C 534.11 -9.08175 -1.28353 0
M  V30 4109 O 533.054 -8.44229 -1.84713 0
M  V30 4110 C 535.328 -8.18386 -1.42505 0
M  V30 4111 O 536.066 -8.3501 -2.60497 0
M  V30 4112 C 534.659 -6.80225 -1.25468 0
M  V30 4113 O 535.458 -5.81621 -1.91066 0
M  V30 4114 C 533.322 -7.02416 -1.9168 0
M  V30 4115 H 533.354 -6.6888 -2.96621 0
M  V30 4116 H 534.537 -6.53617 -0.192223 0
M  V30 4117 H 536.021 -8.36622 -0.589963 0
M  V30 4118 H 534.327 -10.0291 -1.79807 0
M  V30 4119 H 534.137 -10.2138 0.558219 0
M  V30 4120 H 532.507 -9.6579 0.0444202 0
M  V30 4121 H 535.146 -5.69556 -2.79637 0
M  V30 4122 P 537.004 -8.4349 -2.47671 0
M  V30 4123 O 538.426 -8.92593 -2.65 0
M  V30 4124 O 536.644 -7.7568 -1.19296 0
M  V30 4125 O 536.681 -7.36886 -3.63805 0
M  V30 4126 C 536.521 -7.95349 -4.982 0
M  V30 4127 C 537.061 -6.94612 -5.98974 0
M  V30 4128 O 536.005 -6.10347 -6.11815 0
M  V30 4129 C 538.279 -6.11426 -5.62335 0
M  V30 4130 O 539.017 -5.6162 -6.70584 0
M  V30 4131 C 537.61 -5.04409 -4.73308 0
M  V30 4132 O 538.409 -3.85992 -4.75183 0
M  V30 4133 C 536.273 -4.8728 -5.41006 0
M  V30 4134 H 536.305 -4.02333 -6.11157 0
M  V30 4135 H 537.488 -5.39466 -3.69543 0
M  V30 4136 H 538.972 -6.71916 -5.01943 0
M  V30 4137 H 537.278 -7.4649 -6.93477 0
M  V30 4138 H 537.088 -8.89416 -5.05237 0
M  V30 4139 H 535.458 -8.14876 -5.18409 0
M  V30 4140 H 538.097 -3.27957 -5.4317 0
M  V30 4141 P 539.954 -5.75688 -6.64379 0
M  V30 4142 O 541.376 -6.07627 -7.05504 0
M  V30 4143 O 539.594 -5.88047 -5.19722 0
M  V30 4144 O 539.631 -4.2322 -7.04443 0
M  V30 4145 C 539.471 -3.99743 -8.4911 0
M  V30 4146 C 540.011 -2.60516 -8.79425 0
M  V30 4147 O 538.955 -1.82684 -8.4467 0
M  V30 4148 C 541.229 -2.10343 -8.03628 0
M  V30 4149 O 541.967 -1.09919 -8.67766 0
M  V30 4150 C 540.56 -1.68446 -6.70876 0
M  V30 4151 O 541.359 -0.678137 -6.08433 0
M  V30 4152 C 539.223 -1.17436 -7.18567 0
M  V30 4153 H 539.255 -0.0804732 -7.31656 0
M  V30 4154 H 540.438 -2.54037 -6.02537 0
M  V30 4155 H 541.922 -2.93881 -7.85526 0
M  V30 4156 H 540.228 -2.53065 -9.86973 0
M  V30 4157 H 540.038 -4.75072 -9.05887 0
M  V30 4158 H 538.408 -4.05244 -8.76668 0
M  V30 4159 H 541.047 0.177647 -6.34251 0
M  V30 4160 P 542.905 -1.25109 -8.70152 0
M  V30 4161 O 544.327 -1.29744 -9.22016 0
M  V30 4162 O 542.545 -2.13714 -7.55141 0
M  V30 4163 O 542.582 0.248149 -8.21425 0
M  V30 4164 C 542.422 1.22779 -9.30434 0
M  V30 4165 C 542.962 2.56293 -8.80664 0
M  V30 4166 O 541.906 3.02979 -8.09349 0
M  V30 4167 C 544.18 2.57523 -7.89775 0
M  V30 4168 O 544.918 3.7668 -7.89438 0
M  V30 4169 C 543.511 2.20997 -6.55446 0
M  V30 4170 O 544.31 2.71895 -5.48509 0
M  V30 4171 C 542.174 2.89693 -6.67988 0
M  V30 4172 H 542.206 3.88793 -6.19859 0
M  V30 4173 H 543.389 1.12046 -6.44229 0
M  V30 4174 H 544.873 1.7746 -8.19711 0
M  V30 4175 H 543.179 3.20706 -9.67112 0
M  V30 4176 H 542.989 0.901032 -10.1892 0
M  V30 4177 H 541.359 1.33049 -9.56592 0
M  V30 4178 H 543.998 3.57847 -5.23962 0
M  V30 4179 P 545.855 3.65191 -7.99657 0
M  V30 4180 O 547.277 3.89332 -8.45794 0
M  V30 4181 O 545.495 2.28472 -7.50807 0
M  V30 4182 O 545.532 4.64972 -6.77611 0
M  V30 4183 C 545.372 6.06319 -7.16352 0
M  V30 4184 C 545.912 6.91731 -6.02299 0
M  V30 4185 O 544.856 6.92449 -5.17064 0
M  V30 4186 C 547.13 6.43627 -5.25174 0
M  V30 4187 O 547.868 7.43686 -4.60469 0
M  V30 4188 C 546.461 5.40275 -4.31916 0
M  V30 4189 O 547.26 5.25279 -3.14438 0
M  V30 4190 C 545.124 6.04847 -4.05327 0
M  V30 4191 H 545.156 6.62195 -3.11261 0
M  V30 4192 H 546.339 4.42556 -4.81383 0
M  V30 4193 H 547.823 5.92458 -5.93643 0
M  V30 4194 H 546.129 7.92655 -6.402 0
M  V30 4195 H 545.939 6.26671 -8.0846 0
M  V30 4196 H 544.309 6.29101 -7.32804 0
M  V30 4197 H 546.948 5.84315 -2.47318 0
M  V30 4198 P 548.806 7.39546 -4.75277 0
M  V30 4199 O 550.227 7.84882 -5.01092 0
M  V30 4200 O 548.446 5.9812 -5.08098 0
M  V30 4201 O 548.483 7.57503 -3.1866 0
M  V30 4202 C 548.322 8.97452 -2.74862 0
M  V30 4203 C 548.863 9.07548 -1.32709 0
M  V30 4204 O 547.808 8.61972 -0.606089 0
M  V30 4205 C 550.081 8.25383 -0.938334 0
M  V30 4206 O 550.819 8.74577 0.146954 0
M  V30 4207 C 549.413 6.8802 -0.712559 0
M  V30 4208 O 550.211 6.1181 0.188505 0
M  V30 4209 C 548.075 7.27966 -0.139777 0
M  V30 4210 N 547.032 6.39368 -0.623421 0
M  V30 4211 C 547.201 5.71761 -1.78245 0
M  V30 4212 N 546.174 4.962 -2.10491 0
M  V30 4213 C 545.289 5.16158 -1.0635 0
M  V30 4214 C 544.022 4.60425 -0.810266 0
M  V30 4215 N 543.423 3.7057 -1.62914 0
M  V30 4216 N 543.457 5.06 0.348685 0
M  V30 4217 C 544.059 5.94532 1.20395 0
M  V30 4218 N 545.236 6.48452 1.01191 0
M  V30 4219 C 545.811 6.04423 -0.146291 0
M  V30 4220 H 548.107 7.25255 0.961469 0
M  V30 4221 H 549.29 6.32625 -1.65044 0
M  V30 4222 H 550.773 8.19355 -1.79097 0
M  V30 4223 H 549.079 10.1305 -1.09016 0
M  V30 4224 H 548.889 9.64276 -3.41316 0
M  V30 4225 H 547.259 9.25417 -2.76357 0
M  V30 4226 H 543.523 6.21659 2.10714 0
M  V30 4227 H 548.101 5.79354 -2.38959 0
M  V30 4228 H 542.493 3.33174 -1.38982 0
M  V30 4229 H 543.897 3.39714 -2.48836 0
M  V30 4230 H 549.899 6.25169 1.0783 0
M  V30 4231 P 551.757 8.791 3.52383e-12 0
M  V30 4232 O 553.178 9.31196 0.027936 0
M  V30 4233 O 551.397 7.77869 -1.04071 0
M  V30 4234 O 551.434 8.09533 1.41463 0
M  V30 4235 C 551.273 9.03587 2.5397 0
M  V30 4236 C 551.814 8.35226 3.79016 0
M  V30 4237 O 550.759 7.57904 4.1503 0
M  V30 4238 C 553.032 7.45087 3.67298 0
M  V30 4239 O 553.77 7.27796 4.85194 0
M  V30 4240 C 552.364 6.17323 3.12027 0
M  V30 4241 O 553.162 5.04496 3.46627 0
M  V30 4242 C 551.026 6.19961 3.81809 0
M  V30 4243 N 549.983 5.71575 2.93223 0
M  V30 4244 C 550.152 5.77362 1.59168 0
M  V30 4245 N 549.125 5.3123 0.911893 0
M  V30 4246 C 548.24 4.91717 1.89588 0
M  V30 4247 C 546.973 4.3114 1.8076 0
M  V30 4248 N 546.374 3.99821 0.632928 0
M  V30 4249 N 546.408 4.06823 3.02898 0
M  V30 4250 C 547.01 4.35062 4.22711 0
M  V30 4251 N 548.187 4.90805 4.35707 0
M  V30 4252 C 548.762 5.16382 3.14469 0
M  V30 4253 H 551.058 5.58142 4.72986 0
M  V30 4254 H 552.241 6.21428 2.0318 0
M  V30 4255 H 553.724 7.86112 2.9231 0
M  V30 4256 H 552.03 9.11171 4.55987 0
M  V30 4257 H 551.84 9.9573 2.34194 0
M  V30 4258 H 550.21 9.2792 2.67832 0
M  V30 4259 H 546.474 4.09052 5.13359 0
M  V30 4260 H 551.052 6.16575 1.12198 0
M  V30 4261 H 545.444 3.55423 0.632085 0
M  V30 4262 H 546.848 4.20317 -0.256712 0
M  V30 4263 H 552.85 4.67628 4.28704 0
M  V30 4264 P 554.707 7.39546 4.75277 0
M  V30 4265 O 556.129 7.81777 5.05738 0
M  V30 4266 O 554.347 7.1065 3.32998 0
M  V30 4267 O 554.384 6.04542 5.56673 0
M  V30 4268 C 554.224 6.22772 7.02095 0
M  V30 4269 C 554.764 4.97725 7.70406 0
M  V30 4270 O 553.708 4.13256 7.58987 0
M  V30 4271 C 555.982 4.28231 7.11815 0
M  V30 4272 O 556.72 3.49945 8.01648 0
M  V30 4273 C 555.313 3.5063 5.96244 0
M  V30 4274 O 556.112 2.36482 5.64681 0
M  V30 4275 C 553.976 3.15122 6.56374 0
M  V30 4276 H 554.008 2.13853 6.99751 0
M  V30 4277 H 555.191 4.13501 5.06559 0
M  V30 4278 H 556.675 5.03285 6.70911 0
M  V30 4279 H 554.981 5.20877 8.75697 0
M  V30 4280 H 554.791 7.11046 7.35349 0
M  V30 4281 H 553.161 6.35815 7.26986 0
M  V30 4282 H 555.8 1.61644 6.13565 0
M  V30 4283 P 557.658 3.65191 7.99657 0
M  V30 4284 O 559.059 3.90823 8.51272 0
M  V30 4285 O 557.28 4.23191 6.66972 0
M  V30 4286 O 557.335 2.07587 7.95046 0
M  V30 4287 C 557.175 1.44328 9.27336 0
M  V30 4288 C 557.715 0.0220012 9.17097 0
M  V30 4289 O 556.659 -0.626794 8.61824 0
M  V30 4290 C 558.932 -0.24586 8.30336 0
M  V30 4291 O 559.671 -1.39011 8.63583 0
M  V30 4292 C 558.265 -0.273849 6.91158 0
M  V30 4293 O 559.063 -1.06331 6.02794 0
M  V30 4294 C 556.927 -0.897649 7.22545 0
M  V30 4295 N 555.884 -0.292839 6.41732 0
M  V30 4296 C 554.849 -1.08701 5.98712 0
M  V30 4297 O 554.888 -2.31211 6.24471 0
M  V30 4298 N 553.837 -0.533391 5.28415 0
M  V30 4299 C 553.885 0.770866 4.98576 0
M  V30 4300 C 554.981 1.59049 5.38086 0
M  V30 4301 C 555.947 1.01866 6.10256 0
M  V30 4302 H 556.959 -1.98383 7.04189 0
M  V30 4303 H 558.142 0.733318 6.49674 0
M  V30 4304 H 559.626 0.598386 8.36663 0
M  V30 4305 H 557.932 -0.362662 10.1825 0
M  V30 4306 H 557.741 2.00611 10.0304 0
M  V30 4307 H 556.111 1.41828 9.55228 0
M  V30 4308 H 555.029 2.6415 5.10622 0
M  V30 4309 H 556.793 1.61983 6.44042 0
M  V30 4310 H 558.847 -1.97777 6.14035 0
M  V30 4311 P 560.608 -1.25109 8.70152 0
M  V30 4312 O 562.009 -1.31452 9.27431 0
M  V30 4313 O 560.23 -0.0458113 7.89887 0
M  V30 4314 O 560.285 -2.55201 7.81066 0
M  V30 4315 C 560.125 -3.79939 8.58154 0
M  V30 4316 C 560.665 -4.93969 7.72701 0
M  V30 4317 O 559.609 -5.18666 6.91125 0
M  V30 4318 C 561.882 -4.69597 6.85231 0
M  V30 4319 O 562.621 -5.83832 6.51337 0
M  V30 4320 C 561.215 -3.96706 5.66633 0
M  V30 4321 O 562.013 -4.15346 4.49615 0
M  V30 4322 C 559.877 -4.66153 5.59313 0
M  V30 4323 N 558.834 -3.71582 5.24027 0
M  V30 4324 C 557.799 -4.15133 4.44901 0
M  V30 4325 O 557.838 -5.32122 4.00336 0
M  V30 4326 N 556.787 -3.30554 4.15693 0
M  V30 4327 C 556.835 -2.04701 4.61105 0
M  V30 4328 N 555.825 -1.23621 4.31855 0
M  V30 4329 C 557.931 -1.57111 5.38655 0
M  V30 4330 C 558.897 -2.44234 5.68454 0
M  V30 4331 H 559.909 -5.47604 4.85148 0
M  V30 4332 H 561.092 -2.8955 5.86187 0
M  V30 4333 H 562.576 -4.01995 7.36197 0
M  V30 4334 H 560.882 -5.81019 8.37003 0
M  V30 4335 H 560.691 -3.73517 9.52265 0
M  V30 4336 H 559.061 -3.97122 8.80267 0
M  V30 4337 H 557.979 -0.538464 5.72373 0
M  V30 4338 H 559.743 -2.11927 6.29377 0
M  V30 4339 H 555.035 -1.58199 3.7543 0
M  V30 4340 H 555.83 -0.264601 4.65348 0
M  V30 4341 H 561.797 -4.98352 4.09633 0
M  V30 4342 P 563.559 -5.75688 6.64379 0
M  V30 4343 O 564.98 -6.11915 7.01921 0
M  V30 4344 O 563.199 -4.30744 6.56026 0
M  V30 4345 O 563.236 -6.37042 5.19165 0
M  V30 4346 C 563.075 -7.83662 5.1657 0
M  V30 4347 C 563.616 -8.33398 3.83019 0
M  V30 4348 O 562.561 -8.0998 3.00999 0
M  V30 4349 C 564.834 -7.65514 3.2257 0
M  V30 4350 O 565.572 -8.4329 2.32297 0
M  V30 4351 C 564.166 -6.40075 2.62207 0
M  V30 4352 O 564.964 -5.92338 1.5428 0
M  V30 4353 C 562.828 -6.9454 2.18503 0
M  V30 4354 N 561.785 -5.95905 2.39948 0
M  V30 4355 C 561.954 -4.98383 3.32108 0
M  V30 4356 N 560.927 -4.16798 3.41761 0
M  V30 4357 C 560.042 -4.65287 2.47461 0
M  V30 4358 C 558.775 -4.18946 2.07461 0
M  V30 4359 N 558.21 -4.95327 1.09101 0
M  V30 4360 C 558.812 -6.04369 0.519812 0
M  V30 4361 N 559.989 -6.50694 0.855982 0
M  V30 4362 C 560.564 -5.75818 1.84322 0
M  V30 4363 H 564.043 -5.60502 3.36589 0
M  V30 4364 H 565.526 -7.35707 4.02681 0
M  V30 4365 H 563.832 -9.41302 3.90009 0
M  V30 4366 H 563.642 -8.29056 5.99158 0
M  V30 4367 H 562.012 -8.10073 5.25882 0
M  V30 4368 H 562.854 -4.88564 3.92502 0
M  V30 4369 H 564.652 -6.30224 0.72668 0
M  V30 4370 P 566.509 -8.4349 2.47671 0
M  V30 4371 O 567.93 -8.94263 2.59668 0
M  V30 4372 O 566.149 -7.1704 3.19006 0
M  V30 4373 O 566.186 -8.16596 0.923387 0
M  V30 4374 C 566.025 -9.38537 0.108869 0
M  V30 4375 C 566.566 -9.08175 -1.28353 0
M  V30 4376 O 565.511 -8.44131 -1.84692 0
M  V30 4377 C 567.784 -8.18386 -1.42505 0
M  V30 4378 O 568.522 -8.3501 -2.60497 0
M  V30 4379 C 567.116 -6.80225 -1.25468 0
M  V30 4380 O 567.914 -5.81716 -1.90454 0
M  V30 4381 C 565.778 -7.02416 -1.9168 0
M  V30 4382 N 564.735 -6.31033 -1.20314 0
M  V30 4383 C 564.904 -5.98817 0.0994088 0
M  V30 4384 N 563.877 -5.35403 0.621694 0
M  V30 4385 C 562.992 -5.25212 -0.43376 0
M  V30 4386 C 561.725 -4.64602 -0.519722 0
M  V30 4387 N 561.126 -4.01457 0.519136 0
M  V30 4388 N 561.16 -4.7568 -1.76013 0
M  V30 4389 C 561.762 -5.3653 -2.83017 0
M  V30 4390 N 562.939 -5.93676 -2.79782 0
M  V30 4391 C 563.514 -5.84061 -1.56249 0
M  V30 4392 H 565.81 -6.68789 -2.9658 0
M  V30 4393 H 566.993 -6.53498 -0.198729 0
M  V30 4394 H 568.476 -8.36622 -0.589963 0
M  V30 4395 H 566.782 -10.0273 -1.8081 0
M  V30 4396 H 566.592 -10.2138 0.558219 0
M  V30 4397 H 564.962 -9.6579 0.0444202 0
M  V30 4398 H 561.226 -5.37113 -3.77321 0
M  V30 4399 H 565.804 -6.23209 0.660562 0
M  V30 4400 H 560.196 -3.58834 0.394862 0
M  V30 4401 H 561.6 -3.96059 1.43048 0
M  V30 4402 H 567.602 -5.69466 -2.79593 0
M  V30 4403 P 569.46 -8.4349 -2.47671 0
M  V30 4404 O 570.861 -8.99283 -2.62101 0
M  V30 4405 O 569.082 -7.81195 -1.16947 0
M  V30 4406 O 569.137 -7.36797 -3.63761 0
M  V30 4407 C 568.977 -7.95349 -4.982 0
M  V30 4408 C 569.517 -6.94537 -5.98908 0
M  V30 4409 O 568.461 -6.10277 -6.11744 0
M  V30 4410 C 570.734 -6.11426 -5.62335 0
M  V30 4411 O 571.473 -5.6162 -6.70584 0
M  V30 4412 C 570.067 -5.04409 -4.73308 0
M  V30 4413 O 570.865 -3.85929 -4.75106 0
M  V30 4414 C 568.729 -4.8728 -5.41006 0
M  V30 4415 N 567.686 -4.65812 -4.42377 0
M  V30 4416 C 566.651 -3.81293 -4.74224 0
M  V30 4417 O 566.69 -3.20533 -5.83679 0
M  V30 4418 N 565.639 -3.6442 -3.86349 0
M  V30 4419 C 565.687 -4.2728 -2.6824 0
M  V30 4420 N 564.677 -4.09866 -1.83822 0
M  V30 4421 C 566.783 -5.10813 -2.3217 0
M  V30 4422 C 567.749 -5.27909 -3.22647 0
M  V30 4423 H 568.761 -4.02278 -6.11074 0
M  V30 4424 H 569.944 -5.39013 -3.70026 0
M  V30 4425 H 571.428 -6.71494 -5.02675 0
M  V30 4426 H 569.734 -7.45796 -6.94223 0
M  V30 4427 H 569.543 -8.89416 -5.05237 0
M  V30 4428 H 567.913 -8.14791 -5.18355 0
M  V30 4429 H 566.831 -5.58884 -1.34755 0
M  V30 4430 H 568.595 -5.92811 -2.9934 0
M  V30 4431 H 563.887 -3.49095 -2.10018 0
M  V30 4432 H 564.682 -4.56846 -0.924167 0
M  V30 4433 H 570.649 -3.3454 -5.51577 0
M  V30 4434 P 572.411 -5.75688 -6.64379 0
M  V30 4435 O 573.832 -6.07692 -7.0558 0
M  V30 4436 O 572.051 -5.88047 -5.19722 0
M  V30 4437 O 572.088 -4.2322 -7.04443 0
M  V30 4438 C 571.927 -3.99785 -8.49201 0
M  V30 4439 C 572.468 -2.60516 -8.79425 0
M  V30 4440 O 571.413 -1.82663 -8.44573 0
M  V30 4441 C 573.686 -2.10343 -8.03628 0
M  V30 4442 O 574.424 -1.09919 -8.67766 0
M  V30 4443 C 573.018 -1.68446 -6.70876 0
M  V30 4444 O 573.816 -0.684109 -6.08265 0
M  V30 4445 C 571.68 -1.17436 -7.18567 0
M  V30 4446 N 570.637 -1.52699 -6.23988 0
M  V30 4447 C 570.806 -2.578 -5.40574 0
M  V30 4448 N 569.779 -2.78966 -4.61193 0
M  V30 4449 C 568.894 -1.78725 -4.95769 0
M  V30 4450 C 567.627 -1.45727 -4.44207 0
M  V30 4451 N 567.062 -0.374977 -5.05812 0
M  V30 4452 C 567.664 0.345585 -6.05615 0
M  V30 4453 N 568.841 0.0787651 -6.56253 0
M  V30 4454 C 569.416 -1.00499 -5.96189 0
M  V30 4455 H 572.895 -2.53396 -6.02698 0
M  V30 4456 H 574.378 -2.93881 -7.85526 0
M  V30 4457 H 572.684 -2.52078 -9.87225 0
M  V30 4458 H 572.494 -4.75072 -9.05887 0
M  V30 4459 H 570.864 -4.05244 -8.76668 0
M  V30 4460 H 571.706 -3.18977 -5.3945 0
M  V30 4461 H 573.504 0.177619 -6.34151 0
M  V30 4462 P 575.361 -1.25109 -8.70152 0
M  V30 4463 O 576.783 -1.29744 -9.22016 0
M  V30 4464 O 575.001 -2.13714 -7.55141 0
M  V30 4465 O 575.038 0.248149 -8.21425 0
M  V30 4466 C 574.878 1.22779 -9.30434 0
M  V30 4467 C 575.418 2.56293 -8.80664 0
M  V30 4468 O 574.362 3.02979 -8.09349 0
M  V30 4469 C 576.636 2.57523 -7.89775 0
M  V30 4470 O 577.374 3.7668 -7.89438 0
M  V30 4471 C 575.967 2.20997 -6.55446 0
M  V30 4472 O 576.766 2.71895 -5.48509 0
M  V30 4473 C 574.63 2.89693 -6.67988 0
M  V30 4474 H 574.662 3.88793 -6.19859 0
M  V30 4475 H 575.845 1.12046 -6.44229 0
M  V30 4476 H 577.329 1.7746 -8.19711 0
M  V30 4477 H 575.635 3.20706 -9.67112 0
M  V30 4478 H 575.445 0.901032 -10.1892 0
M  V30 4479 H 573.815 1.33049 -9.56592 0
M  V30 4480 H 576.454 3.57847 -5.23962 0
M  V30 4481 P 578.312 3.65191 -7.99657 0
M  V30 4482 O 579.734 3.89332 -8.45794 0
M  V30 4483 O 577.952 2.28472 -7.50807 0
M  V30 4484 O 577.989 4.64972 -6.77611 0
M  V30 4485 C 577.829 6.06319 -7.16352 0
M  V30 4486 C 578.369 6.91731 -6.02299 0
M  V30 4487 O 577.313 6.92449 -5.17064 0
M  V30 4488 C 579.587 6.43627 -5.25174 0
M  V30 4489 O 580.325 7.43686 -4.60469 0
M  V30 4490 C 578.918 5.40275 -4.31916 0
M  V30 4491 O 579.717 5.25279 -3.14438 0
M  V30 4492 C 577.581 6.04847 -4.05327 0
M  V30 4493 H 577.613 6.62195 -3.11261 0
M  V30 4494 H 578.796 4.42556 -4.81383 0
M  V30 4495 H 580.28 5.92458 -5.93643 0
M  V30 4496 H 578.586 7.92655 -6.402 0
M  V30 4497 H 578.396 6.26671 -8.0846 0
M  V30 4498 H 576.766 6.29101 -7.32804 0
M  V30 4499 H 579.405 5.84315 -2.47318 0
M  V30 4500 P 581.262 7.39546 -4.75277 0
M  V30 4501 O 582.684 7.84798 -5.01039 0
M  V30 4502 O 580.902 5.9812 -5.08098 0
M  V30 4503 O 580.939 7.57503 -3.1866 0
M  V30 4504 C 580.779 8.97357 -2.74833 0
M  V30 4505 C 581.319 9.07548 -1.32709 0
M  V30 4506 O 580.263 8.62072 -0.606159 0
M  V30 4507 C 582.537 8.25383 -0.938334 0
M  V30 4508 O 583.275 8.74577 0.146954 0
M  V30 4509 C 581.868 6.8802 -0.712559 0
M  V30 4510 O 582.667 6.1189 0.194655 0
M  V30 4511 C 580.531 7.27966 -0.139777 0
M  V30 4512 H 580.563 7.25354 0.961601 0
M  V30 4513 H 581.746 6.32557 -1.65702 0
M  V30 4514 H 583.23 8.19355 -1.79097 0
M  V30 4515 H 581.536 10.1294 -1.10029 0
M  V30 4516 H 581.346 9.64276 -3.41316 0
M  V30 4517 H 579.716 9.25417 -2.76357 0
M  V30 4518 H 582.355 6.25267 1.07847 0
M  V30 4519 P 584.213 8.791 3.834e-12 0
M  V30 4520 O 585.635 9.31096 0.027933 0
M  V30 4521 O 583.853 7.77869 -1.04071 0
M  V30 4522 O 583.89 8.09533 1.41463 0
M  V30 4523 C 583.73 9.0349 2.53943 0
M  V30 4524 C 584.27 8.35226 3.79016 0
M  V30 4525 O 583.214 7.57992 4.15078 0
M  V30 4526 C 585.488 7.45087 3.67298 0
M  V30 4527 O 586.226 7.27796 4.85194 0
M  V30 4528 C 584.819 6.17323 3.12027 0
M  V30 4529 O 585.618 5.04231 3.47188 0
M  V30 4530 C 583.482 6.19961 3.81809 0
M  V30 4531 H 583.514 5.58218 4.73051 0
M  V30 4532 H 584.697 6.21726 2.02589 0
M  V30 4533 H 586.181 7.86112 2.9231 0
M  V30 4534 H 584.487 9.11627 4.55076 0
M  V30 4535 H 584.297 9.9573 2.34194 0
M  V30 4536 H 582.667 9.2792 2.67832 0
M  V30 4537 H 585.306 4.67702 4.28772 0
M  V30 4538 P 587.163 7.39546 4.75277 0
M  V30 4539 O 588.564 7.89013 5.04841 0
M  V30 4540 O 586.785 7.16603 3.32298 0
M  V30 4541 O 586.84 6.04468 5.56605 0
M  V30 4542 C 586.68 6.22772 7.02095 0
M  V30 4543 C 587.22 4.97671 7.70322 0
M  V30 4544 O 586.164 4.13208 7.58899 0
M  V30 4545 C 588.437 4.28231 7.11815 0
M  V30 4546 O 589.176 3.49945 8.01648 0
M  V30 4547 C 587.77 3.5063 5.96244 0
M  V30 4548 O 588.568 2.36443 5.64589 0
M  V30 4549 C 586.432 3.15122 6.56374 0
M  V30 4550 N 585.389 3.22311 5.55692 0
M  V30 4551 C 584.354 2.32244 5.62437 0
M  V30 4552 O 584.393 1.43107 6.50341 0
M  V30 4553 N 583.342 2.40811 4.73368 0
M  V30 4554 C 583.39 3.344 3.77753 0
M  V30 4555 N 582.38 3.41475 2.91848 0
M  V30 4556 C 584.486 4.24712 3.66679 0
M  V30 4557 C 585.452 4.15625 4.58307 0
M  V30 4558 H 586.464 2.13823 6.99656 0
M  V30 4559 H 587.647 4.12931 5.06895 0
M  V30 4560 H 589.131 5.02674 6.71494 0
M  V30 4561 H 587.437 5.20001 8.76217 0
M  V30 4562 H 587.246 7.11046 7.35349 0
M  V30 4563 H 585.616 6.35749 7.26911 0
M  V30 4564 H 584.534 4.9828 2.86753 0
M  V30 4565 H 586.298 4.84464 4.54228 0
M  V30 4566 H 581.59 2.75785 2.99862 0
M  V30 4567 H 582.385 4.12304 2.17382 0
M  V30 4568 H 588.352 1.65592 6.23485 0
M  V30 4569 P 590.114 3.65191 7.99657 0
M  V30 4570 O 591.536 3.8425 8.48115 0
M  V30 4571 O 589.754 4.17805 6.64342 0
M  V30 4572 O 589.791 2.07613 7.95143 0
M  V30 4573 C 589.631 1.44328 9.27336 0
M  V30 4574 C 590.171 0.0220036 9.17197 0
M  V30 4575 O 589.115 -0.626867 8.61923 0
M  V30 4576 C 591.389 -0.24586 8.30336 0
M  V30 4577 O 592.127 -1.39011 8.63583 0
M  V30 4578 C 590.72 -0.273849 6.91158 0
M  V30 4579 O 591.519 -1.06348 6.02892 0
M  V30 4580 C 589.383 -0.897649 7.22545 0
M  V30 4581 H 589.415 -1.9841 7.04286 0
M  V30 4582 H 590.598 0.739928 6.497 0
M  V30 4583 H 592.082 0.60668 8.36503 0
M  V30 4584 H 590.388 -0.352479 10.1829 0
M  V30 4585 H 590.198 2.00611 10.0304 0
M  V30 4586 H 588.568 1.41843 9.55327 0
M  V30 4587 H 591.207 -1.95734 6.03555 0
M  V30 4588 P 593.065 -1.25109 8.70152 0
M  V30 4589 O 594.466 -1.31452 9.27431 0
M  V30 4590 O 592.687 -0.0458113 7.89887 0
M  V30 4591 O 592.742 -2.55201 7.81066 0
M  V30 4592 C 592.582 -3.79939 8.58154 0
M  V30 4593 C 593.122 -4.93969 7.72701 0
M  V30 4594 O 592.066 -5.18666 6.91125 0
M  V30 4595 C 594.339 -4.69597 6.85231 0
M  V30 4596 O 595.078 -5.83832 6.51337 0
M  V30 4597 C 593.672 -3.96706 5.66633 0
M  V30 4598 O 594.47 -4.15346 4.49615 0
M  V30 4599 C 592.334 -4.66153 5.59313 0
M  V30 4600 N 591.291 -3.71582 5.24027 0
M  V30 4601 C 590.256 -4.15133 4.44901 0
M  V30 4602 O 590.295 -5.32122 4.00336 0
M  V30 4603 N 589.244 -3.30554 4.15693 0
M  V30 4604 C 589.292 -2.04701 4.61105 0
M  V30 4605 C 590.388 -1.57111 5.38655 0
M  V30 4606 C 591.354 -2.44234 5.68454 0
M  V30 4607 H 592.366 -5.47604 4.85148 0
M  V30 4608 H 593.549 -2.8955 5.86187 0
M  V30 4609 H 595.033 -4.01995 7.36197 0
M  V30 4610 H 593.339 -5.81019 8.37003 0
M  V30 4611 H 593.148 -3.73517 9.52265 0
M  V30 4612 H 591.518 -3.97122 8.80267 0
M  V30 4613 H 590.436 -0.538464 5.72373 0
M  V30 4614 H 592.2 -2.11927 6.29377 0
M  V30 4615 H 594.254 -4.98352 4.09633 0
M  V30 4616 P 596.015 -5.75688 6.64379 0
M  V30 4617 O 597.437 -6.11981 7.01997 0
M  V30 4618 O 595.655 -4.30744 6.56026 0
M  V30 4619 O 595.692 -6.37042 5.19165 0
M  V30 4620 C 595.532 -7.83578 5.16515 0
M  V30 4621 C 596.072 -8.33307 3.82977 0
M  V30 4622 O 595.017 -8.10074 3.01034 0
M  V30 4623 C 597.29 -7.65514 3.2257 0
M  V30 4624 O 598.028 -8.4329 2.32297 0
M  V30 4625 C 596.622 -6.40075 2.62207 0
M  V30 4626 O 597.42 -5.92492 1.53687 0
M  V30 4627 C 595.284 -6.9454 2.18503 0
M  V30 4628 N 594.241 -5.95905 2.39948 0
M  V30 4629 C 594.303 -5.13994 3.44742 0
M  V30 4630 N 593.258 -4.30684 3.46712 0
M  V30 4631 C 592.524 -4.65583 2.41086 0
M  V30 4632 C 591.218 -4.20877 1.99581 0
M  V30 4633 O 590.485 -3.35913 2.52616 0
M  V30 4634 N 590.788 -4.83271 0.873406 0
M  V30 4635 C 591.537 -5.82006 0.185129 0
M  V30 4636 N 590.94 -6.30619 -0.95439 0
M  V30 4637 N 592.69 -6.28443 0.578524 0
M  V30 4638 C 593.147 -5.68486 1.70138 0
M  V30 4639 H 595.316 -7.23063 1.12091 0
M  V30 4640 H 596.499 -5.60165 3.3715 0
M  V30 4641 H 597.984 -7.3611 4.01946 0
M  V30 4642 H 596.289 -9.40912 3.9095 0
M  V30 4643 H 596.099 -8.29056 5.99158 0
M  V30 4644 H 594.468 -8.10073 5.25882 0
M  V30 4645 H 589.892 -4.58323 0.505262 0
M  V30 4646 H 595.099 -5.14564 4.1935 0
M  V30 4647 H 590.029 -5.93402 -1.25364 0
M  V30 4648 H 591.405 -7.0425 -1.50254 0
M  V30 4649 H 597.109 -6.30224 0.72668 0
M  V30 4650 P 598.966 -8.4349 2.47671 0
M  V30 4651 O 600.388 -8.94359 2.59696 0
M  V30 4652 O 598.606 -7.1704 3.19006 0
M  V30 4653 O 598.643 -8.16596 0.923387 0
M  V30 4654 C 598.483 -9.38437 0.108857 0
M  V30 4655 C 599.023 -9.08076 -1.28339 0
M  V30 4656 O 597.968 -8.44229 -1.84713 0
M  V30 4657 C 600.241 -8.18386 -1.42505 0
M  V30 4658 O 600.979 -8.3501 -2.60497 0
M  V30 4659 C 599.573 -6.80225 -1.25468 0
M  V30 4660 O 600.371 -5.81526 -1.91035 0
M  V30 4661 C 598.235 -7.02416 -1.9168 0
M  V30 4662 N 597.192 -6.31033 -1.20314 0
M  V30 4663 C 597.254 -6.18781 0.121293 0
M  V30 4664 N 596.209 -5.49762 0.588272 0
M  V30 4665 C 595.475 -5.22015 -0.488988 0
M  V30 4666 C 594.169 -4.61966 -0.596448 0
M  V30 4667 O 593.436 -4.19162 0.309059 0
M  V30 4668 N 593.739 -4.53773 -1.878 0
M  V30 4669 C 594.488 -4.99623 -2.99082 0
M  V30 4670 N 593.891 -4.78912 -4.21227 0
M  V30 4671 N 595.641 -5.59957 -2.91093 0
M  V30 4672 C 596.098 -5.70225 -1.64218 0
M  V30 4673 H 598.267 -6.6888 -2.96621 0
M  V30 4674 H 599.45 -6.53517 -0.192194 0
M  V30 4675 H 600.935 -8.36563 -0.598329 0
M  V30 4676 H 599.24 -10.0291 -1.79807 0
M  V30 4677 H 599.05 -10.2138 0.558219 0
M  V30 4678 H 597.419 -9.6579 0.0444202 0
M  V30 4679 H 592.843 -4.12883 -2.05283 0
M  V30 4680 H 598.05 -6.59596 0.745856 0
M  V30 4681 H 592.98 -4.31425 -4.2628 0
M  V30 4682 H 594.356 -5.11219 -5.07148 0
M  V30 4683 H 600.06 -5.69466 -2.79593 0
M  V30 4684 P 601.916 -8.4349 -2.47671 0
M  V30 4685 O 603.337 -8.92689 -2.65029 0
M  V30 4686 O 601.556 -7.7568 -1.19296 0
M  V30 4687 O 601.593 -7.36886 -3.63805 0
M  V30 4688 C 601.432 -7.95433 -4.98253 0
M  V30 4689 C 601.973 -6.94612 -5.98974 0
M  V30 4690 O 600.918 -6.10277 -6.11744 0
M  V30 4691 C 603.191 -6.11426 -5.62335 0
M  V30 4692 O 603.929 -5.6162 -6.70584 0
M  V30 4693 C 602.523 -5.04409 -4.73308 0
M  V30 4694 O 603.321 -3.86404 -4.74719 0
M  V30 4695 C 601.185 -4.8728 -5.41006 0
M  V30 4696 N 600.142 -4.65812 -4.42377 0
M  V30 4697 C 600.311 -5.09132 -3.15382 0
M  V30 4698 N 599.284 -4.84021 -2.3716 0
M  V30 4699 C 598.399 -4.18386 -3.20441 0
M  V30 4700 C 597.132 -3.6275 -2.94905 0
M  V30 4701 N 596.533 -3.65794 -1.73372 0
M  V30 4702 N 596.567 -3.05008 -4.05243 0
M  V30 4703 C 597.169 -2.98348 -5.28159 0
M  V30 4704 N 598.346 -3.48171 -5.56333 0
M  V30 4705 C 598.921 -4.06869 -4.47212 0
M  V30 4706 H 601.217 -4.02278 -6.11074 0
M  V30 4707 H 602.4 -5.39013 -3.70026 0
M  V30 4708 H 603.883 -6.71916 -5.01943 0
M  V30 4709 H 602.189 -7.45796 -6.94223 0
M  V30 4710 H 601.999 -8.89416 -5.05237 0
M  V30 4711 H 600.369 -8.14876 -5.18409 0
M  V30 4712 H 596.633 -2.47853 -6.07807 0
M  V30 4713 H 601.211 -5.59989 -2.81362 0
M  V30 4714 H 595.603 -3.23218 -1.60782 0
M  V30 4715 H 597.007 -4.10523 -0.937856 0
M  V30 4716 H 603.009 -3.27906 -5.43085 0
M  V30 4717 P 604.867 -5.75688 -6.64379 0
M  V30 4718 O 606.289 -6.07627 -7.05504 0
M  V30 4719 O 604.507 -5.88047 -5.19722 0
M  V30 4720 O 604.544 -4.2322 -7.04443 0
M  V30 4721 C 604.384 -3.99743 -8.4911 0
M  V30 4722 C 604.924 -2.60516 -8.79425 0
M  V30 4723 O 603.868 -1.82684 -8.4467 0
M  V30 4724 C 606.142 -2.10343 -8.03628 0
M  V30 4725 O 606.88 -1.09919 -8.67766 0
M  V30 4726 C 605.473 -1.68446 -6.70876 0
M  V30 4727 O 606.272 -0.678137 -6.08433 0
M  V30 4728 C 604.136 -1.17436 -7.18567 0
M  V30 4729 H 604.168 -0.0804732 -7.31656 0
M  V30 4730 H 605.351 -2.54037 -6.02537 0
M  V30 4731 H 606.835 -2.93881 -7.85526 0
M  V30 4732 H 605.141 -2.53065 -9.86973 0
M  V30 4733 H 604.951 -4.75072 -9.05887 0
M  V30 4734 H 603.321 -4.05244 -8.76668 0
M  V30 4735 H 605.96 0.177647 -6.34251 0
M  V30 4736 P 607.817 -1.25109 -8.70152 0
M  V30 4737 O 609.239 -1.29744 -9.22016 0
M  V30 4738 O 607.457 -2.13714 -7.55141 0
M  V30 4739 O 607.494 0.248149 -8.21425 0
M  V30 4740 C 607.334 1.22779 -9.30434 0
M  V30 4741 C 607.874 2.56293 -8.80664 0
M  V30 4742 O 606.818 3.02979 -8.09349 0
M  V30 4743 C 609.092 2.57523 -7.89775 0
M  V30 4744 O 609.83 3.7668 -7.89438 0
M  V30 4745 C 608.423 2.20997 -6.55446 0
M  V30 4746 O 609.222 2.71895 -5.48509 0
M  V30 4747 C 607.086 2.89693 -6.67988 0
M  V30 4748 H 607.118 3.88793 -6.19859 0
M  V30 4749 H 608.301 1.12046 -6.44229 0
M  V30 4750 H 609.785 1.7746 -8.19711 0
M  V30 4751 H 608.091 3.20706 -9.67112 0
M  V30 4752 H 607.901 0.901032 -10.1892 0
M  V30 4753 H 606.271 1.33049 -9.56592 0
M  V30 4754 H 608.91 3.57847 -5.23962 0
M  V30 4755 P 610.768 3.65191 -7.99657 0
M  V30 4756 O 612.19 3.89416 -8.45976 0
M  V30 4757 O 610.408 2.28472 -7.50807 0
M  V30 4758 O 610.445 4.64972 -6.77611 0
M  V30 4759 C 610.285 6.06319 -7.16352 0
M  V30 4760 C 610.825 6.91655 -6.02234 0
M  V30 4761 O 609.77 6.92449 -5.17064 0
M  V30 4762 C 612.043 6.43627 -5.25174 0
M  V30 4763 O 612.781 7.43686 -4.60469 0
M  V30 4764 C 611.375 5.40275 -4.31916 0
M  V30 4765 O 612.173 5.25193 -3.14386 0
M  V30 4766 C 610.037 6.04847 -4.05327 0
M  V30 4767 N 608.994 5.04166 -3.98114 0
M  V30 4768 C 609.056 3.96049 -4.75587 0
M  V30 4769 N 608.011 3.15559 -4.54006 0
M  V30 4770 C 607.277 3.78802 -3.62491 0
M  V30 4771 C 605.971 3.476 -3.10071 0
M  V30 4772 O 605.238 2.51136 -3.37021 0
M  V30 4773 N 605.541 4.39088 -2.19956 0
M  V30 4774 C 606.29 5.53215 -1.81733 0
M  V30 4775 N 605.693 6.31963 -0.860928 0
M  V30 4776 N 607.443 5.86688 -2.32562 0
M  V30 4777 C 607.9 4.97525 -3.23407 0
M  V30 4778 H 610.069 6.62195 -3.11261 0
M  V30 4779 H 611.252 4.42488 -4.8131 0
M  V30 4780 H 612.737 5.93051 -5.9305 0
M  V30 4781 H 611.042 7.92655 -6.402 0
M  V30 4782 H 610.852 6.26671 -8.0846 0
M  V30 4783 H 609.221 6.29101 -7.32804 0
M  V30 4784 H 604.645 4.25523 -1.77604 0
M  V30 4785 H 609.852 3.75576 -5.47333 0
M  V30 4786 H 604.782 6.04684 -0.468946 0
M  V30 4787 H 606.158 7.18054 -0.542422 0
M  V30 4788 H 611.862 5.84223 -2.47279 0
M  V30 4789 P 613.719 7.39546 -4.75277 0
M  V30 4790 O 615.141 7.84798 -5.01039 0
M  V30 4791 O 613.359 5.9812 -5.08098 0
M  V30 4792 O 613.396 7.57503 -3.1866 0
M  V30 4793 C 613.236 8.97357 -2.74833 0
M  V30 4794 C 613.776 9.07548 -1.32709 0
M  V30 4795 O 612.72 8.62072 -0.606159 0
M  V30 4796 C 614.994 8.25383 -0.938334 0
M  V30 4797 O 615.732 8.74577 0.146954 0
M  V30 4798 C 614.325 6.8802 -0.712559 0
M  V30 4799 O 615.124 6.1189 0.194655 0
M  V30 4800 C 612.988 7.27966 -0.139777 0
M  V30 4801 H 613.02 7.25354 0.961601 0
M  V30 4802 H 614.203 6.32557 -1.65702 0
M  V30 4803 H 615.687 8.19355 -1.79097 0
M  V30 4804 H 613.993 10.1294 -1.10029 0
M  V30 4805 H 613.803 9.64276 -3.41316 0
M  V30 4806 H 612.173 9.25417 -2.76357 0
M  V30 4807 H 614.812 6.25267 1.07847 0
M  V30 4808 P 616.669 8.791 4.14417e-12 0
M  V30 4809 O 618.091 9.31096 0.027933 0
M  V30 4810 O 616.309 7.77869 -1.04071 0
M  V30 4811 O 616.346 8.09533 1.41463 0
M  V30 4812 C 616.186 9.0349 2.53943 0
M  V30 4813 C 616.726 8.35226 3.79016 0
M  V30 4814 O 615.67 7.57992 4.15078 0
M  V30 4815 C 617.944 7.45087 3.67298 0
M  V30 4816 O 618.682 7.27796 4.85194 0
M  V30 4817 C 617.275 6.17323 3.12027 0
M  V30 4818 O 618.074 5.04231 3.47188 0
M  V30 4819 C 615.938 6.19961 3.81809 0
M  V30 4820 H 615.97 5.58218 4.73051 0
M  V30 4821 H 617.153 6.21726 2.02589 0
M  V30 4822 H 618.637 7.86112 2.9231 0
M  V30 4823 H 616.943 9.11627 4.55076 0
M  V30 4824 H 616.753 9.9573 2.34194 0
M  V30 4825 H 615.123 9.2792 2.67832 0
M  V30 4826 H 617.762 4.67702 4.28772 0
M  V30 4827 P 619.62 7.39546 4.75277 0
M  V30 4828 O 621.042 7.81777 5.05738 0
M  V30 4829 O 619.26 7.1065 3.32998 0
M  V30 4830 O 619.297 6.04542 5.56673 0
M  V30 4831 C 619.137 6.22772 7.02095 0
M  V30 4832 C 619.677 4.97725 7.70406 0
M  V30 4833 O 618.621 4.13256 7.58987 0
M  V30 4834 C 620.895 4.28231 7.11815 0
M  V30 4835 O 621.633 3.49945 8.01648 0
M  V30 4836 C 620.226 3.5063 5.96244 0
M  V30 4837 O 621.025 2.36482 5.64681 0
M  V30 4838 C 618.889 3.15122 6.56374 0
M  V30 4839 H 618.921 2.13853 6.99751 0
M  V30 4840 H 620.104 4.13501 5.06559 0
M  V30 4841 H 621.588 5.03285 6.70911 0
M  V30 4842 H 619.894 5.20877 8.75697 0
M  V30 4843 H 619.704 7.11046 7.35349 0
M  V30 4844 H 618.074 6.35815 7.26986 0
M  V30 4845 H 620.713 1.61644 6.13565 0
M  V30 4846 P 622.57 3.65191 7.99657 0
M  V30 4847 O 623.991 3.84292 8.48206 0
M  V30 4848 O 622.21 4.17805 6.64342 0
M  V30 4849 O 622.247 2.07613 7.95143 0
M  V30 4850 C 622.086 1.44344 9.27435 0
M  V30 4851 C 622.627 0.0220036 9.17197 0
M  V30 4852 O 621.572 -0.626794 8.61824 0
M  V30 4853 C 623.845 -0.24586 8.30336 0
M  V30 4854 O 624.583 -1.39011 8.63583 0
M  V30 4855 C 623.177 -0.273849 6.91158 0
M  V30 4856 O 623.975 -1.05728 6.029 0
M  V30 4857 C 621.839 -0.897649 7.22545 0
M  V30 4858 N 620.796 -0.292839 6.41732 0
M  V30 4859 C 620.965 0.950603 5.91308 0
M  V30 4860 N 619.938 1.37732 5.21105 0
M  V30 4861 C 619.053 0.318109 5.26039 0
M  V30 4862 C 617.786 0.146766 4.6727 0
M  V30 4863 N 617.221 -1.06525 4.95887 0
M  V30 4864 C 617.823 -2.0378 5.71347 0
M  V30 4865 N 619 -1.92445 6.27451 0
M  V30 4866 C 619.575 -0.715382 6.00353 0
M  V30 4867 H 623.054 0.733318 6.49674 0
M  V30 4868 H 624.537 0.60668 8.36503 0
M  V30 4869 H 622.843 -0.362662 10.1825 0
M  V30 4870 H 622.653 2.00611 10.0304 0
M  V30 4871 H 621.023 1.41843 9.55327 0
M  V30 4872 H 621.865 1.54076 6.07465 0
M  V30 4873 H 623.663 -1.95704 6.0346 0
M  V30 4874 P 625.521 -1.25109 8.70152 0
M  V30 4875 O 626.943 -1.35274 9.21221 0
M  V30 4876 O 625.161 -0.0769065 7.84762 0
M  V30 4877 O 625.198 -2.55232 7.81161 0
M  V30 4878 C 625.038 -3.79939 8.58154 0
M  V30 4879 C 625.578 -4.94023 7.72785 0
M  V30 4880 O 624.522 -5.18726 6.91205 0
M  V30 4881 C 626.796 -4.69597 6.85231 0
M  V30 4882 O 627.534 -5.83832 6.51337 0
M  V30 4883 C 626.127 -3.96706 5.66633 0
M  V30 4884 O 626.926 -4.15414 4.49689 0
M  V30 4885 C 624.79 -4.66153 5.59313 0
M  V30 4886 H 624.822 -5.47679 4.85214 0
M  V30 4887 H 626.005 -2.89008 5.86566 0
M  V30 4888 H 627.489 -4.0121 7.36511 0
M  V30 4889 H 625.795 -5.80182 8.37584 0
M  V30 4890 H 625.605 -3.73517 9.52265 0
M  V30 4891 H 623.975 -3.97163 8.80359 0
M  V30 4892 H 626.614 -4.90969 4.01921 0
M  V30 4893 P 628.471 -5.75688 6.64379 0
M  V30 4894 O 629.893 -6.11849 7.01846 0
M  V30 4895 O 628.111 -4.30744 6.56026 0
M  V30 4896 O 628.148 -6.37042 5.19165 0
M  V30 4897 C 627.988 -7.83578 5.16515 0
M  V30 4898 C 628.528 -8.33398 3.83019 0
M  V30 4899 O 627.472 -8.10074 3.01034 0
M  V30 4900 C 629.746 -7.65514 3.2257 0
M  V30 4901 O 630.484 -8.4329 2.32297 0
M  V30 4902 C 629.077 -6.40075 2.62207 0
M  V30 4903 O 629.876 -5.92589 1.53712 0
M  V30 4904 C 627.74 -6.9454 2.18503 0
M  V30 4905 H 627.772 -7.23063 1.12091 0
M  V30 4906 H 628.955 -5.6025 3.37201 0
M  V30 4907 H 630.439 -7.35707 4.02681 0
M  V30 4908 H 628.745 -9.40912 3.9095 0
M  V30 4909 H 628.555 -8.29056 5.99158 0
M  V30 4910 H 626.925 -8.10073 5.25882 0
M  V30 4911 H 629.564 -6.30324 0.726794 0
M  V30 4912 P 631.422 -8.4349 2.47671 0
M  V30 4913 O 632.844 -8.94167 2.5964 0
M  V30 4914 O 631.062 -7.1704 3.19006 0
M  V30 4915 O 631.099 -8.16596 0.923387 0
M  V30 4916 C 630.939 -9.38437 0.108857 0
M  V30 4917 C 631.479 -9.08175 -1.28353 0
M  V30 4918 O 630.423 -8.44229 -1.84713 0
M  V30 4919 C 632.697 -8.18386 -1.42505 0
M  V30 4920 O 633.435 -8.3501 -2.60497 0
M  V30 4921 C 632.028 -6.80225 -1.25468 0
M  V30 4922 O 632.827 -5.81621 -1.91066 0
M  V30 4923 C 630.691 -7.02416 -1.9168 0
M  V30 4924 H 630.723 -6.6888 -2.96621 0
M  V30 4925 H 631.906 -6.53617 -0.192223 0
M  V30 4926 H 633.39 -8.36622 -0.589963 0
M  V30 4927 H 631.696 -10.0291 -1.79807 0
M  V30 4928 H 631.506 -10.2138 0.558219 0
M  V30 4929 H 629.876 -9.6579 0.0444202 0
M  V30 4930 H 632.515 -5.69556 -2.79637 0
M  V30 4931 P 634.373 -8.4349 -2.47671 0
M  V30 4932 O 635.794 -8.92689 -2.65029 0
M  V30 4933 O 634.013 -7.7568 -1.19296 0
M  V30 4934 O 634.05 -7.36886 -3.63805 0
M  V30 4935 C 633.889 -7.95433 -4.98253 0
M  V30 4936 C 634.43 -6.94612 -5.98974 0
M  V30 4937 O 633.375 -6.10277 -6.11744 0
M  V30 4938 C 635.648 -6.11426 -5.62335 0
M  V30 4939 O 636.386 -5.6162 -6.70584 0
M  V30 4940 C 634.98 -5.04409 -4.73308 0
M  V30 4941 O 635.778 -3.86404 -4.74719 0
M  V30 4942 C 633.642 -4.8728 -5.41006 0
M  V30 4943 N 632.599 -4.65812 -4.42377 0
M  V30 4944 C 632.768 -5.09132 -3.15382 0
M  V30 4945 N 631.741 -4.84021 -2.3716 0
M  V30 4946 C 630.856 -4.18386 -3.20441 0
M  V30 4947 C 629.589 -3.6275 -2.94905 0
M  V30 4948 N 629.024 -3.05008 -4.05243 0
M  V30 4949 C 629.626 -2.98348 -5.28159 0
M  V30 4950 N 630.803 -3.48171 -5.56333 0
M  V30 4951 C 631.378 -4.06869 -4.47212 0
M  V30 4952 H 634.857 -5.39013 -3.70026 0
M  V30 4953 H 636.34 -6.71916 -5.01943 0
M  V30 4954 H 634.646 -7.45796 -6.94223 0
M  V30 4955 H 634.456 -8.89416 -5.05237 0
M  V30 4956 H 632.826 -8.14876 -5.18409 0
M  V30 4957 H 633.668 -5.59989 -2.81362 0
M  V30 4958 H 635.466 -3.27906 -5.43085 0
M  V30 4959 P 637.323 -5.75688 -6.64379 0
M  V30 4960 O 638.745 -6.07758 -7.05656 0
M  V30 4961 O 636.963 -5.88047 -5.19722 0
M  V30 4962 O 637 -4.2322 -7.04443 0
M  V30 4963 C 636.84 -3.99743 -8.4911 0
M  V30 4964 C 637.38 -2.60487 -8.79329 0
M  V30 4965 O 636.325 -1.82684 -8.4467 0
M  V30 4966 C 638.598 -2.10343 -8.03628 0
M  V30 4967 O 639.336 -1.09919 -8.67766 0
M  V30 4968 C 637.93 -1.68446 -6.70876 0
M  V30 4969 O 638.728 -0.678026 -6.08333 0
M  V30 4970 C 636.592 -1.17436 -7.18567 0
M  V30 4971 N 635.549 -1.52699 -6.23988 0
M  V30 4972 C 635.611 -2.68084 -5.57824 0
M  V30 4973 N 634.566 -2.8189 -4.75643 0
M  V30 4974 C 633.832 -1.72373 -4.95155 0
M  V30 4975 C 632.526 -1.37653 -4.44996 0
M  V30 4976 O 631.793 -2.02239 -3.68445 0
M  V30 4977 N 632.096 -0.17675 -4.90782 0
M  V30 4978 C 632.845 0.645036 -5.78716 0
M  V30 4979 N 632.248 1.84214 -6.10618 0
M  V30 4980 N 633.998 0.321732 -6.30279 0
M  V30 4981 C 634.455 -0.87502 -5.86913 0
M  V30 4982 H 636.624 -0.0804732 -7.31656 0
M  V30 4983 H 637.807 -2.53998 -6.02444 0
M  V30 4984 H 639.292 -2.93095 -7.8582 0
M  V30 4985 H 637.597 -2.53065 -9.86973 0
M  V30 4986 H 637.407 -4.75072 -9.05887 0
M  V30 4987 H 635.776 -4.05244 -8.76668 0
M  V30 4988 H 631.2 0.152143 -4.60849 0
M  V30 4989 H 636.407 -3.41852 -5.69006 0
M  V30 4990 H 631.337 2.08538 -5.69521 0
M  V30 4991 H 632.713 2.4895 -6.75698 0
M  V30 4992 H 638.417 0.177619 -6.34151 0
M  V30 4993 P 640.274 -1.25109 -8.70152 0
M  V30 4994 O 641.696 -1.29744 -9.22016 0
M  V30 4995 O 639.914 -2.13714 -7.55141 0
M  V30 4996 O 639.951 0.248149 -8.21425 0
M  V30 4997 C 639.791 1.22779 -9.30434 0
M  V30 4998 C 640.331 2.56293 -8.80664 0
M  V30 4999 O 639.275 3.02979 -8.09349 0
M  V30 5000 C 641.549 2.57523 -7.89775 0
M  V30 5001 O 642.287 3.7668 -7.89438 0
M  V30 5002 C 640.88 2.20997 -6.55446 0
M  V30 5003 O 641.679 2.71895 -5.48509 0
M  V30 5004 C 639.543 2.89693 -6.67988 0
M  V30 5005 H 639.575 3.88793 -6.19859 0
M  V30 5006 H 640.758 1.12046 -6.44229 0
M  V30 5007 H 642.242 1.7746 -8.19711 0
M  V30 5008 H 640.548 3.20706 -9.67112 0
M  V30 5009 H 640.358 0.901032 -10.1892 0
M  V30 5010 H 638.728 1.33049 -9.56592 0
M  V30 5011 H 641.367 3.57847 -5.23962 0
M  V30 5012 P 643.224 3.65191 -7.99657 0
M  V30 5013 O 644.646 3.89332 -8.45794 0
M  V30 5014 O 642.864 2.28472 -7.50807 0
M  V30 5015 O 642.901 4.64972 -6.77611 0
M  V30 5016 C 642.741 6.06319 -7.16352 0
M  V30 5017 C 643.281 6.91731 -6.02299 0
M  V30 5018 O 642.225 6.92449 -5.17064 0
M  V30 5019 C 644.499 6.43627 -5.25174 0
M  V30 5020 O 645.237 7.43686 -4.60469 0
M  V30 5021 C 643.83 5.40275 -4.31916 0
M  V30 5022 O 644.629 5.25279 -3.14438 0
M  V30 5023 C 642.493 6.04847 -4.05327 0
M  V30 5024 H 642.525 6.62195 -3.11261 0
M  V30 5025 H 643.708 4.42556 -4.81383 0
M  V30 5026 H 645.192 5.92458 -5.93643 0
M  V30 5027 H 643.498 7.92655 -6.402 0
M  V30 5028 H 643.308 6.26671 -8.0846 0
M  V30 5029 H 641.678 6.29101 -7.32804 0
M  V30 5030 H 644.317 5.84315 -2.47318 0
M  V30 5031 P 646.175 7.39546 -4.75277 0
M  V30 5032 O 647.597 7.84798 -5.01039 0
M  V30 5033 O 645.815 5.9812 -5.08098 0
M  V30 5034 O 645.852 7.57503 -3.1866 0
M  V30 5035 C 645.692 8.97357 -2.74833 0
M  V30 5036 C 646.232 9.07548 -1.32709 0
M  V30 5037 O 645.176 8.62072 -0.606159 0
M  V30 5038 C 647.45 8.25383 -0.938334 0
M  V30 5039 O 648.188 8.74577 0.146954 0
M  V30 5040 C 646.781 6.8802 -0.712559 0
M  V30 5041 O 647.58 6.1189 0.194655 0
M  V30 5042 C 645.444 7.27966 -0.139777 0
M  V30 5043 H 645.476 7.25354 0.961601 0
M  V30 5044 H 646.659 6.32557 -1.65702 0
M  V30 5045 H 648.143 8.19355 -1.79097 0
M  V30 5046 H 646.449 10.1294 -1.10029 0
M  V30 5047 H 646.259 9.64276 -3.41316 0
M  V30 5048 H 644.629 9.25417 -2.76357 0
M  V30 5049 H 647.268 6.25267 1.07847 0
M  V30 5050 P 649.125 8.791 4.45433e-12 0
M  V30 5051 O 650.526 9.36698 -0.018734 0
M  V30 5052 O 648.747 7.82499 -1.07878 0
M  V30 5053 O 648.802 8.09434 1.41446 0
M  V30 5054 C 648.642 9.0349 2.53943 0
M  V30 5055 C 649.182 8.35135 3.78975 0
M  V30 5056 O 648.126 7.57904 4.1503 0
M  V30 5057 C 650.399 7.45087 3.67298 0
M  V30 5058 O 651.138 7.27796 4.85194 0
M  V30 5059 C 649.732 6.17323 3.12027 0
M  V30 5060 O 650.53 5.04149 3.47132 0
M  V30 5061 C 648.394 6.19961 3.81809 0
M  V30 5062 N 647.351 5.71575 2.93223 0
M  V30 5063 C 646.316 4.99452 3.47592 0
M  V30 5064 O 646.355 4.7199 4.69732 0
M  V30 5065 N 645.304 4.58505 2.6803 0
M  V30 5066 C 645.352 4.85544 1.36995 0
M  V30 5067 N 644.342 4.45052 0.609031 0
M  V30 5068 C 646.448 5.55532 0.788532 0
M  V30 5069 C 647.414 5.97426 1.60849 0
M  V30 5070 H 648.426 5.58142 4.72986 0
M  V30 5071 H 649.609 6.21428 2.0318 0
M  V30 5072 H 651.093 7.85913 2.93131 0
M  V30 5073 H 649.399 9.11171 4.55987 0
M  V30 5074 H 649.208 9.9573 2.34194 0
M  V30 5075 H 647.578 9.27824 2.67805 0
M  V30 5076 H 646.496 5.7421 -0.281588 0
M  V30 5077 H 648.26 6.53132 1.202 0
M  V30 5078 H 643.552 3.94123 1.03159 0
M  V30 5079 H 644.347 4.64377 -0.400352 0
M  V30 5080 H 650.314 4.76386 4.34983 0
M  V30 5081 P 652.076 7.39546 4.75277 0
M  V30 5082 O 653.498 7.81777 5.05738 0
M  V30 5083 O 651.716 7.1065 3.32998 0
M  V30 5084 O 651.753 6.04542 5.56673 0
M  V30 5085 C 651.593 6.22772 7.02095 0
M  V30 5086 C 652.133 4.97725 7.70406 0
M  V30 5087 O 651.077 4.13256 7.58987 0
M  V30 5088 C 653.351 4.28231 7.11815 0
M  V30 5089 O 654.089 3.49945 8.01648 0
M  V30 5090 C 652.682 3.5063 5.96244 0
M  V30 5091 O 653.481 2.36482 5.64681 0
M  V30 5092 C 651.345 3.15122 6.56374 0
M  V30 5093 H 651.377 2.13853 6.99751 0
M  V30 5094 H 652.56 4.13501 5.06559 0
M  V30 5095 H 654.044 5.03285 6.70911 0
M  V30 5096 H 652.35 5.20877 8.75697 0
M  V30 5097 H 652.16 7.11046 7.35349 0
M  V30 5098 H 650.53 6.35815 7.26986 0
M  V30 5099 H 653.169 1.61644 6.13565 0
M  V30 5100 P 655.027 3.65191 7.99657 0
M  V30 5101 O 656.448 3.84292 8.48206 0
M  V30 5102 O 654.667 4.17805 6.64342 0
M  V30 5103 O 654.704 2.07613 7.95143 0
M  V30 5104 C 654.543 1.44344 9.27435 0
M  V30 5105 C 655.084 0.0220036 9.17197 0
M  V30 5106 O 654.029 -0.626794 8.61824 0
M  V30 5107 C 656.302 -0.24586 8.30336 0
M  V30 5108 O 657.04 -1.39011 8.63583 0
M  V30 5109 C 655.634 -0.273849 6.91158 0
M  V30 5110 O 656.432 -1.05728 6.029 0
M  V30 5111 C 654.296 -0.897649 7.22545 0
M  V30 5112 N 653.253 -0.292839 6.41732 0
M  V30 5113 C 653.422 0.950603 5.91308 0
M  V30 5114 N 652.395 1.37732 5.21105 0
M  V30 5115 C 651.51 0.318109 5.26039 0
M  V30 5116 C 650.243 0.146766 4.6727 0
M  V30 5117 N 649.644 1.08519 3.89983 0
M  V30 5118 N 649.678 -1.06525 4.95887 0
M  V30 5119 C 650.28 -2.0378 5.71347 0
M  V30 5120 N 651.457 -1.92445 6.27451 0
M  V30 5121 C 652.032 -0.715382 6.00353 0
M  V30 5122 H 654.328 -1.98383 7.04189 0
M  V30 5123 H 655.511 0.733318 6.49674 0
M  V30 5124 H 656.994 0.60668 8.36503 0
M  V30 5125 H 655.3 -0.362662 10.1825 0
M  V30 5126 H 655.11 2.00611 10.0304 0
M  V30 5127 H 653.48 1.41843 9.55327 0
M  V30 5128 H 649.744 -2.97041 5.85344 0
M  V30 5129 H 654.322 1.54076 6.07465 0
M  V30 5130 H 648.714 0.901517 3.49562 0
M  V30 5131 H 650.118 1.97957 3.71669 0
M  V30 5132 H 656.12 -1.95704 6.0346 0
M  V30 5133 P 657.977 -1.25109 8.70152 0
M  V30 5134 O 659.399 -1.35274 9.21221 0
M  V30 5135 O 657.617 -0.0769065 7.84762 0
M  V30 5136 O 657.654 -2.55232 7.81161 0
M  V30 5137 C 657.494 -3.79939 8.58154 0
M  V30 5138 C 658.034 -4.94023 7.72785 0
M  V30 5139 O 656.978 -5.18726 6.91205 0
M  V30 5140 C 659.252 -4.69597 6.85231 0
M  V30 5141 O 659.99 -5.83832 6.51337 0
M  V30 5142 C 658.583 -3.96706 5.66633 0
M  V30 5143 O 659.382 -4.15414 4.49689 0
M  V30 5144 C 657.246 -4.66153 5.59313 0
M  V30 5145 H 657.278 -5.47679 4.85214 0
M  V30 5146 H 658.461 -2.89008 5.86566 0
M  V30 5147 H 659.945 -4.0121 7.36511 0
M  V30 5148 H 658.251 -5.80182 8.37584 0
M  V30 5149 H 658.061 -3.73517 9.52265 0
M  V30 5150 H 656.431 -3.97163 8.80359 0
M  V30 5151 H 659.07 -4.90969 4.01921 0
M  V30 5152 P 660.928 -5.75688 6.64379 0
M  V30 5153 O 662.35 -6.11849 7.01846 0
M  V30 5154 O 660.568 -4.30744 6.56026 0
M  V30 5155 O 660.605 -6.37042 5.19165 0
M  V30 5156 C 660.445 -7.83578 5.16515 0
M  V30 5157 C 660.985 -8.33398 3.83019 0
M  V30 5158 O 659.929 -8.10074 3.01034 0
M  V30 5159 C 662.203 -7.65514 3.2257 0
M  V30 5160 O 662.941 -8.4329 2.32297 0
M  V30 5161 C 661.534 -6.40075 2.62207 0
M  V30 5162 O 662.333 -5.92589 1.53712 0
M  V30 5163 C 660.197 -6.9454 2.18503 0
M  V30 5164 H 660.229 -7.23063 1.12091 0
M  V30 5165 H 661.412 -5.6025 3.37201 0
M  V30 5166 H 662.896 -7.35707 4.02681 0
M  V30 5167 H 661.202 -9.40912 3.9095 0
M  V30 5168 H 661.012 -8.29056 5.99158 0
M  V30 5169 H 659.382 -8.10073 5.25882 0
M  V30 5170 H 662.021 -6.30324 0.726794 0
M  V30 5171 P 663.878 -8.4349 2.47671 0
M  V30 5172 O 665.3 -8.94359 2.59696 0
M  V30 5173 O 663.518 -7.1704 3.19006 0
M  V30 5174 O 663.555 -8.16596 0.923387 0
M  V30 5175 C 663.395 -9.38437 0.108857 0
M  V30 5176 C 663.935 -9.08076 -1.28339 0
M  V30 5177 O 662.88 -8.44229 -1.84713 0
M  V30 5178 C 665.153 -8.18386 -1.42505 0
M  V30 5179 O 665.891 -8.3501 -2.60497 0
M  V30 5180 C 664.485 -6.80225 -1.25468 0
M  V30 5181 O 665.283 -5.81526 -1.91035 0
M  V30 5182 C 663.147 -7.02416 -1.9168 0
M  V30 5183 N 662.104 -6.31033 -1.20314 0
M  V30 5184 C 662.166 -6.18781 0.121293 0
M  V30 5185 N 661.121 -5.49762 0.588272 0
M  V30 5186 C 660.387 -5.22015 -0.488988 0
M  V30 5187 C 659.081 -4.61966 -0.596448 0
M  V30 5188 O 658.348 -4.19162 0.309059 0
M  V30 5189 N 658.651 -4.53773 -1.878 0
M  V30 5190 C 659.4 -4.99623 -2.99082 0
M  V30 5191 N 658.803 -4.78912 -4.21227 0
M  V30 5192 N 660.553 -5.59957 -2.91093 0
M  V30 5193 C 661.01 -5.70225 -1.64218 0
M  V30 5194 H 663.179 -6.6888 -2.96621 0
M  V30 5195 H 664.362 -6.53517 -0.192194 0
M  V30 5196 H 665.847 -8.36563 -0.598329 0
M  V30 5197 H 664.152 -10.0291 -1.79807 0
M  V30 5198 H 663.962 -10.2138 0.558219 0
M  V30 5199 H 662.331 -9.6579 0.0444202 0
M  V30 5200 H 657.755 -4.12883 -2.05283 0
M  V30 5201 H 662.962 -6.59596 0.745856 0
M  V30 5202 H 657.892 -4.31425 -4.2628 0
M  V30 5203 H 659.268 -5.11219 -5.07148 0
M  V30 5204 H 664.972 -5.69466 -2.79593 0
M  V30 5205 P 666.829 -8.4349 -2.47671 0
M  V30 5206 O 668.25 -8.92689 -2.65029 0
M  V30 5207 O 666.469 -7.7568 -1.19296 0
M  V30 5208 O 666.506 -7.36886 -3.63805 0
M  V30 5209 C 666.345 -7.95433 -4.98253 0
M  V30 5210 C 666.886 -6.94612 -5.98974 0
M  V30 5211 O 665.831 -6.10277 -6.11744 0
M  V30 5212 C 668.104 -6.11426 -5.62335 0
M  V30 5213 O 668.842 -5.6162 -6.70584 0
M  V30 5214 C 667.436 -5.04409 -4.73308 0
M  V30 5215 O 668.234 -3.86404 -4.74719 0
M  V30 5216 C 666.098 -4.8728 -5.41006 0
M  V30 5217 N 665.055 -4.65812 -4.42377 0
M  V30 5218 C 665.224 -5.09132 -3.15382 0
M  V30 5219 N 664.197 -4.84021 -2.3716 0
M  V30 5220 C 663.312 -4.18386 -3.20441 0
M  V30 5221 C 662.045 -3.6275 -2.94905 0
M  V30 5222 N 661.48 -3.05008 -4.05243 0
M  V30 5223 C 662.082 -2.98348 -5.28159 0
M  V30 5224 N 663.259 -3.48171 -5.56333 0
M  V30 5225 C 663.834 -4.06869 -4.47212 0
M  V30 5226 H 667.313 -5.39013 -3.70026 0
M  V30 5227 H 668.796 -6.71916 -5.01943 0
M  V30 5228 H 667.102 -7.45796 -6.94223 0
M  V30 5229 H 666.912 -8.89416 -5.05237 0
M  V30 5230 H 665.282 -8.14876 -5.18409 0
M  V30 5231 H 666.124 -5.59989 -2.81362 0
M  V30 5232 H 667.922 -3.27906 -5.43085 0
M  V30 5233 P 669.779 -5.75688 -6.64379 0
M  V30 5234 O 671.201 -6.07627 -7.05504 0
M  V30 5235 O 669.419 -5.88047 -5.19722 0
M  V30 5236 O 669.456 -4.2322 -7.04443 0
M  V30 5237 C 669.296 -3.99743 -8.4911 0
M  V30 5238 C 669.836 -2.60516 -8.79425 0
M  V30 5239 O 668.78 -1.82684 -8.4467 0
M  V30 5240 C 671.054 -2.10343 -8.03628 0
M  V30 5241 O 671.792 -1.09919 -8.67766 0
M  V30 5242 C 670.385 -1.68446 -6.70876 0
M  V30 5243 O 671.184 -0.678137 -6.08433 0
M  V30 5244 C 669.048 -1.17436 -7.18567 0
M  V30 5245 H 669.08 -0.0804732 -7.31656 0
M  V30 5246 H 670.263 -2.54037 -6.02537 0
M  V30 5247 H 671.747 -2.93881 -7.85526 0
M  V30 5248 H 670.053 -2.53065 -9.86973 0
M  V30 5249 H 669.863 -4.75072 -9.05887 0
M  V30 5250 H 668.233 -4.05244 -8.76668 0
M  V30 5251 H 670.872 0.177647 -6.34251 0
M  V30 5252 P 672.73 -1.25109 -8.70152 0
M  V30 5253 O 674.152 -1.29744 -9.22016 0
M  V30 5254 O 672.37 -2.13714 -7.55141 0
M  V30 5255 O 672.407 0.248149 -8.21425 0
M  V30 5256 C 672.247 1.22779 -9.30434 0
M  V30 5257 C 672.787 2.56293 -8.80664 0
M  V30 5258 O 671.731 3.02979 -8.09349 0
M  V30 5259 C 674.005 2.57523 -7.89775 0
M  V30 5260 O 674.743 3.7668 -7.89438 0
M  V30 5261 C 673.336 2.20997 -6.55446 0
M  V30 5262 O 674.135 2.71895 -5.48509 0
M  V30 5263 C 671.999 2.89693 -6.67988 0
M  V30 5264 H 672.031 3.88793 -6.19859 0
M  V30 5265 H 673.214 1.12046 -6.44229 0
M  V30 5266 H 674.698 1.7746 -8.19711 0
M  V30 5267 H 673.004 3.20706 -9.67112 0
M  V30 5268 H 672.814 0.901032 -10.1892 0
M  V30 5269 H 671.184 1.33049 -9.56592 0
M  V30 5270 H 673.823 3.57847 -5.23962 0
M  V30 5271 P 675.681 3.65191 -7.99657 0
M  V30 5272 O 677.103 3.89332 -8.45794 0
M  V30 5273 O 675.321 2.28472 -7.50807 0
M  V30 5274 O 675.358 4.64972 -6.77611 0
M  V30 5275 C 675.198 6.06319 -7.16352 0
M  V30 5276 C 675.738 6.91731 -6.02299 0
M  V30 5277 O 674.682 6.92449 -5.17064 0
M  V30 5278 C 676.956 6.43627 -5.25174 0
M  V30 5279 O 677.694 7.43686 -4.60469 0
M  V30 5280 C 676.287 5.40275 -4.31916 0
M  V30 5281 O 677.086 5.25279 -3.14438 0
M  V30 5282 C 674.95 6.04847 -4.05327 0
M  V30 5283 H 674.982 6.62195 -3.11261 0
M  V30 5284 H 676.165 4.42556 -4.81383 0
M  V30 5285 H 677.649 5.92458 -5.93643 0
M  V30 5286 H 675.955 7.92655 -6.402 0
M  V30 5287 H 675.765 6.26671 -8.0846 0
M  V30 5288 H 674.135 6.29101 -7.32804 0
M  V30 5289 H 676.774 5.84315 -2.47318 0
M  V30 5290 P 678.631 7.39546 -4.75277 0
M  V30 5291 O 680.053 7.84798 -5.01039 0
M  V30 5292 O 678.271 5.9812 -5.08098 0
M  V30 5293 O 678.308 7.57503 -3.1866 0
M  V30 5294 C 678.148 8.97357 -2.74833 0
M  V30 5295 C 678.688 9.07548 -1.32709 0
M  V30 5296 O 677.632 8.62072 -0.606159 0
M  V30 5297 C 679.906 8.25383 -0.938334 0
M  V30 5298 O 680.644 8.74577 0.146954 0
M  V30 5299 C 679.237 6.8802 -0.712559 0
M  V30 5300 O 680.036 6.1189 0.194655 0
M  V30 5301 C 677.9 7.27966 -0.139777 0
M  V30 5302 H 677.932 7.25354 0.961601 0
M  V30 5303 H 679.115 6.32557 -1.65702 0
M  V30 5304 H 680.599 8.19355 -1.79097 0
M  V30 5305 H 678.905 10.1294 -1.10029 0
M  V30 5306 H 678.715 9.64276 -3.41316 0
M  V30 5307 H 677.085 9.25417 -2.76357 0
M  V30 5308 H 679.724 6.25267 1.07847 0
M  V30 5309 P 681.582 8.791 4.7645e-12 0
M  V30 5310 O 683.004 9.31096 0.027933 0
M  V30 5311 O 681.222 7.77869 -1.04071 0
M  V30 5312 O 681.259 8.09533 1.41463 0
M  V30 5313 C 681.099 9.0349 2.53943 0
M  V30 5314 C 681.639 8.35226 3.79016 0
M  V30 5315 O 680.583 7.57992 4.15078 0
M  V30 5316 C 682.857 7.45087 3.67298 0
M  V30 5317 O 683.595 7.27796 4.85194 0
M  V30 5318 C 682.188 6.17323 3.12027 0
M  V30 5319 O 682.987 5.04231 3.47188 0
M  V30 5320 C 680.851 6.19961 3.81809 0
M  V30 5321 H 680.883 5.58218 4.73051 0
M  V30 5322 H 682.066 6.21726 2.02589 0
M  V30 5323 H 683.55 7.86112 2.9231 0
M  V30 5324 H 681.856 9.11627 4.55076 0
M  V30 5325 H 681.666 9.9573 2.34194 0
M  V30 5326 H 680.036 9.2792 2.67832 0
M  V30 5327 H 682.675 4.67702 4.28772 0
M  V30 5328 P 684.532 7.39546 4.75277 0
M  V30 5329 O 685.954 7.81777 5.05738 0
M  V30 5330 O 684.172 7.1065 3.32998 0
M  V30 5331 O 684.209 6.04542 5.56673 0
M  V30 5332 C 684.049 6.22772 7.02095 0
M  V30 5333 C 684.589 4.97725 7.70406 0
M  V30 5334 O 683.533 4.13256 7.58987 0
M  V30 5335 C 685.807 4.28231 7.11815 0
M  V30 5336 O 686.545 3.49945 8.01648 0
M  V30 5337 C 685.138 3.5063 5.96244 0
M  V30 5338 O 685.937 2.36482 5.64681 0
M  V30 5339 C 683.801 3.15122 6.56374 0
M  V30 5340 H 683.833 2.13853 6.99751 0
M  V30 5341 H 685.016 4.13501 5.06559 0
M  V30 5342 H 686.5 5.03285 6.70911 0
M  V30 5343 H 684.806 5.20877 8.75697 0
M  V30 5344 H 684.616 7.11046 7.35349 0
M  V30 5345 H 682.986 6.35815 7.26986 0
M  V30 5346 H 685.625 1.61644 6.13565 0
M  V30 5347 P 687.483 3.65191 7.99657 0
M  V30 5348 O 688.884 3.90823 8.51272 0
M  V30 5349 O 687.105 4.23191 6.66972 0
M  V30 5350 O 687.16 2.07587 7.95046 0
M  V30 5351 C 687 1.44328 9.27336 0
M  V30 5352 C 687.54 0.0220012 9.17097 0
M  V30 5353 O 686.484 -0.626794 8.61824 0
M  V30 5354 C 688.757 -0.24586 8.30336 0
M  V30 5355 O 689.496 -1.39011 8.63583 0
M  V30 5356 C 688.09 -0.273849 6.91158 0
M  V30 5357 O 688.888 -1.06331 6.02794 0
M  V30 5358 C 686.752 -0.897649 7.22545 0
M  V30 5359 N 685.709 -0.292839 6.41732 0
M  V30 5360 C 684.674 -1.08701 5.98712 0
M  V30 5361 O 684.713 -2.31211 6.24471 0
M  V30 5362 N 683.662 -0.533391 5.28415 0
M  V30 5363 C 683.71 0.770866 4.98576 0
M  V30 5364 N 682.7 1.29482 4.30134 0
M  V30 5365 C 684.806 1.59049 5.38086 0
M  V30 5366 C 685.772 1.01866 6.10256 0
M  V30 5367 H 686.784 -1.98383 7.04189 0
M  V30 5368 H 687.967 0.733318 6.49674 0
M  V30 5369 H 689.451 0.598386 8.36663 0
M  V30 5370 H 687.757 -0.362662 10.1825 0
M  V30 5371 H 687.566 2.00611 10.0304 0
M  V30 5372 H 685.936 1.41828 9.55228 0
M  V30 5373 H 684.854 2.6415 5.10622 0
M  V30 5374 H 686.618 1.61983 6.44042 0
M  V30 5375 H 681.91 0.69888 4.01361 0
M  V30 5376 H 682.705 2.29327 4.05781 0
M  V30 5377 H 688.672 -1.97777 6.14035 0
M  V30 5378 P 690.433 -1.25109 8.70152 0
M  V30 5379 O 691.855 -1.35303 9.21419 0
M  V30 5380 O 690.073 -0.0769065 7.84762 0
M  V30 5381 O 690.11 -2.55232 7.81161 0
M  V30 5382 C 689.95 -3.79939 8.58154 0
M  V30 5383 C 690.49 -4.93969 7.72701 0
M  V30 5384 O 689.435 -5.18726 6.91205 0
M  V30 5385 C 691.708 -4.69597 6.85231 0
M  V30 5386 O 692.446 -5.83832 6.51337 0
M  V30 5387 C 691.04 -3.96706 5.66633 0
M  V30 5388 O 691.838 -4.15346 4.49615 0
M  V30 5389 C 689.702 -4.66153 5.59313 0
M  V30 5390 N 688.659 -3.71582 5.24027 0
M  V30 5391 C 688.721 -2.46018 5.67902 0
M  V30 5392 N 687.676 -1.74868 5.24518 0
M  V30 5393 C 686.942 -2.61333 4.54528 0
M  V30 5394 C 685.636 -2.46162 3.95441 0
M  V30 5395 O 684.903 -1.46013 3.94122 0
M  V30 5396 N 685.206 -3.59334 3.34752 0
M  V30 5397 C 685.955 -4.79605 3.3023 0
M  V30 5398 N 685.358 -5.82109 2.6065 0
M  V30 5399 N 687.108 -4.97402 3.8843 0
M  V30 5400 C 687.565 -3.86258 4.50476 0
M  V30 5401 H 689.734 -5.47679 4.85214 0
M  V30 5402 H 690.917 -2.88964 5.86476 0
M  V30 5403 H 692.402 -4.01947 7.36109 0
M  V30 5404 H 690.707 -5.80182 8.37584 0
M  V30 5405 H 690.517 -3.73517 9.52265 0
M  V30 5406 H 688.886 -3.97163 8.80359 0
M  V30 5407 H 684.31 -3.5825 2.90294 0
M  V30 5408 H 689.517 -2.06161 6.30974 0
M  V30 5409 H 684.447 -5.66979 2.15354 0
M  V30 5410 H 685.823 -6.73686 2.54344 0
M  V30 5411 H 691.527 -4.90891 4.01857 0
M  V30 5412 P 693.384 -5.75688 6.64379 0
M  V30 5413 O 694.806 -6.11849 7.01846 0
M  V30 5414 O 693.024 -4.30744 6.56026 0
M  V30 5415 O 693.061 -6.37042 5.19165 0
M  V30 5416 C 692.901 -7.83578 5.16515 0
M  V30 5417 C 693.441 -8.33398 3.83019 0
M  V30 5418 O 692.385 -8.10074 3.01034 0
M  V30 5419 C 694.659 -7.65514 3.2257 0
M  V30 5420 O 695.397 -8.4329 2.32297 0
M  V30 5421 C 693.99 -6.40075 2.62207 0
M  V30 5422 O 694.789 -5.92589 1.53712 0
M  V30 5423 C 692.653 -6.9454 2.18503 0
M  V30 5424 H 692.685 -7.23063 1.12091 0
M  V30 5425 H 693.868 -5.6025 3.37201 0
M  V30 5426 H 695.352 -7.35707 4.02681 0
M  V30 5427 H 693.658 -9.40912 3.9095 0
M  V30 5428 H 693.468 -8.29056 5.99158 0
M  V30 5429 H 691.838 -8.10073 5.25882 0
M  V30 5430 H 694.477 -6.30324 0.726794 0
M  V30 5431 P 696.335 -8.4349 2.47671 0
M  V30 5432 O 697.757 -8.94167 2.5964 0
M  V30 5433 O 695.975 -7.1704 3.19006 0
M  V30 5434 O 696.012 -8.16596 0.923387 0
M  V30 5435 C 695.852 -9.38437 0.108857 0
M  V30 5436 C 696.392 -9.08175 -1.28353 0
M  V30 5437 O 695.336 -8.44229 -1.84713 0
M  V30 5438 C 697.61 -8.18386 -1.42505 0
M  V30 5439 O 698.348 -8.3501 -2.60497 0
M  V30 5440 C 696.941 -6.80225 -1.25468 0
M  V30 5441 O 697.74 -5.81621 -1.91066 0
M  V30 5442 C 695.604 -7.02416 -1.9168 0
M  V30 5443 H 695.636 -6.6888 -2.96621 0
M  V30 5444 H 696.819 -6.53617 -0.192223 0
M  V30 5445 H 698.303 -8.36622 -0.589963 0
M  V30 5446 H 696.609 -10.0291 -1.79807 0
M  V30 5447 H 696.419 -10.2138 0.558219 0
M  V30 5448 H 694.789 -9.6579 0.0444202 0
M  V30 5449 H 697.428 -5.69556 -2.79637 0
M  V30 5450 P 699.285 -8.4349 -2.47671 0
M  V30 5451 O 700.707 -8.92593 -2.65 0
M  V30 5452 O 698.925 -7.7568 -1.19296 0
M  V30 5453 O 698.962 -7.36886 -3.63805 0
M  V30 5454 C 698.802 -7.95349 -4.982 0
M  V30 5455 C 699.342 -6.94612 -5.98974 0
M  V30 5456 O 698.286 -6.10347 -6.11815 0
M  V30 5457 C 700.56 -6.11426 -5.62335 0
M  V30 5458 O 701.298 -5.6162 -6.70584 0
M  V30 5459 C 699.891 -5.04409 -4.73308 0
M  V30 5460 O 700.69 -3.85992 -4.75183 0
M  V30 5461 C 698.554 -4.8728 -5.41006 0
M  V30 5462 H 698.586 -4.02333 -6.11157 0
M  V30 5463 H 699.769 -5.39466 -3.69543 0
M  V30 5464 H 701.253 -6.71916 -5.01943 0
M  V30 5465 H 699.559 -7.4649 -6.93477 0
M  V30 5466 H 699.369 -8.89416 -5.05237 0
M  V30 5467 H 697.739 -8.14876 -5.18409 0
M  V30 5468 H 700.378 -3.27957 -5.4317 0
M  V30 5469 P 702.236 -5.75688 -6.64379 0
M  V30 5470 O 703.658 -6.07627 -7.05504 0
M  V30 5471 O 701.876 -5.88047 -5.19722 0
M  V30 5472 O 701.913 -4.2322 -7.04443 0
M  V30 5473 C 701.753 -3.99743 -8.4911 0
M  V30 5474 C 702.293 -2.60516 -8.79425 0
M  V30 5475 O 701.237 -1.82684 -8.4467 0
M  V30 5476 C 703.511 -2.10343 -8.03628 0
M  V30 5477 O 704.249 -1.09919 -8.67766 0
M  V30 5478 C 702.842 -1.68446 -6.70876 0
M  V30 5479 O 703.641 -0.678137 -6.08433 0
M  V30 5480 C 701.505 -1.17436 -7.18567 0
M  V30 5481 H 701.537 -0.0804732 -7.31656 0
M  V30 5482 H 702.72 -2.54037 -6.02537 0
M  V30 5483 H 704.204 -2.93881 -7.85526 0
M  V30 5484 H 702.51 -2.53065 -9.86973 0
M  V30 5485 H 702.32 -4.75072 -9.05887 0
M  V30 5486 H 700.69 -4.05244 -8.76668 0
M  V30 5487 H 703.329 0.177647 -6.34251 0
M  V30 5488 P 705.186 -1.25109 -8.70152 0
M  V30 5489 O 706.607 -1.29758 -9.22115 0
M  V30 5490 O 704.826 -2.13714 -7.55141 0
M  V30 5491 O 704.863 0.248149 -8.21425 0
M  V30 5492 C 704.702 1.22792 -9.30533 0
M  V30 5493 C 705.243 2.56293 -8.80664 0
M  V30 5494 O 704.188 3.02944 -8.09255 0
M  V30 5495 C 706.461 2.57523 -7.89775 0
M  V30 5496 O 707.199 3.7668 -7.89438 0
M  V30 5497 C 705.793 2.20997 -6.55446 0
M  V30 5498 O 706.591 2.71302 -5.48691 0
M  V30 5499 C 704.455 2.89693 -6.67988 0
M  V30 5500 N 703.412 2.08895 -6.07487 0
M  V30 5501 C 703.581 0.753809 -5.94137 0
M  V30 5502 N 702.554 0.146592 -5.38801 0
M  V30 5503 C 701.669 1.1768 -5.13693 0
M  V30 5504 C 700.402 1.17563 -4.52477 0
M  V30 5505 N 699.837 2.41918 -4.45789 0
M  V30 5506 C 700.439 3.56493 -4.90792 0
M  V30 5507 N 701.616 3.61423 -5.47817 0
M  V30 5508 C 702.191 2.37779 -5.5588 0
M  V30 5509 H 705.67 1.12673 -6.44018 0
M  V30 5510 H 707.153 1.7746 -8.19711 0
M  V30 5511 H 705.459 3.21673 -9.66791 0
M  V30 5512 H 705.269 0.901032 -10.1892 0
M  V30 5513 H 703.639 1.33049 -9.56592 0
M  V30 5514 H 704.481 0.233081 -6.26266 0
M  V30 5515 H 706.279 3.5779 -5.23879 0
M  V30 5516 P 708.137 3.65191 -7.99657 0
M  V30 5517 O 709.558 3.89374 -8.45885 0
M  V30 5518 O 707.777 2.28472 -7.50807 0
M  V30 5519 O 707.814 4.64972 -6.77611 0
M  V30 5520 C 707.653 6.06383 -7.16428 0
M  V30 5521 C 708.194 6.91731 -6.02299 0
M  V30 5522 O 707.139 6.92369 -5.17005 0
M  V30 5523 C 709.412 6.43627 -5.25174 0
M  V30 5524 O 710.15 7.43686 -4.60469 0
M  V30 5525 C 708.744 5.40275 -4.31916 0
M  V30 5526 O 709.542 5.24878 -3.14911 0
M  V30 5527 C 707.406 6.04847 -4.05327 0
M  V30 5528 N 706.363 5.04166 -3.98114 0
M  V30 5529 C 706.532 3.84629 -4.59066 0
M  V30 5530 N 705.505 3.0363 -4.45343 0
M  V30 5531 C 704.62 3.76722 -3.68523 0
M  V30 5532 C 703.353 3.43528 -3.17088 0
M  V30 5533 N 702.788 4.44526 -2.44231 0
M  V30 5534 C 703.39 5.65243 -2.20146 0
M  V30 5535 N 704.567 6.00221 -2.65453 0
M  V30 5536 C 705.142 5.00564 -3.39083 0
M  V30 5537 H 708.621 4.42969 -4.80867 0
M  V30 5538 H 710.104 5.92458 -5.93643 0
M  V30 5539 H 708.41 7.93295 -6.39407 0
M  V30 5540 H 708.22 6.26671 -8.0846 0
M  V30 5541 H 706.59 6.29101 -7.32804 0
M  V30 5542 H 707.432 3.58193 -5.14248 0
M  V30 5543 H 709.23 5.84223 -2.47279 0
M  V30 5544 P 711.087 7.39546 -4.75277 0
M  V30 5545 O 712.509 7.84798 -5.01039 0
M  V30 5546 O 710.727 5.9812 -5.08098 0
M  V30 5547 O 710.764 7.57503 -3.1866 0
M  V30 5548 C 710.604 8.97357 -2.74833 0
M  V30 5549 C 711.144 9.07548 -1.32709 0
M  V30 5550 O 710.088 8.62072 -0.606159 0
M  V30 5551 C 712.362 8.25383 -0.938334 0
M  V30 5552 O 713.1 8.74577 0.146954 0
M  V30 5553 C 711.693 6.8802 -0.712559 0
M  V30 5554 O 712.492 6.1189 0.194655 0
M  V30 5555 C 710.356 7.27966 -0.139777 0
M  V30 5556 H 710.388 7.25354 0.961601 0
M  V30 5557 H 711.571 6.32557 -1.65702 0
M  V30 5558 H 713.055 8.19355 -1.79097 0
M  V30 5559 H 711.361 10.1294 -1.10029 0
M  V30 5560 H 711.171 9.64276 -3.41316 0
M  V30 5561 H 709.541 9.25417 -2.76357 0
M  V30 5562 H 712.18 6.25267 1.07847 0
M  V30 5563 P 714.038 8.791 5.07466e-12 0
M  V30 5564 O 715.46 9.31096 0.027933 0
M  V30 5565 O 713.678 7.77869 -1.04071 0
M  V30 5566 O 713.715 8.09533 1.41463 0
M  V30 5567 C 713.555 9.0349 2.53943 0
M  V30 5568 C 714.095 8.35226 3.79016 0
M  V30 5569 O 713.039 7.57992 4.15078 0
M  V30 5570 C 715.313 7.45087 3.67298 0
M  V30 5571 O 716.051 7.27796 4.85194 0
M  V30 5572 C 714.644 6.17323 3.12027 0
M  V30 5573 O 715.443 5.04231 3.47188 0
M  V30 5574 C 713.307 6.19961 3.81809 0
M  V30 5575 H 713.339 5.58218 4.73051 0
M  V30 5576 H 714.522 6.21726 2.02589 0
M  V30 5577 H 716.006 7.86112 2.9231 0
M  V30 5578 H 714.312 9.11627 4.55076 0
M  V30 5579 H 714.122 9.9573 2.34194 0
M  V30 5580 H 712.492 9.2792 2.67832 0
M  V30 5581 H 715.131 4.67702 4.28772 0
M  V30 5582 P 716.989 7.39546 4.75277 0
M  V30 5583 O 718.39 7.89013 5.04841 0
M  V30 5584 O 716.611 7.16603 3.32298 0
M  V30 5585 O 716.666 6.04468 5.56605 0
M  V30 5586 C 716.506 6.22772 7.02095 0
M  V30 5587 C 717.046 4.97671 7.70322 0
M  V30 5588 O 715.99 4.13208 7.58899 0
M  V30 5589 C 718.263 4.28231 7.11815 0
M  V30 5590 O 719.002 3.49945 8.01648 0
M  V30 5591 C 717.596 3.5063 5.96244 0
M  V30 5592 O 718.394 2.36443 5.64589 0
M  V30 5593 C 716.258 3.15122 6.56374 0
M  V30 5594 N 715.215 3.22311 5.55692 0
M  V30 5595 C 714.18 2.32244 5.62437 0
M  V30 5596 O 714.219 1.43107 6.50341 0
M  V30 5597 N 713.168 2.40811 4.73368 0
M  V30 5598 C 713.216 3.344 3.77753 0
M  V30 5599 C 714.312 4.24712 3.66679 0
M  V30 5600 C 715.278 4.15625 4.58307 0
M  V30 5601 H 716.29 2.13823 6.99656 0
M  V30 5602 H 717.473 4.12931 5.06895 0
M  V30 5603 H 718.957 5.02674 6.71494 0
M  V30 5604 H 717.263 5.20001 8.76217 0
M  V30 5605 H 717.072 7.11046 7.35349 0
M  V30 5606 H 715.442 6.35749 7.26911 0
M  V30 5607 H 714.36 4.9828 2.86753 0
M  V30 5608 H 716.124 4.84464 4.54228 0
M  V30 5609 H 718.178 1.65592 6.23485 0
M  V30 5610 P 719.939 3.65191 7.99657 0
M  V30 5611 O 721.361 3.8425 8.48115 0
M  V30 5612 O 719.579 4.17805 6.64342 0
M  V30 5613 O 719.616 2.07613 7.95143 0
M  V30 5614 C 719.456 1.44328 9.27336 0
M  V30 5615 C 719.996 0.0220036 9.17197 0
M  V30 5616 O 718.94 -0.626867 8.61923 0
M  V30 5617 C 721.214 -0.24586 8.30336 0
M  V30 5618 O 721.952 -1.39011 8.63583 0
M  V30 5619 C 720.545 -0.273849 6.91158 0
M  V30 5620 O 721.344 -1.06348 6.02892 0
M  V30 5621 C 719.208 -0.897649 7.22545 0
M  V30 5622 H 719.24 -1.9841 7.04286 0
M  V30 5623 H 720.423 0.739928 6.497 0
M  V30 5624 H 721.907 0.60668 8.36503 0
M  V30 5625 H 720.213 -0.352479 10.1829 0
M  V30 5626 H 720.023 2.00611 10.0304 0
M  V30 5627 H 718.393 1.41843 9.55327 0
M  V30 5628 H 721.032 -1.95734 6.03555 0
M  V30 5629 P 722.89 -1.25109 8.70152 0
M  V30 5630 O 724.312 -1.35274 9.21221 0
M  V30 5631 O 722.53 -0.0769065 7.84762 0
M  V30 5632 O 722.567 -2.55232 7.81161 0
M  V30 5633 C 722.407 -3.79939 8.58154 0
M  V30 5634 C 722.947 -4.94023 7.72785 0
M  V30 5635 O 721.891 -5.18726 6.91205 0
M  V30 5636 C 724.165 -4.69597 6.85231 0
M  V30 5637 O 724.903 -5.83832 6.51337 0
M  V30 5638 C 723.496 -3.96706 5.66633 0
M  V30 5639 O 724.295 -4.15414 4.49689 0
M  V30 5640 C 722.159 -4.66153 5.59313 0
M  V30 5641 H 722.191 -5.47679 4.85214 0
M  V30 5642 H 723.374 -2.89008 5.86566 0
M  V30 5643 H 724.858 -4.0121 7.36511 0
M  V30 5644 H 723.164 -5.80182 8.37584 0
M  V30 5645 H 722.974 -3.73517 9.52265 0
M  V30 5646 H 721.344 -3.97163 8.80359 0
M  V30 5647 H 723.983 -4.90969 4.01921 0
M  V30 5648 P 725.84 -5.75688 6.64379 0
M  V30 5649 O 727.262 -6.11849 7.01846 0
M  V30 5650 O 725.48 -4.30744 6.56026 0
M  V30 5651 O 725.517 -6.37042 5.19165 0
M  V30 5652 C 725.357 -7.83578 5.16515 0
M  V30 5653 C 725.897 -8.33398 3.83019 0
M  V30 5654 O 724.841 -8.10074 3.01034 0
M  V30 5655 C 727.115 -7.65514 3.2257 0
M  V30 5656 O 727.853 -8.4329 2.32297 0
M  V30 5657 C 726.446 -6.40075 2.62207 0
M  V30 5658 O 727.245 -5.92589 1.53712 0
M  V30 5659 C 725.109 -6.9454 2.18503 0
M  V30 5660 H 725.141 -7.23063 1.12091 0
M  V30 5661 H 726.324 -5.6025 3.37201 0
M  V30 5662 H 727.808 -7.35707 4.02681 0
M  V30 5663 H 726.114 -9.40912 3.9095 0
M  V30 5664 H 725.924 -8.29056 5.99158 0
M  V30 5665 H 724.294 -8.10073 5.25882 0
M  V30 5666 H 726.933 -6.30324 0.726794 0
M  V30 5667 P 728.791 -8.4349 2.47671 0
M  V30 5668 O 730.213 -8.94167 2.5964 0
M  V30 5669 O 728.431 -7.1704 3.19006 0
M  V30 5670 O 728.468 -8.16596 0.923387 0
M  V30 5671 C 728.308 -9.38437 0.108857 0
M  V30 5672 C 728.848 -9.08175 -1.28353 0
M  V30 5673 O 727.792 -8.44229 -1.84713 0
M  V30 5674 C 730.066 -8.18386 -1.42505 0
M  V30 5675 O 730.804 -8.3501 -2.60497 0
M  V30 5676 C 729.397 -6.80225 -1.25468 0
M  V30 5677 O 730.196 -5.81621 -1.91066 0
M  V30 5678 C 728.06 -7.02416 -1.9168 0
M  V30 5679 H 728.092 -6.6888 -2.96621 0
M  V30 5680 H 729.275 -6.53617 -0.192223 0
M  V30 5681 H 730.759 -8.36622 -0.589963 0
M  V30 5682 H 729.065 -10.0291 -1.79807 0
M  V30 5683 H 728.875 -10.2138 0.558219 0
M  V30 5684 H 727.245 -9.6579 0.0444202 0
M  V30 5685 H 729.884 -5.69556 -2.79637 0
M  V30 5686 P 731.741 -8.4349 -2.47671 0
M  V30 5687 O 733.163 -8.92593 -2.65 0
M  V30 5688 O 731.381 -7.7568 -1.19296 0
M  V30 5689 O 731.418 -7.36886 -3.63805 0
M  V30 5690 C 731.258 -7.95349 -4.982 0
M  V30 5691 C 731.798 -6.94612 -5.98974 0
M  V30 5692 O 730.742 -6.10347 -6.11815 0
M  V30 5693 C 733.016 -6.11426 -5.62335 0
M  V30 5694 O 733.754 -5.6162 -6.70584 0
M  V30 5695 C 732.347 -5.04409 -4.73308 0
M  V30 5696 O 733.146 -3.85992 -4.75183 0
M  V30 5697 C 731.01 -4.8728 -5.41006 0
M  V30 5698 H 731.042 -4.02333 -6.11157 0
M  V30 5699 H 732.225 -5.39466 -3.69543 0
M  V30 5700 H 733.709 -6.71916 -5.01943 0
M  V30 5701 H 732.015 -7.4649 -6.93477 0
M  V30 5702 H 731.825 -8.89416 -5.05237 0
M  V30 5703 H 730.195 -8.14876 -5.18409 0
M  V30 5704 H 732.834 -3.27957 -5.4317 0
M  V30 5705 P 734.692 -5.75688 -6.64379 0
M  V30 5706 O 736.113 -6.07692 -7.0558 0
M  V30 5707 O 734.332 -5.88047 -5.19722 0
M  V30 5708 O 734.369 -4.2322 -7.04443 0
M  V30 5709 C 734.208 -3.99785 -8.49201 0
M  V30 5710 C 734.749 -2.60516 -8.79425 0
M  V30 5711 O 733.694 -1.82663 -8.44573 0
M  V30 5712 C 735.967 -2.10343 -8.03628 0
M  V30 5713 O 736.705 -1.09919 -8.67766 0
M  V30 5714 C 735.299 -1.68446 -6.70876 0
M  V30 5715 O 736.097 -0.684109 -6.08265 0
M  V30 5716 C 733.961 -1.17436 -7.18567 0
M  V30 5717 N 732.918 -1.52699 -6.23988 0
M  V30 5718 C 733.087 -2.578 -5.40574 0
M  V30 5719 N 732.06 -2.78966 -4.61193 0
M  V30 5720 C 731.175 -1.78725 -4.95769 0
M  V30 5721 C 729.908 -1.45727 -4.44207 0
M  V30 5722 N 729.309 -2.13994 -3.43613 0
M  V30 5723 N 729.343 -0.374977 -5.05812 0
M  V30 5724 C 729.945 0.345585 -6.05615 0
M  V30 5725 N 731.122 0.0787651 -6.56253 0
M  V30 5726 C 731.697 -1.00499 -5.96189 0
M  V30 5727 H 733.993 -0.0804622 -7.31556 0
M  V30 5728 H 735.176 -2.53396 -6.02698 0
M  V30 5729 H 736.659 -2.93881 -7.85526 0
M  V30 5730 H 734.965 -2.52078 -9.87225 0
M  V30 5731 H 734.775 -4.75072 -9.05887 0
M  V30 5732 H 733.145 -4.05244 -8.76668 0
M  V30 5733 H 729.409 1.20098 -6.4532 0
M  V30 5734 H 733.987 -3.18977 -5.3945 0
M  V30 5735 H 728.379 -1.84983 -3.10004 0
M  V30 5736 H 729.783 -2.9465 -3.00843 0
M  V30 5737 H 735.785 0.177619 -6.34151 0
M  V30 5738 P 737.643 -1.25109 -8.70152 0
M  V30 5739 O 739.065 -1.29744 -9.22016 0
M  V30 5740 O 737.283 -2.13714 -7.55141 0
M  V30 5741 O 737.32 0.248149 -8.21425 0
M  V30 5742 C 737.16 1.22779 -9.30434 0
M  V30 5743 C 737.7 2.56293 -8.80664 0
M  V30 5744 O 736.644 3.02979 -8.09349 0
M  V30 5745 C 738.918 2.57523 -7.89775 0
M  V30 5746 O 739.656 3.7668 -7.89438 0
M  V30 5747 C 738.249 2.20997 -6.55446 0
M  V30 5748 O 739.048 2.71895 -5.48509 0
M  V30 5749 C 736.912 2.89693 -6.67988 0
M  V30 5750 H 736.944 3.88793 -6.19859 0
M  V30 5751 H 738.127 1.12046 -6.44229 0
M  V30 5752 H 739.611 1.7746 -8.19711 0
M  V30 5753 H 737.917 3.20706 -9.67112 0
M  V30 5754 H 737.726 0.901032 -10.1892 0
M  V30 5755 H 736.096 1.33049 -9.56592 0
M  V30 5756 H 738.736 3.57847 -5.23962 0
M  V30 5757 P 740.593 3.65191 -7.99657 0
M  V30 5758 O 742.014 3.89374 -8.45885 0
M  V30 5759 O 740.233 2.28472 -7.50807 0
M  V30 5760 O 740.27 4.64972 -6.77611 0
M  V30 5761 C 740.109 6.06383 -7.16428 0
M  V30 5762 C 740.65 6.91731 -6.02299 0
M  V30 5763 O 739.595 6.92369 -5.17005 0
M  V30 5764 C 741.868 6.43627 -5.25174 0
M  V30 5765 O 742.606 7.43686 -4.60469 0
M  V30 5766 C 741.2 5.40275 -4.31916 0
M  V30 5767 O 741.998 5.24878 -3.14911 0
M  V30 5768 C 739.862 6.04847 -4.05327 0
M  V30 5769 N 738.819 5.04166 -3.98114 0
M  V30 5770 C 738.988 3.84629 -4.59066 0
M  V30 5771 N 737.961 3.0363 -4.45343 0
M  V30 5772 C 737.076 3.76722 -3.68523 0
M  V30 5773 C 735.809 3.43528 -3.17088 0
M  V30 5774 N 735.244 4.44526 -2.44231 0
M  V30 5775 C 735.846 5.65243 -2.20146 0
M  V30 5776 N 737.023 6.00221 -2.65453 0
M  V30 5777 C 737.598 5.00564 -3.39083 0
M  V30 5778 H 741.077 4.42969 -4.80867 0
M  V30 5779 H 742.56 5.92458 -5.93643 0
M  V30 5780 H 740.866 7.93295 -6.39407 0
M  V30 5781 H 740.676 6.26671 -8.0846 0
M  V30 5782 H 739.046 6.29101 -7.32804 0
M  V30 5783 H 739.888 3.58193 -5.14248 0
M  V30 5784 H 741.686 5.84223 -2.47279 0
M  V30 5785 P 743.544 7.39546 -4.75277 0
M  V30 5786 O 744.966 7.84798 -5.01039 0
M  V30 5787 O 743.184 5.9812 -5.08098 0
M  V30 5788 O 743.221 7.57503 -3.1866 0
M  V30 5789 C 743.061 8.97357 -2.74833 0
M  V30 5790 C 743.601 9.07548 -1.32709 0
M  V30 5791 O 742.545 8.62072 -0.606159 0
M  V30 5792 C 744.819 8.25383 -0.938334 0
M  V30 5793 O 745.557 8.74577 0.146954 0
M  V30 5794 C 744.15 6.8802 -0.712559 0
M  V30 5795 O 744.949 6.1189 0.194655 0
M  V30 5796 C 742.813 7.27966 -0.139777 0
M  V30 5797 H 742.845 7.25354 0.961601 0
M  V30 5798 H 744.028 6.32557 -1.65702 0
M  V30 5799 H 745.512 8.19355 -1.79097 0
M  V30 5800 H 743.818 10.1294 -1.10029 0
M  V30 5801 H 743.628 9.64276 -3.41316 0
M  V30 5802 H 741.998 9.25417 -2.76357 0
M  V30 5803 H 744.637 6.25267 1.07847 0
M  V30 5804 P 746.494 8.791 5.38483e-12 0
M  V30 5805 O 747.916 9.31096 0.027933 0
M  V30 5806 O 746.134 7.77869 -1.04071 0
M  V30 5807 O 746.171 8.09533 1.41463 0
M  V30 5808 C 746.011 9.0349 2.53943 0
M  V30 5809 C 746.551 8.35226 3.79016 0
M  V30 5810 O 745.495 7.57992 4.15078 0
M  V30 5811 C 747.769 7.45087 3.67298 0
M  V30 5812 O 748.507 7.27796 4.85194 0
M  V30 5813 C 747.1 6.17323 3.12027 0
M  V30 5814 O 747.899 5.04231 3.47188 0
M  V30 5815 C 745.763 6.19961 3.81809 0
M  V30 5816 H 745.795 5.58218 4.73051 0
M  V30 5817 H 746.978 6.21726 2.02589 0
M  V30 5818 H 748.462 7.86112 2.9231 0
M  V30 5819 H 746.768 9.11627 4.55076 0
M  V30 5820 H 746.578 9.9573 2.34194 0
M  V30 5821 H 744.948 9.2792 2.67832 0
M  V30 5822 H 747.587 4.67702 4.28772 0
M  V30 5823 P 749.445 7.39546 4.75277 0
M  V30 5824 O 750.867 7.81777 5.05738 0
M  V30 5825 O 749.085 7.1065 3.32998 0
M  V30 5826 O 749.122 6.04542 5.56673 0
M  V30 5827 C 748.962 6.22772 7.02095 0
M  V30 5828 C 749.502 4.97725 7.70406 0
M  V30 5829 O 748.446 4.13256 7.58987 0
M  V30 5830 C 750.72 4.28231 7.11815 0
M  V30 5831 O 751.458 3.49945 8.01648 0
M  V30 5832 C 750.051 3.5063 5.96244 0
M  V30 5833 O 750.85 2.36482 5.64681 0
M  V30 5834 C 748.714 3.15122 6.56374 0
M  V30 5835 H 748.746 2.13853 6.99751 0
M  V30 5836 H 749.929 4.13501 5.06559 0
M  V30 5837 H 751.413 5.03285 6.70911 0
M  V30 5838 H 749.719 5.20877 8.75697 0
M  V30 5839 H 749.529 7.11046 7.35349 0
M  V30 5840 H 747.899 6.35815 7.26986 0
M  V30 5841 H 750.538 1.61644 6.13565 0
M  V30 5842 P 752.395 3.65191 7.99657 0
M  V30 5843 O 753.817 3.8425 8.48115 0
M  V30 5844 O 752.035 4.17805 6.64342 0
M  V30 5845 O 752.072 2.07613 7.95143 0
M  V30 5846 C 751.912 1.44328 9.27336 0
M  V30 5847 C 752.452 0.0220036 9.17197 0
M  V30 5848 O 751.396 -0.626867 8.61923 0
M  V30 5849 C 753.67 -0.24586 8.30336 0
M  V30 5850 O 754.408 -1.39011 8.63583 0
M  V30 5851 C 753.001 -0.273849 6.91158 0
M  V30 5852 O 753.8 -1.06348 6.02892 0
M  V30 5853 C 751.664 -0.897649 7.22545 0
M  V30 5854 H 751.696 -1.9841 7.04286 0
M  V30 5855 H 752.879 0.739928 6.497 0
M  V30 5856 H 754.363 0.60668 8.36503 0
M  V30 5857 H 752.669 -0.352479 10.1829 0
M  V30 5858 H 752.479 2.00611 10.0304 0
M  V30 5859 H 750.849 1.41843 9.55327 0
M  V30 5860 H 753.488 -1.95734 6.03555 0
M  V30 5861 P 755.346 -1.25109 8.70152 0
M  V30 5862 O 756.768 -1.35303 9.21419 0
M  V30 5863 O 754.986 -0.0769065 7.84762 0
M  V30 5864 O 755.023 -2.55232 7.81161 0
M  V30 5865 C 754.863 -3.79939 8.58154 0
M  V30 5866 C 755.403 -4.93969 7.72701 0
M  V30 5867 O 754.348 -5.18726 6.91205 0
M  V30 5868 C 756.621 -4.69597 6.85231 0
M  V30 5869 O 757.359 -5.83832 6.51337 0
M  V30 5870 C 755.953 -3.96706 5.66633 0
M  V30 5871 O 756.751 -4.15346 4.49615 0
M  V30 5872 C 754.615 -4.66153 5.59313 0
M  V30 5873 N 753.572 -3.71582 5.24027 0
M  V30 5874 C 753.634 -2.46018 5.67902 0
M  V30 5875 N 752.589 -1.74868 5.24518 0
M  V30 5876 C 751.855 -2.61333 4.54528 0
M  V30 5877 C 750.549 -2.46162 3.95441 0
M  V30 5878 O 749.816 -1.46013 3.94122 0
M  V30 5879 N 750.119 -3.59334 3.34752 0
M  V30 5880 C 750.868 -4.79605 3.3023 0
M  V30 5881 N 750.271 -5.82109 2.6065 0
M  V30 5882 N 752.021 -4.97402 3.8843 0
M  V30 5883 C 752.478 -3.86258 4.50476 0
M  V30 5884 H 754.647 -5.47679 4.85214 0
M  V30 5885 H 755.83 -2.88964 5.86476 0
M  V30 5886 H 757.315 -4.01947 7.36109 0
M  V30 5887 H 755.62 -5.80182 8.37584 0
M  V30 5888 H 755.43 -3.73517 9.52265 0
M  V30 5889 H 753.799 -3.97163 8.80359 0
M  V30 5890 H 749.223 -3.5825 2.90294 0
M  V30 5891 H 754.43 -2.06161 6.30974 0
M  V30 5892 H 749.36 -5.66979 2.15354 0
M  V30 5893 H 750.736 -6.73686 2.54344 0
M  V30 5894 H 756.44 -4.90891 4.01857 0
M  V30 5895 P 758.296 -5.75688 6.64379 0
M  V30 5896 O 759.718 -6.11849 7.01846 0
M  V30 5897 O 757.936 -4.30744 6.56026 0
M  V30 5898 O 757.973 -6.37042 5.19165 0
M  V30 5899 C 757.813 -7.83578 5.16515 0
M  V30 5900 C 758.353 -8.33398 3.83019 0
M  V30 5901 O 757.297 -8.10074 3.01034 0
M  V30 5902 C 759.571 -7.65514 3.2257 0
M  V30 5903 O 760.309 -8.4329 2.32297 0
M  V30 5904 C 758.902 -6.40075 2.62207 0
M  V30 5905 O 759.701 -5.92589 1.53712 0
M  V30 5906 C 757.565 -6.9454 2.18503 0
M  V30 5907 H 757.597 -7.23063 1.12091 0
M  V30 5908 H 758.78 -5.6025 3.37201 0
M  V30 5909 H 760.264 -7.35707 4.02681 0
M  V30 5910 H 758.57 -9.40912 3.9095 0
M  V30 5911 H 758.38 -8.29056 5.99158 0
M  V30 5912 H 756.75 -8.10073 5.25882 0
M  V30 5913 H 759.389 -6.30324 0.726794 0
M  V30 5914 P 761.247 -8.4349 2.47671 0
M  V30 5915 O 762.669 -8.94167 2.5964 0
M  V30 5916 O 760.887 -7.1704 3.19006 0
M  V30 5917 O 760.924 -8.16596 0.923387 0
M  V30 5918 C 760.764 -9.38437 0.108857 0
M  V30 5919 C 761.304 -9.08175 -1.28353 0
M  V30 5920 O 760.248 -8.44229 -1.84713 0
M  V30 5921 C 762.522 -8.18386 -1.42505 0
M  V30 5922 O 763.26 -8.3501 -2.60497 0
M  V30 5923 C 761.853 -6.80225 -1.25468 0
M  V30 5924 O 762.652 -5.81621 -1.91066 0
M  V30 5925 C 760.516 -7.02416 -1.9168 0
M  V30 5926 H 760.548 -6.6888 -2.96621 0
M  V30 5927 H 761.731 -6.53617 -0.192223 0
M  V30 5928 H 763.215 -8.36622 -0.589963 0
M  V30 5929 H 761.521 -10.0291 -1.79807 0
M  V30 5930 H 761.331 -10.2138 0.558219 0
M  V30 5931 H 759.701 -9.6579 0.0444202 0
M  V30 5932 H 762.34 -5.69556 -2.79637 0
M  V30 5933 P 764.198 -8.4349 -2.47671 0
M  V30 5934 O 765.62 -8.92593 -2.65 0
M  V30 5935 O 763.838 -7.7568 -1.19296 0
M  V30 5936 O 763.875 -7.36886 -3.63805 0
M  V30 5937 C 763.715 -7.95349 -4.982 0
M  V30 5938 C 764.255 -6.94612 -5.98974 0
M  V30 5939 O 763.199 -6.10347 -6.11815 0
M  V30 5940 C 765.473 -6.11426 -5.62335 0
M  V30 5941 O 766.211 -5.6162 -6.70584 0
M  V30 5942 C 764.804 -5.04409 -4.73308 0
M  V30 5943 O 765.603 -3.85992 -4.75183 0
M  V30 5944 C 763.467 -4.8728 -5.41006 0
M  V30 5945 H 763.499 -4.02333 -6.11157 0
M  V30 5946 H 764.682 -5.39466 -3.69543 0
M  V30 5947 H 766.166 -6.71916 -5.01943 0
M  V30 5948 H 764.472 -7.4649 -6.93477 0
M  V30 5949 H 764.282 -8.89416 -5.05237 0
M  V30 5950 H 762.652 -8.14876 -5.18409 0
M  V30 5951 H 765.291 -3.27957 -5.4317 0
M  V30 5952 P 767.148 -5.75688 -6.64379 0
M  V30 5953 O 768.57 -6.07627 -7.05504 0
M  V30 5954 O 766.788 -5.88047 -5.19722 0
M  V30 5955 O 766.825 -4.2322 -7.04443 0
M  V30 5956 C 766.665 -3.99743 -8.4911 0
M  V30 5957 C 767.205 -2.60516 -8.79425 0
M  V30 5958 O 766.149 -1.82684 -8.4467 0
M  V30 5959 C 768.423 -2.10343 -8.03628 0
M  V30 5960 O 769.161 -1.09919 -8.67766 0
M  V30 5961 C 767.754 -1.68446 -6.70876 0
M  V30 5962 O 768.553 -0.678137 -6.08433 0
M  V30 5963 C 766.417 -1.17436 -7.18567 0
M  V30 5964 H 766.449 -0.0804732 -7.31656 0
M  V30 5965 H 767.632 -2.54037 -6.02537 0
M  V30 5966 H 769.116 -2.93881 -7.85526 0
M  V30 5967 H 767.422 -2.53065 -9.86973 0
M  V30 5968 H 767.232 -4.75072 -9.05887 0
M  V30 5969 H 765.602 -4.05244 -8.76668 0
M  V30 5970 H 768.241 0.177647 -6.34251 0
M  V30 5971 P 770.099 -1.25109 -8.70152 0
M  V30 5972 O 771.521 -1.29744 -9.22016 0
M  V30 5973 O 769.739 -2.13714 -7.55141 0
M  V30 5974 O 769.776 0.248149 -8.21425 0
M  V30 5975 C 769.616 1.22779 -9.30434 0
M  V30 5976 C 770.156 2.56293 -8.80664 0
M  V30 5977 O 769.1 3.02979 -8.09349 0
M  V30 5978 C 771.374 2.57523 -7.89775 0
M  V30 5979 O 772.112 3.7668 -7.89438 0
M  V30 5980 C 770.705 2.20997 -6.55446 0
M  V30 5981 O 771.504 2.71895 -5.48509 0
M  V30 5982 C 769.368 2.89693 -6.67988 0
M  V30 5983 H 769.4 3.88793 -6.19859 0
M  V30 5984 H 770.583 1.12046 -6.44229 0
M  V30 5985 H 772.067 1.7746 -8.19711 0
M  V30 5986 H 770.373 3.20706 -9.67112 0
M  V30 5987 H 770.183 0.901032 -10.1892 0
M  V30 5988 H 768.553 1.33049 -9.56592 0
M  V30 5989 H 771.192 3.57847 -5.23962 0
M  V30 5990 P 773.049 3.65191 -7.99657 0
M  V30 5991 O 774.47 3.89374 -8.45885 0
M  V30 5992 O 772.689 2.28472 -7.50807 0
M  V30 5993 O 772.726 4.64972 -6.77611 0
M  V30 5994 C 772.565 6.06383 -7.16428 0
M  V30 5995 C 773.106 6.91731 -6.02299 0
M  V30 5996 O 772.051 6.92369 -5.17005 0
M  V30 5997 C 774.324 6.43627 -5.25174 0
M  V30 5998 O 775.062 7.43686 -4.60469 0
M  V30 5999 C 773.656 5.40275 -4.31916 0
M  V30 6000 O 774.454 5.24878 -3.14911 0
M  V30 6001 C 772.318 6.04847 -4.05327 0
M  V30 6002 N 771.275 5.04166 -3.98114 0
M  V30 6003 C 771.444 3.84629 -4.59066 0
M  V30 6004 N 770.417 3.0363 -4.45343 0
M  V30 6005 C 769.532 3.76722 -3.68523 0
M  V30 6006 C 768.265 3.43528 -3.17088 0
M  V30 6007 N 767.7 4.44526 -2.44231 0
M  V30 6008 C 768.302 5.65243 -2.20146 0
M  V30 6009 N 769.479 6.00221 -2.65453 0
M  V30 6010 C 770.054 5.00564 -3.39083 0
M  V30 6011 H 773.533 4.42969 -4.80867 0
M  V30 6012 H 775.016 5.92458 -5.93643 0
M  V30 6013 H 773.322 7.93295 -6.39407 0
M  V30 6014 H 773.132 6.26671 -8.0846 0
M  V30 6015 H 771.502 6.29101 -7.32804 0
M  V30 6016 H 772.344 3.58193 -5.14248 0
M  V30 6017 H 774.142 5.84223 -2.47279 0
M  V30 6018 P 776 7.39546 -4.75277 0
M  V30 6019 O 777.422 7.84798 -5.01039 0
M  V30 6020 O 775.64 5.9812 -5.08098 0
M  V30 6021 O 775.677 7.57503 -3.1866 0
M  V30 6022 C 775.517 8.97357 -2.74833 0
M  V30 6023 C 776.057 9.07548 -1.32709 0
M  V30 6024 O 775.001 8.62072 -0.606159 0
M  V30 6025 C 777.275 8.25383 -0.938334 0
M  V30 6026 O 778.013 8.74577 0.146954 0
M  V30 6027 C 776.606 6.8802 -0.712559 0
M  V30 6028 O 777.405 6.1189 0.194655 0
M  V30 6029 C 775.269 7.27966 -0.139777 0
M  V30 6030 H 775.301 7.25354 0.961601 0
M  V30 6031 H 776.484 6.32557 -1.65702 0
M  V30 6032 H 777.968 8.19355 -1.79097 0
M  V30 6033 H 776.274 10.1294 -1.10029 0
M  V30 6034 H 776.084 9.64276 -3.41316 0
M  V30 6035 H 774.454 9.25417 -2.76357 0
M  V30 6036 H 777.093 6.25267 1.07847 0
M  V30 6037 P 778.95 8.791 5.69499e-12 0
M  V30 6038 O 780.372 9.31096 0.027933 0
M  V30 6039 O 778.59 7.77869 -1.04071 0
M  V30 6040 O 778.627 8.09533 1.41463 0
M  V30 6041 C 778.467 9.0349 2.53943 0
M  V30 6042 C 779.007 8.35226 3.79016 0
M  V30 6043 O 777.951 7.57992 4.15078 0
M  V30 6044 C 780.225 7.45087 3.67298 0
M  V30 6045 O 780.963 7.27796 4.85194 0
M  V30 6046 C 779.556 6.17323 3.12027 0
M  V30 6047 O 780.355 5.04231 3.47188 0
M  V30 6048 C 778.219 6.19961 3.81809 0
M  V30 6049 H 778.251 5.58218 4.73051 0
M  V30 6050 H 779.434 6.21726 2.02589 0
M  V30 6051 H 780.918 7.86112 2.9231 0
M  V30 6052 H 779.224 9.11627 4.55076 0
M  V30 6053 H 779.034 9.9573 2.34194 0
M  V30 6054 H 777.404 9.2792 2.67832 0
M  V30 6055 H 780.043 4.67702 4.28772 0
M  V30 6056 P 781.901 7.39546 4.75277 0
M  V30 6057 O 783.323 7.81777 5.05738 0
M  V30 6058 O 781.541 7.1065 3.32998 0
M  V30 6059 O 781.578 6.04542 5.56673 0
M  V30 6060 C 781.418 6.22772 7.02095 0
M  V30 6061 C 781.958 4.97725 7.70406 0
M  V30 6062 O 780.902 4.13256 7.58987 0
M  V30 6063 C 783.176 4.28231 7.11815 0
M  V30 6064 O 783.914 3.49945 8.01648 0
M  V30 6065 C 782.507 3.5063 5.96244 0
M  V30 6066 O 783.306 2.36482 5.64681 0
M  V30 6067 C 781.17 3.15122 6.56374 0
M  V30 6068 H 781.202 2.13853 6.99751 0
M  V30 6069 H 782.385 4.13501 5.06559 0
M  V30 6070 H 783.869 5.03285 6.70911 0
M  V30 6071 H 782.175 5.20877 8.75697 0
M  V30 6072 H 781.985 7.11046 7.35349 0
M  V30 6073 H 780.355 6.35815 7.26986 0
M  V30 6074 H 782.994 1.61644 6.13565 0
M  V30 6075 P 784.852 3.65191 7.99657 0
M  V30 6076 O 786.274 3.8425 8.48115 0
M  V30 6077 O 784.492 4.17805 6.64342 0
M  V30 6078 O 784.529 2.07613 7.95143 0
M  V30 6079 C 784.369 1.44328 9.27336 0
M  V30 6080 C 784.909 0.0220036 9.17197 0
M  V30 6081 O 783.853 -0.626867 8.61923 0
M  V30 6082 C 786.127 -0.24586 8.30336 0
M  V30 6083 O 786.865 -1.39011 8.63583 0
M  V30 6084 C 785.458 -0.273849 6.91158 0
M  V30 6085 O 786.257 -1.06348 6.02892 0
M  V30 6086 C 784.121 -0.897649 7.22545 0
M  V30 6087 H 784.153 -1.9841 7.04286 0
M  V30 6088 H 785.336 0.739928 6.497 0
M  V30 6089 H 786.82 0.60668 8.36503 0
M  V30 6090 H 785.126 -0.352479 10.1829 0
M  V30 6091 H 784.936 2.00611 10.0304 0
M  V30 6092 H 783.306 1.41843 9.55327 0
M  V30 6093 H 785.945 -1.95734 6.03555 0
M  V30 6094 P 787.802 -1.25109 8.70152 0
M  V30 6095 O 789.224 -1.35274 9.21221 0
M  V30 6096 O 787.442 -0.0769065 7.84762 0
M  V30 6097 O 787.479 -2.55232 7.81161 0
M  V30 6098 C 787.319 -3.79939 8.58154 0
M  V30 6099 C 787.859 -4.94023 7.72785 0
M  V30 6100 O 786.803 -5.18726 6.91205 0
M  V30 6101 C 789.077 -4.69597 6.85231 0
M  V30 6102 O 789.815 -5.83832 6.51337 0
M  V30 6103 C 788.408 -3.96706 5.66633 0
M  V30 6104 O 789.207 -4.15414 4.49689 0
M  V30 6105 C 787.071 -4.66153 5.59313 0
M  V30 6106 H 787.103 -5.47679 4.85214 0
M  V30 6107 H 788.286 -2.89008 5.86566 0
M  V30 6108 H 789.77 -4.0121 7.36511 0
M  V30 6109 H 788.076 -5.80182 8.37584 0
M  V30 6110 H 787.886 -3.73517 9.52265 0
M  V30 6111 H 786.256 -3.97163 8.80359 0
M  V30 6112 H 788.895 -4.90969 4.01921 0
M  V30 6113 P 790.753 -5.75688 6.64379 0
M  V30 6114 O 792.175 -6.11849 7.01846 0
M  V30 6115 O 790.393 -4.30744 6.56026 0
M  V30 6116 O 790.43 -6.37042 5.19165 0
M  V30 6117 C 790.27 -7.83578 5.16515 0
M  V30 6118 C 790.81 -8.33398 3.83019 0
M  V30 6119 O 789.754 -8.10074 3.01034 0
M  V30 6120 C 792.028 -7.65514 3.2257 0
M  V30 6121 O 792.766 -8.4329 2.32297 0
M  V30 6122 C 791.359 -6.40075 2.62207 0
M  V30 6123 O 792.158 -5.92589 1.53712 0
M  V30 6124 C 790.022 -6.9454 2.18503 0
M  V30 6125 H 790.054 -7.23063 1.12091 0
M  V30 6126 H 791.237 -5.6025 3.37201 0
M  V30 6127 H 792.721 -7.35707 4.02681 0
M  V30 6128 H 791.027 -9.40912 3.9095 0
M  V30 6129 H 790.837 -8.29056 5.99158 0
M  V30 6130 H 789.207 -8.10073 5.25882 0
M  V30 6131 H 791.846 -6.30324 0.726794 0
M  V30 6132 P 793.703 -8.4349 2.47671 0
M  V30 6133 O 795.124 -8.94263 2.59668 0
M  V30 6134 O 793.343 -7.1704 3.19006 0
M  V30 6135 O 793.38 -8.16596 0.923387 0
M  V30 6136 C 793.219 -9.38537 0.108869 0
M  V30 6137 C 793.76 -9.08175 -1.28353 0
M  V30 6138 O 792.705 -8.44131 -1.84692 0
M  V30 6139 C 794.978 -8.18386 -1.42505 0
M  V30 6140 O 795.716 -8.3501 -2.60497 0
M  V30 6141 C 794.31 -6.80225 -1.25468 0
M  V30 6142 O 795.108 -5.81716 -1.90454 0
M  V30 6143 C 792.972 -7.02416 -1.9168 0
M  V30 6144 N 791.929 -6.31033 -1.20314 0
M  V30 6145 C 792.098 -5.98817 0.0994088 0
M  V30 6146 N 791.071 -5.35403 0.621694 0
M  V30 6147 C 790.186 -5.25212 -0.43376 0
M  V30 6148 C 788.919 -4.64602 -0.519722 0
M  V30 6149 N 788.354 -4.7568 -1.76013 0
M  V30 6150 C 788.956 -5.3653 -2.83017 0
M  V30 6151 N 790.133 -5.93676 -2.79782 0
M  V30 6152 C 790.708 -5.84061 -1.56249 0
M  V30 6153 H 794.187 -6.53498 -0.198729 0
M  V30 6154 H 795.67 -8.36622 -0.589963 0
M  V30 6155 H 793.976 -10.0273 -1.8081 0
M  V30 6156 H 793.786 -10.2138 0.558219 0
M  V30 6157 H 792.156 -9.6579 0.0444202 0
M  V30 6158 H 792.998 -6.23209 0.660562 0
M  V30 6159 H 794.796 -5.69466 -2.79593 0
M  V30 6160 P 796.654 -8.4349 -2.47671 0
M  V30 6161 O 798.076 -8.92593 -2.65 0
M  V30 6162 O 796.294 -7.7568 -1.19296 0
M  V30 6163 O 796.331 -7.36886 -3.63805 0
M  V30 6164 C 796.171 -7.95349 -4.982 0
M  V30 6165 C 796.711 -6.94612 -5.98974 0
M  V30 6166 O 795.655 -6.10347 -6.11815 0
M  V30 6167 C 797.929 -6.11426 -5.62335 0
M  V30 6168 O 798.667 -5.6162 -6.70584 0
M  V30 6169 C 797.26 -5.04409 -4.73308 0
M  V30 6170 O 798.059 -3.85992 -4.75183 0
M  V30 6171 C 795.923 -4.8728 -5.41006 0
M  V30 6172 H 795.955 -4.02333 -6.11157 0
M  V30 6173 H 797.138 -5.39466 -3.69543 0
M  V30 6174 H 798.622 -6.71916 -5.01943 0
M  V30 6175 H 796.928 -7.4649 -6.93477 0
M  V30 6176 H 796.738 -8.89416 -5.05237 0
M  V30 6177 H 795.108 -8.14876 -5.18409 0
M  V30 6178 H 797.747 -3.27957 -5.4317 0
M  V30 6179 P 799.604 -5.75688 -6.64379 0
M  V30 6180 O 801.026 -6.07627 -7.05504 0
M  V30 6181 O 799.244 -5.88047 -5.19722 0
M  V30 6182 O 799.281 -4.2322 -7.04443 0
M  V30 6183 C 799.121 -3.99743 -8.4911 0
M  V30 6184 C 799.661 -2.60516 -8.79425 0
M  V30 6185 O 798.605 -1.82684 -8.4467 0
M  V30 6186 C 800.879 -2.10343 -8.03628 0
M  V30 6187 O 801.617 -1.09919 -8.67766 0
M  V30 6188 C 800.21 -1.68446 -6.70876 0
M  V30 6189 O 801.009 -0.678137 -6.08433 0
M  V30 6190 C 798.873 -1.17436 -7.18567 0
M  V30 6191 H 798.905 -0.0804732 -7.31656 0
M  V30 6192 H 800.088 -2.54037 -6.02537 0
M  V30 6193 H 801.572 -2.93881 -7.85526 0
M  V30 6194 H 799.878 -2.53065 -9.86973 0
M  V30 6195 H 799.688 -4.75072 -9.05887 0
M  V30 6196 H 798.058 -4.05244 -8.76668 0
M  V30 6197 H 800.697 0.177647 -6.34251 0
M  V30 6198 P 802.555 -1.25109 -8.70152 0
M  V30 6199 O 803.976 -1.29758 -9.22115 0
M  V30 6200 O 802.195 -2.13714 -7.55141 0
M  V30 6201 O 802.232 0.248149 -8.21425 0
M  V30 6202 C 802.071 1.22792 -9.30533 0
M  V30 6203 C 802.612 2.56293 -8.80664 0
M  V30 6204 O 801.557 3.02944 -8.09255 0
M  V30 6205 C 803.83 2.57523 -7.89775 0
M  V30 6206 O 804.568 3.7668 -7.89438 0
M  V30 6207 C 803.162 2.20997 -6.55446 0
M  V30 6208 O 803.96 2.71302 -5.48691 0
M  V30 6209 C 801.824 2.89693 -6.67988 0
M  V30 6210 N 800.781 2.08895 -6.07487 0
M  V30 6211 C 800.95 0.753809 -5.94137 0
M  V30 6212 N 799.923 0.146592 -5.38801 0
M  V30 6213 C 799.038 1.1768 -5.13693 0
M  V30 6214 C 797.771 1.17563 -4.52477 0
M  V30 6215 N 797.206 2.41918 -4.45789 0
M  V30 6216 C 797.808 3.56493 -4.90792 0
M  V30 6217 N 798.985 3.61423 -5.47817 0
M  V30 6218 C 799.56 2.37779 -5.5588 0
M  V30 6219 H 803.039 1.12673 -6.44018 0
M  V30 6220 H 804.522 1.7746 -8.19711 0
M  V30 6221 H 802.828 3.21673 -9.66791 0
M  V30 6222 H 802.638 0.901032 -10.1892 0
M  V30 6223 H 801.008 1.33049 -9.56592 0
M  V30 6224 H 801.85 0.233081 -6.26266 0
M  V30 6225 H 803.648 3.5779 -5.23879 0
M  V30 6226 P 805.506 3.65191 -7.99657 0
M  V30 6227 O 806.928 3.89332 -8.45794 0
M  V30 6228 O 805.146 2.28472 -7.50807 0
M  V30 6229 O 805.183 4.64972 -6.77611 0
M  V30 6230 C 805.023 6.06319 -7.16352 0
M  V30 6231 C 805.563 6.91731 -6.02299 0
M  V30 6232 O 804.507 6.92449 -5.17064 0
M  V30 6233 C 806.781 6.43627 -5.25174 0
M  V30 6234 O 807.519 7.43686 -4.60469 0
M  V30 6235 C 806.112 5.40275 -4.31916 0
M  V30 6236 O 806.911 5.25279 -3.14438 0
M  V30 6237 C 804.775 6.04847 -4.05327 0
M  V30 6238 H 804.807 6.62195 -3.11261 0
M  V30 6239 H 805.99 4.42556 -4.81383 0
M  V30 6240 H 807.474 5.92458 -5.93643 0
M  V30 6241 H 805.78 7.92655 -6.402 0
M  V30 6242 H 805.59 6.26671 -8.0846 0
M  V30 6243 H 803.96 6.29101 -7.32804 0
M  V30 6244 H 806.599 5.84315 -2.47318 0
M  V30 6245 P 808.456 7.39546 -4.75277 0
M  V30 6246 O 809.878 7.84798 -5.01039 0
M  V30 6247 O 808.096 5.9812 -5.08098 0
M  V30 6248 O 808.133 7.57503 -3.1866 0
M  V30 6249 C 807.973 8.97357 -2.74833 0
M  V30 6250 C 808.513 9.07548 -1.32709 0
M  V30 6251 O 807.457 8.62072 -0.606159 0
M  V30 6252 C 809.731 8.25383 -0.938334 0
M  V30 6253 O 810.469 8.74577 0.146954 0
M  V30 6254 C 809.062 6.8802 -0.712559 0
M  V30 6255 O 809.861 6.1189 0.194655 0
M  V30 6256 C 807.725 7.27966 -0.139777 0
M  V30 6257 H 807.757 7.25354 0.961601 0
M  V30 6258 H 808.94 6.32557 -1.65702 0
M  V30 6259 H 810.424 8.19355 -1.79097 0
M  V30 6260 H 808.73 10.1294 -1.10029 0
M  V30 6261 H 808.54 9.64276 -3.41316 0
M  V30 6262 H 806.91 9.25417 -2.76357 0
M  V30 6263 H 809.549 6.25267 1.07847 0
M  V30 6264 P 811.407 8.791 6.00516e-12 0
M  V30 6265 O 812.829 9.31096 0.027933 0
M  V30 6266 O 811.047 7.77869 -1.04071 0
M  V30 6267 O 811.084 8.09533 1.41463 0
M  V30 6268 C 810.924 9.0349 2.53943 0
M  V30 6269 C 811.464 8.35226 3.79016 0
M  V30 6270 O 810.408 7.57992 4.15078 0
M  V30 6271 C 812.682 7.45087 3.67298 0
M  V30 6272 O 813.42 7.27796 4.85194 0
M  V30 6273 C 812.013 6.17323 3.12027 0
M  V30 6274 O 812.812 5.04231 3.47188 0
M  V30 6275 C 810.676 6.19961 3.81809 0
M  V30 6276 H 810.708 5.58218 4.73051 0
M  V30 6277 H 811.891 6.21726 2.02589 0
M  V30 6278 H 813.375 7.86112 2.9231 0
M  V30 6279 H 811.681 9.11627 4.55076 0
M  V30 6280 H 811.491 9.9573 2.34194 0
M  V30 6281 H 809.861 9.2792 2.67832 0
M  V30 6282 H 812.5 4.67702 4.28772 0
M  V30 6283 P 814.357 7.39546 4.75277 0
M  V30 6284 O 815.779 7.81777 5.05738 0
M  V30 6285 O 813.997 7.1065 3.32998 0
M  V30 6286 O 814.034 6.04542 5.56673 0
M  V30 6287 C 813.874 6.22772 7.02095 0
M  V30 6288 C 814.414 4.97725 7.70406 0
M  V30 6289 O 813.358 4.13256 7.58987 0
M  V30 6290 C 815.632 4.28231 7.11815 0
M  V30 6291 O 816.37 3.49945 8.01648 0
M  V30 6292 C 814.963 3.5063 5.96244 0
M  V30 6293 O 815.762 2.36482 5.64681 0
M  V30 6294 C 813.626 3.15122 6.56374 0
M  V30 6295 H 813.658 2.13853 6.99751 0
M  V30 6296 H 814.841 4.13501 5.06559 0
M  V30 6297 H 816.325 5.03285 6.70911 0
M  V30 6298 H 814.631 5.20877 8.75697 0
M  V30 6299 H 814.441 7.11046 7.35349 0
M  V30 6300 H 812.811 6.35815 7.26986 0
M  V30 6301 H 815.45 1.61644 6.13565 0
M  V30 6302 P 817.308 3.65191 7.99657 0
M  V30 6303 O 818.73 3.8425 8.48115 0
M  V30 6304 O 816.948 4.17805 6.64342 0
M  V30 6305 O 816.985 2.07613 7.95143 0
M  V30 6306 C 816.825 1.44328 9.27336 0
M  V30 6307 C 817.365 0.0220036 9.17197 0
M  V30 6308 O 816.309 -0.626867 8.61923 0
M  V30 6309 C 818.583 -0.24586 8.30336 0
M  V30 6310 O 819.321 -1.39011 8.63583 0
M  V30 6311 C 817.914 -0.273849 6.91158 0
M  V30 6312 O 818.713 -1.06348 6.02892 0
M  V30 6313 C 816.577 -0.897649 7.22545 0
M  V30 6314 H 816.609 -1.9841 7.04286 0
M  V30 6315 H 817.792 0.739928 6.497 0
M  V30 6316 H 819.276 0.60668 8.36503 0
M  V30 6317 H 817.582 -0.352479 10.1829 0
M  V30 6318 H 817.392 2.00611 10.0304 0
M  V30 6319 H 815.762 1.41843 9.55327 0
M  V30 6320 H 818.401 -1.95734 6.03555 0
M  V30 6321 P 820.258 -1.25109 8.70152 0
M  V30 6322 O 821.68 -1.35274 9.21221 0
M  V30 6323 O 819.898 -0.0769065 7.84762 0
M  V30 6324 O 819.935 -2.55232 7.81161 0
M  V30 6325 C 819.775 -3.79939 8.58154 0
M  V30 6326 C 820.315 -4.94023 7.72785 0
M  V30 6327 O 819.259 -5.18726 6.91205 0
M  V30 6328 C 821.533 -4.69597 6.85231 0
M  V30 6329 O 822.271 -5.83832 6.51337 0
M  V30 6330 C 820.864 -3.96706 5.66633 0
M  V30 6331 O 821.663 -4.15414 4.49689 0
M  V30 6332 C 819.527 -4.66153 5.59313 0
M  V30 6333 H 819.559 -5.47679 4.85214 0
M  V30 6334 H 820.742 -2.89008 5.86566 0
M  V30 6335 H 822.226 -4.0121 7.36511 0
M  V30 6336 H 820.532 -5.80182 8.37584 0
M  V30 6337 H 820.342 -3.73517 9.52265 0
M  V30 6338 H 818.712 -3.97163 8.80359 0
M  V30 6339 H 821.351 -4.90969 4.01921 0
M  V30 6340 P 823.209 -5.75688 6.64379 0
M  V30 6341 O 824.63 -6.11915 7.01921 0
M  V30 6342 O 822.849 -4.30744 6.56026 0
M  V30 6343 O 822.886 -6.37042 5.19165 0
M  V30 6344 C 822.725 -7.83662 5.1657 0
M  V30 6345 C 823.266 -8.33398 3.83019 0
M  V30 6346 O 822.211 -8.0998 3.00999 0
M  V30 6347 C 824.484 -7.65514 3.2257 0
M  V30 6348 O 825.222 -8.4329 2.32297 0
M  V30 6349 C 823.816 -6.40075 2.62207 0
M  V30 6350 O 824.614 -5.92338 1.5428 0
M  V30 6351 C 822.478 -6.9454 2.18503 0
M  V30 6352 N 821.435 -5.95905 2.39948 0
M  V30 6353 C 821.604 -4.98383 3.32108 0
M  V30 6354 N 820.577 -4.16798 3.41761 0
M  V30 6355 C 819.692 -4.65287 2.47461 0
M  V30 6356 C 818.425 -4.18946 2.07461 0
M  V30 6357 N 817.826 -3.09661 2.60717 0
M  V30 6358 N 817.86 -4.95327 1.09101 0
M  V30 6359 C 818.462 -6.04369 0.519812 0
M  V30 6360 N 819.639 -6.50694 0.855982 0
M  V30 6361 C 820.214 -5.75818 1.84322 0
M  V30 6362 H 822.51 -7.22964 1.12076 0
M  V30 6363 H 823.693 -5.60502 3.36589 0
M  V30 6364 H 825.176 -7.35707 4.02681 0
M  V30 6365 H 823.482 -9.41302 3.90009 0
M  V30 6366 H 823.292 -8.29056 5.99158 0
M  V30 6367 H 821.662 -8.10073 5.25882 0
M  V30 6368 H 817.926 -6.55843 -0.270373 0
M  V30 6369 H 822.504 -4.88564 3.92502 0
M  V30 6370 H 816.896 -2.80523 2.27218 0
M  V30 6371 H 818.3 -2.55848 3.34465 0
M  V30 6372 H 824.302 -6.30224 0.72668 0
M  V30 6373 P 826.16 -8.4349 2.47671 0
M  V30 6374 O 827.582 -8.94167 2.5964 0
M  V30 6375 O 825.8 -7.1704 3.19006 0
M  V30 6376 O 825.837 -8.16596 0.923387 0
M  V30 6377 C 825.677 -9.38437 0.108857 0
M  V30 6378 C 826.217 -9.08175 -1.28353 0
M  V30 6379 O 825.161 -8.44229 -1.84713 0
M  V30 6380 C 827.435 -8.18386 -1.42505 0
M  V30 6381 O 828.173 -8.3501 -2.60497 0
M  V30 6382 C 826.766 -6.80225 -1.25468 0
M  V30 6383 O 827.565 -5.81621 -1.91066 0
M  V30 6384 C 825.429 -7.02416 -1.9168 0
M  V30 6385 H 825.461 -6.6888 -2.96621 0
M  V30 6386 H 826.644 -6.53617 -0.192223 0
M  V30 6387 H 828.128 -8.36622 -0.589963 0
M  V30 6388 H 826.434 -10.0291 -1.79807 0
M  V30 6389 H 826.244 -10.2138 0.558219 0
M  V30 6390 H 824.614 -9.6579 0.0444202 0
M  V30 6391 H 827.253 -5.69556 -2.79637 0
M  V30 6392 P 829.11 -8.4349 -2.47671 0
M  V30 6393 O 830.532 -8.92593 -2.65 0
M  V30 6394 O 828.75 -7.7568 -1.19296 0
M  V30 6395 O 828.787 -7.36886 -3.63805 0
M  V30 6396 C 828.627 -7.95349 -4.982 0
M  V30 6397 C 829.167 -6.94612 -5.98974 0
M  V30 6398 O 828.111 -6.10347 -6.11815 0
M  V30 6399 C 830.385 -6.11426 -5.62335 0
M  V30 6400 O 831.123 -5.6162 -6.70584 0
M  V30 6401 C 829.716 -5.04409 -4.73308 0
M  V30 6402 O 830.515 -3.85992 -4.75183 0
M  V30 6403 C 828.379 -4.8728 -5.41006 0
M  V30 6404 H 828.411 -4.02333 -6.11157 0
M  V30 6405 H 829.594 -5.39466 -3.69543 0
M  V30 6406 H 831.078 -6.71916 -5.01943 0
M  V30 6407 H 829.384 -7.4649 -6.93477 0
M  V30 6408 H 829.194 -8.89416 -5.05237 0
M  V30 6409 H 827.564 -8.14876 -5.18409 0
M  V30 6410 H 830.203 -3.27957 -5.4317 0
M  V30 6411 P 832.061 -5.75688 -6.64379 0
M  V30 6412 O 833.483 -6.07627 -7.05504 0
M  V30 6413 O 831.701 -5.88047 -5.19722 0
M  V30 6414 O 831.738 -4.2322 -7.04443 0
M  V30 6415 C 831.578 -3.99743 -8.4911 0
M  V30 6416 C 832.118 -2.60516 -8.79425 0
M  V30 6417 O 831.062 -1.82684 -8.4467 0
M  V30 6418 C 833.336 -2.10343 -8.03628 0
M  V30 6419 O 834.074 -1.09919 -8.67766 0
M  V30 6420 C 832.667 -1.68446 -6.70876 0
M  V30 6421 O 833.466 -0.678137 -6.08433 0
M  V30 6422 C 831.33 -1.17436 -7.18567 0
M  V30 6423 H 831.362 -0.0804732 -7.31656 0
M  V30 6424 H 832.545 -2.54037 -6.02537 0
M  V30 6425 H 834.029 -2.93881 -7.85526 0
M  V30 6426 H 832.335 -2.53065 -9.86973 0
M  V30 6427 H 832.145 -4.75072 -9.05887 0
M  V30 6428 H 830.515 -4.05244 -8.76668 0
M  V30 6429 H 833.154 0.177647 -6.34251 0
M  V30 6430 P 835.011 -1.25109 -8.70152 0
M  V30 6431 O 836.433 -1.29744 -9.22016 0
M  V30 6432 O 834.651 -2.13714 -7.55141 0
M  V30 6433 O 834.688 0.248149 -8.21425 0
M  V30 6434 C 834.528 1.22779 -9.30434 0
M  V30 6435 C 835.068 2.56293 -8.80664 0
M  V30 6436 O 834.012 3.02979 -8.09349 0
M  V30 6437 C 836.286 2.57523 -7.89775 0
M  V30 6438 O 837.024 3.7668 -7.89438 0
M  V30 6439 C 835.617 2.20997 -6.55446 0
M  V30 6440 O 836.416 2.71895 -5.48509 0
M  V30 6441 C 834.28 2.89693 -6.67988 0
M  V30 6442 H 834.312 3.88793 -6.19859 0
M  V30 6443 H 835.495 1.12046 -6.44229 0
M  V30 6444 H 836.979 1.7746 -8.19711 0
M  V30 6445 H 835.285 3.20706 -9.67112 0
M  V30 6446 H 835.095 0.901032 -10.1892 0
M  V30 6447 H 833.465 1.33049 -9.56592 0
M  V30 6448 H 836.104 3.57847 -5.23962 0
M  V30 6449 P 837.962 3.65191 -7.99657 0
M  V30 6450 O 839.384 3.89332 -8.45794 0
M  V30 6451 O 837.602 2.28472 -7.50807 0
M  V30 6452 O 837.639 4.64972 -6.77611 0
M  V30 6453 C 837.479 6.06319 -7.16352 0
M  V30 6454 C 838.019 6.91731 -6.02299 0
M  V30 6455 O 836.963 6.92449 -5.17064 0
M  V30 6456 C 839.237 6.43627 -5.25174 0
M  V30 6457 O 839.975 7.43686 -4.60469 0
M  V30 6458 C 838.568 5.40275 -4.31916 0
M  V30 6459 O 839.367 5.25279 -3.14438 0
M  V30 6460 C 837.231 6.04847 -4.05327 0
M  V30 6461 H 837.263 6.62195 -3.11261 0
M  V30 6462 H 838.446 4.42556 -4.81383 0
M  V30 6463 H 839.93 5.92458 -5.93643 0
M  V30 6464 H 838.236 7.92655 -6.402 0
M  V30 6465 H 838.046 6.26671 -8.0846 0
M  V30 6466 H 836.416 6.29101 -7.32804 0
M  V30 6467 H 839.055 5.84315 -2.47318 0
M  V30 6468 P 840.912 7.39546 -4.75277 0
M  V30 6469 O 842.334 7.84798 -5.01039 0
M  V30 6470 O 840.552 5.9812 -5.08098 0
M  V30 6471 O 840.589 7.57503 -3.1866 0
M  V30 6472 C 840.429 8.97357 -2.74833 0
M  V30 6473 C 840.969 9.07548 -1.32709 0
M  V30 6474 O 839.913 8.62072 -0.606159 0
M  V30 6475 C 842.187 8.25383 -0.938334 0
M  V30 6476 O 842.925 8.74577 0.146954 0
M  V30 6477 C 841.518 6.8802 -0.712559 0
M  V30 6478 O 842.317 6.1189 0.194655 0
M  V30 6479 C 840.181 7.27966 -0.139777 0
M  V30 6480 H 840.213 7.25354 0.961601 0
M  V30 6481 H 841.396 6.32557 -1.65702 0
M  V30 6482 H 842.88 8.19355 -1.79097 0
M  V30 6483 H 841.186 10.1294 -1.10029 0
M  V30 6484 H 840.996 9.64276 -3.41316 0
M  V30 6485 H 839.366 9.25417 -2.76357 0
M  V30 6486 H 842.005 6.25267 1.07847 0
M  V30 6487 P 843.863 8.791 6.31533e-12 0
M  V30 6488 O 845.284 9.31196 0.027936 0
M  V30 6489 O 843.503 7.77869 -1.04071 0
M  V30 6490 O 843.54 8.09533 1.41463 0
M  V30 6491 C 843.379 9.03587 2.5397 0
M  V30 6492 C 843.92 8.35226 3.79016 0
M  V30 6493 O 842.865 7.57904 4.1503 0
M  V30 6494 C 845.138 7.45087 3.67298 0
M  V30 6495 O 845.876 7.27796 4.85194 0
M  V30 6496 C 844.47 6.17323 3.12027 0
M  V30 6497 O 845.268 5.04496 3.46627 0
M  V30 6498 C 843.132 6.19961 3.81809 0
M  V30 6499 N 842.089 5.71575 2.93223 0
M  V30 6500 C 842.258 5.77362 1.59168 0
M  V30 6501 N 841.231 5.3123 0.911893 0
M  V30 6502 C 840.346 4.91717 1.89588 0
M  V30 6503 C 839.079 4.3114 1.8076 0
M  V30 6504 N 838.514 4.06823 3.02898 0
M  V30 6505 C 839.116 4.35062 4.22711 0
M  V30 6506 N 840.293 4.90805 4.35707 0
M  V30 6507 C 840.868 5.16382 3.14469 0
M  V30 6508 H 844.347 6.21428 2.0318 0
M  V30 6509 H 845.83 7.86112 2.9231 0
M  V30 6510 H 844.136 9.11171 4.55987 0
M  V30 6511 H 843.946 9.9573 2.34194 0
M  V30 6512 H 842.316 9.2792 2.67832 0
M  V30 6513 H 843.158 6.16575 1.12198 0
M  V30 6514 H 844.956 4.67628 4.28704 0
M  V30 6515 P 846.814 7.39546 4.75277 0
M  V30 6516 O 848.236 7.81777 5.05738 0
M  V30 6517 O 846.454 7.1065 3.32998 0
M  V30 6518 O 846.491 6.04542 5.56673 0
M  V30 6519 C 846.331 6.22772 7.02095 0
M  V30 6520 C 846.871 4.97725 7.70406 0
M  V30 6521 O 845.815 4.13256 7.58987 0
M  V30 6522 C 848.089 4.28231 7.11815 0
M  V30 6523 O 848.827 3.49945 8.01648 0
M  V30 6524 C 847.42 3.5063 5.96244 0
M  V30 6525 O 848.219 2.36482 5.64681 0
M  V30 6526 C 846.083 3.15122 6.56374 0
M  V30 6527 H 846.115 2.13853 6.99751 0
M  V30 6528 H 847.298 4.13501 5.06559 0
M  V30 6529 H 848.782 5.03285 6.70911 0
M  V30 6530 H 847.088 5.20877 8.75697 0
M  V30 6531 H 846.898 7.11046 7.35349 0
M  V30 6532 H 845.268 6.35815 7.26986 0
M  V30 6533 H 847.907 1.61644 6.13565 0
M  V30 6534 P 849.764 3.65191 7.99657 0
M  V30 6535 O 851.186 3.8425 8.48115 0
M  V30 6536 O 849.404 4.17805 6.64342 0
M  V30 6537 O 849.441 2.07613 7.95143 0
M  V30 6538 C 849.281 1.44328 9.27336 0
M  V30 6539 C 849.821 0.0220036 9.17197 0
M  V30 6540 O 848.765 -0.626867 8.61923 0
M  V30 6541 C 851.039 -0.24586 8.30336 0
M  V30 6542 O 851.777 -1.39011 8.63583 0
M  V30 6543 C 850.37 -0.273849 6.91158 0
M  V30 6544 O 851.169 -1.06348 6.02892 0
M  V30 6545 C 849.033 -0.897649 7.22545 0
M  V30 6546 H 849.065 -1.9841 7.04286 0
M  V30 6547 H 850.248 0.739928 6.497 0
M  V30 6548 H 851.732 0.60668 8.36503 0
M  V30 6549 H 850.038 -0.352479 10.1829 0
M  V30 6550 H 849.848 2.00611 10.0304 0
M  V30 6551 H 848.218 1.41843 9.55327 0
M  V30 6552 H 850.857 -1.95734 6.03555 0
M  V30 6553 P 852.715 -1.25109 8.70152 0
M  V30 6554 O 854.136 -1.35288 9.2132 0
M  V30 6555 O 852.355 -0.0769065 7.84762 0
M  V30 6556 O 852.392 -2.55232 7.81161 0
M  V30 6557 C 852.231 -3.79979 8.58246 0
M  V30 6558 C 852.772 -4.94023 7.72785 0
M  V30 6559 O 851.717 -5.18666 6.91125 0
M  V30 6560 C 853.99 -4.69597 6.85231 0
M  V30 6561 O 854.728 -5.83832 6.51337 0
M  V30 6562 C 853.322 -3.96706 5.66633 0
M  V30 6563 O 854.12 -4.14896 4.5003 0
M  V30 6564 C 851.984 -4.66153 5.59313 0
M  V30 6565 N 850.941 -3.71582 5.24027 0
M  V30 6566 C 851.11 -2.39715 5.48833 0
M  V30 6567 N 850.083 -1.65863 5.12845 0
M  V30 6568 C 849.198 -2.57637 4.5973 0
M  V30 6569 C 847.931 -2.40278 4.01027 0
M  V30 6570 N 847.332 -1.19549 3.86744 0
M  V30 6571 N 847.366 -3.57711 3.59575 0
M  V30 6572 C 847.968 -4.80324 3.70476 0
M  V30 6573 N 849.145 -5.01121 4.23801 0
M  V30 6574 C 849.72 -3.84757 4.66372 0
M  V30 6575 H 852.016 -5.47604 4.85148 0
M  V30 6576 H 853.199 -2.8955 5.86187 0
M  V30 6577 H 854.682 -4.0121 7.36511 0
M  V30 6578 H 852.988 -5.81019 8.37003 0
M  V30 6579 H 852.798 -3.73517 9.52265 0
M  V30 6580 H 851.168 -3.97163 8.80359 0
M  V30 6581 H 847.432 -5.66348 3.3183 0
M  V30 6582 H 852.01 -1.98804 5.94332 0
M  V30 6583 H 846.402 -1.13147 3.4281 0
M  V30 6584 H 847.806 -0.344074 4.19692 0
M  V30 6585 H 853.808 -4.90891 4.01857 0
M  V30 6586 P 855.665 -5.75688 6.64379 0
M  V30 6587 O 857.087 -6.11849 7.01846 0
M  V30 6588 O 855.305 -4.30744 6.56026 0
M  V30 6589 O 855.342 -6.37042 5.19165 0
M  V30 6590 C 855.182 -7.83578 5.16515 0
M  V30 6591 C 855.722 -8.33398 3.83019 0
M  V30 6592 O 854.666 -8.10074 3.01034 0
M  V30 6593 C 856.94 -7.65514 3.2257 0
M  V30 6594 O 857.678 -8.4329 2.32297 0
M  V30 6595 C 856.271 -6.40075 2.62207 0
M  V30 6596 O 857.07 -5.92589 1.53712 0
M  V30 6597 C 854.934 -6.9454 2.18503 0
M  V30 6598 H 854.966 -7.23063 1.12091 0
M  V30 6599 H 856.149 -5.6025 3.37201 0
M  V30 6600 H 857.633 -7.35707 4.02681 0
M  V30 6601 H 855.939 -9.40912 3.9095 0
M  V30 6602 H 855.749 -8.29056 5.99158 0
M  V30 6603 H 854.119 -8.10073 5.25882 0
M  V30 6604 H 856.758 -6.30324 0.726794 0
M  V30 6605 P 858.616 -8.4349 2.47671 0
M  V30 6606 O 860.038 -8.94167 2.5964 0
M  V30 6607 O 858.256 -7.1704 3.19006 0
M  V30 6608 O 858.293 -8.16596 0.923387 0
M  V30 6609 C 858.133 -9.38437 0.108857 0
M  V30 6610 C 858.673 -9.08175 -1.28353 0
M  V30 6611 O 857.617 -8.44229 -1.84713 0
M  V30 6612 C 859.891 -8.18386 -1.42505 0
M  V30 6613 O 860.629 -8.3501 -2.60497 0
M  V30 6614 C 859.222 -6.80225 -1.25468 0
M  V30 6615 O 860.021 -5.81621 -1.91066 0
M  V30 6616 C 857.885 -7.02416 -1.9168 0
M  V30 6617 H 857.917 -6.6888 -2.96621 0
M  V30 6618 H 859.1 -6.53617 -0.192223 0
M  V30 6619 H 860.584 -8.36622 -0.589963 0
M  V30 6620 H 858.89 -10.0291 -1.79807 0
M  V30 6621 H 858.7 -10.2138 0.558219 0
M  V30 6622 H 857.07 -9.6579 0.0444202 0
M  V30 6623 H 859.709 -5.69556 -2.79637 0
M  V30 6624 P 861.566 -8.4349 -2.47671 0
M  V30 6625 O 862.988 -8.92593 -2.65 0
M  V30 6626 O 861.206 -7.7568 -1.19296 0
M  V30 6627 O 861.243 -7.36886 -3.63805 0
M  V30 6628 C 861.083 -7.95349 -4.982 0
M  V30 6629 C 861.623 -6.94612 -5.98974 0
M  V30 6630 O 860.567 -6.10347 -6.11815 0
M  V30 6631 C 862.841 -6.11426 -5.62335 0
M  V30 6632 O 863.579 -5.6162 -6.70584 0
M  V30 6633 C 862.172 -5.04409 -4.73308 0
M  V30 6634 O 862.971 -3.85992 -4.75183 0
M  V30 6635 C 860.835 -4.8728 -5.41006 0
M  V30 6636 H 860.867 -4.02333 -6.11157 0
M  V30 6637 H 862.05 -5.39466 -3.69543 0
M  V30 6638 H 863.534 -6.71916 -5.01943 0
M  V30 6639 H 861.84 -7.4649 -6.93477 0
M  V30 6640 H 861.65 -8.89416 -5.05237 0
M  V30 6641 H 860.02 -8.14876 -5.18409 0
M  V30 6642 H 862.659 -3.27957 -5.4317 0
M  V30 6643 P 864.517 -5.75688 -6.64379 0
M  V30 6644 O 865.939 -6.07627 -7.05504 0
M  V30 6645 O 864.157 -5.88047 -5.19722 0
M  V30 6646 O 864.194 -4.2322 -7.04443 0
M  V30 6647 C 864.034 -3.99743 -8.4911 0
M  V30 6648 C 864.574 -2.60516 -8.79425 0
M  V30 6649 O 863.518 -1.82684 -8.4467 0
M  V30 6650 C 865.792 -2.10343 -8.03628 0
M  V30 6651 O 866.53 -1.09919 -8.67766 0
M  V30 6652 C 865.123 -1.68446 -6.70876 0
M  V30 6653 O 865.922 -0.678137 -6.08433 0
M  V30 6654 C 863.786 -1.17436 -7.18567 0
M  V30 6655 H 863.818 -0.0804732 -7.31656 0
M  V30 6656 H 865.001 -2.54037 -6.02537 0
M  V30 6657 H 866.485 -2.93881 -7.85526 0
M  V30 6658 H 864.791 -2.53065 -9.86973 0
M  V30 6659 H 864.601 -4.75072 -9.05887 0
M  V30 6660 H 862.971 -4.05244 -8.76668 0
M  V30 6661 H 865.61 0.177647 -6.34251 0
M  V30 6662 P 867.468 -1.25109 -8.70152 0
M  V30 6663 O 868.89 -1.29744 -9.22016 0
M  V30 6664 O 867.108 -2.13714 -7.55141 0
M  V30 6665 O 867.145 0.248149 -8.21425 0
M  V30 6666 C 866.985 1.22779 -9.30434 0
M  V30 6667 C 867.525 2.56293 -8.80664 0
M  V30 6668 O 866.469 3.02979 -8.09349 0
M  V30 6669 C 868.743 2.57523 -7.89775 0
M  V30 6670 O 869.481 3.7668 -7.89438 0
M  V30 6671 C 868.074 2.20997 -6.55446 0
M  V30 6672 O 868.873 2.71895 -5.48509 0
M  V30 6673 C 866.737 2.89693 -6.67988 0
M  V30 6674 H 866.769 3.88793 -6.19859 0
M  V30 6675 H 867.952 1.12046 -6.44229 0
M  V30 6676 H 869.436 1.7746 -8.19711 0
M  V30 6677 H 867.742 3.20706 -9.67112 0
M  V30 6678 H 867.552 0.901032 -10.1892 0
M  V30 6679 H 865.922 1.33049 -9.56592 0
M  V30 6680 H 868.561 3.57847 -5.23962 0
M  V30 6681 P 870.418 3.65191 -7.99657 0
M  V30 6682 O 871.84 3.89332 -8.45794 0
M  V30 6683 O 870.058 2.28472 -7.50807 0
M  V30 6684 O 870.095 4.64972 -6.77611 0
M  V30 6685 C 869.935 6.06319 -7.16352 0
M  V30 6686 C 870.475 6.91731 -6.02299 0
M  V30 6687 O 869.419 6.92449 -5.17064 0
M  V30 6688 C 871.693 6.43627 -5.25174 0
M  V30 6689 O 872.431 7.43686 -4.60469 0
M  V30 6690 C 871.024 5.40275 -4.31916 0
M  V30 6691 O 871.823 5.25279 -3.14438 0
M  V30 6692 C 869.687 6.04847 -4.05327 0
M  V30 6693 H 869.719 6.62195 -3.11261 0
M  V30 6694 H 870.902 4.42556 -4.81383 0
M  V30 6695 H 872.386 5.92458 -5.93643 0
M  V30 6696 H 870.692 7.92655 -6.402 0
M  V30 6697 H 870.502 6.26671 -8.0846 0
M  V30 6698 H 868.872 6.29101 -7.32804 0
M  V30 6699 H 871.511 5.84315 -2.47318 0
M  V30 6700 P 873.369 7.39546 -4.75277 0
M  V30 6701 O 874.77 7.86988 -5.07993 0
M  V30 6702 O 872.991 5.99957 -5.13804 0
M  V30 6703 O 873.046 7.57411 -3.18621 0
M  V30 6704 C 872.886 8.97357 -2.74833 0
M  V30 6705 C 873.426 9.0745 -1.32694 0
M  V30 6706 O 872.37 8.61972 -0.606089 0
M  V30 6707 C 874.643 8.25383 -0.938334 0
M  V30 6708 O 875.382 8.74577 0.146954 0
M  V30 6709 C 873.976 6.8802 -0.712559 0
M  V30 6710 O 874.774 6.11791 0.194623 0
M  V30 6711 C 872.638 7.27966 -0.139777 0
M  V30 6712 N 871.595 6.39368 -0.623421 0
M  V30 6713 C 870.56 6.08088 0.223886 0
M  V30 6714 O 870.599 6.5102 1.39986 0
M  V30 6715 N 869.548 5.30627 -0.224051 0
M  V30 6716 C 869.596 4.82531 -1.47257 0
M  V30 6717 C 870.692 5.09974 -2.34008 0
M  V30 6718 C 871.658 5.89548 -1.87678 0
M  V30 6719 H 872.67 7.25255 0.961469 0
M  V30 6720 H 873.853 6.32625 -1.65044 0
M  V30 6721 H 875.337 8.19631 -1.78299 0
M  V30 6722 H 873.643 10.1305 -1.09016 0
M  V30 6723 H 873.452 9.64276 -3.41316 0
M  V30 6724 H 871.822 9.25321 -2.76328 0
M  V30 6725 H 870.74 4.67832 -3.3413 0
M  V30 6726 H 872.504 6.14434 -2.51991 0
M  V30 6727 H 874.558 6.35931 1.08377 0
M  V30 6728 P 876.319 8.791 6.62549e-12 0
M  V30 6729 O 877.741 9.31096 0.027933 0
M  V30 6730 O 875.959 7.77869 -1.04071 0
M  V30 6731 O 875.996 8.09533 1.41463 0
M  V30 6732 C 875.836 9.0349 2.53943 0
M  V30 6733 C 876.376 8.35226 3.79016 0
M  V30 6734 O 875.32 7.57992 4.15078 0
M  V30 6735 C 877.594 7.45087 3.67298 0
M  V30 6736 O 878.332 7.27796 4.85194 0
M  V30 6737 C 876.925 6.17323 3.12027 0
M  V30 6738 O 877.724 5.04231 3.47188 0
M  V30 6739 C 875.588 6.19961 3.81809 0
M  V30 6740 H 875.62 5.58218 4.73051 0
M  V30 6741 H 876.803 6.21726 2.02589 0
M  V30 6742 H 878.287 7.86112 2.9231 0
M  V30 6743 H 876.593 9.11627 4.55076 0
M  V30 6744 H 876.403 9.9573 2.34194 0
M  V30 6745 H 874.773 9.2792 2.67832 0
M  V30 6746 H 877.412 4.67702 4.28772 0
M  V30 6747 P 879.27 7.39546 4.75277 0
M  V30 6748 O 880.692 7.81777 5.05738 0
M  V30 6749 O 878.91 7.1065 3.32998 0
M  V30 6750 O 878.947 6.04542 5.56673 0
M  V30 6751 C 878.787 6.22772 7.02095 0
M  V30 6752 C 879.327 4.97725 7.70406 0
M  V30 6753 O 878.271 4.13256 7.58987 0
M  V30 6754 C 880.545 4.28231 7.11815 0
M  V30 6755 O 881.283 3.49945 8.01648 0
M  V30 6756 C 879.876 3.5063 5.96244 0
M  V30 6757 O 880.675 2.36482 5.64681 0
M  V30 6758 C 878.539 3.15122 6.56374 0
M  V30 6759 H 878.571 2.13853 6.99751 0
M  V30 6760 H 879.754 4.13501 5.06559 0
M  V30 6761 H 881.238 5.03285 6.70911 0
M  V30 6762 H 879.544 5.20877 8.75697 0
M  V30 6763 H 879.354 7.11046 7.35349 0
M  V30 6764 H 877.724 6.35815 7.26986 0
M  V30 6765 H 880.363 1.61644 6.13565 0
M  V30 6766 P 882.22 3.65191 7.99657 0
M  V30 6767 O 883.642 3.8425 8.48115 0
M  V30 6768 O 881.86 4.17805 6.64342 0
M  V30 6769 O 881.897 2.07613 7.95143 0
M  V30 6770 C 881.737 1.44328 9.27336 0
M  V30 6771 C 882.277 0.0220036 9.17197 0
M  V30 6772 O 881.221 -0.626867 8.61923 0
M  V30 6773 C 883.495 -0.24586 8.30336 0
M  V30 6774 O 884.233 -1.39011 8.63583 0
M  V30 6775 C 882.826 -0.273849 6.91158 0
M  V30 6776 O 883.625 -1.06348 6.02892 0
M  V30 6777 C 881.489 -0.897649 7.22545 0
M  V30 6778 H 881.521 -1.9841 7.04286 0
M  V30 6779 H 882.704 0.739928 6.497 0
M  V30 6780 H 884.188 0.60668 8.36503 0
M  V30 6781 H 882.494 -0.352479 10.1829 0
M  V30 6782 H 882.304 2.00611 10.0304 0
M  V30 6783 H 880.674 1.41843 9.55327 0
M  V30 6784 H 883.313 -1.95734 6.03555 0
M  V30 6785 P 885.171 -1.25109 8.70152 0
M  V30 6786 O 886.593 -1.35274 9.21221 0
M  V30 6787 O 884.811 -0.0769065 7.84762 0
M  V30 6788 O 884.848 -2.55232 7.81161 0
M  V30 6789 C 884.688 -3.79939 8.58154 0
M  V30 6790 C 885.228 -4.94023 7.72785 0
M  V30 6791 O 884.172 -5.18726 6.91205 0
M  V30 6792 C 886.446 -4.69597 6.85231 0
M  V30 6793 O 887.184 -5.83832 6.51337 0
M  V30 6794 C 885.777 -3.96706 5.66633 0
M  V30 6795 O 886.576 -4.15414 4.49689 0
M  V30 6796 C 884.44 -4.66153 5.59313 0
M  V30 6797 H 884.472 -5.47679 4.85214 0
M  V30 6798 H 885.655 -2.89008 5.86566 0
M  V30 6799 H 887.139 -4.0121 7.36511 0
M  V30 6800 H 885.445 -5.80182 8.37584 0
M  V30 6801 H 885.255 -3.73517 9.52265 0
M  V30 6802 H 883.625 -3.97163 8.80359 0
M  V30 6803 H 886.264 -4.90969 4.01921 0
M  V30 6804 P 888.122 -5.75688 6.64379 0
M  V30 6805 O 889.544 -6.11849 7.01846 0
M  V30 6806 O 887.762 -4.30744 6.56026 0
M  V30 6807 O 887.799 -6.37042 5.19165 0
M  V30 6808 C 887.639 -7.83578 5.16515 0
M  V30 6809 C 888.179 -8.33398 3.83019 0
M  V30 6810 O 887.123 -8.10074 3.01034 0
M  V30 6811 C 889.397 -7.65514 3.2257 0
M  V30 6812 O 890.135 -8.4329 2.32297 0
M  V30 6813 C 888.728 -6.40075 2.62207 0
M  V30 6814 O 889.527 -5.92589 1.53712 0
M  V30 6815 C 887.391 -6.9454 2.18503 0
M  V30 6816 H 887.423 -7.23063 1.12091 0
M  V30 6817 H 888.606 -5.6025 3.37201 0
M  V30 6818 H 890.09 -7.35707 4.02681 0
M  V30 6819 H 888.396 -9.40912 3.9095 0
M  V30 6820 H 888.206 -8.29056 5.99158 0
M  V30 6821 H 886.576 -8.10073 5.25882 0
M  V30 6822 H 889.215 -6.30324 0.726794 0
M  V30 6823 P 891.072 -8.4349 2.47671 0
M  V30 6824 O 892.494 -8.94359 2.59696 0
M  V30 6825 O 890.712 -7.1704 3.19006 0
M  V30 6826 O 890.749 -8.16596 0.923387 0
M  V30 6827 C 890.589 -9.38437 0.108857 0
M  V30 6828 C 891.129 -9.08076 -1.28339 0
M  V30 6829 O 890.074 -8.44229 -1.84713 0
M  V30 6830 C 892.347 -8.18386 -1.42505 0
M  V30 6831 O 893.085 -8.3501 -2.60497 0
M  V30 6832 C 891.679 -6.80225 -1.25468 0
M  V30 6833 O 892.477 -5.81526 -1.91035 0
M  V30 6834 C 890.341 -7.02416 -1.9168 0
M  V30 6835 N 889.298 -6.31033 -1.20314 0
M  V30 6836 C 889.36 -6.18781 0.121293 0
M  V30 6837 N 888.315 -5.49762 0.588272 0
M  V30 6838 C 887.581 -5.22015 -0.488988 0
M  V30 6839 C 886.275 -4.61966 -0.596448 0
M  V30 6840 O 885.542 -4.19162 0.309059 0
M  V30 6841 N 885.845 -4.53773 -1.878 0
M  V30 6842 C 886.594 -4.99623 -2.99082 0
M  V30 6843 N 885.997 -4.78912 -4.21227 0
M  V30 6844 N 887.747 -5.59957 -2.91093 0
M  V30 6845 C 888.204 -5.70225 -1.64218 0
M  V30 6846 H 890.373 -6.6888 -2.96621 0
M  V30 6847 H 891.556 -6.53517 -0.192194 0
M  V30 6848 H 893.041 -8.36563 -0.598329 0
M  V30 6849 H 891.346 -10.0291 -1.79807 0
M  V30 6850 H 891.156 -10.2138 0.558219 0
M  V30 6851 H 889.525 -9.6579 0.0444202 0
M  V30 6852 H 884.949 -4.12883 -2.05283 0
M  V30 6853 H 890.156 -6.59596 0.745856 0
M  V30 6854 H 885.086 -4.31425 -4.2628 0
M  V30 6855 H 886.462 -5.11219 -5.07148 0
M  V30 6856 H 892.166 -5.69466 -2.79593 0
M  V30 6857 P 894.023 -8.4349 -2.47671 0
M  V30 6858 O 895.444 -8.92689 -2.65029 0
M  V30 6859 O 893.663 -7.7568 -1.19296 0
M  V30 6860 O 893.7 -7.36886 -3.63805 0
M  V30 6861 C 893.539 -7.95433 -4.98253 0
M  V30 6862 C 894.08 -6.94612 -5.98974 0
M  V30 6863 O 893.025 -6.10277 -6.11744 0
M  V30 6864 C 895.298 -6.11426 -5.62335 0
M  V30 6865 O 896.036 -5.6162 -6.70584 0
M  V30 6866 C 894.63 -5.04409 -4.73308 0
M  V30 6867 O 895.428 -3.86404 -4.74719 0
M  V30 6868 C 893.292 -4.8728 -5.41006 0
M  V30 6869 N 892.249 -4.65812 -4.42377 0
M  V30 6870 C 892.418 -5.09132 -3.15382 0
M  V30 6871 N 891.391 -4.84021 -2.3716 0
M  V30 6872 C 890.506 -4.18386 -3.20441 0
M  V30 6873 C 889.239 -3.6275 -2.94905 0
M  V30 6874 N 888.64 -3.65794 -1.73372 0
M  V30 6875 N 888.674 -3.05008 -4.05243 0
M  V30 6876 C 889.276 -2.98348 -5.28159 0
M  V30 6877 N 890.453 -3.48171 -5.56333 0
M  V30 6878 C 891.028 -4.06869 -4.47212 0
M  V30 6879 H 893.324 -4.02278 -6.11074 0
M  V30 6880 H 894.507 -5.39013 -3.70026 0
M  V30 6881 H 895.99 -6.71916 -5.01943 0
M  V30 6882 H 894.296 -7.45796 -6.94223 0
M  V30 6883 H 894.106 -8.89416 -5.05237 0
M  V30 6884 H 892.476 -8.14876 -5.18409 0
M  V30 6885 H 888.74 -2.47853 -6.07807 0
M  V30 6886 H 893.318 -5.59989 -2.81362 0
M  V30 6887 H 887.71 -3.23218 -1.60782 0
M  V30 6888 H 889.114 -4.10523 -0.937856 0
M  V30 6889 H 895.116 -3.27906 -5.43085 0
M  V30 6890 P 896.973 -5.75688 -6.64379 0
M  V30 6891 O 898.395 -6.07627 -7.05504 0
M  V30 6892 O 896.613 -5.88047 -5.19722 0
M  V30 6893 O 896.65 -4.2322 -7.04443 0
M  V30 6894 C 896.49 -3.99743 -8.4911 0
M  V30 6895 C 897.03 -2.60516 -8.79425 0
M  V30 6896 O 895.974 -1.82684 -8.4467 0
M  V30 6897 C 898.248 -2.10343 -8.03628 0
M  V30 6898 O 898.986 -1.09919 -8.67766 0
M  V30 6899 C 897.579 -1.68446 -6.70876 0
M  V30 6900 O 898.378 -0.678137 -6.08433 0
M  V30 6901 C 896.242 -1.17436 -7.18567 0
M  V30 6902 H 896.274 -0.0804732 -7.31656 0
M  V30 6903 H 897.457 -2.54037 -6.02537 0
M  V30 6904 H 898.941 -2.93881 -7.85526 0
M  V30 6905 H 897.247 -2.53065 -9.86973 0
M  V30 6906 H 897.057 -4.75072 -9.05887 0
M  V30 6907 H 895.427 -4.05244 -8.76668 0
M  V30 6908 H 898.066 0.177647 -6.34251 0
M  V30 6909 P 899.924 -1.25109 -8.70152 0
M  V30 6910 O 901.346 -1.29744 -9.22016 0
M  V30 6911 O 899.564 -2.13714 -7.55141 0
M  V30 6912 O 899.601 0.248149 -8.21425 0
M  V30 6913 C 899.441 1.22779 -9.30434 0
M  V30 6914 C 899.981 2.56293 -8.80664 0
M  V30 6915 O 898.925 3.02979 -8.09349 0
M  V30 6916 C 901.199 2.57523 -7.89775 0
M  V30 6917 O 901.937 3.7668 -7.89438 0
M  V30 6918 C 900.53 2.20997 -6.55446 0
M  V30 6919 O 901.329 2.71895 -5.48509 0
M  V30 6920 C 899.193 2.89693 -6.67988 0
M  V30 6921 H 899.225 3.88793 -6.19859 0
M  V30 6922 H 900.408 1.12046 -6.44229 0
M  V30 6923 H 901.892 1.7746 -8.19711 0
M  V30 6924 H 900.198 3.20706 -9.67112 0
M  V30 6925 H 900.008 0.901032 -10.1892 0
M  V30 6926 H 898.378 1.33049 -9.56592 0
M  V30 6927 H 901.017 3.57847 -5.23962 0
M  V30 6928 P 902.874 3.65191 -7.99657 0
M  V30 6929 O 904.296 3.89332 -8.45794 0
M  V30 6930 O 902.514 2.28472 -7.50807 0
M  V30 6931 O 902.551 4.64972 -6.77611 0
M  V30 6932 C 902.391 6.06319 -7.16352 0
M  V30 6933 C 902.931 6.91731 -6.02299 0
M  V30 6934 O 901.875 6.92449 -5.17064 0
M  V30 6935 C 904.149 6.43627 -5.25174 0
M  V30 6936 O 904.887 7.43686 -4.60469 0
M  V30 6937 C 903.48 5.40275 -4.31916 0
M  V30 6938 O 904.279 5.25279 -3.14438 0
M  V30 6939 C 902.143 6.04847 -4.05327 0
M  V30 6940 H 902.175 6.62195 -3.11261 0
M  V30 6941 H 903.358 4.42556 -4.81383 0
M  V30 6942 H 904.842 5.92458 -5.93643 0
M  V30 6943 H 903.148 7.92655 -6.402 0
M  V30 6944 H 902.958 6.26671 -8.0846 0
M  V30 6945 H 901.328 6.29101 -7.32804 0
M  V30 6946 H 903.967 5.84315 -2.47318 0
M  V30 6947 P 905.825 7.39546 -4.75277 0
M  V30 6948 O 907.247 7.84798 -5.01039 0
M  V30 6949 O 905.465 5.9812 -5.08098 0
M  V30 6950 O 905.502 7.57503 -3.1866 0
M  V30 6951 C 905.342 8.97357 -2.74833 0
M  V30 6952 C 905.882 9.07548 -1.32709 0
M  V30 6953 O 904.826 8.62072 -0.606159 0
M  V30 6954 C 907.1 8.25383 -0.938334 0
M  V30 6955 O 907.838 8.74577 0.146954 0
M  V30 6956 C 906.431 6.8802 -0.712559 0
M  V30 6957 O 907.23 6.1189 0.194655 0
M  V30 6958 C 905.094 7.27966 -0.139777 0
M  V30 6959 H 905.126 7.25354 0.961601 0
M  V30 6960 H 906.309 6.32557 -1.65702 0
M  V30 6961 H 907.793 8.19355 -1.79097 0
M  V30 6962 H 906.099 10.1294 -1.10029 0
M  V30 6963 H 905.909 9.64276 -3.41316 0
M  V30 6964 H 904.279 9.25417 -2.76357 0
M  V30 6965 H 906.918 6.25267 1.07847 0
M  V30 6966 P 908.776 8.791 6.93566e-12 0
M  V30 6967 O 910.197 9.31196 0.027936 0
M  V30 6968 O 908.416 7.77869 -1.04071 0
M  V30 6969 O 908.453 8.09533 1.41463 0
M  V30 6970 C 908.292 9.03587 2.5397 0
M  V30 6971 C 908.833 8.35226 3.79016 0
M  V30 6972 O 907.778 7.57904 4.1503 0
M  V30 6973 C 910.051 7.45087 3.67298 0
M  V30 6974 O 910.789 7.27796 4.85194 0
M  V30 6975 C 909.383 6.17323 3.12027 0
M  V30 6976 O 910.181 5.04496 3.46627 0
M  V30 6977 C 908.045 6.19961 3.81809 0
M  V30 6978 N 907.002 5.71575 2.93223 0
M  V30 6979 C 907.171 5.77362 1.59168 0
M  V30 6980 N 906.144 5.3123 0.911893 0
M  V30 6981 C 905.259 4.91717 1.89588 0
M  V30 6982 C 903.992 4.3114 1.8076 0
M  V30 6983 N 903.393 3.99821 0.632928 0
M  V30 6984 N 903.427 4.06823 3.02898 0
M  V30 6985 C 904.029 4.35062 4.22711 0
M  V30 6986 N 905.206 4.90805 4.35707 0
M  V30 6987 C 905.781 5.16382 3.14469 0
M  V30 6988 H 908.077 5.58142 4.72986 0
M  V30 6989 H 909.26 6.21428 2.0318 0
M  V30 6990 H 910.743 7.86112 2.9231 0
M  V30 6991 H 909.049 9.11171 4.55987 0
M  V30 6992 H 908.859 9.9573 2.34194 0
M  V30 6993 H 907.229 9.2792 2.67832 0
M  V30 6994 H 903.493 4.09052 5.13359 0
M  V30 6995 H 908.071 6.16575 1.12198 0
M  V30 6996 H 902.463 3.55423 0.632085 0
M  V30 6997 H 903.867 4.20317 -0.256712 0
M  V30 6998 H 909.869 4.67628 4.28704 0
M  V30 6999 P 911.726 7.39546 4.75277 0
M  V30 7000 O 913.148 7.81777 5.05738 0
M  V30 7001 O 911.366 7.1065 3.32998 0
M  V30 7002 O 911.403 6.04542 5.56673 0
M  V30 7003 C 911.243 6.22772 7.02095 0
M  V30 7004 C 911.783 4.97725 7.70406 0
M  V30 7005 O 910.727 4.13256 7.58987 0
M  V30 7006 C 913.001 4.28231 7.11815 0
M  V30 7007 O 913.739 3.49945 8.01648 0
M  V30 7008 C 912.332 3.5063 5.96244 0
M  V30 7009 O 913.131 2.36482 5.64681 0
M  V30 7010 C 910.995 3.15122 6.56374 0
M  V30 7011 H 911.027 2.13853 6.99751 0
M  V30 7012 H 912.21 4.13501 5.06559 0
M  V30 7013 H 913.694 5.03285 6.70911 0
M  V30 7014 H 912 5.20877 8.75697 0
M  V30 7015 H 911.81 7.11046 7.35349 0
M  V30 7016 H 910.18 6.35815 7.26986 0
M  V30 7017 H 912.819 1.61644 6.13565 0
M  V30 7018 P 914.677 3.65191 7.99657 0
M  V30 7019 O 916.099 3.8425 8.48115 0
M  V30 7020 O 914.317 4.17805 6.64342 0
M  V30 7021 O 914.354 2.07613 7.95143 0
M  V30 7022 C 914.194 1.44328 9.27336 0
M  V30 7023 C 914.734 0.0220036 9.17197 0
M  V30 7024 O 913.678 -0.626867 8.61923 0
M  V30 7025 C 915.952 -0.24586 8.30336 0
M  V30 7026 O 916.69 -1.39011 8.63583 0
M  V30 7027 C 915.283 -0.273849 6.91158 0
M  V30 7028 O 916.082 -1.06348 6.02892 0
M  V30 7029 C 913.946 -0.897649 7.22545 0
M  V30 7030 H 913.978 -1.9841 7.04286 0
M  V30 7031 H 915.161 0.739928 6.497 0
M  V30 7032 H 916.645 0.60668 8.36503 0
M  V30 7033 H 914.951 -0.352479 10.1829 0
M  V30 7034 H 914.761 2.00611 10.0304 0
M  V30 7035 H 913.131 1.41843 9.55327 0
M  V30 7036 H 915.77 -1.95734 6.03555 0
M  V30 7037 P 917.627 -1.25109 8.70152 0
M  V30 7038 O 919.049 -1.35274 9.21221 0
M  V30 7039 O 917.267 -0.0769065 7.84762 0
M  V30 7040 O 917.304 -2.55232 7.81161 0
M  V30 7041 C 917.144 -3.79939 8.58154 0
M  V30 7042 C 917.684 -4.94023 7.72785 0
M  V30 7043 O 916.628 -5.18726 6.91205 0
M  V30 7044 C 918.902 -4.69597 6.85231 0
M  V30 7045 O 919.64 -5.83832 6.51337 0
M  V30 7046 C 918.233 -3.96706 5.66633 0
M  V30 7047 O 919.032 -4.15414 4.49689 0
M  V30 7048 C 916.896 -4.66153 5.59313 0
M  V30 7049 H 916.928 -5.47679 4.85214 0
M  V30 7050 H 918.111 -2.89008 5.86566 0
M  V30 7051 H 919.595 -4.0121 7.36511 0
M  V30 7052 H 917.901 -5.80182 8.37584 0
M  V30 7053 H 917.711 -3.73517 9.52265 0
M  V30 7054 H 916.081 -3.97163 8.80359 0
M  V30 7055 H 918.72 -4.90969 4.01921 0
M  V30 7056 P 920.578 -5.75688 6.64379 0
M  V30 7057 O 922 -6.11849 7.01846 0
M  V30 7058 O 920.218 -4.30744 6.56026 0
M  V30 7059 O 920.255 -6.37042 5.19165 0
M  V30 7060 C 920.095 -7.83578 5.16515 0
M  V30 7061 C 920.635 -8.33398 3.83019 0
M  V30 7062 O 919.579 -8.10074 3.01034 0
M  V30 7063 C 921.853 -7.65514 3.2257 0
M  V30 7064 O 922.591 -8.4329 2.32297 0
M  V30 7065 C 921.184 -6.40075 2.62207 0
M  V30 7066 O 921.983 -5.92589 1.53712 0
M  V30 7067 C 919.847 -6.9454 2.18503 0
M  V30 7068 H 919.879 -7.23063 1.12091 0
M  V30 7069 H 921.062 -5.6025 3.37201 0
M  V30 7070 H 922.546 -7.35707 4.02681 0
M  V30 7071 H 920.852 -9.40912 3.9095 0
M  V30 7072 H 920.662 -8.29056 5.99158 0
M  V30 7073 H 919.032 -8.10073 5.25882 0
M  V30 7074 H 921.671 -6.30324 0.726794 0
M  V30 7075 P 923.528 -8.4349 2.47671 0
M  V30 7076 O 924.95 -8.94167 2.5964 0
M  V30 7077 O 923.168 -7.1704 3.19006 0
M  V30 7078 O 923.205 -8.16596 0.923387 0
M  V30 7079 C 923.045 -9.38437 0.108857 0
M  V30 7080 C 923.585 -9.08175 -1.28353 0
M  V30 7081 O 922.529 -8.44229 -1.84713 0
M  V30 7082 C 924.803 -8.18386 -1.42505 0
M  V30 7083 O 925.541 -8.3501 -2.60497 0
M  V30 7084 C 924.134 -6.80225 -1.25468 0
M  V30 7085 O 924.933 -5.81621 -1.91066 0
M  V30 7086 C 922.797 -7.02416 -1.9168 0
M  V30 7087 H 922.829 -6.6888 -2.96621 0
M  V30 7088 H 924.012 -6.53617 -0.192223 0
M  V30 7089 H 925.496 -8.36622 -0.589963 0
M  V30 7090 H 923.802 -10.0291 -1.79807 0
M  V30 7091 H 923.612 -10.2138 0.558219 0
M  V30 7092 H 921.982 -9.6579 0.0444202 0
M  V30 7093 H 924.621 -5.69556 -2.79637 0
M  V30 7094 P 926.479 -8.4349 -2.47671 0
M  V30 7095 O 927.901 -8.92593 -2.65 0
M  V30 7096 O 926.119 -7.7568 -1.19296 0
M  V30 7097 O 926.156 -7.36886 -3.63805 0
M  V30 7098 C 925.996 -7.95349 -4.982 0
M  V30 7099 C 926.536 -6.94612 -5.98974 0
M  V30 7100 O 925.48 -6.10347 -6.11815 0
M  V30 7101 C 927.754 -6.11426 -5.62335 0
M  V30 7102 O 928.492 -5.6162 -6.70584 0
M  V30 7103 C 927.085 -5.04409 -4.73308 0
M  V30 7104 O 927.884 -3.85992 -4.75183 0
M  V30 7105 C 925.748 -4.8728 -5.41006 0
M  V30 7106 H 925.78 -4.02333 -6.11157 0
M  V30 7107 H 926.963 -5.39466 -3.69543 0
M  V30 7108 H 928.447 -6.71916 -5.01943 0
M  V30 7109 H 926.753 -7.4649 -6.93477 0
M  V30 7110 H 926.563 -8.89416 -5.05237 0
M  V30 7111 H 924.933 -8.14876 -5.18409 0
M  V30 7112 H 927.572 -3.27957 -5.4317 0
M  V30 7113 P 929.43 -5.75688 -6.64379 0
M  V30 7114 O 930.852 -6.07627 -7.05504 0
M  V30 7115 O 929.07 -5.88047 -5.19722 0
M  V30 7116 O 929.107 -4.2322 -7.04443 0
M  V30 7117 C 928.947 -3.99743 -8.4911 0
M  V30 7118 C 929.487 -2.60516 -8.79425 0
M  V30 7119 O 928.431 -1.82684 -8.4467 0
M  V30 7120 C 930.705 -2.10343 -8.03628 0
M  V30 7121 O 931.443 -1.09919 -8.67766 0
M  V30 7122 C 930.036 -1.68446 -6.70876 0
M  V30 7123 O 930.835 -0.678137 -6.08433 0
M  V30 7124 C 928.699 -1.17436 -7.18567 0
M  V30 7125 H 928.731 -0.0804732 -7.31656 0
M  V30 7126 H 929.914 -2.54037 -6.02537 0
M  V30 7127 H 931.398 -2.93881 -7.85526 0
M  V30 7128 H 929.704 -2.53065 -9.86973 0
M  V30 7129 H 929.514 -4.75072 -9.05887 0
M  V30 7130 H 927.884 -4.05244 -8.76668 0
M  V30 7131 H 930.523 0.177647 -6.34251 0
M  V30 7132 P 932.38 -1.25109 -8.70152 0
M  V30 7133 O 933.802 -1.29744 -9.22016 0
M  V30 7134 O 932.02 -2.13714 -7.55141 0
M  V30 7135 O 932.057 0.248149 -8.21425 0
M  V30 7136 C 931.897 1.22779 -9.30434 0
M  V30 7137 C 932.437 2.56293 -8.80664 0
M  V30 7138 O 931.381 3.02979 -8.09349 0
M  V30 7139 C 933.655 2.57523 -7.89775 0
M  V30 7140 O 934.393 3.7668 -7.89438 0
M  V30 7141 C 932.986 2.20997 -6.55446 0
M  V30 7142 O 933.785 2.71895 -5.48509 0
M  V30 7143 C 931.649 2.89693 -6.67988 0
M  V30 7144 H 931.681 3.88793 -6.19859 0
M  V30 7145 H 932.864 1.12046 -6.44229 0
M  V30 7146 H 934.348 1.7746 -8.19711 0
M  V30 7147 H 932.654 3.20706 -9.67112 0
M  V30 7148 H 932.464 0.901032 -10.1892 0
M  V30 7149 H 930.834 1.33049 -9.56592 0
M  V30 7150 H 933.473 3.57847 -5.23962 0
M  V30 7151 P 935.331 3.65191 -7.99657 0
M  V30 7152 O 936.753 3.89332 -8.45794 0
M  V30 7153 O 934.971 2.28472 -7.50807 0
M  V30 7154 O 935.008 4.64972 -6.77611 0
M  V30 7155 C 934.848 6.06319 -7.16352 0
M  V30 7156 C 935.388 6.91731 -6.02299 0
M  V30 7157 O 934.332 6.92449 -5.17064 0
M  V30 7158 C 936.606 6.43627 -5.25174 0
M  V30 7159 O 937.344 7.43686 -4.60469 0
M  V30 7160 C 935.937 5.40275 -4.31916 0
M  V30 7161 O 936.736 5.25279 -3.14438 0
M  V30 7162 C 934.6 6.04847 -4.05327 0
M  V30 7163 H 934.632 6.62195 -3.11261 0
M  V30 7164 H 935.815 4.42556 -4.81383 0
M  V30 7165 H 937.299 5.92458 -5.93643 0
M  V30 7166 H 935.605 7.92655 -6.402 0
M  V30 7167 H 935.415 6.26671 -8.0846 0
M  V30 7168 H 933.785 6.29101 -7.32804 0
M  V30 7169 H 936.424 5.84315 -2.47318 0
M  V30 7170 P 938.281 7.39546 -4.75277 0
M  V30 7171 O 939.703 7.84798 -5.01039 0
M  V30 7172 O 937.921 5.9812 -5.08098 0
M  V30 7173 O 937.958 7.57503 -3.1866 0
M  V30 7174 C 937.798 8.97357 -2.74833 0
M  V30 7175 C 938.338 9.07548 -1.32709 0
M  V30 7176 O 937.282 8.62072 -0.606159 0
M  V30 7177 C 939.556 8.25383 -0.938334 0
M  V30 7178 O 940.294 8.74577 0.146954 0
M  V30 7179 C 938.887 6.8802 -0.712559 0
M  V30 7180 O 939.686 6.1189 0.194655 0
M  V30 7181 C 937.55 7.27966 -0.139777 0
M  V30 7182 H 937.582 7.25354 0.961601 0
M  V30 7183 H 938.765 6.32557 -1.65702 0
M  V30 7184 H 940.249 8.19355 -1.79097 0
M  V30 7185 H 938.555 10.1294 -1.10029 0
M  V30 7186 H 938.365 9.64276 -3.41316 0
M  V30 7187 H 936.735 9.25417 -2.76357 0
M  V30 7188 H 939.374 6.25267 1.07847 0
M  V30 7189 P 941.232 8.791 7.24582e-12 0
M  V30 7190 O 942.633 9.36698 -0.018734 0
M  V30 7191 O 940.854 7.82499 -1.07878 0
M  V30 7192 O 940.909 8.09434 1.41446 0
M  V30 7193 C 940.749 9.0349 2.53943 0
M  V30 7194 C 941.289 8.35135 3.78975 0
M  V30 7195 O 940.233 7.57904 4.1503 0
M  V30 7196 C 942.506 7.45087 3.67298 0
M  V30 7197 O 943.245 7.27796 4.85194 0
M  V30 7198 C 941.839 6.17323 3.12027 0
M  V30 7199 O 942.637 5.04149 3.47132 0
M  V30 7200 C 940.501 6.19961 3.81809 0
M  V30 7201 N 939.458 5.71575 2.93223 0
M  V30 7202 C 938.423 4.99452 3.47592 0
M  V30 7203 O 938.462 4.7199 4.69732 0
M  V30 7204 N 937.411 4.58505 2.6803 0
M  V30 7205 C 937.459 4.85544 1.36995 0
M  V30 7206 N 936.449 4.45052 0.609031 0
M  V30 7207 C 938.555 5.55532 0.788532 0
M  V30 7208 C 939.521 5.97426 1.60849 0
M  V30 7209 H 940.533 5.58142 4.72986 0
M  V30 7210 H 941.716 6.21428 2.0318 0
M  V30 7211 H 943.2 7.85913 2.93131 0
M  V30 7212 H 941.506 9.11171 4.55987 0
M  V30 7213 H 941.315 9.9573 2.34194 0
M  V30 7214 H 939.685 9.27824 2.67805 0
M  V30 7215 H 938.603 5.7421 -0.281588 0
M  V30 7216 H 940.367 6.53132 1.202 0
M  V30 7217 H 935.659 3.94123 1.03159 0
M  V30 7218 H 936.454 4.64377 -0.400352 0
M  V30 7219 H 942.421 4.76386 4.34983 0
M  V30 7220 P 944.182 7.39546 4.75277 0
M  V30 7221 O 945.604 7.81777 5.05738 0
M  V30 7222 O 943.822 7.1065 3.32998 0
M  V30 7223 O 943.859 6.04542 5.56673 0
M  V30 7224 C 943.699 6.22772 7.02095 0
M  V30 7225 C 944.239 4.97725 7.70406 0
M  V30 7226 O 943.183 4.13256 7.58987 0
M  V30 7227 C 945.457 4.28231 7.11815 0
M  V30 7228 O 946.195 3.49945 8.01648 0
M  V30 7229 C 944.788 3.5063 5.96244 0
M  V30 7230 O 945.587 2.36482 5.64681 0
M  V30 7231 C 943.451 3.15122 6.56374 0
M  V30 7232 H 943.483 2.13853 6.99751 0
M  V30 7233 H 944.666 4.13501 5.06559 0
M  V30 7234 H 946.15 5.03285 6.70911 0
M  V30 7235 H 944.456 5.20877 8.75697 0
M  V30 7236 H 944.266 7.11046 7.35349 0
M  V30 7237 H 942.636 6.35815 7.26986 0
M  V30 7238 H 945.275 1.61644 6.13565 0
M  V30 7239 P 947.133 3.65191 7.99657 0
M  V30 7240 O 948.555 3.8425 8.48115 0
M  V30 7241 O 946.773 4.17805 6.64342 0
M  V30 7242 O 946.81 2.07613 7.95143 0
M  V30 7243 C 946.65 1.44328 9.27336 0
M  V30 7244 C 947.19 0.0220036 9.17197 0
M  V30 7245 O 946.134 -0.626867 8.61923 0
M  V30 7246 C 948.408 -0.24586 8.30336 0
M  V30 7247 O 949.146 -1.39011 8.63583 0
M  V30 7248 C 947.739 -0.273849 6.91158 0
M  V30 7249 O 948.538 -1.06348 6.02892 0
M  V30 7250 C 946.402 -0.897649 7.22545 0
M  V30 7251 H 946.434 -1.9841 7.04286 0
M  V30 7252 H 947.617 0.739928 6.497 0
M  V30 7253 H 949.101 0.60668 8.36503 0
M  V30 7254 H 947.407 -0.352479 10.1829 0
M  V30 7255 H 947.217 2.00611 10.0304 0
M  V30 7256 H 945.587 1.41843 9.55327 0
M  V30 7257 H 948.226 -1.95734 6.03555 0
M  V30 7258 P 950.084 -1.25109 8.70152 0
M  V30 7259 O 951.506 -1.35274 9.21221 0
M  V30 7260 O 949.724 -0.0769065 7.84762 0
M  V30 7261 O 949.761 -2.55232 7.81161 0
M  V30 7262 C 949.601 -3.79939 8.58154 0
M  V30 7263 C 950.141 -4.94023 7.72785 0
M  V30 7264 O 949.085 -5.18726 6.91205 0
M  V30 7265 C 951.359 -4.69597 6.85231 0
M  V30 7266 O 952.097 -5.83832 6.51337 0
M  V30 7267 C 950.69 -3.96706 5.66633 0
M  V30 7268 O 951.489 -4.15414 4.49689 0
M  V30 7269 C 949.353 -4.66153 5.59313 0
M  V30 7270 H 949.385 -5.47679 4.85214 0
M  V30 7271 H 950.568 -2.89008 5.86566 0
M  V30 7272 H 952.052 -4.0121 7.36511 0
M  V30 7273 H 950.358 -5.80182 8.37584 0
M  V30 7274 H 950.168 -3.73517 9.52265 0
M  V30 7275 H 948.538 -3.97163 8.80359 0
M  V30 7276 H 951.177 -4.90969 4.01921 0
M  V30 7277 P 953.034 -5.75688 6.64379 0
M  V30 7278 O 954.456 -6.11849 7.01846 0
M  V30 7279 O 952.674 -4.30744 6.56026 0
M  V30 7280 O 952.711 -6.37042 5.19165 0
M  V30 7281 C 952.551 -7.83578 5.16515 0
M  V30 7282 C 953.091 -8.33398 3.83019 0
M  V30 7283 O 952.035 -8.10074 3.01034 0
M  V30 7284 C 954.309 -7.65514 3.2257 0
M  V30 7285 O 955.047 -8.4329 2.32297 0
M  V30 7286 C 953.64 -6.40075 2.62207 0
M  V30 7287 O 954.439 -5.92589 1.53712 0
M  V30 7288 C 952.303 -6.9454 2.18503 0
M  V30 7289 H 952.335 -7.23063 1.12091 0
M  V30 7290 H 953.518 -5.6025 3.37201 0
M  V30 7291 H 955.002 -7.35707 4.02681 0
M  V30 7292 H 953.308 -9.40912 3.9095 0
M  V30 7293 H 953.118 -8.29056 5.99158 0
M  V30 7294 H 951.488 -8.10073 5.25882 0
M  V30 7295 H 954.127 -6.30324 0.726794 0
M  V30 7296 P 955.985 -8.4349 2.47671 0
M  V30 7297 O 957.407 -8.94167 2.5964 0
M  V30 7298 O 955.625 -7.1704 3.19006 0
M  V30 7299 O 955.662 -8.16596 0.923387 0
M  V30 7300 C 955.502 -9.38437 0.108857 0
M  V30 7301 C 956.042 -9.08175 -1.28353 0
M  V30 7302 O 954.986 -8.44229 -1.84713 0
M  V30 7303 C 957.26 -8.18386 -1.42505 0
M  V30 7304 O 957.998 -8.3501 -2.60497 0
M  V30 7305 C 956.591 -6.80225 -1.25468 0
M  V30 7306 O 957.39 -5.81621 -1.91066 0
M  V30 7307 C 955.254 -7.02416 -1.9168 0
M  V30 7308 H 955.286 -6.6888 -2.96621 0
M  V30 7309 H 956.469 -6.53617 -0.192223 0
M  V30 7310 H 957.953 -8.36622 -0.589963 0
M  V30 7311 H 956.259 -10.0291 -1.79807 0
M  V30 7312 H 956.069 -10.2138 0.558219 0
M  V30 7313 H 954.439 -9.6579 0.0444202 0
M  V30 7314 H 957.078 -5.69556 -2.79637 0
M  V30 7315 P 958.935 -8.4349 -2.47671 0
M  V30 7316 O 960.357 -8.92593 -2.65 0
M  V30 7317 O 958.575 -7.7568 -1.19296 0
M  V30 7318 O 958.612 -7.36886 -3.63805 0
M  V30 7319 C 958.452 -7.95349 -4.982 0
M  V30 7320 C 958.992 -6.94612 -5.98974 0
M  V30 7321 O 957.936 -6.10347 -6.11815 0
M  V30 7322 C 960.21 -6.11426 -5.62335 0
M  V30 7323 O 960.948 -5.6162 -6.70584 0
M  V30 7324 C 959.541 -5.04409 -4.73308 0
M  V30 7325 O 960.34 -3.85992 -4.75183 0
M  V30 7326 C 958.204 -4.8728 -5.41006 0
M  V30 7327 H 958.236 -4.02333 -6.11157 0
M  V30 7328 H 959.419 -5.39466 -3.69543 0
M  V30 7329 H 960.903 -6.71916 -5.01943 0
M  V30 7330 H 959.209 -7.4649 -6.93477 0
M  V30 7331 H 959.019 -8.89416 -5.05237 0
M  V30 7332 H 957.389 -8.14876 -5.18409 0
M  V30 7333 H 960.028 -3.27957 -5.4317 0
M  V30 7334 P 961.886 -5.75688 -6.64379 0
M  V30 7335 O 963.308 -6.07627 -7.05504 0
M  V30 7336 O 961.526 -5.88047 -5.19722 0
M  V30 7337 O 961.563 -4.2322 -7.04443 0
M  V30 7338 C 961.403 -3.99743 -8.4911 0
M  V30 7339 C 961.943 -2.60516 -8.79425 0
M  V30 7340 O 960.887 -1.82684 -8.4467 0
M  V30 7341 C 963.161 -2.10343 -8.03628 0
M  V30 7342 O 963.899 -1.09919 -8.67766 0
M  V30 7343 C 962.492 -1.68446 -6.70876 0
M  V30 7344 O 963.291 -0.678137 -6.08433 0
M  V30 7345 C 961.155 -1.17436 -7.18567 0
M  V30 7346 H 961.187 -0.0804732 -7.31656 0
M  V30 7347 H 962.37 -2.54037 -6.02537 0
M  V30 7348 H 963.854 -2.93881 -7.85526 0
M  V30 7349 H 962.16 -2.53065 -9.86973 0
M  V30 7350 H 961.97 -4.75072 -9.05887 0
M  V30 7351 H 960.34 -4.05244 -8.76668 0
M  V30 7352 H 962.979 0.177647 -6.34251 0
M  V30 7353 P 964.836 -1.25109 -8.70152 0
M  V30 7354 O 966.258 -1.29744 -9.22016 0
M  V30 7355 O 964.476 -2.13714 -7.55141 0
M  V30 7356 O 964.513 0.248149 -8.21425 0
M  V30 7357 C 964.353 1.22779 -9.30434 0
M  V30 7358 C 964.893 2.56293 -8.80664 0
M  V30 7359 O 963.837 3.02979 -8.09349 0
M  V30 7360 C 966.111 2.57523 -7.89775 0
M  V30 7361 O 966.849 3.7668 -7.89438 0
M  V30 7362 C 965.442 2.20997 -6.55446 0
M  V30 7363 O 966.241 2.71895 -5.48509 0
M  V30 7364 C 964.105 2.89693 -6.67988 0
M  V30 7365 H 964.137 3.88793 -6.19859 0
M  V30 7366 H 965.32 1.12046 -6.44229 0
M  V30 7367 H 966.804 1.7746 -8.19711 0
M  V30 7368 H 965.11 3.20706 -9.67112 0
M  V30 7369 H 964.92 0.901032 -10.1892 0
M  V30 7370 H 963.29 1.33049 -9.56592 0
M  V30 7371 H 965.929 3.57847 -5.23962 0
M  V30 7372 P 967.787 3.65191 -7.99657 0
M  V30 7373 O 969.209 3.89332 -8.45794 0
M  V30 7374 O 967.427 2.28472 -7.50807 0
M  V30 7375 O 967.464 4.64972 -6.77611 0
M  V30 7376 C 967.304 6.06319 -7.16352 0
M  V30 7377 C 967.844 6.91731 -6.02299 0
M  V30 7378 O 966.788 6.92449 -5.17064 0
M  V30 7379 C 969.062 6.43627 -5.25174 0
M  V30 7380 O 969.8 7.43686 -4.60469 0
M  V30 7381 C 968.393 5.40275 -4.31916 0
M  V30 7382 O 969.192 5.25279 -3.14438 0
M  V30 7383 C 967.056 6.04847 -4.05327 0
M  V30 7384 H 967.088 6.62195 -3.11261 0
M  V30 7385 H 968.271 4.42556 -4.81383 0
M  V30 7386 H 969.755 5.92458 -5.93643 0
M  V30 7387 H 968.061 7.92655 -6.402 0
M  V30 7388 H 967.871 6.26671 -8.0846 0
M  V30 7389 H 966.241 6.29101 -7.32804 0
M  V30 7390 H 968.88 5.84315 -2.47318 0
M  V30 7391 P 970.738 7.39546 -4.75277 0
M  V30 7392 O 972.16 7.84798 -5.01039 0
M  V30 7393 O 970.378 5.9812 -5.08098 0
M  V30 7394 O 970.415 7.57503 -3.1866 0
M  V30 7395 C 970.255 8.97357 -2.74833 0
M  V30 7396 C 970.795 9.07548 -1.32709 0
M  V30 7397 O 969.739 8.62072 -0.606159 0
M  V30 7398 C 972.013 8.25383 -0.938334 0
M  V30 7399 O 972.751 8.74577 0.146954 0
M  V30 7400 C 971.344 6.8802 -0.712559 0
M  V30 7401 O 972.143 6.1189 0.194655 0
M  V30 7402 C 970.007 7.27966 -0.139777 0
M  V30 7403 H 970.039 7.25354 0.961601 0
M  V30 7404 H 971.222 6.32557 -1.65702 0
M  V30 7405 H 972.706 8.19355 -1.79097 0
M  V30 7406 H 971.012 10.1294 -1.10029 0
M  V30 7407 H 970.822 9.64276 -3.41316 0
M  V30 7408 H 969.192 9.25417 -2.76357 0
M  V30 7409 H 971.831 6.25267 1.07847 0
M  V30 7410 P 973.688 8.791 7.55599e-12 0
M  V30 7411 O 975.109 9.31196 0.027936 0
M  V30 7412 O 973.328 7.77869 -1.04071 0
M  V30 7413 O 973.365 8.09533 1.41463 0
M  V30 7414 C 973.204 9.03587 2.5397 0
M  V30 7415 C 973.745 8.35226 3.79016 0
M  V30 7416 O 972.69 7.57904 4.1503 0
M  V30 7417 C 974.963 7.45087 3.67298 0
M  V30 7418 O 975.701 7.27796 4.85194 0
M  V30 7419 C 974.295 6.17323 3.12027 0
M  V30 7420 O 975.093 5.04496 3.46627 0
M  V30 7421 C 972.957 6.19961 3.81809 0
M  V30 7422 N 971.914 5.71575 2.93223 0
M  V30 7423 C 972.083 5.77362 1.59168 0
M  V30 7424 N 971.056 5.3123 0.911893 0
M  V30 7425 C 970.171 4.91717 1.89588 0
M  V30 7426 C 968.904 4.3114 1.8076 0
M  V30 7427 N 968.339 4.06823 3.02898 0
M  V30 7428 C 968.941 4.35062 4.22711 0
M  V30 7429 N 970.118 4.90805 4.35707 0
M  V30 7430 C 970.693 5.16382 3.14469 0
M  V30 7431 H 974.172 6.21428 2.0318 0
M  V30 7432 H 975.655 7.86112 2.9231 0
M  V30 7433 H 973.961 9.11171 4.55987 0
M  V30 7434 H 973.771 9.9573 2.34194 0
M  V30 7435 H 972.141 9.2792 2.67832 0
M  V30 7436 H 972.983 6.16575 1.12198 0
M  V30 7437 H 974.781 4.67628 4.28704 0
M  V30 7438 P 976.639 7.39546 4.75277 0
M  V30 7439 O 978.061 7.81777 5.05738 0
M  V30 7440 O 976.279 7.1065 3.32998 0
M  V30 7441 O 976.316 6.04542 5.56673 0
M  V30 7442 C 976.156 6.22772 7.02095 0
M  V30 7443 C 976.696 4.97725 7.70406 0
M  V30 7444 O 975.64 4.13256 7.58987 0
M  V30 7445 C 977.914 4.28231 7.11815 0
M  V30 7446 O 978.652 3.49945 8.01648 0
M  V30 7447 C 977.245 3.5063 5.96244 0
M  V30 7448 O 978.044 2.36482 5.64681 0
M  V30 7449 C 975.908 3.15122 6.56374 0
M  V30 7450 H 975.94 2.13853 6.99751 0
M  V30 7451 H 977.123 4.13501 5.06559 0
M  V30 7452 H 978.607 5.03285 6.70911 0
M  V30 7453 H 976.913 5.20877 8.75697 0
M  V30 7454 H 976.723 7.11046 7.35349 0
M  V30 7455 H 975.093 6.35815 7.26986 0
M  V30 7456 H 977.732 1.61644 6.13565 0
M  V30 7457 P 979.589 3.65191 7.99657 0
M  V30 7458 O 981.011 3.8425 8.48115 0
M  V30 7459 O 979.229 4.17805 6.64342 0
M  V30 7460 O 979.266 2.07613 7.95143 0
M  V30 7461 C 979.106 1.44328 9.27336 0
M  V30 7462 C 979.646 0.0220036 9.17197 0
M  V30 7463 O 978.59 -0.626867 8.61923 0
M  V30 7464 C 980.864 -0.24586 8.30336 0
M  V30 7465 O 981.602 -1.39011 8.63583 0
M  V30 7466 C 980.195 -0.273849 6.91158 0
M  V30 7467 O 980.994 -1.06348 6.02892 0
M  V30 7468 C 978.858 -0.897649 7.22545 0
M  V30 7469 H 978.89 -1.9841 7.04286 0
M  V30 7470 H 980.073 0.739928 6.497 0
M  V30 7471 H 981.557 0.60668 8.36503 0
M  V30 7472 H 979.863 -0.352479 10.1829 0
M  V30 7473 H 979.673 2.00611 10.0304 0
M  V30 7474 H 978.043 1.41843 9.55327 0
M  V30 7475 H 980.682 -1.95734 6.03555 0
M  V30 7476 P 982.54 -1.25109 8.70152 0
M  V30 7477 O 983.962 -1.35274 9.21221 0
M  V30 7478 O 982.18 -0.0769065 7.84762 0
M  V30 7479 O 982.217 -2.55232 7.81161 0
M  V30 7480 C 982.057 -3.79939 8.58154 0
M  V30 7481 C 982.597 -4.94023 7.72785 0
M  V30 7482 O 981.541 -5.18726 6.91205 0
M  V30 7483 C 983.815 -4.69597 6.85231 0
M  V30 7484 O 984.553 -5.83832 6.51337 0
M  V30 7485 C 983.146 -3.96706 5.66633 0
M  V30 7486 O 983.945 -4.15414 4.49689 0
M  V30 7487 C 981.809 -4.66153 5.59313 0
M  V30 7488 H 981.841 -5.47679 4.85214 0
M  V30 7489 H 983.024 -2.89008 5.86566 0
M  V30 7490 H 984.508 -4.0121 7.36511 0
M  V30 7491 H 982.814 -5.80182 8.37584 0
M  V30 7492 H 982.624 -3.73517 9.52265 0
M  V30 7493 H 980.994 -3.97163 8.80359 0
M  V30 7494 H 983.633 -4.90969 4.01921 0
M  V30 7495 P 985.49 -5.75688 6.64379 0
M  V30 7496 O 986.912 -6.11849 7.01846 0
M  V30 7497 O 985.13 -4.30744 6.56026 0
M  V30 7498 O 985.167 -6.37042 5.19165 0
M  V30 7499 C 985.007 -7.83578 5.16515 0
M  V30 7500 C 985.547 -8.33398 3.83019 0
M  V30 7501 O 984.491 -8.10074 3.01034 0
M  V30 7502 C 986.765 -7.65514 3.2257 0
M  V30 7503 O 987.503 -8.4329 2.32297 0
M  V30 7504 C 986.096 -6.40075 2.62207 0
M  V30 7505 O 986.895 -5.92589 1.53712 0
M  V30 7506 C 984.759 -6.9454 2.18503 0
M  V30 7507 H 984.791 -7.23063 1.12091 0
M  V30 7508 H 985.974 -5.6025 3.37201 0
M  V30 7509 H 987.458 -7.35707 4.02681 0
M  V30 7510 H 985.764 -9.40912 3.9095 0
M  V30 7511 H 985.574 -8.29056 5.99158 0
M  V30 7512 H 983.944 -8.10073 5.25882 0
M  V30 7513 H 986.583 -6.30324 0.726794 0
M  V30 7514 P 988.441 -8.4349 2.47671 0
M  V30 7515 O 989.863 -8.94167 2.5964 0
M  V30 7516 O 988.081 -7.1704 3.19006 0
M  V30 7517 O 988.118 -8.16596 0.923387 0
M  V30 7518 C 987.958 -9.38437 0.108857 0
M  V30 7519 C 988.498 -9.08175 -1.28353 0
M  V30 7520 O 987.442 -8.44229 -1.84713 0
M  V30 7521 C 989.716 -8.18386 -1.42505 0
M  V30 7522 O 990.454 -8.3501 -2.60497 0
M  V30 7523 C 989.047 -6.80225 -1.25468 0
M  V30 7524 O 989.846 -5.81621 -1.91066 0
M  V30 7525 C 987.71 -7.02416 -1.9168 0
M  V30 7526 H 987.742 -6.6888 -2.96621 0
M  V30 7527 H 988.925 -6.53617 -0.192223 0
M  V30 7528 H 990.409 -8.36622 -0.589963 0
M  V30 7529 H 988.715 -10.0291 -1.79807 0
M  V30 7530 H 988.525 -10.2138 0.558219 0
M  V30 7531 H 986.895 -9.6579 0.0444202 0
M  V30 7532 H 989.534 -5.69556 -2.79637 0
M  V30 7533 P 991.392 -8.4349 -2.47671 0
M  V30 7534 O 992.814 -8.92593 -2.65 0
M  V30 7535 O 991.032 -7.7568 -1.19296 0
M  V30 7536 O 991.069 -7.36886 -3.63805 0
M  V30 7537 C 990.909 -7.95349 -4.982 0
M  V30 7538 C 991.449 -6.94612 -5.98974 0
M  V30 7539 O 990.393 -6.10347 -6.11815 0
M  V30 7540 C 992.667 -6.11426 -5.62335 0
M  V30 7541 O 993.405 -5.6162 -6.70584 0
M  V30 7542 C 991.998 -5.04409 -4.73308 0
M  V30 7543 O 992.797 -3.85992 -4.75183 0
M  V30 7544 C 990.661 -4.8728 -5.41006 0
M  V30 7545 H 990.693 -4.02333 -6.11157 0
M  V30 7546 H 991.876 -5.39466 -3.69543 0
M  V30 7547 H 993.36 -6.71916 -5.01943 0
M  V30 7548 H 991.666 -7.4649 -6.93477 0
M  V30 7549 H 991.476 -8.89416 -5.05237 0
M  V30 7550 H 989.846 -8.14876 -5.18409 0
M  V30 7551 H 992.485 -3.27957 -5.4317 0
M  V30 7552 P 994.342 -5.75688 -6.64379 0
M  V30 7553 O 995.764 -6.07627 -7.05504 0
M  V30 7554 O 993.982 -5.88047 -5.19722 0
M  V30 7555 O 994.019 -4.2322 -7.04443 0
M  V30 7556 C 993.859 -3.99743 -8.4911 0
M  V30 7557 C 994.399 -2.60516 -8.79425 0
M  V30 7558 O 993.343 -1.82684 -8.4467 0
M  V30 7559 C 995.617 -2.10343 -8.03628 0
M  V30 7560 O 996.355 -1.09919 -8.67766 0
M  V30 7561 C 994.948 -1.68446 -6.70876 0
M  V30 7562 O 995.747 -0.678137 -6.08433 0
M  V30 7563 C 993.611 -1.17436 -7.18567 0
M  V30 7564 H 993.643 -0.0804732 -7.31656 0
M  V30 7565 H 994.826 -2.54037 -6.02537 0
M  V30 7566 H 996.31 -2.93881 -7.85526 0
M  V30 7567 H 994.616 -2.53065 -9.86973 0
M  V30 7568 H 994.426 -4.75072 -9.05887 0
M  V30 7569 H 992.796 -4.05244 -8.76668 0
M  V30 7570 H 995.435 0.177647 -6.34251 0
M  V30 7571 P 997.293 -1.25109 -8.70152 0
M  V30 7572 O 998.715 -1.29744 -9.22016 0
M  V30 7573 O 996.933 -2.13714 -7.55141 0
M  V30 7574 O 996.97 0.248149 -8.21425 0
M  V30 7575 C 996.81 1.22779 -9.30434 0
M  V30 7576 C 997.35 2.56293 -8.80664 0
M  V30 7577 O 996.294 3.02979 -8.09349 0
M  V30 7578 C 998.568 2.57523 -7.89775 0
M  V30 7579 O 999.306 3.7668 -7.89438 0
M  V30 7580 C 997.899 2.20997 -6.55446 0
M  V30 7581 O 998.698 2.71895 -5.48509 0
M  V30 7582 C 996.562 2.89693 -6.67988 0
M  V30 7583 H 996.594 3.88793 -6.19859 0
M  V30 7584 H 997.777 1.12046 -6.44229 0
M  V30 7585 H 999.261 1.7746 -8.19711 0
M  V30 7586 H 997.567 3.20706 -9.67112 0
M  V30 7587 H 997.377 0.901032 -10.1892 0
M  V30 7588 H 995.747 1.33049 -9.56592 0
M  V30 7589 H 998.386 3.57847 -5.23962 0
M  V30 7590 P 1000.24 3.65191 -7.99657 0
M  V30 7591 O 1001.67 3.89332 -8.45794 0
M  V30 7592 O 999.883 2.28472 -7.50807 0
M  V30 7593 O 999.92 4.64972 -6.77611 0
M  V30 7594 C 999.76 6.06319 -7.16352 0
M  V30 7595 C 1000.3 6.91731 -6.02299 0
M  V30 7596 O 999.244 6.92449 -5.17064 0
M  V30 7597 C 1001.52 6.43627 -5.25174 0
M  V30 7598 O 1002.26 7.43686 -4.60469 0
M  V30 7599 C 1000.85 5.40275 -4.31916 0
M  V30 7600 O 1001.65 5.25279 -3.14438 0
M  V30 7601 C 999.512 6.04847 -4.05327 0
M  V30 7602 H 999.544 6.62195 -3.11261 0
M  V30 7603 H 1000.73 4.42556 -4.81383 0
M  V30 7604 H 1002.21 5.92458 -5.93643 0
M  V30 7605 H 1000.52 7.92655 -6.402 0
M  V30 7606 H 1000.33 6.26671 -8.0846 0
M  V30 7607 H 998.697 6.29101 -7.32804 0
M  V30 7608 H 1001.34 5.84315 -2.47318 0
M  V30 7609 P 1003.19 7.39546 -4.75277 0
M  V30 7610 O 1004.62 7.84798 -5.01039 0
M  V30 7611 O 1002.83 5.9812 -5.08098 0
M  V30 7612 O 1002.87 7.57503 -3.1866 0
M  V30 7613 C 1002.71 8.97357 -2.74833 0
M  V30 7614 C 1003.25 9.07548 -1.32709 0
M  V30 7615 O 1002.19 8.62072 -0.606159 0
M  V30 7616 C 1004.47 8.25383 -0.938334 0
M  V30 7617 O 1005.21 8.74577 0.146954 0
M  V30 7618 C 1003.8 6.8802 -0.712559 0
M  V30 7619 O 1004.6 6.1189 0.194655 0
M  V30 7620 C 1002.46 7.27966 -0.139777 0
M  V30 7621 H 1002.49 7.25354 0.961601 0
M  V30 7622 H 1003.68 6.32557 -1.65702 0
M  V30 7623 H 1005.16 8.19355 -1.79097 0
M  V30 7624 H 1003.47 10.1294 -1.10029 0
M  V30 7625 H 1003.28 9.64276 -3.41316 0
M  V30 7626 H 1001.65 9.25417 -2.76357 0
M  V30 7627 H 1004.29 6.25267 1.07847 0
M  V30 7628 P 1006.14 8.791 7.86616e-12 0
M  V30 7629 O 1007.57 9.31096 0.027933 0
M  V30 7630 O 1005.78 7.77869 -1.04071 0
M  V30 7631 O 1005.82 8.09533 1.41463 0
M  V30 7632 C 1005.66 9.0349 2.53943 0
M  V30 7633 C 1006.2 8.35226 3.79016 0
M  V30 7634 O 1005.15 7.57992 4.15078 0
M  V30 7635 C 1007.42 7.45087 3.67298 0
M  V30 7636 O 1008.16 7.27796 4.85194 0
M  V30 7637 C 1006.75 6.17323 3.12027 0
M  V30 7638 O 1007.55 5.04231 3.47188 0
M  V30 7639 C 1005.41 6.19961 3.81809 0
M  V30 7640 H 1005.45 5.58218 4.73051 0
M  V30 7641 H 1006.63 6.21726 2.02589 0
M  V30 7642 H 1008.11 7.86112 2.9231 0
M  V30 7643 H 1006.42 9.11627 4.55076 0
M  V30 7644 H 1006.23 9.9573 2.34194 0
M  V30 7645 H 1004.6 9.2792 2.67832 0
M  V30 7646 H 1007.24 4.67702 4.28772 0
M  V30 7647 P 1009.09 7.39546 4.75277 0
M  V30 7648 O 1010.52 7.81777 5.05738 0
M  V30 7649 O 1008.73 7.1065 3.32998 0
M  V30 7650 O 1008.77 6.04542 5.56673 0
M  V30 7651 C 1008.61 6.22772 7.02095 0
M  V30 7652 C 1009.15 4.97725 7.70406 0
M  V30 7653 O 1008.1 4.13256 7.58987 0
M  V30 7654 C 1010.37 4.28231 7.11815 0
M  V30 7655 O 1011.11 3.49945 8.01648 0
M  V30 7656 C 1009.7 3.5063 5.96244 0
M  V30 7657 O 1010.5 2.36482 5.64681 0
M  V30 7658 C 1008.36 3.15122 6.56374 0
M  V30 7659 H 1008.4 2.13853 6.99751 0
M  V30 7660 H 1009.58 4.13501 5.06559 0
M  V30 7661 H 1011.06 5.03285 6.70911 0
M  V30 7662 H 1009.37 5.20877 8.75697 0
M  V30 7663 H 1009.18 7.11046 7.35349 0
M  V30 7664 H 1007.55 6.35815 7.26986 0
M  V30 7665 H 1010.19 1.61644 6.13565 0
M  V30 7666 P 1012.05 3.65191 7.99657 0
M  V30 7667 O 1013.47 3.8425 8.48115 0
M  V30 7668 O 1011.69 4.17805 6.64342 0
M  V30 7669 O 1011.72 2.07613 7.95143 0
M  V30 7670 C 1011.56 1.44328 9.27336 0
M  V30 7671 C 1012.1 0.0220036 9.17197 0
M  V30 7672 O 1011.05 -0.626867 8.61923 0
M  V30 7673 C 1013.32 -0.24586 8.30336 0
M  V30 7674 O 1014.06 -1.39011 8.63583 0
M  V30 7675 C 1012.65 -0.273849 6.91158 0
M  V30 7676 O 1013.45 -1.06348 6.02892 0
M  V30 7677 C 1011.31 -0.897649 7.22545 0
M  V30 7678 H 1011.35 -1.9841 7.04286 0
M  V30 7679 H 1012.53 0.739928 6.497 0
M  V30 7680 H 1014.01 0.60668 8.36503 0
M  V30 7681 H 1012.32 -0.352479 10.1829 0
M  V30 7682 H 1012.13 2.00611 10.0304 0
M  V30 7683 H 1010.5 1.41843 9.55327 0
M  V30 7684 H 1013.14 -1.95734 6.03555 0
M  V30 7685 P 1015 -1.25109 8.70152 0
M  V30 7686 O 1016.42 -1.35274 9.21221 0
M  V30 7687 O 1014.64 -0.0769065 7.84762 0
M  V30 7688 O 1014.67 -2.55232 7.81161 0
M  V30 7689 C 1014.51 -3.79939 8.58154 0
M  V30 7690 C 1015.05 -4.94023 7.72785 0
M  V30 7691 O 1014 -5.18726 6.91205 0
M  V30 7692 C 1016.27 -4.69597 6.85231 0
M  V30 7693 O 1017.01 -5.83832 6.51337 0
M  V30 7694 C 1015.6 -3.96706 5.66633 0
M  V30 7695 O 1016.4 -4.15414 4.49689 0
M  V30 7696 C 1014.27 -4.66153 5.59313 0
M  V30 7697 H 1014.3 -5.47679 4.85214 0
M  V30 7698 H 1015.48 -2.89008 5.86566 0
M  V30 7699 H 1016.96 -4.0121 7.36511 0
M  V30 7700 H 1015.27 -5.80182 8.37584 0
M  V30 7701 H 1015.08 -3.73517 9.52265 0
M  V30 7702 H 1013.45 -3.97163 8.80359 0
M  V30 7703 H 1016.09 -4.90969 4.01921 0
M  V30 7704 P 1017.95 -5.75688 6.64379 0
M  V30 7705 O 1019.37 -6.11849 7.01846 0
M  V30 7706 O 1017.59 -4.30744 6.56026 0
M  V30 7707 O 1017.62 -6.37042 5.19165 0
M  V30 7708 C 1017.46 -7.83578 5.16515 0
M  V30 7709 C 1018 -8.33398 3.83019 0
M  V30 7710 O 1016.95 -8.10074 3.01034 0
M  V30 7711 C 1019.22 -7.65514 3.2257 0
M  V30 7712 O 1019.96 -8.4329 2.32297 0
M  V30 7713 C 1018.55 -6.40075 2.62207 0
M  V30 7714 O 1019.35 -5.92589 1.53712 0
M  V30 7715 C 1017.22 -6.9454 2.18503 0
M  V30 7716 H 1017.25 -7.23063 1.12091 0
M  V30 7717 H 1018.43 -5.6025 3.37201 0
M  V30 7718 H 1019.91 -7.35707 4.02681 0
M  V30 7719 H 1018.22 -9.40912 3.9095 0
M  V30 7720 H 1018.03 -8.29056 5.99158 0
M  V30 7721 H 1016.4 -8.10073 5.25882 0
M  V30 7722 H 1019.04 -6.30324 0.726794 0
M  V30 7723 P 1020.9 -8.4349 2.47671 0
M  V30 7724 O 1022.32 -8.94167 2.5964 0
M  V30 7725 O 1020.54 -7.1704 3.19006 0
M  V30 7726 O 1020.57 -8.16596 0.923387 0
M  V30 7727 C 1020.41 -9.38437 0.108857 0
M  V30 7728 C 1020.95 -9.08175 -1.28353 0
M  V30 7729 O 1019.9 -8.44229 -1.84713 0
M  V30 7730 C 1022.17 -8.18386 -1.42505 0
M  V30 7731 O 1022.91 -8.3501 -2.60497 0
M  V30 7732 C 1021.5 -6.80225 -1.25468 0
M  V30 7733 O 1022.3 -5.81621 -1.91066 0
M  V30 7734 C 1020.17 -7.02416 -1.9168 0
M  V30 7735 H 1020.2 -6.6888 -2.96621 0
M  V30 7736 H 1021.38 -6.53617 -0.192223 0
M  V30 7737 H 1022.87 -8.36622 -0.589963 0
M  V30 7738 H 1021.17 -10.0291 -1.79807 0
M  V30 7739 H 1020.98 -10.2138 0.558219 0
M  V30 7740 H 1019.35 -9.6579 0.0444202 0
M  V30 7741 H 1021.99 -5.69556 -2.79637 0
M  V30 7742 P 1023.85 -8.4349 -2.47671 0
M  V30 7743 O 1025.27 -8.92593 -2.65 0
M  V30 7744 O 1023.49 -7.7568 -1.19296 0
M  V30 7745 O 1023.52 -7.36886 -3.63805 0
M  V30 7746 C 1023.36 -7.95349 -4.982 0
M  V30 7747 C 1023.9 -6.94612 -5.98974 0
M  V30 7748 O 1022.85 -6.10347 -6.11815 0
M  V30 7749 C 1025.12 -6.11426 -5.62335 0
M  V30 7750 O 1025.86 -5.6162 -6.70584 0
M  V30 7751 C 1024.45 -5.04409 -4.73308 0
M  V30 7752 O 1025.25 -3.85992 -4.75183 0
M  V30 7753 C 1023.12 -4.8728 -5.41006 0
M  V30 7754 H 1023.15 -4.02333 -6.11157 0
M  V30 7755 H 1024.33 -5.39466 -3.69543 0
M  V30 7756 H 1025.82 -6.71916 -5.01943 0
M  V30 7757 H 1024.12 -7.4649 -6.93477 0
M  V30 7758 H 1023.93 -8.89416 -5.05237 0
M  V30 7759 H 1022.3 -8.14876 -5.18409 0
M  V30 7760 H 1024.94 -3.27957 -5.4317 0
M  V30 7761 P 1026.8 -5.75688 -6.64379 0
M  V30 7762 O 1028.22 -6.07627 -7.05504 0
M  V30 7763 O 1026.44 -5.88047 -5.19722 0
M  V30 7764 O 1026.48 -4.2322 -7.04443 0
M  V30 7765 C 1026.32 -3.99743 -8.4911 0
M  V30 7766 C 1026.86 -2.60516 -8.79425 0
M  V30 7767 O 1025.8 -1.82684 -8.4467 0
M  V30 7768 C 1028.07 -2.10343 -8.03628 0
M  V30 7769 O 1028.81 -1.09919 -8.67766 0
M  V30 7770 C 1027.4 -1.68446 -6.70876 0
M  V30 7771 O 1028.2 -0.678137 -6.08433 0
M  V30 7772 C 1026.07 -1.17436 -7.18567 0
M  V30 7773 H 1026.1 -0.0804732 -7.31656 0
M  V30 7774 H 1027.28 -2.54037 -6.02537 0
M  V30 7775 H 1028.77 -2.93881 -7.85526 0
M  V30 7776 H 1027.07 -2.53065 -9.86973 0
M  V30 7777 H 1026.88 -4.75072 -9.05887 0
M  V30 7778 H 1025.25 -4.05244 -8.76668 0
M  V30 7779 H 1027.89 0.177647 -6.34251 0
M  V30 7780 P 1029.75 -1.25109 -8.70152 0
M  V30 7781 O 1031.17 -1.29744 -9.22016 0
M  V30 7782 O 1029.39 -2.13714 -7.55141 0
M  V30 7783 O 1029.43 0.248149 -8.21425 0
M  V30 7784 C 1029.27 1.22779 -9.30434 0
M  V30 7785 C 1029.81 2.56293 -8.80664 0
M  V30 7786 O 1028.75 3.02979 -8.09349 0
M  V30 7787 C 1031.02 2.57523 -7.89775 0
M  V30 7788 O 1031.76 3.7668 -7.89438 0
M  V30 7789 C 1030.35 2.20997 -6.55446 0
M  V30 7790 O 1031.15 2.71895 -5.48509 0
M  V30 7791 C 1029.02 2.89693 -6.67988 0
M  V30 7792 H 1029.05 3.88793 -6.19859 0
M  V30 7793 H 1030.23 1.12046 -6.44229 0
M  V30 7794 H 1031.72 1.7746 -8.19711 0
M  V30 7795 H 1030.02 3.20706 -9.67112 0
M  V30 7796 H 1029.83 0.901032 -10.1892 0
M  V30 7797 H 1028.2 1.33049 -9.56592 0
M  V30 7798 H 1030.84 3.57847 -5.23962 0
M  V30 7799 P 1032.7 3.65191 -7.99657 0
M  V30 7800 O 1034.12 3.89332 -8.45794 0
M  V30 7801 O 1032.34 2.28472 -7.50807 0
M  V30 7802 O 1032.38 4.64972 -6.77611 0
M  V30 7803 C 1032.22 6.06319 -7.16352 0
M  V30 7804 C 1032.76 6.91731 -6.02299 0
M  V30 7805 O 1031.7 6.92449 -5.17064 0
M  V30 7806 C 1033.97 6.43627 -5.25174 0
M  V30 7807 O 1034.71 7.43686 -4.60469 0
M  V30 7808 C 1033.31 5.40275 -4.31916 0
M  V30 7809 O 1034.1 5.25279 -3.14438 0
M  V30 7810 C 1031.97 6.04847 -4.05327 0
M  V30 7811 H 1032 6.62195 -3.11261 0
M  V30 7812 H 1033.18 4.42556 -4.81383 0
M  V30 7813 H 1034.67 5.92458 -5.93643 0
M  V30 7814 H 1032.97 7.92655 -6.402 0
M  V30 7815 H 1032.78 6.26671 -8.0846 0
M  V30 7816 H 1031.15 6.29101 -7.32804 0
M  V30 7817 H 1033.79 5.84315 -2.47318 0
M  V30 7818 P 1035.65 7.39546 -4.75277 0
M  V30 7819 O 1037.07 7.84882 -5.01092 0
M  V30 7820 O 1035.29 5.9812 -5.08098 0
M  V30 7821 O 1035.33 7.57503 -3.1866 0
M  V30 7822 C 1035.17 8.97452 -2.74862 0
M  V30 7823 C 1035.71 9.07548 -1.32709 0
M  V30 7824 O 1034.65 8.61972 -0.606089 0
M  V30 7825 C 1036.93 8.25383 -0.938334 0
M  V30 7826 O 1037.66 8.74577 0.146954 0
M  V30 7827 C 1036.26 6.8802 -0.712559 0
M  V30 7828 O 1037.06 6.1181 0.188505 0
M  V30 7829 C 1034.92 7.27966 -0.139777 0
M  V30 7830 N 1033.88 6.39368 -0.623421 0
M  V30 7831 C 1034.05 5.71761 -1.78245 0
M  V30 7832 N 1033.02 4.962 -2.10491 0
M  V30 7833 C 1032.13 5.16158 -1.0635 0
M  V30 7834 C 1030.87 4.60425 -0.810266 0
M  V30 7835 N 1030.3 5.06 0.348685 0
M  V30 7836 C 1030.9 5.94532 1.20395 0
M  V30 7837 N 1032.08 6.48452 1.01191 0
M  V30 7838 C 1032.66 6.04423 -0.146291 0
M  V30 7839 H 1036.13 6.32625 -1.65044 0
M  V30 7840 H 1037.62 8.19355 -1.79097 0
M  V30 7841 H 1035.92 10.1305 -1.09016 0
M  V30 7842 H 1035.73 9.64276 -3.41316 0
M  V30 7843 H 1034.1 9.25417 -2.76357 0
M  V30 7844 H 1034.95 5.79354 -2.38959 0
M  V30 7845 H 1036.74 6.25169 1.0783 0
M  V30 7846 P 1038.6 8.791 8.17632e-12 0
M  V30 7847 O 1040.02 9.31196 0.027936 0
M  V30 7848 O 1038.24 7.77869 -1.04071 0
M  V30 7849 O 1038.28 8.09533 1.41463 0
M  V30 7850 C 1038.12 9.03587 2.5397 0
M  V30 7851 C 1038.66 8.35226 3.79016 0
M  V30 7852 O 1037.6 7.57904 4.1503 0
M  V30 7853 C 1039.88 7.45087 3.67298 0
M  V30 7854 O 1040.61 7.27796 4.85194 0
M  V30 7855 C 1039.21 6.17323 3.12027 0
M  V30 7856 O 1040.01 5.04496 3.46627 0
M  V30 7857 C 1037.87 6.19961 3.81809 0
M  V30 7858 N 1036.83 5.71575 2.93223 0
M  V30 7859 C 1037 5.77362 1.59168 0
M  V30 7860 N 1035.97 5.3123 0.911893 0
M  V30 7861 C 1035.08 4.91717 1.89588 0
M  V30 7862 C 1033.82 4.3114 1.8076 0
M  V30 7863 N 1033.25 4.06823 3.02898 0
M  V30 7864 C 1033.85 4.35062 4.22711 0
M  V30 7865 N 1035.03 4.90805 4.35707 0
M  V30 7866 C 1035.61 5.16382 3.14469 0
M  V30 7867 H 1039.08 6.21428 2.0318 0
M  V30 7868 H 1040.57 7.86112 2.9231 0
M  V30 7869 H 1038.87 9.11171 4.55987 0
M  V30 7870 H 1038.68 9.9573 2.34194 0
M  V30 7871 H 1037.05 9.2792 2.67832 0
M  V30 7872 H 1037.9 6.16575 1.12198 0
M  V30 7873 H 1039.69 4.67628 4.28704 0
M  V30 7874 P 1041.55 7.39546 4.75277 0
M  V30 7875 O 1042.95 7.89013 5.04841 0
M  V30 7876 O 1041.17 7.16603 3.32298 0
M  V30 7877 O 1041.23 6.04468 5.56605 0
M  V30 7878 C 1041.07 6.22772 7.02095 0
M  V30 7879 C 1041.61 4.97671 7.70322 0
M  V30 7880 O 1040.55 4.13208 7.58899 0
M  V30 7881 C 1042.83 4.28231 7.11815 0
M  V30 7882 O 1043.56 3.49945 8.01648 0
M  V30 7883 C 1042.16 3.5063 5.96244 0
M  V30 7884 O 1042.96 2.36443 5.64589 0
M  V30 7885 C 1040.82 3.15122 6.56374 0
M  V30 7886 N 1039.78 3.22311 5.55692 0
M  V30 7887 C 1038.74 2.32244 5.62437 0
M  V30 7888 O 1038.78 1.43107 6.50341 0
M  V30 7889 N 1037.73 2.40811 4.73368 0
M  V30 7890 C 1037.78 3.344 3.77753 0
M  V30 7891 N 1036.77 3.41475 2.91848 0
M  V30 7892 C 1038.87 4.24712 3.66679 0
M  V30 7893 C 1039.84 4.15625 4.58307 0
M  V30 7894 H 1040.85 2.13823 6.99656 0
M  V30 7895 H 1042.04 4.12931 5.06895 0
M  V30 7896 H 1043.52 5.02674 6.71494 0
M  V30 7897 H 1041.83 5.20001 8.76217 0
M  V30 7898 H 1041.63 7.11046 7.35349 0
M  V30 7899 H 1040 6.35749 7.26911 0
M  V30 7900 H 1038.92 4.9828 2.86753 0
M  V30 7901 H 1040.69 4.84464 4.54228 0
M  V30 7902 H 1035.98 2.75785 2.99862 0
M  V30 7903 H 1036.77 4.12304 2.17382 0
M  V30 7904 H 1042.74 1.65592 6.23485 0
M  V30 7905 P 1044.5 3.65191 7.99657 0
M  V30 7906 O 1045.92 3.8425 8.48115 0
M  V30 7907 O 1044.14 4.17805 6.64342 0
M  V30 7908 O 1044.18 2.07613 7.95143 0
M  V30 7909 C 1044.02 1.44328 9.27336 0
M  V30 7910 C 1044.56 0.0220036 9.17197 0
M  V30 7911 O 1043.5 -0.626867 8.61923 0
M  V30 7912 C 1045.78 -0.24586 8.30336 0
M  V30 7913 O 1046.51 -1.39011 8.63583 0
M  V30 7914 C 1045.11 -0.273849 6.91158 0
M  V30 7915 O 1045.91 -1.06348 6.02892 0
M  V30 7916 C 1043.77 -0.897649 7.22545 0
M  V30 7917 H 1043.8 -1.9841 7.04286 0
M  V30 7918 H 1044.99 0.739928 6.497 0
M  V30 7919 H 1046.47 0.60668 8.36503 0
M  V30 7920 H 1044.78 -0.352479 10.1829 0
M  V30 7921 H 1044.59 2.00611 10.0304 0
M  V30 7922 H 1042.96 1.41843 9.55327 0
M  V30 7923 H 1045.59 -1.95734 6.03555 0
M  V30 7924 P 1047.45 -1.25109 8.70152 0
M  V30 7925 O 1048.87 -1.35274 9.21221 0
M  V30 7926 O 1047.09 -0.0769065 7.84762 0
M  V30 7927 O 1047.13 -2.55232 7.81161 0
M  V30 7928 C 1046.97 -3.79939 8.58154 0
M  V30 7929 C 1047.51 -4.94023 7.72785 0
M  V30 7930 O 1046.45 -5.18726 6.91205 0
M  V30 7931 C 1048.73 -4.69597 6.85231 0
M  V30 7932 O 1049.47 -5.83832 6.51337 0
M  V30 7933 C 1048.06 -3.96706 5.66633 0
M  V30 7934 O 1048.86 -4.15414 4.49689 0
M  V30 7935 C 1046.72 -4.66153 5.59313 0
M  V30 7936 H 1046.75 -5.47679 4.85214 0
M  V30 7937 H 1047.94 -2.89008 5.86566 0
M  V30 7938 H 1049.42 -4.0121 7.36511 0
M  V30 7939 H 1047.73 -5.80182 8.37584 0
M  V30 7940 H 1047.54 -3.73517 9.52265 0
M  V30 7941 H 1045.91 -3.97163 8.80359 0
M  V30 7942 H 1048.55 -4.90969 4.01921 0
M  V30 7943 P 1050.4 -5.75688 6.64379 0
M  V30 7944 O 1051.82 -6.11849 7.01846 0
M  V30 7945 O 1050.04 -4.30744 6.56026 0
M  V30 7946 O 1050.08 -6.37042 5.19165 0
M  V30 7947 C 1049.92 -7.83578 5.16515 0
M  V30 7948 C 1050.46 -8.33398 3.83019 0
M  V30 7949 O 1049.4 -8.10074 3.01034 0
M  V30 7950 C 1051.68 -7.65514 3.2257 0
M  V30 7951 O 1052.42 -8.4329 2.32297 0
M  V30 7952 C 1051.01 -6.40075 2.62207 0
M  V30 7953 O 1051.81 -5.92589 1.53712 0
M  V30 7954 C 1049.67 -6.9454 2.18503 0
M  V30 7955 H 1049.7 -7.23063 1.12091 0
M  V30 7956 H 1050.89 -5.6025 3.37201 0
M  V30 7957 H 1052.37 -7.35707 4.02681 0
M  V30 7958 H 1050.68 -9.40912 3.9095 0
M  V30 7959 H 1050.49 -8.29056 5.99158 0
M  V30 7960 H 1048.86 -8.10073 5.25882 0
M  V30 7961 H 1051.5 -6.30324 0.726794 0
M  V30 7962 P 1053.35 -8.4349 2.47671 0
M  V30 7963 O 1054.78 -8.94167 2.5964 0
M  V30 7964 O 1052.99 -7.1704 3.19006 0
M  V30 7965 O 1053.03 -8.16596 0.923387 0
M  V30 7966 C 1052.87 -9.38437 0.108857 0
M  V30 7967 C 1053.41 -9.08175 -1.28353 0
M  V30 7968 O 1052.35 -8.44229 -1.84713 0
M  V30 7969 C 1054.63 -8.18386 -1.42505 0
M  V30 7970 O 1055.37 -8.3501 -2.60497 0
M  V30 7971 C 1053.96 -6.80225 -1.25468 0
M  V30 7972 O 1054.76 -5.81621 -1.91066 0
M  V30 7973 C 1052.62 -7.02416 -1.9168 0
M  V30 7974 H 1052.65 -6.6888 -2.96621 0
M  V30 7975 H 1053.84 -6.53617 -0.192223 0
M  V30 7976 H 1055.32 -8.36622 -0.589963 0
M  V30 7977 H 1053.63 -10.0291 -1.79807 0
M  V30 7978 H 1053.44 -10.2138 0.558219 0
M  V30 7979 H 1051.81 -9.6579 0.0444202 0
M  V30 7980 H 1054.45 -5.69556 -2.79637 0
M  V30 7981 P 1056.3 -8.4349 -2.47671 0
M  V30 7982 O 1057.73 -8.92689 -2.65029 0
M  V30 7983 O 1055.94 -7.7568 -1.19296 0
M  V30 7984 O 1055.98 -7.36886 -3.63805 0
M  V30 7985 C 1055.82 -7.95433 -4.98253 0
M  V30 7986 C 1056.36 -6.94612 -5.98974 0
M  V30 7987 O 1055.31 -6.10277 -6.11744 0
M  V30 7988 C 1057.58 -6.11426 -5.62335 0
M  V30 7989 O 1058.32 -5.6162 -6.70584 0
M  V30 7990 C 1056.91 -5.04409 -4.73308 0
M  V30 7991 O 1057.71 -3.86404 -4.74719 0
M  V30 7992 C 1055.57 -4.8728 -5.41006 0
M  V30 7993 N 1054.53 -4.65812 -4.42377 0
M  V30 7994 C 1054.7 -5.09132 -3.15382 0
M  V30 7995 N 1053.67 -4.84021 -2.3716 0
M  V30 7996 C 1052.79 -4.18386 -3.20441 0
M  V30 7997 C 1051.52 -3.6275 -2.94905 0
M  V30 7998 N 1050.96 -3.05008 -4.05243 0
M  V30 7999 C 1051.56 -2.98348 -5.28159 0
M  V30 8000 N 1052.73 -3.48171 -5.56333 0
M  V30 8001 C 1053.31 -4.06869 -4.47212 0
M  V30 8002 H 1056.79 -5.39013 -3.70026 0
M  V30 8003 H 1058.27 -6.71916 -5.01943 0
M  V30 8004 H 1056.58 -7.45796 -6.94223 0
M  V30 8005 H 1056.39 -8.89416 -5.05237 0
M  V30 8006 H 1054.76 -8.14876 -5.18409 0
M  V30 8007 H 1055.6 -5.59989 -2.81362 0
M  V30 8008 H 1057.4 -3.27906 -5.43085 0
M  V30 8009 P 1059.25 -5.75688 -6.64379 0
M  V30 8010 O 1060.68 -6.07627 -7.05504 0
M  V30 8011 O 1058.89 -5.88047 -5.19722 0
M  V30 8012 O 1058.93 -4.2322 -7.04443 0
M  V30 8013 C 1058.77 -3.99743 -8.4911 0
M  V30 8014 C 1059.31 -2.60516 -8.79425 0
M  V30 8015 O 1058.26 -1.82684 -8.4467 0
M  V30 8016 C 1060.53 -2.10343 -8.03628 0
M  V30 8017 O 1061.27 -1.09919 -8.67766 0
M  V30 8018 C 1059.86 -1.68446 -6.70876 0
M  V30 8019 O 1060.66 -0.678137 -6.08433 0
M  V30 8020 C 1058.52 -1.17436 -7.18567 0
M  V30 8021 H 1058.56 -0.0804732 -7.31656 0
M  V30 8022 H 1059.74 -2.54037 -6.02537 0
M  V30 8023 H 1061.22 -2.93881 -7.85526 0
M  V30 8024 H 1059.53 -2.53065 -9.86973 0
M  V30 8025 H 1059.34 -4.75072 -9.05887 0
M  V30 8026 H 1057.71 -4.05244 -8.76668 0
M  V30 8027 H 1060.35 0.177647 -6.34251 0
M  V30 8028 P 1062.21 -1.25109 -8.70152 0
M  V30 8029 O 1063.63 -1.29744 -9.22016 0
M  V30 8030 O 1061.85 -2.13714 -7.55141 0
M  V30 8031 O 1061.88 0.248149 -8.21425 0
M  V30 8032 C 1061.72 1.22779 -9.30434 0
M  V30 8033 C 1062.26 2.56293 -8.80664 0
M  V30 8034 O 1061.21 3.02979 -8.09349 0
M  V30 8035 C 1063.48 2.57523 -7.89775 0
M  V30 8036 O 1064.22 3.7668 -7.89438 0
M  V30 8037 C 1062.81 2.20997 -6.55446 0
M  V30 8038 O 1063.61 2.71895 -5.48509 0
M  V30 8039 C 1061.47 2.89693 -6.67988 0
M  V30 8040 H 1061.51 3.88793 -6.19859 0
M  V30 8041 H 1062.69 1.12046 -6.44229 0
M  V30 8042 H 1064.17 1.7746 -8.19711 0
M  V30 8043 H 1062.48 3.20706 -9.67112 0
M  V30 8044 H 1062.29 0.901032 -10.1892 0
M  V30 8045 H 1060.66 1.33049 -9.56592 0
M  V30 8046 H 1063.3 3.57847 -5.23962 0
M  V30 8047 P 1065.16 3.65191 -7.99657 0
M  V30 8048 O 1066.58 3.89374 -8.45885 0
M  V30 8049 O 1064.8 2.28472 -7.50807 0
M  V30 8050 O 1064.83 4.64972 -6.77611 0
M  V30 8051 C 1064.67 6.06383 -7.16428 0
M  V30 8052 C 1065.21 6.91731 -6.02299 0
M  V30 8053 O 1064.16 6.92369 -5.17005 0
M  V30 8054 C 1066.43 6.43627 -5.25174 0
M  V30 8055 O 1067.17 7.43686 -4.60469 0
M  V30 8056 C 1065.76 5.40275 -4.31916 0
M  V30 8057 O 1066.56 5.24878 -3.14911 0
M  V30 8058 C 1064.42 6.04847 -4.05327 0
M  V30 8059 N 1063.38 5.04166 -3.98114 0
M  V30 8060 C 1063.55 3.84629 -4.59066 0
M  V30 8061 N 1062.52 3.0363 -4.45343 0
M  V30 8062 C 1061.64 3.76722 -3.68523 0
M  V30 8063 C 1060.37 3.43528 -3.17088 0
M  V30 8064 N 1059.81 4.44526 -2.44231 0
M  V30 8065 C 1060.41 5.65243 -2.20146 0
M  V30 8066 N 1061.59 6.00221 -2.65453 0
M  V30 8067 C 1062.16 5.00564 -3.39083 0
M  V30 8068 H 1065.64 4.42969 -4.80867 0
M  V30 8069 H 1067.12 5.92458 -5.93643 0
M  V30 8070 H 1065.43 7.93295 -6.39407 0
M  V30 8071 H 1065.24 6.26671 -8.0846 0
M  V30 8072 H 1063.61 6.29101 -7.32804 0
M  V30 8073 H 1064.45 3.58193 -5.14248 0
M  V30 8074 H 1066.25 5.84223 -2.47279 0
M  V30 8075 P 1068.11 7.39546 -4.75277 0
M  V30 8076 O 1069.53 7.84882 -5.01092 0
M  V30 8077 O 1067.75 5.9812 -5.08098 0
M  V30 8078 O 1067.78 7.57503 -3.1866 0
M  V30 8079 C 1067.62 8.97452 -2.74862 0
M  V30 8080 C 1068.16 9.07548 -1.32709 0
M  V30 8081 O 1067.11 8.61972 -0.606089 0
M  V30 8082 C 1069.38 8.25383 -0.938334 0
M  V30 8083 O 1070.12 8.74577 0.146954 0
M  V30 8084 C 1068.71 6.8802 -0.712559 0
M  V30 8085 O 1069.51 6.1181 0.188505 0
M  V30 8086 C 1067.38 7.27966 -0.139777 0
M  V30 8087 N 1066.33 6.39368 -0.623421 0
M  V30 8088 C 1066.5 5.71761 -1.78245 0
M  V30 8089 N 1065.47 4.962 -2.10491 0
M  V30 8090 C 1064.59 5.16158 -1.0635 0
M  V30 8091 C 1063.32 4.60425 -0.810266 0
M  V30 8092 N 1062.76 5.06 0.348685 0
M  V30 8093 C 1063.36 5.94532 1.20395 0
M  V30 8094 N 1064.54 6.48452 1.01191 0
M  V30 8095 C 1065.11 6.04423 -0.146291 0
M  V30 8096 H 1068.59 6.32625 -1.65044 0
M  V30 8097 H 1070.07 8.19355 -1.79097 0
M  V30 8098 H 1068.38 10.1305 -1.09016 0
M  V30 8099 H 1068.19 9.64276 -3.41316 0
M  V30 8100 H 1066.56 9.25417 -2.76357 0
M  V30 8101 H 1067.4 5.79354 -2.38959 0
M  V30 8102 H 1069.2 6.25169 1.0783 0
M  V30 8103 P 1071.06 8.791 8.48649e-12 0
M  V30 8104 O 1072.48 9.31096 0.027933 0
M  V30 8105 O 1070.7 7.77869 -1.04071 0
M  V30 8106 O 1070.73 8.09533 1.41463 0
M  V30 8107 C 1070.57 9.0349 2.53943 0
M  V30 8108 C 1071.11 8.35226 3.79016 0
M  V30 8109 O 1070.06 7.57992 4.15078 0
M  V30 8110 C 1072.33 7.45087 3.67298 0
M  V30 8111 O 1073.07 7.27796 4.85194 0
M  V30 8112 C 1071.66 6.17323 3.12027 0
M  V30 8113 O 1072.46 5.04231 3.47188 0
M  V30 8114 C 1070.33 6.19961 3.81809 0
M  V30 8115 H 1070.36 5.58218 4.73051 0
M  V30 8116 H 1071.54 6.21726 2.02589 0
M  V30 8117 H 1073.02 7.86112 2.9231 0
M  V30 8118 H 1071.33 9.11627 4.55076 0
M  V30 8119 H 1071.14 9.9573 2.34194 0
M  V30 8120 H 1069.51 9.2792 2.67832 0
M  V30 8121 H 1072.15 4.67702 4.28772 0
M  V30 8122 P 1074.01 7.39546 4.75277 0
M  V30 8123 O 1075.43 7.81945 5.05847 0
M  V30 8124 O 1073.65 7.1065 3.32998 0
M  V30 8125 O 1073.68 6.04542 5.56673 0
M  V30 8126 C 1073.52 6.22772 7.02095 0
M  V30 8127 C 1074.06 4.97671 7.70322 0
M  V30 8128 O 1073.01 4.13256 7.58987 0
M  V30 8129 C 1075.28 4.28231 7.11815 0
M  V30 8130 O 1076.02 3.49945 8.01648 0
M  V30 8131 C 1074.61 3.5063 5.96244 0
M  V30 8132 O 1075.41 2.36443 5.64589 0
M  V30 8133 C 1073.28 3.15122 6.56374 0
M  V30 8134 N 1072.23 3.22311 5.55692 0
M  V30 8135 C 1072.3 4.14382 4.59701 0
M  V30 8136 N 1071.25 4.04476 3.76958 0
M  V30 8137 C 1070.52 3.04892 4.26534 0
M  V30 8138 C 1069.21 2.57447 3.88189 0
M  V30 8139 O 1068.48 2.9785 2.96543 0
M  V30 8140 N 1068.78 1.55228 4.65922 0
M  V30 8141 C 1069.53 1.01152 5.73447 0
M  V30 8142 N 1068.93 -0.0472117 6.37783 0
M  V30 8143 N 1070.68 1.467 6.13813 0
M  V30 8144 C 1071.14 2.4931 5.38487 0
M  V30 8145 H 1073.31 2.13853 6.99751 0
M  V30 8146 H 1074.49 4.13438 5.06482 0
M  V30 8147 H 1075.98 5.02614 6.71414 0
M  V30 8148 H 1074.28 5.20877 8.75697 0
M  V30 8149 H 1074.09 7.11046 7.35349 0
M  V30 8150 H 1072.46 6.35815 7.26986 0
M  V30 8151 H 1067.88 1.15238 4.46468 0
M  V30 8152 H 1073.09 4.88312 4.49647 0
M  V30 8153 H 1068.02 -0.396382 6.05203 0
M  V30 8154 H 1069.4 -0.484997 7.18465 0
M  V30 8155 H 1075.1 1.61619 6.13468 0
M  V30 8156 P 1076.96 3.65191 7.99657 0
M  V30 8157 O 1078.38 3.8425 8.48115 0
M  V30 8158 O 1076.6 4.17805 6.64342 0
M  V30 8159 O 1076.64 2.07613 7.95143 0
M  V30 8160 C 1076.48 1.44328 9.27336 0
M  V30 8161 C 1077.02 0.0220036 9.17197 0
M  V30 8162 O 1075.96 -0.626867 8.61923 0
M  V30 8163 C 1078.23 -0.24586 8.30336 0
M  V30 8164 O 1078.97 -1.39011 8.63583 0
M  V30 8165 C 1077.56 -0.273849 6.91158 0
M  V30 8166 O 1078.36 -1.06348 6.02892 0
M  V30 8167 C 1076.23 -0.897649 7.22545 0
M  V30 8168 H 1076.26 -1.9841 7.04286 0
M  V30 8169 H 1077.44 0.739928 6.497 0
M  V30 8170 H 1078.93 0.60668 8.36503 0
M  V30 8171 H 1077.23 -0.352479 10.1829 0
M  V30 8172 H 1077.04 2.00611 10.0304 0
M  V30 8173 H 1075.41 1.41843 9.55327 0
M  V30 8174 H 1078.05 -1.95734 6.03555 0
M  V30 8175 P 1079.91 -1.25109 8.70152 0
M  V30 8176 O 1081.33 -1.35274 9.21221 0
M  V30 8177 O 1079.55 -0.0769065 7.84762 0
M  V30 8178 O 1079.59 -2.55232 7.81161 0
M  V30 8179 C 1079.43 -3.79939 8.58154 0
M  V30 8180 C 1079.97 -4.94023 7.72785 0
M  V30 8181 O 1078.91 -5.18726 6.91205 0
M  V30 8182 C 1081.18 -4.69597 6.85231 0
M  V30 8183 O 1081.92 -5.83832 6.51337 0
M  V30 8184 C 1080.51 -3.96706 5.66633 0
M  V30 8185 O 1081.31 -4.15414 4.49689 0
M  V30 8186 C 1079.18 -4.66153 5.59313 0
M  V30 8187 H 1079.21 -5.47679 4.85214 0
M  V30 8188 H 1080.39 -2.89008 5.86566 0
M  V30 8189 H 1081.88 -4.0121 7.36511 0
M  V30 8190 H 1080.18 -5.80182 8.37584 0
M  V30 8191 H 1079.99 -3.73517 9.52265 0
M  V30 8192 H 1078.36 -3.97163 8.80359 0
M  V30 8193 H 1081 -4.90969 4.01921 0
M  V30 8194 P 1082.86 -5.75688 6.64379 0
M  V30 8195 O 1084.28 -6.11915 7.01921 0
M  V30 8196 O 1082.5 -4.30744 6.56026 0
M  V30 8197 O 1082.54 -6.37042 5.19165 0
M  V30 8198 C 1082.38 -7.83662 5.1657 0
M  V30 8199 C 1082.92 -8.33398 3.83019 0
M  V30 8200 O 1081.86 -8.0998 3.00999 0
M  V30 8201 C 1084.13 -7.65514 3.2257 0
M  V30 8202 O 1084.87 -8.4329 2.32297 0
M  V30 8203 C 1083.47 -6.40075 2.62207 0
M  V30 8204 O 1084.26 -5.92338 1.5428 0
M  V30 8205 C 1082.13 -6.9454 2.18503 0
M  V30 8206 N 1081.09 -5.95905 2.39948 0
M  V30 8207 C 1081.25 -4.98383 3.32108 0
M  V30 8208 N 1080.23 -4.16798 3.41761 0
M  V30 8209 C 1079.34 -4.65287 2.47461 0
M  V30 8210 C 1078.08 -4.18946 2.07461 0
M  V30 8211 N 1077.48 -3.09661 2.60717 0
M  V30 8212 N 1077.51 -4.95327 1.09101 0
M  V30 8213 C 1078.11 -6.04369 0.519812 0
M  V30 8214 N 1079.29 -6.50694 0.855982 0
M  V30 8215 C 1079.86 -5.75818 1.84322 0
M  V30 8216 H 1082.16 -7.22964 1.12076 0
M  V30 8217 H 1083.34 -5.60502 3.36589 0
M  V30 8218 H 1084.83 -7.35707 4.02681 0
M  V30 8219 H 1083.13 -9.41302 3.90009 0
M  V30 8220 H 1082.94 -8.29056 5.99158 0
M  V30 8221 H 1081.31 -8.10073 5.25882 0
M  V30 8222 H 1077.58 -6.55843 -0.270373 0
M  V30 8223 H 1082.15 -4.88564 3.92502 0
M  V30 8224 H 1076.55 -2.80523 2.27218 0
M  V30 8225 H 1077.95 -2.55848 3.34465 0
M  V30 8226 H 1083.95 -6.30224 0.72668 0
M  V30 8227 P 1085.81 -8.4349 2.47671 0
M  V30 8228 O 1087.23 -8.94167 2.5964 0
M  V30 8229 O 1085.45 -7.1704 3.19006 0
M  V30 8230 O 1085.49 -8.16596 0.923387 0
M  V30 8231 C 1085.33 -9.38437 0.108857 0
M  V30 8232 C 1085.87 -9.08175 -1.28353 0
M  V30 8233 O 1084.81 -8.44229 -1.84713 0
M  V30 8234 C 1087.08 -8.18386 -1.42505 0
M  V30 8235 O 1087.82 -8.3501 -2.60497 0
M  V30 8236 C 1086.42 -6.80225 -1.25468 0
M  V30 8237 O 1087.21 -5.81621 -1.91066 0
M  V30 8238 C 1085.08 -7.02416 -1.9168 0
M  V30 8239 H 1085.11 -6.6888 -2.96621 0
M  V30 8240 H 1086.29 -6.53617 -0.192223 0
M  V30 8241 H 1087.78 -8.36622 -0.589963 0
M  V30 8242 H 1086.08 -10.0291 -1.79807 0
M  V30 8243 H 1085.89 -10.2138 0.558219 0
M  V30 8244 H 1084.26 -9.6579 0.0444202 0
M  V30 8245 H 1086.9 -5.69556 -2.79637 0
M  V30 8246 P 1088.76 -8.4349 -2.47671 0
M  V30 8247 O 1090.18 -8.92785 -2.65057 0
M  V30 8248 O 1088.4 -7.7568 -1.19296 0
M  V30 8249 O 1088.44 -7.36886 -3.63805 0
M  V30 8250 C 1088.28 -7.95349 -4.982 0
M  V30 8251 C 1088.82 -6.94537 -5.98908 0
M  V30 8252 O 1087.76 -6.10347 -6.11815 0
M  V30 8253 C 1090.04 -6.11426 -5.62335 0
M  V30 8254 O 1090.77 -5.6162 -6.70584 0
M  V30 8255 C 1089.37 -5.04409 -4.73308 0
M  V30 8256 O 1090.17 -3.85929 -4.75106 0
M  V30 8257 C 1088.03 -4.8728 -5.41006 0
M  V30 8258 N 1086.99 -4.65812 -4.42377 0
M  V30 8259 C 1087.05 -5.27109 -3.24335 0
M  V30 8260 N 1086 -4.94293 -2.47735 0
M  V30 8261 C 1085.27 -4.1271 -3.23359 0
M  V30 8262 C 1083.96 -3.56384 -2.99934 0
M  V30 8263 O 1083.23 -3.69331 -2.00616 0
M  V30 8264 N 1083.53 -2.80206 -4.03316 0
M  V30 8265 C 1084.28 -2.58614 -5.2172 0
M  V30 8266 N 1083.69 -1.75154 -6.13278 0
M  V30 8267 N 1085.44 -3.13689 -5.47619 0
M  V30 8268 C 1085.89 -3.90921 -4.46436 0
M  V30 8269 H 1088.06 -4.02333 -6.11157 0
M  V30 8270 H 1089.24 -5.39383 -3.69487 0
M  V30 8271 H 1090.73 -6.71414 -5.02615 0
M  V30 8272 H 1089.03 -7.4649 -6.93477 0
M  V30 8273 H 1088.84 -8.89416 -5.05237 0
M  V30 8274 H 1087.21 -8.14876 -5.18409 0
M  V30 8275 H 1082.64 -2.36355 -3.95916 0
M  V30 8276 H 1087.84 -5.95212 -2.93859 0
M  V30 8277 H 1082.77 -1.32473 -5.91856 0
M  V30 8278 H 1084.15 -1.5588 -7.03026 0
M  V30 8279 H 1089.85 -3.27906 -5.43085 0
M  V30 8280 P 1091.71 -5.75688 -6.64379 0
M  V30 8281 O 1093.13 -6.07627 -7.05504 0
M  V30 8282 O 1091.35 -5.88047 -5.19722 0
M  V30 8283 O 1091.39 -4.2322 -7.04443 0
M  V30 8284 C 1091.23 -3.99743 -8.4911 0
M  V30 8285 C 1091.77 -2.60516 -8.79425 0
M  V30 8286 O 1090.71 -1.82684 -8.4467 0
M  V30 8287 C 1092.99 -2.10343 -8.03628 0
M  V30 8288 O 1093.72 -1.09919 -8.67766 0
M  V30 8289 C 1092.32 -1.68446 -6.70876 0
M  V30 8290 O 1093.12 -0.678137 -6.08433 0
M  V30 8291 C 1090.98 -1.17436 -7.18567 0
M  V30 8292 H 1091.01 -0.0804732 -7.31656 0
M  V30 8293 H 1092.19 -2.54037 -6.02537 0
M  V30 8294 H 1093.68 -2.93881 -7.85526 0
M  V30 8295 H 1091.98 -2.53065 -9.86973 0
M  V30 8296 H 1091.79 -4.75072 -9.05887 0
M  V30 8297 H 1090.16 -4.05244 -8.76668 0
M  V30 8298 H 1092.8 0.177647 -6.34251 0
M  V30 8299 P 1094.66 -1.25109 -8.70152 0
M  V30 8300 O 1096.08 -1.29744 -9.22016 0
M  V30 8301 O 1094.3 -2.13714 -7.55141 0
M  V30 8302 O 1094.34 0.248149 -8.21425 0
M  V30 8303 C 1094.18 1.22779 -9.30434 0
M  V30 8304 C 1094.72 2.56293 -8.80664 0
M  V30 8305 O 1093.66 3.02979 -8.09349 0
M  V30 8306 C 1095.94 2.57523 -7.89775 0
M  V30 8307 O 1096.67 3.7668 -7.89438 0
M  V30 8308 C 1095.27 2.20997 -6.55446 0
M  V30 8309 O 1096.07 2.71895 -5.48509 0
M  V30 8310 C 1093.93 2.89693 -6.67988 0
M  V30 8311 H 1093.96 3.88793 -6.19859 0
M  V30 8312 H 1095.15 1.12046 -6.44229 0
M  V30 8313 H 1096.63 1.7746 -8.19711 0
M  V30 8314 H 1094.94 3.20706 -9.67112 0
M  V30 8315 H 1094.75 0.901032 -10.1892 0
M  V30 8316 H 1093.12 1.33049 -9.56592 0
M  V30 8317 H 1095.75 3.57847 -5.23962 0
M  V30 8318 P 1097.61 3.65191 -7.99657 0
M  V30 8319 O 1099.03 3.89416 -8.45976 0
M  V30 8320 O 1097.25 2.28472 -7.50807 0
M  V30 8321 O 1097.29 4.64972 -6.77611 0
M  V30 8322 C 1097.13 6.06319 -7.16352 0
M  V30 8323 C 1097.67 6.91655 -6.02234 0
M  V30 8324 O 1096.61 6.92449 -5.17064 0
M  V30 8325 C 1098.89 6.43627 -5.25174 0
M  V30 8326 O 1099.63 7.43686 -4.60469 0
M  V30 8327 C 1098.22 5.40275 -4.31916 0
M  V30 8328 O 1099.02 5.25193 -3.14386 0
M  V30 8329 C 1096.88 6.04847 -4.05327 0
M  V30 8330 N 1095.84 5.04166 -3.98114 0
M  V30 8331 C 1095.9 3.96049 -4.75587 0
M  V30 8332 N 1094.86 3.15559 -4.54006 0
M  V30 8333 C 1094.12 3.78802 -3.62491 0
M  V30 8334 C 1092.82 3.476 -3.10071 0
M  V30 8335 O 1092.08 2.51136 -3.37021 0
M  V30 8336 N 1092.39 4.39088 -2.19956 0
M  V30 8337 C 1093.13 5.53215 -1.81733 0
M  V30 8338 N 1092.54 6.31963 -0.860928 0
M  V30 8339 N 1094.29 5.86688 -2.32562 0
M  V30 8340 C 1094.74 4.97525 -3.23407 0
M  V30 8341 H 1096.91 6.62195 -3.11261 0
M  V30 8342 H 1098.1 4.42488 -4.8131 0
M  V30 8343 H 1099.58 5.93051 -5.9305 0
M  V30 8344 H 1097.89 7.92655 -6.402 0
M  V30 8345 H 1097.7 6.26671 -8.0846 0
M  V30 8346 H 1096.07 6.29101 -7.32804 0
M  V30 8347 H 1091.49 4.25523 -1.77604 0
M  V30 8348 H 1096.7 3.75576 -5.47333 0
M  V30 8349 H 1091.63 6.04684 -0.468946 0
M  V30 8350 H 1093 7.18054 -0.542422 0
M  V30 8351 H 1098.71 5.84223 -2.47279 0
M  V30 8352 P 1100.56 7.39546 -4.75277 0
M  V30 8353 O 1101.98 7.84798 -5.01039 0
M  V30 8354 O 1100.2 5.9812 -5.08098 0
M  V30 8355 O 1100.24 7.57503 -3.1866 0
M  V30 8356 C 1100.08 8.97357 -2.74833 0
M  V30 8357 C 1100.62 9.07548 -1.32709 0
M  V30 8358 O 1099.56 8.62072 -0.606159 0
M  V30 8359 C 1101.84 8.25383 -0.938334 0
M  V30 8360 O 1102.58 8.74577 0.146954 0
M  V30 8361 C 1101.17 6.8802 -0.712559 0
M  V30 8362 O 1101.97 6.1189 0.194655 0
M  V30 8363 C 1099.83 7.27966 -0.139777 0
M  V30 8364 H 1099.86 7.25354 0.961601 0
M  V30 8365 H 1101.05 6.32557 -1.65702 0
M  V30 8366 H 1102.53 8.19355 -1.79097 0
M  V30 8367 H 1100.84 10.1294 -1.10029 0
M  V30 8368 H 1100.65 9.64276 -3.41316 0
M  V30 8369 H 1099.02 9.25417 -2.76357 0
M  V30 8370 H 1101.66 6.25267 1.07847 0
M  V30 8371 P 1103.51 8.791 8.79665e-12 0
M  V30 8372 O 1104.94 9.31096 0.027933 0
M  V30 8373 O 1103.15 7.77869 -1.04071 0
M  V30 8374 O 1103.19 8.09533 1.41463 0
M  V30 8375 C 1103.03 9.0349 2.53943 0
M  V30 8376 C 1103.57 8.35226 3.79016 0
M  V30 8377 O 1102.51 7.57992 4.15078 0
M  V30 8378 C 1104.79 7.45087 3.67298 0
M  V30 8379 O 1105.53 7.27796 4.85194 0
M  V30 8380 C 1104.12 6.17323 3.12027 0
M  V30 8381 O 1104.92 5.04231 3.47188 0
M  V30 8382 C 1102.78 6.19961 3.81809 0
M  V30 8383 H 1102.81 5.58218 4.73051 0
M  V30 8384 H 1104 6.21726 2.02589 0
M  V30 8385 H 1105.48 7.86112 2.9231 0
M  V30 8386 H 1103.79 9.11627 4.55076 0
M  V30 8387 H 1103.6 9.9573 2.34194 0
M  V30 8388 H 1101.97 9.2792 2.67832 0
M  V30 8389 H 1104.61 4.67702 4.28772 0
M  V30 8390 P 1106.46 7.39546 4.75277 0
M  V30 8391 O 1107.89 7.81777 5.05738 0
M  V30 8392 O 1106.1 7.1065 3.32998 0
M  V30 8393 O 1106.14 6.04542 5.56673 0
M  V30 8394 C 1105.98 6.22772 7.02095 0
M  V30 8395 C 1106.52 4.97725 7.70406 0
M  V30 8396 O 1105.46 4.13256 7.58987 0
M  V30 8397 C 1107.74 4.28231 7.11815 0
M  V30 8398 O 1108.48 3.49945 8.01648 0
M  V30 8399 C 1107.07 3.5063 5.96244 0
M  V30 8400 O 1107.87 2.36482 5.64681 0
M  V30 8401 C 1105.73 3.15122 6.56374 0
M  V30 8402 H 1105.76 2.13853 6.99751 0
M  V30 8403 H 1106.95 4.13501 5.06559 0
M  V30 8404 H 1108.43 5.03285 6.70911 0
M  V30 8405 H 1106.74 5.20877 8.75697 0
M  V30 8406 H 1106.55 7.11046 7.35349 0
M  V30 8407 H 1104.92 6.35815 7.26986 0
M  V30 8408 H 1107.56 1.61644 6.13565 0
M  V30 8409 P 1109.41 3.65191 7.99657 0
M  V30 8410 O 1110.84 3.8425 8.48115 0
M  V30 8411 O 1109.05 4.17805 6.64342 0
M  V30 8412 O 1109.09 2.07613 7.95143 0
M  V30 8413 C 1108.93 1.44328 9.27336 0
M  V30 8414 C 1109.47 0.0220036 9.17197 0
M  V30 8415 O 1108.42 -0.626867 8.61923 0
M  V30 8416 C 1110.69 -0.24586 8.30336 0
M  V30 8417 O 1111.43 -1.39011 8.63583 0
M  V30 8418 C 1110.02 -0.273849 6.91158 0
M  V30 8419 O 1110.82 -1.06348 6.02892 0
M  V30 8420 C 1108.68 -0.897649 7.22545 0
M  V30 8421 H 1108.72 -1.9841 7.04286 0
M  V30 8422 H 1109.9 0.739928 6.497 0
M  V30 8423 H 1111.38 0.60668 8.36503 0
M  V30 8424 H 1109.69 -0.352479 10.1829 0
M  V30 8425 H 1109.5 2.00611 10.0304 0
M  V30 8426 H 1107.87 1.41843 9.55327 0
M  V30 8427 H 1110.51 -1.95734 6.03555 0
M  V30 8428 P 1112.36 -1.25109 8.70152 0
M  V30 8429 O 1113.79 -1.35274 9.21221 0
M  V30 8430 O 1112 -0.0769065 7.84762 0
M  V30 8431 O 1112.04 -2.55232 7.81161 0
M  V30 8432 C 1111.88 -3.79939 8.58154 0
M  V30 8433 C 1112.42 -4.94023 7.72785 0
M  V30 8434 O 1111.37 -5.18726 6.91205 0
M  V30 8435 C 1113.64 -4.69597 6.85231 0
M  V30 8436 O 1114.38 -5.83832 6.51337 0
M  V30 8437 C 1112.97 -3.96706 5.66633 0
M  V30 8438 O 1113.77 -4.15414 4.49689 0
M  V30 8439 C 1111.63 -4.66153 5.59313 0
M  V30 8440 H 1111.67 -5.47679 4.85214 0
M  V30 8441 H 1112.85 -2.89008 5.86566 0
M  V30 8442 H 1114.33 -4.0121 7.36511 0
M  V30 8443 H 1112.64 -5.80182 8.37584 0
M  V30 8444 H 1112.45 -3.73517 9.52265 0
M  V30 8445 H 1110.82 -3.97163 8.80359 0
M  V30 8446 H 1113.46 -4.90969 4.01921 0
M  V30 8447 P 1115.32 -5.75688 6.64379 0
M  V30 8448 O 1116.74 -6.11849 7.01846 0
M  V30 8449 O 1114.96 -4.30744 6.56026 0
M  V30 8450 O 1114.99 -6.37042 5.19165 0
M  V30 8451 C 1114.83 -7.83578 5.16515 0
M  V30 8452 C 1115.37 -8.33398 3.83019 0
M  V30 8453 O 1114.32 -8.10074 3.01034 0
M  V30 8454 C 1116.59 -7.65514 3.2257 0
M  V30 8455 O 1117.33 -8.4329 2.32297 0
M  V30 8456 C 1115.92 -6.40075 2.62207 0
M  V30 8457 O 1116.72 -5.92589 1.53712 0
M  V30 8458 C 1114.58 -6.9454 2.18503 0
M  V30 8459 H 1114.62 -7.23063 1.12091 0
M  V30 8460 H 1115.8 -5.6025 3.37201 0
M  V30 8461 H 1117.28 -7.35707 4.02681 0
M  V30 8462 H 1115.59 -9.40912 3.9095 0
M  V30 8463 H 1115.4 -8.29056 5.99158 0
M  V30 8464 H 1113.77 -8.10073 5.25882 0
M  V30 8465 H 1116.41 -6.30324 0.726794 0
M  V30 8466 P 1118.27 -8.4349 2.47671 0
M  V30 8467 O 1119.69 -8.94263 2.59668 0
M  V30 8468 O 1117.91 -7.1704 3.19006 0
M  V30 8469 O 1117.94 -8.16596 0.923387 0
M  V30 8470 C 1117.78 -9.38537 0.108869 0
M  V30 8471 C 1118.32 -9.08175 -1.28353 0
M  V30 8472 O 1117.27 -8.44131 -1.84692 0
M  V30 8473 C 1119.54 -8.18386 -1.42505 0
M  V30 8474 O 1120.28 -8.3501 -2.60497 0
M  V30 8475 C 1118.87 -6.80225 -1.25468 0
M  V30 8476 O 1119.67 -5.81716 -1.90454 0
M  V30 8477 C 1117.54 -7.02416 -1.9168 0
M  V30 8478 N 1116.49 -6.31033 -1.20314 0
M  V30 8479 C 1116.66 -5.98817 0.0994088 0
M  V30 8480 N 1115.63 -5.35403 0.621694 0
M  V30 8481 C 1114.75 -5.25212 -0.43376 0
M  V30 8482 C 1113.48 -4.64602 -0.519722 0
M  V30 8483 N 1112.92 -4.7568 -1.76013 0
M  V30 8484 C 1113.52 -5.3653 -2.83017 0
M  V30 8485 N 1114.7 -5.93676 -2.79782 0
M  V30 8486 C 1115.27 -5.84061 -1.56249 0
M  V30 8487 H 1118.75 -6.53498 -0.198729 0
M  V30 8488 H 1120.23 -8.36622 -0.589963 0
M  V30 8489 H 1118.54 -10.0273 -1.8081 0
M  V30 8490 H 1118.35 -10.2138 0.558219 0
M  V30 8491 H 1116.72 -9.6579 0.0444202 0
M  V30 8492 H 1117.56 -6.23209 0.660562 0
M  V30 8493 H 1119.36 -5.69466 -2.79593 0
M  V30 8494 P 1121.22 -8.4349 -2.47671 0
M  V30 8495 O 1122.64 -8.92593 -2.65 0
M  V30 8496 O 1120.86 -7.7568 -1.19296 0
M  V30 8497 O 1120.89 -7.36886 -3.63805 0
M  V30 8498 C 1120.73 -7.95349 -4.982 0
M  V30 8499 C 1121.27 -6.94612 -5.98974 0
M  V30 8500 O 1120.22 -6.10347 -6.11815 0
M  V30 8501 C 1122.49 -6.11426 -5.62335 0
M  V30 8502 O 1123.23 -5.6162 -6.70584 0
M  V30 8503 C 1121.82 -5.04409 -4.73308 0
M  V30 8504 O 1122.62 -3.85992 -4.75183 0
M  V30 8505 C 1120.49 -4.8728 -5.41006 0
M  V30 8506 H 1120.52 -4.02333 -6.11157 0
M  V30 8507 H 1121.7 -5.39466 -3.69543 0
M  V30 8508 H 1123.18 -6.71916 -5.01943 0
M  V30 8509 H 1121.49 -7.4649 -6.93477 0
M  V30 8510 H 1121.3 -8.89416 -5.05237 0
M  V30 8511 H 1119.67 -8.14876 -5.18409 0
M  V30 8512 H 1122.31 -3.27957 -5.4317 0
M  V30 8513 P 1124.17 -5.75688 -6.64379 0
M  V30 8514 O 1125.59 -6.07627 -7.05504 0
M  V30 8515 O 1123.81 -5.88047 -5.19722 0
M  V30 8516 O 1123.84 -4.2322 -7.04443 0
M  V30 8517 C 1123.68 -3.99743 -8.4911 0
M  V30 8518 C 1124.22 -2.60516 -8.79425 0
M  V30 8519 O 1123.17 -1.82684 -8.4467 0
M  V30 8520 C 1125.44 -2.10343 -8.03628 0
M  V30 8521 O 1126.18 -1.09919 -8.67766 0
M  V30 8522 C 1124.77 -1.68446 -6.70876 0
M  V30 8523 O 1125.57 -0.678137 -6.08433 0
M  V30 8524 C 1123.44 -1.17436 -7.18567 0
M  V30 8525 H 1123.47 -0.0804732 -7.31656 0
M  V30 8526 H 1124.65 -2.54037 -6.02537 0
M  V30 8527 H 1126.14 -2.93881 -7.85526 0
M  V30 8528 H 1124.44 -2.53065 -9.86973 0
M  V30 8529 H 1124.25 -4.75072 -9.05887 0
M  V30 8530 H 1122.62 -4.05244 -8.76668 0
M  V30 8531 H 1125.26 0.177647 -6.34251 0
M  V30 8532 P 1127.12 -1.25109 -8.70152 0
M  V30 8533 O 1128.54 -1.29744 -9.22016 0
M  V30 8534 O 1126.76 -2.13714 -7.55141 0
M  V30 8535 O 1126.79 0.248149 -8.21425 0
M  V30 8536 C 1126.63 1.22779 -9.30434 0
M  V30 8537 C 1127.17 2.56293 -8.80664 0
M  V30 8538 O 1126.12 3.02979 -8.09349 0
M  V30 8539 C 1128.39 2.57523 -7.89775 0
M  V30 8540 O 1129.13 3.7668 -7.89438 0
M  V30 8541 C 1127.72 2.20997 -6.55446 0
M  V30 8542 O 1128.52 2.71895 -5.48509 0
M  V30 8543 C 1126.39 2.89693 -6.67988 0
M  V30 8544 H 1126.42 3.88793 -6.19859 0
M  V30 8545 H 1127.6 1.12046 -6.44229 0
M  V30 8546 H 1129.09 1.7746 -8.19711 0
M  V30 8547 H 1127.39 3.20706 -9.67112 0
M  V30 8548 H 1127.2 0.901032 -10.1892 0
M  V30 8549 H 1125.57 1.33049 -9.56592 0
M  V30 8550 H 1128.21 3.57847 -5.23962 0
M  V30 8551 P 1130.07 3.65191 -7.99657 0
M  V30 8552 O 1131.49 3.89332 -8.45794 0
M  V30 8553 O 1129.71 2.28472 -7.50807 0
M  V30 8554 O 1129.75 4.64972 -6.77611 0
M  V30 8555 C 1129.59 6.06319 -7.16352 0
M  V30 8556 C 1130.13 6.91731 -6.02299 0
M  V30 8557 O 1129.07 6.92449 -5.17064 0
M  V30 8558 C 1131.34 6.43627 -5.25174 0
M  V30 8559 O 1132.08 7.43686 -4.60469 0
M  V30 8560 C 1130.67 5.40275 -4.31916 0
M  V30 8561 O 1131.47 5.25279 -3.14438 0
M  V30 8562 C 1129.34 6.04847 -4.05327 0
M  V30 8563 H 1129.37 6.62195 -3.11261 0
M  V30 8564 H 1130.55 4.42556 -4.81383 0
M  V30 8565 H 1132.04 5.92458 -5.93643 0
M  V30 8566 H 1130.34 7.92655 -6.402 0
M  V30 8567 H 1130.15 6.26671 -8.0846 0
M  V30 8568 H 1128.52 6.29101 -7.32804 0
M  V30 8569 H 1131.16 5.84315 -2.47318 0
M  V30 8570 P 1133.02 7.39546 -4.75277 0
M  V30 8571 O 1134.44 7.84798 -5.01039 0
M  V30 8572 O 1132.66 5.9812 -5.08098 0
M  V30 8573 O 1132.7 7.57503 -3.1866 0
M  V30 8574 C 1132.54 8.97357 -2.74833 0
M  V30 8575 C 1133.08 9.07548 -1.32709 0
M  V30 8576 O 1132.02 8.62072 -0.606159 0
M  V30 8577 C 1134.29 8.25383 -0.938334 0
M  V30 8578 O 1135.03 8.74577 0.146954 0
M  V30 8579 C 1133.62 6.8802 -0.712559 0
M  V30 8580 O 1134.42 6.1189 0.194655 0
M  V30 8581 C 1132.29 7.27966 -0.139777 0
M  V30 8582 H 1132.32 7.25354 0.961601 0
M  V30 8583 H 1133.5 6.32557 -1.65702 0
M  V30 8584 H 1134.99 8.19355 -1.79097 0
M  V30 8585 H 1133.29 10.1294 -1.10029 0
M  V30 8586 H 1133.1 9.64276 -3.41316 0
M  V30 8587 H 1131.47 9.25417 -2.76357 0
M  V30 8588 H 1134.11 6.25267 1.07847 0
M  V30 8589 P 1135.97 8.791 9.10682e-12 0
M  V30 8590 O 1137.39 9.31096 0.027933 0
M  V30 8591 O 1135.61 7.77869 -1.04071 0
M  V30 8592 O 1135.65 8.09533 1.41463 0
M  V30 8593 C 1135.49 9.0349 2.53943 0
M  V30 8594 C 1136.03 8.35226 3.79016 0
M  V30 8595 O 1134.97 7.57992 4.15078 0
M  V30 8596 C 1137.24 7.45087 3.67298 0
M  V30 8597 O 1137.98 7.27796 4.85194 0
M  V30 8598 C 1136.58 6.17323 3.12027 0
M  V30 8599 O 1137.37 5.04231 3.47188 0
M  V30 8600 C 1135.24 6.19961 3.81809 0
M  V30 8601 H 1135.27 5.58218 4.73051 0
M  V30 8602 H 1136.45 6.21726 2.02589 0
M  V30 8603 H 1137.94 7.86112 2.9231 0
M  V30 8604 H 1136.24 9.11627 4.55076 0
M  V30 8605 H 1136.05 9.9573 2.34194 0
M  V30 8606 H 1134.42 9.2792 2.67832 0
M  V30 8607 H 1137.06 4.67702 4.28772 0
M  V30 8608 P 1138.92 7.39546 4.75277 0
M  V30 8609 O 1140.34 7.81777 5.05738 0
M  V30 8610 O 1138.56 7.1065 3.32998 0
M  V30 8611 O 1138.6 6.04542 5.56673 0
M  V30 8612 C 1138.44 6.22772 7.02095 0
M  V30 8613 C 1138.98 4.97725 7.70406 0
M  V30 8614 O 1137.92 4.13256 7.58987 0
M  V30 8615 C 1140.2 4.28231 7.11815 0
M  V30 8616 O 1140.93 3.49945 8.01648 0
M  V30 8617 C 1139.53 3.5063 5.96244 0
M  V30 8618 O 1140.33 2.36482 5.64681 0
M  V30 8619 C 1138.19 3.15122 6.56374 0
M  V30 8620 H 1138.22 2.13853 6.99751 0
M  V30 8621 H 1139.4 4.13501 5.06559 0
M  V30 8622 H 1140.89 5.03285 6.70911 0
M  V30 8623 H 1139.19 5.20877 8.75697 0
M  V30 8624 H 1139 7.11046 7.35349 0
M  V30 8625 H 1137.37 6.35815 7.26986 0
M  V30 8626 H 1140.01 1.61644 6.13565 0
M  V30 8627 P 1141.87 3.65191 7.99657 0
M  V30 8628 O 1143.29 3.8425 8.48115 0
M  V30 8629 O 1141.51 4.17805 6.64342 0
M  V30 8630 O 1141.55 2.07613 7.95143 0
M  V30 8631 C 1141.39 1.44328 9.27336 0
M  V30 8632 C 1141.93 0.0220036 9.17197 0
M  V30 8633 O 1140.87 -0.626867 8.61923 0
M  V30 8634 C 1143.15 -0.24586 8.30336 0
M  V30 8635 O 1143.88 -1.39011 8.63583 0
M  V30 8636 C 1142.48 -0.273849 6.91158 0
M  V30 8637 O 1143.28 -1.06348 6.02892 0
M  V30 8638 C 1141.14 -0.897649 7.22545 0
M  V30 8639 H 1141.17 -1.9841 7.04286 0
M  V30 8640 H 1142.35 0.739928 6.497 0
M  V30 8641 H 1143.84 0.60668 8.36503 0
M  V30 8642 H 1142.14 -0.352479 10.1829 0
M  V30 8643 H 1141.95 2.00611 10.0304 0
M  V30 8644 H 1140.32 1.41843 9.55327 0
M  V30 8645 H 1142.96 -1.95734 6.03555 0
M  V30 8646 P 1144.82 -1.25109 8.70152 0
M  V30 8647 O 1146.24 -1.35274 9.21221 0
M  V30 8648 O 1144.46 -0.0769065 7.84762 0
M  V30 8649 O 1144.5 -2.55232 7.81161 0
M  V30 8650 C 1144.34 -3.79939 8.58154 0
M  V30 8651 C 1144.88 -4.94023 7.72785 0
M  V30 8652 O 1143.82 -5.18726 6.91205 0
M  V30 8653 C 1146.1 -4.69597 6.85231 0
M  V30 8654 O 1146.83 -5.83832 6.51337 0
M  V30 8655 C 1145.43 -3.96706 5.66633 0
M  V30 8656 O 1146.23 -4.15414 4.49689 0
M  V30 8657 C 1144.09 -4.66153 5.59313 0
M  V30 8658 H 1144.12 -5.47679 4.85214 0
M  V30 8659 H 1145.31 -2.89008 5.86566 0
M  V30 8660 H 1146.79 -4.0121 7.36511 0
M  V30 8661 H 1145.1 -5.80182 8.37584 0
M  V30 8662 H 1144.91 -3.73517 9.52265 0
M  V30 8663 H 1143.28 -3.97163 8.80359 0
M  V30 8664 H 1145.91 -4.90969 4.01921 0
M  V30 8665 P 1147.77 -5.75688 6.64379 0
M  V30 8666 O 1149.19 -6.11981 7.01997 0
M  V30 8667 O 1147.41 -4.30744 6.56026 0
M  V30 8668 O 1147.45 -6.37042 5.19165 0
M  V30 8669 C 1147.29 -7.83578 5.16515 0
M  V30 8670 C 1147.83 -8.33307 3.82977 0
M  V30 8671 O 1146.77 -8.10074 3.01034 0
M  V30 8672 C 1149.05 -7.65514 3.2257 0
M  V30 8673 O 1149.78 -8.4329 2.32297 0
M  V30 8674 C 1148.38 -6.40075 2.62207 0
M  V30 8675 O 1149.18 -5.92492 1.53687 0
M  V30 8676 C 1147.04 -6.9454 2.18503 0
M  V30 8677 N 1146 -5.95905 2.39948 0
M  V30 8678 C 1146.06 -5.13994 3.44742 0
M  V30 8679 N 1145.01 -4.30684 3.46712 0
M  V30 8680 C 1144.28 -4.65583 2.41086 0
M  V30 8681 C 1142.97 -4.20877 1.99581 0
M  V30 8682 O 1142.24 -3.35913 2.52616 0
M  V30 8683 N 1142.54 -4.83271 0.873406 0
M  V30 8684 C 1143.29 -5.82006 0.185129 0
M  V30 8685 N 1142.7 -6.30619 -0.95439 0
M  V30 8686 N 1144.45 -6.28443 0.578524 0
M  V30 8687 C 1144.9 -5.68486 1.70138 0
M  V30 8688 H 1147.07 -7.23063 1.12091 0
M  V30 8689 H 1148.26 -5.60165 3.3715 0
M  V30 8690 H 1149.74 -7.3611 4.01946 0
M  V30 8691 H 1148.05 -9.40912 3.9095 0
M  V30 8692 H 1147.86 -8.29056 5.99158 0
M  V30 8693 H 1146.22 -8.10073 5.25882 0
M  V30 8694 H 1141.65 -4.58323 0.505262 0
M  V30 8695 H 1146.86 -5.14564 4.1935 0
M  V30 8696 H 1141.79 -5.93402 -1.25364 0
M  V30 8697 H 1143.16 -7.0425 -1.50254 0
M  V30 8698 H 1148.87 -6.30224 0.72668 0
M  V30 8699 P 1150.72 -8.4349 2.47671 0
M  V30 8700 O 1152.14 -8.94167 2.5964 0
M  V30 8701 O 1150.36 -7.1704 3.19006 0
M  V30 8702 O 1150.4 -8.16596 0.923387 0
M  V30 8703 C 1150.24 -9.38437 0.108857 0
M  V30 8704 C 1150.78 -9.08175 -1.28353 0
M  V30 8705 O 1149.72 -8.44229 -1.84713 0
M  V30 8706 C 1152 -8.18386 -1.42505 0
M  V30 8707 O 1152.74 -8.3501 -2.60497 0
M  V30 8708 C 1151.33 -6.80225 -1.25468 0
M  V30 8709 O 1152.13 -5.81621 -1.91066 0
M  V30 8710 C 1149.99 -7.02416 -1.9168 0
M  V30 8711 H 1150.02 -6.6888 -2.96621 0
M  V30 8712 H 1151.21 -6.53617 -0.192223 0
M  V30 8713 H 1152.69 -8.36622 -0.589963 0
M  V30 8714 H 1151 -10.0291 -1.79807 0
M  V30 8715 H 1150.81 -10.2138 0.558219 0
M  V30 8716 H 1149.18 -9.6579 0.0444202 0
M  V30 8717 H 1151.82 -5.69556 -2.79637 0
M  V30 8718 P 1153.67 -8.4349 -2.47671 0
M  V30 8719 O 1155.09 -8.92689 -2.65029 0
M  V30 8720 O 1153.31 -7.7568 -1.19296 0
M  V30 8721 O 1153.35 -7.36886 -3.63805 0
M  V30 8722 C 1153.19 -7.95433 -4.98253 0
M  V30 8723 C 1153.73 -6.94612 -5.98974 0
M  V30 8724 O 1152.67 -6.10277 -6.11744 0
M  V30 8725 C 1154.95 -6.11426 -5.62335 0
M  V30 8726 O 1155.69 -5.6162 -6.70584 0
M  V30 8727 C 1154.28 -5.04409 -4.73308 0
M  V30 8728 O 1155.08 -3.86404 -4.74719 0
M  V30 8729 C 1152.94 -4.8728 -5.41006 0
M  V30 8730 N 1151.9 -4.65812 -4.42377 0
M  V30 8731 C 1152.07 -5.09132 -3.15382 0
M  V30 8732 N 1151.04 -4.84021 -2.3716 0
M  V30 8733 C 1150.16 -4.18386 -3.20441 0
M  V30 8734 C 1148.89 -3.6275 -2.94905 0
M  V30 8735 N 1148.29 -3.65794 -1.73372 0
M  V30 8736 N 1148.32 -3.05008 -4.05243 0
M  V30 8737 C 1148.93 -2.98348 -5.28159 0
M  V30 8738 N 1150.1 -3.48171 -5.56333 0
M  V30 8739 C 1150.68 -4.06869 -4.47212 0
M  V30 8740 H 1152.97 -4.02278 -6.11074 0
M  V30 8741 H 1154.16 -5.39013 -3.70026 0
M  V30 8742 H 1155.64 -6.71916 -5.01943 0
M  V30 8743 H 1153.95 -7.45796 -6.94223 0
M  V30 8744 H 1153.76 -8.89416 -5.05237 0
M  V30 8745 H 1152.13 -8.14876 -5.18409 0
M  V30 8746 H 1148.39 -2.47853 -6.07807 0
M  V30 8747 H 1152.97 -5.59989 -2.81362 0
M  V30 8748 H 1147.36 -3.23218 -1.60782 0
M  V30 8749 H 1148.76 -4.10523 -0.937856 0
M  V30 8750 H 1154.77 -3.27906 -5.43085 0
M  V30 8751 P 1156.62 -5.75688 -6.64379 0
M  V30 8752 O 1158.05 -6.07627 -7.05504 0
M  V30 8753 O 1156.26 -5.88047 -5.19722 0
M  V30 8754 O 1156.3 -4.2322 -7.04443 0
M  V30 8755 C 1156.14 -3.99743 -8.4911 0
M  V30 8756 C 1156.68 -2.60516 -8.79425 0
M  V30 8757 O 1155.62 -1.82684 -8.4467 0
M  V30 8758 C 1157.9 -2.10343 -8.03628 0
M  V30 8759 O 1158.64 -1.09919 -8.67766 0
M  V30 8760 C 1157.23 -1.68446 -6.70876 0
M  V30 8761 O 1158.03 -0.678137 -6.08433 0
M  V30 8762 C 1155.89 -1.17436 -7.18567 0
M  V30 8763 H 1155.92 -0.0804732 -7.31656 0
M  V30 8764 H 1157.11 -2.54037 -6.02537 0
M  V30 8765 H 1158.59 -2.93881 -7.85526 0
M  V30 8766 H 1156.9 -2.53065 -9.86973 0
M  V30 8767 H 1156.71 -4.75072 -9.05887 0
M  V30 8768 H 1155.08 -4.05244 -8.76668 0
M  V30 8769 H 1157.72 0.177647 -6.34251 0
M  V30 8770 P 1159.57 -1.25109 -8.70152 0
M  V30 8771 O 1161 -1.29744 -9.22016 0
M  V30 8772 O 1159.21 -2.13714 -7.55141 0
M  V30 8773 O 1159.25 0.248149 -8.21425 0
M  V30 8774 C 1159.09 1.22779 -9.30434 0
M  V30 8775 C 1159.63 2.56293 -8.80664 0
M  V30 8776 O 1158.58 3.02979 -8.09349 0
M  V30 8777 C 1160.85 2.57523 -7.89775 0
M  V30 8778 O 1161.59 3.7668 -7.89438 0
M  V30 8779 C 1160.18 2.20997 -6.55446 0
M  V30 8780 O 1160.98 2.71895 -5.48509 0
M  V30 8781 C 1158.84 2.89693 -6.67988 0
M  V30 8782 H 1158.88 3.88793 -6.19859 0
M  V30 8783 H 1160.06 1.12046 -6.44229 0
M  V30 8784 H 1161.54 1.7746 -8.19711 0
M  V30 8785 H 1159.85 3.20706 -9.67112 0
M  V30 8786 H 1159.66 0.901032 -10.1892 0
M  V30 8787 H 1158.03 1.33049 -9.56592 0
M  V30 8788 H 1160.67 3.57847 -5.23962 0
M  V30 8789 P 1162.52 3.65191 -7.99657 0
M  V30 8790 O 1163.95 3.89332 -8.45794 0
M  V30 8791 O 1162.16 2.28472 -7.50807 0
M  V30 8792 O 1162.2 4.64972 -6.77611 0
M  V30 8793 C 1162.04 6.06319 -7.16352 0
M  V30 8794 C 1162.58 6.91731 -6.02299 0
M  V30 8795 O 1161.53 6.92449 -5.17064 0
M  V30 8796 C 1163.8 6.43627 -5.25174 0
M  V30 8797 O 1164.54 7.43686 -4.60469 0
M  V30 8798 C 1163.13 5.40275 -4.31916 0
M  V30 8799 O 1163.93 5.25279 -3.14438 0
M  V30 8800 C 1161.79 6.04847 -4.05327 0
M  V30 8801 H 1161.83 6.62195 -3.11261 0
M  V30 8802 H 1163.01 4.42556 -4.81383 0
M  V30 8803 H 1164.49 5.92458 -5.93643 0
M  V30 8804 H 1162.8 7.92655 -6.402 0
M  V30 8805 H 1162.61 6.26671 -8.0846 0
M  V30 8806 H 1160.98 6.29101 -7.32804 0
M  V30 8807 H 1163.62 5.84315 -2.47318 0
M  V30 8808 P 1165.48 7.39546 -4.75277 0
M  V30 8809 O 1166.9 7.84798 -5.01039 0
M  V30 8810 O 1165.12 5.9812 -5.08098 0
M  V30 8811 O 1165.15 7.57503 -3.1866 0
M  V30 8812 C 1164.99 8.97357 -2.74833 0
M  V30 8813 C 1165.53 9.07548 -1.32709 0
M  V30 8814 O 1164.48 8.62072 -0.606159 0
M  V30 8815 C 1166.75 8.25383 -0.938334 0
M  V30 8816 O 1167.49 8.74577 0.146954 0
M  V30 8817 C 1166.08 6.8802 -0.712559 0
M  V30 8818 O 1166.88 6.1189 0.194655 0
M  V30 8819 C 1164.74 7.27966 -0.139777 0
M  V30 8820 H 1164.78 7.25354 0.961601 0
M  V30 8821 H 1165.96 6.32557 -1.65702 0
M  V30 8822 H 1167.44 8.19355 -1.79097 0
M  V30 8823 H 1165.75 10.1294 -1.10029 0
M  V30 8824 H 1165.56 9.64276 -3.41316 0
M  V30 8825 H 1163.93 9.25417 -2.76357 0
M  V30 8826 H 1166.57 6.25267 1.07847 0
M  V30 8827 P 1168.43 8.791 9.41699e-12 0
M  V30 8828 O 1169.85 9.31196 0.027936 0
M  V30 8829 O 1168.07 7.77869 -1.04071 0
M  V30 8830 O 1168.1 8.09533 1.41463 0
M  V30 8831 C 1167.94 9.03587 2.5397 0
M  V30 8832 C 1168.48 8.35226 3.79016 0
M  V30 8833 O 1167.43 7.57904 4.1503 0
M  V30 8834 C 1169.7 7.45087 3.67298 0
M  V30 8835 O 1170.44 7.27796 4.85194 0
M  V30 8836 C 1169.03 6.17323 3.12027 0
M  V30 8837 O 1169.83 5.04496 3.46627 0
M  V30 8838 C 1167.69 6.19961 3.81809 0
M  V30 8839 N 1166.65 5.71575 2.93223 0
M  V30 8840 C 1166.82 5.77362 1.59168 0
M  V30 8841 N 1165.79 5.3123 0.911893 0
M  V30 8842 C 1164.91 4.91717 1.89588 0
M  V30 8843 C 1163.64 4.3114 1.8076 0
M  V30 8844 N 1163.04 3.99821 0.632928 0
M  V30 8845 N 1163.08 4.06823 3.02898 0
M  V30 8846 C 1163.68 4.35062 4.22711 0
M  V30 8847 N 1164.86 4.90805 4.35707 0
M  V30 8848 C 1165.43 5.16382 3.14469 0
M  V30 8849 H 1167.73 5.58142 4.72986 0
M  V30 8850 H 1168.91 6.21428 2.0318 0
M  V30 8851 H 1170.39 7.86112 2.9231 0
M  V30 8852 H 1168.7 9.11171 4.55987 0
M  V30 8853 H 1168.51 9.9573 2.34194 0
M  V30 8854 H 1166.88 9.2792 2.67832 0
M  V30 8855 H 1163.14 4.09052 5.13359 0
M  V30 8856 H 1167.72 6.16575 1.12198 0
M  V30 8857 H 1162.11 3.55423 0.632085 0
M  V30 8858 H 1163.52 4.20317 -0.256712 0
M  V30 8859 H 1169.52 4.67628 4.28704 0
M  V30 8860 P 1171.38 7.39546 4.75277 0
M  V30 8861 O 1172.8 7.81777 5.05738 0
M  V30 8862 O 1171.02 7.1065 3.32998 0
M  V30 8863 O 1171.05 6.04542 5.56673 0
M  V30 8864 C 1170.89 6.22772 7.02095 0
M  V30 8865 C 1171.43 4.97725 7.70406 0
M  V30 8866 O 1170.38 4.13256 7.58987 0
M  V30 8867 C 1172.65 4.28231 7.11815 0
M  V30 8868 O 1173.39 3.49945 8.01648 0
M  V30 8869 C 1171.98 3.5063 5.96244 0
M  V30 8870 O 1172.78 2.36482 5.64681 0
M  V30 8871 C 1170.65 3.15122 6.56374 0
M  V30 8872 H 1170.68 2.13853 6.99751 0
M  V30 8873 H 1171.86 4.13501 5.06559 0
M  V30 8874 H 1173.34 5.03285 6.70911 0
M  V30 8875 H 1171.65 5.20877 8.75697 0
M  V30 8876 H 1171.46 7.11046 7.35349 0
M  V30 8877 H 1169.83 6.35815 7.26986 0
M  V30 8878 H 1172.47 1.61644 6.13565 0
M  V30 8879 P 1174.33 3.65191 7.99657 0
M  V30 8880 O 1175.75 3.8425 8.48115 0
M  V30 8881 O 1173.97 4.17805 6.64342 0
M  V30 8882 O 1174 2.07613 7.95143 0
M  V30 8883 C 1173.84 1.44328 9.27336 0
M  V30 8884 C 1174.38 0.0220036 9.17197 0
M  V30 8885 O 1173.33 -0.626867 8.61923 0
M  V30 8886 C 1175.6 -0.24586 8.30336 0
M  V30 8887 O 1176.34 -1.39011 8.63583 0
M  V30 8888 C 1174.93 -0.273849 6.91158 0
M  V30 8889 O 1175.73 -1.06348 6.02892 0
M  V30 8890 C 1173.6 -0.897649 7.22545 0
M  V30 8891 H 1173.63 -1.9841 7.04286 0
M  V30 8892 H 1174.81 0.739928 6.497 0
M  V30 8893 H 1176.29 0.60668 8.36503 0
M  V30 8894 H 1174.6 -0.352479 10.1829 0
M  V30 8895 H 1174.41 2.00611 10.0304 0
M  V30 8896 H 1172.78 1.41843 9.55327 0
M  V30 8897 H 1175.42 -1.95734 6.03555 0
M  V30 8898 P 1177.28 -1.25109 8.70152 0
M  V30 8899 O 1178.7 -1.35274 9.21221 0
M  V30 8900 O 1176.92 -0.0769065 7.84762 0
M  V30 8901 O 1176.95 -2.55232 7.81161 0
M  V30 8902 C 1176.79 -3.79939 8.58154 0
M  V30 8903 C 1177.33 -4.94023 7.72785 0
M  V30 8904 O 1176.28 -5.18726 6.91205 0
M  V30 8905 C 1178.55 -4.69597 6.85231 0
M  V30 8906 O 1179.29 -5.83832 6.51337 0
M  V30 8907 C 1177.88 -3.96706 5.66633 0
M  V30 8908 O 1178.68 -4.15414 4.49689 0
M  V30 8909 C 1176.55 -4.66153 5.59313 0
M  V30 8910 H 1176.58 -5.47679 4.85214 0
M  V30 8911 H 1177.76 -2.89008 5.86566 0
M  V30 8912 H 1179.25 -4.0121 7.36511 0
M  V30 8913 H 1177.55 -5.80182 8.37584 0
M  V30 8914 H 1177.36 -3.73517 9.52265 0
M  V30 8915 H 1175.73 -3.97163 8.80359 0
M  V30 8916 H 1178.37 -4.90969 4.01921 0
M  V30 8917 P 1180.23 -5.75688 6.64379 0
M  V30 8918 O 1181.65 -6.11915 7.01921 0
M  V30 8919 O 1179.87 -4.30744 6.56026 0
M  V30 8920 O 1179.9 -6.37042 5.19165 0
M  V30 8921 C 1179.74 -7.83662 5.1657 0
M  V30 8922 C 1180.28 -8.33398 3.83019 0
M  V30 8923 O 1179.23 -8.0998 3.00999 0
M  V30 8924 C 1181.5 -7.65514 3.2257 0
M  V30 8925 O 1182.24 -8.4329 2.32297 0
M  V30 8926 C 1180.83 -6.40075 2.62207 0
M  V30 8927 O 1181.63 -5.92338 1.5428 0
M  V30 8928 C 1179.5 -6.9454 2.18503 0
M  V30 8929 N 1178.45 -5.95905 2.39948 0
M  V30 8930 C 1178.62 -4.98383 3.32108 0
M  V30 8931 N 1177.6 -4.16798 3.41761 0
M  V30 8932 C 1176.71 -4.65287 2.47461 0
M  V30 8933 C 1175.44 -4.18946 2.07461 0
M  V30 8934 N 1174.84 -3.09661 2.60717 0
M  V30 8935 N 1174.88 -4.95327 1.09101 0
M  V30 8936 C 1175.48 -6.04369 0.519812 0
M  V30 8937 N 1176.66 -6.50694 0.855982 0
M  V30 8938 C 1177.23 -5.75818 1.84322 0
M  V30 8939 H 1179.53 -7.22964 1.12076 0
M  V30 8940 H 1180.71 -5.60502 3.36589 0
M  V30 8941 H 1182.19 -7.35707 4.02681 0
M  V30 8942 H 1180.5 -9.41302 3.90009 0
M  V30 8943 H 1180.31 -8.29056 5.99158 0
M  V30 8944 H 1178.68 -8.10073 5.25882 0
M  V30 8945 H 1174.94 -6.55843 -0.270373 0
M  V30 8946 H 1179.52 -4.88564 3.92502 0
M  V30 8947 H 1173.91 -2.80523 2.27218 0
M  V30 8948 H 1175.32 -2.55848 3.34465 0
M  V30 8949 H 1181.32 -6.30224 0.72668 0
M  V30 8950 P 1183.18 -8.4349 2.47671 0
M  V30 8951 O 1184.6 -8.94167 2.5964 0
M  V30 8952 O 1182.82 -7.1704 3.19006 0
M  V30 8953 O 1182.86 -8.16596 0.923387 0
M  V30 8954 C 1182.7 -9.38437 0.108857 0
M  V30 8955 C 1183.24 -9.08175 -1.28353 0
M  V30 8956 O 1182.18 -8.44229 -1.84713 0
M  V30 8957 C 1184.45 -8.18386 -1.42505 0
M  V30 8958 O 1185.19 -8.3501 -2.60497 0
M  V30 8959 C 1183.78 -6.80225 -1.25468 0
M  V30 8960 O 1184.58 -5.81621 -1.91066 0
M  V30 8961 C 1182.45 -7.02416 -1.9168 0
M  V30 8962 H 1182.48 -6.6888 -2.96621 0
M  V30 8963 H 1183.66 -6.53617 -0.192223 0
M  V30 8964 H 1185.15 -8.36622 -0.589963 0
M  V30 8965 H 1183.45 -10.0291 -1.79807 0
M  V30 8966 H 1183.26 -10.2138 0.558219 0
M  V30 8967 H 1181.63 -9.6579 0.0444202 0
M  V30 8968 H 1184.27 -5.69556 -2.79637 0
M  V30 8969 P 1186.13 -8.4349 -2.47671 0
M  V30 8970 O 1187.55 -8.92689 -2.65029 0
M  V30 8971 O 1185.77 -7.7568 -1.19296 0
M  V30 8972 O 1185.81 -7.36886 -3.63805 0
M  V30 8973 C 1185.65 -7.95433 -4.98253 0
M  V30 8974 C 1186.19 -6.94612 -5.98974 0
M  V30 8975 O 1185.13 -6.10277 -6.11744 0
M  V30 8976 C 1187.4 -6.11426 -5.62335 0
M  V30 8977 O 1188.14 -5.6162 -6.70584 0
M  V30 8978 C 1186.74 -5.04409 -4.73308 0
M  V30 8979 O 1187.53 -3.86404 -4.74719 0
M  V30 8980 C 1185.4 -4.8728 -5.41006 0
M  V30 8981 N 1184.36 -4.65812 -4.42377 0
M  V30 8982 C 1184.52 -5.09132 -3.15382 0
M  V30 8983 N 1183.5 -4.84021 -2.3716 0
M  V30 8984 C 1182.61 -4.18386 -3.20441 0
M  V30 8985 C 1181.35 -3.6275 -2.94905 0
M  V30 8986 N 1180.78 -3.05008 -4.05243 0
M  V30 8987 C 1181.38 -2.98348 -5.28159 0
M  V30 8988 N 1182.56 -3.48171 -5.56333 0
M  V30 8989 C 1183.13 -4.06869 -4.47212 0
M  V30 8990 H 1186.61 -5.39013 -3.70026 0
M  V30 8991 H 1188.1 -6.71916 -5.01943 0
M  V30 8992 H 1186.4 -7.45796 -6.94223 0
M  V30 8993 H 1186.21 -8.89416 -5.05237 0
M  V30 8994 H 1184.58 -8.14876 -5.18409 0
M  V30 8995 H 1185.42 -5.59989 -2.81362 0
M  V30 8996 H 1187.22 -3.27906 -5.43085 0
M  V30 8997 P 1189.08 -5.75688 -6.64379 0
M  V30 8998 O 1190.5 -6.07758 -7.05656 0
M  V30 8999 O 1188.72 -5.88047 -5.19722 0
M  V30 9000 O 1188.76 -4.2322 -7.04443 0
M  V30 9001 C 1188.6 -3.99743 -8.4911 0
M  V30 9002 C 1189.14 -2.60487 -8.79329 0
M  V30 9003 O 1188.08 -1.82684 -8.4467 0
M  V30 9004 C 1190.35 -2.10343 -8.03628 0
M  V30 9005 O 1191.09 -1.09919 -8.67766 0
M  V30 9006 C 1189.69 -1.68446 -6.70876 0
M  V30 9007 O 1190.48 -0.678026 -6.08333 0
M  V30 9008 C 1188.35 -1.17436 -7.18567 0
M  V30 9009 N 1187.31 -1.52699 -6.23988 0
M  V30 9010 C 1187.37 -2.68084 -5.57824 0
M  V30 9011 N 1186.32 -2.8189 -4.75643 0
M  V30 9012 C 1185.59 -1.72373 -4.95155 0
M  V30 9013 C 1184.28 -1.37653 -4.44996 0
M  V30 9014 O 1183.55 -2.02239 -3.68445 0
M  V30 9015 N 1183.85 -0.17675 -4.90782 0
M  V30 9016 C 1184.6 0.645036 -5.78716 0
M  V30 9017 N 1184 1.84214 -6.10618 0
M  V30 9018 N 1185.75 0.321732 -6.30279 0
M  V30 9019 C 1186.21 -0.87502 -5.86913 0
M  V30 9020 H 1188.38 -0.0804732 -7.31656 0
M  V30 9021 H 1189.56 -2.53998 -6.02444 0
M  V30 9022 H 1191.05 -2.93095 -7.8582 0
M  V30 9023 H 1189.35 -2.53065 -9.86973 0
M  V30 9024 H 1189.16 -4.75072 -9.05887 0
M  V30 9025 H 1187.53 -4.05244 -8.76668 0
M  V30 9026 H 1182.96 0.152143 -4.60849 0
M  V30 9027 H 1188.16 -3.41852 -5.69006 0
M  V30 9028 H 1183.09 2.08538 -5.69521 0
M  V30 9029 H 1184.47 2.4895 -6.75698 0
M  V30 9030 H 1190.17 0.177619 -6.34151 0
M  V30 9031 P 1192.03 -1.25109 -8.70152 0
M  V30 9032 O 1193.45 -1.29744 -9.22016 0
M  V30 9033 O 1191.67 -2.13714 -7.55141 0
M  V30 9034 O 1191.71 0.248149 -8.21425 0
M  V30 9035 C 1191.55 1.22779 -9.30434 0
M  V30 9036 C 1192.09 2.56293 -8.80664 0
M  V30 9037 O 1191.03 3.02979 -8.09349 0
M  V30 9038 C 1193.31 2.57523 -7.89775 0
M  V30 9039 O 1194.04 3.7668 -7.89438 0
M  V30 9040 C 1192.64 2.20997 -6.55446 0
M  V30 9041 O 1193.44 2.71895 -5.48509 0
M  V30 9042 C 1191.3 2.89693 -6.67988 0
M  V30 9043 H 1191.33 3.88793 -6.19859 0
M  V30 9044 H 1192.51 1.12046 -6.44229 0
M  V30 9045 H 1194 1.7746 -8.19711 0
M  V30 9046 H 1192.3 3.20706 -9.67112 0
M  V30 9047 H 1192.11 0.901032 -10.1892 0
M  V30 9048 H 1190.48 1.33049 -9.56592 0
M  V30 9049 H 1193.12 3.57847 -5.23962 0
M  V30 9050 P 1194.98 3.65191 -7.99657 0
M  V30 9051 O 1196.4 3.89332 -8.45794 0
M  V30 9052 O 1194.62 2.28472 -7.50807 0
M  V30 9053 O 1194.66 4.64972 -6.77611 0
M  V30 9054 C 1194.5 6.06319 -7.16352 0
M  V30 9055 C 1195.04 6.91731 -6.02299 0
M  V30 9056 O 1193.98 6.92449 -5.17064 0
M  V30 9057 C 1196.26 6.43627 -5.25174 0
M  V30 9058 O 1196.99 7.43686 -4.60469 0
M  V30 9059 C 1195.59 5.40275 -4.31916 0
M  V30 9060 O 1196.39 5.25279 -3.14438 0
M  V30 9061 C 1194.25 6.04847 -4.05327 0
M  V30 9062 H 1194.28 6.62195 -3.11261 0
M  V30 9063 H 1195.46 4.42556 -4.81383 0
M  V30 9064 H 1196.95 5.92458 -5.93643 0
M  V30 9065 H 1195.25 7.92655 -6.402 0
M  V30 9066 H 1195.06 6.26671 -8.0846 0
M  V30 9067 H 1193.43 6.29101 -7.32804 0
M  V30 9068 H 1196.07 5.84315 -2.47318 0
M  V30 9069 P 1197.93 7.39546 -4.75277 0
M  V30 9070 O 1199.35 7.84798 -5.01039 0
M  V30 9071 O 1197.57 5.9812 -5.08098 0
M  V30 9072 O 1197.61 7.57503 -3.1866 0
M  V30 9073 C 1197.45 8.97357 -2.74833 0
M  V30 9074 C 1197.99 9.07548 -1.32709 0
M  V30 9075 O 1196.93 8.62072 -0.606159 0
M  V30 9076 C 1199.21 8.25383 -0.938334 0
M  V30 9077 O 1199.94 8.74577 0.146954 0
M  V30 9078 C 1198.54 6.8802 -0.712559 0
M  V30 9079 O 1199.34 6.1189 0.194655 0
M  V30 9080 C 1197.2 7.27966 -0.139777 0
M  V30 9081 H 1197.23 7.25354 0.961601 0
M  V30 9082 H 1198.42 6.32557 -1.65702 0
M  V30 9083 H 1199.9 8.19355 -1.79097 0
M  V30 9084 H 1198.21 10.1294 -1.10029 0
M  V30 9085 H 1198.02 9.64276 -3.41316 0
M  V30 9086 H 1196.39 9.25417 -2.76357 0
M  V30 9087 H 1199.02 6.25267 1.07847 0
M  V30 9088 P 1200.88 8.791 9.72715e-12 0
M  V30 9089 O 1202.3 9.31096 0.027933 0
M  V30 9090 O 1200.52 7.77869 -1.04071 0
M  V30 9091 O 1200.56 8.09533 1.41463 0
M  V30 9092 C 1200.4 9.0349 2.53943 0
M  V30 9093 C 1200.94 8.35226 3.79016 0
M  V30 9094 O 1199.88 7.57992 4.15078 0
M  V30 9095 C 1202.16 7.45087 3.67298 0
M  V30 9096 O 1202.89 7.27796 4.85194 0
M  V30 9097 C 1201.49 6.17323 3.12027 0
M  V30 9098 O 1202.29 5.04231 3.47188 0
M  V30 9099 C 1200.15 6.19961 3.81809 0
M  V30 9100 H 1200.18 5.58218 4.73051 0
M  V30 9101 H 1201.37 6.21726 2.02589 0
M  V30 9102 H 1202.85 7.86112 2.9231 0
M  V30 9103 H 1201.16 9.11627 4.55076 0
M  V30 9104 H 1200.97 9.9573 2.34194 0
M  V30 9105 H 1199.34 9.2792 2.67832 0
M  V30 9106 H 1201.97 4.67702 4.28772 0
M  V30 9107 P 1203.83 7.39546 4.75277 0
M  V30 9108 O 1205.25 7.81777 5.05738 0
M  V30 9109 O 1203.47 7.1065 3.32998 0
M  V30 9110 O 1203.51 6.04542 5.56673 0
M  V30 9111 C 1203.35 6.22772 7.02095 0
M  V30 9112 C 1203.89 4.97725 7.70406 0
M  V30 9113 O 1202.83 4.13256 7.58987 0
M  V30 9114 C 1205.11 4.28231 7.11815 0
M  V30 9115 O 1205.85 3.49945 8.01648 0
M  V30 9116 C 1204.44 3.5063 5.96244 0
M  V30 9117 O 1205.24 2.36482 5.64681 0
M  V30 9118 C 1203.1 3.15122 6.56374 0
M  V30 9119 H 1203.13 2.13853 6.99751 0
M  V30 9120 H 1204.32 4.13501 5.06559 0
M  V30 9121 H 1205.8 5.03285 6.70911 0
M  V30 9122 H 1204.11 5.20877 8.75697 0
M  V30 9123 H 1203.92 7.11046 7.35349 0
M  V30 9124 H 1202.29 6.35815 7.26986 0
M  V30 9125 H 1204.93 1.61644 6.13565 0
M  V30 9126 P 1206.78 3.65191 7.99657 0
M  V30 9127 O 1208.21 3.8425 8.48115 0
M  V30 9128 O 1206.42 4.17805 6.64342 0
M  V30 9129 O 1206.46 2.07613 7.95143 0
M  V30 9130 C 1206.3 1.44328 9.27336 0
M  V30 9131 C 1206.84 0.0220036 9.17197 0
M  V30 9132 O 1205.78 -0.626867 8.61923 0
M  V30 9133 C 1208.06 -0.24586 8.30336 0
M  V30 9134 O 1208.8 -1.39011 8.63583 0
M  V30 9135 C 1207.39 -0.273849 6.91158 0
M  V30 9136 O 1208.19 -1.06348 6.02892 0
M  V30 9137 C 1206.05 -0.897649 7.22545 0
M  V30 9138 H 1206.08 -1.9841 7.04286 0
M  V30 9139 H 1207.27 0.739928 6.497 0
M  V30 9140 H 1208.75 0.60668 8.36503 0
M  V30 9141 H 1207.06 -0.352479 10.1829 0
M  V30 9142 H 1206.87 2.00611 10.0304 0
M  V30 9143 H 1205.24 1.41843 9.55327 0
M  V30 9144 H 1207.88 -1.95734 6.03555 0
M  V30 9145 P 1209.73 -1.25109 8.70152 0
M  V30 9146 O 1211.16 -1.35274 9.21221 0
M  V30 9147 O 1209.37 -0.0769065 7.84762 0
M  V30 9148 O 1209.41 -2.55232 7.81161 0
M  V30 9149 C 1209.25 -3.79939 8.58154 0
M  V30 9150 C 1209.79 -4.94023 7.72785 0
M  V30 9151 O 1208.73 -5.18726 6.91205 0
M  V30 9152 C 1211.01 -4.69597 6.85231 0
M  V30 9153 O 1211.75 -5.83832 6.51337 0
M  V30 9154 C 1210.34 -3.96706 5.66633 0
M  V30 9155 O 1211.14 -4.15414 4.49689 0
M  V30 9156 C 1209 -4.66153 5.59313 0
M  V30 9157 H 1209.03 -5.47679 4.85214 0
M  V30 9158 H 1210.22 -2.89008 5.86566 0
M  V30 9159 H 1211.7 -4.0121 7.36511 0
M  V30 9160 H 1210.01 -5.80182 8.37584 0
M  V30 9161 H 1209.82 -3.73517 9.52265 0
M  V30 9162 H 1208.19 -3.97163 8.80359 0
M  V30 9163 H 1210.83 -4.90969 4.01921 0
M  V30 9164 P 1212.68 -5.75688 6.64379 0
M  V30 9165 O 1214.11 -6.11849 7.01846 0
M  V30 9166 O 1212.32 -4.30744 6.56026 0
M  V30 9167 O 1212.36 -6.37042 5.19165 0
M  V30 9168 C 1212.2 -7.83578 5.16515 0
M  V30 9169 C 1212.74 -8.33398 3.83019 0
M  V30 9170 O 1211.69 -8.10074 3.01034 0
M  V30 9171 C 1213.96 -7.65514 3.2257 0
M  V30 9172 O 1214.7 -8.4329 2.32297 0
M  V30 9173 C 1213.29 -6.40075 2.62207 0
M  V30 9174 O 1214.09 -5.92589 1.53712 0
M  V30 9175 C 1211.95 -6.9454 2.18503 0
M  V30 9176 H 1211.99 -7.23063 1.12091 0
M  V30 9177 H 1213.17 -5.6025 3.37201 0
M  V30 9178 H 1214.65 -7.35707 4.02681 0
M  V30 9179 H 1212.96 -9.40912 3.9095 0
M  V30 9180 H 1212.77 -8.29056 5.99158 0
M  V30 9181 H 1211.14 -8.10073 5.25882 0
M  V30 9182 H 1213.78 -6.30324 0.726794 0
M  V30 9183 P 1215.63 -8.4349 2.47671 0
M  V30 9184 O 1217.06 -8.94167 2.5964 0
M  V30 9185 O 1215.27 -7.1704 3.19006 0
M  V30 9186 O 1215.31 -8.16596 0.923387 0
M  V30 9187 C 1215.15 -9.38437 0.108857 0
M  V30 9188 C 1215.69 -9.08175 -1.28353 0
M  V30 9189 O 1214.64 -8.44229 -1.84713 0
M  V30 9190 C 1216.91 -8.18386 -1.42505 0
M  V30 9191 O 1217.65 -8.3501 -2.60497 0
M  V30 9192 C 1216.24 -6.80225 -1.25468 0
M  V30 9193 O 1217.04 -5.81621 -1.91066 0
M  V30 9194 C 1214.9 -7.02416 -1.9168 0
M  V30 9195 H 1214.94 -6.6888 -2.96621 0
M  V30 9196 H 1216.12 -6.53617 -0.192223 0
M  V30 9197 H 1217.6 -8.36622 -0.589963 0
M  V30 9198 H 1215.91 -10.0291 -1.79807 0
M  V30 9199 H 1215.72 -10.2138 0.558219 0
M  V30 9200 H 1214.09 -9.6579 0.0444202 0
M  V30 9201 H 1216.73 -5.69556 -2.79637 0
M  V30 9202 P 1218.59 -8.4349 -2.47671 0
M  V30 9203 O 1220.01 -8.92593 -2.65 0
M  V30 9204 O 1218.23 -7.7568 -1.19296 0
M  V30 9205 O 1218.26 -7.36886 -3.63805 0
M  V30 9206 C 1218.1 -7.95349 -4.982 0
M  V30 9207 C 1218.64 -6.94612 -5.98974 0
M  V30 9208 O 1217.59 -6.10347 -6.11815 0
M  V30 9209 C 1219.86 -6.11426 -5.62335 0
M  V30 9210 O 1220.6 -5.6162 -6.70584 0
M  V30 9211 C 1219.19 -5.04409 -4.73308 0
M  V30 9212 O 1219.99 -3.85992 -4.75183 0
M  V30 9213 C 1217.85 -4.8728 -5.41006 0
M  V30 9214 H 1217.89 -4.02333 -6.11157 0
M  V30 9215 H 1219.07 -5.39466 -3.69543 0
M  V30 9216 H 1220.55 -6.71916 -5.01943 0
M  V30 9217 H 1218.86 -7.4649 -6.93477 0
M  V30 9218 H 1218.67 -8.89416 -5.05237 0
M  V30 9219 H 1217.04 -8.14876 -5.18409 0
M  V30 9220 H 1219.68 -3.27957 -5.4317 0
M  V30 9221 P 1221.54 -5.75688 -6.64379 0
M  V30 9222 O 1222.96 -6.07627 -7.05504 0
M  V30 9223 O 1221.18 -5.88047 -5.19722 0
M  V30 9224 O 1221.21 -4.2322 -7.04443 0
M  V30 9225 C 1221.05 -3.99743 -8.4911 0
M  V30 9226 C 1221.59 -2.60516 -8.79425 0
M  V30 9227 O 1220.54 -1.82684 -8.4467 0
M  V30 9228 C 1222.81 -2.10343 -8.03628 0
M  V30 9229 O 1223.55 -1.09919 -8.67766 0
M  V30 9230 C 1222.14 -1.68446 -6.70876 0
M  V30 9231 O 1222.94 -0.678137 -6.08433 0
M  V30 9232 C 1220.8 -1.17436 -7.18567 0
M  V30 9233 H 1220.84 -0.0804732 -7.31656 0
M  V30 9234 H 1222.02 -2.54037 -6.02537 0
M  V30 9235 H 1223.5 -2.93881 -7.85526 0
M  V30 9236 H 1221.81 -2.53065 -9.86973 0
M  V30 9237 H 1221.62 -4.75072 -9.05887 0
M  V30 9238 H 1219.99 -4.05244 -8.76668 0
M  V30 9239 H 1222.63 0.177647 -6.34251 0
M  V30 9240 P 1224.49 -1.25109 -8.70152 0
M  V30 9241 O 1225.89 -1.3516 -9.26897 0
M  V30 9242 O 1224.11 -2.18141 -7.59181 0
M  V30 9243 O 1224.16 0.248118 -8.21325 0
M  V30 9244 C 1224 1.22779 -9.30434 0
M  V30 9245 C 1224.54 2.56265 -8.80568 0
M  V30 9246 O 1223.49 3.02944 -8.09255 0
M  V30 9247 C 1225.76 2.57523 -7.89775 0
M  V30 9248 O 1226.5 3.7668 -7.89438 0
M  V30 9249 C 1225.09 2.20997 -6.55446 0
M  V30 9250 O 1225.89 2.71851 -5.48419 0
M  V30 9251 C 1223.76 2.89693 -6.67988 0
M  V30 9252 N 1222.71 2.08895 -6.07487 0
M  V30 9253 C 1221.68 2.72974 -5.43836 0
M  V30 9254 O 1221.72 3.97779 -5.34036 0
M  V30 9255 N 1220.67 2.0005 -4.91983 0
M  V30 9256 C 1220.71 0.66501 -5.00098 0
M  V30 9257 C 1221.81 -0.0100979 -5.61099 0
M  V30 9258 C 1222.78 0.74189 -6.14236 0
M  V30 9259 H 1223.79 3.8874 -6.19774 0
M  V30 9260 H 1224.97 1.12673 -6.44018 0
M  V30 9261 H 1226.45 1.783 -8.19631 0
M  V30 9262 H 1224.76 3.21673 -9.66791 0
M  V30 9263 H 1224.57 0.901032 -10.1892 0
M  V30 9264 H 1222.94 1.33036 -9.56493 0
M  V30 9265 H 1221.86 -1.09591 -5.64358 0
M  V30 9266 H 1223.62 0.260263 -6.6359 0
M  V30 9267 H 1225.68 3.62759 -5.33442 0
M  V30 9268 P 1227.44 3.65191 -7.99657 0
M  V30 9269 O 1228.86 3.89332 -8.45794 0
M  V30 9270 O 1227.08 2.28472 -7.50807 0
M  V30 9271 O 1227.11 4.64972 -6.77611 0
M  V30 9272 C 1226.95 6.06319 -7.16352 0
M  V30 9273 C 1227.49 6.91731 -6.02299 0
M  V30 9274 O 1226.44 6.92449 -5.17064 0
M  V30 9275 C 1228.71 6.43627 -5.25174 0
M  V30 9276 O 1229.45 7.43686 -4.60469 0
M  V30 9277 C 1228.04 5.40275 -4.31916 0
M  V30 9278 O 1228.84 5.25279 -3.14438 0
M  V30 9279 C 1226.71 6.04847 -4.05327 0
M  V30 9280 H 1226.74 6.62195 -3.11261 0
M  V30 9281 H 1227.92 4.42556 -4.81383 0
M  V30 9282 H 1229.41 5.92458 -5.93643 0
M  V30 9283 H 1227.71 7.92655 -6.402 0
M  V30 9284 H 1227.52 6.26671 -8.0846 0
M  V30 9285 H 1225.89 6.29101 -7.32804 0
M  V30 9286 H 1228.53 5.84315 -2.47318 0
M  V30 9287 P 1230.39 7.39546 -4.75277 0
M  V30 9288 O 1231.79 7.86988 -5.07993 0
M  V30 9289 O 1230.01 5.99957 -5.13804 0
M  V30 9290 O 1230.06 7.57411 -3.18621 0
M  V30 9291 C 1229.9 8.97357 -2.74833 0
M  V30 9292 C 1230.44 9.0745 -1.32694 0
M  V30 9293 O 1229.39 8.61972 -0.606089 0
M  V30 9294 C 1231.66 8.25383 -0.938334 0
M  V30 9295 O 1232.4 8.74577 0.146954 0
M  V30 9296 C 1230.99 6.8802 -0.712559 0
M  V30 9297 O 1231.79 6.11791 0.194623 0
M  V30 9298 C 1229.66 7.27966 -0.139777 0
M  V30 9299 N 1228.61 6.39368 -0.623421 0
M  V30 9300 C 1227.58 6.08088 0.223886 0
M  V30 9301 O 1227.62 6.5102 1.39986 0
M  V30 9302 N 1226.57 5.30627 -0.224051 0
M  V30 9303 C 1226.61 4.82531 -1.47257 0
M  V30 9304 C 1227.71 5.09974 -2.34008 0
M  V30 9305 C 1228.68 5.89548 -1.87678 0
M  V30 9306 H 1229.69 7.25255 0.961469 0
M  V30 9307 H 1230.87 6.32625 -1.65044 0
M  V30 9308 H 1232.36 8.19631 -1.78299 0
M  V30 9309 H 1230.66 10.1305 -1.09016 0
M  V30 9310 H 1230.47 9.64276 -3.41316 0
M  V30 9311 H 1228.84 9.25321 -2.76328 0
M  V30 9312 H 1227.76 4.67832 -3.3413 0
M  V30 9313 H 1229.52 6.14434 -2.51991 0
M  V30 9314 H 1231.58 6.35931 1.08377 0
M  V30 9315 P 1233.34 8.791 1.00373e-11 0
M  V30 9316 O 1234.76 9.31096 0.027933 0
M  V30 9317 O 1232.98 7.77869 -1.04071 0
M  V30 9318 O 1233.02 8.09533 1.41463 0
M  V30 9319 C 1232.86 9.0349 2.53943 0
M  V30 9320 C 1233.4 8.35226 3.79016 0
M  V30 9321 O 1232.34 7.57992 4.15078 0
M  V30 9322 C 1234.61 7.45087 3.67298 0
M  V30 9323 O 1235.35 7.27796 4.85194 0
M  V30 9324 C 1233.94 6.17323 3.12027 0
M  V30 9325 O 1234.74 5.04231 3.47188 0
M  V30 9326 C 1232.61 6.19961 3.81809 0
M  V30 9327 H 1232.64 5.58218 4.73051 0
M  V30 9328 H 1233.82 6.21726 2.02589 0
M  V30 9329 H 1235.31 7.86112 2.9231 0
M  V30 9330 H 1233.61 9.11627 4.55076 0
M  V30 9331 H 1233.42 9.9573 2.34194 0
M  V30 9332 H 1231.79 9.2792 2.67832 0
M  V30 9333 H 1234.43 4.67702 4.28772 0
M  V30 9334 P 1236.29 7.39546 4.75277 0
M  V30 9335 O 1237.71 7.81777 5.05738 0
M  V30 9336 O 1235.93 7.1065 3.32998 0
M  V30 9337 O 1235.97 6.04542 5.56673 0
M  V30 9338 C 1235.81 6.22772 7.02095 0
M  V30 9339 C 1236.35 4.97725 7.70406 0
M  V30 9340 O 1235.29 4.13256 7.58987 0
M  V30 9341 C 1237.56 4.28231 7.11815 0
M  V30 9342 O 1238.3 3.49945 8.01648 0
M  V30 9343 C 1236.89 3.5063 5.96244 0
M  V30 9344 O 1237.69 2.36482 5.64681 0
M  V30 9345 C 1235.56 3.15122 6.56374 0
M  V30 9346 H 1235.59 2.13853 6.99751 0
M  V30 9347 H 1236.77 4.13501 5.06559 0
M  V30 9348 H 1238.26 5.03285 6.70911 0
M  V30 9349 H 1236.56 5.20877 8.75697 0
M  V30 9350 H 1236.37 7.11046 7.35349 0
M  V30 9351 H 1234.74 6.35815 7.26986 0
M  V30 9352 H 1237.38 1.61644 6.13565 0
M  V30 9353 P 1239.24 3.65191 7.99657 0
M  V30 9354 O 1240.66 3.8425 8.48115 0
M  V30 9355 O 1238.88 4.17805 6.64342 0
M  V30 9356 O 1238.92 2.07613 7.95143 0
M  V30 9357 C 1238.76 1.44328 9.27336 0
M  V30 9358 C 1239.3 0.0220036 9.17197 0
M  V30 9359 O 1238.24 -0.626867 8.61923 0
M  V30 9360 C 1240.51 -0.24586 8.30336 0
M  V30 9361 O 1241.25 -1.39011 8.63583 0
M  V30 9362 C 1239.85 -0.273849 6.91158 0
M  V30 9363 O 1240.64 -1.06348 6.02892 0
M  V30 9364 C 1238.51 -0.897649 7.22545 0
M  V30 9365 H 1238.54 -1.9841 7.04286 0
M  V30 9366 H 1239.72 0.739928 6.497 0
M  V30 9367 H 1241.21 0.60668 8.36503 0
M  V30 9368 H 1239.51 -0.352479 10.1829 0
M  V30 9369 H 1239.32 2.00611 10.0304 0
M  V30 9370 H 1237.69 1.41843 9.55327 0
M  V30 9371 H 1240.33 -1.95734 6.03555 0
M  V30 9372 P 1242.19 -1.25109 8.70152 0
M  V30 9373 O 1243.61 -1.35274 9.21221 0
M  V30 9374 O 1241.83 -0.0769065 7.84762 0
M  V30 9375 O 1241.87 -2.55232 7.81161 0
M  V30 9376 C 1241.71 -3.79939 8.58154 0
M  V30 9377 C 1242.25 -4.94023 7.72785 0
M  V30 9378 O 1241.19 -5.18726 6.91205 0
M  V30 9379 C 1243.46 -4.69597 6.85231 0
M  V30 9380 O 1244.2 -5.83832 6.51337 0
M  V30 9381 C 1242.8 -3.96706 5.66633 0
M  V30 9382 O 1243.59 -4.15414 4.49689 0
M  V30 9383 C 1241.46 -4.66153 5.59313 0
M  V30 9384 H 1241.49 -5.47679 4.85214 0
M  V30 9385 H 1242.67 -2.89008 5.86566 0
M  V30 9386 H 1244.16 -4.0121 7.36511 0
M  V30 9387 H 1242.46 -5.80182 8.37584 0
M  V30 9388 H 1242.27 -3.73517 9.52265 0
M  V30 9389 H 1240.64 -3.97163 8.80359 0
M  V30 9390 H 1243.28 -4.90969 4.01921 0
M  V30 9391 P 1245.14 -5.75688 6.64379 0
M  V30 9392 O 1246.56 -6.11849 7.01846 0
M  V30 9393 O 1244.78 -4.30744 6.56026 0
M  V30 9394 O 1244.82 -6.37042 5.19165 0
M  V30 9395 C 1244.66 -7.83578 5.16515 0
M  V30 9396 C 1245.2 -8.33398 3.83019 0
M  V30 9397 O 1244.14 -8.10074 3.01034 0
M  V30 9398 C 1246.42 -7.65514 3.2257 0
M  V30 9399 O 1247.15 -8.4329 2.32297 0
M  V30 9400 C 1245.75 -6.40075 2.62207 0
M  V30 9401 O 1246.55 -5.92589 1.53712 0
M  V30 9402 C 1244.41 -6.9454 2.18503 0
M  V30 9403 H 1244.44 -7.23063 1.12091 0
M  V30 9404 H 1245.62 -5.6025 3.37201 0
M  V30 9405 H 1247.11 -7.35707 4.02681 0
M  V30 9406 H 1245.41 -9.40912 3.9095 0
M  V30 9407 H 1245.22 -8.29056 5.99158 0
M  V30 9408 H 1243.59 -8.10073 5.25882 0
M  V30 9409 H 1246.23 -6.30324 0.726794 0
M  V30 9410 P 1248.09 -8.4349 2.47671 0
M  V30 9411 O 1249.51 -8.94167 2.5964 0
M  V30 9412 O 1247.73 -7.1704 3.19006 0
M  V30 9413 O 1247.77 -8.16596 0.923387 0
M  V30 9414 C 1247.61 -9.38437 0.108857 0
M  V30 9415 C 1248.15 -9.08175 -1.28353 0
M  V30 9416 O 1247.09 -8.44229 -1.84713 0
M  V30 9417 C 1249.37 -8.18386 -1.42505 0
M  V30 9418 O 1250.1 -8.3501 -2.60497 0
M  V30 9419 C 1248.7 -6.80225 -1.25468 0
M  V30 9420 O 1249.5 -5.81621 -1.91066 0
M  V30 9421 C 1247.36 -7.02416 -1.9168 0
M  V30 9422 H 1247.39 -6.6888 -2.96621 0
M  V30 9423 H 1248.58 -6.53617 -0.192223 0
M  V30 9424 H 1250.06 -8.36622 -0.589963 0
M  V30 9425 H 1248.37 -10.0291 -1.79807 0
M  V30 9426 H 1248.18 -10.2138 0.558219 0
M  V30 9427 H 1246.55 -9.6579 0.0444202 0
M  V30 9428 H 1249.18 -5.69556 -2.79637 0
M  V30 9429 P 1251.04 -8.4349 -2.47671 0
M  V30 9430 O 1252.44 -8.99283 -2.62101 0
M  V30 9431 O 1250.66 -7.81195 -1.16947 0
M  V30 9432 O 1250.72 -7.36797 -3.63761 0
M  V30 9433 C 1250.56 -7.95349 -4.982 0
M  V30 9434 C 1251.1 -6.94537 -5.98908 0
M  V30 9435 O 1250.04 -6.10277 -6.11744 0
M  V30 9436 C 1252.32 -6.11426 -5.62335 0
M  V30 9437 O 1253.05 -5.6162 -6.70584 0
M  V30 9438 C 1251.65 -5.04409 -4.73308 0
M  V30 9439 O 1252.45 -3.85929 -4.75106 0
M  V30 9440 C 1250.31 -4.8728 -5.41006 0
M  V30 9441 N 1249.27 -4.65812 -4.42377 0
M  V30 9442 C 1248.23 -3.81293 -4.74224 0
M  V30 9443 O 1248.27 -3.20533 -5.83679 0
M  V30 9444 N 1247.22 -3.6442 -3.86349 0
M  V30 9445 C 1247.27 -4.2728 -2.6824 0
M  V30 9446 C 1248.36 -5.10813 -2.3217 0
M  V30 9447 C 1249.33 -5.27909 -3.22647 0
M  V30 9448 H 1250.34 -4.02278 -6.11074 0
M  V30 9449 H 1251.53 -5.39013 -3.70026 0
M  V30 9450 H 1253.01 -6.71494 -5.02675 0
M  V30 9451 H 1251.32 -7.45796 -6.94223 0
M  V30 9452 H 1251.12 -8.89416 -5.05237 0
M  V30 9453 H 1249.49 -8.14791 -5.18355 0
M  V30 9454 H 1248.41 -5.58884 -1.34755 0
M  V30 9455 H 1250.18 -5.92811 -2.9934 0
M  V30 9456 H 1252.23 -3.3454 -5.51577 0
M  V30 9457 P 1253.99 -5.75688 -6.64379 0
M  V30 9458 O 1255.41 -6.07627 -7.05504 0
M  V30 9459 O 1253.63 -5.88047 -5.19722 0
M  V30 9460 O 1253.67 -4.2322 -7.04443 0
M  V30 9461 C 1253.51 -3.99743 -8.4911 0
M  V30 9462 C 1254.05 -2.60516 -8.79425 0
M  V30 9463 O 1252.99 -1.82684 -8.4467 0
M  V30 9464 C 1255.27 -2.10343 -8.03628 0
M  V30 9465 O 1256.01 -1.09919 -8.67766 0
M  V30 9466 C 1254.6 -1.68446 -6.70876 0
M  V30 9467 O 1255.4 -0.678137 -6.08433 0
M  V30 9468 C 1253.26 -1.17436 -7.18567 0
M  V30 9469 H 1253.29 -0.0804732 -7.31656 0
M  V30 9470 H 1254.48 -2.54037 -6.02537 0
M  V30 9471 H 1255.96 -2.93881 -7.85526 0
M  V30 9472 H 1254.27 -2.53065 -9.86973 0
M  V30 9473 H 1254.08 -4.75072 -9.05887 0
M  V30 9474 H 1252.45 -4.05244 -8.76668 0
M  V30 9475 H 1255.09 0.177647 -6.34251 0
M  V30 9476 P 1256.94 -1.25109 -8.70152 0
M  V30 9477 O 1258.36 -1.29744 -9.22016 0
M  V30 9478 O 1256.58 -2.13714 -7.55141 0
M  V30 9479 O 1256.62 0.248149 -8.21425 0
M  V30 9480 C 1256.46 1.22779 -9.30434 0
M  V30 9481 C 1257 2.56293 -8.80664 0
M  V30 9482 O 1255.94 3.02979 -8.09349 0
M  V30 9483 C 1258.22 2.57523 -7.89775 0
M  V30 9484 O 1258.96 3.7668 -7.89438 0
M  V30 9485 C 1257.55 2.20997 -6.55446 0
M  V30 9486 O 1258.35 2.71895 -5.48509 0
M  V30 9487 C 1256.21 2.89693 -6.67988 0
M  V30 9488 H 1256.24 3.88793 -6.19859 0
M  V30 9489 H 1257.43 1.12046 -6.44229 0
M  V30 9490 H 1258.91 1.7746 -8.19711 0
M  V30 9491 H 1257.22 3.20706 -9.67112 0
M  V30 9492 H 1257.03 0.901032 -10.1892 0
M  V30 9493 H 1255.4 1.33049 -9.56592 0
M  V30 9494 H 1258.04 3.57847 -5.23962 0
M  V30 9495 P 1259.89 3.65191 -7.99657 0
M  V30 9496 O 1261.31 3.89374 -8.45885 0
M  V30 9497 O 1259.53 2.28472 -7.50807 0
M  V30 9498 O 1259.57 4.64972 -6.77611 0
M  V30 9499 C 1259.41 6.06383 -7.16428 0
M  V30 9500 C 1259.95 6.91731 -6.02299 0
M  V30 9501 O 1258.9 6.92369 -5.17005 0
M  V30 9502 C 1261.17 6.43627 -5.25174 0
M  V30 9503 O 1261.91 7.43686 -4.60469 0
M  V30 9504 C 1260.5 5.40275 -4.31916 0
M  V30 9505 O 1261.3 5.24878 -3.14911 0
M  V30 9506 C 1259.16 6.04847 -4.05327 0
M  V30 9507 N 1258.12 5.04166 -3.98114 0
M  V30 9508 C 1258.29 3.84629 -4.59066 0
M  V30 9509 N 1257.26 3.0363 -4.45343 0
M  V30 9510 C 1256.38 3.76722 -3.68523 0
M  V30 9511 C 1255.11 3.43528 -3.17088 0
M  V30 9512 N 1254.54 4.44526 -2.44231 0
M  V30 9513 C 1255.15 5.65243 -2.20146 0
M  V30 9514 N 1256.32 6.00221 -2.65453 0
M  V30 9515 C 1256.9 5.00564 -3.39083 0
M  V30 9516 H 1260.38 4.42969 -4.80867 0
M  V30 9517 H 1261.86 5.92458 -5.93643 0
M  V30 9518 H 1260.17 7.93295 -6.39407 0
M  V30 9519 H 1259.98 6.26671 -8.0846 0
M  V30 9520 H 1258.35 6.29101 -7.32804 0
M  V30 9521 H 1259.19 3.58193 -5.14248 0
M  V30 9522 H 1260.99 5.84223 -2.47279 0
M  V30 9523 P 1262.84 7.39546 -4.75277 0
M  V30 9524 O 1264.27 7.84798 -5.01039 0
M  V30 9525 O 1262.48 5.9812 -5.08098 0
M  V30 9526 O 1262.52 7.57503 -3.1866 0
M  V30 9527 C 1262.36 8.97357 -2.74833 0
M  V30 9528 C 1262.9 9.07548 -1.32709 0
M  V30 9529 O 1261.84 8.62072 -0.606159 0
M  V30 9530 C 1264.12 8.25383 -0.938334 0
M  V30 9531 O 1264.86 8.74577 0.146954 0
M  V30 9532 C 1263.45 6.8802 -0.712559 0
M  V30 9533 O 1264.25 6.1189 0.194655 0
M  V30 9534 C 1262.11 7.27966 -0.139777 0
M  V30 9535 H 1262.14 7.25354 0.961601 0
M  V30 9536 H 1263.33 6.32557 -1.65702 0
M  V30 9537 H 1264.81 8.19355 -1.79097 0
M  V30 9538 H 1263.12 10.1294 -1.10029 0
M  V30 9539 H 1262.93 9.64276 -3.41316 0
M  V30 9540 H 1261.3 9.25417 -2.76357 0
M  V30 9541 H 1263.94 6.25267 1.07847 0
M  V30 9542 P 1265.79 8.791 1.03475e-11 0
M  V30 9543 O 1267.22 9.31296 0.027939 0
M  V30 9544 O 1265.43 7.77869 -1.04071 0
M  V30 9545 O 1265.47 8.09533 1.41463 0
M  V30 9546 C 1265.31 9.0349 2.53943 0
M  V30 9547 C 1265.85 8.35135 3.78975 0
M  V30 9548 O 1264.8 7.57992 4.15078 0
M  V30 9549 C 1267.07 7.45087 3.67298 0
M  V30 9550 O 1267.81 7.27796 4.85194 0
M  V30 9551 C 1266.4 6.17323 3.12027 0
M  V30 9552 O 1267.2 5.04149 3.47132 0
M  V30 9553 C 1265.06 6.19961 3.81809 0
M  V30 9554 N 1264.02 5.71575 2.93223 0
M  V30 9555 C 1264.08 5.97133 1.62693 0
M  V30 9556 N 1263.04 5.44066 0.984414 0
M  V30 9557 C 1262.3 4.87093 1.93987 0
M  V30 9558 C 1261 4.26449 1.8738 0
M  V30 9559 O 1260.26 4.1089 0.884377 0
M  V30 9560 N 1260.57 3.82483 3.08036 0
M  V30 9561 C 1261.32 3.95124 4.27727 0
M  V30 9562 N 1260.72 3.4084 5.39089 0
M  V30 9563 N 1262.47 4.55264 4.3706 0
M  V30 9564 C 1262.93 5.00861 3.18217 0
M  V30 9565 H 1265.1 5.58218 4.73051 0
M  V30 9566 H 1266.28 6.21631 2.02558 0
M  V30 9567 H 1267.76 7.85819 2.93096 0
M  V30 9568 H 1266.07 9.11627 4.55076 0
M  V30 9569 H 1265.88 9.9573 2.34194 0
M  V30 9570 H 1264.25 9.2792 2.67832 0
M  V30 9571 H 1259.67 3.38323 3.1329 0
M  V30 9572 H 1264.88 6.53891 1.14265 0
M  V30 9573 H 1259.81 2.93852 5.30559 0
M  V30 9574 H 1261.18 3.47631 6.30632 0
M  V30 9575 H 1266.89 4.67628 4.28704 0
M  V30 9576 P 1268.75 7.39546 4.75277 0
M  V30 9577 O 1270.17 7.81861 5.05793 0
M  V30 9578 O 1268.39 7.1065 3.32998 0
M  V30 9579 O 1268.42 6.04542 5.56673 0
M  V30 9580 C 1268.26 6.22839 7.02169 0
M  V30 9581 C 1268.8 4.97725 7.70406 0
M  V30 9582 O 1267.75 4.13208 7.58899 0
M  V30 9583 C 1270.02 4.28231 7.11815 0
M  V30 9584 O 1270.76 3.49945 8.01648 0
M  V30 9585 C 1269.35 3.5063 5.96244 0
M  V30 9586 O 1270.15 2.37008 5.64352 0
M  V30 9587 C 1268.01 3.15122 6.56374 0
M  V30 9588 N 1266.97 3.22311 5.55692 0
M  V30 9589 C 1267.14 3.99655 4.46046 0
M  V30 9590 N 1266.11 3.97599 3.63918 0
M  V30 9591 C 1265.23 3.11159 4.25334 0
M  V30 9592 C 1263.96 2.64972 3.85157 0
M  V30 9593 N 1263.4 1.78482 4.74759 0
M  V30 9594 C 1264 1.37463 5.90819 0
M  V30 9595 N 1265.18 1.7733 6.31889 0
M  V30 9596 C 1265.75 2.64393 5.43725 0
M  V30 9597 H 1269.23 4.12931 5.06895 0
M  V30 9598 H 1270.71 5.03285 6.70911 0
M  V30 9599 H 1269.02 5.20001 8.76217 0
M  V30 9600 H 1268.83 7.11046 7.35349 0
M  V30 9601 H 1267.2 6.35815 7.26986 0
M  V30 9602 H 1268.04 4.58037 4.27732 0
M  V30 9603 H 1269.84 1.61619 6.13468 0
M  V30 9604 P 1271.7 3.65191 7.99657 0
M  V30 9605 O 1273.12 3.8425 8.48115 0
M  V30 9606 O 1271.34 4.17805 6.64342 0
M  V30 9607 O 1271.37 2.07613 7.95143 0
M  V30 9608 C 1271.21 1.44328 9.27336 0
M  V30 9609 C 1271.75 0.0220036 9.17197 0
M  V30 9610 O 1270.7 -0.626867 8.61923 0
M  V30 9611 C 1272.97 -0.24586 8.30336 0
M  V30 9612 O 1273.71 -1.39011 8.63583 0
M  V30 9613 C 1272.3 -0.273849 6.91158 0
M  V30 9614 O 1273.1 -1.06348 6.02892 0
M  V30 9615 C 1270.96 -0.897649 7.22545 0
M  V30 9616 H 1271 -1.9841 7.04286 0
M  V30 9617 H 1272.18 0.739928 6.497 0
M  V30 9618 H 1273.66 0.60668 8.36503 0
M  V30 9619 H 1271.97 -0.352479 10.1829 0
M  V30 9620 H 1271.78 2.00611 10.0304 0
M  V30 9621 H 1270.15 1.41843 9.55327 0
M  V30 9622 H 1272.79 -1.95734 6.03555 0
M  V30 9623 P 1274.65 -1.25109 8.70152 0
M  V30 9624 O 1276.07 -1.35288 9.2132 0
M  V30 9625 O 1274.29 -0.0769065 7.84762 0
M  V30 9626 O 1274.32 -2.55232 7.81161 0
M  V30 9627 C 1274.16 -3.79979 8.58246 0
M  V30 9628 C 1274.7 -4.94023 7.72785 0
M  V30 9629 O 1273.65 -5.18666 6.91125 0
M  V30 9630 C 1275.92 -4.69597 6.85231 0
M  V30 9631 O 1276.66 -5.83832 6.51337 0
M  V30 9632 C 1275.25 -3.96706 5.66633 0
M  V30 9633 O 1276.05 -4.14896 4.5003 0
M  V30 9634 C 1273.92 -4.66153 5.59313 0
M  V30 9635 N 1272.87 -3.71582 5.24027 0
M  V30 9636 C 1273.04 -2.39715 5.48833 0
M  V30 9637 N 1272.01 -1.65863 5.12845 0
M  V30 9638 C 1271.13 -2.57637 4.5973 0
M  V30 9639 C 1269.86 -2.40278 4.01027 0
M  V30 9640 N 1269.26 -1.19549 3.86744 0
M  V30 9641 N 1269.3 -3.57711 3.59575 0
M  V30 9642 C 1269.9 -4.80324 3.70476 0
M  V30 9643 N 1271.08 -5.01121 4.23801 0
M  V30 9644 C 1271.65 -3.84757 4.66372 0
M  V30 9645 H 1273.95 -5.47604 4.85148 0
M  V30 9646 H 1275.13 -2.8955 5.86187 0
M  V30 9647 H 1276.61 -4.0121 7.36511 0
M  V30 9648 H 1274.92 -5.81019 8.37003 0
M  V30 9649 H 1274.73 -3.73517 9.52265 0
M  V30 9650 H 1273.1 -3.97163 8.80359 0
M  V30 9651 H 1269.36 -5.66348 3.3183 0
M  V30 9652 H 1273.94 -1.98804 5.94332 0
M  V30 9653 H 1268.33 -1.13147 3.4281 0
M  V30 9654 H 1269.74 -0.344074 4.19692 0
M  V30 9655 H 1275.74 -4.90891 4.01857 0
M  V30 9656 P 1277.6 -5.75688 6.64379 0
M  V30 9657 O 1279.02 -6.11915 7.01921 0
M  V30 9658 O 1277.24 -4.30744 6.56026 0
M  V30 9659 O 1277.27 -6.37042 5.19165 0
M  V30 9660 C 1277.11 -7.83662 5.1657 0
M  V30 9661 C 1277.65 -8.33398 3.83019 0
M  V30 9662 O 1276.6 -8.0998 3.00999 0
M  V30 9663 C 1278.87 -7.65514 3.2257 0
M  V30 9664 O 1279.61 -8.4329 2.32297 0
M  V30 9665 C 1278.2 -6.40075 2.62207 0
M  V30 9666 O 1279 -5.92338 1.5428 0
M  V30 9667 C 1276.87 -6.9454 2.18503 0
M  V30 9668 N 1275.82 -5.95905 2.39948 0
M  V30 9669 C 1275.99 -4.98383 3.32108 0
M  V30 9670 N 1274.96 -4.16798 3.41761 0
M  V30 9671 C 1274.08 -4.65287 2.47461 0
M  V30 9672 C 1272.81 -4.18946 2.07461 0
M  V30 9673 N 1272.25 -4.95327 1.09101 0
M  V30 9674 C 1272.85 -6.04369 0.519812 0
M  V30 9675 N 1274.03 -6.50694 0.855982 0
M  V30 9676 C 1274.6 -5.75818 1.84322 0
M  V30 9677 H 1278.08 -5.60502 3.36589 0
M  V30 9678 H 1279.56 -7.35707 4.02681 0
M  V30 9679 H 1277.87 -9.41302 3.90009 0
M  V30 9680 H 1277.68 -8.29056 5.99158 0
M  V30 9681 H 1276.05 -8.10073 5.25882 0
M  V30 9682 H 1276.89 -4.88564 3.92502 0
M  V30 9683 H 1278.69 -6.30224 0.72668 0
M  V30 9684 P 1280.55 -8.4349 2.47671 0
M  V30 9685 O 1281.97 -8.94167 2.5964 0
M  V30 9686 O 1280.19 -7.1704 3.19006 0
M  V30 9687 O 1280.22 -8.16596 0.923387 0
M  V30 9688 C 1280.06 -9.38437 0.108857 0
M  V30 9689 C 1280.6 -9.08175 -1.28353 0
M  V30 9690 O 1279.55 -8.44229 -1.84713 0
M  V30 9691 C 1281.82 -8.18386 -1.42505 0
M  V30 9692 O 1282.56 -8.3501 -2.60497 0
M  V30 9693 C 1281.15 -6.80225 -1.25468 0
M  V30 9694 O 1281.95 -5.81621 -1.91066 0
M  V30 9695 C 1279.82 -7.02416 -1.9168 0
M  V30 9696 H 1279.85 -6.6888 -2.96621 0
M  V30 9697 H 1281.03 -6.53617 -0.192223 0
M  V30 9698 H 1282.52 -8.36622 -0.589963 0
M  V30 9699 H 1280.82 -10.0291 -1.79807 0
M  V30 9700 H 1280.63 -10.2138 0.558219 0
M  V30 9701 H 1279 -9.6579 0.0444202 0
M  V30 9702 H 1281.64 -5.69556 -2.79637 0
M  V30 9703 P 1283.5 -8.4349 -2.47671 0
M  V30 9704 O 1284.92 -8.92593 -2.65 0
M  V30 9705 O 1283.14 -7.7568 -1.19296 0
M  V30 9706 O 1283.17 -7.36886 -3.63805 0
M  V30 9707 C 1283.01 -7.95349 -4.982 0
M  V30 9708 C 1283.55 -6.94612 -5.98974 0
M  V30 9709 O 1282.5 -6.10347 -6.11815 0
M  V30 9710 C 1284.77 -6.11426 -5.62335 0
M  V30 9711 O 1285.51 -5.6162 -6.70584 0
M  V30 9712 C 1284.1 -5.04409 -4.73308 0
M  V30 9713 O 1284.9 -3.85992 -4.75183 0
M  V30 9714 C 1282.77 -4.8728 -5.41006 0
M  V30 9715 H 1282.8 -4.02333 -6.11157 0
M  V30 9716 H 1283.98 -5.39466 -3.69543 0
M  V30 9717 H 1285.47 -6.71916 -5.01943 0
M  V30 9718 H 1283.77 -7.4649 -6.93477 0
M  V30 9719 H 1283.58 -8.89416 -5.05237 0
M  V30 9720 H 1281.95 -8.14876 -5.18409 0
M  V30 9721 H 1284.59 -3.27957 -5.4317 0
M  V30 9722 P 1286.45 -5.75688 -6.64379 0
M  V30 9723 O 1287.87 -6.07627 -7.05504 0
M  V30 9724 O 1286.09 -5.88047 -5.19722 0
M  V30 9725 O 1286.13 -4.2322 -7.04443 0
M  V30 9726 C 1285.97 -3.99743 -8.4911 0
M  V30 9727 C 1286.51 -2.60516 -8.79425 0
M  V30 9728 O 1285.45 -1.82684 -8.4467 0
M  V30 9729 C 1287.72 -2.10343 -8.03628 0
M  V30 9730 O 1288.46 -1.09919 -8.67766 0
M  V30 9731 C 1287.05 -1.68446 -6.70876 0
M  V30 9732 O 1287.85 -0.678137 -6.08433 0
M  V30 9733 C 1285.72 -1.17436 -7.18567 0
M  V30 9734 H 1285.75 -0.0804732 -7.31656 0
M  V30 9735 H 1286.93 -2.54037 -6.02537 0
M  V30 9736 H 1288.42 -2.93881 -7.85526 0
M  V30 9737 H 1286.72 -2.53065 -9.86973 0
M  V30 9738 H 1286.53 -4.75072 -9.05887 0
M  V30 9739 H 1284.9 -4.05244 -8.76668 0
M  V30 9740 H 1287.54 0.177647 -6.34251 0
M  V30 9741 P 1289.4 -1.25109 -8.70152 0
M  V30 9742 O 1290.82 -1.29744 -9.22016 0
M  V30 9743 O 1289.04 -2.13714 -7.55141 0
M  V30 9744 O 1289.08 0.248149 -8.21425 0
M  V30 9745 C 1288.92 1.22779 -9.30434 0
M  V30 9746 C 1289.46 2.56293 -8.80664 0
M  V30 9747 O 1288.4 3.02979 -8.09349 0
M  V30 9748 C 1290.67 2.57523 -7.89775 0
M  V30 9749 O 1291.41 3.7668 -7.89438 0
M  V30 9750 C 1290.01 2.20997 -6.55446 0
M  V30 9751 O 1290.8 2.71895 -5.48509 0
M  V30 9752 C 1288.67 2.89693 -6.67988 0
M  V30 9753 H 1288.7 3.88793 -6.19859 0
M  V30 9754 H 1289.88 1.12046 -6.44229 0
M  V30 9755 H 1291.37 1.7746 -8.19711 0
M  V30 9756 H 1289.67 3.20706 -9.67112 0
M  V30 9757 H 1289.48 0.901032 -10.1892 0
M  V30 9758 H 1287.85 1.33049 -9.56592 0
M  V30 9759 H 1290.49 3.57847 -5.23962 0
M  V30 9760 P 1292.35 3.65191 -7.99657 0
M  V30 9761 O 1293.77 3.89416 -8.45976 0
M  V30 9762 O 1291.99 2.28472 -7.50807 0
M  V30 9763 O 1292.03 4.64972 -6.77611 0
M  V30 9764 C 1291.87 6.06319 -7.16352 0
M  V30 9765 C 1292.41 6.91655 -6.02234 0
M  V30 9766 O 1291.35 6.92449 -5.17064 0
M  V30 9767 C 1293.62 6.43627 -5.25174 0
M  V30 9768 O 1294.36 7.43686 -4.60469 0
M  V30 9769 C 1292.96 5.40275 -4.31916 0
M  V30 9770 O 1293.75 5.25193 -3.14386 0
M  V30 9771 C 1291.62 6.04847 -4.05327 0
M  V30 9772 N 1290.58 5.04166 -3.98114 0
M  V30 9773 C 1290.64 3.96049 -4.75587 0
M  V30 9774 N 1289.59 3.15559 -4.54006 0
M  V30 9775 C 1288.86 3.78802 -3.62491 0
M  V30 9776 C 1287.55 3.476 -3.10071 0
M  V30 9777 O 1286.82 2.51136 -3.37021 0
M  V30 9778 N 1287.12 4.39088 -2.19956 0
M  V30 9779 C 1287.87 5.53215 -1.81733 0
M  V30 9780 N 1287.27 6.31963 -0.860928 0
M  V30 9781 N 1289.02 5.86688 -2.32562 0
M  V30 9782 C 1289.48 4.97525 -3.23407 0
M  V30 9783 H 1291.65 6.62195 -3.11261 0
M  V30 9784 H 1292.83 4.42488 -4.8131 0
M  V30 9785 H 1294.32 5.93051 -5.9305 0
M  V30 9786 H 1292.62 7.92655 -6.402 0
M  V30 9787 H 1292.43 6.26671 -8.0846 0
M  V30 9788 H 1290.8 6.29101 -7.32804 0
M  V30 9789 H 1286.23 4.25523 -1.77604 0
M  V30 9790 H 1291.43 3.75576 -5.47333 0
M  V30 9791 H 1286.36 6.04684 -0.468946 0
M  V30 9792 H 1287.74 7.18054 -0.542422 0
M  V30 9793 H 1293.44 5.84223 -2.47279 0
M  V30 9794 P 1295.3 7.39546 -4.75277 0
M  V30 9795 O 1296.72 7.84798 -5.01039 0
M  V30 9796 O 1294.94 5.9812 -5.08098 0
M  V30 9797 O 1294.98 7.57503 -3.1866 0
M  V30 9798 C 1294.82 8.97357 -2.74833 0
M  V30 9799 C 1295.36 9.07548 -1.32709 0
M  V30 9800 O 1294.3 8.62072 -0.606159 0
M  V30 9801 C 1296.58 8.25383 -0.938334 0
M  V30 9802 O 1297.31 8.74577 0.146954 0
M  V30 9803 C 1295.91 6.8802 -0.712559 0
M  V30 9804 O 1296.71 6.1189 0.194655 0
M  V30 9805 C 1294.57 7.27966 -0.139777 0
M  V30 9806 H 1294.6 7.25354 0.961601 0
M  V30 9807 H 1295.78 6.32557 -1.65702 0
M  V30 9808 H 1297.27 8.19355 -1.79097 0
M  V30 9809 H 1295.57 10.1294 -1.10029 0
M  V30 9810 H 1295.38 9.64276 -3.41316 0
M  V30 9811 H 1293.75 9.25417 -2.76357 0
M  V30 9812 H 1296.39 6.25267 1.07847 0
M  V30 9813 P 1298.25 8.791 1.06576e-11 0
M  V30 9814 O 1299.67 9.31196 0.027936 0
M  V30 9815 O 1297.89 7.77869 -1.04071 0
M  V30 9816 O 1297.93 8.09533 1.41463 0
M  V30 9817 C 1297.77 9.03587 2.5397 0
M  V30 9818 C 1298.31 8.35226 3.79016 0
M  V30 9819 O 1297.25 7.57904 4.1503 0
M  V30 9820 C 1299.53 7.45087 3.67298 0
M  V30 9821 O 1300.26 7.27796 4.85194 0
M  V30 9822 C 1298.86 6.17323 3.12027 0
M  V30 9823 O 1299.66 5.04496 3.46627 0
M  V30 9824 C 1297.52 6.19961 3.81809 0
M  V30 9825 N 1296.48 5.71575 2.93223 0
M  V30 9826 C 1296.65 5.77362 1.59168 0
M  V30 9827 N 1295.62 5.3123 0.911893 0
M  V30 9828 C 1294.73 4.91717 1.89588 0
M  V30 9829 C 1293.47 4.3114 1.8076 0
M  V30 9830 N 1292.87 3.99821 0.632928 0
M  V30 9831 N 1292.9 4.06823 3.02898 0
M  V30 9832 C 1293.5 4.35062 4.22711 0
M  V30 9833 N 1294.68 4.90805 4.35707 0
M  V30 9834 C 1295.26 5.16382 3.14469 0
M  V30 9835 H 1297.55 5.58142 4.72986 0
M  V30 9836 H 1298.73 6.21428 2.0318 0
M  V30 9837 H 1300.22 7.86112 2.9231 0
M  V30 9838 H 1298.52 9.11171 4.55987 0
M  V30 9839 H 1298.33 9.9573 2.34194 0
M  V30 9840 H 1296.7 9.2792 2.67832 0
M  V30 9841 H 1292.97 4.09052 5.13359 0
M  V30 9842 H 1297.55 6.16575 1.12198 0
M  V30 9843 H 1291.94 3.55423 0.632085 0
M  V30 9844 H 1293.34 4.20317 -0.256712 0
M  V30 9845 H 1299.34 4.67628 4.28704 0
M  V30 9846 P 1301.2 7.39546 4.75277 0
M  V30 9847 O 1302.6 7.89013 5.04841 0
M  V30 9848 O 1300.82 7.16603 3.32298 0
M  V30 9849 O 1300.88 6.04468 5.56605 0
M  V30 9850 C 1300.72 6.22772 7.02095 0
M  V30 9851 C 1301.26 4.97671 7.70322 0
M  V30 9852 O 1300.2 4.13208 7.58899 0
M  V30 9853 C 1302.48 4.28231 7.11815 0
M  V30 9854 O 1303.21 3.49945 8.01648 0
M  V30 9855 C 1301.81 3.5063 5.96244 0
M  V30 9856 O 1302.61 2.36443 5.64589 0
M  V30 9857 C 1300.47 3.15122 6.56374 0
M  V30 9858 N 1299.43 3.22311 5.55692 0
M  V30 9859 C 1298.39 2.32244 5.62437 0
M  V30 9860 O 1298.43 1.43107 6.50341 0
M  V30 9861 N 1297.38 2.40811 4.73368 0
M  V30 9862 C 1297.43 3.344 3.77753 0
M  V30 9863 C 1298.52 4.24712 3.66679 0
M  V30 9864 C 1299.49 4.15625 4.58307 0
M  V30 9865 H 1300.5 2.13823 6.99656 0
M  V30 9866 H 1301.69 4.12931 5.06895 0
M  V30 9867 H 1303.17 5.02674 6.71494 0
M  V30 9868 H 1301.48 5.20001 8.76217 0
M  V30 9869 H 1301.28 7.11046 7.35349 0
M  V30 9870 H 1299.65 6.35749 7.26911 0
M  V30 9871 H 1298.57 4.9828 2.86753 0
M  V30 9872 H 1300.34 4.84464 4.54228 0
M  V30 9873 H 1302.39 1.65592 6.23485 0
M  V30 9874 P 1304.15 3.65191 7.99657 0
M  V30 9875 O 1305.57 3.8425 8.48115 0
M  V30 9876 O 1303.79 4.17805 6.64342 0
M  V30 9877 O 1303.83 2.07613 7.95143 0
M  V30 9878 C 1303.67 1.44328 9.27336 0
M  V30 9879 C 1304.21 0.0220036 9.17197 0
M  V30 9880 O 1303.15 -0.626867 8.61923 0
M  V30 9881 C 1305.43 -0.24586 8.30336 0
M  V30 9882 O 1306.16 -1.39011 8.63583 0
M  V30 9883 C 1304.76 -0.273849 6.91158 0
M  V30 9884 O 1305.56 -1.06348 6.02892 0
M  V30 9885 C 1303.42 -0.897649 7.22545 0
M  V30 9886 H 1303.45 -1.9841 7.04286 0
M  V30 9887 H 1304.64 0.739928 6.497 0
M  V30 9888 H 1306.12 0.60668 8.36503 0
M  V30 9889 H 1304.43 -0.352479 10.1829 0
M  V30 9890 H 1304.24 2.00611 10.0304 0
M  V30 9891 H 1302.61 1.41843 9.55327 0
M  V30 9892 H 1305.24 -1.95734 6.03555 0
M  V30 9893 P 1307.1 -1.25109 8.70152 0
M  V30 9894 O 1308.52 -1.35274 9.21221 0
M  V30 9895 O 1306.74 -0.0769065 7.84762 0
M  V30 9896 O 1306.78 -2.55232 7.81161 0
M  V30 9897 C 1306.62 -3.79939 8.58154 0
M  V30 9898 C 1307.16 -4.94023 7.72785 0
M  V30 9899 O 1306.1 -5.18726 6.91205 0
M  V30 9900 C 1308.38 -4.69597 6.85231 0
M  V30 9901 O 1309.12 -5.83832 6.51337 0
M  V30 9902 C 1307.71 -3.96706 5.66633 0
M  V30 9903 O 1308.51 -4.15414 4.49689 0
M  V30 9904 C 1306.37 -4.66153 5.59313 0
M  V30 9905 H 1306.4 -5.47679 4.85214 0
M  V30 9906 H 1307.59 -2.89008 5.86566 0
M  V30 9907 H 1309.07 -4.0121 7.36511 0
M  V30 9908 H 1307.38 -5.80182 8.37584 0
M  V30 9909 H 1307.19 -3.73517 9.52265 0
M  V30 9910 H 1305.56 -3.97163 8.80359 0
M  V30 9911 H 1308.2 -4.90969 4.01921 0
M  V30 9912 P 1310.05 -5.75688 6.64379 0
M  V30 9913 O 1311.48 -6.11849 7.01846 0
M  V30 9914 O 1309.69 -4.30744 6.56026 0
M  V30 9915 O 1309.73 -6.37042 5.19165 0
M  V30 9916 C 1309.57 -7.83578 5.16515 0
M  V30 9917 C 1310.11 -8.33398 3.83019 0
M  V30 9918 O 1309.05 -8.10074 3.01034 0
M  V30 9919 C 1311.33 -7.65514 3.2257 0
M  V30 9920 O 1312.07 -8.4329 2.32297 0
M  V30 9921 C 1310.66 -6.40075 2.62207 0
M  V30 9922 O 1311.46 -5.92589 1.53712 0
M  V30 9923 C 1309.32 -6.9454 2.18503 0
M  V30 9924 H 1309.35 -7.23063 1.12091 0
M  V30 9925 H 1310.54 -5.6025 3.37201 0
M  V30 9926 H 1312.02 -7.35707 4.02681 0
M  V30 9927 H 1310.33 -9.40912 3.9095 0
M  V30 9928 H 1310.14 -8.29056 5.99158 0
M  V30 9929 H 1308.51 -8.10073 5.25882 0
M  V30 9930 H 1311.15 -6.30324 0.726794 0
M  V30 9931 P 1313 -8.4349 2.47671 0
M  V30 9932 O 1314.43 -8.94167 2.5964 0
M  V30 9933 O 1312.64 -7.1704 3.19006 0
M  V30 9934 O 1312.68 -8.16596 0.923387 0
M  V30 9935 C 1312.52 -9.38437 0.108857 0
M  V30 9936 C 1313.06 -9.08175 -1.28353 0
M  V30 9937 O 1312 -8.44229 -1.84713 0
M  V30 9938 C 1314.28 -8.18386 -1.42505 0
M  V30 9939 O 1315.02 -8.3501 -2.60497 0
M  V30 9940 C 1313.61 -6.80225 -1.25468 0
M  V30 9941 O 1314.41 -5.81621 -1.91066 0
M  V30 9942 C 1312.27 -7.02416 -1.9168 0
M  V30 9943 H 1312.3 -6.6888 -2.96621 0
M  V30 9944 H 1313.49 -6.53617 -0.192223 0
M  V30 9945 H 1314.97 -8.36622 -0.589963 0
M  V30 9946 H 1313.28 -10.0291 -1.79807 0
M  V30 9947 H 1313.09 -10.2138 0.558219 0
M  V30 9948 H 1311.46 -9.6579 0.0444202 0
M  V30 9949 H 1314.1 -5.69556 -2.79637 0
M  V30 9950 P 1315.95 -8.4349 -2.47671 0
M  V30 9951 O 1317.38 -8.92593 -2.65 0
M  V30 9952 O 1315.59 -7.7568 -1.19296 0
M  V30 9953 O 1315.63 -7.36886 -3.63805 0
M  V30 9954 C 1315.47 -7.95349 -4.982 0
M  V30 9955 C 1316.01 -6.94612 -5.98974 0
M  V30 9956 O 1314.96 -6.10347 -6.11815 0
M  V30 9957 C 1317.23 -6.11426 -5.62335 0
M  V30 9958 O 1317.97 -5.6162 -6.70584 0
M  V30 9959 C 1316.56 -5.04409 -4.73308 0
M  V30 9960 O 1317.36 -3.85992 -4.75183 0
M  V30 9961 C 1315.22 -4.8728 -5.41006 0
M  V30 9962 H 1315.26 -4.02333 -6.11157 0
M  V30 9963 H 1316.44 -5.39466 -3.69543 0
M  V30 9964 H 1317.92 -6.71916 -5.01943 0
M  V30 9965 H 1316.23 -7.4649 -6.93477 0
M  V30 9966 H 1316.04 -8.89416 -5.05237 0
M  V30 9967 H 1314.41 -8.14876 -5.18409 0
M  V30 9968 H 1317.05 -3.27957 -5.4317 0
M  V30 9969 P 1318.9 -5.75688 -6.64379 0
M  V30 9970 O 1320.33 -6.07627 -7.05504 0
M  V30 9971 O 1318.54 -5.88047 -5.19722 0
M  V30 9972 O 1318.58 -4.2322 -7.04443 0
M  V30 9973 C 1318.42 -3.99743 -8.4911 0
M  V30 9974 C 1318.96 -2.60516 -8.79425 0
M  V30 9975 O 1317.91 -1.82684 -8.4467 0
M  V30 9976 C 1320.18 -2.10343 -8.03628 0
M  V30 9977 O 1320.92 -1.09919 -8.67766 0
M  V30 9978 C 1319.51 -1.68446 -6.70876 0
M  V30 9979 O 1320.31 -0.678137 -6.08433 0
M  V30 9980 C 1318.17 -1.17436 -7.18567 0
M  V30 9981 H 1318.21 -0.0804732 -7.31656 0
M  V30 9982 H 1319.39 -2.54037 -6.02537 0
M  V30 9983 H 1320.87 -2.93881 -7.85526 0
M  V30 9984 H 1319.18 -2.53065 -9.86973 0
M  V30 9985 H 1318.99 -4.75072 -9.05887 0
M  V30 9986 H 1317.36 -4.05244 -8.76668 0
M  V30 9987 H 1320 0.177647 -6.34251 0
M  V30 9988 P 1321.86 -1.25109 -8.70152 0
M  V30 9989 O 1323.28 -1.29744 -9.22016 0
M  V30 9990 O 1321.5 -2.13714 -7.55141 0
M  V30 9991 O 1321.53 0.248149 -8.21425 0
M  V30 9992 C 1321.37 1.22779 -9.30434 0
M  V30 9993 C 1321.91 2.56293 -8.80664 0
M  V30 9994 O 1320.86 3.02979 -8.09349 0
M  V30 9995 C 1323.13 2.57523 -7.89775 0
M  V30 9996 O 1323.87 3.7668 -7.89438 0
M  V30 9997 C 1322.46 2.20997 -6.55446 0
M  V30 9998 O 1323.26 2.71895 -5.48509 0
M  V30 9999 C 1321.12 2.89693 -6.67988 0
M  V30 10000 H 1321.16 3.88793 -6.19859 0
M  V30 10001 H 1322.34 1.12046 -6.44229 0
M  V30 10002 H 1323.82 1.7746 -8.19711 0
M  V30 10003 H 1322.13 3.20706 -9.67112 0
M  V30 10004 H 1321.94 0.901032 -10.1892 0
M  V30 10005 H 1320.31 1.33049 -9.56592 0
M  V30 10006 H 1322.95 3.57847 -5.23962 0
M  V30 10007 P 1324.81 3.65191 -7.99657 0
M  V30 10008 O 1326.23 3.89332 -8.45794 0
M  V30 10009 O 1324.45 2.28472 -7.50807 0
M  V30 10010 O 1324.48 4.64972 -6.77611 0
M  V30 10011 C 1324.32 6.06319 -7.16352 0
M  V30 10012 C 1324.86 6.91731 -6.02299 0
M  V30 10013 O 1323.81 6.92449 -5.17064 0
M  V30 10014 C 1326.08 6.43627 -5.25174 0
M  V30 10015 O 1326.82 7.43686 -4.60469 0
M  V30 10016 C 1325.41 5.40275 -4.31916 0
M  V30 10017 O 1326.21 5.25279 -3.14438 0
M  V30 10018 C 1324.07 6.04847 -4.05327 0
M  V30 10019 H 1324.11 6.62195 -3.11261 0
M  V30 10020 H 1325.29 4.42556 -4.81383 0
M  V30 10021 H 1326.77 5.92458 -5.93643 0
M  V30 10022 H 1325.08 7.92655 -6.402 0
M  V30 10023 H 1324.89 6.26671 -8.0846 0
M  V30 10024 H 1323.26 6.29101 -7.32804 0
M  V30 10025 H 1325.9 5.84315 -2.47318 0
M  V30 10026 P 1327.76 7.39546 -4.75277 0
M  V30 10027 O 1329.18 7.84798 -5.01039 0
M  V30 10028 O 1327.4 5.9812 -5.08098 0
M  V30 10029 O 1327.43 7.57503 -3.1866 0
M  V30 10030 C 1327.27 8.97357 -2.74833 0
M  V30 10031 C 1327.81 9.07548 -1.32709 0
M  V30 10032 O 1326.76 8.62072 -0.606159 0
M  V30 10033 C 1329.03 8.25383 -0.938334 0
M  V30 10034 O 1329.77 8.74577 0.146954 0
M  V30 10035 C 1328.36 6.8802 -0.712559 0
M  V30 10036 O 1329.16 6.1189 0.194655 0
M  V30 10037 C 1327.03 7.27966 -0.139777 0
M  V30 10038 H 1327.06 7.25354 0.961601 0
M  V30 10039 H 1328.24 6.32557 -1.65702 0
M  V30 10040 H 1329.72 8.19355 -1.79097 0
M  V30 10041 H 1328.03 10.1294 -1.10029 0
M  V30 10042 H 1327.84 9.64276 -3.41316 0
M  V30 10043 H 1326.21 9.25417 -2.76357 0
M  V30 10044 H 1328.85 6.25267 1.07847 0
M  V30 10045 P 1330.71 8.791 1.0718e-11 0
M  V30 10046 O 1332.13 9.31096 0.027933 0
M  V30 10047 O 1330.35 7.77869 -1.04071 0
M  V30 10048 O 1330.38 8.09533 1.41463 0
M  V30 10049 C 1330.22 9.0349 2.53943 0
M  V30 10050 C 1330.76 8.35226 3.79016 0
M  V30 10051 O 1329.71 7.57992 4.15078 0
M  V30 10052 C 1331.98 7.45087 3.67298 0
M  V30 10053 O 1332.72 7.27796 4.85194 0
M  V30 10054 C 1331.31 6.17323 3.12027 0
M  V30 10055 O 1332.11 5.04231 3.47188 0
M  V30 10056 C 1329.98 6.19961 3.81809 0
M  V30 10057 H 1330.01 5.58218 4.73051 0
M  V30 10058 H 1331.19 6.21726 2.02589 0
M  V30 10059 H 1332.68 7.86112 2.9231 0
M  V30 10060 H 1330.98 9.11627 4.55076 0
M  V30 10061 H 1330.79 9.9573 2.34194 0
M  V30 10062 H 1329.16 9.2792 2.67832 0
M  V30 10063 H 1331.8 4.67702 4.28772 0
M  V30 10064 P 1333.66 7.39546 4.75277 0
M  V30 10065 O 1335.08 7.81777 5.05738 0
M  V30 10066 O 1333.3 7.1065 3.32998 0
M  V30 10067 O 1333.33 6.04542 5.56673 0
M  V30 10068 C 1333.17 6.22772 7.02095 0
M  V30 10069 C 1333.71 4.97725 7.70406 0
M  V30 10070 O 1332.66 4.13256 7.58987 0
M  V30 10071 C 1334.93 4.28231 7.11815 0
M  V30 10072 O 1335.67 3.49945 8.01648 0
M  V30 10073 C 1334.26 3.5063 5.96244 0
M  V30 10074 O 1335.06 2.36482 5.64681 0
M  V30 10075 C 1332.93 3.15122 6.56374 0
M  V30 10076 H 1332.96 2.13853 6.99751 0
M  V30 10077 H 1334.14 4.13501 5.06559 0
M  V30 10078 H 1335.63 5.03285 6.70911 0
M  V30 10079 H 1333.93 5.20877 8.75697 0
M  V30 10080 H 1333.74 7.11046 7.35349 0
M  V30 10081 H 1332.11 6.35815 7.26986 0
M  V30 10082 H 1334.75 1.61644 6.13565 0
M  V30 10083 P 1336.61 3.65191 7.99657 0
M  V30 10084 O 1338.03 3.8425 8.48115 0
M  V30 10085 O 1336.25 4.17805 6.64342 0
M  V30 10086 O 1336.29 2.07613 7.95143 0
M  V30 10087 C 1336.13 1.44328 9.27336 0
M  V30 10088 C 1336.67 0.0220036 9.17197 0
M  V30 10089 O 1335.61 -0.626867 8.61923 0
M  V30 10090 C 1337.88 -0.24586 8.30336 0
M  V30 10091 O 1338.62 -1.39011 8.63583 0
M  V30 10092 C 1337.21 -0.273849 6.91158 0
M  V30 10093 O 1338.01 -1.06348 6.02892 0
M  V30 10094 C 1335.88 -0.897649 7.22545 0
M  V30 10095 H 1335.91 -1.9841 7.04286 0
M  V30 10096 H 1337.09 0.739928 6.497 0
M  V30 10097 H 1338.58 0.60668 8.36503 0
M  V30 10098 H 1336.88 -0.352479 10.1829 0
M  V30 10099 H 1336.69 2.00611 10.0304 0
M  V30 10100 H 1335.06 1.41843 9.55327 0
M  V30 10101 H 1337.7 -1.95734 6.03555 0
M  V30 10102 P 1339.56 -1.25109 8.70152 0
M  V30 10103 O 1340.98 -1.35274 9.21221 0
M  V30 10104 O 1339.2 -0.0769065 7.84762 0
M  V30 10105 O 1339.24 -2.55232 7.81161 0
M  V30 10106 C 1339.08 -3.79939 8.58154 0
M  V30 10107 C 1339.62 -4.94023 7.72785 0
M  V30 10108 O 1338.56 -5.18726 6.91205 0
M  V30 10109 C 1340.83 -4.69597 6.85231 0
M  V30 10110 O 1341.57 -5.83832 6.51337 0
M  V30 10111 C 1340.16 -3.96706 5.66633 0
M  V30 10112 O 1340.96 -4.15414 4.49689 0
M  V30 10113 C 1338.83 -4.66153 5.59313 0
M  V30 10114 H 1338.86 -5.47679 4.85214 0
M  V30 10115 H 1340.04 -2.89008 5.86566 0
M  V30 10116 H 1341.53 -4.0121 7.36511 0
M  V30 10117 H 1339.83 -5.80182 8.37584 0
M  V30 10118 H 1339.64 -3.73517 9.52265 0
M  V30 10119 H 1338.01 -3.97163 8.80359 0
M  V30 10120 H 1340.65 -4.90969 4.01921 0
M  V30 10121 P 1342.51 -5.75688 6.64379 0
M  V30 10122 O 1343.93 -6.11849 7.01846 0
M  V30 10123 O 1342.15 -4.30744 6.56026 0
M  V30 10124 O 1342.19 -6.37042 5.19165 0
M  V30 10125 C 1342.03 -7.83578 5.16515 0
M  V30 10126 C 1342.57 -8.33398 3.83019 0
M  V30 10127 O 1341.51 -8.10074 3.01034 0
M  V30 10128 C 1343.78 -7.65514 3.2257 0
M  V30 10129 O 1344.52 -8.4329 2.32297 0
M  V30 10130 C 1343.12 -6.40075 2.62207 0
M  V30 10131 O 1343.91 -5.92589 1.53712 0
M  V30 10132 C 1341.78 -6.9454 2.18503 0
M  V30 10133 H 1341.81 -7.23063 1.12091 0
M  V30 10134 H 1342.99 -5.6025 3.37201 0
M  V30 10135 H 1344.48 -7.35707 4.02681 0
M  V30 10136 H 1342.78 -9.40912 3.9095 0
M  V30 10137 H 1342.59 -8.29056 5.99158 0
M  V30 10138 H 1340.96 -8.10073 5.25882 0
M  V30 10139 H 1343.6 -6.30324 0.726794 0
M  V30 10140 P 1345.46 -8.4349 2.47671 0
M  V30 10141 O 1346.88 -8.94167 2.5964 0
M  V30 10142 O 1345.1 -7.1704 3.19006 0
M  V30 10143 O 1345.14 -8.16596 0.923387 0
M  V30 10144 C 1344.98 -9.38437 0.108857 0
M  V30 10145 C 1345.52 -9.08175 -1.28353 0
M  V30 10146 O 1344.46 -8.44229 -1.84713 0
M  V30 10147 C 1346.73 -8.18386 -1.42505 0
M  V30 10148 O 1347.47 -8.3501 -2.60497 0
M  V30 10149 C 1346.07 -6.80225 -1.25468 0
M  V30 10150 O 1346.86 -5.81621 -1.91066 0
M  V30 10151 C 1344.73 -7.02416 -1.9168 0
M  V30 10152 H 1344.76 -6.6888 -2.96621 0
M  V30 10153 H 1345.94 -6.53617 -0.192223 0
M  V30 10154 H 1347.43 -8.36622 -0.589963 0
M  V30 10155 H 1345.73 -10.0291 -1.79807 0
M  V30 10156 H 1345.54 -10.2138 0.558219 0
M  V30 10157 H 1343.91 -9.6579 0.0444202 0
M  V30 10158 H 1346.55 -5.69556 -2.79637 0
M  V30 10159 P 1348.41 -8.4349 -2.47671 0
M  V30 10160 O 1349.83 -8.92593 -2.65 0
M  V30 10161 O 1348.05 -7.7568 -1.19296 0
M  V30 10162 O 1348.09 -7.36886 -3.63805 0
M  V30 10163 C 1347.93 -7.95349 -4.982 0
M  V30 10164 C 1348.47 -6.94612 -5.98974 0
M  V30 10165 O 1347.41 -6.10347 -6.11815 0
M  V30 10166 C 1349.69 -6.11426 -5.62335 0
M  V30 10167 O 1350.42 -5.6162 -6.70584 0
M  V30 10168 C 1349.02 -5.04409 -4.73308 0
M  V30 10169 O 1349.82 -3.85992 -4.75183 0
M  V30 10170 C 1347.68 -4.8728 -5.41006 0
M  V30 10171 H 1347.71 -4.02333 -6.11157 0
M  V30 10172 H 1348.89 -5.39466 -3.69543 0
M  V30 10173 H 1350.38 -6.71916 -5.01943 0
M  V30 10174 H 1348.68 -7.4649 -6.93477 0
M  V30 10175 H 1348.49 -8.89416 -5.05237 0
M  V30 10176 H 1346.86 -8.14876 -5.18409 0
M  V30 10177 H 1349.5 -3.27957 -5.4317 0
M  V30 10178 P 1351.36 -5.75688 -6.64379 0
M  V30 10179 O 1352.78 -6.07627 -7.05504 0
M  V30 10180 O 1351 -5.88047 -5.19722 0
M  V30 10181 O 1351.04 -4.2322 -7.04443 0
M  V30 10182 C 1350.88 -3.99743 -8.4911 0
M  V30 10183 C 1351.42 -2.60516 -8.79425 0
M  V30 10184 O 1350.36 -1.82684 -8.4467 0
M  V30 10185 C 1352.64 -2.10343 -8.03628 0
M  V30 10186 O 1353.37 -1.09919 -8.67766 0
M  V30 10187 C 1351.97 -1.68446 -6.70876 0
M  V30 10188 O 1352.77 -0.678137 -6.08433 0
M  V30 10189 C 1350.63 -1.17436 -7.18567 0
M  V30 10190 H 1350.66 -0.0804732 -7.31656 0
M  V30 10191 H 1351.85 -2.54037 -6.02537 0
M  V30 10192 H 1353.33 -2.93881 -7.85526 0
M  V30 10193 H 1351.64 -2.53065 -9.86973 0
M  V30 10194 H 1351.45 -4.75072 -9.05887 0
M  V30 10195 H 1349.82 -4.05244 -8.76668 0
M  V30 10196 H 1352.45 0.177647 -6.34251 0
M  V30 10197 P 1354.31 -1.25109 -8.70152 0
M  V30 10198 O 1355.73 -1.29744 -9.22016 0
M  V30 10199 O 1353.95 -2.13714 -7.55141 0
M  V30 10200 O 1353.99 0.248149 -8.21425 0
M  V30 10201 C 1353.83 1.22779 -9.30434 0
M  V30 10202 C 1354.37 2.56293 -8.80664 0
M  V30 10203 O 1353.31 3.02979 -8.09349 0
M  V30 10204 C 1355.59 2.57523 -7.89775 0
M  V30 10205 O 1356.32 3.7668 -7.89438 0
M  V30 10206 C 1354.92 2.20997 -6.55446 0
M  V30 10207 O 1355.72 2.71895 -5.48509 0
M  V30 10208 C 1353.58 2.89693 -6.67988 0
M  V30 10209 H 1353.61 3.88793 -6.19859 0
M  V30 10210 H 1354.8 1.12046 -6.44229 0
M  V30 10211 H 1356.28 1.7746 -8.19711 0
M  V30 10212 H 1354.59 3.20706 -9.67112 0
M  V30 10213 H 1354.4 0.901032 -10.1892 0
M  V30 10214 H 1352.77 1.33049 -9.56592 0
M  V30 10215 H 1355.4 3.57847 -5.23962 0
M  V30 10216 P 1357.26 3.65191 -7.99657 0
M  V30 10217 O 1358.68 3.89374 -8.45885 0
M  V30 10218 O 1356.9 2.28472 -7.50807 0
M  V30 10219 O 1356.94 4.64972 -6.77611 0
M  V30 10220 C 1356.78 6.06383 -7.16428 0
M  V30 10221 C 1357.32 6.91731 -6.02299 0
M  V30 10222 O 1356.26 6.92369 -5.17005 0
M  V30 10223 C 1358.54 6.43627 -5.25174 0
M  V30 10224 O 1359.28 7.43686 -4.60469 0
M  V30 10225 C 1357.87 5.40275 -4.31916 0
M  V30 10226 O 1358.67 5.24878 -3.14911 0
M  V30 10227 C 1356.53 6.04847 -4.05327 0
M  V30 10228 N 1355.49 5.04166 -3.98114 0
M  V30 10229 C 1355.66 3.84629 -4.59066 0
M  V30 10230 N 1354.63 3.0363 -4.45343 0
M  V30 10231 C 1353.75 3.76722 -3.68523 0
M  V30 10232 C 1352.48 3.43528 -3.17088 0
M  V30 10233 N 1351.91 4.44526 -2.44231 0
M  V30 10234 C 1352.52 5.65243 -2.20146 0
M  V30 10235 N 1353.69 6.00221 -2.65453 0
M  V30 10236 C 1354.27 5.00564 -3.39083 0
M  V30 10237 H 1357.75 4.42969 -4.80867 0
M  V30 10238 H 1359.23 5.92458 -5.93643 0
M  V30 10239 H 1357.54 7.93295 -6.39407 0
M  V30 10240 H 1357.35 6.26671 -8.0846 0
M  V30 10241 H 1355.72 6.29101 -7.32804 0
M  V30 10242 H 1356.56 3.58193 -5.14248 0
M  V30 10243 H 1358.36 5.84223 -2.47279 0
M  V30 10244 P 1360.21 7.39546 -4.75277 0
M  V30 10245 O 1361.63 7.84798 -5.01039 0
M  V30 10246 O 1359.85 5.9812 -5.08098 0
M  V30 10247 O 1359.89 7.57503 -3.1866 0
M  V30 10248 C 1359.73 8.97357 -2.74833 0
M  V30 10249 C 1360.27 9.07548 -1.32709 0
M  V30 10250 O 1359.21 8.62072 -0.606159 0
M  V30 10251 C 1361.49 8.25383 -0.938334 0
M  V30 10252 O 1362.23 8.74577 0.146954 0
M  V30 10253 C 1360.82 6.8802 -0.712559 0
M  V30 10254 O 1361.62 6.1189 0.194655 0
M  V30 10255 C 1359.48 7.27966 -0.139777 0
M  V30 10256 H 1359.51 7.25354 0.961601 0
M  V30 10257 H 1360.7 6.32557 -1.65702 0
M  V30 10258 H 1362.18 8.19355 -1.79097 0
M  V30 10259 H 1360.49 10.1294 -1.10029 0
M  V30 10260 H 1360.3 9.64276 -3.41316 0
M  V30 10261 H 1358.67 9.25417 -2.76357 0
M  V30 10262 H 1361.31 6.25267 1.07847 0
M  V30 10263 P 1363.16 8.791 1.10281e-11 0
M  V30 10264 O 1364.58 9.31196 0.027936 0
M  V30 10265 O 1362.8 7.77869 -1.04071 0
M  V30 10266 O 1362.84 8.09533 1.41463 0
M  V30 10267 C 1362.68 9.03587 2.5397 0
M  V30 10268 C 1363.22 8.35226 3.79016 0
M  V30 10269 O 1362.17 7.57904 4.1503 0
M  V30 10270 C 1364.44 7.45087 3.67298 0
M  V30 10271 O 1365.18 7.27796 4.85194 0
M  V30 10272 C 1363.77 6.17323 3.12027 0
M  V30 10273 O 1364.57 5.04496 3.46627 0
M  V30 10274 C 1362.43 6.19961 3.81809 0
M  V30 10275 N 1361.39 5.71575 2.93223 0
M  V30 10276 C 1361.56 5.77362 1.59168 0
M  V30 10277 N 1360.53 5.3123 0.911893 0
M  V30 10278 C 1359.65 4.91717 1.89588 0
M  V30 10279 C 1358.38 4.3114 1.8076 0
M  V30 10280 N 1357.78 3.99821 0.632928 0
M  V30 10281 N 1357.81 4.06823 3.02898 0
M  V30 10282 C 1358.42 4.35062 4.22711 0
M  V30 10283 N 1359.59 4.90805 4.35707 0
M  V30 10284 C 1360.17 5.16382 3.14469 0
M  V30 10285 H 1362.46 5.58142 4.72986 0
M  V30 10286 H 1363.65 6.21428 2.0318 0
M  V30 10287 H 1365.13 7.86112 2.9231 0
M  V30 10288 H 1363.44 9.11171 4.55987 0
M  V30 10289 H 1363.25 9.9573 2.34194 0
M  V30 10290 H 1361.62 9.2792 2.67832 0
M  V30 10291 H 1357.88 4.09052 5.13359 0
M  V30 10292 H 1362.46 6.16575 1.12198 0
M  V30 10293 H 1356.85 3.55423 0.632085 0
M  V30 10294 H 1358.25 4.20317 -0.256712 0
M  V30 10295 H 1364.26 4.67628 4.28704 0
M  V30 10296 P 1366.11 7.39546 4.75277 0
M  V30 10297 O 1367.54 7.81777 5.05738 0
M  V30 10298 O 1365.75 7.1065 3.32998 0
M  V30 10299 O 1365.79 6.04542 5.56673 0
M  V30 10300 C 1365.63 6.22772 7.02095 0
M  V30 10301 C 1366.17 4.97725 7.70406 0
M  V30 10302 O 1365.11 4.13256 7.58987 0
M  V30 10303 C 1367.39 4.28231 7.11815 0
M  V30 10304 O 1368.13 3.49945 8.01648 0
M  V30 10305 C 1366.72 3.5063 5.96244 0
M  V30 10306 O 1367.52 2.36482 5.64681 0
M  V30 10307 C 1365.38 3.15122 6.56374 0
M  V30 10308 H 1365.41 2.13853 6.99751 0
M  V30 10309 H 1366.6 4.13501 5.06559 0
M  V30 10310 H 1368.08 5.03285 6.70911 0
M  V30 10311 H 1366.39 5.20877 8.75697 0
M  V30 10312 H 1366.2 7.11046 7.35349 0
M  V30 10313 H 1364.57 6.35815 7.26986 0
M  V30 10314 H 1367.21 1.61644 6.13565 0
M  V30 10315 P 1369.06 3.65191 7.99657 0
M  V30 10316 O 1370.49 3.8425 8.48115 0
M  V30 10317 O 1368.7 4.17805 6.64342 0
M  V30 10318 O 1368.74 2.07613 7.95143 0
M  V30 10319 C 1368.58 1.44328 9.27336 0
M  V30 10320 C 1369.12 0.0220036 9.17197 0
M  V30 10321 O 1368.07 -0.626867 8.61923 0
M  V30 10322 C 1370.34 -0.24586 8.30336 0
M  V30 10323 O 1371.08 -1.39011 8.63583 0
M  V30 10324 C 1369.67 -0.273849 6.91158 0
M  V30 10325 O 1370.47 -1.06348 6.02892 0
M  V30 10326 C 1368.33 -0.897649 7.22545 0
M  V30 10327 H 1368.37 -1.9841 7.04286 0
M  V30 10328 H 1369.55 0.739928 6.497 0
M  V30 10329 H 1371.03 0.60668 8.36503 0
M  V30 10330 H 1369.34 -0.352479 10.1829 0
M  V30 10331 H 1369.15 2.00611 10.0304 0
M  V30 10332 H 1367.52 1.41843 9.55327 0
M  V30 10333 H 1370.16 -1.95734 6.03555 0
M  V30 10334 P 1372.02 -1.25109 8.70152 0
M  V30 10335 O 1373.44 -1.35288 9.2132 0
M  V30 10336 O 1371.66 -0.0769065 7.84762 0
M  V30 10337 O 1371.69 -2.55232 7.81161 0
M  V30 10338 C 1371.53 -3.79979 8.58246 0
M  V30 10339 C 1372.07 -4.94023 7.72785 0
M  V30 10340 O 1371.02 -5.18666 6.91125 0
M  V30 10341 C 1373.29 -4.69597 6.85231 0
M  V30 10342 O 1374.03 -5.83832 6.51337 0
M  V30 10343 C 1372.62 -3.96706 5.66633 0
M  V30 10344 O 1373.42 -4.14896 4.5003 0
M  V30 10345 C 1371.28 -4.66153 5.59313 0
M  V30 10346 N 1370.24 -3.71582 5.24027 0
M  V30 10347 C 1370.41 -2.39715 5.48833 0
M  V30 10348 N 1369.38 -1.65863 5.12845 0
M  V30 10349 C 1368.5 -2.57637 4.5973 0
M  V30 10350 C 1367.23 -2.40278 4.01027 0
M  V30 10351 N 1366.63 -1.19549 3.86744 0
M  V30 10352 N 1366.67 -3.57711 3.59575 0
M  V30 10353 C 1367.27 -4.80324 3.70476 0
M  V30 10354 N 1368.45 -5.01121 4.23801 0
M  V30 10355 C 1369.02 -3.84757 4.66372 0
M  V30 10356 H 1371.32 -5.47604 4.85148 0
M  V30 10357 H 1372.5 -2.8955 5.86187 0
M  V30 10358 H 1373.98 -4.0121 7.36511 0
M  V30 10359 H 1372.29 -5.81019 8.37003 0
M  V30 10360 H 1372.1 -3.73517 9.52265 0
M  V30 10361 H 1370.47 -3.97163 8.80359 0
M  V30 10362 H 1366.73 -5.66348 3.3183 0
M  V30 10363 H 1371.31 -1.98804 5.94332 0
M  V30 10364 H 1365.7 -1.13147 3.4281 0
M  V30 10365 H 1367.11 -0.344074 4.19692 0
M  V30 10366 H 1373.11 -4.90891 4.01857 0
M  V30 10367 P 1374.97 -5.75688 6.64379 0
M  V30 10368 O 1376.39 -6.11849 7.01846 0
M  V30 10369 O 1374.61 -4.30744 6.56026 0
M  V30 10370 O 1374.64 -6.37042 5.19165 0
M  V30 10371 C 1374.48 -7.83578 5.16515 0
M  V30 10372 C 1375.02 -8.33398 3.83019 0
M  V30 10373 O 1373.97 -8.10074 3.01034 0
M  V30 10374 C 1376.24 -7.65514 3.2257 0
M  V30 10375 O 1376.98 -8.4329 2.32297 0
M  V30 10376 C 1375.57 -6.40075 2.62207 0
M  V30 10377 O 1376.37 -5.92589 1.53712 0
M  V30 10378 C 1374.23 -6.9454 2.18503 0
M  V30 10379 H 1374.27 -7.23063 1.12091 0
M  V30 10380 H 1375.45 -5.6025 3.37201 0
M  V30 10381 H 1376.93 -7.35707 4.02681 0
M  V30 10382 H 1375.24 -9.40912 3.9095 0
M  V30 10383 H 1375.05 -8.29056 5.99158 0
M  V30 10384 H 1373.42 -8.10073 5.25882 0
M  V30 10385 H 1376.06 -6.30324 0.726794 0
M  V30 10386 P 1377.92 -8.4349 2.47671 0
M  V30 10387 O 1379.34 -8.94167 2.5964 0
M  V30 10388 O 1377.56 -7.1704 3.19006 0
M  V30 10389 O 1377.59 -8.16596 0.923387 0
M  V30 10390 C 1377.43 -9.38437 0.108857 0
M  V30 10391 C 1377.97 -9.08175 -1.28353 0
M  V30 10392 O 1376.92 -8.44229 -1.84713 0
M  V30 10393 C 1379.19 -8.18386 -1.42505 0
M  V30 10394 O 1379.93 -8.3501 -2.60497 0
M  V30 10395 C 1378.52 -6.80225 -1.25468 0
M  V30 10396 O 1379.32 -5.81621 -1.91066 0
M  V30 10397 C 1377.19 -7.02416 -1.9168 0
M  V30 10398 H 1377.22 -6.6888 -2.96621 0
M  V30 10399 H 1378.4 -6.53617 -0.192223 0
M  V30 10400 H 1379.88 -8.36622 -0.589963 0
M  V30 10401 H 1378.19 -10.0291 -1.79807 0
M  V30 10402 H 1378 -10.2138 0.558219 0
M  V30 10403 H 1376.37 -9.6579 0.0444202 0
M  V30 10404 H 1379.01 -5.69556 -2.79637 0
M  V30 10405 P 1380.87 -8.4349 -2.47671 0
M  V30 10406 O 1382.29 -8.92593 -2.65 0
M  V30 10407 O 1380.51 -7.7568 -1.19296 0
M  V30 10408 O 1380.54 -7.36886 -3.63805 0
M  V30 10409 C 1380.38 -7.95349 -4.982 0
M  V30 10410 C 1380.92 -6.94612 -5.98974 0
M  V30 10411 O 1379.87 -6.10347 -6.11815 0
M  V30 10412 C 1382.14 -6.11426 -5.62335 0
M  V30 10413 O 1382.88 -5.6162 -6.70584 0
M  V30 10414 C 1381.47 -5.04409 -4.73308 0
M  V30 10415 O 1382.27 -3.85992 -4.75183 0
M  V30 10416 C 1380.14 -4.8728 -5.41006 0
M  V30 10417 H 1380.17 -4.02333 -6.11157 0
M  V30 10418 H 1381.35 -5.39466 -3.69543 0
M  V30 10419 H 1382.83 -6.71916 -5.01943 0
M  V30 10420 H 1381.14 -7.4649 -6.93477 0
M  V30 10421 H 1380.95 -8.89416 -5.05237 0
M  V30 10422 H 1379.32 -8.14876 -5.18409 0
M  V30 10423 H 1381.96 -3.27957 -5.4317 0
M  V30 10424 P 1383.82 -5.75688 -6.64379 0
M  V30 10425 O 1385.24 -6.07627 -7.05504 0
M  V30 10426 O 1383.46 -5.88047 -5.19722 0
M  V30 10427 O 1383.49 -4.2322 -7.04443 0
M  V30 10428 C 1383.33 -3.99743 -8.4911 0
M  V30 10429 C 1383.87 -2.60516 -8.79425 0
M  V30 10430 O 1382.82 -1.82684 -8.4467 0
M  V30 10431 C 1385.09 -2.10343 -8.03628 0
M  V30 10432 O 1385.83 -1.09919 -8.67766 0
M  V30 10433 C 1384.42 -1.68446 -6.70876 0
M  V30 10434 O 1385.22 -0.678137 -6.08433 0
M  V30 10435 C 1383.09 -1.17436 -7.18567 0
M  V30 10436 H 1383.12 -0.0804732 -7.31656 0
M  V30 10437 H 1384.3 -2.54037 -6.02537 0
M  V30 10438 H 1385.79 -2.93881 -7.85526 0
M  V30 10439 H 1384.09 -2.53065 -9.86973 0
M  V30 10440 H 1383.9 -4.75072 -9.05887 0
M  V30 10441 H 1382.27 -4.05244 -8.76668 0
M  V30 10442 H 1384.91 0.177647 -6.34251 0
M  V30 10443 P 1386.77 -1.25109 -8.70152 0
M  V30 10444 O 1388.19 -1.29744 -9.22016 0
M  V30 10445 O 1386.41 -2.13714 -7.55141 0
M  V30 10446 O 1386.44 0.248149 -8.21425 0
M  V30 10447 C 1386.28 1.22779 -9.30434 0
M  V30 10448 C 1386.82 2.56293 -8.80664 0
M  V30 10449 O 1385.77 3.02979 -8.09349 0
M  V30 10450 C 1388.04 2.57523 -7.89775 0
M  V30 10451 O 1388.78 3.7668 -7.89438 0
M  V30 10452 C 1387.37 2.20997 -6.55446 0
M  V30 10453 O 1388.17 2.71895 -5.48509 0
M  V30 10454 C 1386.04 2.89693 -6.67988 0
M  V30 10455 H 1386.07 3.88793 -6.19859 0
M  V30 10456 H 1387.25 1.12046 -6.44229 0
M  V30 10457 H 1388.74 1.7746 -8.19711 0
M  V30 10458 H 1387.04 3.20706 -9.67112 0
M  V30 10459 H 1386.85 0.901032 -10.1892 0
M  V30 10460 H 1385.22 1.33049 -9.56592 0
M  V30 10461 H 1387.86 3.57847 -5.23962 0
M  V30 10462 P 1389.72 3.65191 -7.99657 0
M  V30 10463 O 1391.14 3.89332 -8.45794 0
M  V30 10464 O 1389.36 2.28472 -7.50807 0
M  V30 10465 O 1389.4 4.64972 -6.77611 0
M  V30 10466 C 1389.24 6.06319 -7.16352 0
M  V30 10467 C 1389.78 6.91731 -6.02299 0
M  V30 10468 O 1388.72 6.92449 -5.17064 0
M  V30 10469 C 1390.99 6.43627 -5.25174 0
M  V30 10470 O 1391.73 7.43686 -4.60469 0
M  V30 10471 C 1390.32 5.40275 -4.31916 0
M  V30 10472 O 1391.12 5.25279 -3.14438 0
M  V30 10473 C 1388.99 6.04847 -4.05327 0
M  V30 10474 H 1389.02 6.62195 -3.11261 0
M  V30 10475 H 1390.2 4.42556 -4.81383 0
M  V30 10476 H 1391.69 5.92458 -5.93643 0
M  V30 10477 H 1389.99 7.92655 -6.402 0
M  V30 10478 H 1389.8 6.26671 -8.0846 0
M  V30 10479 H 1388.17 6.29101 -7.32804 0
M  V30 10480 H 1390.81 5.84315 -2.47318 0
M  V30 10481 P 1392.67 7.39546 -4.75277 0
M  V30 10482 O 1394.09 7.84798 -5.01039 0
M  V30 10483 O 1392.31 5.9812 -5.08098 0
M  V30 10484 O 1392.35 7.57503 -3.1866 0
M  V30 10485 C 1392.19 8.97357 -2.74833 0
M  V30 10486 C 1392.73 9.07548 -1.32709 0
M  V30 10487 O 1391.67 8.62072 -0.606159 0
M  V30 10488 C 1393.94 8.25383 -0.938334 0
M  V30 10489 O 1394.68 8.74577 0.146954 0
M  V30 10490 C 1393.28 6.8802 -0.712559 0
M  V30 10491 O 1394.07 6.1189 0.194655 0
M  V30 10492 C 1391.94 7.27966 -0.139777 0
M  V30 10493 H 1391.97 7.25354 0.961601 0
M  V30 10494 H 1393.15 6.32557 -1.65702 0
M  V30 10495 H 1394.64 8.19355 -1.79097 0
M  V30 10496 H 1392.94 10.1294 -1.10029 0
M  V30 10497 H 1392.75 9.64276 -3.41316 0
M  V30 10498 H 1391.12 9.25417 -2.76357 0
M  V30 10499 H 1393.76 6.25267 1.07847 0
M  V30 10500 P 1395.62 8.791 1.13383e-11 0
M  V30 10501 O 1397.04 9.31096 0.027933 0
M  V30 10502 O 1395.26 7.77869 -1.04071 0
M  V30 10503 O 1395.3 8.09533 1.41463 0
M  V30 10504 C 1395.14 9.0349 2.53943 0
M  V30 10505 C 1395.68 8.35226 3.79016 0
M  V30 10506 O 1394.62 7.57992 4.15078 0
M  V30 10507 C 1396.89 7.45087 3.67298 0
M  V30 10508 O 1397.63 7.27796 4.85194 0
M  V30 10509 C 1396.23 6.17323 3.12027 0
M  V30 10510 O 1397.02 5.04231 3.47188 0
M  V30 10511 C 1394.89 6.19961 3.81809 0
M  V30 10512 H 1394.92 5.58218 4.73051 0
M  V30 10513 H 1396.1 6.21726 2.02589 0
M  V30 10514 H 1397.59 7.86112 2.9231 0
M  V30 10515 H 1395.89 9.11627 4.55076 0
M  V30 10516 H 1395.7 9.9573 2.34194 0
M  V30 10517 H 1394.07 9.2792 2.67832 0
M  V30 10518 H 1396.71 4.67702 4.28772 0
M  V30 10519 P 1398.57 7.39546 4.75277 0
M  V30 10520 O 1399.99 7.81777 5.05738 0
M  V30 10521 O 1398.21 7.1065 3.32998 0
M  V30 10522 O 1398.25 6.04542 5.56673 0
M  V30 10523 C 1398.09 6.22772 7.02095 0
M  V30 10524 C 1398.63 4.97725 7.70406 0
M  V30 10525 O 1397.57 4.13256 7.58987 0
M  V30 10526 C 1399.85 4.28231 7.11815 0
M  V30 10527 O 1400.58 3.49945 8.01648 0
M  V30 10528 C 1399.18 3.5063 5.96244 0
M  V30 10529 O 1399.98 2.36482 5.64681 0
M  V30 10530 C 1397.84 3.15122 6.56374 0
M  V30 10531 H 1397.87 2.13853 6.99751 0
M  V30 10532 H 1399.05 4.13501 5.06559 0
M  V30 10533 H 1400.54 5.03285 6.70911 0
M  V30 10534 H 1398.84 5.20877 8.75697 0
M  V30 10535 H 1398.65 7.11046 7.35349 0
M  V30 10536 H 1397.02 6.35815 7.26986 0
M  V30 10537 H 1399.66 1.61644 6.13565 0
M  V30 10538 P 1401.52 3.65191 7.99657 0
M  V30 10539 O 1402.94 3.8425 8.48115 0
M  V30 10540 O 1401.16 4.17805 6.64342 0
M  V30 10541 O 1401.2 2.07613 7.95143 0
M  V30 10542 C 1401.04 1.44328 9.27336 0
M  V30 10543 C 1401.58 0.0220036 9.17197 0
M  V30 10544 O 1400.52 -0.626867 8.61923 0
M  V30 10545 C 1402.8 -0.24586 8.30336 0
M  V30 10546 O 1403.53 -1.39011 8.63583 0
M  V30 10547 C 1402.13 -0.273849 6.91158 0
M  V30 10548 O 1402.93 -1.06348 6.02892 0
M  V30 10549 C 1400.79 -0.897649 7.22545 0
M  V30 10550 H 1400.82 -1.9841 7.04286 0
M  V30 10551 H 1402 0.739928 6.497 0
M  V30 10552 H 1403.49 0.60668 8.36503 0
M  V30 10553 H 1401.79 -0.352479 10.1829 0
M  V30 10554 H 1401.6 2.00611 10.0304 0
M  V30 10555 H 1399.97 1.41843 9.55327 0
M  V30 10556 H 1402.61 -1.95734 6.03555 0
M  V30 10557 P 1404.47 -1.25109 8.70152 0
M  V30 10558 O 1405.89 -1.35274 9.21221 0
M  V30 10559 O 1404.11 -0.0769065 7.84762 0
M  V30 10560 O 1404.15 -2.55232 7.81161 0
M  V30 10561 C 1403.99 -3.79939 8.58154 0
M  V30 10562 C 1404.53 -4.94023 7.72785 0
M  V30 10563 O 1403.47 -5.18726 6.91205 0
M  V30 10564 C 1405.75 -4.69597 6.85231 0
M  V30 10565 O 1406.48 -5.83832 6.51337 0
M  V30 10566 C 1405.08 -3.96706 5.66633 0
M  V30 10567 O 1405.88 -4.15414 4.49689 0
M  V30 10568 C 1403.74 -4.66153 5.59313 0
M  V30 10569 H 1403.77 -5.47679 4.85214 0
M  V30 10570 H 1404.96 -2.89008 5.86566 0
M  V30 10571 H 1406.44 -4.0121 7.36511 0
M  V30 10572 H 1404.75 -5.80182 8.37584 0
M  V30 10573 H 1404.56 -3.73517 9.52265 0
M  V30 10574 H 1402.93 -3.97163 8.80359 0
M  V30 10575 H 1405.56 -4.90969 4.01921 0
M  V30 10576 P 1407.42 -5.75688 6.64379 0
M  V30 10577 O 1408.84 -6.11915 7.01921 0
M  V30 10578 O 1407.06 -4.30744 6.56026 0
M  V30 10579 O 1407.1 -6.37042 5.19165 0
M  V30 10580 C 1406.94 -7.83662 5.1657 0
M  V30 10581 C 1407.48 -8.33398 3.83019 0
M  V30 10582 O 1406.42 -8.0998 3.00999 0
M  V30 10583 C 1408.7 -7.65514 3.2257 0
M  V30 10584 O 1409.43 -8.4329 2.32297 0
M  V30 10585 C 1408.03 -6.40075 2.62207 0
M  V30 10586 O 1408.83 -5.92338 1.5428 0
M  V30 10587 C 1406.69 -6.9454 2.18503 0
M  V30 10588 N 1405.65 -5.95905 2.39948 0
M  V30 10589 C 1405.82 -4.98383 3.32108 0
M  V30 10590 N 1404.79 -4.16798 3.41761 0
M  V30 10591 C 1403.9 -4.65287 2.47461 0
M  V30 10592 C 1402.64 -4.18946 2.07461 0
M  V30 10593 N 1402.07 -4.95327 1.09101 0
M  V30 10594 C 1402.67 -6.04369 0.519812 0
M  V30 10595 N 1403.85 -6.50694 0.855982 0
M  V30 10596 C 1404.43 -5.75818 1.84322 0
M  V30 10597 H 1407.91 -5.60502 3.36589 0
M  V30 10598 H 1409.39 -7.35707 4.02681 0
M  V30 10599 H 1407.69 -9.41302 3.90009 0
M  V30 10600 H 1407.5 -8.29056 5.99158 0
M  V30 10601 H 1405.87 -8.10073 5.25882 0
M  V30 10602 H 1406.72 -4.88564 3.92502 0
M  V30 10603 H 1408.51 -6.30224 0.72668 0
M  V30 10604 P 1410.37 -8.4349 2.47671 0
M  V30 10605 O 1411.79 -8.94359 2.59696 0
M  V30 10606 O 1410.01 -7.1704 3.19006 0
M  V30 10607 O 1410.05 -8.16596 0.923387 0
M  V30 10608 C 1409.89 -9.38437 0.108857 0
M  V30 10609 C 1410.43 -9.08076 -1.28339 0
M  V30 10610 O 1409.37 -8.44229 -1.84713 0
M  V30 10611 C 1411.65 -8.18386 -1.42505 0
M  V30 10612 O 1412.39 -8.3501 -2.60497 0
M  V30 10613 C 1410.98 -6.80225 -1.25468 0
M  V30 10614 O 1411.78 -5.81526 -1.91035 0
M  V30 10615 C 1409.64 -7.02416 -1.9168 0
M  V30 10616 N 1408.6 -6.31033 -1.20314 0
M  V30 10617 C 1408.66 -6.18781 0.121293 0
M  V30 10618 N 1407.62 -5.49762 0.588272 0
M  V30 10619 C 1406.88 -5.22015 -0.488988 0
M  V30 10620 C 1405.58 -4.61966 -0.596448 0
M  V30 10621 O 1404.84 -4.19162 0.309059 0
M  V30 10622 N 1405.15 -4.53773 -1.878 0
M  V30 10623 C 1405.89 -4.99623 -2.99082 0
M  V30 10624 N 1405.3 -4.78912 -4.21227 0
M  V30 10625 N 1407.05 -5.59957 -2.91093 0
M  V30 10626 C 1407.5 -5.70225 -1.64218 0
M  V30 10627 H 1409.67 -6.6888 -2.96621 0
M  V30 10628 H 1410.86 -6.53517 -0.192194 0
M  V30 10629 H 1412.34 -8.36563 -0.598329 0
M  V30 10630 H 1410.65 -10.0291 -1.79807 0
M  V30 10631 H 1410.46 -10.2138 0.558219 0
M  V30 10632 H 1408.83 -9.6579 0.0444202 0
M  V30 10633 H 1404.25 -4.12883 -2.05283 0
M  V30 10634 H 1409.46 -6.59596 0.745856 0
M  V30 10635 H 1404.39 -4.31425 -4.2628 0
M  V30 10636 H 1405.76 -5.11219 -5.07148 0
M  V30 10637 H 1411.47 -5.69466 -2.79593 0
M  V30 10638 P 1413.32 -8.4349 -2.47671 0
M  V30 10639 O 1414.75 -8.92593 -2.65 0
M  V30 10640 O 1412.96 -7.7568 -1.19296 0
M  V30 10641 O 1413 -7.36886 -3.63805 0
M  V30 10642 C 1412.84 -7.95349 -4.982 0
M  V30 10643 C 1413.38 -6.94612 -5.98974 0
M  V30 10644 O 1412.32 -6.10347 -6.11815 0
M  V30 10645 C 1414.6 -6.11426 -5.62335 0
M  V30 10646 O 1415.34 -5.6162 -6.70584 0
M  V30 10647 C 1413.93 -5.04409 -4.73308 0
M  V30 10648 O 1414.73 -3.85992 -4.75183 0
M  V30 10649 C 1412.59 -4.8728 -5.41006 0
M  V30 10650 H 1412.62 -4.02333 -6.11157 0
M  V30 10651 H 1413.81 -5.39466 -3.69543 0
M  V30 10652 H 1415.29 -6.71916 -5.01943 0
M  V30 10653 H 1413.6 -7.4649 -6.93477 0
M  V30 10654 H 1413.41 -8.89416 -5.05237 0
M  V30 10655 H 1411.78 -8.14876 -5.18409 0
M  V30 10656 H 1414.42 -3.27957 -5.4317 0
M  V30 10657 P 1416.27 -5.75688 -6.64379 0
M  V30 10658 O 1417.7 -6.07758 -7.05656 0
M  V30 10659 O 1415.91 -5.88047 -5.19722 0
M  V30 10660 O 1415.95 -4.2322 -7.04443 0
M  V30 10661 C 1415.79 -3.99743 -8.4911 0
M  V30 10662 C 1416.33 -2.60487 -8.79329 0
M  V30 10663 O 1415.28 -1.82684 -8.4467 0
M  V30 10664 C 1417.55 -2.10343 -8.03628 0
M  V30 10665 O 1418.29 -1.09919 -8.67766 0
M  V30 10666 C 1416.88 -1.68446 -6.70876 0
M  V30 10667 O 1417.68 -0.678026 -6.08333 0
M  V30 10668 C 1415.54 -1.17436 -7.18567 0
M  V30 10669 N 1414.5 -1.52699 -6.23988 0
M  V30 10670 C 1414.56 -2.68084 -5.57824 0
M  V30 10671 N 1413.52 -2.8189 -4.75643 0
M  V30 10672 C 1412.78 -1.72373 -4.95155 0
M  V30 10673 C 1411.48 -1.37653 -4.44996 0
M  V30 10674 O 1410.74 -2.02239 -3.68445 0
M  V30 10675 N 1411.05 -0.17675 -4.90782 0
M  V30 10676 C 1411.8 0.645036 -5.78716 0
M  V30 10677 N 1411.2 1.84214 -6.10618 0
M  V30 10678 N 1412.95 0.321732 -6.30279 0
M  V30 10679 C 1413.41 -0.87502 -5.86913 0
M  V30 10680 H 1415.57 -0.0804732 -7.31656 0
M  V30 10681 H 1416.76 -2.53998 -6.02444 0
M  V30 10682 H 1418.24 -2.93095 -7.8582 0
M  V30 10683 H 1416.55 -2.53065 -9.86973 0
M  V30 10684 H 1416.36 -4.75072 -9.05887 0
M  V30 10685 H 1414.73 -4.05244 -8.76668 0
M  V30 10686 H 1410.15 0.152143 -4.60849 0
M  V30 10687 H 1415.36 -3.41852 -5.69006 0
M  V30 10688 H 1410.29 2.08538 -5.69521 0
M  V30 10689 H 1411.66 2.4895 -6.75698 0
M  V30 10690 H 1417.37 0.177619 -6.34151 0
M  V30 10691 P 1419.22 -1.25109 -8.70152 0
M  V30 10692 O 1420.65 -1.29758 -9.22115 0
M  V30 10693 O 1418.86 -2.13714 -7.55141 0
M  V30 10694 O 1418.9 0.248149 -8.21425 0
M  V30 10695 C 1418.74 1.22792 -9.30533 0
M  V30 10696 C 1419.28 2.56293 -8.80664 0
M  V30 10697 O 1418.23 3.02944 -8.09255 0
M  V30 10698 C 1420.5 2.57523 -7.89775 0
M  V30 10699 O 1421.24 3.7668 -7.89438 0
M  V30 10700 C 1419.83 2.20997 -6.55446 0
M  V30 10701 O 1420.63 2.71302 -5.48691 0
M  V30 10702 C 1418.49 2.89693 -6.67988 0
M  V30 10703 N 1417.45 2.08895 -6.07487 0
M  V30 10704 C 1417.62 0.753809 -5.94137 0
M  V30 10705 N 1416.59 0.146592 -5.38801 0
M  V30 10706 C 1415.71 1.1768 -5.13693 0
M  V30 10707 C 1414.44 1.17563 -4.52477 0
M  V30 10708 N 1413.88 2.41918 -4.45789 0
M  V30 10709 C 1414.48 3.56493 -4.90792 0
M  V30 10710 N 1415.65 3.61423 -5.47817 0
M  V30 10711 C 1416.23 2.37779 -5.5588 0
M  V30 10712 H 1419.71 1.12673 -6.44018 0
M  V30 10713 H 1421.19 1.7746 -8.19711 0
M  V30 10714 H 1419.5 3.21673 -9.66791 0
M  V30 10715 H 1419.31 0.901032 -10.1892 0
M  V30 10716 H 1417.68 1.33049 -9.56592 0
M  V30 10717 H 1418.52 0.233081 -6.26266 0
M  V30 10718 H 1420.32 3.5779 -5.23879 0
M  V30 10719 P 1422.17 3.65191 -7.99657 0
M  V30 10720 O 1423.6 3.89332 -8.45794 0
M  V30 10721 O 1421.81 2.28472 -7.50807 0
M  V30 10722 O 1421.85 4.64972 -6.77611 0
M  V30 10723 C 1421.69 6.06319 -7.16352 0
M  V30 10724 C 1422.23 6.91731 -6.02299 0
M  V30 10725 O 1421.18 6.92449 -5.17064 0
M  V30 10726 C 1423.45 6.43627 -5.25174 0
M  V30 10727 O 1424.19 7.43686 -4.60469 0
M  V30 10728 C 1422.78 5.40275 -4.31916 0
M  V30 10729 O 1423.58 5.25279 -3.14438 0
M  V30 10730 C 1421.44 6.04847 -4.05327 0
M  V30 10731 H 1421.48 6.62195 -3.11261 0
M  V30 10732 H 1422.66 4.42556 -4.81383 0
M  V30 10733 H 1424.14 5.92458 -5.93643 0
M  V30 10734 H 1422.45 7.92655 -6.402 0
M  V30 10735 H 1422.26 6.26671 -8.0846 0
M  V30 10736 H 1420.63 6.29101 -7.32804 0
M  V30 10737 H 1423.27 5.84315 -2.47318 0
M  V30 10738 P 1425.13 7.39546 -4.75277 0
M  V30 10739 O 1426.55 7.84882 -5.01092 0
M  V30 10740 O 1424.77 5.9812 -5.08098 0
M  V30 10741 O 1424.8 7.57503 -3.1866 0
M  V30 10742 C 1424.64 8.97452 -2.74862 0
M  V30 10743 C 1425.18 9.07548 -1.32709 0
M  V30 10744 O 1424.13 8.61972 -0.606089 0
M  V30 10745 C 1426.4 8.25383 -0.938334 0
M  V30 10746 O 1427.14 8.74577 0.146954 0
M  V30 10747 C 1425.73 6.8802 -0.712559 0
M  V30 10748 O 1426.53 6.1181 0.188505 0
M  V30 10749 C 1424.39 7.27966 -0.139777 0
M  V30 10750 N 1423.35 6.39368 -0.623421 0
M  V30 10751 C 1423.52 5.71761 -1.78245 0
M  V30 10752 N 1422.49 4.962 -2.10491 0
M  V30 10753 C 1421.61 5.16158 -1.0635 0
M  V30 10754 C 1420.34 4.60425 -0.810266 0
M  V30 10755 N 1419.78 5.06 0.348685 0
M  V30 10756 C 1420.38 5.94532 1.20395 0
M  V30 10757 N 1421.56 6.48452 1.01191 0
M  V30 10758 C 1422.13 6.04423 -0.146291 0
M  V30 10759 H 1425.61 6.32625 -1.65044 0
M  V30 10760 H 1427.09 8.19355 -1.79097 0
M  V30 10761 H 1425.4 10.1305 -1.09016 0
M  V30 10762 H 1425.21 9.64276 -3.41316 0
M  V30 10763 H 1423.58 9.25417 -2.76357 0
M  V30 10764 H 1424.42 5.79354 -2.38959 0
M  V30 10765 H 1426.22 6.25169 1.0783 0
M  V30 10766 P 1428.08 8.791 1.16485e-11 0
M  V30 10767 O 1429.5 9.31296 0.027939 0
M  V30 10768 O 1427.72 7.77869 -1.04071 0
M  V30 10769 O 1427.75 8.09533 1.41463 0
M  V30 10770 C 1427.59 9.0349 2.53943 0
M  V30 10771 C 1428.13 8.35135 3.78975 0
M  V30 10772 O 1427.08 7.57992 4.15078 0
M  V30 10773 C 1429.35 7.45087 3.67298 0
M  V30 10774 O 1430.09 7.27796 4.85194 0
M  V30 10775 C 1428.68 6.17323 3.12027 0
M  V30 10776 O 1429.48 5.04149 3.47132 0
M  V30 10777 C 1427.34 6.19961 3.81809 0
M  V30 10778 N 1426.3 5.71575 2.93223 0
M  V30 10779 C 1426.36 5.97133 1.62693 0
M  V30 10780 N 1425.32 5.44066 0.984414 0
M  V30 10781 C 1424.58 4.87093 1.93987 0
M  V30 10782 C 1423.28 4.26449 1.8738 0
M  V30 10783 O 1422.55 4.1089 0.884377 0
M  V30 10784 N 1422.85 3.82483 3.08036 0
M  V30 10785 C 1423.6 3.95124 4.27727 0
M  V30 10786 N 1423 3.4084 5.39089 0
M  V30 10787 N 1424.75 4.55264 4.3706 0
M  V30 10788 C 1425.21 5.00861 3.18217 0
M  V30 10789 H 1427.38 5.58218 4.73051 0
M  V30 10790 H 1428.56 6.21631 2.02558 0
M  V30 10791 H 1430.04 7.85819 2.93096 0
M  V30 10792 H 1428.35 9.11627 4.55076 0
M  V30 10793 H 1428.16 9.9573 2.34194 0
M  V30 10794 H 1426.53 9.2792 2.67832 0
M  V30 10795 H 1421.95 3.38323 3.1329 0
M  V30 10796 H 1427.16 6.53891 1.14265 0
M  V30 10797 H 1422.09 2.93852 5.30559 0
M  V30 10798 H 1423.47 3.47631 6.30632 0
M  V30 10799 H 1429.17 4.67628 4.28704 0
M  V30 10800 P 1431.03 7.39546 4.75277 0
M  V30 10801 O 1432.45 7.81861 5.05793 0
M  V30 10802 O 1430.67 7.1065 3.32998 0
M  V30 10803 O 1430.7 6.04542 5.56673 0
M  V30 10804 C 1430.54 6.22839 7.02169 0
M  V30 10805 C 1431.08 4.97725 7.70406 0
M  V30 10806 O 1430.03 4.13208 7.58899 0
M  V30 10807 C 1432.3 4.28231 7.11815 0
M  V30 10808 O 1433.04 3.49945 8.01648 0
M  V30 10809 C 1431.63 3.5063 5.96244 0
M  V30 10810 O 1432.43 2.37008 5.64352 0
M  V30 10811 C 1430.3 3.15122 6.56374 0
M  V30 10812 N 1429.25 3.22311 5.55692 0
M  V30 10813 C 1429.42 3.99655 4.46046 0
M  V30 10814 N 1428.39 3.97599 3.63918 0
M  V30 10815 C 1427.51 3.11159 4.25334 0
M  V30 10816 C 1426.24 2.64972 3.85157 0
M  V30 10817 N 1425.68 1.78482 4.74759 0
M  V30 10818 C 1426.28 1.37463 5.90819 0
M  V30 10819 N 1427.46 1.7733 6.31889 0
M  V30 10820 C 1428.03 2.64393 5.43725 0
M  V30 10821 H 1431.51 4.12931 5.06895 0
M  V30 10822 H 1432.99 5.03285 6.70911 0
M  V30 10823 H 1431.3 5.20001 8.76217 0
M  V30 10824 H 1431.11 7.11046 7.35349 0
M  V30 10825 H 1429.48 6.35815 7.26986 0
M  V30 10826 H 1430.32 4.58037 4.27732 0
M  V30 10827 H 1432.12 1.61619 6.13468 0
M  V30 10828 P 1433.98 3.65191 7.99657 0
M  V30 10829 O 1435.4 3.84333 8.48297 0
M  V30 10830 O 1433.62 4.17805 6.64342 0
M  V30 10831 O 1433.65 2.07613 7.95143 0
M  V30 10832 C 1433.49 1.44328 9.27336 0
M  V30 10833 C 1434.03 0.0220012 9.17097 0
M  V30 10834 O 1432.98 -0.626867 8.61923 0
M  V30 10835 C 1435.25 -0.24586 8.30336 0
M  V30 10836 O 1435.99 -1.39011 8.63583 0
M  V30 10837 C 1434.58 -0.273849 6.91158 0
M  V30 10838 O 1435.38 -1.06331 6.02794 0
M  V30 10839 C 1433.25 -0.897649 7.22545 0
M  V30 10840 N 1432.2 -0.292839 6.41732 0
M  V30 10841 C 1432.27 1.00068 6.10757 0
M  V30 10842 N 1431.22 1.36468 5.35794 0
M  V30 10843 C 1430.49 0.258894 5.2366 0
M  V30 10844 C 1429.18 0.0670682 4.65752 0
M  V30 10845 O 1428.45 0.902443 4.10497 0
M  V30 10846 N 1428.75 -1.2131 4.75881 0
M  V30 10847 C 1429.5 -2.24934 5.37101 0
M  V30 10848 N 1428.9 -3.48783 5.33984 0
M  V30 10849 N 1430.65 -2.0844 5.95684 0
M  V30 10850 C 1431.11 -0.81395 5.87791 0
M  V30 10851 H 1433.28 -1.9841 7.04286 0
M  V30 10852 H 1434.46 0.739815 6.49601 0
M  V30 10853 H 1435.95 0.598315 8.36563 0
M  V30 10854 H 1434.25 -0.352479 10.1829 0
M  V30 10855 H 1434.06 2.00611 10.0304 0
M  V30 10856 H 1432.43 1.41843 9.55327 0
M  V30 10857 H 1427.85 -1.44434 4.37895 0
M  V30 10858 H 1433.06 1.67697 6.42268 0
M  V30 10859 H 1427.99 -3.60543 4.87699 0
M  V30 10860 H 1429.37 -4.29232 5.7819 0
M  V30 10861 H 1435.07 -1.95704 6.0346 0
M  V30 10862 P 1436.93 -1.25109 8.70152 0
M  V30 10863 O 1438.35 -1.35303 9.21419 0
M  V30 10864 O 1436.57 -0.0769065 7.84762 0
M  V30 10865 O 1436.6 -2.55232 7.81161 0
M  V30 10866 C 1436.44 -3.79939 8.58154 0
M  V30 10867 C 1436.98 -4.93969 7.72701 0
M  V30 10868 O 1435.93 -5.18726 6.91205 0
M  V30 10869 C 1438.2 -4.69597 6.85231 0
M  V30 10870 O 1438.94 -5.83832 6.51337 0
M  V30 10871 C 1437.53 -3.96706 5.66633 0
M  V30 10872 O 1438.33 -4.15346 4.49615 0
M  V30 10873 C 1436.2 -4.66153 5.59313 0
M  V30 10874 N 1435.15 -3.71582 5.24027 0
M  V30 10875 C 1435.22 -2.46018 5.67902 0
M  V30 10876 N 1434.17 -1.74868 5.24518 0
M  V30 10877 C 1433.44 -2.61333 4.54528 0
M  V30 10878 C 1432.13 -2.46162 3.95441 0
M  V30 10879 O 1431.4 -1.46013 3.94122 0
M  V30 10880 N 1431.7 -3.59334 3.34752 0
M  V30 10881 C 1432.45 -4.79605 3.3023 0
M  V30 10882 N 1431.85 -5.82109 2.6065 0
M  V30 10883 N 1433.6 -4.97402 3.8843 0
M  V30 10884 C 1434.06 -3.86258 4.50476 0
M  V30 10885 H 1436.23 -5.47679 4.85214 0
M  V30 10886 H 1437.41 -2.88964 5.86476 0
M  V30 10887 H 1438.9 -4.01947 7.36109 0
M  V30 10888 H 1437.2 -5.80182 8.37584 0
M  V30 10889 H 1437.01 -3.73517 9.52265 0
M  V30 10890 H 1435.38 -3.97163 8.80359 0
M  V30 10891 H 1430.8 -3.5825 2.90294 0
M  V30 10892 H 1436.01 -2.06161 6.30974 0
M  V30 10893 H 1430.94 -5.66979 2.15354 0
M  V30 10894 H 1432.32 -6.73686 2.54344 0
M  V30 10895 H 1438.02 -4.90891 4.01857 0
M  V30 10896 P 1439.88 -5.75688 6.64379 0
M  V30 10897 O 1441.3 -6.11849 7.01846 0
M  V30 10898 O 1439.52 -4.30744 6.56026 0
M  V30 10899 O 1439.56 -6.37042 5.19165 0
M  V30 10900 C 1439.4 -7.83578 5.16515 0
M  V30 10901 C 1439.94 -8.33398 3.83019 0
M  V30 10902 O 1438.88 -8.10074 3.01034 0
M  V30 10903 C 1441.15 -7.65514 3.2257 0
M  V30 10904 O 1441.89 -8.4329 2.32297 0
M  V30 10905 C 1440.48 -6.40075 2.62207 0
M  V30 10906 O 1441.28 -5.92589 1.53712 0
M  V30 10907 C 1439.15 -6.9454 2.18503 0
M  V30 10908 H 1439.18 -7.23063 1.12091 0
M  V30 10909 H 1440.36 -5.6025 3.37201 0
M  V30 10910 H 1441.85 -7.35707 4.02681 0
M  V30 10911 H 1440.15 -9.40912 3.9095 0
M  V30 10912 H 1439.96 -8.29056 5.99158 0
M  V30 10913 H 1438.33 -8.10073 5.25882 0
M  V30 10914 H 1440.97 -6.30324 0.726794 0
M  V30 10915 P 1442.83 -8.4349 2.47671 0
M  V30 10916 O 1444.25 -8.94167 2.5964 0
M  V30 10917 O 1442.47 -7.1704 3.19006 0
M  V30 10918 O 1442.51 -8.16596 0.923387 0
M  V30 10919 C 1442.35 -9.38437 0.108857 0
M  V30 10920 C 1442.89 -9.08175 -1.28353 0
M  V30 10921 O 1441.83 -8.44229 -1.84713 0
M  V30 10922 C 1444.1 -8.18386 -1.42505 0
M  V30 10923 O 1444.84 -8.3501 -2.60497 0
M  V30 10924 C 1443.43 -6.80225 -1.25468 0
M  V30 10925 O 1444.23 -5.81621 -1.91066 0
M  V30 10926 C 1442.1 -7.02416 -1.9168 0
M  V30 10927 H 1442.13 -6.6888 -2.96621 0
M  V30 10928 H 1443.31 -6.53617 -0.192223 0
M  V30 10929 H 1444.8 -8.36622 -0.589963 0
M  V30 10930 H 1443.1 -10.0291 -1.79807 0
M  V30 10931 H 1442.91 -10.2138 0.558219 0
M  V30 10932 H 1441.28 -9.6579 0.0444202 0
M  V30 10933 H 1443.92 -5.69556 -2.79637 0
M  V30 10934 P 1445.78 -8.4349 -2.47671 0
M  V30 10935 O 1447.2 -8.92593 -2.65 0
M  V30 10936 O 1445.42 -7.7568 -1.19296 0
M  V30 10937 O 1445.46 -7.36886 -3.63805 0
M  V30 10938 C 1445.3 -7.95349 -4.982 0
M  V30 10939 C 1445.84 -6.94612 -5.98974 0
M  V30 10940 O 1444.78 -6.10347 -6.11815 0
M  V30 10941 C 1447.05 -6.11426 -5.62335 0
M  V30 10942 O 1447.79 -5.6162 -6.70584 0
M  V30 10943 C 1446.39 -5.04409 -4.73308 0
M  V30 10944 O 1447.18 -3.85992 -4.75183 0
M  V30 10945 C 1445.05 -4.8728 -5.41006 0
M  V30 10946 H 1445.08 -4.02333 -6.11157 0
M  V30 10947 H 1446.26 -5.39466 -3.69543 0
M  V30 10948 H 1447.75 -6.71916 -5.01943 0
M  V30 10949 H 1446.05 -7.4649 -6.93477 0
M  V30 10950 H 1445.86 -8.89416 -5.05237 0
M  V30 10951 H 1444.23 -8.14876 -5.18409 0
M  V30 10952 H 1446.87 -3.27957 -5.4317 0
M  V30 10953 P 1448.73 -5.75688 -6.64379 0
M  V30 10954 O 1450.15 -6.07627 -7.05504 0
M  V30 10955 O 1448.37 -5.88047 -5.19722 0
M  V30 10956 O 1448.41 -4.2322 -7.04443 0
M  V30 10957 C 1448.25 -3.99743 -8.4911 0
M  V30 10958 C 1448.79 -2.60516 -8.79425 0
M  V30 10959 O 1447.73 -1.82684 -8.4467 0
M  V30 10960 C 1450 -2.10343 -8.03628 0
M  V30 10961 O 1450.74 -1.09919 -8.67766 0
M  V30 10962 C 1449.34 -1.68446 -6.70876 0
M  V30 10963 O 1450.13 -0.678137 -6.08433 0
M  V30 10964 C 1448 -1.17436 -7.18567 0
M  V30 10965 H 1448.03 -0.0804732 -7.31656 0
M  V30 10966 H 1449.21 -2.54037 -6.02537 0
M  V30 10967 H 1450.7 -2.93881 -7.85526 0
M  V30 10968 H 1449 -2.53065 -9.86973 0
M  V30 10969 H 1448.81 -4.75072 -9.05887 0
M  V30 10970 H 1447.18 -4.05244 -8.76668 0
M  V30 10971 H 1449.82 0.177647 -6.34251 0
M  V30 10972 P 1451.68 -1.25109 -8.70152 0
M  V30 10973 O 1453.1 -1.29758 -9.22115 0
M  V30 10974 O 1451.32 -2.13714 -7.55141 0
M  V30 10975 O 1451.36 0.248149 -8.21425 0
M  V30 10976 C 1451.2 1.22792 -9.30533 0
M  V30 10977 C 1451.74 2.56293 -8.80664 0
M  V30 10978 O 1450.68 3.02944 -8.09255 0
M  V30 10979 C 1452.96 2.57523 -7.89775 0
M  V30 10980 O 1453.69 3.7668 -7.89438 0
M  V30 10981 C 1452.29 2.20997 -6.55446 0
M  V30 10982 O 1453.09 2.71302 -5.48691 0
M  V30 10983 C 1450.95 2.89693 -6.67988 0
M  V30 10984 N 1449.91 2.08895 -6.07487 0
M  V30 10985 C 1450.08 0.753809 -5.94137 0
M  V30 10986 N 1449.05 0.146592 -5.38801 0
M  V30 10987 C 1448.16 1.1768 -5.13693 0
M  V30 10988 C 1446.9 1.17563 -4.52477 0
M  V30 10989 N 1446.33 2.41918 -4.45789 0
M  V30 10990 C 1446.93 3.56493 -4.90792 0
M  V30 10991 N 1448.11 3.61423 -5.47817 0
M  V30 10992 C 1448.69 2.37779 -5.5588 0
M  V30 10993 H 1452.16 1.12673 -6.44018 0
M  V30 10994 H 1453.65 1.7746 -8.19711 0
M  V30 10995 H 1451.95 3.21673 -9.66791 0
M  V30 10996 H 1451.76 0.901032 -10.1892 0
M  V30 10997 H 1450.13 1.33049 -9.56592 0
M  V30 10998 H 1450.98 0.233081 -6.26266 0
M  V30 10999 H 1452.77 3.5779 -5.23879 0
M  V30 11000 P 1454.63 3.65191 -7.99657 0
M  V30 11001 O 1456.05 3.89374 -8.45885 0
M  V30 11002 O 1454.27 2.28472 -7.50807 0
M  V30 11003 O 1454.31 4.64972 -6.77611 0
M  V30 11004 C 1454.15 6.06383 -7.16428 0
M  V30 11005 C 1454.69 6.91731 -6.02299 0
M  V30 11006 O 1453.63 6.92369 -5.17005 0
M  V30 11007 C 1455.91 6.43627 -5.25174 0
M  V30 11008 O 1456.64 7.43686 -4.60469 0
M  V30 11009 C 1455.24 5.40275 -4.31916 0
M  V30 11010 O 1456.04 5.24878 -3.14911 0
M  V30 11011 C 1453.9 6.04847 -4.05327 0
M  V30 11012 N 1452.86 5.04166 -3.98114 0
M  V30 11013 C 1453.03 3.84629 -4.59066 0
M  V30 11014 N 1452 3.0363 -4.45343 0
M  V30 11015 C 1451.11 3.76722 -3.68523 0
M  V30 11016 C 1449.85 3.43528 -3.17088 0
M  V30 11017 N 1449.28 4.44526 -2.44231 0
M  V30 11018 C 1449.88 5.65243 -2.20146 0
M  V30 11019 N 1451.06 6.00221 -2.65453 0
M  V30 11020 C 1451.64 5.00564 -3.39083 0
M  V30 11021 H 1455.12 4.42969 -4.80867 0
M  V30 11022 H 1456.6 5.92458 -5.93643 0
M  V30 11023 H 1454.9 7.93295 -6.39407 0
M  V30 11024 H 1454.71 6.26671 -8.0846 0
M  V30 11025 H 1453.08 6.29101 -7.32804 0
M  V30 11026 H 1453.93 3.58193 -5.14248 0
M  V30 11027 H 1455.72 5.84223 -2.47279 0
M  V30 11028 P 1457.58 7.39546 -4.75277 0
M  V30 11029 O 1459 7.84798 -5.01039 0
M  V30 11030 O 1457.22 5.9812 -5.08098 0
M  V30 11031 O 1457.26 7.57503 -3.1866 0
M  V30 11032 C 1457.1 8.97357 -2.74833 0
M  V30 11033 C 1457.64 9.07548 -1.32709 0
M  V30 11034 O 1456.58 8.62072 -0.606159 0
M  V30 11035 C 1458.86 8.25383 -0.938334 0
M  V30 11036 O 1459.59 8.74577 0.146954 0
M  V30 11037 C 1458.19 6.8802 -0.712559 0
M  V30 11038 O 1458.99 6.1189 0.194655 0
M  V30 11039 C 1456.85 7.27966 -0.139777 0
M  V30 11040 H 1456.88 7.25354 0.961601 0
M  V30 11041 H 1458.07 6.32557 -1.65702 0
M  V30 11042 H 1459.55 8.19355 -1.79097 0
M  V30 11043 H 1457.86 10.1294 -1.10029 0
M  V30 11044 H 1457.67 9.64276 -3.41316 0
M  V30 11045 H 1456.04 9.25417 -2.76357 0
M  V30 11046 H 1458.67 6.25267 1.07847 0
M  V30 11047 P 1460.53 8.791 1.19586e-11 0
M  V30 11048 O 1461.95 9.31196 0.027936 0
M  V30 11049 O 1460.17 7.77869 -1.04071 0
M  V30 11050 O 1460.21 8.09533 1.41463 0
M  V30 11051 C 1460.05 9.03587 2.5397 0
M  V30 11052 C 1460.59 8.35226 3.79016 0
M  V30 11053 O 1459.53 7.57904 4.1503 0
M  V30 11054 C 1461.81 7.45087 3.67298 0
M  V30 11055 O 1462.55 7.27796 4.85194 0
M  V30 11056 C 1461.14 6.17323 3.12027 0
M  V30 11057 O 1461.94 5.04496 3.46627 0
M  V30 11058 C 1459.8 6.19961 3.81809 0
M  V30 11059 N 1458.76 5.71575 2.93223 0
M  V30 11060 C 1458.93 5.77362 1.59168 0
M  V30 11061 N 1457.9 5.3123 0.911893 0
M  V30 11062 C 1457.02 4.91717 1.89588 0
M  V30 11063 C 1455.75 4.3114 1.8076 0
M  V30 11064 N 1455.18 4.06823 3.02898 0
M  V30 11065 C 1455.79 4.35062 4.22711 0
M  V30 11066 N 1456.96 4.90805 4.35707 0
M  V30 11067 C 1457.54 5.16382 3.14469 0
M  V30 11068 H 1461.02 6.21428 2.0318 0
M  V30 11069 H 1462.5 7.86112 2.9231 0
M  V30 11070 H 1460.81 9.11171 4.55987 0
M  V30 11071 H 1460.62 9.9573 2.34194 0
M  V30 11072 H 1458.99 9.2792 2.67832 0
M  V30 11073 H 1459.83 6.16575 1.12198 0
M  V30 11074 H 1461.63 4.67628 4.28704 0
M  V30 11075 P 1463.48 7.39546 4.75277 0
M  V30 11076 O 1464.88 7.89013 5.04841 0
M  V30 11077 O 1463.1 7.16603 3.32298 0
M  V30 11078 O 1463.16 6.04468 5.56605 0
M  V30 11079 C 1463 6.22772 7.02095 0
M  V30 11080 C 1463.54 4.97671 7.70322 0
M  V30 11081 O 1462.48 4.13208 7.58899 0
M  V30 11082 C 1464.76 4.28231 7.11815 0
M  V30 11083 O 1465.5 3.49945 8.01648 0
M  V30 11084 C 1464.09 3.5063 5.96244 0
M  V30 11085 O 1464.89 2.36443 5.64589 0
M  V30 11086 C 1462.75 3.15122 6.56374 0
M  V30 11087 N 1461.71 3.22311 5.55692 0
M  V30 11088 C 1460.67 2.32244 5.62437 0
M  V30 11089 O 1460.71 1.43107 6.50341 0
M  V30 11090 N 1459.66 2.40811 4.73368 0
M  V30 11091 C 1459.71 3.344 3.77753 0
M  V30 11092 C 1460.81 4.24712 3.66679 0
M  V30 11093 C 1461.77 4.15625 4.58307 0
M  V30 11094 H 1462.78 2.13823 6.99656 0
M  V30 11095 H 1463.97 4.12931 5.06895 0
M  V30 11096 H 1465.45 5.02674 6.71494 0
M  V30 11097 H 1463.76 5.20001 8.76217 0
M  V30 11098 H 1463.57 7.11046 7.35349 0
M  V30 11099 H 1461.94 6.35749 7.26911 0
M  V30 11100 H 1460.85 4.9828 2.86753 0
M  V30 11101 H 1462.62 4.84464 4.54228 0
M  V30 11102 H 1464.67 1.65592 6.23485 0
M  V30 11103 P 1466.43 3.65191 7.99657 0
M  V30 11104 O 1467.86 3.8425 8.48115 0
M  V30 11105 O 1466.07 4.17805 6.64342 0
M  V30 11106 O 1466.11 2.07613 7.95143 0
M  V30 11107 C 1465.95 1.44328 9.27336 0
M  V30 11108 C 1466.49 0.0220036 9.17197 0
M  V30 11109 O 1465.43 -0.626867 8.61923 0
M  V30 11110 C 1467.71 -0.24586 8.30336 0
M  V30 11111 O 1468.45 -1.39011 8.63583 0
M  V30 11112 C 1467.04 -0.273849 6.91158 0
M  V30 11113 O 1467.84 -1.06348 6.02892 0
M  V30 11114 C 1465.7 -0.897649 7.22545 0
M  V30 11115 H 1465.73 -1.9841 7.04286 0
M  V30 11116 H 1466.92 0.739928 6.497 0
M  V30 11117 H 1468.4 0.60668 8.36503 0
M  V30 11118 H 1466.71 -0.352479 10.1829 0
M  V30 11119 H 1466.52 2.00611 10.0304 0
M  V30 11120 H 1464.89 1.41843 9.55327 0
M  V30 11121 H 1467.53 -1.95734 6.03555 0
M  V30 11122 P 1469.38 -1.25109 8.70152 0
M  V30 11123 O 1470.8 -1.35288 9.2132 0
M  V30 11124 O 1469.02 -0.0769065 7.84762 0
M  V30 11125 O 1469.06 -2.55232 7.81161 0
M  V30 11126 C 1468.9 -3.79979 8.58246 0
M  V30 11127 C 1469.44 -4.94023 7.72785 0
M  V30 11128 O 1468.39 -5.18666 6.91125 0
M  V30 11129 C 1470.66 -4.69597 6.85231 0
M  V30 11130 O 1471.4 -5.83832 6.51337 0
M  V30 11131 C 1469.99 -3.96706 5.66633 0
M  V30 11132 O 1470.79 -4.14896 4.5003 0
M  V30 11133 C 1468.65 -4.66153 5.59313 0
M  V30 11134 N 1467.61 -3.71582 5.24027 0
M  V30 11135 C 1467.78 -2.39715 5.48833 0
M  V30 11136 N 1466.75 -1.65863 5.12845 0
M  V30 11137 C 1465.87 -2.57637 4.5973 0
M  V30 11138 C 1464.6 -2.40278 4.01027 0
M  V30 11139 N 1464 -1.19549 3.86744 0
M  V30 11140 N 1464.03 -3.57711 3.59575 0
M  V30 11141 C 1464.64 -4.80324 3.70476 0
M  V30 11142 N 1465.81 -5.01121 4.23801 0
M  V30 11143 C 1466.39 -3.84757 4.66372 0
M  V30 11144 H 1468.68 -5.47604 4.85148 0
M  V30 11145 H 1469.87 -2.8955 5.86187 0
M  V30 11146 H 1471.35 -4.0121 7.36511 0
M  V30 11147 H 1469.66 -5.81019 8.37003 0
M  V30 11148 H 1469.47 -3.73517 9.52265 0
M  V30 11149 H 1467.84 -3.97163 8.80359 0
M  V30 11150 H 1464.1 -5.66348 3.3183 0
M  V30 11151 H 1468.68 -1.98804 5.94332 0
M  V30 11152 H 1463.07 -1.13147 3.4281 0
M  V30 11153 H 1464.47 -0.344074 4.19692 0
M  V30 11154 H 1470.48 -4.90891 4.01857 0
M  V30 11155 P 1472.33 -5.75688 6.64379 0
M  V30 11156 O 1473.76 -6.11981 7.01997 0
M  V30 11157 O 1471.97 -4.30744 6.56026 0
M  V30 11158 O 1472.01 -6.37042 5.19165 0
M  V30 11159 C 1471.85 -7.83578 5.16515 0
M  V30 11160 C 1472.39 -8.33307 3.82977 0
M  V30 11161 O 1471.34 -8.10074 3.01034 0
M  V30 11162 C 1473.61 -7.65514 3.2257 0
M  V30 11163 O 1474.35 -8.4329 2.32297 0
M  V30 11164 C 1472.94 -6.40075 2.62207 0
M  V30 11165 O 1473.74 -5.92492 1.53687 0
M  V30 11166 C 1471.6 -6.9454 2.18503 0
M  V30 11167 N 1470.56 -5.95905 2.39948 0
M  V30 11168 C 1470.62 -5.13994 3.44742 0
M  V30 11169 N 1469.58 -4.30684 3.46712 0
M  V30 11170 C 1468.84 -4.65583 2.41086 0
M  V30 11171 C 1467.54 -4.20877 1.99581 0
M  V30 11172 O 1466.8 -3.35913 2.52616 0
M  V30 11173 N 1467.11 -4.83271 0.873406 0
M  V30 11174 C 1467.86 -5.82006 0.185129 0
M  V30 11175 N 1467.26 -6.30619 -0.95439 0
M  V30 11176 N 1469.01 -6.28443 0.578524 0
M  V30 11177 C 1469.47 -5.68486 1.70138 0
M  V30 11178 H 1471.64 -7.23063 1.12091 0
M  V30 11179 H 1472.82 -5.60165 3.3715 0
M  V30 11180 H 1474.3 -7.3611 4.01946 0
M  V30 11181 H 1472.61 -9.40912 3.9095 0
M  V30 11182 H 1472.42 -8.29056 5.99158 0
M  V30 11183 H 1470.79 -8.10073 5.25882 0
M  V30 11184 H 1466.21 -4.58323 0.505262 0
M  V30 11185 H 1471.42 -5.14564 4.1935 0
M  V30 11186 H 1466.35 -5.93402 -1.25364 0
M  V30 11187 H 1467.72 -7.0425 -1.50254 0
M  V30 11188 H 1473.43 -6.30224 0.72668 0
M  V30 11189 P 1475.28 -8.4349 2.47671 0
M  V30 11190 O 1476.71 -8.94167 2.5964 0
M  V30 11191 O 1474.92 -7.1704 3.19006 0
M  V30 11192 O 1474.96 -8.16596 0.923387 0
M  V30 11193 C 1474.8 -9.38437 0.108857 0
M  V30 11194 C 1475.34 -9.08175 -1.28353 0
M  V30 11195 O 1474.29 -8.44229 -1.84713 0
M  V30 11196 C 1476.56 -8.18386 -1.42505 0
M  V30 11197 O 1477.3 -8.3501 -2.60497 0
M  V30 11198 C 1475.89 -6.80225 -1.25468 0
M  V30 11199 O 1476.69 -5.81621 -1.91066 0
M  V30 11200 C 1474.55 -7.02416 -1.9168 0
M  V30 11201 H 1474.59 -6.6888 -2.96621 0
M  V30 11202 H 1475.77 -6.53617 -0.192223 0
M  V30 11203 H 1477.25 -8.36622 -0.589963 0
M  V30 11204 H 1475.56 -10.0291 -1.79807 0
M  V30 11205 H 1475.37 -10.2138 0.558219 0
M  V30 11206 H 1473.74 -9.6579 0.0444202 0
M  V30 11207 H 1476.38 -5.69556 -2.79637 0
M  V30 11208 P 1478.24 -8.4349 -2.47671 0
M  V30 11209 O 1479.66 -8.92689 -2.65029 0
M  V30 11210 O 1477.88 -7.7568 -1.19296 0
M  V30 11211 O 1477.91 -7.36886 -3.63805 0
M  V30 11212 C 1477.75 -7.95433 -4.98253 0
M  V30 11213 C 1478.29 -6.94612 -5.98974 0
M  V30 11214 O 1477.24 -6.10277 -6.11744 0
M  V30 11215 C 1479.51 -6.11426 -5.62335 0
M  V30 11216 O 1480.25 -5.6162 -6.70584 0
M  V30 11217 C 1478.84 -5.04409 -4.73308 0
M  V30 11218 O 1479.64 -3.86404 -4.74719 0
M  V30 11219 C 1477.5 -4.8728 -5.41006 0
M  V30 11220 N 1476.46 -4.65812 -4.42377 0
M  V30 11221 C 1476.63 -5.09132 -3.15382 0
M  V30 11222 N 1475.6 -4.84021 -2.3716 0
M  V30 11223 C 1474.72 -4.18386 -3.20441 0
M  V30 11224 C 1473.45 -3.6275 -2.94905 0
M  V30 11225 N 1472.89 -3.05008 -4.05243 0
M  V30 11226 C 1473.49 -2.98348 -5.28159 0
M  V30 11227 N 1474.67 -3.48171 -5.56333 0
M  V30 11228 C 1475.24 -4.06869 -4.47212 0
M  V30 11229 H 1478.72 -5.39013 -3.70026 0
M  V30 11230 H 1480.2 -6.71916 -5.01943 0
M  V30 11231 H 1478.51 -7.45796 -6.94223 0
M  V30 11232 H 1478.32 -8.89416 -5.05237 0
M  V30 11233 H 1476.69 -8.14876 -5.18409 0
M  V30 11234 H 1477.53 -5.59989 -2.81362 0
M  V30 11235 H 1479.33 -3.27906 -5.43085 0
M  V30 11236 P 1481.19 -5.75688 -6.64379 0
M  V30 11237 O 1482.61 -6.07758 -7.05656 0
M  V30 11238 O 1480.83 -5.88047 -5.19722 0
M  V30 11239 O 1480.86 -4.2322 -7.04443 0
M  V30 11240 C 1480.7 -3.99743 -8.4911 0
M  V30 11241 C 1481.24 -2.60487 -8.79329 0
M  V30 11242 O 1480.19 -1.82684 -8.4467 0
M  V30 11243 C 1482.46 -2.10343 -8.03628 0
M  V30 11244 O 1483.2 -1.09919 -8.67766 0
M  V30 11245 C 1481.79 -1.68446 -6.70876 0
M  V30 11246 O 1482.59 -0.678026 -6.08333 0
M  V30 11247 C 1480.46 -1.17436 -7.18567 0
M  V30 11248 N 1479.41 -1.52699 -6.23988 0
M  V30 11249 C 1479.47 -2.68084 -5.57824 0
M  V30 11250 N 1478.43 -2.8189 -4.75643 0
M  V30 11251 C 1477.7 -1.72373 -4.95155 0
M  V30 11252 C 1476.39 -1.37653 -4.44996 0
M  V30 11253 O 1475.66 -2.02239 -3.68445 0
M  V30 11254 N 1475.96 -0.17675 -4.90782 0
M  V30 11255 C 1476.71 0.645036 -5.78716 0
M  V30 11256 N 1476.11 1.84214 -6.10618 0
M  V30 11257 N 1477.86 0.321732 -6.30279 0
M  V30 11258 C 1478.32 -0.87502 -5.86913 0
M  V30 11259 H 1480.49 -0.0804732 -7.31656 0
M  V30 11260 H 1481.67 -2.53998 -6.02444 0
M  V30 11261 H 1483.16 -2.93095 -7.8582 0
M  V30 11262 H 1481.46 -2.53065 -9.86973 0
M  V30 11263 H 1481.27 -4.75072 -9.05887 0
M  V30 11264 H 1479.64 -4.05244 -8.76668 0
M  V30 11265 H 1475.06 0.152143 -4.60849 0
M  V30 11266 H 1480.27 -3.41852 -5.69006 0
M  V30 11267 H 1475.2 2.08538 -5.69521 0
M  V30 11268 H 1476.58 2.4895 -6.75698 0
M  V30 11269 H 1482.28 0.177619 -6.34151 0
M  V30 11270 P 1484.14 -1.25109 -8.70152 0
M  V30 11271 O 1485.56 -1.29772 -9.22214 0
M  V30 11272 O 1483.78 -2.13714 -7.55141 0
M  V30 11273 O 1483.81 0.248149 -8.21425 0
M  V30 11274 C 1483.65 1.22779 -9.30434 0
M  V30 11275 C 1484.19 2.56265 -8.80568 0
M  V30 11276 O 1483.14 3.02979 -8.09349 0
M  V30 11277 C 1485.41 2.57523 -7.89775 0
M  V30 11278 O 1486.15 3.7668 -7.89438 0
M  V30 11279 C 1484.74 2.20997 -6.55446 0
M  V30 11280 O 1485.54 2.71851 -5.48419 0
M  V30 11281 C 1483.41 2.89693 -6.67988 0
M  V30 11282 N 1482.36 2.08895 -6.07487 0
M  V30 11283 C 1482.42 0.760559 -6.14209 0
M  V30 11284 N 1481.38 0.200108 -5.52538 0
M  V30 11285 C 1480.65 1.22692 -5.09742 0
M  V30 11286 C 1479.34 1.24782 -4.48775 0
M  V30 11287 O 1478.61 0.290617 -4.19294 0
M  V30 11288 N 1478.91 2.50468 -4.22428 0
M  V30 11289 C 1479.66 3.67142 -4.51974 0
M  V30 11290 N 1479.06 4.85096 -4.14091 0
M  V30 11291 N 1480.81 3.67821 -5.12831 0
M  V30 11292 C 1481.27 2.43698 -5.4105 0
M  V30 11293 H 1483.44 3.88793 -6.19859 0
M  V30 11294 H 1484.62 1.12029 -6.4413 0
M  V30 11295 H 1486.11 1.78279 -8.19533 0
M  V30 11296 H 1484.41 3.20706 -9.67112 0
M  V30 11297 H 1484.22 0.901032 -10.1892 0
M  V30 11298 H 1482.59 1.33049 -9.56592 0
M  V30 11299 H 1478.01 2.61953 -3.79465 0
M  V30 11300 H 1483.22 0.200439 -6.63497 0
M  V30 11301 H 1478.15 4.8334 -3.66367 0
M  V30 11302 H 1479.53 5.7474 -4.33841 0
M  V30 11303 H 1485.23 3.5779 -5.23879 0
M  V30 11304 P 1487.09 3.65191 -7.99657 0
M  V30 11305 O 1488.51 3.89332 -8.45794 0
M  V30 11306 O 1486.73 2.28472 -7.50807 0
M  V30 11307 O 1486.76 4.64972 -6.77611 0
M  V30 11308 C 1486.6 6.06319 -7.16352 0
M  V30 11309 C 1487.14 6.91731 -6.02299 0
M  V30 11310 O 1486.09 6.92449 -5.17064 0
M  V30 11311 C 1488.36 6.43627 -5.25174 0
M  V30 11312 O 1489.1 7.43686 -4.60469 0
M  V30 11313 C 1487.69 5.40275 -4.31916 0
M  V30 11314 O 1488.49 5.25279 -3.14438 0
M  V30 11315 C 1486.36 6.04847 -4.05327 0
M  V30 11316 H 1486.39 6.62195 -3.11261 0
M  V30 11317 H 1487.57 4.42556 -4.81383 0
M  V30 11318 H 1489.06 5.92458 -5.93643 0
M  V30 11319 H 1487.36 7.92655 -6.402 0
M  V30 11320 H 1487.17 6.26671 -8.0846 0
M  V30 11321 H 1485.54 6.29101 -7.32804 0
M  V30 11322 H 1488.18 5.84315 -2.47318 0
M  V30 11323 P 1490.04 7.39546 -4.75277 0
M  V30 11324 O 1491.46 7.84798 -5.01039 0
M  V30 11325 O 1489.68 5.9812 -5.08098 0
M  V30 11326 O 1489.71 7.57503 -3.1866 0
M  V30 11327 C 1489.55 8.97357 -2.74833 0
M  V30 11328 C 1490.09 9.07548 -1.32709 0
M  V30 11329 O 1489.04 8.62072 -0.606159 0
M  V30 11330 C 1491.31 8.25383 -0.938334 0
M  V30 11331 O 1492.05 8.74577 0.146954 0
M  V30 11332 C 1490.64 6.8802 -0.712559 0
M  V30 11333 O 1491.44 6.1189 0.194655 0
M  V30 11334 C 1489.31 7.27966 -0.139777 0
M  V30 11335 H 1489.34 7.25354 0.961601 0
M  V30 11336 H 1490.52 6.32557 -1.65702 0
M  V30 11337 H 1492.01 8.19355 -1.79097 0
M  V30 11338 H 1490.31 10.1294 -1.10029 0
M  V30 11339 H 1490.12 9.64276 -3.41316 0
M  V30 11340 H 1488.49 9.25417 -2.76357 0
M  V30 11341 H 1491.13 6.25267 1.07847 0
M  V30 11342 P 1492.99 8.791 1.22688e-11 0
M  V30 11343 O 1494.41 9.31096 0.027933 0
M  V30 11344 O 1492.63 7.77869 -1.04071 0
M  V30 11345 O 1492.67 8.09533 1.41463 0
M  V30 11346 C 1492.51 9.0349 2.53943 0
M  V30 11347 C 1493.05 8.35226 3.79016 0
M  V30 11348 O 1491.99 7.57992 4.15078 0
M  V30 11349 C 1494.26 7.45087 3.67298 0
M  V30 11350 O 1495 7.27796 4.85194 0
M  V30 11351 C 1493.59 6.17323 3.12027 0
M  V30 11352 O 1494.39 5.04231 3.47188 0
M  V30 11353 C 1492.26 6.19961 3.81809 0
M  V30 11354 H 1492.29 5.58218 4.73051 0
M  V30 11355 H 1493.47 6.21726 2.02589 0
M  V30 11356 H 1494.96 7.86112 2.9231 0
M  V30 11357 H 1493.26 9.11627 4.55076 0
M  V30 11358 H 1493.07 9.9573 2.34194 0
M  V30 11359 H 1491.44 9.2792 2.67832 0
M  V30 11360 H 1494.08 4.67702 4.28772 0
M  V30 11361 P 1495.94 7.39546 4.75277 0
M  V30 11362 O 1497.36 7.81777 5.05738 0
M  V30 11363 O 1495.58 7.1065 3.32998 0
M  V30 11364 O 1495.62 6.04542 5.56673 0
M  V30 11365 C 1495.46 6.22772 7.02095 0
M  V30 11366 C 1496 4.97725 7.70406 0
M  V30 11367 O 1494.94 4.13256 7.58987 0
M  V30 11368 C 1497.21 4.28231 7.11815 0
M  V30 11369 O 1497.95 3.49945 8.01648 0
M  V30 11370 C 1496.54 3.5063 5.96244 0
M  V30 11371 O 1497.34 2.36482 5.64681 0
M  V30 11372 C 1495.21 3.15122 6.56374 0
M  V30 11373 H 1495.24 2.13853 6.99751 0
M  V30 11374 H 1496.42 4.13501 5.06559 0
M  V30 11375 H 1497.91 5.03285 6.70911 0
M  V30 11376 H 1496.21 5.20877 8.75697 0
M  V30 11377 H 1496.02 7.11046 7.35349 0
M  V30 11378 H 1494.39 6.35815 7.26986 0
M  V30 11379 H 1497.03 1.61644 6.13565 0
M  V30 11380 P 1498.89 3.65191 7.99657 0
M  V30 11381 O 1500.31 3.84292 8.48206 0
M  V30 11382 O 1498.53 4.17805 6.64342 0
M  V30 11383 O 1498.57 2.07613 7.95143 0
M  V30 11384 C 1498.41 1.44344 9.27435 0
M  V30 11385 C 1498.95 0.0220036 9.17197 0
M  V30 11386 O 1497.89 -0.626794 8.61824 0
M  V30 11387 C 1500.16 -0.24586 8.30336 0
M  V30 11388 O 1500.9 -1.39011 8.63583 0
M  V30 11389 C 1499.5 -0.273849 6.91158 0
M  V30 11390 O 1500.29 -1.05728 6.029 0
M  V30 11391 C 1498.16 -0.897649 7.22545 0
M  V30 11392 N 1497.12 -0.292839 6.41732 0
M  V30 11393 C 1497.28 0.950603 5.91308 0
M  V30 11394 N 1496.26 1.37732 5.21105 0
M  V30 11395 C 1495.37 0.318109 5.26039 0
M  V30 11396 C 1494.11 0.146766 4.6727 0
M  V30 11397 N 1493.54 -1.06525 4.95887 0
M  V30 11398 C 1494.14 -2.0378 5.71347 0
M  V30 11399 N 1495.32 -1.92445 6.27451 0
M  V30 11400 C 1495.89 -0.715382 6.00353 0
M  V30 11401 H 1499.37 0.733318 6.49674 0
M  V30 11402 H 1500.86 0.60668 8.36503 0
M  V30 11403 H 1499.16 -0.362662 10.1825 0
M  V30 11404 H 1498.97 2.00611 10.0304 0
M  V30 11405 H 1497.34 1.41843 9.55327 0
M  V30 11406 H 1498.18 1.54076 6.07465 0
M  V30 11407 H 1499.98 -1.95704 6.0346 0
M  V30 11408 P 1501.84 -1.25109 8.70152 0
M  V30 11409 O 1503.26 -1.35274 9.21221 0
M  V30 11410 O 1501.48 -0.0769065 7.84762 0
M  V30 11411 O 1501.52 -2.55232 7.81161 0
M  V30 11412 C 1501.36 -3.79939 8.58154 0
M  V30 11413 C 1501.9 -4.94023 7.72785 0
M  V30 11414 O 1500.84 -5.18726 6.91205 0
M  V30 11415 C 1503.12 -4.69597 6.85231 0
M  V30 11416 O 1503.85 -5.83832 6.51337 0
M  V30 11417 C 1502.45 -3.96706 5.66633 0
M  V30 11418 O 1503.25 -4.15414 4.49689 0
M  V30 11419 C 1501.11 -4.66153 5.59313 0
M  V30 11420 H 1501.14 -5.47679 4.85214 0
M  V30 11421 H 1502.32 -2.89008 5.86566 0
M  V30 11422 H 1503.81 -4.0121 7.36511 0
M  V30 11423 H 1502.11 -5.80182 8.37584 0
M  V30 11424 H 1501.92 -3.73517 9.52265 0
M  V30 11425 H 1500.29 -3.97163 8.80359 0
M  V30 11426 H 1502.93 -4.90969 4.01921 0
M  V30 11427 P 1504.79 -5.75688 6.64379 0
M  V30 11428 O 1506.21 -6.11915 7.01921 0
M  V30 11429 O 1504.43 -4.30744 6.56026 0
M  V30 11430 O 1504.47 -6.37042 5.19165 0
M  V30 11431 C 1504.31 -7.83662 5.1657 0
M  V30 11432 C 1504.85 -8.33398 3.83019 0
M  V30 11433 O 1503.79 -8.0998 3.00999 0
M  V30 11434 C 1506.07 -7.65514 3.2257 0
M  V30 11435 O 1506.8 -8.4329 2.32297 0
M  V30 11436 C 1505.4 -6.40075 2.62207 0
M  V30 11437 O 1506.2 -5.92338 1.5428 0
M  V30 11438 C 1504.06 -6.9454 2.18503 0
M  V30 11439 N 1503.02 -5.95905 2.39948 0
M  V30 11440 C 1503.19 -4.98383 3.32108 0
M  V30 11441 N 1502.16 -4.16798 3.41761 0
M  V30 11442 C 1501.27 -4.65287 2.47461 0
M  V30 11443 C 1500.01 -4.18946 2.07461 0
M  V30 11444 N 1499.44 -4.95327 1.09101 0
M  V30 11445 C 1500.04 -6.04369 0.519812 0
M  V30 11446 N 1501.22 -6.50694 0.855982 0
M  V30 11447 C 1501.8 -5.75818 1.84322 0
M  V30 11448 H 1505.27 -5.60502 3.36589 0
M  V30 11449 H 1506.76 -7.35707 4.02681 0
M  V30 11450 H 1505.06 -9.41302 3.90009 0
M  V30 11451 H 1504.87 -8.29056 5.99158 0
M  V30 11452 H 1503.24 -8.10073 5.25882 0
M  V30 11453 H 1504.09 -4.88564 3.92502 0
M  V30 11454 H 1505.88 -6.30224 0.72668 0
M  V30 11455 P 1507.74 -8.4349 2.47671 0
M  V30 11456 O 1509.16 -8.94167 2.5964 0
M  V30 11457 O 1507.38 -7.1704 3.19006 0
M  V30 11458 O 1507.42 -8.16596 0.923387 0
M  V30 11459 C 1507.26 -9.38437 0.108857 0
M  V30 11460 C 1507.8 -9.08175 -1.28353 0
M  V30 11461 O 1506.74 -8.44229 -1.84713 0
M  V30 11462 C 1509.02 -8.18386 -1.42505 0
M  V30 11463 O 1509.75 -8.3501 -2.60497 0
M  V30 11464 C 1508.35 -6.80225 -1.25468 0
M  V30 11465 O 1509.15 -5.81621 -1.91066 0
M  V30 11466 C 1507.01 -7.02416 -1.9168 0
M  V30 11467 H 1507.04 -6.6888 -2.96621 0
M  V30 11468 H 1508.23 -6.53617 -0.192223 0
M  V30 11469 H 1509.71 -8.36622 -0.589963 0
M  V30 11470 H 1508.02 -10.0291 -1.79807 0
M  V30 11471 H 1507.83 -10.2138 0.558219 0
M  V30 11472 H 1506.2 -9.6579 0.0444202 0
M  V30 11473 H 1508.83 -5.69556 -2.79637 0
M  V30 11474 P 1510.69 -8.4349 -2.47671 0
M  V30 11475 O 1512.11 -8.92593 -2.65 0
M  V30 11476 O 1510.33 -7.7568 -1.19296 0
M  V30 11477 O 1510.37 -7.36886 -3.63805 0
M  V30 11478 C 1510.21 -7.95349 -4.982 0
M  V30 11479 C 1510.75 -6.94612 -5.98974 0
M  V30 11480 O 1509.69 -6.10347 -6.11815 0
M  V30 11481 C 1511.97 -6.11426 -5.62335 0
M  V30 11482 O 1512.7 -5.6162 -6.70584 0
M  V30 11483 C 1511.3 -5.04409 -4.73308 0
M  V30 11484 O 1512.1 -3.85992 -4.75183 0
M  V30 11485 C 1509.96 -4.8728 -5.41006 0
M  V30 11486 H 1509.99 -4.02333 -6.11157 0
M  V30 11487 H 1511.18 -5.39466 -3.69543 0
M  V30 11488 H 1512.66 -6.71916 -5.01943 0
M  V30 11489 H 1510.97 -7.4649 -6.93477 0
M  V30 11490 H 1510.78 -8.89416 -5.05237 0
M  V30 11491 H 1509.15 -8.14876 -5.18409 0
M  V30 11492 H 1511.78 -3.27957 -5.4317 0
M  V30 11493 P 1513.64 -5.75688 -6.64379 0
M  V30 11494 O 1515.04 -6.14823 -7.06682 0
M  V30 11495 O 1513.26 -5.93957 -5.20728 0
M  V30 11496 O 1513.32 -4.23169 -7.04357 0
M  V30 11497 C 1513.16 -3.99743 -8.4911 0
M  V30 11498 C 1513.7 -2.60487 -8.79329 0
M  V30 11499 O 1512.64 -1.82663 -8.44573 0
M  V30 11500 C 1514.92 -2.10343 -8.03628 0
M  V30 11501 O 1515.66 -1.09919 -8.67766 0
M  V30 11502 C 1514.25 -1.68446 -6.70876 0
M  V30 11503 O 1515.05 -0.678026 -6.08333 0
M  V30 11504 C 1512.91 -1.17436 -7.18567 0
M  V30 11505 N 1511.87 -1.52699 -6.23988 0
M  V30 11506 C 1510.83 -0.643793 -6.05085 0
M  V30 11507 O 1510.87 0.459118 -6.64315 0
M  V30 11508 N 1509.82 -0.976931 -5.22038 0
M  V30 11509 C 1509.87 -2.14429 -4.56662 0
M  V30 11510 C 1510.97 -3.04203 -4.71481 0
M  V30 11511 C 1511.93 -2.69669 -5.56838 0
M  V30 11512 H 1512.94 -0.0804622 -7.31556 0
M  V30 11513 H 1514.13 -2.53396 -6.02698 0
M  V30 11514 H 1515.61 -2.9313 -7.85914 0
M  V30 11515 H 1513.92 -2.52078 -9.87225 0
M  V30 11516 H 1513.73 -4.75072 -9.05887 0
M  V30 11517 H 1512.1 -4.05202 -8.76577 0
M  V30 11518 H 1511.01 -3.97309 -4.15519 0
M  V30 11519 H 1512.78 -3.36869 -5.72318 0
M  V30 11520 H 1514.83 0.167718 -6.44882 0
M  V30 11521 P 1516.59 -1.25109 -8.70152 0
M  V30 11522 O 1518.01 -1.29744 -9.22016 0
M  V30 11523 O 1516.23 -2.13714 -7.55141 0
M  V30 11524 O 1516.27 0.248149 -8.21425 0
M  V30 11525 C 1516.11 1.22779 -9.30434 0
M  V30 11526 C 1516.65 2.56293 -8.80664 0
M  V30 11527 O 1515.59 3.02979 -8.09349 0
M  V30 11528 C 1517.87 2.57523 -7.89775 0
M  V30 11529 O 1518.61 3.7668 -7.89438 0
M  V30 11530 C 1517.2 2.20997 -6.55446 0
M  V30 11531 O 1518 2.71895 -5.48509 0
M  V30 11532 C 1515.86 2.89693 -6.67988 0
M  V30 11533 H 1515.89 3.88793 -6.19859 0
M  V30 11534 H 1517.08 1.12046 -6.44229 0
M  V30 11535 H 1518.56 1.7746 -8.19711 0
M  V30 11536 H 1516.87 3.20706 -9.67112 0
M  V30 11537 H 1516.68 0.901032 -10.1892 0
M  V30 11538 H 1515.05 1.33049 -9.56592 0
M  V30 11539 H 1517.69 3.57847 -5.23962 0
M  V30 11540 P 1519.54 3.65191 -7.99657 0
M  V30 11541 O 1520.96 3.89374 -8.45885 0
M  V30 11542 O 1519.18 2.28472 -7.50807 0
M  V30 11543 O 1519.22 4.64972 -6.77611 0
M  V30 11544 C 1519.06 6.06383 -7.16428 0
M  V30 11545 C 1519.6 6.91731 -6.02299 0
M  V30 11546 O 1518.55 6.92369 -5.17005 0
M  V30 11547 C 1520.82 6.43627 -5.25174 0
M  V30 11548 O 1521.56 7.43686 -4.60469 0
M  V30 11549 C 1520.15 5.40275 -4.31916 0
M  V30 11550 O 1520.95 5.24878 -3.14911 0
M  V30 11551 C 1518.81 6.04847 -4.05327 0
M  V30 11552 N 1517.77 5.04166 -3.98114 0
M  V30 11553 C 1517.94 3.84629 -4.59066 0
M  V30 11554 N 1516.91 3.0363 -4.45343 0
M  V30 11555 C 1516.03 3.76722 -3.68523 0
M  V30 11556 C 1514.76 3.43528 -3.17088 0
M  V30 11557 N 1514.19 4.44526 -2.44231 0
M  V30 11558 C 1514.8 5.65243 -2.20146 0
M  V30 11559 N 1515.97 6.00221 -2.65453 0
M  V30 11560 C 1516.55 5.00564 -3.39083 0
M  V30 11561 H 1520.03 4.42969 -4.80867 0
M  V30 11562 H 1521.51 5.92458 -5.93643 0
M  V30 11563 H 1519.82 7.93295 -6.39407 0
M  V30 11564 H 1519.63 6.26671 -8.0846 0
M  V30 11565 H 1518 6.29101 -7.32804 0
M  V30 11566 H 1518.84 3.58193 -5.14248 0
M  V30 11567 H 1520.64 5.84223 -2.47279 0
M  V30 11568 P 1522.49 7.39546 -4.75277 0
M  V30 11569 O 1523.92 7.84966 -5.01146 0
M  V30 11570 O 1522.13 5.9812 -5.08098 0
M  V30 11571 O 1522.17 7.57503 -3.1866 0
M  V30 11572 C 1522.01 8.97357 -2.74833 0
M  V30 11573 C 1522.55 9.0745 -1.32694 0
M  V30 11574 O 1521.5 8.62072 -0.606159 0
M  V30 11575 C 1523.77 8.25383 -0.938334 0
M  V30 11576 O 1524.51 8.74577 0.146954 0
M  V30 11577 C 1523.1 6.8802 -0.712559 0
M  V30 11578 O 1523.9 6.11791 0.194623 0
M  V30 11579 C 1521.76 7.27966 -0.139777 0
M  V30 11580 N 1520.72 6.39368 -0.623421 0
M  V30 11581 C 1520.78 5.90299 -1.85969 0
M  V30 11582 N 1519.74 5.10919 -2.1133 0
M  V30 11583 C 1519 5.14646 -1.0015 0
M  V30 11584 C 1517.7 4.60057 -0.729219 0
M  V30 11585 O 1516.96 3.93476 -1.47746 0
M  V30 11586 N 1517.27 4.88302 0.523505 0
M  V30 11587 C 1518.02 5.63646 1.46207 0
M  V30 11588 N 1517.42 5.78186 2.69239 0
M  V30 11589 N 1519.17 6.19285 1.21544 0
M  V30 11590 C 1519.63 5.93392 -0.0308487 0
M  V30 11591 H 1521.8 7.25354 0.961601 0
M  V30 11592 H 1522.98 6.3246 -1.65676 0
M  V30 11593 H 1524.46 8.19533 -1.78278 0
M  V30 11594 H 1522.77 10.1294 -1.10029 0
M  V30 11595 H 1522.58 9.64276 -3.41316 0
M  V30 11596 H 1520.95 9.25417 -2.76357 0
M  V30 11597 H 1516.37 4.53993 0.806451 0
M  V30 11598 H 1521.58 6.11865 -2.57394 0
M  V30 11599 H 1516.51 5.34046 2.87467 0
M  V30 11600 H 1517.88 6.33391 3.42578 0
M  V30 11601 H 1523.59 6.25169 1.0783 0
M  V30 11602 P 1525.44 8.791 1.2579e-11 0
M  V30 11603 O 1526.85 9.36698 -0.018734 0
M  V30 11604 O 1525.07 7.82499 -1.07878 0
M  V30 11605 O 1525.12 8.09434 1.41446 0
M  V30 11606 C 1524.96 9.0349 2.53943 0
M  V30 11607 C 1525.5 8.35135 3.78975 0
M  V30 11608 O 1524.45 7.57904 4.1503 0
M  V30 11609 C 1526.72 7.45087 3.67298 0
M  V30 11610 O 1527.46 7.27796 4.85194 0
M  V30 11611 C 1526.05 6.17323 3.12027 0
M  V30 11612 O 1526.85 5.04149 3.47132 0
M  V30 11613 C 1524.71 6.19961 3.81809 0
M  V30 11614 N 1523.67 5.71575 2.93223 0
M  V30 11615 C 1522.64 4.99452 3.47592 0
M  V30 11616 O 1522.67 4.7199 4.69732 0
M  V30 11617 N 1521.62 4.58505 2.6803 0
M  V30 11618 C 1521.67 4.85544 1.36995 0
M  V30 11619 C 1522.77 5.55532 0.788532 0
M  V30 11620 C 1523.73 5.97426 1.60849 0
M  V30 11621 H 1524.75 5.58142 4.72986 0
M  V30 11622 H 1525.93 6.21428 2.0318 0
M  V30 11623 H 1527.41 7.85913 2.93131 0
M  V30 11624 H 1525.72 9.11171 4.55987 0
M  V30 11625 H 1525.53 9.9573 2.34194 0
M  V30 11626 H 1523.9 9.27824 2.67805 0
M  V30 11627 H 1522.82 5.7421 -0.281588 0
M  V30 11628 H 1524.58 6.53132 1.202 0
M  V30 11629 H 1526.63 4.76386 4.34983 0
M  V30 11630 P 1528.4 7.39546 4.75277 0
M  V30 11631 O 1529.82 7.81777 5.05738 0
M  V30 11632 O 1528.04 7.1065 3.32998 0
M  V30 11633 O 1528.07 6.04542 5.56673 0
M  V30 11634 C 1527.91 6.22772 7.02095 0
M  V30 11635 C 1528.45 4.97725 7.70406 0
M  V30 11636 O 1527.4 4.13256 7.58987 0
M  V30 11637 C 1529.67 4.28231 7.11815 0
M  V30 11638 O 1530.41 3.49945 8.01648 0
M  V30 11639 C 1529 3.5063 5.96244 0
M  V30 11640 O 1529.8 2.36482 5.64681 0
M  V30 11641 C 1527.66 3.15122 6.56374 0
M  V30 11642 H 1527.7 2.13853 6.99751 0
M  V30 11643 H 1528.88 4.13501 5.06559 0
M  V30 11644 H 1530.36 5.03285 6.70911 0
M  V30 11645 H 1528.67 5.20877 8.75697 0
M  V30 11646 H 1528.48 7.11046 7.35349 0
M  V30 11647 H 1526.85 6.35815 7.26986 0
M  V30 11648 H 1529.49 1.61644 6.13565 0
M  V30 11649 P 1531.35 3.65191 7.99657 0
M  V30 11650 O 1532.77 3.8425 8.48115 0
M  V30 11651 O 1530.99 4.17805 6.64342 0
M  V30 11652 O 1531.02 2.07613 7.95143 0
M  V30 11653 C 1530.86 1.44328 9.27336 0
M  V30 11654 C 1531.4 0.0220036 9.17197 0
M  V30 11655 O 1530.35 -0.626867 8.61923 0
M  V30 11656 C 1532.62 -0.24586 8.30336 0
M  V30 11657 O 1533.36 -1.39011 8.63583 0
M  V30 11658 C 1531.95 -0.273849 6.91158 0
M  V30 11659 O 1532.75 -1.06348 6.02892 0
M  V30 11660 C 1530.61 -0.897649 7.22545 0
M  V30 11661 H 1530.65 -1.9841 7.04286 0
M  V30 11662 H 1531.83 0.739928 6.497 0
M  V30 11663 H 1533.31 0.60668 8.36503 0
M  V30 11664 H 1531.62 -0.352479 10.1829 0
M  V30 11665 H 1531.43 2.00611 10.0304 0
M  V30 11666 H 1529.8 1.41843 9.55327 0
M  V30 11667 H 1532.44 -1.95734 6.03555 0
M  V30 11668 P 1534.3 -1.25109 8.70152 0
M  V30 11669 O 1535.72 -1.35274 9.21221 0
M  V30 11670 O 1533.94 -0.0769065 7.84762 0
M  V30 11671 O 1533.97 -2.55232 7.81161 0
M  V30 11672 C 1533.81 -3.79939 8.58154 0
M  V30 11673 C 1534.35 -4.94023 7.72785 0
M  V30 11674 O 1533.3 -5.18726 6.91205 0
M  V30 11675 C 1535.57 -4.69597 6.85231 0
M  V30 11676 O 1536.31 -5.83832 6.51337 0
M  V30 11677 C 1534.9 -3.96706 5.66633 0
M  V30 11678 O 1535.7 -4.15414 4.49689 0
M  V30 11679 C 1533.57 -4.66153 5.59313 0
M  V30 11680 H 1533.6 -5.47679 4.85214 0
M  V30 11681 H 1534.78 -2.89008 5.86566 0
M  V30 11682 H 1536.26 -4.0121 7.36511 0
M  V30 11683 H 1534.57 -5.80182 8.37584 0
M  V30 11684 H 1534.38 -3.73517 9.52265 0
M  V30 11685 H 1532.75 -3.97163 8.80359 0
M  V30 11686 H 1535.39 -4.90969 4.01921 0
M  V30 11687 P 1537.25 -5.75688 6.64379 0
M  V30 11688 O 1538.67 -6.11849 7.01846 0
M  V30 11689 O 1536.89 -4.30744 6.56026 0
M  V30 11690 O 1536.92 -6.37042 5.19165 0
M  V30 11691 C 1536.76 -7.83578 5.16515 0
M  V30 11692 C 1537.3 -8.33398 3.83019 0
M  V30 11693 O 1536.25 -8.10074 3.01034 0
M  V30 11694 C 1538.52 -7.65514 3.2257 0
M  V30 11695 O 1539.26 -8.4329 2.32297 0
M  V30 11696 C 1537.85 -6.40075 2.62207 0
M  V30 11697 O 1538.65 -5.92589 1.53712 0
M  V30 11698 C 1536.52 -6.9454 2.18503 0
M  V30 11699 H 1536.55 -7.23063 1.12091 0
M  V30 11700 H 1537.73 -5.6025 3.37201 0
M  V30 11701 H 1539.21 -7.35707 4.02681 0
M  V30 11702 H 1537.52 -9.40912 3.9095 0
M  V30 11703 H 1537.33 -8.29056 5.99158 0
M  V30 11704 H 1535.7 -8.10073 5.25882 0
M  V30 11705 H 1538.34 -6.30324 0.726794 0
M  V30 11706 P 1540.2 -8.4349 2.47671 0
M  V30 11707 O 1541.62 -8.94167 2.5964 0
M  V30 11708 O 1539.84 -7.1704 3.19006 0
M  V30 11709 O 1539.87 -8.16596 0.923387 0
M  V30 11710 C 1539.71 -9.38437 0.108857 0
M  V30 11711 C 1540.25 -9.08175 -1.28353 0
M  V30 11712 O 1539.2 -8.44229 -1.84713 0
M  V30 11713 C 1541.47 -8.18386 -1.42505 0
M  V30 11714 O 1542.21 -8.3501 -2.60497 0
M  V30 11715 C 1540.8 -6.80225 -1.25468 0
M  V30 11716 O 1541.6 -5.81621 -1.91066 0
M  V30 11717 C 1539.47 -7.02416 -1.9168 0
M  V30 11718 H 1539.5 -6.6888 -2.96621 0
M  V30 11719 H 1540.68 -6.53617 -0.192223 0
M  V30 11720 H 1542.17 -8.36622 -0.589963 0
M  V30 11721 H 1540.47 -10.0291 -1.79807 0
M  V30 11722 H 1540.28 -10.2138 0.558219 0
M  V30 11723 H 1538.65 -9.6579 0.0444202 0
M  V30 11724 H 1541.29 -5.69556 -2.79637 0
M  V30 11725 P 1543.15 -8.4349 -2.47671 0
M  V30 11726 O 1544.57 -8.92689 -2.65029 0
M  V30 11727 O 1542.79 -7.7568 -1.19296 0
M  V30 11728 O 1542.83 -7.36886 -3.63805 0
M  V30 11729 C 1542.66 -7.95433 -4.98253 0
M  V30 11730 C 1543.21 -6.94612 -5.98974 0
M  V30 11731 O 1542.15 -6.10277 -6.11744 0
M  V30 11732 C 1544.42 -6.11426 -5.62335 0
M  V30 11733 O 1545.16 -5.6162 -6.70584 0
M  V30 11734 C 1543.76 -5.04409 -4.73308 0
M  V30 11735 O 1544.55 -3.86404 -4.74719 0
M  V30 11736 C 1542.42 -4.8728 -5.41006 0
M  V30 11737 N 1541.37 -4.65812 -4.42377 0
M  V30 11738 C 1541.54 -5.09132 -3.15382 0
M  V30 11739 N 1540.52 -4.84021 -2.3716 0
M  V30 11740 C 1539.63 -4.18386 -3.20441 0
M  V30 11741 C 1538.36 -3.6275 -2.94905 0
M  V30 11742 N 1537.8 -3.05008 -4.05243 0
M  V30 11743 C 1538.4 -2.98348 -5.28159 0
M  V30 11744 N 1539.58 -3.48171 -5.56333 0
M  V30 11745 C 1540.15 -4.06869 -4.47212 0
M  V30 11746 H 1543.63 -5.39013 -3.70026 0
M  V30 11747 H 1545.12 -6.71916 -5.01943 0
M  V30 11748 H 1543.42 -7.45796 -6.94223 0
M  V30 11749 H 1543.23 -8.89416 -5.05237 0
M  V30 11750 H 1541.6 -8.14876 -5.18409 0
M  V30 11751 H 1542.44 -5.59989 -2.81362 0
M  V30 11752 H 1544.24 -3.27906 -5.43085 0
M  V30 11753 P 1546.1 -5.75688 -6.64379 0
M  V30 11754 O 1547.52 -6.07627 -7.05504 0
M  V30 11755 O 1545.74 -5.88047 -5.19722 0
M  V30 11756 O 1545.78 -4.2322 -7.04443 0
M  V30 11757 C 1545.62 -3.99743 -8.4911 0
M  V30 11758 C 1546.16 -2.60516 -8.79425 0
M  V30 11759 O 1545.1 -1.82684 -8.4467 0
M  V30 11760 C 1547.37 -2.10343 -8.03628 0
M  V30 11761 O 1548.11 -1.09919 -8.67766 0
M  V30 11762 C 1546.7 -1.68446 -6.70876 0
M  V30 11763 O 1547.5 -0.678137 -6.08433 0
M  V30 11764 C 1545.37 -1.17436 -7.18567 0
M  V30 11765 H 1545.4 -0.0804732 -7.31656 0
M  V30 11766 H 1546.58 -2.54037 -6.02537 0
M  V30 11767 H 1548.07 -2.93881 -7.85526 0
M  V30 11768 H 1546.37 -2.53065 -9.86973 0
M  V30 11769 H 1546.18 -4.75072 -9.05887 0
M  V30 11770 H 1544.55 -4.05244 -8.76668 0
M  V30 11771 H 1547.19 0.177647 -6.34251 0
M  V30 11772 P 1549.05 -1.25109 -8.70152 0
M  V30 11773 O 1550.47 -1.29744 -9.22016 0
M  V30 11774 O 1548.69 -2.13714 -7.55141 0
M  V30 11775 O 1548.73 0.248149 -8.21425 0
M  V30 11776 C 1548.57 1.22779 -9.30434 0
M  V30 11777 C 1549.11 2.56293 -8.80664 0
M  V30 11778 O 1548.05 3.02979 -8.09349 0
M  V30 11779 C 1550.32 2.57523 -7.89775 0
M  V30 11780 O 1551.06 3.7668 -7.89438 0
M  V30 11781 C 1549.66 2.20997 -6.55446 0
M  V30 11782 O 1550.45 2.71895 -5.48509 0
M  V30 11783 C 1548.32 2.89693 -6.67988 0
M  V30 11784 H 1548.35 3.88793 -6.19859 0
M  V30 11785 H 1549.53 1.12046 -6.44229 0
M  V30 11786 H 1551.02 1.7746 -8.19711 0
M  V30 11787 H 1549.32 3.20706 -9.67112 0
M  V30 11788 H 1549.13 0.901032 -10.1892 0
M  V30 11789 H 1547.5 1.33049 -9.56592 0
M  V30 11790 H 1550.14 3.57847 -5.23962 0
M  V30 11791 P 1552 3.65191 -7.99657 0
M  V30 11792 O 1553.42 3.89416 -8.45976 0
M  V30 11793 O 1551.64 2.28472 -7.50807 0
M  V30 11794 O 1551.68 4.64972 -6.77611 0
M  V30 11795 C 1551.52 6.06319 -7.16352 0
M  V30 11796 C 1552.06 6.91655 -6.02234 0
M  V30 11797 O 1551 6.92449 -5.17064 0
M  V30 11798 C 1553.27 6.43627 -5.25174 0
M  V30 11799 O 1554.01 7.43686 -4.60469 0
M  V30 11800 C 1552.61 5.40275 -4.31916 0
M  V30 11801 O 1553.4 5.25193 -3.14386 0
M  V30 11802 C 1551.27 6.04847 -4.05327 0
M  V30 11803 N 1550.23 5.04166 -3.98114 0
M  V30 11804 C 1550.29 3.96049 -4.75587 0
M  V30 11805 N 1549.24 3.15559 -4.54006 0
M  V30 11806 C 1548.51 3.78802 -3.62491 0
M  V30 11807 C 1547.2 3.476 -3.10071 0
M  V30 11808 O 1546.47 2.51136 -3.37021 0
M  V30 11809 N 1546.77 4.39088 -2.19956 0
M  V30 11810 C 1547.52 5.53215 -1.81733 0
M  V30 11811 N 1546.92 6.31963 -0.860928 0
M  V30 11812 N 1548.67 5.86688 -2.32562 0
M  V30 11813 C 1549.13 4.97525 -3.23407 0
M  V30 11814 H 1551.3 6.62195 -3.11261 0
M  V30 11815 H 1552.48 4.42488 -4.8131 0
M  V30 11816 H 1553.97 5.93051 -5.9305 0
M  V30 11817 H 1552.27 7.92655 -6.402 0
M  V30 11818 H 1552.08 6.26671 -8.0846 0
M  V30 11819 H 1550.45 6.29101 -7.32804 0
M  V30 11820 H 1545.88 4.25523 -1.77604 0
M  V30 11821 H 1551.08 3.75576 -5.47333 0
M  V30 11822 H 1546.01 6.04684 -0.468946 0
M  V30 11823 H 1547.39 7.18054 -0.542422 0
M  V30 11824 H 1553.09 5.84223 -2.47279 0
M  V30 11825 P 1554.95 7.39546 -4.75277 0
M  V30 11826 O 1556.37 7.84882 -5.01092 0
M  V30 11827 O 1554.59 5.9812 -5.08098 0
M  V30 11828 O 1554.63 7.57503 -3.1866 0
M  V30 11829 C 1554.47 8.97452 -2.74862 0
M  V30 11830 C 1555.01 9.07548 -1.32709 0
M  V30 11831 O 1553.95 8.61972 -0.606089 0
M  V30 11832 C 1556.23 8.25383 -0.938334 0
M  V30 11833 O 1556.96 8.74577 0.146954 0
M  V30 11834 C 1555.56 6.8802 -0.712559 0
M  V30 11835 O 1556.36 6.1181 0.188505 0
M  V30 11836 C 1554.22 7.27966 -0.139777 0
M  V30 11837 N 1553.18 6.39368 -0.623421 0
M  V30 11838 C 1553.35 5.71761 -1.78245 0
M  V30 11839 N 1552.32 4.962 -2.10491 0
M  V30 11840 C 1551.43 5.16158 -1.0635 0
M  V30 11841 C 1550.17 4.60425 -0.810266 0
M  V30 11842 N 1549.57 3.7057 -1.62914 0
M  V30 11843 N 1549.6 5.06 0.348685 0
M  V30 11844 C 1550.2 5.94532 1.20395 0
M  V30 11845 N 1551.38 6.48452 1.01191 0
M  V30 11846 C 1551.96 6.04423 -0.146291 0
M  V30 11847 H 1554.25 7.25255 0.961469 0
M  V30 11848 H 1555.43 6.32625 -1.65044 0
M  V30 11849 H 1556.92 8.19355 -1.79097 0
M  V30 11850 H 1555.22 10.1305 -1.09016 0
M  V30 11851 H 1555.03 9.64276 -3.41316 0
M  V30 11852 H 1553.4 9.25417 -2.76357 0
M  V30 11853 H 1549.67 6.21659 2.10714 0
M  V30 11854 H 1554.25 5.79354 -2.38959 0
M  V30 11855 H 1548.64 3.33174 -1.38982 0
M  V30 11856 H 1550.04 3.39714 -2.48836 0
M  V30 11857 H 1556.04 6.25169 1.0783 0
M  V30 11858 P 1557.9 8.791 1.28891e-11 0
M  V30 11859 O 1559.32 9.31096 0.027933 0
M  V30 11860 O 1557.54 7.77869 -1.04071 0
M  V30 11861 O 1557.58 8.09533 1.41463 0
M  V30 11862 C 1557.42 9.0349 2.53943 0
M  V30 11863 C 1557.96 8.35226 3.79016 0
M  V30 11864 O 1556.9 7.57992 4.15078 0
M  V30 11865 C 1559.18 7.45087 3.67298 0
M  V30 11866 O 1559.91 7.27796 4.85194 0
M  V30 11867 C 1558.51 6.17323 3.12027 0
M  V30 11868 O 1559.31 5.04231 3.47188 0
M  V30 11869 C 1557.17 6.19961 3.81809 0
M  V30 11870 H 1557.2 5.58218 4.73051 0
M  V30 11871 H 1558.38 6.21726 2.02589 0
M  V30 11872 H 1559.87 7.86112 2.9231 0
M  V30 11873 H 1558.17 9.11627 4.55076 0
M  V30 11874 H 1557.98 9.9573 2.34194 0
M  V30 11875 H 1556.35 9.2792 2.67832 0
M  V30 11876 H 1558.99 4.67702 4.28772 0
M  V30 11877 P 1560.85 7.39546 4.75277 0
M  V30 11878 O 1562.27 7.81777 5.05738 0
M  V30 11879 O 1560.49 7.1065 3.32998 0
M  V30 11880 O 1560.53 6.04542 5.56673 0
M  V30 11881 C 1560.37 6.22772 7.02095 0
M  V30 11882 C 1560.91 4.97725 7.70406 0
M  V30 11883 O 1559.85 4.13256 7.58987 0
M  V30 11884 C 1562.13 4.28231 7.11815 0
M  V30 11885 O 1562.86 3.49945 8.01648 0
M  V30 11886 C 1561.46 3.5063 5.96244 0
M  V30 11887 O 1562.26 2.36482 5.64681 0
M  V30 11888 C 1560.12 3.15122 6.56374 0
M  V30 11889 H 1560.15 2.13853 6.99751 0
M  V30 11890 H 1561.34 4.13501 5.06559 0
M  V30 11891 H 1562.82 5.03285 6.70911 0
M  V30 11892 H 1561.13 5.20877 8.75697 0
M  V30 11893 H 1560.94 7.11046 7.35349 0
M  V30 11894 H 1559.31 6.35815 7.26986 0
M  V30 11895 H 1561.94 1.61644 6.13565 0
M  V30 11896 P 1563.8 3.65191 7.99657 0
M  V30 11897 O 1565.22 3.8425 8.48115 0
M  V30 11898 O 1563.44 4.17805 6.64342 0
M  V30 11899 O 1563.48 2.07613 7.95143 0
M  V30 11900 C 1563.32 1.44328 9.27336 0
M  V30 11901 C 1563.86 0.0220036 9.17197 0
M  V30 11902 O 1562.8 -0.626867 8.61923 0
M  V30 11903 C 1565.08 -0.24586 8.30336 0
M  V30 11904 O 1565.82 -1.39011 8.63583 0
M  V30 11905 C 1564.41 -0.273849 6.91158 0
M  V30 11906 O 1565.21 -1.06348 6.02892 0
M  V30 11907 C 1563.07 -0.897649 7.22545 0
M  V30 11908 H 1563.1 -1.9841 7.04286 0
M  V30 11909 H 1564.29 0.739928 6.497 0
M  V30 11910 H 1565.77 0.60668 8.36503 0
M  V30 11911 H 1564.08 -0.352479 10.1829 0
M  V30 11912 H 1563.89 2.00611 10.0304 0
M  V30 11913 H 1562.26 1.41843 9.55327 0
M  V30 11914 H 1564.9 -1.95734 6.03555 0
M  V30 11915 P 1566.75 -1.25109 8.70152 0
M  V30 11916 O 1568.17 -1.35274 9.21221 0
M  V30 11917 O 1566.39 -0.0769065 7.84762 0
M  V30 11918 O 1566.43 -2.55232 7.81161 0
M  V30 11919 C 1566.27 -3.79939 8.58154 0
M  V30 11920 C 1566.81 -4.94023 7.72785 0
M  V30 11921 O 1565.75 -5.18726 6.91205 0
M  V30 11922 C 1568.03 -4.69597 6.85231 0
M  V30 11923 O 1568.77 -5.83832 6.51337 0
M  V30 11924 C 1567.36 -3.96706 5.66633 0
M  V30 11925 O 1568.16 -4.15414 4.49689 0
M  V30 11926 C 1566.02 -4.66153 5.59313 0
M  V30 11927 H 1566.05 -5.47679 4.85214 0
M  V30 11928 H 1567.24 -2.89008 5.86566 0
M  V30 11929 H 1568.72 -4.0121 7.36511 0
M  V30 11930 H 1567.03 -5.80182 8.37584 0
M  V30 11931 H 1566.84 -3.73517 9.52265 0
M  V30 11932 H 1565.21 -3.97163 8.80359 0
M  V30 11933 H 1567.85 -4.90969 4.01921 0
M  V30 11934 P 1569.7 -5.75688 6.64379 0
M  V30 11935 O 1571.13 -6.11981 7.01997 0
M  V30 11936 O 1569.34 -4.30744 6.56026 0
M  V30 11937 O 1569.38 -6.37042 5.19165 0
M  V30 11938 C 1569.22 -7.83578 5.16515 0
M  V30 11939 C 1569.76 -8.33307 3.82977 0
M  V30 11940 O 1568.71 -8.10074 3.01034 0
M  V30 11941 C 1570.98 -7.65514 3.2257 0
M  V30 11942 O 1571.72 -8.4329 2.32297 0
M  V30 11943 C 1570.31 -6.40075 2.62207 0
M  V30 11944 O 1571.11 -5.92492 1.53687 0
M  V30 11945 C 1568.97 -6.9454 2.18503 0
M  V30 11946 N 1567.93 -5.95905 2.39948 0
M  V30 11947 C 1567.99 -5.13994 3.44742 0
M  V30 11948 N 1566.95 -4.30684 3.46712 0
M  V30 11949 C 1566.21 -4.65583 2.41086 0
M  V30 11950 C 1564.91 -4.20877 1.99581 0
M  V30 11951 O 1564.17 -3.35913 2.52616 0
M  V30 11952 N 1564.48 -4.83271 0.873406 0
M  V30 11953 C 1565.23 -5.82006 0.185129 0
M  V30 11954 N 1564.63 -6.30619 -0.95439 0
M  V30 11955 N 1566.38 -6.28443 0.578524 0
M  V30 11956 C 1566.84 -5.68486 1.70138 0
M  V30 11957 H 1569 -7.23063 1.12091 0
M  V30 11958 H 1570.19 -5.60165 3.3715 0
M  V30 11959 H 1571.67 -7.3611 4.01946 0
M  V30 11960 H 1569.98 -9.40912 3.9095 0
M  V30 11961 H 1569.79 -8.29056 5.99158 0
M  V30 11962 H 1568.16 -8.10073 5.25882 0
M  V30 11963 H 1563.58 -4.58323 0.505262 0
M  V30 11964 H 1568.79 -5.14564 4.1935 0
M  V30 11965 H 1563.72 -5.93402 -1.25364 0
M  V30 11966 H 1565.09 -7.0425 -1.50254 0
M  V30 11967 H 1570.8 -6.30224 0.72668 0
M  V30 11968 P 1572.65 -8.4349 2.47671 0
M  V30 11969 O 1574.08 -8.94167 2.5964 0
M  V30 11970 O 1572.29 -7.1704 3.19006 0
M  V30 11971 O 1572.33 -8.16596 0.923387 0
M  V30 11972 C 1572.17 -9.38437 0.108857 0
M  V30 11973 C 1572.71 -9.08175 -1.28353 0
M  V30 11974 O 1571.65 -8.44229 -1.84713 0
M  V30 11975 C 1573.93 -8.18386 -1.42505 0
M  V30 11976 O 1574.67 -8.3501 -2.60497 0
M  V30 11977 C 1573.26 -6.80225 -1.25468 0
M  V30 11978 O 1574.06 -5.81621 -1.91066 0
M  V30 11979 C 1571.92 -7.02416 -1.9168 0
M  V30 11980 H 1571.95 -6.6888 -2.96621 0
M  V30 11981 H 1573.14 -6.53617 -0.192223 0
M  V30 11982 H 1574.62 -8.36622 -0.589963 0
M  V30 11983 H 1572.93 -10.0291 -1.79807 0
M  V30 11984 H 1572.74 -10.2138 0.558219 0
M  V30 11985 H 1571.11 -9.6579 0.0444202 0
M  V30 11986 H 1573.75 -5.69556 -2.79637 0
M  V30 11987 P 1575.6 -8.4349 -2.47671 0
M  V30 11988 O 1577.01 -8.99283 -2.62101 0
M  V30 11989 O 1575.23 -7.81195 -1.16947 0
M  V30 11990 O 1575.28 -7.36797 -3.63761 0
M  V30 11991 C 1575.12 -7.95349 -4.982 0
M  V30 11992 C 1575.66 -6.94537 -5.98908 0
M  V30 11993 O 1574.61 -6.10277 -6.11744 0
M  V30 11994 C 1576.88 -6.11426 -5.62335 0
M  V30 11995 O 1577.62 -5.6162 -6.70584 0
M  V30 11996 C 1576.21 -5.04409 -4.73308 0
M  V30 11997 O 1577.01 -3.85929 -4.75106 0
M  V30 11998 C 1574.87 -4.8728 -5.41006 0
M  V30 11999 N 1573.83 -4.65812 -4.42377 0
M  V30 12000 C 1572.8 -3.81293 -4.74224 0
M  V30 12001 O 1572.83 -3.20533 -5.83679 0
M  V30 12002 N 1571.78 -3.6442 -3.86349 0
M  V30 12003 C 1571.83 -4.2728 -2.6824 0
M  V30 12004 C 1572.93 -5.10813 -2.3217 0
M  V30 12005 C 1573.89 -5.27909 -3.22647 0
M  V30 12006 H 1574.91 -4.02278 -6.11074 0
M  V30 12007 H 1576.09 -5.39013 -3.70026 0
M  V30 12008 H 1577.57 -6.71494 -5.02675 0
M  V30 12009 H 1575.88 -7.45796 -6.94223 0
M  V30 12010 H 1575.69 -8.89416 -5.05237 0
M  V30 12011 H 1574.06 -8.14791 -5.18355 0
M  V30 12012 H 1572.98 -5.58884 -1.34755 0
M  V30 12013 H 1574.74 -5.92811 -2.9934 0
M  V30 12014 H 1576.79 -3.3454 -5.51577 0
M  V30 12015 P 1578.55 -5.75688 -6.64379 0
M  V30 12016 O 1579.98 -6.07627 -7.05504 0
M  V30 12017 O 1578.19 -5.88047 -5.19722 0
M  V30 12018 O 1578.23 -4.2322 -7.04443 0
M  V30 12019 C 1578.07 -3.99743 -8.4911 0
M  V30 12020 C 1578.61 -2.60516 -8.79425 0
M  V30 12021 O 1577.56 -1.82684 -8.4467 0
M  V30 12022 C 1579.83 -2.10343 -8.03628 0
M  V30 12023 O 1580.57 -1.09919 -8.67766 0
M  V30 12024 C 1579.16 -1.68446 -6.70876 0
M  V30 12025 O 1579.96 -0.678137 -6.08433 0
M  V30 12026 C 1577.82 -1.17436 -7.18567 0
M  V30 12027 H 1577.86 -0.0804732 -7.31656 0
M  V30 12028 H 1579.04 -2.54037 -6.02537 0
M  V30 12029 H 1580.52 -2.93881 -7.85526 0
M  V30 12030 H 1578.83 -2.53065 -9.86973 0
M  V30 12031 H 1578.64 -4.75072 -9.05887 0
M  V30 12032 H 1577.01 -4.05244 -8.76668 0
M  V30 12033 H 1579.65 0.177647 -6.34251 0
M  V30 12034 P 1581.51 -1.25109 -8.70152 0
M  V30 12035 O 1582.93 -1.29758 -9.22115 0
M  V30 12036 O 1581.15 -2.13714 -7.55141 0
M  V30 12037 O 1581.18 0.248149 -8.21425 0
M  V30 12038 C 1581.02 1.22792 -9.30533 0
M  V30 12039 C 1581.56 2.56293 -8.80664 0
M  V30 12040 O 1580.51 3.02944 -8.09255 0
M  V30 12041 C 1582.78 2.57523 -7.89775 0
M  V30 12042 O 1583.52 3.7668 -7.89438 0
M  V30 12043 C 1582.11 2.20997 -6.55446 0
M  V30 12044 O 1582.91 2.71302 -5.48691 0
M  V30 12045 C 1580.77 2.89693 -6.67988 0
M  V30 12046 N 1579.73 2.08895 -6.07487 0
M  V30 12047 C 1579.9 0.753809 -5.94137 0
M  V30 12048 N 1578.87 0.146592 -5.38801 0
M  V30 12049 C 1577.99 1.1768 -5.13693 0
M  V30 12050 C 1576.72 1.17563 -4.52477 0
M  V30 12051 N 1576.12 0.057481 -4.04759 0
M  V30 12052 N 1576.16 2.41918 -4.45789 0
M  V30 12053 C 1576.76 3.56493 -4.90792 0
M  V30 12054 N 1577.94 3.61423 -5.47817 0
M  V30 12055 C 1578.51 2.37779 -5.5588 0
M  V30 12056 H 1580.81 3.8874 -6.19774 0
M  V30 12057 H 1581.99 1.12673 -6.44018 0
M  V30 12058 H 1583.47 1.7746 -8.19711 0
M  V30 12059 H 1581.78 3.21673 -9.66791 0
M  V30 12060 H 1581.59 0.901032 -10.1892 0
M  V30 12061 H 1579.96 1.33049 -9.56592 0
M  V30 12062 H 1576.22 4.49919 -4.77947 0
M  V30 12063 H 1580.8 0.233081 -6.26266 0
M  V30 12064 H 1575.19 0.119831 -3.60801 0
M  V30 12065 H 1576.6 -0.852272 -4.12385 0
M  V30 12066 H 1582.6 3.5779 -5.23879 0
M  V30 12067 P 1584.46 3.65191 -7.99657 0
M  V30 12068 O 1585.88 3.89374 -8.45885 0
M  V30 12069 O 1584.1 2.28472 -7.50807 0
M  V30 12070 O 1584.13 4.64972 -6.77611 0
M  V30 12071 C 1583.97 6.06383 -7.16428 0
M  V30 12072 C 1584.51 6.91731 -6.02299 0
M  V30 12073 O 1583.46 6.92369 -5.17005 0
M  V30 12074 C 1585.73 6.43627 -5.25174 0
M  V30 12075 O 1586.47 7.43686 -4.60469 0
M  V30 12076 C 1585.06 5.40275 -4.31916 0
M  V30 12077 O 1585.86 5.24878 -3.14911 0
M  V30 12078 C 1583.73 6.04847 -4.05327 0
M  V30 12079 N 1582.68 5.04166 -3.98114 0
M  V30 12080 C 1582.85 3.84629 -4.59066 0
M  V30 12081 N 1581.82 3.0363 -4.45343 0
M  V30 12082 C 1580.94 3.76722 -3.68523 0
M  V30 12083 C 1579.67 3.43528 -3.17088 0
M  V30 12084 N 1579.07 2.23665 -3.37397 0
M  V30 12085 N 1579.11 4.44526 -2.44231 0
M  V30 12086 C 1579.71 5.65243 -2.20146 0
M  V30 12087 N 1580.89 6.00221 -2.65453 0
M  V30 12088 C 1581.46 5.00564 -3.39083 0
M  V30 12089 H 1583.76 6.62104 -3.11218 0
M  V30 12090 H 1584.94 4.42969 -4.80867 0
M  V30 12091 H 1586.42 5.92458 -5.93643 0
M  V30 12092 H 1584.73 7.93295 -6.39407 0
M  V30 12093 H 1584.54 6.26671 -8.0846 0
M  V30 12094 H 1582.91 6.29101 -7.32804 0
M  V30 12095 H 1579.17 6.36894 -1.5883 0
M  V30 12096 H 1583.75 3.58193 -5.14248 0
M  V30 12097 H 1578.14 2.05145 -2.97047 0
M  V30 12098 H 1579.55 1.51255 -3.92998 0
M  V30 12099 H 1585.55 5.84223 -2.47279 0
M  V30 12100 P 1587.41 7.39546 -4.75277 0
M  V30 12101 O 1588.83 7.84798 -5.01039 0
M  V30 12102 O 1587.05 5.9812 -5.08098 0
M  V30 12103 O 1587.08 7.57503 -3.1866 0
M  V30 12104 C 1586.92 8.97357 -2.74833 0
M  V30 12105 C 1587.46 9.07548 -1.32709 0
M  V30 12106 O 1586.41 8.62072 -0.606159 0
M  V30 12107 C 1588.68 8.25383 -0.938334 0
M  V30 12108 O 1589.42 8.74577 0.146954 0
M  V30 12109 C 1588.01 6.8802 -0.712559 0
M  V30 12110 O 1588.81 6.1189 0.194655 0
M  V30 12111 C 1586.68 7.27966 -0.139777 0
M  V30 12112 H 1586.71 7.25354 0.961601 0
M  V30 12113 H 1587.89 6.32557 -1.65702 0
M  V30 12114 H 1589.37 8.19355 -1.79097 0
M  V30 12115 H 1587.68 10.1294 -1.10029 0
M  V30 12116 H 1587.49 9.64276 -3.41316 0
M  V30 12117 H 1585.86 9.25417 -2.76357 0
M  V30 12118 H 1588.5 6.25267 1.07847 0
M  V30 12119 P 1590.36 8.791 1.31993e-11 0
M  V30 12120 O 1591.76 9.36698 -0.018734 0
M  V30 12121 O 1589.98 7.82499 -1.07878 0
M  V30 12122 O 1590.03 8.09434 1.41446 0
M  V30 12123 C 1589.87 9.0349 2.53943 0
M  V30 12124 C 1590.41 8.35135 3.78975 0
M  V30 12125 O 1589.36 7.57904 4.1503 0
M  V30 12126 C 1591.63 7.45087 3.67298 0
M  V30 12127 O 1592.37 7.27796 4.85194 0
M  V30 12128 C 1590.96 6.17323 3.12027 0
M  V30 12129 O 1591.76 5.04149 3.47132 0
M  V30 12130 C 1589.63 6.19961 3.81809 0
M  V30 12131 N 1588.58 5.71575 2.93223 0
M  V30 12132 C 1587.55 4.99452 3.47592 0
M  V30 12133 O 1587.59 4.7199 4.69732 0
M  V30 12134 N 1586.54 4.58505 2.6803 0
M  V30 12135 C 1586.58 4.85544 1.36995 0
M  V30 12136 C 1587.68 5.55532 0.788532 0
M  V30 12137 C 1588.65 5.97426 1.60849 0
M  V30 12138 H 1589.66 5.58142 4.72986 0
M  V30 12139 H 1590.84 6.21428 2.0318 0
M  V30 12140 H 1592.33 7.85913 2.93131 0
M  V30 12141 H 1590.63 9.11171 4.55987 0
M  V30 12142 H 1590.44 9.9573 2.34194 0
M  V30 12143 H 1588.81 9.27824 2.67805 0
M  V30 12144 H 1587.73 5.7421 -0.281588 0
M  V30 12145 H 1589.49 6.53132 1.202 0
M  V30 12146 H 1591.55 4.76386 4.34983 0
M  V30 12147 P 1593.31 7.39546 4.75277 0
M  V30 12148 O 1594.73 7.81777 5.05738 0
M  V30 12149 O 1592.95 7.1065 3.32998 0
M  V30 12150 O 1592.98 6.04542 5.56673 0
M  V30 12151 C 1592.82 6.22772 7.02095 0
M  V30 12152 C 1593.36 4.97725 7.70406 0
M  V30 12153 O 1592.31 4.13256 7.58987 0
M  V30 12154 C 1594.58 4.28231 7.11815 0
M  V30 12155 O 1595.32 3.49945 8.01648 0
M  V30 12156 C 1593.91 3.5063 5.96244 0
M  V30 12157 O 1594.71 2.36482 5.64681 0
M  V30 12158 C 1592.58 3.15122 6.56374 0
M  V30 12159 H 1592.61 2.13853 6.99751 0
M  V30 12160 H 1593.79 4.13501 5.06559 0
M  V30 12161 H 1595.28 5.03285 6.70911 0
M  V30 12162 H 1593.58 5.20877 8.75697 0
M  V30 12163 H 1593.39 7.11046 7.35349 0
M  V30 12164 H 1591.76 6.35815 7.26986 0
M  V30 12165 H 1594.4 1.61644 6.13565 0
M  V30 12166 P 1596.26 3.65191 7.99657 0
M  V30 12167 O 1597.68 3.8425 8.48115 0
M  V30 12168 O 1595.9 4.17805 6.64342 0
M  V30 12169 O 1595.94 2.07613 7.95143 0
M  V30 12170 C 1595.78 1.44328 9.27336 0
M  V30 12171 C 1596.32 0.0220036 9.17197 0
M  V30 12172 O 1595.26 -0.626867 8.61923 0
M  V30 12173 C 1597.53 -0.24586 8.30336 0
M  V30 12174 O 1598.27 -1.39011 8.63583 0
M  V30 12175 C 1596.86 -0.273849 6.91158 0
M  V30 12176 O 1597.66 -1.06348 6.02892 0
M  V30 12177 C 1595.53 -0.897649 7.22545 0
M  V30 12178 H 1595.56 -1.9841 7.04286 0
M  V30 12179 H 1596.74 0.739928 6.497 0
M  V30 12180 H 1598.23 0.60668 8.36503 0
M  V30 12181 H 1596.53 -0.352479 10.1829 0
M  V30 12182 H 1596.34 2.00611 10.0304 0
M  V30 12183 H 1594.71 1.41843 9.55327 0
M  V30 12184 H 1597.35 -1.95734 6.03555 0
M  V30 12185 P 1599.21 -1.25109 8.70152 0
M  V30 12186 O 1600.63 -1.35303 9.21419 0
M  V30 12187 O 1598.85 -0.0769065 7.84762 0
M  V30 12188 O 1598.89 -2.55232 7.81161 0
M  V30 12189 C 1598.73 -3.79939 8.58154 0
M  V30 12190 C 1599.27 -4.93969 7.72701 0
M  V30 12191 O 1598.21 -5.18726 6.91205 0
M  V30 12192 C 1600.48 -4.69597 6.85231 0
M  V30 12193 O 1601.22 -5.83832 6.51337 0
M  V30 12194 C 1599.82 -3.96706 5.66633 0
M  V30 12195 O 1600.61 -4.15346 4.49615 0
M  V30 12196 C 1598.48 -4.66153 5.59313 0
M  V30 12197 N 1597.43 -3.71582 5.24027 0
M  V30 12198 C 1597.5 -2.46018 5.67902 0
M  V30 12199 N 1596.45 -1.74868 5.24518 0
M  V30 12200 C 1595.72 -2.61333 4.54528 0
M  V30 12201 C 1594.41 -2.46162 3.95441 0
M  V30 12202 O 1593.68 -1.46013 3.94122 0
M  V30 12203 N 1593.98 -3.59334 3.34752 0
M  V30 12204 C 1594.73 -4.79605 3.3023 0
M  V30 12205 N 1594.13 -5.82109 2.6065 0
M  V30 12206 N 1595.88 -4.97402 3.8843 0
M  V30 12207 C 1596.34 -3.86258 4.50476 0
M  V30 12208 H 1598.51 -5.47679 4.85214 0
M  V30 12209 H 1599.69 -2.88964 5.86476 0
M  V30 12210 H 1601.18 -4.01947 7.36109 0
M  V30 12211 H 1599.48 -5.80182 8.37584 0
M  V30 12212 H 1599.29 -3.73517 9.52265 0
M  V30 12213 H 1597.66 -3.97163 8.80359 0
M  V30 12214 H 1593.09 -3.5825 2.90294 0
M  V30 12215 H 1598.29 -2.06161 6.30974 0
M  V30 12216 H 1593.22 -5.66979 2.15354 0
M  V30 12217 H 1594.6 -6.73686 2.54344 0
M  V30 12218 H 1600.3 -4.90891 4.01857 0
M  V30 12219 P 1602.16 -5.75688 6.64379 0
M  V30 12220 O 1603.58 -6.11849 7.01846 0
M  V30 12221 O 1601.8 -4.30744 6.56026 0
M  V30 12222 O 1601.84 -6.37042 5.19165 0
M  V30 12223 C 1601.68 -7.83578 5.16515 0
M  V30 12224 C 1602.22 -8.33398 3.83019 0
M  V30 12225 O 1601.16 -8.10074 3.01034 0
M  V30 12226 C 1603.43 -7.65514 3.2257 0
M  V30 12227 O 1604.17 -8.4329 2.32297 0
M  V30 12228 C 1602.77 -6.40075 2.62207 0
M  V30 12229 O 1603.56 -5.92589 1.53712 0
M  V30 12230 C 1601.43 -6.9454 2.18503 0
M  V30 12231 H 1601.46 -7.23063 1.12091 0
M  V30 12232 H 1602.64 -5.6025 3.37201 0
M  V30 12233 H 1604.13 -7.35707 4.02681 0
M  V30 12234 H 1602.43 -9.40912 3.9095 0
M  V30 12235 H 1602.24 -8.29056 5.99158 0
M  V30 12236 H 1600.61 -8.10073 5.25882 0
M  V30 12237 H 1603.25 -6.30324 0.726794 0
M  V30 12238 P 1605.11 -8.4349 2.47671 0
M  V30 12239 O 1606.53 -8.94167 2.5964 0
M  V30 12240 O 1604.75 -7.1704 3.19006 0
M  V30 12241 O 1604.79 -8.16596 0.923387 0
M  V30 12242 C 1604.63 -9.38437 0.108857 0
M  V30 12243 C 1605.17 -9.08175 -1.28353 0
M  V30 12244 O 1604.11 -8.44229 -1.84713 0
M  V30 12245 C 1606.39 -8.18386 -1.42505 0
M  V30 12246 O 1607.12 -8.3501 -2.60497 0
M  V30 12247 C 1605.72 -6.80225 -1.25468 0
M  V30 12248 O 1606.52 -5.81621 -1.91066 0
M  V30 12249 C 1604.38 -7.02416 -1.9168 0
M  V30 12250 H 1604.41 -6.6888 -2.96621 0
M  V30 12251 H 1605.59 -6.53617 -0.192223 0
M  V30 12252 H 1607.08 -8.36622 -0.589963 0
M  V30 12253 H 1605.38 -10.0291 -1.79807 0
M  V30 12254 H 1605.19 -10.2138 0.558219 0
M  V30 12255 H 1603.56 -9.6579 0.0444202 0
M  V30 12256 H 1606.2 -5.69556 -2.79637 0
M  V30 12257 P 1608.06 -8.4349 -2.47671 0
M  V30 12258 O 1609.48 -8.92785 -2.65057 0
M  V30 12259 O 1607.7 -7.7568 -1.19296 0
M  V30 12260 O 1607.74 -7.36886 -3.63805 0
M  V30 12261 C 1607.58 -7.95349 -4.982 0
M  V30 12262 C 1608.12 -6.94537 -5.98908 0
M  V30 12263 O 1607.06 -6.10347 -6.11815 0
M  V30 12264 C 1609.34 -6.11426 -5.62335 0
M  V30 12265 O 1610.07 -5.6162 -6.70584 0
M  V30 12266 C 1608.67 -5.04409 -4.73308 0
M  V30 12267 O 1609.47 -3.85929 -4.75106 0
M  V30 12268 C 1607.33 -4.8728 -5.41006 0
M  V30 12269 N 1606.29 -4.65812 -4.42377 0
M  V30 12270 C 1606.35 -5.27109 -3.24335 0
M  V30 12271 N 1605.3 -4.94293 -2.47735 0
M  V30 12272 C 1604.57 -4.1271 -3.23359 0
M  V30 12273 C 1603.26 -3.56384 -2.99934 0
M  V30 12274 O 1602.53 -3.69331 -2.00616 0
M  V30 12275 N 1602.83 -2.80206 -4.03316 0
M  V30 12276 C 1603.58 -2.58614 -5.2172 0
M  V30 12277 N 1602.99 -1.75154 -6.13278 0
M  V30 12278 N 1604.74 -3.13689 -5.47619 0
M  V30 12279 C 1605.19 -3.90921 -4.46436 0
M  V30 12280 H 1607.36 -4.02333 -6.11157 0
M  V30 12281 H 1608.54 -5.39383 -3.69487 0
M  V30 12282 H 1610.03 -6.71414 -5.02615 0
M  V30 12283 H 1608.33 -7.4649 -6.93477 0
M  V30 12284 H 1608.14 -8.89416 -5.05237 0
M  V30 12285 H 1606.51 -8.14876 -5.18409 0
M  V30 12286 H 1601.94 -2.36355 -3.95916 0
M  V30 12287 H 1607.14 -5.95212 -2.93859 0
M  V30 12288 H 1602.07 -1.32473 -5.91856 0
M  V30 12289 H 1603.45 -1.5588 -7.03026 0
M  V30 12290 H 1609.15 -3.27906 -5.43085 0
M  V30 12291 P 1611.01 -5.75688 -6.64379 0
M  V30 12292 O 1612.43 -6.07627 -7.05504 0
M  V30 12293 O 1610.65 -5.88047 -5.19722 0
M  V30 12294 O 1610.69 -4.2322 -7.04443 0
M  V30 12295 C 1610.53 -3.99743 -8.4911 0
M  V30 12296 C 1611.07 -2.60516 -8.79425 0
M  V30 12297 O 1610.01 -1.82684 -8.4467 0
M  V30 12298 C 1612.29 -2.10343 -8.03628 0
M  V30 12299 O 1613.02 -1.09919 -8.67766 0
M  V30 12300 C 1611.62 -1.68446 -6.70876 0
M  V30 12301 O 1612.42 -0.678137 -6.08433 0
M  V30 12302 C 1610.28 -1.17436 -7.18567 0
M  V30 12303 H 1610.31 -0.0804732 -7.31656 0
M  V30 12304 H 1611.5 -2.54037 -6.02537 0
M  V30 12305 H 1612.98 -2.93881 -7.85526 0
M  V30 12306 H 1611.29 -2.53065 -9.86973 0
M  V30 12307 H 1611.1 -4.75072 -9.05887 0
M  V30 12308 H 1609.47 -4.05244 -8.76668 0
M  V30 12309 H 1612.1 0.177647 -6.34251 0
M  V30 12310 P 1613.96 -1.25109 -8.70152 0
M  V30 12311 O 1615.38 -1.29744 -9.22016 0
M  V30 12312 O 1613.6 -2.13714 -7.55141 0
M  V30 12313 O 1613.64 0.248149 -8.21425 0
M  V30 12314 C 1613.48 1.22779 -9.30434 0
M  V30 12315 C 1614.02 2.56293 -8.80664 0
M  V30 12316 O 1612.96 3.02979 -8.09349 0
M  V30 12317 C 1615.24 2.57523 -7.89775 0
M  V30 12318 O 1615.97 3.7668 -7.89438 0
M  V30 12319 C 1614.57 2.20997 -6.55446 0
M  V30 12320 O 1615.37 2.71895 -5.48509 0
M  V30 12321 C 1613.23 2.89693 -6.67988 0
M  V30 12322 H 1613.26 3.88793 -6.19859 0
M  V30 12323 H 1614.45 1.12046 -6.44229 0
M  V30 12324 H 1615.93 1.7746 -8.19711 0
M  V30 12325 H 1614.24 3.20706 -9.67112 0
M  V30 12326 H 1614.05 0.901032 -10.1892 0
M  V30 12327 H 1612.42 1.33049 -9.56592 0
M  V30 12328 H 1615.05 3.57847 -5.23962 0
M  V30 12329 P 1616.91 3.65191 -7.99657 0
M  V30 12330 O 1618.33 3.89332 -8.45794 0
M  V30 12331 O 1616.55 2.28472 -7.50807 0
M  V30 12332 O 1616.59 4.64972 -6.77611 0
M  V30 12333 C 1616.43 6.06319 -7.16352 0
M  V30 12334 C 1616.97 6.91731 -6.02299 0
M  V30 12335 O 1615.91 6.92449 -5.17064 0
M  V30 12336 C 1618.19 6.43627 -5.25174 0
M  V30 12337 O 1618.93 7.43686 -4.60469 0
M  V30 12338 C 1617.52 5.40275 -4.31916 0
M  V30 12339 O 1618.32 5.25279 -3.14438 0
M  V30 12340 C 1616.18 6.04847 -4.05327 0
M  V30 12341 H 1616.21 6.62195 -3.11261 0
M  V30 12342 H 1617.4 4.42556 -4.81383 0
M  V30 12343 H 1618.88 5.92458 -5.93643 0
M  V30 12344 H 1617.19 7.92655 -6.402 0
M  V30 12345 H 1617 6.26671 -8.0846 0
M  V30 12346 H 1615.37 6.29101 -7.32804 0
M  V30 12347 H 1618.01 5.84315 -2.47318 0
M  V30 12348 P 1619.86 7.39546 -4.75277 0
M  V30 12349 O 1621.28 7.84798 -5.01039 0
M  V30 12350 O 1619.5 5.9812 -5.08098 0
M  V30 12351 O 1619.54 7.57503 -3.1866 0
M  V30 12352 C 1619.38 8.97357 -2.74833 0
M  V30 12353 C 1619.92 9.07548 -1.32709 0
M  V30 12354 O 1618.86 8.62072 -0.606159 0
M  V30 12355 C 1621.14 8.25383 -0.938334 0
M  V30 12356 O 1621.88 8.74577 0.146954 0
M  V30 12357 C 1620.47 6.8802 -0.712559 0
M  V30 12358 O 1621.27 6.1189 0.194655 0
M  V30 12359 C 1619.13 7.27966 -0.139777 0
M  V30 12360 H 1619.16 7.25354 0.961601 0
M  V30 12361 H 1620.35 6.32557 -1.65702 0
M  V30 12362 H 1621.83 8.19355 -1.79097 0
M  V30 12363 H 1620.14 10.1294 -1.10029 0
M  V30 12364 H 1619.95 9.64276 -3.41316 0
M  V30 12365 H 1618.32 9.25417 -2.76357 0
M  V30 12366 H 1620.96 6.25267 1.07847 0
M  V30 12367 P 1622.81 8.791 1.35095e-11 0
M  V30 12368 O 1624.24 9.31096 0.027933 0
M  V30 12369 O 1622.45 7.77869 -1.04071 0
M  V30 12370 O 1622.49 8.09533 1.41463 0
M  V30 12371 C 1622.33 9.0349 2.53943 0
M  V30 12372 C 1622.87 8.35226 3.79016 0
M  V30 12373 O 1621.81 7.57992 4.15078 0
M  V30 12374 C 1624.09 7.45087 3.67298 0
M  V30 12375 O 1624.83 7.27796 4.85194 0
M  V30 12376 C 1623.42 6.17323 3.12027 0
M  V30 12377 O 1624.22 5.04231 3.47188 0
M  V30 12378 C 1622.08 6.19961 3.81809 0
M  V30 12379 H 1622.11 5.58218 4.73051 0
M  V30 12380 H 1623.3 6.21726 2.02589 0
M  V30 12381 H 1624.78 7.86112 2.9231 0
M  V30 12382 H 1623.09 9.11627 4.55076 0
M  V30 12383 H 1622.9 9.9573 2.34194 0
M  V30 12384 H 1621.27 9.2792 2.67832 0
M  V30 12385 H 1623.91 4.67702 4.28772 0
M  V30 12386 P 1625.76 7.39546 4.75277 0
M  V30 12387 O 1627.19 7.81861 5.05793 0
M  V30 12388 O 1625.4 7.1065 3.32998 0
M  V30 12389 O 1625.44 6.04542 5.56673 0
M  V30 12390 C 1625.28 6.22839 7.02169 0
M  V30 12391 C 1625.82 4.97725 7.70406 0
M  V30 12392 O 1624.77 4.13208 7.58899 0
M  V30 12393 C 1627.04 4.28231 7.11815 0
M  V30 12394 O 1627.78 3.49945 8.01648 0
M  V30 12395 C 1626.37 3.5063 5.96244 0
M  V30 12396 O 1627.17 2.37008 5.64352 0
M  V30 12397 C 1625.03 3.15122 6.56374 0
M  V30 12398 N 1623.99 3.22311 5.55692 0
M  V30 12399 C 1624.16 3.99655 4.46046 0
M  V30 12400 N 1623.13 3.97599 3.63918 0
M  V30 12401 C 1622.25 3.11159 4.25334 0
M  V30 12402 C 1620.98 2.64972 3.85157 0
M  V30 12403 N 1620.38 3.02132 2.69405 0
M  V30 12404 N 1620.42 1.78482 4.74759 0
M  V30 12405 C 1621.02 1.37463 5.90819 0
M  V30 12406 N 1622.19 1.7733 6.31889 0
M  V30 12407 C 1622.77 2.64393 5.43725 0
M  V30 12408 H 1625.07 2.13823 6.99656 0
M  V30 12409 H 1626.25 4.12931 5.06895 0
M  V30 12410 H 1627.73 5.03285 6.70911 0
M  V30 12411 H 1626.04 5.20001 8.76217 0
M  V30 12412 H 1625.85 7.11046 7.35349 0
M  V30 12413 H 1624.22 6.35815 7.26986 0
M  V30 12414 H 1620.48 0.66574 6.53015 0
M  V30 12415 H 1625.06 4.58037 4.27732 0
M  V30 12416 H 1619.45 2.64828 2.45331 0
M  V30 12417 H 1620.86 3.67472 2.05644 0
M  V30 12418 H 1626.86 1.61619 6.13468 0
M  V30 12419 P 1628.71 3.65191 7.99657 0
M  V30 12420 O 1630.14 3.84333 8.48297 0
M  V30 12421 O 1628.35 4.17805 6.64342 0
M  V30 12422 O 1628.39 2.07613 7.95143 0
M  V30 12423 C 1628.23 1.44328 9.27336 0
M  V30 12424 C 1628.77 0.0220012 9.17097 0
M  V30 12425 O 1627.72 -0.626867 8.61923 0
M  V30 12426 C 1629.99 -0.24586 8.30336 0
M  V30 12427 O 1630.73 -1.39011 8.63583 0
M  V30 12428 C 1629.32 -0.273849 6.91158 0
M  V30 12429 O 1630.12 -1.06331 6.02794 0
M  V30 12430 C 1627.98 -0.897649 7.22545 0
M  V30 12431 N 1626.94 -0.292839 6.41732 0
M  V30 12432 C 1627 1.00068 6.10757 0
M  V30 12433 N 1625.96 1.36468 5.35794 0
M  V30 12434 C 1625.22 0.258894 5.2366 0
M  V30 12435 C 1623.92 0.0670682 4.65752 0
M  V30 12436 O 1623.18 0.902443 4.10497 0
M  V30 12437 N 1623.49 -1.2131 4.75881 0
M  V30 12438 C 1624.24 -2.24934 5.37101 0
M  V30 12439 N 1623.64 -3.48783 5.33984 0
M  V30 12440 N 1625.39 -2.0844 5.95684 0
M  V30 12441 C 1625.85 -0.81395 5.87791 0
M  V30 12442 H 1628.02 -1.9841 7.04286 0
M  V30 12443 H 1629.2 0.739815 6.49601 0
M  V30 12444 H 1630.68 0.598315 8.36563 0
M  V30 12445 H 1628.99 -0.352479 10.1829 0
M  V30 12446 H 1628.8 2.00611 10.0304 0
M  V30 12447 H 1627.17 1.41843 9.55327 0
M  V30 12448 H 1622.59 -1.44434 4.37895 0
M  V30 12449 H 1627.8 1.67697 6.42268 0
M  V30 12450 H 1622.73 -3.60543 4.87699 0
M  V30 12451 H 1624.1 -4.29232 5.7819 0
M  V30 12452 H 1629.81 -1.95704 6.0346 0
M  V30 12453 P 1631.67 -1.25109 8.70152 0
M  V30 12454 O 1633.09 -1.35274 9.21221 0
M  V30 12455 O 1631.31 -0.0769065 7.84762 0
M  V30 12456 O 1631.34 -2.55232 7.81161 0
M  V30 12457 C 1631.18 -3.79939 8.58154 0
M  V30 12458 C 1631.72 -4.94023 7.72785 0
M  V30 12459 O 1630.67 -5.18726 6.91205 0
M  V30 12460 C 1632.94 -4.69597 6.85231 0
M  V30 12461 O 1633.68 -5.83832 6.51337 0
M  V30 12462 C 1632.27 -3.96706 5.66633 0
M  V30 12463 O 1633.07 -4.15414 4.49689 0
M  V30 12464 C 1630.93 -4.66153 5.59313 0
M  V30 12465 H 1630.97 -5.47679 4.85214 0
M  V30 12466 H 1632.15 -2.89008 5.86566 0
M  V30 12467 H 1633.63 -4.0121 7.36511 0
M  V30 12468 H 1631.94 -5.80182 8.37584 0
M  V30 12469 H 1631.75 -3.73517 9.52265 0
M  V30 12470 H 1630.12 -3.97163 8.80359 0
M  V30 12471 H 1632.76 -4.90969 4.01921 0
M  V30 12472 P 1634.62 -5.75688 6.64379 0
M  V30 12473 O 1636.04 -6.11849 7.01846 0
M  V30 12474 O 1634.26 -4.30744 6.56026 0
M  V30 12475 O 1634.29 -6.37042 5.19165 0
M  V30 12476 C 1634.13 -7.83578 5.16515 0
M  V30 12477 C 1634.67 -8.33398 3.83019 0
M  V30 12478 O 1633.62 -8.10074 3.01034 0
M  V30 12479 C 1635.89 -7.65514 3.2257 0
M  V30 12480 O 1636.63 -8.4329 2.32297 0
M  V30 12481 C 1635.22 -6.40075 2.62207 0
M  V30 12482 O 1636.02 -5.92589 1.53712 0
M  V30 12483 C 1633.88 -6.9454 2.18503 0
M  V30 12484 H 1633.92 -7.23063 1.12091 0
M  V30 12485 H 1635.1 -5.6025 3.37201 0
M  V30 12486 H 1636.58 -7.35707 4.02681 0
M  V30 12487 H 1634.89 -9.40912 3.9095 0
M  V30 12488 H 1634.7 -8.29056 5.99158 0
M  V30 12489 H 1633.07 -8.10073 5.25882 0
M  V30 12490 H 1635.71 -6.30324 0.726794 0
M  V30 12491 P 1637.57 -8.4349 2.47671 0
M  V30 12492 O 1638.99 -8.94167 2.5964 0
M  V30 12493 O 1637.21 -7.1704 3.19006 0
M  V30 12494 O 1637.24 -8.16596 0.923387 0
M  V30 12495 C 1637.08 -9.38437 0.108857 0
M  V30 12496 C 1637.62 -9.08175 -1.28353 0
M  V30 12497 O 1636.57 -8.44229 -1.84713 0
M  V30 12498 C 1638.84 -8.18386 -1.42505 0
M  V30 12499 O 1639.58 -8.3501 -2.60497 0
M  V30 12500 C 1638.17 -6.80225 -1.25468 0
M  V30 12501 O 1638.97 -5.81621 -1.91066 0
M  V30 12502 C 1636.84 -7.02416 -1.9168 0
M  V30 12503 H 1636.87 -6.6888 -2.96621 0
M  V30 12504 H 1638.05 -6.53617 -0.192223 0
M  V30 12505 H 1639.53 -8.36622 -0.589963 0
M  V30 12506 H 1637.84 -10.0291 -1.79807 0
M  V30 12507 H 1637.65 -10.2138 0.558219 0
M  V30 12508 H 1636.02 -9.6579 0.0444202 0
M  V30 12509 H 1638.66 -5.69556 -2.79637 0
M  V30 12510 P 1640.52 -8.4349 -2.47671 0
M  V30 12511 O 1641.94 -8.92593 -2.65 0
M  V30 12512 O 1640.16 -7.7568 -1.19296 0
M  V30 12513 O 1640.19 -7.36886 -3.63805 0
M  V30 12514 C 1640.03 -7.95349 -4.982 0
M  V30 12515 C 1640.57 -6.94612 -5.98974 0
M  V30 12516 O 1639.52 -6.10347 -6.11815 0
M  V30 12517 C 1641.79 -6.11426 -5.62335 0
M  V30 12518 O 1642.53 -5.6162 -6.70584 0
M  V30 12519 C 1641.12 -5.04409 -4.73308 0
M  V30 12520 O 1641.92 -3.85992 -4.75183 0
M  V30 12521 C 1639.79 -4.8728 -5.41006 0
M  V30 12522 H 1639.82 -4.02333 -6.11157 0
M  V30 12523 H 1641 -5.39466 -3.69543 0
M  V30 12524 H 1642.48 -6.71916 -5.01943 0
M  V30 12525 H 1640.79 -7.4649 -6.93477 0
M  V30 12526 H 1640.6 -8.89416 -5.05237 0
M  V30 12527 H 1638.97 -8.14876 -5.18409 0
M  V30 12528 H 1641.61 -3.27957 -5.4317 0
M  V30 12529 P 1643.47 -5.75688 -6.64379 0
M  V30 12530 O 1644.89 -6.07627 -7.05504 0
M  V30 12531 O 1643.11 -5.88047 -5.19722 0
M  V30 12532 O 1643.14 -4.2322 -7.04443 0
M  V30 12533 C 1642.98 -3.99743 -8.4911 0
M  V30 12534 C 1643.52 -2.60516 -8.79425 0
M  V30 12535 O 1642.47 -1.82684 -8.4467 0
M  V30 12536 C 1644.74 -2.10343 -8.03628 0
M  V30 12537 O 1645.48 -1.09919 -8.67766 0
M  V30 12538 C 1644.07 -1.68446 -6.70876 0
M  V30 12539 O 1644.87 -0.678137 -6.08433 0
M  V30 12540 C 1642.74 -1.17436 -7.18567 0
M  V30 12541 H 1642.77 -0.0804732 -7.31656 0
M  V30 12542 H 1643.95 -2.54037 -6.02537 0
M  V30 12543 H 1645.44 -2.93881 -7.85526 0
M  V30 12544 H 1643.74 -2.53065 -9.86973 0
M  V30 12545 H 1643.55 -4.75072 -9.05887 0
M  V30 12546 H 1641.92 -4.05244 -8.76668 0
M  V30 12547 H 1644.56 0.177647 -6.34251 0
M  V30 12548 P 1646.42 -1.25109 -8.70152 0
M  V30 12549 O 1647.84 -1.29758 -9.22115 0
M  V30 12550 O 1646.06 -2.13714 -7.55141 0
M  V30 12551 O 1646.1 0.248149 -8.21425 0
M  V30 12552 C 1645.93 1.22792 -9.30533 0
M  V30 12553 C 1646.48 2.56293 -8.80664 0
M  V30 12554 O 1645.42 3.02944 -8.09255 0
M  V30 12555 C 1647.69 2.57523 -7.89775 0
M  V30 12556 O 1648.43 3.7668 -7.89438 0
M  V30 12557 C 1647.03 2.20997 -6.55446 0
M  V30 12558 O 1647.82 2.71302 -5.48691 0
M  V30 12559 C 1645.69 2.89693 -6.67988 0
M  V30 12560 N 1644.64 2.08895 -6.07487 0
M  V30 12561 C 1644.81 0.753809 -5.94137 0
M  V30 12562 N 1643.79 0.146592 -5.38801 0
M  V30 12563 C 1642.9 1.1768 -5.13693 0
M  V30 12564 C 1641.63 1.17563 -4.52477 0
M  V30 12565 N 1641.07 2.41918 -4.45789 0
M  V30 12566 C 1641.67 3.56493 -4.90792 0
M  V30 12567 N 1642.85 3.61423 -5.47817 0
M  V30 12568 C 1643.42 2.37779 -5.5588 0
M  V30 12569 H 1646.9 1.12673 -6.44018 0
M  V30 12570 H 1648.39 1.7746 -8.19711 0
M  V30 12571 H 1646.69 3.21673 -9.66791 0
M  V30 12572 H 1646.5 0.901032 -10.1892 0
M  V30 12573 H 1644.87 1.33049 -9.56592 0
M  V30 12574 H 1645.71 0.233081 -6.26266 0
M  V30 12575 H 1647.51 3.5779 -5.23879 0
M  V30 12576 P 1649.37 3.65191 -7.99657 0
M  V30 12577 O 1650.79 3.89332 -8.45794 0
M  V30 12578 O 1649.01 2.28472 -7.50807 0
M  V30 12579 O 1649.05 4.64972 -6.77611 0
M  V30 12580 C 1648.89 6.06319 -7.16352 0
M  V30 12581 C 1649.43 6.91731 -6.02299 0
M  V30 12582 O 1648.37 6.92449 -5.17064 0
M  V30 12583 C 1650.64 6.43627 -5.25174 0
M  V30 12584 O 1651.38 7.43686 -4.60469 0
M  V30 12585 C 1649.97 5.40275 -4.31916 0
M  V30 12586 O 1650.77 5.25279 -3.14438 0
M  V30 12587 C 1648.64 6.04847 -4.05327 0
M  V30 12588 H 1648.67 6.62195 -3.11261 0
M  V30 12589 H 1649.85 4.42556 -4.81383 0
M  V30 12590 H 1651.34 5.92458 -5.93643 0
M  V30 12591 H 1649.64 7.92655 -6.402 0
M  V30 12592 H 1649.45 6.26671 -8.0846 0
M  V30 12593 H 1647.82 6.29101 -7.32804 0
M  V30 12594 H 1650.46 5.84315 -2.47318 0
M  V30 12595 P 1652.32 7.39546 -4.75277 0
M  V30 12596 O 1653.74 7.84966 -5.01146 0
M  V30 12597 O 1651.96 5.9812 -5.08098 0
M  V30 12598 O 1652 7.57503 -3.1866 0
M  V30 12599 C 1651.84 8.97357 -2.74833 0
M  V30 12600 C 1652.38 9.0745 -1.32694 0
M  V30 12601 O 1651.32 8.62072 -0.606159 0
M  V30 12602 C 1653.59 8.25383 -0.938334 0
M  V30 12603 O 1654.33 8.74577 0.146954 0
M  V30 12604 C 1652.93 6.8802 -0.712559 0
M  V30 12605 O 1653.72 6.11791 0.194623 0
M  V30 12606 C 1651.59 7.27966 -0.139777 0
M  V30 12607 N 1650.55 6.39368 -0.623421 0
M  V30 12608 C 1650.61 5.90299 -1.85969 0
M  V30 12609 N 1649.56 5.10919 -2.1133 0
M  V30 12610 C 1648.83 5.14646 -1.0015 0
M  V30 12611 C 1647.52 4.60057 -0.729219 0
M  V30 12612 O 1646.79 3.93476 -1.47746 0
M  V30 12613 N 1647.09 4.88302 0.523505 0
M  V30 12614 C 1647.84 5.63646 1.46207 0
M  V30 12615 N 1647.24 5.78186 2.69239 0
M  V30 12616 N 1648.99 6.19285 1.21544 0
M  V30 12617 C 1649.45 5.93392 -0.0308487 0
M  V30 12618 H 1651.62 7.25354 0.961601 0
M  V30 12619 H 1652.8 6.3246 -1.65676 0
M  V30 12620 H 1654.29 8.19533 -1.78278 0
M  V30 12621 H 1652.59 10.1294 -1.10029 0
M  V30 12622 H 1652.4 9.64276 -3.41316 0
M  V30 12623 H 1650.77 9.25417 -2.76357 0
M  V30 12624 H 1646.2 4.53993 0.806451 0
M  V30 12625 H 1651.4 6.11865 -2.57394 0
M  V30 12626 H 1646.33 5.34046 2.87467 0
M  V30 12627 H 1647.71 6.33391 3.42578 0
M  V30 12628 H 1653.41 6.25169 1.0783 0
M  V30 12629 P 1655.27 8.791 1.38196e-11 0
M  V30 12630 O 1656.69 9.31096 0.027933 0
M  V30 12631 O 1654.91 7.77869 -1.04071 0
M  V30 12632 O 1654.95 8.09533 1.41463 0
M  V30 12633 C 1654.79 9.0349 2.53943 0
M  V30 12634 C 1655.33 8.35226 3.79016 0
M  V30 12635 O 1654.27 7.57992 4.15078 0
M  V30 12636 C 1656.54 7.45087 3.67298 0
M  V30 12637 O 1657.28 7.27796 4.85194 0
M  V30 12638 C 1655.88 6.17323 3.12027 0
M  V30 12639 O 1656.67 5.04231 3.47188 0
M  V30 12640 C 1654.54 6.19961 3.81809 0
M  V30 12641 H 1654.57 5.58218 4.73051 0
M  V30 12642 H 1655.75 6.21726 2.02589 0
M  V30 12643 H 1657.24 7.86112 2.9231 0
M  V30 12644 H 1655.54 9.11627 4.55076 0
M  V30 12645 H 1655.35 9.9573 2.34194 0
M  V30 12646 H 1653.72 9.2792 2.67832 0
M  V30 12647 H 1656.36 4.67702 4.28772 0
M  V30 12648 P 1658.22 7.39546 4.75277 0
M  V30 12649 O 1659.64 7.81777 5.05738 0
M  V30 12650 O 1657.86 7.1065 3.32998 0
M  V30 12651 O 1657.9 6.04542 5.56673 0
M  V30 12652 C 1657.74 6.22772 7.02095 0
M  V30 12653 C 1658.28 4.97725 7.70406 0
M  V30 12654 O 1657.22 4.13256 7.58987 0
M  V30 12655 C 1659.5 4.28231 7.11815 0
M  V30 12656 O 1660.23 3.49945 8.01648 0
M  V30 12657 C 1658.83 3.5063 5.96244 0
M  V30 12658 O 1659.63 2.36482 5.64681 0
M  V30 12659 C 1657.49 3.15122 6.56374 0
M  V30 12660 H 1657.52 2.13853 6.99751 0
M  V30 12661 H 1658.7 4.13501 5.06559 0
M  V30 12662 H 1660.19 5.03285 6.70911 0
M  V30 12663 H 1658.49 5.20877 8.75697 0
M  V30 12664 H 1658.3 7.11046 7.35349 0
M  V30 12665 H 1656.67 6.35815 7.26986 0
M  V30 12666 H 1659.31 1.61644 6.13565 0
M  V30 12667 P 1661.17 3.65191 7.99657 0
M  V30 12668 O 1662.59 3.8425 8.48115 0
M  V30 12669 O 1660.81 4.17805 6.64342 0
M  V30 12670 O 1660.85 2.07613 7.95143 0
M  V30 12671 C 1660.69 1.44328 9.27336 0
M  V30 12672 C 1661.23 0.0220036 9.17197 0
M  V30 12673 O 1660.17 -0.626867 8.61923 0
M  V30 12674 C 1662.45 -0.24586 8.30336 0
M  V30 12675 O 1663.18 -1.39011 8.63583 0
M  V30 12676 C 1661.78 -0.273849 6.91158 0
M  V30 12677 O 1662.58 -1.06348 6.02892 0
M  V30 12678 C 1660.44 -0.897649 7.22545 0
M  V30 12679 H 1660.47 -1.9841 7.04286 0
M  V30 12680 H 1661.65 0.739928 6.497 0
M  V30 12681 H 1663.14 0.60668 8.36503 0
M  V30 12682 H 1661.44 -0.352479 10.1829 0
M  V30 12683 H 1661.25 2.00611 10.0304 0
M  V30 12684 H 1659.62 1.41843 9.55327 0
M  V30 12685 H 1662.26 -1.95734 6.03555 0
M  V30 12686 P 1664.12 -1.25109 8.70152 0
M  V30 12687 O 1665.54 -1.35303 9.21419 0
M  V30 12688 O 1663.76 -0.0769065 7.84762 0
M  V30 12689 O 1663.8 -2.55232 7.81161 0
M  V30 12690 C 1663.64 -3.79939 8.58154 0
M  V30 12691 C 1664.18 -4.93969 7.72701 0
M  V30 12692 O 1663.12 -5.18726 6.91205 0
M  V30 12693 C 1665.4 -4.69597 6.85231 0
M  V30 12694 O 1666.13 -5.83832 6.51337 0
M  V30 12695 C 1664.73 -3.96706 5.66633 0
M  V30 12696 O 1665.53 -4.15346 4.49615 0
M  V30 12697 C 1663.39 -4.66153 5.59313 0
M  V30 12698 N 1662.35 -3.71582 5.24027 0
M  V30 12699 C 1662.41 -2.46018 5.67902 0
M  V30 12700 N 1661.36 -1.74868 5.24518 0
M  V30 12701 C 1660.63 -2.61333 4.54528 0
M  V30 12702 C 1659.32 -2.46162 3.95441 0
M  V30 12703 O 1658.59 -1.46013 3.94122 0
M  V30 12704 N 1658.89 -3.59334 3.34752 0
M  V30 12705 C 1659.64 -4.79605 3.3023 0
M  V30 12706 N 1659.05 -5.82109 2.6065 0
M  V30 12707 N 1660.8 -4.97402 3.8843 0
M  V30 12708 C 1661.25 -3.86258 4.50476 0
M  V30 12709 H 1663.42 -5.47679 4.85214 0
M  V30 12710 H 1664.61 -2.88964 5.86476 0
M  V30 12711 H 1666.09 -4.01947 7.36109 0
M  V30 12712 H 1664.4 -5.80182 8.37584 0
M  V30 12713 H 1664.21 -3.73517 9.52265 0
M  V30 12714 H 1662.57 -3.97163 8.80359 0
M  V30 12715 H 1658 -3.5825 2.90294 0
M  V30 12716 H 1663.21 -2.06161 6.30974 0
M  V30 12717 H 1658.14 -5.66979 2.15354 0
M  V30 12718 H 1659.51 -6.73686 2.54344 0
M  V30 12719 H 1665.22 -4.90891 4.01857 0
M  V30 12720 P 1667.07 -5.75688 6.64379 0
M  V30 12721 O 1668.49 -6.11849 7.01846 0
M  V30 12722 O 1666.71 -4.30744 6.56026 0
M  V30 12723 O 1666.75 -6.37042 5.19165 0
M  V30 12724 C 1666.59 -7.83578 5.16515 0
M  V30 12725 C 1667.13 -8.33398 3.83019 0
M  V30 12726 O 1666.07 -8.10074 3.01034 0
M  V30 12727 C 1668.35 -7.65514 3.2257 0
M  V30 12728 O 1669.09 -8.4329 2.32297 0
M  V30 12729 C 1667.68 -6.40075 2.62207 0
M  V30 12730 O 1668.48 -5.92589 1.53712 0
M  V30 12731 C 1666.34 -6.9454 2.18503 0
M  V30 12732 H 1666.37 -7.23063 1.12091 0
M  V30 12733 H 1667.56 -5.6025 3.37201 0
M  V30 12734 H 1669.04 -7.35707 4.02681 0
M  V30 12735 H 1667.35 -9.40912 3.9095 0
M  V30 12736 H 1667.16 -8.29056 5.99158 0
M  V30 12737 H 1665.53 -8.10073 5.25882 0
M  V30 12738 H 1668.17 -6.30324 0.726794 0
M  V30 12739 P 1670.02 -8.4349 2.47671 0
M  V30 12740 O 1671.42 -8.98227 2.65696 0
M  V30 12741 O 1669.64 -7.20409 3.23964 0
M  V30 12742 O 1669.7 -8.16496 0.923275 0
M  V30 12743 C 1669.54 -9.38437 0.108857 0
M  V30 12744 C 1670.08 -9.08076 -1.28339 0
M  V30 12745 O 1669.02 -8.44131 -1.84692 0
M  V30 12746 C 1671.3 -8.18386 -1.42505 0
M  V30 12747 O 1672.04 -8.3501 -2.60497 0
M  V30 12748 C 1670.63 -6.80225 -1.25468 0
M  V30 12749 O 1671.43 -5.81526 -1.91035 0
M  V30 12750 C 1669.29 -7.02416 -1.9168 0
M  V30 12751 N 1668.25 -6.31033 -1.20314 0
M  V30 12752 C 1667.21 -5.77149 -1.928 0
M  V30 12753 O 1667.25 -5.8521 -3.17729 0
M  V30 12754 N 1666.2 -5.15445 -1.27997 0
M  V30 12755 C 1666.25 -5.04472 0.0534726 0
M  V30 12756 C 1667.35 -5.55244 0.808522 0
M  V30 12757 C 1668.31 -6.18542 0.13981 0
M  V30 12758 H 1669.32 -6.68789 -2.9658 0
M  V30 12759 H 1670.51 -6.53498 -0.198729 0
M  V30 12760 H 1671.99 -8.36663 -0.5984 0
M  V30 12761 H 1670.3 -10.0273 -1.8081 0
M  V30 12762 H 1670.11 -10.2138 0.558219 0
M  V30 12763 H 1668.48 -9.6569 0.0444156 0
M  V30 12764 H 1667.39 -5.43017 1.88792 0
M  V30 12765 H 1669.16 -6.60539 0.686773 0
M  V30 12766 H 1671.21 -5.79638 -2.8315 0
M  V30 12767 P 1672.97 -8.4349 -2.47671 0
M  V30 12768 O 1674.4 -8.92593 -2.65 0
M  V30 12769 O 1672.61 -7.7568 -1.19296 0
M  V30 12770 O 1672.65 -7.36886 -3.63805 0
M  V30 12771 C 1672.49 -7.95349 -4.982 0
M  V30 12772 C 1673.03 -6.94612 -5.98974 0
M  V30 12773 O 1671.97 -6.10347 -6.11815 0
M  V30 12774 C 1674.25 -6.11426 -5.62335 0
M  V30 12775 O 1674.99 -5.6162 -6.70584 0
M  V30 12776 C 1673.58 -5.04409 -4.73308 0
M  V30 12777 O 1674.38 -3.85992 -4.75183 0
M  V30 12778 C 1672.24 -4.8728 -5.41006 0
M  V30 12779 H 1672.27 -4.02333 -6.11157 0
M  V30 12780 H 1673.46 -5.39466 -3.69543 0
M  V30 12781 H 1674.94 -6.71916 -5.01943 0
M  V30 12782 H 1673.25 -7.4649 -6.93477 0
M  V30 12783 H 1673.06 -8.89416 -5.05237 0
M  V30 12784 H 1671.43 -8.14876 -5.18409 0
M  V30 12785 H 1674.07 -3.27957 -5.4317 0
M  V30 12786 P 1675.92 -5.75688 -6.64379 0
M  V30 12787 O 1677.35 -6.07627 -7.05504 0
M  V30 12788 O 1675.56 -5.88047 -5.19722 0
M  V30 12789 O 1675.6 -4.2322 -7.04443 0
M  V30 12790 C 1675.44 -3.99743 -8.4911 0
M  V30 12791 C 1675.98 -2.60516 -8.79425 0
M  V30 12792 O 1674.92 -1.82684 -8.4467 0
M  V30 12793 C 1677.2 -2.10343 -8.03628 0
M  V30 12794 O 1677.94 -1.09919 -8.67766 0
M  V30 12795 C 1676.53 -1.68446 -6.70876 0
M  V30 12796 O 1677.33 -0.678137 -6.08433 0
M  V30 12797 C 1675.19 -1.17436 -7.18567 0
M  V30 12798 H 1675.22 -0.0804732 -7.31656 0
M  V30 12799 H 1676.41 -2.54037 -6.02537 0
M  V30 12800 H 1677.89 -2.93881 -7.85526 0
M  V30 12801 H 1676.2 -2.53065 -9.86973 0
M  V30 12802 H 1676.01 -4.75072 -9.05887 0
M  V30 12803 H 1674.38 -4.05244 -8.76668 0
M  V30 12804 H 1677.02 0.177647 -6.34251 0
M  V30 12805 P 1678.87 -1.25109 -8.70152 0
M  V30 12806 O 1680.3 -1.29772 -9.22214 0
M  V30 12807 O 1678.51 -2.13714 -7.55141 0
M  V30 12808 O 1678.55 0.248149 -8.21425 0
M  V30 12809 C 1678.39 1.22779 -9.30434 0
M  V30 12810 C 1678.93 2.56265 -8.80568 0
M  V30 12811 O 1677.88 3.02979 -8.09349 0
M  V30 12812 C 1680.15 2.57523 -7.89775 0
M  V30 12813 O 1680.89 3.7668 -7.89438 0
M  V30 12814 C 1679.48 2.20997 -6.55446 0
M  V30 12815 O 1680.28 2.71851 -5.48419 0
M  V30 12816 C 1678.14 2.89693 -6.67988 0
M  V30 12817 N 1677.1 2.08895 -6.07487 0
M  V30 12818 C 1677.16 0.760559 -6.14209 0
M  V30 12819 N 1676.12 0.200108 -5.52538 0
M  V30 12820 C 1675.38 1.22692 -5.09742 0
M  V30 12821 C 1674.08 1.24782 -4.48775 0
M  V30 12822 O 1673.34 0.290617 -4.19294 0
M  V30 12823 N 1673.65 2.50468 -4.22428 0
M  V30 12824 C 1674.4 3.67142 -4.51974 0
M  V30 12825 N 1673.8 4.85096 -4.14091 0
M  V30 12826 N 1675.55 3.67821 -5.12831 0
M  V30 12827 C 1676.01 2.43698 -5.4105 0
M  V30 12828 H 1678.18 3.88793 -6.19859 0
M  V30 12829 H 1679.36 1.12029 -6.4413 0
M  V30 12830 H 1680.84 1.78279 -8.19533 0
M  V30 12831 H 1679.15 3.20706 -9.67112 0
M  V30 12832 H 1678.96 0.901032 -10.1892 0
M  V30 12833 H 1677.33 1.33049 -9.56592 0
M  V30 12834 H 1672.75 2.61953 -3.79465 0
M  V30 12835 H 1677.96 0.200439 -6.63497 0
M  V30 12836 H 1672.89 4.8334 -3.66367 0
M  V30 12837 H 1674.26 5.7474 -4.33841 0
M  V30 12838 H 1679.97 3.5779 -5.23879 0
M  V30 12839 P 1681.82 3.65191 -7.99657 0
M  V30 12840 O 1683.23 3.87414 -8.52829 0
M  V30 12841 O 1681.45 2.26932 -7.566 0
M  V30 12842 O 1681.5 4.64915 -6.77529 0
M  V30 12843 C 1681.34 6.06319 -7.16352 0
M  V30 12844 C 1681.88 6.91655 -6.02234 0
M  V30 12845 O 1680.83 6.92369 -5.17005 0
M  V30 12846 C 1683.1 6.43627 -5.25174 0
M  V30 12847 O 1683.84 7.43686 -4.60469 0
M  V30 12848 C 1682.43 5.40275 -4.31916 0
M  V30 12849 O 1683.23 5.25193 -3.14386 0
M  V30 12850 C 1681.09 6.04847 -4.05327 0
M  V30 12851 N 1680.05 5.04166 -3.98114 0
M  V30 12852 C 1679.02 5.2366 -3.09923 0
M  V30 12853 O 1679.05 6.23355 -2.34204 0
M  V30 12854 N 1678 4.34279 -3.05727 0
M  V30 12855 C 1678.05 3.26317 -3.84756 0
M  V30 12856 C 1679.15 3.02504 -4.72573 0
M  V30 12857 C 1680.11 3.94493 -4.76618 0
M  V30 12858 H 1681.13 6.62104 -3.11218 0
M  V30 12859 H 1682.31 4.42969 -4.80867 0
M  V30 12860 H 1683.79 5.93122 -5.93121 0
M  V30 12861 H 1682.1 7.93295 -6.39407 0
M  V30 12862 H 1681.91 6.26671 -8.0846 0
M  V30 12863 H 1680.28 6.29036 -7.32728 0
M  V30 12864 H 1679.2 2.12921 -5.34017 0
M  V30 12865 H 1680.96 3.80658 -5.44176 0
M  V30 12866 H 1683.01 5.93572 -2.52637 0
M  V30 12867 P 1684.78 7.39546 -4.75277 0
M  V30 12868 O 1686.2 7.84798 -5.01039 0
M  V30 12869 O 1684.42 5.9812 -5.08098 0
M  V30 12870 O 1684.45 7.57503 -3.1866 0
M  V30 12871 C 1684.29 8.97357 -2.74833 0
M  V30 12872 C 1684.83 9.07548 -1.32709 0
M  V30 12873 O 1683.78 8.62072 -0.606159 0
M  V30 12874 C 1686.05 8.25383 -0.938334 0
M  V30 12875 O 1686.79 8.74577 0.146954 0
M  V30 12876 C 1685.38 6.8802 -0.712559 0
M  V30 12877 O 1686.18 6.1189 0.194655 0
M  V30 12878 C 1684.04 7.27966 -0.139777 0
M  V30 12879 H 1684.08 7.25354 0.961601 0
M  V30 12880 H 1685.26 6.32557 -1.65702 0
M  V30 12881 H 1686.74 8.19355 -1.79097 0
M  V30 12882 H 1685.05 10.1294 -1.10029 0
M  V30 12883 H 1684.86 9.64276 -3.41316 0
M  V30 12884 H 1683.23 9.25417 -2.76357 0
M  V30 12885 H 1685.87 6.25267 1.07847 0
M  V30 12886 P 1687.73 8.791 1.41298e-11 0
M  V30 12887 O 1689.15 9.31096 0.027933 0
M  V30 12888 O 1687.37 7.77869 -1.04071 0
M  V30 12889 O 1687.4 8.09533 1.41463 0
M  V30 12890 C 1687.24 9.0349 2.53943 0
M  V30 12891 C 1687.78 8.35226 3.79016 0
M  V30 12892 O 1686.73 7.57992 4.15078 0
M  V30 12893 C 1689 7.45087 3.67298 0
M  V30 12894 O 1689.74 7.27796 4.85194 0
M  V30 12895 C 1688.33 6.17323 3.12027 0
M  V30 12896 O 1689.13 5.04231 3.47188 0
M  V30 12897 C 1687 6.19961 3.81809 0
M  V30 12898 H 1687.03 5.58218 4.73051 0
M  V30 12899 H 1688.21 6.21726 2.02589 0
M  V30 12900 H 1689.69 7.86112 2.9231 0
M  V30 12901 H 1688 9.11627 4.55076 0
M  V30 12902 H 1687.81 9.9573 2.34194 0
M  V30 12903 H 1686.18 9.2792 2.67832 0
M  V30 12904 H 1688.82 4.67702 4.28772 0
M  V30 12905 P 1690.68 7.39546 4.75277 0
M  V30 12906 O 1692.1 7.81777 5.05738 0
M  V30 12907 O 1690.32 7.1065 3.32998 0
M  V30 12908 O 1690.35 6.04542 5.56673 0
M  V30 12909 C 1690.19 6.22772 7.02095 0
M  V30 12910 C 1690.73 4.97725 7.70406 0
M  V30 12911 O 1689.68 4.13256 7.58987 0
M  V30 12912 C 1691.95 4.28231 7.11815 0
M  V30 12913 O 1692.69 3.49945 8.01648 0
M  V30 12914 C 1691.28 3.5063 5.96244 0
M  V30 12915 O 1692.08 2.36482 5.64681 0
M  V30 12916 C 1689.95 3.15122 6.56374 0
M  V30 12917 H 1689.98 2.13853 6.99751 0
M  V30 12918 H 1691.16 4.13501 5.06559 0
M  V30 12919 H 1692.64 5.03285 6.70911 0
M  V30 12920 H 1690.95 5.20877 8.75697 0
M  V30 12921 H 1690.76 7.11046 7.35349 0
M  V30 12922 H 1689.13 6.35815 7.26986 0
M  V30 12923 H 1691.77 1.61644 6.13565 0
M  V30 12924 P 1693.63 3.65191 7.99657 0
M  V30 12925 O 1695.05 3.8425 8.48115 0
M  V30 12926 O 1693.27 4.17805 6.64342 0
M  V30 12927 O 1693.3 2.07613 7.95143 0
M  V30 12928 C 1693.14 1.44328 9.27336 0
M  V30 12929 C 1693.68 0.0220036 9.17197 0
M  V30 12930 O 1692.63 -0.626867 8.61923 0
M  V30 12931 C 1694.9 -0.24586 8.30336 0
M  V30 12932 O 1695.64 -1.39011 8.63583 0
M  V30 12933 C 1694.23 -0.273849 6.91158 0
M  V30 12934 O 1695.03 -1.06348 6.02892 0
M  V30 12935 C 1692.9 -0.897649 7.22545 0
M  V30 12936 H 1692.93 -1.9841 7.04286 0
M  V30 12937 H 1694.11 0.739928 6.497 0
M  V30 12938 H 1695.6 0.60668 8.36503 0
M  V30 12939 H 1693.9 -0.352479 10.1829 0
M  V30 12940 H 1693.71 2.00611 10.0304 0
M  V30 12941 H 1692.08 1.41843 9.55327 0
M  V30 12942 H 1694.72 -1.95734 6.03555 0
M  V30 12943 P 1696.58 -1.25109 8.70152 0
M  V30 12944 O 1698 -1.35274 9.21221 0
M  V30 12945 O 1696.22 -0.0769065 7.84762 0
M  V30 12946 O 1696.25 -2.55232 7.81161 0
M  V30 12947 C 1696.09 -3.79939 8.58154 0
M  V30 12948 C 1696.63 -4.94023 7.72785 0
M  V30 12949 O 1695.58 -5.18726 6.91205 0
M  V30 12950 C 1697.85 -4.69597 6.85231 0
M  V30 12951 O 1698.59 -5.83832 6.51337 0
M  V30 12952 C 1697.18 -3.96706 5.66633 0
M  V30 12953 O 1697.98 -4.15414 4.49689 0
M  V30 12954 C 1695.85 -4.66153 5.59313 0
M  V30 12955 H 1695.88 -5.47679 4.85214 0
M  V30 12956 H 1697.06 -2.89008 5.86566 0
M  V30 12957 H 1698.55 -4.0121 7.36511 0
M  V30 12958 H 1696.85 -5.80182 8.37584 0
M  V30 12959 H 1696.66 -3.73517 9.52265 0
M  V30 12960 H 1695.03 -3.97163 8.80359 0
M  V30 12961 H 1697.67 -4.90969 4.01921 0
M  V30 12962 P 1699.53 -5.75688 6.64379 0
M  V30 12963 O 1700.93 -6.11991 7.09136 0
M  V30 12964 O 1699.15 -4.30899 6.62018 0
M  V30 12965 O 1699.21 -6.36965 5.19102 0
M  V30 12966 C 1699.05 -7.83578 5.16515 0
M  V30 12967 C 1699.59 -8.33307 3.82977 0
M  V30 12968 O 1698.53 -8.0998 3.00999 0
M  V30 12969 C 1700.8 -7.65514 3.2257 0
M  V30 12970 O 1701.54 -8.4329 2.32297 0
M  V30 12971 C 1700.14 -6.40075 2.62207 0
M  V30 12972 O 1700.93 -5.92492 1.53687 0
M  V30 12973 C 1698.8 -6.9454 2.18503 0
M  V30 12974 N 1697.75 -5.95905 2.39948 0
M  V30 12975 C 1696.72 -5.89764 1.49837 0
M  V30 12976 O 1696.76 -6.64088 0.490975 0
M  V30 12977 N 1695.71 -5.02821 1.70992 0
M  V30 12978 C 1695.76 -4.21498 2.77236 0
M  V30 12979 C 1696.85 -4.23389 3.68205 0
M  V30 12980 C 1697.82 -5.12792 3.46171 0
M  V30 12981 H 1698.83 -7.22964 1.12076 0
M  V30 12982 H 1700.01 -5.60502 3.36589 0
M  V30 12983 H 1701.5 -7.36197 4.01993 0
M  V30 12984 H 1699.8 -9.41302 3.90009 0
M  V30 12985 H 1699.61 -8.29056 5.99158 0
M  V30 12986 H 1697.98 -8.09989 5.25828 0
M  V30 12987 H 1696.9 -3.54747 4.52399 0
M  V30 12988 H 1698.66 -5.18551 4.1489 0
M  V30 12989 H 1700.72 -6.40705 0.751752 0
M  V30 12990 P 1702.48 -8.4349 2.47671 0
M  V30 12991 O 1703.9 -8.94359 2.59696 0
M  V30 12992 O 1702.12 -7.1704 3.19006 0
M  V30 12993 O 1702.16 -8.16596 0.923387 0
M  V30 12994 C 1702 -9.38437 0.108857 0
M  V30 12995 C 1702.54 -9.08076 -1.28339 0
M  V30 12996 O 1701.48 -8.44229 -1.84713 0
M  V30 12997 C 1703.75 -8.18386 -1.42505 0
M  V30 12998 O 1704.49 -8.3501 -2.60497 0
M  V30 12999 C 1703.09 -6.80225 -1.25468 0
M  V30 13000 O 1703.88 -5.81526 -1.91035 0
M  V30 13001 C 1701.75 -7.02416 -1.9168 0
M  V30 13002 N 1700.7 -6.31033 -1.20314 0
M  V30 13003 C 1700.77 -6.18781 0.121293 0
M  V30 13004 N 1699.72 -5.49762 0.588272 0
M  V30 13005 C 1698.99 -5.22015 -0.488988 0
M  V30 13006 C 1697.68 -4.61966 -0.596448 0
M  V30 13007 O 1696.95 -4.19162 0.309059 0
M  V30 13008 N 1697.25 -4.53773 -1.878 0
M  V30 13009 C 1698 -4.99623 -2.99082 0
M  V30 13010 N 1697.4 -4.78912 -4.21227 0
M  V30 13011 N 1699.15 -5.59957 -2.91093 0
M  V30 13012 C 1699.61 -5.70225 -1.64218 0
M  V30 13013 H 1701.78 -6.6888 -2.96621 0
M  V30 13014 H 1702.96 -6.53517 -0.192194 0
M  V30 13015 H 1704.45 -8.36563 -0.598329 0
M  V30 13016 H 1702.75 -10.0291 -1.79807 0
M  V30 13017 H 1702.56 -10.2138 0.558219 0
M  V30 13018 H 1700.93 -9.6579 0.0444202 0
M  V30 13019 H 1696.36 -4.12883 -2.05283 0
M  V30 13020 H 1701.56 -6.59596 0.745856 0
M  V30 13021 H 1696.49 -4.31425 -4.2628 0
M  V30 13022 H 1697.87 -5.11219 -5.07148 0
M  V30 13023 H 1703.57 -5.69466 -2.79593 0
M  V30 13024 P 1705.43 -8.4349 -2.47671 0
M  V30 13025 O 1706.85 -8.92593 -2.65 0
M  V30 13026 O 1705.07 -7.7568 -1.19296 0
M  V30 13027 O 1705.11 -7.36886 -3.63805 0
M  V30 13028 C 1704.95 -7.95349 -4.982 0
M  V30 13029 C 1705.49 -6.94612 -5.98974 0
M  V30 13030 O 1704.43 -6.10347 -6.11815 0
M  V30 13031 C 1706.7 -6.11426 -5.62335 0
M  V30 13032 O 1707.44 -5.6162 -6.70584 0
M  V30 13033 C 1706.04 -5.04409 -4.73308 0
M  V30 13034 O 1706.83 -3.85992 -4.75183 0
M  V30 13035 C 1704.7 -4.8728 -5.41006 0
M  V30 13036 H 1704.73 -4.02333 -6.11157 0
M  V30 13037 H 1705.91 -5.39466 -3.69543 0
M  V30 13038 H 1707.4 -6.71916 -5.01943 0
M  V30 13039 H 1705.7 -7.4649 -6.93477 0
M  V30 13040 H 1705.51 -8.89416 -5.05237 0
M  V30 13041 H 1703.88 -8.14876 -5.18409 0
M  V30 13042 H 1706.52 -3.27957 -5.4317 0
M  V30 13043 P 1708.38 -5.75688 -6.64379 0
M  V30 13044 O 1709.8 -6.07627 -7.05504 0
M  V30 13045 O 1708.02 -5.88047 -5.19722 0
M  V30 13046 O 1708.06 -4.2322 -7.04443 0
M  V30 13047 C 1707.9 -3.99743 -8.4911 0
M  V30 13048 C 1708.44 -2.60516 -8.79425 0
M  V30 13049 O 1707.38 -1.82684 -8.4467 0
M  V30 13050 C 1709.66 -2.10343 -8.03628 0
M  V30 13051 O 1710.39 -1.09919 -8.67766 0
M  V30 13052 C 1708.99 -1.68446 -6.70876 0
M  V30 13053 O 1709.79 -0.678137 -6.08433 0
M  V30 13054 C 1707.65 -1.17436 -7.18567 0
M  V30 13055 H 1707.68 -0.0804732 -7.31656 0
M  V30 13056 H 1708.86 -2.54037 -6.02537 0
M  V30 13057 H 1710.35 -2.93881 -7.85526 0
M  V30 13058 H 1708.65 -2.53065 -9.86973 0
M  V30 13059 H 1708.46 -4.75072 -9.05887 0
M  V30 13060 H 1706.83 -4.05244 -8.76668 0
M  V30 13061 H 1709.47 0.177647 -6.34251 0
M  V30 13062 P 1711.33 -1.25109 -8.70152 0
M  V30 13063 O 1712.75 -1.29744 -9.22016 0
M  V30 13064 O 1710.97 -2.13714 -7.55141 0
M  V30 13065 O 1711.01 0.248149 -8.21425 0
M  V30 13066 C 1710.85 1.22779 -9.30434 0
M  V30 13067 C 1711.39 2.56293 -8.80664 0
M  V30 13068 O 1710.33 3.02979 -8.09349 0
M  V30 13069 C 1712.61 2.57523 -7.89775 0
M  V30 13070 O 1713.34 3.7668 -7.89438 0
M  V30 13071 C 1711.94 2.20997 -6.55446 0
M  V30 13072 O 1712.74 2.71895 -5.48509 0
M  V30 13073 C 1710.6 2.89693 -6.67988 0
M  V30 13074 H 1710.63 3.88793 -6.19859 0
M  V30 13075 H 1711.81 1.12046 -6.44229 0
M  V30 13076 H 1713.3 1.7746 -8.19711 0
M  V30 13077 H 1711.6 3.20706 -9.67112 0
M  V30 13078 H 1711.41 0.901032 -10.1892 0
M  V30 13079 H 1709.78 1.33049 -9.56592 0
M  V30 13080 H 1712.42 3.57847 -5.23962 0
M  V30 13081 P 1714.28 3.65191 -7.99657 0
M  V30 13082 O 1715.7 3.89332 -8.45794 0
M  V30 13083 O 1713.92 2.28472 -7.50807 0
M  V30 13084 O 1713.96 4.64972 -6.77611 0
M  V30 13085 C 1713.8 6.06319 -7.16352 0
M  V30 13086 C 1714.34 6.91731 -6.02299 0
M  V30 13087 O 1713.28 6.92449 -5.17064 0
M  V30 13088 C 1715.56 6.43627 -5.25174 0
M  V30 13089 O 1716.29 7.43686 -4.60469 0
M  V30 13090 C 1714.89 5.40275 -4.31916 0
M  V30 13091 O 1715.69 5.25279 -3.14438 0
M  V30 13092 C 1713.55 6.04847 -4.05327 0
M  V30 13093 H 1713.58 6.62195 -3.11261 0
M  V30 13094 H 1714.77 4.42556 -4.81383 0
M  V30 13095 H 1716.25 5.92458 -5.93643 0
M  V30 13096 H 1714.56 7.92655 -6.402 0
M  V30 13097 H 1714.37 6.26671 -8.0846 0
M  V30 13098 H 1712.74 6.29101 -7.32804 0
M  V30 13099 H 1715.37 5.84315 -2.47318 0
M  V30 13100 P 1717.23 7.39546 -4.75277 0
M  V30 13101 O 1718.65 7.84798 -5.01039 0
M  V30 13102 O 1716.87 5.9812 -5.08098 0
M  V30 13103 O 1716.91 7.57503 -3.1866 0
M  V30 13104 C 1716.75 8.97357 -2.74833 0
M  V30 13105 C 1717.29 9.07548 -1.32709 0
M  V30 13106 O 1716.23 8.62072 -0.606159 0
M  V30 13107 C 1718.51 8.25383 -0.938334 0
M  V30 13108 O 1719.24 8.74577 0.146954 0
M  V30 13109 C 1717.84 6.8802 -0.712559 0
M  V30 13110 O 1718.64 6.1189 0.194655 0
M  V30 13111 C 1716.5 7.27966 -0.139777 0
M  V30 13112 H 1716.53 7.25354 0.961601 0
M  V30 13113 H 1717.72 6.32557 -1.65702 0
M  V30 13114 H 1719.2 8.19355 -1.79097 0
M  V30 13115 H 1717.51 10.1294 -1.10029 0
M  V30 13116 H 1717.32 9.64276 -3.41316 0
M  V30 13117 H 1715.69 9.25417 -2.76357 0
M  V30 13118 H 1718.32 6.25267 1.07847 0
M  V30 13119 P 1720.18 8.791 1.44399e-11 0
M  V30 13120 O 1721.6 9.31096 0.027933 0
M  V30 13121 O 1719.82 7.77869 -1.04071 0
M  V30 13122 O 1719.86 8.09533 1.41463 0
M  V30 13123 C 1719.7 9.0349 2.53943 0
M  V30 13124 C 1720.24 8.35226 3.79016 0
M  V30 13125 O 1719.18 7.57992 4.15078 0
M  V30 13126 C 1721.46 7.45087 3.67298 0
M  V30 13127 O 1722.2 7.27796 4.85194 0
M  V30 13128 C 1720.79 6.17323 3.12027 0
M  V30 13129 O 1721.59 5.04231 3.47188 0
M  V30 13130 C 1719.45 6.19961 3.81809 0
M  V30 13131 H 1719.48 5.58218 4.73051 0
M  V30 13132 H 1720.67 6.21726 2.02589 0
M  V30 13133 H 1722.15 7.86112 2.9231 0
M  V30 13134 H 1720.46 9.11627 4.55076 0
M  V30 13135 H 1720.27 9.9573 2.34194 0
M  V30 13136 H 1718.64 9.2792 2.67832 0
M  V30 13137 H 1721.28 4.67702 4.28772 0
M  V30 13138 P 1723.13 7.39546 4.75277 0
M  V30 13139 O 1724.55 7.81777 5.05738 0
M  V30 13140 O 1722.77 7.1065 3.32998 0
M  V30 13141 O 1722.81 6.04542 5.56673 0
M  V30 13142 C 1722.65 6.22772 7.02095 0
M  V30 13143 C 1723.19 4.97725 7.70406 0
M  V30 13144 O 1722.13 4.13256 7.58987 0
M  V30 13145 C 1724.41 4.28231 7.11815 0
M  V30 13146 O 1725.15 3.49945 8.01648 0
M  V30 13147 C 1723.74 3.5063 5.96244 0
M  V30 13148 O 1724.54 2.36482 5.64681 0
M  V30 13149 C 1722.4 3.15122 6.56374 0
M  V30 13150 H 1722.43 2.13853 6.99751 0
M  V30 13151 H 1723.62 4.13501 5.06559 0
M  V30 13152 H 1725.1 5.03285 6.70911 0
M  V30 13153 H 1723.41 5.20877 8.75697 0
M  V30 13154 H 1723.22 7.11046 7.35349 0
M  V30 13155 H 1721.59 6.35815 7.26986 0
M  V30 13156 H 1724.23 1.61644 6.13565 0
M  V30 13157 P 1726.08 3.65191 7.99657 0
M  V30 13158 O 1727.51 3.8425 8.48115 0
M  V30 13159 O 1725.72 4.17805 6.64342 0
M  V30 13160 O 1725.76 2.07613 7.95143 0
M  V30 13161 C 1725.6 1.44328 9.27336 0
M  V30 13162 C 1726.14 0.0220036 9.17197 0
M  V30 13163 O 1725.08 -0.626867 8.61923 0
M  V30 13164 C 1727.36 -0.24586 8.30336 0
M  V30 13165 O 1728.1 -1.39011 8.63583 0
M  V30 13166 C 1726.69 -0.273849 6.91158 0
M  V30 13167 O 1727.49 -1.06348 6.02892 0
M  V30 13168 C 1725.35 -0.897649 7.22545 0
M  V30 13169 H 1725.38 -1.9841 7.04286 0
M  V30 13170 H 1726.57 0.739928 6.497 0
M  V30 13171 H 1728.05 0.60668 8.36503 0
M  V30 13172 H 1726.36 -0.352479 10.1829 0
M  V30 13173 H 1726.17 2.00611 10.0304 0
M  V30 13174 H 1724.54 1.41843 9.55327 0
M  V30 13175 H 1727.18 -1.95734 6.03555 0
M  V30 13176 P 1729.03 -1.25109 8.70152 0
M  V30 13177 O 1730.46 -1.35303 9.21419 0
M  V30 13178 O 1728.67 -0.0769065 7.84762 0
M  V30 13179 O 1728.71 -2.55232 7.81161 0
M  V30 13180 C 1728.55 -3.79939 8.58154 0
M  V30 13181 C 1729.09 -4.93969 7.72701 0
M  V30 13182 O 1728.04 -5.18726 6.91205 0
M  V30 13183 C 1730.31 -4.69597 6.85231 0
M  V30 13184 O 1731.05 -5.83832 6.51337 0
M  V30 13185 C 1729.64 -3.96706 5.66633 0
M  V30 13186 O 1730.44 -4.15346 4.49615 0
M  V30 13187 C 1728.3 -4.66153 5.59313 0
M  V30 13188 N 1727.26 -3.71582 5.24027 0
M  V30 13189 C 1727.32 -2.46018 5.67902 0
M  V30 13190 N 1726.28 -1.74868 5.24518 0
M  V30 13191 C 1725.54 -2.61333 4.54528 0
M  V30 13192 C 1724.24 -2.46162 3.95441 0
M  V30 13193 O 1723.5 -1.46013 3.94122 0
M  V30 13194 N 1723.81 -3.59334 3.34752 0
M  V30 13195 C 1724.56 -4.79605 3.3023 0
M  V30 13196 N 1723.96 -5.82109 2.6065 0
M  V30 13197 N 1725.71 -4.97402 3.8843 0
M  V30 13198 C 1726.17 -3.86258 4.50476 0
M  V30 13199 H 1728.34 -5.47679 4.85214 0
M  V30 13200 H 1729.52 -2.88964 5.86476 0
M  V30 13201 H 1731 -4.01947 7.36109 0
M  V30 13202 H 1729.31 -5.80182 8.37584 0
M  V30 13203 H 1729.12 -3.73517 9.52265 0
M  V30 13204 H 1727.49 -3.97163 8.80359 0
M  V30 13205 H 1722.91 -3.5825 2.90294 0
M  V30 13206 H 1728.12 -2.06161 6.30974 0
M  V30 13207 H 1723.05 -5.66979 2.15354 0
M  V30 13208 H 1724.42 -6.73686 2.54344 0
M  V30 13209 H 1730.13 -4.90891 4.01857 0
M  V30 13210 P 1731.98 -5.75688 6.64379 0
M  V30 13211 O 1733.41 -6.11849 7.01846 0
M  V30 13212 O 1731.62 -4.30744 6.56026 0
M  V30 13213 O 1731.66 -6.37042 5.19165 0
M  V30 13214 C 1731.5 -7.83578 5.16515 0
M  V30 13215 C 1732.04 -8.33398 3.83019 0
M  V30 13216 O 1730.99 -8.10074 3.01034 0
M  V30 13217 C 1733.26 -7.65514 3.2257 0
M  V30 13218 O 1734 -8.4329 2.32297 0
M  V30 13219 C 1732.59 -6.40075 2.62207 0
M  V30 13220 O 1733.39 -5.92589 1.53712 0
M  V30 13221 C 1731.25 -6.9454 2.18503 0
M  V30 13222 H 1731.29 -7.23063 1.12091 0
M  V30 13223 H 1732.47 -5.6025 3.37201 0
M  V30 13224 H 1733.95 -7.35707 4.02681 0
M  V30 13225 H 1732.26 -9.40912 3.9095 0
M  V30 13226 H 1732.07 -8.29056 5.99158 0
M  V30 13227 H 1730.44 -8.10073 5.25882 0
M  V30 13228 H 1733.08 -6.30324 0.726794 0
M  V30 13229 P 1734.94 -8.4349 2.47671 0
M  V30 13230 O 1736.36 -8.94167 2.5964 0
M  V30 13231 O 1734.58 -7.1704 3.19006 0
M  V30 13232 O 1734.61 -8.16596 0.923387 0
M  V30 13233 C 1734.45 -9.38437 0.108857 0
M  V30 13234 C 1734.99 -9.08175 -1.28353 0
M  V30 13235 O 1733.94 -8.44229 -1.84713 0
M  V30 13236 C 1736.21 -8.18386 -1.42505 0
M  V30 13237 O 1736.95 -8.3501 -2.60497 0
M  V30 13238 C 1735.54 -6.80225 -1.25468 0
M  V30 13239 O 1736.34 -5.81621 -1.91066 0
M  V30 13240 C 1734.2 -7.02416 -1.9168 0
M  V30 13241 H 1734.24 -6.6888 -2.96621 0
M  V30 13242 H 1735.42 -6.53617 -0.192223 0
M  V30 13243 H 1736.9 -8.36622 -0.589963 0
M  V30 13244 H 1735.21 -10.0291 -1.79807 0
M  V30 13245 H 1735.02 -10.2138 0.558219 0
M  V30 13246 H 1733.39 -9.6579 0.0444202 0
M  V30 13247 H 1736.03 -5.69556 -2.79637 0
M  V30 13248 P 1737.89 -8.4349 -2.47671 0
M  V30 13249 O 1739.31 -8.92593 -2.65 0
M  V30 13250 O 1737.53 -7.7568 -1.19296 0
M  V30 13251 O 1737.56 -7.36886 -3.63805 0
M  V30 13252 C 1737.4 -7.95349 -4.982 0
M  V30 13253 C 1737.94 -6.94612 -5.98974 0
M  V30 13254 O 1736.89 -6.10347 -6.11815 0
M  V30 13255 C 1739.16 -6.11426 -5.62335 0
M  V30 13256 O 1739.9 -5.6162 -6.70584 0
M  V30 13257 C 1738.49 -5.04409 -4.73308 0
M  V30 13258 O 1739.29 -3.85992 -4.75183 0
M  V30 13259 C 1737.15 -4.8728 -5.41006 0
M  V30 13260 H 1737.19 -4.02333 -6.11157 0
M  V30 13261 H 1738.37 -5.39466 -3.69543 0
M  V30 13262 H 1739.85 -6.71916 -5.01943 0
M  V30 13263 H 1738.16 -7.4649 -6.93477 0
M  V30 13264 H 1737.97 -8.89416 -5.05237 0
M  V30 13265 H 1736.34 -8.14876 -5.18409 0
M  V30 13266 H 1738.98 -3.27957 -5.4317 0
M  V30 13267 P 1740.84 -5.75688 -6.64379 0
M  V30 13268 O 1742.26 -6.07627 -7.05504 0
M  V30 13269 O 1740.48 -5.88047 -5.19722 0
M  V30 13270 O 1740.51 -4.2322 -7.04443 0
M  V30 13271 C 1740.35 -3.99743 -8.4911 0
M  V30 13272 C 1740.89 -2.60516 -8.79425 0
M  V30 13273 O 1739.84 -1.82684 -8.4467 0
M  V30 13274 C 1742.11 -2.10343 -8.03628 0
M  V30 13275 O 1742.85 -1.09919 -8.67766 0
M  V30 13276 C 1741.44 -1.68446 -6.70876 0
M  V30 13277 O 1742.24 -0.678137 -6.08433 0
M  V30 13278 C 1740.11 -1.17436 -7.18567 0
M  V30 13279 H 1740.14 -0.0804732 -7.31656 0
M  V30 13280 H 1741.32 -2.54037 -6.02537 0
M  V30 13281 H 1742.8 -2.93881 -7.85526 0
M  V30 13282 H 1741.11 -2.53065 -9.86973 0
M  V30 13283 H 1740.92 -4.75072 -9.05887 0
M  V30 13284 H 1739.29 -4.05244 -8.76668 0
M  V30 13285 H 1741.93 0.177647 -6.34251 0
M  V30 13286 P 1743.79 -1.25109 -8.70152 0
M  V30 13287 O 1745.21 -1.29758 -9.22115 0
M  V30 13288 O 1743.43 -2.13714 -7.55141 0
M  V30 13289 O 1743.46 0.248149 -8.21425 0
M  V30 13290 C 1743.3 1.22792 -9.30533 0
M  V30 13291 C 1743.84 2.56293 -8.80664 0
M  V30 13292 O 1742.79 3.02944 -8.09255 0
M  V30 13293 C 1745.06 2.57523 -7.89775 0
M  V30 13294 O 1745.8 3.7668 -7.89438 0
M  V30 13295 C 1744.39 2.20997 -6.55446 0
M  V30 13296 O 1745.19 2.71302 -5.48691 0
M  V30 13297 C 1743.06 2.89693 -6.67988 0
M  V30 13298 N 1742.01 2.08895 -6.07487 0
M  V30 13299 C 1742.18 0.753809 -5.94137 0
M  V30 13300 N 1741.15 0.146592 -5.38801 0
M  V30 13301 C 1740.27 1.1768 -5.13693 0
M  V30 13302 C 1739 1.17563 -4.52477 0
M  V30 13303 N 1738.4 0.057481 -4.04759 0
M  V30 13304 N 1738.44 2.41918 -4.45789 0
M  V30 13305 C 1739.04 3.56493 -4.90792 0
M  V30 13306 N 1740.22 3.61423 -5.47817 0
M  V30 13307 C 1740.79 2.37779 -5.5588 0
M  V30 13308 H 1743.09 3.8874 -6.19774 0
M  V30 13309 H 1744.27 1.12673 -6.44018 0
M  V30 13310 H 1745.75 1.7746 -8.19711 0
M  V30 13311 H 1744.06 3.21673 -9.66791 0
M  V30 13312 H 1743.87 0.901032 -10.1892 0
M  V30 13313 H 1742.24 1.33049 -9.56592 0
M  V30 13314 H 1738.5 4.49919 -4.77947 0
M  V30 13315 H 1743.08 0.233081 -6.26266 0
M  V30 13316 H 1737.47 0.119831 -3.60801 0
M  V30 13317 H 1738.88 -0.852272 -4.12385 0
M  V30 13318 H 1744.88 3.5779 -5.23879 0
M  V30 13319 P 1746.74 3.65191 -7.99657 0
M  V30 13320 O 1748.14 3.87414 -8.52829 0
M  V30 13321 O 1746.36 2.26932 -7.566 0
M  V30 13322 O 1746.41 4.64915 -6.77529 0
M  V30 13323 C 1746.25 6.06319 -7.16352 0
M  V30 13324 C 1746.79 6.91655 -6.02234 0
M  V30 13325 O 1745.74 6.92369 -5.17005 0
M  V30 13326 C 1748.01 6.43627 -5.25174 0
M  V30 13327 O 1748.75 7.43686 -4.60469 0
M  V30 13328 C 1747.34 5.40275 -4.31916 0
M  V30 13329 O 1748.14 5.25193 -3.14386 0
M  V30 13330 C 1746.01 6.04847 -4.05327 0
M  V30 13331 N 1744.96 5.04166 -3.98114 0
M  V30 13332 C 1743.93 5.2366 -3.09923 0
M  V30 13333 O 1743.97 6.23355 -2.34204 0
M  V30 13334 N 1742.92 4.34279 -3.05727 0
M  V30 13335 C 1742.96 3.26317 -3.84756 0
M  V30 13336 C 1744.06 3.02504 -4.72573 0
M  V30 13337 C 1745.03 3.94493 -4.76618 0
M  V30 13338 H 1746.04 6.62104 -3.11218 0
M  V30 13339 H 1747.22 4.42969 -4.80867 0
M  V30 13340 H 1748.71 5.93122 -5.93121 0
M  V30 13341 H 1747.01 7.93295 -6.39407 0
M  V30 13342 H 1746.82 6.26671 -8.0846 0
M  V30 13343 H 1745.19 6.29036 -7.32728 0
M  V30 13344 H 1744.11 2.12921 -5.34017 0
M  V30 13345 H 1745.87 3.80658 -5.44176 0
M  V30 13346 H 1747.93 5.93572 -2.52637 0
M  V30 13347 P 1749.69 7.39546 -4.75277 0
M  V30 13348 O 1751.11 7.84882 -5.01092 0
M  V30 13349 O 1749.33 5.9812 -5.08098 0
M  V30 13350 O 1749.37 7.57503 -3.1866 0
M  V30 13351 C 1749.2 8.97452 -2.74862 0
M  V30 13352 C 1749.75 9.07548 -1.32709 0
M  V30 13353 O 1748.69 8.61972 -0.606089 0
M  V30 13354 C 1750.96 8.25383 -0.938334 0
M  V30 13355 O 1751.7 8.74577 0.146954 0
M  V30 13356 C 1750.3 6.8802 -0.712559 0
M  V30 13357 O 1751.09 6.1181 0.188505 0
M  V30 13358 C 1748.96 7.27966 -0.139777 0
M  V30 13359 N 1747.91 6.39368 -0.623421 0
M  V30 13360 C 1748.08 5.71761 -1.78245 0
M  V30 13361 N 1747.06 4.962 -2.10491 0
M  V30 13362 C 1746.17 5.16158 -1.0635 0
M  V30 13363 C 1744.9 4.60425 -0.810266 0
M  V30 13364 N 1744.31 3.7057 -1.62914 0
M  V30 13365 N 1744.34 5.06 0.348685 0
M  V30 13366 C 1744.94 5.94532 1.20395 0
M  V30 13367 N 1746.12 6.48452 1.01191 0
M  V30 13368 C 1746.69 6.04423 -0.146291 0
M  V30 13369 H 1748.99 7.25255 0.961469 0
M  V30 13370 H 1750.17 6.32625 -1.65044 0
M  V30 13371 H 1751.66 8.19355 -1.79097 0
M  V30 13372 H 1749.96 10.1305 -1.09016 0
M  V30 13373 H 1749.77 9.64276 -3.41316 0
M  V30 13374 H 1748.14 9.25417 -2.76357 0
M  V30 13375 H 1744.41 6.21659 2.10714 0
M  V30 13376 H 1748.98 5.79354 -2.38959 0
M  V30 13377 H 1743.38 3.33174 -1.38982 0
M  V30 13378 H 1744.78 3.39714 -2.48836 0
M  V30 13379 H 1750.78 6.25169 1.0783 0
M  V30 13380 P 1752.64 8.791 1.47501e-11 0
M  V30 13381 O 1754.04 9.36698 -0.018734 0
M  V30 13382 O 1752.26 7.82499 -1.07878 0
M  V30 13383 O 1752.32 8.09434 1.41446 0
M  V30 13384 C 1752.16 9.0349 2.53943 0
M  V30 13385 C 1752.7 8.35135 3.78975 0
M  V30 13386 O 1751.64 7.57904 4.1503 0
M  V30 13387 C 1753.91 7.45087 3.67298 0
M  V30 13388 O 1754.65 7.27796 4.85194 0
M  V30 13389 C 1753.25 6.17323 3.12027 0
M  V30 13390 O 1754.04 5.04149 3.47132 0
M  V30 13391 C 1751.91 6.19961 3.81809 0
M  V30 13392 N 1750.86 5.71575 2.93223 0
M  V30 13393 C 1749.83 4.99452 3.47592 0
M  V30 13394 O 1749.87 4.7199 4.69732 0
M  V30 13395 N 1748.82 4.58505 2.6803 0
M  V30 13396 C 1748.87 4.85544 1.36995 0
M  V30 13397 C 1749.96 5.55532 0.788532 0
M  V30 13398 C 1750.93 5.97426 1.60849 0
M  V30 13399 H 1751.94 5.58142 4.72986 0
M  V30 13400 H 1753.12 6.21428 2.0318 0
M  V30 13401 H 1754.61 7.85913 2.93131 0
M  V30 13402 H 1752.91 9.11171 4.55987 0
M  V30 13403 H 1752.72 9.9573 2.34194 0
M  V30 13404 H 1751.09 9.27824 2.67805 0
M  V30 13405 H 1750.01 5.7421 -0.281588 0
M  V30 13406 H 1751.77 6.53132 1.202 0
M  V30 13407 H 1753.83 4.76386 4.34983 0
M  V30 13408 P 1755.59 7.39546 4.75277 0
M  V30 13409 O 1757.01 7.81777 5.05738 0
M  V30 13410 O 1755.23 7.1065 3.32998 0
M  V30 13411 O 1755.27 6.04542 5.56673 0
M  V30 13412 C 1755.11 6.22772 7.02095 0
M  V30 13413 C 1755.65 4.97725 7.70406 0
M  V30 13414 O 1754.59 4.13256 7.58987 0
M  V30 13415 C 1756.86 4.28231 7.11815 0
M  V30 13416 O 1757.6 3.49945 8.01648 0
M  V30 13417 C 1756.2 3.5063 5.96244 0
M  V30 13418 O 1756.99 2.36482 5.64681 0
M  V30 13419 C 1754.86 3.15122 6.56374 0
M  V30 13420 H 1754.89 2.13853 6.99751 0
M  V30 13421 H 1756.07 4.13501 5.06559 0
M  V30 13422 H 1757.56 5.03285 6.70911 0
M  V30 13423 H 1755.86 5.20877 8.75697 0
M  V30 13424 H 1755.67 7.11046 7.35349 0
M  V30 13425 H 1754.04 6.35815 7.26986 0
M  V30 13426 H 1756.68 1.61644 6.13565 0
M  V30 13427 P 1758.54 3.65191 7.99657 0
M  V30 13428 O 1759.96 3.84292 8.48206 0
M  V30 13429 O 1758.18 4.17805 6.64342 0
M  V30 13430 O 1758.22 2.07613 7.95143 0
M  V30 13431 C 1758.06 1.44344 9.27435 0
M  V30 13432 C 1758.6 0.0220036 9.17197 0
M  V30 13433 O 1757.54 -0.626794 8.61824 0
M  V30 13434 C 1759.81 -0.24586 8.30336 0
M  V30 13435 O 1760.55 -1.39011 8.63583 0
M  V30 13436 C 1759.15 -0.273849 6.91158 0
M  V30 13437 O 1759.94 -1.05728 6.029 0
M  V30 13438 C 1757.81 -0.897649 7.22545 0
M  V30 13439 N 1756.77 -0.292839 6.41732 0
M  V30 13440 C 1756.93 0.950603 5.91308 0
M  V30 13441 N 1755.91 1.37732 5.21105 0
M  V30 13442 C 1755.02 0.318109 5.26039 0
M  V30 13443 C 1753.76 0.146766 4.6727 0
M  V30 13444 N 1753.16 1.08519 3.89983 0
M  V30 13445 N 1753.19 -1.06525 4.95887 0
M  V30 13446 C 1753.79 -2.0378 5.71347 0
M  V30 13447 N 1754.97 -1.92445 6.27451 0
M  V30 13448 C 1755.54 -0.715382 6.00353 0
M  V30 13449 H 1757.84 -1.98383 7.04189 0
M  V30 13450 H 1759.02 0.733318 6.49674 0
M  V30 13451 H 1760.51 0.60668 8.36503 0
M  V30 13452 H 1758.81 -0.362662 10.1825 0
M  V30 13453 H 1758.62 2.00611 10.0304 0
M  V30 13454 H 1756.99 1.41843 9.55327 0
M  V30 13455 H 1753.26 -2.97041 5.85344 0
M  V30 13456 H 1757.83 1.54076 6.07465 0
M  V30 13457 H 1752.23 0.901517 3.49562 0
M  V30 13458 H 1753.63 1.97957 3.71669 0
M  V30 13459 H 1759.63 -1.95704 6.0346 0
M  V30 13460 P 1761.49 -1.25109 8.70152 0
M  V30 13461 O 1762.91 -1.35274 9.21221 0
M  V30 13462 O 1761.13 -0.0769065 7.84762 0
M  V30 13463 O 1761.17 -2.55232 7.81161 0
M  V30 13464 C 1761.01 -3.79939 8.58154 0
M  V30 13465 C 1761.55 -4.94023 7.72785 0
M  V30 13466 O 1760.49 -5.18726 6.91205 0
M  V30 13467 C 1762.77 -4.69597 6.85231 0
M  V30 13468 O 1763.5 -5.83832 6.51337 0
M  V30 13469 C 1762.1 -3.96706 5.66633 0
M  V30 13470 O 1762.9 -4.15414 4.49689 0
M  V30 13471 C 1760.76 -4.66153 5.59313 0
M  V30 13472 H 1760.79 -5.47679 4.85214 0
M  V30 13473 H 1761.97 -2.89008 5.86566 0
M  V30 13474 H 1763.46 -4.0121 7.36511 0
M  V30 13475 H 1761.76 -5.80182 8.37584 0
M  V30 13476 H 1761.57 -3.73517 9.52265 0
M  V30 13477 H 1759.94 -3.97163 8.80359 0
M  V30 13478 H 1762.58 -4.90969 4.01921 0
M  V30 13479 P 1764.44 -5.75688 6.64379 0
M  V30 13480 O 1765.86 -6.11915 7.01921 0
M  V30 13481 O 1764.08 -4.30744 6.56026 0
M  V30 13482 O 1764.12 -6.37042 5.19165 0
M  V30 13483 C 1763.96 -7.83662 5.1657 0
M  V30 13484 C 1764.5 -8.33398 3.83019 0
M  V30 13485 O 1763.44 -8.0998 3.00999 0
M  V30 13486 C 1765.72 -7.65514 3.2257 0
M  V30 13487 O 1766.45 -8.4329 2.32297 0
M  V30 13488 C 1765.05 -6.40075 2.62207 0
M  V30 13489 O 1765.85 -5.92338 1.5428 0
M  V30 13490 C 1763.71 -6.9454 2.18503 0
M  V30 13491 N 1762.67 -5.95905 2.39948 0
M  V30 13492 C 1762.84 -4.98383 3.32108 0
M  V30 13493 N 1761.81 -4.16798 3.41761 0
M  V30 13494 C 1760.92 -4.65287 2.47461 0
M  V30 13495 C 1759.66 -4.18946 2.07461 0
M  V30 13496 N 1759.06 -3.09661 2.60717 0
M  V30 13497 N 1759.09 -4.95327 1.09101 0
M  V30 13498 C 1759.69 -6.04369 0.519812 0
M  V30 13499 N 1760.87 -6.50694 0.855982 0
M  V30 13500 C 1761.45 -5.75818 1.84322 0
M  V30 13501 H 1763.74 -7.22964 1.12076 0
M  V30 13502 H 1764.92 -5.60502 3.36589 0
M  V30 13503 H 1766.41 -7.35707 4.02681 0
M  V30 13504 H 1764.71 -9.41302 3.90009 0
M  V30 13505 H 1764.52 -8.29056 5.99158 0
M  V30 13506 H 1762.89 -8.10073 5.25882 0
M  V30 13507 H 1759.16 -6.55843 -0.270373 0
M  V30 13508 H 1763.74 -4.88564 3.92502 0
M  V30 13509 H 1758.13 -2.80523 2.27218 0
M  V30 13510 H 1759.53 -2.55848 3.34465 0
M  V30 13511 H 1765.53 -6.30224 0.72668 0
M  V30 13512 P 1767.39 -8.4349 2.47671 0
M  V30 13513 O 1768.81 -8.94263 2.59668 0
M  V30 13514 O 1767.03 -7.1704 3.19006 0
M  V30 13515 O 1767.07 -8.16596 0.923387 0
M  V30 13516 C 1766.91 -9.38537 0.108869 0
M  V30 13517 C 1767.45 -9.08175 -1.28353 0
M  V30 13518 O 1766.39 -8.44131 -1.84692 0
M  V30 13519 C 1768.67 -8.18386 -1.42505 0
M  V30 13520 O 1769.4 -8.3501 -2.60497 0
M  V30 13521 C 1768 -6.80225 -1.25468 0
M  V30 13522 O 1768.8 -5.81716 -1.90454 0
M  V30 13523 C 1766.66 -7.02416 -1.9168 0
M  V30 13524 N 1765.62 -6.31033 -1.20314 0
M  V30 13525 C 1765.79 -5.98817 0.0994088 0
M  V30 13526 N 1764.76 -5.35403 0.621694 0
M  V30 13527 C 1763.87 -5.25212 -0.43376 0
M  V30 13528 C 1762.61 -4.64602 -0.519722 0
M  V30 13529 N 1762.01 -4.01457 0.519136 0
M  V30 13530 N 1762.04 -4.7568 -1.76013 0
M  V30 13531 C 1762.64 -5.3653 -2.83017 0
M  V30 13532 N 1763.82 -5.93676 -2.79782 0
M  V30 13533 C 1764.4 -5.84061 -1.56249 0
M  V30 13534 H 1766.69 -6.68789 -2.9658 0
M  V30 13535 H 1767.88 -6.53498 -0.198729 0
M  V30 13536 H 1769.36 -8.36622 -0.589963 0
M  V30 13537 H 1767.66 -10.0273 -1.8081 0
M  V30 13538 H 1767.47 -10.2138 0.558219 0
M  V30 13539 H 1765.84 -9.6579 0.0444202 0
M  V30 13540 H 1762.11 -5.37113 -3.77321 0
M  V30 13541 H 1766.69 -6.23209 0.660562 0
M  V30 13542 H 1761.08 -3.58834 0.394862 0
M  V30 13543 H 1762.48 -3.96059 1.43048 0
M  V30 13544 H 1768.48 -5.69466 -2.79593 0
M  V30 13545 P 1770.34 -8.4349 -2.47671 0
M  V30 13546 O 1771.76 -8.92689 -2.65029 0
M  V30 13547 O 1769.98 -7.7568 -1.19296 0
M  V30 13548 O 1770.02 -7.36886 -3.63805 0
M  V30 13549 C 1769.86 -7.95433 -4.98253 0
M  V30 13550 C 1770.4 -6.94612 -5.98974 0
M  V30 13551 O 1769.34 -6.10277 -6.11744 0
M  V30 13552 C 1771.62 -6.11426 -5.62335 0
M  V30 13553 O 1772.35 -5.6162 -6.70584 0
M  V30 13554 C 1770.95 -5.04409 -4.73308 0
M  V30 13555 O 1771.75 -3.86404 -4.74719 0
M  V30 13556 C 1769.61 -4.8728 -5.41006 0
M  V30 13557 N 1768.57 -4.65812 -4.42377 0
M  V30 13558 C 1768.74 -5.09132 -3.15382 0
M  V30 13559 N 1767.71 -4.84021 -2.3716 0
M  V30 13560 C 1766.82 -4.18386 -3.20441 0
M  V30 13561 C 1765.56 -3.6275 -2.94905 0
M  V30 13562 N 1764.96 -3.65794 -1.73372 0
M  V30 13563 N 1764.99 -3.05008 -4.05243 0
M  V30 13564 C 1765.59 -2.98348 -5.28159 0
M  V30 13565 N 1766.77 -3.48171 -5.56333 0
M  V30 13566 C 1767.35 -4.06869 -4.47212 0
M  V30 13567 H 1769.64 -4.02278 -6.11074 0
M  V30 13568 H 1770.83 -5.39013 -3.70026 0
M  V30 13569 H 1772.31 -6.71916 -5.01943 0
M  V30 13570 H 1770.61 -7.45796 -6.94223 0
M  V30 13571 H 1770.42 -8.89416 -5.05237 0
M  V30 13572 H 1768.79 -8.14876 -5.18409 0
M  V30 13573 H 1765.06 -2.47853 -6.07807 0
M  V30 13574 H 1769.64 -5.59989 -2.81362 0
M  V30 13575 H 1764.03 -3.23218 -1.60782 0
M  V30 13576 H 1765.43 -4.10523 -0.937856 0
M  V30 13577 H 1771.43 -3.27906 -5.43085 0
M  V30 13578 P 1773.29 -5.75688 -6.64379 0
M  V30 13579 O 1774.71 -6.07627 -7.05504 0
M  V30 13580 O 1772.93 -5.88047 -5.19722 0
M  V30 13581 O 1772.97 -4.2322 -7.04443 0
M  V30 13582 C 1772.81 -3.99743 -8.4911 0
M  V30 13583 C 1773.35 -2.60516 -8.79425 0
M  V30 13584 O 1772.29 -1.82684 -8.4467 0
M  V30 13585 C 1774.57 -2.10343 -8.03628 0
M  V30 13586 O 1775.31 -1.09919 -8.67766 0
M  V30 13587 C 1773.9 -1.68446 -6.70876 0
M  V30 13588 O 1774.7 -0.678137 -6.08433 0
M  V30 13589 C 1772.56 -1.17436 -7.18567 0
M  V30 13590 H 1772.59 -0.0804732 -7.31656 0
M  V30 13591 H 1773.78 -2.54037 -6.02537 0
M  V30 13592 H 1775.26 -2.93881 -7.85526 0
M  V30 13593 H 1773.57 -2.53065 -9.86973 0
M  V30 13594 H 1773.38 -4.75072 -9.05887 0
M  V30 13595 H 1771.75 -4.05244 -8.76668 0
M  V30 13596 H 1774.39 0.177647 -6.34251 0
M  V30 13597 P 1776.24 -1.25109 -8.70152 0
M  V30 13598 O 1777.67 -1.29744 -9.22016 0
M  V30 13599 O 1775.88 -2.13714 -7.55141 0
M  V30 13600 O 1775.92 0.248149 -8.21425 0
M  V30 13601 C 1775.76 1.22779 -9.30434 0
M  V30 13602 C 1776.3 2.56293 -8.80664 0
M  V30 13603 O 1775.24 3.02979 -8.09349 0
M  V30 13604 C 1777.52 2.57523 -7.89775 0
M  V30 13605 O 1778.26 3.7668 -7.89438 0
M  V30 13606 C 1776.85 2.20997 -6.55446 0
M  V30 13607 O 1777.65 2.71895 -5.48509 0
M  V30 13608 C 1775.51 2.89693 -6.67988 0
M  V30 13609 H 1775.54 3.88793 -6.19859 0
M  V30 13610 H 1776.73 1.12046 -6.44229 0
M  V30 13611 H 1778.21 1.7746 -8.19711 0
M  V30 13612 H 1776.52 3.20706 -9.67112 0
M  V30 13613 H 1776.33 0.901032 -10.1892 0
M  V30 13614 H 1774.7 1.33049 -9.56592 0
M  V30 13615 H 1777.34 3.57847 -5.23962 0
M  V30 13616 P 1779.19 3.65191 -7.99657 0
M  V30 13617 O 1780.62 3.89332 -8.45794 0
M  V30 13618 O 1778.83 2.28472 -7.50807 0
M  V30 13619 O 1778.87 4.64972 -6.77611 0
M  V30 13620 C 1778.71 6.06319 -7.16352 0
M  V30 13621 C 1779.25 6.91731 -6.02299 0
M  V30 13622 O 1778.19 6.92449 -5.17064 0
M  V30 13623 C 1780.47 6.43627 -5.25174 0
M  V30 13624 O 1781.21 7.43686 -4.60469 0
M  V30 13625 C 1779.8 5.40275 -4.31916 0
M  V30 13626 O 1780.6 5.25279 -3.14438 0
M  V30 13627 C 1778.46 6.04847 -4.05327 0
M  V30 13628 H 1778.49 6.62195 -3.11261 0
M  V30 13629 H 1779.68 4.42556 -4.81383 0
M  V30 13630 H 1781.16 5.92458 -5.93643 0
M  V30 13631 H 1779.47 7.92655 -6.402 0
M  V30 13632 H 1779.28 6.26671 -8.0846 0
M  V30 13633 H 1777.65 6.29101 -7.32804 0
M  V30 13634 H 1780.29 5.84315 -2.47318 0
M  V30 13635 P 1782.14 7.39546 -4.75277 0
M  V30 13636 O 1783.57 7.84966 -5.01146 0
M  V30 13637 O 1781.78 5.9812 -5.08098 0
M  V30 13638 O 1781.82 7.57503 -3.1866 0
M  V30 13639 C 1781.66 8.97357 -2.74833 0
M  V30 13640 C 1782.2 9.0745 -1.32694 0
M  V30 13641 O 1781.15 8.62072 -0.606159 0
M  V30 13642 C 1783.42 8.25383 -0.938334 0
M  V30 13643 O 1784.16 8.74577 0.146954 0
M  V30 13644 C 1782.75 6.8802 -0.712559 0
M  V30 13645 O 1783.55 6.11791 0.194623 0
M  V30 13646 C 1781.41 7.27966 -0.139777 0
M  V30 13647 N 1780.37 6.39368 -0.623421 0
M  V30 13648 C 1780.43 5.90299 -1.85969 0
M  V30 13649 N 1779.39 5.10919 -2.1133 0
M  V30 13650 C 1778.65 5.14646 -1.0015 0
M  V30 13651 C 1777.35 4.60057 -0.729219 0
M  V30 13652 O 1776.61 3.93476 -1.47746 0
M  V30 13653 N 1776.92 4.88302 0.523505 0
M  V30 13654 C 1777.67 5.63646 1.46207 0
M  V30 13655 N 1777.07 5.78186 2.69239 0
M  V30 13656 N 1778.82 6.19285 1.21544 0
M  V30 13657 C 1779.28 5.93392 -0.0308487 0
M  V30 13658 H 1781.45 7.25354 0.961601 0
M  V30 13659 H 1782.63 6.3246 -1.65676 0
M  V30 13660 H 1784.11 8.19533 -1.78278 0
M  V30 13661 H 1782.42 10.1294 -1.10029 0
M  V30 13662 H 1782.23 9.64276 -3.41316 0
M  V30 13663 H 1780.6 9.25417 -2.76357 0
M  V30 13664 H 1776.02 4.53993 0.806451 0
M  V30 13665 H 1781.23 6.11865 -2.57394 0
M  V30 13666 H 1776.16 5.34046 2.87467 0
M  V30 13667 H 1777.53 6.33391 3.42578 0
M  V30 13668 H 1783.24 6.25169 1.0783 0
M  V30 13669 P 1785.09 8.791 1.50603e-11 0
M  V30 13670 O 1786.5 9.36698 -0.018734 0
M  V30 13671 O 1784.72 7.82499 -1.07878 0
M  V30 13672 O 1784.77 8.09434 1.41446 0
M  V30 13673 C 1784.61 9.0349 2.53943 0
M  V30 13674 C 1785.15 8.35135 3.78975 0
M  V30 13675 O 1784.1 7.57904 4.1503 0
M  V30 13676 C 1786.37 7.45087 3.67298 0
M  V30 13677 O 1787.11 7.27796 4.85194 0
M  V30 13678 C 1785.7 6.17323 3.12027 0
M  V30 13679 O 1786.5 5.04149 3.47132 0
M  V30 13680 C 1784.36 6.19961 3.81809 0
M  V30 13681 N 1783.32 5.71575 2.93223 0
M  V30 13682 C 1782.29 4.99452 3.47592 0
M  V30 13683 O 1782.32 4.7199 4.69732 0
M  V30 13684 N 1781.27 4.58505 2.6803 0
M  V30 13685 C 1781.32 4.85544 1.36995 0
M  V30 13686 C 1782.42 5.55532 0.788532 0
M  V30 13687 C 1783.38 5.97426 1.60849 0
M  V30 13688 H 1784.4 5.58142 4.72986 0
M  V30 13689 H 1785.58 6.21428 2.0318 0
M  V30 13690 H 1787.06 7.85913 2.93131 0
M  V30 13691 H 1785.37 9.11171 4.55987 0
M  V30 13692 H 1785.18 9.9573 2.34194 0
M  V30 13693 H 1783.55 9.27824 2.67805 0
M  V30 13694 H 1782.47 5.7421 -0.281588 0
M  V30 13695 H 1784.23 6.53132 1.202 0
M  V30 13696 H 1786.28 4.76386 4.34983 0
M  V30 13697 P 1788.05 7.39546 4.75277 0
M  V30 13698 O 1789.47 7.81777 5.05738 0
M  V30 13699 O 1787.69 7.1065 3.32998 0
M  V30 13700 O 1787.72 6.04542 5.56673 0
M  V30 13701 C 1787.56 6.22772 7.02095 0
M  V30 13702 C 1788.1 4.97725 7.70406 0
M  V30 13703 O 1787.05 4.13256 7.58987 0
M  V30 13704 C 1789.32 4.28231 7.11815 0
M  V30 13705 O 1790.06 3.49945 8.01648 0
M  V30 13706 C 1788.65 3.5063 5.96244 0
M  V30 13707 O 1789.45 2.36482 5.64681 0
M  V30 13708 C 1787.31 3.15122 6.56374 0
M  V30 13709 H 1787.35 2.13853 6.99751 0
M  V30 13710 H 1788.53 4.13501 5.06559 0
M  V30 13711 H 1790.01 5.03285 6.70911 0
M  V30 13712 H 1788.32 5.20877 8.75697 0
M  V30 13713 H 1788.13 7.11046 7.35349 0
M  V30 13714 H 1786.5 6.35815 7.26986 0
M  V30 13715 H 1789.14 1.61644 6.13565 0
M  V30 13716 P 1791 3.65191 7.99657 0
M  V30 13717 O 1792.42 3.8425 8.48115 0
M  V30 13718 O 1790.64 4.17805 6.64342 0
M  V30 13719 O 1790.67 2.07613 7.95143 0
M  V30 13720 C 1790.51 1.44328 9.27336 0
M  V30 13721 C 1791.05 0.0220036 9.17197 0
M  V30 13722 O 1790 -0.626867 8.61923 0
M  V30 13723 C 1792.27 -0.24586 8.30336 0
M  V30 13724 O 1793.01 -1.39011 8.63583 0
M  V30 13725 C 1791.6 -0.273849 6.91158 0
M  V30 13726 O 1792.4 -1.06348 6.02892 0
M  V30 13727 C 1790.26 -0.897649 7.22545 0
M  V30 13728 H 1790.3 -1.9841 7.04286 0
M  V30 13729 H 1791.48 0.739928 6.497 0
M  V30 13730 H 1792.96 0.60668 8.36503 0
M  V30 13731 H 1791.27 -0.352479 10.1829 0
M  V30 13732 H 1791.08 2.00611 10.0304 0
M  V30 13733 H 1789.45 1.41843 9.55327 0
M  V30 13734 H 1792.09 -1.95734 6.03555 0
M  V30 13735 P 1793.95 -1.25109 8.70152 0
M  V30 13736 O 1795.37 -1.35274 9.21221 0
M  V30 13737 O 1793.59 -0.0769065 7.84762 0
M  V30 13738 O 1793.62 -2.55232 7.81161 0
M  V30 13739 C 1793.46 -3.79939 8.58154 0
M  V30 13740 C 1794 -4.94023 7.72785 0
M  V30 13741 O 1792.95 -5.18726 6.91205 0
M  V30 13742 C 1795.22 -4.69597 6.85231 0
M  V30 13743 O 1795.96 -5.83832 6.51337 0
M  V30 13744 C 1794.55 -3.96706 5.66633 0
M  V30 13745 O 1795.35 -4.15414 4.49689 0
M  V30 13746 C 1793.22 -4.66153 5.59313 0
M  V30 13747 H 1793.25 -5.47679 4.85214 0
M  V30 13748 H 1794.43 -2.89008 5.86566 0
M  V30 13749 H 1795.91 -4.0121 7.36511 0
M  V30 13750 H 1794.22 -5.80182 8.37584 0
M  V30 13751 H 1794.03 -3.73517 9.52265 0
M  V30 13752 H 1792.4 -3.97163 8.80359 0
M  V30 13753 H 1795.04 -4.90969 4.01921 0
M  V30 13754 P 1796.9 -5.75688 6.64379 0
M  V30 13755 O 1798.32 -6.11849 7.01846 0
M  V30 13756 O 1796.54 -4.30744 6.56026 0
M  V30 13757 O 1796.57 -6.37042 5.19165 0
M  V30 13758 C 1796.41 -7.83578 5.16515 0
M  V30 13759 C 1796.95 -8.33398 3.83019 0
M  V30 13760 O 1795.9 -8.10074 3.01034 0
M  V30 13761 C 1798.17 -7.65514 3.2257 0
M  V30 13762 O 1798.91 -8.4329 2.32297 0
M  V30 13763 C 1797.5 -6.40075 2.62207 0
M  V30 13764 O 1798.3 -5.92589 1.53712 0
M  V30 13765 C 1796.17 -6.9454 2.18503 0
M  V30 13766 H 1796.2 -7.23063 1.12091 0
M  V30 13767 H 1797.38 -5.6025 3.37201 0
M  V30 13768 H 1798.87 -7.35707 4.02681 0
M  V30 13769 H 1797.17 -9.40912 3.9095 0
M  V30 13770 H 1796.98 -8.29056 5.99158 0
M  V30 13771 H 1795.35 -8.10073 5.25882 0
M  V30 13772 H 1797.99 -6.30324 0.726794 0
M  V30 13773 P 1799.85 -8.4349 2.47671 0
M  V30 13774 O 1801.27 -8.94359 2.59696 0
M  V30 13775 O 1799.49 -7.1704 3.19006 0
M  V30 13776 O 1799.52 -8.16596 0.923387 0
M  V30 13777 C 1799.36 -9.38437 0.108857 0
M  V30 13778 C 1799.9 -9.08076 -1.28339 0
M  V30 13779 O 1798.85 -8.44229 -1.84713 0
M  V30 13780 C 1801.12 -8.18386 -1.42505 0
M  V30 13781 O 1801.86 -8.3501 -2.60497 0
M  V30 13782 C 1800.45 -6.80225 -1.25468 0
M  V30 13783 O 1801.25 -5.81526 -1.91035 0
M  V30 13784 C 1799.12 -7.02416 -1.9168 0
M  V30 13785 N 1798.07 -6.31033 -1.20314 0
M  V30 13786 C 1798.14 -6.18781 0.121293 0
M  V30 13787 N 1797.09 -5.49762 0.588272 0
M  V30 13788 C 1796.36 -5.22015 -0.488988 0
M  V30 13789 C 1795.05 -4.61966 -0.596448 0
M  V30 13790 O 1794.32 -4.19162 0.309059 0
M  V30 13791 N 1794.62 -4.53773 -1.878 0
M  V30 13792 C 1795.37 -4.99623 -2.99082 0
M  V30 13793 N 1794.77 -4.78912 -4.21227 0
M  V30 13794 N 1796.52 -5.59957 -2.91093 0
M  V30 13795 C 1796.98 -5.70225 -1.64218 0
M  V30 13796 H 1799.15 -6.6888 -2.96621 0
M  V30 13797 H 1800.33 -6.53517 -0.192194 0
M  V30 13798 H 1801.82 -8.36563 -0.598329 0
M  V30 13799 H 1800.12 -10.0291 -1.79807 0
M  V30 13800 H 1799.93 -10.2138 0.558219 0
M  V30 13801 H 1798.3 -9.6579 0.0444202 0
M  V30 13802 H 1793.72 -4.12883 -2.05283 0
M  V30 13803 H 1798.93 -6.59596 0.745856 0
M  V30 13804 H 1793.86 -4.31425 -4.2628 0
M  V30 13805 H 1795.24 -5.11219 -5.07148 0
M  V30 13806 H 1800.94 -5.69466 -2.79593 0
M  V30 13807 P 1802.8 -8.4349 -2.47671 0
M  V30 13808 O 1804.2 -8.99283 -2.62101 0
M  V30 13809 O 1802.42 -7.81195 -1.16947 0
M  V30 13810 O 1802.48 -7.36797 -3.63761 0
M  V30 13811 C 1802.32 -7.95349 -4.982 0
M  V30 13812 C 1802.86 -6.94537 -5.98908 0
M  V30 13813 O 1801.8 -6.10277 -6.11744 0
M  V30 13814 C 1804.07 -6.11426 -5.62335 0
M  V30 13815 O 1804.81 -5.6162 -6.70584 0
M  V30 13816 C 1803.41 -5.04409 -4.73308 0
M  V30 13817 O 1804.2 -3.85929 -4.75106 0
M  V30 13818 C 1802.07 -4.8728 -5.41006 0
M  V30 13819 N 1801.02 -4.65812 -4.42377 0
M  V30 13820 C 1799.99 -3.81293 -4.74224 0
M  V30 13821 O 1800.03 -3.20533 -5.83679 0
M  V30 13822 N 1798.98 -3.6442 -3.86349 0
M  V30 13823 C 1799.03 -4.2728 -2.6824 0
M  V30 13824 C 1800.12 -5.10813 -2.3217 0
M  V30 13825 C 1801.09 -5.27909 -3.22647 0
M  V30 13826 H 1802.1 -4.02278 -6.11074 0
M  V30 13827 H 1803.28 -5.39013 -3.70026 0
M  V30 13828 H 1804.77 -6.71494 -5.02675 0
M  V30 13829 H 1803.07 -7.45796 -6.94223 0
M  V30 13830 H 1802.88 -8.89416 -5.05237 0
M  V30 13831 H 1801.25 -8.14791 -5.18355 0
M  V30 13832 H 1800.17 -5.58884 -1.34755 0
M  V30 13833 H 1801.93 -5.92811 -2.9934 0
M  V30 13834 H 1803.99 -3.3454 -5.51577 0
M  V30 13835 P 1805.75 -5.75688 -6.64379 0
M  V30 13836 O 1807.17 -6.07627 -7.05504 0
M  V30 13837 O 1805.39 -5.88047 -5.19722 0
M  V30 13838 O 1805.43 -4.2322 -7.04443 0
M  V30 13839 C 1805.27 -3.99743 -8.4911 0
M  V30 13840 C 1805.81 -2.60516 -8.79425 0
M  V30 13841 O 1804.75 -1.82684 -8.4467 0
M  V30 13842 C 1807.02 -2.10343 -8.03628 0
M  V30 13843 O 1807.76 -1.09919 -8.67766 0
M  V30 13844 C 1806.35 -1.68446 -6.70876 0
M  V30 13845 O 1807.15 -0.678137 -6.08433 0
M  V30 13846 C 1805.02 -1.17436 -7.18567 0
M  V30 13847 H 1805.05 -0.0804732 -7.31656 0
M  V30 13848 H 1806.23 -2.54037 -6.02537 0
M  V30 13849 H 1807.72 -2.93881 -7.85526 0
M  V30 13850 H 1806.02 -2.53065 -9.86973 0
M  V30 13851 H 1805.83 -4.75072 -9.05887 0
M  V30 13852 H 1804.2 -4.05244 -8.76668 0
M  V30 13853 H 1806.84 0.177647 -6.34251 0
M  V30 13854 P 1808.7 -1.25109 -8.70152 0
M  V30 13855 O 1810.12 -1.29744 -9.22016 0
M  V30 13856 O 1808.34 -2.13714 -7.55141 0
M  V30 13857 O 1808.38 0.248149 -8.21425 0
M  V30 13858 C 1808.22 1.22779 -9.30434 0
M  V30 13859 C 1808.76 2.56293 -8.80664 0
M  V30 13860 O 1807.7 3.02979 -8.09349 0
M  V30 13861 C 1809.97 2.57523 -7.89775 0
M  V30 13862 O 1810.71 3.7668 -7.89438 0
M  V30 13863 C 1809.31 2.20997 -6.55446 0
M  V30 13864 O 1810.1 2.71895 -5.48509 0
M  V30 13865 C 1807.97 2.89693 -6.67988 0
M  V30 13866 H 1808 3.88793 -6.19859 0
M  V30 13867 H 1809.18 1.12046 -6.44229 0
M  V30 13868 H 1810.67 1.7746 -8.19711 0
M  V30 13869 H 1808.97 3.20706 -9.67112 0
M  V30 13870 H 1808.78 0.901032 -10.1892 0
M  V30 13871 H 1807.15 1.33049 -9.56592 0
M  V30 13872 H 1809.79 3.57847 -5.23962 0
M  V30 13873 H 1812.35 3.39234 -7.5115 0
M  V30 END ATOM
M  V30 BEGIN BOND
M  V30 END BOND
M  V30 END CTAB
M  END
$$$$
