drugbank_target|P0A0Z8 N-acylneuraminate cytidylyltransferase (DB04555)
 OpenBabel12092119573D

  0  0  0     0  0            999 V3000
M  V30 BEGIN CTAB
M  V30 COUNTS 3515 3543 0 0 0
M  V30 BEGIN ATOM
M  V30 1 H -0.908 1.98254 -0.117106 0
M  V30 2 N 0 1.576 0 0
M  V30 3 C 0.933 2.03868 1.02534 0
M  V30 4 C 1.911 0.928543 1.3348 0
M  V30 5 O 3.095 1.19667 1.45644 0
M  V30 6 C 0.222 2.43627 2.35294 0
M  V30 7 C -0.732 3.65373 2.2001 0
M  V30 8 S 0.101 5.13292 1.52614 0
M  V30 9 C 1.257 5.56322 2.86805 0
M  V30 10 H 1.49 2.90518 0.631377 0
M  V30 11 H -0.977 1.52953 0.210867 0
M  V30 12 H 0.981 2.67203 3.11629 0
M  V30 13 H -0.358 1.57376 2.7183 0
M  V30 14 H -1.165 3.90944 3.18086 0
M  V30 15 H -1.563 3.418 1.51819 0
M  V30 16 H 0.729 5.58782 3.83104 0
M  V30 17 H 1.672 6.56266 2.65933 0
M  V30 18 H 2.08 4.83886 2.90714 0
M  V30 19 N 1.4781 -0.272755 1.55222 0
M  V30 20 C 2.3881 -1.35918 1.91216 0
M  V30 21 C 3.4041 -1.54026 0.809436 0
M  V30 22 O 4.5801 -1.68148 1.10852 0
M  V30 23 C 1.6451 -2.69834 2.17693 0
M  V30 24 C 0.7061 -2.6047 3.41253 0
M  V30 25 C -0.0609 -3.88 3.66458 0
M  V30 26 O 0.1621 -4.88693 2.94169 0
M  V30 27 O -0.9039 -3.88189 4.59992 0
M  V30 28 H 2.9221 -1.0839 2.83699 0
M  V30 29 H 0.5071 -0.471301 1.41771 0
M  V30 30 H 2.3891 -3.49017 2.36147 0
M  V30 31 H 1.0641 -2.97148 1.28392 0
M  V30 32 H -0.0289 -1.79663 3.28134 0
M  V30 33 H 1.3041 -2.38106 4.30774 0
M  V30 34 N 2.9562 -1.48159 -0.537278 0
M  V30 35 C 3.9032 -1.62138 -1.64256 0
M  V30 36 C 4.8732 -0.463668 -1.59497 0
M  V30 37 O 6.0582 -0.686241 -1.78032 0
M  V30 38 C 3.1982 -1.66028 -3.02537 0
M  V30 39 C 2.3112 -2.92855 -3.17585 0
M  V30 40 C 1.4462 -2.87952 -4.46382 0
M  V30 41 C 0.4852 -4.09516 -4.54932 0
M  V30 42 N -0.3778 -4.02733 -5.75109 0
M  V30 43 H 4.4622 -2.56529 -1.51647 0
M  V30 44 H 1.9992 -1.27224 -0.738414 0
M  V30 45 H 3.9572 -1.66265 -3.82638 0
M  V30 46 H 2.5872 -0.751331 -3.13934 0
M  V30 47 H 1.6392 -3.02395 -2.30784 0
M  V30 48 H 2.9512 -3.82822 -3.19764 0
M  V30 49 H 2.1052 -2.8655 -5.34765 0
M  V30 50 H 0.8442 -1.95702 -4.46712 0
M  V30 51 H -0.1508 -4.11201 -3.64957 0
M  V30 52 H 1.0742 -5.02917 -4.56346 0
M  V30 53 H -0.9798 -3.13299 -5.76351 0
M  V30 54 H -1.0628 -4.86397 -5.78752 0
M  V30 55 H 0.2052 -4.05379 -6.65799 0
M  V30 56 N 4.4343 0.785586 -1.36625 0
M  V30 57 C 5.3663 1.90711 -1.2713 0
M  V30 58 C 6.3793 1.61688 -0.189986 0
M  V30 59 O 7.5683 1.72864 -0.445014 0
M  V30 60 C 4.6683 3.25611 -0.939713 0
M  V30 61 C 3.8413 3.82385 -2.12369 0
M  V30 62 C 2.9003 4.95732 -1.76456 0
M  V30 63 O 1.9263 5.12047 -2.48589 0
M  V30 64 N 3.1283 5.76258 -0.700492 0
M  V30 65 H 5.8933 1.99376 -2.23762 0
M  V30 66 H 3.4543 0.964041 -1.30069 0
M  V30 67 H 5.4463 3.98937 -0.680554 0
M  V30 68 H 4.0163 3.12538 -0.0624074 0
M  V30 69 H 3.2363 3.01001 -2.54543 0
M  V30 70 H 4.5243 4.17047 -2.9146 0
M  V30 71 H 3.9223 5.65609 -0.101624 0
M  V30 72 H 2.4793 6.4987 -0.501165 0
M  V30 73 N 5.9124 1.20967 1.01018 0
M  V30 74 C 6.8604 0.961223 2.1181 0
M  V30 75 C 7.8544 -0.0897034 1.69162 0
M  V30 76 O 9.0604 0.0612271 1.79896 0
M  V30 77 H 5.4354 0.29355 0.692338 0
M  V30 78 H 7.4064 1.90178 2.29946 0
M  V30 79 C 6.1554 0.536854 3.4353 0
M  V30 80 H 5.4784 1.33713 3.76777 0
M  V30 81 H 6.9184 0.402286 4.22087 0
M  V30 82 C 5.3774 -0.751574 3.2841 0
M  V30 83 O 5.9074 -1.80841 3.58691 0
M  V30 84 N 4.1134 -0.716079 2.81639 0
M  V30 85 H 3.6604 0.144236 2.57196 0
M  V30 86 H 3.6184 -1.57847 2.71904 0
M  V30 87 N 7.3905 -1.2043 1.01659 0
M  V30 88 C 8.6395 -1.89118 0.701237 0
M  V30 89 C 8.9525 -1.79705 -0.772358 0
M  V30 90 O 10.1585 -2.43528 -1.20026 0
M  V30 91 C 8.6145 -3.39168 1.20388 0
M  V30 92 C 8.2225 -3.57166 2.70438 0
M  V30 93 C 9.9665 -4.1341 0.963953 0
M  V30 94 C 7.8735 -5.01042 3.14183 0
M  V30 95 H 6.8035 -0.708267 0.2586 0
M  V30 96 H 9.4545 -1.36239 1.22927 0
M  V30 97 H 7.8365 -3.91369 0.603824 0
M  V30 98 H 9.0105 -3.15351 3.35992 0
M  V30 99 H 7.3255 -2.96294 2.92572 0
M  V30 100 H 9.9225 -5.19491 1.26621 0
M  V30 101 H 10.2655 -4.16181 -0.099578 0
M  V30 102 H 10.7985 -3.67309 1.52738 0
M  V30 103 H 7.5375 -5.03426 4.19812 0
M  V30 104 H 7.0575 -5.43668 2.53348 0
M  V30 105 H 8.7365 -5.69623 3.0682 0
M  V30 106 N 8.8686 -0.792821 -1.36206 0
M  V30 107 C 9.8316 -0.199459 -2.2833 0
M  V30 108 C 10.8316 0.605189 -1.48977 0
M  V30 109 O 12.0216 0.425685 -1.68919 0
M  V30 110 C 9.1536 0.723523 -3.33134 0
M  V30 111 H 10.3466 -1.01181 -2.82316 0
M  V30 112 H 7.8996 -0.562485 -1.45828 0
M  V30 113 H 8.6346 1.56008 -2.84309 0
M  V30 114 H 8.4196 0.148436 -3.91819 0
M  V30 115 H 9.9096 1.13344 -4.01924 0
M  V30 116 N 10.3467 1.47872 -0.545128 0
M  V30 117 C 11.5927 2.02793 -0.0166104 0
M  V30 118 C 11.9257 1.41987 1.32489 0
M  V30 119 O 11.2007 0.571045 1.85928 0
M  V30 120 C 11.4837 3.59989 0.0893294 0
M  V30 121 C 11.3367 4.3125 -1.27841 0
M  V30 122 C 12.6557 4.32606 0.808724 0
M  V30 123 H 9.7747 0.736962 -0.00751035 0
M  V30 124 H 12.4167 1.76433 -0.705085 0
M  V30 125 H 10.5667 3.82579 0.675681 0
M  V30 126 H 12.2387 4.20035 -1.90704 0
M  V30 127 H 10.4817 3.92076 -1.85632 0
M  V30 128 H 11.1527 5.39736 -1.15713 0
M  V30 129 H 13.6287 4.14936 0.310992 0
M  V30 130 H 12.5047 5.42251 0.851782 0
M  V30 131 H 12.7657 4.00963 1.86229 0
M  V30 132 N 11.8248 0.280983 1.55075 0
M  V30 133 C 13.0738 -0.334784 1.98902 0
M  V30 134 C 13.3868 -1.56534 1.17288 0
M  V30 135 O 14.5928 -2.25443 1.51287 0
M  V30 136 C 13.0488 -0.646994 3.54037 0
M  V30 137 C 12.6568 0.564085 4.44435 0
M  V30 138 C 14.4008 -1.22506 4.06439 0
M  V30 139 C 12.3078 0.226137 5.90967 0
M  V30 140 H 11.2378 -0.128866 0.742906 0
M  V30 141 H 13.8888 0.386556 1.79382 0
M  V30 142 H 12.2708 -1.42739 3.6938 0
M  V30 143 H 13.4448 1.34082 4.40861 0
M  V30 144 H 11.7598 1.0594 4.02698 0
M  V30 145 H 14.3568 -1.49182 5.13468 0
M  V30 146 H 14.6998 -2.16085 3.55827 0
M  V30 147 H 15.2328 -0.50682 3.94558 0
M  V30 148 H 11.9718 1.12996 6.45687 0
M  V30 149 H 11.4918 -0.513717 5.97596 0
M  V30 150 H 13.1708 -0.179539 6.46751 0
M  V30 151 N 13.3029 -1.57598 0.00835791 0
M  V30 152 C 14.2329 -2.1198 -0.979113 0
M  V30 153 C 15.2139 -1.03091 -1.35301 0
M  V30 154 O 16.3989 -1.30818 -1.43528 0
M  V30 155 C 13.5289 -2.62995 -2.26828 0
M  V30 156 C 12.4829 -3.76485 -2.03576 0
M  V30 157 C 11.8089 -4.13846 -3.38579 0
M  V30 158 C 13.1089 -5.0342 -1.39161 0
M  V30 159 H 14.8029 -2.94738 -0.526281 0
M  V30 160 H 12.3489 -1.41783 -0.251704 0
M  V30 161 H 14.3019 -2.99669 -2.96271 0
M  V30 162 H 13.0259 -1.7737 -2.7424 0
M  V30 163 H 11.6849 -3.40217 -1.36557 0
M  V30 164 H 11.3329 -3.25232 -3.83709 0
M  V30 165 H 11.0329 -4.90312 -3.23834 0
M  V30 166 H 12.5569 -4.53086 -4.09323 0
M  V30 167 H 13.9709 -5.37812 -1.98573 0
M  V30 168 H 12.3679 -5.84746 -1.34878 0
M  V30 169 H 13.4379 -4.83548 -0.361868 0
M  V30 170 N 14.781 0.264519 -1.55364 0
M  V30 171 C 15.744 1.31046 -1.88042 0
M  V30 172 C 16.744 1.41943 -0.755569 0
M  V30 173 O 17.934 1.40947 -1.02369 0
M  V30 174 C 15.066 2.69067 -2.09323 0
M  V30 175 H 16.259 1.03297 -2.81549 0
M  V30 176 H 13.812 0.502989 -1.47986 0
M  V30 177 H 14.547 3.01982 -1.18226 0
M  V30 178 H 14.332 2.62542 -2.91229 0
M  V30 179 H 15.822 3.44623 -2.35848 0
M  V30 180 N 16.2591 1.48442 0.529413 0
M  V30 181 C 17.6751 1.34575 0.858004 0
M  V30 182 C 17.8751 0.3572 1.98309 0
M  V30 183 O 16.9311 -0.221379 2.51528 0
M  V30 184 C 18.2441 2.74617 1.22499 0
M  V30 185 C 19.7921 2.83109 1.33484 0
M  V30 186 C 20.2671 4.23854 1.73526 0
M  V30 187 N 21.7581 4.2653 1.80628 0
M  V30 188 C 22.4931 5.32372 2.12997 0
M  V30 189 N 21.9891 6.48491 2.43786 0
M  V30 190 N 23.7821 5.19766 2.14008 0
M  V30 191 H 15.9331 2.1133 -0.212925 0
M  V30 192 H 18.1961 0.947439 -0.0326199 0
M  V30 193 H 17.9021 3.4852 0.471905 0
M  V30 194 H 17.7761 3.08177 2.17501 0
M  V30 195 H 20.1631 2.09462 2.0787 0
M  V30 196 H 20.2441 2.53168 0.366027 0
M  V30 197 H 19.8881 4.98018 0.997013 0
M  V30 198 H 19.8181 4.5124 2.71459 0
M  V30 199 H 22.3091 3.42772 1.59108 0
M  V30 200 H 22.6221 7.24993 2.67592 0
M  V30 201 H 20.9671 6.51765 2.41304 0
M  V30 202 H 24.1581 4.28066 1.89412 0
M  V30 203 H 24.3311 6.02354 2.38902 0
M  V30 204 N 17.7372 -0.778329 1.37039 0
M  V30 205 C 18.6692 -1.90034 1.2814 0
M  V30 206 C 19.6822 -1.61585 0.198558 0
M  V30 207 O 20.8712 -1.72625 0.454175 0
M  V30 208 C 17.9712 -3.25108 0.956968 0
M  V30 209 C 17.1442 -3.81253 2.14394 0
M  V30 210 C 16.2032 -4.94789 1.79082 0
M  V30 211 O 15.2292 -5.10721 2.51301 0
M  V30 212 N 16.4312 -5.75878 0.731043 0
M  V30 213 H 19.1962 -1.98186 2.24816 0
M  V30 214 H 16.7572 -0.957129 1.30578 0
M  V30 215 H 18.7492 -3.9857 0.701701 0
M  V30 216 H 17.3192 -3.125 0.0789812 0
M  V30 217 H 16.5392 -2.99647 2.56135 0
M  V30 218 H 17.8272 -4.15495 2.93668 0
M  V30 219 H 17.2252 -5.65547 0.131618 0
M  V30 220 H 15.7822 -6.49596 0.535622 0
M  V30 221 N 19.2153 -1.21501 -1.00376 0
M  V30 222 C 20.1633 -0.972442 -2.11297 0
M  V30 223 C 21.1573 0.080731 -1.69208 0
M  V30 224 O 22.3633 -0.0707666 -1.79861 0
M  V30 225 H 18.7383 -0.297218 -0.690772 0
M  V30 226 H 20.7093 -1.91394 -2.28934 0
M  V30 227 C 19.4583 -0.555065 -3.43241 0
M  V30 228 H 18.7813 -1.35709 -3.76062 0
M  V30 229 H 20.2213 -0.424664 -4.21868 0
M  V30 230 C 18.6803 0.734147 -3.28804 0
M  V30 231 O 19.2103 1.78937 -3.59645 0
M  V30 232 N 17.4163 0.701133 -2.82015 0
M  V30 233 H 16.9633 -0.157874 -2.57116 0
M  V30 234 H 16.9213 1.56403 -2.72737 0
M  V30 235 N 20.6934 1.19889 -1.02296 0
M  V30 236 C 21.9184 1.9393 -0.735237 0
M  V30 237 C 22.3434 1.74639 0.698782 0
M  V30 238 O 21.7014 1.04481 1.48167 0
M  V30 239 C 21.7494 3.43916 -1.08417 0
M  V30 240 O 20.8534 4.11917 -0.199446 0
M  V30 241 H 20.1944 0.605645 -0.272196 0
M  V30 242 H 22.7244 1.52137 -1.36804 0
M  V30 243 H 22.7344 3.9456 -1.03856 0
M  V30 244 H 21.4094 3.5728 -2.12894 0
M  V30 245 H 19.9864 3.71666 -0.303136 0
M  V30 246 N 22.1715 0.800033 1.35784 0
M  V30 247 C 23.1185 0.203848 2.29898 0
M  V30 248 C 24.0885 -0.658375 1.52495 0
M  V30 249 O 25.2735 -0.604832 1.8096 0
M  V30 250 C 22.4135 -0.64688 3.38983 0
M  V30 251 C 21.5265 0.235054 4.3136 0
M  V30 252 C 20.6615 -0.623054 5.27533 0
M  V30 253 C 19.7005 0.259682 6.11549 0
M  V30 254 N 18.8375 -0.558019 6.99879 0
M  V30 255 H 23.6775 1.01186 2.80295 0
M  V30 256 H 21.2145 0.51053 1.37957 0
M  V30 257 H 23.1725 -1.15521 4.00887 0
M  V30 258 H 21.8025 -1.42021 2.89879 0
M  V30 259 H 20.8545 0.861438 3.70518 0
M  V30 260 H 22.1665 0.914768 4.9034 0
M  V30 261 H 21.3205 -1.19678 5.94779 0
M  V30 262 H 20.0595 -1.33636 4.69034 0
M  V30 263 H 19.0645 0.845726 5.43256 0
M  V30 264 H 20.2895 0.970748 6.72126 0
M  V30 265 H 18.2355 -1.25542 6.43875 0
M  V30 266 H 18.1525 0.0637872 7.55973 0
M  V30 267 H 19.4205 -1.11523 7.71481 0
M  V30 268 N 23.6496 -1.47581 0.552962 0
M  V30 269 C 24.8976 -2.02082 0.0272703 0
M  V30 270 C 25.2186 -1.4301 -1.32563 0
M  V30 271 O 24.4886 -0.603745 -1.86365 0
M  V30 272 H 23.0686 -0.746966 0.00709182 0
M  V30 273 H 25.7306 -1.81033 0.722008 0
M  V30 274 H 24.8266 -3.12034 -0.0639951 0
M  V30 275 N 25.1277 -0.289203 -1.54924 0
M  V30 276 C 26.0577 0.58549 -2.2604 0
M  V30 277 C 27.0387 1.14753 -1.25562 0
M  V30 278 O 28.2237 1.17906 -1.54311 0
M  V30 279 C 25.3537 1.76305 -2.99222 0
M  V30 280 C 24.3077 1.33191 -4.06748 0
M  V30 281 C 23.6337 2.5937 -4.6758 0
M  V30 282 C 24.9337 0.471775 -5.20165 0
M  V30 283 H 26.6277 -0.00763532 -2.99399 0
M  V30 284 H 24.1737 -0.00511229 -1.43999 0
M  V30 285 H 26.1267 2.38097 -3.47689 0
M  V30 286 H 24.8507 2.38223 -2.23422 0
M  V30 287 H 23.5097 0.737121 -3.59113 0
M  V30 288 H 23.1577 3.19576 -3.88433 0
M  V30 289 H 22.8577 2.31228 -5.40192 0
M  V30 290 H 24.3817 3.21985 -5.18804 0
M  V30 291 H 25.7957 0.995056 -5.64599 0
M  V30 292 H 24.1927 0.284639 -5.99425 0
M  V30 293 H 25.2627 -0.506041 -4.82252 0
M  V30 294 N 26.6058 1.57591 -0.0167156 0
M  V30 295 C 28.0168 1.79201 0.523834 0
M  V30 296 C 28.3678 0.925796 1.72984 0
M  V30 297 O 27.4928 0.132792 2.15992 0
M  V30 298 C 28.0878 3.25 0.957091 0
M  V30 299 C 26.6468 3.47648 1.44283 0
M  V30 300 C 25.7938 2.74374 0.401757 0
M  V30 301 H 28.7448 1.56831 -0.242816 0
M  V30 302 H 28.7658 3.34031 1.82219 0
M  V30 303 H 28.2778 3.88019 0.0791415 0
M  V30 304 H 26.3788 2.89866 2.34113 0
M  V30 305 H 26.4918 4.56352 1.45877 0
M  V30 306 H 24.8558 2.39485 0.867121 0
M  V30 307 H 25.6388 3.40102 -0.467513 0
M  V30 308 N 28.0839 -0.256276 1.55502 0
M  V30 309 C 29.0139 -1.32102 1.92539 0
M  V30 310 C 29.9949 -1.50684 0.789194 0
M  V30 311 O 31.1799 -1.63449 1.04872 0
M  V30 312 C 28.3099 -2.67752 2.21192 0
M  V30 313 C 27.2639 -2.63878 3.36975 0
M  V30 314 C 26.5899 -4.03236 3.51147 0
M  V30 315 C 27.8899 -2.21682 4.72921 0
M  V30 316 H 29.5839 -1.01351 2.81724 0
M  V30 317 H 27.1299 -0.486105 1.35547 0
M  V30 318 H 29.0829 -3.42365 2.45691 0
M  V30 319 H 27.8069 -3.0012 1.28824 0
M  V30 320 H 26.4659 -1.91722 3.12471 0
M  V30 321 H 26.1139 -4.32854 2.56216 0
M  V30 322 H 25.8139 -4.01535 4.29003 0
M  V30 323 H 27.3379 -4.79563 3.77957 0
M  V30 324 H 28.7519 -2.86023 4.96854 0
M  V30 325 H 27.1489 -2.3111 5.53812 0
M  V30 326 H 28.2189 -1.16833 4.70615 0
M  V30 327 N 29.562 -1.4872 -0.521534 0
M  V30 328 C 30.509 -1.63871 -1.62527 0
M  V30 329 C 31.479 -0.480559 -1.58996 0
M  V30 330 O 32.664 -0.705085 -1.77294 0
M  V30 331 C 29.804 -1.69227 -3.00759 0
M  V30 332 C 28.917 -2.96207 -3.14461 0
M  V30 333 C 28.052 -2.92671 -4.43303 0
M  V30 334 C 27.091 -4.14318 -4.50563 0
M  V30 335 N 26.228 -4.0881 -5.70805 0
M  V30 336 H 31.068 -2.58123 -1.48918 0
M  V30 337 H 28.605 -1.28 -0.724878 0
M  V30 338 H 30.563 -1.70314 -3.80853 0
M  V30 339 H 29.193 -0.784586 -3.1312 0
M  V30 340 H 28.245 -3.04826 -2.27564 0
M  V30 341 H 29.557 -3.86192 -3.15686 0
M  V30 342 H 28.711 -2.92206 -5.31696 0
M  V30 343 H 27.45 -2.00429 -4.44612 0
M  V30 344 H 26.455 -4.15049 -3.60575 0
M  V30 345 H 27.68 -5.07729 -4.50986 0
M  V30 346 H 25.626 -3.19394 -5.72995 0
M  V30 347 H 25.543 -4.92509 -5.7356 0
M  V30 348 H 26.811 -4.12418 -6.61462 0
M  V30 349 N 31.0401 0.771051 -1.3745 0
M  V30 350 C 31.9881 1.90574 -1.33358 0
M  V30 351 C 32.9821 1.67936 -0.22224 0
M  V30 352 O 34.1881 1.75717 -0.390304 0
M  V30 353 H 30.5631 0.626714 -0.415612 0
M  V30 354 H 32.5341 1.91142 -2.29144 0
M  V30 355 C 31.2831 3.27845 -1.15813 0
M  V30 356 H 30.6061 3.45842 -2.00583 0
M  V30 357 H 32.0461 4.07538 -1.17 0
M  V30 358 C 30.5051 3.36625 0.136165 0
M  V30 359 O 31.0351 3.85785 1.11949 0
M  V30 360 N 29.2411 2.89997 0.187099 0
M  V30 361 H 28.7881 2.50182 -0.613753 0
M  V30 362 H 28.7461 2.96252 1.05272 0
M  V30 363 N 32.5182 1.22032 0.997298 0
M  V30 364 C 33.4482 1.01065 2.10495 0
M  V30 365 C 34.4292 -0.0669542 1.69968 0
M  V30 366 O 35.6142 0.0943987 1.9397 0
M  V30 367 C 32.7442 0.582874 3.42374 0
M  V30 368 C 31.6982 1.60592 3.96729 0
M  V30 369 C 31.0242 1.03412 5.24605 0
M  V30 370 C 32.3242 2.99478 4.27914 0
M  V30 371 H 34.0182 1.93708 2.28292 0
M  V30 372 H 31.5642 0.932761 1.09707 0
M  V30 373 H 33.5172 0.423332 4.19268 0
M  V30 374 H 32.2412 -0.379213 3.24391 0
M  V30 375 H 30.9002 1.75316 3.21963 0
M  V30 376 H 30.5482 0.063518 5.0296 0
M  V30 377 H 30.2482 1.71754 5.61938 0
M  V30 378 H 31.7722 0.886066 6.04137 0
M  V30 379 H 33.1862 2.88153 4.95622 0
M  V30 380 H 31.5832 3.64903 4.76409 0
M  V30 381 H 32.6532 3.49742 3.3587 0
M  V30 382 N 33.9963 -1.19345 1.0293 0
M  V30 383 C 35.4123 -1.41069 0.746446 0
M  V30 384 C 35.6123 -1.90078 -0.668776 0
M  V30 385 O 34.6683 -2.0778 -1.4347 0
M  V30 386 C 35.9813 -2.42141 1.78292 0
M  V30 387 C 37.5293 -2.55887 1.80252 0
M  V30 388 C 38.0043 -3.60214 2.8286 0
M  V30 389 N 39.4953 -3.67711 2.81679 0
M  V30 390 C 40.2303 -4.48128 3.57727 0
M  V30 391 N 39.7263 -5.32248 4.43491 0
M  V30 392 N 41.5193 -4.42782 3.46267 0
M  V30 393 H 33.6703 -0.858536 1.94275 0
M  V30 394 H 35.9333 -0.439541 0.839945 0
M  V30 395 H 35.6393 -2.13155 2.79746 0
M  V30 396 H 35.5133 -3.41323 1.60557 0
M  V30 397 H 37.9003 -2.84196 0.794757 0
M  V30 398 H 37.9813 -1.56858 2.02062 0
M  V30 399 H 37.6253 -3.32647 3.83807 0
M  V30 400 H 37.5553 -4.58895 2.58307 0
M  V30 401 H 40.0463 -3.07634 2.19476 0
M  V30 402 H 40.3593 -5.90729 4.98256 0
M  V30 403 H 38.7043 -5.31707 4.47564 0
M  V30 404 H 41.8953 -3.76107 2.78677 0
M  V30 405 H 42.0683 -5.05215 4.05785 0
M  V30 406 N 35.4744 -0.807222 -1.35358 0
M  V30 407 C 36.4214 -0.216037 -2.29787 0
M  V30 408 C 37.3914 0.650278 -1.52842 0
M  V30 409 O 38.5764 0.595227 -1.81278 0
M  V30 410 C 35.7164 0.628893 -3.39321 0
M  V30 411 C 34.8294 -0.257927 -4.31229 0
M  V30 412 C 33.9644 0.595069 -5.27856 0
M  V30 413 C 33.0034 -0.292111 -6.11403 0
M  V30 414 N 32.1404 0.520895 -7.00165 0
M  V30 415 H 36.9804 -1.02671 -2.79755 0
M  V30 416 H 34.5174 -0.517839 -1.37684 0
M  V30 417 H 36.4754 1.13393 -4.01494 0
M  V30 418 H 35.1054 1.40482 -2.90628 0
M  V30 419 H 34.1574 -0.881076 -3.70056 0
M  V30 420 H 35.4694 -0.940759 -4.89848 0
M  V30 421 H 34.6234 1.16522 -5.95405 0
M  V30 422 H 33.3624 1.31146 -4.69736 0
M  V30 423 H 32.3674 -0.874525 -5.428 0
M  V30 424 H 33.5924 -1.00638 -6.71602 0
M  V30 425 H 31.5384 1.22125 -6.44532 0
M  V30 426 H 31.4554 -0.103877 -7.55929 0
M  V30 427 H 32.7234 1.0743 -7.72062 0
M  V30 428 N 36.9525 1.47285 -0.560781 0
M  V30 429 C 37.8855 2.27009 0.232821 0
M  V30 430 C 38.8635 1.34273 0.917039 0
M  V30 431 O 40.0475 1.63659 0.935315 0
M  V30 432 C 37.1745 3.11406 1.33206 0
M  V30 433 C 36.2205 4.19746 0.756019 0
M  V30 434 S 37.0535 5.34003 -0.400165 0
M  V30 435 C 38.2095 6.21964 0.700805 0
M  V30 436 H 38.4425 2.93971 -0.443683 0
M  V30 437 H 35.9755 1.50446 -0.347181 0
M  V30 438 H 37.9335 3.60601 1.96156 0
M  V30 439 H 36.5945 2.438 1.98041 0
M  V30 440 H 35.7875 4.78541 1.5816 0
M  V30 441 H 35.3895 3.73451 0.202619 0
M  V30 442 H 37.6815 6.58529 1.59202 0
M  V30 443 H 38.6245 7.07941 0.150126 0
M  V30 444 H 39.0325 5.5566 0.995083 0
M  V30 445 N 38.4306 0.297415 1.54768 0
M  V30 446 C 39.3786 -0.596051 2.24833 0
M  V30 447 C 40.3726 -1.13992 1.25308 0
M  V30 448 O 41.5786 -1.09098 1.4317 0
M  V30 449 H 37.9536 -0.210814 0.721846 0
M  V30 450 H 39.9246 0.0174667 2.98395 0
M  V30 451 C 38.6736 -1.75818 2.99972 0
M  V30 452 H 37.9966 -1.3489 3.76357 0
M  V30 453 H 39.4366 -2.35949 3.52284 0
M  V30 454 C 37.8956 -2.66014 2.06732 0
M  V30 455 O 38.4256 -3.67009 1.63302 0
M  V30 456 N 36.6316 -2.33669 1.72763 0
M  V30 457 H 36.1786 -1.51586 2.08277 0
M  V30 458 H 36.1366 -2.94285 1.10652 0
M  V30 459 N 39.9087 -1.5758 0.0250728 0
M  V30 460 C 41.1567 -1.91255 -0.653151 0
M  V30 461 C 41.4777 -0.901691 -1.729 0
M  V30 462 O 40.7477 0.0573785 -1.95816 0
M  V30 463 H 39.3277 -0.705942 -0.244243 0
M  V30 464 H 41.9897 -1.94767 0.0719209 0
M  V30 465 H 41.0857 -2.91752 -1.10847 0
M  V30 466 N 41.3868 0.248026 -1.55636 0
M  V30 467 C 42.6358 0.974134 -1.76617 0
M  V30 468 C 42.9488 1.86528 -0.588796 0
M  V30 469 O 44.1548 2.62805 -0.681594 0
M  V30 470 C 42.6108 1.78213 -3.12679 0
M  V30 471 C 42.2188 0.93843 -4.38061 0
M  V30 472 C 43.9628 2.50104 -3.42999 0
M  V30 473 C 41.8698 1.74225 -5.65155 0
M  V30 474 H 40.7998 0.36745 -0.658405 0
M  V30 475 H 43.4508 0.22884 -1.82067 0
M  V30 476 H 41.8328 2.56933 -3.01333 0
M  V30 477 H 43.0068 0.193635 -4.60393 0
M  V30 478 H 41.3218 0.332905 -4.15067 0
M  V30 479 H 43.9188 3.10694 -4.3517 0
M  V30 480 H 44.2618 3.21662 -2.64271 0
M  V30 481 H 44.7948 1.78395 -3.55556 0
M  V30 482 H 41.5338 1.07043 -6.46701 0
M  V30 483 H 41.0538 2.46235 -5.46926 0
M  V30 484 H 42.7328 2.30967 -6.0437 0
M  V30 485 N 42.8649 1.48995 0.513639 0
M  V30 486 C 44.0899 1.61792 1.29762 0
M  V30 487 C 44.5149 0.284475 1.85936 0
M  V30 488 O 43.8729 -0.746185 1.65232 0
M  V30 489 C 43.9209 2.67993 2.41272 0
M  V30 490 O 43.0249 2.26287 3.44772 0
M  V30 491 H 42.3659 0.541963 0.38363 0
M  V30 492 H 44.8959 1.95097 0.616307 0
M  V30 493 H 44.9059 2.89772 2.87221 0
M  V30 494 H 43.5809 3.64791 1.9975 0
M  V30 495 H 42.1579 2.14788 3.04829 0
M  V30 496 N 44.343 -0.763751 1.37857 0
M  V30 497 C 45.273 -1.89103 1.36975 0
M  V30 498 C 46.254 -1.68439 0.237152 0
M  V30 499 O 47.439 -1.8918 0.438713 0
M  V30 500 C 44.569 -3.26496 1.18395 0
M  V30 501 C 43.523 -3.61741 2.28751 0
M  V30 502 C 42.849 -4.97762 1.95286 0
M  V30 503 C 44.149 -3.67665 3.70972 0
M  V30 504 H 45.843 -1.90099 2.31307 0
M  V30 505 H 43.389 -0.91319 1.11341 0
M  V30 506 H 45.342 -4.05003 1.16406 0
M  V30 507 H 44.066 -3.25955 0.205215 0
M  V30 508 H 42.725 -2.85547 2.29909 0
M  V30 509 H 42.373 -4.93769 0.959221 0
M  V30 510 H 42.073 -5.22313 2.69189 0
M  V30 511 H 43.597 -5.7866 1.94898 0
M  V30 512 H 45.011 -4.36307 3.719 0
M  V30 513 H 43.408 -4.03718 4.43995 0
M  V30 514 H 44.478 -2.68134 4.0402 0
M  V30 515 N 45.8211 -1.22559 -0.990812 0
M  V30 516 C 46.7511 -1.0218 -2.09956 0
M  V30 517 C 47.7321 0.0579394 -1.70001 0
M  V30 518 O 48.9171 -0.104684 -1.93918 0
M  V30 519 C 46.0471 -0.601023 -3.4206 0
M  V30 520 C 45.0011 -1.62694 -3.95872 0
M  V30 521 C 44.3271 -1.06193 -5.24049 0
M  V30 522 C 45.6271 -3.01743 -4.2632 0
M  V30 523 H 47.3211 -1.94916 -2.27262 0
M  V30 524 H 44.8671 -0.938566 -1.09211 0
M  V30 525 H 46.8201 -0.445561 -4.19038 0
M  V30 526 H 45.5441 0.362005 -3.24588 0
M  V30 527 H 44.2031 -1.77021 -3.21028 0
M  V30 528 H 43.8511 -0.0901903 -5.02919 0
M  V30 529 H 43.5511 -1.74732 -5.61019 0
M  V30 530 H 45.0751 -0.918092 -6.03658 0
M  V30 531 H 46.4891 -2.90777 -4.94087 0
M  V30 532 H 44.8861 -3.67425 -4.74467 0
M  V30 533 H 45.9561 -3.51518 -3.34011 0
M  V30 534 N 47.2992 1.18797 -1.03562 0
M  V30 535 C 48.5472 1.88278 -0.734569 0
M  V30 536 C 48.8682 1.8043 0.739586 0
M  V30 537 O 48.1382 1.21925 1.53333 0
M  V30 538 H 46.7182 0.696991 -0.268725 0
M  V30 539 H 49.3802 1.44192 -1.31129 0
M  V30 540 H 48.4762 2.94443 -1.03489 0
M  V30 541 N 48.7773 0.814389 1.34928 0
M  V30 542 C 49.7273 0.202752 2.27097 0
M  V30 543 C 50.7113 -0.62799 1.48139 0
M  V30 544 O 51.9033 -0.483969 1.70255 0
M  V30 545 C 49.0323 -0.64146 3.37254 0
M  V30 546 C 48.1183 0.19944 4.23631 0
M  V30 547 N 48.5093 1.26628 4.89693 0
M  V30 548 C 46.8073 -0.0176433 4.45997 0
M  V30 549 C 47.5083 1.78031 5.53787 0
M  V30 550 N 46.4843 1.08553 5.32651 0
M  V30 551 H 50.2863 1.01893 2.75672 0
M  V30 552 H 47.8003 0.656332 1.48546 0
M  V30 553 H 49.7973 -1.09575 4.02243 0
M  V30 554 H 48.4573 -1.4559 2.9023 0
M  V30 555 H 49.4683 1.64901 4.90946 0
M  V30 556 H 46.1453 -0.800601 4.09752 0
M  V30 557 H 47.5353 2.67236 6.16469 0
M  V30 558 N 50.2554 -1.46986 0.568584 0
M  V30 559 C 51.4834 -2.0683 0.0539956 0
M  V30 560 C 51.8984 -1.41953 -1.24478 0
M  V30 561 O 51.2554 -0.519933 -1.74937 0
M  V30 562 C 51.3064 -3.61254 -0.133362 0
M  V30 563 O 51.0274 -4.237 1.11399 0
M  V30 564 C 52.5284 -4.37992 -0.683927 0
M  V30 565 H 49.7484 -0.669058 0.0510141 0
M  V30 566 H 52.2924 -1.88824 0.785234 0
M  V30 567 H 50.4474 -3.78735 -0.81477 0
M  V30 568 H 50.8614 -5.16388 0.91888 0
M  V30 569 H 52.3354 -5.46684 -0.764263 0
M  V30 570 H 52.8124 -4.05058 -1.69778 0
M  V30 571 H 53.4184 -4.25283 -0.0378494 0
M  V30 572 N 51.7335 -0.305618 -1.54608 0
M  V30 573 C 52.9825 0.303098 -1.9941 0
M  V30 574 C 53.2955 1.54648 -1.19764 0
M  V30 575 O 54.5015 2.23007 -1.54855 0
M  V30 576 C 52.9575 0.590588 -3.55021 0
M  V30 577 C 52.5655 -0.634719 -4.43481 0
M  V30 578 C 54.3095 1.16025 -4.08336 0
M  V30 579 C 52.2165 -0.320126 -5.90533 0
M  V30 580 H 51.1465 0.117031 -0.744862 0
M  V30 581 H 53.7975 -0.415045 -1.78745 0
M  V30 582 H 52.1795 1.36845 -3.71604 0
M  V30 583 H 53.3535 -1.41079 -4.38672 0
M  V30 584 H 51.6685 -1.12333 -4.00962 0
M  V30 585 H 54.2655 1.40994 -5.15776 0
M  V30 586 H 54.6085 2.10397 -3.5922 0
M  V30 587 H 55.1415 0.443985 -3.95315 0
M  V30 588 H 51.8805 -1.23254 -6.43808 0
M  V30 589 H 51.4005 0.418579 -5.98338 0
M  V30 590 H 53.0795 0.0766241 -6.46955 0
M  V30 591 N 53.2116 1.57565 -0.0334293 0
M  V30 592 C 54.1596 2.1164 0.96496 0
M  V30 593 C 55.1536 1.04398 1.33407 0
M  V30 594 O 56.3596 1.22828 1.3158 0
M  V30 595 H 52.7346 0.676222 0.32898 0
M  V30 596 H 54.7056 2.94455 0.483614 0
M  V30 597 C 53.4546 2.66207 2.23672 0
M  V30 598 H 52.7776 3.48378 1.96145 0
M  V30 599 H 54.2176 3.07685 2.9173 0
M  V30 600 C 52.6766 1.59151 2.96939 0
M  V30 601 O 53.2066 0.993858 3.89211 0
M  V30 602 N 51.4126 1.31093 2.59351 0
M  V30 603 H 50.9596 1.7988 1.84393 0
M  V30 604 H 50.9176 0.596889 3.08682 0
M  V30 605 N 54.6897 -0.239769 1.55765 0
M  V30 606 C 55.6527 -1.28038 1.90103 0
M  V30 607 C 56.6527 -1.40723 0.778055 0
M  V30 608 O 57.8427 -1.39301 1.04599 0
M  V30 609 C 54.9747 -2.65702 2.13577 0
M  V30 610 H 56.1677 -0.988048 2.83157 0
M  V30 611 H 53.7207 -0.479382 1.48767 0
M  V30 612 H 54.4557 -3.00063 1.23015 0
M  V30 613 H 54.2407 -2.57875 2.95369 0
M  V30 614 H 55.7307 -3.40828 2.41301 0
M  V30 615 N 56.1678 -1.49265 -0.50573 0
M  V30 616 C 57.1308 -1.65075 -1.59006 0
M  V30 617 C 58.1308 -0.522768 -1.52065 0
M  V30 618 O 59.3208 -0.789117 -1.55302 0
M  V30 619 C 56.4528 -1.64369 -2.98656 0
M  V30 620 H 57.6458 -2.61784 -1.46319 0
M  V30 621 H 55.1988 -1.38226 -0.729616 0
M  V30 622 H 55.9338 -0.692272 -3.16825 0
M  V30 623 H 55.7188 -2.46282 -3.05103 0
M  V30 624 H 57.2088 -1.78674 -3.77446 0
M  V30 625 N 57.6459 0.756429 -1.3826 0
M  V30 626 C 58.8949 1.51082 -1.3363 0
M  V30 627 C 59.2079 1.95467 0.0720068 0
M  V30 628 O 60.4139 2.7043 0.240834 0
M  V30 629 C 58.8699 2.72893 -2.34644 0
M  V30 630 C 58.4779 2.35544 -3.81081 0
M  V30 631 C 60.2219 3.50791 -2.39052 0
M  V30 632 C 58.1289 3.53948 -4.73787 0
M  V30 633 H 57.0589 0.56727 -0.49671 0
M  V30 634 H 59.7099 0.827147 -1.638 0
M  V30 635 H 58.0919 3.43227 -1.97513 0
M  V30 636 H 59.2659 1.72894 -4.27135 0
M  V30 637 H 57.5809 1.70786 -3.79764 0
M  V30 638 H 60.1779 4.38823 -3.05513 0
M  V30 639 H 60.5209 3.91745 -1.40861 0
M  V30 640 H 61.0539 2.87467 -2.74968 0
M  V30 641 H 57.7929 3.18064 -5.73163 0
M  V30 642 H 57.3129 4.15651 -4.32428 0
M  V30 643 H 58.9919 4.20566 -4.91663 0
M  V30 644 N 59.124 1.23083 0.984299 0
M  V30 645 C 60.349 1.088 1.76571 0
M  V30 646 C 60.774 -0.356657 1.84688 0
M  V30 647 O 60.132 -1.25788 1.30565 0
M  V30 648 C 60.18 1.71371 3.17277 0
M  V30 649 O 59.284 0.973213 4.00752 0
M  V30 650 H 58.625 0.381599 0.543395 0
M  V30 651 H 61.155 1.63057 1.23587 0
M  V30 652 H 61.165 1.76449 3.67872 0
M  V30 653 H 59.84 2.76493 3.10684 0
M  V30 654 H 58.417 0.999078 3.59267 0
M  V30 655 N 60.6021 -1.18246 1.0419 0
M  V30 656 C 61.8271 -1.92736 0.765996 0
M  V30 657 C 62.2521 -1.75728 -0.67091 0
M  V30 658 O 61.6101 -1.06825 -1.46486 0
M  V30 659 C 61.6581 -3.42148 1.13875 0
M  V30 660 O 60.7621 -4.11548 0.264954 0
M  V30 661 H 60.1031 -0.601238 0.281797 0
M  V30 662 H 62.6331 -1.49942 1.39207 0
M  V30 663 H 62.6431 -3.92858 1.1012 0
M  V30 664 H 61.3181 -3.53848 2.18551 0
M  V30 665 H 59.8951 -3.71137 0.362226 0
M  V30 666 N 62.0802 -0.821533 -1.34494 0
M  V30 667 C 63.0272 -0.240397 -2.29545 0
M  V30 668 C 63.9972 0.634031 -1.53523 0
M  V30 669 O 65.1822 0.575966 -1.81899 0
M  V30 670 C 62.3222 0.592869 -3.39969 0
M  V30 671 C 61.4352 -0.30365 -4.30932 0
M  V30 672 C 60.5702 0.539049 -5.28458 0
M  V30 673 C 59.6092 -0.356942 -6.11058 0
M  V30 674 N 58.7462 0.446603 -7.00678 0
M  V30 675 H 63.5862 -1.05632 -2.7865 0
M  V30 676 H 61.1232 -0.532413 -1.37127 0
M  V30 677 H 63.0812 1.09129 -4.02675 0
M  V30 678 H 61.7112 1.37392 -2.92102 0
M  V30 679 H 60.7632 -0.920276 -3.691 0
M  V30 680 H 62.0752 -0.992661 -4.88823 0
M  V30 681 H 61.2292 1.102 -5.96608 0
M  V30 682 H 59.9682 1.26157 -4.71101 0
M  V30 683 H 58.9732 -0.932047 -5.41842 0
M  V30 684 H 60.1982 -1.07755 -6.70497 0
M  V30 685 H 58.1442 1.15282 -6.45791 0
M  V30 686 H 58.0612 -0.184048 -7.55776 0
M  V30 687 H 59.3292 0.992352 -7.73158 0
M  V30 688 N 63.5583 1.46682 -0.576371 0
M  V30 689 C 64.7983 2.04306 -0.0621356 0
M  V30 690 C 65.1623 1.4389 1.2712 0
M  V30 691 O 66.3633 1.92675 1.87429 0
M  V30 692 C 64.6343 3.57399 0.00927922 0
M  V30 693 S 66.1933 4.36309 0.466859 0
M  V30 694 H 63.0113 0.710167 -0.0344016 0
M  V30 695 H 65.6133 1.79807 -0.767437 0
M  V30 696 H 64.3173 3.98889 -0.965178 0
M  V30 697 H 63.8483 3.86424 0.737547 0
M  V30 698 H 65.8633 4.6533 1.72287 0
M  V30 699 N 65.0364 0.313813 1.54444 0
M  V30 700 C 66.2834 -0.291675 2.00388 0
M  V30 701 C 66.6114 -1.52904 1.2021 0
M  V30 702 O 65.8664 -1.93833 0.269707 0
M  V30 703 C 66.1654 -0.680386 3.50864 0
M  V30 704 C 65.8314 0.456699 4.48581 0
M  V30 705 C 64.4934 0.768824 4.75018 0
M  V30 706 C 66.8454 1.22098 5.06697 0
M  V30 707 C 64.1734 1.84812 5.56831 0
M  V30 708 C 66.5254 2.29029 5.89685 0
M  V30 709 C 65.1894 2.60834 6.14428 0
M  V30 710 H 64.4594 -0.106732 0.733273 0
M  V30 711 H 67.1064 0.43557 1.86481 0
M  V30 712 H 65.4114 -1.48791 3.62448 0
M  V30 713 H 67.1084 -1.16026 3.83847 0
M  V30 714 H 63.6984 0.203337 4.28117 0
M  V30 715 H 67.8824 0.993096 4.86263 0
M  V30 716 H 63.1384 2.09912 5.74236 0
M  V30 717 H 67.3124 2.887 6.33739 0
M  V30 718 H 64.9394 3.44596 6.77612 0
M  V30 719 N 66.5145 -1.57545 0.0417849 0
M  V30 720 C 67.7915 -1.83642 -0.673433 0
M  V30 721 C 68.1715 -0.928298 -1.89594 0
M  V30 722 O 67.5195 0.0129955 -2.28496 0
M  V30 723 C 67.7295 -3.33155 -1.03964 0
M  V30 724 C 69.0775 -3.99941 -1.42592 0
M  V30 725 O 70.1015 -3.37725 -1.13226 0
M  V30 726 O 68.9605 -5.09619 -1.9736 0
M  V30 727 H 66.0545 -0.757638 -0.331533 0
M  V30 728 H 68.6005 -1.69554 0.070433 0
M  V30 729 H 67.3725 -3.9093 -0.170098 0
M  V30 730 H 66.9955 -3.52396 -1.84126 0
M  V30 731 N 67.9926 0.231505 -1.5589 0
M  V30 732 C 69.4086 0.580748 -1.48659 0
M  V30 733 C 69.6086 1.87617 -0.73498 0
M  V30 734 O 68.6646 2.51046 -0.270586 0
M  V30 735 C 69.9776 0.669202 -2.93159 0
M  V30 736 C 71.5256 0.760499 -3.03621 0
M  V30 737 C 72.0006 0.880383 -4.49459 0
M  V30 738 N 73.4916 0.944861 -4.53461 0
M  V30 739 C 74.2266 1.05716 -5.63571 0
M  V30 740 N 73.7226 1.13403 -6.83456 0
M  V30 741 N 75.5156 1.09152 -5.514 0
M  V30 742 H 67.6666 -0.618695 -2.03189 0
M  V30 743 H 69.9296 -0.215728 -0.923128 0
M  V30 744 H 69.6356 -0.212904 -3.51055 0
M  V30 745 H 69.5096 1.5361 -3.44505 0
M  V30 746 H 71.8966 1.63305 -2.45796 0
M  V30 747 H 71.9776 -0.131864 -2.5546 0
M  V30 748 H 71.6216 0.0123284 -5.07899 0
M  V30 749 H 71.5516 1.78802 -4.95316 0
M  V30 750 H 74.0426 0.896176 -3.6712 0
M  V30 751 H 74.3556 1.21921 -7.63122 0
M  V30 752 H 72.7006 1.10333 -6.86186 0
M  V30 753 H 75.8916 1.02805 -4.56671 0
M  V30 754 H 76.0646 1.17558 -6.37247 0
M  V30 755 N 69.4707 1.49531 0.497807 0
M  V30 756 C 70.7197 1.58426 1.24837 0
M  V30 757 C 71.0327 0.277643 1.93619 0
M  V30 758 O 72.2387 0.24517 2.70391 0
M  V30 759 C 70.6947 2.79538 2.26686 0
M  V30 760 C 70.3027 4.16971 1.63828 0
M  V30 761 C 72.0467 2.97764 3.0255 0
M  V30 762 C 69.9537 5.29301 2.63807 0
M  V30 763 H 68.8837 0.58989 0.469623 0
M  V30 764 H 71.5347 1.75923 0.521857 0
M  V30 765 H 69.9167 2.55542 3.02514 0
M  V30 766 H 71.0907 4.51116 0.939711 0
M  V30 767 H 69.4057 4.04129 1.00342 0
M  V30 768 H 72.0027 3.78856 3.77323 0
M  V30 769 H 72.3457 2.08448 3.60354 0
M  V30 770 H 72.8787 3.21815 2.33838 0
M  V30 771 H 69.6177 6.20687 2.10779 0
M  V30 772 H 69.1377 4.99606 3.31894 0
M  V30 773 H 70.8167 5.58768 3.2617 0
M  V30 774 N 70.9488 -0.749086 1.3866 0
M  V30 775 C 72.1978 -1.50371 1.3443 0
M  V30 776 C 72.5108 -1.95503 -0.0616397 0
M  V30 777 O 73.7168 -2.70554 -0.226489 0
M  V30 778 C 72.1728 -2.71644 2.36088 0
M  V30 779 C 71.7808 -2.3352 3.82325 0
M  V30 780 C 73.5248 -3.49518 2.40909 0
M  V30 781 C 71.4318 -3.51431 4.75658 0
M  V30 782 H 70.3618 -0.564628 0.499712 0
M  V30 783 H 73.0128 -0.818449 1.64237 0
M  V30 784 H 71.3948 -3.42175 1.9933 0
M  V30 785 H 72.5688 -1.70627 4.28046 0
M  V30 786 H 70.8838 -1.6877 3.80665 0
M  V30 787 H 73.4808 -4.37197 3.07836 0
M  V30 788 H 73.8238 -3.90992 1.42937 0
M  V30 789 H 74.3568 -2.86005 2.76489 0
M  V30 790 H 71.0958 -3.15019 5.74842 0
M  V30 791 H 70.6158 -4.13352 4.34627 0
M  V30 792 H 72.2948 -4.17953 4.93887 0
M  V30 793 N 72.4269 -1.23603 -0.977757 0
M  V30 794 C 73.6729 -1.07129 -1.72195 0
M  V30 795 C 74.0059 0.390501 -1.90233 0
M  V30 796 O 73.2809 1.28902 -1.45653 0
M  V30 797 C 73.5639 -1.80031 -3.11867 0
M  V30 798 C 73.4169 -3.33899 -3.01383 0
M  V30 799 C 74.7359 -1.56492 -4.11337 0
M  V30 800 H 71.8549 -0.390571 -0.624999 0
M  V30 801 H 74.4969 -1.52142 -1.13811 0
M  V30 802 H 72.6469 -1.41768 -3.6171 0
M  V30 803 H 74.3189 -3.81699 -2.59043 0
M  V30 804 H 72.5619 -3.62796 -2.37827 0
M  V30 805 H 73.2329 -3.801 -4.00285 0
M  V30 806 H 75.7089 -1.89757 -3.70313 0
M  V30 807 H 74.5849 -2.09973 -5.07151 0
M  V30 808 H 74.8459 -0.500874 -4.39254 0
M  V30 809 N 73.905 1.17692 -1.04816 0
M  V30 810 C 75.13 1.92327 -0.776207 0
M  V30 811 C 75.555 1.76082 0.661581 0
M  V30 812 O 74.913 1.076 1.45917 0
M  V30 813 C 74.961 3.41539 -1.15687 0
M  V30 814 O 74.065 4.11402 -0.286775 0
M  V30 815 H 73.406 0.599735 -0.284981 0
M  V30 816 H 75.936 1.49201 -1.4 0
M  V30 817 H 75.946 3.92269 -1.12202 0
M  V30 818 H 74.621 3.52684 -2.20425 0
M  V30 819 H 73.198 3.70939 -0.381903 0
M  V30 820 N 75.3831 0.828654 1.34056 0
M  V30 821 C 76.6111 0.43262 2.02326 0
M  V30 822 C 77.0261 -0.963147 1.62385 0
M  V30 823 O 76.3831 -1.62425 0.832121 0
M  V30 824 C 76.4341 0.53182 3.57567 0
M  V30 825 O 76.1551 1.87258 3.96063 0
M  V30 826 C 77.6561 0.131422 4.43105 0
M  V30 827 H 74.8761 0.172923 0.648335 0
M  V30 828 H 77.4201 1.1184 1.71208 0
M  V30 829 H 75.5751 -0.105938 3.87255 0
M  V30 830 H 75.9891 1.85087 4.90758 0
M  V30 831 H 77.4631 0.251904 5.51425 0
M  V30 832 H 77.9401 -0.925645 4.29335 0
M  V30 833 H 78.5461 0.743207 4.18756 0
M  V30 834 N 76.8612 -1.46375 0.584142 0
M  V30 835 C 78.1382 -1.956 0.0033388 0
M  V30 836 C 78.5182 -1.52679 -1.45782 0
M  V30 837 O 77.8662 -0.77816 -2.14842 0
M  V30 838 C 78.0762 -3.48551 0.176891 0
M  V30 839 C 79.4242 -4.24576 0.0454609 0
M  V30 840 O 80.4482 -3.56043 0.105801 0
M  V30 841 O 79.3072 -5.46427 -0.0890376 0
M  V30 842 H 76.4012 -0.825547 -0.0490066 0
M  V30 843 H 78.9472 -1.56652 0.65256 0
M  V30 844 H 77.7192 -3.72683 1.1926 0
M  V30 845 H 77.3422 -3.94332 -0.508695 0
M  V30 846 N 78.3393 -0.321999 -1.54275 0
M  V30 847 C 79.5873 0.280489 -2.00144 0
M  V30 848 C 79.9083 1.52777 -1.21178 0
M  V30 849 O 79.1783 1.9338 -0.313187 0
M  V30 850 H 77.7583 0.106632 -0.73935 0
M  V30 851 H 80.4203 -0.438184 -1.8991 0
M  V30 852 H 79.5163 0.537972 -3.07428 0
M  V30 853 N 79.8174 1.5752 -0.0501392 0
M  V30 854 C 81.0654 1.9227 0.622642 0
M  V30 855 C 81.3864 0.929083 1.71444 0
M  V30 856 O 80.6564 -0.0262186 1.95882 0
M  V30 857 H 79.2364 0.709739 0.232981 0
M  V30 858 H 81.8984 1.94628 -0.102898 0
M  V30 859 H 80.9944 2.93479 1.06191 0
M  V30 860 N 81.2955 -0.223234 1.56011 0
M  V30 861 C 82.2255 -1.27988 1.95298 0
M  V30 862 C 83.2065 -1.48976 0.820979 0
M  V30 863 O 84.3915 -1.61188 1.08315 0
M  V30 864 C 81.5215 -2.63 2.26822 0
M  V30 865 C 80.4755 -2.56671 3.42497 0
M  V30 866 C 79.8015 -3.95697 3.59622 0
M  V30 867 C 81.1015 -2.11601 4.77517 0
M  V30 868 H 82.7955 -0.953525 2.8381 0
M  V30 869 H 80.3415 -0.457244 1.36548 0
M  V30 870 H 82.2945 -3.37077 2.52898 0
M  V30 871 H 81.0185 -2.9732 1.35161 0
M  V30 872 H 79.6775 -1.85051 3.16467 0
M  V30 873 H 79.3255 -4.27322 2.6534 0
M  V30 874 H 79.0255 -3.92345 4.37424 0
M  V30 875 H 80.5495 -4.71438 3.88044 0
M  V30 876 H 81.9635 -2.7542 5.02809 0
M  V30 877 H 80.3605 -2.19311 5.5859 0
M  V30 878 H 81.4305 -1.06824 4.72987 0
M  V30 879 N 82.7736 -1.49793 -0.48987 0
M  V30 880 C 84.0226 -1.59085 -1.23995 0
M  V30 881 C 84.3356 -0.287907 -1.9347 0
M  V30 882 O 85.5416 -0.259506 -2.70257 0
M  V30 883 C 83.9976 -2.80736 -2.252 0
M  V30 884 C 83.6056 -4.17833 -1.61614 0
M  V30 885 C 85.3496 -2.99364 -3.00967 0
M  V30 886 C 83.2566 -5.30693 -2.60996 0
M  V30 887 H 82.1866 -0.592372 -0.466488 0
M  V30 888 H 84.8376 -1.76197 -0.51252 0
M  V30 889 H 83.2196 -2.57142 -3.01154 0
M  V30 890 H 84.3936 -4.51608 -0.915774 0
M  V30 891 H 82.7086 -4.04656 -0.981977 0
M  V30 892 H 85.3056 -3.80851 -3.75308 0
M  V30 893 H 85.6486 -2.10356 -3.59244 0
M  V30 894 H 86.1816 -3.2305 -2.32128 0
M  V30 895 H 82.9206 -6.21796 -2.07485 0
M  V30 896 H 82.4406 -5.01359 -3.2924 0
M  V30 897 H 84.1196 -5.6049 -3.23202 0
M  V30 898 N 84.2517 0.741722 -1.39055 0
M  V30 899 C 85.2147 1.83733 -1.37021 0
M  V30 900 C 86.2147 1.58542 -0.268534 0
M  V30 901 O 87.4047 1.66067 -0.526076 0
M  V30 902 C 84.5367 3.2141 -1.13617 0
M  V30 903 H 85.7297 1.86941 -2.34506 0
M  V30 904 H 83.2827 0.944676 -1.24521 0
M  V30 905 H 84.0177 3.23865 -0.167863 0
M  V30 906 H 83.8027 3.4109 -1.93391 0
M  V30 907 H 85.2927 4.01477 -1.14918 0
M  V30 908 N 85.7298 1.2412 0.971189 0
M  V30 909 C 86.6398 1.04747 2.09917 0
M  V30 910 C 87.6558 -0.0107162 1.73997 0
M  V30 911 O 88.8318 0.186714 2.00533 0
M  V30 912 C 85.8968 0.650828 3.40537 0
M  V30 913 C 84.9578 1.7851 3.90426 0
M  V30 914 C 84.1908 1.40729 5.14812 0
M  V30 915 O 84.4138 0.29557 5.69634 0
M  V30 916 O 83.3478 2.23168 5.58999 0
M  V30 917 H 87.1738 1.99304 2.29154 0
M  V30 918 H 84.7588 1.02908 1.08307 0
M  V30 919 H 86.6408 0.440992 4.19086 0
M  V30 920 H 85.3158 -0.265649 3.22608 0
M  V30 921 H 84.2228 2.04966 3.12953 0
M  V30 922 H 85.5558 2.68023 4.12825 0
M  V30 923 N 87.2079 -1.17134 1.05439 0
M  V30 924 C 88.1179 -2.24878 0.668365 0
M  V30 925 C 89.1339 -1.71186 -0.311687 0
M  V30 926 O 90.3099 -2.00738 -0.163161 0
M  V30 927 C 87.3749 -3.46662 0.051648 0
M  V30 928 C 86.4359 -4.15429 1.08246 0
M  V30 929 C 85.6689 -5.31399 0.495082 0
M  V30 930 O 85.8919 -5.66153 -0.694743 0
M  V30 931 O 84.8259 -5.89187 1.23056 0
M  V30 932 H 88.6519 -2.60189 1.56637 0
M  V30 933 H 86.2369 -1.24482 0.826104 0
M  V30 934 H 88.1189 -4.20394 -0.290966 0
M  V30 935 H 86.7939 -3.13142 -0.819971 0
M  V30 936 H 85.7009 -3.43704 1.47711 0
M  V30 937 H 87.0339 -4.52982 1.92532 0
M  V30 938 N 88.686 -0.835752 -1.33615 0
M  V30 939 C 89.649 -0.272 -2.2758 0
M  V30 940 C 90.649 0.557487 -1.50827 0
M  V30 941 O 91.839 0.37173 -1.70188 0
M  V30 942 C 88.971 0.617173 -3.35267 0
M  V30 943 H 90.164 -1.10111 -2.78954 0
M  V30 944 H 87.717 -0.608594 -1.43965 0
M  V30 945 H 88.452 1.46884 -2.89129 0
M  V30 946 H 88.237 0.0237066 -3.92093 0
M  V30 947 H 89.727 1.005 -4.05326 0
M  V30 948 N 90.1641 1.46063 -0.591896 0
M  V30 949 C 91.1111 2.30399 0.136069 0
M  V30 950 C 92.0811 1.41169 0.875238 0
M  V30 951 O 93.2661 1.70112 0.86409 0
M  V30 952 C 90.4061 3.25804 1.13781 0
M  V30 953 C 89.5191 4.30134 0.401137 0
M  V30 954 C 88.6541 5.12659 1.39121 0
M  V30 955 C 87.6931 6.0873 0.641462 0
M  V30 956 N 86.8301 6.8409 1.58004 0
M  V30 957 H 91.6701 2.92118 -0.589144 0
M  V30 958 H 89.2071 1.43959 -0.302342 0
M  V30 959 H 91.1651 3.79569 1.73156 0
M  V30 960 H 89.7951 2.65872 1.83062 0
M  V30 961 H 88.8471 3.79152 -0.307826 0
M  V30 962 H 90.1591 4.98458 -0.184565 0
M  V30 963 H 89.3131 5.70747 2.05749 0
M  V30 964 H 88.0521 4.44316 2.01084 0
M  V30 965 H 87.0571 5.49786 -0.0385419 0
M  V30 966 H 88.2821 6.79095 0.0270945 0
M  V30 967 H 86.2281 6.18449 2.18761 0
M  V30 968 H 86.1451 7.48709 1.04738 0
M  V30 969 H 87.4131 7.4673 2.23639 0
M  V30 970 N 91.6422 0.330177 1.54103 0
M  V30 971 C 92.5902 -0.548226 2.26047 0
M  V30 972 C 93.5842 -1.11309 1.27698 0
M  V30 973 O 94.7902 -1.06036 1.45452 0
M  V30 974 H 91.1652 -0.195456 0.726155 0
M  V30 975 H 93.1362 0.0807567 2.98291 0
M  V30 976 C 91.8852 -1.69415 3.03634 0
M  V30 977 H 91.2082 -1.26876 3.79134 0
M  V30 978 H 92.6482 -2.28423 3.5721 0
M  V30 979 C 91.1072 -2.61569 2.12328 0
M  V30 980 O 91.6372 -3.63462 1.7105 0
M  V30 981 N 89.8432 -2.29952 1.77681 0
M  V30 982 H 89.3902 -1.47134 2.11446 0
M  V30 983 H 89.3482 -2.91871 1.16869 0
M  V30 984 N 93.1203 -1.57491 0.0584922 0
M  V30 985 C 94.3673 -1.92978 -0.613648 0
M  V30 986 C 94.6953 -0.937461 -1.70417 0
M  V30 987 O 93.9503 0.049078 -1.95638 0
M  V30 988 C 94.2493 -3.3513 -1.24188 0
M  V30 989 C 93.9153 -4.50037 -0.278826 0
M  V30 990 C 92.5773 -4.81198 -0.0138447 0
M  V30 991 C 94.9293 -5.19807 0.380777 0
M  V30 992 C 92.2573 -5.79473 0.918052 0
M  V30 993 C 94.6093 -6.19079 1.30091 0
M  V30 994 C 93.2733 -6.48665 1.57449 0
M  V30 995 H 92.5433 -0.706157 -0.22455 0
M  V30 996 H 95.1903 -1.91082 0.126533 0
M  V30 997 H 93.4953 -3.33429 -2.05749 0
M  V30 998 H 95.1923 -3.59871 -1.769 0
M  V30 999 H 91.7823 -4.25726 -0.495539 0
M  V30 1000 H 95.9663 -4.95939 0.189158 0
M  V30 1001 H 91.2223 -6.00727 1.1374 0
M  V30 1002 H 95.3963 -6.7225 1.81804 0
M  V30 1003 H 93.0233 -7.24628 2.29822 0
M  V30 1004 N 94.5984 0.214957 -1.56127 0
M  V30 1005 C 95.8464 0.936518 -1.79091 0
M  V30 1006 C 96.1674 1.84606 -0.628148 0
M  V30 1007 O 95.4374 1.92664 0.35462 0
M  V30 1008 H 94.0174 0.3488 -0.660566 0
M  V30 1009 H 96.6794 0.22523 -1.93594 0
M  V30 1010 H 95.7754 1.53943 -2.71492 0
M  V30 1011 N 96.0765 1.50051 0.48192 0
M  V30 1012 C 97.3225 1.60736 1.2366 0
M  V30 1013 C 97.6555 0.301786 1.91841 0
M  V30 1014 O 96.9305 -0.696025 1.8162 0
M  V30 1015 C 97.2135 2.78009 2.28874 0
M  V30 1016 C 97.0665 4.18416 1.65069 0
M  V30 1017 C 98.3855 2.90867 3.30279 0
M  V30 1018 H 95.5045 0.585031 0.448228 0
M  V30 1019 H 98.1465 1.82402 0.531946 0
M  V30 1020 H 96.2965 2.59667 2.88973 0
M  V30 1021 H 97.9685 4.48322 1.0865 0
M  V30 1022 H 96.2115 4.23177 0.954148 0
M  V30 1023 H 96.8825 4.96381 2.41474 0
M  V30 1024 H 99.3585 3.07623 2.80191 0
M  V30 1025 H 98.2345 3.74566 4.01238 0
M  V30 1026 H 98.4955 2.01021 3.93755 0
M  V30 1027 N 97.5546 -0.734337 1.39446 0
M  V30 1028 C 98.4646 -1.87879 1.40495 0
M  V30 1029 C 99.4806 -1.714 0.299672 0
M  V30 1030 O 100.657 -1.93991 0.541249 0
M  V30 1031 C 97.7216 -3.23477 1.24754 0
M  V30 1032 C 96.7826 -3.52344 2.45259 0
M  V30 1033 C 96.0156 -4.81473 2.30259 0
M  V30 1034 O 96.2386 -5.55237 1.30643 0
M  V30 1035 O 95.1726 -5.10254 3.19256 0
M  V30 1036 H 98.9986 -1.89949 2.36966 0
M  V30 1037 H 96.5836 -0.882243 1.20569 0
M  V30 1038 H 98.4656 -4.04509 1.18111 0
M  V30 1039 H 97.1406 -3.22176 0.313781 0
M  V30 1040 H 96.0476 -2.71396 2.57478 0
M  V30 1041 H 97.3806 -3.58426 3.37331 0
M  V30 1042 N 99.0327 -1.24633 -0.964593 0
M  V30 1043 C 100.279 -1.08949 -1.71049 0
M  V30 1044 C 100.612 0.370302 -1.90637 0
M  V30 1045 O 99.8867 1.27349 -1.47011 0
M  V30 1046 C 100.17 -1.83329 -3.0994 0
M  V30 1047 C 100.023 -3.37077 -2.97824 0
M  V30 1048 C 101.342 -1.60846 -4.09654 0
M  V30 1049 H 98.4607 -0.397178 -0.620821 0
M  V30 1050 H 101.103 -1.5334 -1.12191 0
M  V30 1051 H 99.2527 -1.45597 -3.60186 0
M  V30 1052 H 100.925 -3.84425 -2.5498 0
M  V30 1053 H 99.1677 -3.65298 -2.33965 0
M  V30 1054 H 99.8387 -3.84324 -3.96231 0
M  V30 1055 H 102.315 -1.93674 -3.68279 0
M  V30 1056 H 101.191 -2.1534 -5.04896 0
M  V30 1057 H 101.452 -0.547434 -4.38698 0
M  V30 1058 N 100.511 1.16574 -1.06058 0
M  V30 1059 C 101.757 1.87324 -0.777022 0
M  V30 1060 C 102.09 1.81351 0.694645 0
M  V30 1061 O 101.365 1.22753 1.50871 0
M  V30 1062 C 101.648 3.36991 -1.26922 0
M  V30 1063 C 101.501 3.51667 -2.80447 0
M  V30 1064 C 102.82 4.3131 -0.87521 0
M  V30 1065 H 99.9388 0.680191 -0.28374 0
M  V30 1066 H 102.581 1.37036 -1.3161 0
M  V30 1067 H 100.731 3.79949 -0.81063 0
M  V30 1068 H 102.403 3.17664 -3.34495 0
M  V30 1069 H 100.646 2.93656 -3.19294 0
M  V30 1070 H 101.317 4.56766 -3.0995 0
M  V30 1071 H 103.793 3.9624 -1.27014 0
M  V30 1072 H 102.669 5.34545 -1.2471 0
M  V30 1073 H 102.93 4.41552 0.220071 0
M  V30 1074 N 101.989 0.842826 1.3317 0
M  V30 1075 C 102.919 0.294028 2.31641 0
M  V30 1076 C 103.9 -0.600401 1.59151 0
M  V30 1077 O 105.085 -0.523124 1.87022 0
M  V30 1078 C 102.215 -0.528416 3.43257 0
M  V30 1079 C 101.169 0.27056 4.27144 0
M  V30 1080 C 100.495 -0.675881 5.30411 0
M  V30 1081 C 101.795 1.48981 5.00602 0
M  V30 1082 H 103.489 1.11681 2.77791 0
M  V30 1083 H 101.035 0.538478 1.33553 0
M  V30 1084 H 102.988 -0.922674 4.11175 0
M  V30 1085 H 101.712 -1.38445 2.95805 0
M  V30 1086 H 100.371 0.646427 3.60856 0
M  V30 1087 H 100.019 -1.52842 4.79216 0
M  V30 1088 H 99.7189 -0.145374 5.8742 0
M  V30 1089 H 101.243 -1.06757 6.01195 0
M  V30 1090 H 102.657 1.16849 5.61266 0
M  V30 1091 H 101.054 1.95739 5.6728 0
M  V30 1092 H 102.124 2.25746 4.29147 0
M  V30 1093 N 103.467 -1.45747 0.599634 0
M  V30 1094 C 104.883 -1.57424 0.26264 0
M  V30 1095 C 105.083 -1.59222 -1.23493 0
M  V30 1096 O 104.139 -1.51825 -2.01756 0
M  V30 1097 C 105.452 -2.86061 0.926795 0
M  V30 1098 C 107 -2.99722 0.901967 0
M  V30 1099 C 107.475 -4.31119 1.54598 0
M  V30 1100 N 108.966 -4.37858 1.5111 0
M  V30 1101 C 109.701 -5.3818 1.97863 0
M  V30 1102 N 109.197 -6.45083 2.52666 0
M  V30 1103 N 110.99 -5.29487 1.88679 0
M  V30 1104 H 103.141 -1.42823 1.57211 0
M  V30 1105 H 105.404 -0.68235 0.658105 0
M  V30 1106 H 105.11 -2.90605 1.98095 0
M  V30 1107 H 104.984 -3.74563 0.445238 0
M  V30 1108 H 107.371 -2.9475 -0.143617 0
M  V30 1109 H 107.452 -2.12652 1.42171 0
M  V30 1110 H 107.096 -4.36849 2.59085 0
M  V30 1111 H 107.026 -5.16992 1.00132 0
M  V30 1112 H 109.517 -3.61209 1.11068 0
M  V30 1113 H 109.83 -7.17869 2.86155 0
M  V30 1114 H 108.175 -6.45856 2.56701 0
M  V30 1115 H 111.366 -4.44877 1.4561 0
M  V30 1116 H 111.539 -6.07524 2.25429 0
M  V30 1117 N 104.945 -0.338344 -1.53925 0
M  V30 1118 C 106.356 0.146651 -1.86123 0
M  V30 1119 C 106.707 1.5042 -1.2597 0
M  V30 1120 O 105.832 2.08723 -0.571294 0
M  V30 1121 C 106.427 0.272879 -3.37699 0
M  V30 1122 C 104.986 0.702103 -3.69794 0
M  V30 1123 C 104.133 -0.167304 -2.76795 0
M  V30 1124 H 107.084 -0.558123 -1.48562 0
M  V30 1125 H 107.105 1.10128 -3.64214 0
M  V30 1126 H 106.617 -0.715307 -3.81451 0
M  V30 1127 H 104.718 1.6995 -3.31584 0
M  V30 1128 H 104.831 0.495604 -4.7653 0
M  V30 1129 H 103.195 0.359527 -2.5215 0
M  V30 1130 H 103.978 -1.15253 -3.23375 0
M  V30 1131 N 106.423 1.57458 -0.0668435 0
M  V30 1132 C 107.386 2.11323 0.887422 0
M  V30 1133 C 108.386 1.03618 1.22964 0
M  V30 1134 O 109.576 1.29626 1.16373 0
M  V30 1135 C 106.708 2.61048 2.19242 0
M  V30 1136 H 107.901 2.96942 0.420194 0
M  V30 1137 H 105.454 1.55239 0.181793 0
M  V30 1138 H 106.189 1.78868 2.70512 0
M  V30 1139 H 105.974 3.39769 1.95702 0
M  V30 1140 H 107.464 3.02814 2.87565 0
M  V30 1141 N 107.901 -0.206675 1.56239 0
M  V30 1142 C 108.811 -1.27686 1.96808 0
M  V30 1143 C 109.827 -1.50455 0.874035 0
M  V30 1144 O 111.003 -1.63295 1.17884 0
M  V30 1145 C 108.068 -2.60358 2.28942 0
M  V30 1146 C 107.129 -2.45762 3.51994 0
M  V30 1147 C 106.362 -3.72108 3.82585 0
M  V30 1148 O 106.585 -4.75776 3.14631 0
M  V30 1149 O 105.519 -3.6833 4.76043 0
M  V30 1150 H 109.345 -0.962593 2.88041 0
M  V30 1151 H 106.93 -0.410746 1.43643 0
M  V30 1152 H 108.812 -3.38687 2.50737 0
M  V30 1153 H 107.487 -2.91435 1.4088 0
M  V30 1154 H 106.394 -1.65584 3.35459 0
M  V30 1155 H 107.727 -2.19621 4.40486 0
M  V30 1156 N 109.379 -1.50304 -0.473955 0
M  V30 1157 C 110.309 -1.71886 -1.58042 0
M  V30 1158 C 111.29 -0.567799 -1.60344 0
M  V30 1159 O 112.475 -0.806623 -1.76656 0
M  V30 1160 C 109.605 -1.81036 -2.96384 0
M  V30 1161 C 108.559 -2.962 -3.08949 0
M  V30 1162 C 107.885 -2.9049 -4.48909 0
M  V30 1163 C 109.185 -4.36752 -2.86434 0
M  V30 1164 H 110.879 -2.64527 -1.40234 0
M  V30 1165 H 108.425 -1.27295 -0.673201 0
M  V30 1166 H 110.378 -1.94719 -3.73714 0
M  V30 1167 H 109.102 -0.850147 -3.15341 0
M  V30 1168 H 107.761 -2.82164 -2.3405 0
M  V30 1169 H 107.409 -1.92321 -4.64781 0
M  V30 1170 H 107.109 -3.67802 -4.58253 0
M  V30 1171 H 108.633 -3.06218 -5.28264 0
M  V30 1172 H 110.047 -4.5133 -3.53517 0
M  V30 1173 H 108.444 -5.15493 -3.07225 0
M  V30 1174 H 109.514 -4.49321 -1.82316 0
M  V30 1175 N 110.857 0.726932 -1.39834 0
M  V30 1176 C 111.82 1.82269 -1.38962 0
M  V30 1177 C 112.82 1.58248 -0.285334 0
M  V30 1178 O 114.01 1.65499 -0.54366 0
M  V30 1179 C 111.142 3.20186 -1.17019 0
M  V30 1180 H 112.335 1.84443 -2.36476 0
M  V30 1181 H 109.888 0.931416 -1.25516 0
M  V30 1182 H 110.623 3.23669 -0.202204 0
M  V30 1183 H 110.408 3.3902 -1.96998 0
M  V30 1184 H 111.898 4.00235 -1.1917 0
M  V30 1185 N 112.336 1.25143 0.95797 0
M  V30 1186 C 113.561 1.12521 1.74223 0
M  V30 1187 C 113.986 -0.317402 1.85403 0
M  V30 1188 O 113.344 -1.2299 1.33204 0
M  V30 1189 C 113.392 1.78062 3.1357 0
M  V30 1190 O 112.496 1.058 3.98598 0
M  V30 1191 H 111.837 0.39304 0.535178 0
M  V30 1192 H 114.367 1.65641 1.201 0
M  V30 1193 H 114.377 1.84213 3.64046 0
M  V30 1194 H 113.052 2.83021 3.04749 0
M  V30 1195 H 111.629 1.07506 3.57067 0
M  V30 1196 N 113.814 -1.1601 1.06675 0
M  V30 1197 C 115.091 -1.82679 0.699114 0
M  V30 1198 C 115.471 -1.94559 -0.819137 0
M  V30 1199 O 114.819 -1.49169 -1.73092 0
M  V30 1200 C 115.029 -3.19445 1.40555 0
M  V30 1201 C 116.377 -3.95171 1.55323 0
M  V30 1202 O 117.401 -3.28976 1.36577 0
M  V30 1203 O 116.26 -5.13833 1.86112 0
M  V30 1204 H 113.354 -0.788954 0.247951 0
M  V30 1205 H 115.9 -1.23179 1.16726 0
M  V30 1206 H 114.672 -3.05856 2.44065 0
M  V30 1207 H 114.295 -3.86625 0.927733 0
M  V30 1208 N 115.292 -0.849877 -1.32721 0
M  V30 1209 C 116.52 -0.464754 -2.01613 0
M  V30 1210 C 116.935 0.937191 -1.63897 0
M  V30 1211 O 116.292 1.61081 -0.857856 0
M  V30 1212 C 116.343 -0.588638 -3.56675 0
M  V30 1213 O 116.064 -1.93535 -3.93034 0
M  V30 1214 C 117.565 -0.2019 -4.4284 0
M  V30 1215 H 114.785 -0.183215 -0.645502 0
M  V30 1216 H 117.329 -1.1455 -1.69407 0
M  V30 1217 H 115.484 0.0443159 -3.87375 0
M  V30 1218 H 115.898 -1.92871 -4.87751 0
M  V30 1219 H 117.372 -0.339599 -5.50954 0
M  V30 1220 H 117.849 0.857224 -4.30753 0
M  V30 1221 H 118.455 -0.809733 -4.17521 0
M  V30 1222 N 116.77 1.45427 -0.607355 0
M  V30 1223 C 117.733 2.28974 0.101693 0
M  V30 1224 C 118.733 1.39754 0.795329 0
M  V30 1225 O 119.923 1.61878 0.643527 0
M  V30 1226 C 117.055 3.20768 1.15414 0
M  V30 1227 H 118.248 2.93147 -0.632844 0
M  V30 1228 H 115.801 1.51945 -0.366391 0
M  V30 1229 H 116.536 2.61395 1.91945 0
M  V30 1230 H 116.321 3.86489 0.66098 0
M  V30 1231 H 117.811 3.83589 1.65073 0
M  V30 1232 N 118.248 0.346503 1.53744 0
M  V30 1233 C 119.473 -0.253074 2.0585 0
M  V30 1234 C 119.898 -1.43202 1.21962 0
M  V30 1235 O 119.256 -1.79783 0.234073 0
M  V30 1236 C 119.304 -0.643193 3.54817 0
M  V30 1237 O 118.408 -1.74286 3.73762 0
M  V30 1238 H 117.749 -0.0413583 0.662711 0
M  V30 1239 H 120.279 0.501574 1.98357 0
M  V30 1240 H 120.289 -0.919526 3.97503 0
M  V30 1241 H 118.964 0.218966 4.15323 0
M  V30 1242 H 117.541 -1.46356 3.42979 0
M  V30 1243 N 119.726 -1.57421 0.075193 0
M  V30 1244 C 120.951 -1.98364 -0.605515 0
M  V30 1245 C 121.376 -0.953383 -1.62149 0
M  V30 1246 O 120.734 0.0806053 -1.81121 0
M  V30 1247 C 120.782 -3.38332 -1.24756 0
M  V30 1248 O 119.886 -3.37959 -2.36342 0
M  V30 1249 H 119.227 -0.645553 -0.155428 0
M  V30 1250 H 121.757 -2.04044 0.150714 0
M  V30 1251 H 121.767 -3.75591 -1.5936 0
M  V30 1252 H 120.442 -4.12846 -0.503129 0
M  V30 1253 H 119.019 -3.12474 -2.03506 0
M  V30 1254 N 121.204 0.198386 -1.56346 0
M  V30 1255 C 122.453 0.917451 -1.79627 0
M  V30 1256 C 122.766 1.8456 -0.64784 0
M  V30 1257 O 123.972 2.60504 -0.764859 0
M  V30 1258 C 122.428 1.68175 -3.18191 0
M  V30 1259 C 122.036 0.798589 -4.40825 0
M  V30 1260 C 123.78 2.39065 -3.50782 0
M  V30 1261 C 121.687 1.56157 -5.70411 0
M  V30 1262 H 120.617 0.346317 -0.669762 0
M  V30 1263 H 123.268 0.170801 -1.82703 0
M  V30 1264 H 121.65 2.47216 -3.09354 0
M  V30 1265 H 122.824 0.0470665 -4.60776 0
M  V30 1266 H 121.139 0.200686 -4.15916 0
M  V30 1267 H 123.736 2.96692 -4.44835 0
M  V30 1268 H 124.079 3.13091 -2.74371 0
M  V30 1269 H 124.612 1.66993 -3.61052 0
M  V30 1270 H 121.351 0.864142 -6.49779 0
M  V30 1271 H 120.871 2.2871 -5.54483 0
M  V30 1272 H 122.55 2.11622 -6.11412 0
M  V30 1273 N 122.682 1.50554 0.465978 0
M  V30 1274 C 123.907 1.65838 1.24549 0
M  V30 1275 C 124.332 0.343486 1.84937 0
M  V30 1276 O 123.69 -0.69324 1.67523 0
M  V30 1277 C 123.738 2.75533 2.32624 0
M  V30 1278 O 122.842 2.37142 3.37398 0
M  V30 1279 H 122.183 0.553893 0.366194 0
M  V30 1280 H 124.713 1.96959 0.553927 0
M  V30 1281 H 124.723 2.98763 2.77857 0
M  V30 1282 H 123.398 3.70962 1.88043 0
M  V30 1283 H 121.975 2.24377 2.97841 0
M  V30 1284 N 124.16 -0.719506 1.40217 0
M  V30 1285 C 125.408 -1.47641 1.3801 0
M  V30 1286 C 125.729 -1.94992 -0.018145 0
M  V30 1287 O 124.999 -1.70073 -0.972207 0
M  V30 1288 H 123.579 -0.547744 0.507923 0
M  V30 1289 H 126.241 -0.853187 1.75233 0
M  V30 1290 H 125.337 -2.35112 2.05253 0
M  V30 1291 N 125.638 -1.25649 -0.95132 0
M  V30 1292 C 126.884 -1.10757 -1.69884 0
M  V30 1293 C 127.217 0.350061 -1.91019 0
M  V30 1294 O 126.492 1.25783 -1.48354 0
M  V30 1295 C 126.775 -1.86606 -3.07978 0
M  V30 1296 C 126.628 -3.40217 -2.94232 0
M  V30 1297 C 127.947 -1.65182 -4.07925 0
M  V30 1298 H 125.066 -0.40374 -0.616574 0
M  V30 1299 H 127.708 -1.54521 -1.10558 0
M  V30 1300 H 125.858 -1.49409 -3.58621 0
M  V30 1301 H 127.53 -3.87108 -2.50889 0
M  V30 1302 H 125.773 -3.67759 -2.30078 0
M  V30 1303 H 126.444 -3.88505 -3.92133 0
M  V30 1304 H 128.92 -1.9757 -3.66204 0
M  V30 1305 H 127.796 -2.20683 -5.02583 0
M  V30 1306 H 128.057 -0.593933 -4.38092 0
M  V30 1307 N 127.117 1.15442 -1.07289 0
M  V30 1308 C 128.366 1.85557 -0.790669 0
M  V30 1309 C 128.679 1.83186 0.685739 0
M  V30 1310 O 129.885 2.48977 1.0827 0
M  V30 1311 C 128.341 3.33038 -1.36433 0
M  V30 1312 C 127.949 3.43856 -2.8717 0
M  V30 1313 C 129.693 4.0834 -1.1601 0
M  V30 1314 C 127.6 4.85482 -3.3773 0
M  V30 1315 H 126.53 0.695122 -0.292098 0
M  V30 1316 H 129.181 1.30219 -1.29287 0
M  V30 1317 H 127.563 3.88043 -0.789864 0
M  V30 1318 H 128.737 2.98961 -3.50655 0
M  V30 1319 H 127.052 2.81998 -3.06376 0
M  V30 1320 H 129.649 5.12859 -1.51262 0
M  V30 1321 H 129.992 4.16182 -0.0991007 0
M  V30 1322 H 130.525 3.59603 -1.70089 0
M  V30 1323 H 127.264 4.82823 -4.43353 0
M  V30 1324 H 126.784 5.30961 -2.78999 0
M  V30 1325 H 128.463 5.54335 -3.33648 0
M  V30 1326 N 128.595 0.856903 1.32268 0
M  V30 1327 C 129.545 0.274899 2.26337 0
M  V30 1328 C 130.529 -0.580543 1.50062 0
M  V30 1329 O 131.721 -0.429559 1.71708 0
M  V30 1330 C 128.85 -0.533841 3.39124 0
M  V30 1331 C 127.936 0.334114 4.22782 0
M  V30 1332 N 128.327 1.42143 4.85416 0
M  V30 1333 C 126.625 0.124256 4.45827 0
M  V30 1334 C 127.326 1.95559 5.47843 0
M  V30 1335 N 126.302 1.25444 5.28928 0
M  V30 1336 H 130.104 1.10612 2.72291 0
M  V30 1337 H 127.618 0.703258 1.46383 0
M  V30 1338 H 129.615 -0.96722 4.05525 0
M  V30 1339 H 128.275 -1.36283 2.94715 0
M  V30 1340 H 129.286 1.80436 4.85451 0
M  V30 1341 H 125.963 -0.669837 4.12092 0
M  V30 1342 H 127.353 2.86714 6.07655 0
M  V30 1343 N 130.073 -1.45103 0.615059 0
M  V30 1344 C 131.036 -2.29025 -0.0895485 0
M  V30 1345 C 132.036 -1.40174 -0.787906 0
M  V30 1346 O 133.226 -1.62217 -0.634933 0
M  V30 1347 C 130.358 -3.21376 -1.13711 0
M  V30 1348 H 131.551 -2.92807 0.648382 0
M  V30 1349 H 129.104 -1.51749 0.374444 0
M  V30 1350 H 129.839 -2.6241 -1.90556 0
M  V30 1351 H 129.624 -3.86834 -0.640475 0
M  V30 1352 H 131.114 -3.84459 -1.63036 0
M  V30 1353 N 131.551 -0.354651 -1.53558 0
M  V30 1354 C 132.481 0.489091 -2.2832 0
M  V30 1355 C 133.462 1.09324 -1.30316 0
M  V30 1356 O 134.647 1.11255 -1.59173 0
M  V30 1357 C 131.777 1.63456 -3.0643 0
M  V30 1358 C 130.731 1.1582 -4.12031 0
M  V30 1359 C 130.057 2.39305 -4.7816 0
M  V30 1360 C 131.357 0.250731 -5.21698 0
M  V30 1361 H 133.051 -0.134614 -2.99097 0
M  V30 1362 H 130.597 -0.0661826 -1.43848 0
M  V30 1363 H 132.55 2.23136 -3.57475 0
M  V30 1364 H 131.274 2.28533 -2.33325 0
M  V30 1365 H 129.933 0.584146 -3.61916 0
M  V30 1366 H 129.581 3.02814 -4.01637 0
M  V30 1367 H 129.281 2.08109 -5.49513 0
M  V30 1368 H 130.805 2.99691 -5.31994 0
M  V30 1369 H 132.219 0.754695 -5.68311 0
M  V30 1370 H 130.616 0.0301468 -6.00092 0
M  V30 1371 H 131.686 -0.710125 -4.79672 0
M  V30 1372 N 133.029 1.57378 -0.0835403 0
M  V30 1373 C 133.939 2.16897 0.894021 0
M  V30 1374 C 134.955 1.13528 1.31861 0
M  V30 1375 O 136.131 1.45848 1.3889 0
M  V30 1376 C 133.196 2.72831 2.13925 0
M  V30 1377 C 132.257 3.91115 1.76997 0
M  V30 1378 C 131.49 4.44371 2.95584 0
M  V30 1379 O 131.713 3.96596 4.09961 0
M  V30 1380 O 130.647 5.35549 2.74719 0
M  V30 1381 H 134.473 3.00814 0.417679 0
M  V30 1382 H 132.058 1.48741 0.140181 0
M  V30 1383 H 133.94 3.0863 2.86924 0
M  V30 1384 H 132.615 1.91967 2.60635 0
M  V30 1385 H 131.522 3.60148 1.01214 0
M  V30 1386 H 132.855 4.73307 1.3506 0
M  V30 1387 N 134.507 -0.190092 1.56449 0
M  V30 1388 C 135.735 -0.925772 1.85033 0
M  V30 1389 C 136.15 -1.76638 0.666658 0
M  V30 1390 O 135.507 -1.78822 -0.364565 0
M  V30 1391 C 135.558 -1.81786 3.12468 0
M  V30 1392 O 135.279 -1.01118 4.26271 0
M  V30 1393 C 136.78 -2.6648 3.54265 0
M  V30 1394 H 134 -0.269872 0.614337 0
M  V30 1395 H 136.544 -0.195837 2.0356 0
M  V30 1396 H 134.699 -2.50136 2.95822 0
M  V30 1397 H 135.113 -1.61956 4.98869 0
M  V30 1398 H 136.587 -3.24722 4.46385 0
M  V30 1399 H 137.064 -3.40434 2.77491 0
M  V30 1400 H 137.67 -2.03493 3.73458 0
M  V30 1401 N 135.985 -1.50799 -0.457987 0
M  V30 1402 C 137.234 -1.6168 -1.20593 0
M  V30 1403 C 137.547 -0.32888 -1.92815 0
M  V30 1404 O 138.753 -0.316773 -2.69646 0
M  V30 1405 C 137.209 -2.8545 -2.19195 0
M  V30 1406 C 136.817 -4.21168 -1.52715 0
M  V30 1407 C 138.561 -3.05681 -2.94549 0
M  V30 1408 C 136.468 -5.3611 -2.4968 0
M  V30 1409 H 135.398 -0.602134 -0.453818 0
M  V30 1410 H 138.049 -1.77245 -0.475031 0
M  V30 1411 H 136.431 -2.63472 -2.95632 0
M  V30 1412 H 137.605 -4.53449 -0.819775 0
M  V30 1413 H 135.92 -4.06648 -0.895922 0
M  V30 1414 H 138.517 -3.88727 -3.67145 0
M  V30 1415 H 138.86 -2.17929 -3.54701 0
M  V30 1416 H 139.393 -3.27901 -2.25223 0
M  V30 1417 H 136.132 -6.26057 -1.94249 0
M  V30 1418 H 135.652 -5.0823 -3.18532 0
M  V30 1419 H 137.331 -5.6722 -3.11241 0
M  V30 1420 N 137.463 0.71206 -1.40597 0
M  V30 1421 C 138.711 1.46907 -1.38791 0
M  V30 1422 C 139.032 1.94998 0.00780391 0
M  V30 1423 O 138.302 1.70587 0.963174 0
M  V30 1424 H 136.882 0.545043 -0.51082 0
M  V30 1425 H 139.544 0.843882 -1.75683 0
M  V30 1426 H 138.64 2.34021 -2.06496 0
M  V30 1427 N 138.941 1.26152 0.944643 0
M  V30 1428 C 140.166 1.14363 1.7302 0
M  V30 1429 C 140.591 -0.29772 1.85729 0
M  V30 1430 O 139.949 -1.2157 1.34501 0
M  V30 1431 C 139.997 1.81378 3.11664 0
M  V30 1432 O 139.101 1.10022 3.97453 0
M  V30 1433 H 138.442 0.398694 0.53098 0
M  V30 1434 H 140.972 1.66906 1.18337 0
M  V30 1435 H 140.982 1.88064 3.62072 0
M  V30 1436 H 139.657 2.86237 3.0173 0
M  V30 1437 H 138.234 1.11287 3.55907 0
M  V30 1438 N 140.419 -1.14872 1.07899 0
M  V30 1439 C 141.367 -2.21857 0.698727 0
M  V30 1440 C 142.361 -1.66845 -0.293086 0
M  V30 1441 O 143.567 -1.79321 -0.156204 0
M  V30 1442 H 139.942 -0.722691 0.207899 0
M  V30 1443 H 141.913 -2.51205 1.61054 0
M  V30 1444 C 140.662 -3.47498 0.11858 0
M  V30 1445 H 139.985 -3.90154 0.872914 0
M  V30 1446 H 141.425 -4.23858 -0.109759 0
M  V30 1447 C 139.884 -3.16947 -1.1422 0
M  V30 1448 O 140.414 -3.3426 -2.22785 0
M  V30 1449 N 138.62 -2.70946 -1.05055 0
M  V30 1450 H 138.167 -2.57058 -0.167038 0
M  V30 1451 H 138.125 -2.50879 -1.89491 0
M  V30 1452 N 141.898 -0.863906 -1.31812 0
M  V30 1453 C 143.123 -0.48527 -2.01643 0
M  V30 1454 C 143.548 0.913058 -1.64453 0
M  V30 1455 O 142.906 1.6014 -0.849985 0
M  V30 1456 C 142.954 -0.642625 -3.54828 0
M  V30 1457 O 142.058 0.320659 -4.11151 0
M  V30 1458 H 141.399 -0.193793 -0.635091 0
M  V30 1459 H 143.929 -1.16565 -1.68148 0
M  V30 1460 H 143.939 -0.533628 -4.04495 0
M  V30 1461 H 142.614 -1.66227 -3.81237 0
M  V30 1462 H 141.191 0.167126 -3.72525 0
M  V30 1463 N 143.376 1.44774 -0.622745 0
M  V30 1464 C 144.624 2.01721 -0.123655 0
M  V30 1465 C 144.945 1.49172 1.25589 0
M  V30 1466 O 144.215 0.691974 1.83272 0
M  V30 1467 H 142.795 0.745777 -0.0427225 0
M  V30 1468 H 145.457 1.77382 -0.807559 0
M  V30 1469 H 144.553 3.11984 -0.0849534 0
M  V30 1470 N 144.854 0.36279 1.53368 0
M  V30 1471 C 146.082 -0.228613 2.05633 0
M  V30 1472 C 146.497 -1.42676 1.23649 0
M  V30 1473 O 145.854 -1.80394 0.27647 0
M  V30 1474 C 145.905 -0.624845 3.56059 0
M  V30 1475 O 145.626 0.525675 4.34935 0
M  V30 1476 C 147.127 -1.27493 4.24571 0
M  V30 1477 H 144.347 -0.0407183 0.669763 0
M  V30 1478 H 146.891 0.520352 1.97769 0
M  V30 1479 H 145.046 -1.32373 3.64083 0
M  V30 1480 H 145.46 0.205969 5.24095 0
M  V30 1481 H 146.934 -1.50277 5.31151 0
M  V30 1482 H 147.411 -2.23439 3.78116 0
M  V30 1483 H 148.017 -0.617558 4.20792 0
M  V30 1484 N 146.332 -1.57332 0.0918853 0
M  V30 1485 C 147.578 -1.94524 -0.573425 0
M  V30 1486 C 147.911 -0.973578 -1.68033 0
M  V30 1487 O 147.186 -0.00609226 -1.94499 0
M  V30 1488 C 147.469 -3.41858 -1.13161 0
M  V30 1489 C 147.322 -4.4979 -0.0299747 0
M  V30 1490 C 148.641 -3.90435 -2.03098 0
M  V30 1491 H 145.76 -0.70734 -0.206975 0
M  V30 1492 H 148.402 -1.89309 0.161942 0
M  V30 1493 H 146.552 -3.46433 -1.7583 0
M  V30 1494 H 148.224 -4.57327 0.604112 0
M  V30 1495 H 146.467 -4.291 0.636833 0
M  V30 1496 H 147.138 -5.50069 -0.461287 0
M  V30 1497 H 149.614 -3.87992 -1.50338 0
M  V30 1498 H 148.49 -4.94097 -2.39081 0
M  V30 1499 H 148.751 -3.29541 -2.94712 0
M  V30 1500 N 147.81 0.181792 -1.56548 0
M  V30 1501 C 149.038 0.915947 -1.85521 0
M  V30 1502 C 149.453 1.76282 -0.676016 0
M  V30 1503 O 148.81 1.79012 0.355077 0
M  V30 1504 C 148.861 1.80126 -3.13427 0
M  V30 1505 O 148.582 0.988562 -4.26801 0
M  V30 1506 C 150.083 2.64597 -3.55673 0
M  V30 1507 H 147.303 0.26661 -0.61576 0
M  V30 1508 H 149.847 0.185039 -2.03661 0
M  V30 1509 H 148.002 2.48563 -2.97145 0
M  V30 1510 H 148.416 1.59308 -4.99721 0
M  V30 1511 H 149.89 3.2235 -4.48101 0
M  V30 1512 H 150.367 3.38958 -2.79292 0
M  V30 1513 H 150.973 2.0151 -3.74532 0
M  V30 1514 N 149.288 1.51039 0.449983 0
M  V30 1515 C 150.218 1.74379 1.55288 0
M  V30 1516 C 151.199 0.593236 1.5942 0
M  V30 1517 O 152.384 0.834625 1.7535 0
M  V30 1518 C 149.514 1.85728 2.93466 0
M  V30 1519 C 148.468 3.01078 3.04197 0
M  V30 1520 C 147.794 2.97595 4.44231 0
M  V30 1521 C 149.094 4.41254 2.7945 0
M  V30 1522 H 150.788 2.66725 1.36008 0
M  V30 1523 H 148.334 1.2835 0.652864 0
M  V30 1524 H 150.287 2.0064 3.70569 0
M  V30 1525 H 149.011 0.900207 3.13949 0
M  V30 1526 H 147.67 2.85851 2.29531 0
M  V30 1527 H 147.318 1.99691 4.61663 0
M  V30 1528 H 147.018 3.75046 4.52343 0
M  V30 1529 H 148.542 3.14583 5.23326 0
M  V30 1530 H 149.956 4.56897 3.46292 0
M  V30 1531 H 148.353 5.20315 2.98985 0
M  V30 1532 H 149.423 4.52164 1.75144 0
M  V30 1533 N 150.766 -0.704594 1.40972 0
M  V30 1534 C 151.696 -1.83124 1.44872 0
M  V30 1535 C 152.677 -1.67281 0.30838 0
M  V30 1536 O 153.862 -1.87149 0.518556 0
M  V30 1537 C 150.992 -3.21181 1.32136 0
M  V30 1538 C 149.946 -3.51714 2.43888 0
M  V30 1539 C 149.272 -4.89032 2.16222 0
M  V30 1540 C 150.572 -3.516 3.86232 0
M  V30 1541 H 152.266 -1.80117 2.39161 0
M  V30 1542 H 149.812 -0.865145 1.15114 0
M  V30 1543 H 151.765 -3.99702 1.33479 0
M  V30 1544 H 150.489 -3.24791 0.343279 0
M  V30 1545 H 149.148 -2.75539 2.41813 0
M  V30 1546 H 148.796 -4.89256 1.16778 0
M  V30 1547 H 148.496 -5.10426 2.911 0
M  V30 1548 H 150.02 -5.69873 2.19265 0
M  V30 1549 H 151.434 -4.2014 3.9007 0
M  V30 1550 H 149.831 -3.84523 4.60719 0
M  V30 1551 H 150.901 -2.50757 4.15029 0
M  V30 1552 N 152.244 -1.26651 -0.937939 0
M  V30 1553 C 153.176 -1.04283 -2.04102 0
M  V30 1554 C 154.189 -0.00221014 -1.628 0
M  V30 1555 O 155.378 -0.242645 -1.76843 0
M  V30 1556 C 152.478 -0.557846 -3.34277 0
M  V30 1557 C 151.651 -1.66843 -4.04329 0
M  V30 1558 C 150.71 -1.18095 -5.12777 0
M  V30 1559 O 149.736 -1.87865 -5.37304 0
M  V30 1560 N 150.938 -0.0311006 -5.80492 0
M  V30 1561 H 153.703 -1.9927 -2.23856 0
M  V30 1562 H 151.264 -1.1808 -1.10764 0
M  V30 1563 H 153.256 -0.215836 -4.04124 0
M  V30 1564 H 151.826 0.298523 -3.11171 0
M  V30 1565 H 151.046 -2.18123 -3.28353 0
M  V30 1566 H 152.334 -2.41408 -4.47883 0
M  V30 1567 H 151.732 0.551486 -5.63005 0
M  V30 1568 H 150.289 0.251809 -6.51313 0
M  V30 1569 N 153.722 1.14298 -1.08507 0
M  V30 1570 C 155.133 1.66926 -0.836227 0
M  V30 1571 C 155.484 1.85576 0.63686 0
M  V30 1572 O 154.609 1.56767 1.49175 0
M  V30 1573 C 155.204 3.03219 -1.51142 0
M  V30 1574 C 153.763 3.52876 -1.30979 0
M  V30 1575 C 152.91 2.2833 -1.57356 0
M  V30 1576 H 155.861 0.983491 -1.24552 0
M  V30 1577 H 155.882 3.68726 -0.939211 0
M  V30 1578 H 155.394 2.89612 -2.58353 0
M  V30 1579 H 153.495 3.71703 -0.258429 0
M  V30 1580 H 153.608 4.33586 -2.03814 0
M  V30 1581 H 151.972 2.34454 -0.995164 0
M  V30 1582 H 152.755 2.17298 -2.65775 0
M  V30 1583 N 155.201 0.870884 1.31352 0
M  V30 1584 C 156.429 0.49677 2.00848 0
M  V30 1585 C 156.844 -0.910998 1.65367 0
M  V30 1586 O 156.201 -1.59696 0.883374 0
M  V30 1587 C 156.252 0.645308 3.55694 0
M  V30 1588 O 155.973 1.99764 3.89905 0
M  V30 1589 C 157.474 0.272326 4.42463 0
M  V30 1590 H 154.694 0.193462 0.642506 0
M  V30 1591 H 157.238 1.1723 1.67563 0
M  V30 1592 H 155.393 0.0173176 3.87396 0
M  V30 1593 H 155.807 2.00607 4.84621 0
M  V30 1594 H 157.281 0.427208 5.50344 0
M  V30 1595 H 157.758 -0.788587 4.32062 0
M  V30 1596 H 158.364 0.876054 4.1618 0
M  V30 1597 N 156.679 -1.44442 0.630414 0
M  V30 1598 C 157.904 -2.06927 0.139944 0
M  V30 1599 C 158.329 -1.46795 -1.17613 0
M  V30 1600 O 157.687 -0.569144 -1.72135 0
M  V30 1601 C 157.735 -3.6058 0.0379581 0
M  V30 1602 O 156.839 -3.99937 -1.0062 0
M  V30 1603 H 156.18 -0.658608 0.0844483 0
M  V30 1604 H 158.71 -1.85327 0.866891 0
M  V30 1605 H 158.72 -4.07714 -0.152856 0
M  V30 1606 H 157.395 -4.03728 0.998809 0
M  V30 1607 H 155.972 -3.64436 -0.79001 0
M  V30 1608 N 158.157 -0.370918 -1.53173 0
M  V30 1609 C 159.568 0.107139 -1.86392 0
M  V30 1610 C 159.919 1.47714 -1.29132 0
M  V30 1611 O 159.044 2.07464 -0.615439 0
M  V30 1612 C 159.639 0.201187 -3.38202 0
M  V30 1613 C 158.198 0.623507 -3.712 0
M  V30 1614 C 157.345 -0.225978 -2.76378 0
M  V30 1615 H 160.296 -0.58951 -1.47345 0
M  V30 1616 H 160.317 1.02377 -3.66468 0
M  V30 1617 H 159.829 -0.796058 -3.79848 0
M  V30 1618 H 157.93 1.62879 -3.35114 0
M  V30 1619 H 158.043 0.394414 -4.77474 0
M  V30 1620 H 156.407 0.305962 -2.52856 0
M  V30 1621 H 157.19 -1.22086 -3.20858 0
M  V30 1622 N 159.635 1.57281 -0.100228 0
M  V30 1623 C 160.565 2.17328 0.853857 0
M  V30 1624 C 161.546 1.10804 1.2906 0
M  V30 1625 O 162.731 1.38963 1.35657 0
M  V30 1626 C 159.861 2.75772 2.11109 0
M  V30 1627 C 158.815 3.87713 1.81279 0
M  V30 1628 C 158.141 4.32882 3.13874 0
M  V30 1629 C 159.441 5.10677 1.09574 0
M  V30 1630 H 161.135 2.97305 0.353545 0
M  V30 1631 H 158.681 1.43009 0.168612 0
M  V30 1632 H 160.634 3.16433 2.78296 0
M  V30 1633 H 159.358 1.93057 2.63432 0
M  V30 1634 H 158.017 3.476 1.16489 0
M  V30 1635 H 157.665 3.47051 3.64095 0
M  V30 1636 H 157.365 5.08358 2.94696 0
M  V30 1637 H 158.889 4.7618 3.82211 0
M  V30 1638 H 160.303 5.48474 1.66879 0
M  V30 1639 H 158.7 5.91615 1.00557 0
M  V30 1640 H 159.77 4.84835 0.0793299 0
M  V30 1641 N 161.113 -0.173488 1.56642 0
M  V30 1642 C 162.529 -0.525174 1.50712 0
M  V30 1643 C 162.729 -1.8476 0.804107 0
M  V30 1644 O 161.785 -2.49869 0.363574 0
M  V30 1645 C 163.098 -0.559937 2.95441 0
M  V30 1646 C 164.646 -0.647288 3.06234 0
M  V30 1647 C 165.121 -0.712963 4.52417 0
M  V30 1648 N 166.612 -0.775911 4.56655 0
M  V30 1649 C 167.347 -0.847264 5.67106 0
M  V30 1650 N 166.843 -0.879585 6.87194 0
M  V30 1651 N 168.636 -0.886117 5.55071 0
M  V30 1652 H 160.787 0.693681 2.00753 0
M  V30 1653 H 163.05 0.249841 0.914485 0
M  V30 1654 H 162.756 0.343049 3.50023 0
M  V30 1655 H 162.63 -1.40718 3.49969 0
M  V30 1656 H 165.017 -1.5407 2.51687 0
M  V30 1657 H 165.098 0.226586 2.54794 0
M  V30 1658 H 164.742 0.176183 5.07594 0
M  V30 1659 H 164.672 -1.60295 5.0161 0
M  V30 1660 H 167.163 -0.759304 3.70193 0
M  V30 1661 H 167.476 -0.935144 7.67121 0
M  V30 1662 H 165.821 -0.847898 6.89808 0
M  V30 1663 H 169.012 -0.857853 4.60172 0
M  V30 1664 H 169.185 -0.938263 6.41171 0
M  V30 1665 N 162.591 -1.51276 -0.441967 0
M  V30 1666 C 163.819 -1.67516 -1.21434 0
M  V30 1667 C 164.234 -0.37055 -1.85128 0
M  V30 1668 O 163.591 0.650498 -1.70513 0
M  V30 1669 C 163.642 -2.78748 -2.30177 0
M  V30 1670 O 163.363 -4.04154 -1.69089 0
M  V30 1671 C 164.864 -3.06217 -3.20541 0
M  V30 1672 H 162.084 -0.562276 -0.366178 0
M  V30 1673 H 164.628 -1.97666 -0.524244 0
M  V30 1674 H 162.783 -2.5121 -2.94911 0
M  V30 1675 H 163.197 -4.65894 -2.40922 0
M  V30 1676 H 164.671 -3.8764 -3.92987 0
M  V30 1677 H 165.148 -2.18439 -3.81026 0
M  V30 1678 H 165.754 -3.35397 -2.61513 0
M  V30 1679 N 164.069 0.697108 -1.41344 0
M  V30 1680 C 165.317 1.45426 -1.40341 0
M  V30 1681 C 165.638 1.94996 -0.0128787 0
M  V30 1682 O 164.908 1.71599 0.945027 0
M  V30 1683 H 163.488 0.539594 -0.516573 0
M  V30 1684 H 166.15 0.825201 -1.76569 0
M  V30 1685 H 165.246 2.31817 -2.08967 0
M  V30 1686 N 165.547 1.27147 0.931209 0
M  V30 1687 C 166.51 1.09615 2.01289 0
M  V30 1688 C 167.51 0.0412581 1.60747 0
M  V30 1689 O 168.7 0.285545 1.71844 0
M  V30 1690 C 165.832 0.669447 3.34262 0
M  V30 1691 H 167.025 2.05662 2.18273 0
M  V30 1692 H 164.578 1.09885 1.11153 0
M  V30 1693 H 165.313 -0.292572 3.22978 0
M  V30 1694 H 165.098 1.43127 3.65044 0
M  V30 1695 H 166.588 0.568921 4.13706 0
M  V30 1696 N 167.025 -1.13721 1.09112 0
M  V30 1697 C 167.975 -2.17082 0.697091 0
M  V30 1698 C 168.959 -1.58321 -0.286923 0
M  V30 1699 O 170.151 -1.7673 -0.0978008 0
M  V30 1700 C 167.28 -3.43105 0.115729 0
M  V30 1701 C 166.366 -4.0888 1.12596 0
M  V30 1702 N 166.757 -4.4987 2.31195 0
M  V30 1703 C 165.055 -4.35471 0.963366 0
M  V30 1704 C 165.756 -5.01094 2.95431 0
M  V30 1705 N 164.732 -4.95751 2.23006 0
M  V30 1706 H 168.534 -2.46524 1.6001 0
M  V30 1707 H 166.048 -1.30481 0.966869 0
M  V30 1708 H 168.045 -4.16491 -0.184555 0
M  V30 1709 H 166.705 -3.15138 -0.78217 0
M  V30 1710 H 167.716 -4.42678 2.68806 0
M  V30 1711 H 164.393 -4.17328 0.119878 0
M  V30 1712 H 165.783 -5.4263 3.96236 0
M  V30 1713 N 168.503 -0.877838 -1.30888 0
M  V30 1714 C 169.752 -0.488793 -1.95688 0
M  V30 1715 C 170.065 0.965485 -1.70111 0
M  V30 1716 O 171.271 1.46104 -2.28836 0
M  V30 1717 C 169.727 -0.823201 -3.50359 0
M  V30 1718 C 169.335 -2.29477 -3.84765 0
M  V30 1719 C 171.079 -0.503009 -4.21509 0
M  V30 1720 C 168.986 -2.57118 -5.32583 0
M  V30 1721 H 167.916 -0.179062 -0.732429 0
M  V30 1722 H 170.567 -1.07183 -1.48943 0
M  V30 1723 H 168.949 -0.169331 -3.95638 0
M  V30 1724 H 170.123 -2.99236 -3.5042 0
M  V30 1725 H 168.438 -2.58178 -3.267 0
M  V30 1726 H 171.035 -0.68665 -5.30273 0
M  V30 1727 H 171.378 0.557109 -4.12555 0
M  V30 1728 H 171.911 -1.11376 -3.8189 0
M  V30 1729 H 168.65 -3.61843 -5.4658 0
M  V30 1730 H 168.17 -1.91961 -5.68253 0
M  V30 1731 H 169.849 -2.42251 -5.99936 0
M  V30 1732 N 169.982 1.44106 -0.638065 0
M  V30 1733 C 171.398 1.56672 -0.304286 0
M  V30 1734 C 171.598 1.6244 1.19228 0
M  V30 1735 O 170.654 1.57121 1.9766 0
M  V30 1736 C 171.967 2.83503 -1.00231 0
M  V30 1737 C 173.515 2.97226 -0.981116 0
M  V30 1738 C 173.99 4.26868 -1.65974 0
M  V30 1739 N 175.481 4.33698 -1.62666 0
M  V30 1740 C 176.216 5.32745 -2.12063 0
M  V30 1741 N 175.712 6.38157 -2.6968 0
M  V30 1742 N 177.505 5.24299 -2.02651 0
M  V30 1743 H 169.656 1.38605 -1.60942 0
M  V30 1744 H 171.919 0.664661 -0.675965 0
M  V30 1745 H 171.625 2.85251 -2.0573 0
M  V30 1746 H 171.499 3.73251 -0.54439 0
M  V30 1747 H 173.886 2.95027 0.0654188 0
M  V30 1748 H 173.967 2.08808 -1.47759 0
M  V30 1749 H 173.611 4.29826 -2.70576 0
M  V30 1750 H 173.541 5.14156 -1.13804 0
M  V30 1751 H 176.032 3.58138 -1.20606 0
M  V30 1752 H 176.345 7.10029 -3.05087 0
M  V30 1753 H 174.69 6.38823 -2.73734 0
M  V30 1754 H 177.881 4.4086 -1.57353 0
M  V30 1755 H 178.054 6.01334 -2.41457 0
M  V30 1756 N 171.46 0.379036 1.52974 0
M  V30 1757 C 172.37 -0.468639 2.29872 0
M  V30 1758 C 173.386 -1.08067 1.36373 0
M  V30 1759 O 174.562 -1.08871 1.69438 0
M  V30 1760 C 171.627 -1.58594 3.083 0
M  V30 1761 C 170.688 -1.00007 4.17489 0
M  V30 1762 C 169.921 -2.06413 4.92168 0
M  V30 1763 O 170.144 -3.27751 4.66835 0
M  V30 1764 O 169.078 -1.68717 5.7777 0
M  V30 1765 H 172.904 0.157508 3.03291 0
M  V30 1766 H 170.489 0.143035 1.48714 0
M  V30 1767 H 172.371 -2.23525 3.57232 0
M  V30 1768 H 171.046 -2.19724 2.37703 0
M  V30 1769 H 169.953 -0.314299 3.72777 0
M  V30 1770 H 171.286 -0.433135 4.90291 0
M  V30 1771 N 172.938 -1.57226 0.108567 0
M  V30 1772 C 173.901 -2.13602 -0.831082 0
M  V30 1773 C 174.901 -1.06841 -1.20173 0
M  V30 1774 O 176.091 -1.32666 -1.12895 0
M  V30 1775 C 173.223 -2.66769 -2.12243 0
M  V30 1776 H 174.416 -2.97951 -0.341317 0
M  V30 1777 H 171.969 -1.55667 -0.14057 0
M  V30 1778 H 172.704 -1.85977 -2.65675 0
M  V30 1779 H 172.489 -3.44839 -1.86625 0
M  V30 1780 H 173.979 -3.10332 -2.79435 0
M  V30 1781 N 174.416 0.165178 -1.56732 0
M  V30 1782 C 175.663 0.880807 -1.8234 0
M  V30 1783 C 175.991 1.81977 -0.686621 0
M  V30 1784 O 175.246 1.92971 0.325697 0
M  V30 1785 C 175.545 1.70405 -3.1416 0
M  V30 1786 C 175.211 0.913475 -4.4155 0
M  V30 1787 C 173.873 0.695303 -4.7615 0
M  V30 1788 C 176.225 0.359349 -5.1996 0
M  V30 1789 C 173.553 -0.0879947 -5.86634 0
M  V30 1790 C 175.905 -0.410893 -6.31264 0
M  V30 1791 C 174.569 -0.639808 -6.64427 0
M  V30 1792 H 173.839 0.32231 -0.667231 0
M  V30 1793 H 176.486 0.145402 -1.90947 0
M  V30 1794 H 174.791 2.50903 -3.00923 0
M  V30 1795 H 176.488 2.26091 -3.31186 0
M  V30 1796 H 173.078 1.09357 -4.14414 0
M  V30 1797 H 177.262 0.515228 -4.93618 0
M  V30 1798 H 172.518 -0.27503 -6.10781 0
M  V30 1799 H 176.692 -0.847494 -6.91224 0
M  V30 1800 H 174.319 -1.24864 -7.49875 0
M  V30 1801 N 175.894 1.51508 0.433938 0
M  V30 1802 C 177.119 1.68443 1.21003 0
M  V30 1803 C 177.544 0.382636 1.84167 0
M  V30 1804 O 176.902 -0.65755 1.68956 0
M  V30 1805 C 176.95 2.80405 2.26727 0
M  V30 1806 O 176.054 2.44245 3.32292 0
M  V30 1807 H 175.395 0.561536 0.354363 0
M  V30 1808 H 177.925 1.9809 0.512024 0
M  V30 1809 H 177.935 3.0459 2.71457 0
M  V30 1810 H 176.61 3.74867 1.80132 0
M  V30 1811 H 175.187 2.30644 2.93015 0
M  V30 1812 N 177.372 -0.689602 1.41712 0
M  V30 1813 C 178.302 -1.81577 1.46806 0
M  V30 1814 C 179.283 -1.66945 0.326105 0
M  V30 1815 O 180.468 -1.86588 0.538377 0
M  V30 1816 C 177.598 -3.19762 1.35535 0
M  V30 1817 C 176.552 -3.49107 2.47605 0
M  V30 1818 C 175.878 -4.86711 2.21397 0
M  V30 1819 C 177.178 -3.47483 3.89939 0
M  V30 1820 H 178.872 -1.7757 2.41058 0
M  V30 1821 H 176.418 -0.852887 1.16025 0
M  V30 1822 H 178.371 -3.98263 1.3771 0
M  V30 1823 H 177.095 -3.24409 0.377708 0
M  V30 1824 H 175.754 -2.72959 2.44722 0
M  V30 1825 H 175.402 -4.8799 1.21961 0
M  V30 1826 H 175.102 -5.0731 2.96497 0
M  V30 1827 H 176.626 -5.67515 2.25297 0
M  V30 1828 H 178.04 -4.1598 3.94505 0
M  V30 1829 H 176.437 -3.79615 4.64771 0
M  V30 1830 H 177.507 -2.46341 4.17665 0
M  V30 1831 N 178.85 -1.27639 -0.924453 0
M  V30 1832 C 180.097 -1.14167 -1.67249 0
M  V30 1833 C 180.425 0.311863 -1.91984 0
M  V30 1834 O 179.68 1.24425 -1.51053 0
M  V30 1835 C 179.979 -1.87407 -3.04325 0
M  V30 1836 C 179.645 -3.37249 -2.99289 0
M  V30 1837 C 178.307 -3.7812 -2.97622 0
M  V30 1838 C 180.659 -4.32845 -2.90336 0
M  V30 1839 C 177.987 -5.12944 -2.8479 0
M  V30 1840 C 180.339 -5.6773 -2.79045 0
M  V30 1841 C 179.003 -6.07889 -2.7573 0
M  V30 1842 H 178.273 -0.417766 -0.612007 0
M  V30 1843 H 180.92 -1.58286 -1.07786 0
M  V30 1844 H 179.225 -1.35805 -3.67511 0
M  V30 1845 H 180.922 -1.74408 -3.61086 0
M  V30 1846 H 177.512 -3.04748 -3.01374 0
M  V30 1847 H 181.696 -4.02239 -2.90719 0
M  V30 1848 H 176.952 -5.432 -2.80612 0
M  V30 1849 H 181.126 -6.41472 -2.71083 0
M  V30 1850 H 178.753 -7.12314 -2.65544 0
M  V30 1851 N 180.328 1.1314 -1.09713 0
M  V30 1852 C 181.605 1.80762 -0.747302 0
M  V30 1853 C 181.985 1.96663 0.767265 0
M  V30 1854 O 181.333 1.53706 1.69076 0
M  V30 1855 C 181.543 3.15606 -1.48975 0
M  V30 1856 C 182.891 3.90914 -1.65746 0
M  V30 1857 O 183.915 3.25239 -1.45251 0
M  V30 1858 O 182.774 5.08718 -1.9967 0
M  V30 1859 H 179.868 0.782103 -0.268782 0
M  V30 1860 H 182.414 1.20041 -1.19951 0
M  V30 1861 H 181.186 2.99278 -2.52088 0
M  V30 1862 H 180.809 3.84029 -1.02991 0
M  V30 1863 N 181.806 0.884767 1.30421 0
M  V30 1864 C 182.716 0.355398 2.31892 0
M  V30 1865 C 183.732 -0.542261 1.65335 0
M  V30 1866 O 184.908 -0.435432 1.96637 0
M  V30 1867 C 181.973 -0.421661 3.44126 0
M  V30 1868 C 181.034 0.505727 4.26311 0
M  V30 1869 C 180.267 -0.234343 5.33185 0
M  V30 1870 O 180.49 -1.46045 5.51386 0
M  V30 1871 O 179.424 0.415443 6.00465 0
M  V30 1872 H 183.25 1.19685 2.79122 0
M  V30 1873 H 180.835 0.648596 1.34587 0
M  V30 1874 H 182.717 -0.861641 4.12497 0
M  V30 1875 H 181.392 -1.23942 2.99032 0
M  V30 1876 H 180.299 0.994513 3.60639 0
M  V30 1877 H 181.632 1.28948 4.75009 0
M  V30 1878 N 183.284 -1.43765 0.645699 0
M  V30 1879 C 184.231 -2.30745 -0.0504648 0
M  V30 1880 C 185.201 -1.4432 -0.822241 0
M  V30 1881 O 186.386 -1.73202 -0.800358 0
M  V30 1882 C 183.526 -3.29802 -1.0161 0
M  V30 1883 C 182.639 -4.31326 -0.241219 0
M  V30 1884 C 181.774 -5.17469 -1.19998 0
M  V30 1885 C 180.813 -6.10691 -0.415094 0
M  V30 1886 N 179.95 -6.89483 -1.32506 0
M  V30 1887 H 184.79 -2.8973 0.697155 0
M  V30 1888 H 182.327 -1.42738 0.355563 0
M  V30 1889 H 184.285 -3.85734 -1.58949 0
M  V30 1890 H 182.915 -2.72483 -1.73069 0
M  V30 1891 H 181.967 -3.77749 0.448334 0
M  V30 1892 H 183.279 -4.9743 0.369437 0
M  V30 1893 H 182.433 -5.7799 -1.84424 0
M  V30 1894 H 181.172 -4.51473 -1.84455 0
M  V30 1895 H 180.177 -5.49265 0.242565 0
M  V30 1896 H 181.402 -6.78727 0.224966 0
M  V30 1897 H 179.348 -6.26142 -1.95657 0
M  V30 1898 H 179.265 -7.52081 -0.768783 0
M  V30 1899 H 180.533 -7.54516 -1.9577 0
M  V30 1900 N 184.763 -0.387143 -1.52771 0
M  V30 1901 C 186.012 0.19697 -2.00736 0
M  V30 1902 C 186.325 1.48082 -1.27793 0
M  V30 1903 O 187.531 2.14485 -1.66458 0
M  V30 1904 C 185.987 0.401568 -3.57653 0
M  V30 1905 C 185.595 -0.868907 -4.39493 0
M  V30 1906 C 187.339 0.942164 -4.13912 0
M  V30 1907 C 185.246 -0.632705 -5.88006 0
M  V30 1908 H 184.176 0.0773827 -0.750019 0
M  V30 1909 H 186.827 -0.50921 -1.76293 0
M  V30 1910 H 185.209 1.16954 -3.78335 0
M  V30 1911 H 186.383 -1.64133 -4.30577 0
M  V30 1912 H 184.698 -1.33429 -3.94443 0
M  V30 1913 H 187.295 1.13455 -5.22525 0
M  V30 1914 H 187.638 1.9106 -3.69867 0
M  V30 1915 H 188.171 0.233814 -3.97112 0
M  V30 1916 H 184.91 -1.57208 -6.36369 0
M  V30 1917 H 184.43 0.100825 -5.99715 0
M  V30 1918 H 186.109 -0.26642 -6.46451 0
M  V30 1919 N 186.241 1.57166 -0.116904 0
M  V30 1920 C 187.188 2.15202 0.83408 0
M  V30 1921 C 188.158 1.07644 1.26499 0
M  V30 1922 O 189.343 1.35541 1.34288 0
M  V30 1923 C 186.483 2.75405 2.07957 0
M  V30 1924 C 185.596 3.97264 1.69721 0
M  V30 1925 C 184.731 4.45561 2.89221 0
M  V30 1926 C 183.77 5.59956 2.47215 0
M  V30 1927 N 182.907 6.03006 3.59622 0
M  V30 1928 H 187.747 2.96141 0.332335 0
M  V30 1929 H 185.284 1.46309 0.152349 0
M  V30 1930 H 187.242 3.08439 2.80929 0
M  V30 1931 H 185.872 1.97159 2.55594 0
M  V30 1932 H 184.924 3.70404 0.866316 0
M  V30 1933 H 186.236 4.80226 1.34849 0
M  V30 1934 H 185.39 4.80493 3.7042 0
M  V30 1935 H 184.129 3.61544 3.27318 0
M  V30 1936 H 183.134 5.2463 1.64448 0
M  V30 1937 H 184.359 6.45738 2.10238 0
M  V30 1938 H 182.305 5.21931 3.97396 0
M  V30 1939 H 182.222 6.80819 3.28667 0
M  V30 1940 H 183.49 6.42576 4.41267 0
M  V30 1941 N 187.719 -0.156864 1.56817 0
M  V30 1942 C 188.967 -0.869404 1.82444 0
M  V30 1943 C 189.288 -1.82147 0.69623 0
M  V30 1944 O 188.558 -1.93847 -0.28287 0
M  V30 1945 H 187.138 -0.324043 0.673056 0
M  V30 1946 H 189.8 -0.153224 1.94297 0
M  V30 1947 H 188.896 -1.43761 2.77019 0
M  V30 1948 N 189.197 -1.51736 -0.425897 0
M  V30 1949 C 190.422 -1.69082 -1.20108 0
M  V30 1950 C 190.847 -0.392398 -1.83962 0
M  V30 1951 O 190.205 0.64858 -1.69302 0
M  V30 1952 C 190.253 -2.81604 -2.25237 0
M  V30 1953 O 189.357 -2.46004 -3.30992 0
M  V30 1954 H 188.698 -0.563408 -0.35138 0
M  V30 1955 H 191.228 -1.98358 -0.501512 0
M  V30 1956 H 191.238 -3.06025 -2.69838 0
M  V30 1957 H 189.913 -3.75817 -1.78142 0
M  V30 1958 H 188.49 -2.32195 -2.91787 0
M  V30 1959 N 190.675 0.682077 -1.42076 0
M  V30 1960 C 191.921 1.44428 -1.42367 0
M  V30 1961 C 192.254 1.94164 -0.0373056 0
M  V30 1962 O 191.529 1.70429 0.937239 0
M  V30 1963 C 191.812 2.64654 -2.44194 0
M  V30 1964 C 191.665 2.20596 -3.91991 0
M  V30 1965 C 192.984 3.66865 -2.431 0
M  V30 1966 H 190.103 0.523834 -0.518428 0
M  V30 1967 H 192.745 0.77576 -1.73442 0
M  V30 1968 H 190.895 3.2169 -2.17826 0
M  V30 1969 H 192.567 1.68783 -4.29313 0
M  V30 1970 H 190.81 1.52242 -4.06208 0
M  V30 1971 H 191.481 3.06921 -4.58807 0
M  V30 1972 H 193.957 3.19531 -2.66532 0
M  V30 1973 H 192.833 4.48577 -3.16339 0
M  V30 1974 H 193.094 4.17493 -1.45437 0
M  V30 1975 N 192.153 1.28127 0.917671 0
M  V30 1976 C 193.399 1.15223 1.66888 0
M  V30 1977 C 193.732 -0.299293 1.9188 0
M  V30 1978 O 193.007 -1.21805 1.51637 0
M  V30 1979 C 193.29 1.94706 3.02922 0
M  V30 1980 C 193.143 3.47898 2.85109 0
M  V30 1981 C 194.462 1.75939 4.03402 0
M  V30 1982 H 191.581 0.419946 0.605652 0
M  V30 1983 H 194.223 1.57398 1.06423 0
M  V30 1984 H 192.373 1.58864 3.54534 0
M  V30 1985 H 194.045 3.93624 2.40537 0
M  V30 1986 H 192.288 3.7373 2.20246 0
M  V30 1987 H 192.959 3.98765 3.81694 0
M  V30 1988 H 195.435 2.07209 3.60837 0
M  V30 1989 H 194.311 2.33931 4.96556 0
M  V30 1990 H 194.572 0.709877 4.36364 0
M  V30 1991 N 193.631 -1.12557 1.10312 0
M  V30 1992 C 194.856 -1.88405 0.867085 0
M  V30 1993 C 195.281 -1.79038 -0.576817 0
M  V30 1994 O 194.639 -1.14439 -1.40618 0
M  V30 1995 C 194.687 -3.3563 1.31851 0
M  V30 1996 O 193.791 -4.09565 0.482734 0
M  V30 1997 H 193.132 -0.585455 0.313271 0
M  V30 1998 H 195.662 -1.42352 1.4696 0
M  V30 1999 H 195.672 -3.86469 1.3079 0
M  V30 2000 H 194.347 -3.41765 2.37001 0
M  V30 2001 H 192.924 -3.68695 0.558448 0
M  V30 2002 N 195.109 -0.891671 -1.2995 0
M  V30 2003 C 196.072 -0.36828 -2.26222 0
M  V30 2004 C 197.072 0.493014 -1.53056 0
M  V30 2005 O 198.262 0.299213 -1.71611 0
M  V30 2006 C 195.394 0.47442 -3.37583 0
M  V30 2007 H 196.587 -1.21844 -2.74033 0
M  V30 2008 H 194.14 -0.669107 -1.41254 0
M  V30 2009 H 194.875 1.34489 -2.95099 0
M  V30 2010 H 194.66 -0.142615 -3.91841 0
M  V30 2011 H 196.15 0.83218 -4.09224 0
M  V30 2012 N 196.587 1.43421 -0.653314 0
M  V30 2013 C 197.827 2.03689 -0.170346 0
M  V30 2014 C 198.191 1.50427 1.19314 0
M  V30 2015 O 199.392 2.0234 1.76952 0
M  V30 2016 C 197.663 3.56946 -0.180183 0
M  V30 2017 S 199.222 4.38171 0.234925 0
M  V30 2018 H 196.04 0.707345 -0.0719976 0
M  V30 2019 H 198.642 1.75486 -0.86167 0
M  V30 2020 H 197.346 3.93212 -1.17526 0
M  V30 2021 H 196.877 3.89791 0.531675 0
M  V30 2022 H 198.892 4.73808 1.47378 0
M  V30 2023 N 198.065 0.39524 1.52563 0
M  V30 2024 C 199.476 -0.0774719 1.86539 0
M  V30 2025 C 199.827 -1.45641 1.31466 0
M  V30 2026 O 198.952 -2.06459 0.648367 0
M  V30 2027 C 199.547 -0.147356 3.38479 0
M  V30 2028 C 198.106 -0.564373 3.72145 0
M  V30 2029 C 197.253 0.269919 2.75983 0
M  V30 2030 H 200.204 0.612876 1.46388 0
M  V30 2031 H 200.225 -0.965343 3.68051 0
M  V30 2032 H 199.737 0.856387 3.78534 0
M  V30 2033 H 197.838 -1.57527 3.37663 0
M  V30 2034 H 197.951 -0.318402 4.78041 0
M  V30 2035 H 196.315 -0.265696 2.5331 0
M  V30 2036 H 197.098 1.27175 3.18875 0
M  V30 2037 N 199.544 -1.57102 0.125237 0
M  V30 2038 C 200.477 -2.11371 -0.860094 0
M  V30 2039 C 201.455 -1.03168 -1.25679 0
M  V30 2040 O 202.639 -1.30862 -1.35674 0
M  V30 2041 C 199.766 -2.61555 -2.1519 0
M  V30 2042 C 198.812 -3.81701 -1.9028 0
M  V30 2043 S 199.645 -5.23797 -1.11343 0
M  V30 2044 C 200.801 -5.77353 -2.41689 0
M  V30 2045 H 201.034 -2.94617 -0.39852 0
M  V30 2046 H 198.567 -1.54145 -0.0886555 0
M  V30 2047 H 200.525 -2.91122 -2.89411 0
M  V30 2048 H 199.186 -1.78479 -2.58465 0
M  V30 2049 H 198.379 -4.14985 -2.86014 0
M  V30 2050 H 197.981 -3.52783 -1.24178 0
M  V30 2051 H 200.273 -5.87458 -3.37489 0
M  V30 2052 H 201.216 -6.75323 -2.12942 0
M  V30 2053 H 201.624 -5.05457 -2.51342 0
M  V30 2054 N 201.022 0.148545 -1.56898 0
M  V30 2055 C 201.932 1.20293 -2.01412 0
M  V30 2056 C 202.948 1.47107 -0.929273 0
M  V30 2057 O 204.124 1.58807 -1.23863 0
M  V30 2058 C 201.189 2.51682 -2.38447 0
M  V30 2059 C 200.25 2.32529 -3.60872 0
M  V30 2060 C 199.483 3.57653 -3.96132 0
M  V30 2061 O 199.706 4.63771 -3.32073 0
M  V30 2062 O 198.64 3.50408 -4.89385 0
M  V30 2063 H 202.466 0.855025 -2.91416 0
M  V30 2064 H 200.051 0.357151 -1.45068 0
M  V30 2065 H 201.933 3.29147 -2.63135 0
M  V30 2066 H 200.608 2.86006 -1.51599 0
M  V30 2067 H 199.515 1.53019 -3.41373 0
M  V30 2068 H 200.848 2.03121 -4.48333 0
M  V30 2069 N 202.5 1.5196 0.417844 0
M  V30 2070 C 203.45 1.7106 1.5074 0
M  V30 2071 C 204.434 0.564487 1.50673 0
M  V30 2072 O 205.626 0.821206 1.56797 0
M  V30 2073 C 202.755 1.85677 2.88754 0
M  V30 2074 C 201.841 3.06133 2.93502 0
M  V30 2075 N 202.232 4.28987 2.67962 0
M  V30 2076 C 200.53 3.05787 3.24669 0
M  V30 2077 C 201.231 5.10395 2.79055 0
M  V30 2078 N 200.207 4.45455 3.11561 0
M  V30 2079 H 204.009 2.63696 1.29775 0
M  V30 2080 H 201.523 1.49873 0.625436 0
M  V30 2081 H 203.52 1.97475 3.67164 0
M  V30 2082 H 202.18 0.942348 3.10725 0
M  V30 2083 H 203.191 4.57607 2.4252 0
M  V30 2084 H 199.868 2.2405 3.52289 0
M  V30 2085 H 201.258 6.18247 2.63097 0
M  V30 2086 N 203.978 -0.674533 1.42435 0
M  V30 2087 C 204.928 -1.7807 1.4239 0
M  V30 2088 C 205.912 -1.58169 0.295202 0
M  V30 2089 O 207.104 -1.68643 0.537449 0
M  V30 2090 C 204.233 -3.16532 1.32901 0
M  V30 2091 C 203.319 -3.42055 2.50717 0
M  V30 2092 N 203.71 -3.38162 3.76139 0
M  V30 2093 C 202.008 -3.72692 2.44983 0
M  V30 2094 C 202.709 -3.63177 4.54398 0
M  V30 2095 N 201.685 -3.83954 3.84812 0
M  V30 2096 H 205.487 -1.73454 2.37257 0
M  V30 2097 H 203.001 -0.875381 1.36788 0
M  V30 2098 H 204.998 -3.958 1.30951 0
M  V30 2099 H 203.658 -3.22345 0.390363 0
M  V30 2100 H 204.669 -3.18057 4.0873 0
M  V30 2101 H 201.346 -3.85749 1.59699 0
M  V30 2102 H 202.736 -3.66125 5.63384 0
M  V30 2103 N 205.456 -1.28612 -0.910864 0
M  V30 2104 C 206.867 -1.14406 -1.47541 0
M  V30 2105 C 207.218 0.264901 -1.94403 0
M  V30 2106 O 206.343 1.15942 -1.82719 0
M  V30 2107 C 206.938 -2.07073 -2.68153 0
M  V30 2108 C 205.497 -1.96923 -3.20778 0
M  V30 2109 C 204.644 -1.98646 -1.93481 0
M  V30 2110 H 207.595 -1.41259 -0.723291 0
M  V30 2111 H 207.616 -1.63642 -3.43514 0
M  V30 2112 H 207.128 -3.09611 -2.34015 0
M  V30 2113 H 205.229 -0.97433 -3.59635 0
M  V30 2114 H 205.342 -2.84026 -3.85832 0
M  V30 2115 H 203.706 -1.43093 -2.10705 0
M  V30 2116 H 204.489 -3.02868 -1.61634 0
M  V30 2117 N 206.934 1.1197 -1.10907 0
M  V30 2118 C 207.864 2.19928 -0.784473 0
M  V30 2119 C 208.845 1.6833 0.244726 0
M  V30 2120 O 210.03 1.93892 0.109418 0
M  V30 2121 C 207.16 3.46597 -0.220827 0
M  V30 2122 C 206.114 4.11376 -1.18127 0
M  V30 2123 C 205.44 5.32554 -0.478594 0
M  V30 2124 C 206.74 4.56945 -2.52979 0
M  V30 2125 H 208.434 2.47337 -1.68715 0
M  V30 2126 H 205.98 1.18879 -0.812642 0
M  V30 2127 H 207.933 4.21396 0.0184278 0
M  V30 2128 H 206.657 3.1863 0.717113 0
M  V30 2129 H 205.316 3.38564 -1.40606 0
M  V30 2130 H 204.964 5.00856 0.463976 0
M  V30 2131 H 204.664 5.76844 -1.11912 0
M  V30 2132 H 206.188 6.10096 -0.248 0
M  V30 2133 H 207.602 5.23093 -2.3462 0
M  V30 2134 H 205.999 5.1203 -3.12962 0
M  V30 2135 H 207.069 3.70676 -3.12614 0
M  V30 2136 N 208.412 0.89855 1.29475 0
M  V30 2137 C 209.359 0.373819 2.27753 0
M  V30 2138 C 210.329 -0.543444 1.56958 0
M  V30 2139 O 211.514 -0.468934 1.84948 0
M  V30 2140 C 208.654 -0.393648 3.42848 0
M  V30 2141 C 207.767 0.554379 4.28428 0
M  V30 2142 C 206.902 -0.230026 5.30702 0
M  V30 2143 C 205.941 0.712599 6.07938 0
M  V30 2144 N 205.078 -0.0373283 7.0209 0
M  V30 2145 H 209.918 1.21699 2.72017 0
M  V30 2146 H 207.455 0.611456 1.33789 0
M  V30 2147 H 209.413 -0.85466 4.08352 0
M  V30 2148 H 208.043 -1.20128 2.99615 0
M  V30 2149 H 207.095 1.13391 3.63107 0
M  V30 2150 H 208.407 1.27597 4.82204 0
M  V30 2151 H 207.561 -0.752288 6.02018 0
M  V30 2152 H 206.3 -0.984758 4.77654 0
M  V30 2153 H 205.305 1.24637 5.35486 0
M  V30 2154 H 206.53 1.46664 6.63074 0
M  V30 2155 H 204.476 -0.774348 6.51414 0
M  V30 2156 H 204.393 0.624374 7.53417 0
M  V30 2157 H 205.661 -0.539891 7.77628 0
M  V30 2158 N 209.89 -1.43072 0.660911 0
M  V30 2159 C 211.118 -2.06067 0.185422 0
M  V30 2160 C 211.533 -1.49582 -1.15198 0
M  V30 2161 O 210.89 -0.630134 -1.71276 0
M  V30 2162 C 210.941 -3.61371 0.0966523 0
M  V30 2163 O 210.662 -4.15758 1.38119 0
M  V30 2164 C 212.163 -4.41455 -0.403996 0
M  V30 2165 H 209.383 -0.664459 0.0934604 0
M  V30 2166 H 211.927 -1.83447 0.90373 0
M  V30 2167 H 210.082 -3.8315 -0.572259 0
M  V30 2168 H 210.496 -5.09499 1.24542 0
M  V30 2169 H 211.97 -5.50437 -0.415045 0
M  V30 2170 H 212.447 -4.15036 -1.43674 0
M  V30 2171 H 213.053 -4.24663 0.232691 0
M  V30 2172 N 211.368 -0.403325 -1.52352 0
M  V30 2173 C 212.298 0.416205 -2.29761 0
M  V30 2174 C 213.279 1.05123 -1.33728 0
M  V30 2175 O 214.464 1.06134 -1.62632 0
M  V30 2176 C 211.594 1.53624 -3.11475 0
M  V30 2177 C 210.548 1.02653 -4.15507 0
M  V30 2178 C 209.874 2.23971 -4.85532 0
M  V30 2179 C 211.174 0.08463 -5.22231 0
M  V30 2180 H 212.868 -0.229701 -2.98518 0
M  V30 2181 H 210.414 -0.111913 -1.43564 0
M  V30 2182 H 212.367 2.1165 -3.64393 0
M  V30 2183 H 211.091 2.20994 -2.40477 0
M  V30 2184 H 209.75 0.46871 -3.63591 0
M  V30 2185 H 209.398 2.89883 -4.11068 0
M  V30 2186 H 209.098 1.90521 -5.55856 0
M  V30 2187 H 210.622 2.82614 -5.41259 0
M  V30 2188 H 212.036 0.573509 -5.70424 0
M  V30 2189 H 210.433 -0.160783 -5.99885 0
M  V30 2190 H 211.503 -0.86237 -4.7717 0
M  V30 2191 N 212.846 1.57033 -0.133567 0
M  V30 2192 C 213.776 2.1909 0.807567 0
M  V30 2193 C 214.757 1.13517 1.26681 0
M  V30 2194 O 215.942 1.41809 1.32679 0
M  V30 2195 C 213.072 2.80188 2.05212 0
M  V30 2196 C 212.026 3.91471 1.73015 0
M  V30 2197 C 211.352 4.39443 3.04622 0
M  V30 2198 C 212.652 5.12886 0.987168 0
M  V30 2199 H 214.346 2.97988 0.290403 0
M  V30 2200 H 211.892 1.43335 0.138239 0
M  V30 2201 H 213.845 3.22264 2.71521 0
M  V30 2202 H 212.569 1.98601 2.59278 0
M  V30 2203 H 211.228 3.49993 1.0909 0
M  V30 2204 H 210.876 3.54695 3.56651 0
M  V30 2205 H 210.576 5.14495 2.83847 0
M  V30 2206 H 212.1 4.8418 3.72024 0
M  V30 2207 H 213.514 5.51891 1.55208 0
M  V30 2208 H 211.911 5.93615 0.87985 0
M  V30 2209 H 212.981 4.84894 -0.0235286 0
M  V30 2210 N 214.325 -0.140222 1.56975 0
M  V30 2211 C 215.257 -1.19818 1.95388 0
M  V30 2212 C 216.27 -1.38816 0.850525 0
M  V30 2213 O 217.459 -1.38267 1.12891 0
M  V30 2214 C 214.559 -2.56189 2.21857 0
M  V30 2215 C 213.732 -2.58077 3.5315 0
M  V30 2216 C 212.791 -3.76037 3.6808 0
M  V30 2217 O 211.817 -3.60598 4.40406 0
M  V30 2218 N 213.019 -4.93763 3.05251 0
M  V30 2219 H 215.784 -0.871609 2.86746 0
M  V30 2220 H 213.345 -0.32972 1.58507 0
M  V30 2221 H 215.337 -3.33623 2.2908 0
M  V30 2222 H 213.907 -2.81111 1.36731 0
M  V30 2223 H 213.127 -1.6651 3.57307 0
M  V30 2224 H 214.415 -2.56377 4.39486 0
M  V30 2225 H 213.813 -5.09209 2.46419 0
M  V30 2226 H 212.37 -5.68949 3.18026 0
M  V30 2227 N 215.803 -1.52179 -0.40978 0
M  V30 2228 C 217.052 -1.65434 -1.15388 0
M  V30 2229 C 217.365 -0.390056 -1.91671 0
M  V30 2230 O 218.571 -0.402399 -2.68501 0
M  V30 2231 C 217.027 -2.92279 -2.10003 0
M  V30 2232 C 216.635 -4.25813 -1.39239 0
M  V30 2233 C 218.379 -3.14897 -2.84675 0
M  V30 2234 C 216.286 -5.43782 -2.32498 0
M  V30 2235 H 215.216 -0.616267 -0.434432 0
M  V30 2236 H 217.867 -1.78666 -0.418401 0
M  V30 2237 H 216.249 -2.72744 -2.871 0
M  V30 2238 H 217.423 -4.55828 -0.675099 0
M  V30 2239 H 215.738 -4.09292 -0.766097 0
M  V30 2240 H 218.335 -4.0021 -3.54593 0
M  V30 2241 H 218.678 -2.29103 -3.47588 0
M  V30 2242 H 219.211 -3.34901 -2.14677 0
M  V30 2243 H 215.95 -6.3192 -1.74233 0
M  V30 2244 H 215.47 -5.18106 -3.02201 0
M  V30 2245 H 217.149 -5.76834 -2.93038 0
M  V30 2246 N 217.281 0.66697 -1.42791 0
M  V30 2247 C 218.229 1.80157 -1.47127 0
M  V30 2248 C 219.223 1.65825 -0.346199 0
M  V30 2249 O 220.429 1.72338 -0.519572 0
M  V30 2250 H 216.804 0.594158 -0.460956 0
M  V30 2251 H 218.775 1.73619 -2.42692 0
M  V30 2252 C 217.524 3.18351 -1.39813 0
M  V30 2253 H 216.847 3.3001 -2.25684 0
M  V30 2254 H 218.287 3.97736 -1.46908 0
M  V30 2255 C 216.746 3.36707 -0.11391 0
M  V30 2256 O 217.276 3.93027 0.830241 0
M  V30 2257 N 215.482 2.90586 -0.0285295 0
M  V30 2258 H 215.029 2.4494 -0.79764 0
M  V30 2259 H 214.987 3.03245 0.830063 0
M  V30 2260 N 218.759 1.29093 0.90403 0
M  V30 2261 C 219.707 1.13727 2.02901 0
M  V30 2262 C 220.701 0.0539853 1.69314 0
M  V30 2263 O 221.907 0.213469 1.7873 0
M  V30 2264 H 218.282 0.35117 0.664969 0
M  V30 2265 H 220.253 2.08982 2.13001 0
M  V30 2266 C 219.002 0.826066 3.37745 0
M  V30 2267 H 218.325 1.65164 3.64089 0
M  V30 2268 H 219.765 0.758559 4.17159 0
M  V30 2269 C 218.224 -0.470541 3.33598 0
M  V30 2270 O 218.754 -1.49792 3.72727 0
M  V30 2271 N 216.96 -0.474812 2.86695 0
M  V30 2272 H 216.507 0.361692 2.55048 0
M  V30 2273 H 216.465 -1.34236 2.84303 0
M  V30 2274 N 220.237 -1.11381 1.11499 0
M  V30 2275 C 221.485 -1.8277 0.862524 0
M  V30 2276 C 221.806 -1.85097 -0.613534 0
M  V30 2277 O 221.076 -1.32198 -1.4457 0
M  V30 2278 H 219.656 -0.676823 0.316101 0
M  V30 2279 H 222.318 -1.34816 1.4075 0
M  V30 2280 H 221.414 -2.86614 1.23527 0
M  V30 2281 N 221.715 -0.905404 -1.28997 0
M  V30 2282 C 222.625 -0.392246 -2.31298 0
M  V30 2283 C 223.641 0.515889 -1.66176 0
M  V30 2284 O 224.817 0.404093 -1.97304 0
M  V30 2285 C 221.882 0.36686 -3.44754 0
M  V30 2286 C 220.943 -0.573485 -4.25452 0
M  V30 2287 C 220.176 0.149488 -5.33491 0
M  V30 2288 O 220.399 1.37255 -5.5364 0
M  V30 2289 O 219.333 -0.510919 -5.99728 0
M  V30 2290 H 223.159 -1.2411 -2.77183 0
M  V30 2291 H 220.744 -0.669926 -1.33538 0
M  V30 2292 H 222.626 0.795907 -4.13816 0
M  V30 2293 H 221.301 1.19169 -3.00966 0
M  V30 2294 H 220.208 -1.05176 -3.59011 0
M  V30 2295 H 221.541 -1.36489 -4.72897 0
M  V30 2296 N 223.193 1.4272 -0.668489 0
M  V30 2297 C 224.423 2.05668 -0.196063 0
M  V30 2298 C 224.831 1.5028 1.14946 0
M  V30 2299 O 224.174 0.6348 1.72383 0
M  V30 2300 C 224.236 3.59469 -0.0468879 0
M  V30 2301 C 223.9 4.37518 -1.32012 0
M  V30 2302 C 224.897 4.68584 -2.25222 0
M  V30 2303 C 222.582 4.77266 -1.56596 0
M  V30 2304 C 224.576 5.38326 -3.41297 0
M  V30 2305 C 222.263 5.4675 -2.72962 0
M  V30 2306 C 223.261 5.77204 -3.65137 0
M  V30 2307 O 222.949 6.45264 -4.79468 0
M  V30 2308 H 222.681 0.669382 -0.0943599 0
M  V30 2309 H 225.235 1.83954 -0.913788 0
M  V30 2310 H 223.465 3.79817 0.726357 0
M  V30 2311 H 225.154 4.04071 0.384852 0
M  V30 2312 H 225.92 4.38382 -2.07477 0
M  V30 2313 H 221.799 4.52959 -0.857249 0
M  V30 2314 H 225.343 5.62014 -4.13263 0
M  V30 2315 H 221.24 5.76369 -2.90635 0
M  V30 2316 H 222.008 6.63753 -4.78931 0
M  V30 2317 N 224.671 0.411399 1.52136 0
M  V30 2318 C 225.634 -0.401089 2.25663 0
M  V30 2319 C 226.634 -0.971732 1.28117 0
M  V30 2320 O 227.824 -0.850254 1.52041 0
M  V30 2321 C 224.956 -1.56483 3.02863 0
M  V30 2322 H 226.149 0.24295 2.98914 0
M  V30 2323 H 223.702 0.163968 1.55438 0
M  V30 2324 H 224.437 -2.24567 2.33967 0
M  V30 2325 H 224.222 -1.16211 3.74483 0
M  V30 2326 H 225.712 -2.13951 3.58629 0
M  V30 2327 N 226.149 -1.5696 0.141893 0
M  V30 2328 C 227.56 -1.82797 -0.379776 0
M  V30 2329 C 227.911 -1.06033 -1.6508 0
M  V30 2330 O 227.036 -0.304011 -2.14254 0
M  V30 2331 C 227.631 -3.31578 -0.695802 0
M  V30 2332 C 226.19 -3.58014 -1.16201 0
M  V30 2333 C 225.337 -2.76699 -0.182455 0
M  V30 2334 H 228.288 -1.54406 0.366675 0
M  V30 2335 H 228.309 -3.47454 -1.55099 0
M  V30 2336 H 227.821 -3.87421 0.229449 0
M  V30 2337 H 225.922 -3.07553 -2.10338 0
M  V30 2338 H 226.035 -4.66501 -1.09151 0
M  V30 2339 H 224.399 -2.45618 -0.674072 0
M  V30 2340 H 225.182 -3.35311 0.736297 0
M  V30 2341 N 227.627 0.131896 -1.57047 0
M  V30 2342 C 228.56 1.19236 -1.94571 0
M  V30 2343 C 229.538 1.40782 -0.813576 0
M  V30 2344 O 230.722 1.55148 -1.07058 0
M  V30 2345 C 227.849 2.54858 -2.23081 0
M  V30 2346 C 226.895 2.49817 -3.45679 0
M  V30 2347 S 227.728 1.95036 -4.98719 0
M  V30 2348 C 228.884 3.32357 -5.30367 0
M  V30 2349 H 229.117 0.872297 -2.84215 0
M  V30 2350 H 226.65 0.338134 -1.50652 0
M  V30 2351 H 228.608 3.32898 -2.40185 0
M  V30 2352 H 227.269 2.84047 -1.34074 0
M  V30 2353 H 226.462 3.49688 -3.62952 0
M  V30 2354 H 226.064 1.79892 -3.27895 0
M  V30 2355 H 228.356 4.28525 -5.2476 0
M  V30 2356 H 229.299 3.19923 -6.31708 0
M  V30 2357 H 229.707 3.3019 -4.57859 0
M  V30 2358 N 229.106 1.52395 0.401703 0
M  V30 2359 C 230.522 1.41363 0.740864 0
M  V30 2360 C 230.722 0.523982 1.94568 0
M  V30 2361 O 229.778 -0.00741204 2.52499 0
M  V30 2362 C 231.091 2.84011 0.987847 0
M  V30 2363 C 232.639 2.93404 1.09011 0
M  V30 2364 C 233.114 4.37036 1.3698 0
M  V30 2365 N 234.605 4.40304 1.43829 0
M  V30 2366 C 235.34 5.48508 1.67112 0
M  V30 2367 N 234.836 6.66819 1.87949 0
M  V30 2368 N 236.629 5.36034 1.69187 0
M  V30 2369 H 228.78 2.08765 -0.391262 0
M  V30 2370 H 231.043 0.941265 -0.112798 0
M  V30 2371 H 230.749 3.51265 0.174835 0
M  V30 2372 H 230.623 3.25502 1.906 0
M  V30 2373 H 233.01 2.26325 1.8937 0
M  V30 2374 H 233.091 2.55359 0.15015 0
M  V30 2375 H 232.735 5.04676 0.571353 0
M  V30 2376 H 232.665 4.72623 2.3224 0
M  V30 2377 H 235.156 3.55024 1.29486 0
M  V30 2378 H 235.469 7.45063 2.05185 0
M  V30 2379 H 233.814 6.6987 1.85199 0
M  V30 2380 H 237.005 4.42579 1.52451 0
M  V30 2381 H 237.178 6.20434 1.86993 0
M  V30 2382 N 230.584 -0.659388 1.43143 0
M  V30 2383 C 231.534 -1.7655 1.44271 0
M  V30 2384 C 232.518 -1.57847 0.311961 0
M  V30 2385 O 233.71 -1.68064 0.555306 0
M  V30 2386 C 230.839 -3.15104 1.36251 0
M  V30 2387 C 229.925 -3.39377 2.54331 0
M  V30 2388 N 230.316 -3.34153 3.79704 0
M  V30 2389 C 228.614 -3.70072 2.48922 0
M  V30 2390 C 229.315 -3.58337 4.58225 0
M  V30 2391 N 228.291 -3.79851 3.88863 0
M  V30 2392 H 232.093 -1.70928 2.39083 0
M  V30 2393 H 229.607 -0.860823 1.37708 0
M  V30 2394 H 231.604 -3.94389 1.35141 0
M  V30 2395 H 230.264 -3.21913 0.424531 0
M  V30 2396 H 231.275 -3.13704 4.1208 0
M  V30 2397 H 227.952 -3.84034 1.63781 0
M  V30 2398 H 229.342 -3.60129 5.67236 0
M  V30 2399 N 232.062 -1.29571 -0.897171 0
M  V30 2400 C 232.992 -1.17473 -2.01798 0
M  V30 2401 C 233.973 -0.068323 -1.69963 0
M  V30 2402 O 235.158 -0.248239 -1.92607 0
M  V30 2403 C 232.288 -0.853099 -3.36659 0
M  V30 2404 C 231.242 -1.9161 -3.82713 0
M  V30 2405 C 230.568 -1.44773 -5.14728 0
M  V30 2406 C 231.868 -3.32535 -4.02763 0
M  V30 2407 H 233.562 -2.11237 -2.12177 0
M  V30 2408 H 231.108 -1.01699 -1.01948 0
M  V30 2409 H 233.061 -0.755165 -4.14578 0
M  V30 2410 H 231.785 0.120236 -3.26379 0
M  V30 2411 H 230.444 -2.00346 -3.07013 0
M  V30 2412 H 230.092 -0.462995 -5.00865 0
M  V30 2413 H 229.792 -2.15865 -5.46513 0
M  V30 2414 H 231.316 -1.36334 -5.95185 0
M  V30 2415 H 232.73 -3.26626 -4.71156 0
M  V30 2416 H 231.127 -4.01607 -4.45905 0
M  V30 2417 H 232.197 -3.75326 -3.07016 0
M  V30 2418 N 233.54 1.10788 -1.12088 0
M  V30 2419 C 234.765 1.87002 -0.896949 0
M  V30 2420 C 235.19 1.79933 0.548261 0
M  V30 2421 O 234.548 1.16662 1.38779 0
M  V30 2422 C 234.596 3.3349 -1.37174 0
M  V30 2423 O 233.7 4.08745 -0.547831 0
M  V30 2424 H 233.041 0.580397 -0.322545 0
M  V30 2425 H 235.571 1.39996 -1.49206 0
M  V30 2426 H 235.581 3.84339 -1.36922 0
M  V30 2427 H 234.256 3.37951 -2.42408 0
M  V30 2428 H 232.833 3.6776 -0.617034 0
M  V30 2429 N 235.018 0.912232 1.28515 0
M  V30 2430 C 236.295 0.463597 1.90027 0
M  V30 2431 C 236.675 -1.05753 1.82701 0
M  V30 2432 O 236.023 -1.90492 1.26194 0
M  V30 2433 C 236.233 0.992253 3.34597 0
M  V30 2434 C 237.581 1.04344 4.11579 0
M  V30 2435 O 238.605 0.94079 3.43551 0
M  V30 2436 O 237.464 1.1995 5.33174 0
M  V30 2437 H 234.558 0.146666 0.813891 0
M  V30 2438 H 237.104 1.00292 1.36893 0
M  V30 2439 H 235.876 2.03623 3.34146 0
M  V30 2440 H 235.499 0.433672 3.95228 0
M  V30 2441 N 236.496 -1.42363 0.676048 0
M  V30 2442 C 237.426 -2.33497 0.0124832 0
M  V30 2443 C 238.407 -1.50748 -0.787981 0
M  V30 2444 O 239.592 -1.79346 -0.744884 0
M  V30 2445 C 236.722 -3.34377 -0.938582 0
M  V30 2446 C 235.676 -4.27289 -0.246622 0
M  V30 2447 C 235.002 -5.18386 -1.31071 0
M  V30 2448 C 236.302 -5.14916 0.875125 0
M  V30 2449 H 237.996 -2.89233 0.773593 0
M  V30 2450 H 235.542 -1.39073 0.37346 0
M  V30 2451 H 237.495 -3.97044 -1.41188 0
M  V30 2452 H 236.219 -2.76947 -1.73113 0
M  V30 2453 H 234.878 -3.66018 0.206456 0
M  V30 2454 H 234.526 -4.57282 -2.09528 0
M  V30 2455 H 234.226 -5.81378 -0.852839 0
M  V30 2456 H 235.75 -5.83929 -1.78492 0
M  V30 2457 H 237.164 -5.71262 0.482983 0
M  V30 2458 H 235.561 -5.86747 1.25887 0
M  V30 2459 H 236.631 -4.53242 1.72335 0
M  V30 2460 N 237.974 -0.419461 -1.51915 0
M  V30 2461 C 238.884 0.407528 -2.31033 0
M  V30 2462 C 239.9 1.04413 -1.3919 0
M  V30 2463 O 241.076 1.0434 -1.72265 0
M  V30 2464 C 238.141 1.50365 -3.12396 0
M  V30 2465 C 237.202 0.889029 -4.19994 0
M  V30 2466 C 236.435 1.93291 -4.97468 0
M  V30 2467 O 236.658 3.15259 -4.75361 0
M  V30 2468 O 235.592 1.53339 -5.8204 0
M  V30 2469 H 239.418 -0.237865 -3.02767 0
M  V30 2470 H 237.003 -0.182413 -1.48282 0
M  V30 2471 H 238.885 2.13975 -3.63032 0
M  V30 2472 H 237.56 2.13345 -2.43445 0
M  V30 2473 H 236.467 0.215353 -3.7348 0
M  V30 2474 H 237.8 0.302991 -4.91267 0
M  V30 2475 N 239.452 1.56882 -0.150215 0
M  V30 2476 C 240.384 2.14057 0.819286 0
M  V30 2477 C 241.397 1.09082 1.20851 0
M  V30 2478 O 242.586 1.36347 1.15203 0
M  V30 2479 C 239.686 2.65102 2.11127 0
M  V30 2480 C 238.859 3.94511 1.88891 0
M  V30 2481 C 237.918 4.30834 3.02107 0
M  V30 2482 O 236.944 4.99099 2.73659 0
M  V30 2483 N 238.146 3.90676 4.29363 0
M  V30 2484 H 240.911 2.97871 0.330618 0
M  V30 2485 H 238.472 1.61866 0.0332538 0
M  V30 2486 H 240.464 2.86411 2.85921 0
M  V30 2487 H 239.034 1.85994 2.51247 0
M  V30 2488 H 238.254 3.81795 0.981152 0
M  V30 2489 H 239.542 4.7907 1.71376 0
M  V30 2490 H 238.94 3.35677 4.55343 0
M  V30 2491 H 237.497 4.1703 5.00928 0
M  V30 2492 N 240.93 -0.123565 1.57115 0
M  V30 2493 C 242.341 -0.681198 1.73829 0
M  V30 2494 C 242.692 -1.80535 0.768214 0
M  V30 2495 O 241.817 -2.16317 -0.0599103 0
M  V30 2496 C 242.412 -1.24246 3.15196 0
M  V30 2497 C 240.971 -1.74643 3.33432 0
M  V30 2498 C 240.118 -0.644284 2.69711 0
M  V30 2499 H 243.069 0.102315 1.5837 0
M  V30 2500 H 243.09 -2.11216 3.16493 0
M  V30 2501 H 242.602 -0.424062 3.85776 0
M  V30 2502 H 240.703 -2.58974 2.67886 0
M  V30 2503 H 240.816 -1.85902 4.41562 0
M  V30 2504 H 239.18 -1.07676 2.3082 0
M  V30 2505 H 239.963 0.163058 3.42913 0
M  V30 2506 N 242.408 -1.52605 -0.393616 0
M  V30 2507 C 243.824 -1.41753 -0.733357 0
M  V30 2508 C 244.024 -0.534293 -1.94287 0
M  V30 2509 O 243.08 -0.0059787 -2.52499 0
M  V30 2510 C 244.393 -2.84531 -0.972772 0
M  V30 2511 C 245.941 -2.93978 -1.07453 0
M  V30 2512 C 246.416 -4.37756 -1.3466 0
M  V30 2513 N 247.907 -4.4106 -1.41492 0
M  V30 2514 C 248.642 -5.49387 -1.642 0
M  V30 2515 N 248.138 -6.67806 -1.8441 0
M  V30 2516 N 249.931 -5.36923 -1.66342 0
M  V30 2517 H 242.082 -2.08555 0.402328 0
M  V30 2518 H 244.345 -0.940654 0.117789 0
M  V30 2519 H 244.051 -3.51353 -0.156204 0
M  V30 2520 H 243.925 -3.26508 -1.88871 0
M  V30 2521 H 246.312 -2.27326 -1.88167 0
M  V30 2522 H 246.393 -2.55435 -0.136605 0
M  V30 2523 H 246.037 -5.04972 -0.544581 0
M  V30 2524 H 245.967 -4.73848 -2.2973 0
M  V30 2525 H 248.458 -3.55705 -1.27601 0
M  V30 2526 H 248.771 -7.46141 -2.01231 0
M  V30 2527 H 247.116 -6.70843 -1.81644 0
M  V30 2528 H 250.307 -4.43381 -1.50102 0
M  V30 2529 H 250.48 -6.21416 -1.837 0
M  V30 2530 N 243.887 0.651787 -1.4349 0
M  V30 2531 C 244.819 1.77725 -1.44729 0
M  V30 2532 C 245.832 1.59141 -0.343231 0
M  V30 2533 O 247.021 1.67835 -0.607751 0
M  V30 2534 C 244.121 3.15172 -1.24579 0
M  V30 2535 C 243.294 3.60402 -2.47849 0
M  V30 2536 C 242.353 4.76656 -2.22902 0
M  V30 2537 O 241.379 4.86022 -2.96263 0
M  V30 2538 N 242.581 5.66958 -1.24656 0
M  V30 2539 H 245.346 1.77141 -2.41746 0
M  V30 2540 H 242.907 0.835678 -1.38665 0
M  V30 2541 H 244.899 3.90634 -1.0577 0
M  V30 2542 H 243.469 3.1052 -0.360015 0
M  V30 2543 H 242.689 2.75369 -2.82073 0
M  V30 2544 H 243.977 3.87368 -3.29884 0
M  V30 2545 H 243.375 5.62065 -0.640265 0
M  V30 2546 H 241.932 6.42135 -1.1183 0
M  V30 2547 N 245.365 1.30045 0.890287 0
M  V30 2548 C 246.297 1.11786 2.00091 0
M  V30 2549 C 247.31 0.0626307 1.62679 0
M  V30 2550 O 248.499 0.308112 1.75821 0
M  V30 2551 C 245.599 0.681527 3.31977 0
M  V30 2552 C 244.772 1.81735 3.97858 0
M  V30 2553 C 243.831 1.37045 5.08041 0
M  V30 2554 O 242.857 2.07677 5.29961 0
M  V30 2555 N 244.059 0.246525 5.79976 0
M  V30 2556 H 246.824 2.07441 2.16306 0
M  V30 2557 H 244.385 1.2211 1.06305 0
M  V30 2558 H 246.377 0.365675 4.03045 0
M  V30 2559 H 244.947 -0.182828 3.12065 0
M  V30 2560 H 244.167 2.30159 3.20032 0
M  V30 2561 H 245.455 2.57865 4.38615 0
M  V30 2562 H 244.853 -0.34215 5.64664 0
M  V30 2563 H 243.41 -0.00990438 6.51799 0
M  V30 2564 N 246.843 -1.10192 1.12674 0
M  V30 2565 C 247.773 -2.18652 0.819362 0
M  V30 2566 C 248.754 -1.68698 -0.217915 0
M  V30 2567 O 249.939 -1.94041 -0.0785581 0
M  V30 2568 C 247.069 -3.46202 0.27594 0
M  V30 2569 C 246.023 -4.09444 1.24656 0
M  V30 2570 C 245.349 -5.31725 0.563258 0
M  V30 2571 C 246.649 -4.52863 2.60217 0
M  V30 2572 H 248.343 -2.44622 1.72628 0
M  V30 2573 H 245.889 -1.17571 0.831451 0
M  V30 2574 H 247.842 -4.21372 0.0486149 0
M  V30 2575 H 246.566 -3.1973 -0.666331 0
M  V30 2576 H 245.225 -3.36284 1.45974 0
M  V30 2577 H 244.873 -5.0153 -0.384235 0
M  V30 2578 H 244.573 -5.74991 1.21075 0
M  V30 2579 H 246.097 -6.09624 0.34503 0
M  V30 2580 H 247.511 -5.19294 2.42913 0
M  V30 2581 H 245.908 -5.06986 3.21068 0
M  V30 2582 H 246.978 -3.65656 3.18471 0
M  V30 2583 N 248.321 -0.919034 -1.28029 0
M  V30 2584 C 249.732 -0.600735 -1.76771 0
M  V30 2585 C 250.083 0.884024 -1.75156 0
M  V30 2586 O 249.208 1.69163 -1.34956 0
M  V30 2587 C 249.803 -1.08372 -3.21 0
M  V30 2588 C 248.362 -0.816248 -3.67443 0
M  V30 2589 C 247.509 -1.24742 -2.47658 0
M  V30 2590 H 250.46 -1.09974 -1.14418 0
M  V30 2591 H 250.481 -0.427512 -3.78091 0
M  V30 2592 H 249.993 -2.16437 -3.22144 0
M  V30 2593 H 248.094 0.250968 -3.71754 0
M  V30 2594 H 248.207 -1.4277 -4.57333 0
M  V30 2595 H 246.571 -0.666083 -2.45836 0
M  V30 2596 H 247.354 -2.33653 -2.51518 0
M  V30 2597 N 249.799 1.42003 -0.683588 0
M  V30 2598 C 250.731 2.29183 0.0283068 0
M  V30 2599 C 251.744 1.4415 0.756611 0
M  V30 2600 O 252.933 1.67779 0.609306 0
M  V30 2601 C 250.033 3.21765 1.06398 0
M  V30 2602 C 249.206 4.35496 0.407723 0
M  V30 2603 C 248.265 5.08737 1.34437 0
M  V30 2604 O 247.291 5.62948 0.841318 0
M  V30 2605 N 248.493 5.15075 2.67728 0
M  V30 2606 H 251.258 2.9092 -0.720105 0
M  V30 2607 H 248.819 1.53025 -0.528682 0
M  V30 2608 H 250.811 3.6763 1.69204 0
M  V30 2609 H 249.381 2.61418 1.71404 0
M  V30 2610 H 248.601 3.92165 -0.400012 0
M  V30 2611 H 249.889 5.08776 -0.0490956 0
M  V30 2612 H 249.287 4.72457 3.11129 0
M  V30 2613 H 247.844 5.64556 3.2576 0
M  V30 2614 N 251.277 0.427512 1.51691 0
M  V30 2615 C 252.24 -0.377132 2.26076 0
M  V30 2616 C 253.24 -0.958089 1.29141 0
M  V30 2617 O 254.43 -0.83408 1.52934 0
M  V30 2618 C 251.562 -1.53262 3.04506 0
M  V30 2619 H 252.755 0.27464 2.9864 0
M  V30 2620 H 250.308 0.180445 1.55255 0
M  V30 2621 H 251.043 -2.22072 2.36335 0
M  V30 2622 H 250.828 -1.12232 3.75694 0
M  V30 2623 H 252.318 -2.10135 3.60878 0
M  V30 2624 N 252.755 -1.56801 0.158532 0
M  V30 2625 C 254.002 -1.9649 -0.489679 0
M  V30 2626 C 254.33 -1.04394 -1.6411 0
M  V30 2627 O 253.585 -0.0754401 -1.95555 0
M  V30 2628 C 253.884 -3.4235 -1.02623 0
M  V30 2629 C 253.55 -4.50899 0.00794526 0
M  V30 2630 C 252.212 -4.80312 0.292207 0
M  V30 2631 C 254.564 -5.16333 0.710584 0
M  V30 2632 C 251.892 -5.72461 1.28472 0
M  V30 2633 C 254.244 -6.09553 1.69199 0
M  V30 2634 C 252.908 -6.37339 1.98383 0
M  V30 2635 H 252.178 -0.719009 -0.179186 0
M  V30 2636 H 254.825 -1.8989 0.247798 0
M  V30 2637 H 253.13 -3.45838 -1.84128 0
M  V30 2638 H 254.827 -3.70393 -1.53656 0
M  V30 2639 H 251.417 -4.28015 -0.22379 0
M  V30 2640 H 255.601 -4.93732 0.504174 0
M  V30 2641 H 250.857 -5.92278 1.51714 0
M  V30 2642 H 255.031 -6.59327 2.24189 0
M  V30 2643 H 252.658 -7.08546 2.7544 0
M  V30 2644 N 254.233 0.115231 -1.57178 0
M  V30 2645 C 255.649 0.468877 -1.52557 0
M  V30 2646 C 255.849 1.81649 -0.872125 0
M  V30 2647 O 254.905 2.48347 -0.45606 0
M  V30 2648 C 256.218 0.4499 -2.97315 0
M  V30 2649 C 257.766 0.533185 -3.08425 0
M  V30 2650 C 258.241 0.54456 -4.54751 0
M  V30 2651 N 259.732 0.605892 -4.5922 0
M  V30 2652 C 260.467 0.636203 -5.6986 0
M  V30 2653 N 259.963 0.623931 -6.89985 0
M  V30 2654 N 261.756 0.679496 -5.57978 0
M  V30 2655 H 253.907 -0.767712 -1.9804 0
M  V30 2656 H 256.17 -0.283609 -0.904583 0
M  V30 2657 H 255.876 -0.472721 -3.48509 0
M  V30 2658 H 255.75 1.27632 -3.5495 0
M  V30 2659 H 258.137 1.44623 -2.57232 0
M  V30 2660 H 258.218 -0.320995 -2.53778 0
M  V30 2661 H 257.862 -0.364452 -5.06591 0
M  V30 2662 H 257.792 1.41568 -5.07214 0
M  V30 2663 H 260.283 0.621386 -3.72756 0
M  V30 2664 H 260.596 0.649787 -7.70063 0
M  V30 2665 H 258.941 0.591296 -6.9248 0
M  V30 2666 H 262.132 0.686472 -4.63039 0
M  V30 2667 H 262.305 0.69965 -6.44212 0
M  V30 2668 N 255.711 1.52812 0.385517 0
M  V30 2669 C 257.122 1.5993 0.963293 0
M  V30 2670 C 257.473 0.454302 1.90868 0
M  V30 2671 O 256.598 -0.422132 2.12243 0
M  V30 2672 C 257.193 2.89871 1.75387 0
M  V30 2673 C 255.752 2.99389 2.28129 0
M  V30 2674 C 254.899 2.55071 1.08783 0
M  V30 2675 H 257.85 1.5784 0.164948 0
M  V30 2676 H 257.871 2.76553 2.61341 0
M  V30 2677 H 257.383 3.73186 1.06554 0
M  V30 2678 H 255.484 2.20619 3.00263 0
M  V30 2679 H 255.597 4.04096 2.57377 0
M  V30 2680 H 253.961 2.09473 1.4489 0
M  V30 2681 H 254.744 3.40785 0.414807 0
M  V30 2682 N 257.189 -0.644168 1.43834 0
M  V30 2683 C 258.137 -1.77793 1.49974 0
M  V30 2684 C 259.131 -1.65253 0.372536 0
M  V30 2685 O 260.337 -1.7149 0.546924 0
M  V30 2686 H 256.712 -0.58675 0.47035 0
M  V30 2687 H 258.683 -1.69736 2.45423 0
M  V30 2688 C 257.432 -3.16087 1.4486 0
M  V30 2689 H 256.755 -3.26378 2.30905 0
M  V30 2690 H 258.195 -3.95349 1.53217 0
M  V30 2691 C 256.654 -3.36484 0.167463 0
M  V30 2692 O 257.184 -3.94298 -0.767609 0
M  V30 2693 N 255.39 -2.90504 0.0747556 0
M  V30 2694 H 254.937 -2.4364 0.836507 0
M  V30 2695 H 254.895 -3.04527 -0.781714 0
M  V30 2696 N 258.668 -1.30515 -0.883378 0
M  V30 2697 C 259.916 -1.19194 -1.63209 0
M  V30 2698 C 260.237 0.253205 -1.93349 0
M  V30 2699 O 259.507 1.17025 -1.57105 0
M  V30 2700 H 258.087 -0.438148 -0.605009 0
M  V30 2701 H 260.749 -1.63663 -1.05832 0
M  V30 2702 H 259.845 -1.75396 -2.58153 0
M  V30 2703 N 260.146 1.09593 -1.13257 0
M  V30 2704 C 261.109 2.14359 -0.811358 0
M  V30 2705 C 262.109 1.59808 0.178377 0
M  V30 2706 O 263.299 1.74132 -0.0484911 0
M  V30 2707 C 260.431 3.40269 -0.207276 0
M  V30 2708 H 261.624 2.44284 -1.73969 0
M  V30 2709 H 259.177 1.25102 -0.936973 0
M  V30 2710 H 259.912 3.15969 0.73036 0
M  V30 2711 H 259.697 3.81154 -0.919992 0
M  V30 2712 H 261.187 4.176 0.000667944 0
M  V30 2713 N 261.624 0.925811 1.2754 0
M  V30 2714 C 262.873 0.561084 1.93739 0
M  V30 2715 C 263.186 -0.901685 1.73577 0
M  V30 2716 O 264.392 -1.37511 2.34101 0
M  V30 2717 C 262.848 0.952668 3.47062 0
M  V30 2718 C 262.456 2.43599 3.75983 0
M  V30 2719 C 264.2 0.659103 4.19352 0
M  V30 2720 C 262.107 2.76707 5.22673 0
M  V30 2721 H 261.037 0.206122 0.725279 0
M  V30 2722 H 263.688 1.12637 1.44863 0
M  V30 2723 H 262.07 0.316053 3.94737 0
M  V30 2724 H 263.244 3.12035 3.39073 0
M  V30 2725 H 261.559 2.70125 3.16893 0
M  V30 2726 H 264.156 0.882985 5.27359 0
M  V30 2727 H 264.499 -0.403607 4.14339 0
M  V30 2728 H 265.032 1.25473 3.77494 0
M  V30 2729 H 261.771 3.8188 5.32774 0
M  V30 2730 H 261.291 2.12919 5.60737 0
M  V30 2731 H 262.97 2.6435 5.90532 0
M  V30 2732 N 263.102 -1.41638 0.69111 0
M  V30 2733 C 264.332 -2.0533 0.228758 0
M  V30 2734 C 264.74 -1.52089 -1.12541 0
M  V30 2735 O 264.083 -0.662145 -1.71351 0
M  V30 2736 C 264.145 -3.59349 0.10407 0
M  V30 2737 C 263.809 -4.35362 1.38956 0
M  V30 2738 C 264.806 -4.64942 2.32648 0
M  V30 2739 C 262.491 -4.74714 1.64169 0
M  V30 2740 C 264.485 -5.32828 3.49818 0
M  V30 2741 C 262.172 -5.42338 2.81625 0
M  V30 2742 C 263.17 -5.71322 3.74273 0
M  V30 2743 O 262.858 -6.37554 4.89673 0
M  V30 2744 H 262.59 -0.667796 0.104997 0
M  V30 2745 H 265.144 -1.82477 0.942938 0
M  V30 2746 H 263.374 -3.80924 -0.665839 0
M  V30 2747 H 265.063 -4.04633 -0.320519 0
M  V30 2748 H 265.829 -4.35025 2.14425 0
M  V30 2749 H 261.708 -4.51538 0.929202 0
M  V30 2750 H 265.252 -5.55368 4.22152 0
M  V30 2751 H 261.149 -5.71673 2.99768 0
M  V30 2752 H 261.917 -6.56049 4.8943 0
M  V30 2753 N 264.58 -0.43555 -1.51462 0
M  V30 2754 C 265.829 0.133007 -2.01261 0
M  V30 2755 C 266.142 1.43942 -1.32439 0
M  V30 2756 O 267.348 2.09081 -1.73198 0
M  V30 2757 C 265.804 0.287581 -3.58749 0
M  V30 2758 C 265.412 -1.00829 -4.36506 0
M  V30 2759 C 267.156 0.810004 -4.167 0
M  V30 2760 C 265.063 -0.819454 -5.85695 0
M  V30 2761 H 263.993 0.0534822 -0.752101 0
M  V30 2762 H 266.644 -0.565038 -1.74584 0
M  V30 2763 H 265.026 1.04859 -3.81865 0
M  V30 2764 H 266.2 -1.77749 -4.25138 0
M  V30 2765 H 264.515 -1.45911 -3.89999 0
M  V30 2766 H 267.112 0.967743 -5.2587 0
M  V30 2767 H 267.455 1.79196 -3.75758 0
M  V30 2768 H 267.988 0.107357 -3.97655 0
M  V30 2769 H 264.727 -1.77374 -6.31046 0
M  V30 2770 H 264.247 -0.0900208 -5.99732 0
M  V30 2771 H 265.926 -0.471949 -6.45276 0
M  V30 2772 N 266.058 1.56714 -0.166846 0
M  V30 2773 C 267.006 2.19056 0.782123 0
M  V30 2774 C 268 1.15328 1.24079 0
M  V30 2775 O 269.206 1.33537 1.20697 0
M  V30 2776 H 265.581 0.70167 0.270486 0
M  V30 2777 H 267.552 2.97494 0.232322 0
M  V30 2778 C 266.301 2.84206 2.00306 0
M  V30 2779 H 265.624 3.63748 1.65914 0
M  V30 2780 H 267.064 3.31302 2.64604 0
M  V30 2781 C 265.523 1.83744 2.82382 0
M  V30 2782 O 266.053 1.32014 3.79388 0
M  V30 2783 N 264.259 1.52601 2.47308 0
M  V30 2784 H 263.806 1.9486 1.68485 0
M  V30 2785 H 263.764 0.856351 3.02513 0
M  V30 2786 N 267.536 -0.106894 1.57237 0
M  V30 2787 C 268.813 -0.843526 1.76477 0
M  V30 2788 C 269.193 -1.97499 0.745464 0
M  V30 2789 O 268.541 -2.27357 -0.228306 0
M  V30 2790 C 268.751 -1.34903 3.21873 0
M  V30 2791 C 270.099 -1.79654 3.8472 0
M  V30 2792 O 271.123 -1.44554 3.2555 0
M  V30 2793 O 269.982 -2.44515 4.88748 0
M  V30 2794 H 267.076 -0.401468 0.723016 0
M  V30 2795 H 269.622 -0.0896927 1.69463 0
M  V30 2796 H 268.394 -0.53781 3.87586 0
M  V30 2797 H 268.017 -2.16522 3.33473 0
M  V30 2798 N 269.014 -1.53014 -0.377408 0
M  V30 2799 C 270.242 -1.72515 -1.14219 0
M  V30 2800 C 270.657 -0.448735 -1.8339 0
M  V30 2801 O 270.014 0.577592 -1.73119 0
M  V30 2802 C 270.065 -2.8826 -2.18148 0
M  V30 2803 O 269.786 -4.10962 -1.51795 0
M  V30 2804 C 271.287 -3.19536 -3.07264 0
M  V30 2805 H 268.507 -0.577301 -0.342001 0
M  V30 2806 H 271.051 -1.99712 -0.439935 0
M  V30 2807 H 269.206 -2.63492 -2.83991 0
M  V30 2808 H 269.62 -4.75693 -2.20945 0
M  V30 2809 H 271.094 -4.03959 -3.76193 0
M  V30 2810 H 271.571 -2.34403 -3.71419 0
M  V30 2811 H 272.177 -3.46186 -2.47053 0
M  V30 2812 N 270.492 0.636531 -1.44174 0
M  V30 2813 C 271.455 1.73063 -1.50273 0
M  V30 2814 C 272.455 1.56113 -0.385397 0
M  V30 2815 O 273.645 1.61707 -0.64781 0
M  V30 2816 C 270.777 3.12096 -1.37145 0
M  V30 2817 H 271.97 1.69031 -2.47727 0
M  V30 2818 H 269.523 0.849706 -1.31186 0
M  V30 2819 H 270.258 3.21728 -0.407636 0
M  V30 2820 H 270.043 3.25805 -2.18159 0
M  V30 2821 H 271.533 3.91846 -1.44382 0
M  V30 2822 N 271.97 1.30982 0.876444 0
M  V30 2823 C 273.195 1.23373 1.66715 0
M  V30 2824 C 273.62 -0.19885 1.87046 0
M  V30 2825 O 272.978 -1.1427 1.40756 0
M  V30 2826 C 273.026 1.97644 3.01611 0
M  V30 2827 O 272.13 1.30935 3.91062 0
M  V30 2828 H 271.471 0.426279 0.509099 0
M  V30 2829 H 274.001 1.72944 1.09323 0
M  V30 2830 H 274.011 2.06992 3.51594 0
M  V30 2831 H 272.686 3.01829 2.86133 0
M  V30 2832 H 271.263 1.29996 3.49507 0
M  V30 2833 N 273.449 -1.08991 1.13837 0
M  V30 2834 C 274.379 -2.17771 0.842507 0
M  V30 2835 C 275.36 -1.6892 -0.20001 0
M  V30 2836 O 276.545 -1.94113 -0.0579731 0
M  V30 2837 C 273.675 -3.4589 0.312644 0
M  V30 2838 C 272.629 -4.08099 1.28992 0
M  V30 2839 C 271.955 -5.31098 0.619623 0
M  V30 2840 C 273.255 -4.50077 2.65005 0
M  V30 2841 H 274.949 -2.42777 1.75213 0
M  V30 2842 H 272.495 -1.16682 0.843875 0
M  V30 2843 H 274.448 -4.21297 0.0933043 0
M  V30 2844 H 273.172 -3.20419 -0.632382 0
M  V30 2845 H 271.831 -3.34717 1.49533 0
M  V30 2846 H 271.479 -5.0191 -0.33102 0
M  V30 2847 H 271.179 -5.73674 1.27167 0
M  V30 2848 H 272.703 -6.09224 0.409669 0
M  V30 2849 H 274.117 -5.16688 2.48407 0
M  V30 2850 H 272.514 -5.03553 3.26427 0
M  V30 2851 H 273.584 -3.62257 3.22332 0
M  V30 2852 N 274.927 -0.932562 -1.27047 0
M  V30 2853 C 276.176 -0.571351 -1.93439 0
M  V30 2854 C 276.489 0.892467 -1.74053 0
M  V30 2855 O 277.695 1.36267 -2.34826 0
M  V30 2856 C 276.151 -0.97106 -3.46552 0
M  V30 2857 C 275.759 -2.4559 -3.74686 0
M  V30 2858 C 277.503 -0.681333 -4.18997 0
M  V30 2859 C 275.41 -2.79475 -5.21198 0
M  V30 2860 H 274.34 -0.209966 -0.724176 0
M  V30 2861 H 276.991 -1.13403 -1.44263 0
M  V30 2862 H 275.373 -0.336983 -3.94564 0
M  V30 2863 H 276.547 -3.13829 -3.37414 0
M  V30 2864 H 274.862 -2.71802 -3.15456 0
M  V30 2865 H 277.459 -0.910939 -5.26883 0
M  V30 2866 H 277.802 0.381628 -4.14547 0
M  V30 2867 H 278.335 -1.27473 -3.76823 0
M  V30 2868 H 275.074 -3.847 -5.30741 0
M  V30 2869 H 274.594 -2.1589 -5.596 0
M  V30 2870 H 276.273 -2.67478 -5.89122 0
M  V30 2871 N 276.405 1.4127 -0.698611 0
M  V30 2872 C 277.368 2.29158 -0.044132 0
M  V30 2873 C 278.368 1.44529 0.704841 0
M  V30 2874 O 279.558 1.65643 0.539276 0
M  V30 2875 C 276.69 3.27459 0.947809 0
M  V30 2876 H 277.883 2.88529 -0.817994 0
M  V30 2877 H 275.436 1.49307 -0.46228 0
M  V30 2878 H 276.171 2.73073 1.74933 0
M  V30 2879 H 275.956 3.8991 0.41385 0
M  V30 2880 H 277.446 3.93311 1.40344 0
M  V30 2881 N 277.883 0.443576 1.51229 0
M  V30 2882 C 278.831 -0.37904 2.29491 0
M  V30 2883 C 279.825 -1.0153 1.35603 0
M  V30 2884 O 281.031 -0.94955 1.52917 0
M  V30 2885 H 277.406 -0.141053 0.738653 0
M  V30 2886 H 279.377 0.301799 2.9687 0
M  V30 2887 C 278.126 -1.46426 3.15364 0
M  V30 2888 H 277.449 -0.984037 3.87501 0
M  V30 2889 H 278.889 -2.01297 3.7317 0
M  V30 2890 C 277.348 -2.45099 2.31146 0
M  V30 2891 O 277.878 -3.49773 1.9754 0
M  V30 2892 N 276.084 -2.16139 1.94249 0
M  V30 2893 H 275.631 -1.31044 2.21777 0
M  V30 2894 H 275.589 -2.82398 1.38198 0
M  V30 2895 N 279.361 -1.56624 0.175154 0
M  V30 2896 C 280.309 -2.19468 -0.770495 0
M  V30 2897 C 281.303 -1.15985 -1.23466 0
M  V30 2898 O 282.509 -1.34176 -1.19987 0
M  V30 2899 H 278.884 -0.703095 -0.266761 0
M  V30 2900 H 280.855 -2.97613 -0.216542 0
M  V30 2901 C 279.604 -2.85264 -1.98796 0
M  V30 2902 H 278.927 -3.64623 -1.63983 0
M  V30 2903 H 280.367 -3.327 -2.62843 0
M  V30 2904 C 278.826 -1.85239 -2.81404 0
M  V30 2905 O 279.356 -1.34024 -3.78682 0
M  V30 2906 N 277.562 -1.53911 -2.46495 0
M  V30 2907 H 277.109 -1.95751 -1.67449 0
M  V30 2908 H 277.067 -0.872382 -3.02054 0
M  V30 2909 N 280.839 0.0985539 -1.57292 0
M  V30 2910 C 282.079 0.808332 -1.87737 0
M  V30 2911 C 282.443 1.7607 -0.76572 0
M  V30 2912 O 283.644 2.51358 -0.952499 0
M  V30 2913 C 281.915 1.52093 -3.23423 0
M  V30 2914 S 283.474 2.26947 -3.75554 0
M  V30 2915 H 280.292 0.269377 -0.657995 0
M  V30 2916 H 282.894 0.0656269 -1.9539 0
M  V30 2917 H 281.598 0.81363 -4.02254 0
M  V30 2918 H 281.129 2.30361 -3.189 0
M  V30 2919 H 283.144 3.53027 -3.48692 0
M  V30 2920 N 282.317 1.53212 0.369288 0
M  V30 2921 C 283.564 1.69215 1.11232 0
M  V30 2922 C 283.892 0.442048 1.8941 0
M  V30 2923 O 283.147 -0.575944 1.87033 0
M  V30 2924 C 283.446 2.89101 2.10132 0
M  V30 2925 C 283.112 4.25758 1.48463 0
M  V30 2926 C 281.774 4.6292 1.31372 0
M  V30 2927 C 284.126 5.10757 1.03811 0
M  V30 2928 C 281.454 5.82722 0.68207 0
M  V30 2929 C 283.806 6.31201 0.420487 0
M  V30 2930 C 282.47 6.67079 0.237038 0
M  V30 2931 H 281.74 0.619201 0.407027 0
M  V30 2932 H 284.387 1.87391 0.394552 0
M  V30 2933 H 282.692 2.65421 2.88199 0
M  V30 2934 H 284.389 2.98676 2.6757 0
M  V30 2935 H 280.979 3.96494 1.62758 0
M  V30 2936 H 285.163 4.82599 1.1581 0
M  V30 2937 H 280.419 6.09113 0.528316 0
M  V30 2938 H 284.593 6.96368 0.0662874 0
M  V30 2939 H 282.22 7.59774 -0.254477 0
M  V30 2940 N 283.795 -0.628877 1.44509 0
M  V30 2941 C 285.042 -1.38839 1.47411 0
M  V30 2942 C 285.37 -1.94202 0.10757 0
M  V30 2943 O 284.625 -1.74243 -0.890947 0
M  V30 2944 C 284.924 -2.56995 2.48371 0
M  V30 2945 C 284.59 -2.19908 3.93639 0
M  V30 2946 C 283.252 -2.09506 4.33198 0
M  V30 2947 C 285.604 -1.9064 4.85083 0
M  V30 2948 C 282.932 -1.68028 5.62124 0
M  V30 2949 C 285.284 -1.50655 6.14399 0
M  V30 2950 C 283.948 -1.38796 6.5291 0
M  V30 2951 H 283.218 -0.508048 0.539414 0
M  V30 2952 H 285.865 -0.712913 1.77735 0
M  V30 2953 H 284.17 -3.29786 2.11538 0
M  V30 2954 H 285.867 -3.15223 2.47861 0
M  V30 2955 H 282.457 -2.28922 3.62343 0
M  V30 2956 H 286.641 -1.97585 4.55273 0
M  V30 2957 H 281.897 -1.57452 5.90778 0
M  V30 2958 H 286.071 -1.27048 6.84713 0
M  V30 2959 H 283.698 -1.06429 7.52713 0
M  V30 2960 N 285.273 -1.31445 -0.869486 0
M  V30 2961 C 286.522 -1.20517 -1.61736 0
M  V30 2962 C 286.835 0.235341 -1.94179 0
M  V30 2963 O 288.041 0.466312 -2.67465 0
M  V30 2964 C 286.497 -2.10982 -2.91573 0
M  V30 2965 C 286.105 -3.60032 -2.66611 0
M  V30 2966 C 287.849 -2.08856 -3.69567 0
M  V30 2967 C 285.756 -4.42503 -3.92358 0
M  V30 2968 H 284.686 -0.447493 -0.606849 0
M  V30 2969 H 287.337 -1.56303 -0.96133 0
M  V30 2970 H 285.719 -1.68095 -3.58553 0
M  V30 2971 H 286.893 -4.11167 -2.08035 0
M  V30 2972 H 285.208 -3.64139 -2.0197 0
M  V30 2973 H 287.805 -2.67716 -4.62852 0
M  V30 2974 H 288.148 -1.07582 -4.02159 0
M  V30 2975 H 288.681 -2.49945 -3.09471 0
M  V30 2976 H 285.42 -5.44533 -3.64916 0
M  V30 2977 H 284.94 -3.96125 -4.50383 0
M  V30 2978 H 286.619 -4.54741 -4.60238 0
M  V30 2979 N 286.751 1.08385 -1.14413 0
M  V30 2980 C 287.714 2.13486 -0.834048 0
M  V30 2981 C 288.714 1.59988 0.161418 0
M  V30 2982 O 289.904 1.74071 -0.0669575 0
M  V30 2983 C 287.036 3.4003 -0.243354 0
M  V30 2984 H 288.229 2.42425 -1.7655 0
M  V30 2985 H 285.782 1.24101 -0.950189 0
M  V30 2986 H 286.517 3.16726 0.696807 0
M  V30 2987 H 286.302 3.80157 -0.960367 0
M  V30 2988 H 287.792 4.17577 -0.0436242 0
M  V30 2989 N 288.23 0.939286 1.26551 0
M  V30 2990 C 289.641 0.628782 1.75793 0
M  V30 2991 C 289.992 -0.856046 1.7654 0
M  V30 2992 O 289.117 -1.66994 1.3763 0
M  V30 2993 C 289.712 1.13465 3.19235 0
M  V30 2994 C 288.271 0.874601 3.66098 0
M  V30 2995 C 287.418 1.28667 2.45642 0
M  V30 2996 H 290.369 1.1178 1.12654 0
M  V30 2997 H 290.39 0.487609 3.77363 0
M  V30 2998 H 289.902 2.21535 3.1866 0
M  V30 2999 H 288.003 -0.191793 3.72106 0
M  V30 3000 H 288.116 1.50028 4.55004 0
M  V30 3001 H 286.48 0.705109 2.44745 0
M  V30 3002 H 287.263 2.37625 2.47769 0
M  V30 3003 N 289.708 -1.40897 0.706093 0
M  V30 3004 C 290.936 -2.05373 0.250887 0
M  V30 3005 C 291.351 -1.53172 -1.10381 0
M  V30 3006 O 290.708 -0.684305 -1.69185 0
M  V30 3007 C 290.759 -3.6088 0.211571 0
M  V30 3008 O 290.48 -4.11153 1.51276 0
M  V30 3009 C 291.981 -4.42517 -0.263346 0
M  V30 3010 H 289.201 -0.66115 0.114552 0
M  V30 3011 H 291.745 -1.80479 0.961635 0
M  V30 3012 H 289.9 -3.84777 -0.450073 0
M  V30 3013 H 290.314 -5.05279 1.40689 0
M  V30 3014 H 291.788 -5.51479 -0.239718 0
M  V30 3015 H 292.265 -4.19396 -1.30397 0
M  V30 3016 H 292.871 -4.23708 0.367677 0
M  V30 3017 N 291.186 -0.45159 -1.50991 0
M  V30 3018 C 292.133 0.352625 -2.2809 0
M  V30 3019 C 293.103 1.0044 -1.32291 0
M  V30 3020 O 294.288 1.02058 -1.6121 0
M  V30 3021 C 291.428 1.43983 -3.13629 0
M  V30 3022 C 290.541 0.804772 -4.24438 0
M  V30 3023 C 289.676 1.86822 -4.97263 0
M  V30 3024 C 288.715 1.21236 -5.99973 0
M  V30 3025 N 287.852 2.2178 -6.66152 0
M  V30 3026 H 292.692 -0.311186 -2.96371 0
M  V30 3027 H 290.229 -0.165308 -1.46168 0
M  V30 3028 H 292.187 2.08161 -3.61559 0
M  V30 3029 H 290.817 2.07307 -2.47434 0
M  V30 3030 H 289.869 0.0509129 -3.80366 0
M  V30 3031 H 291.181 0.286076 -4.97979 0
M  V30 3032 H 290.335 2.58628 -5.48813 0
M  V30 3033 H 289.074 2.42068 -4.23385 0
M  V30 3034 H 288.079 0.479828 -5.47702 0
M  V30 3035 H 289.304 0.667051 -6.75816 0
M  V30 3036 H 287.25 2.76079 -5.95077 0
M  V30 3037 H 287.167 1.74841 -7.35504 0
M  V30 3038 H 288.435 2.93026 -7.22327 0
M  V30 3039 N 292.664 1.56529 -0.183458 0
M  V30 3040 C 293.594 2.21549 0.737456 0
M  V30 3041 C 294.575 1.17489 1.23005 0
M  V30 3042 O 295.76 1.45959 1.281 0
M  V30 3043 C 292.89 2.86575 1.96194 0
M  V30 3044 C 291.844 3.96778 1.60473 0
M  V30 3045 C 291.17 4.48911 2.90487 0
M  V30 3046 C 292.47 5.15767 0.823497 0
M  V30 3047 H 294.164 2.98761 0.195453 0
M  V30 3048 H 291.71 1.43702 0.0925686 0
M  V30 3049 H 293.663 3.30739 2.61131 0
M  V30 3050 H 292.387 2.06749 2.52828 0
M  V30 3051 H 291.046 3.53286 0.978997 0
M  V30 3052 H 290.694 3.65862 3.45186 0
M  V30 3053 H 290.394 5.23265 2.67335 0
M  V30 3054 H 291.918 4.95771 3.56432 0
M  V30 3055 H 293.332 5.56549 1.37571 0
M  V30 3056 H 291.729 5.96114 0.690551 0
M  V30 3057 H 292.799 4.84574 -0.177782 0
M  V30 3058 N 294.142 -0.090211 1.57342 0
M  V30 3059 C 295.372 -0.805055 1.90269 0
M  V30 3060 C 295.78 -1.72561 0.775842 0
M  V30 3061 O 295.123 -1.81839 -0.260843 0
M  V30 3062 C 295.185 -1.66734 3.18497 0
M  V30 3063 C 294.849 -0.918092 4.47683 0
M  V30 3064 C 295.846 -0.245674 5.19319 0
M  V30 3065 C 293.531 -0.890724 4.94339 0
M  V30 3066 C 295.525 0.444088 6.35851 0
M  V30 3067 C 293.212 -0.197179 6.10782 0
M  V30 3068 C 294.21 0.469044 6.81388 0
M  V30 3069 O 293.898 1.15146 7.95611 0
M  V30 3070 H 293.63 -0.235143 0.633785 0
M  V30 3071 H 296.184 -0.0703805 2.05279 0
M  V30 3072 H 294.414 -2.44437 2.99646 0
M  V30 3073 H 296.103 -2.25919 3.37217 0
M  V30 3074 H 296.869 -0.258246 4.84312 0
M  V30 3075 H 292.748 -1.39873 4.39268 0
M  V30 3076 H 296.292 0.964667 6.90898 0
M  V30 3077 H 292.189 -0.18247 6.45242 0
M  V30 3078 H 292.957 1.05885 8.11622 0
M  V30 3079 N 295.62 -1.53406 -0.361157 0
M  V30 3080 C 296.869 -1.69022 -1.10066 0
M  V30 3081 C 297.182 -0.450838 -1.90333 0
M  V30 3082 O 298.388 -0.487617 -2.67085 0
M  V30 3083 C 296.844 -2.98812 -2.00598 0
M  V30 3084 C 296.452 -4.30027 -1.25621 0
M  V30 3085 C 298.196 -3.23795 -2.74513 0
M  V30 3086 C 296.103 -5.50903 -2.1508 0
M  V30 3087 H 295.033 -0.629776 -0.414606 0
M  V30 3088 H 297.684 -1.79907 -0.361348 0
M  V30 3089 H 296.066 -2.8174 -2.78278 0
M  V30 3090 H 297.24 -4.57745 -0.529739 0
M  V30 3091 H 295.555 -4.11522 -0.635496 0
M  V30 3092 H 298.152 -4.11289 -3.41681 0
M  V30 3093 H 298.495 -2.40045 -3.40123 0
M  V30 3094 H 299.028 -3.41561 -2.03914 0
M  V30 3095 H 295.767 -6.37143 -1.54041 0
M  V30 3096 H 295.287 -5.27459 -2.85565 0
M  V30 3097 H 296.966 -5.85865 -2.74538 0
M  V30 3098 N 297.098 0.621204 -1.44841 0
M  V30 3099 C 298.031 1.7459 -1.46947 0
M  V30 3100 C 299.009 1.59273 -0.327238 0
M  V30 3101 O 300.193 1.81021 -0.525706 0
M  V30 3102 C 297.32 3.12274 -1.31159 0
M  V30 3103 C 296.366 3.46216 -2.49072 0
M  V30 3104 S 297.199 3.4258 -4.11581 0
M  V30 3105 C 298.355 4.82867 -3.98233 0
M  V30 3106 H 298.588 1.72538 -2.42111 0
M  V30 3107 H 296.121 0.796683 -1.32259 0
M  V30 3108 H 298.079 3.91722 -1.22737 0
M  V30 3109 H 296.74 3.11855 -0.374885 0
M  V30 3110 H 295.933 4.4643 -2.33915 0
M  V30 3111 H 295.535 2.74253 -2.54286 0
M  V30 3112 H 297.827 5.7234 -3.62537 0
M  V30 3113 H 298.77 5.0308 -4.98313 0
M  V30 3114 H 299.178 4.57908 -3.30121 0
M  V30 3115 N 298.576 1.31904 0.862503 0
M  V30 3116 C 299.801 1.25135 1.65397 0
M  V30 3117 C 300.226 -0.179 1.87246 0
M  V30 3118 O 299.584 -1.1277 1.4196 0
M  V30 3119 C 299.632 2.00832 2.99498 0
M  V30 3120 O 298.736 1.35075 3.89652 0
M  V30 3121 H 298.077 0.431655 0.504549 0
M  V30 3122 H 300.607 1.74094 1.07483 0
M  V30 3123 H 300.617 2.10709 3.49379 0
M  V30 3124 H 299.292 3.04847 2.82916 0
M  V30 3125 H 297.869 1.33696 3.48109 0
M  V30 3126 N 300.054 -1.07777 1.14986 0
M  V30 3127 C 301.004 -2.13082 0.811181 0
M  V30 3128 C 301.988 -1.59619 -0.202597 0
M  V30 3129 O 303.18 -1.77 -0.00398275 0
M  V30 3130 C 300.309 -3.42009 0.297439 0
M  V30 3131 C 299.395 -4.02337 1.34112 0
M  V30 3132 N 299.786 -4.36982 2.54716 0
M  V30 3133 C 298.084 -4.29752 1.19285 0
M  V30 3134 C 298.785 -4.84729 3.21578 0
M  V30 3135 N 297.761 -4.83233 2.48972 0
M  V30 3136 H 301.563 -2.37696 1.72853 0
M  V30 3137 H 299.077 -1.25173 1.03468 0
M  V30 3138 H 301.074 -4.16884 0.0364777 0
M  V30 3139 H 299.734 -3.18841 -0.614022 0
M  V30 3140 H 300.745 -4.27807 2.91894 0
M  V30 3141 H 297.422 -4.16106 0.340926 0
M  V30 3142 H 298.812 -5.20863 4.24442 0
M  V30 3143 N 301.532 -0.945985 -1.26051 0
M  V30 3144 C 302.464 -0.416662 -2.25381 0
M  V30 3145 C 303.477 0.462712 -1.56086 0
M  V30 3146 O 304.666 0.272383 -1.7641 0
M  V30 3147 C 301.766 0.419812 -3.3629 0
M  V30 3148 C 300.939 -0.444531 -4.35135 0
M  V30 3149 C 299.998 0.332305 -5.2515 0
M  V30 3150 O 299.024 -0.266324 -5.68577 0
M  V30 3151 N 300.226 1.62763 -5.57215 0
M  V30 3152 H 302.991 -1.27059 -2.71433 0
M  V30 3153 H 300.552 -0.815392 -1.39868 0
M  V30 3154 H 302.544 0.947013 -3.93464 0
M  V30 3155 H 301.114 1.17456 -2.89694 0
M  V30 3156 H 300.334 -1.15291 -3.76964 0
M  V30 3157 H 301.622 -1.03478 -4.98166 0
M  V30 3158 H 301.02 2.13603 -5.23823 0
M  V30 3159 H 299.577 2.10097 -6.17011 0
M  V30 3160 N 303.011 1.40521 -0.713556 0
M  V30 3161 C 304.288 1.94775 -0.17943 0
M  V30 3162 C 304.668 1.65184 1.31444 0
M  V30 3163 O 304.016 0.968429 2.06963 0
M  V30 3164 C 304.226 3.45543 -0.489986 0
M  V30 3165 C 305.574 4.22442 -0.427536 0
M  V30 3166 O 306.598 3.53644 -0.425929 0
M  V30 3167 O 305.457 5.4501 -0.403292 0
M  V30 3168 H 302.551 0.826606 -0.0255192 0
M  V30 3169 H 305.097 1.5014 -0.790949 0
M  V30 3170 H 303.869 3.60432 -1.5233 0
M  V30 3171 H 303.492 3.97311 0.151598 0
M  V30 3172 N 304.489 0.459591 1.5075 0
M  V30 3173 C 305.714 -0.0996819 2.0716 0
M  V30 3174 C 306.139 -1.33761 1.32249 0
M  V30 3175 O 305.497 -1.77551 0.366786 0
M  V30 3176 C 305.545 -0.378226 3.58611 0
M  V30 3177 O 304.649 -1.46081 3.85661 0
M  V30 3178 H 303.99 0.00791392 0.663953 0
M  V30 3179 H 306.52 0.647329 1.9409 0
M  V30 3180 H 306.53 -0.622135 4.03229 0
M  V30 3181 H 305.205 0.526439 4.12555 0
M  V30 3182 H 303.782 -1.20511 3.5289 0
M  V30 3183 N 305.967 -1.56429 0.191757 0
M  V30 3184 C 307.216 -1.9666 -0.448088 0
M  V30 3185 C 307.529 -1.08136 -1.62991 0
M  V30 3186 O 308.735 -1.38135 -2.33733 0
M  V30 3187 C 307.191 -3.49753 -0.848585 0
M  V30 3188 C 306.799 -4.46935 0.308764 0
M  V30 3189 C 308.543 -3.9876 -1.4557 0
M  V30 3190 C 306.45 -5.91293 -0.112506 0
M  V30 3191 H 305.38 -0.734312 -0.171179 0
M  V30 3192 H 308.031 -1.81301 0.283242 0
M  V30 3193 H 306.413 -3.60604 -1.63649 0
M  V30 3194 H 307.587 -4.47813 1.08627 0
M  V30 3195 H 305.902 -4.08102 0.827158 0
M  V30 3196 H 308.499 -5.04086 -1.78328 0
M  V30 3197 H 308.842 -3.42875 -2.36099 0
M  V30 3198 H 309.375 -3.9101 -0.731836 0
M  V30 3199 H 306.114 -6.51097 0.758514 0
M  V30 3200 H 305.634 -5.93676 -0.854941 0
M  V30 3201 H 307.313 -6.44663 -0.549448 0
M  V30 3202 N 307.445 0.0818655 -1.57387 0
M  V30 3203 C 308.722 0.815343 -1.77796 0
M  V30 3204 C 309.102 1.96289 -0.77679 0
M  V30 3205 O 308.45 2.27691 0.192106 0
M  V30 3206 C 308.66 1.29765 -3.23978 0
M  V30 3207 C 310.008 1.7351 -3.8753 0
M  V30 3208 O 311.032 1.39356 -3.27808 0
M  V30 3209 O 309.891 2.36708 -4.92576 0
M  V30 3210 H 306.985 0.389914 -0.729312 0
M  V30 3211 H 309.531 0.0627213 -1.69584 0
M  V30 3212 H 308.303 0.47608 -3.88393 0
M  V30 3213 H 307.926 2.11189 -3.36875 0
M  V30 3214 N 308.923 1.53595 0.353017 0
M  V30 3215 C 310.172 1.69603 1.09168 0
M  V30 3216 C 310.485 0.460925 1.90092 0
M  V30 3217 O 311.691 0.501774 2.66823 0
M  V30 3218 C 310.147 2.99872 1.9901 0
M  V30 3219 C 309.755 4.30687 1.23339 0
M  V30 3220 C 311.499 3.25246 2.72792 0
M  V30 3221 C 309.406 5.52036 2.12156 0
M  V30 3222 H 308.336 0.631966 0.411261 0
M  V30 3223 H 310.987 1.80096 0.351802 0
M  V30 3224 H 309.369 2.83212 2.7678 0
M  V30 3225 H 310.543 4.58019 0.505456 0
M  V30 3226 H 308.858 4.11853 0.613663 0
M  V30 3227 H 311.455 4.13095 3.39495 0
M  V30 3228 H 311.798 2.41846 3.38846 0
M  V30 3229 H 312.331 3.42638 2.021 0
M  V30 3230 H 309.07 6.37951 1.50659 0
M  V30 3231 H 308.59 5.28966 2.82764 0
M  V30 3232 H 310.269 5.87313 2.71427 0
M  V30 3233 N 310.401 -0.613514 1.45168 0
M  V30 3234 C 311.678 -1.37263 1.39349 0
M  V30 3235 C 312.058 -2.11012 0.0610848 0
M  V30 3236 O 311.406 -2.07502 -0.956825 0
M  V30 3237 C 311.616 -2.3244 2.60332 0
M  V30 3238 C 312.964 -2.9523 3.05163 0
M  V30 3239 O 313.988 -2.42762 2.60663 0
M  V30 3240 O 312.847 -3.90454 3.82372 0
M  V30 3241 H 309.941 -0.615188 0.552696 0
M  V30 3242 H 312.487 -0.637097 1.57287 0
M  V30 3243 H 311.259 -1.77164 3.48896 0
M  V30 3244 H 310.882 -3.13383 2.44698 0
M  V30 3245 N 311.879 -1.3236 -0.855495 0
M  V30 3246 C 313.107 -1.2587 -1.64208 0
M  V30 3247 C 313.522 0.173457 -1.88002 0
M  V30 3248 O 312.879 1.11027 -1.44842 0
M  V30 3249 C 312.93 -2.01424 -3.00184 0
M  V30 3250 O 312.651 -3.39051 -2.77445 0
M  V30 3251 C 314.152 -2.01948 -3.94629 0
M  V30 3252 H 311.372 -0.434318 -0.511477 0
M  V30 3253 H 313.916 -1.74469 -1.0668 0
M  V30 3254 H 312.071 -1.56549 -3.5436 0
M  V30 3255 H 312.485 -3.77711 -3.63916 0
M  V30 3256 H 313.959 -2.59297 -4.87308 0
M  V30 3257 H 314.436 -1.00554 -4.27534 0
M  V30 3258 H 315.042 -2.46767 -3.4639 0
M  V30 3259 N 313.357 1.07166 -1.15556 0
M  V30 3260 C 314.267 2.17947 -0.868116 0
M  V30 3261 C 315.283 1.73297 0.156297 0
M  V30 3262 O 316.459 2.01392 -0.0182327 0
M  V30 3263 C 313.524 3.44789 -0.36355 0
M  V30 3264 C 312.585 4.03996 -1.45209 0
M  V30 3265 C 311.818 5.24783 -0.971508 0
M  V30 3266 O 312.041 5.70109 0.182194 0
M  V30 3267 O 310.975 5.75715 -1.75603 0
M  V30 3268 H 314.801 2.4503 -1.79427 0
M  V30 3269 H 312.386 1.16539 -0.934824 0
M  V30 3270 H 314.268 4.21307 -0.0887113 0
M  V30 3271 H 312.943 3.19253 0.534708 0
M  V30 3272 H 311.85 3.29009 -1.78056 0
M  V30 3273 H 313.183 4.33808 -2.32533 0
M  V30 3274 N 314.835 0.952656 1.25548 0
M  V30 3275 C 315.765 0.489287 2.28316 0
M  V30 3276 C 316.746 -0.463359 1.63667 0
M  V30 3277 O 317.931 -0.36274 1.90782 0
M  V30 3278 C 315.061 -0.235603 3.465 0
M  V30 3279 C 314.015 0.631593 4.23314 0
M  V30 3280 C 313.341 -0.223923 5.34231 0
M  V30 3281 C 314.641 1.90871 4.86174 0
M  V30 3282 H 316.335 1.34822 2.67326 0
M  V30 3283 H 313.881 0.649728 1.28509 0
M  V30 3284 H 315.834 -0.570882 4.17515 0
M  V30 3285 H 314.558 -1.12877 3.06474 0
M  V30 3286 H 313.217 0.949929 3.54079 0
M  V30 3287 H 312.865 -1.11678 4.90446 0
M  V30 3288 H 312.565 0.35299 5.86539 0
M  V30 3289 H 314.089 -0.554214 6.0808 0
M  V30 3290 H 315.503 1.63997 5.49343 0
M  V30 3291 H 313.9 2.43112 5.4865 0
M  V30 3292 H 314.97 2.61304 4.08471 0
M  V30 3293 N 316.313 -1.40141 0.720998 0
M  V30 3294 C 317.59 -1.94677 0.189757 0
M  V30 3295 C 317.97 -1.65879 -1.30566 0
M  V30 3296 O 317.318 -0.979391 -2.06447 0
M  V30 3297 C 317.528 -3.45279 0.508304 0
M  V30 3298 C 318.876 -4.22209 0.449934 0
M  V30 3299 O 319.9 -3.53413 0.444677 0
M  V30 3300 O 318.759 -5.44788 0.432189 0
M  V30 3301 H 315.853 -0.826459 0.0299026 0
M  V30 3302 H 318.399 -1.49719 0.7989 0
M  V30 3303 H 317.171 -3.59619 1.54239 0
M  V30 3304 H 316.794 -3.97386 -0.130525 0
M  V30 3305 N 317.792 -0.46758 -1.50504 0
M  V30 3306 C 318.722 0.318381 -2.31319 0
M  V30 3307 C 319.703 0.993564 -1.38066 0
M  V30 3308 O 320.888 0.991411 -1.66987 0
M  V30 3309 C 318.018 1.40275 -3.17711 0
M  V30 3310 C 316.972 0.849373 -4.19487 0
M  V30 3311 C 316.298 2.03177 -4.94594 0
M  V30 3312 C 317.598 -0.136942 -5.2212 0
M  V30 3313 H 319.292 -0.356106 -2.97275 0
M  V30 3314 H 316.838 -0.172703 -1.42961 0
M  V30 3315 H 318.791 1.96004 -3.73042 0
M  V30 3316 H 317.515 2.10596 -2.49634 0
M  V30 3317 H 316.174 0.314076 -3.65252 0
M  V30 3318 H 315.822 2.72187 -4.22993 0
M  V30 3319 H 315.522 1.66774 -5.63436 0
M  V30 3320 H 317.046 2.59403 -5.52759 0
M  V30 3321 H 318.46 0.331056 -5.72343 0
M  V30 3322 H 316.857 -0.41507 -5.98663 0
M  V30 3323 H 317.927 -1.06398 -4.73083 0
M  V30 3324 N 319.27 1.56325 -0.20005 0
M  V30 3325 C 320.202 2.16555 0.750771 0
M  V30 3326 C 321.215 1.12871 1.1732 0
M  V30 3327 O 322.404 1.39943 1.10807 0
M  V30 3328 C 319.504 2.71684 2.02586 0
M  V30 3329 C 318.677 4.00321 1.76244 0
M  V30 3330 C 317.736 4.40227 2.88248 0
M  V30 3331 O 316.762 5.07552 2.57642 0
M  V30 3332 N 317.964 4.04138 4.16717 0
M  V30 3333 H 320.729 2.98772 0.235685 0
M  V30 3334 H 318.29 1.6189 -0.0182594 0
M  V30 3335 H 320.282 2.95363 2.76664 0
M  V30 3336 H 318.852 1.93893 2.45202 0
M  V30 3337 H 318.072 3.84723 0.85919 0
M  V30 3338 H 319.36 4.84279 1.56048 0
M  V30 3339 H 318.758 3.49993 4.44434 0
M  V30 3340 H 317.315 4.32756 4.87407 0
M  V30 3341 N 320.748 -0.0735177 1.57428 0
M  V30 3342 C 321.68 -1.11423 2.00294 0
M  V30 3343 C 322.693 -1.35084 0.908637 0
M  V30 3344 O 323.882 -1.33355 1.18654 0
M  V30 3345 C 320.982 -2.46548 2.32523 0
M  V30 3346 C 320.155 -2.42867 3.63778 0
M  V30 3347 C 319.214 -3.60087 3.83697 0
M  V30 3348 O 318.24 -3.41595 4.55304 0
M  V30 3349 N 319.442 -4.80372 3.25919 0
M  V30 3350 H 322.207 -0.749206 2.90184 0
M  V30 3351 H 319.768 -0.262195 1.59763 0
M  V30 3352 H 321.76 -3.23607 2.43024 0
M  V30 3353 H 320.33 -2.75059 1.48531 0
M  V30 3354 H 319.55 -1.51206 3.64047 0
M  V30 3355 H 320.838 -2.37506 4.49965 0
M  V30 3356 H 320.236 -4.983 2.67795 0
M  V30 3357 H 318.793 -5.54948 3.41871 0
M  V30 3358 N 322.226 -1.5378 -0.344866 0
M  V30 3359 C 323.189 -1.80981 -1.40637 0
M  V30 3360 C 324.189 -0.680816 -1.45676 0
M  V30 3361 O 325.379 -0.949095 -1.46075 0
M  V30 3362 C 322.511 -1.95063 -2.79577 0
M  V30 3363 H 323.704 -2.75803 -1.17783 0
M  V30 3364 H 321.257 -1.45173 -0.579181 0
M  V30 3365 H 321.992 -1.02379 -3.07716 0
M  V30 3366 H 321.777 -2.77198 -2.77315 0
M  V30 3367 H 323.267 -2.17629 -3.56409 0
M  V30 3368 N 323.704 0.605807 -1.45491 0
M  V30 3369 C 324.614 1.74466 -1.56839 0
M  V30 3370 C 325.63 1.68006 -0.452772 0
M  V30 3371 O 326.806 1.8833 -0.713708 0
M  V30 3372 C 323.871 3.10931 -1.53371 0
M  V30 3373 C 322.932 3.28832 -2.75986 0
M  V30 3374 C 322.165 4.58787 -2.72673 0
M  V30 3375 O 322.388 5.4122 -1.80102 0
M  V30 3376 O 321.322 4.79438 -3.63899 0
M  V30 3377 H 325.148 1.67843 -2.53106 0
M  V30 3378 H 322.733 0.770108 -1.28022 0
M  V30 3379 H 324.615 3.92233 -1.54051 0
M  V30 3380 H 323.29 3.18042 -0.602572 0
M  V30 3381 H 322.197 2.47112 -2.80867 0
M  V30 3382 H 323.53 3.26599 -3.68231 0
M  V30 3383 N 325.182 1.32811 0.848464 0
M  V30 3384 C 326.13 1.22231 1.97895 0
M  V30 3385 C 327.124 0.125749 1.68933 0
M  V30 3386 O 328.33 0.289083 1.77663 0
M  V30 3387 H 324.705 0.379058 0.649476 0
M  V30 3388 H 326.676 2.17828 2.03945 0
M  V30 3389 C 325.425 0.968572 3.33937 0
M  V30 3390 H 324.748 1.80458 3.56756 0
M  V30 3391 H 326.188 0.934808 4.13567 0
M  V30 3392 C 324.647 -0.328628 3.35293 0
M  V30 3393 O 325.177 -1.33848 3.78745 0
M  V30 3394 N 323.383 -0.352788 2.88451 0
M  V30 3395 H 322.93 0.469541 2.53285 0
M  V30 3396 H 322.888 -1.22057 2.89741 0
M  V30 3397 N 326.66 -1.06551 1.16123 0
M  V30 3398 C 327.909 -1.78687 0.935622 0
M  V30 3399 C 328.222 -1.88056 -0.538001 0
M  V30 3400 O 329.428 -2.56794 -0.88143 0
M  V30 3401 C 327.884 -3.21143 1.62466 0
M  V30 3402 C 327.492 -3.19949 3.13587 0
M  V30 3403 C 329.236 -3.9783 1.48092 0
M  V30 3404 C 327.143 -4.57108 3.75241 0
M  V30 3405 H 326.073 -0.669712 0.346412 0
M  V30 3406 H 328.724 -1.19534 1.39226 0
M  V30 3407 H 327.106 -3.80539 1.09572 0
M  V30 3408 H 328.28 -2.70151 3.73303 0
M  V30 3409 H 326.595 -2.5676 3.27816 0
M  V30 3410 H 329.192 -4.99217 1.91538 0
M  V30 3411 H 329.535 -4.14078 0.429507 0
M  V30 3412 H 330.068 -3.4495 1.98127 0
M  V30 3413 H 326.807 -4.46065 4.80319 0
M  V30 3414 H 326.327 -5.07111 3.20309 0
M  V30 3415 H 328.006 -5.26069 3.76644 0
M  V30 3416 N 328.138 -0.959301 -1.25041 0
M  V30 3417 C 329.068 -0.501388 -2.28053 0
M  V30 3418 C 330.049 0.454673 -1.63911 0
M  V30 3419 O 331.234 0.352618 -1.90972 0
M  V30 3420 C 328.364 0.217224 -3.4662 0
M  V30 3421 C 327.318 -0.654034 -4.22973 0
M  V30 3422 C 326.644 0.195589 -5.34342 0
M  V30 3423 C 327.944 -1.93447 -4.85155 0
M  V30 3424 H 329.638 -1.36238 -2.66608 0
M  V30 3425 H 327.184 -0.656534 -1.28163 0
M  V30 3426 H 329.137 0.548732 -4.17812 0
M  V30 3427 H 327.861 1.1125 -3.07068 0
M  V30 3428 H 326.52 -0.968693 -3.5357 0
M  V30 3429 H 326.168 1.09076 -4.91031 0
M  V30 3430 H 325.868 -0.384091 -5.86343 0
M  V30 3431 H 327.392 0.521958 -6.08365 0
M  V30 3432 H 328.806 -1.66908 -5.48466 0
M  V30 3433 H 327.203 -2.46018 -5.47353 0
M  V30 3434 H 328.273 -2.63466 -4.07079 0
M  V30 3435 N 329.616 1.39756 -0.72842 0
M  V30 3436 C 330.564 2.32485 -0.0731849 0
M  V30 3437 C 331.558 1.52717 0.733063 0
M  V30 3438 O 332.764 1.68428 0.634988 0
M  V30 3439 H 329.139 0.751984 -0.00486469 0
M  V30 3440 H 331.11 2.85382 -0.871761 0
M  V30 3441 C 329.859 3.37773 0.824908 0
M  V30 3442 H 329.182 3.99227 0.213915 0
M  V30 3443 H 330.622 4.05121 1.25111 0
M  V30 3444 C 329.081 2.74287 1.95622 0
M  V30 3445 O 329.611 2.61618 3.04826 0
M  V30 3446 N 327.817 2.32475 1.74367 0
M  V30 3447 H 327.364 2.4298 0.855494 0
M  V30 3448 H 327.322 1.90337 2.50238 0
M  V30 3449 N 331.094 0.475555 1.50254 0
M  V30 3450 C 332.044 -0.335025 2.25525 0
M  V30 3451 C 333.028 -0.957625 1.29299 0
M  V30 3452 O 334.22 -0.869436 1.54175 0
M  V30 3453 C 331.349 -1.41385 3.12834 0
M  V30 3454 C 330.435 -0.798762 4.1651 0
M  V30 3455 N 330.826 0.0835815 5.05731 0
M  V30 3456 C 329.124 -1.06221 4.33166 0
M  V30 3457 C 329.825 0.433113 5.80085 0
M  V30 3458 N 328.801 -0.1928 5.43258 0
M  V30 3459 H 332.603 0.344612 2.91873 0
M  V30 3460 H 330.117 0.289986 1.5979 0
M  V30 3461 H 332.114 -2.00777 3.65368 0
M  V30 3462 H 330.774 -2.09543 2.48036 0
M  V30 3463 H 331.785 0.452715 5.15918 0
M  V30 3464 H 328.462 -1.73844 3.79585 0
M  V30 3465 H 329.852 1.15346 6.61925 0
M  V30 3466 N 332.573 -1.56217 0.208337 0
M  V30 3467 C 333.52 -2.19699 -0.707192 0
M  V30 3468 C 334.49 -1.14836 -1.20008 0
M  V30 3469 O 335.675 -1.4314 -1.26157 0
M  V30 3470 C 332.815 -2.87061 -1.91546 0
M  V30 3471 C 331.928 -4.06483 -1.46271 0
M  V30 3472 C 331.063 -4.61665 -2.62752 0
M  V30 3473 C 330.102 -5.73417 -2.14147 0
M  V30 3474 N 329.239 -6.22948 -3.23853 0
M  V30 3475 H 334.079 -2.97575 -0.159111 0
M  V30 3476 H 331.616 -1.46948 -0.0667874 0
M  V30 3477 H 333.574 -3.24294 -2.62468 0
M  V30 3478 H 332.204 -2.11725 -2.43664 0
M  V30 3479 H 331.256 -3.74825 -0.648886 0
M  V30 3480 H 332.568 -4.87271 -1.06622 0
M  V30 3481 H 331.722 -5.01272 -3.41776 0
M  V30 3482 H 330.461 -3.80013 -3.05682 0
M  V30 3483 H 329.466 -5.33326 -1.33581 0
M  V30 3484 H 330.691 -6.56897 -1.72232 0
M  V30 3485 H 328.637 -5.44213 -3.6629 0
M  V30 3486 H 328.554 -6.98823 -2.88414 0
M  V30 3487 H 329.822 -6.6721 -4.03052 0
M  V30 3488 N 334.051 0.0651679 -1.57465 0
M  V30 3489 C 334.961 1.09448 -2.07505 0
M  V30 3490 C 335.977 1.41974 -1.00595 0
M  V30 3491 O 337.153 1.52018 -1.32107 0
M  V30 3492 C 334.218 2.38689 -2.51453 0
M  V30 3493 C 333.279 2.13073 -3.72691 0
M  V30 3494 C 332.512 3.36152 -4.14533 0
M  V30 3495 O 332.735 4.45517 -3.56189 0
M  V30 3496 O 331.669 3.23974 -5.07272 0
M  V30 3497 H 335.495 0.69935 -2.95538 0
M  V30 3498 H 333.08 0.279752 -1.46757 0
M  V30 3499 H 334.962 3.14736 -2.80212 0
M  V30 3500 H 333.637 2.77568 -1.66546 0
M  V30 3501 H 332.544 1.34709 -3.49005 0
M  V30 3502 H 333.877 1.79071 -4.5847 0
M  V30 3503 N 335.529 1.53961 0.336706 0
M  V30 3504 C 336.754 1.75797 1.10046 0
M  V30 3505 C 337.179 0.498985 1.81361 0
M  V30 3506 O 336.537 -0.548769 1.72795 0
M  V30 3507 C 336.585 2.94257 2.08436 0
M  V30 3508 O 335.689 2.64883 3.16087 0
M  V30 3509 H 335.03 0.582936 0.317934 0
M  V30 3510 H 337.56 2.00945 0.38501 0
M  V30 3511 H 337.57 3.21237 2.51537 0
M  V30 3512 H 336.245 3.85564 1.55927 0
M  V30 3513 H 334.822 2.48812 2.77753 0
M  V30 3514 O 337.046 -0.482677 1.54118 0
M  V30 3515 H 337.737 -1.13727 1.56799 0
M  V30 END ATOM
M  V30 BEGIN BOND
M  V30 END BOND
M  V30 END CTAB
M  END
$$$$
