drugbank_target|A0A0E1R3H3 Penicillin-binding protein 3 (DB00485)
 OpenBabel12092121093D

  0  0  0     0  0            999 V3000
M  V30 BEGIN CTAB
M  V30 COUNTS 10599 10682 0 0 0
M  V30 BEGIN ATOM
M  V30 1 H -0.908 1.98254 -0.117106 0
M  V30 2 N 0 1.576 0 0
M  V30 3 C 0.933 2.03868 1.02534 0
M  V30 4 C 1.911 0.928543 1.3348 0
M  V30 5 O 3.095 1.19667 1.45644 0
M  V30 6 C 0.222 2.43627 2.35294 0
M  V30 7 C -0.732 3.65373 2.2001 0
M  V30 8 S 0.101 5.13292 1.52614 0
M  V30 9 C 1.257 5.56322 2.86805 0
M  V30 10 H 1.49 2.90518 0.631377 0
M  V30 11 H -0.977 1.52953 0.210867 0
M  V30 12 H 0.981 2.67203 3.11629 0
M  V30 13 H -0.358 1.57376 2.7183 0
M  V30 14 H -1.165 3.90944 3.18086 0
M  V30 15 H -1.563 3.418 1.51819 0
M  V30 16 H 0.729 5.58782 3.83104 0
M  V30 17 H 1.672 6.56266 2.65933 0
M  V30 18 H 2.08 4.83886 2.90714 0
M  V30 19 N 1.4781 -0.272755 1.55222 0
M  V30 20 C 2.4251 -1.33716 1.88119 0
M  V30 21 C 3.3951 -1.49066 0.73271 0
M  V30 22 O 4.5801 -1.63469 0.984002 0
M  V30 23 C 1.7201 -2.69238 2.15882 0
M  V30 24 C 0.8331 -2.62108 3.43399 0
M  V30 25 C -0.0319 -3.89811 3.60861 0
M  V30 26 C -0.9929 -3.77193 4.8207 0
M  V30 27 N -1.8559 -4.9673 4.96189 0
M  V30 28 H 2.9841 -1.04962 2.78903 0
M  V30 29 H 0.5211 -0.507088 1.38083 0
M  V30 30 H 2.4791 -3.48089 2.29978 0
M  V30 31 H 1.1091 -2.96194 1.28331 0
M  V30 32 H 0.1611 -1.74967 3.37773 0
M  V30 33 H 1.4731 -2.48685 4.32386 0
M  V30 34 H 0.6271 -4.77103 3.74777 0
M  V30 35 H -0.6339 -4.06102 2.7006 0
M  V30 36 H -1.6289 -2.88284 4.68159 0
M  V30 37 H -0.4039 -3.62421 5.74307 0
M  V30 38 H -2.4579 -5.13431 4.08319 0
M  V30 39 H -2.5409 -4.85839 5.79221 0
M  V30 40 H -1.2729 -5.85594 5.1449 0
M  V30 41 N 2.9562 -1.48159 -0.537278 0
M  V30 42 C 4.2042 -1.55497 -1.29094 0
M  V30 43 C 4.5252 -0.227454 -1.93669 0
M  V30 44 O 3.7952 0.750386 -1.80959 0
M  V30 45 H 2.3752 -0.572832 -0.47945 0
M  V30 46 H 5.0372 -1.84579 -0.625818 0
M  V30 47 H 4.1332 -2.33216 -2.07405 0
M  V30 48 N 4.4343 0.785586 -1.36625 0
M  V30 49 C 5.6743 1.55678 -1.32453 0
M  V30 50 C 6.0383 1.91769 0.0941089 0
M  V30 51 O 7.2393 2.67536 0.26042 0
M  V30 52 C 5.5103 2.79701 -2.22491 0
M  V30 53 S 7.0693 3.69907 -2.36038 0
M  V30 54 H 3.8873 0.533141 -0.470405 0
M  V30 55 H 6.4893 0.924953 -1.72235 0
M  V30 56 H 5.1933 2.51244 -3.24507 0
M  V30 57 H 4.7243 3.47854 -1.83742 0
M  V30 58 H 6.7393 4.71016 -1.56072 0
M  V30 59 N 5.9124 1.20967 1.01018 0
M  V30 60 C 7.1614 1.01796 1.74128 0
M  V30 61 C 7.4744 -0.449691 1.90361 0
M  V30 62 O 8.6804 -0.76068 2.60626 0
M  V30 63 C 7.1364 1.7727 3.13215 0
M  V30 64 C 6.7444 3.28171 3.04972 0
M  V30 65 C 8.4884 1.66489 3.90489 0
M  V30 66 C 6.3954 3.96156 4.39107 0
M  V30 67 H 5.3254 0.377276 0.652824 0
M  V30 68 H 7.9764 1.44651 1.12909 0
M  V30 69 H 6.3584 1.27205 3.75013 0
M  V30 70 H 7.5324 3.85499 2.52443 0
M  V30 71 H 5.8474 3.39437 2.41188 0
M  V30 72 H 8.4444 2.14617 4.89738 0
M  V30 73 H 8.7874 0.6222 4.11624 0
M  V30 74 H 9.3204 2.14003 3.35332 0
M  V30 75 H 6.0594 5.00604 4.23174 0
M  V30 76 H 5.5794 3.43617 4.91617 0
M  V30 77 H 7.2584 4.00774 5.07926 0
M  V30 78 N 7.3905 -1.2043 1.01659 0
M  V30 79 C 8.3235 -2.21924 0.531521 0
M  V30 80 C 9.3015 -1.57054 -0.421032 0
M  V30 81 O 10.4855 -1.85389 -0.341035 0
M  V30 82 C 7.6125 -3.37942 -0.226496 0
M  V30 83 C 6.6585 -4.21115 0.67561 0
M  V30 84 S 7.4915 -4.90674 2.14475 0
M  V30 85 C 8.6475 -6.10113 1.3969 0
M  V30 86 H 8.8805 -2.62725 1.3915 0
M  V30 87 H 6.4135 -1.30481 0.825479 0
M  V30 88 H 8.3715 -4.05196 -0.657738 0
M  V30 89 H 7.0325 -2.956 -1.06205 0
M  V30 90 H 6.2255 -5.03918 0.091108 0
M  V30 91 H 5.8275 -3.59115 1.04463 0
M  V30 92 H 8.1195 -6.7411 0.676897 0
M  V30 93 H 9.0625 -6.73022 2.20107 0
M  V30 94 H 9.4705 -5.57283 0.899786 0
M  V30 95 N 8.8686 -0.792821 -1.36206 0
M  V30 96 C 9.8316 -0.199459 -2.2833 0
M  V30 97 C 10.8316 0.605189 -1.48977 0
M  V30 98 O 12.0216 0.425685 -1.68919 0
M  V30 99 C 9.1536 0.723523 -3.33134 0
M  V30 100 H 10.3466 -1.01181 -2.82316 0
M  V30 101 H 7.8996 -0.562485 -1.45828 0
M  V30 102 H 8.6346 1.56008 -2.84309 0
M  V30 103 H 8.4196 0.148436 -3.91819 0
M  V30 104 H 9.9096 1.13344 -4.01924 0
M  V30 105 N 10.3467 1.47872 -0.545128 0
M  V30 106 C 11.5717 2.07391 -0.0190611 0
M  V30 107 C 11.9967 1.39688 1.25971 0
M  V30 108 O 11.3547 0.467816 1.7516 0
M  V30 109 C 11.4027 3.60188 0.172335 0
M  V30 110 O 10.5067 3.9339 1.23766 0
M  V30 111 H 9.8477 0.662411 -0.0459059 0
M  V30 112 H 12.3777 1.90066 -0.757365 0
M  V30 113 H 12.3877 4.06129 0.390305 0
M  V30 114 H 11.0627 4.08865 -0.761725 0
M  V30 115 H 9.6397 3.5921 1.00114 0
M  V30 116 N 11.8248 0.280983 1.55075 0
M  V30 117 C 13.0548 -0.336804 2.03836 0
M  V30 118 C 13.4628 -1.49577 1.15859 0
M  V30 119 O 12.8058 -1.82888 0.172503 0
M  V30 120 C 12.8678 -0.874616 3.48699 0
M  V30 121 C 12.5318 0.156478 4.56732 0
M  V30 122 C 13.5288 0.978032 5.10618 0
M  V30 123 C 11.2138 0.292409 5.01448 0
M  V30 124 C 13.2078 1.92165 6.07743 0
M  V30 125 C 10.8948 1.23949 5.98398 0
M  V30 126 C 11.8928 2.05261 6.51427 0
M  V30 127 O 11.5808 2.98367 7.4648 0
M  V30 128 H 11.3128 -0.0800885 0.671239 0
M  V30 129 H 13.8668 0.412589 2.01213 0
M  V30 130 H 12.0968 -1.67418 3.4858 0
M  V30 131 H 13.7858 -1.40612 3.80766 0
M  V30 132 H 14.5518 0.883782 4.7688 0
M  V30 133 H 10.4308 -0.330498 4.59814 0
M  V30 134 H 13.9748 2.55672 6.49059 0
M  V30 135 H 9.8718 1.33454 6.31554 0
M  V30 136 H 10.6398 2.93116 7.64215 0
M  V30 137 N 13.3029 -1.57598 0.00835791 0
M  V30 138 C 14.5509 -1.90551 -0.6734 0
M  V30 139 C 14.8719 -0.883301 -1.73847 0
M  V30 140 O 14.1419 0.0781442 -1.95744 0
M  V30 141 H 12.7219 -0.703312 -0.251717 0
M  V30 142 H 15.3839 -1.94833 0.0512592 0
M  V30 143 H 14.4799 -2.9056 -1.13935 0
M  V30 144 N 14.781 0.264519 -1.55364 0
M  V30 145 C 16.029 0.993021 -1.76021 0
M  V30 146 C 16.35 1.86511 -0.569099 0
M  V30 147 O 15.62 1.91438 0.415735 0
M  V30 148 H 14.2 0.369639 -0.649135 0
M  V30 149 H 16.862 0.286707 -1.9278 0
M  V30 150 H 15.958 1.62502 -2.66457 0
M  V30 151 N 16.2591 1.48442 0.529413 0
M  V30 152 C 17.2061 1.63007 1.63394 0
M  V30 153 C 18.1761 0.47212 1.59249 0
M  V30 154 O 19.3611 0.695673 1.77666 0
M  V30 155 C 16.5011 1.6763 3.01653 0
M  V30 156 C 15.6141 2.94535 3.16027 0
M  V30 157 C 14.7491 2.90316 4.44849 0
M  V30 158 C 13.7881 4.11923 4.52754 0
M  V30 159 N 12.9251 4.05777 5.72965 0
M  V30 160 H 17.7651 2.5733 1.50285 0
M  V30 161 H 15.3021 1.27613 0.731656 0
M  V30 162 H 17.2601 1.68292 3.81751 0
M  V30 163 H 15.8901 0.76797 3.13532 0
M  V30 164 H 14.9421 3.03615 2.29177 0
M  V30 165 H 16.2541 3.84512 3.17729 0
M  V30 166 H 15.4081 2.89382 5.33238 0
M  V30 167 H 14.1471 1.98068 4.45668 0
M  V30 168 H 13.1521 4.13131 3.62771 0
M  V30 169 H 14.3771 5.0533 4.53672 0
M  V30 170 H 12.3231 3.16351 5.74681 0
M  V30 171 H 12.2401 4.8946 5.76164 0
M  V30 172 H 13.5081 4.08904 6.6364 0
M  V30 173 N 17.7372 -0.778329 1.37039 0
M  V30 174 C 18.6842 -1.89139 1.32269 0
M  V30 175 C 19.6542 -1.65017 0.189387 0
M  V30 176 O 20.8392 -1.87024 0.377693 0
M  V30 177 C 17.9792 -3.26112 1.12894 0
M  V30 178 C 17.0922 -3.62233 2.35396 0
M  V30 179 C 16.2272 -4.8838 2.08946 0
M  V30 180 C 15.2662 -5.17212 3.2735 0
M  V30 181 N 14.4032 -6.34546 3.00492 0
M  V30 182 H 19.2432 -1.92552 2.27437 0
M  V30 183 H 16.7802 -0.941473 1.13025 0
M  V30 184 H 18.7382 -4.05116 0.996835 0
M  V30 185 H 17.3682 -3.22091 0.213758 0
M  V30 186 H 16.4202 -2.78265 2.5937 0
M  V30 187 H 17.7322 -3.79481 3.23721 0
M  V30 188 H 16.8862 -5.75274 1.92729 0
M  V30 189 H 15.6252 -4.73222 1.17949 0
M  V30 190 H 14.6302 -4.28796 3.44113 0
M  V30 191 H 15.8552 -5.34283 4.19188 0
M  V30 192 H 13.8012 -6.20759 2.12118 0
M  V30 193 H 13.7182 -6.52179 3.82358 0
M  V30 194 H 14.9862 -7.24394 2.87879 0
M  V30 195 N 19.2153 -1.21501 -1.00376 0
M  V30 196 C 20.6313 -0.972629 -1.26539 0
M  V30 197 C 20.8313 0.340257 -1.98606 0
M  V30 198 O 19.8873 1.06561 -2.28913 0
M  V30 199 C 21.2003 -2.16404 -2.08781 0
M  V30 200 C 22.7483 -2.20643 -2.22004 0
M  V30 201 C 23.2233 -3.39306 -3.07629 0
M  V30 202 N 24.7143 -3.39401 -3.15217 0
M  V30 203 C 25.4493 -4.27867 -3.81729 0
M  V30 204 N 24.9453 -5.26533 -4.5026 0
M  V30 205 N 26.7383 -4.15672 -3.78382 0
M  V30 206 H 18.8893 -2.05929 -0.520281 0
M  V30 207 H 21.1523 -0.901803 -0.292328 0
M  V30 208 H 20.8583 -3.11554 -1.63178 0
M  V30 209 H 20.7323 -2.15567 -3.09533 0
M  V30 210 H 23.1193 -1.26048 -2.66825 0
M  V30 211 H 23.2003 -2.25523 -1.20718 0
M  V30 212 H 22.8443 -4.34195 -2.63509 0
M  V30 213 H 22.7743 -3.31665 -4.09031 0
M  V30 214 H 25.2653 -2.67997 -2.66432 0
M  V30 215 H 25.5783 -5.90337 -4.98721 0
M  V30 216 H 23.9233 -5.30457 -4.49044 0
M  V30 217 H 27.1143 -3.3785 -3.23998 0
M  V30 218 H 27.2873 -4.84825 -4.2994 0
M  V30 219 N 20.6934 1.19889 -1.02296 0
M  V30 220 C 21.6414 2.24938 -0.592081 0
M  V30 221 C 22.6354 1.65257 0.372357 0
M  V30 222 O 23.8414 1.78371 0.241583 0
M  V30 223 H 20.2164 0.731787 -0.173182 0
M  V30 224 H 22.1874 2.58603 -1.48885 0
M  V30 225 C 20.9364 3.47668 0.047351 0
M  V30 226 H 20.2594 3.93875 -0.685772 0
M  V30 227 H 21.6994 4.22852 0.311862 0
M  V30 228 C 20.1584 3.11136 1.29212 0
M  V30 229 O 20.6884 3.2325 2.38479 0
M  V30 230 N 18.8944 2.65625 1.17863 0
M  V30 231 H 18.4414 2.55968 0.289493 0
M  V30 232 H 18.3994 2.41553 2.01245 0
M  V30 233 N 22.1715 0.800033 1.35784 0
M  V30 234 C 23.1195 0.193851 2.31791 0
M  V30 235 C 24.1135 -0.652744 1.56319 0
M  V30 236 O 25.3195 -0.546641 1.71499 0
M  V30 237 H 21.6945 0.04392 0.750716 0
M  V30 238 H 23.6655 1.01883 2.80468 0
M  V30 239 C 22.4145 -0.648338 3.41602 0
M  V30 240 H 21.7375 -0.00624665 3.998 0
M  V30 241 H 23.1775 -1.03898 4.11073 0
M  V30 242 C 21.6365 -1.8111 2.84079 0
M  V30 243 O 22.1665 -2.90825 2.77099 0
M  V30 244 N 20.3725 -1.62056 2.41218 0
M  V30 245 H 19.9195 -0.728123 2.47095 0
M  V30 246 H 19.8775 -2.40013 2.03079 0
M  V30 247 N 23.6496 -1.47581 0.552962 0
M  V30 248 C 24.5966 -2.29957 -0.197108 0
M  V30 249 C 25.5666 -1.38799 -0.912359 0
M  V30 250 O 26.7516 -1.67761 -0.908888 0
M  V30 251 C 23.8916 -3.22672 -1.22379 0
M  V30 252 C 23.0046 -4.28919 -0.515038 0
M  V30 253 C 22.1396 -5.0879 -1.52664 0
M  V30 254 C 21.1786 -6.06815 -0.802631 0
M  V30 255 N 20.3156 -6.7966 -1.76086 0
M  V30 256 H 25.1556 -2.93578 0.511486 0
M  V30 257 H 22.6926 -1.4471 0.264067 0
M  V30 258 H 24.6506 -3.74845 -1.83159 0
M  V30 259 H 23.2806 -2.60925 -1.90047 0
M  V30 260 H 22.3326 -3.79835 0.207192 0
M  V30 261 H 23.6446 -4.98773 0.0523425 0
M  V30 262 H 22.7986 -5.65091 -2.20809 0
M  V30 263 H 21.5376 -4.38828 -2.12794 0
M  V30 264 H 20.5426 -5.49695 -0.107238 0
M  V30 265 H 21.7676 -6.78784 -0.207135 0
M  V30 266 H 19.7136 -6.12432 -2.35081 0
M  V30 267 H 19.6306 -7.45669 -1.24552 0
M  V30 268 H 20.8986 -7.40538 -2.43359 0
M  V30 269 N 25.1277 -0.289203 -1.54924 0
M  V30 270 C 26.0747 0.592115 -2.23075 0
M  V30 271 C 27.0447 1.13881 -1.20915 0
M  V30 272 O 28.2297 1.18551 -1.495 0
M  V30 273 C 25.3697 1.76376 -2.96623 0
M  V30 274 C 24.4827 1.24959 -4.13533 0
M  V30 275 C 23.6177 2.38416 -4.74691 0
M  V30 276 C 22.6567 1.84072 -5.83767 0
M  V30 277 N 21.7937 2.91057 -6.38929 0
M  V30 278 H 26.6337 0.00432038 -2.98 0
M  V30 279 H 24.1707 -0.00963529 -1.47097 0
M  V30 280 H 26.1287 2.45268 -3.3749 0
M  V30 281 H 24.7587 2.32337 -2.24097 0
M  V30 282 H 23.8107 0.453307 -3.77689 0
M  V30 283 H 25.1227 0.811662 -4.92152 0
M  V30 284 H 24.2767 3.15276 -5.18349 0
M  V30 285 H 23.0157 2.8553 -3.95378 0
M  V30 286 H 22.0207 1.05697 -5.39545 0
M  V30 287 H 23.2457 1.37877 -6.64956 0
M  V30 288 H 21.1917 3.37526 -5.62505 0
M  V30 289 H 21.1087 2.51724 -7.12861 0
M  V30 290 H 22.3767 3.6785 -6.87246 0
M  V30 291 N 26.6058 1.57591 -0.0167156 0
M  V30 292 C 27.5688 2.08393 0.954204 0
M  V30 293 C 28.5688 0.996531 1.26198 0
M  V30 294 O 29.7588 1.25858 1.20438 0
M  V30 295 C 26.8908 2.5394 2.27436 0
M  V30 296 H 28.0838 2.95455 0.514451 0
M  V30 297 H 25.6368 1.54582 0.231089 0
M  V30 298 H 26.3718 1.70171 2.76066 0
M  V30 299 H 26.1568 3.33371 2.06412 0
M  V30 300 H 27.6468 2.93512 2.97053 0
M  V30 301 N 28.0839 -0.256276 1.55502 0
M  V30 302 C 29.3329 -0.983486 1.76098 0
M  V30 303 C 29.6459 -1.86837 0.578896 0
M  V30 304 O 30.8519 -2.63163 0.667648 0
M  V30 305 C 29.3079 -1.79868 3.1173 0
M  V30 306 C 28.9159 -0.961648 4.37557 0
M  V30 307 C 30.6599 -2.51919 3.41668 0
M  V30 308 C 28.5669 -1.77219 5.64223 0
M  V30 309 H 27.4969 -0.370936 0.656447 0
M  V30 310 H 30.1479 -0.238492 1.81944 0
M  V30 311 H 28.5299 -2.58527 2.99966 0
M  V30 312 H 29.7039 -0.218048 4.60284 0
M  V30 313 H 28.0189 -0.354913 4.14885 0
M  V30 314 H 30.6159 -3.12998 4.33516 0
M  V30 315 H 30.9589 -3.23059 2.62562 0
M  V30 316 H 31.4919 -1.80278 3.54605 0
M  V30 317 H 28.2309 -1.10471 6.46124 0
M  V30 318 H 27.7509 -2.49132 5.45613 0
M  V30 319 H 29.4299 -2.34169 6.03137 0
M  V30 320 N 29.562 -1.4872 -0.521534 0
M  V30 321 C 30.811 -1.56419 -1.27341 0
M  V30 322 C 31.124 -0.246805 -1.94037 0
M  V30 323 O 32.33 -0.202122 -2.70747 0
M  V30 324 C 30.786 -2.75896 -2.31105 0
M  V30 325 C 30.394 -4.14311 -1.70441 0
M  V30 326 C 32.138 -2.92913 -3.07249 0
M  V30 327 C 30.045 -5.25038 -2.72194 0
M  V30 328 H 28.975 -0.582344 -0.478949 0
M  V30 329 H 31.626 -1.75071 -0.549779 0
M  V30 330 H 30.008 -2.50697 -3.06541 0
M  V30 331 H 31.182 -4.49564 -1.01136 0
M  V30 332 H 29.497 -4.02482 -1.06759 0
M  V30 333 H 32.094 -3.72805 -3.83302 0
M  V30 334 H 32.437 -2.02689 -3.63625 0
M  V30 335 H 32.97 -3.18054 -2.38928 0
M  V30 336 H 29.709 -6.17255 -2.20627 0
M  V30 337 H 29.229 -4.94263 -3.39801 0
M  V30 338 H 30.908 -5.53508 -3.35019 0
M  V30 339 N 31.0401 0.771051 -1.3745 0
M  V30 340 C 32.2891 1.52491 -1.3202 0
M  V30 341 C 32.6021 1.9538 0.0927347 0
M  V30 342 O 33.8081 2.70159 0.269503 0
M  V30 343 C 32.2641 2.75366 -2.31736 0
M  V30 344 C 31.8721 2.39573 -3.78562 0
M  V30 345 C 33.6161 3.53307 -2.35318 0
M  V30 346 C 31.5231 3.58954 -4.70007 0
M  V30 347 H 30.4531 0.572506 -0.490666 0
M  V30 348 H 33.1041 0.844474 -1.62914 0
M  V30 349 H 31.4861 3.45303 -1.93861 0
M  V30 350 H 32.6601 1.77415 -4.25277 0
M  V30 351 H 30.9751 1.74805 -3.77932 0
M  V30 352 H 33.5721 4.42039 -3.00842 0
M  V30 353 H 33.9151 3.93217 -1.36698 0
M  V30 354 H 34.4481 2.90367 -2.71904 0
M  V30 355 H 31.1871 3.24125 -5.69757 0
M  V30 356 H 30.7071 4.20214 -4.27996 0
M  V30 357 H 32.3861 4.25758 -4.87175 0
M  V30 358 N 32.5182 1.22032 0.997298 0
M  V30 359 C 33.7662 1.04016 1.73278 0
M  V30 360 C 34.0872 -0.426255 1.90284 0
M  V30 361 O 33.3572 -1.30694 1.45931 0
M  V30 362 H 31.9372 0.381897 0.642 0
M  V30 363 H 34.5992 1.5347 1.20137 0
M  V30 364 H 33.6952 1.51441 2.72896 0
M  V30 365 N 33.9963 -1.19345 1.0293 0
M  V30 366 C 35.2213 -1.93538 0.745511 0
M  V30 367 C 35.6463 -1.75007 -0.689511 0
M  V30 368 O 35.0043 -1.05265 -1.47611 0
M  V30 369 C 35.0523 -3.43336 1.10239 0
M  V30 370 O 34.1563 -4.11806 0.221289 0
M  V30 371 H 33.4973 -0.604193 0.275404 0
M  V30 372 H 36.0273 -1.5141 1.37609 0
M  V30 373 H 36.0373 -3.94004 1.05947 0
M  V30 374 H 34.7123 -3.56146 2.14786 0
M  V30 375 H 33.2893 -3.715 0.322842 0
M  V30 376 N 35.4744 -0.807222 -1.35358 0
M  V30 377 C 36.7234 -0.384376 -1.98004 0
M  V30 378 C 37.0364 1.0543 -1.64754 0
M  V30 379 O 38.2424 1.58029 -2.20769 0
M  V30 380 C 36.6984 -0.636326 -3.5423 0
M  V30 381 C 36.3064 -2.08759 -3.96388 0
M  V30 382 C 38.0504 -0.278869 -4.23583 0
M  V30 383 C 35.9574 -2.28525 -5.45463 0
M  V30 384 H 34.8874 -0.139986 -0.740891 0
M  V30 385 H 37.5384 -0.991369 -1.54415 0
M  V30 386 H 35.9204 0.0406256 -3.95979 0
M  V30 387 H 37.0944 -2.8024 -3.6579 0
M  V30 388 H 35.4094 -2.40497 -3.39926 0
M  V30 389 H 38.0064 -0.404599 -5.33167 0
M  V30 390 H 38.3494 0.775012 -4.09022 0
M  V30 391 H 38.8824 -0.909764 -3.87257 0
M  V30 392 H 35.6214 -3.32361 -5.64992 0
M  V30 393 H 35.1414 -1.61569 -5.77629 0
M  V30 394 H 36.8204 -2.10109 -6.11934 0
M  V30 395 N 36.9525 1.47285 -0.560781 0
M  V30 396 C 37.9155 2.28535 0.174488 0
M  V30 397 C 38.9155 1.37153 0.839388 0
M  V30 398 O 40.1055 1.59748 0.694702 0
M  V30 399 C 37.2375 3.16934 1.25561 0
M  V30 400 H 38.4305 2.95012 -0.539262 0
M  V30 401 H 35.9835 1.53034 -0.317865 0
M  V30 402 H 36.7185 2.55157 2.00164 0
M  V30 403 H 36.5035 3.8419 0.783604 0
M  V30 404 H 37.9935 3.78143 1.77193 0
M  V30 405 N 38.4306 0.297415 1.54768 0
M  V30 406 C 39.3936 -0.567375 2.22066 0
M  V30 407 C 40.3936 -1.06409 1.20556 0
M  V30 408 O 41.5836 -0.960691 1.45315 0
M  V30 409 C 38.7156 -1.78517 2.90421 0
M  V30 410 H 39.9086 0.0205534 2.99893 0
M  V30 411 H 37.4616 0.0482163 1.56226 0
M  V30 412 H 38.1966 -2.41303 2.16664 0
M  V30 413 H 37.9816 -1.43669 3.64831 0
M  V30 414 H 39.4716 -2.39964 3.41771 0
M  V30 415 N 39.9087 -1.5758 0.0250728 0
M  V30 416 C 41.1547 -1.91917 -0.655413 0
M  V30 417 C 41.4877 -0.901433 -1.72011 0
M  V30 418 O 40.7627 0.0764069 -1.9435 0
M  V30 419 C 41.0457 -3.36751 -1.27558 0
M  V30 420 C 40.8987 -4.49258 -0.220719 0
M  V30 421 C 42.2177 -3.81469 -2.19475 0
M  V30 422 H 39.3367 -0.697925 -0.23679 0
M  V30 423 H 41.9787 -1.89825 0.0815036 0
M  V30 424 H 40.1287 -3.38664 -1.90365 0
M  V30 425 H 41.8007 -4.59478 0.409601 0
M  V30 426 H 40.0437 -4.31415 0.454264 0
M  V30 427 H 40.7147 -5.47618 -0.694175 0
M  V30 428 H 43.1907 -3.81266 -1.66659 0
M  V30 429 H 42.0667 -4.83512 -2.59822 0
M  V30 430 H 42.3277 -3.16744 -3.08424 0
M  V30 431 N 41.3868 0.248026 -1.55636 0
M  V30 432 C 42.3498 1.29044 -1.89421 0
M  V30 433 C 43.3498 1.41134 -0.770581 0
M  V30 434 O 44.5398 1.39854 -1.03858 0
M  V30 435 C 41.6718 2.66831 -2.12165 0
M  V30 436 H 42.8648 1.00305 -2.82629 0
M  V30 437 H 40.4178 0.487265 -1.48511 0
M  V30 438 H 41.1528 3.00711 -1.21422 0
M  V30 439 H 40.9378 2.59438 -2.93997 0
M  V30 440 H 42.4278 3.42103 -2.3949 0
M  V30 441 N 42.8649 1.48995 0.513639 0
M  V30 442 C 44.1109 1.58076 1.27042 0
M  V30 443 C 44.4439 0.261026 1.92438 0
M  V30 444 O 43.7189 -0.734393 1.80103 0
M  V30 445 C 44.0019 2.73091 2.34719 0
M  V30 446 C 43.8549 4.14821 1.73907 0
M  V30 447 C 45.1739 2.83796 3.36375 0
M  V30 448 H 42.2929 0.575391 0.460536 0
M  V30 449 H 44.9349 1.81232 0.570516 0
M  V30 450 H 43.0849 2.53479 2.94416 0
M  V30 451 H 44.7569 4.45917 1.18135 0
M  V30 452 H 42.9999 4.21058 1.0437 0
M  V30 453 H 43.6709 4.91147 2.51949 0
M  V30 454 H 46.1469 3.01611 2.86653 0
M  V30 455 H 45.0229 3.65971 4.09093 0
M  V30 456 H 45.2839 1.92624 3.9793 0
M  V30 457 N 44.343 -0.763751 1.37857 0
M  V30 458 C 45.273 -1.89103 1.36975 0
M  V30 459 C 46.254 -1.68439 0.237152 0
M  V30 460 O 47.439 -1.8918 0.438713 0
M  V30 461 C 44.569 -3.26496 1.18395 0
M  V30 462 C 43.523 -3.61741 2.28751 0
M  V30 463 C 42.849 -4.97762 1.95286 0
M  V30 464 C 44.149 -3.67665 3.70972 0
M  V30 465 H 45.843 -1.90099 2.31307 0
M  V30 466 H 43.389 -0.91319 1.11341 0
M  V30 467 H 45.342 -4.05003 1.16406 0
M  V30 468 H 44.066 -3.25955 0.205215 0
M  V30 469 H 42.725 -2.85547 2.29909 0
M  V30 470 H 42.373 -4.93769 0.959221 0
M  V30 471 H 42.073 -5.22313 2.69189 0
M  V30 472 H 43.597 -5.7866 1.94898 0
M  V30 473 H 45.011 -4.36307 3.719 0
M  V30 474 H 43.408 -4.03718 4.43995 0
M  V30 475 H 44.478 -2.68134 4.0402 0
M  V30 476 N 45.8211 -1.22559 -0.990812 0
M  V30 477 C 46.7841 -0.998863 -2.0629 0
M  V30 478 C 47.7841 0.0354834 -1.60761 0
M  V30 479 O 48.9741 -0.203231 -1.7301 0
M  V30 480 C 46.1061 -0.509203 -3.37076 0
M  V30 481 H 47.2991 -1.95014 -2.27837 0
M  V30 482 H 44.8521 -1.04456 -1.16269 0
M  V30 483 H 45.5871 0.446335 -3.21214 0
M  V30 484 H 45.3721 -1.25547 -3.71457 0
M  V30 485 H 46.8621 -0.370888 -4.1595 0
M  V30 486 N 47.2992 1.18797 -1.03562 0
M  V30 487 C 48.5472 1.88278 -0.734569 0
M  V30 488 C 48.8682 1.8043 0.739586 0
M  V30 489 O 48.1382 1.21925 1.53333 0
M  V30 490 H 46.7182 0.696991 -0.268725 0
M  V30 491 H 49.3802 1.44192 -1.31129 0
M  V30 492 H 48.4762 2.94443 -1.03489 0
M  V30 493 N 48.7773 0.814389 1.34928 0
M  V30 494 C 50.0263 0.394871 1.97797 0
M  V30 495 C 50.3393 -1.04555 1.65311 0
M  V30 496 O 51.5453 -1.56856 2.21604 0
M  V30 497 C 50.0013 0.655103 3.53888 0
M  V30 498 C 49.6093 2.10858 3.95276 0
M  V30 499 C 51.3533 0.301329 4.23429 0
M  V30 500 C 49.2603 2.31415 5.44244 0
M  V30 501 H 48.1903 0.143913 0.740139 0
M  V30 502 H 50.8413 0.999544 1.53888 0
M  V30 503 H 49.2233 -0.0196253 3.95995 0
M  V30 504 H 50.3973 2.82176 3.64298 0
M  V30 505 H 48.7123 2.42297 3.38646 0
M  V30 506 H 51.3093 0.432869 5.32945 0
M  V30 507 H 51.6523 -0.75331 4.09428 0
M  V30 508 H 52.1853 0.930288 3.86769 0
M  V30 509 H 48.9243 3.35353 5.63222 0
M  V30 510 H 48.4443 1.6463 5.76764 0
M  V30 511 H 50.1233 2.13352 6.10811 0
M  V30 512 N 50.2554 -1.46986 0.568584 0
M  V30 513 C 51.2184 -2.28624 -0.162366 0
M  V30 514 C 52.2184 -1.37596 -0.832103 0
M  V30 515 O 53.4084 -1.60115 -0.68622 0
M  V30 516 C 50.5404 -3.17596 -1.23878 0
M  V30 517 H 51.7334 -2.94722 0.554899 0
M  V30 518 H 49.2864 -1.52863 0.325976 0
M  V30 519 H 50.0214 -2.56214 -1.98808 0
M  V30 520 H 49.8064 -3.846 -0.763219 0
M  V30 521 H 51.2964 -3.79078 -1.75185 0
M  V30 522 N 51.7335 -0.305618 -1.54608 0
M  V30 523 C 52.9825 0.303098 -1.9941 0
M  V30 524 C 53.2955 1.54648 -1.19764 0
M  V30 525 O 54.5015 2.23007 -1.54855 0
M  V30 526 C 52.9575 0.590588 -3.55021 0
M  V30 527 C 52.5655 -0.634719 -4.43481 0
M  V30 528 C 54.3095 1.16025 -4.08336 0
M  V30 529 C 52.2165 -0.320126 -5.90533 0
M  V30 530 H 51.1465 0.117031 -0.744862 0
M  V30 531 H 53.7975 -0.415045 -1.78745 0
M  V30 532 H 52.1795 1.36845 -3.71604 0
M  V30 533 H 53.3535 -1.41079 -4.38672 0
M  V30 534 H 51.6685 -1.12333 -4.00962 0
M  V30 535 H 54.2655 1.40994 -5.15776 0
M  V30 536 H 54.6085 2.10397 -3.5922 0
M  V30 537 H 55.1415 0.443985 -3.95315 0
M  V30 538 H 51.8805 -1.23254 -6.43808 0
M  V30 539 H 51.4005 0.418579 -5.98338 0
M  V30 540 H 53.0795 0.0766241 -6.46955 0
M  V30 541 N 53.2116 1.57565 -0.0334293 0
M  V30 542 C 54.4416 1.95996 0.653398 0
M  V30 543 C 54.8496 0.908749 1.65947 0
M  V30 544 O 54.1926 -0.117471 1.83324 0
M  V30 545 C 54.2546 3.30589 1.41249 0
M  V30 546 C 53.9186 4.53503 0.564263 0
M  V30 547 C 54.9156 5.19647 -0.16225 0
M  V30 548 C 52.6006 4.99801 0.500398 0
M  V30 549 C 54.5946 6.30412 -0.941255 0
M  V30 550 C 52.2816 6.10448 -0.282308 0
M  V30 551 C 53.2796 6.75612 -1.00184 0
M  V30 552 O 52.9676 7.84134 -1.77171 0
M  V30 553 H 52.6996 0.65027 0.184728 0
M  V30 554 H 55.2536 2.05199 -0.0907841 0
M  V30 555 H 53.4836 3.17888 2.20191 0
M  V30 556 H 55.1726 3.53892 1.98784 0
M  V30 557 H 55.9386 4.84846 -0.12227 0
M  V30 558 H 51.8176 4.48883 1.05002 0
M  V30 559 H 55.3616 6.81208 -1.50339 0
M  V30 560 H 51.2586 6.44686 -0.323989 0
M  V30 561 H 52.0266 8.00822 -1.69194 0
M  V30 562 N 54.6897 -0.239769 1.55765 0
M  V30 563 C 55.9367 -0.966801 1.7793 0
M  V30 564 C 56.2647 -1.85046 0.599015 0
M  V30 565 O 55.5197 -1.91197 -0.417395 0
M  V30 566 C 55.8187 -1.852 3.05672 0
M  V30 567 C 55.4847 -1.1231 4.36689 0
M  V30 568 C 54.1467 -0.921689 4.72291 0
M  V30 569 C 56.4987 -0.607019 5.17653 0
M  V30 570 C 53.8267 -0.191996 5.86386 0
M  V30 571 C 56.1787 0.109241 6.32506 0
M  V30 572 C 54.8427 0.322073 6.66723 0
M  V30 573 H 54.1127 -0.353778 0.651093 0
M  V30 574 H 56.7597 -0.23634 1.90036 0
M  V30 575 H 55.0647 -2.64975 2.8861 0
M  V30 576 H 56.7617 -2.41635 3.20021 0
M  V30 577 H 53.3517 -1.29004 4.08725 0
M  V30 578 H 57.5357 -0.750153 4.90598 0
M  V30 579 H 52.7917 -0.0166949 6.11398 0
M  V30 580 H 56.9657 0.516737 6.9448 0
M  V30 581 H 54.5927 0.88944 7.54979 0
M  V30 582 N 56.1678 -1.49265 -0.50573 0
M  V30 583 C 57.4148 -1.58513 -1.26015 0
M  V30 584 C 57.7428 -0.26972 -1.92621 0
M  V30 585 O 56.9978 0.741997 -1.81088 0
M  V30 586 C 57.2968 -2.69008 -2.35308 0
M  V30 587 C 56.9628 -4.10662 -1.86192 0
M  V30 588 C 55.6248 -4.49212 -1.72516 0
M  V30 589 C 57.9768 -4.99336 -1.49375 0
M  V30 590 C 55.3048 -5.74214 -1.20394 0
M  V30 591 C 57.6568 -6.24852 -0.987072 0
M  V30 592 C 56.3208 -6.62236 -0.836669 0
M  V30 593 H 55.5908 -0.580041 -0.461122 0
M  V30 594 H 58.2378 -1.83078 -0.561665 0
M  V30 595 H 56.5428 -2.38396 -3.10926 0
M  V30 596 H 58.2398 -2.73373 -2.93374 0
M  V30 597 H 54.8298 -3.8023 -1.97795 0
M  V30 598 H 59.0138 -4.70212 -1.5879 0
M  V30 599 H 54.2698 -6.01883 -1.07458 0
M  V30 600 H 58.4438 -6.92944 -0.692983 0
M  V30 601 H 56.0708 -7.58979 -0.430607 0
M  V30 602 N 57.6459 0.756429 -1.3826 0
M  V30 603 C 58.8949 1.51082 -1.3363 0
M  V30 604 C 59.2079 1.95467 0.0720068 0
M  V30 605 O 60.4139 2.7043 0.240834 0
M  V30 606 C 58.8699 2.72893 -2.34644 0
M  V30 607 C 58.4779 2.35544 -3.81081 0
M  V30 608 C 60.2219 3.50791 -2.39052 0
M  V30 609 C 58.1289 3.53948 -4.73787 0
M  V30 610 H 57.0589 0.56727 -0.49671 0
M  V30 611 H 59.7099 0.827147 -1.638 0
M  V30 612 H 58.0919 3.43227 -1.97513 0
M  V30 613 H 59.2659 1.72894 -4.27135 0
M  V30 614 H 57.5809 1.70786 -3.79764 0
M  V30 615 H 60.1779 4.38823 -3.05513 0
M  V30 616 H 60.5209 3.91745 -1.40861 0
M  V30 617 H 61.0539 2.87467 -2.74968 0
M  V30 618 H 57.7929 3.18064 -5.73163 0
M  V30 619 H 57.3129 4.15651 -4.32428 0
M  V30 620 H 58.9919 4.20566 -4.91663 0
M  V30 621 N 59.124 1.23083 0.984299 0
M  V30 622 C 60.056 0.96636 2.07832 0
M  V30 623 C 61.069 -0.0582135 1.62696 0
M  V30 624 O 62.258 0.176843 1.77622 0
M  V30 625 C 59.358 0.433397 3.36117 0
M  V30 626 C 58.531 1.51722 4.10243 0
M  V30 627 C 57.59 0.989821 5.16807 0
M  V30 628 O 56.616 1.67794 5.43906 0
M  V30 629 N 57.818 -0.184367 5.80207 0
M  V30 630 H 60.583 1.90824 2.31098 0
M  V30 631 H 58.144 1.13888 1.1507 0
M  V30 632 H 60.136 0.065699 4.04647 0
M  V30 633 H 58.706 -0.413806 3.09849 0
M  V30 634 H 57.926 2.05786 3.36223 0
M  V30 635 H 59.214 2.24619 4.56534 0
M  V30 636 H 58.612 -0.760062 5.60571 0
M  V30 637 H 57.169 -0.493366 6.4993 0
M  V30 638 N 60.6021 -1.18246 1.0419 0
M  V30 639 C 61.5501 -2.23968 0.627792 0
M  V30 640 C 62.5441 -1.65828 -0.346019 0
M  V30 641 O 63.7501 -1.78733 -0.213175 0
M  V30 642 H 60.1251 -0.728939 0.184802 0
M  V30 643 H 62.0961 -2.56202 1.52981 0
M  V30 644 C 60.8451 -3.47699 0.00796591 0
M  V30 645 H 60.1681 -3.92734 0.748347 0
M  V30 646 H 61.6081 -4.23294 -0.24455 0
M  V30 647 C 60.0671 -3.13153 -1.24246 0
M  V30 648 O 60.5971 -3.27003 -2.33307 0
M  V30 649 N 58.8031 -2.67467 -1.13622 0
M  V30 650 H 58.3501 -2.56396 -0.248734 0
M  V30 651 H 58.3081 -2.44724 -1.97377 0
M  V30 652 N 62.0802 -0.821533 -1.34494 0
M  V30 653 C 63.0122 -0.199946 -2.28326 0
M  V30 654 C 64.0252 0.609377 -1.50965 0
M  V30 655 O 65.2142 0.439285 -1.7301 0
M  V30 656 C 62.3142 0.738431 -3.30757 0
M  V30 657 C 61.4872 -0.0277632 -4.37391 0
M  V30 658 C 60.5462 0.831332 -5.19591 0
M  V30 659 O 59.5722 0.276822 -5.68526 0
M  V30 660 N 60.7742 2.15132 -5.39165 0
M  V30 661 H 63.5392 -1.00609 -2.82308 0
M  V30 662 H 61.1002 -0.678366 -1.47003 0
M  V30 663 H 63.0922 1.31773 -3.82646 0
M  V30 664 H 61.6622 1.44533 -2.7718 0
M  V30 665 H 60.8822 -0.788359 -3.86236 0
M  V30 666 H 62.1702 -0.555251 -5.05761 0
M  V30 667 H 61.5682 2.62559 -5.01078 0
M  V30 668 H 60.1252 2.6795 -5.94177 0
M  V30 669 N 63.5583 1.46682 -0.576371 0
M  V30 670 C 64.5083 2.27278 0.181288 0
M  V30 671 C 65.4923 1.35497 0.867721 0
M  V30 672 O 66.6843 1.59717 0.762863 0
M  V30 673 C 63.8133 3.21703 1.19841 0
M  V30 674 C 62.8993 4.20969 0.51442 0
M  V30 675 N 63.2903 5.03999 -0.426407 0
M  V30 676 C 61.5883 4.39373 0.765963 0
M  V30 677 C 62.2893 5.75812 -0.825565 0
M  V30 678 N 61.2653 5.43315 -0.176116 0
M  V30 679 H 65.0673 2.88863 -0.541785 0
M  V30 680 H 62.5813 1.57455 -0.397697 0
M  V30 681 H 64.5783 3.78145 1.75533 0
M  V30 682 H 63.2383 2.61677 1.92238 0
M  V30 683 H 64.2493 5.11659 -0.8016 0
M  V30 684 H 60.9263 3.90502 1.47698 0
M  V30 685 H 62.3163 6.52577 -1.59976 0
M  V30 686 N 65.0364 0.313813 1.54444 0
M  V30 687 C 65.9834 -0.55655 2.23989 0
M  V30 688 C 66.9534 -1.11943 1.22711 0
M  V30 689 O 68.1384 -1.16158 1.51367 0
M  V30 690 C 65.2784 -1.71635 2.99392 0
M  V30 691 C 64.3914 -1.18364 4.15468 0
M  V30 692 C 63.5264 -2.30834 4.78424 0
M  V30 693 C 62.5654 -1.74762 5.86622 0
M  V30 694 N 61.7024 -2.80855 6.43479 0
M  V30 695 H 66.5424 0.0430893 2.97969 0
M  V30 696 H 64.0794 0.0330359 1.47063 0
M  V30 697 H 66.0374 -2.39868 3.41349 0
M  V30 698 H 64.6674 -2.28742 2.27765 0
M  V30 699 H 63.7194 -0.393163 3.78363 0
M  V30 700 H 65.0314 -0.733262 4.93381 0
M  V30 701 H 64.1854 -3.0699 5.23299 0
M  V30 702 H 62.9244 -2.79204 3.99871 0
M  V30 703 H 61.9294 -0.970995 5.41158 0
M  V30 704 H 63.1544 -1.2728 6.67066 0
M  V30 705 H 61.1004 -3.28535 5.67804 0
M  V30 706 H 61.0174 -2.40351 7.16776 0
M  V30 707 H 62.2854 -3.5687 6.93011 0
M  V30 708 N 66.5145 -1.57545 0.0417849 0
M  V30 709 C 67.7915 -1.83642 -0.673433 0
M  V30 710 C 68.1715 -0.928298 -1.89594 0
M  V30 711 O 67.5195 0.0129955 -2.28496 0
M  V30 712 C 67.7295 -3.33155 -1.03964 0
M  V30 713 C 69.0775 -3.99941 -1.42592 0
M  V30 714 O 70.1015 -3.37725 -1.13226 0
M  V30 715 O 68.9605 -5.09619 -1.9736 0
M  V30 716 H 66.0545 -0.757638 -0.331533 0
M  V30 717 H 68.6005 -1.69554 0.070433 0
M  V30 718 H 67.3725 -3.9093 -0.170098 0
M  V30 719 H 66.9955 -3.52396 -1.84126 0
M  V30 720 N 67.9926 0.231505 -1.5589 0
M  V30 721 C 68.9026 1.308 -1.94752 0
M  V30 722 C 69.9186 1.51826 -0.849989 0
M  V30 723 O 71.0946 1.6515 -1.15271 0
M  V30 724 C 68.1596 2.63968 -2.24771 0
M  V30 725 C 67.2206 2.51331 -3.48039 0
M  V30 726 C 66.4536 3.78148 -3.76616 0
M  V30 727 O 66.6766 4.80722 -3.07022 0
M  V30 728 O 65.6106 3.75857 -4.70123 0
M  V30 729 H 69.4366 1.0083 -2.86474 0
M  V30 730 H 67.0216 0.433547 -1.42971 0
M  V30 731 H 68.9036 3.42633 -2.45318 0
M  V30 732 H 67.5786 2.9364 -1.36225 0
M  V30 733 H 66.4856 1.709 -3.32782 0
M  V30 734 H 67.8186 2.26601 -4.36936 0
M  V30 735 N 69.4707 1.49531 0.497807 0
M  V30 736 C 70.4177 1.66436 1.59899 0
M  V30 737 C 71.3877 0.505793 1.58212 0
M  V30 738 O 72.5727 0.733202 1.7615 0
M  V30 739 C 69.7127 1.7399 2.98029 0
M  V30 740 C 68.8257 3.01172 3.09708 0
M  V30 741 C 67.9607 2.99686 4.38591 0
M  V30 742 C 66.9997 4.21434 4.43914 0
M  V30 743 N 66.1367 4.1784 5.64229 0
M  V30 744 H 70.9767 2.60459 1.44793 0
M  V30 745 H 68.5137 1.29137 0.704423 0
M  V30 746 H 70.4717 1.76352 3.78095 0
M  V30 747 H 69.1017 0.834301 3.11832 0
M  V30 748 H 68.1537 3.08408 2.22685 0
M  V30 749 H 69.4657 3.91165 3.09502 0
M  V30 750 H 68.6197 3.00628 5.2698 0
M  V30 751 H 67.3587 2.07477 4.41367 0
M  V30 752 H 66.3637 4.20733 3.53926 0
M  V30 753 H 67.5887 5.14839 4.42851 0
M  V30 754 H 65.5347 3.28469 5.67841 0
M  V30 755 H 65.4517 5.01571 5.65652 0
M  V30 756 H 66.7197 4.22889 6.54817 0
M  V30 757 N 70.9488 -0.749086 1.3866 0
M  V30 758 C 71.8968 -1.88428 1.36373 0
M  V30 759 C 72.8908 -1.67561 0.248929 0
M  V30 760 O 74.0968 -1.75074 0.41821 0
M  V30 761 H 70.4718 -0.620023 0.42553 0
M  V30 762 H 72.4428 -1.87473 2.32156 0
M  V30 763 C 71.1918 -3.25961 1.21014 0
M  V30 764 H 70.5148 -3.42607 2.06059 0
M  V30 765 H 71.9548 -4.05625 1.23469 0
M  V30 766 C 70.4138 -3.36799 -0.0825941 0
M  V30 767 O 70.9438 -3.87517 -1.05797 0
M  V30 768 N 69.1498 -2.90258 -0.140939 0
M  V30 769 H 68.6968 -2.49174 0.653477 0
M  V30 770 H 68.6548 -2.97889 -1.00545 0
M  V30 771 N 72.4269 -1.23603 -0.977757 0
M  V30 772 C 73.3899 -1.02069 -2.05218 0
M  V30 773 C 74.3899 0.0184305 -1.60789 0
M  V30 774 O 75.5799 -0.221569 -1.72785 0
M  V30 775 C 72.7119 -0.544926 -3.36517 0
M  V30 776 H 73.9049 -1.9742 -2.25755 0
M  V30 777 H 71.4579 -1.05684 -1.15155 0
M  V30 778 H 72.1929 0.412241 -3.21669 0
M  V30 779 H 71.9779 -1.2948 -3.70105 0
M  V30 780 H 73.4679 -0.414985 -4.15533 0
M  V30 781 N 73.905 1.17692 -1.04816 0
M  V30 782 C 74.835 2.23777 -0.666791 0
M  V30 783 C 75.816 1.66796 0.33361 0
M  V30 784 O 77.001 1.93039 0.212042 0
M  V30 785 C 74.131 3.47281 -0.0367933 0
M  V30 786 C 73.085 4.17059 -0.961546 0
M  V30 787 C 72.411 5.34342 -0.195626 0
M  V30 788 C 73.711 4.69713 -2.28402 0
M  V30 789 H 75.405 2.55933 -1.55367 0
M  V30 790 H 72.951 1.23019 -0.748484 0
M  V30 791 H 74.904 4.20706 0.241775 0
M  V30 792 H 73.628 3.14381 0.885004 0
M  V30 793 H 72.287 3.45541 -1.22462 0
M  V30 794 H 71.935 4.97692 0.728816 0
M  V30 795 H 71.635 5.81966 -0.811775 0
M  V30 796 H 73.159 6.10553 0.0757473 0
M  V30 797 H 74.573 5.34794 -2.06563 0
M  V30 798 H 72.97 5.279 -2.8538 0
M  V30 799 H 74.04 3.86726 -2.92525 0
M  V30 800 N 75.3831 0.828654 1.34056 0
M  V30 801 C 76.3461 0.259927 2.27721 0
M  V30 802 C 77.3461 -0.565478 1.50529 0
M  V30 803 O 78.5361 -0.38075 1.69988 0
M  V30 804 C 75.6681 -0.634944 3.34935 0
M  V30 805 H 76.8611 1.0863 2.79534 0
M  V30 806 H 74.4141 0.600951 1.44285 0
M  V30 807 H 75.1491 -1.48416 2.88346 0
M  V30 808 H 74.9341 -0.0444999 3.92075 0
M  V30 809 H 76.4241 -1.02648 4.04788 0
M  V30 810 N 76.8612 -1.46375 0.584142 0
M  V30 811 C 77.8242 -2.28784 -0.138108 0
M  V30 812 C 78.8242 -1.38471 -0.817462 0
M  V30 813 O 80.0142 -1.60833 -0.669199 0
M  V30 814 C 77.1462 -3.18892 -1.20503 0
M  V30 815 H 78.3392 -2.94117 0.586127 0
M  V30 816 H 75.8922 -1.52509 0.342171 0
M  V30 817 H 76.6272 -2.58309 -1.96079 0
M  V30 818 H 76.4122 -3.85388 -0.722384 0
M  V30 819 H 77.9022 -3.80914 -1.71155 0
M  V30 820 N 78.3393 -0.321999 -1.54275 0
M  V30 821 C 79.3023 0.531975 -2.22941 0
M  V30 822 C 80.3023 1.04478 -1.22234 0
M  V30 823 O 81.4923 0.937452 -1.46825 0
M  V30 824 C 78.6243 1.73874 -2.93224 0
M  V30 825 H 79.8173 -0.0682612 -2.99822 0
M  V30 826 H 77.3703 -0.0730644 -1.56129 0
M  V30 827 H 78.1053 2.37825 -2.20476 0
M  V30 828 H 77.8903 1.37847 -3.6707 0
M  V30 829 H 79.3803 2.34496 -3.45545 0
M  V30 830 N 79.8174 1.5752 -0.0501392 0
M  V30 831 C 80.7274 2.14952 0.939827 0
M  V30 832 C 81.7434 1.10706 1.34239 0
M  V30 833 O 82.9194 1.42869 1.41952 0
M  V30 834 C 79.9844 2.68232 2.19665 0
M  V30 835 C 79.0454 3.87272 1.85253 0
M  V30 836 C 78.2784 4.38002 3.04943 0
M  V30 837 O 78.5014 3.87811 4.18281 0
M  V30 838 O 77.4354 5.29602 2.86017 0
M  V30 839 H 81.2614 2.9986 0.481392 0
M  V30 840 H 78.8464 1.4841 0.171699 0
M  V30 841 H 80.7284 3.02475 2.93406 0
M  V30 842 H 79.4034 1.86395 2.64648 0
M  V30 843 H 78.3104 3.5792 1.0883 0
M  V30 844 H 79.6434 4.70336 1.4507 0
M  V30 845 N 81.2955 -0.223234 1.56011 0
M  V30 846 C 82.5235 -0.964812 1.83027 0
M  V30 847 C 82.9385 -1.78013 0.62904 0
M  V30 848 O 82.2955 -1.78008 -0.402414 0
M  V30 849 C 82.3465 -1.88373 3.08542 0
M  V30 850 O 82.0675 -1.10137 4.2403 0
M  V30 851 C 83.5685 -2.73934 3.48533 0
M  V30 852 H 80.7885 -0.282842 0.608475 0
M  V30 853 H 83.3325 -0.238971 2.03099 0
M  V30 854 H 81.4875 -2.56354 2.9045 0
M  V30 855 H 81.9015 -1.72501 4.95322 0
M  V30 856 H 83.3755 -3.34117 4.39397 0
M  V30 857 H 83.8525 -3.46244 2.70207 0
M  V30 858 H 84.4585 -2.11369 3.69057 0
M  V30 859 N 82.7736 -1.49793 -0.48987 0
M  V30 860 C 84.0206 -1.59841 -1.24327 0
M  V30 861 C 84.3486 -0.290135 -1.92324 0
M  V30 862 O 83.6036 0.722749 -1.81865 0
M  V30 863 C 83.9026 -2.71488 -2.32441 0
M  V30 864 C 83.5686 -4.12614 -1.81826 0
M  V30 865 C 82.2306 -4.51017 -1.67742 0
M  V30 866 C 84.5826 -5.00892 -1.4407 0
M  V30 867 C 81.9106 -5.75459 -1.14297 0
M  V30 868 C 84.2626 -6.25863 -0.920742 0
M  V30 869 C 82.9266 -6.63086 -0.766383 0
M  V30 870 H 82.1966 -0.584899 -0.454944 0
M  V30 871 H 84.8436 -1.83663 -0.542215 0
M  V30 872 H 83.1486 -2.4168 -3.0838 0
M  V30 873 H 84.8456 -2.76469 -2.90458 0
M  V30 874 H 81.4356 -3.82307 -1.93751 0
M  V30 875 H 85.6196 -4.7187 -1.53794 0
M  V30 876 H 80.8756 -6.02989 -1.01068 0
M  V30 877 H 85.0496 -6.9364 -0.619448 0
M  V30 878 H 82.6766 -7.59393 -0.350083 0
M  V30 879 N 84.2517 0.741722 -1.39055 0
M  V30 880 C 85.4797 1.53098 -1.39171 0
M  V30 881 C 85.8947 1.88794 0.0155099 0
M  V30 882 O 85.2517 1.53626 0.985159 0
M  V30 883 C 85.3027 2.82274 -2.2584 0
M  V30 884 O 85.0237 2.48097 -3.61081 0
M  V30 885 C 86.5247 3.76343 -2.34266 0
M  V30 886 H 83.7447 0.473335 -0.4756 0
M  V30 887 H 86.2887 0.917045 -1.82785 0
M  V30 888 H 84.4437 3.40015 -1.85656 0
M  V30 889 H 84.8577 3.31029 -4.06842 0
M  V30 890 H 86.3317 4.63898 -2.9917 0
M  V30 891 H 86.8087 4.17619 -1.35982 0
M  V30 892 H 87.4147 3.24523 -2.74891 0
M  V30 893 N 85.7298 1.2412 0.971189 0
M  V30 894 C 86.9548 1.10667 1.75407 0
M  V30 895 C 87.3798 -0.337048 1.85056 0
M  V30 896 O 86.7378 -1.24396 1.31892 0
M  V30 897 C 86.7858 1.74726 3.15441 0
M  V30 898 O 85.8898 1.01566 3.99697 0
M  V30 899 H 85.2308 0.387341 0.539317 0
M  V30 900 H 87.7608 1.64358 1.2185 0
M  V30 901 H 87.7708 1.80341 3.6598 0
M  V30 902 H 86.4458 2.79773 3.07734 0
M  V30 903 H 85.0228 1.03713 3.58187 0
M  V30 904 N 87.2079 -1.17134 1.05439 0
M  V30 905 C 88.1559 -2.23289 0.651511 0
M  V30 906 C 89.1499 -1.66186 -0.328411 0
M  V30 907 O 90.3559 -1.78949 -0.194206 0
M  V30 908 H 86.7309 -0.726938 0.192523 0
M  V30 909 H 88.7019 -2.54565 1.55689 0
M  V30 910 C 87.4509 -3.47671 0.0448436 0
M  V30 911 H 86.7739 -3.91918 0.78996 0
M  V30 912 H 88.2139 -4.2353 -0.19964 0
M  V30 913 C 86.6729 -3.14453 -1.20918 0
M  V30 914 O 87.2029 -3.29459 -2.29825 0
M  V30 915 N 85.4089 -2.68657 -1.10779 0
M  V30 916 H 84.9559 -2.56646 -0.221526 0
M  V30 917 H 84.9139 -2.46804 -1.9477 0
M  V30 918 N 88.686 -0.835752 -1.33615 0
M  V30 919 C 89.935 -0.426289 -1.97144 0
M  V30 920 C 90.248 1.01912 -1.66953 0
M  V30 921 O 91.454 1.53311 -2.24072 0
M  V30 922 C 89.91 -0.711321 -3.52801 0
M  V30 923 C 89.518 -2.1712 -3.91871 0
M  V30 924 C 91.262 -0.368654 -4.22896 0
M  V30 925 C 89.169 -2.40044 -5.40493 0
M  V30 926 H 88.099 -0.15567 -0.737755 0
M  V30 927 H 90.75 -1.0239 -1.52278 0
M  V30 928 H 89.132 -0.0433766 -3.95976 0
M  V30 929 H 90.306 -2.87936 -3.59763 0
M  V30 930 H 88.621 -2.47654 -3.34749 0
M  V30 931 H 91.218 -0.517601 -5.32189 0
M  V30 932 H 91.561 0.688078 -4.10574 0
M  V30 933 H 92.094 -0.991702 -3.8524 0
M  V30 934 H 88.833 -3.44271 -5.57815 0
M  V30 935 H 88.353 -1.73785 -5.74072 0
M  V30 936 H 90.032 -2.23042 -6.0734 0
M  V30 937 N 90.1641 1.46063 -0.591896 0
M  V30 938 C 91.1271 2.28854 0.125973 0
M  V30 939 C 92.1271 1.38903 0.810107 0
M  V30 940 O 93.3171 1.61186 0.66066 0
M  V30 941 C 90.4491 3.19526 1.1881 0
M  V30 942 H 91.6421 2.93802 -0.601717 0
M  V30 943 H 89.1951 1.52325 -0.350254 0
M  V30 944 H 89.9301 2.59345 1.94707 0
M  V30 945 H 89.7151 3.85766 0.701936 0
M  V30 946 H 91.2051 3.81817 1.69132 0
M  V30 947 N 91.6422 0.330177 1.54103 0
M  V30 948 C 92.5892 -0.532762 2.24567 0
M  V30 949 C 93.5592 -1.10635 1.23892 0
M  V30 950 O 94.7442 -1.14546 1.5259 0
M  V30 951 C 91.8842 -1.6845 3.01195 0
M  V30 952 C 90.9972 -1.13951 4.167 0
M  V30 953 C 90.1322 -2.25746 4.80845 0
M  V30 954 C 89.1712 -1.6853 5.88442 0
M  V30 955 N 88.3082 -2.74014 6.46421 0
M  V30 956 H 93.1482 0.0746905 2.97906 0
M  V30 957 H 90.6852 0.048632 1.4702 0
M  V30 958 H 92.6432 -2.36234 3.43874 0
M  V30 959 H 91.2732 -2.26314 2.30178 0
M  V30 960 H 90.3252 -0.35301 3.78758 0
M  V30 961 H 91.6372 -0.680892 4.94131 0
M  V30 962 H 90.7912 -3.01422 5.26526 0
M  V30 963 H 89.5302 -2.74947 4.0281 0
M  V30 964 H 88.5352 -0.913543 5.42157 0
M  V30 965 H 89.7602 -1.20198 6.68378 0
M  V30 966 H 87.7062 -3.22494 5.71256 0
M  V30 967 H 87.6232 -2.32735 7.19285 0
M  V30 968 H 88.8912 -3.49499 6.96757 0
M  V30 969 N 93.1203 -1.57491 0.0584922 0
M  V30 970 C 94.0303 -2.15448 -0.928414 0
M  V30 971 C 95.0463 -1.11416 -1.3365 0
M  V30 972 O 96.2223 -1.4362 -1.41193 0
M  V30 973 C 93.2873 -2.69393 -2.18239 0
M  V30 974 C 92.3483 -3.88249 -1.83196 0
M  V30 975 C 91.5813 -4.39613 -3.02616 0
M  V30 976 O 91.8043 -3.90023 -4.16219 0
M  V30 977 O 90.7383 -5.31111 -2.83204 0
M  V30 978 H 94.5643 -3.00112 -0.465483 0
M  V30 979 H 92.1493 -1.48499 -0.163826 0
M  V30 980 H 94.0313 -3.04026 -2.91798 0
M  V30 981 H 92.7063 -1.87796 -2.63656 0
M  V30 982 H 91.6133 -3.58492 -1.06931 0
M  V30 983 H 92.9463 -4.71098 -1.42573 0
M  V30 984 N 94.5984 0.214957 -1.56127 0
M  V30 985 C 95.5454 1.26642 -1.92952 0
M  V30 986 C 96.5154 1.46244 -0.78753 0
M  V30 987 O 97.7004 1.59704 -1.04399 0
M  V30 988 C 94.8404 2.6104 -2.25726 0
M  V30 989 C 93.9534 2.49183 -3.52891 0
M  V30 990 C 93.0884 3.76149 -3.7508 0
M  V30 991 C 92.1274 3.59041 -4.95738 0
M  V30 992 N 91.2644 4.77972 -5.14283 0
M  V30 993 H 96.1044 0.945384 -2.82607 0
M  V30 994 H 93.6414 0.455489 -1.3987 0
M  V30 995 H 95.5994 3.39313 -2.42739 0
M  V30 996 H 94.2294 2.91227 -1.39236 0
M  V30 997 H 93.2814 1.6231 -3.44034 0
M  V30 998 H 94.5934 2.32466 -4.41318 0
M  V30 999 H 93.7474 4.62865 -3.92226 0
M  V30 1000 H 92.4864 3.95799 -2.84947 0
M  V30 1001 H 91.4914 2.7071 -4.78535 0
M  V30 1002 H 92.7164 3.40856 -5.87362 0
M  V30 1003 H 90.6624 4.97923 -4.27093 0
M  V30 1004 H 90.5794 4.64006 -5.96853 0
M  V30 1005 H 91.8474 5.66096 -5.35869 0
M  V30 1006 N 96.0765 1.50051 0.48192 0
M  V30 1007 C 97.3065 1.63999 1.2565 0
M  V30 1008 C 97.7145 0.318288 1.86504 0
M  V30 1009 O 97.0575 -0.708534 1.69486 0
M  V30 1010 C 97.1195 2.66504 2.4128 0
M  V30 1011 C 96.7835 4.10352 2.01148 0
M  V30 1012 C 97.7805 4.96562 1.54021 0
M  V30 1013 C 95.4655 4.56203 2.10199 0
M  V30 1014 C 97.4595 6.26668 1.16473 0
M  V30 1015 C 95.1465 5.86318 1.72264 0
M  V30 1016 C 96.1445 6.71375 1.25477 0
M  V30 1017 O 95.8325 7.99062 0.880626 0
M  V30 1018 H 95.5645 0.55456 0.386574 0
M  V30 1019 H 98.1185 1.96954 0.582944 0
M  V30 1020 H 96.3485 2.28769 3.11772 0
M  V30 1021 H 98.0375 2.69783 3.03268 0
M  V30 1022 H 98.8035 4.62358 1.46458 0
M  V30 1023 H 94.6825 3.90152 2.45566 0
M  V30 1024 H 98.2265 6.93011 0.798841 0
M  V30 1025 H 94.1235 6.20046 1.79482 0
M  V30 1026 H 94.8915 8.12239 1.01043 0
M  V30 1027 N 97.5546 -0.734337 1.39446 0
M  V30 1028 C 98.8316 -1.48579 1.27215 0
M  V30 1029 C 99.2116 -2.1077 -0.117968 0
M  V30 1030 O 98.5596 -1.98646 -1.12924 0
M  V30 1031 C 98.7696 -2.53667 2.39696 0
M  V30 1032 C 100.118 -3.20031 2.79044 0
M  V30 1033 O 101.142 -2.6398 2.39151 0
M  V30 1034 O 100.001 -4.21455 3.47905 0
M  V30 1035 H 97.0946 -0.659816 0.49857 0
M  V30 1036 H 99.6406 -0.768106 1.51322 0
M  V30 1037 H 98.4126 -2.06096 3.32626 0
M  V30 1038 H 98.0356 -3.32994 2.17258 0
M  V30 1039 N 99.0327 -1.24633 -0.964593 0
M  V30 1040 C 99.9797 -1.04144 -2.05968 0
M  V30 1041 C 100.95 0.046262 -1.66036 0
M  V30 1042 O 102.135 -0.108972 -1.90489 0
M  V30 1043 C 99.2747 -0.65563 -3.38815 0
M  V30 1044 C 98.3877 -1.81714 -3.91923 0
M  V30 1045 C 97.5227 -1.37662 -5.13052 0
M  V30 1046 C 96.5617 -2.50788 -5.58365 0
M  V30 1047 N 95.6987 -2.07582 -6.70712 0
M  V30 1048 H 100.539 -1.9787 -2.22827 0
M  V30 1049 H 98.0757 -0.9855 -1.09208 0
M  V30 1050 H 100.034 -0.412954 -4.15151 0
M  V30 1051 H 98.6637 0.244627 -3.21872 0
M  V30 1052 H 97.7157 -2.1734 -3.12198 0
M  V30 1053 H 99.0277 -2.66705 -4.21509 0
M  V30 1054 H 98.1817 -1.093 -5.96773 0
M  V30 1055 H 96.9207 -0.497293 -4.85158 0
M  V30 1056 H 95.9257 -2.79906 -4.73215 0
M  V30 1057 H 97.1507 -3.39283 -5.88272 0
M  V30 1058 H 95.0967 -1.22051 -6.44546 0
M  V30 1059 H 95.0137 -2.86125 -6.99763 0
M  V30 1060 H 96.2817 -1.82369 -7.57867 0
M  V30 1061 N 100.511 1.16574 -1.06058 0
M  V30 1062 C 101.441 2.23057 -0.690488 0
M  V30 1063 C 102.422 1.67141 0.315901 0
M  V30 1064 O 103.607 1.93253 0.191556 0
M  V30 1065 C 100.737 3.47222 -0.073625 0
M  V30 1066 C 99.6908 4.16016 -1.00573 0
M  V30 1067 C 99.0168 5.34104 -0.252289 0
M  V30 1068 C 100.317 4.67264 -2.33371 0
M  V30 1069 H 102.011 2.54271 -1.58072 0
M  V30 1070 H 99.5568 1.22218 -0.76149 0
M  V30 1071 H 101.51 4.20939 0.19714 0
M  V30 1072 H 100.234 3.15302 0.85161 0
M  V30 1073 H 98.8928 3.44223 -1.2612 0
M  V30 1074 H 98.5408 4.98437 0.675988 0
M  V30 1075 H 98.2408 5.81072 -0.873455 0
M  V30 1076 H 99.7648 6.10599 0.0109857 0
M  V30 1077 H 101.179 5.32573 -2.12223 0
M  V30 1078 H 99.5758 5.24843 -2.90963 0
M  V30 1079 H 100.646 3.83602 -2.96611 0
M  V30 1080 N 101.989 0.842826 1.3317 0
M  V30 1081 C 103.237 0.439577 1.97262 0
M  V30 1082 C 103.558 -1.00548 1.67078 0
M  V30 1083 O 102.828 -1.70098 0.971779 0
M  V30 1084 H 101.408 0.159558 0.72976 0
M  V30 1085 H 104.07 1.07665 1.62463 0
M  V30 1086 H 103.166 0.574886 3.0676 0
M  V30 1087 N 103.467 -1.45747 0.599634 0
M  V30 1088 C 104.692 -2.07178 0.0960198 0
M  V30 1089 C 105.117 -1.44268 -1.207 0
M  V30 1090 O 104.475 -0.532503 -1.73303 0
M  V30 1091 C 104.523 -3.60579 -0.0385348 0
M  V30 1092 O 103.627 -3.97713 -1.0908 0
M  V30 1093 H 102.968 -0.660251 0.0704593 0
M  V30 1094 H 105.498 -1.87124 0.827385 0
M  V30 1095 H 105.508 -4.07298 -0.239304 0
M  V30 1096 H 104.183 -4.05756 0.912947 0
M  V30 1097 H 102.76 -3.62678 -0.867135 0
M  V30 1098 N 104.945 -0.338344 -1.53925 0
M  V30 1099 C 106.17 0.263987 -2.05713 0
M  V30 1100 C 106.595 1.43847 -1.21201 0
M  V30 1101 O 105.953 1.79904 -0.224535 0
M  V30 1102 C 106.001 0.662 -3.54471 0
M  V30 1103 O 105.105 1.76265 -3.72833 0
M  V30 1104 H 104.446 0.0448722 -0.662482 0
M  V30 1105 H 106.976 -0.491048 -1.9862 0
M  V30 1106 H 106.986 0.940594 -3.9701 0
M  V30 1107 H 105.661 -0.196937 -4.15433 0
M  V30 1108 H 104.238 1.48173 -3.42198 0
M  V30 1109 N 106.423 1.57458 -0.0668435 0
M  V30 1110 C 107.669 1.93587 0.6043 0
M  V30 1111 C 108.002 0.946722 1.69561 0
M  V30 1112 O 107.277 -0.0248516 1.94484 0
M  V30 1113 C 107.56 3.40014 1.18585 0
M  V30 1114 C 107.413 4.49685 0.101529 0
M  V30 1115 C 108.732 3.87154 2.09284 0
M  V30 1116 H 105.851 0.703958 0.218202 0
M  V30 1117 H 108.493 1.89542 -0.131804 0
M  V30 1118 H 106.643 3.43592 1.81319 0
M  V30 1119 H 108.315 4.5823 -0.531279 0
M  V30 1120 H 106.558 4.30059 -0.568487 0
M  V30 1121 H 107.229 5.49266 0.54874 0
M  V30 1122 H 109.705 3.85551 1.56491 0
M  V30 1123 H 108.581 4.90231 2.46911 0
M  V30 1124 H 108.842 3.2481 2.99918 0
M  V30 1125 N 107.901 -0.206675 1.56239 0
M  V30 1126 C 109.126 -0.949474 1.8439 0
M  V30 1127 C 109.551 -1.76549 0.649016 0
M  V30 1128 O 108.909 -1.76782 -0.402231 0
M  V30 1129 C 108.957 -1.83078 3.10668 0
M  V30 1130 O 108.061 -2.9281 2.90407 0
M  V30 1131 H 107.402 -0.268033 0.607499 0
M  V30 1132 H 109.932 -0.215488 2.03462 0
M  V30 1133 H 109.942 -2.2377 3.41161 0
M  V30 1134 H 108.617 -1.23112 3.97261 0
M  V30 1135 H 107.194 -2.55956 2.71184 0
M  V30 1136 N 109.379 -1.50304 -0.473955 0
M  V30 1137 C 110.604 -1.65175 -1.25427 0
M  V30 1138 C 111.029 -0.333673 -1.85117 0
M  V30 1139 O 110.387 0.702114 -1.67153 0
M  V30 1140 C 110.435 -2.74295 -2.34082 0
M  V30 1141 O 109.539 -2.35349 -3.38651 0
M  V30 1142 H 108.88 -0.551944 -0.369126 0
M  V30 1143 H 111.41 -1.96662 -0.564364 0
M  V30 1144 H 111.42 -2.97285 -2.79438 0
M  V30 1145 H 110.095 -3.69959 -1.90008 0
M  V30 1146 H 108.672 -2.22794 -2.99027 0
M  V30 1147 N 110.857 0.726932 -1.39834 0
M  V30 1148 C 111.767 1.87131 -1.41489 0
M  V30 1149 C 112.783 1.71239 -0.308757 0
M  V30 1150 O 113.959 1.93701 -0.551529 0
M  V30 1151 C 111.024 3.22811 -1.26468 0
M  V30 1152 C 110.085 3.51039 -2.47124 0
M  V30 1153 C 109.318 4.80245 -2.3281 0
M  V30 1154 O 109.541 5.54537 -1.33585 0
M  V30 1155 O 108.475 5.08554 -3.21957 0
M  V30 1156 H 112.301 1.8869 -2.3797 0
M  V30 1157 H 109.886 0.875837 -1.21035 0
M  V30 1158 H 111.768 4.03877 -1.20255 0
M  V30 1159 H 110.443 3.22005 -0.330862 0
M  V30 1160 H 109.35 2.70027 -2.58914 0
M  V30 1161 H 110.683 3.56632 -3.39227 0
M  V30 1162 N 112.336 1.25143 0.95797 0
M  V30 1163 C 113.561 1.12521 1.74223 0
M  V30 1164 C 113.986 -0.317402 1.85403 0
M  V30 1165 O 113.344 -1.2299 1.33204 0
M  V30 1166 C 113.392 1.78062 3.1357 0
M  V30 1167 O 112.496 1.058 3.98598 0
M  V30 1168 H 111.837 0.39304 0.535178 0
M  V30 1169 H 114.367 1.65641 1.201 0
M  V30 1170 H 114.377 1.84213 3.64046 0
M  V30 1171 H 113.052 2.83021 3.04749 0
M  V30 1172 H 111.629 1.07506 3.57067 0
M  V30 1173 N 113.814 -1.1601 1.06675 0
M  V30 1174 C 114.744 -2.22688 0.702307 0
M  V30 1175 C 115.725 -1.67306 -0.307032 0
M  V30 1176 O 116.91 -1.93352 -0.181305 0
M  V30 1177 C 114.04 -3.47178 0.092038 0
M  V30 1178 C 112.994 -4.15477 1.02777 0
M  V30 1179 C 112.32 -5.33963 0.28061 0
M  V30 1180 C 113.62 -4.66019 2.35846 0
M  V30 1181 H 115.314 -2.53429 1.59419 0
M  V30 1182 H 112.86 -1.21813 0.767961 0
M  V30 1183 H 114.813 -4.21037 -0.174814 0
M  V30 1184 H 113.537 -3.15749 -0.834877 0
M  V30 1185 H 112.196 -3.43549 1.27944 0
M  V30 1186 H 111.844 -4.98788 -0.649545 0
M  V30 1187 H 111.544 -5.806 0.904258 0
M  V30 1188 H 113.068 -6.10596 0.021396 0
M  V30 1189 H 114.482 -5.3144 2.15045 0
M  V30 1190 H 112.879 -5.23293 2.93743 0
M  V30 1191 H 113.949 -3.82023 2.98641 0
M  V30 1192 N 115.292 -0.849877 -1.32721 0
M  V30 1193 C 116.239 -0.289033 -2.28983 0
M  V30 1194 C 117.209 0.601324 -1.54833 0
M  V30 1195 O 118.394 0.537253 -1.8308 0
M  V30 1196 C 115.534 0.520623 -3.4115 0
M  V30 1197 C 114.647 -0.394989 -4.3019 0
M  V30 1198 C 113.782 0.426834 -5.29482 0
M  V30 1199 C 112.821 -0.486476 -6.10164 0
M  V30 1200 N 111.958 0.297879 -7.01468 0
M  V30 1201 H 116.798 -1.11519 -2.76347 0
M  V30 1202 H 114.335 -0.56138 -1.35967 0
M  V30 1203 H 116.293 1.00563 -4.04899 0
M  V30 1204 H 114.923 1.31165 -2.9495 0
M  V30 1205 H 113.975 -0.99836 -3.67065 0
M  V30 1206 H 115.287 -1.09612 -4.86607 0
M  V30 1207 H 114.441 0.975205 -5.98811 0
M  V30 1208 H 113.18 1.16136 -4.73671 0
M  V30 1209 H 112.185 -1.04677 -5.39743 0
M  V30 1210 H 113.41 -1.21953 -6.6806 0
M  V30 1211 H 111.356 1.01558 -6.48091 0
M  V30 1212 H 111.273 -0.344318 -7.55216 0
M  V30 1213 H 112.541 0.828131 -7.75089 0
M  V30 1214 N 116.77 1.45427 -0.607355 0
M  V30 1215 C 117.717 2.3053 0.111625 0
M  V30 1216 C 118.687 1.4209 0.860216 0
M  V30 1217 O 119.872 1.71019 0.845998 0
M  V30 1218 C 117.012 3.26992 1.10319 0
M  V30 1219 C 116.125 4.30535 0.355493 0
M  V30 1220 C 115.26 5.14105 1.33676 0
M  V30 1221 C 114.299 6.09376 0.576862 0
M  V30 1222 N 113.436 6.85727 1.5074 0
M  V30 1223 H 118.276 2.91477 -0.620093 0
M  V30 1224 H 115.813 1.43631 -0.317594 0
M  V30 1225 H 117.771 3.81385 1.6912 0
M  V30 1226 H 116.401 2.67799 1.80232 0
M  V30 1227 H 115.453 3.78805 -0.348023 0
M  V30 1228 H 116.765 4.98235 -0.237423 0
M  V30 1229 H 115.919 5.72897 1.99684 0
M  V30 1230 H 114.658 4.46423 1.9636 0
M  V30 1231 H 113.663 5.49715 -0.0968519 0
M  V30 1232 H 114.888 6.79085 -0.0449341 0
M  V30 1233 H 112.834 6.20735 2.12189 0
M  V30 1234 H 112.751 7.49778 0.967913 0
M  V30 1235 H 114.019 7.4906 2.15706 0
M  V30 1236 N 118.248 0.346503 1.53744 0
M  V30 1237 C 119.494 -0.249473 2.0126 0
M  V30 1238 C 119.827 -1.49965 1.23386 0
M  V30 1239 O 119.102 -1.91811 0.32229 0
M  V30 1240 C 119.385 -0.560643 3.55709 0
M  V30 1241 C 119.238 0.701836 4.44291 0
M  V30 1242 C 120.557 -1.36905 4.18264 0
M  V30 1243 H 117.676 -0.0891987 0.731582 0
M  V30 1244 H 120.318 0.467624 1.84156 0
M  V30 1245 H 118.468 -1.17156 3.70414 0
M  V30 1246 H 120.14 1.33974 4.41417 0
M  V30 1247 H 118.383 1.32612 4.13033 0
M  V30 1248 H 119.054 0.43933 5.50249 0
M  V30 1249 H 121.53 -0.852448 4.07275 0
M  V30 1250 H 120.406 -1.55553 5.26398 0
M  V30 1251 H 120.667 -2.37203 3.73078 0
M  V30 1252 N 119.726 -1.57421 0.075193 0
M  V30 1253 C 120.636 -2.1642 -0.905511 0
M  V30 1254 C 121.652 -1.12828 -1.32461 0
M  V30 1255 O 122.828 -1.45109 -1.39661 0
M  V30 1256 C 119.893 -2.71693 -2.15369 0
M  V30 1257 C 118.954 -3.90171 -1.79068 0
M  V30 1258 C 118.187 -4.42798 -2.97936 0
M  V30 1259 O 118.41 -3.94416 -4.12058 0
M  V30 1260 O 117.344 -5.34085 -2.77555 0
M  V30 1261 H 121.17 -3.00588 -0.433626 0
M  V30 1262 H 118.755 -1.48664 -0.148067 0
M  V30 1263 H 120.637 -3.07104 -2.88557 0
M  V30 1264 H 119.312 -1.90582 -2.61649 0
M  V30 1265 H 118.219 -3.59606 -1.03122 0
M  V30 1266 H 119.552 -4.72584 -1.37569 0
M  V30 1267 N 121.204 0.198386 -1.56346 0
M  V30 1268 C 122.451 0.919286 -1.80431 0
M  V30 1269 C 122.779 1.83393 -0.647866 0
M  V30 1270 O 122.034 1.92236 0.366556 0
M  V30 1271 C 122.333 1.77031 -3.10475 0
M  V30 1272 C 121.999 1.00693 -4.39513 0
M  V30 1273 C 120.661 0.796145 -4.74568 0
M  V30 1274 C 123.013 0.469559 -5.19081 0
M  V30 1275 C 120.341 0.0364588 -5.86689 0
M  V30 1276 C 122.693 -0.2769 -6.31994 0
M  V30 1277 C 121.357 -0.49873 -6.65634 0
M  V30 1278 H 120.627 0.336391 -0.660244 0
M  V30 1279 H 123.274 0.185872 -1.90596 0
M  V30 1280 H 121.579 2.5723 -2.95533 0
M  V30 1281 H 123.276 2.33065 -3.26315 0
M  V30 1282 H 119.866 1.18122 -4.12001 0
M  V30 1283 H 124.05 0.619816 -4.92414 0
M  V30 1284 H 119.306 -0.145412 -6.11227 0
M  V30 1285 H 123.48 -0.700684 -6.92866 0
M  V30 1286 H 121.107 -1.0893 -7.52355 0
M  V30 1287 N 122.682 1.50554 0.465978 0
M  V30 1288 C 123.91 1.65563 1.24083 0
M  V30 1289 C 124.325 0.341051 1.85694 0
M  V30 1290 O 123.682 -0.677543 1.69457 0
M  V30 1291 C 123.733 2.75051 2.34583 0
M  V30 1292 O 123.454 4.01413 1.75497 0
M  V30 1293 C 124.955 3.01078 3.25372 0
M  V30 1294 H 122.175 0.55638 0.375077 0
M  V30 1295 H 124.719 1.96807 0.555624 0
M  V30 1296 H 122.874 2.46486 2.9887 0
M  V30 1297 H 123.288 4.62002 2.48303 0
M  V30 1298 H 124.762 3.81339 3.99105 0
M  V30 1299 H 125.239 2.12349 3.84453 0
M  V30 1300 H 125.845 3.31194 2.66816 0
M  V30 1301 N 124.16 -0.719506 1.40217 0
M  V30 1302 C 125.107 -1.83359 1.40172 0
M  V30 1303 C 126.077 -1.64065 0.259206 0
M  V30 1304 O 127.262 -1.85254 0.456677 0
M  V30 1305 C 124.402 -3.2103 1.26624 0
M  V30 1306 C 123.515 -3.51923 2.50548 0
M  V30 1307 C 122.65 -4.79079 2.29471 0
M  V30 1308 C 121.689 -5.02863 3.48992 0
M  V30 1309 N 120.826 -6.2123 3.27135 0
M  V30 1310 H 125.666 -1.82733 2.35399 0
M  V30 1311 H 123.203 -0.892688 1.16917 0
M  V30 1312 H 125.161 -4.00524 1.16776 0
M  V30 1313 H 123.791 -3.20895 0.350176 0
M  V30 1314 H 122.843 -2.67014 2.70939 0
M  V30 1315 H 124.155 -3.6541 3.39525 0
M  V30 1316 H 123.309 -5.66582 2.16955 0
M  V30 1317 H 122.048 -4.67794 1.37913 0
M  V30 1318 H 121.053 -4.13816 3.6199 0
M  V30 1319 H 122.278 -5.16023 4.41472 0
M  V30 1320 H 120.224 -6.11204 2.38256 0
M  V30 1321 H 120.141 -6.35375 4.09675 0
M  V30 1322 H 121.409 -7.11532 3.18344 0
M  V30 1323 N 125.638 -1.25649 -0.95132 0
M  V30 1324 C 126.585 -1.06323 -2.04851 0
M  V30 1325 C 127.555 0.0286491 -1.66075 0
M  V30 1326 O 128.74 -0.12917 -1.90362 0
M  V30 1327 C 125.88 -0.691529 -3.381 0
M  V30 1328 C 124.993 -1.85861 -3.89974 0
M  V30 1329 C 124.128 -1.43096 -5.11563 0
M  V30 1330 C 123.167 -2.56696 -5.55674 0
M  V30 1331 N 122.304 -2.14684 -6.68472 0
M  V30 1332 H 127.144 -2.00222 -2.20715 0
M  V30 1333 H 124.681 -0.997027 -1.08156 0
M  V30 1334 H 126.639 -0.456963 -4.1469 0
M  V30 1335 H 125.269 0.210474 -3.22113 0
M  V30 1336 H 124.321 -2.20639 -3.09875 0
M  V30 1337 H 125.633 -2.71161 -4.18657 0
M  V30 1338 H 124.787 -1.15624 -5.9558 0
M  V30 1339 H 123.526 -0.548722 -4.84603 0
M  V30 1340 H 122.531 -2.84909 -4.7022 0
M  V30 1341 H 123.756 -3.45503 -5.8464 0
M  V30 1342 H 121.702 -1.28881 -6.43215 0
M  V30 1343 H 121.619 -2.9353 -6.96689 0
M  V30 1344 H 122.887 -1.90397 -7.5589 0
M  V30 1345 N 127.117 1.15442 -1.07289 0
M  V30 1346 C 128.027 2.23786 -0.704057 0
M  V30 1347 C 129.043 1.7166 0.284413 0
M  V30 1348 O 130.219 2.00972 0.131205 0
M  V30 1349 C 127.284 3.46535 -0.106792 0
M  V30 1350 C 126.345 4.13654 -1.14842 0
M  V30 1351 C 125.578 5.30544 -0.57956 0
M  V30 1352 O 125.801 5.67187 0.604585 0
M  V30 1353 O 124.735 5.87154 -1.32414 0
M  V30 1354 H 128.561 2.57664 -1.60757 0
M  V30 1355 H 126.146 1.23152 -0.845803 0
M  V30 1356 H 128.028 4.20804 0.224048 0
M  V30 1357 H 126.703 3.14407 0.770049 0
M  V30 1358 H 125.61 3.4131 -1.5316 0
M  V30 1359 H 126.943 4.49861 -1.99714 0
M  V30 1360 N 128.595 0.856903 1.32268 0
M  V30 1361 C 129.528 0.247937 2.26849 0
M  V30 1362 C 130.506 -0.615382 1.50505 0
M  V30 1363 O 131.69 -0.571689 1.79622 0
M  V30 1364 C 128.817 -0.650093 3.32403 0
M  V30 1365 C 127.863 0.140138 4.2627 0
M  V30 1366 S 128.696 1.51004 5.13769 0
M  V30 1367 C 129.852 0.61778 6.22844 0
M  V30 1368 H 130.085 1.04971 2.78152 0
M  V30 1369 H 127.618 0.654665 1.39834 0
M  V30 1370 H 129.576 -1.16256 3.93694 0
M  V30 1371 H 128.237 -1.4257 2.7988 0
M  V30 1372 H 127.43 -0.543945 5.01056 0
M  V30 1373 H 127.032 0.584267 3.69408 0
M  V30 1374 H 129.324 -0.177053 6.77269 0
M  V30 1375 H 130.267 1.33636 6.95375 0
M  V30 1376 H 130.675 0.191124 5.64176 0
M  V30 1377 N 130.073 -1.45103 0.615059 0
M  V30 1378 C 130.983 -2.34382 -0.101034 0
M  V30 1379 C 131.999 -1.51681 -0.852585 0
M  V30 1380 O 133.175 -1.8446 -0.808484 0
M  V30 1381 C 130.24 -3.29417 -1.08099 0
M  V30 1382 C 129.301 -4.28025 -0.330577 0
M  V30 1383 C 128.534 -5.1852 -1.26385 0
M  V30 1384 O 128.757 -5.12598 -2.50198 0
M  V30 1385 O 127.691 -5.97122 -0.756866 0
M  V30 1386 H 131.517 -2.97033 0.632855 0
M  V30 1387 H 129.102 -1.4461 0.375293 0
M  V30 1388 H 130.984 -3.87958 -1.6452 0
M  V30 1389 H 129.659 -2.69321 -1.79577 0
M  V30 1390 H 128.566 -3.73078 0.276283 0
M  V30 1391 H 129.899 -4.90997 0.343866 0
M  V30 1392 N 131.551 -0.354651 -1.53558 0
M  V30 1393 C 132.828 0.294281 -1.93374 0
M  V30 1394 C 133.208 1.67313 -1.28723 0
M  V30 1395 O 132.556 2.24179 -0.442247 0
M  V30 1396 C 132.766 0.355445 -3.47185 0
M  V30 1397 C 134.114 0.601007 -4.20325 0
M  V30 1398 O 135.138 0.437106 -3.53508 0
M  V30 1399 O 133.997 0.919322 -5.38712 0
M  V30 1400 H 131.091 0.174033 -0.808481 0
M  V30 1401 H 133.637 -0.406638 -1.64756 0
M  V30 1402 H 132.409 -0.611729 -3.86489 0
M  V30 1403 H 132.032 1.1027 -3.82003 0
M  V30 1404 N 133.029 1.57378 -0.0835403 0
M  V30 1405 C 133.976 2.13384 0.879539 0
M  V30 1406 C 134.946 1.04936 1.28754 0
M  V30 1407 O 136.131 1.32662 1.37133 0
M  V30 1408 C 133.271 2.70932 2.13752 0
M  V30 1409 C 132.384 3.93575 1.7811 0
M  V30 1410 C 131.519 4.39326 2.98607 0
M  V30 1411 C 130.558 5.54587 2.59037 0
M  V30 1412 N 129.695 5.95243 3.72331 0
M  V30 1413 H 134.535 2.9537 0.395076 0
M  V30 1414 H 132.072 1.45953 0.183349 0
M  V30 1415 H 134.03 3.02411 2.87408 0
M  V30 1416 H 132.66 1.91693 2.59718 0
M  V30 1417 H 131.712 3.68483 0.94469 0
M  V30 1418 H 133.024 4.77258 1.45005 0
M  V30 1419 H 132.178 4.72528 3.80529 0
M  V30 1420 H 130.917 3.5452 3.34913 0
M  V30 1421 H 129.922 5.21024 1.75539 0
M  V30 1422 H 131.147 6.41133 2.23887 0
M  V30 1423 H 129.093 5.13385 4.08378 0
M  V30 1424 H 129.01 6.73694 3.43034 0
M  V30 1425 H 130.278 6.33072 4.54797 0
M  V30 1426 N 134.507 -0.190092 1.56449 0
M  V30 1427 C 135.737 -0.92443 1.84764 0
M  V30 1428 C 136.145 -1.77146 0.664529 0
M  V30 1429 O 135.488 -1.79812 -0.375957 0
M  V30 1430 C 135.55 -1.86651 3.07248 0
M  V30 1431 C 135.214 -1.20094 4.40938 0
M  V30 1432 C 136.211 -0.575445 5.16706 0
M  V30 1433 C 133.896 -1.2033 4.87674 0
M  V30 1434 C 135.89 0.0388111 6.37388 0
M  V30 1435 C 133.577 -0.585214 6.08291 0
M  V30 1436 C 134.575 0.0347578 6.82991 0
M  V30 1437 O 134.263 0.643147 8.01323 0
M  V30 1438 H 133.995 -0.274974 0.617548 0
M  V30 1439 H 136.549 -0.200788 2.04416 0
M  V30 1440 H 134.779 -2.62998 2.83494 0
M  V30 1441 H 136.468 -2.46907 3.22167 0
M  V30 1442 H 137.234 -0.565728 4.81689 0
M  V30 1443 H 133.113 -1.67526 4.29484 0
M  V30 1444 H 136.657 0.523329 6.95634 0
M  V30 1445 H 132.554 -0.592451 6.42775 0
M  V30 1446 H 133.322 0.540545 8.16713 0
M  V30 1447 N 135.985 -1.50799 -0.457987 0
M  V30 1448 C 136.917 -1.66786 -1.57211 0
M  V30 1449 C 137.93 -0.548962 -1.53265 0
M  V30 1450 O 139.119 -0.8226 -1.58416 0
M  V30 1451 C 136.219 -1.64834 -2.96113 0
M  V30 1452 C 135.392 -2.92971 -3.24787 0
M  V30 1453 C 134.451 -2.83485 -4.43309 0
M  V30 1454 O 133.477 -3.5744 -4.42973 0
M  V30 1455 N 134.679 -1.97929 -5.45714 0
M  V30 1456 H 137.444 -2.62889 -1.43909 0
M  V30 1457 H 135.005 -1.48427 -0.646617 0
M  V30 1458 H 136.997 -1.56084 -3.7339 0
M  V30 1459 H 135.567 -0.764118 -3.03117 0
M  V30 1460 H 134.787 -3.15749 -2.36 0
M  V30 1461 H 136.075 -3.77834 -3.40762 0
M  V30 1462 H 135.473 -1.37182 -5.48815 0
M  V30 1463 H 134.03 -1.95073 -6.21924 0
M  V30 1464 N 137.463 0.71206 -1.40597 0
M  V30 1465 C 138.426 1.80785 -1.40888 0
M  V30 1466 C 139.426 1.57937 -0.302103 0
M  V30 1467 O 140.616 1.64913 -0.561182 0
M  V30 1468 C 137.748 3.18927 -1.20409 0
M  V30 1469 H 138.941 1.81924 -2.38419 0
M  V30 1470 H 136.494 0.91805 -1.26497 0
M  V30 1471 H 137.229 3.23436 -0.236522 0
M  V30 1472 H 137.014 3.36911 -2.00582 0
M  V30 1473 H 138.504 3.98949 -1.23408 0
M  V30 1474 N 138.941 1.26152 0.944643 0
M  V30 1475 C 140.187 1.11657 1.69294 0
M  V30 1476 C 140.52 -0.339926 1.91202 0
M  V30 1477 O 139.795 -1.24994 1.49019 0
M  V30 1478 C 140.078 1.88236 3.06984 0
M  V30 1479 C 139.931 3.41772 2.92424 0
M  V30 1480 C 141.25 1.67343 4.07043 0
M  V30 1481 H 138.369 0.407004 0.614424 0
M  V30 1482 H 141.011 1.55106 1.09737 0
M  V30 1483 H 139.161 1.51308 3.57824 0
M  V30 1484 H 140.833 3.88433 2.48832 0
M  V30 1485 H 139.076 3.68974 2.28124 0
M  V30 1486 H 139.747 3.90579 3.90067 0
M  V30 1487 H 142.223 1.99509 3.65151 0
M  V30 1488 H 141.099 2.23346 5.01406 0
M  V30 1489 H 141.36 0.617158 4.37771 0
M  V30 1490 N 140.419 -1.14872 1.07899 0
M  V30 1491 C 141.649 -1.89386 0.825631 0
M  V30 1492 C 142.057 -1.78565 -0.625406 0
M  V30 1493 O 141.4 -1.13918 -1.44113 0
M  V30 1494 C 141.462 -3.40206 1.16191 0
M  V30 1495 C 141.126 -3.74812 2.61467 0
M  V30 1496 C 142.123 -3.75367 3.59716 0
M  V30 1497 C 139.808 -4.0495 2.97189 0
M  V30 1498 C 141.802 -4.05574 4.9172 0
M  V30 1499 C 139.489 -4.34821 4.29388 0
M  V30 1500 C 140.487 -4.35116 5.26463 0
M  V30 1501 O 140.175 -4.64267 6.56286 0
M  V30 1502 H 139.907 -0.606894 0.297751 0
M  V30 1503 H 142.461 -1.46438 1.44031 0
M  V30 1504 H 140.691 -3.8358 0.490214 0
M  V30 1505 H 142.38 -3.96018 0.890193 0
M  V30 1506 H 143.146 -3.52176 3.33462 0
M  V30 1507 H 139.025 -4.03876 2.22273 0
M  V30 1508 H 142.569 -4.05719 5.67484 0
M  V30 1509 H 138.466 -4.5748 4.55392 0
M  V30 1510 H 139.234 -4.82007 6.61522 0
M  V30 1511 N 141.898 -0.863906 -1.31812 0
M  V30 1512 C 143.175 -0.39275 -1.91616 0
M  V30 1513 C 143.555 1.12461 -1.7865 0
M  V30 1514 O 142.903 1.95045 -1.19037 0
M  V30 1515 C 143.113 -0.867385 -3.38049 0
M  V30 1516 C 144.461 -0.889966 -4.15168 0
M  V30 1517 O 145.485 -0.812635 -3.46806 0
M  V30 1518 O 144.344 -1.00079 -5.37258 0
M  V30 1519 H 141.438 -0.116358 -0.818773 0
M  V30 1520 H 143.984 -0.951418 -1.40521 0
M  V30 1521 H 142.756 -1.91081 -3.41473 0
M  V30 1522 H 142.379 -0.286687 -3.96565 0
M  V30 1523 N 143.376 1.44774 -0.622745 0
M  V30 1524 C 144.624 2.01721 -0.123655 0
M  V30 1525 C 144.945 1.49172 1.25589 0
M  V30 1526 O 144.215 0.691974 1.83272 0
M  V30 1527 H 142.795 0.745777 -0.0427225 0
M  V30 1528 H 145.457 1.77382 -0.807559 0
M  V30 1529 H 144.553 3.11984 -0.0849534 0
M  V30 1530 N 144.854 0.36279 1.53368 0
M  V30 1531 C 146.103 -0.22888 2.00397 0
M  V30 1532 C 146.416 -1.50096 1.25421 0
M  V30 1533 O 147.622 -2.17106 1.63025 0
M  V30 1534 C 146.078 -0.458417 3.56969 0
M  V30 1535 C 145.686 0.798877 4.4082 0
M  V30 1536 C 147.43 -1.00789 4.12361 0
M  V30 1537 C 145.337 0.539078 5.88938 0
M  V30 1538 H 144.267 -0.089305 0.748693 0
M  V30 1539 H 146.918 0.481099 1.77081 0
M  V30 1540 H 145.3 -1.22959 3.76427 0
M  V30 1541 H 146.474 1.57262 4.33134 0
M  V30 1542 H 144.789 1.27137 3.96516 0
M  V30 1543 H 147.386 -1.21754 5.20653 0
M  V30 1544 H 147.729 -1.9692 3.66781 0
M  V30 1545 H 148.262 -0.296961 3.9669 0
M  V30 1546 H 145.001 1.47064 6.3879 0
M  V30 1547 H 144.521 -0.196222 5.99479 0
M  V30 1548 H 146.2 0.163542 6.46793 0
M  V30 1549 N 146.332 -1.57332 0.0918853 0
M  V30 1550 C 147.58 -1.93853 -0.571446 0
M  V30 1551 C 147.901 -0.974212 -1.6892 0
M  V30 1552 O 147.171 -0.0257254 -1.95883 0
M  V30 1553 H 145.751 -0.715666 -0.214082 0
M  V30 1554 H 148.413 -1.94287 0.154464 0
M  V30 1555 H 147.509 -2.96191 -0.983729 0
M  V30 1556 N 147.81 0.181792 -1.56548 0
M  V30 1557 C 148.773 1.20894 -1.94724 0
M  V30 1558 C 149.773 1.37738 -0.829747 0
M  V30 1559 O 150.963 1.35323 -1.09697 0
M  V30 1560 C 148.095 2.57593 -2.23291 0
M  V30 1561 H 149.288 0.882275 -2.86629 0
M  V30 1562 H 146.841 0.423838 -1.50444 0
M  V30 1563 H 147.576 2.95291 -1.34067 0
M  V30 1564 H 147.361 2.46735 -3.04736 0
M  V30 1565 H 148.851 3.31637 -2.53785 0
M  V30 1566 N 149.288 1.51039 0.449983 0
M  V30 1567 C 150.235 1.71439 1.54523 0
M  V30 1568 C 151.205 0.555871 1.56522 0
M  V30 1569 O 152.39 0.788871 1.73728 0
M  V30 1570 C 149.53 1.83384 2.92343 0
M  V30 1571 C 148.643 3.10873 2.9997 0
M  V30 1572 C 147.778 3.13488 4.28834 0
M  V30 1573 C 146.817 4.35343 4.30282 0
M  V30 1574 N 145.954 4.35579 5.5065 0
M  V30 1575 H 150.794 2.64934 1.36433 0
M  V30 1576 H 148.331 1.31312 0.662982 0
M  V30 1577 H 150.289 1.88291 3.72293 0
M  V30 1578 H 148.919 0.933086 3.0902 0
M  V30 1579 H 147.971 3.15336 2.12761 0
M  V30 1580 H 149.283 4.00814 2.96901 0
M  V30 1581 H 148.437 3.17241 5.17149 0
M  V30 1582 H 147.176 2.21414 4.34543 0
M  V30 1583 H 146.181 4.3178 3.40362 0
M  V30 1584 H 147.406 5.28668 4.26248 0
M  V30 1585 H 145.352 3.46369 5.57104 0
M  V30 1586 H 145.269 5.19313 5.49409 0
M  V30 1587 H 146.537 4.43507 6.41032 0
M  V30 1588 N 150.766 -0.704594 1.40972 0
M  V30 1589 C 152.043 -1.45847 1.30338 0
M  V30 1590 C 152.423 -2.10973 -0.0732344 0
M  V30 1591 O 151.771 -2.00997 -1.08685 0
M  V30 1592 C 151.981 -2.48525 2.45023 0
M  V30 1593 C 153.329 -3.1404 2.8577 0
M  V30 1594 O 154.353 -2.58848 2.44696 0
M  V30 1595 O 153.212 -4.13981 3.56766 0
M  V30 1596 H 150.306 -0.649092 0.512454 0
M  V30 1597 H 152.852 -0.735836 1.52917 0
M  V30 1598 H 151.624 -1.98994 3.36923 0
M  V30 1599 H 151.247 -3.2831 2.24272 0
M  V30 1600 N 152.244 -1.26651 -0.937939 0
M  V30 1601 C 153.493 -1.11775 -1.67897 0
M  V30 1602 C 153.806 0.33794 -1.92659 0
M  V30 1603 O 155.012 0.607434 -2.64618 0
M  V30 1604 C 153.468 -1.9523 -3.02346 0
M  V30 1605 C 153.076 -3.45393 -2.8532 0
M  V30 1606 C 154.82 -1.88972 -3.80118 0
M  V30 1607 C 152.727 -4.21083 -4.15263 0
M  V30 1608 H 151.657 -0.414696 -0.629717 0
M  V30 1609 H 154.308 -1.50988 -1.04283 0
M  V30 1610 H 152.69 -1.48853 -3.66959 0
M  V30 1611 H 153.864 -3.99561 -2.29537 0
M  V30 1612 H 152.179 -3.52921 -2.20988 0
M  V30 1613 H 154.776 -2.42805 -4.76392 0
M  V30 1614 H 155.119 -0.86113 -4.07296 0
M  V30 1615 H 155.652 -2.33189 -3.22285 0
M  V30 1616 H 152.391 -5.24425 -3.93267 0
M  V30 1617 H 151.911 -3.71695 -4.70747 0
M  V30 1618 H 153.59 -4.29706 -4.83696 0
M  V30 1619 N 153.722 1.14298 -1.08507 0
M  V30 1620 C 154.669 2.19414 -0.715965 0
M  V30 1621 C 155.639 1.63399 0.298326 0
M  V30 1622 O 156.824 1.89929 0.182101 0
M  V30 1623 C 153.964 3.44845 -0.132534 0
M  V30 1624 C 153.077 4.15007 -1.19973 0
M  V30 1625 C 152.212 5.28024 -0.580048 0
M  V30 1626 C 151.251 5.9002 -1.62921 0
M  V30 1627 N 150.388 6.94485 -1.03125 0
M  V30 1628 H 155.228 2.50336 -1.61666 0
M  V30 1629 H 152.765 1.2293 -0.807882 0
M  V30 1630 H 154.723 4.16601 0.223454 0
M  V30 1631 H 153.353 3.14403 0.731467 0
M  V30 1632 H 152.405 3.41629 -1.67313 0
M  V30 1633 H 153.717 4.57178 -1.99473 0
M  V30 1634 H 152.871 6.06455 -0.172364 0
M  V30 1635 H 151.61 4.87076 0.246603 0
M  V30 1636 H 150.615 5.10291 -2.04654 0
M  V30 1637 H 151.84 6.33042 -2.45835 0
M  V30 1638 H 149.786 6.55612 -0.225711 0
M  V30 1639 H 149.703 7.35148 -1.76334 0
M  V30 1640 H 150.971 7.7679 -0.649458 0
M  V30 1641 N 155.201 0.870884 1.31352 0
M  V30 1642 C 156.447 0.482987 1.96965 0
M  V30 1643 C 156.78 -0.962462 1.68672 0
M  V30 1644 O 156.055 -1.6779 0.98371 0
M  V30 1645 C 156.338 0.741752 3.52378 0
M  V30 1646 C 156.191 2.2368 3.9024 0
M  V30 1647 C 157.51 0.208838 4.39604 0
M  V30 1648 H 154.629 0.176955 0.715441 0
M  V30 1649 H 157.271 1.09229 1.55464 0
M  V30 1650 H 155.421 0.223149 3.87859 0
M  V30 1651 H 157.093 2.82273 3.64856 0
M  V30 1652 H 155.336 2.70901 3.38814 0
M  V30 1653 H 156.007 2.3685 4.98604 0
M  V30 1654 H 158.483 0.652529 4.10952 0
M  V30 1655 H 157.359 0.419336 5.47296 0
M  V30 1656 H 157.62 -0.889275 4.33064 0
M  V30 1657 N 156.679 -1.44442 0.630414 0
M  V30 1658 C 157.626 -2.30678 -0.0749355 0
M  V30 1659 C 158.596 -1.4344 -0.837502 0
M  V30 1660 O 159.781 -1.72343 -0.818684 0
M  V30 1661 C 156.921 -3.28706 -1.05103 0
M  V30 1662 C 156.034 -4.31046 -0.286954 0
M  V30 1663 C 155.169 -5.16167 -1.2548 0
M  V30 1664 C 154.208 -6.10216 -0.479843 0
M  V30 1665 N 153.345 -6.88039 -1.39811 0
M  V30 1666 H 158.185 -2.90454 0.666386 0
M  V30 1667 H 155.722 -1.43107 0.340404 0
M  V30 1668 H 157.68 -3.84027 -1.63031 0
M  V30 1669 H 156.31 -2.70632 -1.75949 0
M  V30 1670 H 155.362 -3.78203 0.408243 0
M  V30 1671 H 156.674 -4.97794 0.316657 0
M  V30 1672 H 155.828 -5.76002 -1.90544 0
M  V30 1673 H 154.567 -4.49491 -1.89233 0
M  V30 1674 H 153.572 -5.49491 0.184295 0
M  V30 1675 H 154.797 -6.78928 0.152965 0
M  V30 1676 H 152.743 -6.24032 -2.02287 0
M  V30 1677 H 152.66 -7.51223 -0.848508 0
M  V30 1678 H 153.928 -7.52397 -2.03762 0
M  V30 1679 N 158.157 -0.370918 -1.53173 0
M  V30 1680 C 159.105 0.488101 -2.27421 0
M  V30 1681 C 160.099 1.07884 -1.30604 0
M  V30 1682 O 161.305 1.02143 -1.48212 0
M  V30 1683 H 157.68 0.176134 -0.731082 0
M  V30 1684 H 159.651 -0.159815 -2.97972 0
M  V30 1685 C 158.4 1.61306 -3.08019 0
M  V30 1686 H 157.723 1.1678 -3.82364 0
M  V30 1687 H 159.163 2.18872 -3.63141 0
M  V30 1688 C 157.622 2.55848 -2.19188 0
M  V30 1689 O 158.152 3.58799 -1.80626 0
M  V30 1690 N 156.358 2.2516 -1.83715 0
M  V30 1691 H 155.905 1.41476 -2.15273 0
M  V30 1692 H 155.863 2.8867 -1.24567 0
M  V30 1693 N 159.635 1.57281 -0.100228 0
M  V30 1694 C 160.565 2.17328 0.853857 0
M  V30 1695 C 161.546 1.10804 1.2906 0
M  V30 1696 O 162.731 1.38963 1.35657 0
M  V30 1697 C 159.861 2.75772 2.11109 0
M  V30 1698 C 158.815 3.87713 1.81279 0
M  V30 1699 C 158.141 4.32882 3.13874 0
M  V30 1700 C 159.441 5.10677 1.09574 0
M  V30 1701 H 161.135 2.97305 0.353545 0
M  V30 1702 H 158.681 1.43009 0.168612 0
M  V30 1703 H 160.634 3.16433 2.78296 0
M  V30 1704 H 159.358 1.93057 2.63432 0
M  V30 1705 H 158.017 3.476 1.16489 0
M  V30 1706 H 157.665 3.47051 3.64095 0
M  V30 1707 H 157.365 5.08358 2.94696 0
M  V30 1708 H 158.889 4.7618 3.82211 0
M  V30 1709 H 160.303 5.48474 1.66879 0
M  V30 1710 H 158.7 5.91615 1.00557 0
M  V30 1711 H 159.77 4.84835 0.0793299 0
M  V30 1712 N 161.113 -0.173488 1.56642 0
M  V30 1713 C 162.06 -1.21482 1.96242 0
M  V30 1714 C 163.03 -1.44104 0.826027 0
M  V30 1715 O 164.215 -1.5688 1.08597 0
M  V30 1716 C 161.355 -2.54964 2.32567 0
M  V30 1717 C 160.468 -2.39739 3.59373 0
M  V30 1718 C 159.603 -3.66072 3.84921 0
M  V30 1719 C 158.642 -3.45771 5.05083 0
M  V30 1720 N 157.779 -4.64169 5.26775 0
M  V30 1721 H 162.619 -0.870123 2.85014 0
M  V30 1722 H 160.156 -0.418245 1.41029 0
M  V30 1723 H 162.114 -3.32758 2.5165 0
M  V30 1724 H 160.744 -2.87433 1.46908 0
M  V30 1725 H 159.796 -1.53131 3.48217 0
M  V30 1726 H 161.108 -2.20683 4.47326 0
M  V30 1727 H 160.262 -4.52303 4.0436 0
M  V30 1728 H 159.001 -3.88105 2.9534 0
M  V30 1729 H 158.006 -2.57927 4.85545 0
M  V30 1730 H 159.231 -3.25163 5.96193 0
M  V30 1731 H 157.177 -4.86425 4.40144 0
M  V30 1732 H 157.094 -4.48019 6.08946 0
M  V30 1733 H 158.362 -5.51689 5.5069 0
M  V30 1734 N 162.591 -1.51276 -0.441967 0
M  V30 1735 C 163.816 -1.67799 -1.21895 0
M  V30 1736 C 164.241 -0.372864 -1.84367 0
M  V30 1737 O 163.599 0.666501 -1.68604 0
M  V30 1738 C 163.647 -2.79199 -2.28211 0
M  V30 1739 O 162.751 -2.42479 -3.33583 0
M  V30 1740 H 162.092 -0.559649 -0.357336 0
M  V30 1741 H 164.622 -1.97815 -0.522522 0
M  V30 1742 H 164.632 -3.03146 -2.73069 0
M  V30 1743 H 163.307 -3.73906 -1.82118 0
M  V30 1744 H 161.884 -2.29087 -2.94234 0
M  V30 1745 N 164.069 0.697108 -1.41344 0
M  V30 1746 C 165.315 1.4593 -1.40827 0
M  V30 1747 C 165.648 1.94193 -0.0167098 0
M  V30 1748 O 164.923 1.69425 0.955263 0
M  V30 1749 C 165.206 2.67229 -2.41373 0
M  V30 1750 C 165.059 2.24741 -3.8963 0
M  V30 1751 C 166.378 3.69423 -2.39196 0
M  V30 1752 H 163.497 0.529303 -0.512842 0
M  V30 1753 H 166.139 0.794112 -1.72609 0
M  V30 1754 H 164.289 3.23982 -2.14401 0
M  V30 1755 H 165.961 1.73327 -4.27499 0
M  V30 1756 H 164.204 1.56542 -4.0457 0
M  V30 1757 H 164.875 3.1177 -4.55525 0
M  V30 1758 H 167.351 3.2234 -2.63128 0
M  V30 1759 H 166.227 4.51907 -3.11563 0
M  V30 1760 H 166.488 4.19012 -1.41001 0
M  V30 1761 N 165.547 1.27147 0.931209 0
M  V30 1762 C 166.777 1.15914 1.71019 0
M  V30 1763 C 167.185 -0.287112 1.87009 0
M  V30 1764 O 166.528 -1.20761 1.38429 0
M  V30 1765 C 166.59 1.76647 3.13107 0
M  V30 1766 C 166.254 3.25807 3.20467 0
M  V30 1767 C 167.251 4.22489 3.02983 0
M  V30 1768 C 164.936 3.66452 3.43538 0
M  V30 1769 C 166.93 5.57794 3.08454 0
M  V30 1770 C 164.617 5.01888 3.48643 0
M  V30 1771 C 165.615 5.97369 3.31119 0
M  V30 1772 O 165.303 7.30337 3.35952 0
M  V30 1773 H 165.035 0.404062 0.54195 0
M  V30 1774 H 167.589 1.68457 1.17521 0
M  V30 1775 H 165.819 1.18578 3.68071 0
M  V30 1776 H 167.508 1.60179 3.72958 0
M  V30 1777 H 168.274 3.92425 2.85004 0
M  V30 1778 H 164.153 2.92611 3.5623 0
M  V30 1779 H 167.697 6.32298 2.94694 0
M  V30 1780 H 163.594 5.31609 3.66145 0
M  V30 1781 H 164.362 7.38739 3.5243 0
M  V30 1782 N 167.025 -1.13721 1.09112 0
M  V30 1783 C 168.302 -1.81155 0.737706 0
M  V30 1784 C 168.682 -1.96253 -0.777683 0
M  V30 1785 O 168.03 -1.52807 -1.69889 0
M  V30 1786 C 168.24 -3.16392 1.47299 0
M  V30 1787 C 169.588 -3.91787 1.63671 0
M  V30 1788 O 170.612 -3.26005 1.43524 0
M  V30 1789 O 169.471 -5.0977 1.96969 0
M  V30 1790 H 166.565 -0.783518 0.26463 0
M  V30 1791 H 169.111 -1.20676 1.19312 0
M  V30 1792 H 167.883 -3.0061 2.50498 0
M  V30 1793 H 167.506 -3.8457 1.00953 0
M  V30 1794 N 168.503 -0.877838 -1.30888 0
M  V30 1795 C 169.78 -0.413052 -1.91189 0
M  V30 1796 C 170.16 1.1056 -1.79832 0
M  V30 1797 O 169.508 1.93771 -1.21099 0
M  V30 1798 C 169.718 -0.903191 -3.3711 0
M  V30 1799 C 171.066 -0.93395 -4.14201 0
M  V30 1800 O 172.09 -0.849373 -3.45925 0
M  V30 1801 O 170.949 -1.05772 -5.36167 0
M  V30 1802 H 168.043 -0.125035 -0.817493 0
M  V30 1803 H 170.589 -0.966269 -1.39504 0
M  V30 1804 H 169.361 -1.94692 -3.39427 0
M  V30 1805 H 168.984 -0.328732 -3.96239 0
M  V30 1806 N 169.982 1.44106 -0.638065 0
M  V30 1807 C 170.929 2.30715 0.062701 0
M  V30 1808 C 171.899 1.43882 0.829883 0
M  V30 1809 O 173.084 1.72775 0.809532 0
M  V30 1810 C 170.224 3.29258 1.03358 0
M  V30 1811 C 169.337 4.31192 0.26409 0
M  V30 1812 C 168.472 5.16825 1.22741 0
M  V30 1813 C 167.511 6.10462 0.447475 0
M  V30 1814 N 166.648 6.8877 1.36161 0
M  V30 1815 H 171.488 2.90096 -0.681781 0
M  V30 1816 H 169.025 1.42925 -0.347988 0
M  V30 1817 H 170.983 3.84886 1.60992 0
M  V30 1818 H 169.613 2.71562 1.74511 0
M  V30 1819 H 168.665 3.77981 -0.428295 0
M  V30 1820 H 169.977 4.97619 -0.343052 0
M  V30 1821 H 169.131 5.77004 1.87487 0
M  V30 1822 H 167.87 4.50488 1.86847 0
M  V30 1823 H 166.875 5.49386 -0.213433 0
M  V30 1824 H 168.1 6.78837 -0.188968 0
M  V30 1825 H 166.046 6.25096 1.98975 0
M  V30 1826 H 165.963 7.51663 0.808656 0
M  V30 1827 H 167.231 7.53467 1.99769 0
M  V30 1828 N 171.46 0.379036 1.52974 0
M  V30 1829 C 172.37 -0.468639 2.29872 0
M  V30 1830 C 173.386 -1.08067 1.36373 0
M  V30 1831 O 174.562 -1.08871 1.69438 0
M  V30 1832 C 171.627 -1.58594 3.083 0
M  V30 1833 C 170.688 -1.00007 4.17489 0
M  V30 1834 C 169.921 -2.06413 4.92168 0
M  V30 1835 O 170.144 -3.27751 4.66835 0
M  V30 1836 O 169.078 -1.68717 5.7777 0
M  V30 1837 H 172.904 0.157508 3.03291 0
M  V30 1838 H 170.489 0.143035 1.48714 0
M  V30 1839 H 172.371 -2.23525 3.57232 0
M  V30 1840 H 171.046 -2.19724 2.37703 0
M  V30 1841 H 169.953 -0.314299 3.72777 0
M  V30 1842 H 171.286 -0.433135 4.90291 0
M  V30 1843 N 172.938 -1.57226 0.108567 0
M  V30 1844 C 173.886 -2.16002 -0.862885 0
M  V30 1845 C 174.88 -1.10644 -1.28274 0
M  V30 1846 O 176.086 -1.28966 -1.2557 0
M  V30 1847 H 172.461 -0.691148 -0.296342 0
M  V30 1848 H 174.432 -2.96427 -0.342575 0
M  V30 1849 C 173.181 -2.76576 -2.10716 0
M  V30 1850 H 172.504 -3.5734 -1.793 0
M  V30 1851 H 173.944 -3.21253 -2.76717 0
M  V30 1852 C 172.403 -1.73137 -2.89007 0
M  V30 1853 O 172.933 -1.17842 -3.84026 0
M  V30 1854 N 171.139 -1.43317 -2.52801 0
M  V30 1855 H 170.686 -1.88473 -1.75601 0
M  V30 1856 H 170.644 -0.743485 -3.05483 0
M  V30 1857 N 174.416 0.165178 -1.56732 0
M  V30 1858 C 175.363 1.2044 -1.96883 0
M  V30 1859 C 176.333 1.43664 -0.833657 0
M  V30 1860 O 177.518 1.56302 -1.09427 0
M  V30 1861 C 174.658 2.53727 -2.33916 0
M  V30 1862 C 173.771 2.3783 -3.6064 0
M  V30 1863 C 172.906 3.64026 -3.86857 0
M  V30 1864 C 171.945 3.43088 -5.06909 0
M  V30 1865 N 171.082 4.61369 -5.29229 0
M  V30 1866 H 175.922 0.854996 -2.85471 0
M  V30 1867 H 173.459 0.41076 -1.41249 0
M  V30 1868 H 175.417 3.31419 -2.53411 0
M  V30 1869 H 174.047 2.8665 -1.48431 0
M  V30 1870 H 173.099 1.51282 -3.49024 0
M  V30 1871 H 174.411 2.18308 -4.4849 0
M  V30 1872 H 173.565 4.50152 -4.06753 0
M  V30 1873 H 172.304 3.86533 -2.97394 0
M  V30 1874 H 171.309 2.55349 -4.86906 0
M  V30 1875 H 172.534 3.21997 -5.97909 0
M  V30 1876 H 170.48 4.84084 -4.42718 0
M  V30 1877 H 170.397 4.44783 -6.11313 0
M  V30 1878 H 171.665 5.48761 -5.53608 0
M  V30 1879 N 175.894 1.51508 0.433938 0
M  V30 1880 C 177.141 1.64345 1.18309 0
M  V30 1881 C 177.469 0.361315 1.91115 0
M  V30 1882 O 176.724 -0.654753 1.84422 0
M  V30 1883 C 177.023 2.79928 2.22205 0
M  V30 1884 C 176.689 4.19078 1.66387 0
M  V30 1885 C 175.351 4.56932 1.50887 0
M  V30 1886 C 177.703 5.05894 1.25381 0
M  V30 1887 C 175.031 5.79305 0.928608 0
M  V30 1888 C 177.383 6.2885 0.687823 0
M  V30 1889 C 176.047 6.65473 0.519755 0
M  V30 1890 H 175.317 0.601381 0.432923 0
M  V30 1891 H 177.964 1.85549 0.473676 0
M  V30 1892 H 176.269 2.52959 2.99197 0
M  V30 1893 H 177.966 2.87059 2.79997 0
M  V30 1894 H 174.556 3.89234 1.79428 0
M  V30 1895 H 178.74 4.77253 1.36175 0
M  V30 1896 H 173.996 6.06324 0.786186 0
M  V30 1897 H 178.17 6.95461 0.361581 0
M  V30 1898 H 175.797 7.6017 0.0679979 0
M  V30 1899 N 177.372 -0.689602 1.41712 0
M  V30 1900 C 178.32 -1.82475 1.44242 0
M  V30 1901 C 179.314 -1.66354 0.319774 0
M  V30 1902 O 180.52 -1.73143 0.492089 0
M  V30 1903 H 176.895 -0.601416 0.451445 0
M  V30 1904 H 178.866 -1.77458 2.39899 0
M  V30 1905 C 177.615 -3.20535 1.3473 0
M  V30 1906 H 176.938 -3.33559 2.20405 0
M  V30 1907 H 178.378 -4.00023 1.40562 0
M  V30 1908 C 176.837 -3.36846 0.0603281 0
M  V30 1909 O 177.367 -3.91656 -0.892663 0
M  V30 1910 N 175.573 -2.90595 -0.0177039 0
M  V30 1911 H 175.12 -2.46178 0.758572 0
M  V30 1912 H 175.078 -3.01886 -0.878201 0
M  V30 1913 N 178.85 -1.27639 -0.924453 0
M  V30 1914 C 179.78 -1.13166 -2.04244 0
M  V30 1915 C 180.761 -0.032256 -1.70069 0
M  V30 1916 O 181.946 -0.207328 -1.9309 0
M  V30 1917 C 179.076 -0.781496 -3.38393 0
M  V30 1918 C 178.03 -1.83449 -3.86692 0
M  V30 1919 C 177.356 -1.33822 -5.17683 0
M  V30 1920 C 178.656 -3.23917 -4.09726 0
M  V30 1921 H 180.35 -2.06689 -2.1661 0
M  V30 1922 H 177.896 -0.995136 -1.04082 0
M  V30 1923 H 179.849 -0.667057 -4.16087 0
M  V30 1924 H 178.573 0.189439 -3.2605 0
M  V30 1925 H 177.232 -1.93789 -3.11193 0
M  V30 1926 H 176.88 -0.35665 -5.01734 0
M  V30 1927 H 176.58 -2.04224 -5.50968 0
M  V30 1928 H 178.104 -1.23679 -5.97943 0
M  V30 1929 H 179.518 -3.16559 -4.77978 0
M  V30 1930 H 177.915 -3.92059 -4.54324 0
M  V30 1931 H 178.985 -3.68729 -3.14908 0
M  V30 1932 N 180.328 1.1314 -1.09713 0
M  V30 1933 C 181.556 1.88321 -0.856898 0
M  V30 1934 C 181.971 1.79276 0.592073 0
M  V30 1935 O 181.328 1.16142 1.40774 0
M  V30 1936 C 181.379 3.37812 -1.28706 0
M  V30 1937 O 181.1 3.46627 -2.67921 0
M  V30 1938 C 182.601 4.29952 -1.07964 0
M  V30 1939 H 179.821 0.596094 -0.308079 0
M  V30 1940 H 182.365 1.43205 -1.45988 0
M  V30 1941 H 180.52 3.805 -0.727912 0
M  V30 1942 H 180.934 4.39579 -2.8613 0
M  V30 1943 H 182.408 5.33159 -1.42986 0
M  V30 1944 H 182.885 4.39196 -0.0176577 0
M  V30 1945 H 183.491 3.93036 -1.62489 0
M  V30 1946 N 181.806 0.884767 1.30421 0
M  V30 1947 C 183.036 0.517293 2.00019 0
M  V30 1948 C 183.444 -0.898632 1.66497 0
M  V30 1949 O 182.787 -1.60245 0.898181 0
M  V30 1950 C 182.849 0.612025 3.54252 0
M  V30 1951 C 182.513 1.99222 4.1129 0
M  V30 1952 C 183.51 2.9616 4.273 0
M  V30 1953 C 181.195 2.29755 4.46674 0
M  V30 1954 C 183.189 4.21764 4.77906 0
M  V30 1955 C 180.876 3.55606 4.96979 0
M  V30 1956 C 181.874 4.51425 5.12547 0
M  V30 1957 O 181.562 5.75043 5.61766 0
M  V30 1958 H 181.294 0.198529 0.64619 0
M  V30 1959 H 183.848 1.1919 1.67281 0
M  V30 1960 H 182.078 -0.119561 3.86515 0
M  V30 1961 H 183.767 0.255859 4.05093 0
M  V30 1962 H 184.533 2.73882 4.00267 0
M  V30 1963 H 180.412 1.55942 4.33824 0
M  V30 1964 H 183.956 4.96561 4.89972 0
M  V30 1965 H 179.853 3.7772 5.23448 0
M  V30 1966 H 180.621 5.77422 5.80109 0
M  V30 1967 N 183.284 -1.43765 0.645699 0
M  V30 1968 C 184.194 -2.34544 -0.0512957 0
M  V30 1969 C 185.21 -1.53455 -0.82022 0
M  V30 1970 O 186.386 -1.86133 -0.769176 0
M  V30 1971 C 183.451 -3.31636 -1.01087 0
M  V30 1972 C 182.512 -4.2863 -0.239712 0
M  V30 1973 C 181.745 -5.21084 -1.15358 0
M  V30 1974 O 181.968 -5.1779 -2.39269 0
M  V30 1975 O 180.902 -5.98593 -0.630038 0
M  V30 1976 H 184.728 -2.95624 0.695718 0
M  V30 1977 H 182.313 -1.43781 0.405882 0
M  V30 1978 H 184.195 -3.9136 -1.56254 0
M  V30 1979 H 182.87 -2.73069 -1.73824 0
M  V30 1980 H 181.777 -3.72408 0.355356 0
M  V30 1981 H 183.11 -4.90157 0.447936 0
M  V30 1982 N 184.763 -0.387143 -1.52771 0
M  V30 1983 C 185.693 0.440551 -2.29306 0
M  V30 1984 C 186.674 1.06535 -1.32606 0
M  V30 1985 O 187.859 1.07853 -1.61497 0
M  V30 1986 C 184.989 1.56919 -3.09829 0
M  V30 1987 C 183.943 1.07054 -4.14395 0
M  V30 1988 C 183.269 2.29109 -4.83129 0
M  V30 1989 C 184.569 0.140015 -5.22112 0
M  V30 1990 H 186.263 -0.198026 -2.98744 0
M  V30 1991 H 183.809 -0.09668 -1.43675 0
M  V30 1992 H 185.762 2.15503 -3.62128 0
M  V30 1993 H 184.486 2.23532 -2.3812 0
M  V30 1994 H 183.145 0.507247 -3.63074 0
M  V30 1995 H 182.793 2.94227 -4.0797 0
M  V30 1996 H 182.493 1.96406 -5.53804 0
M  V30 1997 H 184.017 2.88339 -5.38231 0
M  V30 1998 H 185.431 0.633978 -5.69784 0
M  V30 1999 H 183.828 -0.0971485 -6.00021 0
M  V30 2000 H 184.898 -0.811711 -4.78058 0
M  V30 2001 N 186.241 1.57166 -0.116904 0
M  V30 2002 C 187.151 2.18745 0.847812 0
M  V30 2003 C 188.167 1.163 1.29423 0
M  V30 2004 O 189.343 1.48761 1.35765 0
M  V30 2005 C 186.408 2.77307 2.0809 0
M  V30 2006 C 185.469 3.94781 1.68661 0
M  V30 2007 C 184.702 4.50541 2.86091 0
M  V30 2008 O 184.925 4.05202 4.01456 0
M  V30 2009 O 183.859 5.41256 2.63298 0
M  V30 2010 H 187.685 3.01632 0.353778 0
M  V30 2011 H 185.27 1.49005 0.108599 0
M  V30 2012 H 187.152 3.14647 2.80313 0
M  V30 2013 H 185.827 1.97452 2.56504 0
M  V30 2014 H 184.734 3.62214 0.935518 0
M  V30 2015 H 186.067 4.76065 1.24991 0
M  V30 2016 N 187.719 -0.156864 1.56817 0
M  V30 2017 C 188.652 -1.22316 1.9265 0
M  V30 2018 C 189.63 -1.42059 0.791076 0
M  V30 2019 O 190.814 -1.56831 1.04576 0
M  V30 2020 C 187.941 -2.58375 2.18998 0
M  V30 2021 C 186.987 -2.55284 3.41661 0
M  V30 2022 S 187.82 -2.02946 4.95553 0
M  V30 2023 C 188.976 -3.40753 5.25013 0
M  V30 2024 H 189.209 -0.917403 2.82791 0
M  V30 2025 H 186.742 -0.362059 1.50095 0
M  V30 2026 H 188.7 -3.36677 2.34859 0
M  V30 2027 H 187.361 -2.86145 1.29538 0
M  V30 2028 H 186.554 -3.55418 3.57343 0
M  V30 2029 H 186.156 -1.85086 3.24991 0
M  V30 2030 H 188.448 -4.36819 5.17876 0
M  V30 2031 H 189.391 -3.29933 6.26538 0
M  V30 2032 H 189.799 -3.37433 4.52548 0
M  V30 2033 N 189.197 -1.51736 -0.425897 0
M  V30 2034 C 190.613 -1.40166 -0.76326 0
M  V30 2035 C 190.813 -0.492962 -1.95377 0
M  V30 2036 O 189.869 0.0475815 -2.52455 0
M  V30 2037 C 191.182 -2.82403 -1.03291 0
M  V30 2038 C 192.73 -2.91632 -1.13665 0
M  V30 2039 C 193.205 -4.34801 -1.43916 0
M  V30 2040 N 194.696 -4.3796 -1.50816 0
M  V30 2041 C 195.431 -5.4578 -1.75817 0
M  V30 2042 N 194.927 -6.63744 -1.98534 0
M  V30 2043 N 196.72 -5.33274 -1.77694 0
M  V30 2044 H 188.871 -2.09361 0.358 0
M  V30 2045 H 191.134 -0.942941 0.0978094 0
M  V30 2046 H 190.84 -3.50943 -0.230696 0
M  V30 2047 H 190.714 -3.22428 -1.95754 0
M  V30 2048 H 193.101 -2.23284 -1.92947 0
M  V30 2049 H 193.182 -2.55088 -0.190756 0
M  V30 2050 H 192.826 -5.03703 -0.65157 0
M  V30 2051 H 192.756 -4.68868 -2.39729 0
M  V30 2052 H 195.247 -3.52919 -1.35118 0
M  V30 2053 H 195.56 -7.41704 -2.17013 0
M  V30 2054 H 193.905 -6.66839 -1.95832 0
M  V30 2055 H 197.096 -4.40098 -1.59473 0
M  V30 2056 H 197.269 -6.1738 -1.9684 0
M  V30 2057 N 190.675 0.682077 -1.42076 0
M  V30 2058 C 191.903 1.47057 -1.4554 0
M  V30 2059 C 192.318 1.8869 -0.0645779 0
M  V30 2060 O 191.675 1.57666 0.919115 0
M  V30 2061 C 191.726 2.72442 -2.37609 0
M  V30 2062 O 191.447 2.32559 -3.71279 0
M  V30 2063 C 192.948 3.66069 -2.50017 0
M  V30 2064 H 190.168 0.452737 -0.495248 0
M  V30 2065 H 192.712 0.838695 -1.8651 0
M  V30 2066 H 190.867 3.31835 -1.9991 0
M  V30 2067 H 191.281 3.13475 -4.20516 0
M  V30 2068 H 192.755 4.50792 -3.18576 0
M  V30 2069 H 193.232 4.11476 -1.53572 0
M  V30 2070 H 193.838 3.12572 -2.88407 0
M  V30 2071 N 192.153 1.28127 0.917671 0
M  V30 2072 C 193.378 1.18007 1.70555 0
M  V30 2073 C 193.803 -0.258257 1.86319 0
M  V30 2074 O 193.161 -1.1869 1.37049 0
M  V30 2075 C 193.209 1.87948 3.07746 0
M  V30 2076 O 192.313 1.18427 3.9503 0
M  V30 2077 H 191.654 0.409867 0.522403 0
M  V30 2078 H 194.184 1.69379 1.1477 0
M  V30 2079 H 194.194 1.95701 3.58001 0
M  V30 2080 H 192.869 2.92573 2.95591 0
M  V30 2081 H 191.446 1.18811 3.53466 0
M  V30 2082 N 193.631 -1.12557 1.10312 0
M  V30 2083 C 194.561 -2.20341 0.772798 0
M  V30 2084 C 195.542 -1.68198 -0.25365 0
M  V30 2085 O 196.727 -1.93831 -0.119699 0
M  V30 2086 C 193.857 -3.46709 0.202443 0
M  V30 2087 C 192.811 -4.11996 1.15943 0
M  V30 2088 C 192.137 -5.328 0.450345 0
M  V30 2089 C 193.437 -4.5828 2.50552 0
M  V30 2090 H 195.131 -2.48229 1.674 0
M  V30 2091 H 192.677 -1.19308 0.806326 0
M  V30 2092 H 194.63 -4.2138 -0.0407752 0
M  V30 2093 H 193.354 -3.18245 -0.734001 0
M  V30 2094 H 192.013 -3.39305 1.38808 0
M  V30 2095 H 191.661 -5.00602 -0.490531 0
M  V30 2096 H 191.361 -5.7743 1.08851 0
M  V30 2097 H 192.885 -6.10219 0.215642 0
M  V30 2098 H 194.299 -5.2433 2.31843 0
M  V30 2099 H 192.696 -5.13683 3.10242 0
M  V30 2100 H 193.766 -3.72329 3.10643 0
M  V30 2101 N 195.109 -0.891671 -1.2995 0
M  V30 2102 C 196.357 -0.512486 -1.95494 0
M  V30 2103 C 196.678 0.942776 -1.70695 0
M  V30 2104 O 195.948 1.66374 -1.03424 0
M  V30 2105 H 194.528 -0.186533 -0.723336 0
M  V30 2106 H 197.19 -1.13621 -1.58355 0
M  V30 2107 H 196.286 -0.688342 -3.04415 0
M  V30 2108 N 196.587 1.43421 -0.653314 0
M  V30 2109 C 197.534 2.30768 0.0382271 0
M  V30 2110 C 198.504 1.44755 0.814576 0
M  V30 2111 O 199.689 1.73624 0.791162 0
M  V30 2112 C 196.829 3.30336 0.998599 0
M  V30 2113 C 195.942 4.31448 0.218342 0
M  V30 2114 C 195.077 5.18098 1.17252 0
M  V30 2115 C 194.116 6.10902 0.382702 0
M  V30 2116 N 193.253 6.90176 1.28848 0
M  V30 2117 H 198.093 2.89357 -0.712511 0
M  V30 2118 H 195.63 1.42548 -0.363128 0
M  V30 2119 H 197.588 3.86572 1.56901 0
M  V30 2120 H 196.218 2.73397 1.71621 0
M  V30 2121 H 195.27 3.77506 -0.46836 0
M  V30 2122 H 196.582 4.97227 -0.395812 0
M  V30 2123 H 195.736 5.7896 1.81356 0
M  V30 2124 H 194.475 4.52444 1.82058 0
M  V30 2125 H 193.48 5.49128 -0.27169 0
M  V30 2126 H 194.705 6.78598 -0.260957 0
M  V30 2127 H 192.651 6.27171 1.92334 0
M  V30 2128 H 192.568 7.52478 0.728887 0
M  V30 2129 H 193.836 7.55543 1.91766 0
M  V30 2130 N 198.065 0.39524 1.52563 0
M  V30 2131 C 198.995 -0.428384 2.29537 0
M  V30 2132 C 199.976 -1.05831 1.33169 0
M  V30 2133 O 201.161 -1.06995 1.62067 0
M  V30 2134 C 198.291 -1.55274 3.10656 0
M  V30 2135 C 197.245 -1.04855 4.14957 0
M  V30 2136 C 196.571 -2.26543 4.84337 0
M  V30 2137 C 197.871 -0.112324 5.22179 0
M  V30 2138 H 199.565 0.213867 2.98635 0
M  V30 2139 H 197.111 0.104298 1.43622 0
M  V30 2140 H 199.064 -2.1358 3.63265 0
M  V30 2141 H 197.788 -2.22266 2.39302 0
M  V30 2142 H 196.447 -0.487985 3.63338 0
M  V30 2143 H 196.095 -2.92059 4.09525 0
M  V30 2144 H 195.795 -1.93466 5.54837 0
M  V30 2145 H 197.319 -2.85481 5.39753 0
M  V30 2146 H 198.733 -0.603752 5.70112 0
M  V30 2147 H 197.13 0.128968 5.99961 0
M  V30 2148 H 198.2 0.837052 4.77621 0
M  V30 2149 N 199.544 -1.57102 0.125237 0
M  V30 2150 C 200.507 -2.14471 -0.80838 0
M  V30 2151 C 201.507 -1.0811 -1.19033 0
M  V30 2152 O 202.697 -1.33856 -1.11482 0
M  V30 2153 C 199.829 -2.69005 -2.09402 0
M  V30 2154 H 201.022 -2.98297 -0.309696 0
M  V30 2155 H 198.575 -1.55807 -0.124051 0
M  V30 2156 H 199.31 -1.88785 -2.63687 0
M  V30 2157 H 199.095 -3.46799 -1.82957 0
M  V30 2158 H 200.585 -3.13278 -2.76128 0
M  V30 2159 N 201.022 0.148545 -1.56898 0
M  V30 2160 C 202.25 0.876389 -1.87422 0
M  V30 2161 C 202.665 1.74809 -0.713256 0
M  V30 2162 O 202.022 1.79725 0.317025 0
M  V30 2163 C 202.073 1.73438 -3.17178 0
M  V30 2164 O 201.794 0.897809 -4.28802 0
M  V30 2165 C 203.295 2.56993 -3.61205 0
M  V30 2166 H 200.515 0.253489 -0.621277 0
M  V30 2167 H 203.059 0.141798 -2.04008 0
M  V30 2168 H 201.214 2.42205 -3.0235 0
M  V30 2169 H 201.628 1.48672 -5.02988 0
M  V30 2170 H 203.102 3.12773 -4.54838 0
M  V30 2171 H 203.579 3.32958 -2.86419 0
M  V30 2172 H 204.185 1.9352 -3.78722 0
M  V30 2173 N 202.5 1.5196 0.417844 0
M  V30 2174 C 203.432 1.70895 1.52733 0
M  V30 2175 C 204.445 0.589405 1.51756 0
M  V30 2176 O 205.634 0.864312 1.56179 0
M  V30 2177 C 202.734 1.72627 2.91639 0
M  V30 2178 C 201.907 3.01479 3.16905 0
M  V30 2179 C 200.966 2.95139 4.35637 0
M  V30 2180 O 199.992 3.69059 4.3334 0
M  V30 2181 N 201.194 2.12328 5.40275 0
M  V30 2182 H 203.959 2.66612 1.36888 0
M  V30 2183 H 201.52 1.50089 0.607037 0
M  V30 2184 H 203.512 1.65928 3.6912 0
M  V30 2185 H 202.082 0.844216 3.00985 0
M  V30 2186 H 201.302 3.21895 2.27546 0
M  V30 2187 H 202.59 3.86736 3.30625 0
M  V30 2188 H 201.988 1.51685 5.44985 0
M  V30 2189 H 200.545 2.11494 6.16534 0
M  V30 2190 N 203.978 -0.674533 1.42435 0
M  V30 2191 C 204.925 -1.78807 1.45934 0
M  V30 2192 C 205.895 -1.63157 0.311271 0
M  V30 2193 O 207.08 -1.83707 0.515383 0
M  V30 2194 C 204.22 -3.16839 1.36773 0
M  V30 2195 C 203.333 -3.43774 2.61617 0
M  V30 2196 C 202.468 -4.71536 2.44597 0
M  V30 2197 C 201.507 -4.91505 3.64814 0
M  V30 2198 N 200.644 -6.10508 3.46734 0
M  V30 2199 H 205.484 -1.75151 2.41093 0
M  V30 2200 H 203.021 -0.85504 1.19697 0
M  V30 2201 H 204.979 -3.96606 1.29459 0
M  V30 2202 H 203.609 -3.19619 0.452089 0
M  V30 2203 H 202.661 -2.58259 2.79297 0
M  V30 2204 H 203.973 -3.54423 3.50978 0
M  V30 2205 H 203.127 -5.59393 2.3487 0
M  V30 2206 H 201.866 -4.6317 1.52726 0
M  V30 2207 H 200.871 -4.0209 3.74972 0
M  V30 2208 H 202.096 -5.01716 4.57665 0
M  V30 2209 H 200.042 -6.03315 2.5758 0
M  V30 2210 H 199.959 -6.2202 4.29682 0
M  V30 2211 H 201.227 -7.01044 3.40819 0
M  V30 2212 N 205.456 -1.28612 -0.910864 0
M  V30 2213 C 206.686 -1.1862 -1.69153 0
M  V30 2214 C 207.094 0.257324 -1.87442 0
M  V30 2215 O 206.437 1.18543 -1.40332 0
M  V30 2216 C 206.499 -1.81606 -3.10257 0
M  V30 2217 C 206.163 -3.30864 -3.15243 0
M  V30 2218 C 207.16 -4.27256 -2.96223 0
M  V30 2219 C 204.845 -3.71871 -3.37664 0
M  V30 2220 C 206.839 -5.62631 -2.99541 0
M  V30 2221 C 204.526 -5.07371 -3.40614 0
M  V30 2222 C 205.524 -6.02561 -3.21573 0
M  V30 2223 O 205.212 -7.35589 -3.2429 0
M  V30 2224 H 204.944 -0.412633 -0.535453 0
M  V30 2225 H 207.498 -1.70306 -1.14827 0
M  V30 2226 H 205.728 -1.24418 -3.66138 0
M  V30 2227 H 207.417 -1.66092 -3.70362 0
M  V30 2228 H 208.183 -3.9691 -2.78725 0
M  V30 2229 H 204.062 -2.98241 -3.5153 0
M  V30 2230 H 207.606 -6.36907 -2.84597 0
M  V30 2231 H 203.503 -5.37366 -3.57642 0
M  V30 2232 H 204.271 -7.44252 -3.40633 0
M  V30 2233 N 206.934 1.1197 -1.10907 0
M  V30 2234 C 207.881 2.17846 -0.762345 0
M  V30 2235 C 208.851 1.63995 0.263599 0
M  V30 2236 O 210.036 1.90273 0.141773 0
M  V30 2237 C 207.176 3.44487 -0.205651 0
M  V30 2238 C 206.289 4.12369 -1.28748 0
M  V30 2239 C 205.424 5.26674 -0.691919 0
M  V30 2240 C 204.463 5.86431 -1.75399 0
M  V30 2241 N 203.6 6.92142 -1.17833 0
M  V30 2242 H 208.44 2.46851 -1.6694 0
M  V30 2243 H 205.977 1.21188 -0.833776 0
M  V30 2244 H 207.935 4.16981 0.135037 0
M  V30 2245 H 206.565 3.15884 0.664613 0
M  V30 2246 H 205.617 3.38003 -1.74522 0
M  V30 2247 H 206.929 4.52844 -2.09125 0
M  V30 2248 H 206.083 6.05953 -0.300963 0
M  V30 2249 H 204.822 4.8749 0.143232 0
M  V30 2250 H 203.827 5.05835 -2.15432 0
M  V30 2251 H 205.052 6.27685 -2.59208 0
M  V30 2252 H 202.998 6.54985 -0.364725 0
M  V30 2253 H 202.915 7.31242 -1.91887 0
M  V30 2254 H 204.183 7.75237 -0.81408 0
M  V30 2255 N 208.412 0.89855 1.29475 0
M  V30 2256 C 209.64 0.539261 1.99749 0
M  V30 2257 C 210.055 -0.875716 1.67262 0
M  V30 2258 O 209.412 -1.57786 0.917049 0
M  V30 2259 C 209.463 0.72061 3.54245 0
M  V30 2260 O 209.184 2.07989 3.8558 0
M  V30 2261 C 210.685 0.366118 4.41786 0
M  V30 2262 H 207.905 0.207047 0.638258 0
M  V30 2263 H 210.449 1.20758 1.65039 0
M  V30 2264 H 208.604 0.0994862 3.87272 0
M  V30 2265 H 209.018 2.10841 4.80257 0
M  V30 2266 H 210.492 0.543848 5.49314 0
M  V30 2267 H 210.969 -0.696763 4.33638 0
M  V30 2268 H 211.575 0.964135 4.14228 0
M  V30 2269 N 209.89 -1.43072 0.660911 0
M  V30 2270 C 211.118 -2.06067 0.185422 0
M  V30 2271 C 211.533 -1.49582 -1.15198 0
M  V30 2272 O 210.89 -0.630134 -1.71276 0
M  V30 2273 C 210.941 -3.61371 0.0966523 0
M  V30 2274 O 210.662 -4.15758 1.38119 0
M  V30 2275 C 212.163 -4.41455 -0.403996 0
M  V30 2276 H 209.383 -0.664459 0.0934604 0
M  V30 2277 H 211.927 -1.83447 0.90373 0
M  V30 2278 H 210.082 -3.8315 -0.572259 0
M  V30 2279 H 210.496 -5.09499 1.24542 0
M  V30 2280 H 211.97 -5.50437 -0.415045 0
M  V30 2281 H 212.447 -4.15036 -1.43674 0
M  V30 2282 H 213.053 -4.24663 0.232691 0
M  V30 2283 N 211.368 -0.403325 -1.52352 0
M  V30 2284 C 212.617 0.175668 -2.00934 0
M  V30 2285 C 212.93 1.46718 -1.29356 0
M  V30 2286 O 214.136 2.12708 -1.68724 0
M  V30 2287 C 212.592 0.363612 -3.58058 0
M  V30 2288 C 212.2 -0.915472 -4.38547 0
M  V30 2289 C 213.944 0.89821 -4.14888 0
M  V30 2290 C 211.851 -0.695035 -5.87302 0
M  V30 2291 H 210.781 0.0694234 -0.750797 0
M  V30 2292 H 213.432 -0.527879 -1.75743 0
M  V30 2293 H 211.814 1.12935 -3.79555 0
M  V30 2294 H 212.988 -1.68691 -4.28812 0
M  V30 2295 H 211.303 -1.37606 -3.93006 0
M  V30 2296 H 213.9 1.07907 -5.23699 0
M  V30 2297 H 214.243 1.87126 -3.71873 0
M  V30 2298 H 214.776 0.191681 -3.97338 0
M  V30 2299 H 211.515 -1.63948 -6.34666 0
M  V30 2300 H 211.035 0.0372116 -5.99788 0
M  V30 2301 H 212.714 -0.33497 -6.46132 0
M  V30 2302 N 212.846 1.57033 -0.133567 0
M  V30 2303 C 214.071 2.00475 0.531477 0
M  V30 2304 C 214.496 1.01291 1.58499 0
M  V30 2305 O 213.854 -0.0133279 1.81295 0
M  V30 2306 C 213.902 3.42729 1.12113 0
M  V30 2307 O 213.006 3.46498 2.23636 0
M  V30 2308 H 212.347 0.650876 0.131362 0
M  V30 2309 H 214.877 2.03344 -0.22634 0
M  V30 2310 H 214.887 3.81246 1.4531 0
M  V30 2311 H 213.562 4.14428 0.349557 0
M  V30 2312 H 212.139 3.19811 1.91769 0
M  V30 2313 N 214.325 -0.140222 1.56975 0
M  V30 2314 C 215.272 -1.17292 1.98774 0
M  V30 2315 C 216.242 -1.4232 0.856408 0
M  V30 2316 O 217.427 -1.54541 1.119 0
M  V30 2317 C 214.567 -2.49973 2.37923 0
M  V30 2318 C 213.68 -2.32062 3.64378 0
M  V30 2319 C 212.815 -3.57825 3.926 0
M  V30 2320 C 211.854 -3.3498 5.12303 0
M  V30 2321 N 210.991 -4.52891 5.36502 0
M  V30 2322 H 215.831 -0.809472 2.86795 0
M  V30 2323 H 213.368 -0.388237 1.41884 0
M  V30 2324 H 215.326 -3.27346 2.58652 0
M  V30 2325 H 213.956 -2.84252 1.52972 0
M  V30 2326 H 213.008 -1.45711 3.51387 0
M  V30 2327 H 214.32 -2.11145 4.51906 0
M  V30 2328 H 213.474 -4.43624 4.13863 0
M  V30 2329 H 212.213 -3.81753 3.03506 0
M  V30 2330 H 211.218 -2.4757 4.90906 0
M  V30 2331 H 212.443 -3.12444 6.02956 0
M  V30 2332 H 210.389 -4.76979 4.50363 0
M  V30 2333 H 210.306 -4.35001 6.18312 0
M  V30 2334 H 211.574 -5.39884 5.62268 0
M  V30 2335 N 215.803 -1.52179 -0.40978 0
M  V30 2336 C 216.735 -1.71703 -1.51825 0
M  V30 2337 C 217.748 -0.597445 -1.51441 0
M  V30 2338 O 218.937 -0.872582 -1.55719 0
M  V30 2339 C 216.037 -1.74171 -2.90719 0
M  V30 2340 C 215.21 -3.03156 -3.15302 0
M  V30 2341 C 214.269 -2.97445 -4.34065 0
M  V30 2342 O 213.295 -3.71352 -4.31377 0
M  V30 2343 N 214.497 -2.15191 -5.39141 0
M  V30 2344 H 217.262 -2.67334 -1.35472 0
M  V30 2345 H 214.823 -1.50409 -0.599069 0
M  V30 2346 H 216.815 -1.67884 -3.68235 0
M  V30 2347 H 215.385 -0.860166 -3.00533 0
M  V30 2348 H 214.605 -3.23097 -2.25836 0
M  V30 2349 H 215.893 -3.88484 -3.28569 0
M  V30 2350 H 215.291 -1.54573 -5.44173 0
M  V30 2351 H 213.848 -2.1476 -6.15403 0
M  V30 2352 N 217.281 0.66697 -1.42791 0
M  V30 2353 C 218.558 1.4234 -1.34159 0
M  V30 2354 C 218.938 2.11093 0.0172729 0
M  V30 2355 O 218.286 2.03808 1.03318 0
M  V30 2356 C 218.496 2.41942 -2.51526 0
M  V30 2357 C 219.844 3.06353 -2.93995 0
M  V30 2358 O 220.868 2.52269 -2.51473 0
M  V30 2359 O 219.727 4.04376 -3.67617 0
M  V30 2360 H 216.821 0.635277 -0.529483 0
M  V30 2361 H 219.367 0.695034 -1.54814 0
M  V30 2362 H 218.139 1.89991 -3.42081 0
M  V30 2363 H 217.762 3.22249 -2.32898 0
M  V30 2364 N 218.759 1.29093 0.90403 0
M  V30 2365 C 220.036 1.075 1.63411 0
M  V30 2366 C 220.416 -0.382346 2.07609 0
M  V30 2367 O 219.764 -1.37031 1.82851 0
M  V30 2368 C 219.974 2.05858 2.81822 0
M  V30 2369 C 221.322 2.36539 3.52611 0
M  V30 2370 O 222.346 2.04019 2.91984 0
M  V30 2371 O 221.205 2.92085 4.61897 0
M  V30 2372 H 218.299 0.411547 0.717327 0
M  V30 2373 H 220.845 1.40449 0.952479 0
M  V30 2374 H 219.617 3.04037 2.46327 0
M  V30 2375 H 219.24 1.73613 3.57693 0
M  V30 2376 N 220.237 -1.11381 1.11499 0
M  V30 2377 C 221.514 -1.7955 0.775965 0
M  V30 2378 C 221.894 -1.97859 -0.73588 0
M  V30 2379 O 221.242 -1.56376 -1.66609 0
M  V30 2380 C 221.452 -3.13196 1.53977 0
M  V30 2381 C 222.8 -3.88227 1.71944 0
M  V30 2382 O 223.824 -3.22887 1.50407 0
M  V30 2383 O 222.683 -5.05477 2.07738 0
M  V30 2384 H 219.777 -0.777728 0.28119 0
M  V30 2385 H 222.323 -1.18118 1.21845 0
M  V30 2386 H 221.095 -2.95229 2.56818 0
M  V30 2387 H 220.718 -3.82342 1.09088 0
M  V30 2388 N 221.715 -0.905404 -1.28997 0
M  V30 2389 C 222.961 -0.544465 -1.95977 0
M  V30 2390 C 223.316 0.90041 -1.70031 0
M  V30 2391 O 222.609 1.63064 -1.00601 0
M  V30 2392 C 222.803 -0.779906 -3.48787 0
M  V30 2393 C 222.632 -2.24612 -3.89589 0
M  V30 2394 C 221.402 -2.89464 -4.14172 0
M  V30 2395 C 223.6 -3.22182 -4.00878 0
M  V30 2396 N 221.582 -4.26469 -4.41585 0
M  V30 2397 C 222.953 -4.44323 -4.32409 0
M  V30 2398 C 225.008 -3.17694 -3.83373 0
M  V30 2399 C 223.711 -5.62546 -4.48258 0
M  V30 2400 C 225.737 -4.35208 -4.00435 0
M  V30 2401 C 225.099 -5.56121 -4.3233 0
M  V30 2402 H 221.198 -0.248948 -0.741316 0
M  V30 2403 H 223.782 -1.1674 -1.5582 0
M  V30 2404 H 221.953 -0.186308 -3.87953 0
M  V30 2405 H 223.685 -0.383833 -4.02876 0
M  V30 2406 H 220.44 -2.40232 -4.08149 0
M  V30 2407 H 220.864 -4.97283 -4.5939 0
M  V30 2408 H 225.506 -2.25297 -3.57773 0
M  V30 2409 H 223.224 -6.55429 -4.72692 0
M  V30 2410 H 226.81 -4.33228 -3.88336 0
M  V30 2411 H 225.69 -6.45537 -4.45255 0
M  V30 2412 N 223.193 1.4272 -0.668489 0
M  V30 2413 C 224.14 2.30796 0.0137489 0
M  V30 2414 C 225.11 1.4561 0.799177 0
M  V30 2415 O 226.295 1.74453 0.772702 0
M  V30 2416 C 223.435 3.31377 0.963507 0
M  V30 2417 C 222.548 4.31655 0.172569 0
M  V30 2418 C 221.683 5.19312 1.1175 0
M  V30 2419 C 220.722 6.11274 0.317886 0
M  V30 2420 N 219.859 6.91504 1.2152 0
M  V30 2421 H 224.699 2.88585 -0.743161 0
M  V30 2422 H 222.236 1.42154 -0.378226 0
M  V30 2423 H 224.194 3.88214 1.52792 0
M  V30 2424 H 222.824 2.75202 1.68712 0
M  V30 2425 H 221.876 3.76988 -0.508374 0
M  V30 2426 H 223.188 4.96779 -0.448527 0
M  V30 2427 H 222.342 5.80851 1.75206 0
M  V30 2428 H 221.081 4.5435 1.77249 0
M  V30 2429 H 220.086 5.48809 -0.329918 0
M  V30 2430 H 221.311 6.78283 -0.332917 0
M  V30 2431 H 219.257 6.29176 1.85671 0
M  V30 2432 H 219.174 7.53209 0.649036 0
M  V30 2433 H 220.442 7.57535 1.83742 0
M  V30 2434 N 224.671 0.411399 1.52136 0
M  V30 2435 C 225.92 -0.165009 2.01024 0
M  V30 2436 C 226.233 -1.4603 1.30133 0
M  V30 2437 O 227.439 -2.1181 1.69849 0
M  V30 2438 C 225.895 -0.344618 3.58246 0
M  V30 2439 C 225.503 0.938716 4.38055 0
M  V30 2440 C 227.247 -0.876195 4.15359 0
M  V30 2441 C 225.154 0.726172 5.86925 0
M  V30 2442 H 224.084 -0.0654407 0.751155 0
M  V30 2443 H 226.735 0.537192 1.75461 0
M  V30 2444 H 225.117 -1.10921 3.80148 0
M  V30 2445 H 226.291 1.70963 4.27912 0
M  V30 2446 H 224.606 1.39688 3.92271 0
M  V30 2447 H 227.203 -1.05128 5.24263 0
M  V30 2448 H 227.546 -1.85152 3.7286 0
M  V30 2449 H 228.079 -0.170607 3.97434 0
M  V30 2450 H 224.818 1.67312 6.33788 0
M  V30 2451 H 224.338 -0.00540283 5.998 0
M  V30 2452 H 226.017 0.369231 6.45946 0
M  V30 2453 N 226.149 -1.5696 0.141893 0
M  V30 2454 C 227.426 -1.87553 -0.555281 0
M  V30 2455 C 227.806 -1.04699 -1.83306 0
M  V30 2456 O 227.154 -0.132346 -2.28116 0
M  V30 2457 C 227.364 -3.39093 -0.825664 0
M  V30 2458 C 228.712 -4.08199 -1.16869 0
M  V30 2459 O 229.736 -3.44242 -0.915185 0
M  V30 2460 O 228.595 -5.21139 -1.6455 0
M  V30 2461 H 225.689 -0.777188 -0.282679 0
M  V30 2462 H 228.235 -1.68763 0.17812 0
M  V30 2463 H 227.007 -3.91221 0.0788633 0
M  V30 2464 H 226.63 -3.63393 -1.61343 0
M  V30 2465 N 227.627 0.131896 -1.57047 0
M  V30 2466 C 228.873 0.838268 -1.85323 0
M  V30 2467 C 229.228 1.78098 -0.727937 0
M  V30 2468 O 228.521 1.89645 0.27304 0
M  V30 2469 C 228.715 1.63703 -3.17704 0
M  V30 2470 C 228.544 0.773167 -4.43004 0
M  V30 2471 C 227.314 0.432956 -5.03442 0
M  V30 2472 C 229.512 0.0966216 -5.14209 0
M  V30 2473 N 227.494 -0.442924 -6.123 0
M  V30 2474 C 228.865 -0.638778 -6.16701 0
M  V30 2475 C 230.92 0.018861 -4.97896 0
M  V30 2476 C 229.623 -1.44462 -7.04644 0
M  V30 2477 C 231.649 -0.773762 -5.86316 0
M  V30 2478 C 231.011 -1.4974 -6.883 0
M  V30 2479 H 227.11 0.284086 -0.728573 0
M  V30 2480 H 229.694 0.102731 -1.94429 0
M  V30 2481 H 227.865 2.3437 -3.09718 0
M  V30 2482 H 229.597 2.28774 -3.33833 0
M  V30 2483 H 226.352 0.772237 -4.67262 0
M  V30 2484 H 226.776 -0.872332 -6.71356 0
M  V30 2485 H 231.418 0.56397 -4.19022 0
M  V30 2486 H 229.136 -2.00093 -7.82936 0
M  V30 2487 H 232.722 -0.83612 -5.75761 0
M  V30 2488 H 231.602 -2.10087 -7.55535 0
M  V30 2489 N 229.106 1.52395 0.401703 0
M  V30 2490 C 230.053 1.76268 1.48991 0
M  V30 2491 C 231.023 0.605386 1.54675 0
M  V30 2492 O 232.208 0.843742 1.7113 0
M  V30 2493 C 229.348 1.92592 2.86361 0
M  V30 2494 C 228.461 3.20259 2.89928 0
M  V30 2495 C 227.596 3.26972 4.18644 0
M  V30 2496 C 226.635 4.48812 4.16214 0
M  V30 2497 N 225.772 4.52877 5.36514 0
M  V30 2498 H 230.612 2.6914 1.27935 0
M  V30 2499 H 228.149 1.33355 0.620871 0
M  V30 2500 H 230.107 2.0004 3.66115 0
M  V30 2501 H 228.737 1.03093 3.05895 0
M  V30 2502 H 227.789 3.21945 2.02621 0
M  V30 2503 H 229.101 4.10056 2.83999 0
M  V30 2504 H 228.255 3.33533 5.06794 0
M  V30 2505 H 226.994 2.35126 4.27278 0
M  V30 2506 H 225.999 4.4239 3.26453 0
M  V30 2507 H 227.224 5.41961 4.09213 0
M  V30 2508 H 225.17 3.63917 5.45802 0
M  V30 2509 H 225.087 5.36529 5.32609 0
M  V30 2510 H 226.355 4.63676 6.26597 0
M  V30 2511 N 230.584 -0.659388 1.43143 0
M  V30 2512 C 231.995 -1.24041 1.39537 0
M  V30 2513 C 232.346 -1.95963 0.0963364 0
M  V30 2514 O 231.471 -2.00892 -0.804438 0
M  V30 2515 C 232.066 -2.25601 2.52764 0
M  V30 2516 C 230.625 -2.79195 2.52443 0
M  V30 2517 C 229.772 -1.53743 2.30778 0
M  V30 2518 H 232.723 -0.451792 1.52133 0
M  V30 2519 H 232.744 -3.07651 2.23899 0
M  V30 2520 H 232.256 -1.73226 3.47296 0
M  V30 2521 H 230.357 -3.35649 1.61773 0
M  V30 2522 H 230.47 -3.2716 3.50004 0
M  V30 2523 H 228.834 -1.80869 1.79328 0
M  V30 2524 H 229.617 -1.03312 3.27386 0
M  V30 2525 N 232.062 -1.29571 -0.897171 0
M  V30 2526 C 233.025 -1.14913 -1.98312 0
M  V30 2527 C 234.025 -0.0838629 -1.60581 0
M  V30 2528 O 235.215 -0.331006 -1.71026 0
M  V30 2529 C 232.347 -0.757835 -3.3237 0
M  V30 2530 H 233.54 -2.11377 -2.12743 0
M  V30 2531 H 231.093 -1.12793 -1.08201 0
M  V30 2532 H 231.828 0.206837 -3.2364 0
M  V30 2533 H 231.613 -1.52755 -3.61121 0
M  V30 2534 H 233.103 -0.678408 -4.12053 0
M  V30 2535 N 233.54 1.10788 -1.12088 0
M  V30 2536 C 234.47 2.19083 -0.807755 0
M  V30 2537 C 235.451 1.6858 0.226859 0
M  V30 2538 O 236.636 1.93997 0.0888475 0
M  V30 2539 C 233.766 3.46344 -0.257576 0
M  V30 2540 C 232.72 4.101 -1.22483 0
M  V30 2541 C 232.046 5.32016 -0.535052 0
M  V30 2542 C 233.346 4.54236 -2.57811 0
M  V30 2543 H 235.04 2.45534 -1.71328 0
M  V30 2544 H 232.586 1.1801 -0.825205 0
M  V30 2545 H 234.539 4.21392 -0.0262679 0
M  V30 2546 H 233.263 3.19373 0.683278 0
M  V30 2547 H 231.922 3.37054 -1.44189 0
M  V30 2548 H 231.57 5.01319 0.410827 0
M  V30 2549 H 231.27 5.75625 -1.18024 0
M  V30 2550 H 232.794 6.09799 -0.312695 0
M  V30 2551 H 234.208 5.20575 -2.40155 0
M  V30 2552 H 232.605 5.08682 -3.18375 0
M  V30 2553 H 233.675 3.6734 -3.16528 0
M  V30 2554 N 235.018 0.912232 1.28515 0
M  V30 2555 C 236.267 0.540504 1.94323 0
M  V30 2556 C 236.58 -0.920044 1.72611 0
M  V30 2557 O 237.786 -1.39986 2.32629 0
M  V30 2558 C 236.242 0.915803 3.48053 0
M  V30 2559 C 235.85 2.39598 3.78546 0
M  V30 2560 C 237.594 0.614588 4.20027 0
M  V30 2561 C 235.501 2.71148 5.25578 0
M  V30 2562 H 234.431 0.198418 0.727424 0
M  V30 2563 H 237.082 1.11094 1.46049 0
M  V30 2564 H 235.464 0.274168 3.9505 0
M  V30 2565 H 236.638 3.08422 3.42364 0
M  V30 2566 H 234.953 2.66749 3.1974 0
M  V30 2567 H 237.55 0.827002 5.28266 0
M  V30 2568 H 237.893 -0.447531 4.13887 0
M  V30 2569 H 238.426 1.21462 3.78803 0
M  V30 2570 H 235.165 3.76207 5.36794 0
M  V30 2571 H 234.685 2.0696 5.62963 0
M  V30 2572 H 236.364 2.58072 5.93302 0
M  V30 2573 N 236.496 -1.42363 0.676048 0
M  V30 2574 C 237.743 -2.01522 0.19883 0
M  V30 2575 C 238.071 -1.53456 -1.19505 0
M  V30 2576 O 237.326 -0.727967 -1.81657 0
M  V30 2577 C 237.625 -3.56929 0.183431 0
M  V30 2578 C 237.291 -4.24431 1.52215 0
M  V30 2579 C 235.953 -4.42585 1.8887 0
M  V30 2580 C 238.305 -4.62459 2.40377 0
M  V30 2581 C 235.633 -4.96039 3.13309 0
M  V30 2582 C 237.985 -5.17294 3.64129 0
M  V30 2583 C 236.649 -5.33661 4.00951 0
M  V30 2584 H 235.919 -0.737419 0.0727571 0
M  V30 2585 H 238.566 -1.70531 0.871281 0
M  V30 2586 H 236.871 -3.87594 -0.572532 0
M  V30 2587 H 238.568 -4.00486 -0.203035 0
M  V30 2588 H 235.158 -4.10661 1.22701 0
M  V30 2589 H 239.342 -4.48105 2.13343 0
M  V30 2590 H 234.598 -5.06896 3.41857 0
M  V30 2591 H 238.772 -5.45704 4.32644 0
M  V30 2592 H 236.399 -5.74845 4.9745 0
M  V30 2593 N 237.974 -0.419461 -1.51915 0
M  V30 2594 C 239.385 0.0477853 -1.86639 0
M  V30 2595 C 239.736 1.43531 -1.33766 0
M  V30 2596 O 238.861 2.05401 -0.68113 0
M  V30 2597 C 239.456 0.0934885 -3.38671 0
M  V30 2598 C 238.015 0.505097 -3.72996 0
M  V30 2599 C 237.162 -0.313792 -2.75519 0
M  V30 2600 H 240.113 -0.636088 -1.45395 0
M  V30 2601 H 240.134 0.906667 -3.6954 0
M  V30 2602 H 239.646 -0.916501 -3.77123 0
M  V30 2603 H 237.747 1.52135 -3.40126 0
M  V30 2604 H 237.86 0.242309 -4.78487 0
M  V30 2605 H 236.224 0.225363 -2.53701 0
M  V30 2606 H 237.007 -1.32232 -3.16812 0
M  V30 2607 N 239.452 1.56882 -0.150215 0
M  V30 2608 C 240.7 1.9584 0.499105 0
M  V30 2609 C 241.021 1.03623 1.65188 0
M  V30 2610 O 240.291 0.0984084 1.95653 0
M  V30 2611 H 238.871 0.723119 0.187373 0
M  V30 2612 H 241.533 1.9358 -0.226466 0
M  V30 2613 H 240.629 2.99638 0.873122 0
M  V30 2614 N 240.93 -0.123565 1.57115 0
M  V30 2615 C 241.863 -1.18202 1.95201 0
M  V30 2616 C 242.841 -1.40349 0.821031 0
M  V30 2617 O 244.025 -1.54578 1.07879 0
M  V30 2618 C 241.152 -2.53671 2.24429 0
M  V30 2619 C 240.198 -2.4798 3.46999 0
M  V30 2620 S 241.031 -1.92389 4.99747 0
M  V30 2621 C 242.187 -3.2954 5.32123 0
M  V30 2622 H 242.42 -0.857212 2.84674 0
M  V30 2623 H 239.953 -0.33014 1.50829 0
M  V30 2624 H 241.911 -3.3162 2.41947 0
M  V30 2625 H 240.572 -2.83332 1.35579 0
M  V30 2626 H 239.765 -3.47758 3.64801 0
M  V30 2627 H 239.367 -1.7815 3.28844 0
M  V30 2628 H 241.659 -4.25736 5.27025 0
M  V30 2629 H 242.602 -3.16569 6.33395 0
M  V30 2630 H 243.01 -3.27758 4.59603 0
M  V30 2631 N 242.408 -1.52605 -0.393616 0
M  V30 2632 C 243.654 -1.67672 -1.14079 0
M  V30 2633 C 243.987 -0.413121 -1.89755 0
M  V30 2634 O 243.262 0.588952 -1.85369 0
M  V30 2635 C 243.545 -2.9088 -2.12276 0
M  V30 2636 C 243.398 -4.27329 -1.40394 0
M  V30 2637 C 244.717 -3.09628 -3.12759 0
M  V30 2638 H 241.836 -0.610168 -0.413356 0
M  V30 2639 H 244.478 -1.85193 -0.424696 0
M  V30 2640 H 242.628 -2.76073 -2.73342 0
M  V30 2641 H 244.3 -4.53894 -0.82327 0
M  V30 2642 H 242.543 -4.2802 -0.705801 0
M  V30 2643 H 243.214 -5.09615 -2.12123 0
M  V30 2644 H 245.69 -3.23436 -2.61779 0
M  V30 2645 H 244.566 -3.97322 -3.78717 0
M  V30 2646 H 244.827 -2.23637 -3.81365 0
M  V30 2647 N 243.887 0.651787 -1.4349 0
M  V30 2648 C 244.834 1.76462 -1.4876 0
M  V30 2649 C 245.804 1.62641 -0.337189 0
M  V30 2650 O 246.989 1.82864 -0.544544 0
M  V30 2651 C 244.129 3.14623 -1.41796 0
M  V30 2652 C 243.242 3.39568 -2.67053 0
M  V30 2653 C 242.377 4.67585 -2.52068 0
M  V30 2654 C 241.416 4.85639 -3.72587 0
M  V30 2655 N 240.553 6.04915 -3.56402 0
M  V30 2656 H 245.393 1.71293 -2.43849 0
M  V30 2657 H 242.93 0.835889 -1.21043 0
M  V30 2658 H 244.888 3.94496 -1.35753 0
M  V30 2659 H 243.518 3.18859 -0.50288 0
M  V30 2660 H 242.57 2.53783 -2.8337 0
M  V30 2661 H 243.882 3.48795 -3.56572 0
M  V30 2662 H 243.036 5.55586 -2.4374 0
M  V30 2663 H 241.775 4.60681 -1.60075 0
M  V30 2664 H 240.78 3.96073 -3.81321 0
M  V30 2665 H 242.005 4.94372 -4.65589 0
M  V30 2666 H 239.951 5.9914 -2.67146 0
M  V30 2667 H 239.868 6.15106 -4.39524 0
M  V30 2668 H 241.136 6.95533 -3.51929 0
M  V30 2669 N 245.365 1.30045 0.890287 0
M  V30 2670 C 246.593 1.21472 1.67487 0
M  V30 2671 C 247.008 -0.223241 1.87476 0
M  V30 2672 O 246.365 -1.14828 1.41847 0
M  V30 2673 C 246.416 1.93394 3.05419 0
M  V30 2674 O 246.137 3.31576 2.86337 0
M  V30 2675 C 247.638 1.91414 3.99844 0
M  V30 2676 H 244.858 0.420604 0.522813 0
M  V30 2677 H 247.402 1.7158 1.11268 0
M  V30 2678 H 245.557 1.47099 3.58386 0
M  V30 2679 H 245.971 3.67929 3.73802 0
M  V30 2680 H 247.445 2.46285 4.94012 0
M  V30 2681 H 247.922 0.891833 4.3005 0
M  V30 2682 H 248.528 2.37496 3.52811 0
M  V30 2683 N 246.843 -1.10192 1.12674 0
M  V30 2684 C 248.12 -1.78717 0.794965 0
M  V30 2685 C 248.5 -1.98628 -0.714853 0
M  V30 2686 O 247.848 -1.58135 -1.64941 0
M  V30 2687 C 248.058 -3.11546 1.5729 0
M  V30 2688 C 249.406 -3.86382 1.76052 0
M  V30 2689 O 250.43 -3.21274 1.53823 0
M  V30 2690 O 249.289 -5.03246 2.13087 0
M  V30 2691 H 246.383 -0.774702 0.289423 0
M  V30 2692 H 248.929 -1.16819 1.23091 0
M  V30 2693 H 247.701 -2.92489 2.59935 0
M  V30 2694 H 247.324 -3.81164 1.13137 0
M  V30 2695 N 248.321 -0.919034 -1.28029 0
M  V30 2696 C 249.268 -0.410005 -2.27129 0
M  V30 2697 C 250.238 0.518405 -1.57803 0
M  V30 2698 O 251.423 0.439451 -1.8567 0
M  V30 2699 C 248.563 0.339054 -3.4343 0
M  V30 2700 C 247.676 -0.622468 -4.27492 0
M  V30 2701 C 246.811 0.145567 -5.31001 0
M  V30 2702 C 245.85 -0.809226 -6.06727 0
M  V30 2703 N 244.987 -0.0743728 -7.02061 0
M  V30 2704 H 249.827 -1.26011 -2.70047 0
M  V30 2705 H 247.364 -0.632663 -1.328 0
M  V30 2706 H 249.322 0.789586 -4.0966 0
M  V30 2707 H 247.952 1.15346 -3.01488 0
M  V30 2708 H 247.004 -1.19153 -3.61257 0
M  V30 2709 H 248.316 -1.35252 -4.80113 0
M  V30 2710 H 247.47 0.656417 -6.03139 0
M  V30 2711 H 246.209 0.908643 -4.79161 0
M  V30 2712 H 245.214 -1.3314 -5.33436 0
M  V30 2713 H 246.439 -1.57194 -6.60656 0
M  V30 2714 H 244.385 0.670616 -6.52563 0
M  V30 2715 H 244.302 -0.744157 -7.52329 0
M  V30 2716 H 245.57 0.416109 -7.78389 0
M  V30 2717 N 249.799 1.42003 -0.683588 0
M  V30 2718 C 251.045 2.01712 -0.209825 0
M  V30 2719 C 251.378 1.53968 1.18353 0
M  V30 2720 O 250.653 0.745661 1.79639 0
M  V30 2721 C 250.936 3.59202 -0.254197 0
M  V30 2722 C 250.789 4.17102 -1.68363 0
M  V30 2723 C 252.108 4.38344 0.392709 0
M  V30 2724 H 249.227 0.732891 -0.0777189 0
M  V30 2725 H 251.869 1.68909 -0.87004 0
M  V30 2726 H 250.019 3.87278 0.307954 0
M  V30 2727 H 251.691 3.99946 -2.29871 0
M  V30 2728 H 249.934 3.72597 -2.22157 0
M  V30 2729 H 250.605 5.26249 -1.6663 0
M  V30 2730 H 253.081 4.16011 -0.0859162 0
M  V30 2731 H 251.957 5.47901 0.331063 0
M  V30 2732 H 252.218 4.16887 1.47164 0
M  V30 2733 N 251.277 0.427512 1.51691 0
M  V30 2734 C 252.693 0.0792977 1.59403 0
M  V30 2735 C 252.893 -1.41035 1.43914 0
M  V30 2736 O 251.949 -2.17922 1.27539 0
M  V30 2737 C 253.262 0.590636 2.94842 0
M  V30 2738 C 254.81 0.550215 3.08126 0
M  V30 2739 C 255.285 1.03836 4.46074 0
M  V30 2740 N 256.776 0.995943 4.52366 0
M  V30 2741 C 257.511 1.34463 5.57411 0
M  V30 2742 N 257.007 1.76569 6.69922 0
M  V30 2743 N 258.8 1.26343 5.47717 0
M  V30 2744 H 250.951 1.39687 1.60004 0
M  V30 2745 H 253.214 0.575003 0.753708 0
M  V30 2746 H 252.92 1.63251 3.11516 0
M  V30 2747 H 252.794 0.0102061 3.77199 0
M  V30 2748 H 255.181 -0.482654 2.91126 0
M  V30 2749 H 255.262 1.16693 2.27632 0
M  V30 2750 H 254.906 2.06965 4.63819 0
M  V30 2751 H 254.836 0.398286 5.25092 0
M  V30 2752 H 257.327 0.68661 3.7161 0
M  V30 2753 H 257.64 2.01438 7.46085 0
M  V30 2754 H 255.985 1.80488 6.71155 0
M  V30 2755 H 259.176 0.933209 4.58703 0
M  V30 2756 H 259.349 1.53846 6.29472 0
M  V30 2757 N 252.755 -1.56801 0.158532 0
M  V30 2758 C 254.004 -1.95665 -0.489702 0
M  V30 2759 C 254.317 -1.04654 -1.65248 0
M  V30 2760 O 255.523 -1.33146 -2.3661 0
M  V30 2761 C 253.979 -3.47874 -0.922582 0
M  V30 2762 C 253.587 -4.47489 0.213893 0
M  V30 2763 C 255.331 -3.95583 -1.53996 0
M  V30 2764 C 253.238 -5.90921 -0.237903 0
M  V30 2765 H 252.168 -0.730516 -0.186716 0
M  V30 2766 H 254.819 -1.81861 0.244722 0
M  V30 2767 H 253.201 -3.57051 -1.71261 0
M  V30 2768 H 254.375 -4.50017 0.991036 0
M  V30 2769 H 252.69 -4.09764 0.740407 0
M  V30 2770 H 255.287 -5.0019 -1.8898 0
M  V30 2771 H 255.63 -3.37789 -2.43319 0
M  V30 2772 H 256.163 -3.8937 -0.814611 0
M  V30 2773 H 252.902 -6.52559 0.620236 0
M  V30 2774 H 252.422 -5.91729 -0.980676 0
M  V30 2775 H 254.101 -6.43352 -0.686067 0
M  V30 2776 N 254.233 0.115231 -1.57178 0
M  V30 2777 C 255.461 0.836437 -1.89239 0
M  V30 2778 C 255.876 1.73256 -0.750175 0
M  V30 2779 O 255.233 1.80357 0.278832 0
M  V30 2780 C 255.284 1.66671 -3.20785 0
M  V30 2781 O 255.005 0.806652 -4.3061 0
M  V30 2782 C 256.506 2.49274 -3.66575 0
M  V30 2783 H 253.726 0.240253 -0.626514 0
M  V30 2784 H 256.27 0.0984932 -2.04263 0
M  V30 2785 H 254.425 2.35737 -3.0742 0
M  V30 2786 H 254.839 1.37969 -5.06028 0
M  V30 2787 H 256.313 3.03055 -4.6137 0
M  V30 2788 H 256.79 3.26807 -2.93417 0
M  V30 2789 H 257.396 1.85443 -3.82741 0
M  V30 2790 N 255.711 1.52812 0.385517 0
M  V30 2791 C 256.621 1.80766 1.49535 0
M  V30 2792 C 257.637 0.694651 1.59532 0
M  V30 2793 O 258.813 0.982611 1.75803 0
M  V30 2794 C 255.878 1.97381 2.85029 0
M  V30 2795 C 254.939 3.21295 2.84724 0
M  V30 2796 C 254.172 3.37108 4.13756 0
M  V30 2797 O 254.395 2.5765 5.08893 0
M  V30 2798 O 253.329 4.30378 4.20783 0
M  V30 2799 H 257.155 2.75015 1.28842 0
M  V30 2800 H 254.74 1.37946 0.573697 0
M  V30 2801 H 256.622 2.09996 3.65349 0
M  V30 2802 H 255.297 1.06322 3.05741 0
M  V30 2803 H 254.204 3.1412 2.03174 0
M  V30 2804 H 255.537 4.12212 2.68965 0
M  V30 2805 N 257.189 -0.644168 1.43834 0
M  V30 2806 C 258.466 -1.40188 1.36406 0
M  V30 2807 C 258.846 -2.11094 0.0163124 0
M  V30 2808 O 258.194 -2.05426 -1.00062 0
M  V30 2809 C 258.404 -2.3791 2.55343 0
M  V30 2810 C 259.752 -3.01637 2.98832 0
M  V30 2811 O 260.776 -2.48237 2.55455 0
M  V30 2812 O 259.635 -3.98477 3.74003 0
M  V30 2813 H 256.729 -0.626773 0.539523 0
M  V30 2814 H 259.275 -0.670317 1.559 0
M  V30 2815 H 258.047 -1.84525 3.4506 0
M  V30 2816 H 257.67 -3.18503 2.37995 0
M  V30 2817 N 258.668 -1.30515 -0.883378 0
M  V30 2818 C 259.578 -1.18959 -2.02203 0
M  V30 2819 C 260.594 -0.109172 -1.73657 0
M  V30 2820 O 261.77 -0.324413 -1.9877 0
M  V30 2821 C 258.835 -0.883871 -3.35244 0
M  V30 2822 C 257.896 -2.04982 -3.77201 0
M  V30 2823 C 257.129 -1.75859 -5.03894 0
M  V30 2824 O 257.352 -0.687276 -5.66244 0
M  V30 2825 O 256.286 -2.61146 -5.42297 0
M  V30 2826 H 260.112 -2.14616 -2.1488 0
M  V30 2827 H 257.697 -1.10124 -1.0096 0
M  V30 2828 H 259.579 -0.728644 -4.15053 0
M  V30 2829 H 258.254 0.0427798 -3.23672 0
M  V30 2830 H 257.161 -2.26038 -2.9809 0
M  V30 2831 H 258.494 -2.95825 -3.93381 0
M  V30 2832 N 260.146 1.09593 -1.13257 0
M  V30 2833 C 261.109 2.14359 -0.811358 0
M  V30 2834 C 262.109 1.59808 0.178377 0
M  V30 2835 O 263.299 1.74132 -0.0484911 0
M  V30 2836 C 260.431 3.40269 -0.207276 0
M  V30 2837 H 261.624 2.44284 -1.73969 0
M  V30 2838 H 259.177 1.25102 -0.936973 0
M  V30 2839 H 259.912 3.15969 0.73036 0
M  V30 2840 H 259.697 3.81154 -0.919992 0
M  V30 2841 H 261.187 4.176 0.000667944 0
M  V30 2842 N 261.624 0.925811 1.2754 0
M  V30 2843 C 262.534 0.428993 2.30644 0
M  V30 2844 C 263.55 -0.489387 1.66976 0
M  V30 2845 O 264.726 -0.372653 1.97922 0
M  V30 2846 C 261.791 -0.311967 3.45294 0
M  V30 2847 C 260.852 0.641098 4.24486 0
M  V30 2848 C 260.085 -0.0645955 5.33661 0
M  V30 2849 O 260.308 -1.28429 5.55754 0
M  V30 2850 O 259.242 0.606265 5.98839 0
M  V30 2851 H 263.068 1.28504 2.75173 0
M  V30 2852 H 260.653 0.691086 1.32455 0
M  V30 2853 H 262.535 -0.729972 4.15029 0
M  V30 2854 H 261.21 -1.14365 3.02824 0
M  V30 2855 H 260.117 1.10874 3.57292 0
M  V30 2856 H 261.45 1.43995 4.70666 0
M  V30 2857 N 263.102 -1.41638 0.69111 0
M  V30 2858 C 264.518 -1.55435 0.362224 0
M  V30 2859 C 264.718 -1.66754 -1.13117 0
M  V30 2860 O 263.774 -1.64348 -1.91692 0
M  V30 2861 C 265.087 -2.79588 1.10684 0
M  V30 2862 C 266.635 -2.9338 1.09075 0
M  V30 2863 C 267.11 -4.20414 1.81703 0
M  V30 2864 N 268.601 -4.27362 1.7865 0
M  V30 2865 C 269.336 -5.24507 2.31689 0
M  V30 2866 N 268.832 -6.27708 2.93179 0
M  V30 2867 N 270.625 -5.16416 2.2197 0
M  V30 2868 H 262.776 -1.32536 1.65976 0
M  V30 2869 H 265.039 -0.639115 0.700168 0
M  V30 2870 H 264.745 -2.77419 2.16175 0
M  V30 2871 H 264.619 -3.70973 0.682545 0
M  V30 2872 H 267.006 -2.95067 0.0441238 0
M  V30 2873 H 267.087 -2.0318 1.55407 0
M  V30 2874 H 266.731 -4.19488 2.86343 0
M  V30 2875 H 266.661 -5.09578 1.32808 0
M  V30 2876 H 269.152 -3.53415 1.33815 0
M  V30 2877 H 269.465 -6.98217 3.31229 0
M  V30 2878 H 267.81 -6.28223 2.97255 0
M  V30 2879 H 271.001 -4.34716 1.73607 0
M  V30 2880 H 271.174 -5.91958 2.63609 0
M  V30 2881 N 264.58 -0.43555 -1.51462 0
M  V30 2882 C 265.828 0.131254 -2.01673 0
M  V30 2883 C 266.149 1.43368 -1.32177 0
M  V30 2884 O 265.419 1.90524 -0.455769 0
M  V30 2885 H 263.999 0.0514954 -0.745223 0
M  V30 2886 H 266.661 -0.577847 -1.86137 0
M  V30 2887 H 265.757 0.308446 -3.10572 0
M  V30 2888 N 266.058 1.56714 -0.166846 0
M  V30 2889 C 266.99 2.14914 0.796537 0
M  V30 2890 C 268.003 1.10357 1.19688 0
M  V30 2891 O 269.192 1.37561 1.13751 0
M  V30 2892 C 266.292 2.67326 2.08303 0
M  V30 2893 C 265.465 3.96493 1.84696 0
M  V30 2894 C 264.524 4.34014 2.97521 0
M  V30 2895 O 263.55 5.01973 2.6835 0
M  V30 2896 N 264.752 3.95208 4.25196 0
M  V30 2897 H 267.517 2.98205 0.299006 0
M  V30 2898 H 265.078 1.61892 0.0160839 0
M  V30 2899 H 267.07 2.89428 2.82867 0
M  V30 2900 H 265.64 1.88649 2.4926 0
M  V30 2901 H 264.86 3.82814 0.940602 0
M  V30 2902 H 266.148 4.8086 1.66285 0
M  V30 2903 H 265.546 3.40487 4.51758 0
M  V30 2904 H 264.103 4.2232 4.96477 0
M  V30 2905 N 267.536 -0.106894 1.57237 0
M  V30 2906 C 268.785 -0.811163 1.8467 0
M  V30 2907 C 269.098 -1.80469 0.754342 0
M  V30 2908 O 270.304 -2.55601 0.915439 0
M  V30 2909 C 268.76 -1.49337 3.27454 0
M  V30 2910 C 268.368 -0.540217 4.44731 0
M  V30 2911 C 270.112 -2.18206 3.64124 0
M  V30 2912 C 268.019 -1.22634 5.78545 0
M  V30 2913 H 266.949 -0.306679 0.688813 0
M  V30 2914 H 269.6 -0.0639887 1.83388 0
M  V30 2915 H 267.982 -2.2876 3.23241 0
M  V30 2916 H 269.156 0.221659 4.60267 0
M  V30 2917 H 267.471 0.042146 4.16379 0
M  V30 2918 H 270.068 -2.70253 4.61376 0
M  V30 2919 H 270.411 -2.96562 2.92158 0
M  V30 2920 H 270.944 -1.45658 3.70174 0
M  V30 2921 H 267.683 -0.483832 6.53712 0
M  V30 2922 H 267.203 -1.95993 5.66874 0
M  V30 2923 H 268.882 -1.75615 6.2271 0
M  V30 2924 N 269.014 -1.53014 -0.377408 0
M  V30 2925 C 270.26 -1.68872 -1.12294 0
M  V30 2926 C 270.593 -0.433224 -1.89306 0
M  V30 2927 O 269.868 0.569258 -1.85983 0
M  V30 2928 C 270.151 -2.93115 -2.09179 0
M  V30 2929 C 270.004 -4.28794 -1.35853 0
M  V30 2930 C 271.323 -3.12928 -3.09458 0
M  V30 2931 H 268.442 -0.614518 -0.406862 0
M  V30 2932 H 271.084 -1.85633 -0.40503 0
M  V30 2933 H 269.234 -2.78956 -2.70399 0
M  V30 2934 H 270.906 -4.54742 -0.775082 0
M  V30 2935 H 269.149 -4.28744 -0.660364 0
M  V30 2936 H 269.82 -5.11837 -2.06706 0
M  V30 2937 H 272.296 -3.26194 -2.58334 0
M  V30 2938 H 271.172 -4.01316 -3.74482 0
M  V30 2939 H 271.433 -2.27669 -3.78971 0
M  V30 2940 N 270.492 0.636531 -1.44174 0
M  V30 2941 C 271.769 1.39463 -1.37148 0
M  V30 2942 C 272.149 2.11082 -0.027507 0
M  V30 2943 O 271.497 2.05954 0.989716 0
M  V30 2944 C 271.707 2.36552 -2.56601 0
M  V30 2945 C 273.055 3.00048 -3.00427 0
M  V30 2946 O 274.079 2.46878 -2.56767 0
M  V30 2947 O 272.938 3.96488 -3.76111 0
M  V30 2948 H 270.032 0.623903 -0.542839 0
M  V30 2949 H 272.578 0.662039 -1.56253 0
M  V30 2950 H 271.35 1.82692 -3.46034 0
M  V30 2951 H 270.973 3.17236 -2.39681 0
M  V30 2952 N 271.97 1.30982 0.876444 0
M  V30 2953 C 273.386 1.09498 1.16113 0
M  V30 2954 C 273.586 -0.13875 2.01022 0
M  V30 2955 O 272.642 -0.829935 2.38471 0
M  V30 2956 C 273.955 2.36308 1.85954 0
M  V30 2957 C 275.503 2.41856 1.98683 0
M  V30 2958 C 275.978 3.6853 2.71937 0
M  V30 2959 N 277.469 3.69387 2.79477 0
M  V30 2960 C 278.204 4.64096 3.36753 0
M  V30 2961 N 277.7 5.69155 3.95012 0
M  V30 2962 N 279.493 4.51626 3.3465 0
M  V30 2963 H 271.644 2.10118 0.310494 0
M  V30 2964 H 273.907 0.926634 0.200131 0
M  V30 2965 H 273.613 3.26388 1.31011 0
M  V30 2966 H 273.487 2.4561 2.86278 0
M  V30 2967 H 275.874 1.52249 2.52793 0
M  V30 2968 H 275.955 2.36523 0.9742 0
M  V30 2969 H 275.599 4.58499 2.18496 0
M  V30 2970 H 275.529 3.71127 3.73593 0
M  V30 2971 H 278.02 2.93438 2.38123 0
M  V30 2972 H 278.333 6.3751 4.36808 0
M  V30 2973 H 276.678 5.72937 3.93406 0
M  V30 2974 H 279.869 3.68728 2.8837 0
M  V30 2975 H 280.042 5.25614 3.7899 0
M  V30 2976 N 273.449 -1.08991 1.13837 0
M  V30 2977 C 274.397 -2.17841 0.815347 0
M  V30 2978 C 275.391 -1.68164 -0.204233 0
M  V30 2979 O 276.597 -1.79897 -0.0609304 0
M  V30 2980 H 272.972 -0.710654 0.245915 0
M  V30 2981 H 274.943 -2.42315 1.74143 0
M  V30 2982 C 273.692 -3.46381 0.302614 0
M  V30 2983 H 273.015 -3.84979 1.0785 0
M  V30 2984 H 274.455 -4.23844 0.115074 0
M  V30 2985 C 272.914 -3.22556 -0.972591 0
M  V30 2986 O 273.444 -3.45599 -2.04754 0
M  V30 2987 N 271.65 -2.76134 -0.905455 0
M  V30 2988 H 271.197 -2.57582 -0.0305421 0
M  V30 2989 H 271.155 -2.60571 -1.75926 0
M  V30 2990 N 274.927 -0.932562 -1.27047 0
M  V30 2991 C 276.175 -0.574422 -1.93765 0
M  V30 2992 C 276.496 0.887993 -1.73608 0
M  V30 2993 O 275.766 1.62999 -1.08665 0
M  V30 2994 H 274.346 -0.209451 -0.717035 0
M  V30 2995 H 277.008 -1.18601 -1.5466 0
M  V30 2996 H 276.104 -0.784841 -3.02071 0
M  V30 2997 N 276.405 1.4127 -0.698611 0
M  V30 2998 C 277.353 2.32588 -0.023855 0
M  V30 2999 C 278.347 1.51128 0.765292 0
M  V30 3000 O 279.553 1.67043 0.670571 0
M  V30 3001 H 275.928 0.751918 0.0110871 0
M  V30 3002 H 277.899 2.87167 -0.811031 0
M  V30 3003 C 276.648 3.35947 0.896369 0
M  V30 3004 H 275.971 3.98684 0.298548 0
M  V30 3005 H 277.411 4.02376 1.33676 0
M  V30 3006 C 275.87 2.70076 2.01396 0
M  V30 3007 O 276.4 2.55093 3.10307 0
M  V30 3008 N 274.606 2.28724 1.79259 0
M  V30 3009 H 274.153 2.4111 0.906841 0
M  V30 3010 H 274.111 1.84986 2.54219 0
M  V30 3011 N 277.883 0.443576 1.51229 0
M  V30 3012 C 279.294 -0.0180867 1.86691 0
M  V30 3013 C 279.645 -1.41384 1.36033 0
M  V30 3014 O 278.77 -2.04291 0.713722 0
M  V30 3015 C 279.365 -0.039597 3.38777 0
M  V30 3016 C 277.924 -0.445692 3.73752 0
M  V30 3017 C 277.071 0.357584 2.74985 0
M  V30 3018 H 280.022 0.659138 1.44364 0
M  V30 3019 H 280.043 -0.847761 3.70936 0
M  V30 3020 H 279.555 0.976382 3.75617 0
M  V30 3021 H 277.656 -1.46704 3.42503 0
M  V30 3022 H 277.769 -0.166155 4.78812 0
M  V30 3023 H 276.133 -0.184973 2.54027 0
M  V30 3024 H 276.916 1.37256 3.14668 0
M  V30 3025 N 279.361 -1.56624 0.175154 0
M  V30 3026 C 280.291 -2.21155 -0.749195 0
M  V30 3027 C 281.272 -1.16836 -1.23626 0
M  V30 3028 O 282.457 -1.45277 -1.28873 0
M  V30 3029 C 279.587 -2.8553 -1.97711 0
M  V30 3030 C 278.541 -3.95921 -1.62575 0
M  V30 3031 C 277.867 -4.47365 -2.92864 0
M  V30 3032 C 279.167 -5.15323 -0.850838 0
M  V30 3033 H 280.861 -2.98653 -0.211295 0
M  V30 3034 H 278.407 -1.43651 -0.100188 0
M  V30 3035 H 280.36 -3.2935 -2.62881 0
M  V30 3036 H 279.084 -2.05406 -2.53921 0
M  V30 3037 H 277.743 -3.52762 -0.997719 0
M  V30 3038 H 277.391 -3.64027 -3.47122 0
M  V30 3039 H 277.091 -5.21839 -2.70106 0
M  V30 3040 H 278.615 -4.93873 -3.59056 0
M  V30 3041 H 280.029 -5.55812 -1.40521 0
M  V30 3042 H 278.426 -5.95739 -0.722154 0
M  V30 3043 H 279.496 -4.84661 0.152082 0
M  V30 3044 N 280.839 0.0985539 -1.57292 0
M  V30 3045 C 281.802 1.10402 -2.00858 0
M  V30 3046 C 282.802 1.33146 -0.901593 0
M  V30 3047 O 283.992 1.29318 -1.16716 0
M  V30 3048 C 281.124 2.45394 -2.36632 0
M  V30 3049 H 282.317 0.729099 -2.90902 0
M  V30 3050 H 279.87 0.343495 -1.52479 0
M  V30 3051 H 280.605 2.87769 -1.49531 0
M  V30 3052 H 280.39 2.30235 -3.17387 0
M  V30 3053 H 281.88 3.17718 -2.71007 0
M  V30 3054 N 282.317 1.53212 0.369288 0
M  V30 3055 C 283.545 1.73119 1.13303 0
M  V30 3056 C 283.96 0.458455 1.83149 0
M  V30 3057 O 283.317 -0.568403 1.73423 0
M  V30 3058 C 283.368 2.89413 2.16616 0
M  V30 3059 O 283.089 4.11761 1.49614 0
M  V30 3060 C 284.59 3.21161 3.05566 0
M  V30 3061 H 281.81 0.579107 0.338934 0
M  V30 3062 H 284.354 1.99942 0.429338 0
M  V30 3063 H 282.509 2.64994 2.82589 0
M  V30 3064 H 282.923 4.76858 2.18419 0
M  V30 3065 H 284.397 4.05949 3.74045 0
M  V30 3066 H 284.874 2.36369 3.70171 0
M  V30 3067 H 285.48 3.47492 2.45213 0
M  V30 3068 N 283.795 -0.628877 1.44509 0
M  V30 3069 C 285.023 -1.41554 1.50897 0
M  V30 3070 C 285.438 -1.8832 0.134564 0
M  V30 3071 O 284.795 -1.60969 -0.859965 0
M  V30 3072 C 284.846 -2.63435 2.47556 0
M  V30 3073 O 284.567 -2.18619 3.79654 0
M  V30 3074 C 286.068 -3.56537 2.63431 0
M  V30 3075 H 283.288 -0.434044 0.511709 0
M  V30 3076 H 285.832 -0.768895 1.89495 0
M  V30 3077 H 283.987 -3.24187 2.12089 0
M  V30 3078 H 284.401 -2.97652 4.31861 0
M  V30 3079 H 285.875 -4.38657 3.35088 0
M  V30 3080 H 286.352 -4.05493 1.68738 0
M  V30 3081 H 286.958 -3.01653 2.9981 0
M  V30 3082 N 285.273 -1.31445 -0.869486 0
M  V30 3083 C 286.521 -1.20918 -1.61936 0
M  V30 3084 C 286.842 0.232683 -1.93607 0
M  V30 3085 O 286.112 1.15352 -1.58338 0
M  V30 3086 H 284.692 -0.44454 -0.600328 0
M  V30 3087 H 287.354 -1.64776 -1.0409 0
M  V30 3088 H 286.45 -1.78124 -2.56278 0
M  V30 3089 N 286.751 1.08385 -1.14413 0
M  V30 3090 C 287.683 2.1519 -0.789036 0
M  V30 3091 C 288.696 1.61638 0.19417 0
M  V30 3092 O 289.885 1.78479 -0.0275711 0
M  V30 3093 C 286.985 3.38565 -0.15058 0
M  V30 3094 C 286.158 4.21501 -1.16857 0
M  V30 3095 C 285.217 5.23277 -0.553832 0
M  V30 3096 O 284.243 5.56041 -1.21686 0
M  V30 3097 N 285.445 5.76629 0.669296 0
M  V30 3098 H 288.21 2.46257 -1.70814 0
M  V30 3099 H 285.771 1.24198 -1.03858 0
M  V30 3100 H 287.763 4.03777 0.273181 0
M  V30 3101 H 286.333 3.05299 0.671667 0
M  V30 3102 H 285.553 3.52265 -1.76926 0
M  V30 3103 H 286.841 4.73731 -1.85624 0
M  V30 3104 H 286.239 5.52243 1.22654 0
M  V30 3105 H 284.796 6.43521 1.03556 0
M  V30 3106 N 288.23 0.939286 1.26551 0
M  V30 3107 C 289.477 0.585847 1.9384 0
M  V30 3108 C 289.805 -0.874784 1.73718 0
M  V30 3109 O 289.06 -1.64092 1.06642 0
M  V30 3110 C 289.359 0.872106 3.46596 0
M  V30 3111 C 289.025 2.31632 3.86856 0
M  V30 3112 C 287.687 2.71111 3.97558 0
M  V30 3113 C 290.039 3.25494 4.07066 0
M  V30 3114 C 287.367 4.03553 4.25866 0
M  V30 3115 C 289.719 4.57531 4.36862 0
M  V30 3116 C 288.383 4.96828 4.45778 0
M  V30 3117 H 287.653 0.214377 0.709312 0
M  V30 3118 H 290.3 1.18544 1.50398 0
M  V30 3119 H 288.605 0.18996 3.91339 0
M  V30 3120 H 290.302 0.577442 3.96821 0
M  V30 3121 H 286.892 2.00008 3.79071 0
M  V30 3122 H 291.076 2.9619 3.98227 0
M  V30 3123 H 286.332 4.33665 4.30981 0
M  V30 3124 H 290.506 5.30254 4.51446 0
M  V30 3125 H 288.133 5.99482 4.67468 0
M  V30 3126 N 289.708 -1.40897 0.706093 0
M  V30 3127 C 290.671 -2.29131 0.0562841 0
M  V30 3128 C 291.671 -1.44901 -0.697166 0
M  V30 3129 O 292.861 -1.65926 -0.530484 0
M  V30 3130 C 289.993 -3.27957 -0.93043 0
M  V30 3131 H 291.186 -2.88091 0.833284 0
M  V30 3132 H 288.739 -1.4906 0.470192 0
M  V30 3133 H 289.474 -2.73997 -1.73482 0
M  V30 3134 H 289.259 -3.90124 -0.393166 0
M  V30 3135 H 290.749 -3.94049 -1.38256 0
M  V30 3136 N 291.186 -0.45159 -1.50991 0
M  V30 3137 C 292.096 0.358431 -2.31846 0
M  V30 3138 C 293.112 1.01438 -1.41373 0
M  V30 3139 O 294.288 1.00663 -1.74439 0
M  V30 3140 C 291.353 1.43704 -3.15515 0
M  V30 3141 C 290.414 0.799742 -4.21785 0
M  V30 3142 C 289.647 1.82696 -5.01456 0
M  V30 3143 O 289.87 3.05105 -4.81941 0
M  V30 3144 O 288.804 1.40958 -5.85162 0
M  V30 3145 H 292.63 -0.302032 -3.02194 0
M  V30 3146 H 290.215 -0.213825 -1.47862 0
M  V30 3147 H 292.097 2.06227 -3.67489 0
M  V30 3148 H 290.772 2.08133 -2.47916 0
M  V30 3149 H 289.679 0.136084 -3.73852 0
M  V30 3150 H 291.012 0.198718 -4.91799 0
M  V30 3151 N 292.664 1.56529 -0.183458 0
M  V30 3152 C 293.627 2.17324 0.728223 0
M  V30 3153 C 294.627 1.12453 1.14939 0
M  V30 3154 O 295.817 1.37902 1.06437 0
M  V30 3155 C 292.949 2.76591 1.99274 0
M  V30 3156 H 294.142 2.99241 0.198772 0
M  V30 3157 H 291.695 1.5616 0.0661391 0
M  V30 3158 H 292.43 1.98441 2.56499 0
M  V30 3159 H 292.215 3.5335 1.69959 0
M  V30 3160 H 293.705 3.23311 2.6431 0
M  V30 3161 N 294.142 -0.090211 1.57342 0
M  V30 3162 C 295.39 -0.791241 1.85967 0
M  V30 3163 C 295.711 -1.7903 0.772859 0
M  V30 3164 O 294.981 -1.94872 -0.200398 0
M  V30 3165 H 293.561 -0.295205 0.686195 0
M  V30 3166 H 296.223 -0.0706782 1.94772 0
M  V30 3167 H 295.319 -1.31882 2.82867 0
M  V30 3168 N 295.62 -1.53406 -0.361157 0
M  V30 3169 C 296.866 -1.70054 -1.10496 0
M  V30 3170 C 297.199 -0.453278 -1.88836 0
M  V30 3171 O 296.474 0.5495 -1.86576 0
M  V30 3172 C 296.757 -2.95317 -2.06058 0
M  V30 3173 C 296.61 -4.3021 -1.31298 0
M  V30 3174 C 297.929 -3.16193 -3.06121 0
M  V30 3175 H 295.048 -0.618799 -0.400321 0
M  V30 3176 H 297.69 -1.86052 -0.385318 0
M  V30 3177 H 295.84 -2.81809 -2.67425 0
M  V30 3178 H 297.512 -4.55538 -0.726807 0
M  V30 3179 H 295.755 -4.29421 -0.614853 0
M  V30 3180 H 296.426 -5.14 -2.01265 0
M  V30 3181 H 298.902 -3.28916 -2.5486 0
M  V30 3182 H 297.778 -4.05266 -3.70204 0
M  V30 3183 H 298.039 -2.31676 -3.76535 0
M  V30 3184 N 297.098 0.621204 -1.44841 0
M  V30 3185 C 298.344 1.3826 -1.48365 0
M  V30 3186 C 298.677 1.93831 -0.119624 0
M  V30 3187 O 297.952 1.74251 0.864111 0
M  V30 3188 C 298.235 2.54058 -2.55199 0
M  V30 3189 C 298.088 2.03772 -4.00995 0
M  V30 3190 C 299.407 3.56225 -2.58442 0
M  V30 3191 H 296.526 0.501374 -0.540179 0
M  V30 3192 H 299.168 0.7015 -1.76576 0
M  V30 3193 H 297.318 3.12162 -2.31274 0
M  V30 3194 H 298.99 1.50423 -4.36086 0
M  V30 3195 H 297.233 1.34876 -4.12299 0
M  V30 3196 H 297.904 2.87185 -4.71411 0
M  V30 3197 H 300.38 3.07939 -2.79844 0
M  V30 3198 H 299.256 4.34756 -3.3508 0
M  V30 3199 H 299.517 4.10949 -1.63013 0
M  V30 3200 N 298.576 1.31904 0.862503 0
M  V30 3201 C 299.987 1.19803 1.43193 0
M  V30 3202 C 300.338 -0.192567 1.95253 0
M  V30 3203 O 299.463 -1.09081 1.86896 0
M  V30 3204 C 300.058 2.16883 2.60283 0
M  V30 3205 C 298.617 2.08692 3.13248 0
M  V30 3206 C 297.764 2.05691 1.85975 0
M  V30 3207 H 300.715 1.43846 0.670365 0
M  V30 3208 H 300.736 1.76278 3.37204 0
M  V30 3209 H 300.248 3.18083 2.22363 0
M  V30 3210 H 298.349 1.10713 3.55771 0
M  V30 3211 H 298.462 2.9815 3.75025 0
M  V30 3212 H 296.826 1.50814 2.05249 0
M  V30 3213 H 297.609 3.08659 1.50282 0
M  V30 3214 N 300.054 -1.07777 1.14986 0
M  V30 3215 C 301.279 -1.84558 0.946213 0
M  V30 3216 C 301.704 -1.81323 -0.500362 0
M  V30 3217 O 301.062 -1.20301 -1.35637 0
M  V30 3218 C 301.11 -3.29736 1.45968 0
M  V30 3219 O 300.214 -4.07149 0.65601 0
M  V30 3220 H 299.555 -0.571641 0.33782 0
M  V30 3221 H 302.085 -1.35991 1.52865 0
M  V30 3222 H 302.095 -3.80574 1.47063 0
M  V30 3223 H 300.77 -3.31406 2.51283 0
M  V30 3224 H 299.347 -3.65994 0.714322 0
M  V30 3225 N 301.532 -0.945985 -1.26051 0
M  V30 3226 C 302.479 -0.45809 -2.26208 0
M  V30 3227 C 303.449 0.484816 -1.58867 0
M  V30 3228 O 304.634 0.399969 -1.86561 0
M  V30 3229 C 301.774 0.266131 -3.44072 0
M  V30 3230 C 300.887 -0.713005 -4.26075 0
M  V30 3231 C 300.022 0.0329013 -5.3119 0
M  V30 3232 C 299.061 -0.93774 -6.04874 0
M  V30 3233 N 298.198 -0.223274 -7.01745 0
M  V30 3234 H 303.038 -1.3171 -2.67313 0
M  V30 3235 H 300.575 -0.66069 -1.31428 0
M  V30 3236 H 302.533 0.702514 -4.11243 0
M  V30 3237 H 301.163 1.08925 -3.03867 0
M  V30 3238 H 300.215 -1.26789 -3.58648 0
M  V30 3239 H 301.527 -1.45406 -4.77136 0
M  V30 3240 H 300.681 0.528335 -6.04395 0
M  V30 3241 H 299.42 0.806801 -4.8098 0
M  V30 3242 H 298.425 -1.44425 -5.30492 0
M  V30 3243 H 299.65 -1.71172 -6.57173 0
M  V30 3244 H 297.596 0.532046 -6.53839 0
M  V30 3245 H 297.513 -0.90357 -7.50581 0
M  V30 3246 H 298.781 0.250907 -7.79096 0
M  V30 3247 N 303.011 1.40521 -0.713556 0
M  V30 3248 C 303.941 2.33381 -0.0743864 0
M  V30 3249 C 304.922 1.52784 0.747735 0
M  V30 3250 O 306.107 1.81258 0.697071 0
M  V30 3251 C 303.237 3.36748 0.849598 0
M  V30 3252 C 302.191 4.27793 0.133247 0
M  V30 3253 C 301.517 5.21679 1.17281 0
M  V30 3254 C 302.817 5.12415 -1.01134 0
M  V30 3255 H 304.511 2.87081 -0.850007 0
M  V30 3256 H 302.057 1.38034 -0.410201 0
M  V30 3257 H 304.01 4.00648 1.30612 0
M  V30 3258 H 302.734 2.81439 1.65709 0
M  V30 3259 H 301.393 3.65342 -0.303426 0
M  V30 3260 H 301.041 4.62677 1.9733 0
M  V30 3261 H 300.741 5.83435 0.698397 0
M  V30 3262 H 302.265 5.88456 1.62947 0
M  V30 3263 H 303.679 5.69781 -0.634274 0
M  V30 3264 H 302.076 5.83203 -1.41399 0
M  V30 3265 H 303.146 4.48514 -1.84292 0
M  V30 3266 N 304.489 0.459591 1.5075 0
M  V30 3267 C 305.737 -0.0991532 2.01857 0
M  V30 3268 C 306.058 -1.41247 1.34441 0
M  V30 3269 O 305.328 -1.89775 0.486022 0
M  V30 3270 H 303.908 -0.039633 0.745948 0
M  V30 3271 H 306.57 0.607387 1.85194 0
M  V30 3272 H 305.666 -0.258998 3.11023 0
M  V30 3273 N 305.967 -1.56429 0.191757 0
M  V30 3274 C 306.877 -2.22541 -0.742481 0
M  V30 3275 C 307.893 -1.22342 -1.23727 0
M  V30 3276 O 309.069 -1.55069 -1.28513 0
M  V30 3277 C 306.134 -2.8692 -1.94623 0
M  V30 3278 C 305.195 -4.02378 -1.49633 0
M  V30 3279 C 304.428 -4.63678 -2.6427 0
M  V30 3280 O 304.651 -4.23895 -3.81666 0
M  V30 3281 O 303.585 -5.53202 -2.37174 0
M  V30 3282 H 307.411 -3.02977 -0.209462 0
M  V30 3283 H 304.996 -1.49353 -0.0373832 0
M  V30 3284 H 306.878 -3.27663 -2.64982 0
M  V30 3285 H 305.553 -2.09466 -2.46791 0
M  V30 3286 H 304.46 -3.66265 -0.761636 0
M  V30 3287 H 305.793 -4.81487 -1.02134 0
M  V30 3288 N 307.445 0.0818655 -1.57387 0
M  V30 3289 C 308.693 0.781368 -1.86384 0
M  V30 3290 C 309.014 1.78618 -0.782342 0
M  V30 3291 O 308.284 1.94976 0.190061 0
M  V30 3292 H 306.864 0.291562 -0.687751 0
M  V30 3293 H 309.526 0.060348 -1.94807 0
M  V30 3294 H 308.622 1.3038 -2.83562 0
M  V30 3295 N 308.923 1.53595 0.353017 0
M  V30 3296 C 310.2 1.61002 1.11075 0
M  V30 3297 C 310.58 0.425356 2.0677 0
M  V30 3298 O 309.928 -0.583267 2.2093 0
M  V30 3299 C 310.138 2.96631 1.83877 0
M  V30 3300 C 311.486 3.51653 2.37961 0
M  V30 3301 O 312.51 2.98743 1.93987 0
M  V30 3302 O 311.369 4.44177 3.18386 0
M  V30 3303 H 308.463 0.650825 0.510251 0
M  V30 3304 H 311.009 1.6594 0.35527 0
M  V30 3305 H 309.781 3.74293 1.14108 0
M  V30 3306 H 309.404 2.95242 2.66304 0
M  V30 3307 N 310.401 -0.613514 1.45168 0
M  V30 3308 C 311.311 -1.75296 1.55912 0
M  V30 3309 C 312.327 -1.68244 0.443856 0
M  V30 3310 O 313.503 -1.88706 0.70371 0
M  V30 3311 C 310.568 -3.1174 1.5172 0
M  V30 3312 C 309.629 -3.30291 2.74238 0
M  V30 3313 C 308.862 -4.60226 2.70236 0
M  V30 3314 O 309.085 -5.42168 1.77229 0
M  V30 3315 O 308.019 -4.81361 3.61352 0
M  V30 3316 H 311.845 -1.69183 2.52212 0
M  V30 3317 H 309.43 -0.776886 1.27612 0
M  V30 3318 H 311.312 -3.93044 1.51968 0
M  V30 3319 H 309.987 -3.18357 0.585697 0
M  V30 3320 H 308.894 -2.48598 2.79553 0
M  V30 3321 H 310.227 -3.28547 3.66494 0
M  V30 3322 N 311.879 -1.3236 -0.855495 0
M  V30 3323 C 312.826 -1.21225 -1.964 0
M  V30 3324 C 313.796 -0.0946204 -1.6583 0
M  V30 3325 O 314.981 -0.27002 -1.8888 0
M  V30 3326 C 312.121 -0.940419 -3.32039 0
M  V30 3327 C 311.234 -2.14276 -3.75113 0
M  V30 3328 C 310.369 -1.80648 -4.9954 0
M  V30 3329 C 309.408 -2.97208 -5.35102 0
M  V30 3330 N 308.545 -2.63678 -6.50706 0
M  V30 3331 H 313.385 -2.16042 -2.05255 0
M  V30 3332 H 310.922 -1.07451 -1.00463 0
M  V30 3333 H 312.88 -0.763311 -4.10158 0
M  V30 3334 H 311.51 -0.0290413 -3.22787 0
M  V30 3335 H 310.562 -2.43017 -2.92655 0
M  V30 3336 H 311.874 -3.01468 -3.97389 0
M  V30 3337 H 311.028 -1.59484 -5.85363 0
M  V30 3338 H 309.767 -0.906678 -4.79198 0
M  V30 3339 H 308.772 -3.19004 -4.47791 0
M  V30 3340 H 309.997 -3.87918 -5.57401 0
M  V30 3341 H 307.943 -1.76238 -6.31883 0
M  V30 3342 H 307.86 -3.444 -6.72997 0
M  V30 3343 H 309.128 -2.45942 -7.39684 0
M  V30 3344 N 313.357 1.07166 -1.15556 0
M  V30 3345 C 314.603 1.80065 -0.932984 0
M  V30 3346 C 314.936 1.86586 0.53845 0
M  V30 3347 O 314.211 1.35098 1.39924 0
M  V30 3348 C 314.494 3.25022 -1.55025 0
M  V30 3349 C 314.347 3.26634 -3.09242 0
M  V30 3350 C 315.666 4.22341 -1.2376 0
M  V30 3351 H 312.785 0.653697 -0.340366 0
M  V30 3352 H 315.427 1.25389 -1.4275 0
M  V30 3353 H 313.577 3.71712 -1.12972 0
M  V30 3354 H 315.249 2.88173 -3.60214 0
M  V30 3355 H 313.492 2.65539 -3.43033 0
M  V30 3356 H 314.163 4.28854 -3.47546 0
M  V30 3357 H 316.639 3.8405 -1.60139 0
M  V30 3358 H 315.515 5.22053 -1.69564 0
M  V30 3359 H 315.776 4.41828 -0.154938 0
M  V30 3360 N 314.835 0.952656 1.25548 0
M  V30 3361 C 315.782 0.47008 2.25962 0
M  V30 3362 C 316.752 -0.476384 1.59122 0
M  V30 3363 O 317.937 -0.39007 1.8677 0
M  V30 3364 C 315.077 -0.247881 3.44209 0
M  V30 3365 C 314.19 0.735591 4.25691 0
M  V30 3366 C 313.325 -0.0047306 5.312 0
M  V30 3367 C 312.364 0.969805 6.04368 0
M  V30 3368 N 311.501 0.260486 7.01617 0
M  V30 3369 H 316.341 1.33126 2.66611 0
M  V30 3370 H 313.878 0.66765 1.31076 0
M  V30 3371 H 315.836 -0.680695 4.1161 0
M  V30 3372 H 314.466 -1.07312 3.0444 0
M  V30 3373 H 313.518 1.28689 3.57971 0
M  V30 3374 H 314.83 1.47934 4.76358 0
M  V30 3375 H 313.984 -0.496275 6.04667 0
M  V30 3376 H 312.723 -0.781282 4.81401 0
M  V30 3377 H 311.728 1.47237 5.29718 0
M  V30 3378 H 312.953 1.74655 6.56256 0
M  V30 3379 H 310.899 -0.497364 6.54112 0
M  V30 3380 H 310.816 0.943362 7.50091 0
M  V30 3381 H 312.084 -0.209587 7.79218 0
M  V30 3382 N 316.313 -1.40141 0.720998 0
M  V30 3383 C 317.261 -2.3252 0.0608547 0
M  V30 3384 C 318.255 -1.52326 -0.741152 0
M  V30 3385 O 319.461 -1.68089 -0.643911 0
M  V30 3386 H 315.836 -0.751999 0.000876664 0
M  V30 3387 H 317.807 -2.8584 0.856614 0
M  V30 3388 C 316.556 -3.37331 -0.842809 0
M  V30 3389 H 315.879 -3.99108 -0.235084 0
M  V30 3390 H 317.319 -4.04452 -1.27257 0
M  V30 3391 C 315.778 -2.73246 -1.97074 0
M  V30 3392 O 316.308 -2.59998 -3.06209 0
M  V30 3393 N 314.514 -2.31547 -1.75597 0
M  V30 3394 H 314.061 -2.42522 -0.868368 0
M  V30 3395 H 314.019 -1.89007 -2.51244 0
M  V30 3396 N 317.792 -0.46758 -1.50504 0
M  V30 3397 C 319.041 0.0902868 -2.01498 0
M  V30 3398 C 319.354 1.411 -1.35463 0
M  V30 3399 O 320.56 2.0536 -1.77594 0
M  V30 3400 C 319.016 0.21142 -3.59278 0
M  V30 3401 C 318.624 -1.10065 -4.34269 0
M  V30 3402 C 320.368 0.721433 -4.18325 0
M  V30 3403 C 318.275 -0.943505 -5.83825 0
M  V30 3404 H 317.205 0.037517 -0.753066 0
M  V30 3405 H 319.856 -0.601943 -1.73346 0
M  V30 3406 H 318.238 0.967352 -3.84003 0
M  V30 3407 H 319.412 -1.86726 -4.21272 0
M  V30 3408 H 317.727 -1.5415 -3.86816 0
M  V30 3409 H 320.324 0.85598 -5.27804 0
M  V30 3410 H 320.667 1.71186 -3.79475 0
M  V30 3411 H 321.2 0.0229843 -3.97793 0
M  V30 3412 H 317.939 -1.90719 -6.27141 0
M  V30 3413 H 317.459 -0.217213 -5.99407 0
M  V30 3414 H 319.138 -0.608715 -6.4413 0
M  V30 3415 N 319.27 1.56325 -0.20005 0
M  V30 3416 C 320.233 2.18084 0.705132 0
M  V30 3417 C 321.233 1.13666 1.1374 0
M  V30 3418 O 322.423 1.39023 1.04968 0
M  V30 3419 C 319.555 2.78689 1.96329 0
M  V30 3420 H 320.748 2.99435 0.167023 0
M  V30 3421 H 318.301 1.56221 0.0495725 0
M  V30 3422 H 319.036 2.0115 2.5438 0
M  V30 3423 H 318.821 3.55133 1.66202 0
M  V30 3424 H 320.311 3.26096 2.60866 0
M  V30 3425 N 320.748 -0.0735177 1.57428 0
M  V30 3426 C 322.025 -0.805903 1.78226 0
M  V30 3427 C 322.405 -1.95874 0.787189 0
M  V30 3428 O 321.753 -2.2779 -0.180029 0
M  V30 3429 C 321.963 -1.28045 3.24662 0
M  V30 3430 C 323.311 -1.71453 3.88444 0
M  V30 3431 O 324.335 -1.37616 3.28543 0
M  V30 3432 O 323.194 -2.34093 4.93825 0
M  V30 3433 H 320.288 -0.386041 0.73137 0
M  V30 3434 H 322.834 -0.0537269 1.69615 0
M  V30 3435 H 321.606 -0.455476 3.8864 0
M  V30 3436 H 321.229 -2.094 3.37991 0
M  V30 3437 N 322.226 -1.5378 -0.344866 0
M  V30 3438 C 323.475 -1.7018 -1.08267 0
M  V30 3439 C 323.788 -0.471 -1.89845 0
M  V30 3440 O 324.994 -0.515917 -2.66553 0
M  V30 3441 C 323.45 -3.00923 -1.97417 0
M  V30 3442 C 323.058 -4.31335 -1.21053 0
M  V30 3443 C 324.802 -3.26688 -2.71063 0
M  V30 3444 C 322.709 -5.53153 -2.09225 0
M  V30 3445 H 321.639 -0.634138 -0.407903 0
M  V30 3446 H 324.29 -1.8028 -0.342246 0
M  V30 3447 H 322.672 -2.84676 -2.75274 0
M  V30 3448 H 323.846 -4.58281 -0.481159 0
M  V30 3449 H 322.161 -4.12173 -0.591813 0
M  V30 3450 H 324.758 -4.1489 -3.37299 0
M  V30 3451 H 325.101 -2.43639 -3.37558 0
M  V30 3452 H 325.634 -3.43705 -2.0028 0
M  V30 3453 H 322.373 -6.38741 -1.47274 0
M  V30 3454 H 321.893 -5.30458 -2.79955 0
M  V30 3455 H 323.572 -5.88744 -2.68308 0
M  V30 3456 N 323.704 0.605807 -1.45491 0
M  V30 3457 C 324.929 1.39625 -1.53361 0
M  V30 3458 C 325.354 1.87351 -0.167645 0
M  V30 3459 O 324.712 1.60243 0.848051 0
M  V30 3460 C 324.76 2.57559 -2.5238 0
M  V30 3461 O 323.864 3.58248 -2.04285 0
M  V30 3462 H 323.205 0.416771 -0.516912 0
M  V30 3463 H 325.735 0.737103 -1.90861 0
M  V30 3464 H 325.745 3.0478 -2.71244 0
M  V30 3465 H 324.42 2.22171 -3.51586 0
M  V30 3466 H 322.997 3.17664 -1.95305 0
M  V30 3467 N 325.182 1.32811 0.848464 0
M  V30 3468 C 326.129 1.22265 1.95755 0
M  V30 3469 C 327.099 0.103413 1.65778 0
M  V30 3470 O 328.284 0.280033 1.88734 0
M  V30 3471 C 325.424 0.958014 3.31536 0
M  V30 3472 C 324.537 2.16262 3.73971 0
M  V30 3473 C 323.672 1.83295 4.98575 0
M  V30 3474 C 322.711 3.00041 5.33518 0
M  V30 3475 N 321.848 2.67125 6.49299 0
M  V30 3476 H 326.688 2.17128 2.04107 0
M  V30 3477 H 324.225 1.07982 0.998913 0
M  V30 3478 H 326.183 0.785052 4.09747 0
M  V30 3479 H 324.813 0.046159 3.22767 0
M  V30 3480 H 323.865 2.44565 2.91362 0
M  V30 3481 H 325.177 3.03572 3.95785 0
M  V30 3482 H 324.331 1.62586 5.84509 0
M  V30 3483 H 323.07 0.932078 4.7871 0
M  V30 3484 H 322.075 3.21374 4.46093 0
M  V30 3485 H 323.3 3.90869 5.55336 0
M  V30 3486 H 321.246 1.79586 6.3094 0
M  V30 3487 H 321.163 3.47965 6.71161 0
M  V30 3488 H 322.431 2.49861 7.3837 0
M  V30 3489 N 326.66 -1.06551 1.16123 0
M  V30 3490 C 327.607 -2.13961 0.865414 0
M  V30 3491 C 328.577 -1.65066 -0.185055 0
M  V30 3492 O 329.762 -1.90732 -0.05083 0
M  V30 3493 C 326.902 -3.43113 0.369776 0
M  V30 3494 C 326.015 -4.05756 1.48276 0
M  V30 3495 C 325.15 -5.22773 0.942414 0
M  V30 3496 C 324.189 -5.77395 2.03179 0
M  V30 3497 N 323.326 -6.85731 1.50721 0
M  V30 3498 H 328.166 -2.38605 1.78527 0
M  V30 3499 H 325.703 -1.17072 0.890646 0
M  V30 3500 H 327.661 -4.17151 0.0640643 0
M  V30 3501 H 326.291 -3.18695 -0.513143 0
M  V30 3502 H 325.343 -3.29292 1.9045 0
M  V30 3503 H 326.655 -4.42351 2.30493 0
M  V30 3504 H 325.809 -6.03827 0.589729 0
M  V30 3505 H 324.548 -4.87618 0.0895191 0
M  V30 3506 H 323.553 -4.94981 2.3932 0
M  V30 3507 H 324.778 -6.14603 2.8886 0
M  V30 3508 H 322.724 -6.52499 0.676811 0
M  V30 3509 H 322.641 -7.21254 2.26557 0
M  V30 3510 H 323.909 -7.7047 1.18303 0
M  V30 3511 N 328.138 -0.959301 -1.25041 0
M  V30 3512 C 329.068 -0.501388 -2.28053 0
M  V30 3513 C 330.049 0.454673 -1.63911 0
M  V30 3514 O 331.234 0.352618 -1.90972 0
M  V30 3515 C 328.364 0.217224 -3.4662 0
M  V30 3516 C 327.318 -0.654034 -4.22973 0
M  V30 3517 C 326.644 0.195589 -5.34342 0
M  V30 3518 C 327.944 -1.93447 -4.85155 0
M  V30 3519 H 329.638 -1.36238 -2.66608 0
M  V30 3520 H 327.184 -0.656534 -1.28163 0
M  V30 3521 H 329.137 0.548732 -4.17812 0
M  V30 3522 H 327.861 1.1125 -3.07068 0
M  V30 3523 H 326.52 -0.968693 -3.5357 0
M  V30 3524 H 326.168 1.09076 -4.91031 0
M  V30 3525 H 325.868 -0.384091 -5.86343 0
M  V30 3526 H 327.392 0.521958 -6.08365 0
M  V30 3527 H 328.806 -1.66908 -5.48466 0
M  V30 3528 H 327.203 -2.46018 -5.47353 0
M  V30 3529 H 328.273 -2.63466 -4.07079 0
M  V30 3530 N 329.616 1.39756 -0.72842 0
M  V30 3531 C 330.526 2.34444 -0.0855374 0
M  V30 3532 C 331.542 1.57976 0.729356 0
M  V30 3533 O 332.718 1.90301 0.659346 0
M  V30 3534 C 329.783 3.36965 0.815798 0
M  V30 3535 C 328.844 4.29299 -0.0105996 0
M  V30 3536 C 328.077 5.26923 0.84781 0
M  V30 3537 O 328.3 5.30859 2.08673 0
M  V30 3538 O 327.234 6.01249 0.279969 0
M  V30 3539 H 331.06 2.91065 -0.866892 0
M  V30 3540 H 328.645 1.4117 -0.48902 0
M  V30 3541 H 330.527 3.99804 1.33171 0
M  V30 3542 H 329.202 2.82739 1.57608 0
M  V30 3543 H 328.109 3.69703 -0.571877 0
M  V30 3544 H 329.442 4.86712 -0.73295 0
M  V30 3545 N 331.094 0.475555 1.50254 0
M  V30 3546 C 332.34 -0.0780073 2.0265 0
M  V30 3547 C 332.673 -1.38968 1.35652 0
M  V30 3548 O 331.948 -1.8839 0.483691 0
M  V30 3549 C 332.231 -0.257161 3.59181 0
M  V30 3550 C 332.084 1.07585 4.36744 0
M  V30 3551 C 333.403 -1.00965 4.28362 0
M  V30 3552 H 330.522 -0.0268758 0.73651 0
M  V30 3553 H 333.164 0.622015 1.7953 0
M  V30 3554 H 331.314 -0.853412 3.79011 0
M  V30 3555 H 332.986 1.70902 4.28474 0
M  V30 3556 H 331.229 1.6714 4.00308 0
M  V30 3557 H 331.9 0.904088 5.44546 0
M  V30 3558 H 334.376 -0.504214 4.13034 0
M  V30 3559 H 333.252 -1.10381 5.37687 0
M  V30 3560 H 333.513 -2.04731 3.91839 0
M  V30 3561 N 332.573 -1.56217 0.208337 0
M  V30 3562 C 333.798 -2.02782 -0.435222 0
M  V30 3563 C 334.223 -1.08738 -1.53485 0
M  V30 3564 O 333.581 -0.0731855 -1.81152 0
M  V30 3565 C 333.629 -3.47687 -0.956335 0
M  V30 3566 O 332.733 -3.56773 -2.06849 0
M  V30 3567 H 332.074 -0.656403 -0.100158 0
M  V30 3568 H 334.604 -2.02033 0.3231 0
M  V30 3569 H 334.614 -3.87745 -1.26955 0
M  V30 3570 H 333.289 -4.15624 -0.15143 0
M  V30 3571 H 331.866 -3.28597 -1.76292 0
M  V30 3572 N 334.051 0.0651679 -1.57465 0
M  V30 3573 C 335.279 0.775808 -1.91804 0
M  V30 3574 C 335.694 1.70782 -0.804916 0
M  V30 3575 O 335.051 1.81153 0.221311 0
M  V30 3576 C 335.102 1.56381 -3.25925 0
M  V30 3577 O 334.823 0.669248 -4.32958 0
M  V30 3578 C 336.324 2.37485 -3.7432 0
M  V30 3579 H 333.544 0.2202 -0.63384 0
M  V30 3580 H 336.088 0.0334587 -2.04473 0
M  V30 3581 H 334.243 2.25837 -3.14764 0
M  V30 3582 H 334.657 1.21801 -5.10162 0
M  V30 3583 H 336.131 2.88223 -4.70778 0
M  V30 3584 H 336.608 3.17307 -3.03666 0
M  V30 3585 H 337.214 1.73173 -3.88447 0
M  V30 3586 N 335.529 1.53961 0.336706 0
M  V30 3587 C 336.806 1.62171 1.09361 0
M  V30 3588 C 337.186 0.447263 2.06307 0
M  V30 3589 O 336.534 -0.559802 2.21537 0
M  V30 3590 C 336.744 2.98565 1.80721 0
M  V30 3591 C 338.092 3.54157 2.34218 0
M  V30 3592 O 339.116 3.00784 1.90807 0
M  V30 3593 O 337.975 4.47528 3.13657 0
M  V30 3594 H 335.069 0.6562 0.503319 0
M  V30 3595 H 337.615 1.66307 0.33765 0
M  V30 3596 H 336.387 3.75482 1.10132 0
M  V30 3597 H 336.01 2.9805 2.63158 0
M  V30 3598 N 337.007 -0.598083 1.45811 0
M  V30 3599 C 338.237 -1.38121 1.53643 0
M  V30 3600 C 338.645 -1.88425 0.171081 0
M  V30 3601 O 337.988 -1.63409 -0.839237 0
M  V30 3602 C 338.05 -2.61432 2.46766 0
M  V30 3603 C 337.714 -2.32702 3.93318 0
M  V30 3604 C 338.711 -1.92479 4.82957 0
M  V30 3605 C 336.396 -2.45321 4.38318 0
M  V30 3606 C 338.39 -1.65248 6.15607 0
M  V30 3607 C 336.077 -2.17703 5.71007 0
M  V30 3608 C 337.075 -1.7773 6.5947 0
M  V30 3609 O 336.763 -1.50441 7.89698 0
M  V30 3610 H 336.495 -0.428863 0.522544 0
M  V30 3611 H 339.049 -0.73557 1.91777 0
M  V30 3612 H 337.279 -3.28749 2.0362 0
M  V30 3613 H 338.968 -3.23487 2.45175 0
M  V30 3614 H 339.734 -1.82258 4.49452 0
M  V30 3615 H 335.613 -2.75399 3.69697 0
M  V30 3616 H 339.157 -1.33973 6.84614 0
M  V30 3617 H 335.054 -2.27544 6.04065 0
M  V30 3618 H 335.822 -1.64415 8.01817 0
M  V30 3619 N 338.485 -1.33259 -0.841409 0
M  V30 3620 C 339.734 -1.23921 -1.59143 0
M  V30 3621 C 340.047 0.1941 -1.94635 0
M  V30 3622 O 341.253 0.409474 -2.68394 0
M  V30 3623 C 339.709 -2.17119 -2.87032 0
M  V30 3624 C 339.317 -3.65606 -2.58914 0
M  V30 3625 C 341.061 -2.16648 -3.65053 0
M  V30 3626 C 338.968 -4.50726 -3.82884 0
M  V30 3627 H 337.898 -0.460264 -0.597221 0
M  V30 3628 H 340.549 -1.58307 -0.927959 0
M  V30 3629 H 338.931 -1.75663 -3.54906 0
M  V30 3630 H 340.105 -4.15487 -1.99267 0
M  V30 3631 H 338.42 -3.68341 -1.942 0
M  V30 3632 H 341.017 -2.77474 -4.57069 0
M  V30 3633 H 341.36 -1.16088 -3.99787 0
M  V30 3634 H 341.893 -2.56453 -3.041 0
M  V30 3635 H 338.632 -5.52151 -3.53283 0
M  V30 3636 H 338.152 -4.0559 -4.41879 0
M  V30 3637 H 339.831 -4.64401 -4.50489 0
M  V30 3638 N 339.963 1.05934 -1.16686 0
M  V30 3639 C 340.911 2.15603 -0.872817 0
M  V30 3640 C 341.905 1.68647 0.159576 0
M  V30 3641 O 343.111 1.79995 0.0132125 0
M  V30 3642 H 339.486 0.703885 -0.264671 0
M  V30 3643 H 341.457 2.37613 -1.80507 0
M  V30 3644 C 340.206 3.45457 -0.394344 0
M  V30 3645 H 339.529 3.81984 -1.18019 0
M  V30 3646 H 340.969 4.2339 -0.227408 0
M  V30 3647 C 339.428 3.25021 0.88673 0
M  V30 3648 O 339.958 3.50906 1.95519 0
M  V30 3649 N 338.164 2.78437 0.831925 0
M  V30 3650 H 337.711 2.57572 -0.0377619 0
M  V30 3651 H 337.669 2.65144 1.68956 0
M  V30 3652 N 341.441 0.965919 1.2453 0
M  V30 3653 C 342.388 0.49402 2.25451 0
M  V30 3654 C 343.358 -0.45948 1.59618 0
M  V30 3655 O 344.543 -0.370238 1.87173 0
M  V30 3656 C 341.683 -0.211359 3.44452 0
M  V30 3657 C 340.796 0.7807 4.24887 0
M  V30 3658 C 339.931 0.0516105 5.31175 0
M  V30 3659 C 338.97 1.03385 6.03306 0
M  V30 3660 N 338.107 0.334887 7.01301 0
M  V30 3661 H 342.947 1.35946 2.65184 0
M  V30 3662 H 340.484 0.681515 1.3036 0
M  V30 3663 H 342.442 -0.637 4.12308 0
M  V30 3664 H 341.072 -1.04077 3.05562 0
M  V30 3665 H 340.124 1.32479 3.56586 0
M  V30 3666 H 341.436 1.52978 4.74762 0
M  V30 3667 H 340.59 -0.432114 6.05159 0
M  V30 3668 H 339.329 -0.730179 4.82203 0
M  V30 3669 H 338.334 1.52847 5.28127 0
M  V30 3670 H 339.559 1.81606 6.54367 0
M  V30 3671 H 337.505 -0.427959 6.54603 0
M  V30 3672 H 337.422 1.02287 7.49048 0
M  V30 3673 H 338.69 -0.126928 7.79397 0
M  V30 3674 N 342.919 -1.39368 0.735821 0
M  V30 3675 C 343.851 -2.2913 0.0567723 0
M  V30 3676 C 344.864 -1.46859 -0.702589 0
M  V30 3677 O 346.053 -1.69925 -0.546616 0
M  V30 3678 C 343.153 -3.25492 -0.943823 0
M  V30 3679 C 342.326 -4.36709 -0.24581 0
M  V30 3680 C 341.385 -5.13376 -1.15463 0
M  V30 3681 O 340.411 -5.65683 -0.631803 0
M  V30 3682 N 341.613 -5.24656 -2.48427 0
M  V30 3683 H 344.378 -2.88047 0.827582 0
M  V30 3684 H 341.939 -1.50957 0.585112 0
M  V30 3685 H 343.931 -3.73657 -1.55443 0
M  V30 3686 H 342.501 -2.676 -1.61583 0
M  V30 3687 H 341.721 -3.9041 0.545286 0
M  V30 3688 H 343.009 -5.08244 0.237891 0
M  V30 3689 H 342.407 -4.83679 -2.93379 0
M  V30 3690 H 340.964 -5.76258 -3.04582 0
M  V30 3691 N 344.397 -0.483516 -1.5 0
M  V30 3692 C 345.327 0.293829 -2.31644 0
M  V30 3693 C 346.308 0.978864 -1.39112 0
M  V30 3694 O 347.493 0.973644 -1.68029 0
M  V30 3695 C 344.623 1.36897 -3.19181 0
M  V30 3696 C 343.577 0.804833 -4.20365 0
M  V30 3697 C 342.903 1.9792 -4.96721 0
M  V30 3698 C 344.203 -0.192313 -5.21946 0
M  V30 3699 H 345.897 -0.387616 -2.9688 0
M  V30 3700 H 343.443 -0.187856 -1.42769 0
M  V30 3701 H 345.396 1.92037 -3.751 0
M  V30 3702 H 344.12 2.07936 -2.51853 0
M  V30 3703 H 342.779 0.275319 -3.65565 0
M  V30 3704 H 342.427 2.67686 -4.25856 0
M  V30 3705 H 342.127 1.60789 -5.65173 0
M  V30 3706 H 343.651 2.53526 -5.55479 0
M  V30 3707 H 345.065 0.270333 -5.72662 0
M  V30 3708 H 343.462 -0.478543 -5.98189 0
M  V30 3709 H 344.532 -1.11409 -4.71928 0
M  V30 3710 N 345.875 1.56104 -0.216619 0
M  V30 3711 C 347.152 1.89988 0.465165 0
M  V30 3712 C 347.532 1.13326 1.78102 0
M  V30 3713 O 346.88 0.241033 2.27225 0
M  V30 3714 C 347.09 3.42646 0.662939 0
M  V30 3715 C 348.438 4.13311 0.972602 0
M  V30 3716 O 349.462 3.48217 0.749901 0
M  V30 3717 O 348.321 5.28396 1.39499 0
M  V30 3718 H 345.415 0.78979 0.245276 0
M  V30 3719 H 347.961 1.67721 -0.258436 0
M  V30 3720 H 346.733 3.90399 -0.26543 0
M  V30 3721 H 346.356 3.70677 1.43821 0
M  V30 3722 N 347.353 -0.0568162 1.57498 0
M  V30 3723 C 348.285 -1.09292 2.01464 0
M  V30 3724 C 349.298 -1.34112 0.922913 0
M  V30 3725 O 350.487 -1.32089 1.20062 0
M  V30 3726 C 347.587 -2.44068 2.35125 0
M  V30 3727 C 346.76 -2.38995 3.66333 0
M  V30 3728 C 345.819 -3.55997 3.87495 0
M  V30 3729 O 344.845 -3.36746 4.58901 0
M  V30 3730 N 346.047 -4.76888 3.30996 0
M  V30 3731 H 348.812 -0.718386 2.90963 0
M  V30 3732 H 346.373 -0.245235 1.60032 0
M  V30 3733 H 348.365 -3.21011 2.46443 0
M  V30 3734 H 346.935 -2.73468 1.5144 0
M  V30 3735 H 346.155 -1.47336 3.65631 0
M  V30 3736 H 347.443 -2.3272 4.52458 0
M  V30 3737 H 346.841 -4.95431 2.73065 0
M  V30 3738 H 345.398 -5.51291 3.47738 0
M  V30 3739 N 348.832 -1.54138 -0.328536 0
M  V30 3740 C 349.779 -1.83176 -1.40411 0
M  V30 3741 C 350.749 -0.678494 -1.5161 0
M  V30 3742 O 351.934 -0.92443 -1.6691 0
M  V30 3743 C 349.074 -2.06035 -2.76846 0
M  V30 3744 C 348.187 -3.33727 -2.74318 0
M  V30 3745 C 347.322 -3.46574 -4.02567 0
M  V30 3746 C 346.361 -4.68159 -3.94327 0
M  V30 3747 N 345.498 -4.77959 -5.14296 0
M  V30 3748 H 350.338 -2.74938 -1.14948 0
M  V30 3749 H 347.875 -1.36166 -0.556538 0
M  V30 3750 H 349.833 -2.1728 -3.56153 0
M  V30 3751 H 348.463 -1.1757 -3.00628 0
M  V30 3752 H 347.515 -3.31246 -1.8703 0
M  V30 3753 H 348.827 -4.23139 -2.64111 0
M  V30 3754 H 347.981 -3.57333 -4.90304 0
M  V30 3755 H 346.72 -2.55245 -4.15574 0
M  V30 3756 H 345.725 -4.57461 -3.04974 0
M  V30 3757 H 346.95 -5.60868 -3.82889 0
M  V30 3758 H 344.896 -3.89544 -5.27818 0
M  V30 3759 H 344.813 -5.6133 -5.06404 0
M  V30 3760 H 346.081 -4.93044 -6.03761 0
M  V30 3761 N 350.31 0.590341 -1.46126 0
M  V30 3762 C 351.556 1.34874 -1.52252 0
M  V30 3763 C 351.911 1.91658 -0.168807 0
M  V30 3764 O 351.204 1.73093 0.821556 0
M  V30 3765 C 351.398 2.5032 -2.55097 0
M  V30 3766 C 351.227 2.04843 -4.00337 0
M  V30 3767 C 349.997 1.90213 -4.68132 0
M  V30 3768 C 352.195 1.61267 -4.88362 0
M  V30 3769 N 350.177 1.38727 -5.9802 0
M  V30 3770 C 351.548 1.21319 -6.08015 0
M  V30 3771 C 353.603 1.49015 -4.75078 0
M  V30 3772 C 352.306 0.7034 -7.15852 0
M  V30 3773 C 354.332 0.994401 -5.8298 0
M  V30 3774 C 353.694 0.604659 -7.018 0
M  V30 3775 H 349.793 0.486803 -0.612002 0
M  V30 3776 H 352.377 0.673007 -1.82698 0
M  V30 3777 H 350.548 3.15466 -2.26574 0
M  V30 3778 H 352.28 3.1725 -2.51266 0
M  V30 3779 H 349.035 2.11927 -4.23537 0
M  V30 3780 H 349.459 1.15168 -6.67132 0
M  V30 3781 H 354.101 1.77768 -3.83612 0
M  V30 3782 H 351.819 0.403446 -8.07092 0
M  V30 3783 H 355.405 0.903621 -5.7474 0
M  V30 3784 H 354.285 0.226963 -7.83871 0
M  V30 3785 N 351.788 1.33704 0.83433 0
M  V30 3786 C 353.034 1.25603 1.59222 0
M  V30 3787 C 353.367 -0.176659 1.93395 0
M  V30 3788 O 352.642 -1.11915 1.59076 0
M  V30 3789 C 352.925 2.13576 2.89926 0
M  V30 3790 C 352.778 3.65326 2.62406 0
M  V30 3791 C 354.097 2.01238 3.91397 0
M  V30 3792 H 351.216 0.457613 0.577719 0
M  V30 3793 H 353.858 1.63848 0.961972 0
M  V30 3794 H 352.008 1.8109 3.43713 0
M  V30 3795 H 353.68 4.08124 2.15017 0
M  V30 3796 H 351.923 3.8698 1.96033 0
M  V30 3797 H 352.594 4.22232 3.55562 0
M  V30 3798 H 355.07 2.29738 3.46929 0
M  V30 3799 H 353.946 2.65036 4.80673 0
M  V30 3800 H 354.207 0.985951 4.30966 0
M  V30 3801 N 353.266 -1.05314 1.17247 0
M  V30 3802 C 354.198 -2.13023 0.845812 0
M  V30 3803 C 355.211 -1.62096 -0.151246 0
M  V30 3804 O 356.4 -1.78343 0.0748818 0
M  V30 3805 C 353.5 -3.38047 0.240292 0
M  V30 3806 C 352.673 -4.18255 1.27991 0
M  V30 3807 C 351.732 -5.21625 0.692375 0
M  V30 3808 O 350.758 -5.52619 1.36385 0
M  V30 3809 N 351.96 -5.78201 -0.516178 0
M  V30 3810 H 354.725 -2.41642 1.77283 0
M  V30 3811 H 352.286 -1.21401 1.07115 0
M  V30 3812 H 354.278 -4.04359 -0.16603 0
M  V30 3813 H 352.848 -3.06972 -0.590487 0
M  V30 3814 H 352.068 -3.47451 1.86203 0
M  V30 3815 H 353.356 -4.68643 1.98119 0
M  V30 3816 H 352.754 -5.55301 -1.07969 0
M  V30 3817 H 351.311 -6.4604 -0.86458 0
M  V30 3818 N 354.744 -0.972509 -1.24016 0
M  V30 3819 C 355.707 -0.511403 -2.23422 0
M  V30 3820 C 356.707 0.394679 -1.55881 0
M  V30 3821 O 357.897 0.189469 -1.73167 0
M  V30 3822 C 355.029 0.258769 -3.39916 0
M  V30 3823 H 356.222 -1.39024 -2.6573 0
M  V30 3824 H 353.775 -0.757585 -1.36713 0
M  V30 3825 H 354.51 1.1545 -3.03054 0
M  V30 3826 H 354.295 -0.391522 -3.9014 0
M  V30 3827 H 355.785 0.570244 -4.13688 0
M  V30 3828 N 356.222 1.38976 -0.743202 0
M  V30 3829 C 357.499 1.94351 -0.220705 0
M  V30 3830 C 357.879 1.67935 1.2791 0
M  V30 3831 O 357.227 1.01211 2.04862 0
M  V30 3832 C 357.437 3.44426 -0.563171 0
M  V30 3833 C 358.785 4.2144 -0.517046 0
M  V30 3834 O 359.809 3.52661 -0.500846 0
M  V30 3835 O 358.668 5.44032 -0.518806 0
M  V30 3836 H 355.762 0.825879 -0.043047 0
M  V30 3837 H 358.308 1.48429 -0.822618 0
M  V30 3838 H 357.08 3.5712 -1.59941 0
M  V30 3839 H 356.703 3.97543 0.0672883 0
M  V30 3840 N 357.7 0.491464 1.49741 0
M  V30 3841 C 358.925 -0.0557177 2.07325 0
M  V30 3842 C 359.35 -1.30925 1.35056 0
M  V30 3843 O 358.708 -1.76733 0.404365 0
M  V30 3844 C 358.756 -0.302074 3.59333 0
M  V30 3845 O 357.86 -1.37868 3.88672 0
M  V30 3846 H 357.201 0.0219956 0.663636 0
M  V30 3847 H 359.731 0.688352 1.92673 0
M  V30 3848 H 359.741 -0.536464 4.04458 0
M  V30 3849 H 358.416 0.61383 4.11345 0
M  V30 3850 H 356.993 -1.12999 3.55367 0
M  V30 3851 N 359.178 -1.55987 0.224894 0
M  V30 3852 C 360.425 -1.9839 -0.4059 0
M  V30 3853 C 360.753 -1.11261 -1.59535 0
M  V30 3854 O 360.008 -0.158314 -1.95059 0
M  V30 3855 C 360.307 -3.46394 -0.880106 0
M  V30 3856 C 359.973 -4.5046 0.19918 0
M  V30 3857 C 358.635 -4.7864 0.495661 0
M  V30 3858 C 360.987 -5.12855 0.928939 0
M  V30 3859 C 358.315 -5.66497 1.52636 0
M  V30 3860 C 360.667 -6.01828 1.949 0
M  V30 3861 C 359.331 -6.28351 2.25236 0
M  V30 3862 H 358.601 -0.725961 -0.148529 0
M  V30 3863 H 361.248 -1.88668 0.328113 0
M  V30 3864 H 359.553 -3.53337 -1.69294 0
M  V30 3865 H 361.25 -3.76577 -1.37808 0
M  V30 3866 H 357.84 -4.28579 -0.0420526 0
M  V30 3867 H 362.024 -4.9115 0.713129 0
M  V30 3868 H 357.28 -5.8531 1.76698 0
M  V30 3869 H 361.454 -6.49225 2.51951 0
M  V30 3870 H 359.081 -6.96226 3.05244 0
M  V30 3871 N 360.656 0.0484629 -1.57525 0
M  V30 3872 C 361.902 0.744226 -1.88651 0
M  V30 3873 C 362.235 1.76029 -0.820212 0
M  V30 3874 O 361.51 1.93782 0.166985 0
M  V30 3875 C 361.793 1.43128 -3.30434 0
M  V30 3876 C 361.646 0.43005 -4.47739 0
M  V30 3877 C 362.965 2.37031 -3.70816 0
M  V30 3878 H 360.084 0.269089 -0.68612 0
M  V30 3879 H 362.726 0.00713532 -1.89999 0
M  V30 3880 H 360.876 2.05956 -3.29415 0
M  V30 3881 H 362.548 -0.194816 -4.60888 0
M  V30 3882 H 360.791 -0.252522 -4.33064 0
M  V30 3883 H 361.462 0.948874 -5.43783 0
M  V30 3884 H 363.938 1.84263 -3.73077 0
M  V30 3885 H 362.814 2.82094 -4.70865 0
M  V30 3886 H 363.075 3.22864 -3.02012 0
M  V30 3887 N 362.134 1.5431 0.320358 0
M  V30 3888 C 363.545 1.63872 0.894594 0
M  V30 3889 C 363.896 0.534847 1.88769 0
M  V30 3890 O 363.021 -0.331732 2.13842 0
M  V30 3891 C 363.616 2.97049 1.62934 0
M  V30 3892 C 362.175 3.08796 2.15226 0
M  V30 3893 C 361.322 2.59456 0.978671 0
M  V30 3894 H 364.273 1.58398 0.0978544 0
M  V30 3895 H 364.294 2.87388 2.49376 0
M  V30 3896 H 363.806 3.7737 0.906302 0
M  V30 3897 H 361.907 2.33156 2.90636 0
M  V30 3898 H 362.02 4.14649 2.40006 0
M  V30 3899 H 360.384 2.1543 1.35875 0
M  V30 3900 H 361.167 3.42237 0.269895 0
M  V30 3901 N 363.613 -0.582584 1.46437 0
M  V30 3902 C 364.543 -1.70187 1.59871 0
M  V30 3903 C 365.524 -1.64066 0.449042 0
M  V30 3904 O 366.709 -1.82081 0.6753 0
M  V30 3905 C 363.839 -3.08827 1.58881 0
M  V30 3906 C 362.793 -3.29779 2.72819 0
M  V30 3907 C 362.119 -4.68947 2.5689 0
M  V30 3908 C 363.419 -3.17601 4.1464 0
M  V30 3909 H 365.113 -1.592 2.53566 0
M  V30 3910 H 362.659 -0.764472 1.22032 0
M  V30 3911 H 364.612 -3.86951 1.66873 0
M  V30 3912 H 363.336 -3.20713 0.617306 0
M  V30 3913 H 361.995 -2.54054 2.64296 0
M  V30 3914 H 361.643 -4.77599 1.57823 0
M  V30 3915 H 361.343 -4.83919 3.33312 0
M  V30 3916 H 362.867 -5.4924 2.66773 0
M  V30 3917 H 364.281 -3.8557 4.24274 0
M  V30 3918 H 362.678 -3.44094 4.9165 0
M  V30 3919 H 363.748 -2.14681 4.34788 0
M  V30 3920 N 365.091 -1.34144 -0.827227 0
M  V30 3921 C 366.337 -1.26446 -1.58554 0
M  V30 3922 C 366.67 0.1664 -1.93486 0
M  V30 3923 O 365.945 1.1107 -1.59667 0
M  V30 3924 C 366.228 -2.15111 -2.8879 0
M  V30 3925 C 366.081 -3.66712 -2.60465 0
M  V30 3926 C 367.4 -2.03311 -3.90324 0
M  V30 3927 H 364.519 -0.46067 -0.575284 0
M  V30 3928 H 367.161 -1.64356 -0.953269 0
M  V30 3929 H 365.311 -1.8291 -3.42748 0
M  V30 3930 H 366.983 -4.09259 -2.1285 0
M  V30 3931 H 365.226 -3.88014 -1.93978 0
M  V30 3932 H 365.897 -4.24112 -3.53317 0
M  V30 3933 H 368.373 -2.31574 -3.45706 0
M  V30 3934 H 367.249 -2.67582 -4.79261 0
M  V30 3935 H 367.51 -1.00879 -4.30437 0
M  V30 3936 N 366.569 1.04691 -1.17803 0
M  V30 3937 C 367.797 1.81446 -0.99423 0
M  V30 3938 C 368.212 1.83174 0.457459 0
M  V30 3939 O 367.569 1.26265 1.31771 0
M  V30 3940 C 367.62 3.27334 -1.5341 0
M  V30 3941 O 367.341 3.25798 -2.92895 0
M  V30 3942 C 368.842 4.20759 -1.39559 0
M  V30 3943 H 366.062 0.571599 -0.351447 0
M  V30 3944 H 368.606 1.31982 -1.56208 0
M  V30 3945 H 366.761 3.74052 -1.00815 0
M  V30 3946 H 367.175 4.17144 -3.17949 0
M  V30 3947 H 368.649 5.21084 -1.82141 0
M  V30 3948 H 369.126 4.37856 -0.343394 0
M  V30 3949 H 369.732 3.79901 -1.91195 0
M  V30 3950 N 368.047 0.979072 1.23499 0
M  V30 3951 C 368.977 0.537606 2.27227 0
M  V30 3952 C 369.958 -0.428539 1.64613 0
M  V30 3953 O 371.143 -0.322191 1.91509 0
M  V30 3954 C 368.273 -0.162052 3.46922 0
M  V30 3955 C 367.227 0.721242 4.21879 0
M  V30 3956 C 366.553 -0.110555 5.34586 0
M  V30 3957 C 367.853 2.01141 4.82016 0
M  V30 3958 H 369.547 1.40462 2.64406 0
M  V30 3959 H 367.093 0.67684 1.27102 0
M  V30 3960 H 369.046 -0.482192 4.18632 0
M  V30 3961 H 367.77 -1.06351 3.08799 0
M  V30 3962 H 366.429 1.02482 3.51984 0
M  V30 3963 H 366.077 -1.0125 4.92704 0
M  V30 3964 H 365.777 0.477325 5.85658 0
M  V30 3965 H 367.301 -0.425107 6.09118 0
M  V30 3966 H 368.715 1.75612 5.45741 0
M  V30 3967 H 367.112 2.54695 5.43369 0
M  V30 3968 H 368.182 2.69909 4.02836 0
M  V30 3969 N 369.525 -1.3858 0.750561 0
M  V30 3970 C 370.473 -2.32339 0.110162 0
M  V30 3971 C 371.467 -1.53864 -0.708674 0
M  V30 3972 O 372.673 -1.69417 -0.608112 0
M  V30 3973 H 369.048 -0.751812 0.0168275 0
M  V30 3974 H 371.019 -2.83959 0.917053 0
M  V30 3975 C 369.768 -3.39043 -0.771067 0
M  V30 3976 H 369.091 -3.99517 -0.150374 0
M  V30 3977 H 370.531 -4.07061 -1.1865 0
M  V30 3978 C 368.99 -2.77365 -1.91234 0
M  V30 3979 O 369.52 -2.66434 -3.00626 0
M  V30 3980 N 367.726 -2.35219 -1.70646 0
M  V30 3981 H 367.273 -2.4431 -0.81673 0
M  V30 3982 H 367.231 -1.94294 -2.47178 0
M  V30 3983 N 371.003 -0.499398 -1.49478 0
M  V30 3984 C 371.95 0.279881 -2.29097 0
M  V30 3985 C 372.92 0.961805 -1.3542 0
M  V30 3986 O 374.105 0.968777 -1.64376 0
M  V30 3987 C 371.245 1.33932 -3.18051 0
M  V30 3988 C 370.358 0.669333 -4.26783 0
M  V30 3989 C 369.493 1.70907 -5.02955 0
M  V30 3990 C 368.532 1.02087 -6.03527 0
M  V30 3991 N 367.669 2.00474 -6.7287 0
M  V30 3992 H 372.509 -0.405317 -2.95231 0
M  V30 3993 H 370.046 -0.211726 -1.45568 0
M  V30 3994 H 372.004 1.96553 -3.67998 0
M  V30 3995 H 370.634 1.9933 -2.53904 0
M  V30 3996 H 369.686 -0.0701234 -3.80335 0
M  V30 3997 H 370.998 0.127503 -4.98637 0
M  V30 3998 H 370.152 2.41037 -5.56764 0
M  V30 3999 H 368.891 2.28476 -4.30871 0
M  V30 4000 H 367.896 0.305338 -5.48951 0
M  V30 4001 H 369.121 0.451708 -6.77596 0
M  V30 4002 H 367.067 2.57007 -6.03559 0
M  V30 4003 H 366.984 1.51353 -7.40694 0
M  V30 4004 H 368.252 2.69897 -7.31284 0
M  V30 4005 N 372.481 1.55866 -0.233164 0
M  V30 4006 C 373.758 1.90471 0.444988 0
M  V30 4007 C 374.138 1.15209 1.7689 0
M  V30 4008 O 373.486 0.265119 2.26957 0
M  V30 4009 C 373.696 3.4333 0.626559 0
M  V30 4010 C 375.044 4.14319 0.92871 0
M  V30 4011 O 376.068 3.48993 0.712926 0
M  V30 4012 O 374.927 5.29846 1.33887 0
M  V30 4013 H 372.021 0.792347 0.236885 0
M  V30 4014 H 374.567 1.67437 -0.276211 0
M  V30 4015 H 373.339 3.90095 -0.306822 0
M  V30 4016 H 372.962 3.72181 1.39881 0
M  V30 4017 N 373.959 -0.0401083 1.57549 0
M  V30 4018 C 374.907 -1.06264 2.06908 0
M  V30 4019 C 375.901 -1.38132 0.980608 0
M  V30 4020 O 377.107 -1.37167 1.16556 0
M  V30 4021 H 373.482 -0.360166 0.660139 0
M  V30 4022 H 375.453 -0.620445 2.91878 0
M  V30 4023 C 374.202 -2.35846 2.55483 0
M  V30 4024 H 373.525 -2.12183 3.38849 0
M  V30 4025 H 374.965 -3.05765 2.93741 0
M  V30 4026 C 373.424 -3.0404 1.45126 0
M  V30 4027 O 373.954 -3.93424 0.811216 0
M  V30 4028 N 372.16 -2.65184 1.18852 0
M  V30 4029 H 371.707 -1.92584 1.71083 0
M  V30 4030 H 371.665 -3.1113 0.452244 0
M  V30 4031 N 375.437 -1.54477 -0.31217 0
M  V30 4032 C 376.367 -1.87652 -1.38957 0
M  V30 4033 C 377.348 -0.734358 -1.53431 0
M  V30 4034 O 378.533 -0.98911 -1.67123 0
M  V30 4035 C 375.663 -2.11396 -2.75552 0
M  V30 4036 C 374.617 -3.27243 -2.75855 0
M  V30 4037 C 373.943 -3.36382 -4.15633 0
M  V30 4038 C 375.243 -4.64622 -2.38587 0
M  V30 4039 H 376.937 -2.77887 -1.11442 0
M  V30 4040 H 374.483 -1.33707 -0.534655 0
M  V30 4041 H 376.436 -2.33189 -3.51 0
M  V30 4042 H 375.16 -1.17921 -3.04569 0
M  V30 4043 H 373.819 -3.05356 -2.02863 0
M  V30 4044 H 373.467 -2.40445 -4.41809 0
M  V30 4045 H 373.167 -4.14249 -4.1674 0
M  V30 4046 H 374.691 -3.60422 -4.92877 0
M  V30 4047 H 376.105 -4.86219 -3.03749 0
M  V30 4048 H 374.502 -5.45121 -2.50925 0
M  V30 4049 H 375.572 -4.66097 -1.33723 0
M  V30 4050 N 376.915 0.57481 -1.46744 0
M  V30 4051 C 378.326 1.15695 -1.46532 0
M  V30 4052 C 378.677 1.95068 -0.210425 0
M  V30 4053 O 377.802 2.05241 0.685944 0
M  V30 4054 C 378.397 2.1048 -2.65487 0
M  V30 4055 C 376.956 2.64002 -2.68291 0
M  V30 4056 C 376.103 1.40026 -2.39349 0
M  V30 4057 H 379.054 0.362325 -1.54509 0
M  V30 4058 H 379.075 2.94074 -2.41455 0
M  V30 4059 H 378.587 1.52683 -3.56805 0
M  V30 4060 H 376.688 3.25646 -1.81067 0
M  V30 4061 H 376.801 3.06197 -3.68483 0
M  V30 4062 H 375.165 1.70106 -1.89568 0
M  V30 4063 H 375.948 0.840485 -3.32852 0
M  V30 4064 N 378.394 1.34581 0.820102 0
M  V30 4065 C 379.304 1.28471 1.96297 0
M  V30 4066 C 380.32 0.191902 1.72939 0
M  V30 4067 O 381.496 0.418879 1.96996 0
M  V30 4068 C 378.561 1.04281 3.30645 0
M  V30 4069 C 377.622 2.22745 3.66992 0
M  V30 4070 C 376.855 1.997 4.9493 0
M  V30 4071 O 377.078 0.956656 5.6232 0
M  V30 4072 O 376.012 2.86723 5.2922 0
M  V30 4073 H 379.838 2.24624 2.04396 0
M  V30 4074 H 377.423 1.14816 0.955913 0
M  V30 4075 H 379.305 0.925841 4.11104 0
M  V30 4076 H 377.98 0.111697 3.23507 0
M  V30 4077 H 376.887 2.40003 2.86966 0
M  V30 4078 H 378.22 3.14257 3.78819 0
M  V30 4079 N 379.872 -1.04064 1.18357 0
M  V30 4080 C 380.835 -2.10243 0.912707 0
M  V30 4081 C 381.835 -1.60477 -0.101928 0
M  V30 4082 O 383.025 -1.73703 0.131517 0
M  V30 4083 C 380.157 -3.38893 0.369387 0
M  V30 4084 H 381.35 -2.35706 1.85426 0
M  V30 4085 H 378.903 -1.20489 0.995594 0
M  V30 4086 H 379.638 -3.19094 -0.578776 0
M  V30 4087 H 379.423 -3.76331 1.1008 0
M  V30 4088 H 380.913 -4.17128 0.198575 0
M  V30 4089 N 381.35 -0.985608 -1.22978 0
M  V30 4090 C 382.578 -0.675582 -1.95559 0
M  V30 4091 C 382.993 0.758413 -1.72897 0
M  V30 4092 O 382.35 1.51094 -1.02357 0
M  V30 4093 C 382.401 -0.96293 -3.48439 0
M  V30 4094 O 382.122 -2.34057 -3.70336 0
M  V30 4095 C 383.623 -0.669585 -4.38214 0
M  V30 4096 H 380.843 -0.250523 -0.622478 0
M  V30 4097 H 383.387 -1.3184 -1.56328 0
M  V30 4098 H 381.542 -0.366033 -3.85667 0
M  V30 4099 H 381.956 -2.43424 -4.64591 0
M  V30 4100 H 383.43 -0.920967 -5.44263 0
M  V30 4101 H 383.907 0.396383 -4.37408 0
M  V30 4102 H 384.513 -1.2472 -4.06602 0
M  V30 4103 N 382.828 1.3818 -0.7579 0
M  V30 4104 C 384.076 1.99624 -0.315361 0
M  V30 4105 C 384.397 1.60464 1.10799 0
M  V30 4106 O 383.667 0.863507 1.75842 0
M  V30 4107 H 382.247 0.73831 -0.113611 0
M  V30 4108 H 384.909 1.68878 -0.972952 0
M  V30 4109 H 384.005 3.09754 -0.381931 0
M  V30 4110 N 384.306 0.507319 1.49211 0
M  V30 4111 C 385.236 -0.256939 2.32082 0
M  V30 4112 C 386.217 -0.956609 1.40652 0
M  V30 4113 O 387.402 -0.946788 1.69557 0
M  V30 4114 C 384.532 -1.31802 3.21318 0
M  V30 4115 C 383.486 -0.737855 4.21592 0
M  V30 4116 C 382.812 -1.89992 4.99807 0
M  V30 4117 C 384.112 0.275325 5.21574 0
M  V30 4118 H 385.806 0.434798 2.96226 0
M  V30 4119 H 383.352 0.210546 1.42452 0
M  V30 4120 H 385.305 -1.86045 3.78107 0
M  V30 4121 H 384.029 -2.03903 2.5513 0
M  V30 4122 H 382.688 -0.217126 3.65956 0
M  V30 4123 H 382.336 -2.60877 4.30061 0
M  V30 4124 H 382.036 -1.51777 5.6766 0
M  V30 4125 H 383.56 -2.44657 5.59442 0
M  V30 4126 H 384.974 -0.179193 5.7302 0
M  V30 4127 H 383.371 0.573649 5.97352 0
M  V30 4128 H 384.441 1.18903 4.70096 0
M  V30 4129 N 385.784 -1.5574 0.241426 0
M  V30 4130 C 387.012 -2.03208 -0.389134 0
M  V30 4131 C 387.427 -1.12082 -1.51931 0
M  V30 4132 O 386.784 -0.134183 -1.82006 0
M  V30 4133 C 386.835 -3.50064 -0.902087 0
M  V30 4134 O 386.556 -4.37717 0.18305 0
M  V30 4135 C 388.057 -4.13268 -1.60389 0
M  V30 4136 H 385.277 -0.664509 -0.0931053 0
M  V30 4137 H 387.821 -2.0124 0.36369 0
M  V30 4138 H 385.976 -3.52583 -1.60511 0
M  V30 4139 H 386.39 -5.24097 -0.205579 0
M  V30 4140 H 387.864 -5.17733 -1.91458 0
M  V30 4141 H 388.341 -3.59434 -2.52397 0
M  V30 4142 H 388.947 -4.14655 -0.945576 0
M  V30 4143 N 387.262 0.0317525 -1.57568 0
M  V30 4144 C 388.492 0.733884 -1.93126 0
M  V30 4145 C 388.9 1.69563 -0.839352 0
M  V30 4146 O 388.243 1.82681 0.193175 0
M  V30 4147 C 388.305 1.54798 -3.24465 0
M  V30 4148 C 387.969 0.751304 -4.50782 0
M  V30 4149 C 388.966 0.0527632 -5.19873 0
M  V30 4150 C 386.651 0.706639 -4.97305 0
M  V30 4151 C 388.645 -0.679774 -6.33765 0
M  V30 4152 C 386.332 -0.0296449 -6.11093 0
M  V30 4153 C 387.33 -0.721614 -6.79177 0
M  V30 4154 O 387.018 -1.44595 -7.90789 0
M  V30 4155 H 386.75 0.211459 -0.642076 0
M  V30 4156 H 389.304 -0.00585615 -2.05399 0
M  V30 4157 H 387.534 2.33147 -3.08512 0
M  V30 4158 H 389.223 2.13247 -3.4537 0
M  V30 4159 H 389.989 0.0783188 -4.84937 0
M  V30 4160 H 385.868 1.23474 -4.44157 0
M  V30 4161 H 389.412 -1.22042 -6.86842 0
M  V30 4162 H 385.309 -0.0571331 -6.45475 0
M  V30 4163 H 386.077 -1.35935 -8.07133 0
M  V30 4164 N 388.74 1.54641 0.303973 0
M  V30 4165 C 389.703 1.84646 1.35789 0
M  V30 4166 C 390.703 0.7192 1.4382 0
M  V30 4167 O 391.893 0.987491 1.43507 0
M  V30 4168 C 389.025 2.02407 2.74307 0
M  V30 4169 H 390.218 2.78829 1.10429 0
M  V30 4170 H 387.771 1.46658 0.540487 0
M  V30 4171 H 388.506 1.10502 3.04893 0
M  V30 4172 H 388.291 2.84453 2.69868 0
M  V30 4173 H 389.781 2.27002 3.50514 0
M  V30 4174 N 390.218 -0.567019 1.47046 0
M  V30 4175 C 391.15 -1.68985 1.54844 0
M  V30 4176 C 392.163 -1.56869 0.435431 0
M  V30 4177 O 393.352 -1.64006 0.70457 0
M  V30 4178 C 390.452 -3.07373 1.42742 0
M  V30 4179 C 389.625 -3.45339 2.6844 0
M  V30 4180 C 388.684 -4.62849 2.50314 0
M  V30 4181 O 387.71 -4.67922 3.24095 0
M  V30 4182 N 388.912 -5.58726 1.57499 0
M  V30 4183 H 391.677 -1.62745 2.51663 0
M  V30 4184 H 389.238 -0.753411 1.43302 0
M  V30 4185 H 391.23 -3.83803 1.28365 0
M  V30 4186 H 389.8 -3.07893 0.540445 0
M  V30 4187 H 389.02 -2.58455 2.97648 0
M  V30 4188 H 390.308 -3.67476 3.51907 0
M  V30 4189 H 389.706 -5.57376 0.966876 0
M  V30 4190 H 388.263 -6.34523 1.49078 0
M  V30 4191 N 391.696 -1.35014 -0.812953 0
M  V30 4192 C 392.643 -1.27412 -1.92444 0
M  V30 4193 C 393.613 -0.14733 -1.65445 0
M  V30 4194 O 394.798 -0.329974 -1.87925 0
M  V30 4195 C 391.938 -1.04558 -3.28879 0
M  V30 4196 C 391.051 -2.26101 -3.68106 0
M  V30 4197 C 390.186 -1.96449 -4.9354 0
M  V30 4198 C 389.225 -3.14081 -5.25376 0
M  V30 4199 N 388.362 -2.84246 -6.41988 0
M  V30 4200 H 393.202 -2.22463 -1.98278 0
M  V30 4201 H 390.739 -1.10593 -0.969933 0
M  V30 4202 H 392.697 -0.893413 -4.07522 0
M  V30 4203 H 391.327 -0.131719 -3.22531 0
M  V30 4204 H 390.379 -2.52204 -2.84775 0
M  V30 4205 H 391.691 -3.13959 -3.87597 0
M  V30 4206 H 390.845 -1.78026 -5.79993 0
M  V30 4207 H 389.584 -1.05867 -4.76071 0
M  V30 4208 H 388.589 -3.33089 -4.37415 0
M  V30 4209 H 389.814 -4.05455 -5.44778 0
M  V30 4210 H 387.76 -1.96252 -6.25956 0
M  V30 4211 H 387.677 -3.65637 -6.61699 0
M  V30 4212 H 388.945 -2.6935 -7.31485 0
M  V30 4213 N 393.175 1.03435 -1.18907 0
M  V30 4214 C 394.085 2.15075 -0.937015 0
M  V30 4215 C 395.101 1.73706 0.101085 0
M  V30 4216 O 396.277 2.01232 -0.0822948 0
M  V30 4217 C 393.342 3.43458 -0.473057 0
M  V30 4218 C 392.403 3.99172 -1.57989 0
M  V30 4219 C 391.636 5.21427 -1.13797 0
M  V30 4220 O 391.859 5.704 0.000725941 0
M  V30 4221 O 390.793 5.69837 -1.9383 0
M  V30 4222 H 394.619 2.39198 -1.87131 0
M  V30 4223 H 392.204 1.13506 -0.971427 0
M  V30 4224 H 394.086 4.20811 -0.222702 0
M  V30 4225 H 392.761 3.20793 0.432869 0
M  V30 4226 H 391.668 3.23178 -1.88433 0
M  V30 4227 H 393.001 4.2619 -2.46217 0
M  V30 4228 N 394.653 0.992116 1.22453 0
M  V30 4229 C 395.586 0.486701 2.22949 0
M  V30 4230 C 396.564 -0.45259 1.56174 0
M  V30 4231 O 397.748 -0.378317 1.84665 0
M  V30 4232 C 394.875 -0.294537 3.37417 0
M  V30 4233 C 393.921 0.590628 4.22391 0
M  V30 4234 S 394.754 2.04546 4.94895 0
M  V30 4235 C 395.91 1.27369 6.12803 0
M  V30 4236 H 396.143 1.33828 2.65475 0
M  V30 4237 H 393.676 0.799023 1.32117 0
M  V30 4238 H 395.634 -0.739241 4.03789 0
M  V30 4239 H 394.295 -1.12139 2.934 0
M  V30 4240 H 393.488 -0.0104375 5.03999 0
M  V30 4241 H 393.09 0.972064 3.61147 0
M  V30 4242 H 395.382 0.540943 6.75337 0
M  V30 4243 H 396.325 2.06502 6.7732 0
M  V30 4244 H 396.733 0.787324 5.58983 0
M  V30 4245 N 396.131 -1.37776 0.765217 0
M  V30 4246 C 397.547 -1.53297 0.444108 0
M  V30 4247 C 397.747 -1.72515 -1.04119 0
M  V30 4248 O 396.803 -1.74278 -1.82711 0
M  V30 4249 C 398.116 -2.73328 1.25349 0
M  V30 4250 C 399.664 -2.87185 1.24473 0
M  V30 4251 C 400.139 -4.10191 2.03733 0
M  V30 4252 N 401.63 -4.17291 2.01053 0
M  V30 4253 C 402.365 -5.11488 2.59166 0
M  V30 4254 N 401.861 -6.11285 3.26041 0
M  V30 4255 N 403.654 -5.03924 2.49032 0
M  V30 4256 H 395.805 -1.23552 1.72768 0
M  V30 4257 H 398.068 -0.601103 0.733062 0
M  V30 4258 H 397.774 -2.6557 2.30577 0
M  V30 4259 H 397.648 -3.66834 0.87823 0
M  V30 4260 H 400.035 -2.94418 0.20047 0
M  V30 4261 H 400.116 -1.94657 1.65959 0
M  V30 4262 H 399.76 -4.0372 3.08176 0
M  V30 4263 H 399.69 -5.01821 1.59633 0
M  V30 4264 H 402.181 -3.45825 1.5236 0
M  V30 4265 H 402.494 -6.79678 3.67774 0
M  V30 4266 H 400.839 -6.11583 3.30138 0
M  V30 4267 H 404.03 -4.24902 1.96407 0
M  V30 4268 H 404.203 -5.77152 2.94617 0
M  V30 4269 N 397.609 -0.515225 -1.4894 0
M  V30 4270 C 398.837 0.0206034 -2.0689 0
M  V30 4271 C 399.252 1.29514 -1.37374 0
M  V30 4272 O 398.609 1.76698 -0.456529 0
M  V30 4273 C 398.66 0.26351 -3.60538 0
M  V30 4274 O 398.381 -0.960517 -4.27441 0
M  V30 4275 C 399.882 0.841383 -4.35242 0
M  V30 4276 H 397.102 -0.0268608 -0.670462 0
M  V30 4277 H 399.646 -0.716651 -1.91532 0
M  V30 4278 H 397.801 0.950777 -3.75552 0
M  V30 4279 H 398.215 -0.73212 -5.19365 0
M  V30 4280 H 399.689 0.96085 -5.43573 0
M  V30 4281 H 400.166 1.8427 -3.98674 0
M  V30 4282 H 400.772 0.191143 -4.2487 0
M  V30 4283 N 399.087 1.5561 -0.249682 0
M  V30 4284 C 400.317 2.03116 0.377803 0
M  V30 4285 C 400.725 1.12822 1.51881 0
M  V30 4286 O 400.068 0.13562 1.83199 0
M  V30 4287 C 400.13 3.46866 0.944693 0
M  V30 4288 C 399.794 4.56955 -0.0644259 0
M  V30 4289 C 400.791 5.12485 -0.874957 0
M  V30 4290 C 398.476 5.01936 -0.19132 0
M  V30 4291 C 400.47 6.11491 -1.79881 0
M  V30 4292 C 398.157 6.00773 -1.11868 0
M  V30 4293 C 399.155 6.5543 -1.92095 0
M  V30 4294 O 398.843 7.5234 -2.83267 0
M  V30 4295 H 398.575 0.669489 0.0935961 0
M  V30 4296 H 401.129 2.02004 -0.371966 0
M  V30 4297 H 399.359 3.45136 1.74407 0
M  V30 4298 H 401.048 3.77856 1.48255 0
M  V30 4299 H 401.814 4.78564 -0.787523 0
M  V30 4300 H 397.693 4.59055 0.423072 0
M  V30 4301 H 401.237 6.54078 -2.42543 0
M  V30 4302 H 397.134 6.34114 -1.20703 0
M  V30 4303 H 397.902 7.69966 -2.7766 0
M  V30 4304 N 400.565 -0.0233959 1.57583 0
M  V30 4305 C 401.976 -0.56927 1.77809 0
M  V30 4306 C 402.327 -1.75284 0.881472 0
M  V30 4307 O 401.452 -2.1626 0.0777805 0
M  V30 4308 C 402.047 -1.03949 3.22459 0
M  V30 4309 C 400.606 -1.53084 3.43864 0
M  V30 4310 C 399.753 -0.471454 2.73263 0
M  V30 4311 H 402.704 0.202825 1.57399 0
M  V30 4312 H 402.725 -1.90661 3.29285 0
M  V30 4313 H 402.237 -0.177865 3.87692 0
M  V30 4314 H 400.338 -2.41414 2.83814 0
M  V30 4315 H 400.451 -1.57443 4.52491 0
M  V30 4316 H 398.815 -0.927788 2.37201 0
M  V30 4317 H 399.598 0.380808 3.41181 0
M  V30 4318 N 402.043 -1.548 -0.295768 0
M  V30 4319 C 402.973 -1.89115 -1.36959 0
M  V30 4320 C 403.954 -0.75059 -1.52644 0
M  V30 4321 O 405.139 -1.00678 -1.66065 0
M  V30 4322 C 402.269 -2.14307 -2.73295 0
M  V30 4323 C 401.223 -3.30151 -2.72368 0
M  V30 4324 C 400.549 -3.40772 -4.12042 0
M  V30 4325 C 401.849 -4.67126 -2.33646 0
M  V30 4326 H 403.543 -2.79053 -1.08488 0
M  V30 4327 H 401.089 -1.34266 -0.520443 0
M  V30 4328 H 403.042 -2.36898 -3.48507 0
M  V30 4329 H 401.766 -1.21145 -3.03301 0
M  V30 4330 H 400.425 -3.0749 -1.99613 0
M  V30 4331 H 400.073 -2.45117 -4.39234 0
M  V30 4332 H 399.773 -4.18645 -4.12322 0
M  V30 4333 H 401.297 -3.6563 -4.89027 0
M  V30 4334 H 402.711 -4.89414 -2.98575 0
M  V30 4335 H 401.108 -5.47751 -2.45129 0
M  V30 4336 H 402.178 -4.67489 -1.28772 0
M  V30 4337 N 403.521 0.559213 -1.47345 0
M  V30 4338 C 404.469 1.68747 -1.60085 0
M  V30 4339 C 405.463 1.628 -0.46825 0
M  V30 4340 O 406.669 1.68009 -0.645977 0
M  V30 4341 H 403.044 0.558329 -0.503759 0
M  V30 4342 H 405.015 1.55138 -2.54902 0
M  V30 4343 C 403.764 3.07103 -1.63042 0
M  V30 4344 H 403.087 3.12361 -2.49541 0
M  V30 4345 H 404.527 3.85743 -1.76006 0
M  V30 4346 C 402.986 3.34935 -0.363357 0
M  V30 4347 O 403.516 3.98102 0.536416 0
M  V30 4348 N 401.722 2.89574 -0.244 0
M  V30 4349 H 401.269 2.38348 -0.977133 0
M  V30 4350 H 401.227 3.08566 0.602836 0
M  V30 4351 N 404.999 1.35443 0.805782 0
M  V30 4352 C 405.909 1.30546 1.94923 0
M  V30 4353 C 406.925 0.210233 1.72725 0
M  V30 4354 O 408.101 0.43975 1.9654 0
M  V30 4355 C 405.166 1.07782 3.29521 0
M  V30 4356 C 404.227 2.26625 3.64609 0
M  V30 4357 C 403.46 2.04938 4.92784 0
M  V30 4358 O 403.683 1.01624 5.61274 0
M  V30 4359 O 402.617 2.9232 5.26149 0
M  V30 4360 H 406.443 2.26779 2.02002 0
M  V30 4361 H 404.028 1.15823 0.943682 0
M  V30 4362 H 405.91 0.969392 4.10098 0
M  V30 4363 H 404.585 0.146003 3.23371 0
M  V30 4364 H 403.492 2.43033 2.84404 0
M  V30 4365 H 404.825 3.18257 3.75464 0
M  V30 4366 N 406.477 -1.02803 1.19454 0
M  V30 4367 C 407.44 -2.09264 0.934955 0
M  V30 4368 C 408.44 -1.60576 -0.0849015 0
M  V30 4369 O 409.63 -1.73554 0.149933 0
M  V30 4370 C 406.762 -3.38482 0.40531 0
M  V30 4371 H 407.955 -2.33726 1.87916 0
M  V30 4372 H 405.508 -1.19426 1.00832 0
M  V30 4373 H 406.243 -3.19689 -0.544899 0
M  V30 4374 H 406.028 -3.75142 1.14065 0
M  V30 4375 H 407.518 -4.16894 0.242806 0
M  V30 4376 N 407.956 -0.998596 -1.21925 0
M  V30 4377 C 409.184 -0.696286 -1.94832 0
M  V30 4378 C 409.599 0.740032 -1.73692 0
M  V30 4379 O 408.956 1.5 -1.03953 0
M  V30 4380 C 409.007 -0.999833 -3.47398 0
M  V30 4381 O 408.728 -2.37972 -3.67833 0
M  V30 4382 C 410.229 -0.716025 -4.37479 0
M  V30 4383 H 407.449 -0.257111 -0.619786 0
M  V30 4384 H 409.993 -1.33491 -1.54921 0
M  V30 4385 H 408.148 -0.406918 -3.85257 0
M  V30 4386 H 408.562 -2.48338 -4.61983 0
M  V30 4387 H 410.036 -0.978642 -5.43256 0
M  V30 4388 H 410.513 0.349968 -4.37803 0
M  V30 4389 H 411.119 -1.29025 -4.05256 0
M  V30 4390 N 409.434 1.37368 -0.772513 0
M  V30 4391 C 410.659 2.0447 -0.347386 0
M  V30 4392 C 411.084 1.57882 1.0225 0
M  V30 4393 O 410.442 0.73941 1.65537 0
M  V30 4394 C 410.49 3.58369 -0.400479 0
M  V30 4395 O 409.594 4.0803 0.598789 0
M  V30 4396 H 408.935 0.646773 -0.15027 0
M  V30 4397 H 411.465 1.75667 -1.04892 0
M  V30 4398 H 411.475 4.07183 -0.258045 0
M  V30 4399 H 410.15 3.91633 -1.39986 0
M  V30 4400 H 408.727 3.70534 0.419411 0
M  V30 4401 N 410.912 0.523116 1.48665 0
M  V30 4402 C 411.862 -0.263106 2.26477 0
M  V30 4403 C 412.846 -0.916005 1.32281 0
M  V30 4404 O 414.038 -0.819946 1.56863 0
M  V30 4405 C 411.167 -1.31361 3.17174 0
M  V30 4406 C 410.253 -0.665849 4.1884 0
M  V30 4407 N 410.644 0.244434 5.05209 0
M  V30 4408 C 408.942 -0.923863 4.36326 0
M  V30 4409 C 409.643 0.617443 5.78414 0
M  V30 4410 N 408.619 -0.0198686 5.43596 0
M  V30 4411 H 412.421 0.437295 2.90629 0
M  V30 4412 H 409.935 0.340675 1.58787 0
M  V30 4413 H 411.932 -1.89052 3.71571 0
M  V30 4414 H 410.592 -2.01546 2.54576 0
M  V30 4415 H 411.603 0.616621 5.14216 0
M  V30 4416 H 408.28 -1.6168 3.84923 0
M  V30 4417 H 409.67 1.36346 6.57921 0
M  V30 4418 N 412.39 -1.55475 0.257931 0
M  V30 4419 C 413.32 -2.24815 -0.630912 0
M  V30 4420 C 414.301 -1.23224 -1.17259 0
M  V30 4421 O 415.486 -1.51904 -1.20991 0
M  V30 4422 C 412.616 -2.95609 -1.82298 0
M  V30 4423 C 411.57 -4.03982 -1.41359 0
M  V30 4424 C 410.896 -4.6226 -2.68738 0
M  V30 4425 C 412.196 -5.19109 -0.57648 0
M  V30 4426 H 413.89 -2.99354 -0.0526878 0
M  V30 4427 H 411.436 -1.4398 -0.023901 0
M  V30 4428 H 413.389 -3.42822 -2.45054 0
M  V30 4429 H 412.113 -2.18577 -2.42676 0
M  V30 4430 H 410.772 -3.57555 -0.809324 0
M  V30 4431 H 410.42 -3.81915 -3.27338 0
M  V30 4432 H 410.12 -5.35424 -2.42065 0
M  V30 4433 H 411.644 -5.12212 -3.32372 0
M  V30 4434 H 413.058 -5.62479 -1.10861 0
M  V30 4435 H 411.455 -5.98729 -0.405351 0
M  V30 4436 H 412.525 -4.83174 0.408776 0
M  V30 4437 N 413.868 0.0150385 -1.57593 0
M  V30 4438 C 415.117 0.702115 -1.89085 0
M  V30 4439 C 415.43 1.75764 -0.858277 0
M  V30 4440 O 416.636 2.49829 -1.0629 0
M  V30 4441 C 415.092 1.29992 -3.35604 0
M  V30 4442 C 414.7 0.280007 -4.47124 0
M  V30 4443 C 416.444 1.96606 -3.76227 0
M  V30 4444 C 414.351 0.886949 -5.84711 0
M  V30 4445 H 413.281 0.265997 -0.705522 0
M  V30 4446 H 415.932 -0.0430408 -1.8345 0
M  V30 4447 H 414.314 2.09525 -3.36029 0
M  V30 4448 H 415.488 -0.489631 -4.58191 0
M  V30 4449 H 413.803 -0.284835 -4.15425 0
M  V30 4450 H 416.4 2.42893 -4.76347 0
M  V30 4451 H 416.743 2.79024 -3.08952 0
M  V30 4452 H 417.276 1.23828 -3.78036 0
M  V30 4453 H 414.015 0.101876 -6.55421 0
M  V30 4454 H 413.535 1.6261 -5.77337 0
M  V30 4455 H 415.214 1.39011 -6.3189 0
M  V30 4456 N 415.346 1.54954 0.287554 0
M  V30 4457 C 416.594 1.74528 1.01904 0
M  V30 4458 C 416.915 0.541349 1.87335 0
M  V30 4459 O 416.185 -0.444108 1.908 0
M  V30 4460 H 414.765 0.643576 0.379235 0
M  V30 4461 H 417.427 1.92333 0.315294 0
M  V30 4462 H 416.523 2.64015 1.6644 0
M  V30 4463 N 416.824 -0.551391 1.4764 0
M  V30 4464 C 418.054 -1.33163 1.57959 0
M  V30 4465 C 418.462 -1.87785 0.23094 0
M  V30 4466 O 417.805 -1.65996 -0.786825 0
M  V30 4467 C 417.867 -2.53449 2.54958 0
M  V30 4468 C 417.531 -2.20071 4.00522 0
M  V30 4469 C 418.528 -1.77017 4.88836 0
M  V30 4470 C 416.213 -2.31252 4.45901 0
M  V30 4471 C 418.207 -1.4558 6.20552 0
M  V30 4472 C 415.894 -1.99427 5.77644 0
M  V30 4473 C 416.892 -1.56659 6.64791 0
M  V30 4474 O 416.58 -1.25242 7.94084 0
M  V30 4475 H 416.312 -0.412022 0.535923 0
M  V30 4476 H 418.866 -0.674186 1.9402 0
M  V30 4477 H 417.096 -3.22104 2.13976 0
M  V30 4478 H 418.785 -3.15523 2.55343 0
M  V30 4479 H 419.551 -1.67867 4.55023 0
M  V30 4480 H 415.43 -2.63498 3.78272 0
M  V30 4481 H 418.974 -1.12125 6.8853 0
M  V30 4482 H 414.871 -2.08211 6.10998 0
M  V30 4483 H 415.639 -1.38822 8.06642 0
M  V30 4484 N 418.302 -1.35869 -0.798587 0
M  V30 4485 C 419.548 -1.2978 -1.55836 0
M  V30 4486 C 419.881 0.125322 -1.93795 0
M  V30 4487 O 419.156 1.07658 -1.61987 0
M  V30 4488 C 419.439 -2.21188 -2.84162 0
M  V30 4489 C 419.292 -3.72155 -2.52628 0
M  V30 4490 C 420.611 -2.11545 -3.85923 0
M  V30 4491 H 417.73 -0.472769 -0.565383 0
M  V30 4492 H 420.372 -1.66341 -0.918192 0
M  V30 4493 H 418.522 -1.90139 -3.38791 0
M  V30 4494 H 420.194 -4.13682 -2.04121 0
M  V30 4495 H 418.437 -3.92042 -1.85704 0
M  V30 4496 H 419.108 -4.31511 -3.44242 0
M  V30 4497 H 421.584 -2.38855 -3.40716 0
M  V30 4498 H 420.46 -2.77688 -4.73477 0
M  V30 4499 H 420.721 -1.09987 -4.282 0
M  V30 4500 N 419.78 1.02168 -1.19998 0
M  V30 4501 C 421.028 1.75338 -1.00504 0
M  V30 4502 C 421.349 1.89387 0.464506 0
M  V30 4503 O 420.619 1.43268 1.33608 0
M  V30 4504 H 419.199 0.649564 -0.368885 0
M  V30 4505 H 421.861 1.23205 -1.51018 0
M  V30 4506 H 420.957 2.75892 -1.45912 0
M  V30 4507 N 421.258 1.00505 1.21394 0
M  V30 4508 C 422.168 0.574806 2.27449 0
M  V30 4509 C 423.184 -0.382206 1.6975 0
M  V30 4510 O 424.36 -0.246027 1.99892 0
M  V30 4511 C 421.425 -0.0917414 3.46579 0
M  V30 4512 C 420.486 0.909758 4.1955 0
M  V30 4513 C 419.719 0.274924 5.32991 0
M  V30 4514 O 419.942 -0.928254 5.62796 0
M  V30 4515 O 418.876 0.985877 5.93771 0
M  V30 4516 H 422.702 1.45744 2.66444 0
M  V30 4517 H 420.287 0.773923 1.27792 0
M  V30 4518 H 422.169 -0.464551 4.18832 0
M  V30 4519 H 420.844 -0.948755 3.09484 0
M  V30 4520 H 419.751 1.33372 3.49518 0
M  V30 4521 H 421.084 1.73636 4.60555 0
M  V30 4522 N 422.737 -1.36956 0.779787 0
M  V30 4523 C 423.983 -1.99787 0.348281 0
M  V30 4524 C 424.316 -1.61756 -1.07465 0
M  V30 4525 O 423.591 -0.867639 -1.74075 0
M  V30 4526 C 423.874 -3.56597 0.50104 0
M  V30 4527 C 423.727 -4.04513 1.96697 0
M  V30 4528 C 425.046 -4.40008 -0.0898097 0
M  V30 4529 H 422.165 -0.725796 0.128022 0
M  V30 4530 H 424.807 -1.62514 0.984331 0
M  V30 4531 H 422.957 -3.88479 -0.0404347 0
M  V30 4532 H 424.629 -3.83161 2.56876 0
M  V30 4533 H 422.872 -3.56408 2.47297 0
M  V30 4534 H 423.543 -5.1352 2.02486 0
M  V30 4535 H 426.019 -4.14431 0.372293 0
M  V30 4536 H 424.895 -5.4888 0.0471605 0
M  V30 4537 H 425.156 -4.26035 -1.18096 0
M  V30 4538 N 424.215 -0.530993 -1.48385 0
M  V30 4539 C 425.44 0.000729535 -2.074 0
M  V30 4540 C 425.865 1.27298 -1.3848 0
M  V30 4541 O 425.223 1.75599 -0.451081 0
M  V30 4542 C 425.271 0.206697 -3.60007 0
M  V30 4543 O 424.375 1.27514 -3.92191 0
M  V30 4544 H 423.716 -0.039583 -0.662819 0
M  V30 4545 H 426.246 -0.739194 -1.9078 0
M  V30 4546 H 426.256 0.42904 -4.05738 0
M  V30 4547 H 424.931 -0.722675 -4.09573 0
M  V30 4548 H 423.508 1.03537 -3.58238 0
M  V30 4549 N 425.693 1.55336 -0.266172 0
M  V30 4550 C 426.656 2.20878 0.612001 0
M  V30 4551 C 427.656 1.18388 1.08816 0
M  V30 4552 O 428.846 1.4335 0.989774 0
M  V30 4553 C 425.978 2.86765 1.84332 0
M  V30 4554 H 427.171 2.99873 0.0398718 0
M  V30 4555 H 424.724 1.56291 -0.0167309 0
M  V30 4556 H 425.459 2.11759 2.45619 0
M  V30 4557 H 425.244 3.61862 1.5099 0
M  V30 4558 H 426.734 3.36867 2.46801 0
M  V30 4559 N 427.171 -0.0066808 1.57599 0
M  V30 4560 C 428.081 -1.01671 2.11424 0
M  V30 4561 C 429.097 -1.38143 1.05795 0
M  V30 4562 O 430.273 -1.47011 1.37658 0
M  V30 4563 C 427.338 -2.29192 2.60139 0
M  V30 4564 C 426.399 -1.99094 3.80342 0
M  V30 4565 C 425.632 -3.20535 4.26724 0
M  V30 4566 O 425.855 -4.3199 3.72479 0
M  V30 4567 O 424.789 -3.04924 5.18946 0
M  V30 4568 H 428.615 -0.589181 2.9793 0
M  V30 4569 H 426.2 -0.225091 1.47695 0
M  V30 4570 H 428.082 -3.0412 2.917 0
M  V30 4571 H 426.757 -2.71195 1.76733 0
M  V30 4572 H 425.664 -1.21663 3.53764 0
M  V30 4573 H 426.997 -1.61931 4.648 0
M  V30 4574 N 428.649 -1.55105 -0.279332 0
M  V30 4575 C 429.926 -1.66119 -1.03267 0
M  V30 4576 C 430.306 -0.523525 -2.04505 0
M  V30 4577 O 429.654 0.477194 -2.23462 0
M  V30 4578 C 429.864 -3.05067 -1.69515 0
M  V30 4579 C 431.212 -3.62606 -2.20912 0
M  V30 4580 O 432.236 -3.07659 -1.79512 0
M  V30 4581 O 431.095 -4.58861 -2.96831 0
M  V30 4582 H 428.189 -0.674429 -0.478618 0
M  V30 4583 H 430.735 -1.67446 -0.275694 0
M  V30 4584 H 429.507 -3.79311 -0.9612 0
M  V30 4585 H 429.13 -3.07611 -2.51915 0
M  V30 4586 N 430.127 0.543554 -1.4793 0
M  V30 4587 C 431.376 1.29649 -1.54512 0
M  V30 4588 C 431.689 1.94382 -0.217973 0
M  V30 4589 O 432.895 2.71017 -0.161908 0
M  V30 4590 C 431.351 2.35175 -2.72435 0
M  V30 4591 C 430.959 1.76572 -4.11736 0
M  V30 4592 C 432.703 3.11564 -2.8832 0
M  V30 4593 C 430.61 2.79958 -5.20939 0
M  V30 4594 H 429.54 0.487541 -0.57517 0
M  V30 4595 H 432.191 0.575708 -1.74235 0
M  V30 4596 H 430.573 3.10229 -2.46118 0
M  V30 4597 H 431.747 1.07799 -4.48013 0
M  V30 4598 H 430.062 1.12722 -4.00852 0
M  V30 4599 H 432.659 3.88794 -3.67074 0
M  V30 4600 H 433.002 3.66594 -1.97268 0
M  V30 4601 H 433.535 2.43623 -3.14472 0
M  V30 4602 H 430.274 2.29766 -6.13912 0
M  V30 4603 H 429.794 3.47101 -4.89164 0
M  V30 4604 H 431.473 3.43198 -5.48474 0
M  V30 4605 N 431.605 1.3629 0.791371 0
M  V30 4606 C 432.515 1.32606 1.93527 0
M  V30 4607 C 433.531 0.228541 1.72493 0
M  V30 4608 O 434.707 0.460571 1.96063 0
M  V30 4609 C 431.772 1.11271 3.28359 0
M  V30 4610 C 430.833 2.3048 3.62185 0
M  V30 4611 C 430.066 2.10154 4.90583 0
M  V30 4612 O 430.289 1.07572 5.60165 0
M  V30 4613 O 429.223 2.97884 5.23019 0
M  V30 4614 H 433.049 2.28909 1.99585 0
M  V30 4615 H 430.634 1.16818 0.931344 0
M  V30 4616 H 432.516 1.01283 4.09047 0
M  V30 4617 H 431.191 0.180292 3.23198 0
M  V30 4618 H 430.098 2.46036 2.81811 0
M  V30 4619 H 431.431 3.22221 3.72068 0
M  V30 4620 N 433.083 -1.0153 1.20538 0
M  V30 4621 C 434.03 -2.10098 0.955383 0
M  V30 4622 C 435 -1.65702 -0.114878 0
M  V30 4623 O 436.185 -1.90776 0.0301118 0
M  V30 4624 C 433.325 -3.41236 0.514969 0
M  V30 4625 C 432.438 -3.99102 1.65353 0
M  V30 4626 C 431.573 -5.18306 1.16329 0
M  V30 4627 C 430.612 -5.68258 2.27485 0
M  V30 4628 N 429.749 -6.78722 1.7967 0
M  V30 4629 H 434.589 -2.30818 1.88486 0
M  V30 4630 H 432.126 -1.13189 0.939499 0
M  V30 4631 H 434.084 -4.16504 0.240935 0
M  V30 4632 H 432.714 -3.20585 -0.377512 0
M  V30 4633 H 431.766 -3.20918 2.04245 0
M  V30 4634 H 433.078 -4.32177 2.49047 0
M  V30 4635 H 432.232 -6.00782 0.845302 0
M  V30 4636 H 430.971 -4.86799 0.296254 0
M  V30 4637 H 429.976 -4.84385 2.60099 0
M  V30 4638 H 431.201 -6.01798 3.14667 0
M  V30 4639 H 429.147 -6.49042 0.95295 0
M  V30 4640 H 429.064 -7.10996 2.56944 0
M  V30 4641 H 430.332 -7.64759 1.50875 0
M  V30 4642 N 434.561 -1.01147 -1.20859 0
M  V30 4643 C 435.509 -0.57059 -2.25493 0
M  V30 4644 C 436.503 0.388109 -1.64894 0
M  V30 4645 O 437.709 0.258592 -1.78133 0
M  V30 4646 H 434.084 -0.166191 -0.733406 0
M  V30 4647 H 436.055 -1.46411 -2.60012 0
M  V30 4648 C 434.804 0.0805241 -3.47607 0
M  V30 4649 H 434.127 -0.648156 -3.94511 0
M  V30 4650 H 435.567 0.352197 -4.22535 0
M  V30 4651 C 434.026 1.32175 -3.09889 0
M  V30 4652 O 434.556 2.41553 -3.20959 0
M  V30 4653 N 432.762 1.20392 -2.64488 0
M  V30 4654 H 432.309 0.313905 -2.5568 0
M  V30 4655 H 432.267 2.03541 -2.39621 0
M  V30 4656 N 436.039 1.36541 -0.78704 0
M  V30 4657 C 437.45 1.81873 -0.421807 0
M  V30 4658 C 437.801 1.65487 1.05397 0
M  V30 4659 O 436.926 1.17448 1.81755 0
M  V30 4660 C 437.521 3.30192 -0.758841 0
M  V30 4661 C 436.08 3.73743 -0.446468 0
M  V30 4662 C 435.227 2.58844 -0.994728 0
M  V30 4663 H 438.178 1.24796 -0.98039 0
M  V30 4664 H 438.199 3.80468 -0.0490648 0
M  V30 4665 H 437.711 3.42087 -1.83299 0
M  V30 4666 H 435.812 3.6741 0.619739 0
M  V30 4667 H 435.925 4.69272 -0.965415 0
M  V30 4668 H 434.289 2.51245 -0.418087 0
M  V30 4669 H 435.072 2.73525 -2.07458 0
M  V30 4670 N 437.518 0.538854 1.48102 0
M  V30 4671 C 438.465 -0.219042 2.29758 0
M  V30 4672 C 439.435 -0.925562 1.37922 0
M  V30 4673 O 440.62 -0.924855 1.66886 0
M  V30 4674 C 437.76 -1.25452 3.2149 0
M  V30 4675 C 436.873 -0.555943 4.28408 0
M  V30 4676 C 436.008 -1.57512 5.0731 0
M  V30 4677 C 435.047 -0.860498 6.06021 0
M  V30 4678 N 434.184 -1.82564 6.77949 0
M  V30 4679 H 439.024 0.483449 2.94052 0
M  V30 4680 H 436.561 0.250247 1.44956 0
M  V30 4681 H 438.519 -1.86727 3.7308 0
M  V30 4682 H 437.149 -1.92528 2.591 0
M  V30 4683 H 436.201 0.170938 3.80016 0
M  V30 4684 H 437.513 0.00474616 4.988 0
M  V30 4685 H 436.667 -2.26191 5.62959 0
M  V30 4686 H 435.406 -2.16972 4.36778 0
M  V30 4687 H 434.411 -0.159686 5.49568 0
M  V30 4688 H 435.636 -0.271897 6.78555 0
M  V30 4689 H 433.582 -2.40915 6.10161 0
M  V30 4690 H 433.499 -1.31662 7.44447 0
M  V30 4691 H 434.767 -2.50414 7.38182 0
M  V30 4692 N 438.996 -1.55193 0.274407 0
M  V30 4693 C 439.926 -2.25471 -0.607032 0
M  V30 4694 C 440.907 -1.24461 -1.15946 0
M  V30 4695 O 442.092 -1.53179 -1.19373 0
M  V30 4696 C 439.222 -2.97526 -1.79153 0
M  V30 4697 C 438.176 -4.05459 -1.37067 0
M  V30 4698 C 437.502 -4.65084 -2.6382 0
M  V30 4699 C 438.802 -5.19691 -0.521389 0
M  V30 4700 H 440.496 -2.99393 -0.0209343 0
M  V30 4701 H 438.042 -1.43997 -0.00862866 0
M  V30 4702 H 439.995 -3.45402 -2.41404 0
M  V30 4703 H 438.719 -2.21138 -2.40344 0
M  V30 4704 H 437.378 -3.58393 -0.771355 0
M  V30 4705 H 437.026 -3.85365 -3.23268 0
M  V30 4706 H 436.726 -5.37961 -2.36372 0
M  V30 4707 H 438.25 -5.15708 -3.26921 0
M  V30 4708 H 439.664 -5.63623 -1.04889 0
M  V30 4709 H 438.061 -5.99126 -0.341825 0
M  V30 4710 H 439.131 -4.82713 0.46 0
M  V30 4711 N 440.474 -0.00167713 -1.576 0
M  V30 4712 C 441.699 0.69739 -1.95323 0
M  V30 4713 C 442.124 1.6642 -0.876706 0
M  V30 4714 O 441.482 1.80548 0.165007 0
M  V30 4715 C 441.53 1.40403 -3.32144 0
M  V30 4716 O 440.634 2.5185 -3.26566 0
M  V30 4717 H 439.975 0.185373 -0.637599 0
M  V30 4718 H 442.505 -0.0553665 -2.04525 0
M  V30 4719 H 442.515 1.76707 -3.67748 0
M  V30 4720 H 441.19 0.695167 -4.10049 0
M  V30 4721 H 439.767 2.17861 -3.0264 0
M  V30 4722 N 441.952 1.55251 0.271103 0
M  V30 4723 C 443.198 1.76207 1.00394 0
M  V30 4724 C 443.531 0.562604 1.85872 0
M  V30 4725 O 442.806 -0.439785 1.89463 0
M  V30 4726 C 443.089 3.06828 1.8849 0
M  V30 4727 C 442.942 4.37134 1.05992 0
M  V30 4728 C 444.261 3.33503 2.87165 0
M  V30 4729 H 441.38 0.641086 0.363562 0
M  V30 4730 H 444.022 1.87982 0.276189 0
M  V30 4731 H 442.172 2.96921 2.5054 0
M  V30 4732 H 443.844 4.59001 0.459978 0
M  V30 4733 H 442.087 4.32275 0.363443 0
M  V30 4734 H 442.758 5.2486 1.70955 0
M  V30 4735 H 445.234 3.43215 2.3525 0
M  V30 4736 H 444.11 4.2616 3.45946 0
M  V30 4737 H 444.371 2.53235 3.62387 0
M  V30 4738 N 443.43 -0.535701 1.48216 0
M  V30 4739 C 444.678 -1.28928 1.55634 0
M  V30 4740 C 444.999 -1.93645 0.229514 0
M  V30 4741 O 444.269 -1.81038 -0.74846 0
M  V30 4742 H 442.849 -0.47884 0.573342 0
M  V30 4743 H 445.511 -0.623853 1.84646 0
M  V30 4744 H 444.607 -2.07157 2.33436 0
M  V30 4745 N 444.908 -1.36708 -0.784132 0
M  V30 4746 C 446.185 -1.21776 -1.53069 0
M  V30 4747 C 446.565 0.193876 -2.10208 0
M  V30 4748 O 445.913 1.20012 -1.94446 0
M  V30 4749 C 446.123 -2.30395 -2.62143 0
M  V30 4750 C 447.471 -2.67325 -3.29882 0
M  V30 4751 O 448.495 -2.29478 -2.7243 0
M  V30 4752 O 447.354 -3.32485 -4.33724 0
M  V30 4753 H 444.448 -0.474459 -0.677361 0
M  V30 4754 H 446.994 -1.48454 -0.82216 0
M  V30 4755 H 445.766 -3.2498 -2.17953 0
M  V30 4756 H 445.389 -2.05112 -3.40609 0
M  V30 4757 N 446.386 1.0089 -1.21074 0
M  V30 4758 C 447.632 1.74866 -1.02712 0
M  V30 4759 C 447.965 1.89178 0.438787 0
M  V30 4760 O 447.24 1.42325 1.32567 0
M  V30 4761 C 447.523 3.16347 -1.72036 0
M  V30 4762 C 447.376 3.09782 -3.26121 0
M  V30 4763 C 448.695 4.15187 -1.45973 0
M  V30 4764 H 445.814 0.634736 -0.374539 0
M  V30 4765 H 448.456 1.17646 -1.49196 0
M  V30 4766 H 446.606 3.65201 -1.32517 0
M  V30 4767 H 448.278 2.68673 -3.74983 0
M  V30 4768 H 446.521 2.46982 -3.56626 0
M  V30 4769 H 447.192 4.09829 -3.6979 0
M  V30 4770 H 449.668 3.75022 -1.80272 0
M  V30 4771 H 448.544 5.12331 -1.96999 0
M  V30 4772 H 448.805 4.40386 -0.388924 0
M  V30 4773 N 447.864 1.01787 1.20321 0
M  V30 4774 C 449.113 0.703249 1.89043 0
M  V30 4775 C 449.426 -0.770445 1.79787 0
M  V30 4776 O 450.632 -1.19767 2.43656 0
M  V30 4777 C 449.088 1.20749 3.3904 0
M  V30 4778 C 448.696 2.70817 3.56878 0
M  V30 4779 C 450.44 0.968352 4.13308 0
M  V30 4780 C 448.347 3.14716 5.00708 0
M  V30 4781 H 447.277 0.259354 0.707991 0
M  V30 4782 H 449.928 1.23072 1.36108 0
M  V30 4783 H 448.31 0.607989 3.91305 0
M  V30 4784 H 449.484 3.36327 3.14993 0
M  V30 4785 H 447.799 2.92888 2.95983 0
M  V30 4786 H 450.396 1.27173 5.19356 0
M  V30 4787 H 450.739 -0.095149 4.16191 0
M  V30 4788 H 451.272 1.53129 3.67146 0
M  V30 4789 H 448.011 4.20347 5.02979 0
M  V30 4790 H 447.531 2.53927 5.43398 0
M  V30 4791 H 449.21 3.07426 5.69296 0
M  V30 4792 N 449.342 -1.36122 0.79427 0
M  V30 4793 C 450.59 -1.98718 0.368177 0
M  V30 4794 C 450.911 -1.63345 -1.06506 0
M  V30 4795 O 450.181 -0.909825 -1.73491 0
M  V30 4796 H 448.761 -0.735038 0.133146 0
M  V30 4797 H 451.423 -1.66239 1.01739 0
M  V30 4798 H 450.519 -3.08633 0.463923 0
M  V30 4799 N 450.82 -0.546701 -1.47814 0
M  V30 4800 C 451.767 0.206854 -2.29871 0
M  V30 4801 C 452.737 0.918235 -1.38411 0
M  V30 4802 O 453.922 0.915991 -1.67375 0
M  V30 4803 C 451.062 1.23746 -3.22151 0
M  V30 4804 C 450.175 0.533216 -4.28697 0
M  V30 4805 C 449.31 1.5482 -5.08138 0
M  V30 4806 C 448.349 0.828347 -6.06469 0
M  V30 4807 N 447.486 1.78966 -6.78908 0
M  V30 4808 H 452.326 -0.499037 -2.93792 0
M  V30 4809 H 449.863 -0.25793 -1.44821 0
M  V30 4810 H 451.821 1.84746 -3.74065 0
M  V30 4811 H 450.451 1.91151 -2.60117 0
M  V30 4812 H 449.503 -0.191089 -3.7992 0
M  V30 4813 H 450.815 -0.0311987 -4.9879 0
M  V30 4814 H 449.969 2.23202 -5.6415 0
M  V30 4815 H 448.708 2.14652 -4.37922 0
M  V30 4816 H 447.713 0.130539 -5.49645 0
M  V30 4817 H 448.938 0.235907 -6.7869 0
M  V30 4818 H 446.884 2.37675 -6.1143 0
M  V30 4819 H 446.801 1.27712 -7.45135 0
M  V30 4820 H 448.069 2.46496 -7.395 0
M  V30 4821 N 452.299 1.55045 -0.282633 0
M  V30 4822 C 453.524 2.04628 0.337977 0
M  V30 4823 C 453.949 1.15937 1.48123 0
M  V30 4824 O 453.307 0.159532 1.80597 0
M  V30 4825 C 453.355 3.51854 0.78936 0
M  V30 4826 O 452.459 3.66236 1.89592 0
M  V30 4827 H 451.8 0.660434 0.0687261 0
M  V30 4828 H 454.33 2.00261 -0.419124 0
M  V30 4829 H 454.34 3.93361 1.08311 0
M  V30 4830 H 453.015 4.15873 -0.0470419 0
M  V30 4831 H 451.592 3.36633 1.60413 0
M  V30 4832 N 453.777 0.010035 1.57597 0
M  V30 4833 C 455.025 -0.671371 1.90623 0
M  V30 4834 C 455.346 -1.73753 0.885151 0
M  V30 4835 O 454.616 -1.95752 -0.0760611 0
M  V30 4836 H 453.196 -0.250968 0.703579 0
M  V30 4837 H 455.858 0.0533325 1.94827 0
M  V30 4838 H 454.954 -1.13626 2.90681 0
M  V30 4839 N 455.255 -1.55392 -0.262866 0
M  V30 4840 C 456.185 -1.91978 -1.32917 0
M  V30 4841 C 457.166 -0.7828 -1.51017 0
M  V30 4842 O 458.351 -1.04178 -1.63892 0
M  V30 4843 C 455.481 -2.20055 -2.68687 0
M  V30 4844 C 454.435 -3.35854 -2.65304 0
M  V30 4845 C 453.761 -3.49435 -4.04721 0
M  V30 4846 C 455.061 -4.71977 -2.23685 0
M  V30 4847 H 456.755 -2.81292 -1.02544 0
M  V30 4848 H 454.301 -1.3534 -0.491846 0
M  V30 4849 H 456.254 -2.44237 -3.43404 0
M  V30 4850 H 454.978 -1.27551 -3.00663 0
M  V30 4851 H 453.637 -3.11655 -1.93045 0
M  V30 4852 H 453.285 -2.54379 -4.33936 0
M  V30 4853 H 452.985 -4.27297 -4.0335 0
M  V30 4854 H 454.509 -3.7592 -4.81161 0
M  V30 4855 H 455.923 -4.95637 -2.88127 0
M  V30 4856 H 454.32 -5.52828 -2.33456 0
M  V30 4857 H 455.39 -4.70115 -1.18827 0
M  V30 4858 N 456.733 0.527833 -1.48498 0
M  V30 4859 C 457.643 1.65907 -1.65867 0
M  V30 4860 C 458.659 1.6537 -0.541192 0
M  V30 4861 O 459.835 1.84282 -0.812534 0
M  V30 4862 C 456.9 3.02364 -1.69637 0
M  V30 4863 C 455.961 3.1374 -2.93028 0
M  V30 4864 C 455.194 4.43688 -2.96609 0
M  V30 4865 O 455.417 5.30913 -2.08538 0
M  V30 4866 O 454.351 4.59475 -3.88802 0
M  V30 4867 H 458.177 1.5419 -2.61647 0
M  V30 4868 H 455.762 0.701163 -1.31924 0
M  V30 4869 H 457.644 3.83515 -1.74625 0
M  V30 4870 H 456.319 3.14401 -0.770312 0
M  V30 4871 H 455.226 2.31877 -2.93571 0
M  V30 4872 H 456.559 3.06621 -3.85026 0
M  V30 4873 N 458.211 1.37122 0.776871 0
M  V30 4874 C 459.627 1.1781 1.07671 0
M  V30 4875 C 459.827 0.0107454 2.01497 0
M  V30 4876 O 458.883 -0.650756 2.4397 0
M  V30 4877 C 460.196 2.49451 1.67913 0
M  V30 4878 C 461.744 2.55927 1.80195 0
M  V30 4879 C 462.219 3.87686 2.43851 0
M  V30 4880 N 463.71 3.891 2.51307 0
M  V30 4881 C 464.445 4.87797 3.014 0
M  V30 4882 N 463.941 5.96888 3.51705 0
M  V30 4883 N 465.734 4.75205 3.00227 0
M  V30 4884 H 457.885 2.11843 0.153778 0
M  V30 4885 H 460.148 0.938927 0.130844 0
M  V30 4886 H 459.854 3.35207 1.06439 0
M  V30 4887 H 459.728 2.66169 2.67271 0
M  V30 4888 H 462.115 1.70582 2.40803 0
M  V30 4889 H 462.196 2.43097 0.796069 0
M  V30 4890 H 461.84 4.73444 1.83884 0
M  V30 4891 H 461.77 3.97817 3.45035 0
M  V30 4892 H 464.261 3.10293 2.157 0
M  V30 4893 H 464.574 6.68155 3.88316 0
M  V30 4894 H 462.919 6.0054 3.49824 0
M  V30 4895 H 466.11 3.89103 2.60224 0
M  V30 4896 H 466.283 5.52279 3.38957 0
M  V30 4897 N 459.689 -1.00246 1.21608 0
M  V30 4898 C 460.919 -1.77373 1.05935 0
M  V30 4899 C 461.327 -1.85059 -0.393686 0
M  V30 4900 O 460.67 -1.31289 -1.28487 0
M  V30 4901 C 460.732 -3.22705 1.58435 0
M  V30 4902 C 460.396 -3.38591 3.06929 0
M  V30 4903 C 461.393 -3.2667 4.04454 0
M  V30 4904 C 459.078 -3.6395 3.46187 0
M  V30 4905 C 461.072 -3.39877 5.39224 0
M  V30 4906 C 458.759 -3.768 4.81108 0
M  V30 4907 C 459.757 -3.6477 5.77436 0
M  V30 4908 O 459.445 -3.77206 7.09909 0
M  V30 4909 H 459.177 -0.56419 0.372378 0
M  V30 4910 H 461.731 -1.26971 1.61454 0
M  V30 4911 H 459.961 -3.74255 0.973147 0
M  V30 4912 H 461.65 -3.81515 1.38568 0
M  V30 4913 H 462.416 -3.06999 3.75468 0
M  V30 4914 H 458.295 -3.72395 2.71741 0
M  V30 4915 H 461.839 -3.30404 6.14393 0
M  V30 4916 H 457.736 -3.95975 5.09779 0
M  V30 4917 H 458.504 -3.94138 7.17355 0
M  V30 4918 N 461.167 -1.02423 -1.1978 0
M  V30 4919 C 462.397 -0.736387 -1.93031 0
M  V30 4920 C 462.805 0.708023 -1.75453 0
M  V30 4921 O 462.148 1.4927 -1.07071 0
M  V30 4922 C 462.21 -1.00194 -3.45255 0
M  V30 4923 C 461.874 -2.43698 -3.86601 0
M  V30 4924 C 462.871 -3.41814 -3.91738 0
M  V30 4925 C 460.556 -2.77975 -4.18372 0
M  V30 4926 C 462.55 -4.72265 -4.28071 0
M  V30 4927 C 460.237 -4.08636 -4.54378 0
M  V30 4928 C 461.235 -5.05592 -4.59201 0
M  V30 4929 O 460.923 -6.33914 -4.94376 0
M  V30 4930 H 460.655 -0.269116 -0.620123 0
M  V30 4931 H 463.209 -1.37043 -1.52998 0
M  V30 4932 H 461.439 -0.310747 -3.85449 0
M  V30 4933 H 463.128 -0.704488 -3.9974 0
M  V30 4934 H 463.894 -3.16671 -3.67348 0
M  V30 4935 H 459.773 -2.0319 -4.13805 0
M  V30 4936 H 463.317 -5.4794 -4.3175 0
M  V30 4937 H 459.214 -4.33556 -4.78226 0
M  V30 4938 H 459.982 -6.38317 -5.12341 0
M  V30 4939 N 462.645 1.35699 -0.801477 0
M  V30 4940 C 463.922 1.9324 -0.302937 0
M  V30 4941 C 464.302 1.73209 1.20672 0
M  V30 4942 O 463.65 1.09809 2.00385 0
M  V30 4943 C 463.86 3.41728 -0.708747 0
M  V30 4944 C 465.208 4.18868 -0.695328 0
M  V30 4945 O 466.232 3.5022 -0.649971 0
M  V30 4946 O 465.091 5.41342 -0.749081 0
M  V30 4947 H 462.185 0.82331 -0.0780367 0
M  V30 4948 H 464.731 1.44806 -0.884832 0
M  V30 4949 H 463.503 3.50015 -1.74944 0
M  V30 4950 H 463.126 3.97471 -0.101384 0
M  V30 4951 N 464.123 0.554532 1.47522 0
M  V30 4952 C 465.07 -0.19466 2.29978 0
M  V30 4953 C 466.04 -0.910882 1.38896 0
M  V30 4954 O 467.225 -0.907102 1.67858 0
M  V30 4955 C 464.365 -1.22035 3.22802 0
M  V30 4956 C 463.478 -0.510474 4.28973 0
M  V30 4957 C 462.613 -1.52123 5.08952 0
M  V30 4958 C 461.652 -0.796173 6.069 0
M  V30 4959 N 460.789 -1.75363 6.79847 0
M  V30 4960 H 465.629 0.51461 2.93523 0
M  V30 4961 H 463.166 0.265607 1.44682 0
M  V30 4962 H 465.124 -1.8276 3.7504 0
M  V30 4963 H 463.754 -1.89769 2.61127 0
M  V30 4964 H 462.806 0.211234 3.79813 0
M  V30 4965 H 464.118 0.0576503 4.98767 0
M  V30 4966 H 463.272 -2.20207 5.65326 0
M  V30 4967 H 462.011 -2.12327 4.39054 0
M  V30 4968 H 461.016 -0.101388 5.49707 0
M  V30 4969 H 462.241 -0.199911 6.78806 0
M  V30 4970 H 460.187 -2.3443 6.12682 0
M  V30 4971 H 460.104 -1.23759 7.45801 0
M  V30 4972 H 461.372 -2.4257 7.40797 0
M  V30 4973 N 465.601 -1.54893 0.290851 0
M  V30 4974 C 466.533 -2.20564 -0.623236 0
M  V30 4975 C 467.546 -1.19519 -1.1054 0
M  V30 4976 O 468.735 -1.46165 -1.02459 0
M  V30 4977 C 465.835 -2.83033 -1.86401 0
M  V30 4978 C 465.008 -4.09916 -1.52604 0
M  V30 4979 C 464.067 -4.56284 -2.62091 0
M  V30 4980 O 463.093 -5.2171 -2.27612 0
M  V30 4981 N 464.295 -4.27746 -3.92446 0
M  V30 4982 H 467.06 -2.99638 -0.0610915 0
M  V30 4983 H 464.621 -1.61508 0.112615 0
M  V30 4984 H 466.613 -3.1099 -2.58973 0
M  V30 4985 H 465.183 -2.0786 -2.33481 0
M  V30 4986 H 464.403 -3.89078 -0.633424 0
M  V30 4987 H 465.691 -4.92554 -1.27547 0
M  V30 4988 H 465.089 -3.7531 -4.23272 0
M  V30 4989 H 463.646 -4.60437 -4.61347 0
M  V30 4990 N 467.08 -0.0183926 -1.57589 0
M  V30 4991 C 468.01 0.965596 -2.12599 0
M  V30 4992 C 468.991 1.34641 -1.0395 0
M  V30 4993 O 470.176 1.42693 -1.31729 0
M  V30 4994 C 467.306 2.25149 -2.64434 0
M  V30 4995 C 466.26 2.01175 -3.77773 0
M  V30 4996 C 465.586 3.35937 -4.15994 0
M  V30 4997 C 466.886 1.35953 -5.04296 0
M  V30 4998 H 468.58 0.507504 -2.95067 0
M  V30 4999 H 466.126 0.242671 -1.41941 0
M  V30 5000 H 468.079 2.94357 -3.01549 0
M  V30 5001 H 466.803 2.73105 -1.79112 0
M  V30 5002 H 465.462 1.34388 -3.4108 0
M  V30 5003 H 465.11 3.81631 -3.27669 0
M  V30 5004 H 464.81 3.20705 -4.92364 0
M  V30 5005 H 466.334 4.0643 -4.55683 0
M  V30 5006 H 467.748 1.95144 -5.39065 0
M  V30 5007 H 466.145 1.31152 -5.85593 0
M  V30 5008 H 467.215 0.331071 -4.83768 0
M  V30 5009 N 468.558 1.5553 0.254621 0
M  V30 5010 C 469.974 1.4778 0.602753 0
M  V30 5011 C 470.174 0.707047 1.88688 0
M  V30 5012 O 469.23 0.233288 2.5142 0
M  V30 5013 C 470.543 2.92133 0.712648 0
M  V30 5014 C 472.091 3.02458 0.805488 0
M  V30 5015 C 472.566 4.48102 0.947009 0
M  V30 5016 N 474.057 4.52008 1.01207 0
M  V30 5017 C 474.792 5.61939 1.1407 0
M  V30 5018 N 474.288 6.81697 1.23536 0
M  V30 5019 N 476.081 5.49719 1.17325 0
M  V30 5020 H 468.232 2.04085 -0.588463 0
M  V30 5021 H 470.495 0.926229 -0.202001 0
M  V30 5022 H 470.201 3.51332 -0.160766 0
M  V30 5023 H 470.075 3.42187 1.58707 0
M  V30 5024 H 472.462 2.43344 1.66936 0
M  V30 5025 H 472.543 2.55627 -0.0939266 0
M  V30 5026 H 472.187 5.07824 0.087725 0
M  V30 5027 H 472.117 4.92607 1.86135 0
M  V30 5028 H 474.608 3.65749 0.950577 0
M  V30 5029 H 474.921 7.61228 1.33236 0
M  V30 5030 H 473.266 6.84473 1.20508 0
M  V30 5031 H 476.457 4.55095 1.09573 0
M  V30 5032 H 476.63 6.35432 1.27005 0
M  V30 5033 N 470.036 -0.519951 1.48776 0
M  V30 5034 C 471.284 -1.2727 1.56993 0
M  V30 5035 C 471.605 -1.9339 0.25004 0
M  V30 5036 O 470.875 -1.81822 -0.729216 0
M  V30 5037 H 469.455 -0.472732 0.578389 0
M  V30 5038 H 472.117 -0.604234 1.85297 0
M  V30 5039 H 471.213 -2.04669 2.3562 0
M  V30 5040 N 471.514 -1.37532 -0.769588 0
M  V30 5041 C 472.461 -1.3347 -1.88293 0
M  V30 5042 C 473.431 -0.199891 -1.64893 0
M  V30 5043 O 474.616 -0.389594 -1.8678 0
M  V30 5044 C 471.756 -1.14968 -3.25387 0
M  V30 5045 C 470.869 -2.37698 -3.60727 0
M  V30 5046 C 470.004 -2.12051 -4.8704 0
M  V30 5047 C 469.043 -3.30636 -5.15117 0
M  V30 5048 N 468.18 -3.04527 -6.3262 0
M  V30 5049 H 473.02 -2.28658 -1.911 0
M  V30 5050 H 470.557 -1.13622 -0.934257 0
M  V30 5051 H 472.515 -1.02261 -4.04473 0
M  V30 5052 H 471.145 -0.234263 -3.21949 0
M  V30 5053 H 470.197 -2.61137 -2.76608 0
M  V30 5054 H 471.509 -3.26131 -3.77413 0
M  V30 5055 H 470.663 -1.96388 -5.74035 0
M  V30 5056 H 469.402 -1.20959 -4.72462 0
M  V30 5057 H 468.407 -3.46836 -4.26597 0
M  V30 5058 H 469.632 -4.22582 -5.31603 0
M  V30 5059 H 467.578 -2.16067 -6.19396 0
M  V30 5060 H 467.495 -3.86503 -6.49732 0
M  V30 5061 H 468.763 -2.92485 -7.22546 0
M  V30 5062 N 472.992 0.995999 -1.22138 0
M  V30 5063 C 473.94 2.10673 -0.985876 0
M  V30 5064 C 474.934 1.69255 0.0699553 0
M  V30 5065 O 476.14 1.79812 -0.0822176 0
M  V30 5066 H 472.515 0.688865 -0.30161 0
M  V30 5067 H 474.486 2.27711 -1.92848 0
M  V30 5068 C 473.235 3.42881 -0.576909 0
M  V30 5069 H 472.558 3.75191 -1.38101 0
M  V30 5070 H 473.998 4.21589 -0.451518 0
M  V30 5071 C 472.457 3.29265 0.713196 0
M  V30 5072 O 472.987 3.60777 1.76643 0
M  V30 5073 N 471.193 2.82456 0.683162 0
M  V30 5074 H 470.74 2.5701 -0.174242 0
M  V30 5075 H 470.698 2.73727 1.54663 0
M  V30 5076 N 474.47 1.03057 1.19235 0
M  V30 5077 C 475.718 0.726581 1.88587 0
M  V30 5078 C 476.039 -0.747227 1.80115 0
M  V30 5079 O 475.309 -1.53849 1.21274 0
M  V30 5080 H 473.889 0.265768 0.698124 0
M  V30 5081 H 476.551 1.30516 1.44746 0
M  V30 5082 H 475.647 1.0224 2.94879 0
M  V30 5083 N 475.948 -1.35272 0.808662 0
M  V30 5084 C 477.196 -1.98316 0.389233 0
M  V30 5085 C 477.517 -1.64465 -1.04767 0
M  V30 5086 O 476.787 -0.928175 -1.72516 0
M  V30 5087 H 475.367 -0.733585 0.140935 0
M  V30 5088 H 478.029 -1.6515 1.03496 0
M  V30 5089 H 477.125 -3.08123 0.496631 0
M  V30 5090 N 477.426 -0.562348 -1.47226 0
M  V30 5091 C 478.389 0.172056 -2.28553 0
M  V30 5092 C 479.389 0.837928 -1.37242 0
M  V30 5093 O 480.579 0.693001 -1.59822 0
M  V30 5094 C 477.711 1.25223 -3.17068 0
M  V30 5095 H 478.904 -0.542401 -2.94954 0
M  V30 5096 H 476.457 -0.319493 -1.53 0
M  V30 5097 H 477.192 1.99892 -2.55369 0
M  V30 5098 H 476.977 0.779515 -3.84273 0
M  V30 5099 H 478.467 1.76791 -3.78332 0
M  V30 5100 N 478.904 1.54736 -0.299062 0
M  V30 5101 C 480.153 1.99279 0.311549 0
M  V30 5102 C 480.466 1.19107 1.55154 0
M  V30 5103 O 481.672 1.53908 2.23662 0
M  V30 5104 C 480.128 3.54768 0.605632 0
M  V30 5105 C 479.736 4.43746 -0.615914 0
M  V30 5106 C 481.48 4.07841 1.17754 0
M  V30 5107 C 479.387 5.90663 -0.29509 0
M  V30 5108 H 478.317 0.744359 0.120187 0
M  V30 5109 H 480.968 1.78919 -0.407464 0
M  V30 5110 H 479.35 3.71021 1.38419 0
M  V30 5111 H 480.524 4.39267 -1.39218 0
M  V30 5112 H 478.839 4.01434 -1.10633 0
M  V30 5113 H 481.436 5.15174 1.43179 0
M  V30 5114 H 481.779 3.58324 2.11918 0
M  V30 5115 H 482.312 3.95123 0.460739 0
M  V30 5116 H 479.051 6.44325 -1.20524 0
M  V30 5117 H 478.571 5.98155 0.44394 0
M  V30 5118 H 480.25 6.46916 0.104048 0
M  V30 5119 N 480.382 0.0267497 1.57577 0
M  V30 5120 C 481.329 -0.955894 2.10075 0
M  V30 5121 C 482.299 -1.32453 1.00226 0
M  V30 5122 O 483.484 -1.41826 1.27632 0
M  V30 5123 C 480.624 -2.2338 2.6305 0
M  V30 5124 C 479.737 -1.92183 3.86898 0
M  V30 5125 C 478.872 -3.14251 4.28275 0
M  V30 5126 C 477.911 -2.78862 5.44888 0
M  V30 5127 N 477.048 -3.93548 5.81433 0
M  V30 5128 H 481.888 -0.501303 2.93753 0
M  V30 5129 H 479.425 -0.235847 1.45197 0
M  V30 5130 H 481.383 -2.98124 2.91853 0
M  V30 5131 H 480.013 -2.6646 1.82205 0
M  V30 5132 H 479.065 -1.07692 3.64838 0
M  V30 5133 H 480.377 -1.62117 4.7172 0
M  V30 5134 H 479.531 -3.97317 4.58502 0
M  V30 5135 H 478.27 -3.47476 3.42215 0
M  V30 5136 H 477.275 -1.94208 5.14357 0
M  V30 5137 H 478.5 -2.46855 6.32645 0
M  V30 5138 H 476.446 -4.2662 4.98328 0
M  V30 5139 H 476.363 -3.67098 6.6089 0
M  V30 5140 H 477.631 -4.77325 6.16264 0
M  V30 5141 N 481.861 -1.55662 -0.24637 0
M  V30 5142 C 483.11 -1.7672 -0.972254 0
M  V30 5143 C 483.423 -0.59078 -1.86465 0
M  V30 5144 O 484.629 -0.684391 -2.62732 0
M  V30 5145 C 483.085 -3.12869 -1.7788 0
M  V30 5146 C 482.693 -4.38161 -0.933768 0
M  V30 5147 C 484.437 -3.43265 -2.49738 0
M  V30 5148 C 482.344 -5.6534 -1.73623 0
M  V30 5149 H 481.274 -0.658795 -0.366749 0
M  V30 5150 H 483.925 -1.82092 -0.226902 0
M  V30 5151 H 482.307 -3.01606 -2.56612 0
M  V30 5152 H 483.481 -4.60413 -0.188736 0
M  V30 5153 H 481.796 -4.15102 -0.328488 0
M  V30 5154 H 484.393 -4.35501 -3.10231 0
M  V30 5155 H 484.736 -2.64614 -3.2138 0
M  V30 5156 H 485.269 -3.55746 -1.78016 0
M  V30 5157 H 482.008 -6.46814 -1.06354 0
M  V30 5158 H 481.528 -5.47188 -2.45653 0
M  V30 5159 H 483.207 -6.04616 -2.30323 0
M  V30 5160 N 483.339 0.512053 -1.4905 0
M  V30 5161 C 484.588 1.26343 -1.57227 0
M  V30 5162 C 484.901 1.93876 -0.259155 0
M  V30 5163 O 486.107 2.70612 -0.219358 0
M  V30 5164 C 484.563 2.29343 -2.77362 0
M  V30 5165 C 484.171 1.67799 -4.15388 0
M  V30 5166 C 485.915 3.05378 -2.94864 0
M  V30 5167 C 483.822 2.68845 -5.2676 0
M  V30 5168 H 482.752 0.475231 -0.585382 0
M  V30 5169 H 485.403 0.53862 -1.75417 0
M  V30 5170 H 483.785 3.04938 -2.52643 0
M  V30 5171 H 484.959 0.982715 -4.50199 0
M  V30 5172 H 483.274 1.04194 -4.03153 0
M  V30 5173 H 485.871 3.80921 -3.75238 0
M  V30 5174 H 486.214 3.62327 -2.05 0
M  V30 5175 H 486.747 2.36898 -3.19569 0
M  V30 5176 H 483.486 2.16692 -6.18647 0
M  V30 5177 H 483.006 3.36647 -4.96416 0
M  V30 5178 H 484.685 3.31487 -5.5563 0
M  V30 5179 N 484.817 1.37938 0.762283 0
M  V30 5180 C 485.765 1.34569 1.89721 0
M  V30 5181 C 486.759 0.232929 1.67791 0
M  V30 5182 O 487.965 0.401485 1.75465 0
M  V30 5183 H 484.34 0.419594 0.624055 0
M  V30 5184 H 486.311 2.30357 1.8968 0
M  V30 5185 C 485.06 1.17898 3.27101 0
M  V30 5186 H 484.383 2.02781 3.44558 0
M  V30 5187 H 485.823 1.19593 4.06784 0
M  V30 5188 C 484.282 -0.114728 3.36705 0
M  V30 5189 O 484.812 -1.0949 3.8649 0
M  V30 5190 N 483.018 -0.16863 2.9011 0
M  V30 5191 H 482.565 0.62967 2.49786 0
M  V30 5192 H 482.523 -1.03383 2.96916 0
M  V30 5193 N 486.295 -0.989507 1.22664 0
M  V30 5194 C 487.572 -1.70326 0.961688 0
M  V30 5195 C 487.952 -2.04537 -0.522279 0
M  V30 5196 O 487.3 -1.73136 -1.49118 0
M  V30 5197 C 487.51 -2.95135 1.86269 0
M  V30 5198 C 488.858 -3.67842 2.12078 0
M  V30 5199 O 489.882 -3.0515 1.83745 0
M  V30 5200 O 488.741 -4.80644 2.60083 0
M  V30 5201 H 485.835 -0.743589 0.361946 0
M  V30 5202 H 488.381 -1.04555 1.33665 0
M  V30 5203 H 487.153 -2.66382 2.8663 0
M  V30 5204 H 486.776 -3.68645 1.48952 0
M  V30 5205 N 487.773 -1.03688 -1.18687 0
M  V30 5206 C 488.705 -0.582696 -2.21669 0
M  V30 5207 C 489.718 0.345656 -1.59088 0
M  V30 5208 O 490.907 0.140776 -1.77944 0
M  V30 5209 C 488.007 0.169204 -3.38477 0
M  V30 5210 C 487.18 -0.766079 -4.30639 0
M  V30 5211 C 486.239 -0.0581541 -5.26168 0
M  V30 5212 O 485.265 -0.687346 -5.65035 0
M  V30 5213 N 486.467 1.20981 -5.67753 0
M  V30 5214 H 489.232 -1.46843 -2.61261 0
M  V30 5215 H 486.793 -0.916896 -1.33434 0
M  V30 5216 H 488.785 0.652543 -3.99405 0
M  V30 5217 H 487.355 0.956435 -2.97609 0
M  V30 5218 H 486.575 -1.42935 -3.67373 0
M  V30 5219 H 487.863 -1.40146 -4.89118 0
M  V30 5220 H 487.261 1.74159 -5.38224 0
M  V30 5221 H 485.818 1.6375 -6.30896 0
M  V30 5222 N 489.251 1.34841 -0.815825 0
M  V30 5223 C 490.479 2.0273 -0.413294 0
M  V30 5224 C 490.894 1.61459 0.978599 0
M  V30 5225 O 490.251 0.816584 1.63212 0
M  V30 5226 C 490.302 3.58058 -0.497676 0
M  V30 5227 O 490.023 3.97832 -1.8347 0
M  V30 5228 C 491.524 4.4321 -0.0891339 0
M  V30 5229 H 488.744 0.649956 -0.166728 0
M  V30 5230 H 491.288 1.72267 -1.10201 0
M  V30 5231 H 489.443 3.87136 0.142886 0
M  V30 5232 H 489.857 4.92501 -1.80396 0
M  V30 5233 H 491.331 5.5164 -0.199274 0
M  V30 5234 H 491.808 4.28432 0.966571 0
M  V30 5235 H 492.414 4.19446 -0.703214 0
M  V30 5236 N 490.729 0.570148 1.46925 0
M  V30 5237 C 491.676 -0.170257 2.30171 0
M  V30 5238 C 492.646 -0.896099 1.39855 0
M  V30 5239 O 493.831 -0.889248 1.68811 0
M  V30 5240 C 490.971 -1.18605 3.24079 0
M  V30 5241 C 490.084 -0.464947 4.29491 0
M  V30 5242 C 489.219 -1.46716 5.10537 0
M  V30 5243 C 488.258 -0.731758 6.0771 0
M  V30 5244 N 487.395 -1.68142 6.81669 0
M  V30 5245 H 492.235 0.545713 2.92961 0
M  V30 5246 H 489.772 0.280938 1.44392 0
M  V30 5247 H 491.73 -1.78771 3.76957 0
M  V30 5248 H 490.36 -1.86989 2.63125 0
M  V30 5249 H 489.412 0.251506 3.79568 0
M  V30 5250 H 490.724 0.110548 4.98677 0
M  V30 5251 H 489.878 -2.14199 5.6763 0
M  V30 5252 H 488.617 -2.07658 4.41282 0
M  V30 5253 H 487.622 -0.0430787 5.49783 0
M  V30 5254 H 488.847 -0.127904 6.7898 0
M  V30 5255 H 486.793 -2.27918 6.15134 0
M  V30 5256 H 486.71 -1.15841 7.47072 0
M  V30 5257 H 487.978 -2.347 7.43328 0
M  V30 5258 N 492.207 -1.54576 0.307264 0
M  V30 5259 C 493.139 -2.21212 -0.599807 0
M  V30 5260 C 494.152 -1.20685 -1.09266 0
M  V30 5261 O 495.341 -1.47244 -1.00903 0
M  V30 5262 C 492.441 -2.84994 -1.83389 0
M  V30 5263 C 491.614 -4.11511 -1.48248 0
M  V30 5264 C 490.673 -4.59038 -2.57237 0
M  V30 5265 O 489.699 -5.24095 -2.22065 0
M  V30 5266 N 490.901 -4.31884 -3.87887 0
M  V30 5267 H 493.666 -2.99686 -0.0293075 0
M  V30 5268 H 491.227 -1.61379 0.129738 0
M  V30 5269 H 493.219 -3.1372 -2.5566 0
M  V30 5270 H 491.789 -2.10324 -2.31263 0
M  V30 5271 H 491.009 -3.89728 -0.592122 0
M  V30 5272 H 492.297 -4.93879 -1.22316 0
M  V30 5273 H 491.695 -3.79778 -4.19268 0
M  V30 5274 H 490.252 -4.65304 -4.56438 0
M  V30 5275 N 493.685 -0.035106 -1.57561 0
M  V30 5276 C 494.595 0.960295 -2.14046 0
M  V30 5277 C 495.611 1.3529 -1.0942 0
M  V30 5278 O 496.787 1.43309 -1.41508 0
M  V30 5279 C 493.852 2.22214 -2.66124 0
M  V30 5280 C 492.913 1.8894 -3.85487 0
M  V30 5281 C 492.146 3.09109 -4.35072 0
M  V30 5282 O 492.369 4.21963 -3.83802 0
M  V30 5283 O 491.303 2.91058 -5.26848 0
M  V30 5284 H 495.129 0.509983 -2.99387 0
M  V30 5285 H 492.714 0.185853 -1.48239 0
M  V30 5286 H 494.596 2.96279 -2.99661 0
M  V30 5287 H 493.271 2.66414 -1.83862 0
M  V30 5288 H 492.178 1.12241 -3.56865 0
M  V30 5289 H 493.511 1.49551 -4.6893 0
M  V30 5290 N 495.163 1.55791 0.238111 0
M  V30 5291 C 496.44 1.68798 0.98826 0
M  V30 5292 C 496.82 0.577562 2.03045 0
M  V30 5293 O 496.168 -0.41778 2.24648 0
M  V30 5294 C 496.378 3.09454 1.61367 0
M  V30 5295 C 497.726 3.68335 2.11221 0
M  V30 5296 O 498.75 3.1231 1.71292 0
M  V30 5297 O 497.609 4.6657 2.84561 0
M  V30 5298 H 494.703 0.686881 0.460568 0
M  V30 5299 H 497.249 1.68118 0.231202 0
M  V30 5300 H 496.021 3.81726 0.860295 0
M  V30 5301 H 495.644 3.14182 2.4367 0
M  V30 5302 N 496.642 -0.504142 1.49319 0
M  V30 5303 C 497.87 -1.28256 1.62351 0
M  V30 5304 C 498.285 -1.86502 0.293682 0
M  V30 5305 O 497.642 -1.67678 -0.720449 0
M  V30 5306 C 497.693 -2.41507 2.68992 0
M  V30 5307 O 497.414 -1.85656 3.96817 0
M  V30 5308 C 498.915 -3.32929 2.927 0
M  V30 5309 H 496.135 -0.389115 0.546654 0
M  V30 5310 H 498.679 -0.605531 1.95329 0
M  V30 5311 H 496.834 -3.05046 2.38801 0
M  V30 5312 H 497.248 -2.59981 4.55533 0
M  V30 5313 H 498.722 -4.0868 3.71058 0
M  V30 5314 H 499.199 -3.89733 2.02496 0
M  V30 5315 H 499.805 -2.75158 3.24296 0
M  V30 5316 N 498.12 -1.38341 -0.754957 0
M  V30 5317 C 499.05 -1.38176 -1.88227 0
M  V30 5318 C 500.031 -0.247873 -1.68284 0
M  V30 5319 O 501.216 -0.45075 -1.88896 0
M  V30 5320 C 498.346 -1.20471 -3.25736 0
M  V30 5321 C 497.3 -2.3105 -3.60278 0
M  V30 5322 C 496.626 -1.98452 -4.96509 0
M  V30 5323 C 497.926 -3.73305 -3.65295 0
M  V30 5324 H 499.62 -2.32512 -1.88622 0
M  V30 5325 H 497.166 -1.1192 -0.906082 0
M  V30 5326 H 499.119 -1.18982 -4.04254 0
M  V30 5327 H 497.843 -0.225965 -3.25817 0
M  V30 5328 H 496.502 -2.31723 -2.84078 0
M  V30 5329 H 496.15 -0.990641 -4.93148 0
M  V30 5330 H 495.85 -2.7251 -5.20588 0
M  V30 5331 H 497.374 -1.98578 -5.77407 0
M  V30 5332 H 498.788 -3.7467 -4.3393 0
M  V30 5333 H 497.185 -4.46557 -4.00883 0
M  V30 5334 H 498.255 -4.05719 -2.65556 0
M  V30 5335 N 499.598 0.982988 -1.23187 0
M  V30 5336 C 500.53 2.07729 -0.968572 0
M  V30 5337 C 501.543 1.62702 0.0564821 0
M  V30 5338 O 502.732 1.77603 -0.178733 0
M  V30 5339 C 499.832 3.36071 -0.436974 0
M  V30 5340 C 499.005 4.10081 -1.52159 0
M  V30 5341 C 498.064 5.16701 -0.99532 0
M  V30 5342 O 497.09 5.43727 -1.68373 0
M  V30 5343 N 498.292 5.80226 0.178192 0
M  V30 5344 H 501.057 2.30894 -1.9107 0
M  V30 5345 H 498.618 1.14949 -1.1401 0
M  V30 5346 H 500.61 4.04639 -0.0700051 0
M  V30 5347 H 499.18 3.09893 0.410509 0
M  V30 5348 H 498.4 3.36004 -2.06144 0
M  V30 5349 H 499.688 4.56295 -2.25105 0
M  V30 5350 H 499.086 5.60651 0.754096 0
M  V30 5351 H 497.643 6.49982 0.486449 0
M  V30 5352 N 501.076 1.04316 1.18135 0
M  V30 5353 C 502.023 0.636398 2.21853 0
M  V30 5354 C 502.993 -0.357039 1.62217 0
M  V30 5355 O 504.178 -0.250453 1.89149 0
M  V30 5356 C 501.318 0.00812779 3.45099 0
M  V30 5357 C 500.431 1.04933 4.19062 0
M  V30 5358 C 499.566 0.389313 5.29771 0
M  V30 5359 C 498.605 1.41544 5.9551 0
M  V30 5360 N 497.742 0.78021 6.97751 0
M  V30 5361 H 502.582 1.52536 2.56002 0
M  V30 5362 H 500.119 0.76304 1.25762 0
M  V30 5363 H 502.077 -0.373497 4.15525 0
M  V30 5364 H 500.707 -0.844336 3.11562 0
M  V30 5365 H 499.759 1.54888 3.47439 0
M  V30 5366 H 501.071 1.82862 4.64072 0
M  V30 5367 H 500.225 -0.0463805 6.06682 0
M  V30 5368 H 498.964 -0.422038 4.8587 0
M  V30 5369 H 497.969 1.86124 5.17337 0
M  V30 5370 H 499.194 2.22854 6.41493 0
M  V30 5371 H 497.14 -0.0107899 6.55999 0
M  V30 5372 H 497.057 1.49716 7.41027 0
M  V30 5373 H 498.325 0.368996 7.78626 0
M  V30 5374 N 502.554 -1.34406 0.822964 0
M  V30 5375 C 503.803 -1.97542 0.407458 0
M  V30 5376 C 504.116 -1.65973 -1.035 0
M  V30 5377 O 505.322 -2.22598 -1.55442 0
M  V30 5378 C 503.778 -3.53463 0.677623 0
M  V30 5379 C 503.386 -3.93925 2.1337 0
M  V30 5380 C 505.13 -4.23229 0.328284 0
M  V30 5381 C 503.037 -5.42759 2.34876 0
M  V30 5382 H 501.967 -0.739207 0.148623 0
M  V30 5383 H 504.618 -1.53248 1.00932 0
M  V30 5384 H 503 -3.96 0.00558965 0
M  V30 5385 H 504.174 -3.62494 2.8449 0
M  V30 5386 H 502.489 -3.37097 2.44448 0
M  V30 5387 H 505.086 -5.32659 0.466794 0
M  V30 5388 H 505.429 -4.09899 -0.727224 0
M  V30 5389 H 505.962 -3.86169 0.954896 0
M  V30 5390 H 502.701 -5.61075 3.38932 0
M  V30 5391 H 502.221 -5.75704 1.68299 0
M  V30 5392 H 503.9 -6.0944 2.17236 0
M  V30 5393 N 504.032 -0.577932 -1.46621 0
M  V30 5394 C 505.309 0.00495287 -1.95599 0
M  V30 5395 C 505.689 1.46428 -1.5206 0
M  V30 5396 O 505.037 2.1517 -0.769046 0
M  V30 5397 C 505.247 -0.162114 -3.48623 0
M  V30 5398 C 506.595 -0.0274623 -4.24591 0
M  V30 5399 O 507.619 -0.0907067 -3.56084 0
M  V30 5400 O 506.478 0.1122 -5.46385 0
M  V30 5401 H 503.572 0.0525057 -0.825332 0
M  V30 5402 H 506.118 -0.645914 -1.56927 0
M  V30 5403 H 504.89 -1.17679 -3.73185 0
M  V30 5404 H 504.513 0.525407 -3.94113 0
M  V30 5405 N 505.51 1.54411 -0.315457 0
M  V30 5406 C 506.457 2.24048 0.554166 0
M  V30 5407 C 507.427 1.2283 1.11812 0
M  V30 5408 O 508.612 1.51491 1.15997 0
M  V30 5409 C 505.752 2.99574 1.71316 0
M  V30 5410 C 504.865 4.15594 1.17922 0
M  V30 5411 C 504 4.78669 2.30324 0
M  V30 5412 C 503.039 5.86807 1.74137 0
M  V30 5413 N 502.176 6.43777 2.8017 0
M  V30 5414 H 507.016 2.97964 -0.0462602 0
M  V30 5415 H 504.553 1.47059 -0.0346009 0
M  V30 5416 H 506.511 3.41604 2.39505 0
M  V30 5417 H 505.141 2.28008 2.285 0
M  V30 5418 H 504.193 3.78404 0.389136 0
M  V30 5419 H 505.505 4.93459 0.728012 0
M  V30 5420 H 504.659 5.23626 3.06433 0
M  V30 5421 H 503.398 4.00168 2.78778 0
M  V30 5422 H 502.403 5.41261 0.965236 0
M  V30 5423 H 503.628 6.67201 1.2657 0
M  V30 5424 H 501.574 5.68153 3.2793 0
M  V30 5425 H 501.491 7.17031 2.39588 0
M  V30 5426 H 502.759 6.9339 3.56132 0
M  V30 5427 N 506.988 0.0434614 1.5754 0
M  V30 5428 C 507.935 -0.93356 2.11077 0
M  V30 5429 C 508.905 -1.31383 1.01626 0
M  V30 5430 O 510.09 -1.40465 1.29129 0
M  V30 5431 C 507.23 -2.20578 2.65404 0
M  V30 5432 C 506.343 -1.88068 3.88914 0
M  V30 5433 C 505.478 -3.09691 4.31584 0
M  V30 5434 C 504.517 -2.73067 5.47815 0
M  V30 5435 N 503.654 -3.87359 5.85574 0
M  V30 5436 H 508.494 -0.470118 2.94268 0
M  V30 5437 H 506.031 -0.220434 1.45439 0
M  V30 5438 H 507.989 -2.95011 2.94999 0
M  V30 5439 H 506.619 -2.64513 1.85021 0
M  V30 5440 H 505.671 -1.03816 3.6596 0
M  V30 5441 H 506.983 -1.57104 4.73413 0
M  V30 5442 H 506.137 -3.92431 4.62691 0
M  V30 5443 H 504.876 -3.43827 3.45882 0
M  V30 5444 H 503.881 -1.88742 5.16388 0
M  V30 5445 H 505.106 -2.40131 6.35227 0
M  V30 5446 H 503.052 -4.21311 5.02825 0
M  V30 5447 H 502.969 -3.60068 6.64746 0
M  V30 5448 H 504.237 -4.70761 6.21292 0
M  V30 5449 N 508.466 -1.55915 -0.229846 0
M  V30 5450 C 509.743 -1.6932 -0.979295 0
M  V30 5451 C 510.123 -0.588321 -2.02736 0
M  V30 5452 O 509.471 0.40586 -2.24867 0
M  V30 5453 C 509.681 -3.10305 -1.59724 0
M  V30 5454 C 511.029 -3.6945 -2.09264 0
M  V30 5455 O 512.053 -3.13214 -1.69633 0
M  V30 5456 O 510.912 -4.68072 -2.82082 0
M  V30 5457 H 508.006 -0.689314 -0.456919 0
M  V30 5458 H 510.552 -1.68238 -0.222283 0
M  V30 5459 H 509.324 -3.82177 -0.840039 0
M  V30 5460 H 508.947 -3.1547 -2.42001 0
M  V30 5461 N 509.944 0.496216 -1.49584 0
M  V30 5462 C 511.192 1.24756 -1.58998 0
M  V30 5463 C 511.513 1.92968 -0.280775 0
M  V30 5464 O 510.783 1.82959 0.700198 0
M  V30 5465 H 509.363 0.463471 -0.585836 0
M  V30 5466 H 512.025 0.574678 -1.86235 0
M  V30 5467 H 511.121 2.00895 -2.38847 0
M  V30 5468 N 511.423 1.38739 0.74761 0
M  V30 5469 C 512.333 1.38696 1.89211 0
M  V30 5470 C 513.349 0.283303 1.71678 0
M  V30 5471 O 514.525 0.522713 1.94498 0
M  V30 5472 C 511.59 1.21662 3.24653 0
M  V30 5473 C 510.651 2.41886 3.54669 0
M  V30 5474 C 509.884 2.25655 4.83648 0
M  V30 5475 O 510.107 1.25339 5.56459 0
M  V30 5476 O 509.041 3.14372 5.13277 0
M  V30 5477 H 512.867 2.35143 1.92202 0
M  V30 5478 H 510.452 1.19721 0.893708 0
M  V30 5479 H 512.334 1.14246 4.05618 0
M  V30 5480 H 511.009 0.283024 3.2246 0
M  V30 5481 H 509.916 2.54877 2.73841 0
M  V30 5482 H 511.249 3.33895 3.61628 0
M  V30 5483 N 512.901 -0.976442 1.23707 0
M  V30 5484 C 513.811 -2.10359 1.03856 0
M  V30 5485 C 514.827 -1.73991 -0.0180919 0
M  V30 5486 O 516.003 -2.0061 0.178211 0
M  V30 5487 C 513.068 -3.40809 0.636387 0
M  V30 5488 C 512.129 -3.91179 1.76854 0
M  V30 5489 C 511.362 -5.15404 1.38546 0
M  V30 5490 O 511.585 -5.69754 0.27142 0
M  V30 5491 O 510.519 -5.5994 2.20797 0
M  V30 5492 H 514.345 -2.29997 1.98331 0
M  V30 5493 H 511.93 -1.08742 1.02448 0
M  V30 5494 H 513.812 -4.19269 0.423223 0
M  V30 5495 H 512.487 -3.22493 -0.279322 0
M  V30 5496 H 511.394 -3.13819 2.03638 0
M  V30 5497 H 512.727 -4.13958 2.6627 0
M  V30 5498 N 514.379 -1.04941 -1.1758 0
M  V30 5499 C 515.628 -0.753124 -1.87112 0
M  V30 5500 C 515.941 0.722507 -1.81767 0
M  V30 5501 O 517.147 1.13265 -2.46746 0
M  V30 5502 C 515.603 -1.29695 -3.35719 0
M  V30 5503 C 515.211 -2.80184 -3.49572 0
M  V30 5504 C 516.955 -1.07759 -4.10595 0
M  V30 5505 C 514.862 -3.2788 -4.92187 0
M  V30 5506 H 513.792 -0.278034 -0.700866 0
M  V30 5507 H 516.443 -1.26637 -1.32798 0
M  V30 5508 H 514.825 -0.711522 -3.89555 0
M  V30 5509 H 515.999 -3.44561 -3.05965 0
M  V30 5510 H 514.314 -3.00632 -2.88113 0
M  V30 5511 H 516.911 -1.40899 -5.15802 0
M  V30 5512 H 517.254 -0.0152302 -4.16297 0
M  V30 5513 H 517.787 -1.62809 -3.62957 0
M  V30 5514 H 514.526 -4.33535 -4.91658 0
M  V30 5515 H 514.046 -2.68245 -5.36475 0
M  V30 5516 H 515.725 -3.22412 -5.60945 0
M  V30 5517 N 515.857 1.33968 -0.830081 0
M  V30 5518 C 516.804 2.29387 -0.255008 0
M  V30 5519 C 517.774 1.53923 0.624243 0
M  V30 5520 O 518.959 1.82262 0.564372 0
M  V30 5521 C 516.099 3.4034 0.571209 0
M  V30 5522 C 515.212 4.30729 -0.331083 0
M  V30 5523 C 514.347 5.2879 0.505389 0
M  V30 5524 C 513.386 6.10819 -0.395843 0
M  V30 5525 N 512.523 7.00948 0.401979 0
M  V30 5526 H 517.363 2.77972 -1.07404 0
M  V30 5527 H 514.9 1.36785 -0.541133 0
M  V30 5528 H 516.858 4.03361 1.06562 0
M  V30 5529 H 515.488 2.9297 1.35529 0
M  V30 5530 H 514.54 3.68507 -0.943759 0
M  V30 5531 H 515.852 4.88181 -1.02377 0
M  V30 5532 H 515.006 5.97297 1.06399 0
M  V30 5533 H 513.745 4.71894 1.23155 0
M  V30 5534 H 512.75 5.41238 -0.966529 0
M  V30 5535 H 513.975 6.69797 -1.12023 0
M  V30 5536 H 511.921 6.46512 1.11168 0
M  V30 5537 H 511.838 7.55643 -0.232167 0
M  V30 5538 H 513.106 7.73774 0.943102 0
M  V30 5539 N 517.335 0.585699 1.46312 0
M  V30 5540 C 518.265 -0.133556 2.33118 0
M  V30 5541 C 519.246 -0.880707 1.45525 0
M  V30 5542 O 520.431 -0.855579 1.74337 0
M  V30 5543 C 517.561 -1.14585 3.27853 0
M  V30 5544 C 516.515 -0.513341 4.2491 0
M  V30 5545 C 515.841 -1.63231 5.09175 0
M  V30 5546 C 517.141 0.551413 5.19381 0
M  V30 5547 H 518.835 0.59121 2.93505 0
M  V30 5548 H 516.381 0.285761 1.41136 0
M  V30 5549 H 518.334 -1.65741 3.87438 0
M  V30 5550 H 517.058 -1.90093 2.65579 0
M  V30 5551 H 515.717 -0.0228349 3.66593 0
M  V30 5552 H 515.365 -2.37713 4.43285 0
M  V30 5553 H 515.065 -1.21473 5.74907 0
M  V30 5554 H 516.589 -2.14658 5.71624 0
M  V30 5555 H 518.003 0.124804 5.73164 0
M  V30 5556 H 516.4 0.889486 5.93471 0
M  V30 5557 H 517.47 1.43655 4.63132 0
M  V30 5558 N 518.813 -1.54241 0.323641 0
M  V30 5559 C 520.041 -2.04985 -0.280871 0
M  V30 5560 C 520.456 -1.19978 -1.45777 0
M  V30 5561 O 519.813 -0.230471 -1.81039 0
M  V30 5562 C 519.864 -3.54353 -0.715258 0
M  V30 5563 O 519.585 -4.36132 0.414817 0
M  V30 5564 C 521.086 -4.21189 -1.38257 0
M  V30 5565 H 518.306 -0.66851 -0.0577502 0
M  V30 5566 H 520.85 -1.99029 0.469852 0
M  V30 5567 H 519.005 -3.60596 -1.41596 0
M  V30 5568 H 519.419 -5.2445 0.0725227 0
M  V30 5569 H 520.893 -5.27154 -1.63745 0
M  V30 5570 H 521.37 -3.72307 -2.32989 0
M  V30 5571 H 521.976 -4.19085 -0.724447 0
M  V30 5572 N 520.291 -0.0518155 -1.57515 0
M  V30 5573 C 521.54 0.621286 -1.91893 0
M  V30 5574 C 521.853 1.71966 -0.932052 0
M  V30 5575 O 523.059 2.45096 -1.16791 0
M  V30 5576 C 521.515 1.15641 -3.40816 0
M  V30 5577 C 521.123 0.0901146 -4.47909 0
M  V30 5578 C 522.867 1.80472 -3.84227 0
M  V30 5579 C 520.774 0.638154 -5.87947 0
M  V30 5580 H 519.704 0.235835 -0.716169 0
M  V30 5581 H 522.355 -0.120809 -1.83102 0
M  V30 5582 H 520.737 1.95084 -3.44613 0
M  V30 5583 H 521.911 -0.683525 -4.55702 0
M  V30 5584 H 520.226 -0.460774 -4.13843 0
M  V30 5585 H 522.823 2.22471 -4.86221 0
M  V30 5586 H 523.166 2.65669 -3.20508 0
M  V30 5587 H 523.699 1.07683 -3.82948 0
M  V30 5588 H 520.438 -0.176202 -6.55263 0
M  V30 5589 H 519.958 1.37976 -5.83714 0
M  V30 5590 H 521.637 1.12085 -6.37217 0
M  V30 5591 N 521.769 1.56035 0.221574 0
M  V30 5592 C 523.046 1.69837 0.970301 0
M  V30 5593 C 523.426 0.599065 2.02421 0
M  V30 5594 O 522.774 -0.393929 2.25079 0
M  V30 5595 C 522.984 3.11148 1.58076 0
M  V30 5596 C 524.332 3.70555 2.07302 0
M  V30 5597 O 525.356 3.14109 1.6797 0
M  V30 5598 O 524.215 4.69562 2.79596 0
M  V30 5599 H 521.309 0.691727 0.453257 0
M  V30 5600 H 523.855 1.68353 0.213358 0
M  V30 5601 H 522.627 3.82617 0.819759 0
M  V30 5602 H 522.25 3.16749 2.40324 0
M  V30 5603 N 523.247 -0.488276 1.49845 0
M  V30 5604 C 524.21 -1.57069 1.66919 0
M  V30 5605 C 525.21 -1.51445 0.540479 0
M  V30 5606 O 526.4 -1.5437 0.807188 0
M  V30 5607 C 523.532 -2.96718 1.67844 0
M  V30 5608 H 524.725 -1.43254 2.63474 0
M  V30 5609 H 522.278 -0.713435 1.39068 0
M  V30 5610 H 523.013 -3.15996 0.7292 0
M  V30 5611 H 522.798 -3.02208 2.49826 0
M  V30 5612 H 524.288 -3.75335 1.83066 0
M  V30 5613 N 524.725 -1.39134 -0.740242 0
M  V30 5614 C 525.688 -1.37217 -1.83587 0
M  V30 5615 C 526.688 -0.270221 -1.58513 0
M  V30 5616 O 527.878 -0.527843 -1.6601 0
M  V30 5617 C 525.01 -1.13959 -3.21288 0
M  V30 5618 H 526.203 -2.34705 -1.86691 0
M  V30 5619 H 523.756 -1.24622 -0.94335 0
M  V30 5620 H 524.491 -0.17131 -3.23847 0
M  V30 5621 H 524.276 -1.93754 -3.40884 0
M  V30 5622 H 525.766 -1.15346 -4.01354 0
M  V30 5623 N 526.204 0.969867 -1.24223 0
M  V30 5624 C 527.45 1.7151 -1.08223 0
M  V30 5625 C 527.783 1.90478 0.37838 0
M  V30 5626 O 527.058 1.4647 1.27971 0
M  V30 5627 C 527.341 3.10714 -1.82013 0
M  V30 5628 C 527.194 2.9925 -3.35811 0
M  V30 5629 C 528.513 4.10332 -1.59108 0
M  V30 5630 H 525.632 0.622499 -0.394543 0
M  V30 5631 H 528.274 1.1284 -1.52863 0
M  V30 5632 H 526.424 3.608 -1.44068 0
M  V30 5633 H 528.096 2.56608 -3.83341 0
M  V30 5634 H 526.339 2.35512 -3.64303 0
M  V30 5635 H 527.01 3.97857 -3.82641 0
M  V30 5636 H 529.486 3.69097 -1.92111 0
M  V30 5637 H 528.362 5.05804 -2.13198 0
M  V30 5638 H 528.623 4.38926 -0.528832 0
M  V30 5639 N 527.682 1.05563 1.17022 0
M  V30 5640 C 528.614 0.617888 2.20714 0
M  V30 5641 C 529.627 -0.320303 1.59618 0
M  V30 5642 O 530.816 -0.112449 1.78145 0
M  V30 5643 C 527.916 -0.115333 3.38704 0
M  V30 5644 C 527.089 0.834493 4.29366 0
M  V30 5645 C 526.148 0.141855 5.26009 0
M  V30 5646 O 525.174 0.777151 5.6387 0
M  V30 5647 N 526.376 -1.11934 5.69606 0
M  V30 5648 H 529.141 1.50981 2.58892 0
M  V30 5649 H 526.702 0.938008 1.31958 0
M  V30 5650 H 528.694 -0.588918 4.00392 0
M  V30 5651 H 527.264 -0.908967 2.99093 0
M  V30 5652 H 526.484 1.48762 3.65053 0
M  V30 5653 H 527.772 1.4791 4.86827 0
M  V30 5654 H 527.17 -1.65574 5.40927 0
M  V30 5655 H 525.727 -1.53692 6.33421 0
M  V30 5656 N 529.16 -1.33526 0.837174 0
M  V30 5657 C 530.107 -2.29248 0.267169 0
M  V30 5658 C 531.077 -1.54252 -0.616071 0
M  V30 5659 O 532.262 -1.82559 -0.554699 0
M  V30 5660 C 529.402 -3.40638 -0.553152 0
M  V30 5661 C 528.515 -4.30548 0.353921 0
M  V30 5662 C 527.65 -5.29051 -0.477339 0
M  V30 5663 C 526.689 -6.106 0.42823 0
M  V30 5664 N 525.826 -7.01152 -0.364801 0
M  V30 5665 H 530.666 -2.77398 1.08877 0
M  V30 5666 H 528.203 -1.36496 0.54838 0
M  V30 5667 H 530.161 -4.03921 -1.04422 0
M  V30 5668 H 528.791 -2.93685 -1.33973 0
M  V30 5669 H 527.843 -3.68001 0.963289 0
M  V30 5670 H 529.155 -4.87631 1.04964 0
M  V30 5671 H 528.309 -5.97853 -1.0323 0
M  V30 5672 H 527.048 -4.72541 -1.2065 0
M  V30 5673 H 526.053 -5.40718 0.995219 0
M  V30 5674 H 527.278 -6.69193 1.15573 0
M  V30 5675 H 525.224 -6.47092 -1.07738 0
M  V30 5676 H 525.141 -7.5551 0.272238 0
M  V30 5677 H 526.409 -7.74263 -0.902054 0
M  V30 5678 N 530.638 -0.59345 -1.46 0
M  V30 5679 C 531.585 0.133618 -2.30413 0
M  V30 5680 C 532.555 0.873736 -1.41262 0
M  V30 5681 O 533.74 0.862279 -1.70204 0
M  V30 5682 C 530.88 1.13434 -3.25924 0
M  V30 5683 C 529.993 0.39656 -4.30176 0
M  V30 5684 C 529.128 1.38575 -5.12806 0
M  V30 5685 C 528.167 0.634984 -6.08797 0
M  V30 5686 N 527.304 1.57276 -6.84258 0
M  V30 5687 H 532.144 -0.592252 -2.92055 0
M  V30 5688 H 529.681 -0.303874 -1.43927 0
M  V30 5689 H 531.639 1.72752 -3.79753 0
M  V30 5690 H 530.269 1.82779 -2.66067 0
M  V30 5691 H 529.321 -0.311861 -3.79119 0
M  V30 5692 H 530.633 -0.189869 -4.98438 0
M  V30 5693 H 529.787 2.05141 -5.70966 0
M  V30 5694 H 528.526 2.00611 -4.44529 0
M  V30 5695 H 527.531 -0.0443925 -5.49782 0
M  V30 5696 H 528.756 0.0198678 -6.79097 0
M  V30 5697 H 526.702 2.18103 -6.18682 0
M  V30 5698 H 526.619 1.03941 -7.48821 0
M  V30 5699 H 527.887 2.22844 -7.46968 0
M  V30 5700 N 532.116 1.54067 -0.331816 0
M  V30 5701 C 533.079 2.23275 0.517768 0
M  V30 5702 C 534.079 1.22897 1.03697 0
M  V30 5703 O 535.269 1.47419 0.928084 0
M  V30 5704 C 532.401 2.94326 1.72004 0
M  V30 5705 H 533.594 2.99773 -0.0873507 0
M  V30 5706 H 531.147 1.56079 -0.0830042 0
M  V30 5707 H 531.882 2.21986 2.36417 0
M  V30 5708 H 531.667 3.67941 1.35507 0
M  V30 5709 H 533.157 3.47031 2.32291 0
M  V30 5710 N 533.594 0.0601682 1.57485 0
M  V30 5711 C 534.841 -0.611594 1.93043 0
M  V30 5712 C 535.169 -1.70317 0.939274 0
M  V30 5713 O 534.424 -1.95644 -0.046996 0
M  V30 5714 C 534.723 -1.23831 3.35262 0
M  V30 5715 C 534.389 -0.274037 4.50066 0
M  V30 5716 C 533.051 -0.00872394 4.81199 0
M  V30 5717 C 535.403 0.386308 5.19766 0
M  V30 5718 C 532.731 0.924218 5.79375 0
M  V30 5719 C 535.083 1.3075 6.1894 0
M  V30 5720 C 533.747 1.58139 6.48497 0
M  V30 5721 H 533.017 -0.223798 0.706396 0
M  V30 5722 H 535.664 0.128566 1.91068 0
M  V30 5723 H 533.969 -2.05394 3.33647 0
M  V30 5724 H 535.666 -1.76517 3.60059 0
M  V30 5725 H 532.256 -0.491008 4.25778 0
M  V30 5726 H 536.44 0.194436 4.95919 0
M  V30 5727 H 531.696 1.1438 6.00606 0
M  V30 5728 H 535.87 1.82519 6.72056 0
M  V30 5729 H 533.497 2.30593 7.24383 0
M  V30 5730 N 535.072 -1.5615 -0.213296 0
M  V30 5731 C 536.349 -1.70349 -0.961281 0
M  V30 5732 C 536.729 -0.609791 -2.02101 0
M  V30 5733 O 536.077 0.381987 -2.25285 0
M  V30 5734 C 536.287 -3.11982 -1.56424 0
M  V30 5735 C 537.635 -3.71649 -2.05334 0
M  V30 5736 O 538.659 -3.14995 -1.66302 0
M  V30 5737 O 537.518 -4.71038 -2.77102 0
M  V30 5738 H 534.612 -0.694121 -0.449582 0
M  V30 5739 H 537.158 -1.68464 -0.204426 0
M  V30 5740 H 535.93 -3.83046 -0.799457 0
M  V30 5741 H 535.553 -3.18019 -2.38641 0
M  V30 5742 N 536.55 0.480323 -1.50102 0
M  V30 5743 C 537.775 1.26126 -1.64642 0
M  V30 5744 C 538.2 1.85257 -0.325823 0
M  V30 5745 O 537.558 1.66854 0.709194 0
M  V30 5746 C 537.606 2.35243 -2.73301 0
M  V30 5747 O 536.71 3.39646 -2.33911 0
M  V30 5748 H 536.051 0.371463 -0.550374 0
M  V30 5749 H 538.581 0.572696 -1.96421 0
M  V30 5750 H 538.591 2.80695 -2.96098 0
M  V30 5751 H 537.266 1.91574 -3.6915 0
M  V30 5752 H 535.843 2.99969 -2.21525 0
M  V30 5753 N 538.028 1.39524 0.732853 0
M  V30 5754 C 538.958 1.41153 1.86005 0
M  V30 5755 C 539.939 0.274614 1.67869 0
M  V30 5756 O 541.124 0.480745 1.88155 0
M  V30 5757 C 538.254 1.25638 3.23778 0
M  V30 5758 C 537.208 2.36752 3.56556 0
M  V30 5759 C 536.534 2.06326 4.93289 0
M  V30 5760 C 537.834 3.79069 3.5931 0
M  V30 5761 H 539.528 2.35484 1.84899 0
M  V30 5762 H 537.074 1.13348 0.888162 0
M  V30 5763 H 539.027 1.25398 4.0231 0
M  V30 5764 H 537.751 0.277772 3.25417 0
M  V30 5765 H 536.41 2.36213 2.80355 0
M  V30 5766 H 536.058 1.06897 4.9151 0
M  V30 5767 H 535.758 2.80757 5.16187 0
M  V30 5768 H 537.282 2.07739 5.74175 0
M  V30 5769 H 538.696 3.81526 4.27914 0
M  V30 5770 H 537.093 4.52878 3.93728 0
M  V30 5771 H 538.163 4.09893 2.59068 0
M  V30 5772 N 539.506 -0.963266 1.24736 0
M  V30 5773 C 540.754 -1.70343 1.08755 0
M  V30 5774 C 541.075 -1.91387 -0.373619 0
M  V30 5775 O 540.345 -1.4948 -1.2662 0
M  V30 5776 H 538.925 -0.631224 0.399456 0
M  V30 5777 H 541.587 -1.15859 1.56725 0
M  V30 5778 H 540.683 -2.68616 1.58909 0
M  V30 5779 N 540.985 -1.06182 -1.16461 0
M  V30 5780 C 542.21 -0.798599 -1.91408 0
M  V30 5781 C 542.635 0.640987 -1.76842 0
M  V30 5782 O 541.993 1.44652 -1.09296 0
M  V30 5783 C 542.041 -1.19665 -3.40165 0
M  V30 5784 O 541.145 -0.334768 -4.11039 0
M  V30 5785 H 540.486 -0.291961 -0.596368 0
M  V30 5786 H 543.016 -1.41732 -1.47557 0
M  V30 5787 H 543.026 -1.16772 -3.90933 0
M  V30 5788 H 541.701 -2.24526 -3.50087 0
M  V30 5789 H 540.278 -0.425168 -3.70468 0
M  V30 5790 N 542.463 1.3308 -0.844243 0
M  V30 5791 C 543.373 2.32876 -0.283922 0
M  V30 5792 C 544.389 1.63589 0.592846 0
M  V30 5793 O 545.565 1.95205 0.495693 0
M  V30 5794 C 542.63 3.42667 0.527283 0
M  V30 5795 C 541.691 4.27664 -0.374394 0
M  V30 5796 C 540.924 5.32212 0.39819 0
M  V30 5797 O 541.147 5.46635 1.62932 0
M  V30 5798 O 540.081 6.01458 -0.2306 0
M  V30 5799 H 543.907 2.82671 -1.11045 0
M  V30 5800 H 541.492 1.36518 -0.606903 0
M  V30 5801 H 543.374 4.09652 0.988078 0
M  V30 5802 H 542.049 2.95079 1.33078 0
M  V30 5803 H 540.956 3.63526 -0.883144 0
M  V30 5804 H 542.289 4.78749 -1.1428 0
M  V30 5805 N 543.941 0.601185 1.45683 0
M  V30 5806 C 545.169 0.100054 2.06658 0
M  V30 5807 C 545.584 -1.21285 1.44691 0
M  V30 5808 O 544.941 -1.73735 0.558772 0
M  V30 5809 C 544.992 -0.0528579 3.61461 0
M  V30 5810 O 544.713 1.20809 4.21114 0
M  V30 5811 C 546.214 -0.586193 4.39407 0
M  V30 5812 H 543.434 0.065905 0.667756 0
M  V30 5813 H 545.978 0.827101 1.87028 0
M  V30 5814 H 544.133 -0.730203 3.80456 0
M  V30 5815 H 544.547 1.03368 5.14213 0
M  V30 5816 H 546.021 -0.642297 5.4825 0
M  V30 5817 H 546.498 -1.60713 4.0874 0
M  V30 5818 H 547.104 0.0568935 4.25262 0
M  V30 5819 N 545.419 -1.53889 0.339982 0
M  V30 5820 C 546.667 -2.00458 -0.257112 0
M  V30 5821 C 546.988 -1.22953 -1.51353 0
M  V30 5822 O 546.258 -0.335734 -1.93002 0
M  V30 5823 H 544.838 -0.740544 -0.0979965 0
M  V30 5824 H 547.5 -1.89386 0.460317 0
M  V30 5825 H 546.596 -3.08035 -0.502057 0
M  V30 5826 N 546.897 -0.0685191 -1.57451 0
M  V30 5827 C 547.86 0.885173 -2.11417 0
M  V30 5828 C 548.86 1.22853 -1.03748 0
M  V30 5829 O 550.05 1.16235 -1.2975 0
M  V30 5830 C 547.182 2.18964 -2.61281 0
M  V30 5831 H 548.375 0.417034 -2.96986 0
M  V30 5832 H 545.928 0.18014 -1.55258 0
M  V30 5833 H 546.663 2.70321 -1.79156 0
M  V30 5834 H 546.448 1.9534 -3.39977 0
M  V30 5835 H 547.938 2.87242 -3.0312 0
M  V30 5836 N 548.375 1.56261 0.205012 0
M  V30 5837 C 549.621 1.80306 0.9283 0
M  V30 5838 C 549.954 0.640932 1.83319 0
M  V30 5839 O 549.229 -0.359032 1.91158 0
M  V30 5840 C 549.512 3.14547 1.75306 0
M  V30 5841 C 549.365 4.41236 0.873562 0
M  V30 5842 C 550.684 3.45382 2.72762 0
M  V30 5843 H 547.803 0.655929 0.336044 0
M  V30 5844 H 550.445 1.88984 0.196211 0
M  V30 5845 H 548.595 3.0728 2.37721 0
M  V30 5846 H 550.267 4.60539 0.264887 0
M  V30 5847 H 548.51 4.33427 0.179773 0
M  V30 5848 H 549.181 5.31639 1.48541 0
M  V30 5849 H 551.657 3.52884 2.20481 0
M  V30 5850 H 550.533 4.40449 3.2756 0
M  V30 5851 H 550.794 2.68377 3.51321 0
M  V30 5852 N 549.853 -0.472356 1.50355 0
M  V30 5853 C 551.081 -1.24784 1.65035 0
M  V30 5854 C 551.496 -1.85837 0.333176 0
M  V30 5855 O 550.853 -1.69168 -0.68472 0
M  V30 5856 C 550.904 -2.35747 2.74054 0
M  V30 5857 O 550.625 -1.77197 4.00665 0
M  V30 5858 C 552.126 -3.26645 2.99696 0
M  V30 5859 H 549.346 -0.377432 0.554785 0
M  V30 5860 H 551.89 -0.563962 1.9657 0
M  V30 5861 H 550.045 -2.99912 2.45217 0
M  V30 5862 H 550.459 -2.5026 4.60945 0
M  V30 5863 H 551.933 -4.00718 3.79644 0
M  V30 5864 H 552.41 -3.8535 2.10718 0
M  V30 5865 H 553.016 -2.68218 3.3006 0
M  V30 5866 N 551.331 -1.39911 -0.725443 0
M  V30 5867 C 552.264 -1.33788 -1.84867 0
M  V30 5868 C 553.242 -0.209907 -1.61239 0
M  V30 5869 O 554.426 -0.391943 -1.8438 0
M  V30 5870 C 551.553 -1.07975 -3.21028 0
M  V30 5871 C 550.599 -2.23092 -3.635 0
M  V30 5872 S 551.432 -3.85431 -3.71757 0
M  V30 5873 C 552.588 -3.61862 -5.10692 0
M  V30 5874 H 552.821 -2.28848 -1.89779 0
M  V30 5875 H 550.354 -1.26079 -0.891254 0
M  V30 5876 H 552.312 -0.937669 -3.99647 0
M  V30 5877 H 550.973 -0.145865 -3.13761 0
M  V30 5878 H 550.166 -2.00647 -4.62338 0
M  V30 5879 H 549.768 -2.33553 -2.92112 0
M  V30 5880 H 552.06 -3.19719 -5.97316 0
M  V30 5881 H 553.003 -4.60196 -5.38169 0
M  V30 5882 H 553.411 -2.95757 -4.8082 0
M  V30 5883 N 552.809 0.956637 -1.25245 0
M  V30 5884 C 554.058 1.69537 -1.0927 0
M  V30 5885 C 554.371 1.92136 0.366503 0
M  V30 5886 O 555.577 2.63687 0.64665 0
M  V30 5887 C 554.033 3.05211 -1.9072 0
M  V30 5888 C 553.641 2.90416 -3.41119 0
M  V30 5889 C 555.385 3.82882 -1.83308 0
M  V30 5890 C 553.292 4.21468 -4.14872 0
M  V30 5891 H 552.222 0.635804 -0.405302 0
M  V30 5892 H 554.873 1.06513 -1.49423 0
M  V30 5893 H 553.255 3.69128 -1.43389 0
M  V30 5894 H 554.429 2.35444 -3.9611 0
M  V30 5895 H 552.744 2.26203 -3.49602 0
M  V30 5896 H 555.341 4.79944 -2.35706 0
M  V30 5897 H 555.684 4.0853 -0.800572 0
M  V30 5898 H 556.217 3.25711 -2.28379 0
M  V30 5899 H 552.956 4.01009 -5.18529 0
M  V30 5900 H 552.476 4.76213 -3.64665 0
M  V30 5901 H 554.155 4.90022 -4.22478 0
M  V30 5902 N 554.287 1.06798 1.15896 0
M  V30 5903 C 555.235 0.677525 2.22514 0
M  V30 5904 C 556.229 -0.308994 1.66558 0
M  V30 5905 O 557.435 -0.173308 1.79164 0
M  V30 5906 H 553.81 0.200994 0.724642 0
M  V30 5907 H 555.781 1.5865 2.52731 0
M  V30 5908 C 554.53 0.0854153 3.47595 0
M  V30 5909 H 553.853 0.835645 3.90969 0
M  V30 5910 H 555.293 -0.150199 4.23734 0
M  V30 5911 C 553.752 -1.1724 3.15843 0
M  V30 5912 O 554.282 -2.25965 3.32119 0
M  V30 5913 N 552.488 -1.07636 2.69931 0
M  V30 5914 H 552.035 -0.191559 2.56887 0
M  V30 5915 H 551.993 -1.91876 2.4906 0
M  V30 5916 N 555.766 -1.3263 0.851289 0
M  V30 5917 C 557.177 -1.79653 0.5081 0
M  V30 5918 C 557.528 -1.70327 -0.973815 0
M  V30 5919 O 556.653 -1.25986 -1.75944 0
M  V30 5920 C 557.248 -3.26196 0.915515 0
M  V30 5921 C 555.807 -3.71187 0.624277 0
M  V30 5922 C 554.954 -2.53804 1.11709 0
M  V30 5923 H 557.905 -1.19976 1.03882 0
M  V30 5924 H 557.926 -3.79801 0.230535 0
M  V30 5925 H 557.438 -3.32952 1.99411 0
M  V30 5926 H 555.539 -3.69948 -0.443737 0
M  V30 5927 H 555.652 -4.64132 1.18821 0
M  V30 5928 H 554.016 -2.48964 0.537484 0
M  V30 5929 H 554.799 -2.63315 2.20272 0
M  V30 5930 N 557.244 -0.608902 -1.45362 0
M  V30 5931 C 558.472 -0.111013 -2.06602 0
M  V30 5932 C 558.887 1.20516 -1.45332 0
M  V30 5933 O 558.244 1.73437 -0.567978 0
M  V30 5934 C 558.295 0.033688 -3.61484 0
M  V30 5935 O 558.016 -1.23041 -4.20467 0
M  V30 5936 C 559.517 0.562882 -4.39712 0
M  V30 5937 H 556.737 -0.0694453 -0.667397 0
M  V30 5938 H 559.281 -0.837008 -1.86586 0
M  V30 5939 H 557.436 0.710016 -3.80838 0
M  V30 5940 H 557.85 -1.06094 -5.13658 0
M  V30 5941 H 559.324 0.613213 -5.48583 0
M  V30 5942 H 559.801 1.58543 -4.09586 0
M  V30 5943 H 560.407 -0.0794454 -4.25226 0
M  V30 5944 N 558.722 1.53707 -0.348139 0
M  V30 5945 C 559.67 2.26671 0.521808 0
M  V30 5946 C 560.664 1.28988 1.09811 0
M  V30 5947 O 561.87 1.4668 1.04332 0
M  V30 5948 H 558.245 0.728387 0.186968 0
M  V30 5949 H 560.216 2.98176 -0.115563 0
M  V30 5950 C 558.965 3.05591 1.6586 0
M  V30 5951 H 558.288 3.80589 1.22443 0
M  V30 5952 H 559.728 3.59851 2.24239 0
M  V30 5953 C 558.187 2.15366 2.59073 0
M  V30 5954 O 558.717 1.7528 3.61441 0
M  V30 5955 N 556.923 1.80352 2.27863 0
M  V30 5956 H 556.47 2.13149 1.44656 0
M  V30 5957 H 556.428 1.20268 2.90488 0
M  V30 5958 N 560.2 0.0768682 1.57412 0
M  V30 5959 C 561.448 -0.589918 1.93299 0
M  V30 5960 C 561.769 -1.69842 0.958049 0
M  V30 5961 O 561.039 -1.95899 0.00703261 0
M  V30 5962 H 559.619 -0.220901 0.713591 0
M  V30 5963 H 562.281 0.135917 1.94425 0
M  V30 5964 H 561.377 -1.01195 2.95239 0
M  V30 5965 N 561.678 -1.56367 -0.196722 0
M  V30 5966 C 562.588 -1.97617 -1.2643 0
M  V30 5967 C 563.604 -0.883598 -1.49895 0
M  V30 5968 O 564.78 -1.18921 -1.62541 0
M  V30 5969 C 561.845 -2.30595 -2.58895 0
M  V30 5970 C 560.906 -3.53551 -2.43516 0
M  V30 5971 C 560.139 -3.84946 -3.69665 0
M  V30 5972 O 560.362 -3.17655 -4.73763 0
M  V30 5973 O 559.296 -4.78379 -3.65291 0
M  V30 5974 H 563.122 -2.88648 -0.944233 0
M  V30 5975 H 560.707 -1.43901 -0.401592 0
M  V30 5976 H 562.589 -2.52889 -3.37083 0
M  V30 5977 H 561.264 -1.42732 -2.90533 0
M  V30 5978 H 560.171 -3.36507 -1.63445 0
M  V30 5979 H 561.504 -4.41875 -2.16812 0
M  V30 5980 N 563.156 0.464375 -1.50603 0
M  V30 5981 C 564.086 1.56944 -1.72889 0
M  V30 5982 C 565.067 1.59979 -0.577997 0
M  V30 5983 O 566.252 1.76138 -0.817855 0
M  V30 5984 C 563.382 2.95225 -1.8292 0
M  V30 5985 C 562.336 3.07056 -2.98162 0
M  V30 5986 C 561.662 4.47051 -2.93343 0
M  V30 5987 C 562.962 2.83648 -4.38567 0
M  V30 5988 H 564.656 1.38547 -2.65415 0
M  V30 5989 H 562.202 0.665082 -1.27721 0
M  V30 5990 H 564.155 3.72467 -1.97095 0
M  V30 5991 H 562.879 3.14793 -0.870209 0
M  V30 5992 H 561.538 2.32248 -2.83648 0
M  V30 5993 H 561.186 4.63547 -1.95276 0
M  V30 5994 H 560.886 4.55902 -3.70712 0
M  V30 5995 H 562.41 5.26304 -3.09575 0
M  V30 5996 H 563.824 3.50636 -4.53572 0
M  V30 5997 H 562.221 3.03937 -5.17438 0
M  V30 5998 H 563.291 1.79451 -4.50472 0
M  V30 5999 N 564.634 1.40294 0.718013 0
M  V30 6000 C 565.564 1.43118 1.84498 0
M  V30 6001 C 566.545 0.292403 1.67568 0
M  V30 6002 O 567.73 0.500675 1.87635 0
M  V30 6003 C 564.86 1.29065 3.22427 0
M  V30 6004 C 563.814 2.40521 3.54025 0
M  V30 6005 C 563.14 2.11546 4.91073 0
M  V30 6006 C 564.44 3.82859 3.55269 0
M  V30 6007 H 566.134 2.37432 1.82391 0
M  V30 6008 H 563.68 1.14283 0.87609 0
M  V30 6009 H 565.633 1.29658 4.00957 0
M  V30 6010 H 564.357 0.312271 3.25104 0
M  V30 6011 H 563.016 2.39173 2.77834 0
M  V30 6012 H 562.664 1.12104 4.90348 0
M  V30 6013 H 562.364 2.86216 5.1318 0
M  V30 6014 H 563.888 2.13817 5.71939 0
M  V30 6015 H 565.302 3.86044 4.23843 0
M  V30 6016 H 563.699 4.57029 3.88902 0
M  V30 6017 H 564.769 4.12617 2.54706 0
M  V30 6018 N 566.112 -0.949982 1.2575 0
M  V30 6019 C 567.075 -2.02894 1.06615 0
M  V30 6020 C 568.075 -1.60791 0.0173905 0
M  V30 6021 O 569.265 -1.72249 0.260003 0
M  V30 6022 C 566.397 -3.35219 0.619751 0
M  V30 6023 H 567.59 -2.21302 2.02399 0
M  V30 6024 H 565.143 -1.12772 1.08223 0
M  V30 6025 H 565.878 -3.22508 -0.340486 0
M  V30 6026 H 565.663 -3.67129 1.37692 0
M  V30 6027 H 567.153 -4.14505 0.507443 0
M  V30 6028 N 567.59 -1.07411 -1.15328 0
M  V30 6029 C 568.52 -0.716472 -2.22236 0
M  V30 6030 C 569.501 0.296373 -1.67498 0
M  V30 6031 O 570.686 0.168989 -1.93463 0
M  V30 6032 C 567.816 -0.114142 -3.47112 0
M  V30 6033 C 566.77 -1.05421 -4.14814 0
M  V30 6034 C 566.096 -0.314604 -5.33774 0
M  V30 6035 C 567.396 -2.38808 -4.64508 0
M  V30 6036 H 569.09 -1.61029 -2.52408 0
M  V30 6037 H 566.636 -0.775702 -1.21321 0
M  V30 6038 H 568.589 0.148001 -4.2114 0
M  V30 6039 H 567.313 0.814755 -3.16274 0
M  V30 6040 H 565.972 -1.30128 -3.42728 0
M  V30 6041 H 565.62 0.617772 -4.99192 0
M  V30 6042 H 565.32 -0.941209 -5.80013 0
M  V30 6043 H 566.844 -0.0602747 -6.1057 0
M  V30 6044 H 568.258 -2.18424 -5.3006 0
M  V30 6045 H 566.655 -2.97069 -5.21412 0
M  V30 6046 H 567.725 -3.01067 -3.80114 0
M  V30 6047 N 569.068 1.32177 -0.85831 0
M  V30 6048 C 570.314 1.97417 -0.46417 0
M  V30 6049 C 570.647 1.67746 0.978514 0
M  V30 6050 O 569.922 0.967654 1.68721 0
M  V30 6051 C 570.205 3.53069 -0.708094 0
M  V30 6052 C 570.058 3.92357 -2.19946 0
M  V30 6053 C 571.377 4.39783 -0.166881 0
M  V30 6054 H 568.496 0.717097 -0.17012 0
M  V30 6055 H 571.138 1.56499 -1.07741 0
M  V30 6056 H 569.288 3.88054 -0.186128 0
M  V30 6057 H 570.96 3.67533 -2.78779 0
M  V30 6058 H 569.203 3.41384 -2.67656 0
M  V30 6059 H 569.874 5.00841 -2.32082 0
M  V30 6060 H 572.35 4.11556 -0.613285 0
M  V30 6061 H 571.226 5.47671 -0.367093 0
M  V30 6062 H 571.487 4.32196 0.930559 0
M  V30 6063 N 570.547 0.616602 1.45037 0
M  V30 6064 C 571.772 0.120192 2.07051 0
M  V30 6065 C 572.197 -1.19008 1.45666 0
M  V30 6066 O 571.555 -1.7267 0.552692 0
M  V30 6067 C 571.603 0.00354901 3.606 0
M  V30 6068 O 570.707 -1.04431 3.98958 0
M  V30 6069 H 570.048 0.0781599 0.659384 0
M  V30 6070 H 572.578 0.849167 1.86146 0
M  V30 6071 H 572.588 -0.191754 4.07549 0
M  V30 6072 H 571.263 0.960239 4.04663 0
M  V30 6073 H 569.84 -0.824749 3.63665 0
M  V30 6074 N 572.025 -1.5352 0.356285 0
M  V30 6075 C 573.253 -2.05534 -0.237328 0
M  V30 6076 C 573.668 -1.23043 -1.43199 0
M  V30 6077 O 573.025 -0.268821 -1.80509 0
M  V30 6078 C 573.076 -3.55791 -0.639933 0
M  V30 6079 O 572.797 -4.35154 0.507233 0
M  V30 6080 C 574.298 -4.24027 -1.29292 0
M  V30 6081 H 571.518 -0.669585 -0.0435572 0
M  V30 6082 H 574.062 -1.97988 0.511963 0
M  V30 6083 H 572.217 -3.63518 -1.33915 0
M  V30 6084 H 572.631 -5.24178 0.18375 0
M  V30 6085 H 574.105 -5.30509 -1.52527 0
M  V30 6086 H 574.582 -3.77166 -2.25039 0
M  V30 6087 H 575.188 -4.20527 -0.63539 0
M  V30 6088 N 573.503 -0.0852151 -1.57369 0
M  V30 6089 C 574.914 0.445428 -1.81309 0
M  V30 6090 C 575.265 1.68795 -1.00013 0
M  V30 6091 O 574.39 2.15211 -0.226573 0
M  V30 6092 C 574.985 0.814887 -3.28854 0
M  V30 6093 C 573.544 1.29032 -3.53592 0
M  V30 6094 C 572.691 0.282089 -2.75861 0
M  V30 6095 H 575.642 -0.310771 -1.55627 0
M  V30 6096 H 575.663 1.67524 -3.41637 0
M  V30 6097 H 575.175 -0.0896309 -3.87996 0
M  V30 6098 H 573.276 2.21289 -2.9977 0
M  V30 6099 H 573.389 1.25898 -4.62262 0
M  V30 6100 H 571.753 0.762182 -2.43029 0
M  V30 6101 H 572.536 -0.614936 -3.37748 0
M  V30 6102 N 574.981 1.5647 0.188427 0
M  V30 6103 C 576.206 1.85486 0.927891 0
M  V30 6104 C 576.631 0.669575 1.75779 0
M  V30 6105 O 575.989 -0.381573 1.77239 0
M  V30 6106 C 576.037 3.12784 1.7944 0
M  V30 6107 O 575.141 2.93805 2.894 0
M  V30 6108 H 574.482 0.610585 0.260925 0
M  V30 6109 H 577.012 2.037 0.191729 0
M  V30 6110 H 577.022 3.43749 2.19774 0
M  V30 6111 H 575.697 3.98671 1.18468 0
M  V30 6112 H 574.274 2.74153 2.52774 0
M  V30 6113 N 576.459 -0.456382 1.50847 0
M  V30 6114 C 577.689 -1.22848 1.66108 0
M  V30 6115 C 578.097 -1.85936 0.349897 0
M  V30 6116 O 577.44 -1.70664 -0.679665 0
M  V30 6117 C 577.502 -2.36722 2.70561 0
M  V30 6118 C 577.166 -1.94154 4.13707 0
M  V30 6119 C 578.163 -1.4557 4.99105 0
M  V30 6120 C 575.848 -2.02426 4.59705 0
M  V30 6121 C 577.842 -1.0582 6.28555 0
M  V30 6122 C 575.529 -1.62287 5.89157 0
M  V30 6123 C 576.527 -1.14064 6.73408 0
M  V30 6124 O 576.215 -0.744873 8.00442 0
M  V30 6125 H 575.947 -0.377105 0.561042 0
M  V30 6126 H 578.501 -0.549431 1.97915 0
M  V30 6127 H 576.731 -3.07844 2.34027 0
M  V30 6128 H 578.42 -2.98646 2.74892 0
M  V30 6129 H 579.186 -1.38589 4.64777 0
M  V30 6130 H 575.065 -2.38908 3.94264 0
M  V30 6131 H 578.609 -0.6811 6.94267 0
M  V30 6132 H 574.506 -1.68932 6.23003 0
M  V30 6133 H 575.274 -0.87242 8.13837 0
M  V30 6134 N 577.937 -1.40673 -0.710563 0
M  V30 6135 C 579.214 -1.29718 -1.46398 0
M  V30 6136 C 579.594 0.082177 -2.1094 0
M  V30 6137 O 578.942 1.09536 -2.00534 0
M  V30 6138 C 579.152 -2.43967 -2.49562 0
M  V30 6139 C 580.5 -2.84436 -3.15248 0
M  V30 6140 O 581.524 -2.43597 -2.59883 0
M  V30 6141 O 580.383 -3.55008 -4.1549 0
M  V30 6142 H 577.477 -0.509697 -0.651258 0
M  V30 6143 H 580.023 -1.52603 -0.742312 0
M  V30 6144 H 578.795 -3.36076 -2.0042 0
M  V30 6145 H 578.418 -2.22879 -3.29258 0
M  V30 6146 N 579.415 0.9433 -1.26252 0
M  V30 6147 C 580.378 2.02326 -1.07689 0
M  V30 6148 C 581.378 1.60779 -0.0259174 0
M  V30 6149 O 582.568 1.72108 -0.269134 0
M  V30 6150 C 579.7 3.34886 -0.63752 0
M  V30 6151 H 580.893 2.20225 -2.0357 0
M  V30 6152 H 578.446 1.12197 -1.08819 0
M  V30 6153 H 579.181 3.22684 0.323377 0
M  V30 6154 H 578.966 3.66393 -1.39637 0
M  V30 6155 H 580.456 4.14231 -0.529418 0
M  V30 6156 N 580.893 1.08022 1.14757 0
M  V30 6157 C 581.841 0.701088 2.21783 0
M  V30 6158 C 582.835 -0.291311 1.66876 0
M  V30 6159 O 584.041 -0.154296 1.79337 0
M  V30 6160 H 580.416 0.208668 0.722469 0
M  V30 6161 H 582.387 1.61321 2.51034 0
M  V30 6162 C 581.136 0.122278 3.47485 0
M  V30 6163 H 580.459 0.877065 3.90061 0
M  V30 6164 H 581.899 -0.105248 4.23869 0
M  V30 6165 C 580.358 -1.13883 3.17068 0
M  V30 6166 O 580.888 -2.22429 3.34497 0
M  V30 6167 N 579.094 -1.04767 2.71058 0
M  V30 6168 H 578.641 -0.164302 2.57075 0
M  V30 6169 H 578.599 -1.89224 2.51081 0
M  V30 6170 N 582.371 -1.3172 0.865308 0
M  V30 6171 C 583.303 -2.27545 0.274906 0
M  V30 6172 C 584.316 -1.52887 -0.559413 0
M  V30 6173 O 585.505 -1.74361 -0.382166 0
M  V30 6174 C 582.605 -3.33006 -0.629286 0
M  V30 6175 C 581.778 -4.37063 0.171553 0
M  V30 6176 C 580.837 -5.22044 -0.660052 0
M  V30 6177 O 579.863 -5.69129 -0.0897527 0
M  V30 6178 N 581.065 -5.45946 -1.97289 0
M  V30 6179 H 583.83 -2.78848 1.09836 0
M  V30 6180 H 581.391 -1.44693 0.726331 0
M  V30 6181 H 583.383 -3.86772 -1.19121 0
M  V30 6182 H 581.953 -2.81782 -1.35342 0
M  V30 6183 H 581.173 -3.83436 0.914919 0
M  V30 6184 H 582.461 -5.03662 0.721235 0
M  V30 6185 H 581.859 -5.0944 -2.45942 0
M  V30 6186 H 580.416 -6.02665 -2.4827 0
M  V30 6187 N 583.85 -0.624285 -1.44708 0
M  V30 6188 C 584.783 0.133905 -2.27807 0
M  V30 6189 C 585.76 0.857794 -1.38133 0
M  V30 6190 O 586.945 0.863277 -1.6757 0
M  V30 6191 C 584.072 1.19541 -3.16903 0
M  V30 6192 C 583.118 0.572813 -4.22636 0
M  V30 6193 S 583.951 -0.631953 -5.31758 0
M  V30 6194 C 585.106 0.429733 -6.24423 0
M  V30 6195 H 585.34 -0.571072 -2.91764 0
M  V30 6196 H 582.873 -0.412261 -1.48794 0
M  V30 6197 H 584.831 1.80293 -3.68788 0
M  V30 6198 H 583.492 1.87255 -2.5218 0
M  V30 6199 H 582.685 1.37205 -4.84965 0
M  V30 6200 H 582.287 0.0400641 -3.73979 0
M  V30 6201 H 584.579 1.30421 -6.64828 0
M  V30 6202 H 585.522 -0.157804 -7.07924 0
M  V30 6203 H 585.93 0.75256 -5.59461 0
M  V30 6204 N 585.328 1.53329 -0.364422 0
M  V30 6205 C 586.574 2.01537 0.225969 0
M  V30 6206 C 586.907 1.25128 1.48515 0
M  V30 6207 O 586.182 0.344653 1.91422 0
M  V30 6208 C 586.465 3.56339 0.519092 0
M  V30 6209 C 586.318 4.43441 -0.753639 0
M  V30 6210 C 587.637 4.19833 1.32015 0
M  V30 6211 H 584.756 0.732573 0.0806548 0
M  V30 6212 H 587.398 1.83597 -0.489084 0
M  V30 6213 H 585.548 3.71756 1.12825 0
M  V30 6214 H 587.22 4.39823 -1.39116 0
M  V30 6215 H 585.463 4.11457 -1.37424 0
M  V30 6216 H 586.134 5.49699 -0.503517 0
M  V30 6217 H 588.61 4.08242 0.804859 0
M  V30 6218 H 587.486 5.28177 1.49399 0
M  V30 6219 H 587.747 3.75821 2.32832 0
M  V30 6220 N 586.806 0.0935595 1.57322 0
M  V30 6221 C 587.736 -0.863062 2.16964 0
M  V30 6222 C 588.717 -1.29528 1.10256 0
M  V30 6223 O 589.902 -1.36245 1.38387 0
M  V30 6224 C 587.032 -2.12276 2.74875 0
M  V30 6225 C 585.986 -1.82921 3.86942 0
M  V30 6226 C 585.312 -3.15707 4.31548 0
M  V30 6227 C 586.612 -1.11737 5.10208 0
M  V30 6228 H 588.306 -0.366145 2.97153 0
M  V30 6229 H 585.852 -0.174673 1.42937 0
M  V30 6230 H 587.805 -2.79634 3.1525 0
M  V30 6231 H 586.529 -2.64248 1.91938 0
M  V30 6232 H 585.188 -1.17961 3.47103 0
M  V30 6233 H 584.836 -3.65563 3.45504 0
M  V30 6234 H 584.536 -2.96849 5.07104 0
M  V30 6235 H 586.06 -3.84226 4.74555 0
M  V30 6236 H 587.474 -1.69203 5.47762 0
M  V30 6237 H 585.871 -1.03064 5.91183 0
M  V30 6238 H 586.941 -0.0998818 4.84797 0
M  V30 6239 N 588.284 -1.56567 -0.180126 0
M  V30 6240 C 589.532 -1.81133 -0.896392 0
M  V30 6241 C 589.853 -0.669114 -1.83161 0
M  V30 6242 O 589.123 0.311616 -1.93406 0
M  V30 6243 H 587.703 -0.668172 -0.333999 0
M  V30 6244 H 590.365 -1.94048 -0.182051 0
M  V30 6245 H 589.461 -2.74854 -1.47857 0
M  V30 6246 N 589.762 0.448376 -1.51087 0
M  V30 6247 C 591.011 1.19561 -1.62444 0
M  V30 6248 C 591.324 1.92602 -0.341151 0
M  V30 6249 O 592.53 2.69439 -0.333936 0
M  V30 6250 C 590.986 2.17373 -2.8684 0
M  V30 6251 C 590.594 1.5003 -4.22131 0
M  V30 6252 C 592.338 2.92597 -3.0755 0
M  V30 6253 C 590.245 2.46262 -5.37689 0
M  V30 6254 H 589.175 0.449975 -0.605011 0
M  V30 6255 H 591.826 0.463735 -1.77544 0
M  V30 6256 H 590.208 2.93948 -2.65349 0
M  V30 6257 H 591.382 0.790886 -4.53962 0
M  V30 6258 H 589.697 0.870011 -4.0721 0
M  V30 6259 H 592.294 3.64663 -3.91056 0
M  V30 6260 H 592.637 3.53306 -2.20183 0
M  V30 6261 H 593.17 2.23131 -3.29329 0
M  V30 6262 H 589.909 1.90258 -6.27281 0
M  V30 6263 H 589.429 3.15289 -5.10248 0
M  V30 6264 H 591.108 3.07623 -5.6919 0
M  V30 6265 N 591.24 1.41047 0.703093 0
M  V30 6266 C 592.468 1.4334 1.49202 0
M  V30 6267 C 592.883 0.0365596 1.88765 0
M  V30 6268 O 592.24 -0.942419 1.56284 0
M  V30 6269 C 592.291 2.33538 2.75939 0
M  V30 6270 O 592.012 3.67786 2.38045 0
M  V30 6271 C 593.513 2.44555 3.6974 0
M  V30 6272 H 590.733 0.488472 0.460039 0
M  V30 6273 H 593.277 1.85245 0.86629 0
M  V30 6274 H 591.432 1.94962 3.34766 0
M  V30 6275 H 591.846 4.15816 3.19683 0
M  V30 6276 H 593.32 3.11849 4.55471 0
M  V30 6277 H 593.797 1.47447 4.1371 0
M  V30 6278 H 594.403 2.83735 3.16819 0
M  V30 6279 N 592.718 -0.936591 1.26751 0
M  V30 6280 C 593.943 -1.72288 1.15462 0
M  V30 6281 C 594.368 -1.85915 -0.285887 0
M  V30 6282 O 593.726 -1.35272 -1.20711 0
M  V30 6283 C 593.774 -3.10503 1.83359 0
M  V30 6284 O 592.878 -3.96745 1.1255 0
M  V30 6285 H 592.219 -0.52843 0.402067 0
M  V30 6286 H 594.749 -1.17271 1.67656 0
M  V30 6287 H 594.759 -3.60867 1.90365 0
M  V30 6288 H 593.434 -2.99901 2.88153 0
M  V30 6289 H 592.011 -3.55191 1.13551 0
M  V30 6290 N 594.196 -1.08629 -1.14182 0
M  V30 6291 C 595.106 -0.730126 -2.22949 0
M  V30 6292 C 596.122 0.26436 -1.7198 0
M  V30 6293 O 597.298 0.107742 -2.01112 0
M  V30 6294 C 594.363 -0.147227 -3.46387 0
M  V30 6295 C 593.424 -1.19662 -4.12286 0
M  V30 6296 C 592.657 -0.641437 -5.29831 0
M  V30 6297 O 592.88 0.538351 -5.67854 0
M  V30 6298 O 591.814 -1.39257 -5.85569 0
M  V30 6299 H 595.64 -1.63753 -2.55771 0
M  V30 6300 H 593.225 -0.860118 -1.22157 0
M  V30 6301 H 595.107 0.174923 -4.21037 0
M  V30 6302 H 593.782 0.733304 -3.15285 0
M  V30 6303 H 592.689 -1.57133 -3.395 0
M  V30 6304 H 594.022 -2.0495 -4.475 0
M  V30 6305 N 595.674 1.31259 -0.872281 0
M  V30 6306 C 596.951 1.91362 -0.404943 0
M  V30 6307 C 597.331 1.79362 1.11321 0
M  V30 6308 O 596.679 1.20277 1.94283 0
M  V30 6309 C 596.889 3.3749 -0.888893 0
M  V30 6310 C 598.237 4.14593 -0.916384 0
M  V30 6311 O 599.261 3.46282 -0.834701 0
M  V30 6312 O 598.12 5.3661 -1.03498 0
M  V30 6313 H 595.214 0.818016 -0.121569 0
M  V30 6314 H 597.76 1.39912 -0.960346 0
M  V30 6315 H 596.532 3.40249 -1.93251 0
M  V30 6316 H 596.155 3.96375 -0.311932 0
M  V30 6317 N 597.152 0.631951 1.44375 0
M  V30 6318 C 598.382 0.143658 2.061 0
M  V30 6319 C 598.79 -1.18733 1.47306 0
M  V30 6320 O 598.133 -1.73943 0.590724 0
M  V30 6321 C 598.195 -0.0446102 3.59472 0
M  V30 6322 C 597.859 1.20835 4.40736 0
M  V30 6323 C 598.856 2.13224 4.74164 0
M  V30 6324 C 596.541 1.44399 4.81097 0
M  V30 6325 C 598.535 3.27487 5.46838 0
M  V30 6326 C 596.222 2.58959 5.53519 0
M  V30 6327 C 597.22 3.50329 5.86309 0
M  V30 6328 O 596.908 4.62891 6.57257 0
M  V30 6329 H 596.64 0.0772939 0.671567 0
M  V30 6330 H 599.194 0.866677 1.8622 0
M  V30 6331 H 597.424 -0.822783 3.77845 0
M  V30 6332 H 599.113 -0.487561 4.02961 0
M  V30 6333 H 599.879 1.96253 4.4352 0
M  V30 6334 H 595.758 0.741696 4.54994 0
M  V30 6335 H 599.302 3.98826 5.72349 0
M  V30 6336 H 595.199 2.75873 5.83579 0
M  V30 6337 H 595.967 4.61883 6.75726 0
M  V30 6338 N 598.631 -1.53133 0.372548 0
M  V30 6339 C 599.594 -2.24569 -0.458389 0
M  V30 6340 C 600.594 -1.25603 -1.00402 0
M  V30 6341 O 601.784 -1.49827 -0.888672 0
M  V30 6342 C 598.916 -2.98783 -1.6414 0
M  V30 6343 H 600.109 -2.99436 0.166799 0
M  V30 6344 H 597.662 -1.55805 0.124357 0
M  V30 6345 H 598.397 -2.28176 -2.30448 0
M  V30 6346 H 598.182 -3.71404 -1.25704 0
M  V30 6347 H 599.672 -3.53068 -2.23008 0
M  V30 6348 N 600.109 -0.101901 -1.5727 0
M  V30 6349 C 601.056 0.854577 -2.14396 0
M  V30 6350 C 602.026 1.27521 -1.06432 0
M  V30 6351 O 603.211 1.35575 -1.34253 0
M  V30 6352 C 600.351 2.10576 -2.73408 0
M  V30 6353 C 599.464 1.73504 -3.95626 0
M  V30 6354 C 598.599 2.9346 -4.42781 0
M  V30 6355 C 597.638 2.52547 -5.57572 0
M  V30 6356 N 596.775 3.65359 -5.99547 0
M  V30 6357 H 601.615 0.360578 -2.9581 0
M  V30 6358 H 599.152 0.166303 -1.46157 0
M  V30 6359 H 601.11 2.83859 -3.05745 0
M  V30 6360 H 599.74 2.57463 -1.94711 0
M  V30 6361 H 598.792 0.901622 -3.6956 0
M  V30 6362 H 600.104 1.39426 -4.78917 0
M  V30 6363 H 599.258 3.74988 -4.76937 0
M  V30 6364 H 597.997 3.30753 -3.58404 0
M  V30 6365 H 597.002 1.69446 -5.23037 0
M  V30 6366 H 598.227 2.1639 -6.43702 0
M  V30 6367 H 596.173 4.02358 -5.18116 0
M  V30 6368 H 596.09 3.35148 -6.77652 0
M  V30 6369 H 597.358 4.47378 -6.38336 0
M  V30 6370 N 601.587 1.56661 0.17182 0
M  V30 6371 C 602.817 1.85831 0.902804 0
M  V30 6372 C 603.225 0.685157 1.76358 0
M  V30 6373 O 602.568 -0.354947 1.80238 0
M  V30 6374 C 602.63 3.09406 1.83053 0
M  V30 6375 C 602.294 4.4231 1.1494 0
M  V30 6376 C 603.291 5.17342 0.515104 0
M  V30 6377 C 600.976 4.89045 1.14631 0
M  V30 6378 C 602.97 6.37299 -0.113194 0
M  V30 6379 C 600.657 6.08933 0.514184 0
M  V30 6380 C 601.655 6.82904 -0.114463 0
M  V30 6381 O 601.343 8.00518 -0.736622 0
M  V30 6382 H 601.075 0.620715 0.267748 0
M  V30 6383 H 603.629 2.04637 0.176918 0
M  V30 6384 H 601.859 2.86544 2.59672 0
M  V30 6385 H 603.548 3.25027 2.4313 0
M  V30 6386 H 604.314 4.82317 0.509474 0
M  V30 6387 H 600.193 4.31409 1.62502 0
M  V30 6388 H 603.737 6.94976 -0.604477 0
M  V30 6389 H 599.634 6.43423 0.517395 0
M  V30 6390 H 600.402 8.16027 -0.635822 0
M  V30 6391 N 603.065 -0.440357 1.51323 0
M  V30 6392 C 604.013 -1.55492 1.72988 0
M  V30 6393 C 605.007 -1.58564 0.596138 0
M  V30 6394 O 606.213 -1.62345 0.777443 0
M  V30 6395 H 602.588 -0.516532 0.546533 0
M  V30 6396 H 604.559 -1.34392 2.66423 0
M  V30 6397 C 603.308 -2.93176 1.86931 0
M  V30 6398 H 602.631 -2.91543 2.73574 0
M  V30 6399 H 604.071 -3.70537 2.06103 0
M  V30 6400 C 602.53 -3.30988 0.628365 0
M  V30 6401 O 603.06 -4.01106 -0.218367 0
M  V30 6402 N 601.266 -2.86719 0.473339 0
M  V30 6403 H 600.813 -2.2983 1.16345 0
M  V30 6404 H 600.771 -3.12381 -0.355727 0
M  V30 6405 N 604.543 -1.41418 -0.695603 0
M  V30 6406 C 605.82 -1.31264 -1.45014 0
M  V30 6407 C 606.2 0.0597994 -2.11015 0
M  V30 6408 O 605.548 1.07403 -2.01685 0
M  V30 6409 C 605.758 -2.466 -2.4696 0
M  V30 6410 C 607.106 -2.87763 -3.12214 0
M  V30 6411 O 608.13 -2.46339 -2.57285 0
M  V30 6412 O 606.989 -3.59395 -4.11701 0
M  V30 6413 H 604.083 -0.516576 -0.645816 0
M  V30 6414 H 606.629 -1.53382 -0.726084 0
M  V30 6415 H 605.401 -3.38183 -1.96845 0
M  V30 6416 H 605.024 -2.26358 -3.26876 0
M  V30 6417 N 606.021 0.929856 -1.27246 0
M  V30 6418 C 607.298 1.65544 -1.04186 0
M  V30 6419 C 607.678 2.06796 0.424097 0
M  V30 6420 O 607.026 1.80053 1.40688 0
M  V30 6421 C 607.236 2.85912 -2.00138 0
M  V30 6422 C 608.584 3.57305 -2.29387 0
M  V30 6423 O 609.608 2.96036 -1.98094 0
M  V30 6424 O 608.467 4.67688 -2.82719 0
M  V30 6425 H 605.561 0.725473 -0.397011 0
M  V30 6426 H 608.107 0.980583 -1.38501 0
M  V30 6427 H 606.879 2.52403 -2.99013 0
M  V30 6428 H 606.502 3.61118 -1.66371 0
M  V30 6429 N 607.499 1.09233 1.13605 0
M  V30 6430 C 608.446 0.729921 2.18954 0
M  V30 6431 C 609.416 -0.287916 1.63586 0
M  V30 6432 O 610.601 -0.170003 1.90041 0
M  V30 6433 C 607.741 0.154489 3.44754 0
M  V30 6434 C 606.854 1.22613 4.14234 0
M  V30 6435 C 605.989 0.613657 5.27644 0
M  V30 6436 C 605.028 1.66674 5.8897 0
M  V30 6437 N 604.165 1.07545 6.93814 0
M  V30 6438 H 609.005 1.63257 2.49302 0
M  V30 6439 H 606.542 0.815693 1.22413 0
M  V30 6440 H 608.5 -0.196923 4.16735 0
M  V30 6441 H 607.13 -0.711433 3.14863 0
M  V30 6442 H 606.182 1.69485 3.40557 0
M  V30 6443 H 607.494 2.0238 4.55899 0
M  V30 6444 H 606.648 0.210976 6.06333 0
M  V30 6445 H 605.387 -0.215584 4.87223 0
M  V30 6446 H 604.392 2.07899 5.08978 0
M  V30 6447 H 605.617 2.49861 6.31464 0
M  V30 6448 H 603.563 0.267451 6.55455 0
M  V30 6449 H 603.48 1.81011 7.3401 0
M  V30 6450 H 604.748 0.698906 7.7636 0
M  V30 6451 N 608.977 -1.30795 0.87923 0
M  V30 6452 C 610.393 -1.48981 0.57243 0
M  V30 6453 C 610.593 -1.80719 -0.891236 0
M  V30 6454 O 609.649 -1.89136 -1.67283 0
M  V30 6455 C 610.962 -2.61721 1.48063 0
M  V30 6456 C 612.51 -2.75603 1.48365 0
M  V30 6457 C 612.985 -3.91449 2.37763 0
M  V30 6458 N 614.476 -3.98751 2.35695 0
M  V30 6459 C 615.211 -4.87684 3.01583 0
M  V30 6460 N 614.707 -5.81454 3.76674 0
M  V30 6461 N 616.5 -4.81005 2.90844 0
M  V30 6462 H 608.651 -1.08465 1.82617 0
M  V30 6463 H 610.914 -0.536813 0.781368 0
M  V30 6464 H 610.62 -2.45073 2.52254 0
M  V30 6465 H 610.494 -3.58071 1.18596 0
M  V30 6466 H 612.881 -2.9166 0.44927 0
M  V30 6467 H 612.962 -1.79891 1.81859 0
M  V30 6468 H 612.606 -3.76149 3.41283 0
M  V30 6469 H 612.536 -4.86487 2.01589 0
M  V30 6470 H 615.027 -3.31668 1.81121 0
M  V30 6471 H 615.34 -6.46063 4.24054 0
M  V30 6472 H 613.685 -5.81403 3.80782 0
M  V30 6473 H 616.876 -4.06728 2.31711 0
M  V30 6474 H 617.049 -5.50107 3.42471 0
M  V30 6475 N 610.455 -0.639598 -1.44038 0
M  V30 6476 C 611.385 0.0469443 -2.33453 0
M  V30 6477 C 612.366 0.82609 -1.48694 0
M  V30 6478 O 613.551 0.790285 -1.77393 0
M  V30 6479 C 610.681 1.02338 -3.3188 0
M  V30 6480 C 609.635 0.355284 -4.26523 0
M  V30 6481 C 608.961 1.44221 -5.14883 0
M  V30 6482 C 610.261 -0.743798 -5.16977 0
M  V30 6483 H 611.955 -0.699735 -2.91108 0
M  V30 6484 H 609.501 -0.337946 -1.39978 0
M  V30 6485 H 611.454 1.51247 -3.93322 0
M  V30 6486 H 610.178 1.80105 -2.72451 0
M  V30 6487 H 608.837 -0.113239 -3.66425 0
M  V30 6488 H 608.485 2.21097 -4.51802 0
M  V30 6489 H 608.185 1.00052 -5.79019 0
M  V30 6490 H 609.709 1.93295 -5.79197 0
M  V30 6491 H 611.123 -0.337444 -5.72306 0
M  V30 6492 H 609.52 -1.10914 -5.89761 0
M  V30 6493 H 610.59 -1.60745 -4.57481 0
M  V30 6494 N 611.933 1.52934 -0.380664 0
M  V30 6495 C 613.344 1.86457 0.0952684 0
M  V30 6496 C 613.695 1.3007 1.46889 0
M  V30 6497 O 612.82 0.628636 2.07068 0
M  V30 6498 C 613.415 3.38323 0.179648 0
M  V30 6499 C 611.974 3.71589 0.599858 0
M  V30 6500 C 611.121 2.76228 -0.243572 0
M  V30 6501 H 614.072 1.46966 -0.59888 0
M  V30 6502 H 614.093 3.67113 1.00042 0
M  V30 6503 H 613.605 3.79333 -0.820228 0
M  V30 6504 H 611.706 3.36144 1.60742 0
M  V30 6505 H 611.819 4.77715 0.364003 0
M  V30 6506 H 610.183 2.53045 0.289855 0
M  V30 6507 H 610.966 3.20074 -1.24127 0
M  V30 6508 N 613.412 0.11024 1.57214 0
M  V30 6509 C 614.659 -0.54987 1.94891 0
M  V30 6510 C 614.987 -1.67243 0.992984 0
M  V30 6511 O 614.242 -1.95694 0.0152703 0
M  V30 6512 C 614.541 -1.13102 3.39032 0
M  V30 6513 C 614.207 -0.130713 4.5071 0
M  V30 6514 C 612.869 0.14437 4.80983 0
M  V30 6515 C 615.221 0.551472 5.18274 0
M  V30 6516 C 612.549 1.10807 5.76141 0
M  V30 6517 C 614.901 1.50375 6.14467 0
M  V30 6518 C 613.565 1.78691 6.43138 0
M  V30 6519 H 612.835 -0.201212 0.713158 0
M  V30 6520 H 615.482 0.189288 1.90562 0
M  V30 6521 H 613.787 -1.94675 3.40013 0
M  V30 6522 H 615.484 -1.64973 3.65493 0
M  V30 6523 H 612.074 -0.355301 4.27125 0
M  V30 6524 H 616.258 0.35211 4.95049 0
M  V30 6525 H 611.514 1.3343 5.96663 0
M  V30 6526 H 615.688 2.03808 6.65909 0
M  V30 6527 H 613.315 2.53522 7.1668 0
M  V30 6528 N 614.89 -1.56749 -0.16351 0
M  V30 6529 C 615.82 -2.00042 -1.20438 0
M  V30 6530 C 616.801 -0.877256 -1.45733 0
M  V30 6531 O 617.986 -1.1439 -1.56935 0
M  V30 6532 C 615.116 -2.36697 -2.54149 0
M  V30 6533 C 614.07 -3.52046 -2.43408 0
M  V30 6534 C 613.396 -3.74466 -3.81679 0
M  V30 6535 C 614.696 -4.85247 -1.93216 0
M  V30 6536 H 616.39 -2.87244 -0.844477 0
M  V30 6537 H 613.936 -1.38194 -0.40478 0
M  V30 6538 H 615.889 -2.65582 -3.27176 0
M  V30 6539 H 614.613 -1.46414 -2.91943 0
M  V30 6540 H 613.272 -3.23301 -1.72834 0
M  V30 6541 H 612.92 -2.81461 -4.1688 0
M  V30 6542 H 612.62 -4.52084 -3.75359 0
M  V30 6543 H 614.144 -4.0576 -4.5628 0
M  V30 6544 H 615.558 -5.12957 -2.56023 0
M  V30 6545 H 613.955 -5.66556 -1.97825 0
M  V30 6546 H 615.025 -4.7672 -0.88689 0
M  V30 6547 N 616.368 0.432326 -1.51554 0
M  V30 6548 C 617.331 1.50765 -1.72634 0
M  V30 6549 C 618.331 1.49334 -0.596314 0
M  V30 6550 O 619.521 1.51268 -0.863925 0
M  V30 6551 C 616.653 2.90284 -1.7874 0
M  V30 6552 H 617.846 1.33377 -2.68609 0
M  V30 6553 H 615.399 0.661329 -1.4162 0
M  V30 6554 H 616.134 3.13071 -0.845977 0
M  V30 6555 H 615.919 2.92727 -2.6087 0
M  V30 6556 H 617.409 3.68282 -1.96871 0
M  V30 6557 N 617.846 1.41785 0.688094 0
M  V30 6558 C 619.262 1.24419 0.999608 0
M  V30 6559 C 619.462 0.138868 2.01021 0
M  V30 6560 O 618.518 -0.494283 2.47615 0
M  V30 6561 C 619.831 2.59625 1.51709 0
M  V30 6562 C 621.379 2.66869 1.63554 0
M  V30 6563 C 621.854 4.0241 2.18702 0
M  V30 6564 N 623.345 4.04295 2.26053 0
M  V30 6565 C 624.08 5.05977 2.69768 0
M  V30 6566 N 623.576 6.18047 3.13033 0
M  V30 6567 N 625.369 4.93336 2.69398 0
M  V30 6568 H 617.52 2.12392 0.0187427 0
M  V30 6569 H 619.783 0.945347 0.0708673 0
M  V30 6570 H 619.489 3.41297 0.849059 0
M  V30 6571 H 619.363 2.82628 2.49803 0
M  V30 6572 H 621.75 1.8555 2.29467 0
M  V30 6573 H 621.831 2.47668 0.639857 0
M  V30 6574 H 621.475 4.8418 1.53402 0
M  V30 6575 H 621.405 4.18955 3.19037 0
M  V30 6576 H 623.896 3.23383 1.9553 0
M  V30 6577 H 624.209 6.91498 3.45038 0
M  V30 6578 H 622.554 6.21572 3.10923 0
M  V30 6579 H 625.745 4.04865 2.34952 0
M  V30 6580 H 625.918 5.72717 3.03148 0
M  V30 6581 N 619.324 -0.923095 1.27737 0
M  V30 6582 C 620.554 -1.70277 1.17001 0
M  V30 6583 C 620.962 -1.87188 -0.275199 0
M  V30 6584 O 620.305 -1.39195 -1.19877 0
M  V30 6585 C 620.367 -3.11976 1.78637 0
M  V30 6586 C 620.031 -3.18386 3.27841 0
M  V30 6587 C 621.028 -3.00287 4.2441 0
M  V30 6588 C 618.713 -3.41198 3.68632 0
M  V30 6589 C 620.707 -3.04896 5.59747 0
M  V30 6590 C 618.394 -3.4544 5.04097 0
M  V30 6591 C 619.392 -3.27309 5.99465 0
M  V30 6592 O 619.08 -3.31295 7.32461 0
M  V30 6593 H 618.812 -0.539366 0.407505 0
M  V30 6594 H 621.366 -1.16446 1.69202 0
M  V30 6595 H 619.596 -3.67308 1.20919 0
M  V30 6596 H 621.285 -3.7193 1.6255 0
M  V30 6597 H 622.051 -2.825 3.94232 0
M  V30 6598 H 617.93 -3.54359 2.94873 0
M  V30 6599 H 621.474 -2.90662 6.34162 0
M  V30 6600 H 617.371 -3.62753 5.33929 0
M  V30 6601 H 618.139 -3.47719 7.40968 0
M  V30 6602 N 620.802 -1.09834 -1.13024 0
M  V30 6603 C 621.765 -0.745058 -2.16752 0
M  V30 6604 C 622.765 0.227435 -1.59183 0
M  V30 6605 O 623.955 0.0050786 -1.74199 0
M  V30 6606 C 621.087 -0.102543 -3.40746 0
M  V30 6607 H 622.28 -1.66375 -2.49518 0
M  V30 6608 H 619.833 -0.898061 -1.27924 0
M  V30 6609 H 620.568 0.827177 -3.13573 0
M  V30 6610 H 620.353 -0.80235 -3.83803 0
M  V30 6611 H 621.843 0.129082 -4.174 0
M  V30 6612 N 622.28 1.30327 -0.886154 0
M  V30 6613 C 623.228 2.30052 -0.343317 0
M  V30 6614 C 624.222 1.60212 0.550305 0
M  V30 6615 O 625.428 1.74674 0.434609 0
M  V30 6616 H 621.803 0.746306 -0.0923681 0
M  V30 6617 H 623.774 2.73294 -1.19804 0
M  V30 6618 C 622.523 3.45079 0.426107 0
M  V30 6619 H 621.846 3.99003 -0.25227 0
M  V30 6620 H 623.286 4.16931 0.771009 0
M  V30 6621 C 621.745 2.95195 1.62363 0
M  V30 6622 O 622.275 2.95323 2.723 0
M  V30 6623 N 620.481 2.51192 1.4612 0
M  V30 6624 H 620.028 2.51286 0.566832 0
M  V30 6625 H 619.986 2.18173 2.2638 0
M  V30 6626 N 623.758 0.647228 1.43697 0
M  V30 6627 C 625.174 0.314256 1.56476 0
M  V30 6628 C 625.374 -1.18191 1.63196 0
M  V30 6629 O 624.43 -1.96655 1.58376 0
M  V30 6630 C 625.743 1.02034 2.82859 0
M  V30 6631 C 627.291 1.00002 2.96595 0
M  V30 6632 C 627.766 1.68689 4.25803 0
M  V30 6633 N 629.257 1.65424 4.32654 0
M  V30 6634 C 629.992 2.1545 5.31384 0
M  V30 6635 N 629.488 2.73738 6.36427 0
M  V30 6636 N 631.281 2.05985 5.22998 0
M  V30 6637 H 623.432 1.61821 1.37578 0
M  V30 6638 H 625.695 0.680184 0.660344 0
M  V30 6639 H 625.401 2.07542 2.83935 0
M  V30 6640 H 625.275 0.568146 3.72897 0
M  V30 6641 H 627.662 -0.0466319 2.95063 0
M  V30 6642 H 627.743 1.49086 2.07863 0
M  V30 6643 H 627.387 2.73308 4.28095 0
M  V30 6644 H 627.317 1.17076 5.13421 0
M  V30 6645 H 629.808 1.22884 3.57363 0
M  V30 6646 H 630.121 3.09602 7.08072 0
M  V30 6647 H 628.466 2.77796 6.37067 0
M  V30 6648 H 631.657 1.60157 4.39849 0
M  V30 6649 H 631.83 2.45281 5.99784 0
M  V30 6650 N 625.236 -1.5273 0.388769 0
M  V30 6651 C 626.466 -2.05693 -0.193397 0
M  V30 6652 C 626.874 -1.26038 -1.41107 0
M  V30 6653 O 626.217 -0.30001 -1.81234 0
M  V30 6654 C 626.279 -3.53962 -0.628561 0
M  V30 6655 C 625.943 -4.54519 0.475576 0
M  V30 6656 C 626.94 -5.02526 1.33281 0
M  V30 6657 C 624.625 -4.98174 0.642453 0
M  V30 6658 C 626.619 -5.92812 2.34205 0
M  V30 6659 C 624.306 -5.88262 1.65503 0
M  V30 6660 C 625.304 -6.35473 2.50325 0
M  V30 6661 O 624.992 -7.23781 3.49852 0
M  V30 6662 H 624.724 -0.675197 -0.0329395 0
M  V30 6663 H 627.278 -1.97835 0.552326 0
M  V30 6664 H 625.508 -3.59437 -1.42625 0
M  V30 6665 H 627.197 -3.89669 -1.13633 0
M  V30 6666 H 627.963 -4.6953 1.21519 0
M  V30 6667 H 623.842 -4.60999 -0.00805093 0
M  V30 6668 H 627.386 -6.29585 3.00447 0
M  V30 6669 H 623.283 -6.20672 1.77304 0
M  V30 6670 H 624.051 -7.4184 3.45855 0
M  V30 6671 N 626.714 -0.118576 -1.57153 0
M  V30 6672 C 627.677 0.817464 -2.14127 0
M  V30 6673 C 628.677 1.1949 -1.07604 0
M  V30 6674 O 629.867 1.12048 -1.33382 0
M  V30 6675 C 626.999 2.10541 -2.68115 0
M  V30 6676 H 628.192 0.322339 -2.98163 0
M  V30 6677 H 625.745 0.130655 -1.55753 0
M  V30 6678 H 626.48 2.64485 -1.87665 0
M  V30 6679 H 626.265 1.84425 -3.4602 0
M  V30 6680 H 627.755 2.77453 -3.12105 0
M  V30 6681 N 628.193 1.56834 0.155195 0
M  V30 6682 C 629.604 1.72421 0.716082 0
M  V30 6683 C 629.955 0.731685 1.82046 0
M  V30 6684 O 629.08 -0.103481 2.16152 0
M  V30 6685 C 629.675 3.12629 1.30571 0
M  V30 6686 C 628.234 3.29846 1.81325 0
M  V30 6687 C 627.381 2.68359 0.698494 0
M  V30 6688 H 630.332 1.58544 -0.0703861 0
M  V30 6689 H 630.353 3.12174 2.1755 0
M  V30 6690 H 629.865 3.84844 0.501701 0
M  V30 6691 H 627.966 2.62614 2.64319 0
M  V30 6692 H 628.079 4.37727 1.9476 0
M  V30 6693 H 626.443 2.28604 1.12305 0
M  V30 6694 H 627.226 3.43171 -0.0939366 0
M  V30 6695 N 629.671 -0.424282 1.51781 0
M  V30 6696 C 630.919 -1.17028 1.64769 0
M  V30 6697 C 631.24 -1.91409 0.372523 0
M  V30 6698 O 630.51 -1.86091 -0.612108 0
M  V30 6699 H 629.09 -0.434992 0.607282 0
M  V30 6700 H 631.752 -0.485169 1.88765 0
M  V30 6701 H 630.848 -1.8927 2.4816 0
M  V30 6702 N 631.149 -1.42148 -0.680565 0
M  V30 6703 C 632.374 -1.45901 -1.47403 0
M  V30 6704 C 632.799 -0.0700985 -1.87969 0
M  V30 6705 O 632.157 0.930145 -1.55621 0
M  V30 6706 C 632.205 -2.38661 -2.70321 0
M  V30 6707 O 631.309 -1.85399 -3.68376 0
M  V30 6708 H 630.65 -0.494565 -0.443059 0
M  V30 6709 H 633.18 -1.86774 -0.835251 0
M  V30 6710 H 633.19 -2.55046 -3.18458 0
M  V30 6711 H 631.865 -3.39571 -2.40134 0
M  V30 6712 H 630.442 -1.78541 -3.2738 0
M  V30 6713 N 632.627 0.916307 -1.28225 0
M  V30 6714 C 633.855 1.69901 -1.18073 0
M  V30 6715 C 634.27 1.86988 0.260968 0
M  V30 6716 O 633.627 1.39505 1.17663 0
M  V30 6717 C 633.678 3.09254 -1.87201 0
M  V30 6718 O 633.399 2.92959 -3.2574 0
M  V30 6719 C 634.9 4.0362 -1.83319 0
M  V30 6720 H 632.12 0.531181 -0.409985 0
M  V30 6721 H 634.664 1.14703 -1.69303 0
M  V30 6722 H 632.819 3.61277 -1.39848 0
M  V30 6723 H 633.233 3.81139 -3.60324 0
M  V30 6724 H 634.707 4.98873 -2.36282 0
M  V30 6725 H 635.184 4.3176 -0.805007 0
M  V30 6726 H 635.79 3.57524 -2.3034 0
M  V30 6727 N 634.105 1.10431 1.1244 0
M  V30 6728 C 635.352 0.846717 1.83948 0
M  V30 6729 C 635.68 -0.627709 1.84093 0
M  V30 6730 O 634.935 -1.47876 1.28184 0
M  V30 6731 C 635.234 1.34022 3.3132 0
M  V30 6732 C 634.9 2.82606 3.51347 0
M  V30 6733 C 633.562 3.23182 3.56521 0
M  V30 6734 C 635.914 3.78356 3.58464 0
M  V30 6735 C 633.242 4.58258 3.66356 0
M  V30 6736 C 635.594 5.13234 3.69829 0
M  V30 6737 C 634.258 5.53384 3.73259 0
M  V30 6738 H 633.528 0.309836 0.673114 0
M  V30 6739 H 636.175 1.38091 1.32677 0
M  V30 6740 H 634.48 0.726047 3.85014 0
M  V30 6741 H 636.177 1.11739 3.85118 0
M  V30 6742 H 632.767 2.50212 3.47983 0
M  V30 6743 H 636.951 3.48115 3.53737 0
M  V30 6744 H 632.207 4.88787 3.67284 0
M  V30 6745 H 636.381 5.87272 3.74279 0
M  V30 6746 H 634.008 6.58045 3.80633 0
M  V30 6747 N 635.583 -1.29855 0.893053 0
M  V30 6748 C 636.53 -2.27909 0.364161 0
M  V30 6749 C 637.5 -1.56726 -0.550093 0
M  V30 6750 O 638.685 -1.84747 -0.47677 0
M  V30 6751 C 635.825 -3.42678 -0.408178 0
M  V30 6752 C 634.938 -4.28659 0.536212 0
M  V30 6753 C 634.073 -5.30599 -0.252521 0
M  V30 6754 C 633.112 -6.08234 0.686822 0
M  V30 6755 N 632.249 -7.02068 -0.0670902 0
M  V30 6756 H 637.089 -2.72531 1.20544 0
M  V30 6757 H 634.626 -1.34047 0.605779 0
M  V30 6758 H 636.584 -4.07986 -0.871962 0
M  V30 6759 H 635.214 -2.99103 -1.21397 0
M  V30 6760 H 634.266 -3.63584 1.1185 0
M  V30 6761 H 635.578 -4.8274 1.25552 0
M  V30 6762 H 634.732 -6.01694 -0.777801 0
M  V30 6763 H 633.471 -4.77233 -1.005 0
M  V30 6764 H 632.476 -5.3601 1.22366 0
M  V30 6765 H 633.701 -6.63689 1.43852 0
M  V30 6766 H 631.647 -6.5108 -0.801955 0
M  V30 6767 H 631.564 -7.53675 0.59243 0
M  V30 6768 H 632.832 -7.77392 -0.572851 0
M  V30 6769 N 637.061 -0.65484 -1.43351 0
M  V30 6770 C 638.289 -0.176685 -2.06144 0
M  V30 6771 C 638.704 1.15831 -1.49093 0
M  V30 6772 O 638.061 1.71542 -0.622868 0
M  V30 6773 C 638.112 -0.0813326 -3.61408 0
M  V30 6774 O 637.833 -1.36355 -4.1634 0
M  V30 6775 C 639.334 0.422706 -4.4128 0
M  V30 6776 H 636.554 -0.0906429 -0.66485 0
M  V30 6777 H 639.098 -0.895945 -1.83829 0
M  V30 6778 H 637.253 0.588496 -3.82904 0
M  V30 6779 H 637.667 -1.22381 -5.10023 0
M  V30 6780 H 639.141 0.438375 -5.50257 0
M  V30 6781 H 639.618 1.45432 -4.14423 0
M  V30 6782 H 640.224 -0.214687 -4.24758 0
M  V30 6783 N 638.539 1.52521 -0.396863 0
M  V30 6784 C 639.788 2.00857 0.184184 0
M  V30 6785 C 640.101 1.28733 1.47265 0
M  V30 6786 O 641.307 1.67821 2.13421 0
M  V30 6787 C 639.763 3.57901 0.378787 0
M  V30 6788 C 639.371 4.38931 -0.896873 0
M  V30 6789 C 641.115 4.14504 0.915789 0
M  V30 6790 C 639.022 5.87591 -0.670133 0
M  V30 6791 H 637.952 0.750496 0.0726055 0
M  V30 6792 H 640.603 1.75965 -0.520425 0
M  V30 6793 H 638.985 3.79072 1.14543 0
M  V30 6794 H 640.159 4.29524 -1.66872 0
M  V30 6795 H 638.474 3.93586 -1.35938 0
M  V30 6796 H 641.071 5.23236 1.10126 0
M  V30 6797 H 641.414 3.71076 1.88701 0
M  V30 6798 H 641.947 3.97253 0.208523 0
M  V30 6799 H 638.686 6.35355 -1.61257 0
M  V30 6800 H 638.206 5.99767 0.0626368 0
M  V30 6801 H 639.885 6.46268 -0.307577 0
M  V30 6802 N 640.017 0.126909 1.57088 0
M  V30 6803 C 641.245 -0.53667 1.99819 0
M  V30 6804 C 641.66 -1.5972 1.00673 0
M  V30 6805 O 641.017 -1.825 0.000747365 0
M  V30 6806 C 641.068 -1.15563 3.42531 0
M  V30 6807 O 640.789 -0.137483 4.37884 0
M  V30 6808 C 642.29 -1.90176 4.00435 0
M  V30 6809 H 639.51 -0.141443 0.655923 0
M  V30 6810 H 642.054 0.215578 2.03361 0
M  V30 6811 H 640.209 -1.85861 3.39904 0
M  V30 6812 H 640.623 -0.588229 5.21191 0
M  V30 6813 H 642.097 -2.28801 5.02349 0
M  V30 6814 H 642.574 -2.78002 3.40017 0
M  V30 6815 H 643.18 -1.24623 4.06632 0
M  V30 6816 N 641.495 -1.56914 -0.146875 0
M  V30 6817 C 642.458 -1.97368 -1.16526 0
M  V30 6818 C 643.458 -0.860223 -1.35856 0
M  V30 6819 O 644.648 -1.12684 -1.32846 0
M  V30 6820 C 641.78 -2.28974 -2.52555 0
M  V30 6821 H 642.973 -2.88523 -0.818209 0
M  V30 6822 H 640.526 -1.5135 -0.390221 0
M  V30 6823 H 641.261 -1.40611 -2.92231 0
M  V30 6824 H 641.046 -3.10157 -2.39886 0
M  V30 6825 H 642.536 -2.61109 -3.25902 0
M  V30 6826 N 642.974 0.416227 -1.52004 0
M  V30 6827 C 644.202 1.18573 -1.69553 0
M  V30 6828 C 644.617 1.84472 -0.401919 0
M  V30 6829 O 643.974 1.71593 0.621463 0
M  V30 6830 C 644.025 2.25413 -2.82615 0
M  V30 6831 O 643.746 1.62205 -4.06966 0
M  V30 6832 C 645.247 3.15297 -3.11613 0
M  V30 6833 H 642.467 0.356582 -0.56841 0
M  V30 6834 H 645.011 0.490618 -1.98528 0
M  V30 6835 H 643.166 2.90604 -2.56179 0
M  V30 6836 H 643.58 2.3298 -4.69916 0
M  V30 6837 H 645.054 3.86351 -3.94255 0
M  V30 6838 H 645.531 3.77264 -2.24874 0
M  V30 6839 H 646.137 2.55783 -3.39787 0
M  V30 6840 N 644.452 1.42507 0.673017 0
M  V30 6841 C 645.701 1.42364 1.42883 0
M  V30 6842 C 646.014 0.0441598 1.9555 0
M  V30 6843 O 647.22 -0.0798679 2.71382 0
M  V30 6844 C 645.676 2.5043 2.58482 0
M  V30 6845 C 645.284 3.94392 2.12506 0
M  V30 6846 C 647.028 2.59455 3.35981 0
M  V30 6847 C 644.935 4.93964 3.25198 0
M  V30 6848 H 643.865 0.52951 0.536782 0
M  V30 6849 H 646.516 1.68422 0.728448 0
M  V30 6850 H 644.898 2.1754 3.30896 0
M  V30 6851 H 646.072 4.36645 1.47233 0
M  V30 6852 H 644.387 3.89233 1.4794 0
M  V30 6853 H 646.984 3.31025 4.19912 0
M  V30 6854 H 647.327 1.63869 3.82691 0
M  V30 6855 H 647.86 2.91549 2.70637 0
M  V30 6856 H 644.599 5.91034 2.83477 0
M  V30 6857 H 644.119 4.56341 3.89247 0
M  V30 6858 H 645.798 5.15763 3.90637 0
M  V30 6859 N 645.93 -0.909495 1.28709 0
M  V30 6860 C 647.178 -1.65577 1.15882 0
M  V30 6861 C 647.499 -1.928 -0.292108 0
M  V30 6862 O 646.769 -1.54716 -1.20166 0
M  V30 6863 H 645.349 -0.613714 0.425869 0
M  V30 6864 H 648.011 -1.09108 1.61498 0
M  V30 6865 H 647.107 -2.61634 1.70159 0
M  V30 6866 N 647.408 -1.11026 -1.11852 0
M  V30 6867 C 648.338 -0.786812 -2.19844 0
M  V30 6868 C 649.319 0.242935 -1.68356 0
M  V30 6869 O 650.504 0.107355 -1.93903 0
M  V30 6870 C 647.634 -0.224516 -3.46574 0
M  V30 6871 C 646.588 -1.18564 -4.1125 0
M  V30 6872 C 645.914 -0.484261 -5.32503 0
M  V30 6873 C 647.214 -2.53465 -4.56676 0
M  V30 6874 H 648.908 -1.68978 -2.47158 0
M  V30 6875 H 646.454 -0.813906 -1.18792 0
M  V30 6876 H 648.407 0.0139435 -4.21398 0
M  V30 6877 H 647.131 0.713722 -3.18706 0
M  V30 6878 H 645.79 -1.40966 -3.38414 0
M  V30 6879 H 645.438 0.458646 -5.00905 0
M  V30 6880 H 645.138 -1.12526 -5.76725 0
M  V30 6881 H 646.662 -0.254492 -6.10069 0
M  V30 6882 H 648.076 -2.35177 -5.22843 0
M  V30 6883 H 646.473 -3.13507 -5.11697 0
M  V30 6884 H 647.543 -3.13008 -3.70343 0
M  V30 6885 N 648.886 1.2938 -0.899927 0
M  V30 6886 C 650.163 1.9046 -0.445443 0
M  V30 6887 C 650.543 1.81683 1.07492 0
M  V30 6888 O 649.891 1.24371 1.91688 0
M  V30 6889 C 650.101 3.35529 -0.960279 0
M  V30 6890 C 651.449 4.12556 -1.00412 0
M  V30 6891 O 652.473 3.44434 -0.907965 0
M  V30 6892 O 651.332 5.34294 -1.14857 0
M  V30 6893 H 648.426 0.815253 -0.138893 0
M  V30 6894 H 650.972 1.37844 -0.989808 0
M  V30 6895 H 649.744 3.36074 -2.00425 0
M  V30 6896 H 649.367 3.95624 -0.395939 0
M  V30 6897 N 650.364 0.662433 1.43002 0
M  V30 6898 C 651.592 0.187615 2.06048 0
M  V30 6899 C 652.007 -1.15039 1.49705 0
M  V30 6900 O 651.364 -1.71209 0.631956 0
M  V30 6901 C 651.415 0.100498 3.6136 0
M  V30 6902 O 651.136 1.38562 4.15611 0
M  V30 6903 C 652.637 -0.399298 4.41498 0
M  V30 6904 H 649.857 0.0941675 0.664359 0
M  V30 6905 H 652.401 0.905681 1.83351 0
M  V30 6906 H 650.556 -0.568181 3.83211 0
M  V30 6907 H 650.97 1.25084 5.09366 0
M  V30 6908 H 652.444 -0.409187 5.50481 0
M  V30 6909 H 652.921 -1.43232 4.15188 0
M  V30 6910 H 653.527 0.23721 4.24638 0
M  V30 6911 N 651.842 -1.52309 0.404946 0
M  V30 6912 C 653.09 -2.01368 -0.17186 0
M  V30 6913 C 653.411 -1.29261 -1.46002 0
M  V30 6914 O 652.681 -0.41729 -1.91404 0
M  V30 6915 H 651.261 -0.744034 -0.0664993 0
M  V30 6916 H 653.923 -1.87263 0.540228 0
M  V30 6917 H 653.019 -3.09888 -0.370957 0
M  V30 6918 N 653.32 -0.135238 -1.57019 0
M  V30 6919 C 654.566 0.519563 -1.96032 0
M  V30 6920 C 654.899 1.65284 -1.01955 0
M  V30 6921 O 654.174 1.94408 -0.059727 0
M  V30 6922 C 654.457 1.0369 -3.44848 0
M  V30 6923 C 654.31 -0.0940754 -4.49702 0
M  V30 6924 C 655.629 1.92254 -3.95887 0
M  V30 6925 H 652.748 0.18739 -0.712779 0
M  V30 6926 H 655.39 -0.214086 -1.8879 0
M  V30 6927 H 653.54 1.66209 -3.5115 0
M  V30 6928 H 655.212 -0.73 -4.55487 0
M  V30 6929 H 653.455 -0.754924 -4.27181 0
M  V30 6930 H 654.126 0.309419 -5.51132 0
M  V30 6931 H 656.602 1.39581 -3.9199 0
M  V30 6932 H 655.478 2.25364 -5.00502 0
M  V30 6933 H 655.739 2.85513 -3.37543 0
M  V30 6934 N 654.798 1.5699 0.138552 0
M  V30 6935 C 656.026 1.87976 0.864437 0
M  V30 6936 C 656.441 0.724372 1.74351 0
M  V30 6937 O 655.798 -0.305575 1.79924 0
M  V30 6938 C 655.849 3.18276 1.71414 0
M  V30 6939 O 655.57 4.29365 0.870487 0
M  V30 6940 C 657.071 3.62834 2.54688 0
M  V30 6941 H 654.291 0.622878 0.249528 0
M  V30 6942 H 656.835 2.04094 0.128805 0
M  V30 6943 H 654.99 3.03886 2.40274 0
M  V30 6944 H 655.404 5.03924 1.45466 0
M  V30 6945 H 656.878 4.5682 3.0987 0
M  V30 6946 H 657.355 2.88533 3.31127 0
M  V30 6947 H 657.961 3.79946 1.91105 0
M  V30 6948 N 656.276 -0.40816 1.52223 0
M  V30 6949 C 657.223 -1.49737 1.75635 0
M  V30 6950 C 658.193 -1.5493 0.598824 0
M  V30 6951 O 659.378 -1.71487 0.83648 0
M  V30 6952 C 656.518 -2.87174 1.91376 0
M  V30 6953 C 655.631 -2.91283 3.19027 0
M  V30 6954 C 654.766 -4.20026 3.25195 0
M  V30 6955 C 653.805 -4.18113 4.47044 0
M  V30 6956 N 652.942 -5.38429 4.50598 0
M  V30 6957 H 657.782 -1.29075 2.68596 0
M  V30 6958 H 655.319 -0.626518 1.33091 0
M  V30 6959 H 657.277 -3.66959 1.98486 0
M  V30 6960 H 655.907 -3.06329 1.01795 0
M  V30 6961 H 654.959 -2.03984 3.21084 0
M  V30 6962 H 656.271 -2.85734 4.08849 0
M  V30 6963 H 655.425 -5.08204 3.31382 0
M  V30 6964 H 654.164 -4.28271 2.33313 0
M  V30 6965 H 653.169 -3.28325 4.41002 0
M  V30 6966 H 654.394 -4.11507 5.40221 0
M  V30 6967 H 652.34 -5.4734 3.616 0
M  V30 6968 H 652.257 -5.34879 5.34266 0
M  V30 6969 H 653.525 -6.28557 4.61016 0
M  V30 6970 N 657.755 -1.42862 -0.66545 0
M  V30 6971 C 659.166 -1.3901 -1.24632 0
M  V30 6972 C 659.517 -0.0880285 -1.96002 0
M  V30 6973 O 658.642 0.812947 -2.0055 0
M  V30 6974 C 659.237 -2.51806 -2.2667 0
M  V30 6975 C 657.796 -2.51257 -2.80262 0
M  V30 6976 C 656.943 -2.30124 -1.5472 0
M  V30 6977 H 659.894 -1.5194 -0.458237 0
M  V30 6978 H 659.915 -2.22593 -3.08598 0
M  V30 6979 H 659.427 -3.46558 -1.74697 0
M  V30 6980 H 657.528 -1.60349 -3.36332 0
M  V30 6981 H 657.641 -3.48614 -3.28641 0
M  V30 6982 H 656.005 -1.7856 -1.81627 0
M  V30 6983 H 656.788 -3.26945 -1.04699 0
M  V30 6984 N 659.233 0.902656 -1.29189 0
M  V30 6985 C 660.51 1.63296 -1.07674 0
M  V30 6986 C 660.89 2.07649 0.380137 0
M  V30 6987 O 660.238 1.82997 1.36837 0
M  V30 6988 C 660.448 2.81603 -2.06158 0
M  V30 6989 C 661.796 3.52359 -2.36914 0
M  V30 6990 O 662.82 2.91767 -2.04329 0
M  V30 6991 O 661.679 4.61586 -2.92576 0
M  V30 6992 H 658.773 0.716889 -0.41231 0
M  V30 6993 H 661.319 0.950984 -1.4055 0
M  V30 6994 H 660.091 2.46004 -3.04299 0
M  V30 6995 H 659.714 3.57508 -1.73993 0
M  V30 6996 N 660.711 1.11618 1.11262 0
M  V30 6997 C 661.658 0.7762 2.17356 0
M  V30 6998 C 662.628 -0.253152 1.6416 0
M  V30 6999 O 663.813 -0.129655 1.90359 0
M  V30 7000 C 660.953 0.227581 3.44349 0
M  V30 7001 C 660.066 1.31372 4.1154 0
M  V30 7002 C 659.201 0.72544 5.26223 0
M  V30 7003 C 658.24 1.7913 5.85302 0
M  V30 7004 N 657.377 1.22237 6.91377 0
M  V30 7005 H 662.217 1.68508 2.45783 0
M  V30 7006 H 659.754 0.841475 1.20655 0
M  V30 7007 H 661.712 -0.108483 4.17059 0
M  V30 7008 H 660.342 -0.644486 3.16301 0
M  V30 7009 H 659.394 1.7667 3.36885 0
M  V30 7010 H 660.706 2.12005 4.51504 0
M  V30 7011 H 659.86 0.339541 6.05749 0
M  V30 7012 H 658.599 -0.112188 4.87571 0
M  V30 7013 H 657.604 2.18648 5.04453 0
M  V30 7014 H 658.829 2.63199 6.26022 0
M  V30 7015 H 656.775 0.406423 6.5474 0
M  V30 7016 H 656.692 1.9654 7.30006 0
M  V30 7017 H 657.96 0.863426 7.74703 0
M  V30 7018 N 662.189 -1.289 0.906776 0
M  V30 7019 C 663.435 -1.95558 0.53712 0
M  V30 7020 C 663.768 -1.71262 -0.915582 0
M  V30 7021 O 663.043 -1.02961 -1.65013 0
M  V30 7022 C 663.326 -3.50198 0.838645 0
M  V30 7023 C 663.179 -3.83923 2.34357 0
M  V30 7024 C 664.498 -4.38861 0.329988 0
M  V30 7025 H 661.617 -0.710289 0.196617 0
M  V30 7026 H 664.259 -1.52392 1.13475 0
M  V30 7027 H 662.409 -3.87096 0.330024 0
M  V30 7028 H 664.081 -3.56933 2.92227 0
M  V30 7029 H 662.324 -3.31215 2.80141 0
M  V30 7030 H 662.995 -4.91883 2.5051 0
M  V30 7031 H 665.471 -4.08996 0.765609 0
M  V30 7032 H 664.347 -5.45931 0.570105 0
M  V30 7033 H 664.608 -4.35352 -0.769511 0
M  V30 7034 N 663.667 -0.670007 -1.42649 0
M  V30 7035 C 665.083 -0.33911 -1.55956 0
M  V30 7036 C 665.283 1.1558 -1.65056 0
M  V30 7037 O 664.339 1.94111 -1.61485 0
M  V30 7038 C 665.652 -1.06522 -2.812 0
M  V30 7039 C 667.2 -1.04708 -2.94966 0
M  V30 7040 C 667.675 -1.75442 -4.23065 0
M  V30 7041 N 669.166 -1.72286 -4.29967 0
M  V30 7042 C 669.901 -2.23877 -5.27889 0
M  V30 7043 N 669.397 -2.83829 -6.31991 0
M  V30 7044 N 671.19 -2.14279 -5.19654 0
M  V30 7045 H 663.341 -1.6399 -1.34986 0
M  V30 7046 H 665.604 -0.690603 -0.649439 0
M  V30 7047 H 665.31 -2.12033 -2.80597 0
M  V30 7048 H 665.184 -0.627398 -3.71946 0
M  V30 7049 H 667.571 -0.000315966 -2.951 0
M  V30 7050 H 667.652 -1.52374 -2.05465 0
M  V30 7051 H 667.296 -2.80084 -4.23693 0
M  V30 7052 H 667.226 -1.25229 -5.11493 0
M  V30 7053 H 669.717 -1.28554 -3.55362 0
M  V30 7054 H 670.03 -3.20827 -7.03057 0
M  V30 7055 H 668.375 -2.87896 -6.32567 0
M  V30 7056 H 671.566 -1.67135 -4.37245 0
M  V30 7057 H 671.739 -2.54792 -5.95806 0
M  V30 7058 N 665.145 1.52092 -0.413018 0
M  V30 7059 C 666.055 2.30858 0.417318 0
M  V30 7060 C 667.071 1.38746 1.05003 0
M  V30 7061 O 668.247 1.71821 1.05069 0
M  V30 7062 C 665.312 3.11756 1.51687 0
M  V30 7063 C 664.373 4.19613 0.906825 0
M  V30 7064 C 663.606 4.96644 1.95399 0
M  V30 7065 O 663.829 4.7402 3.17271 0
M  V30 7066 O 662.763 5.81385 1.55805 0
M  V30 7067 H 666.589 3.02865 -0.225028 0
M  V30 7068 H 664.174 1.48358 -0.176126 0
M  V30 7069 H 666.056 3.62122 2.15512 0
M  V30 7070 H 664.731 2.42539 2.14375 0
M  V30 7071 H 663.638 3.73385 0.231183 0
M  V30 7072 H 664.971 4.91134 0.323814 0
M  V30 7073 N 666.623 0.143563 1.56945 0
M  V30 7074 C 667.872 -0.50835 1.95189 0
M  V30 7075 C 668.185 -1.66239 1.03073 0
M  V30 7076 O 669.391 -2.3787 1.30882 0
M  V30 7077 C 667.847 -0.955735 3.46978 0
M  V30 7078 C 667.455 0.171183 4.47673 0
M  V30 7079 C 669.199 -1.57763 3.94095 0
M  V30 7080 C 667.106 -0.294279 5.90667 0
M  V30 7081 H 666.036 -0.193679 0.728701 0
M  V30 7082 H 668.687 0.227357 1.82086 0
M  V30 7083 H 667.069 -1.7466 3.55401 0
M  V30 7084 H 668.243 0.948049 4.50942 0
M  V30 7085 H 666.558 0.701273 4.10452 0
M  V30 7086 H 669.155 -1.93745 4.98364 0
M  V30 7087 H 669.498 -2.46531 3.35452 0
M  V30 7088 H 670.031 -0.851728 3.88575 0
M  V30 7089 H 666.77 0.557939 6.53121 0
M  V30 7090 H 666.29 -1.0371 5.90766 0
M  V30 7091 H 667.969 -0.747426 6.42668 0
M  V30 7092 N 668.101 -1.57061 -0.130224 0
M  V30 7093 C 669.326 -1.88802 -0.858409 0
M  V30 7094 C 669.751 -0.734353 -1.73173 0
M  V30 7095 O 669.109 0.315529 -1.78533 0
M  V30 7096 C 669.157 -3.19228 -1.67708 0
M  V30 7097 O 668.261 -3.04343 -2.78297 0
M  V30 7098 H 667.602 -0.619849 -0.238083 0
M  V30 7099 H 670.132 -2.04271 -0.115995 0
M  V30 7100 H 670.142 -3.51669 -2.06864 0
M  V30 7101 H 668.817 -4.02793 -1.0359 0
M  V30 7102 H 667.394 -2.83346 -2.42425 0
M  V30 7103 N 669.579 0.400081 -1.52437 0
M  V30 7104 C 670.827 1.14392 -1.6661 0
M  V30 7105 C 671.148 1.90792 -0.402927 0
M  V30 7106 O 670.418 1.87042 0.582425 0
M  V30 7107 H 668.998 0.425275 -0.614125 0
M  V30 7108 H 671.66 0.455076 -1.89513 0
M  V30 7109 H 670.756 1.85298 -2.51139 0
M  V30 7110 N 671.057 1.43213 0.657864 0
M  V30 7111 C 671.987 1.50815 1.78262 0
M  V30 7112 C 672.968 0.363211 1.66177 0
M  V30 7113 O 674.153 0.579806 1.85343 0
M  V30 7114 C 671.283 1.42625 3.16663 0
M  V30 7115 C 670.237 2.5532 3.43505 0
M  V30 7116 C 669.563 2.32184 4.81658 0
M  V30 7117 C 670.863 3.97583 3.38711 0
M  V30 7118 H 672.557 2.44954 1.72157 0
M  V30 7119 H 670.103 1.17896 0.82683 0
M  V30 7120 H 672.056 1.46548 3.95097 0
M  V30 7121 H 670.78 0.449877 3.23487 0
M  V30 7122 H 669.439 2.50742 2.6744 0
M  V30 7123 H 669.087 1.32801 4.85153 0
M  V30 7124 H 668.787 3.07724 5.00579 0
M  V30 7125 H 670.311 2.37883 5.62356 0
M  V30 7126 H 671.725 4.03673 4.07089 0
M  V30 7127 H 670.122 4.73112 3.69168 0
M  V30 7128 H 671.192 4.23049 2.36976 0
M  V30 7129 N 672.536 -0.895792 1.29666 0
M  V30 7130 C 673.468 -2.00563 1.10937 0
M  V30 7131 C 674.481 -1.62705 0.055734 0
M  V30 7132 O 675.67 -1.7595 0.300656 0
M  V30 7133 C 672.77 -3.32262 0.667448 0
M  V30 7134 C 671.943 -3.98625 1.80047 0
M  V30 7135 C 671.002 -5.08617 1.3489 0
M  V30 7136 O 670.028 -5.30837 2.05429 0
M  V30 7137 N 671.23 -5.80076 0.221937 0
M  V30 7138 H 673.995 -2.17184 2.06522 0
M  V30 7139 H 671.556 -1.06822 1.21658 0
M  V30 7140 H 673.548 -4.03196 0.348586 0
M  V30 7141 H 672.118 -3.11985 -0.196055 0
M  V30 7142 H 671.338 -3.21005 2.28801 0
M  V30 7143 H 672.626 -4.39704 2.56003 0
M  V30 7144 H 672.024 -5.64514 -0.366084 0
M  V30 7145 H 670.581 -6.51789 -0.0375346 0
M  V30 7146 N 674.014 -1.12206 -1.10668 0
M  V30 7147 C 675.26 -0.887096 -1.83036 0
M  V30 7148 C 675.615 0.580887 -1.83422 0
M  V30 7149 O 674.908 1.42379 -1.28213 0
M  V30 7150 C 675.102 -1.39276 -3.29146 0
M  V30 7151 C 674.931 -2.90837 -3.42992 0
M  V30 7152 C 673.701 -3.59047 -3.55546 0
M  V30 7153 C 675.899 -3.8885 -3.36601 0
M  V30 7154 N 673.881 -4.98747 -3.57945 0
M  V30 7155 C 675.252 -5.14666 -3.45716 0
M  V30 7156 C 677.307 -3.81296 -3.20184 0
M  V30 7157 C 676.01 -6.33814 -3.40106 0
M  V30 7158 C 678.036 -4.99965 -3.15895 0
M  V30 7159 C 677.398 -6.24637 -3.25589 0
M  V30 7160 H 673.497 -0.377857 -0.684652 0
M  V30 7161 H 676.081 -1.42791 -1.32358 0
M  V30 7162 H 674.252 -0.879026 -3.78322 0
M  V30 7163 H 675.984 -1.10011 -3.89461 0
M  V30 7164 H 672.739 -3.09533 -3.5845 0
M  V30 7165 H 673.163 -5.71606 -3.62762 0
M  V30 7166 H 677.805 -2.85806 -3.11569 0
M  V30 7167 H 675.523 -7.29574 -3.47487 0
M  V30 7168 H 679.109 -4.95847 -3.04347 0
M  V30 7169 H 677.989 -7.14921 -3.22269 0
M  V30 7170 N 675.492 1.28418 -0.913599 0
M  V30 7171 C 676.424 2.26368 -0.359169 0
M  V30 7172 C 677.437 1.54858 0.502285 0
M  V30 7173 O 678.626 1.75659 0.31719 0
M  V30 7174 C 675.726 3.35112 0.50526 0
M  V30 7175 C 674.899 4.36126 -0.333648 0
M  V30 7176 C 673.958 5.24134 0.465845 0
M  V30 7177 O 672.984 5.6907 -0.121538 0
M  V30 7178 N 674.186 5.52892 1.76891 0
M  V30 7179 H 676.951 2.74579 -1.2011 0
M  V30 7180 H 674.512 1.41898 -0.779532 0
M  V30 7181 H 676.504 3.90926 1.04684 0
M  V30 7182 H 675.074 2.86611 1.2479 0
M  V30 7183 H 674.294 3.79776 -1.0566 0
M  V30 7184 H 675.582 5.00638 -0.907669 0
M  V30 7185 H 674.98 5.18217 2.26865 0
M  V30 7186 H 673.537 6.11464 2.25732 0
M  V30 7187 N 676.97 0.677563 1.42291 0
M  V30 7188 C 677.917 0.000947061 2.308 0
M  V30 7189 C 678.887 -0.789889 1.46116 0
M  V30 7190 O 680.072 -0.761578 1.74942 0
M  V30 7191 C 677.212 -0.942387 3.31984 0
M  V30 7192 C 676.325 -0.14508 4.31756 0
M  V30 7193 C 675.46 -1.08442 5.20013 0
M  V30 7194 C 674.499 -0.278958 6.11464 0
M  V30 7195 N 673.636 -1.17115 6.92263 0
M  V30 7196 H 678.476 0.761521 2.88106 0
M  V30 7197 H 676.013 0.38727 1.41911 0
M  V30 7198 H 677.971 -1.50317 3.89179 0
M  V30 7199 H 676.601 -1.66956 2.76271 0
M  V30 7200 H 675.653 0.532368 3.76656 0
M  V30 7201 H 676.965 0.48015 4.96484 0
M  V30 7202 H 676.119 -1.71504 5.81955 0
M  V30 7203 H 674.858 -1.74353 4.55469 0
M  V30 7204 H 673.863 0.364856 5.48588 0
M  V30 7205 H 675.088 0.376099 6.78058 0
M  V30 7206 H 673.034 -1.81661 6.30345 0
M  V30 7207 H 672.951 -0.601063 7.53607 0
M  V30 7208 H 674.219 -1.78915 7.58689 0
M  V30 7209 N 678.448 -1.51871 0.421078 0
M  V30 7210 C 679.725 -1.9447 -0.20993 0
M  V30 7211 C 680.105 -1.35875 -1.61558 0
M  V30 7212 O 679.453 -0.539294 -2.22045 0
M  V30 7213 C 679.663 -3.48402 -0.204165 0
M  V30 7214 C 681.011 -4.2254 -0.417696 0
M  V30 7215 O 682.035 -3.55074 -0.282999 0
M  V30 7216 O 680.894 -5.422 -0.684239 0
M  V30 7217 H 677.988 -0.815283 -0.138718 0
M  V30 7218 H 680.534 -1.62832 0.477884 0
M  V30 7219 H 679.306 -3.83464 0.779183 0
M  V30 7220 H 678.929 -3.86436 -0.935576 0
M  V30 7221 N 679.926 -0.151884 -1.56866 0
M  V30 7222 C 680.889 0.771861 -2.15812 0
M  V30 7223 C 681.889 1.17181 -1.10115 0
M  V30 7224 O 683.079 1.09194 -1.35729 0
M  V30 7225 C 680.211 2.04806 -2.7252 0
M  V30 7226 H 681.404 0.259021 -2.98779 0
M  V30 7227 H 678.957 0.097588 -1.55995 0
M  V30 7228 H 679.692 2.60445 -1.93233 0
M  V30 7229 H 679.477 1.77044 -3.49854 0
M  V30 7230 H 680.967 2.70771 -3.1792 0
M  V30 7231 N 681.404 1.57128 0.121893 0
M  V30 7232 C 682.629 1.89254 0.848385 0
M  V30 7233 C 683.054 0.743527 1.72781 0
M  V30 7234 O 682.412 -0.306056 1.78698 0
M  V30 7235 C 682.46 3.20113 1.66012 0
M  V30 7236 O 681.564 3.05815 2.76679 0
M  V30 7237 H 680.905 0.621103 0.234793 0
M  V30 7238 H 683.435 2.0433 0.10516 0
M  V30 7239 H 683.445 3.52761 2.04996 0
M  V30 7240 H 682.12 4.03336 1.01452 0
M  V30 7241 H 680.697 2.84627 2.40918 0
M  V30 7242 N 682.882 -0.391992 1.52647 0
M  V30 7243 C 684.128 -1.13563 1.68745 0
M  V30 7244 C 684.483 -1.87745 0.420685 0
M  V30 7245 O 683.776 -1.82434 -0.585529 0
M  V30 7246 C 683.97 -2.14401 2.85949 0
M  V30 7247 C 683.799 -1.50124 4.23902 0
M  V30 7248 C 682.569 -1.2666 4.89168 0
M  V30 7249 C 684.767 -0.952933 5.05395 0
M  V30 7250 N 682.749 -0.584555 6.11111 0
M  V30 7251 C 684.12 -0.398784 6.18716 0
M  V30 7252 C 686.175 -0.849053 4.90607 0
M  V30 7253 C 684.878 0.249084 7.18869 0
M  V30 7254 C 686.904 -0.215011 5.91009 0
M  V30 7255 C 686.266 0.328382 7.03634 0
M  V30 7256 H 682.365 -0.401628 0.670984 0
M  V30 7257 H 684.949 -0.425585 1.89992 0
M  V30 7258 H 683.12 -2.82746 2.66288 0
M  V30 7259 H 684.852 -2.8125 2.90999 0
M  V30 7260 H 681.607 -1.54078 4.47836 0
M  V30 7261 H 682.031 -0.259663 6.76502 0
M  V30 7262 H 686.673 -1.25497 4.03745 0
M  V30 7263 H 684.391 0.667019 8.05342 0
M  V30 7264 H 687.977 -0.135921 5.81641 0
M  V30 7265 H 686.857 0.811257 7.79992 0
M  V30 7266 N 684.36 -1.4356 -0.65026 0
M  V30 7267 C 685.608 -1.45046 -1.40734 0
M  V30 7268 C 685.929 -0.0769822 -1.94848 0
M  V30 7269 O 685.199 0.888098 -1.74613 0
M  V30 7270 H 683.779 -0.534034 -0.522318 0
M  V30 7271 H 686.441 -1.79186 -0.766703 0
M  V30 7272 H 685.537 -2.16476 -2.24822 0
M  V30 7273 N 685.838 0.888903 -1.30139 0
M  V30 7274 C 686.785 1.99422 -1.16188 0
M  V30 7275 C 687.755 1.66017 -0.0523869 0
M  V30 7276 O 688.94 1.89506 -0.221864 0
M  V30 7277 C 686.08 3.34325 -0.855612 0
M  V30 7278 C 685.193 3.80445 -2.0466 0
M  V30 7279 C 684.328 5.03975 -1.67876 0
M  V30 7280 C 683.367 5.42492 -2.83493 0
M  V30 7281 N 682.504 6.57206 -2.47032 0
M  V30 7282 H 687.344 2.10687 -2.10749 0
M  V30 7283 H 684.881 1.03165 -1.04859 0
M  V30 7284 H 686.839 4.11968 -0.658681 0
M  V30 7285 H 685.469 3.22756 0.0531155 0
M  V30 7286 H 684.521 2.98745 -2.3549 0
M  V30 7287 H 685.833 4.04933 -2.91257 0
M  V30 7288 H 684.987 5.89232 -1.44535 0
M  V30 7289 H 683.726 4.8135 -0.784431 0
M  V30 7290 H 682.731 4.55764 -3.07505 0
M  V30 7291 H 683.956 5.67093 -3.73607 0
M  V30 7292 H 681.902 6.36164 -1.601 0
M  V30 7293 H 681.819 6.81543 -3.27161 0
M  V30 7294 H 683.087 7.45704 -2.27038 0
M  V30 7295 N 687.317 1.12792 1.10072 0
M  V30 7296 C 688.547 0.907189 1.85617 0
M  V30 7297 C 688.955 -0.547181 1.81115 0
M  V30 7298 O 688.298 -1.39024 1.20075 0
M  V30 7299 C 688.36 1.30872 3.34832 0
M  V30 7300 C 688.024 2.77516 3.6309 0
M  V30 7301 C 689.021 3.75696 3.59373 0
M  V30 7302 C 686.706 3.14513 3.91646 0
M  V30 7303 C 688.7 5.08888 3.83812 0
M  V30 7304 C 686.387 4.47886 4.15742 0
M  V30 7305 C 687.385 5.44882 4.11816 0
M  V30 7306 O 687.073 6.7585 4.35295 0
M  V30 7307 H 686.805 0.323855 0.593375 0
M  V30 7308 H 689.359 1.50262 1.40038 0
M  V30 7309 H 687.589 0.656518 3.81086 0
M  V30 7310 H 689.278 1.06153 3.91773 0
M  V30 7311 H 690.044 3.48458 3.37345 0
M  V30 7312 H 685.923 2.39622 3.93831 0
M  V30 7313 H 689.467 5.84586 3.80663 0
M  V30 7314 H 685.364 4.74851 4.37249 0
M  V30 7315 H 686.132 6.81853 4.52791 0
M  V30 7316 N 688.795 -1.27931 0.920396 0
M  V30 7317 C 690.042 -1.94689 0.557007 0
M  V30 7318 C 690.37 -1.724 -0.900476 0
M  V30 7319 O 689.625 -1.04194 -1.65657 0
M  V30 7320 C 689.924 -3.47853 0.820558 0
M  V30 7321 C 689.59 -3.90252 2.25863 0
M  V30 7322 C 688.252 -4.01539 2.65179 0
M  V30 7323 C 690.604 -4.11853 3.19415 0
M  V30 7324 C 687.932 -4.3181 3.97187 0
M  V30 7325 C 690.284 -4.43606 4.50995 0
M  V30 7326 C 688.948 -4.53105 4.90155 0
M  V30 7327 H 688.218 -0.712416 0.203823 0
M  V30 7328 H 690.865 -1.52142 1.16298 0
M  V30 7329 H 689.17 -3.91578 0.131844 0
M  V30 7330 H 690.867 -3.97634 0.51847 0
M  V30 7331 H 687.457 -3.81999 1.94358 0
M  V30 7332 H 691.641 -4.0258 2.90246 0
M  V30 7333 H 686.897 -4.37371 4.2722 0
M  V30 7334 H 691.071 -4.59268 5.23494 0
M  V30 7335 H 688.698 -4.76315 5.92476 0
M  V30 7336 N 690.273 -0.685099 -1.4193 0
M  V30 7337 C 691.519 -0.211971 -2.01689 0
M  V30 7338 C 691.852 1.18189 -1.54094 0
M  V30 7339 O 691.127 1.79559 -0.747572 0
M  V30 7340 C 691.41 -0.258019 -3.59174 0
M  V30 7341 C 691.263 -1.68807 -4.16922 0
M  V30 7342 C 692.582 0.388044 -4.38386 0
M  V30 7343 H 689.701 -0.0784987 -0.732808 0
M  V30 7344 H 692.343 -0.871837 -1.68816 0
M  V30 7345 H 690.493 0.303832 -3.8731 0
M  V30 7346 H 692.165 -2.30296 -3.99702 0
M  V30 7347 H 690.408 -2.22553 -3.72361 0
M  V30 7348 H 691.079 -1.6719 -5.26072 0
M  V30 7349 H 693.555 -0.0903432 -4.16002 0
M  V30 7350 H 692.431 0.325232 -5.47936 0
M  V30 7351 H 692.692 1.4672 -4.17044 0
M  V30 7352 N 691.751 1.51645 -0.429126 0
M  V30 7353 C 692.979 2.06433 0.138994 0
M  V30 7354 C 693.394 1.29735 1.37165 0
M  V30 7355 O 692.751 0.354638 1.79021 0
M  V30 7356 C 692.802 3.58439 0.469452 0
M  V30 7357 O 692.523 4.32238 -0.714273 0
M  V30 7358 C 694.024 4.29712 1.08914 0
M  V30 7359 H 691.244 0.6709 0.0115608 0
M  V30 7360 H 693.788 1.9532 -0.605843 0
M  V30 7361 H 691.943 3.69494 1.16419 0
M  V30 7362 H 692.357 5.22704 -0.433633 0
M  V30 7363 H 693.831 5.37182 1.27042 0
M  V30 7364 H 694.308 3.87473 2.06788 0
M  V30 7365 H 694.914 4.2308 0.434028 0
M  V30 7366 N 693.229 0.160201 1.56784 0
M  V30 7367 C 694.645 -0.196089 1.58391 0
M  V30 7368 C 694.845 -1.63689 1.17508 0
M  V30 7369 O 693.901 -2.36613 0.881506 0
M  V30 7370 C 695.214 0.0746449 3.00607 0
M  V30 7371 C 696.762 0.0119762 3.12998 0
M  V30 7372 C 697.237 0.255551 4.57286 0
M  V30 7373 N 698.728 0.202938 4.62755 0
M  V30 7374 C 699.463 0.365731 5.72232 0
M  V30 7375 N 698.959 0.586972 6.90309 0
M  V30 7376 N 700.752 0.302411 5.61286 0
M  V30 7377 H 692.903 1.1008 1.81648 0
M  V30 7378 H 695.166 0.436779 0.841384 0
M  V30 7379 H 694.872 1.07231 3.34954 0
M  V30 7380 H 694.746 -0.638802 3.71751 0
M  V30 7381 H 697.133 -0.976254 2.78484 0
M  V30 7382 H 697.214 0.75796 2.44313 0
M  V30 7383 H 696.858 1.24094 4.92507 0
M  V30 7384 H 696.788 -0.510912 5.24116 0
M  V30 7385 H 699.279 0.0371328 3.77882 0
M  V30 7386 H 699.592 0.700941 7.69615 0
M  V30 7387 H 697.937 0.623453 6.92198 0
M  V30 7388 H 701.128 0.130238 4.67919 0
M  V30 7389 H 701.301 0.432712 6.46554 0
M  V30 7390 N 694.707 -1.5719 -0.113559 0
M  V30 7391 C 695.953 -1.85412 -0.821597 0
M  V30 7392 C 696.286 -0.746722 -1.7927 0
M  V30 7393 O 695.561 0.246971 -1.92926 0
M  V30 7394 C 695.844 -3.24233 -1.56669 0
M  V30 7395 C 695.697 -4.45578 -0.614823 0
M  V30 7396 C 697.016 -3.60697 -2.52161 0
M  V30 7397 H 694.135 -0.674406 -0.29723 0
M  V30 7398 H 696.777 -1.89807 -0.085694 0
M  V30 7399 H 694.927 -3.20617 -2.19401 0
M  V30 7400 H 696.599 -4.613 0.00407137 0
M  V30 7401 H 694.842 -4.33738 0.0732332 0
M  V30 7402 H 695.513 -5.39395 -1.17292 0
M  V30 7403 H 697.989 -3.65139 -1.99532 0
M  V30 7404 H 696.865 -4.58798 -3.01323 0
M  V30 7405 H 697.126 -2.88403 -3.35076 0
M  V30 7406 N 696.185 0.383891 -1.52853 0
M  V30 7407 C 697.135 1.46892 -1.74375 0
M  V30 7408 C 698.119 1.49378 -0.597909 0
M  V30 7409 O 699.311 1.54929 -0.855929 0
M  V30 7410 C 696.44 2.84547 -1.92063 0
M  V30 7411 C 695.526 2.8661 -3.12594 0
M  V30 7412 N 695.917 2.58339 -4.3485 0
M  V30 7413 C 694.215 3.17777 -3.12944 0
M  V30 7414 C 694.916 2.67616 -5.16485 0
M  V30 7415 N 693.892 3.01561 -4.52285 0
M  V30 7416 H 697.694 1.23869 -2.66522 0
M  V30 7417 H 695.208 0.591895 -1.51229 0
M  V30 7418 H 697.205 3.62674 -2.05604 0
M  V30 7419 H 695.865 3.08549 -1.01133 0
M  V30 7420 H 696.876 2.32266 -4.62896 0
M  V30 7421 H 693.553 3.47211 -2.31842 0
M  V30 7422 H 694.943 2.4926 -6.23955 0
M  V30 7423 N 697.663 1.43903 0.642637 0
M  V30 7424 C 698.94 1.36556 1.40043 0
M  V30 7425 C 699.32 0.0185588 2.11092 0
M  V30 7426 O 698.668 -0.998438 2.05532 0
M  V30 7427 C 698.878 2.55596 2.37638 0
M  V30 7428 C 700.226 2.99153 3.01318 0
M  V30 7429 O 701.25 2.55719 2.47965 0
M  V30 7430 O 700.109 3.74427 3.98078 0
M  V30 7431 H 697.203 0.540189 0.626198 0
M  V30 7432 H 699.749 1.55971 0.668657 0
M  V30 7433 H 698.521 3.45256 1.84158 0
M  V30 7434 H 698.144 2.38334 3.18249 0
M  V30 7435 N 699.141 -0.881989 1.30609 0
M  V30 7436 C 700.387 -1.63647 1.19781 0
M  V30 7437 C 700.72 -1.92632 -0.246265 0
M  V30 7438 O 699.995 -1.54938 -1.17577 0
M  V30 7439 C 700.278 -2.97437 2.02985 0
M  V30 7440 C 700.131 -2.75406 3.55628 0
M  V30 7441 C 701.45 -3.98397 1.86997 0
M  V30 7442 H 698.569 -0.593841 0.436488 0
M  V30 7443 H 701.211 -1.02041 1.60273 0
M  V30 7444 H 699.361 -3.50018 1.68581 0
M  V30 7445 H 701.033 -2.2959 4.00107 0
M  V30 7446 H 699.276 -2.09856 3.79662 0
M  V30 7447 H 699.947 -3.70552 4.09139 0
M  V30 7448 H 702.423 -3.54986 2.17081 0
M  V30 7449 H 701.299 -4.89916 2.47536 0
M  V30 7450 H 701.56 -4.3424 0.829943 0
M  V30 7451 N 700.619 -1.13374 -1.09472 0
M  V30 7452 C 702.03 -0.90801 -1.63132 0
M  V30 7453 C 702.381 0.555576 -1.8817 0
M  V30 7454 O 701.506 1.42218 -1.63104 0
M  V30 7455 C 702.101 -1.64182 -2.96361 0
M  V30 7456 C 700.66 -1.46197 -3.46848 0
M  V30 7457 C 699.807 -1.67134 -2.21273 0
M  V30 7458 H 702.758 -1.2871 -0.928411 0
M  V30 7459 H 702.779 -1.09863 -3.64294 0
M  V30 7460 H 702.291 -2.707 -2.78106 0
M  V30 7461 H 700.392 -0.419788 -3.70228 0
M  V30 7462 H 700.505 -2.22472 -4.24315 0
M  V30 7463 H 698.869 -1.09616 -2.29905 0
M  V30 7464 H 699.652 -2.74971 -2.05538 0
M  V30 7465 N 702.098 1.27442 -0.927168 0
M  V30 7466 C 703.045 2.26863 -0.424459 0
M  V30 7467 C 704.015 1.5813 0.508346 0
M  V30 7468 O 705.2 1.85946 0.42762 0
M  V30 7469 C 702.34 3.43639 0.31718 0
M  V30 7470 C 701.453 4.27087 -0.649675 0
M  V30 7471 C 700.588 5.31082 0.111753 0
M  V30 7472 C 699.627 6.062 -0.847843 0
M  V30 7473 N 698.764 7.01999 -0.119074 0
M  V30 7474 H 703.604 2.69239 -1.27728 0
M  V30 7475 H 701.141 1.32394 -0.641106 0
M  V30 7476 H 703.099 4.10155 0.763486 0
M  V30 7477 H 701.729 3.02217 1.13424 0
M  V30 7478 H 700.781 3.60491 -1.21451 0
M  V30 7479 H 702.093 4.79242 -1.38307 0
M  V30 7480 H 701.247 6.03544 0.618 0
M  V30 7481 H 699.986 4.7973 0.878114 0
M  V30 7482 H 698.991 5.32577 -1.36534 0
M  V30 7483 H 700.216 6.59642 -1.61398 0
M  V30 7484 H 698.162 6.52977 0.629051 0
M  V30 7485 H 698.079 7.5184 -0.792046 0
M  V30 7486 H 699.347 7.78638 0.366537 0
M  V30 7487 N 703.576 0.692616 1.41565 0
M  V30 7488 C 704.822 0.222664 2.01574 0
M  V30 7489 C 705.155 -1.1737 1.54719 0
M  V30 7490 O 704.43 -1.79161 0.757084 0
M  V30 7491 C 704.713 0.277064 3.59033 0
M  V30 7492 C 704.566 1.71016 4.16021 0
M  V30 7493 C 705.885 -0.36479 4.38586 0
M  V30 7494 H 703.004 0.0823839 0.732381 0
M  V30 7495 H 705.646 0.880778 1.68352 0
M  V30 7496 H 703.796 -0.283288 3.87466 0
M  V30 7497 H 705.468 2.32413 3.98475 0
M  V30 7498 H 703.711 2.24525 3.71175 0
M  V30 7499 H 704.382 1.69978 5.25178 0
M  V30 7500 H 706.858 0.112404 4.15948 0
M  V30 7501 H 705.734 -0.296169 5.481 0
M  V30 7502 H 705.995 -1.44506 4.17816 0
M  V30 7503 N 705.054 -1.51416 0.437162 0
M  V30 7504 C 706.002 -2.29328 -0.388765 0
M  V30 7505 C 706.996 -1.35171 -1.02104 0
M  V30 7506 O 708.202 -1.52513 -0.956024 0
M  V30 7507 H 704.577 -0.738048 -0.144183 0
M  V30 7508 H 706.548 -2.96995 0.289212 0
M  V30 7509 C 705.297 -3.14741 -1.47761 0
M  V30 7510 H 704.62 -3.8708 -1.00045 0
M  V30 7511 H 706.06 -3.72313 -2.02877 0
M  V30 7512 C 704.519 -2.30105 -2.46076 0
M  V30 7513 O 705.049 -1.96055 -3.50607 0
M  V30 7514 N 703.255 -1.93331 -2.1696 0
M  V30 7515 H 702.802 -2.2122 -1.31983 0
M  V30 7516 H 702.76 -1.36999 -2.82982 0
M  V30 7517 N 706.532 -0.168513 -1.56696 0
M  V30 7518 C 707.465 0.801477 -2.13662 0
M  V30 7519 C 708.443 1.22786 -1.06594 0
M  V30 7520 O 709.627 1.32014 -1.34554 0
M  V30 7521 C 706.754 2.07896 -2.6739 0
M  V30 7522 C 705.8 1.79681 -3.86803 0
M  V30 7523 S 706.633 0.968556 -5.26668 0
M  V30 7524 C 707.789 2.25676 -5.83799 0
M  V30 7525 H 708.022 0.317121 -2.95604 0
M  V30 7526 H 705.555 0.0461132 -1.54331 0
M  V30 7527 H 707.513 2.81272 -2.98992 0
M  V30 7528 H 706.174 2.53445 -1.85539 0
M  V30 7529 H 705.367 2.74461 -4.22714 0
M  V30 7530 H 704.969 1.14402 -3.56073 0
M  V30 7531 H 707.261 3.2116 -5.96542 0
M  V30 7532 H 708.204 1.94238 -6.80939 0
M  V30 7533 H 708.612 2.37308 -5.12197 0
M  V30 7534 N 708.01 1.57248 0.105221 0
M  V30 7535 C 709.238 1.89768 0.82437 0
M  V30 7536 C 709.653 0.761192 1.72775 0
M  V30 7537 O 709.01 -0.267342 1.80531 0
M  V30 7538 C 709.061 3.2184 1.64625 0
M  V30 7539 O 708.782 4.31115 0.779217 0
M  V30 7540 C 710.283 3.68155 2.46935 0
M  V30 7541 H 707.503 0.628031 0.236259 0
M  V30 7542 H 710.047 2.04321 0.085485 0
M  V30 7543 H 708.202 3.08915 2.33775 0
M  V30 7544 H 708.616 5.06897 1.34745 0
M  V30 7545 H 710.09 4.6329 3.00111 0
M  V30 7546 H 710.567 2.95492 3.24932 0
M  V30 7547 H 711.173 3.83914 1.83002 0
M  V30 7548 N 709.488 -0.375779 1.53054 0
M  V30 7549 C 710.765 -1.13453 1.59336 0
M  V30 7550 C 711.145 -2.07379 0.394614 0
M  V30 7551 O 710.493 -2.2004 -0.616 0
M  V30 7552 C 710.703 -1.8826 2.93869 0
M  V30 7553 C 712.051 -2.43155 3.48081 0
M  V30 7554 O 713.075 -1.984 2.95831 0
M  V30 7555 O 711.934 -3.24944 4.39401 0
M  V30 7556 H 709.028 -0.519856 0.643179 0
M  V30 7557 H 711.574 -0.379865 1.65394 0
M  V30 7558 H 710.346 -1.19652 3.72558 0
M  V30 7559 H 709.969 -2.70658 2.91256 0
M  V30 7560 N 710.966 -1.44241 -0.634997 0
M  V30 7561 C 711.929 -1.50457 -1.72903 0
M  V30 7562 C 712.929 -0.387058 -1.56072 0
M  V30 7563 O 714.119 -0.649531 -1.61638 0
M  V30 7564 C 711.251 -1.37477 -3.1195 0
M  V30 7565 H 712.444 -2.47907 -1.68767 0
M  V30 7566 H 709.997 -1.31276 -0.84831 0
M  V30 7567 H 710.732 -0.41106 -3.21684 0
M  V30 7568 H 710.517 -2.18506 -3.25573 0
M  V30 7569 H 712.007 -1.44799 -3.91692 0
M  V30 7570 N 712.444 0.87505 -1.31075 0
M  V30 7571 C 713.374 1.99775 -1.20881 0
M  V30 7572 C 714.355 1.69822 -0.0971612 0
M  V30 7573 O 715.54 1.92158 -0.280895 0
M  V30 7574 C 712.67 3.35163 -0.910118 0
M  V30 7575 C 711.624 3.79406 -1.98078 0
M  V30 7576 C 710.95 5.12197 -1.53488 0
M  V30 7577 C 712.25 3.97061 -3.39323 0
M  V30 7578 H 713.944 2.08562 -2.14808 0
M  V30 7579 H 711.49 1.00207 -1.03415 0
M  V30 7580 H 713.443 4.13237 -0.825423 0
M  V30 7581 H 712.167 3.26536 0.064822 0
M  V30 7582 H 710.826 3.03568 -2.05528 0
M  V30 7583 H 710.474 5.00007 -0.547941 0
M  V30 7584 H 710.174 5.4277 -2.2511 0
M  V30 7585 H 711.698 5.92785 -1.46417 0
M  V30 7586 H 713.112 4.65545 -3.34576 0
M  V30 7587 H 711.509 4.39025 -4.09118 0
M  V30 7588 H 712.579 3.00601 -3.80483 0
M  V30 7589 N 713.922 1.13953 1.08869 0
M  V30 7590 C 715.168 0.906151 1.8143 0
M  V30 7591 C 715.501 -0.566089 1.85766 0
M  V30 7592 O 714.776 -1.41915 1.33006 0
M  V30 7593 C 715.059 1.50183 3.27287 0
M  V30 7594 C 714.912 3.04359 3.31189 0
M  V30 7595 C 716.231 1.17477 4.24131 0
M  V30 7596 H 713.35 0.330624 0.658678 0
M  V30 7597 H 715.992 1.40873 1.27495 0
M  V30 7598 H 714.142 1.07442 3.73348 0
M  V30 7599 H 715.814 3.55896 2.93488 0
M  V30 7600 H 714.057 3.39053 2.70602 0
M  V30 7601 H 714.728 3.41141 4.33966 0
M  V30 7602 H 717.204 1.5442 3.86385 0
M  V30 7603 H 716.08 1.61795 5.24513 0
M  V30 7604 H 716.341 0.0893312 4.4201 0
M  V30 7605 N 715.4 -1.26948 0.933913 0
M  V30 7606 C 716.35 -2.24306 0.408779 0
M  V30 7607 C 717.334 -1.53243 -0.490435 0
M  V30 7608 O 718.526 -1.73956 -0.326866 0
M  V30 7609 C 715.655 -3.41695 -0.331578 0
M  V30 7610 C 714.741 -4.20053 0.58451 0
M  V30 7611 N 715.132 -4.76122 1.70709 0
M  V30 7612 C 713.43 -4.44303 0.388703 0
M  V30 7613 C 714.131 -5.35267 2.27737 0
M  V30 7614 N 713.107 -5.20548 1.56622 0
M  V30 7615 H 716.909 -2.65244 1.26582 0
M  V30 7616 H 714.423 -1.4195 0.788919 0
M  V30 7617 H 716.42 -4.10552 -0.724774 0
M  V30 7618 H 715.08 -3.02286 -1.18547 0
M  V30 7619 H 716.091 -4.73884 2.08937 0
M  V30 7620 H 712.768 -4.15341 -0.424016 0
M  V30 7621 H 714.158 -5.89563 3.22282 0
M  V30 7622 N 716.879 -0.700114 -1.41195 0
M  V30 7623 C 718.104 -0.240704 -2.05998 0
M  V30 7624 C 718.529 1.10313 -1.52357 0
M  V30 7625 O 717.887 1.69154 -0.652424 0
M  V30 7626 C 717.935 -0.213783 -3.59966 0
M  V30 7627 O 717.039 0.809933 -4.04368 0
M  V30 7628 H 716.38 -0.116471 -0.653705 0
M  V30 7629 H 718.91 -0.956251 -1.80878 0
M  V30 7630 H 718.92 -0.0461852 -4.07974 0
M  V30 7631 H 717.595 -1.19454 -3.98376 0
M  V30 7632 H 716.172 0.611319 -3.67855 0
M  V30 7633 N 718.357 1.51182 -0.445186 0
M  V30 7634 C 719.634 1.9478 0.178965 0
M  V30 7635 C 720.014 1.38428 1.59376 0
M  V30 7636 O 719.362 0.574552 2.21159 0
M  V30 7637 C 719.572 3.48683 0.148711 0
M  V30 7638 C 720.92 4.23152 0.35042 0
M  V30 7639 O 721.944 3.55479 0.226474 0
M  V30 7640 O 720.803 5.4322 0.597893 0
M  V30 7641 H 717.897 0.817387 0.12573 0
M  V30 7642 H 720.443 1.62051 -0.503729 0
M  V30 7643 H 719.215 3.82176 -0.84009 0
M  V30 7644 H 718.838 3.87875 0.873979 0
M  V30 7645 N 719.835 0.176821 1.56605 0
M  V30 7646 C 720.783 -0.768159 2.1955 0
M  V30 7647 C 721.777 -1.23343 1.16116 0
M  V30 7648 O 722.983 -1.19844 1.34303 0
M  V30 7649 H 719.358 -0.266013 0.703378 0
M  V30 7650 H 721.329 -0.213374 2.97636 0
M  V30 7651 C 720.078 -1.98492 2.85475 0
M  V30 7652 H 719.401 -1.63595 3.64797 0
M  V30 7653 H 720.841 -2.62489 3.3298 0
M  V30 7654 C 719.3 -2.81207 1.85538 0
M  V30 7655 O 719.83 -3.7854 1.34427 0
M  V30 7656 N 718.036 -2.46331 1.54173 0
M  V30 7657 H 717.583 -1.67241 1.95929 0
M  V30 7658 H 717.541 -3.01961 0.875595 0
M  V30 7659 N 721.313 -1.57302 -0.09688 0
M  V30 7660 C 722.562 -1.85183 -0.799388 0
M  V30 7661 C 722.875 -0.765818 -1.79985 0
M  V30 7662 O 724.081 -0.931696 -2.55013 0
M  V30 7663 C 722.537 -3.28399 -1.47249 0
M  V30 7664 C 722.145 -4.45066 -0.511888 0
M  V30 7665 C 723.889 -3.65506 -2.15883 0
M  V30 7666 C 721.796 -5.79315 -1.18948 0
M  V30 7667 H 720.726 -0.690752 -0.302287 0
M  V30 7668 H 723.377 -1.83425 -0.0523104 0
M  V30 7669 H 721.759 -3.24692 -2.26697 0
M  V30 7670 H 722.933 -4.60116 0.250962 0
M  V30 7671 H 721.248 -4.16343 0.0686576 0
M  V30 7672 H 723.845 -4.63087 -2.67309 0
M  V30 7673 H 724.188 -2.94041 -2.94696 0
M  V30 7674 H 724.721 -3.71094 -1.43298 0
M  V30 7675 H 721.46 -6.54007 -0.442198 0
M  V30 7676 H 720.98 -5.68111 -1.9238 0
M  V30 7677 H 722.659 -6.23816 -1.71646 0
M  V30 7678 N 722.791 0.367657 -1.53252 0
M  V30 7679 C 724.021 1.12955 -1.72988 0
M  V30 7680 C 724.429 1.8358 -0.457708 0
M  V30 7681 O 723.772 1.74336 0.579006 0
M  V30 7682 C 723.834 2.20545 -2.83902 0
M  V30 7683 C 723.498 1.69704 -4.24323 0
M  V30 7684 C 724.495 1.16223 -5.06743 0
M  V30 7685 C 722.18 1.7528 -4.70725 0
M  V30 7686 C 724.174 0.689935 -6.33655 0
M  V30 7687 C 721.861 1.27662 -5.97617 0
M  V30 7688 C 722.859 0.746083 -6.78913 0
M  V30 7689 O 722.547 0.276925 -8.03423 0
M  V30 7690 H 722.279 0.343753 -0.582074 0
M  V30 7691 H 724.833 0.433106 -2.00782 0
M  V30 7692 H 723.063 2.93676 -2.51577 0
M  V30 7693 H 724.752 2.82111 -2.91836 0
M  V30 7694 H 725.518 1.11256 -4.72067 0
M  V30 7695 H 721.397 2.15515 -4.07522 0
M  V30 7696 H 724.941 0.275164 -6.97057 0
M  V30 7697 H 720.838 1.32322 -6.31792 0
M  V30 7698 H 721.606 0.396445 -8.17539 0
M  V30 7699 N 724.269 1.44576 0.627338 0
M  V30 7700 C 725.516 1.47558 1.38682 0
M  V30 7701 C 725.844 0.109636 1.94191 0
M  V30 7702 O 725.099 -0.889092 1.74338 0
M  V30 7703 C 725.398 2.48644 2.56731 0
M  V30 7704 C 725.064 3.93873 2.19489 0
M  V30 7705 C 723.726 4.33421 2.09045 0
M  V30 7706 C 726.078 4.85286 1.90124 0
M  V30 7707 C 723.406 5.62303 1.6743 0
M  V30 7708 C 725.758 6.14559 1.50001 0
M  V30 7709 C 724.422 6.53058 1.38101 0
M  V30 7710 H 723.692 0.539955 0.507474 0
M  V30 7711 H 726.339 1.77811 0.711021 0
M  V30 7712 H 724.644 2.11889 3.29561 0
M  V30 7713 H 726.341 2.48197 3.14959 0
M  V30 7714 H 722.931 3.62587 2.28537 0
M  V30 7715 H 727.115 4.55483 1.971 0
M  V30 7716 H 722.371 5.90945 1.56823 0
M  V30 7717 H 726.545 6.84848 1.26319 0
M  V30 7718 H 724.172 7.52826 1.05628 0
M  V30 7719 N 725.747 -0.868086 1.31537 0
M  V30 7720 C 726.71 -1.95703 1.19302 0
M  V30 7721 C 727.71 -1.60355 0.119612 0
M  V30 7722 O 728.9 -1.70247 0.36902 0
M  V30 7723 C 726.032 -3.30599 0.831684 0
M  V30 7724 H 727.225 -2.07982 2.16064 0
M  V30 7725 H 724.778 -1.05661 1.15176 0
M  V30 7726 H 725.513 -3.2402 -0.134694 0
M  V30 7727 H 725.298 -3.57629 1.60761 0
M  V30 7728 H 726.788 -4.10439 0.770026 0
M  V30 7729 N 727.225 -1.14528 -1.08264 0
M  V30 7730 C 728.157 -0.791325 -2.15106 0
M  V30 7731 C 729.17 0.192449 -1.61659 0
M  V30 7732 O 730.359 -0.0294704 -1.78476 0
M  V30 7733 C 727.459 -0.154183 -3.38549 0
M  V30 7734 C 726.632 -1.17305 -4.21377 0
M  V30 7735 C 725.691 -0.559401 -5.23218 0
M  V30 7736 O 724.717 -1.22277 -5.55911 0
M  V30 7737 N 725.919 0.663159 -5.767 0
M  V30 7738 H 728.684 -1.71076 -2.46075 0
M  V30 7739 H 726.245 -1.0399 -1.24087 0
M  V30 7740 H 728.237 0.268884 -4.03806 0
M  V30 7741 H 726.807 0.668418 -3.0537 0
M  V30 7742 H 726.027 -1.773 -3.52077 0
M  V30 7743 H 727.315 -1.86128 -4.73533 0
M  V30 7744 H 726.713 1.22066 -5.52373 0
M  V30 7745 H 725.27 1.02871 -6.43631 0
M  V30 7746 N 728.703 1.26451 -0.940633 0
M  V30 7747 C 729.613 2.30128 -0.455881 0
M  V30 7748 C 730.629 1.67536 0.469867 0
M  V30 7749 O 731.805 1.98344 0.349529 0
M  V30 7750 C 728.87 3.45634 0.271648 0
M  V30 7751 C 727.931 4.23709 -0.690594 0
M  V30 7752 C 727.164 5.337 0.00231047 0
M  V30 7753 O 727.387 5.57215 1.21935 0
M  V30 7754 O 726.321 5.98091 -0.676111 0
M  V30 7755 H 730.147 2.73655 -1.31707 0
M  V30 7756 H 727.732 1.3164 -0.706497 0
M  V30 7757 H 729.614 4.15853 0.681486 0
M  V30 7758 H 728.289 3.04138 1.10824 0
M  V30 7759 H 727.196 3.55974 -1.15037 0
M  V30 7760 H 728.529 4.68953 -1.49478 0
M  V30 7761 N 730.181 0.707592 1.40822 0
M  V30 7762 C 731.429 0.243189 2.00632 0
M  V30 7763 C 731.75 -1.16512 1.56365 0
M  V30 7764 O 731.02 -1.78841 0.799553 0
M  V30 7765 H 729.6 0.0869203 0.741926 0
M  V30 7766 H 732.262 0.911438 1.72275 0
M  V30 7767 H 731.358 0.270014 3.1093 0
M  V30 7768 N 731.66 -1.50943 0.453197 0
M  V30 7769 C 732.59 -2.31005 -0.34044 0
M  V30 7770 C 733.571 -1.37112 -1.00669 0
M  V30 7771 O 734.756 -1.66033 -1.0073 0
M  V30 7772 C 731.886 -3.16358 -1.433 0
M  V30 7773 C 730.84 -4.18658 -0.889363 0
M  V30 7774 C 730.166 -4.92633 -2.07887 0
M  V30 7775 C 731.466 -5.22227 0.0871142 0
M  V30 7776 H 733.16 -2.97601 0.327723 0
M  V30 7777 H 730.706 -1.43119 0.159054 0
M  V30 7778 H 732.659 -3.71155 -1.99555 0
M  V30 7779 H 731.383 -2.47613 -2.12968 0
M  V30 7780 H 730.042 -3.64936 -0.348915 0
M  V30 7781 H 729.69 -4.20376 -2.76211 0
M  V30 7782 H 729.39 -5.61819 -1.72143 0
M  V30 7783 H 730.914 -5.50258 -2.64666 0
M  V30 7784 H 732.328 -5.72001 -0.385656 0
M  V30 7785 H 730.725 -5.99032 0.357926 0
M  V30 7786 H 731.795 -4.74077 1.01879 0
M  V30 7787 N 733.138 -0.185124 -1.56509 0
M  V30 7788 C 734.048 0.751908 -2.22224 0
M  V30 7789 C 735.064 1.24244 -1.21817 0
M  V30 7790 O 736.24 1.29169 -1.54523 0
M  V30 7791 C 733.305 1.95837 -2.86092 0
M  V30 7792 C 732.366 1.51337 -4.01741 0
M  V30 7793 C 731.599 2.66233 -4.62554 0
M  V30 7794 O 731.822 3.8346 -4.22273 0
M  V30 7795 O 730.756 2.39517 -5.52191 0
M  V30 7796 H 734.582 0.222304 -3.02885 0
M  V30 7797 H 732.167 0.0437141 -1.49336 0
M  V30 7798 H 734.049 2.66368 -3.26536 0
M  V30 7799 H 732.724 2.47677 -2.08417 0
M  V30 7800 H 731.631 0.777155 -3.65939 0
M  V30 7801 H 732.964 1.04175 -4.81049 0
M  V30 7802 N 734.616 1.57351 0.0885366 0
M  V30 7803 C 735.865 1.85604 0.789556 0
M  V30 7804 C 736.178 0.775352 1.79576 0
M  V30 7805 O 737.384 0.945206 2.54515 0
M  V30 7806 C 735.84 3.29175 1.45506 0
M  V30 7807 C 735.448 4.45331 0.488278 0
M  V30 7808 C 737.192 3.66646 2.13942 0
M  V30 7809 C 735.099 5.79937 1.15874 0
M  V30 7810 H 734.029 0.692346 0.298619 0
M  V30 7811 H 736.68 1.83451 0.0425821 0
M  V30 7812 H 735.062 3.25889 2.24972 0
M  V30 7813 H 736.236 4.59977 -0.275359 0
M  V30 7814 H 734.551 4.16301 -0.0907363 0
M  V30 7815 H 737.148 4.64498 2.6485 0
M  V30 7816 H 737.491 2.956 2.93132 0
M  V30 7817 H 738.024 3.71848 1.41328 0
M  V30 7818 H 734.763 6.54232 0.407508 0
M  V30 7819 H 734.283 5.69123 1.89364 0
M  V30 7820 H 735.962 6.24718 1.68336 0
M  V30 7821 N 736.094 -0.359525 1.53444 0
M  V30 7822 C 737.342 -1.09935 1.69584 0
M  V30 7823 C 737.663 -1.89656 0.453371 0
M  V30 7824 O 736.933 -1.8852 -0.53263 0
M  V30 7825 H 735.513 -0.408843 0.625185 0
M  V30 7826 H 738.175 -0.40467 1.90653 0
M  V30 7827 H 737.271 -1.78575 2.55964 0
M  V30 7828 N 737.572 -1.44907 -0.619662 0
M  V30 7829 C 738.519 -1.52654 -1.73105 0
M  V30 7830 C 739.489 -0.373334 -1.6185 0
M  V30 7831 O 740.674 -0.585143 -1.81606 0
M  V30 7832 C 737.814 -1.48769 -3.11387 0
M  V30 7833 C 736.927 -2.74551 -3.33535 0
M  V30 7834 C 736.062 -2.62421 -4.61854 0
M  V30 7835 C 735.101 -3.83312 -4.77219 0
M  V30 7836 N 734.238 -3.69789 -5.96826 0
M  V30 7837 H 739.078 -2.47605 -1.65819 0
M  V30 7838 H 736.615 -1.22875 -0.808719 0
M  V30 7839 H 738.573 -1.44507 -3.91374 0
M  V30 7840 H 737.203 -0.573783 -3.1766 0
M  V30 7841 H 736.255 -2.88953 -2.47408 0
M  V30 7842 H 737.567 -3.64253 -3.40765 0
M  V30 7843 H 736.721 -2.56056 -5.50019 0
M  V30 7844 H 735.46 -1.70298 -4.57001 0
M  V30 7845 H 734.465 -3.90049 -3.87481 0
M  V30 7846 H 735.69 -4.76486 -4.83878 0
M  V30 7847 H 733.636 -2.80426 -5.93041 0
M  V30 7848 H 733.553 -4.53116 -6.05163 0
M  V30 7849 H 734.821 -3.67335 -6.87521 0
M  V30 7850 N 739.05 0.861098 -1.31996 0
M  V30 7851 C 740.327 1.59788 -1.12814 0
M  V30 7852 C 740.707 2.08753 0.313882 0
M  V30 7853 O 740.055 1.87258 1.30946 0
M  V30 7854 C 740.265 2.74901 -2.15012 0
M  V30 7855 C 741.613 3.44643 -2.48004 0
M  V30 7856 O 742.637 2.85119 -2.13508 0
M  V30 7857 O 741.496 4.52044 -3.07113 0
M  V30 7858 H 738.59 0.703408 -0.434909 0
M  V30 7859 H 741.136 0.905788 -1.43505 0
M  V30 7860 H 739.908 2.36198 -3.11971 0
M  V30 7861 H 739.531 3.51792 -1.85279 0
M  V30 7862 N 740.528 1.15101 1.07655 0
M  V30 7863 C 741.475 0.844958 2.14777 0
M  V30 7864 C 742.445 -0.200798 1.64882 0
M  V30 7865 O 743.63 -0.0690278 1.90675 0
M  V30 7866 C 740.77 0.337018 3.4345 0
M  V30 7867 C 739.883 1.44398 4.07153 0
M  V30 7868 C 739.018 0.892487 5.23649 0
M  V30 7869 C 738.057 1.9766 5.79307 0
M  V30 7870 N 737.194 1.44171 6.87138 0
M  V30 7871 H 742.034 1.76242 2.40297 0
M  V30 7872 H 739.571 0.879435 1.17917 0
M  V30 7873 H 741.529 0.024256 4.17193 0
M  V30 7874 H 740.159 -0.543531 3.18191 0
M  V30 7875 H 739.211 1.87299 3.31094 0
M  V30 7876 H 740.523 2.26262 4.4453 0
M  V30 7877 H 739.677 0.532083 6.04362 0
M  V30 7878 H 738.416 0.0429854 4.87681 0
M  V30 7879 H 737.421 2.34586 4.97242 0
M  V30 7880 H 738.646 2.82982 6.17331 0
M  V30 7881 H 736.592 0.614518 6.53115 0
M  V30 7882 H 736.509 2.19665 7.23383 0
M  V30 7883 H 737.777 1.10945 7.71564 0
M  V30 7884 N 742.006 -1.2595 0.947325 0
M  V30 7885 C 742.936 -2.28521 0.479604 0
M  V30 7886 C 743.917 -1.63469 -0.470293 0
M  V30 7887 O 745.102 -1.90627 -0.370824 0
M  V30 7888 C 742.232 -3.46397 -0.250289 0
M  V30 7889 C 741.186 -4.23578 0.613643 0
M  V30 7890 C 740.512 -5.34131 -0.246568 0
M  V30 7891 C 741.812 -4.86979 1.88809 0
M  V30 7892 H 743.506 -2.67895 1.33688 0
M  V30 7893 H 741.052 -1.28783 0.644274 0
M  V30 7894 H 743.005 -4.17269 -0.588576 0
M  V30 7895 H 741.729 -3.05993 -1.14175 0
M  V30 7896 H 740.388 -3.54478 0.93491 0
M  V30 7897 H 740.036 -4.89968 -1.13756 0
M  V30 7898 H 739.736 -5.86683 0.328123 0
M  V30 7899 H 741.26 -6.07839 -0.579986 0
M  V30 7900 H 742.674 -5.50034 1.61666 0
M  V30 7901 H 741.071 -5.49675 2.40784 0
M  V30 7902 H 742.141 -4.09575 2.5957 0
M  V30 7903 N 743.484 -0.715051 -1.40445 0
M  V30 7904 C 744.712 -0.263959 -2.05209 0
M  V30 7905 C 745.127 1.09403 -1.53871 0
M  V30 7906 O 744.484 1.68746 -0.695064 0
M  V30 7907 C 744.535 -0.234545 -3.60738 0
M  V30 7908 O 744.256 -1.53891 -4.10182 0
M  V30 7909 C 745.757 0.235164 -4.42676 0
M  V30 7910 H 742.977 -0.11876 -0.660407 0
M  V30 7911 H 745.521 -0.973107 -1.79864 0
M  V30 7912 H 743.676 0.425563 -3.85055 0
M  V30 7913 H 744.09 -1.43903 -5.04373 0
M  V30 7914 H 745.564 0.204598 -5.51621 0
M  V30 7915 H 746.041 1.27724 -4.20218 0
M  V30 7916 H 746.647 -0.394649 -4.23465 0
M  V30 7917 N 744.962 1.50701 -0.461195 0
M  V30 7918 C 745.925 2.2686 0.326679 0
M  V30 7919 C 746.925 1.31243 0.929085 0
M  V30 7920 O 748.115 1.54754 0.799807 0
M  V30 7921 C 745.247 3.07844 1.46441 0
M  V30 7922 H 746.44 2.97954 -0.341095 0
M  V30 7923 H 743.993 1.54814 -0.214984 0
M  V30 7924 H 744.728 2.41223 2.16753 0
M  V30 7925 H 744.513 3.78101 1.03836 0
M  V30 7926 H 746.003 3.65469 2.02044 0
M  V30 7927 N 746.441 0.193421 1.56409 0
M  V30 7928 C 747.689 -0.444908 1.97142 0
M  V30 7929 C 748.01 -1.62268 1.08139 0
M  V30 7930 O 747.28 -1.95307 0.152326 0
M  V30 7931 H 745.86 -0.16736 0.728011 0
M  V30 7932 H 748.522 0.279763 1.92882 0
M  V30 7933 H 747.618 -0.790159 3.01932 0
M  V30 7934 N 747.919 -1.57396 -0.0801906 0
M  V30 7935 C 748.849 -2.06145 -1.09665 0
M  V30 7936 C 749.83 -0.953273 -1.40878 0
M  V30 7937 O 751.015 -1.22548 -1.50651 0
M  V30 7938 C 748.145 -2.49836 -2.41245 0
M  V30 7939 C 747.099 -3.64454 -2.24405 0
M  V30 7940 C 746.425 -3.94172 -3.61293 0
M  V30 7941 C 747.725 -4.94807 -1.67223 0
M  V30 7942 H 749.419 -2.91316 -0.691028 0
M  V30 7943 H 746.965 -1.40145 -0.330957 0
M  V30 7944 H 748.918 -2.82552 -3.12638 0
M  V30 7945 H 747.642 -1.61683 -2.83771 0
M  V30 7946 H 746.301 -3.32008 -1.55454 0
M  V30 7947 H 745.949 -3.03163 -4.01374 0
M  V30 7948 H 745.649 -4.71345 -3.50867 0
M  V30 7949 H 747.173 -4.29376 -4.3413 0
M  V30 7950 H 748.587 -5.25807 -2.28472 0
M  V30 7951 H 746.984 -5.76245 -1.67515 0
M  V30 7952 H 748.054 -4.80751 -0.632944 0
M  V30 7953 N 749.397 0.351382 -1.53633 0
M  V30 7954 C 750.344 1.43115 -1.81071 0
M  V30 7955 C 751.314 1.52601 -0.655913 0
M  V30 7956 O 752.499 1.68264 -0.89955 0
M  V30 7957 C 749.639 2.79874 -2.01903 0
M  V30 7958 C 748.752 2.79242 -3.29618 0
M  V30 7959 C 747.887 4.07667 -3.40559 0
M  V30 7960 C 746.926 4.01233 -4.62254 0
M  V30 7961 N 746.063 5.21334 -4.70271 0
M  V30 7962 H 750.903 1.19017 -2.73201 0
M  V30 7963 H 748.44 0.576691 -1.35324 0
M  V30 7964 H 750.398 3.5934 -2.11969 0
M  V30 7965 H 749.028 3.0234 -1.13094 0
M  V30 7966 H 748.08 1.91927 -3.28433 0
M  V30 7967 H 749.392 2.70363 -4.19172 0
M  V30 7968 H 748.546 4.95555 -3.50015 0
M  V30 7969 H 747.285 4.19317 -2.49047 0
M  V30 7970 H 746.29 3.11732 -4.52884 0
M  V30 7971 H 747.515 3.91173 -5.55122 0
M  V30 7972 H 745.461 5.33543 -3.81665 0
M  V30 7973 H 745.378 5.14681 -5.5375 0
M  V30 7974 H 746.646 6.11014 -4.84027 0
M  V30 7975 N 750.875 1.45233 0.611969 0
M  V30 7976 C 751.822 1.5357 1.72293 0
M  V30 7977 C 752.792 0.381912 1.6165 0
M  V30 7978 O 753.977 0.594765 1.81293 0
M  V30 7979 C 751.117 1.50419 3.10593 0
M  V30 7980 C 750.23 2.76316 3.32074 0
M  V30 7981 C 749.365 2.64866 4.60456 0
M  V30 7982 C 748.404 3.85838 4.7518 0
M  V30 7983 N 747.541 3.72949 5.94856 0
M  V30 7984 H 752.381 2.4848 1.64504 0
M  V30 7985 H 749.918 1.23302 0.802191 0
M  V30 7986 H 751.876 1.4658 3.90602 0
M  V30 7987 H 750.506 0.590621 3.17351 0
M  V30 7988 H 749.558 2.90261 2.45872 0
M  V30 7989 H 750.87 3.66055 3.38829 0
M  V30 7990 H 750.024 2.58969 5.48653 0
M  V30 7991 H 748.763 1.72719 4.56092 0
M  V30 7992 H 747.768 3.92099 3.85407 0
M  V30 7993 H 748.993 4.79045 4.81344 0
M  V30 7994 H 746.939 2.83567 5.91545 0
M  V30 7995 H 746.856 4.56319 6.02751 0
M  V30 7996 H 748.124 3.70976 6.85563 0
M  V30 7997 N 752.353 -0.854086 1.3245 0
M  V30 7998 C 753.6 -1.60831 1.23043 0
M  V30 7999 C 753.928 -1.93389 -0.2076 0
M  V30 8000 O 753.183 -1.5756 -1.16075 0
M  V30 8001 C 753.482 -2.93746 2.03587 0
M  V30 8002 C 753.148 -2.80615 3.52939 0
M  V30 8003 C 751.81 -2.76742 3.93659 0
M  V30 8004 C 754.162 -2.66507 4.4791 0
M  V30 8005 C 751.49 -2.56638 5.27592 0
M  V30 8006 C 753.842 -2.47939 5.81987 0
M  V30 8007 C 752.506 -2.42458 6.21909 0
M  V30 8008 H 751.776 -0.588523 0.450247 0
M  V30 8009 H 754.423 -0.990699 1.63882 0
M  V30 8010 H 752.728 -3.5963 1.55478 0
M  V30 8011 H 754.425 -3.51127 1.93677 0
M  V30 8012 H 751.015 -2.84456 3.20598 0
M  V30 8013 H 755.199 -2.68544 4.1737 0
M  V30 8014 H 750.455 -2.50831 5.57579 0
M  V30 8015 H 754.629 -2.36002 6.55192 0
M  V30 8016 H 752.256 -2.2664 7.2563 0
M  V30 8017 N 753.831 -1.1567 -1.07043 0
M  V30 8018 C 755.108 -0.843948 -1.76456 0
M  V30 8019 C 755.488 0.659806 -2.00524 0
M  V30 8020 O 754.836 1.60518 -1.62623 0
M  V30 8021 C 755.046 -1.65822 -3.0709 0
M  V30 8022 C 756.394 -1.8664 -3.8138 0
M  V30 8023 O 757.418 -1.62624 -3.1691 0
M  V30 8024 O 756.277 -2.26884 -4.97178 0
M  V30 8025 H 753.371 -0.310677 -0.766426 0
M  V30 8026 H 755.917 -1.26266 -1.1338 0
M  V30 8027 H 754.689 -2.67902 -2.85209 0
M  V30 8028 H 754.312 -1.23605 -3.77899 0
M  V30 8029 N 755.309 1.25446 -0.953992 0
M  V30 8030 C 756.556 1.93143 -0.608429 0
M  V30 8031 C 756.884 1.74727 0.854451 0
M  V30 8032 O 756.139 1.0855 1.62836 0
M  V30 8033 C 756.438 3.45555 -0.912496 0
M  V30 8034 C 756.104 3.84126 -2.36131 0
M  V30 8035 C 754.766 3.94367 -2.75732 0
M  V30 8036 C 757.118 4.0324 -3.30223 0
M  V30 8037 C 754.446 4.21127 -4.08496 0
M  V30 8038 C 756.798 4.31493 -4.62598 0
M  V30 8039 C 755.462 4.3995 -5.01996 0
M  V30 8040 H 754.732 0.706762 -0.22264 0
M  V30 8041 H 757.379 1.49005 -1.20291 0
M  V30 8042 H 755.684 3.91091 -0.235618 0
M  V30 8043 H 757.381 3.9612 -0.623714 0
M  V30 8044 H 753.971 3.76711 -2.04418 0
M  V30 8045 H 758.155 3.94744 -3.00817 0
M  V30 8046 H 753.411 4.2589 -4.38665 0
M  V30 8047 H 757.585 4.45227 -5.35486 0
M  V30 8048 H 755.212 4.60439 -6.04896 0
M  V30 8049 N 756.787 0.722489 1.40064 0
M  V30 8050 C 758.064 0.191829 1.94657 0
M  V30 8051 C 758.444 -1.30389 1.66018 0
M  V30 8052 O 757.792 -2.06342 0.981588 0
M  V30 8053 C 758.002 0.511978 3.45224 0
M  V30 8054 C 759.35 0.454426 4.22161 0
M  V30 8055 O 760.374 0.448438 3.53366 0
M  V30 8056 O 759.233 0.437986 5.44742 0
M  V30 8057 H 756.327 0.0307821 0.826427 0
M  V30 8058 H 758.873 0.800493 1.49634 0
M  V30 8059 H 757.645 1.54622 3.59455 0
M  V30 8060 H 757.268 -0.126296 3.97399 0
M  V30 8061 N 758.265 -1.50454 0.469181 0
M  V30 8062 C 759.212 -2.28486 -0.325982 0
M  V30 8063 C 760.182 -1.33455 -0.988893 0
M  V30 8064 O 761.367 -1.6239 -1.0017 0
M  V30 8065 C 758.507 -3.15288 -1.40313 0
M  V30 8066 C 757.62 -4.25348 -0.755183 0
M  V30 8067 C 756.755 -4.9941 -1.81006 0
M  V30 8068 C 755.794 -6.01348 -1.14226 0
M  V30 8069 N 754.931 -6.68695 -2.1399 0
M  V30 8070 H 759.771 -2.95987 0.345753 0
M  V30 8071 H 757.308 -1.45965 0.182355 0
M  V30 8072 H 759.266 -3.63964 -2.03927 0
M  V30 8073 H 757.896 -2.49837 -2.04405 0
M  V30 8074 H 756.948 -3.80399 -0.00651901 0
M  V30 8075 H 758.26 -4.98279 -0.227941 0
M  V30 8076 H 757.414 -5.51794 -2.52206 0
M  V30 8077 H 756.153 -4.26181 -2.3711 0
M  V30 8078 H 755.158 -5.48225 -0.415876 0
M  V30 8079 H 756.383 -6.76548 -0.588135 0
M  V30 8080 H 754.329 -5.98258 -2.69115 0
M  V30 8081 H 754.246 -7.37495 -1.66246 0
M  V30 8082 H 755.514 -7.25697 -2.84576 0
M  V30 8083 N 759.743 -0.201713 -1.56304 0
M  V30 8084 C 760.653 0.728296 -2.23009 0
M  V30 8085 C 761.669 1.22945 -1.23128 0
M  V30 8086 O 762.845 1.27523 -1.55884 0
M  V30 8087 C 759.91 1.92792 -2.88153 0
M  V30 8088 C 758.971 1.47068 -4.03323 0
M  V30 8089 C 758.204 2.61312 -4.65351 0
M  V30 8090 O 758.427 3.7896 -4.26317 0
M  V30 8091 O 757.361 2.33646 -5.54701 0
M  V30 8092 H 761.187 0.190166 -3.03104 0
M  V30 8093 H 758.772 0.0278725 -1.49374 0
M  V30 8094 H 760.654 2.6289 -3.29343 0
M  V30 8095 H 759.329 2.45452 -2.11033 0
M  V30 8096 H 758.236 0.738299 -3.66742 0
M  V30 8097 H 759.569 0.990666 -4.82127 0
M  V30 8098 N 761.222 1.57436 0.0718424 0
M  V30 8099 C 762.452 1.91196 0.782795 0
M  V30 8100 C 762.86 0.795927 1.71644 0
M  V30 8101 O 762.203 -0.239604 1.82131 0
M  V30 8102 C 762.265 3.20421 1.63005 0
M  V30 8103 C 761.929 4.48724 0.865782 0
M  V30 8104 C 762.926 5.19571 0.185051 0
M  V30 8105 C 760.611 4.95345 0.832971 0
M  V30 8106 C 762.605 6.3529 -0.518264 0
M  V30 8107 C 760.292 6.1097 0.125884 0
M  V30 8108 C 761.29 6.80794 -0.548533 0
M  V30 8109 O 760.978 7.94213 -1.24423 0
M  V30 8110 H 760.71 0.636486 0.227731 0
M  V30 8111 H 763.264 2.05348 0.0464187 0
M  V30 8112 H 761.494 3.02478 2.40923 0
M  V30 8113 H 763.183 3.39831 2.21968 0
M  V30 8114 H 763.949 4.8458 0.201707 0
M  V30 8115 H 759.828 4.40871 1.34737 0
M  V30 8116 H 763.372 6.89725 -1.04523 0
M  V30 8117 H 759.269 6.45411 0.107155 0
M  V30 8118 H 760.037 8.10331 -1.1535 0
M  V30 8119 N 762.7 -0.34323 1.53817 0
M  V30 8120 C 763.648 -1.44176 1.82527 0
M  V30 8121 C 764.642 -1.54452 0.695772 0
M  V30 8122 O 765.848 -1.57072 0.879114 0
M  V30 8123 H 762.223 -0.480729 0.578277 0
M  V30 8124 H 764.194 -1.17176 2.74431 0
M  V30 8125 C 762.943 -2.80695 2.05197 0
M  V30 8126 H 762.266 -2.73554 2.91561 0
M  V30 8127 H 763.706 -3.56679 2.29251 0
M  V30 8128 C 762.165 -3.26322 0.837589 0
M  V30 8129 O 762.695 -4.01683 0.0371631 0
M  V30 8130 N 760.901 -2.83128 0.654724 0
M  V30 8131 H 760.448 -2.21965 1.30725 0
M  V30 8132 H 760.406 -3.14011 -0.156345 0
M  V30 8133 N 764.178 -1.45556 -0.604258 0
M  V30 8134 C 765.108 -1.57327 -1.72541 0
M  V30 8135 C 766.089 -0.424637 -1.64714 0
M  V30 8136 O 767.274 -0.648196 -1.83063 0
M  V30 8137 C 764.404 -1.54279 -3.11152 0
M  V30 8138 C 763.358 -2.67893 -3.33792 0
M  V30 8139 C 762.684 -2.499 -4.72709 0
M  V30 8140 C 763.984 -4.0988 -3.23722 0
M  V30 8141 H 765.678 -2.51175 -1.62947 0
M  V30 8142 H 763.224 -1.20884 -0.782504 0
M  V30 8143 H 765.177 -1.6111 -3.89386 0
M  V30 8144 H 763.901 -0.569627 -3.21594 0
M  V30 8145 H 762.56 -2.60495 -2.57949 0
M  V30 8146 H 762.208 -1.50715 -4.79889 0
M  V30 8147 H 761.908 -3.26091 -4.88813 0
M  V30 8148 H 763.432 -2.5859 -5.5314 0
M  V30 8149 H 764.846 -4.18503 -3.91826 0
M  V30 8150 H 763.243 -4.86487 -3.51355 0
M  V30 8151 H 764.313 -4.31553 -2.21111 0
M  V30 8152 N 765.656 0.84705 -1.32902 0
M  V30 8153 C 767.067 1.41785 -1.21466 0
M  V30 8154 C 767.418 1.95464 0.169767 0
M  V30 8155 O 766.543 1.88157 1.06892 0
M  V30 8156 C 767.138 2.57734 -2.19906 0
M  V30 8157 C 765.697 3.10791 -2.12334 0
M  V30 8158 C 764.844 1.83562 -2.07847 0
M  V30 8159 H 767.795 0.653532 -1.44619 0
M  V30 8160 H 767.816 3.35123 -1.80202 0
M  V30 8161 H 767.328 2.18635 -3.20656 0
M  V30 8162 H 765.429 3.54455 -1.14858 0
M  V30 8163 H 765.542 3.71519 -3.02506 0
M  V30 8164 H 763.906 2.03475 -1.53199 0
M  V30 8165 H 764.689 1.4667 -3.10392 0
M  V30 8166 N 767.134 1.16236 1.06428 0
M  V30 8167 C 768.381 0.943034 1.79201 0
M  V30 8168 C 768.709 -0.529243 1.87161 0
M  V30 8169 O 767.964 -1.40874 1.35842 0
M  V30 8170 C 768.263 1.51396 3.2375 0
M  V30 8171 C 767.929 3.00833 3.35873 0
M  V30 8172 C 766.591 3.41626 3.38888 0
M  V30 8173 C 768.943 3.96825 3.37904 0
M  V30 8174 C 766.271 4.77033 3.4155 0
M  V30 8175 C 768.623 5.32116 3.42104 0
M  V30 8176 C 767.287 5.72392 3.43401 0
M  V30 8177 H 766.557 0.34508 0.655744 0
M  V30 8178 H 769.204 1.44929 1.25171 0
M  V30 8179 H 767.509 0.929114 3.80624 0
M  V30 8180 H 769.206 1.31996 3.78653 0
M  V30 8181 H 765.796 2.68306 3.3423 0
M  V30 8182 H 769.98 3.66376 3.34787 0
M  V30 8183 H 765.236 5.07569 3.40858 0
M  V30 8184 H 769.41 6.06286 3.42623 0
M  V30 8185 H 767.037 6.77296 3.45216 0
M  V30 8186 N 768.612 -1.24939 0.960631 0
M  V30 8187 C 769.84 -1.96881 0.636045 0
M  V30 8188 C 770.255 -1.71334 -0.793093 0
M  V30 8189 O 769.612 -0.992917 -1.53125 0
M  V30 8190 C 769.663 -3.50309 0.892533 0
M  V30 8191 O 769.384 -3.74977 2.26548 0
M  V30 8192 C 770.885 -4.39474 0.581159 0
M  V30 8193 H 768.105 -0.627399 0.237931 0
M  V30 8194 H 770.649 -1.58952 1.28664 0
M  V30 8195 H 768.804 -3.86326 0.288257 0
M  V30 8196 H 769.218 -4.69401 2.34014 0
M  V30 8197 H 770.692 -5.46008 0.811125 0
M  V30 8198 H 771.169 -4.3652 -0.48443 0
M  V30 8199 H 771.775 -4.09032 1.16502 0
M  V30 8200 N 770.09 -0.729906 -1.39679 0
M  V30 8201 C 771.023 -0.0354454 -2.28172 0
M  V30 8202 C 772.001 0.752968 -1.44115 0
M  V30 8203 O 773.185 0.736599 -1.73512 0
M  V30 8204 C 770.312 0.957047 -3.24897 0
M  V30 8205 C 769.358 0.257734 -4.25721 0
M  V30 8206 S 770.191 -1.02466 -5.25605 0
M  V30 8207 C 771.347 -0.0346322 -6.2589 0
M  V30 8208 H 771.58 -0.785922 -2.86724 0
M  V30 8209 H 769.113 -0.521497 -1.45326 0
M  V30 8210 H 771.071 1.52441 -3.81146 0
M  V30 8211 H 769.732 1.68033 -2.65375 0
M  V30 8212 H 768.925 1.00854 -4.93806 0
M  V30 8213 H 768.527 -0.237454 -3.73245 0
M  V30 8214 H 770.819 0.807464 -6.72671 0
M  V30 8215 H 771.762 -0.682491 -7.04803 0
M  V30 8216 H 772.17 0.335492 -5.63502 0
M  V30 8217 N 771.568 1.50203 -0.477153 0
M  V30 8218 C 772.515 2.28656 0.31386 0
M  V30 8219 C 773.485 1.33977 0.981802 0
M  V30 8220 O 774.67 1.62919 0.993072 0
M  V30 8221 C 771.81 3.16027 1.38639 0
M  V30 8222 C 770.923 4.25743 0.732615 0
M  V30 8223 C 770.058 5.00363 1.78355 0
M  V30 8224 C 769.097 6.01945 1.11035 0
M  V30 8225 N 768.234 6.6982 2.10441 0
M  V30 8226 H 773.074 2.958 -0.361445 0
M  V30 8227 H 770.611 1.45867 -0.190093 0
M  V30 8228 H 772.569 3.6504 2.01994 0
M  V30 8229 H 771.199 2.50917 2.03077 0
M  V30 8230 H 770.251 3.80398 -0.0136546 0
M  V30 8231 H 771.563 4.98393 0.201513 0
M  V30 8232 H 770.717 5.53124 2.49276 0
M  V30 8233 H 769.456 4.27432 2.34847 0
M  V30 8234 H 768.461 5.48438 0.386797 0
M  V30 8235 H 769.686 6.76851 0.552248 0
M  V30 8236 H 767.632 5.99677 2.65939 0
M  V30 8237 H 767.549 7.38366 1.62332 0
M  V30 8238 H 768.817 7.27196 2.80724 0
M  V30 8239 N 773.046 0.209999 1.56195 0
M  V30 8240 C 774.457 -0.299943 1.84275 0
M  V30 8241 C 774.808 -1.60314 1.1311 0
M  V30 8242 O 773.933 -2.1273 0.396874 0
M  V30 8243 C 774.528 -0.550986 3.3429 0
M  V30 8244 C 773.087 -1.00526 3.62728 0
M  V30 8245 C 772.234 -0.0619828 2.77231 0
M  V30 8246 H 775.185 0.433458 1.52666 0
M  V30 8247 H 775.206 -1.39846 3.53869 0
M  V30 8248 H 774.718 0.397669 3.86057 0
M  V30 8249 H 772.819 -1.96768 3.16407 0
M  V30 8250 H 772.932 -0.887664 4.70805 0
M  V30 8251 H 771.296 -0.566648 2.48317 0
M  V30 8252 H 772.079 0.881383 3.31793 0
M  V30 8253 N 774.524 -1.57472 -0.0634922 0
M  V30 8254 C 775.487 -2.03268 -1.059 0
M  V30 8255 C 776.487 -0.931028 -1.31105 0
M  V30 8256 O 777.677 -1.19567 -1.26686 0
M  V30 8257 C 774.809 -2.42039 -2.40062 0
M  V30 8258 H 776.002 -2.92454 -0.664119 0
M  V30 8259 H 773.555 -1.53206 -0.309444 0
M  V30 8260 H 774.29 -1.55904 -2.84367 0
M  V30 8261 H 774.075 -3.22437 -2.23108 0
M  V30 8262 H 775.565 -2.78017 -3.11603 0
M  V30 8263 N 776.003 0.335068 -1.53997 0
M  V30 8264 C 776.935 1.4327 -1.78903 0
M  V30 8265 C 777.948 1.48347 -0.670598 0
M  V30 8266 O 779.137 1.51277 -0.947494 0
M  V30 8267 C 776.237 2.81878 -1.88144 0
M  V30 8268 C 775.41 3.00141 -3.18174 0
M  V30 8269 C 774.469 4.19041 -3.18263 0
M  V30 8270 O 773.495 4.12751 -3.9195 0
M  V30 8271 N 774.697 5.28004 -2.41231 0
M  V30 8272 H 777.462 1.22272 -2.73623 0
M  V30 8273 H 775.023 0.524996 -1.53152 0
M  V30 8274 H 777.015 3.59609 -1.85644 0
M  V30 8275 H 775.585 2.9598 -1.00572 0
M  V30 8276 H 774.805 2.09808 -3.33728 0
M  V30 8277 H 776.093 3.0923 -4.04047 0
M  V30 8278 H 775.491 5.35986 -1.8093 0
M  V30 8279 H 774.048 6.04196 -2.44521 0
M  V30 8280 N 777.481 1.45874 0.596531 0
M  V30 8281 C 778.73 1.49737 1.35135 0
M  V30 8282 C 779.043 0.147755 1.95041 0
M  V30 8283 O 780.249 0.0640984 2.71424 0
M  V30 8284 C 778.705 2.6378 2.44843 0
M  V30 8285 C 778.313 4.05102 1.91301 0
M  V30 8286 C 780.057 2.769 3.21755 0
M  V30 8287 C 777.964 5.10508 2.98557 0
M  V30 8288 H 776.894 0.557219 0.507959 0
M  V30 8289 H 779.545 1.72046 0.638147 0
M  V30 8290 H 777.927 2.34774 3.189 0
M  V30 8291 H 779.101 4.43836 1.2388 0
M  V30 8292 H 777.416 3.96528 1.271 0
M  V30 8293 H 780.013 3.52819 4.01775 0
M  V30 8294 H 780.356 1.83924 3.73467 0
M  V30 8295 H 780.889 3.05485 2.54802 0
M  V30 8296 H 777.628 6.0523 2.51749 0
M  V30 8297 H 777.148 4.76332 3.6451 0
M  V30 8298 H 778.827 5.35745 3.62748 0
M  V30 8299 N 778.959 -0.83999 1.33349 0
M  V30 8300 C 780.184 -1.63249 1.27924 0
M  V30 8301 C 780.609 -1.87523 -0.147193 0
M  V30 8302 O 779.967 -1.43853 -1.10345 0
M  V30 8303 C 780.015 -2.96046 2.05886 0
M  V30 8304 O 779.119 -3.87303 1.4167 0
M  V30 8305 H 778.46 -0.49715 0.440157 0
M  V30 8306 H 780.99 -1.04512 1.75893 0
M  V30 8307 H 781 -3.45752 2.16609 0
M  V30 8308 H 779.675 -2.77701 3.09605 0
M  V30 8309 H 778.252 -3.45789 1.39585 0
M  V30 8310 N 780.437 -1.16799 -1.0581 0
M  V30 8311 C 781.385 -0.875111 -2.1551 0
M  V30 8312 C 782.379 0.157781 -1.68664 0
M  V30 8313 O 783.585 0.011297 -1.79996 0
M  V30 8314 H 779.96 -0.26542 -0.703602 0
M  V30 8315 H 781.931 -1.8076 -2.37421 0
M  V30 8316 C 780.68 -0.39802 -3.45414 0
M  V30 8317 H 780.003 -1.18425 -3.81858 0
M  V30 8318 H 781.443 -0.231913 -4.23365 0
M  V30 8319 C 779.902 0.88327 -3.25115 0
M  V30 8320 O 780.432 1.95145 -3.51114 0
M  V30 8321 N 778.638 0.828961 -2.78526 0
M  V30 8322 H 778.185 -0.0405029 -2.57568 0
M  V30 8323 H 778.143 1.68673 -2.65324 0
M  V30 8324 N 781.915 1.24427 -0.967243 0
M  V30 8325 C 783.192 1.87831 -0.545776 0
M  V30 8326 C 783.572 1.87126 0.977099 0
M  V30 8327 O 782.92 1.34357 1.84826 0
M  V30 8328 C 783.13 3.29967 -1.13679 0
M  V30 8329 C 784.478 4.06654 -1.22139 0
M  V30 8330 O 785.502 3.39136 -1.08926 0
M  V30 8331 O 784.361 5.27455 -1.43017 0
M  V30 8332 H 781.455 0.806745 -0.181912 0
M  V30 8333 H 784.001 1.32403 -1.06148 0
M  V30 8334 H 782.773 3.24977 -2.17958 0
M  V30 8335 H 782.396 3.92969 -0.605093 0
M  V30 8336 N 783.393 0.737304 1.3929 0
M  V30 8337 C 784.641 0.285691 2.00071 0
M  V30 8338 C 784.962 -1.13169 1.58801 0
M  V30 8339 O 784.232 -1.77104 0.837308 0
M  V30 8340 H 782.812 0.102638 0.739915 0
M  V30 8341 H 785.474 0.947775 1.70303 0
M  V30 8342 H 784.57 0.335906 3.10287 0
M  V30 8343 N 784.871 -1.49948 0.485112 0
M  V30 8344 C 785.801 -2.31675 -0.291364 0
M  V30 8345 C 786.782 -1.39216 -0.977383 0
M  V30 8346 O 787.967 -1.68133 -0.971855 0
M  V30 8347 C 785.097 -3.19326 -1.36558 0
M  V30 8348 C 784.051 -4.2045 -0.800359 0
M  V30 8349 C 783.377 -4.96931 -1.97391 0
M  V30 8350 C 784.677 -5.21925 0.197867 0
M  V30 8351 H 786.371 -2.96839 0.390775 0
M  V30 8352 H 783.917 -1.42749 0.189375 0
M  V30 8353 H 785.87 -3.75304 -1.91638 0
M  V30 8354 H 784.594 -2.52074 -2.07668 0
M  V30 8355 H 783.253 -3.65594 -0.271428 0
M  V30 8356 H 782.901 -4.26141 -2.67232 0
M  V30 8357 H 782.601 -5.65344 -1.60187 0
M  V30 8358 H 784.125 -5.55749 -2.52935 0
M  V30 8359 H 785.539 -5.72691 -0.264239 0
M  V30 8360 H 783.936 -5.98138 0.484908 0
M  V30 8361 H 785.006 -4.71809 1.11912 0
M  V30 8362 N 786.349 -0.21828 -1.56081 0
M  V30 8363 C 787.297 0.709679 -2.21509 0
M  V30 8364 C 788.291 1.20221 -1.19346 0
M  V30 8365 O 789.497 1.16241 -1.37433 0
M  V30 8366 H 785.872 0.247271 -0.710184 0
M  V30 8367 H 787.843 0.134386 -2.98097 0
M  V30 8368 C 786.592 1.90853 -2.90638 0
M  V30 8369 H 785.915 1.53865 -3.69006 0
M  V30 8370 H 787.355 2.53568 -3.39822 0
M  V30 8371 C 785.814 2.76189 -1.92929 0
M  V30 8372 O 786.344 3.74842 -1.44416 0
M  V30 8373 N 784.55 2.42157 -1.6065 0
M  V30 8374 H 784.097 1.61987 -2.00294 0
M  V30 8375 H 784.055 2.99534 -0.955347 0
M  V30 8376 N 787.827 1.57504 0.0551401 0
M  V30 8377 C 789.052 1.92682 0.767352 0
M  V30 8378 C 789.477 0.81614 1.69472 0
M  V30 8379 O 788.835 -0.229989 1.79835 0
M  V30 8380 C 788.883 3.26866 1.52286 0
M  V30 8381 O 787.987 3.17274 2.63459 0
M  V30 8382 H 787.328 0.630502 0.208238 0
M  V30 8383 H 789.858 2.04592 0.0184026 0
M  V30 8384 H 789.868 3.61138 1.8985 0
M  V30 8385 H 788.543 4.07276 0.842541 0
M  V30 8386 H 787.12 2.94589 2.2863 0
M  V30 8387 N 789.305 -0.326896 1.54172 0
M  V30 8388 C 790.215 -1.42525 1.86343 0
M  V30 8389 C 791.231 -1.56764 0.75505 0
M  V30 8390 O 792.407 -1.71924 1.04901 0
M  V30 8391 C 789.472 -2.77286 2.08119 0
M  V30 8392 C 788.533 -2.7225 3.31931 0
M  V30 8393 C 787.766 -4.00584 3.52659 0
M  V30 8394 O 787.989 -4.98686 2.76891 0
M  V30 8395 O 786.923 -4.04045 4.46129 0
M  V30 8396 H 790.749 -1.18249 2.79734 0
M  V30 8397 H 788.334 -0.520614 1.40036 0
M  V30 8398 H 790.216 -3.57065 2.23791 0
M  V30 8399 H 788.891 -3.01459 1.17917 0
M  V30 8400 H 787.798 -1.91033 3.21647 0
M  V30 8401 H 789.131 -2.53032 4.2218 0
M  V30 8402 N 790.784 -1.46188 -0.588786 0
M  V30 8403 C 792.033 -1.50452 -1.34339 0
M  V30 8404 C 792.346 -0.158096 -1.9496 0
M  V30 8405 O 793.552 -0.0784918 -2.71387 0
M  V30 8406 C 792.008 -2.65074 -2.43441 0
M  V30 8407 C 791.616 -4.06111 -1.8915 0
M  V30 8408 C 793.36 -2.78603 -3.20282 0
M  V30 8409 C 791.267 -5.12084 -2.95845 0
M  V30 8410 H 790.197 -0.559905 -0.504997 0
M  V30 8411 H 792.848 -1.72382 -0.629014 0
M  V30 8412 H 791.23 -2.36462 -3.1765 0
M  V30 8413 H 792.404 -4.44487 -1.21524 0
M  V30 8414 H 790.719 -3.97197 -1.24995 0
M  V30 8415 H 793.316 -3.54944 -3.99898 0
M  V30 8416 H 793.659 -1.85902 -3.72486 0
M  V30 8417 H 794.192 -3.06832 -2.53178 0
M  V30 8418 H 790.931 -6.06556 -2.48535 0
M  V30 8419 H 790.451 -4.78259 -3.61979 0
M  V30 8420 H 792.13 -5.37661 -3.59902 0
M  V30 8421 N 792.262 0.832906 -1.33792 0
M  V30 8422 C 793.192 1.95828 -1.27176 0
M  V30 8423 C 794.173 1.69427 -0.15114 0
M  V30 8424 O 795.358 1.91167 -0.341886 0
M  V30 8425 C 792.488 3.32098 -1.01629 0
M  V30 8426 C 791.442 3.72912 -2.10049 0
M  V30 8427 C 790.768 5.07054 -1.69706 0
M  V30 8428 C 792.068 3.86064 -3.51783 0
M  V30 8429 H 793.762 2.01622 -2.21334 0
M  V30 8430 H 791.308 0.96866 -1.0655 0
M  V30 8431 H 793.261 4.10402 -0.956474 0
M  V30 8432 H 791.985 3.26577 -0.0390956 0
M  V30 8433 H 790.644 2.96876 -2.15082 0
M  V30 8434 H 790.292 4.9801 -0.706737 0
M  V30 8435 H 789.992 5.35333 -2.42264 0
M  V30 8436 H 791.516 5.87827 -1.65202 0
M  V30 8437 H 792.93 4.54665 -3.49218 0
M  V30 8438 H 791.327 4.25787 -4.22878 0
M  V30 8439 H 792.397 2.88344 -3.89854 0
M  V30 8440 N 793.74 1.17359 1.05189 0
M  V30 8441 C 794.67 0.91365 2.14883 0
M  V30 8442 C 795.651 -0.144365 1.69486 0
M  V30 8443 O 796.836 0.00587861 1.94199 0
M  V30 8444 C 793.966 0.426196 3.44675 0
M  V30 8445 C 792.92 1.4234 4.03638 0
M  V30 8446 C 792.246 0.793902 5.28773 0
M  V30 8447 C 793.546 2.7966 4.41121 0
M  V30 8448 H 795.24 1.831 2.36885 0
M  V30 8449 H 792.786 0.881781 1.13845 0
M  V30 8450 H 794.739 0.231767 4.20762 0
M  V30 8451 H 793.463 -0.526693 3.22325 0
M  V30 8452 H 792.122 1.60457 3.2962 0
M  V30 8453 H 791.77 -0.165824 5.02727 0
M  V30 8454 H 791.47 1.45959 5.69183 0
M  V30 8455 H 792.994 0.609747 6.07548 0
M  V30 8456 H 794.408 2.6526 5.08242 0
M  V30 8457 H 792.805 3.42807 4.92548 0
M  V30 8458 H 793.875 3.34068 3.51464 0
M  V30 8459 N 795.218 -1.23913 0.973828 0
M  V30 8460 C 796.181 -2.23367 0.51378 0
M  V30 8461 C 797.181 -1.55923 -0.39302 0
M  V30 8462 O 798.371 -1.73187 -0.187626 0
M  V30 8463 C 795.503 -3.39944 -0.255152 0
M  V30 8464 H 796.696 -2.65581 1.39307 0
M  V30 8465 H 794.249 -1.36632 0.759039 0
M  V30 8466 H 794.984 -3.03177 -1.15127 0
M  V30 8467 H 794.769 -3.90098 0.395673 0
M  V30 8468 H 796.259 -4.13749 -0.565842 0
M  V30 8469 N 796.696 -0.74468 -1.38897 0
M  V30 8470 C 797.973 -0.222773 -1.94327 0
M  V30 8471 C 798.353 1.27731 -1.68071 0
M  V30 8472 O 797.701 2.04754 -1.01429 0
M  V30 8473 C 797.911 -0.566836 -3.44366 0
M  V30 8474 C 799.259 -0.521531 -4.21385 0
M  V30 8475 O 800.283 -0.504599 -3.52608 0
M  V30 8476 O 799.142 -0.524595 -5.43976 0
M  V30 8477 H 796.236 -0.0439259 -0.825833 0
M  V30 8478 H 798.782 -0.824197 -1.48341 0
M  V30 8479 H 797.554 -1.60321 -3.56949 0
M  V30 8480 H 797.177 0.0630577 -3.9755 0
M  V30 8481 N 798.174 1.49689 -0.493057 0
M  V30 8482 C 799.402 2.06836 0.0513141 0
M  V30 8483 C 799.817 1.35436 1.31539 0
M  V30 8484 O 799.174 0.430248 1.77356 0
M  V30 8485 C 799.225 3.60107 0.317003 0
M  V30 8486 O 798.946 4.2882 -0.896957 0
M  V30 8487 C 800.447 4.33945 0.905902 0
M  V30 8488 H 797.667 0.670787 -0.0169048 0
M  V30 8489 H 800.211 1.92574 -0.688139 0
M  V30 8490 H 798.366 3.74099 1.00642 0
M  V30 8491 H 798.78 5.20395 -0.654939 0
M  V30 8492 H 800.254 5.42087 1.04144 0
M  V30 8493 H 800.731 3.95895 1.90168 0
M  V30 8494 H 801.337 4.2454 0.254195 0
M  V30 8495 N 799.652 0.226554 1.55963 0
M  V30 8496 C 800.877 -0.411527 2.03276 0
M  V30 8497 C 801.302 -1.52206 1.10521 0
M  V30 8498 O 800.66 -1.81054 0.0943217 0
M  V30 8499 C 800.708 -0.915694 3.4878 0
M  V30 8500 O 799.812 -2.02672 3.59163 0
M  V30 8501 H 799.153 -0.0924907 0.657527 0
M  V30 8502 H 801.683 0.346656 2.01642 0
M  V30 8503 H 801.693 -1.22421 3.892 0
M  V30 8504 H 800.368 -0.102915 4.15773 0
M  V30 8505 H 798.945 -1.72445 3.30632 0
M  V30 8506 N 801.13 -1.57531 -0.0467866 0
M  V30 8507 C 802.36 -1.92417 -0.752279 0
M  V30 8508 C 802.768 -0.823134 -1.70356 0
M  V30 8509 O 802.111 0.210598 -1.82489 0
M  V30 8510 C 802.173 -3.22974 -1.57887 0
M  V30 8511 C 801.837 -4.50045 -0.794285 0
M  V30 8512 C 802.834 -5.19799 -0.102368 0
M  V30 8513 C 800.519 -4.96608 -0.754061 0
M  V30 8514 C 802.513 -6.34385 0.619267 0
M  V30 8515 C 800.2 -6.11093 -0.0286682 0
M  V30 8516 C 801.198 -6.79835 0.656772 0
M  V30 8517 O 800.886 -7.92133 1.37042 0
M  V30 8518 H 800.618 -0.640029 -0.217576 0
M  V30 8519 H 803.172 -2.05395 -0.0137438 0
M  V30 8520 H 801.402 -3.06273 -2.3608 0
M  V30 8521 H 803.091 -3.43319 -2.16533 0
M  V30 8522 H 803.857 -4.8484 -0.124589 0
M  V30 8523 H 799.736 -4.42958 -1.27706 0
M  V30 8524 H 803.28 -6.87975 1.15483 0
M  V30 8525 H 799.177 -6.455 -0.00446214 0
M  V30 8526 H 799.945 -8.08394 1.28227 0
M  V30 8527 N 802.608 0.318715 -1.54344 0
M  V30 8528 C 803.856 1.054 -1.72439 0
M  V30 8529 C 804.177 1.88388 -0.503495 0
M  V30 8530 O 803.447 1.89866 0.48246 0
M  V30 8531 H 802.027 0.392124 -0.635805 0
M  V30 8532 H 804.689 0.35398 -1.91659 0
M  V30 8533 H 803.785 1.71726 -2.60608 0
M  V30 8534 N 804.086 1.46499 0.581025 0
M  V30 8535 C 805.018 1.53225 1.70455 0
M  V30 8536 C 806.031 0.420443 1.57277 0
M  V30 8537 O 807.22 0.688888 1.64671 0
M  V30 8538 C 804.32 1.39803 3.08721 0
M  V30 8539 C 803.493 2.65132 3.47884 0
M  V30 8540 C 802.552 2.45886 4.65217 0
M  V30 8541 O 801.578 3.19615 4.70993 0
M  V30 8542 N 802.78 1.5216 5.60203 0
M  V30 8543 H 805.545 2.50098 1.65139 0
M  V30 8544 H 803.106 1.42576 0.76705 0
M  V30 8545 H 805.098 1.24697 3.8501 0
M  V30 8546 H 803.668 0.51104 3.08394 0
M  V30 8547 H 802.888 2.95169 2.61284 0
M  V30 8548 H 804.176 3.48385 3.70817 0
M  V30 8549 H 803.574 0.913646 5.58273 0
M  V30 8550 H 802.131 1.43017 6.35916 0
M  V30 8551 N 805.565 -0.825799 1.34232 0
M  V30 8552 C 806.813 -1.57873 1.26177 0
M  V30 8553 C 807.134 -1.94267 -0.168904 0
M  V30 8554 O 806.404 -1.62045 -1.10084 0
M  V30 8555 H 804.984 -0.585388 0.464037 0
M  V30 8556 H 807.646 -0.986163 1.6811 0
M  V30 8557 H 806.742 -2.50283 1.86453 0
M  V30 8558 N 807.043 -1.17915 -1.04565 0
M  V30 8559 C 807.953 -0.916449 -2.15959 0
M  V30 8560 C 808.969 0.117655 -1.73602 0
M  V30 8561 O 810.145 -0.063089 -2.01301 0
M  V30 8562 C 807.21 -0.440262 -3.43893 0
M  V30 8563 C 806.271 -1.54172 -4.00661 0
M  V30 8564 C 805.504 -1.08816 -5.22489 0
M  V30 8565 O 805.727 0.0551547 -5.70373 0
M  V30 8566 O 804.661 -1.88383 -5.7166 0
M  V30 8567 H 808.487 -1.8484 -2.40972 0
M  V30 8568 H 806.072 -0.960552 -1.14428 0
M  V30 8569 H 807.954 -0.182537 -4.21004 0
M  V30 8570 H 806.629 0.46346 -3.20365 0
M  V30 8571 H 805.536 -1.85341 -3.24961 0
M  V30 8572 H 806.869 -2.42139 -4.2852 0
M  V30 8573 N 808.521 1.23394 -0.980386 0
M  V30 8574 C 809.451 2.2717 -0.540024 0
M  V30 8575 C 810.432 1.64659 0.426787 0
M  V30 8576 O 811.617 1.91543 0.320153 0
M  V30 8577 C 808.747 3.46939 0.15836 0
M  V30 8578 C 807.701 4.21802 -0.725732 0
M  V30 8579 C 807.027 5.34597 0.104866 0
M  V30 8580 C 808.327 4.81802 -2.01654 0
M  V30 8581 H 810.021 2.64257 -1.40743 0
M  V30 8582 H 807.567 1.2703 -0.678193 0
M  V30 8583 H 809.52 4.18683 0.477737 0
M  V30 8584 H 808.244 3.08912 1.06022 0
M  V30 8585 H 806.903 3.51875 -1.02857 0
M  V30 8586 H 806.551 4.92812 1.00726 0
M  V30 8587 H 806.251 5.85607 -0.483557 0
M  V30 8588 H 807.775 6.09163 0.418624 0
M  V30 8589 H 809.189 5.45554 -1.76193 0
M  V30 8590 H 807.586 5.43098 -2.55273 0
M  V30 8591 H 808.656 4.02549 -2.70338 0
M  V30 8592 N 809.999 0.752036 1.385 0
M  V30 8593 C 810.929 0.138718 2.33088 0
M  V30 8594 C 811.91 -0.705318 1.54788 0
M  V30 8595 O 813.095 -0.646821 1.83112 0
M  V30 8596 C 810.225 -0.75641 3.38963 0
M  V30 8597 C 809.179 -0.0152239 4.27997 0
M  V30 8598 C 808.505 -1.0285 5.24715 0
M  V30 8599 C 809.805 1.15226 5.09431 0
M  V30 8600 H 811.499 0.928852 2.84627 0
M  V30 8601 H 809.045 0.448111 1.3685 0
M  V30 8602 H 810.998 -1.19513 4.04097 0
M  V30 8603 H 809.722 -1.57885 2.85902 0
M  V30 8604 H 808.381 0.404061 3.64366 0
M  V30 8605 H 808.029 -1.84496 4.67943 0
M  V30 8606 H 807.729 -0.537238 5.85139 0
M  V30 8607 H 809.253 -1.46657 5.92726 0
M  V30 8608 H 810.667 0.791161 5.67815 0
M  V30 8609 H 809.064 1.57428 5.79082 0
M  V30 8610 H 810.134 1.9659 4.43261 0
M  V30 8611 N 811.477 -1.49425 0.500989 0
M  V30 8612 C 812.41 -2.25887 -0.324087 0
M  V30 8613 C 813.388 -1.30469 -0.970388 0
M  V30 8614 O 814.572 -1.59758 -1.00049 0
M  V30 8615 C 811.699 -3.05787 -1.45643 0
M  V30 8616 C 810.745 -4.16359 -0.924508 0
M  V30 8617 S 811.578 -5.35181 0.184707 0
M  V30 8618 C 812.734 -6.18636 -0.950806 0
M  V30 8619 H 812.967 -2.95519 0.324891 0
M  V30 8620 H 810.5 -1.51723 0.286289 0
M  V30 8621 H 812.458 -3.52405 -2.10525 0
M  V30 8622 H 811.119 -2.35624 -2.07703 0
M  V30 8623 H 810.312 -4.71781 -1.77311 0
M  V30 8624 H 809.914 -3.72331 -0.352907 0
M  V30 8625 H 812.206 -6.51581 -1.85603 0
M  V30 8626 H 813.149 -7.06761 -0.435212 0
M  V30 8627 H 813.557 -5.512 -1.21813 0
M  V30 8628 N 812.955 -0.234822 -1.55841 0
M  V30 8629 C 814.18 0.400741 -2.03492 0
M  V30 8630 C 814.605 1.51618 -1.11327 0
M  V30 8631 O 813.963 1.81002 -0.103922 0
M  V30 8632 C 814.011 0.897184 -3.49261 0
M  V30 8633 O 813.115 2.00764 -3.60233 0
M  V30 8634 H 812.456 0.0890023 -0.658008 0
M  V30 8635 H 814.986 -0.357345 -2.01455 0
M  V30 8636 H 814.996 1.20356 -3.89844 0
M  V30 8637 H 813.671 0.0808639 -4.15821 0
M  V30 8638 H 812.248 1.70689 -3.31541 0
M  V30 8639 N 814.433 1.57553 0.0384317 0
M  V30 8640 C 815.844 1.77258 0.586211 0
M  V30 8641 C 816.195 0.864706 1.76117 0
M  V30 8642 O 815.32 0.057141 2.16325 0
M  V30 8643 C 815.915 3.21453 1.07021 0
M  V30 8644 C 814.474 3.42387 1.56358 0
M  V30 8645 C 813.621 2.72801 0.497508 0
M  V30 8646 H 816.572 1.57585 -0.187796 0
M  V30 8647 H 816.593 3.27451 1.93794 0
M  V30 8648 H 816.105 3.87505 0.214851 0
M  V30 8649 H 814.206 2.81497 2.44111 0
M  V30 8650 H 814.319 4.50968 1.61754 0
M  V30 8651 H 812.683 2.36305 0.95038 0
M  V30 8652 H 813.466 3.41529 -0.348234 0
M  V30 8653 N 815.911 -0.310526 1.54511 0
M  V30 8654 C 817.16 -1.0445 1.72549 0
M  V30 8655 C 817.473 -1.88748 0.513172 0
M  V30 8656 O 818.679 -2.65338 0.575165 0
M  V30 8657 C 817.135 -1.90665 3.05246 0
M  V30 8658 C 816.743 -1.11415 4.33925 0
M  V30 8659 C 818.487 -2.63719 3.32645 0
M  V30 8660 C 816.394 -1.96852 5.57677 0
M  V30 8661 H 815.324 -0.393676 0.643067 0
M  V30 8662 H 817.975 -0.302003 1.80998 0
M  V30 8663 H 816.357 -2.68864 2.90737 0
M  V30 8664 H 817.531 -0.378956 4.59239 0
M  V30 8665 H 815.846 -0.499853 4.13389 0
M  V30 8666 H 818.443 -3.27974 4.223 0
M  V30 8667 H 818.786 -3.32047 2.51098 0
M  V30 8668 H 819.319 -1.92574 3.48081 0
M  V30 8669 H 816.058 -1.33009 6.41864 0
M  V30 8670 H 815.578 -2.68069 5.36562 0
M  V30 8671 H 817.257 -2.55127 5.94575 0
M  V30 8672 N 817.389 -1.46805 -0.573248 0
M  V30 8673 C 818.321 -1.54127 -1.6964 0
M  V30 8674 C 819.334 -0.428778 -1.57052 0
M  V30 8675 O 820.523 -0.697612 -1.64303 0
M  V30 8676 C 817.623 -1.41438 -3.07975 0
M  V30 8677 C 816.796 -2.66974 -3.46474 0
M  V30 8678 C 815.855 -2.48349 -4.63906 0
M  V30 8679 O 814.881 -3.22109 -4.69292 0
M  V30 8680 N 816.083 -1.55129 -5.59388 0
M  V30 8681 H 818.848 -2.50971 -1.6381 0
M  V30 8682 H 816.409 -1.42981 -0.759479 0
M  V30 8683 H 818.401 -1.26737 -3.84343 0
M  V30 8684 H 816.971 -0.527388 -3.08119 0
M  V30 8685 H 816.191 -2.9655 -2.59715 0
M  V30 8686 H 817.479 -3.50347 -3.68964 0
M  V30 8687 H 816.877 -0.94324 -5.57781 0
M  V30 8688 H 815.434 -1.46387 -6.35149 0
M  V30 8689 N 818.867 0.818669 -1.34668 0
M  V30 8690 C 819.799 1.93754 -1.22442 0
M  V30 8691 C 820.812 1.62103 -0.150501 0
M  V30 8692 O 822.001 1.73898 -0.402728 0
M  V30 8693 C 819.101 3.27806 -0.860031 0
M  V30 8694 C 818.274 3.8745 -2.02981 0
M  V30 8695 C 817.333 4.99887 -1.64314 0
M  V30 8696 O 816.359 5.17957 -2.36029 0
M  V30 8697 N 817.561 5.77795 -0.55976 0
M  V30 8698 H 820.326 2.04773 -2.18833 0
M  V30 8699 H 817.887 0.995472 -1.27679 0
M  V30 8700 H 819.879 4.00478 -0.583068 0
M  V30 8701 H 818.449 3.12597 0.0138253 0
M  V30 8702 H 817.669 3.07119 -2.47127 0
M  V30 8703 H 818.957 4.2403 -2.81204 0
M  V30 8704 H 818.355 5.65688 0.0363329 0
M  V30 8705 H 816.912 6.50899 -0.342541 0
M  V30 8706 N 820.346 1.18468 1.03938 0
M  V30 8707 C 821.309 0.914944 2.10146 0
M  V30 8708 C 822.309 -0.10022 1.60487 0
M  V30 8709 O 823.499 0.133365 1.73689 0
M  V30 8710 C 820.631 0.372993 3.38853 0
M  V30 8711 H 821.824 1.85677 2.35508 0
M  V30 8712 H 819.377 0.996876 1.20383 0
M  V30 8713 H 820.112 -0.57538 3.19155 0
M  V30 8714 H 819.897 1.1048 3.76213 0
M  V30 8715 H 821.387 0.203014 4.17106 0
M  V30 8716 N 821.824 -1.22873 0.986916 0
M  V30 8717 C 823.073 -1.90772 0.654911 0
M  V30 8718 C 823.386 -1.77768 -0.81595 0
M  V30 8719 O 824.592 -2.40529 -1.25929 0
M  V30 8720 C 823.048 -3.42003 1.12081 0
M  V30 8721 C 822.656 -3.63655 2.61647 0
M  V30 8722 C 824.4 -4.15638 0.862854 0
M  V30 8723 C 822.307 -5.08555 3.01871 0
M  V30 8724 H 821.237 -0.714362 0.241252 0
M  V30 8725 H 823.888 -1.39196 1.19568 0
M  V30 8726 H 822.27 -3.92725 0.508207 0
M  V30 8727 H 823.444 -3.2345 3.28202 0
M  V30 8728 H 821.759 -3.03341 2.8526 0
M  V30 8729 H 824.356 -5.22425 1.13915 0
M  V30 8730 H 824.699 -4.15814 -0.201036 0
M  V30 8731 H 825.232 -3.70924 1.43736 0
M  V30 8732 H 821.971 -5.13514 4.07411 0
M  V30 8733 H 821.491 -5.49684 2.40015 0
M  V30 8734 H 823.17 -5.76936 2.92839 0
M  V30 8735 N 823.302 -0.75937 -1.38099 0
M  V30 8736 C 824.265 -0.14372 -2.28749 0
M  V30 8737 C 825.265 0.641338 -1.47457 0
M  V30 8738 O 826.455 0.466751 -1.67831 0
M  V30 8739 C 823.587 0.804545 -3.3127 0
M  V30 8740 H 824.78 -0.942663 -2.847 0
M  V30 8741 H 822.333 -0.526757 -1.47156 0
M  V30 8742 H 823.068 1.62895 -2.80421 0
M  V30 8743 H 822.853 0.243939 -3.9134 0
M  V30 8744 H 824.343 1.23111 -3.99041 0
M  V30 8745 N 824.78 1.49157 -0.508906 0
M  V30 8746 C 826.01 2.06579 0.0293308 0
M  V30 8747 C 826.418 1.36852 1.30645 0
M  V30 8748 O 825.761 0.443079 1.78276 0
M  V30 8749 C 825.823 3.57838 0.345296 0
M  V30 8750 C 825.487 4.49302 -0.835256 0
M  V30 8751 C 826.484 4.90345 -1.72793 0
M  V30 8752 C 824.169 4.91494 -1.0363 0
M  V30 8753 C 826.163 5.72327 -2.80573 0
M  V30 8754 C 823.85 5.7325 -2.11726 0
M  V30 8755 C 824.848 6.13572 -3.00032 0
M  V30 8756 O 824.536 6.93691 -4.06261 0
M  V30 8757 H 824.268 0.675679 -0.0208193 0
M  V30 8758 H 826.822 1.9282 -0.707789 0
M  V30 8759 H 825.052 3.69634 1.13612 0
M  V30 8760 H 826.741 3.97467 0.823089 0
M  V30 8761 H 827.507 4.58388 -1.58446 0
M  V30 8762 H 823.386 4.59605 -0.358308 0
M  V30 8763 H 826.93 6.03719 -3.49527 0
M  V30 8764 H 822.827 6.0462 -2.26065 0
M  V30 8765 H 823.595 7.12011 -4.03711 0
M  V30 8766 N 826.258 0.243083 1.55714 0
M  V30 8767 C 827.483 -0.389944 2.03701 0
M  V30 8768 C 827.908 -1.51025 1.12129 0
M  V30 8769 O 827.266 -1.80944 0.11352 0
M  V30 8770 C 827.314 -0.878649 3.49731 0
M  V30 8771 O 826.418 -1.98851 3.61292 0
M  V30 8772 H 825.759 -0.0855115 0.658471 0
M  V30 8773 H 828.289 0.368023 2.01263 0
M  V30 8774 H 828.299 -1.18287 3.90477 0
M  V30 8775 H 826.974 -0.0588107 4.15858 0
M  V30 8776 H 825.551 -1.68928 3.32442 0
M  V30 8777 N 827.736 -1.57571 -0.0300757 0
M  V30 8778 C 828.699 -2.05468 -1.01565 0
M  V30 8779 C 829.699 -0.958628 -1.29101 0
M  V30 8780 O 830.889 -1.22228 -1.24121 0
M  V30 8781 C 828.021 -2.47077 -2.34874 0
M  V30 8782 H 829.214 -2.93797 -0.601936 0
M  V30 8783 H 826.767 -1.53828 -0.276878 0
M  V30 8784 H 827.502 -1.61901 -2.80996 0
M  V30 8785 H 827.287 -3.27097 -2.16218 0
M  V30 8786 H 828.777 -2.84564 -3.05635 0
M  V30 8787 N 829.214 0.302327 -1.54673 0
M  V30 8788 C 830.463 1.03533 -1.73101 0
M  V30 8789 C 830.776 1.88473 -0.523174 0
M  V30 8790 O 831.982 2.65029 -0.589229 0
M  V30 8791 C 830.438 1.89043 -3.06252 0
M  V30 8792 C 830.046 1.09112 -4.3451 0
M  V30 8793 C 831.79 2.61951 -3.34039 0
M  V30 8794 C 829.697 1.93891 -5.58713 0
M  V30 8795 H 828.627 0.390261 -0.645145 0
M  V30 8796 H 831.278 0.2924 -1.81155 0
M  V30 8797 H 829.66 2.67319 -2.92159 0
M  V30 8798 H 830.834 0.354596 -4.59434 0
M  V30 8799 H 829.149 0.477923 -4.13648 0
M  V30 8800 H 831.746 3.25729 -4.24033 0
M  V30 8801 H 832.089 3.30711 -2.52855 0
M  V30 8802 H 832.622 1.90725 -3.49097 0
M  V30 8803 H 829.361 1.29604 -6.4256 0
M  V30 8804 H 828.881 2.6522 -5.37976 0
M  V30 8805 H 830.56 2.51971 -5.95919 0
M  V30 8806 N 830.692 1.47107 0.565454 0
M  V30 8807 C 831.655 1.58535 1.65527 0
M  V30 8808 C 832.655 0.461081 1.54048 0
M  V30 8809 O 833.845 0.725911 1.58355 0
M  V30 8810 C 830.977 1.52204 3.05036 0
M  V30 8811 H 832.17 2.55676 1.56747 0
M  V30 8812 H 829.723 1.35174 0.78471 0
M  V30 8813 H 830.458 0.564071 3.19357 0
M  V30 8814 H 830.243 2.3379 3.14777 0
M  V30 8815 H 831.733 1.63322 3.84338 0
M  V30 8816 N 832.17 -0.811516 1.35101 0
M  V30 8817 C 833.395 -1.60499 1.31358 0
M  V30 8818 C 833.82 -1.87793 -0.107383 0
M  V30 8819 O 833.178 -1.46161 -1.07268 0
M  V30 8820 C 833.226 -2.91612 2.12119 0
M  V30 8821 O 832.33 -3.84211 1.49853 0
M  V30 8822 H 831.671 -0.487702 0.450603 0
M  V30 8823 H 834.201 -1.00758 1.7807 0
M  V30 8824 H 834.211 -3.4108 2.23894 0
M  V30 8825 H 832.886 -2.71071 3.15426 0
M  V30 8826 H 831.463 -3.42751 1.46889 0
M  V30 8827 N 833.648 -1.19017 -1.03309 0
M  V30 8828 C 834.925 -0.899659 -1.73682 0
M  V30 8829 C 835.305 0.595677 -2.02521 0
M  V30 8830 O 834.653 1.55263 -1.67648 0
M  V30 8831 C 834.863 -1.75508 -3.01659 0
M  V30 8832 C 836.211 -1.98679 -3.75249 0
M  V30 8833 O 837.235 -1.72624 -3.11576 0
M  V30 8834 O 836.094 -2.42587 -4.89708 0
M  V30 8835 H 833.188 -0.334903 -0.756154 0
M  V30 8836 H 835.734 -1.29809 -1.09305 0
M  V30 8837 H 834.506 -2.7684 -2.76542 0
M  V30 8838 H 834.129 -1.35565 -3.73775 0
M  V30 8839 N 835.127 1.22348 -0.993418 0
M  V30 8840 C 836.375 1.90733 -0.668246 0
M  V30 8841 C 836.696 1.77732 0.802261 0
M  V30 8842 O 835.966 1.16486 1.57505 0
M  V30 8843 H 834.546 0.705966 -0.244174 0
M  V30 8844 H 837.208 1.48691 -1.26004 0
M  V30 8845 H 836.304 2.97883 -0.931239 0
M  V30 8846 N 836.605 0.766683 1.37694 0
M  V30 8847 C 837.552 0.147725 2.30327 0
M  V30 8848 C 838.522 -0.695366 1.50844 0
M  V30 8849 O 839.707 -0.64878 1.79431 0
M  V30 8850 C 836.847 -0.72935 3.37305 0
M  V30 8851 C 835.96 0.129795 4.31805 0
M  V30 8852 C 835.095 -0.751511 5.25857 0
M  V30 8853 C 834.134 0.110475 6.12 0
M  V30 8854 N 833.271 -0.728522 6.9831 0
M  V30 8855 H 838.111 0.943204 2.82679 0
M  V30 8856 H 835.648 0.476736 1.3916 0
M  V30 8857 H 837.606 -1.25263 3.97951 0
M  V30 8858 H 836.236 -1.49048 2.86329 0
M  V30 8859 H 835.288 0.770829 3.72508 0
M  V30 8860 H 836.6 0.794923 4.92425 0
M  V30 8861 H 835.754 -1.34146 5.91684 0
M  V30 8862 H 834.493 -1.45034 4.65636 0
M  V30 8863 H 833.498 0.712999 5.45157 0
M  V30 8864 H 834.723 0.806557 6.74293 0
M  V30 8865 H 832.669 -1.41206 6.40622 0
M  V30 8866 H 832.586 -0.12058 7.55904 0
M  V30 8867 H 833.854 -1.30303 7.68532 0
M  V30 8868 N 838.083 -1.48885 0.516809 0
M  V30 8869 C 839.016 -2.26218 -0.30011 0
M  V30 8870 C 839.994 -1.31491 -0.956496 0
M  V30 8871 O 841.178 -1.6081 -0.983488 0
M  V30 8872 C 838.305 -3.07315 -1.42392 0
M  V30 8873 C 837.351 -4.17316 -0.880295 0
M  V30 8874 S 838.184 -5.34955 0.24146 0
M  V30 8875 C 839.34 -6.1961 -0.885138 0
M  V30 8876 H 839.573 -2.95158 0.356217 0
M  V30 8877 H 837.106 -1.5141 0.302365 0
M  V30 8878 H 839.064 -3.54619 -2.06775 0
M  V30 8879 H 837.725 -2.37813 -2.05192 0
M  V30 8880 H 836.918 -4.73635 -1.72297 0
M  V30 8881 H 836.52 -3.72685 -0.313396 0
M  V30 8882 H 838.812 -6.53513 -1.78682 0
M  V30 8883 H 839.755 -7.07183 -0.360226 0
M  V30 8884 H 840.163 -5.52461 -1.1596 0
M  V30 8885 N 839.561 -0.251338 -1.55583 0
M  V30 8886 C 840.972 0.25098 -1.85005 0
M  V30 8887 C 841.323 1.57259 -1.17321 0
M  V30 8888 O 840.448 2.11603 -0.453136 0
M  V30 8889 C 841.043 0.462161 -3.35633 0
M  V30 8890 C 839.602 0.908737 -3.65266 0
M  V30 8891 C 838.749 -0.0115418 -2.77298 0
M  V30 8892 H 841.7 -0.473782 -1.51463 0
M  V30 8893 H 841.721 1.30415 -3.57452 0
M  V30 8894 H 841.233 -0.499886 -3.84867 0
M  V30 8895 H 839.334 1.8831 -3.21512 0
M  V30 8896 H 839.447 0.762526 -4.72993 0
M  V30 8897 H 837.811 0.500612 -2.49732 0
M  V30 8898 H 838.594 -0.969042 -3.29339 0
M  V30 8899 N 841.039 1.57585 0.0217189 0
M  V30 8900 C 842.269 1.9359 0.721572 0
M  V30 8901 C 842.677 0.850132 1.69025 0
M  V30 8902 O 842.02 -0.181539 1.82801 0
M  V30 8903 C 842.082 3.25445 1.52729 0
M  V30 8904 C 841.746 4.51251 0.722586 0
M  V30 8905 C 842.743 5.19896 0.0196598 0
M  V30 8906 C 840.428 4.97745 0.674959 0
M  V30 8907 C 842.422 6.33319 -0.720114 0
M  V30 8908 C 840.109 6.11062 -0.068555 0
M  V30 8909 C 841.107 6.78704 -0.764845 0
M  V30 8910 O 840.795 7.89852 -1.49627 0
M  V30 8911 H 840.527 0.643409 0.207366 0
M  V30 8912 H 843.081 2.05391 -0.0189346 0
M  V30 8913 H 841.311 3.0999 2.31178 0
M  V30 8914 H 843 3.46721 2.11044 0
M  V30 8915 H 843.766 4.84977 0.0474394 0
M  V30 8916 H 839.645 4.44934 1.20643 0
M  V30 8917 H 843.189 6.86051 -1.26413 0
M  V30 8918 H 839.086 6.45425 -0.0982318 0
M  V30 8919 H 839.854 8.06251 -1.41071 0
M  V30 8920 N 842.517 -0.29412 1.54831 0
M  V30 8921 C 843.928 -0.866651 1.65366 0
M  V30 8922 C 844.279 -1.87834 0.56681 0
M  V30 8923 O 843.404 -2.14374 -0.295389 0
M  V30 8924 C 843.999 -1.57869 2.99771 0
M  V30 8925 C 842.558 -2.09954 3.12404 0
M  V30 8926 C 841.705 -0.934492 2.6108 0
M  V30 8927 H 844.656 -0.0709551 1.58541 0
M  V30 8928 H 844.677 -2.44462 2.91579 0
M  V30 8929 H 844.189 -0.84212 3.78853 0
M  V30 8930 H 842.29 -2.86637 2.38055 0
M  V30 8931 H 842.403 -2.32934 4.18663 0
M  V30 8932 H 840.767 -1.32199 2.17705 0
M  V30 8933 H 841.55 -0.211768 3.42646 0
M  V30 8934 N 843.995 -1.47404 -0.557645 0
M  V30 8935 C 844.942 -1.59859 -1.66475 0
M  V30 8936 C 845.912 -0.441644 -1.60121 0
M  V30 8937 O 847.097 -0.661641 -1.78961 0
M  V30 8938 C 844.237 -1.61843 -3.04797 0
M  V30 8939 C 843.35 -2.8845 -3.2159 0
M  V30 8940 C 842.485 -2.81773 -4.50308 0
M  V30 8941 C 841.524 -4.03208 -4.60532 0
M  V30 8942 N 840.661 -3.94769 -5.80604 0
M  V30 8943 H 845.501 -2.54415 -1.55168 0
M  V30 8944 H 843.038 -1.26194 -0.755876 0
M  V30 8945 H 844.996 -1.60976 -3.84893 0
M  V30 8946 H 843.626 -0.707997 -3.1494 0
M  V30 8947 H 842.678 -2.99186 -2.34929 0
M  V30 8948 H 843.99 -3.78379 -3.25009 0
M  V30 8949 H 843.144 -2.79153 -5.38663 0
M  V30 8950 H 841.883 -1.89527 -4.49367 0
M  V30 8951 H 840.888 -4.06133 -3.70589 0
M  V30 8952 H 842.113 -4.9658 -4.63233 0
M  V30 8953 H 840.059 -3.05326 -5.80613 0
M  V30 8954 H 839.976 -4.78375 -5.854 0
M  V30 8955 H 841.244 -3.96165 -6.71322 0
M  V30 8956 N 845.473 0.80434 -1.35529 0
M  V30 8957 C 846.403 1.93086 -1.31301 0
M  V30 8958 C 847.384 1.69068 -0.187044 0
M  V30 8959 O 848.569 1.90399 -0.382359 0
M  V30 8960 C 845.699 3.29867 -1.0865 0
M  V30 8961 C 844.653 3.68373 -2.17911 0
M  V30 8962 C 843.979 5.0334 -1.80423 0
M  V30 8963 C 845.279 3.78516 -3.59893 0
M  V30 8964 H 846.973 1.96882 -2.25561 0
M  V30 8965 H 844.519 0.945841 -1.08581 0
M  V30 8966 H 846.472 4.08281 -1.04331 0
M  V30 8967 H 845.196 3.2642 -0.108359 0
M  V30 8968 H 843.855 2.92247 -2.21331 0
M  V30 8969 H 843.503 4.96399 -0.812213 0
M  V30 8970 H 843.203 5.30074 -2.53565 0
M  V30 8971 H 844.727 5.84191 -1.77633 0
M  V30 8972 H 846.141 4.47155 -3.58783 0
M  V30 8973 H 844.538 4.16721 -4.31814 0
M  V30 8974 H 845.608 2.8001 -3.95882 0
M  V30 8975 N 846.951 1.19563 1.02676 0
M  V30 8976 C 848.228 0.908857 1.73203 0
M  V30 8977 C 848.608 -0.584928 2.02834 0
M  V30 8978 O 847.956 -1.54372 1.68469 0
M  V30 8979 C 848.166 1.77105 3.00724 0
M  V30 8980 C 849.514 2.00667 3.7419 0
M  V30 8981 O 850.538 1.74274 3.10656 0
M  V30 8982 O 849.397 2.4518 4.88415 0
M  V30 8983 H 846.491 0.338909 0.754367 0
M  V30 8984 H 849.037 1.30387 1.08616 0
M  V30 8985 H 847.809 2.78303 2.7507 0
M  V30 8986 H 847.432 1.37546 3.73051 0
M  V30 8987 N 848.429 -1.21819 0.999893 0
M  V30 8988 C 849.657 -1.94758 0.698359 0
M  V30 8989 C 850.072 -1.73771 -0.738183 0
M  V30 8990 O 849.429 -1.04113 -1.49889 0
M  V30 8991 C 849.48 -3.47292 1.00353 0
M  V30 8992 O 849.201 -3.67579 2.38363 0
M  V30 8993 C 850.702 -4.37403 0.72068 0
M  V30 8994 H 847.922 -0.619512 0.257771 0
M  V30 8995 H 850.466 -1.54778 1.33656 0
M  V30 8996 H 848.621 -3.85213 0.411018 0
M  V30 8997 H 849.035 -4.61719 2.48829 0
M  V30 8998 H 850.509 -5.43151 0.984422 0
M  V30 8999 H 850.986 -4.3784 -0.345309 0
M  V30 9000 H 851.592 -4.05119 1.29456 0
M  V30 9001 N 849.908 -0.773975 -1.37286 0
M  V30 9002 C 850.855 -0.159938 -2.30245 0
M  V30 9003 C 851.825 0.687356 -1.51211 0
M  V30 9004 O 853.01 0.639255 -1.79773 0
M  V30 9005 C 850.15 0.711452 -3.37687 0
M  V30 9006 C 849.263 -0.152692 -4.3173 0
M  V30 9007 C 848.398 0.723613 -5.26248 0
M  V30 9008 C 847.437 -0.14293 -6.11933 0
M  V30 9009 N 846.574 0.691479 -6.98687 0
M  V30 9010 H 851.414 -0.958182 -2.82175 0
M  V30 9011 H 848.951 -0.48411 -1.38906 0
M  V30 9012 H 850.909 1.2315 -3.9861 0
M  V30 9013 H 849.539 1.47528 -2.87116 0
M  V30 9014 H 848.591 -0.790574 -3.72094 0
M  V30 9015 H 849.903 -0.821027 -4.91997 0
M  V30 9016 H 849.057 1.31006 -5.92387 0
M  V30 9017 H 847.796 1.42562 -4.66398 0
M  V30 9018 H 846.801 -0.7419 -5.44771 0
M  V30 9019 H 848.026 -0.842305 -6.73856 0
M  V30 9020 H 845.972 1.37806 -6.41362 0
M  V30 9021 H 845.889 0.0804911 -7.55957 0
M  V30 9022 H 847.157 1.26225 -7.69212 0
M  V30 9023 N 851.386 1.48609 -0.524698 0
M  V30 9024 C 852.296 2.33318 0.244923 0
M  V30 9025 C 853.312 1.46153 0.944214 0
M  V30 9026 O 854.488 1.79141 0.920347 0
M  V30 9027 C 851.553 3.22149 1.28144 0
M  V30 9028 C 850.614 4.25184 0.593068 0
M  V30 9029 C 849.847 5.0977 1.5802 0
M  V30 9030 O 850.07 4.96249 2.81235 0
M  V30 9031 O 849.004 5.9134 1.1225 0
M  V30 9032 H 852.83 3.00362 -0.449066 0
M  V30 9033 H 850.415 1.46643 -0.285689 0
M  V30 9034 H 852.297 3.77111 1.88057 0
M  V30 9035 H 850.972 2.57772 1.95793 0
M  V30 9036 H 849.879 3.74071 -0.0464214 0
M  V30 9037 H 851.212 4.92183 -0.0413893 0
M  V30 9038 N 852.864 0.259585 1.55447 0
M  V30 9039 C 853.811 -0.634578 2.21905 0
M  V30 9040 C 854.781 -1.16168 1.18719 0
M  V30 9041 O 855.966 -1.21383 1.4721 0
M  V30 9042 C 853.106 -1.82005 2.93203 0
M  V30 9043 C 852.219 -1.32828 4.11073 0
M  V30 9044 C 851.354 -2.47431 4.70055 0
M  V30 9045 C 850.393 -1.95179 5.80148 0
M  V30 9046 N 849.53 -3.03197 6.33258 0
M  V30 9047 H 854.37 -0.0611886 2.97937 0
M  V30 9048 H 851.907 -0.0184378 1.47088 0
M  V30 9049 H 853.865 -2.51664 3.32748 0
M  V30 9050 H 852.495 -2.36571 2.19622 0
M  V30 9051 H 851.547 -0.525301 3.76756 0
M  V30 9052 H 852.859 -0.905435 4.90513 0
M  V30 9053 H 852.013 -3.25111 5.12238 0
M  V30 9054 H 850.752 -2.93023 3.89857 0
M  V30 9055 H 849.757 -1.15974 5.37429 0
M  V30 9056 H 850.982 -1.50541 6.62204 0
M  V30 9057 H 848.928 -3.48199 5.55961 0
M  V30 9058 H 848.845 -2.65282 7.07928 0
M  V30 9059 H 850.113 -3.80898 6.80101 0
M  V30 9060 N 854.342 -1.57594 -0.0133615 0
M  V30 9061 C 855.305 -2.06534 -0.993799 0
M  V30 9062 C 856.305 -0.972267 -1.28077 0
M  V30 9063 O 857.495 -1.23537 -1.22818 0
M  V30 9064 C 854.627 -2.49554 -2.3224 0
M  V30 9065 H 855.82 -2.94419 -0.570741 0
M  V30 9066 H 853.373 -1.54113 -0.260546 0
M  V30 9067 H 854.108 -1.64872 -2.79263 0
M  V30 9068 H 853.893 -3.29371 -2.12737 0
M  V30 9069 H 855.383 -2.8779 -3.026 0
M  V30 9070 N 855.82 0.285905 -1.54985 0
M  V30 9071 C 857.068 1.01718 -1.74636 0
M  V30 9072 C 857.389 1.87277 -0.543342 0
M  V30 9073 O 856.659 1.90847 0.442078 0
M  V30 9074 H 855.239 0.378549 -0.643979 0
M  V30 9075 H 857.901 0.313247 -1.92366 0
M  V30 9076 H 856.997 1.66159 -2.64192 0
M  V30 9077 N 857.298 1.47698 0.54982 0
M  V30 9078 C 858.245 1.60739 1.65625 0
M  V30 9079 C 859.215 0.450129 1.59884 0
M  V30 9080 O 860.4 0.671123 1.78607 0
M  V30 9081 C 857.54 1.63457 3.03934 0
M  V30 9082 C 856.653 2.90152 3.20056 0
M  V30 9083 C 855.788 2.84157 4.48807 0
M  V30 9084 C 854.827 4.05644 4.58387 0
M  V30 9085 N 853.964 3.97843 5.78503 0
M  V30 9086 H 858.804 2.55234 1.53817 0
M  V30 9087 H 856.341 1.26593 0.749173 0
M  V30 9088 H 858.299 1.63015 3.84034 0
M  V30 9089 H 856.929 0.724689 3.1456 0
M  V30 9090 H 855.981 3.00428 2.33339 0
M  V30 9091 H 857.293 3.80097 3.22998 0
M  V30 9092 H 856.447 2.82006 5.37175 0
M  V30 9093 H 855.186 1.91908 4.48356 0
M  V30 9094 H 854.191 4.08092 3.6843 0
M  V30 9095 H 855.416 4.9903 4.60593 0
M  V30 9096 H 853.362 3.08401 5.78986 0
M  V30 9097 H 853.279 4.81473 5.82855 0
M  V30 9098 H 854.547 3.99719 6.69212 0
M  V30 9099 N 858.776 -0.797141 1.35954 0
M  V30 9100 C 859.686 -1.94088 1.31784 0
M  V30 9101 C 860.702 -1.72588 0.221227 0
M  V30 9102 O 861.878 -1.96256 0.452255 0
M  V30 9103 C 858.943 -3.28828 1.09878 0
M  V30 9104 C 858.004 -3.63158 2.28942 0
M  V30 9105 C 857.237 -4.91469 2.08072 0
M  V30 9106 O 857.46 -5.60616 1.05196 0
M  V30 9107 O 856.394 -5.24277 2.95664 0
M  V30 9108 H 860.22 -2.00554 2.28061 0
M  V30 9109 H 857.805 -0.936288 1.16422 0
M  V30 9110 H 859.687 -4.09473 0.995485 0
M  V30 9111 H 858.362 -3.23271 0.16659 0
M  V30 9112 H 857.269 -2.82851 2.44839 0
M  V30 9113 H 858.602 -3.7343 3.20641 0
M  V30 9114 N 860.254 -1.20106 -1.0204 0
M  V30 9115 C 861.482 -1.0344 -1.79186 0
M  V30 9116 C 861.897 0.416542 -1.84148 0
M  V30 9117 O 861.254 1.28925 -1.29168 0
M  V30 9118 C 861.305 -1.60663 -3.23836 0
M  V30 9119 O 861.026 -3.00079 -3.19193 0
M  V30 9120 C 862.527 -1.48897 -4.17546 0
M  V30 9121 H 859.747 -0.364093 -0.563629 0
M  V30 9122 H 862.291 -1.5911 -1.28469 0
M  V30 9123 H 860.446 -1.09122 -3.71714 0
M  V30 9124 H 860.86 -3.27162 -4.09958 0
M  V30 9125 H 862.334 -1.93703 -5.16898 0
M  V30 9126 H 862.811 -0.440843 -4.36982 0
M  V30 9127 H 863.417 -1.9961 -3.75547 0
M  V30 9128 N 861.732 1.21287 -1.00634 0
M  V30 9129 C 862.664 2.2308 -0.526094 0
M  V30 9130 C 863.677 1.58157 0.386031 0
M  V30 9131 O 864.866 1.77528 0.186016 0
M  V30 9132 C 861.966 3.37937 0.255289 0
M  V30 9133 C 861.139 4.32449 -0.656236 0
M  V30 9134 C 860.198 5.26145 0.0757714 0
M  V30 9135 O 859.224 5.66601 -0.543325 0
M  V30 9136 N 860.426 5.6449 1.35391 0
M  V30 9137 H 863.191 2.64913 -1.40147 0
M  V30 9138 H 860.752 1.35724 -0.882641 0
M  V30 9139 H 862.744 3.97614 0.753977 0
M  V30 9140 H 861.314 2.95078 1.03187 0
M  V30 9141 H 860.534 3.70892 -1.3354 0
M  V30 9142 H 861.822 4.92526 -1.27653 0
M  V30 9143 H 861.22 5.33617 1.878 0
M  V30 9144 H 859.777 6.26524 1.79753 0
M  V30 9145 N 863.21 0.781244 1.36873 0
M  V30 9146 C 864.173 0.180094 2.28491 0
M  V30 9147 C 865.173 -0.617798 1.48458 0
M  V30 9148 O 866.363 -0.439991 1.68552 0
M  V30 9149 C 863.495 -0.751741 3.32508 0
M  V30 9150 H 864.688 0.987837 2.83164 0
M  V30 9151 H 862.241 0.550102 1.463 0
M  V30 9152 H 862.976 -1.58413 2.82977 0
M  V30 9153 H 862.761 -0.181649 3.91679 0
M  V30 9154 H 864.251 -1.16748 4.00949 0
M  V30 9155 N 864.689 -1.48329 0.532571 0
M  V30 9156 C 865.917 -2.069 0.00354299 0
M  V30 9157 C 866.332 -1.38876 -1.27902 0
M  V30 9158 O 865.689 -0.477119 -1.76153 0
M  V30 9159 C 865.74 -3.60821 -0.221416 0
M  V30 9160 O 865.461 -4.26291 1.01034 0
M  V30 9161 C 866.962 -4.36194 -0.790531 0
M  V30 9162 H 864.182 -0.670103 0.0346836 0
M  V30 9163 H 866.726 -1.90682 0.738955 0
M  V30 9164 H 864.881 -3.76636 -0.906884 0
M  V30 9165 H 865.295 -5.18475 0.792683 0
M  V30 9166 H 866.769 -5.44657 -0.897347 0
M  V30 9167 H 867.246 -4.00798 -1.79605 0
M  V30 9168 H 867.852 -4.25064 -0.141546 0
M  V30 9169 N 866.167 -0.267825 -1.55308 0
M  V30 9170 C 867.077 0.633055 -2.25897 0
M  V30 9171 C 868.093 1.17613 -1.28231 0
M  V30 9172 O 869.269 1.20797 -1.61153 0
M  V30 9173 C 866.334 1.80397 -2.96071 0
M  V30 9174 C 865.395 1.29829 -4.09198 0
M  V30 9175 C 864.628 2.4134 -4.76016 0
M  V30 9176 O 864.851 3.60537 -4.42006 0
M  V30 9177 O 863.785 2.09909 -5.64111 0
M  V30 9178 H 867.611 0.0614381 -3.03638 0
M  V30 9179 H 865.196 -0.0355072 -1.49358 0
M  V30 9180 H 867.078 2.48685 -3.40197 0
M  V30 9181 H 865.753 2.36281 -2.21253 0
M  V30 9182 H 864.66 0.582086 -3.69544 0
M  V30 9183 H 865.993 0.785288 -4.85895 0
M  V30 9184 N 867.645 1.57599 0.00500368 0
M  V30 9185 C 868.608 2.07058 0.982832 0
M  V30 9186 C 869.608 0.979045 1.27559 0
M  V30 9187 O 870.798 1.24187 1.22161 0
M  V30 9188 C 867.93 2.50782 2.30914 0
M  V30 9189 H 869.123 2.94718 0.555119 0
M  V30 9190 H 866.676 1.54249 0.25237 0
M  V30 9191 H 867.411 1.66351 2.78385 0
M  V30 9192 H 867.196 3.30495 2.10987 0
M  V30 9193 H 868.686 2.89391 3.0107 0
M  V30 9194 N 869.123 -0.277682 1.55134 0
M  V30 9195 C 870.086 -1.32635 1.86924 0
M  V30 9196 C 871.086 -1.42578 0.743507 0
M  V30 9197 O 872.276 -1.4181 1.01171 0
M  V30 9198 C 869.408 -2.70832 2.07034 0
M  V30 9199 H 870.601 -1.0568 2.80663 0
M  V30 9200 H 868.154 -0.515517 1.47554 0
M  V30 9201 H 868.889 -3.02974 1.15661 0
M  V30 9202 H 868.674 -2.65001 2.88993 0
M  V30 9203 H 870.164 -3.46611 2.32918 0
M  V30 9204 N 870.601 -1.47988 -0.541979 0
M  V30 9205 C 871.826 -1.59286 -1.32826 0
M  V30 9206 C 872.251 -0.24894 -1.86445 0
M  V30 9207 O 871.609 0.777581 -1.63778 0
M  V30 9208 C 871.657 -2.6334 -2.46343 0
M  V30 9209 O 870.761 -2.19667 -3.49028 0
M  V30 9210 H 870.102 -0.534543 -0.393903 0
M  V30 9211 H 872.632 -1.93885 -0.653427 0
M  V30 9212 H 872.642 -2.84238 -2.92699 0
M  V30 9213 H 871.317 -3.60913 -2.06675 0
M  V30 9214 H 869.894 -2.08932 -3.08872 0
M  V30 9215 N 872.079 0.78992 -1.36375 0
M  V30 9216 C 873.042 1.88414 -1.30509 0
M  V30 9217 C 874.042 1.59384 -0.2129 0
M  V30 9218 O 875.232 1.67805 -0.467651 0
M  V30 9219 C 872.364 3.25188 -1.02302 0
M  V30 9220 H 873.557 1.95031 -2.27822 0
M  V30 9221 H 871.11 0.987664 -1.2114 0
M  V30 9222 H 871.845 3.24254 -0.0544486 0
M  V30 9223 H 871.63 3.47647 -1.81338 0
M  V30 9224 H 873.12 4.05252 -1.00801 0
M  V30 9225 N 873.557 1.20646 1.01402 0
M  V30 9226 C 874.505 0.954493 2.12114 0
M  V30 9227 C 875.499 -0.0950737 1.69133 0
M  V30 9228 O 876.705 0.0555153 1.79914 0
M  V30 9229 H 873.08 0.29135 0.693267 0
M  V30 9230 H 875.051 1.89447 2.30548 0
M  V30 9231 C 873.8 0.525944 3.43699 0
M  V30 9232 H 873.123 1.32516 3.772 0
M  V30 9233 H 874.563 0.388883 4.22213 0
M  V30 9234 C 873.022 -0.761997 3.28169 0
M  V30 9235 O 873.552 -1.81979 3.58115 0
M  V30 9236 N 871.758 -0.725017 2.8141 0
M  V30 9237 H 871.305 0.13607 2.5724 0
M  V30 9238 H 871.263 -1.5871 2.71401 0
M  V30 9239 N 875.035 -1.20752 1.01276 0
M  V30 9240 C 875.967 -2.22798 0.537917 0
M  V30 9241 C 876.98 -1.5836 -0.377638 0
M  V30 9242 O 878.169 -1.77624 -0.176599 0
M  V30 9243 C 875.269 -3.38068 -0.237364 0
M  V30 9244 C 874.442 -4.32095 0.679161 0
M  V30 9245 C 873.501 -5.26178 -0.0478676 0
M  V30 9246 O 872.527 -5.66305 0.573366 0
M  V30 9247 N 873.729 -5.65201 -1.32396 0
M  V30 9248 H 876.494 -2.64166 1.4155 0
M  V30 9249 H 874.055 -1.35254 0.889826 0
M  V30 9250 H 876.047 -3.98009 -0.73288 0
M  V30 9251 H 874.617 -2.95622 -1.0162 0
M  V30 9252 H 873.837 -3.70179 1.35505 0
M  V30 9253 H 875.125 -4.91842 1.30263 0
M  V30 9254 H 874.523 -5.34606 -1.84968 0
M  V30 9255 H 873.08 -6.27468 -1.76428 0
M  V30 9256 N 876.513 -0.788492 -1.36457 0
M  V30 9257 C 877.759 -0.360995 -1.99561 0
M  V30 9258 C 878.092 1.06433 -1.62437 0
M  V30 9259 O 877.367 1.7352 -0.878705 0
M  V30 9260 C 877.65 -0.523735 -3.56271 0
M  V30 9261 C 877.503 -1.99268 -4.03252 0
M  V30 9262 C 878.822 0.0617908 -4.40057 0
M  V30 9263 H 875.941 -0.13264 -0.724966 0
M  V30 9264 H 878.583 -0.994659 -1.61884 0
M  V30 9265 H 876.733 0.0156979 -3.88497 0
M  V30 9266 H 878.405 -2.59311 -3.81518 0
M  V30 9267 H 876.648 -2.49561 -3.54826 0
M  V30 9268 H 877.319 -2.05752 -5.12221 0
M  V30 9269 H 879.795 -0.398674 -4.14186 0
M  V30 9270 H 878.671 -0.0821089 -5.48839 0
M  V30 9271 H 878.932 1.15381 -4.26778 0
M  V30 9272 N 877.991 1.48044 -0.54043 0
M  V30 9273 C 878.938 2.29781 0.216597 0
M  V30 9274 C 879.908 1.38021 0.924094 0
M  V30 9275 O 881.093 1.66985 0.923078 0
M  V30 9276 C 878.233 3.21623 1.2511 0
M  V30 9277 C 877.346 4.28467 0.551384 0
M  V30 9278 C 876.481 5.07477 1.56972 0
M  V30 9279 C 875.52 6.06113 0.854048 0
M  V30 9280 N 874.657 6.78143 1.81842 0
M  V30 9281 H 879.497 2.94001 -0.486578 0
M  V30 9282 H 877.034 1.44929 -0.251789 0
M  V30 9283 H 878.992 3.73279 1.8633 0
M  V30 9284 H 877.622 2.59305 1.92252 0
M  V30 9285 H 876.674 3.79997 -0.174982 0
M  V30 9286 H 877.986 4.98799 -0.0100542 0
M  V30 9287 H 877.14 5.63199 2.25592 0
M  V30 9288 H 875.879 4.37008 2.16507 0
M  V30 9289 H 874.884 5.49585 0.153838 0
M  V30 9290 H 876.109 6.78584 0.264675 0
M  V30 9291 H 874.055 6.10417 2.40265 0
M  V30 9292 H 873.972 7.44587 1.3087 0
M  V30 9293 H 875.24 7.38448 2.49628 0
M  V30 9294 N 879.47 0.276058 1.55163 0
M  V30 9295 C 880.433 -0.597924 2.21263 0
M  V30 9296 C 881.433 -1.0806 1.19078 0
M  V30 9297 O 882.623 -0.980626 1.43977 0
M  V30 9298 C 879.755 -1.82503 2.87933 0
M  V30 9299 H 880.948 -0.0207769 2.99893 0
M  V30 9300 H 878.501 0.0266823 1.56277 0
M  V30 9301 H 879.236 -2.44266 2.13318 0
M  V30 9302 H 879.021 -1.48683 3.62816 0
M  V30 9303 H 880.511 -2.44651 3.38431 0
M  V30 9304 N 880.948 -1.576 0.00335426 0
M  V30 9305 C 881.911 -2.07576 -0.971838 0
M  V30 9306 C 882.911 -0.985796 -1.27038 0
M  V30 9307 O 884.101 -1.24833 -1.21501 0
M  V30 9308 C 881.233 -2.52003 -2.29581 0
M  V30 9309 H 882.426 -2.95008 -0.539481 0
M  V30 9310 H 879.979 -1.54381 -0.244186 0
M  V30 9311 H 880.714 -1.67825 -2.77498 0
M  V30 9312 H 880.499 -3.31609 -2.09231 0
M  V30 9313 H 881.989 -2.90983 -2.99531 0
M  V30 9314 N 882.426 0.269451 -1.5528 0
M  V30 9315 C 883.356 1.33729 -1.91413 0
M  V30 9316 C 884.337 1.51348 -0.776391 0
M  V30 9317 O 885.522 1.64332 -1.03482 0
M  V30 9318 C 882.652 2.69618 -2.18914 0
M  V30 9319 C 881.606 2.66725 -3.34726 0
M  V30 9320 C 880.932 4.06199 -3.47716 0
M  V30 9321 C 882.232 2.25684 -4.71025 0
M  V30 9322 H 883.926 1.03736 -2.80854 0
M  V30 9323 H 881.472 0.497579 -1.3513 0
M  V30 9324 H 883.425 3.44436 -2.42779 0
M  V30 9325 H 882.149 3.01201 -1.26275 0
M  V30 9326 H 880.808 1.94365 -3.10834 0
M  V30 9327 H 880.456 4.3501 -2.52537 0
M  V30 9328 H 880.156 4.05157 -4.25583 0
M  V30 9329 H 881.68 4.8275 -3.73877 0
M  V30 9330 H 883.094 2.90225 -4.94411 0
M  V30 9331 H 881.491 2.35797 -5.51833 0
M  V30 9332 H 882.561 1.20819 -4.69607 0
M  V30 9333 N 883.904 1.48273 0.534124 0
M  V30 9334 C 885.15 1.56311 1.29208 0
M  V30 9335 C 885.483 0.234481 1.92779 0
M  V30 9336 O 884.758 -0.759143 1.79073 0
M  V30 9337 C 885.041 2.69831 2.3846 0
M  V30 9338 C 884.894 4.12385 1.79608 0
M  V30 9339 C 886.213 2.79133 3.40254 0
M  V30 9340 H 883.332 0.56899 0.468422 0
M  V30 9341 H 885.974 1.80429 0.595438 0
M  V30 9342 H 884.124 2.49397 2.97881 0
M  V30 9343 H 885.796 4.44246 1.24269 0
M  V30 9344 H 884.039 4.19579 1.10162 0
M  V30 9345 H 884.71 4.87629 2.58693 0
M  V30 9346 H 887.186 2.97632 2.90783 0
M  V30 9347 H 886.062 3.60298 4.14097 0
M  V30 9348 H 886.323 1.87122 4.00547 0
M  V30 9349 N 885.382 -0.782676 1.36792 0
M  V30 9350 C 886.329 -1.89558 1.31667 0
M  V30 9351 C 887.299 -1.65076 0.184147 0
M  V30 9352 O 888.484 -1.87143 0.371753 0
M  V30 9353 C 885.624 -3.26469 1.11858 0
M  V30 9354 C 884.737 -3.62978 2.34245 0
M  V30 9355 C 883.872 -4.89041 2.07394 0
M  V30 9356 C 882.911 -5.18249 3.25706 0
M  V30 9357 N 882.048 -6.35497 2.98476 0
M  V30 9358 H 886.888 -1.93274 2.26824 0
M  V30 9359 H 884.425 -0.945057 1.12726 0
M  V30 9360 H 886.383 -4.05431 0.983968 0
M  V30 9361 H 885.013 -3.22158 0.203531 0
M  V30 9362 H 884.065 -2.79087 2.58485 0
M  V30 9363 H 885.377 -3.80507 3.22514 0
M  V30 9364 H 884.531 -5.75883 1.90901 0
M  V30 9365 H 883.27 -4.73594 1.16446 0
M  V30 9366 H 882.275 -4.29887 3.4275 0
M  V30 9367 H 883.5 -5.35611 4.1749 0
M  V30 9368 H 881.446 -6.21429 2.10146 0
M  V30 9369 H 881.363 -6.5339 3.80286 0
M  V30 9370 H 882.631 -7.25304 2.85577 0
M  V30 9371 N 886.86 -1.21182 -1.00761 0
M  V30 9372 C 888.088 -1.05335 -1.78079 0
M  V30 9373 C 888.503 0.396988 -1.84579 0
M  V30 9374 O 887.86 1.27548 -1.30529 0
M  V30 9375 C 887.911 -1.64089 -3.22113 0
M  V30 9376 O 887.632 -3.03448 -3.15992 0
M  V30 9377 C 889.133 -1.53318 -4.15943 0
M  V30 9378 H 886.353 -0.37005 -0.559736 0
M  V30 9379 H 888.897 -1.60463 -1.26775 0
M  V30 9380 H 887.052 -1.13059 -3.70535 0
M  V30 9381 H 887.466 -3.31492 -4.06465 0
M  V30 9382 H 888.94 -1.99174 -5.14814 0
M  V30 9383 H 889.417 -0.487166 -4.3649 0
M  V30 9384 H 890.023 -2.03582 -3.73409 0
M  V30 9385 N 888.338 1.20213 -1.01915 0
M  V30 9386 C 889.584 1.89928 -0.711007 0
M  V30 9387 C 889.917 1.7881 0.75767 0
M  V30 9388 O 889.192 1.17399 1.55073 0
M  V30 9389 C 889.475 3.41225 -1.15053 0
M  V30 9390 C 889.328 3.61264 -2.67971 0
M  V30 9391 C 890.647 4.34108 -0.72377 0
M  V30 9392 H 887.766 0.689702 -0.259768 0
M  V30 9393 H 890.408 1.41557 -1.26734 0
M  V30 9394 H 888.558 3.82552 -0.677199 0
M  V30 9395 H 890.23 3.29173 -3.23176 0
M  V30 9396 H 888.473 3.04647 -3.08824 0
M  V30 9397 H 889.144 4.67331 -2.93779 0
M  V30 9398 H 891.62 4.00442 -1.13073 0
M  V30 9399 H 890.496 5.38581 -1.05931 0
M  V30 9400 H 890.757 4.40512 0.374424 0
M  V30 9401 N 889.816 0.795718 1.36037 0
M  V30 9402 C 891.041 0.38204 2.03851 0
M  V30 9403 C 891.466 -0.995553 1.59594 0
M  V30 9404 O 890.824 -1.64258 0.767401 0
M  V30 9405 C 890.872 0.461248 3.57638 0
M  V30 9406 O 889.976 -0.529448 4.08987 0
M  V30 9407 H 889.317 0.161227 0.644129 0
M  V30 9408 H 891.847 1.07858 1.73861 0
M  V30 9409 H 891.857 0.32712 4.06687 0
M  V30 9410 H 890.532 1.46613 3.89201 0
M  V30 9411 H 889.109 -0.35646 3.71192 0
M  V30 9412 N 891.294 -1.47756 0.548274 0
M  V30 9413 C 892.571 -1.9555 -0.0443603 0
M  V30 9414 C 892.951 -1.49079 -1.49462 0
M  V30 9415 O 892.299 -0.725538 -2.16675 0
M  V30 9416 C 892.509 -3.48879 0.0918425 0
M  V30 9417 C 893.857 -4.2456 -0.0580879 0
M  V30 9418 O 894.881 -3.56195 0.018946 0
M  V30 9419 O 893.74 -5.46048 -0.222261 0
M  V30 9420 H 890.834 -0.824106 -0.0691235 0
M  V30 9421 H 893.38 -1.58196 0.614166 0
M  V30 9422 H 892.152 -3.7548 1.10137 0
M  V30 9423 H 891.775 -3.92975 -0.604704 0
M  V30 9424 N 892.772 -0.284283 -1.55015 0
M  V30 9425 C 894.183 0.211681 -1.85496 0
M  V30 9426 C 894.534 1.54735 -1.2063 0
M  V30 9427 O 893.659 2.10594 -0.497918 0
M  V30 9428 C 894.254 0.390864 -3.36538 0
M  V30 9429 C 892.813 0.831055 -3.67111 0
M  V30 9430 C 891.96 -0.0703581 -2.77211 0
M  V30 9431 H 894.911 -0.505803 -1.50424 0
M  V30 9432 H 894.932 1.22803 -3.60138 0
M  V30 9433 H 894.444 -0.581409 -3.8372 0
M  V30 9434 H 892.545 1.81447 -3.25434 0
M  V30 9435 H 892.658 0.662026 -4.74504 0
M  V30 9436 H 891.022 0.447528 -2.50737 0
M  V30 9437 H 891.805 -1.03868 -3.2721 0
M  V30 9438 N 894.251 1.57596 -0.0117121 0
M  V30 9439 C 895.214 2.08089 0.960816 0
M  V30 9440 C 896.214 0.992519 1.26514 0
M  V30 9441 O 897.404 1.25475 1.20837 0
M  V30 9442 C 894.536 2.53217 2.28241 0
M  V30 9443 H 895.729 2.9529 0.523829 0
M  V30 9444 H 893.282 1.54508 0.235995 0
M  V30 9445 H 894.017 1.69294 2.76604 0
M  V30 9446 H 893.802 3.32714 2.0747 0
M  V30 9447 H 895.292 2.92568 2.97983 0
M  V30 9448 N 895.729 -0.261212 1.5542 0
M  V30 9449 C 896.977 -0.989272 1.76232 0
M  V30 9450 C 897.298 -1.86389 0.573067 0
M  V30 9451 O 896.568 -1.91526 -0.41166 0
M  V30 9452 H 895.148 -0.368256 0.64992 0
M  V30 9453 H 897.81 -0.282603 1.9284 0
M  V30 9454 H 896.906 -1.61935 2.66802 0
M  V30 9455 N 897.207 -1.48554 -0.526253 0
M  V30 9456 C 898.435 -1.60429 -1.30652 0
M  V30 9457 C 898.85 -0.265963 -1.86917 0
M  V30 9458 O 898.207 0.745262 -1.6659 0
M  V30 9459 C 898.258 -2.65377 -2.45473 0
M  V30 9460 O 897.979 -3.94017 -1.91527 0
M  V30 9461 C 899.48 -2.87726 -3.37237 0
M  V30 9462 H 896.7 -0.540817 -0.397187 0
M  V30 9463 H 899.244 -1.94409 -0.634461 0
M  V30 9464 H 897.399 -2.34246 -3.08557 0
M  V30 9465 H 897.813 -4.51623 -2.66715 0
M  V30 9466 H 899.287 -3.64951 -4.14144 0
M  V30 9467 H 899.764 -1.96688 -3.92696 0
M  V30 9468 H 900.37 -3.20176 -2.79942 0
M  V30 9469 N 898.685 0.775411 -1.37205 0
M  V30 9470 C 899.648 1.8702 -1.325 0
M  V30 9471 C 900.648 1.5915 -0.229793 0
M  V30 9472 O 901.838 1.673 -0.485423 0
M  V30 9473 C 898.97 3.24085 -1.05745 0
M  V30 9474 H 900.163 1.92604 -2.29878 0
M  V30 9475 H 897.716 0.97476 -1.22181 0
M  V30 9476 H 898.451 3.24178 -0.0888371 0
M  V30 9477 H 898.236 3.45705 -1.85016 0
M  V30 9478 H 899.726 4.0416 -1.05094 0
M  V30 9479 N 900.163 1.21714 1.00117 0
M  V30 9480 C 901.113 0.947259 2.07391 0
M  V30 9481 C 902.097 -0.0989662 1.60595 0
M  V30 9482 O 903.289 0.11047 1.76655 0
M  V30 9483 C 900.418 0.517954 3.3937 0
M  V30 9484 C 899.504 1.59846 3.92823 0
M  V30 9485 N 899.895 2.82438 4.19598 0
M  V30 9486 C 898.193 1.46822 4.2114 0
M  V30 9487 C 898.894 3.52247 4.62922 0
M  V30 9488 N 897.87 2.79696 4.66124 0
M  V30 9489 H 901.672 1.8786 2.26022 0
M  V30 9490 H 899.186 1.11344 1.18221 0
M  V30 9491 H 901.183 0.305951 4.15776 0
M  V30 9492 H 899.843 -0.40658 3.22144 0
M  V30 9493 H 900.854 3.18944 4.08038 0
M  V30 9494 H 897.531 0.609259 4.13031 0
M  V30 9495 H 898.921 4.57232 4.9233 0
M  V30 9496 N 901.641 -1.19671 1.02551 0
M  V30 9497 C 902.604 -2.20987 0.608055 0
M  V30 9498 C 903.604 -1.5745 -0.326534 0
M  V30 9499 O 904.794 -1.73827 -0.114003 0
M  V30 9500 C 901.926 -3.4072 -0.11074 0
M  V30 9501 H 903.119 -2.59434 1.50446 0
M  V30 9502 H 900.672 -1.3329 0.816307 0
M  V30 9503 H 901.407 -3.07787 -1.02165 0
M  V30 9504 H 901.192 -3.88069 0.560772 0
M  V30 9505 H 902.682 -4.15776 -0.389848 0
M  V30 9506 N 903.119 -0.802921 -1.35613 0
M  V30 9507 C 904.049 -0.225131 -2.32412 0
M  V30 9508 C 905.03 0.647383 -1.57299 0
M  V30 9509 O 906.215 0.578414 -1.85386 0
M  V30 9510 C 903.345 0.630085 -3.41537 0
M  V30 9511 C 902.299 -0.143635 -4.27759 0
M  V30 9512 C 901.625 0.833046 -5.28171 0
M  V30 9513 C 902.925 -1.34054 -5.04804 0
M  V30 9514 H 904.619 -1.03385 -2.80984 0
M  V30 9515 H 902.165 -0.498593 -1.35093 0
M  V30 9516 H 904.118 1.04433 -4.08254 0
M  V30 9517 H 902.842 1.47165 -2.91565 0
M  V30 9518 H 901.501 -0.539015 -3.62616 0
M  V30 9519 H 901.149 1.67001 -4.74468 0
M  V30 9520 H 900.849 0.319697 -5.8673 0
M  V30 9521 H 902.373 1.24558 -5.97761 0
M  V30 9522 H 903.787 -1.00136 -5.64487 0
M  V30 9523 H 902.184 -1.78812 -5.72841 0
M  V30 9524 H 903.254 -2.12906 -4.35659 0
M  V30 9525 N 904.597 1.47463 -0.556102 0
M  V30 9526 C 905.529 2.28046 0.22968 0
M  V30 9527 C 906.542 1.3694 0.880409 0
M  V30 9528 O 907.731 1.61773 0.754447 0
M  V30 9529 C 904.831 3.11165 1.34273 0
M  V30 9530 C 904.004 4.30225 0.789004 0
M  V30 9531 C 903.063 4.94948 1.78641 0
M  V30 9532 O 902.089 5.53372 1.33297 0
M  V30 9533 N 903.291 4.89543 3.11974 0
M  V30 9534 H 906.056 2.96125 -0.461558 0
M  V30 9535 H 903.617 1.5708 -0.392105 0
M  V30 9536 H 905.609 3.51331 2.00869 0
M  V30 9537 H 904.179 2.45337 1.93722 0
M  V30 9538 H 903.399 3.94163 -0.0536971 0
M  V30 9539 H 904.687 5.07238 0.398378 0
M  V30 9540 H 904.085 4.43275 3.51459 0
M  V30 9541 H 902.642 5.33732 3.74131 0
M  V30 9542 N 906.075 0.2925 1.54862 0
M  V30 9543 C 907.324 -0.319994 1.99146 0
M  V30 9544 C 907.637 -1.55658 1.18448 0
M  V30 9545 O 908.843 -2.24312 1.52959 0
M  V30 9546 C 907.299 -0.620665 3.54508 0
M  V30 9547 C 906.907 0.597098 4.44003 0
M  V30 9548 C 908.651 -1.19482 4.07338 0
M  V30 9549 C 906.558 0.270049 5.90783 0
M  V30 9550 H 905.488 -0.123342 0.743843 0
M  V30 9551 H 908.139 0.399876 1.7909 0
M  V30 9552 H 906.521 -1.3999 3.7043 0
M  V30 9553 H 907.695 1.37354 4.39853 0
M  V30 9554 H 906.01 1.0893 4.019 0
M  V30 9555 H 908.607 -1.45362 5.14562 0
M  V30 9556 H 908.95 -2.13435 3.57423 0
M  V30 9557 H 909.483 -0.477485 3.94924 0
M  V30 9558 H 906.222 1.17791 6.4483 0
M  V30 9559 H 905.742 -0.469292 5.97961 0
M  V30 9560 H 907.421 -0.131471 6.46866 0
M  V30 9561 N 907.553 -1.57587 0.0200696 0
M  V30 9562 C 908.485 -2.06555 -0.993359 0
M  V30 9563 C 909.498 -0.987227 -1.29451 0
M  V30 9564 O 910.687 -1.26361 -1.26075 0
M  V30 9565 C 907.787 -2.4675 -2.3231 0
M  V30 9566 C 906.96 -3.77554 -2.20843 0
M  V30 9567 C 906.019 -4.04397 -3.36674 0
M  V30 9568 O 905.045 -4.7478 -3.13963 0
M  V30 9569 N 906.247 -3.53861 -4.60176 0
M  V30 9570 H 909.012 -2.9412 -0.575617 0
M  V30 9571 H 906.573 -1.61038 -0.166889 0
M  V30 9572 H 908.565 -2.61806 -3.08609 0
M  V30 9573 H 907.135 -1.64598 -2.65756 0
M  V30 9574 H 906.355 -3.72382 -1.29327 0
M  V30 9575 H 907.643 -4.63271 -2.10375 0
M  V30 9576 H 907.041 -2.96904 -4.81523 0
M  V30 9577 H 905.598 -3.74213 -5.33674 0
M  V30 9578 N 909.032 0.252966 -1.55557 0
M  V30 9579 C 910.28 0.979912 -1.76754 0
M  V30 9580 C 910.601 1.86083 -0.582944 0
M  V30 9581 O 909.871 1.91742 0.401497 0
M  V30 9582 H 908.451 0.364805 -0.651864 0
M  V30 9583 H 911.113 0.272372 -1.92987 0
M  V30 9584 H 910.209 1.60518 -2.67657 0
M  V30 9585 N 910.51 1.48831 0.518367 0
M  V30 9586 C 911.46 1.60614 1.61824 0
M  V30 9587 C 912.444 0.462631 1.54106 0
M  V30 9588 O 913.636 0.714689 1.6193 0
M  V30 9589 C 910.765 1.65984 3.00507 0
M  V30 9590 C 909.851 2.85854 3.13286 0
M  V30 9591 N 910.242 4.1014 2.96005 0
M  V30 9592 C 908.54 2.83429 3.4436 0
M  V30 9593 C 909.241 4.90626 3.12508 0
M  V30 9594 N 908.217 4.2366 3.40607 0
M  V30 9595 H 912.019 2.54443 1.47091 0
M  V30 9596 H 909.533 1.45363 0.724102 0
M  V30 9597 H 911.53 1.72521 3.79529 0
M  V30 9598 H 910.19 0.732792 3.16323 0
M  V30 9599 H 911.201 4.40395 2.72531 0
M  V30 9600 H 907.878 2.0003 3.66462 0
M  V30 9601 H 909.268 5.99302 3.03786 0
M  V30 9602 N 911.988 -0.768124 1.37614 0
M  V30 9603 C 913.213 -1.56239 1.36397 0
M  V30 9604 C 913.638 -1.8804 -0.0475839 0
M  V30 9605 O 912.996 -1.495 -1.02564 0
M  V30 9606 C 913.044 -2.84716 2.21289 0
M  V30 9607 O 912.148 -3.79249 1.62001 0
M  V30 9608 H 911.489 -0.473119 0.465891 0
M  V30 9609 H 914.019 -0.950415 1.81186 0
M  V30 9610 H 914.029 -3.33784 2.34632 0
M  V30 9611 H 912.704 -2.60899 3.2389 0
M  V30 9612 H 911.281 -3.37904 1.57719 0
M  V30 9613 N 913.466 -1.22244 -0.994698 0
M  V30 9614 C 914.715 -1.04005 -1.72817 0
M  V30 9615 C 915.028 0.425413 -1.90918 0
M  V30 9616 O 916.234 0.727429 -2.61574 0
M  V30 9617 C 914.69 -1.81244 -3.10932 0
M  V30 9618 C 914.298 -3.32028 -3.00768 0
M  V30 9619 C 916.042 -1.71448 -3.88337 0
M  V30 9620 C 913.949 -4.01716 -4.34026 0
M  V30 9621 H 912.879 -0.385559 -0.647966 0
M  V30 9622 H 915.53 -1.46077 -1.11058 0
M  V30 9623 H 913.912 -1.3197 -3.73363 0
M  V30 9624 H 915.086 -3.88682 -2.47513 0
M  V30 9625 H 913.401 -3.4248 -2.36846 0
M  V30 9626 H 915.998 -2.20836 -4.86965 0
M  V30 9627 H 916.341 -0.674568 -4.10798 0
M  V30 9628 H 916.874 -2.18256 -3.3258 0
M  V30 9629 H 913.613 -5.05952 -4.16765 0
M  V30 9630 H 913.133 -3.49849 -4.87202 0
M  V30 9631 H 914.812 -4.0721 -5.02782 0
M  V30 9632 N 914.944 1.19125 -1.03184 0
M  V30 9633 C 915.907 2.20662 -0.619766 0
M  V30 9634 C 916.907 1.57621 0.318179 0
M  V30 9635 O 918.097 1.73885 0.104783 0
M  V30 9636 C 915.229 3.40774 0.0926696 0
M  V30 9637 H 916.422 2.58633 -1.5182 0
M  V30 9638 H 913.975 1.32855 -0.823364 0
M  V30 9639 H 914.71 3.08324 1.00531 0
M  V30 9640 H 914.495 3.87766 -0.581344 0
M  V30 9641 H 915.985 4.15977 0.367792 0
M  V30 9642 N 916.422 0.810101 1.35185 0
M  V30 9643 C 917.385 0.22852 2.28058 0
M  V30 9644 C 918.385 -0.586168 1.49735 0
M  V30 9645 O 919.575 -0.40414 1.69447 0
M  V30 9646 C 916.707 -0.681041 3.34028 0
M  V30 9647 H 917.9 1.04768 2.81005 0
M  V30 9648 H 915.453 0.58101 1.451 0
M  V30 9649 H 916.188 -1.52375 2.86273 0
M  V30 9650 H 915.973 -0.0985276 3.91976 0
M  V30 9651 H 917.463 -1.08217 4.03335 0
M  V30 9652 N 917.9 -1.47166 0.563914 0
M  V30 9653 C 918.847 -2.30097 -0.180013 0
M  V30 9654 C 919.817 -1.39473 -0.902019 0
M  V30 9655 O 921.002 -1.68432 -0.896396 0
M  V30 9656 C 918.142 -3.23573 -1.19978 0
M  V30 9657 C 917.255 -4.2929 -0.483149 0
M  V30 9658 C 916.39 -5.0991 -1.48879 0
M  V30 9659 C 915.429 -6.07395 -0.757513 0
M  V30 9660 N 914.566 -6.8095 -1.71031 0
M  V30 9661 H 919.406 -2.93189 0.53329 0
M  V30 9662 H 916.943 -1.4451 0.274814 0
M  V30 9663 H 918.901 -3.76196 -1.80368 0
M  V30 9664 H 917.531 -2.6233 -1.88103 0
M  V30 9665 H 916.583 -3.79671 0.235414 0
M  V30 9666 H 917.895 -4.9872 0.0894075 0
M  V30 9667 H 917.049 -5.66717 -2.16603 0
M  V30 9668 H 915.788 -4.40397 -2.09527 0
M  V30 9669 H 914.793 -5.4976 -0.0663841 0
M  V30 9670 H 916.018 -6.78919 -0.156685 0
M  V30 9671 H 913.964 -6.14162 -2.30524 0
M  V30 9672 H 913.881 -7.46574 -1.19007 0
M  V30 9673 H 915.149 -7.42326 -2.37849 0
M  V30 9674 N 919.378 -0.300708 -1.54705 0
M  V30 9675 C 920.606 0.31127 -2.04545 0
M  V30 9676 C 921.021 1.47542 -1.178 0
M  V30 9677 O 920.378 1.81361 -0.203571 0
M  V30 9678 C 920.429 0.767783 -3.53253 0
M  V30 9679 O 920.15 -0.350027 -4.36699 0
M  V30 9680 C 921.651 1.44494 -4.1909 0
M  V30 9681 H 918.871 0.067668 -0.667579 0
M  V30 9682 H 921.415 -0.440254 -1.99705 0
M  V30 9683 H 919.57 1.46933 -3.58454 0
M  V30 9684 H 919.984 0.00534038 -5.245 0
M  V30 9685 H 921.458 1.71553 -5.24665 0
M  V30 9686 H 921.935 2.3849 -3.68808 0
M  V30 9687 H 922.541 0.786581 -4.17963 0
M  V30 9688 N 920.856 1.57574 -0.0284266 0
M  V30 9689 C 922.104 1.91393 0.649079 0
M  V30 9690 C 922.425 0.905368 1.72708 0
M  V30 9691 O 921.695 -0.0532107 1.95828 0
M  V30 9692 H 920.275 0.70646 0.24274 0
M  V30 9693 H 922.937 1.94752 -0.076066 0
M  V30 9694 H 922.033 2.91988 1.10226 0
M  V30 9695 N 922.334 -0.244713 1.55689 0
M  V30 9696 C 923.562 -0.989944 1.8168 0
M  V30 9697 C 923.977 -1.78863 0.604449 0
M  V30 9698 O 923.334 -1.77437 -0.426907 0
M  V30 9699 C 923.385 -1.92607 3.05916 0
M  V30 9700 O 923.106 -1.1597 4.22472 0
M  V30 9701 C 924.607 -2.78711 3.44724 0
M  V30 9702 H 921.827 -0.2912 0.604519 0
M  V30 9703 H 924.371 -0.266938 2.0275 0
M  V30 9704 H 922.526 -2.60333 2.8689 0
M  V30 9705 H 922.94 -1.79311 4.92898 0
M  V30 9706 H 924.414 -3.40141 4.34751 0
M  V30 9707 H 924.891 -3.49935 2.6541 0
M  V30 9708 H 925.497 -2.16435 3.66109 0
M  V30 9709 N 923.813 -1.49104 -0.510467 0
M  V30 9710 C 924.776 -1.64569 -1.59529 0
M  V30 9711 C 925.776 -0.517937 -1.5223 0
M  V30 9712 O 926.966 -0.784183 -1.55551 0
M  V30 9713 C 924.098 -1.6342 -2.99177 0
M  V30 9714 H 925.291 -2.61318 -1.4715 0
M  V30 9715 H 922.844 -1.37993 -0.734001 0
M  V30 9716 H 923.579 -0.68221 -3.17043 0
M  V30 9717 H 923.364 -2.45312 -3.05883 0
M  V30 9718 H 924.854 -1.77474 -3.78011 0
M  V30 9719 N 925.291 0.760815 -1.38019 0
M  V30 9720 C 926.201 1.90526 -1.36884 0
M  V30 9721 C 927.217 1.71941 -0.266908 0
M  V30 9722 O 928.393 1.94988 -0.50413 0
M  V30 9723 C 925.458 3.25799 -1.18558 0
M  V30 9724 C 924.519 3.56961 -2.3849 0
M  V30 9725 C 923.752 4.8578 -2.21029 0
M  V30 9726 O 923.975 5.57629 -1.20023 0
M  V30 9727 O 922.909 5.16254 -3.0946 0
M  V30 9728 H 926.735 1.94437 -2.33298 0
M  V30 9729 H 924.32 0.905091 -1.18863 0
M  V30 9730 H 926.202 4.0669 -1.1037 0
M  V30 9731 H 924.877 3.22716 -0.252241 0
M  V30 9732 H 923.784 2.7626 -2.52252 0
M  V30 9733 H 925.117 3.64798 -3.30429 0
M  V30 9734 N 926.769 1.22769 0.988202 0
M  V30 9735 C 927.699 1.02627 2.09738 0
M  V30 9736 C 928.68 -0.0543211 1.70013 0
M  V30 9737 O 929.865 0.108811 1.93895 0
M  V30 9738 C 926.995 0.608302 3.41931 0
M  V30 9739 C 925.949 1.63536 3.95525 0
M  V30 9740 C 925.275 1.07308 5.23822 0
M  V30 9741 C 926.575 3.02649 4.25677 0
M  V30 9742 H 928.269 1.954 2.26847 0
M  V30 9743 H 925.815 0.940888 1.09011 0
M  V30 9744 H 927.768 0.454478 4.18942 0
M  V30 9745 H 926.492 -0.355095 3.24664 0
M  V30 9746 H 925.151 1.77704 3.20651 0
M  V30 9747 H 924.799 0.100894 5.02899 0
M  V30 9748 H 924.499 1.75925 5.60646 0
M  V30 9749 H 926.023 0.930938 6.03462 0
M  V30 9750 H 927.437 2.91828 4.93467 0
M  V30 9751 H 925.834 3.68434 4.73684 0
M  V30 9752 H 926.904 3.52228 3.33262 0
M  V30 9753 N 928.247 -1.18576 1.03814 0
M  V30 9754 C 929.194 -2.2212 0.626988 0
M  V30 9755 C 930.164 -1.62064 -0.363912 0
M  V30 9756 O 931.349 -1.89041 -0.258469 0
M  V30 9757 C 928.489 -3.45099 -0.00650133 0
M  V30 9758 C 927.602 -4.19503 1.03156 0
M  V30 9759 C 926.737 -5.29932 0.366852 0
M  V30 9760 C 925.776 -5.96104 1.39018 0
M  V30 9761 N 924.913 -6.98076 0.750625 0
M  V30 9762 H 929.753 -2.56646 1.51449 0
M  V30 9763 H 927.29 -1.26084 0.757702 0
M  V30 9764 H 929.248 -4.15363 -0.391108 0
M  V30 9765 H 927.878 -3.11201 -0.857536 0
M  V30 9766 H 926.93 -3.48092 1.53414 0
M  V30 9767 H 928.242 -4.64843 1.80893 0
M  V30 9768 H 927.396 -6.06657 -0.0720979 0
M  V30 9769 H 926.135 -4.85687 -0.442631 0
M  V30 9770 H 925.14 -5.18122 1.8393 0
M  V30 9771 H 926.365 -6.42432 2.20132 0
M  V30 9772 H 924.311 -6.55989 -0.0385981 0
M  V30 9773 H 924.228 -7.41655 1.46574 0
M  V30 9774 H 925.496 -7.78776 0.335986 0
M  V30 9775 N 929.725 -0.817259 -1.34754 0
M  V30 9776 C 930.635 -0.236946 -2.334 0
M  V30 9777 C 931.651 0.625685 -1.62361 0
M  V30 9778 O 932.827 0.534921 -1.94166 0
M  V30 9779 C 929.892 0.596215 -3.41535 0
M  V30 9780 C 928.953 -0.288154 -4.28332 0
M  V30 9781 C 928.186 0.505337 -5.31302 0
M  V30 9782 O 928.409 1.73912 -5.43241 0
M  V30 9783 O 927.343 -0.109374 -6.01801 0
M  V30 9784 H 931.169 -1.05327 -2.84851 0
M  V30 9785 H 928.754 -0.579275 -1.37713 0
M  V30 9786 H 930.636 1.07041 -4.07578 0
M  V30 9787 H 929.311 1.38997 -2.92338 0
M  V30 9788 H 928.218 -0.809724 -3.65232 0
M  V30 9789 H 929.551 -1.04612 -4.80955 0
M  V30 9790 N 931.203 1.46865 -0.571711 0
M  V30 9791 C 932.15 2.30189 0.167808 0
M  V30 9792 C 933.12 1.3995 0.89461 0
M  V30 9793 O 934.305 1.68905 0.887451 0
M  V30 9794 C 931.445 3.24205 1.1826 0
M  V30 9795 C 930.558 4.2954 0.460376 0
M  V30 9796 C 929.693 5.10693 1.46173 0
M  V30 9797 C 928.732 6.07788 0.725291 0
M  V30 9798 N 927.869 6.81847 1.67417 0
M  V30 9799 H 932.709 2.92902 -0.548831 0
M  V30 9800 H 930.246 1.44362 -0.282474 0
M  V30 9801 H 932.204 3.77147 1.7837 0
M  V30 9802 H 930.834 2.63324 1.86709 0
M  V30 9803 H 929.886 3.79541 -0.255546 0
M  V30 9804 H 931.198 4.98665 -0.115855 0
M  V30 9805 H 930.352 5.67857 2.13595 0
M  V30 9806 H 929.091 4.41502 2.07188 0
M  V30 9807 H 928.096 5.49787 0.037228 0
M  V30 9808 H 929.321 6.78993 0.120678 0
M  V30 9809 H 927.267 6.15376 2.27263 0
M  V30 9810 H 927.184 7.47195 1.15046 0
M  V30 9811 H 928.452 7.43577 2.33908 0
M  V30 9812 N 932.681 0.308908 1.54543 0
M  V30 9813 C 933.613 -0.597453 2.21276 0
M  V30 9814 C 934.626 -1.09137 1.20801 0
M  V30 9815 O 935.815 -1.00747 1.47351 0
M  V30 9816 C 932.915 -1.83085 2.85189 0
M  V30 9817 C 932.088 -1.4781 4.11669 0
M  V30 9818 C 931.147 -2.56748 4.59311 0
M  V30 9819 O 930.173 -2.21507 5.24331 0
M  V30 9820 N 931.375 -3.87427 4.32297 0
M  V30 9821 H 934.14 -0.0261183 2.99689 0
M  V30 9822 H 931.701 0.131456 1.61365 0
M  V30 9823 H 933.693 -2.55326 3.13992 0
M  V30 9824 H 932.263 -2.31039 2.1057 0
M  V30 9825 H 931.483 -0.587974 3.8979 0
M  V30 9826 H 932.771 -1.2179 4.94009 0
M  V30 9827 H 932.169 -4.18863 3.80224 0
M  V30 9828 H 930.726 -4.55942 4.6579 0
M  V30 9829 N 934.159 -1.57557 0.0367827 0
M  V30 9830 C 935.407 -1.91735 -0.63892 0
M  V30 9831 C 935.728 -0.914515 -1.72226 0
M  V30 9832 O 934.998 0.0428248 -1.95853 0
M  V30 9833 H 933.578 -0.707738 -0.23899 0
M  V30 9834 H 936.24 -1.94708 0.0863931 0
M  V30 9835 H 935.336 -2.92568 -1.08676 0
M  V30 9836 N 935.637 0.236453 -1.55816 0
M  V30 9837 C 936.547 1.31418 -1.94336 0
M  V30 9838 C 937.563 1.52095 -0.845164 0
M  V30 9839 O 938.739 1.65515 -1.14746 0
M  V30 9840 C 935.804 2.6468 -2.23932 0
M  V30 9841 C 934.865 2.52435 -3.47239 0
M  V30 9842 C 934.098 3.79342 -3.75414 0
M  V30 9843 O 934.321 4.81694 -3.05495 0
M  V30 9844 O 933.255 3.77347 -4.68927 0
M  V30 9845 H 937.081 1.01739 -2.86152 0
M  V30 9846 H 934.666 0.438084 -1.42833 0
M  V30 9847 H 936.548 3.4341 -2.44228 0
M  V30 9848 H 935.223 2.94071 -1.35292 0
M  V30 9849 H 934.13 1.71955 -3.32238 0
M  V30 9850 H 935.463 2.27987 -4.36214 0
M  V30 9851 N 937.115 1.49373 0.502552 0
M  V30 9852 C 938.392 1.49282 1.26389 0
M  V30 9853 C 938.772 0.219674 2.09954 0
M  V30 9854 O 938.12 -0.797991 2.14113 0
M  V30 9855 C 938.33 2.77083 2.12194 0
M  V30 9856 C 939.678 3.26511 2.71433 0
M  V30 9857 O 940.702 2.78189 2.22462 0
M  V30 9858 O 939.561 4.10665 3.60578 0
M  V30 9859 H 936.655 0.597415 0.57186 0
M  V30 9860 H 939.201 1.61634 0.516951 0
M  V30 9861 H 937.973 3.61237 1.50411 0
M  V30 9862 H 937.596 2.67583 2.94084 0
M  V30 9863 N 938.594 -0.753485 1.38421 0
M  V30 9864 C 939.842 -1.50962 1.34368 0
M  V30 9865 C 940.163 -1.94889 -0.0656895 0
M  V30 9866 O 939.433 -1.67652 -1.01339 0
M  V30 9867 H 938.013 -0.559967 0.494415 0
M  V30 9868 H 940.675 -0.895665 1.73101 0
M  V30 9869 H 939.771 -2.40048 1.99458 0
M  V30 9870 N 940.072 -1.23292 -0.981677 0
M  V30 9871 C 941.002 -1.03738 -2.09191 0
M  V30 9872 C 941.983 0.0453041 -1.7004 0
M  V30 9873 O 943.168 -0.119092 -1.93834 0
M  V30 9874 C 940.298 -0.626426 -3.41604 0
M  V30 9875 C 939.252 -1.65631 -3.94652 0
M  V30 9876 C 938.578 -1.10084 -5.23245 0
M  V30 9877 C 939.878 -3.04903 -4.24066 0
M  V30 9878 H 941.572 -1.966 -2.25807 0
M  V30 9879 H 939.118 -0.946656 -1.0851 0
M  V30 9880 H 941.071 -0.476689 -4.18695 0
M  V30 9881 H 939.795 0.337873 -3.24848 0
M  V30 9882 H 938.454 -1.79402 -3.19704 0
M  V30 9883 H 938.102 -0.127562 -5.02838 0
M  V30 9884 H 937.802 -1.78896 -5.59705 0
M  V30 9885 H 939.326 -0.962928 -6.02959 0
M  V30 9886 H 940.74 -2.94441 -4.91912 0
M  V30 9887 H 939.137 -3.70941 -4.71724 0
M  V30 9888 H 940.207 -3.53991 -3.31389 0
M  V30 9889 N 941.55 1.18024 -1.04442 0
M  V30 9890 C 942.46 2.25436 -0.649276 0
M  V30 9891 C 943.476 1.70915 0.326189 0
M  V30 9892 O 944.652 2.00592 0.180174 0
M  V30 9893 C 941.717 3.46693 -0.0222558 0
M  V30 9894 C 940.778 4.16332 -1.0472 0
M  V30 9895 C 940.011 5.31799 -0.450011 0
M  V30 9896 O 940.234 5.65544 0.742717 0
M  V30 9897 O 939.168 5.90209 -1.18056 0
M  V30 9898 H 942.994 2.61508 -1.54426 0
M  V30 9899 H 940.579 1.25178 -0.81552 0
M  V30 9900 H 942.461 4.20132 0.326597 0
M  V30 9901 H 941.136 3.12436 0.84649 0
M  V30 9902 H 940.043 3.44944 -1.44792 0
M  V30 9903 H 941.376 4.54598 -1.88684 0
M  V30 9904 N 943.028 0.824394 1.34319 0
M  V30 9905 C 943.976 0.235628 2.31403 0
M  V30 9906 C 944.97 -0.624443 1.57471 0
M  V30 9907 O 946.176 -0.515618 1.72457 0
M  V30 9908 H 942.551 0.0574537 0.749802 0
M  V30 9909 H 944.522 1.06925 2.78585 0
M  V30 9910 C 943.271 -0.586617 3.42716 0
M  V30 9911 H 942.594 0.0658669 3.99746 0
M  V30 9912 H 944.034 -0.964661 4.1288 0
M  V30 9913 C 942.493 -1.75957 2.87299 0
M  V30 9914 O 943.023 -2.8578 2.82299 0
M  V30 9915 N 941.229 -1.57678 2.44102 0
M  V30 9916 H 940.776 -0.683436 2.48369 0
M  V30 9917 H 940.734 -2.36311 2.07375 0
M  V30 9918 N 944.506 -1.46559 0.579492 0
M  V30 9919 C 945.754 -2.02 0.0637157 0
M  V30 9920 C 946.075 -1.45378 -1.29962 0
M  V30 9921 O 945.345 -0.637262 -1.85245 0
M  V30 9922 H 943.925 -0.746717 0.0205638 0
M  V30 9923 H 946.587 -1.79702 0.754544 0
M  V30 9924 H 945.683 -3.12099 -0.00770254 0
M  V30 9925 N 945.984 -0.3171 -1.54377 0
M  V30 9926 C 947.231 0.28741 -2.0045 0
M  V30 9927 C 947.559 1.52648 -1.20535 0
M  V30 9928 O 946.814 1.93775 -0.273831 0
M  V30 9929 C 947.113 0.672917 -3.51008 0
M  V30 9930 C 946.779 -0.466245 -4.48483 0
M  V30 9931 C 945.441 -0.778933 -4.74854 0
M  V30 9932 C 947.793 -1.23176 -5.06436 0
M  V30 9933 C 945.121 -1.85997 -5.56437 0
M  V30 9934 C 947.473 -2.30284 -5.89196 0
M  V30 9935 C 946.137 -2.62141 -6.13872 0
M  V30 9936 H 945.407 0.105171 -0.733499 0
M  V30 9937 H 948.054 -0.439538 -1.86388 0
M  V30 9938 H 946.359 1.48019 -3.62764 0
M  V30 9939 H 948.056 1.15209 -3.84094 0
M  V30 9940 H 944.646 -0.212449 -4.28073 0
M  V30 9941 H 948.83 -1.00344 -4.8605 0
M  V30 9942 H 944.086 -2.11134 -5.73788 0
M  V30 9943 H 948.26 -2.90048 -6.33123 0
M  V30 9944 H 945.887 -3.46037 -6.76877 0
M  V30 9945 N 947.462 1.57535 -0.0451378 0
M  V30 9946 C 948.708 1.92736 0.630921 0
M  V30 9947 C 949.041 0.923265 1.70849 0
M  V30 9948 O 948.316 -0.0516512 1.94431 0
M  V30 9949 C 948.599 3.38348 1.23259 0
M  V30 9950 C 948.452 4.49503 0.16349 0
M  V30 9951 C 949.771 3.84233 2.14599 0
M  V30 9952 H 946.89 0.700884 0.227883 0
M  V30 9953 H 949.532 1.89706 -0.10567 0
M  V30 9954 H 947.682 3.41061 1.86037 0
M  V30 9955 H 949.354 4.58919 -0.46808 0
M  V30 9956 H 947.597 4.30802 -0.509166 0
M  V30 9957 H 948.268 5.48457 0.624382 0
M  V30 9958 H 950.744 3.83358 1.6179 0
M  V30 9959 H 949.62 4.86781 2.53644 0
M  V30 9960 H 949.881 3.20646 3.04366 0
M  V30 9961 N 948.94 -0.228186 1.55939 0
M  V30 9962 C 950.17 -0.969211 1.82455 0
M  V30 9963 C 950.578 -1.78714 0.621133 0
M  V30 9964 O 949.921 -1.78841 -0.419694 0
M  V30 9965 C 949.983 -1.94088 3.02605 0
M  V30 9966 C 949.647 -1.30811 4.37878 0
M  V30 9967 C 950.644 -0.701275 5.15149 0
M  V30 9968 C 948.329 -1.32187 4.84595 0
M  V30 9969 C 950.323 -0.116631 6.37293 0
M  V30 9970 C 948.01 -0.733375 6.06683 0
M  V30 9971 C 949.008 -0.131804 6.82873 0
M  V30 9972 O 948.696 0.447549 8.02653 0
M  V30 9973 H 948.428 -0.289951 0.610659 0
M  V30 9974 H 950.982 -0.250576 2.03866 0
M  V30 9975 H 949.212 -2.69833 2.76996 0
M  V30 9976 H 950.901 -2.5469 3.1605 0
M  V30 9977 H 951.667 -0.683022 4.80166 0
M  V30 9978 H 947.546 -1.77949 4.25271 0
M  V30 9979 H 951.09 0.353539 6.96704 0
M  V30 9980 H 946.987 -0.749019 6.4114 0
M  V30 9981 H 947.755 0.341224 8.17788 0
M  V30 9982 N 950.418 -1.49637 -0.494624 0
M  V30 9983 C 951.381 -1.66252 -1.57775 0
M  V30 9984 C 952.381 -0.534054 -1.51672 0
M  V30 9985 O 953.571 -0.800637 -1.54711 0
M  V30 9986 C 950.703 -1.66584 -2.97426 0
M  V30 9987 H 951.896 -2.62864 -1.4437 0
M  V30 9988 H 949.449 -1.38764 -0.719323 0
M  V30 9989 H 950.184 -0.715798 -3.16302 0
M  V30 9990 H 949.969 -2.48543 -3.03264 0
M  V30 9991 H 951.459 -1.81474 -3.76108 0
M  V30 9992 N 951.896 0.746133 -1.38819 0
M  V30 9993 C 953.143 1.50545 -1.35434 0
M  V30 9994 C 953.471 1.94427 0.0532669 0
M  V30 9995 O 952.726 1.66285 1.03188 0
M  V30 9996 C 953.025 2.76639 -2.26286 0
M  V30 9997 C 952.691 2.51682 -3.74122 0
M  V30 9998 C 951.353 2.44584 -4.14406 0
M  V30 9999 C 953.705 2.30071 -4.67672 0
M  V30 10000 C 951.033 2.13902 -5.46318 0
M  V30 10001 C 953.385 2.00907 -5.99849 0
M  V30 10002 C 952.049 1.92271 -6.39209 0
M  V30 10003 H 951.319 0.550883 -0.49559 0
M  V30 10004 H 953.966 0.857337 -1.71237 0
M  V30 10005 H 952.271 3.46138 -1.83564 0
M  V30 10006 H 953.968 3.34626 -2.20967 0
M  V30 10007 H 950.558 2.5808 -3.42188 0
M  V30 10008 H 954.742 2.34528 -4.3739 0
M  V30 10009 H 949.998 2.0573 -5.75748 0
M  V30 10010 H 954.172 1.83191 -6.71874 0
M  V30 10011 H 951.799 1.68261 -7.41345 0
M  V30 10012 N 953.375 1.23811 0.975125 0
M  V30 10013 C 954.652 0.9815 1.69192 0
M  V30 10014 C 955.032 -0.498373 2.05133 0
M  V30 10015 O 954.38 -1.47087 1.74864 0
M  V30 10016 C 954.59 1.89701 2.92941 0
M  V30 10017 C 955.938 2.16357 3.65342 0
M  V30 10018 O 956.962 1.87293 3.02985 0
M  V30 10019 O 955.821 2.65675 4.77576 0
M  V30 10020 H 952.915 0.370599 0.739314 0
M  V30 10021 H 955.461 1.34876 1.02988 0
M  V30 10022 H 954.233 2.89719 2.63018 0
M  V30 10023 H 953.856 1.53244 3.66881 0
M  V30 10024 N 954.853 -1.17469 1.05066 0
M  V30 10025 C 955.816 -2.19648 0.654793 0
M  V30 10026 C 956.816 -1.58107 -0.293063 0
M  V30 10027 O 958.006 -1.74029 -0.077106 0
M  V30 10028 C 955.138 -3.40878 -0.0384437 0
M  V30 10029 H 956.331 -2.56184 1.55915 0
M  V30 10030 H 953.884 -1.31528 0.844396 0
M  V30 10031 H 954.619 -3.09885 -0.956133 0
M  V30 10032 H 954.404 -3.86792 0.642961 0
M  V30 10033 H 955.894 -4.1651 -0.301568 0
M  V30 10034 N 956.331 -0.831506 -1.3388 0
M  V30 10035 C 957.608 -0.345907 -1.92517 0
M  V30 10036 C 957.988 1.16784 -1.75854 0
M  V30 10037 O 957.336 1.97889 -1.14245 0
M  V30 10038 C 957.546 -0.784692 -3.40064 0
M  V30 10039 C 958.894 -0.78846 -4.17215 0
M  V30 10040 O 959.918 -0.727823 -3.48685 0
M  V30 10041 O 958.777 -0.869481 -5.39539 0
M  V30 10042 H 955.871 -0.0963568 -0.821367 0
M  V30 10043 H 958.417 -0.916868 -1.42799 0
M  V30 10044 H 957.189 -1.82697 -3.46031 0
M  V30 10045 H 956.812 -0.189897 -3.97146 0
M  V30 10046 N 957.809 1.4625 -0.587256 0
M  V30 10047 C 958.757 2.32076 0.156108 0
M  V30 10048 C 959.751 1.44756 0.879887 0
M  V30 10049 O 960.957 1.61356 0.797759 0
M  V30 10050 H 957.332 0.748808 0.0692098 0
M  V30 10051 H 959.303 2.9258 -0.586497 0
M  V30 10052 C 958.052 3.28008 1.15352 0
M  V30 10053 H 957.375 3.9518 0.60601 0
M  V30 10054 H 958.815 3.90832 1.64396 0
M  V30 10055 C 957.274 2.53691 2.21681 0
M  V30 10056 O 957.804 2.30329 3.29107 0
M  V30 10057 N 956.01 2.14174 1.96412 0
M  V30 10058 H 955.557 2.33374 1.09061 0
M  V30 10059 H 955.515 1.6477 2.67765 0
M  V30 10060 N 959.287 0.325282 1.54207 0
M  V30 10061 C 960.698 -0.162426 1.85992 0
M  V30 10062 C 961.049 -1.51482 1.2469 0
M  V30 10063 O 960.174 -2.092 0.553578 0
M  V30 10064 C 960.769 -0.3015 3.37456 0
M  V30 10065 C 959.328 -0.73343 3.69185 0
M  V30 10066 C 958.475 0.143831 2.76927 0
M  V30 10067 H 961.426 0.545508 1.4903 0
M  V30 10068 H 961.447 -1.13212 3.63268 0
M  V30 10069 H 960.959 0.682942 3.82044 0
M  V30 10070 H 959.06 -1.72755 3.30131 0
M  V30 10071 H 959.173 -0.535987 4.76092 0
M  V30 10072 H 957.537 -0.380892 2.51836 0
M  V30 10073 H 958.32 1.12507 3.24341 0
M  V30 10074 N 960.765 -1.57509 0.0534917 0
M  V30 10075 C 961.713 -2.12851 -0.937931 0
M  V30 10076 C 962.707 -1.06088 -1.32067 0
M  V30 10077 O 963.913 -1.24494 -1.30005 0
M  V30 10078 H 960.288 -0.680357 -0.320342 0
M  V30 10079 H 962.259 -2.95047 -0.446077 0
M  V30 10080 C 961.008 -2.69034 -2.20264 0
M  V30 10081 H 960.331 -3.50848 -1.91693 0
M  V30 10082 H 961.771 -3.11375 -2.87788 0
M  V30 10083 C 960.23 -1.62919 -2.94888 0
M  V30 10084 O 960.76 -1.04334 -3.87914 0
M  V30 10085 N 958.966 -1.34385 -2.57661 0
M  V30 10086 H 958.513 -1.82214 -1.82088 0
M  V30 10087 H 958.471 -0.636149 -3.07897 0
M  V30 10088 N 962.243 0.219913 -1.56058 0
M  V30 10089 C 963.473 0.959521 -1.82967 0
M  V30 10090 C 963.881 1.78382 -0.630602 0
M  V30 10091 O 963.224 1.79062 0.410203 0
M  V30 10092 C 963.286 1.92481 -3.0363 0
M  V30 10093 C 962.95 1.28487 -4.38566 0
M  V30 10094 C 963.947 0.673946 -5.15513 0
M  V30 10095 C 961.632 1.29615 -4.85289 0
M  V30 10096 C 963.626 0.0828324 -6.37346 0
M  V30 10097 C 961.313 0.701191 -6.07064 0
M  V30 10098 C 962.311 0.0955877 -6.82933 0
M  V30 10099 O 961.999 -0.490109 -8.02405 0
M  V30 10100 H 961.731 0.286709 -0.612188 0
M  V30 10101 H 964.285 0.239761 -2.03996 0
M  V30 10102 H 962.515 2.6836 -2.78424 0
M  V30 10103 H 964.204 2.5301 -3.17397 0
M  V30 10104 H 964.97 0.657548 -4.80522 0
M  V30 10105 H 960.849 1.75691 -4.26208 0
M  V30 10106 H 964.393 -0.390482 -6.96506 0
M  V30 10107 H 960.29 0.715007 -6.41528 0
M  V30 10108 H 961.058 -0.384588 -8.17596 0
M  V30 10109 N 963.721 1.49897 0.486681 0
M  V30 10110 C 964.651 1.7054 1.59494 0
M  V30 10111 C 965.632 0.554184 1.60819 0
M  V30 10112 O 966.817 0.791617 1.77333 0
M  V30 10113 C 963.947 1.78517 2.97908 0
M  V30 10114 C 962.901 2.93571 3.11449 0
M  V30 10115 C 962.227 2.86674 4.51356 0
M  V30 10116 C 963.527 4.34308 2.90127 0
M  V30 10117 H 965.221 2.63329 1.42472 0
M  V30 10118 H 962.767 1.2672 0.683969 0
M  V30 10119 H 964.72 1.91544 3.75352 0
M  V30 10120 H 963.444 0.823381 3.16051 0
M  V30 10121 H 962.103 2.80169 2.36433 0
M  V30 10122 H 961.751 1.88373 4.66395 0
M  V30 10123 H 961.451 3.63903 4.61355 0
M  V30 10124 H 962.975 3.01728 5.30841 0
M  V30 10125 H 964.389 4.48317 3.57331 0
M  V30 10126 H 962.786 5.12869 3.11585 0
M  V30 10127 H 963.856 4.47759 1.86119 0
M  V30 10128 N 965.199 -0.738761 1.39212 0
M  V30 10129 C 966.132 -1.86135 1.32018 0
M  V30 10130 C 967.11 -1.61432 0.194512 0
M  V30 10131 O 968.294 -1.84746 0.374331 0
M  V30 10132 C 965.421 -3.22044 1.04907 0
M  V30 10133 C 964.467 -3.65612 2.19613 0
M  V30 10134 S 965.3 -3.75418 3.81866 0
M  V30 10135 C 966.456 -5.14122 3.56972 0
M  V30 10136 H 966.689 -1.91954 2.27027 0
M  V30 10137 H 964.222 -0.903244 1.25223 0
M  V30 10138 H 966.18 -4.00524 0.899491 0
M  V30 10139 H 964.841 -3.13886 0.115918 0
M  V30 10140 H 964.034 -4.64232 1.96227 0
M  V30 10141 H 963.636 -2.94327 2.30755 0
M  V30 10142 H 965.928 -6.00339 3.14005 0
M  V30 10143 H 966.871 -5.42535 4.55039 0
M  V30 10144 H 967.279 -4.8362 2.91156 0
M  V30 10145 N 966.677 -1.24326 -0.968545 0
M  V30 10146 C 967.923 -1.08406 -1.71394 0
M  V30 10147 C 968.256 0.376353 -1.90518 0
M  V30 10148 O 967.531 1.27816 -1.46606 0
M  V30 10149 C 967.814 -1.82344 -3.1052 0
M  V30 10150 C 967.667 -3.3613 -2.98893 0
M  V30 10151 C 968.986 -1.59545 -4.10163 0
M  V30 10152 H 966.105 -0.395205 -0.622079 0
M  V30 10153 H 968.747 -1.52983 -1.12677 0
M  V30 10154 H 966.897 -1.44452 -3.60646 0
M  V30 10155 H 968.569 -3.83614 -2.56199 0
M  V30 10156 H 966.812 -3.64553 -2.35124 0
M  V30 10157 H 967.483 -3.83064 -3.97449 0
M  V30 10158 H 969.959 -1.92504 -3.68892 0
M  V30 10159 H 968.835 -2.13736 -5.05577 0
M  V30 10160 H 969.096 -0.533503 -4.38869 0
M  V30 10161 N 968.156 1.1691 -1.05688 0
M  V30 10162 C 969.404 1.86922 -0.768409 0
M  V30 10163 C 969.725 1.81735 0.706921 0
M  V30 10164 O 968.995 1.24671 1.51109 0
M  V30 10165 H 967.575 0.69203 -0.281253 0
M  V30 10166 H 970.237 1.41803 -1.33708 0
M  V30 10167 H 969.333 2.92528 -1.08783 0
M  V30 10168 N 969.634 0.838594 1.33437 0
M  V30 10169 C 970.567 0.216651 2.27169 0
M  V30 10170 C 971.545 -0.636065 1.49643 0
M  V30 10171 O 972.729 -0.596388 1.78817 0
M  V30 10172 C 969.856 -0.69584 3.31475 0
M  V30 10173 C 968.902 0.0813808 4.26422 0
M  V30 10174 S 969.735 1.43909 5.15801 0
M  V30 10175 C 970.891 0.531887 6.23636 0
M  V30 10176 H 971.124 1.01128 2.79572 0
M  V30 10177 H 968.657 0.635332 1.40723 0
M  V30 10178 H 970.615 -1.21671 3.92054 0
M  V30 10179 H 969.276 -1.46413 2.77888 0
M  V30 10180 H 968.469 -0.612944 5.00259 0
M  V30 10181 H 968.071 0.533304 3.70178 0
M  V30 10182 H 970.363 -0.270371 6.7696 0
M  V30 10183 H 971.306 1.24041 6.97151 0
M  V30 10184 H 971.714 0.113357 5.64386 0
M  V30 10185 N 971.112 -1.45937 0.595003 0
M  V30 10186 C 972.361 -2.01529 0.0829531 0
M  V30 10187 C 972.674 -1.47071 -1.28955 0
M  V30 10188 O 973.88 -1.94561 -1.89363 0
M  V30 10189 C 972.336 -3.59767 0.0976597 0
M  V30 10190 C 971.944 -4.23223 1.46924 0
M  V30 10191 C 973.688 -4.22972 -0.359805 0
M  V30 10192 C 971.595 -5.73576 1.44101 0
M  V30 10193 H 970.525 -0.753508 0.0272425 0
M  V30 10194 H 973.176 -1.67541 0.748473 0
M  V30 10195 H 971.558 -3.90888 -0.634268 0
M  V30 10196 H 972.732 -4.03695 2.22187 0
M  V30 10197 H 971.047 -3.72161 1.86775 0
M  V30 10198 H 973.644 -5.33202 -0.39991 0
M  V30 10199 H 973.987 -3.92765 -1.37991 0
M  V30 10200 H 974.52 -3.96523 0.31845 0
M  V30 10201 H 971.259 -6.08462 2.43831 0
M  V30 10202 H 970.779 -5.95332 0.730767 0
M  V30 10203 H 972.458 -6.36531 1.1592 0
M  V30 10204 N 972.59 -0.333456 -1.54032 0
M  V30 10205 C 973.5 0.536674 -2.28379 0
M  V30 10206 C 974.516 1.12068 -1.33104 0
M  V30 10207 O 975.692 1.13853 -1.66131 0
M  V30 10208 C 972.757 1.67677 -3.03456 0
M  V30 10209 C 971.818 1.12357 -4.14336 0
M  V30 10210 C 971.051 2.20933 -4.85823 0
M  V30 10211 O 971.274 3.41466 -4.569 0
M  V30 10212 O 970.208 1.85795 -5.72507 0
M  V30 10213 H 974.034 -0.0674003 -3.03625 0
M  V30 10214 H 971.619 -0.098823 -1.49073 0
M  V30 10215 H 973.501 2.34032 -3.50438 0
M  V30 10216 H 972.176 2.26684 -2.31076 0
M  V30 10217 H 971.083 0.424827 -3.7168 0
M  V30 10218 H 972.416 0.578497 -4.88789 0
M  V30 10219 N 974.068 1.57479 -0.061844 0
M  V30 10220 C 975.016 2.13346 0.926629 0
M  V30 10221 C 976.01 1.06787 1.31502 0
M  V30 10222 O 977.216 1.25181 1.29343 0
M  V30 10223 H 973.591 0.682046 0.316729 0
M  V30 10224 H 975.562 2.95279 0.430424 0
M  V30 10225 C 974.311 2.70198 2.18834 0
M  V30 10226 H 973.634 3.51859 1.89829 0
M  V30 10227 H 975.074 3.12897 2.86132 0
M  V30 10228 C 973.533 1.64481 2.9402 0
M  V30 10229 O 974.063 1.0639 3.87355 0
M  V30 10230 N 972.269 1.35749 2.56944 0
M  V30 10231 H 971.816 1.83177 1.81119 0
M  V30 10232 H 971.774 0.652469 3.07555 0
M  V30 10233 N 975.546 -0.211634 1.56173 0
M  V30 10234 C 976.792 -0.935935 1.79911 0
M  V30 10235 C 977.125 -1.83589 0.633155 0
M  V30 10236 O 976.4 -1.91004 -0.367132 0
M  V30 10237 C 976.683 -1.76638 3.13801 0
M  V30 10238 C 976.536 -0.892259 4.40861 0
M  V30 10239 C 977.855 -2.74224 3.44223 0
M  V30 10240 H 974.974 -0.338822 0.654499 0
M  V30 10241 H 977.616 -0.20422 1.88899 0
M  V30 10242 H 975.766 -2.39021 3.0627 0
M  V30 10243 H 977.438 -0.284407 4.60422 0
M  V30 10244 H 975.681 -0.198145 4.33347 0
M  V30 10245 H 976.352 -1.50793 5.31004 0
M  V30 10246 H 978.828 -2.21975 3.51946 0
M  V30 10247 H 977.704 -3.29424 4.39057 0
M  V30 10248 H 977.965 -3.52455 2.66885 0
M  V30 10249 N 977.024 -1.50153 -0.478725 0
M  V30 10250 C 977.971 -1.68458 -1.57767 0
M  V30 10251 C 978.941 -0.5259 -1.57555 0
M  V30 10252 O 980.126 -0.755574 -1.75202 0
M  V30 10253 C 977.266 -1.77772 -2.95789 0
M  V30 10254 C 976.379 -3.05092 -3.05848 0
M  V30 10255 C 975.514 -3.05247 -4.34739 0
M  V30 10256 C 974.553 -4.27053 -4.38512 0
M  V30 10257 N 973.69 -4.24991 -5.58862 0
M  V30 10258 H 978.53 -2.62282 -1.41464 0
M  V30 10259 H 976.067 -1.30023 -0.687921 0
M  V30 10260 H 978.025 -1.81152 -3.75819 0
M  V30 10261 H 976.655 -0.873944 -3.10744 0
M  V30 10262 H 975.707 -3.11219 -2.1874 0
M  V30 10263 H 977.019 -3.95075 -3.04495 0
M  V30 10264 H 976.173 -3.07314 -5.23109 0
M  V30 10265 H 974.912 -2.13081 -4.38689 0
M  V30 10266 H 973.917 -4.25206 -3.4854 0
M  V30 10267 H 975.142 -5.20437 -4.36259 0
M  V30 10268 H 973.088 -3.35674 -5.63612 0
M  V30 10269 H 973.005 -5.08734 -5.59219 0
M  V30 10270 H 974.273 -4.31193 -6.49379 0
M  V30 10271 N 978.502 0.731368 -1.39602 0
M  V30 10272 C 979.75 1.48805 -1.36753 0
M  V30 10273 C 980.071 1.94969 0.034676 0
M  V30 10274 O 979.341 1.69243 0.986591 0
M  V30 10275 H 977.921 0.55203 -0.503261 0
M  V30 10276 H 980.583 0.868013 -1.74504 0
M  V30 10277 H 979.679 2.36844 -2.03252 0
M  V30 10278 N 979.98 1.24838 0.961938 0
M  V30 10279 C 981.396 1.01502 1.23165 0
M  V30 10280 C 981.596 -0.272651 1.99647 0
M  V30 10281 O 980.652 -0.987297 2.32398 0
M  V30 10282 C 981.965 2.23366 2.01316 0
M  V30 10283 C 983.513 2.28051 2.14387 0
M  V30 10284 C 983.988 3.49552 2.95935 0
M  V30 10285 N 985.479 3.49904 3.03515 0
M  V30 10286 C 986.214 4.40577 3.66987 0
M  V30 10287 N 985.71 5.41512 4.3213 0
M  V30 10288 N 987.503 4.28275 3.64056 0
M  V30 10289 H 979.654 2.07576 0.450086 0
M  V30 10290 H 981.917 0.911205 0.261551 0
M  V30 10291 H 981.623 3.16913 1.5251 0
M  V30 10292 H 981.497 2.25949 3.02038 0
M  V30 10293 H 983.884 1.35032 2.62393 0
M  V30 10294 H 983.965 2.29491 1.12994 0
M  V30 10295 H 983.609 4.42889 2.4862 0
M  V30 10296 H 983.539 3.45357 3.97538 0
M  V30 10297 H 986.03 2.76885 2.57183 0
M  V30 10298 H 986.343 6.06924 4.78396 0
M  V30 10299 H 984.688 5.45393 4.3078 0
M  V30 10300 H 987.879 3.48653 3.12344 0
M  V30 10301 H 988.052 4.99138 4.13237 0
M  V30 10302 N 981.458 -1.16348 1.06306 0
M  V30 10303 C 982.706 -1.86512 0.778311 0
M  V30 10304 C 983.027 -1.82107 -0.697273 0
M  V30 10305 O 982.297 -1.2547 -1.50446 0
M  V30 10306 H 980.877 -0.690529 0.284919 0
M  V30 10307 H 983.539 -1.41092 1.34458 0
M  V30 10308 H 982.635 -2.91947 1.10333 0
M  V30 10309 N 982.937 -0.845659 -1.3299 0
M  V30 10310 C 984.185 -0.443774 -1.97168 0
M  V30 10311 C 984.506 1.00192 -1.67292 0
M  V30 10312 O 983.776 1.69891 -0.975397 0
M  V30 10313 H 982.356 -0.161111 -0.729419 0
M  V30 10314 H 985.018 -1.08011 -1.62233 0
M  V30 10315 H 984.114 -0.581414 -3.06637 0
M  V30 10316 N 984.415 1.45619 -0.602734 0
M  V30 10317 C 985.64 2.07157 -0.100429 0
M  V30 10318 C 986.065 1.44524 1.20393 0
M  V30 10319 O 985.423 0.536191 1.7319 0
M  V30 10320 C 985.471 3.60587 0.0308604 0
M  V30 10321 O 984.575 3.97944 1.08234 0
M  V30 10322 H 983.916 0.6601 -0.0718643 0
M  V30 10323 H 986.446 1.86948 -0.831366 0
M  V30 10324 H 986.456 4.07348 0.230634 0
M  V30 10325 H 985.131 4.05561 -0.921581 0
M  V30 10326 H 983.708 3.62862 0.859414 0
M  V30 10327 N 985.893 0.34162 1.53853 0
M  V30 10328 C 987.141 -0.254979 2.00485 0
M  V30 10329 C 987.462 -1.51222 1.23114 0
M  V30 10330 O 986.732 -1.92966 0.337787 0
M  V30 10331 H 985.312 -0.0972084 0.740648 0
M  V30 10332 H 987.974 0.462332 1.89337 0
M  V30 10333 H 987.07 -0.498778 3.08089 0
M  V30 10334 N 987.371 -1.57444 0.0701946 0
M  V30 10335 C 988.301 -2.15659 -0.895176 0
M  V30 10336 C 989.282 -1.08321 -1.31151 0
M  V30 10337 O 990.467 -1.36349 -1.38284 0
M  V30 10338 C 987.597 -2.71693 -2.16334 0
M  V30 10339 C 986.551 -3.84183 -1.88645 0
M  V30 10340 C 985.877 -4.26814 -3.22078 0
M  V30 10341 C 987.177 -5.08493 -1.19299 0
M  V30 10342 H 988.871 -2.96576 -0.410217 0
M  V30 10343 H 986.417 -1.42662 -0.195872 0
M  V30 10344 H 988.37 -3.11064 -2.84284 0
M  V30 10345 H 987.094 -1.87994 -2.67069 0
M  V30 10346 H 985.753 -3.45314 -1.23101 0
M  V30 10347 H 985.401 -3.40039 -3.70651 0
M  V30 10348 H 985.101 -5.02642 -3.04344 0
M  V30 10349 H 986.625 -4.68799 -3.91228 0
M  V30 10350 H 988.039 -5.4519 -1.77316 0
M  V30 10351 H 986.436 -5.89588 -1.11828 0
M  V30 10352 H 987.506 -4.84595 -0.171839 0
M  V30 10353 N 988.849 0.203349 -1.56283 0
M  V30 10354 C 990.095 0.926381 -1.80405 0
M  V30 10355 C 990.428 1.8325 -0.642883 0
M  V30 10356 O 989.703 1.91196 0.356998 0
M  V30 10357 C 989.986 1.74972 -3.14733 0
M  V30 10358 C 989.839 0.868866 -4.41328 0
M  V30 10359 C 991.158 2.72394 -3.45672 0
M  V30 10360 H 988.277 0.335346 -0.656286 0
M  V30 10361 H 990.919 0.1942 -1.89005 0
M  V30 10362 H 989.069 2.37394 -3.07533 0
M  V30 10363 H 990.741 0.259986 -4.60567 0
M  V30 10364 H 988.984 0.175161 -4.33446 0
M  V30 10365 H 989.655 1.47975 -5.31796 0
M  V30 10366 H 992.131 2.20105 -3.53119 0
M  V30 10367 H 991.007 3.27091 -4.40798 0
M  V30 10368 H 991.268 3.51035 -2.6875 0
M  V30 10369 N 990.327 1.50405 0.470755 0
M  V30 10370 C 991.576 1.60652 1.21959 0
M  V30 10371 C 991.889 0.312521 1.93087 0
M  V30 10372 O 993.095 0.293901 2.69905 0
M  V30 10373 C 991.551 2.83581 2.21607 0
M  V30 10374 C 991.159 4.19858 1.5628 0
M  V30 10375 C 992.903 3.03173 2.9713 0
M  V30 10376 C 990.81 5.33974 2.54217 0
M  V30 10377 H 989.74 0.598264 0.458907 0
M  V30 10378 H 992.391 1.76836 0.490041 0
M  V30 10379 H 990.773 2.60957 2.97855 0
M  V30 10380 H 991.947 4.52738 0.85819 0
M  V30 10381 H 990.262 4.05873 0.930366 0
M  V30 10382 H 992.859 3.856 3.70428 0
M  V30 10383 H 993.202 2.14914 3.56536 0
M  V30 10384 H 993.735 3.2598 2.27995 0
M  V30 10385 H 990.474 6.24388 1.99549 0
M  V30 10386 H 989.994 5.05511 3.22829 0
M  V30 10387 H 991.673 5.64561 3.16039 0
M  V30 10388 N 991.805 -0.723954 1.39988 0
M  V30 10389 C 993.082 -1.4763 1.28316 0
M  V30 10390 C 993.462 -2.10852 -0.102302 0
M  V30 10391 O 992.81 -1.9948 -1.11445 0
M  V30 10392 C 993.02 -2.51878 2.41574 0
M  V30 10393 C 994.368 -3.17948 2.81415 0
M  V30 10394 O 995.392 -2.62195 2.41106 0
M  V30 10395 O 994.251 -4.18858 3.51027 0
M  V30 10396 H 991.345 -0.656092 0.50346 0
M  V30 10397 H 993.891 -0.75684 1.51888 0
M  V30 10398 H 992.663 -2.03618 3.34149 0
M  V30 10399 H 992.286 -3.3137 2.19727 0
M  V30 10400 N 993.283 -1.25346 -0.955304 0
M  V30 10401 C 994.23 -1.05672 -2.05188 0
M  V30 10402 C 995.2 0.0339217 -1.66065 0
M  V30 10403 O 996.385 -0.123126 -1.90402 0
M  V30 10404 C 993.525 -0.680791 -3.38318 0
M  V30 10405 C 992.638 -1.84622 -3.90562 0
M  V30 10406 C 991.773 -1.41471 -5.12015 0
M  V30 10407 C 990.812 -2.54931 -5.56486 0
M  V30 10408 N 989.949 -2.1256 -6.69151 0
M  V30 10409 H 994.789 -1.9952 -2.2135 0
M  V30 10410 H 992.326 -0.993588 -1.08472 0
M  V30 10411 H 994.284 -0.443794 -4.14833 0
M  V30 10412 H 992.914 0.2207 -3.22045 0
M  V30 10413 H 991.966 -2.19654 -3.10574 0
M  V30 10414 H 993.278 -2.6983 -4.19515 0
M  V30 10415 H 992.432 -1.13732 -5.95945 0
M  V30 10416 H 991.171 -0.533334 -4.84775 0
M  V30 10417 H 990.176 -2.83415 -4.71122 0
M  V30 10418 H 991.401 -3.43645 -5.85734 0
M  V30 10419 H 989.347 -1.26838 -6.43621 0
M  V30 10420 H 989.264 -2.91317 -6.97618 0
M  V30 10421 H 990.532 -1.87996 -7.5649 0
M  V30 10422 N 994.761 1.15782 -1.06922 0
M  V30 10423 C 995.691 2.22538 -0.707045 0
M  V30 10424 C 996.672 1.67371 0.303471 0
M  V30 10425 O 997.857 1.9339 0.177189 0
M  V30 10426 C 994.987 3.47158 -0.0994269 0
M  V30 10427 C 993.941 4.15257 -1.03661 0
M  V30 10428 C 993.267 5.33902 -0.291974 0
M  V30 10429 C 994.567 4.65516 -2.36837 0
M  V30 10430 H 996.261 2.53089 -1.59958 0
M  V30 10431 H 993.807 1.21649 -0.770552 0
M  V30 10432 H 995.76 4.21073 0.165852 0
M  V30 10433 H 994.484 3.15926 0.828155 0
M  V30 10434 H 993.143 3.43276 -1.28674 0
M  V30 10435 H 992.791 4.98926 0.638928 0
M  V30 10436 H 992.491 5.80407 -0.916613 0
M  V30 10437 H 994.015 6.1059 -0.0343915 0
M  V30 10438 H 995.429 5.30981 -2.16175 0
M  V30 10439 H 993.826 5.22666 -2.94856 0
M  V30 10440 H 994.896 3.81387 -2.99453 0
M  V30 10441 N 996.239 0.8527 1.3254 0
M  V30 10442 C 997.186 0.293905 2.28921 0
M  V30 10443 C 998.156 -0.598027 1.54961 0
M  V30 10444 O 999.341 -0.533355 1.83194 0
M  V30 10445 C 996.481 -0.513361 3.4126 0
M  V30 10446 C 995.594 0.404144 4.30105 0
M  V30 10447 C 994.729 -0.415564 5.29572 0
M  V30 10448 C 993.768 0.499461 6.10059 0
M  V30 10449 N 992.905 -0.282949 7.0153 0
M  V30 10450 H 997.745 1.12107 2.76109 0
M  V30 10451 H 995.282 0.564272 1.35847 0
M  V30 10452 H 997.24 -0.997008 4.05112 0
M  V30 10453 H 995.87 -1.30537 2.95229 0
M  V30 10454 H 994.922 1.00617 3.66852 0
M  V30 10455 H 996.234 1.10648 4.86373 0
M  V30 10456 H 995.388 -0.962458 5.99017 0
M  V30 10457 H 994.127 -1.15127 4.73917 0
M  V30 10458 H 993.132 1.05825 5.39519 0
M  V30 10459 H 994.357 1.23375 6.67799 0
M  V30 10460 H 992.303 -1.00179 6.48306 0
M  V30 10461 H 992.22 0.36039 7.55141 0
M  V30 10462 H 993.488 -0.811632 7.75263 0
M  V30 10463 N 997.718 -1.45297 0.610449 0
M  V30 10464 C 999.129 -1.85715 0.191488 0
M  V30 10465 C 999.48 -1.51036 -1.25229 0
M  V30 10466 O 998.605 -0.938422 -1.94994 0
M  V30 10467 C 999.2 -3.37082 0.340747 0
M  V30 10468 C 997.759 -3.76393 -0.0235433 0
M  V30 10469 C 996.906 -2.69237 0.663849 0
M  V30 10470 H 999.857 -1.36058 0.816948 0
M  V30 10471 H 999.878 -3.78105 -0.426233 0
M  V30 10472 H 999.39 -3.62291 1.39164 0
M  V30 10473 H 997.491 -3.56801 -1.07351 0
M  V30 10474 H 997.604 -4.77653 0.372102 0
M  V30 10475 H 995.968 -2.54499 0.101204 0
M  V30 10476 H 996.751 -2.97281 1.71694 0
M  V30 10477 N 999.196 -0.349774 -1.5367 0
M  V30 10478 C 1000.44 0.245189 -2.01312 0
M  V30 10479 C 1000.77 1.49702 -1.23705 0
M  V30 10480 O 1000.05 1.91742 -0.326371 0
M  V30 10481 C 1000.33 0.553071 -3.55827 0
M  V30 10482 C 1000.19 -0.71129 -4.4414 0
M  V30 10483 C 1001.5 1.36015 -4.18555 0
M  V30 10484 H 998.624 0.0876415 -0.73177 0
M  V30 10485 H 1001.27 -0.471543 -1.84056 0
M  V30 10486 H 999.416 1.16367 -3.70663 0
M  V30 10487 H 1001.09 -1.34913 -4.41131 0
M  V30 10488 H 999.331 -1.33491 -4.1275 0
M  V30 10489 H 1000 -0.45104 -5.50154 0
M  V30 10490 H 1002.48 0.843778 -4.07455 0
M  V30 10491 H 1001.35 1.54432 -5.26728 0
M  V30 10492 H 1001.61 2.36408 -3.73582 0
M  V30 10493 N 1000.67 1.57404 -0.0785433 0
M  V30 10494 C 1001.92 1.9292 0.588626 0
M  V30 10495 C 1002.24 0.961106 1.70359 0
M  V30 10496 O 1003.44 1.20934 2.43079 0
M  V30 10497 C 1001.9 3.42729 1.09839 0
M  V30 10498 C 1001.51 4.47998 0.0140773 0
M  V30 10499 C 1003.25 3.87235 1.73924 0
M  V30 10500 C 1001.16 5.88945 0.538269 0
M  V30 10501 H 1000.09 0.720069 0.223645 0
M  V30 10502 H 1002.74 1.8287 -0.15187 0
M  V30 10503 H 1001.12 3.47875 1.89207 0
M  V30 10504 H 1002.29 4.54476 -0.760773 0
M  V30 10505 H 1000.61 4.13001 -0.53095 0
M  V30 10506 H 1003.21 4.89927 2.14186 0
M  V30 10507 H 1003.55 3.24971 2.60191 0
M  V30 10508 H 1004.08 3.84721 1.01168 0
M  V30 10509 H 1000.82 6.5487 -0.287395 0
M  V30 10510 H 1000.34 5.85972 1.28049 0
M  V30 10511 H 1002.02 6.39028 1.01253 0
M  V30 10512 N 1002.15 -0.195058 1.56388 0
M  V30 10513 C 1003.06 -1.26219 1.97752 0
M  V30 10514 C 1004.08 -1.49801 0.885192 0
M  V30 10515 O 1005.25 -1.62415 1.19094 0
M  V30 10516 C 1002.32 -2.5865 2.3087 0
M  V30 10517 C 1001.38 -2.4314 3.5381 0
M  V30 10518 C 1000.61 -3.69255 3.85339 0
M  V30 10519 O 1000.84 -4.73425 3.18159 0
M  V30 10520 O 999.77 -3.64782 4.78767 0
M  V30 10521 H 1003.6 -0.941161 2.88749 0
M  V30 10522 H 1001.18 -0.40006 1.43944 0
M  V30 10523 H 1003.06 -3.36814 2.53247 0
M  V30 10524 H 1001.74 -2.9038 1.43042 0
M  V30 10525 H 1000.64 -1.63086 3.3668 0
M  V30 10526 H 1001.98 -2.16341 4.42105 0
M  V30 10527 N 1003.63 -1.50653 -0.462772 0
M  V30 10528 C 1004.85 -1.66103 -1.24196 0
M  V30 10529 C 1005.28 -0.347421 -1.84864 0
M  V30 10530 O 1004.64 0.689673 -1.6767 0
M  V30 10531 C 1004.69 -2.76027 -2.32037 0
M  V30 10532 O 1003.79 -2.37859 -3.36893 0
M  V30 10533 H 1003.13 -0.554672 -0.365014 0
M  V30 10534 H 1005.66 -1.97076 -0.549734 0
M  V30 10535 H 1005.67 -2.99354 -2.77221 0
M  V30 10536 H 1004.35 -3.71361 -1.87253 0
M  V30 10537 H 1002.92 -2.2501 -2.97363 0
M  V30 10538 N 1005.11 0.71652 -1.4037 0
M  V30 10539 C 1006.04 1.84012 -1.34963 0
M  V30 10540 C 1007.02 1.61102 -0.22017 0
M  V30 10541 O 1008.2 1.84127 -0.403676 0
M  V30 10542 C 1005.33 3.20334 -1.10017 0
M  V30 10543 C 1004.38 3.62072 -2.25402 0
M  V30 10544 S 1005.21 3.69295 -3.8779 0
M  V30 10545 C 1006.37 5.08378 -3.65107 0
M  V30 10546 H 1006.6 1.88318 -2.30052 0
M  V30 10547 H 1004.13 0.883208 -1.26644 0
M  V30 10548 H 1006.09 3.99042 -0.963097 0
M  V30 10549 H 1004.75 3.13662 -0.16584 0
M  V30 10550 H 1003.94 4.61051 -2.03587 0
M  V30 10551 H 1003.55 2.90619 -2.35408 0
M  V30 10552 H 1005.84 5.95268 -3.23516 0
M  V30 10553 H 1006.78 5.35228 -4.63613 0
M  V30 10554 H 1007.19 4.78927 -2.98813 0
M  V30 10555 N 1006.59 1.25851 0.948643 0
M  V30 10556 C 1007.82 1.13546 1.726 0
M  V30 10557 C 1008.22 -0.312857 1.86595 0
M  V30 10558 O 1007.57 -1.22657 1.36751 0
M  V30 10559 C 1007.63 1.72315 3.15512 0
M  V30 10560 C 1007.29 3.2136 3.24926 0
M  V30 10561 C 1008.29 4.18274 3.08777 0
M  V30 10562 C 1005.98 3.61683 3.48555 0
M  V30 10563 C 1007.97 5.53491 3.16112 0
M  V30 10564 C 1005.66 4.97035 3.55526 0
M  V30 10565 C 1006.65 5.92749 3.3932 0
M  V30 10566 O 1006.34 7.25637 3.45985 0
M  V30 10567 H 1006.07 0.396555 0.547467 0
M  V30 10568 H 1008.63 1.66822 1.19832 0
M  V30 10569 H 1006.86 1.13494 3.6967 0
M  V30 10570 H 1008.55 1.55024 3.7513 0
M  V30 10571 H 1009.31 3.88461 2.90385 0
M  V30 10572 H 1005.19 2.87674 3.60229 0
M  V30 10573 H 1008.74 6.28177 3.0338 0
M  V30 10574 H 1004.63 5.26512 3.73437 0
M  V30 10575 H 1005.4 7.33812 3.62577 0
M  V30 10576 N 1008.06 -1.15214 1.07534 0
M  V30 10577 C 1009.01 -2.20013 0.697337 0
M  V30 10578 C 1009.98 -1.6314 -0.312168 0
M  V30 10579 O 1011.17 -1.89768 -0.198196 0
M  V30 10580 C 1008.31 -3.44945 0.103293 0
M  V30 10581 C 1007.42 -4.16009 1.1645 0
M  V30 10582 C 1006.55 -5.28496 0.535261 0
M  V30 10583 C 1005.59 -5.9138 1.57912 0
M  V30 10584 N 1004.73 -6.95335 0.972332 0
M  V30 10585 H 1009.57 -2.51698 1.59538 0
M  V30 10586 H 1007.11 -1.2361 0.797431 0
M  V30 10587 H 1009.07 -4.16397 -0.258766 0
M  V30 10588 H 1007.7 -3.13772 -0.758096 0
M  V30 10589 H 1006.75 -3.43035 1.64411 0
M  V30 10590 H 1008.06 -4.58853 1.9559 0
M  V30 10591 H 1007.21 -6.06579 0.120942 0
M  V30 10592 H 1005.95 -4.8685 -0.287889 0
M  V30 10593 H 1004.96 -5.12008 2.0032 0
M  V30 10594 H 1006.18 -6.35103 2.40459 0
M  V30 10595 H 1004.13 -6.55779 0.170119 0
M  V30 10596 H 1004.05 -7.36616 1.70095 0
M  V30 10597 H 1005.31 -7.77312 0.583577 0
M  V30 10598 O 1009.58 -0.993666 -1.27313 0
M  V30 10599 H 1010.27 -0.643649 -1.82693 0
M  V30 END ATOM
M  V30 BEGIN BOND
M  V30 END BOND
M  V30 END CTAB
M  END
$$$$
