drugbank_target|P04798 Cytochrome P450 1A1 (DB02342; DB12379; DB14011)
 OpenBabel12092120343D

  0  0  0     0  0            999 V3000
M  V30 BEGIN CTAB
M  V30 COUNTS 8208 8312 0 0 0
M  V30 BEGIN ATOM
M  V30 1 H -0.908 1.98254 -0.117106 0
M  V30 2 N 0 1.576 0 0
M  V30 3 C 0.933 2.03868 1.02534 0
M  V30 4 C 1.911 0.928543 1.3348 0
M  V30 5 O 3.095 1.19667 1.45644 0
M  V30 6 C 0.222 2.43627 2.35294 0
M  V30 7 C -0.732 3.65373 2.2001 0
M  V30 8 S 0.101 5.13292 1.52614 0
M  V30 9 C 1.257 5.56322 2.86805 0
M  V30 10 H 1.49 2.90518 0.631377 0
M  V30 11 H -0.977 1.52953 0.210867 0
M  V30 12 H 0.981 2.67203 3.11629 0
M  V30 13 H -0.358 1.57376 2.7183 0
M  V30 14 H -1.165 3.90944 3.18086 0
M  V30 15 H -1.563 3.418 1.51819 0
M  V30 16 H 0.729 5.58782 3.83104 0
M  V30 17 H 1.672 6.56266 2.65933 0
M  V30 18 H 2.08 4.83886 2.90714 0
M  V30 19 N 1.4781 -0.272755 1.55222 0
M  V30 20 C 2.4081 -1.34136 1.91127 0
M  V30 21 C 3.3891 -1.51513 0.773168 0
M  V30 22 O 4.5741 -1.64552 1.03132 0
M  V30 23 C 1.7041 -2.70083 2.1834 0
M  V30 24 C 0.6581 -2.67437 3.34158 0
M  V30 25 C -0.0159 -4.06938 3.46851 0
M  V30 26 C 1.2841 -2.26686 4.70543 0
M  V30 27 H 2.9781 -1.04333 2.80633 0
M  V30 28 H 0.5241 -0.500454 1.35024 0
M  V30 29 H 2.4771 -3.44952 2.42046 0
M  V30 30 H 1.2011 -3.01469 1.25634 0
M  V30 31 H -0.1399 -1.95026 3.1042 0
M  V30 32 H -0.4919 -4.35547 2.51611 0
M  V30 33 H -0.7919 -4.06062 4.2472 0
M  V30 34 H 0.7321 -4.83545 3.72849 0
M  V30 35 H 2.1461 -2.91277 4.93792 0
M  V30 36 H 0.5431 -2.36971 5.5133 0
M  V30 37 H 1.6131 -1.21818 4.69349 0
M  V30 38 N 2.9562 -1.48159 -0.537278 0
M  V30 39 C 4.2032 -1.55804 -1.29349 0
M  V30 40 C 4.5312 -0.228802 -1.9315 0
M  V30 41 O 3.7862 0.780242 -1.79473 0
M  V30 42 C 4.0852 -2.63956 -2.40961 0
M  V30 43 C 3.7512 -4.0662 -1.94861 0
M  V30 44 C 2.4132 -4.45452 -1.82006 0
M  V30 45 C 4.7652 -4.96055 -1.59933 0
M  V30 46 C 2.0932 -5.71531 -1.32547 0
M  V30 47 C 4.4452 -6.22617 -1.11939 0
M  V30 48 C 3.1092 -6.60312 -0.976951 0
M  V30 49 H 2.3792 -0.570129 -0.473322 0
M  V30 50 H 5.0262 -1.81845 -0.600372 0
M  V30 51 H 3.3312 -2.31747 -3.15912 0
M  V30 52 H 5.0282 -2.67089 -2.99107 0
M  V30 53 H 1.6182 -3.75949 -2.05815 0
M  V30 54 H 5.8022 -4.66738 -1.68728 0
M  V30 55 H 1.0582 -5.99468 -1.202 0
M  V30 56 H 5.2322 -6.91318 -0.839811 0
M  V30 57 H 2.8592 -7.57895 -0.591501 0
M  V30 58 N 4.4343 0.785586 -1.36625 0
M  V30 59 C 5.8453 1.36101 -1.27803 0
M  V30 60 C 6.1963 1.96035 0.0804875 0
M  V30 61 O 5.3213 1.92834 0.982042 0
M  V30 62 C 5.9163 2.47442 -2.31426 0
M  V30 63 C 4.4753 3.00789 -2.26281 0
M  V30 64 C 3.6223 1.73896 -2.15999 0
M  V30 65 H 6.5733 0.586928 -1.47448 0
M  V30 66 H 6.5943 3.2656 -1.95291 0
M  V30 67 H 6.1063 2.03791 -3.30289 0
M  V30 68 H 4.2073 3.48851 -1.30896 0
M  V30 69 H 4.3203 3.57343 -3.19128 0
M  V30 70 H 2.6843 1.9628 -1.62316 0
M  V30 71 H 3.4673 1.32368 -3.16755 0
M  V30 72 N 5.9124 1.20967 1.01018 0
M  V30 73 C 7.1614 1.01796 1.74128 0
M  V30 74 C 7.4744 -0.449691 1.90361 0
M  V30 75 O 8.6804 -0.76068 2.60626 0
M  V30 76 C 7.1364 1.7727 3.13215 0
M  V30 77 C 6.7444 3.28171 3.04972 0
M  V30 78 C 8.4884 1.66489 3.90489 0
M  V30 79 C 6.3954 3.96156 4.39107 0
M  V30 80 H 5.3254 0.377276 0.652824 0
M  V30 81 H 7.9764 1.44651 1.12909 0
M  V30 82 H 6.3584 1.27205 3.75013 0
M  V30 83 H 7.5324 3.85499 2.52443 0
M  V30 84 H 5.8474 3.39437 2.41188 0
M  V30 85 H 8.4444 2.14617 4.89738 0
M  V30 86 H 8.7874 0.6222 4.11624 0
M  V30 87 H 9.3204 2.14003 3.35332 0
M  V30 88 H 6.0594 5.00604 4.23174 0
M  V30 89 H 5.5794 3.43617 4.91617 0
M  V30 90 H 7.2584 4.00774 5.07926 0
M  V30 91 N 7.3905 -1.2043 1.01659 0
M  V30 92 C 8.6155 -1.94318 0.724942 0
M  V30 93 C 9.0405 -1.74266 -0.708034 0
M  V30 94 O 8.3985 -1.03694 -1.48719 0
M  V30 95 C 8.4465 -3.44486 1.06591 0
M  V30 96 O 7.5505 -4.12017 0.177599 0
M  V30 97 H 6.8915 -0.60708 0.26898 0
M  V30 98 H 9.4215 -1.52861 1.35995 0
M  V30 99 H 9.4315 -3.95106 1.01762 0
M  V30 100 H 8.1065 -3.58404 2.10997 0
M  V30 101 H 6.6835 -3.71821 0.283421 0
M  V30 102 N 8.8686 -0.792821 -1.36206 0
M  V30 103 C 9.8016 -0.139422 -2.27774 0
M  V30 104 C 10.7796 0.68649 -1.47398 0
M  V30 105 O 11.9636 0.656738 -1.7669 0
M  V30 106 C 9.0906 0.807947 -3.28922 0
M  V30 107 C 8.1366 0.0633999 -4.26453 0
M  V30 108 S 8.9696 -1.26319 -5.20388 0
M  V30 109 C 10.1256 -0.31991 -6.25082 0
M  V30 110 H 10.3586 -0.915809 -2.82843 0
M  V30 111 H 7.8916 -0.587203 -1.42798 0
M  V30 112 H 9.8496 1.34908 -3.87699 0
M  V30 113 H 8.5106 1.55761 -2.72759 0
M  V30 114 H 7.7036 0.782386 -4.9789 0
M  V30 115 H 7.3056 -0.407352 -3.71775 0
M  V30 116 H 9.5976 0.499985 -6.75653 0
M  V30 117 H 10.5406 -1.00307 -7.00959 0
M  V30 118 H 10.9486 0.0782694 -5.64446 0
M  V30 119 N 10.3467 1.47872 -0.545128 0
M  V30 120 C 11.5717 2.07391 -0.0190611 0
M  V30 121 C 11.9967 1.39688 1.25971 0
M  V30 122 O 11.3547 0.467816 1.7516 0
M  V30 123 C 11.4027 3.60188 0.172335 0
M  V30 124 O 10.5067 3.9339 1.23766 0
M  V30 125 H 9.8477 0.662411 -0.0459059 0
M  V30 126 H 12.3777 1.90066 -0.757365 0
M  V30 127 H 12.3877 4.06129 0.390305 0
M  V30 128 H 11.0627 4.08865 -0.761725 0
M  V30 129 H 9.6397 3.5921 1.00114 0
M  V30 130 N 11.8248 0.280983 1.55075 0
M  V30 131 C 12.7878 -0.590896 2.21452 0
M  V30 132 C 13.7878 -1.07682 1.19421 0
M  V30 133 O 14.9778 -0.97605 1.44288 0
M  V30 134 C 12.1098 -1.81587 2.88511 0
M  V30 135 H 13.3028 -0.0112554 2.99898 0
M  V30 136 H 10.8558 0.0316438 1.56268 0
M  V30 137 H 11.5908 -2.43587 2.14093 0
M  V30 138 H 11.3758 -1.4753 3.63287 0
M  V30 139 H 12.8658 -2.43575 3.39206 0
M  V30 140 N 13.3029 -1.57598 0.00835791 0
M  V30 141 C 14.5309 -1.95214 -0.68549 0
M  V30 142 C 14.9459 -0.883706 -1.66841 0
M  V30 143 O 14.3029 0.136565 -1.81988 0
M  V30 144 C 14.3539 -3.32865 -1.41007 0
M  V30 145 O 14.0749 -4.35609 -0.466552 0
M  V30 146 C 15.5759 -3.84991 -2.19765 0
M  V30 147 H 12.7959 -0.643422 -0.190392 0
M  V30 148 H 15.3399 -2.04406 0.0619607 0
M  V30 149 H 13.4949 -3.24956 -2.10908 0
M  V30 150 H 13.9089 -5.15288 -0.978699 0
M  V30 151 H 15.3829 -4.8371 -2.65948 0
M  V30 152 H 15.8599 -3.18137 -3.02796 0
M  V30 153 H 16.4659 -3.96103 -1.54864 0
M  V30 154 N 14.781 0.264519 -1.55364 0
M  V30 155 C 15.691 1.34902 -1.91934 0
M  V30 156 C 16.707 1.53595 -0.817593 0
M  V30 157 O 17.883 1.67558 -1.11742 0
M  V30 158 C 14.948 2.68676 -2.19121 0
M  V30 159 C 14.009 2.58657 -3.4263 0
M  V30 160 C 13.242 3.86051 -3.68511 0
M  V30 161 O 13.465 4.87126 -2.96757 0
M  V30 162 O 12.399 3.85744 -4.62045 0
M  V30 163 H 16.225 1.06883 -2.8427 0
M  V30 164 H 13.81 0.463775 -1.42019 0
M  V30 165 H 15.692 3.47759 -2.37995 0
M  V30 166 H 14.367 2.96463 -1.29966 0
M  V30 167 H 13.274 1.7792 -3.29082 0
M  V30 168 H 14.607 2.35818 -4.32031 0
M  V30 169 N 16.2591 1.48442 0.529413 0
M  V30 170 C 17.5061 1.56488 1.28521 0
M  V30 171 C 17.8341 0.239042 1.93025 0
M  V30 172 O 17.0891 -0.770713 1.79885 0
M  V30 173 C 17.3881 2.6523 2.39558 0
M  V30 174 C 17.0541 4.07648 1.92702 0
M  V30 175 C 15.7161 4.46411 1.79641 0
M  V30 176 C 18.0681 4.96896 1.573 0
M  V30 177 C 15.3961 5.72226 1.29514 0
M  V30 178 C 17.7481 6.23202 1.08636 0
M  V30 179 C 16.4121 6.60821 0.941919 0
M  V30 180 H 15.6821 0.572631 0.470292 0
M  V30 181 H 18.3291 1.82161 0.59072 0
M  V30 182 H 16.6341 2.33419 3.14679 0
M  V30 183 H 18.3311 2.68671 2.97686 0
M  V30 184 H 14.9211 3.77036 2.03819 0
M  V30 185 H 19.1051 4.67626 1.66251 0
M  V30 186 H 14.3611 6.00097 1.17019 0
M  V30 187 H 18.5351 6.91753 0.803136 0
M  V30 188 H 16.1621 7.58198 0.5513 0
M  V30 189 N 17.7372 -0.778329 1.37039 0
M  V30 190 C 18.6672 -1.90546 1.34962 0
M  V30 191 C 19.6482 -1.68681 0.219274 0
M  V30 192 O 20.8332 -1.89634 0.418624 0
M  V30 193 C 17.9632 -3.27734 1.14925 0
M  V30 194 C 16.9172 -3.64147 2.24902 0
M  V30 195 C 16.2432 -4.99806 1.89996 0
M  V30 196 C 17.5432 -3.71579 3.67051 0
M  V30 197 H 19.2372 -1.92541 2.29277 0
M  V30 198 H 16.7832 -0.924948 1.10366 0
M  V30 199 H 18.7362 -4.06215 1.12104 0
M  V30 200 H 17.4602 -3.26154 0.170631 0
M  V30 201 H 16.1192 -2.8797 2.26868 0
M  V30 202 H 15.7672 -4.94759 0.906796 0
M  V30 203 H 15.4672 -5.25139 2.63634 0
M  V30 204 H 16.9912 -5.80694 1.88749 0
M  V30 205 H 18.4052 -4.40227 3.67251 0
M  V30 206 H 16.8022 -4.08405 4.39688 0
M  V30 207 H 17.8722 -2.72404 4.01154 0
M  V30 208 N 19.2153 -1.21501 -1.00376 0
M  V30 209 C 20.1453 -0.999478 -2.11028 0
M  V30 210 C 21.1263 0.0759671 -1.6993 0
M  V30 211 O 22.3113 -0.0841106 -1.94018 0
M  V30 212 C 19.4413 -0.564709 -3.42678 0
M  V30 213 C 18.3953 -1.58486 -3.97576 0
M  V30 214 C 17.7213 -1.00628 -5.25146 0
M  V30 215 C 19.0213 -2.97204 -4.29496 0
M  V30 216 H 20.7153 -1.92495 -2.29317 0
M  V30 217 H 18.2613 -0.92693 -1.102 0
M  V30 218 H 20.2143 -0.401091 -4.19487 0
M  V30 219 H 18.9383 0.396411 -3.24185 0
M  V30 220 H 17.5973 -1.73606 -3.22888 0
M  V30 221 H 17.2453 -0.0368439 -5.02987 0
M  V30 222 H 16.9453 -1.68771 -5.62841 0
M  V30 223 H 18.4693 -0.854015 -6.04598 0
M  V30 224 H 19.8833 -2.8552 -4.97143 0
M  V30 225 H 18.2803 -3.62372 -4.78338 0
M  V30 226 H 19.3503 -3.47956 -3.3772 0
M  V30 227 N 20.6934 1.19889 -1.02296 0
M  V30 228 C 21.6564 2.21116 -0.603351 0
M  V30 229 C 22.6564 1.5738 0.329884 0
M  V30 230 O 23.8464 1.73802 0.117702 0
M  V30 231 C 20.9784 3.40696 0.117992 0
M  V30 232 H 22.1714 2.59754 -1.49893 0
M  V30 233 H 19.7244 1.33463 -0.813468 0
M  V30 234 H 20.4594 3.07569 1.0282 0
M  V30 235 H 20.2444 3.88188 -0.552511 0
M  V30 236 H 21.7344 4.15692 0.398696 0
M  V30 237 N 22.1715 0.800033 1.35784 0
M  V30 238 C 23.3965 0.388511 2.03729 0
M  V30 239 C 23.8215 -0.990481 1.5991 0
M  V30 240 O 23.1795 -1.64013 0.772612 0
M  V30 241 C 23.2275 0.4726 3.5749 0
M  V30 242 O 22.3315 -0.51646 4.09153 0
M  V30 243 H 21.6725 0.163271 0.643614 0
M  V30 244 H 24.2025 1.0841 1.73518 0
M  V30 245 H 24.2125 0.34003 4.06581 0
M  V30 246 H 22.8875 1.47848 3.88734 0
M  V30 247 H 21.4645 -0.344673 3.71304 0
M  V30 248 N 23.6496 -1.47581 0.552962 0
M  V30 249 C 24.8956 -2.02782 0.0273648 0
M  V30 250 C 25.2286 -1.42687 -1.31734 0
M  V30 251 O 24.5036 -0.580897 -1.85623 0
M  V30 252 C 24.7866 -3.60031 -0.0702371 0
M  V30 253 C 24.6396 -4.30566 1.30126 0
M  V30 254 C 25.9586 -4.33028 -0.785771 0
M  V30 255 H 23.0776 -0.736912 0.0114185 0
M  V30 256 H 25.7196 -1.76056 0.714432 0
M  V30 257 H 23.8696 -3.82932 -0.655382 0
M  V30 258 H 25.5416 -4.19018 1.92929 0
M  V30 259 H 23.7846 -3.91086 1.87709 0
M  V30 260 H 24.4556 -5.39114 1.18573 0
M  V30 261 H 26.9316 -4.15095 -0.288982 0
M  V30 262 H 25.8076 -5.42695 -0.823013 0
M  V30 263 H 26.0686 -4.01945 -1.841 0
M  V30 264 N 25.1277 -0.289203 -1.54924 0
M  V30 265 C 26.3767 0.324231 -1.99077 0
M  V30 266 C 26.6897 1.5591 -1.18117 0
M  V30 267 O 27.8957 2.24637 -1.52481 0
M  V30 268 C 26.3517 0.628209 -3.54375 0
M  V30 269 C 25.9597 -0.587647 -4.44129 0
M  V30 270 C 27.7037 1.20349 -4.07083 0
M  V30 271 C 25.6107 -0.257475 -5.90839 0
M  V30 272 H 24.5407 0.124924 -0.743579 0
M  V30 273 H 27.1917 -0.396063 -1.79175 0
M  V30 274 H 25.5737 1.40778 -3.70132 0
M  V30 275 H 26.7477 -1.36418 -4.40144 0
M  V30 276 H 25.0627 -1.08074 -4.0213 0
M  V30 277 H 27.6597 1.46456 -5.14252 0
M  V30 278 H 28.0027 2.14195 -3.56968 0
M  V30 279 H 28.5357 0.485889 -3.94821 0
M  V30 280 H 25.2747 -1.16419 -6.45079 0
M  V30 281 H 24.7947 0.482018 -5.9786 0
M  V30 282 H 26.4737 0.145238 -6.46837 0
M  V30 283 N 26.6058 1.57591 -0.0167156 0
M  V30 284 C 27.8528 1.91283 0.664597 0
M  V30 285 C 28.1808 0.891949 1.72842 0
M  V30 286 O 27.4358 -0.100931 1.9544 0
M  V30 287 C 27.7348 3.3172 1.33029 0
M  V30 288 C 27.4008 4.4914 0.398047 0
M  V30 289 C 26.0628 4.80992 0.141421 0
M  V30 290 C 28.4148 5.20634 -0.242825 0
M  V30 291 C 25.7428 5.81703 -0.764092 0
M  V30 292 C 28.0948 6.22311 -1.13632 0
M  V30 293 C 26.7588 6.52611 -1.40196 0
M  V30 294 H 26.0288 0.699956 0.243193 0
M  V30 295 H 28.6758 1.9135 -0.0758267 0
M  V30 296 H 26.9808 3.27856 2.14517 0
M  V30 297 H 28.6778 3.55055 1.86379 0
M  V30 298 H 25.2678 4.24262 0.608238 0
M  V30 299 H 29.4518 4.96267 -0.0576019 0
M  V30 300 H 24.7078 6.03532 -0.977732 0
M  V30 301 H 28.8818 6.76834 -1.63917 0
M  V30 302 H 26.5088 7.30467 -2.10529 0
M  V30 303 N 28.0839 -0.256276 1.55502 0
M  V30 304 C 29.3239 -0.993081 1.78654 0
M  V30 305 C 29.6879 -1.8288 0.584724 0
M  V30 306 O 30.8889 -2.59665 0.694822 0
M  V30 307 C 29.1599 -1.83856 3.06483 0
M  V30 308 S 30.7189 -2.63573 3.5082 0
M  V30 309 H 27.5369 -0.334199 0.62756 0
M  V30 310 H 30.1389 -0.26184 1.93739 0
M  V30 311 H 28.8429 -1.21414 3.92029 0
M  V30 312 H 28.3739 -2.61271 2.94111 0
M  V30 313 H 30.3889 -3.86312 3.11412 0
M  V30 314 N 29.562 -1.4872 -0.521534 0
M  V30 315 C 30.492 -1.66771 -1.63431 0
M  V30 316 C 31.473 -0.516499 -1.62069 0
M  V30 317 O 32.658 -0.750013 -1.79132 0
M  V30 318 C 29.788 -1.71515 -3.01993 0
M  V30 319 C 28.742 -2.86222 -3.18216 0
M  V30 320 C 28.068 -2.76061 -4.57924 0
M  V30 321 C 29.368 -4.27419 -3.00184 0
M  V30 322 H 31.062 -2.59932 -1.48579 0
M  V30 323 H 28.608 -1.25089 -0.713358 0
M  V30 324 H 30.561 -1.82731 -3.7972 0
M  V30 325 H 29.285 -0.749393 -3.17886 0
M  V30 326 H 27.944 -2.74575 -2.42908 0
M  V30 327 H 27.592 -1.77437 -4.70665 0
M  V30 328 H 27.292 -3.53037 -4.69722 0
M  V30 329 H 28.816 -2.89256 -5.37739 0
M  V30 330 H 30.23 -4.39855 -3.67697 0
M  V30 331 H 28.627 -5.05458 -3.2347 0
M  V30 332 H 29.697 -4.43293 -1.96518 0
M  V30 333 N 31.0401 0.771051 -1.3745 0
M  V30 334 C 32.2861 1.5319 -1.32894 0
M  V30 335 C 32.6191 1.94008 0.0862511 0
M  V30 336 O 31.8941 1.64124 1.04373 0
M  V30 337 C 32.1771 2.79648 -2.26868 0
M  V30 338 C 32.0301 2.45079 -3.77169 0
M  V30 339 C 33.3491 3.81583 -2.19277 0
M  V30 340 H 30.4681 0.555744 -0.484064 0
M  V30 341 H 33.1101 0.884492 -1.68157 0
M  V30 342 H 31.2601 3.34891 -1.96926 0
M  V30 343 H 32.9321 1.95745 -4.1771 0
M  V30 344 H 31.1751 1.77767 -3.95704 0
M  V30 345 H 31.8461 3.35478 -4.38359 0
M  V30 346 H 34.3221 3.35835 -2.45671 0
M  V30 347 H 33.1981 4.67787 -2.87171 0
M  V30 348 H 33.4591 4.25897 -1.18592 0
M  V30 349 N 32.5182 1.22032 0.997298 0
M  V30 350 C 33.7652 1.04222 1.73621 0
M  V30 351 C 34.0932 -0.423264 1.89839 0
M  V30 352 O 33.3482 -1.3302 1.43542 0
M  V30 353 C 33.6472 1.69345 3.14733 0
M  V30 354 C 33.3132 3.19226 3.18442 0
M  V30 355 C 31.9752 3.60124 3.19161 0
M  V30 356 C 34.3272 4.15181 3.15078 0
M  V30 357 C 31.6552 4.95467 3.14212 0
M  V30 358 C 34.0072 5.50495 3.1167 0
M  V30 359 C 32.6712 5.90779 3.10703 0
M  V30 360 H 31.9412 0.381374 0.635323 0
M  V30 361 H 34.5882 1.51732 1.16831 0
M  V30 362 H 32.8932 1.14147 3.74803 0
M  V30 363 H 34.5902 1.53059 3.7064 0
M  V30 364 H 31.1802 2.86659 3.18629 0
M  V30 365 H 35.3642 3.84605 3.13676 0
M  V30 366 H 30.6202 5.25916 3.11805 0
M  V30 367 H 34.7942 6.24576 3.08022 0
M  V30 368 H 32.4212 6.9562 3.06622 0
M  V30 369 N 33.9963 -1.19345 1.0293 0
M  V30 370 C 35.2423 -1.89585 0.736824 0
M  V30 371 C 35.5973 -1.78148 -0.726703 0
M  V30 372 O 34.8903 -1.16332 -1.52242 0
M  V30 373 C 35.0843 -3.39292 1.12319 0
M  V30 374 C 34.9133 -3.65298 2.62273 0
M  V30 375 C 33.6833 -3.83304 3.29251 0
M  V30 376 C 35.8813 -3.6682 3.60482 0
M  V30 377 N 33.8633 -3.96944 4.68304 0
M  V30 378 C 35.2343 -3.86037 4.85155 0
M  V30 379 C 37.2893 -3.49848 3.54275 0
M  V30 380 C 35.9923 -3.9004 6.04369 0
M  V30 381 C 38.0183 -3.55129 4.72903 0
M  V30 382 C 37.3803 -3.74831 5.9639 0
M  V30 383 H 33.4793 -0.712856 0.321497 0
M  V30 384 H 36.0633 -1.43427 1.31669 0
M  V30 385 H 34.2343 -3.84172 0.571524 0
M  V30 386 H 35.9663 -3.97055 0.78292 0
M  V30 387 H 32.7213 -3.82211 2.79663 0
M  V30 388 H 33.1453 -4.07613 5.40538 0
M  V30 389 H 37.7873 -3.33572 2.59788 0
M  V30 390 H 35.5053 -4.05108 6.99223 0
M  V30 391 H 39.0913 -3.43287 4.69729 0
M  V30 392 H 37.9713 -3.78792 6.86649 0
M  V30 393 N 35.4744 -0.807222 -1.35358 0
M  V30 394 C 36.7204 -0.388463 -1.99045 0
M  V30 395 C 37.0534 1.04184 -1.63888 0
M  V30 396 O 36.3284 1.72292 -0.902535 0
M  V30 397 C 36.6114 -0.572783 -3.55515 0
M  V30 398 C 36.4644 -2.04807 -4.00468 0
M  V30 399 C 37.7834 0.00114064 -4.401 0
M  V30 400 H 34.9024 -0.142619 -0.723069 0
M  V30 401 H 37.5444 -1.01687 -1.60498 0
M  V30 402 H 35.6944 -0.0378425 -3.88482 0
M  V30 403 H 37.3664 -2.64544 -3.77908 0
M  V30 404 H 35.6094 -2.54427 -3.51353 0
M  V30 405 H 36.2804 -2.12792 -5.09337 0
M  V30 406 H 38.7564 -0.455716 -4.13597 0
M  V30 407 H 37.6324 -0.157737 -5.48673 0
M  V30 408 H 37.8934 1.09488 -4.28328 0
M  V30 409 N 36.9525 1.47285 -0.560781 0
M  V30 410 C 38.2015 2.01668 -0.035895 0
M  V30 411 C 38.5145 1.44021 1.32353 0
M  V30 412 O 39.7205 1.90088 1.93853 0
M  V30 413 C 38.1765 3.59897 -0.0136659 0
M  V30 414 C 37.7845 4.26536 -1.37006 0
M  V30 415 C 39.5285 4.22017 0.458425 0
M  V30 416 C 37.4355 5.76782 -1.30675 0
M  V30 417 H 36.3655 0.753938 -0.00964879 0
M  V30 418 H 39.0165 1.69243 -0.709166 0
M  V30 419 H 37.3985 3.89301 0.725325 0
M  V30 420 H 38.5725 4.0877 -2.12705 0
M  V30 421 H 36.8875 3.76419 -1.78038 0
M  V30 422 H 39.4845 5.32124 0.524247 0
M  V30 423 H 39.8275 3.89437 1.4712 0
M  V30 424 H 40.3605 3.97159 -0.225818 0
M  V30 425 H 37.0995 6.13988 -2.29564 0
M  V30 426 H 36.6195 5.96875 -0.591622 0
M  V30 427 H 38.2985 6.39063 -1.01033 0
M  V30 428 N 38.4306 0.297415 1.54768 0
M  V30 429 C 39.8466 -0.0560823 1.59501 0
M  V30 430 C 40.0466 -1.52725 1.31444 0
M  V30 431 O 39.1026 -2.27947 1.08611 0
M  V30 432 C 40.4156 0.338631 2.98787 0
M  V30 433 C 41.9636 0.287097 3.11681 0
M  V30 434 C 42.4386 0.656579 4.53269 0
M  V30 435 N 43.9296 0.608977 4.59179 0
M  V30 436 C 44.6646 0.867385 5.66802 0
M  V30 437 N 44.1606 1.19157 6.82476 0
M  V30 438 N 45.9536 0.794687 5.56454 0
M  V30 439 H 38.1046 1.25624 1.71267 0
M  V30 440 H 40.3676 0.509057 0.799728 0
M  V30 441 H 40.0736 1.36263 3.2423 0
M  V30 442 H 39.9476 -0.309508 3.75928 0
M  V30 443 H 42.3346 -0.727649 2.85988 0
M  V30 444 H 42.4156 0.969809 2.36703 0
M  V30 445 H 42.0596 1.66912 4.7969 0
M  V30 446 H 41.9896 -0.0481649 5.26578 0
M  V30 447 H 44.4806 0.369198 3.76092 0
M  V30 448 H 44.7936 1.37482 7.60473 0
M  V30 449 H 43.1386 1.22958 6.84037 0
M  V30 450 H 46.3296 0.541098 4.64962 0
M  V30 451 H 46.5026 0.999445 6.40246 0
M  V30 452 N 39.9087 -1.5758 0.0250728 0
M  V30 453 C 40.8717 -2.08896 -0.943139 0
M  V30 454 C 41.8717 -1.00321 -1.25668 0
M  V30 455 O 43.0617 -1.26495 -1.19769 0
M  V30 456 C 40.1937 -2.55143 -2.26086 0
M  V30 457 H 41.3867 -2.95723 -0.498775 0
M  V30 458 H 38.9397 -1.54703 -0.222888 0
M  V30 459 H 39.6747 -1.71633 -2.75159 0
M  V30 460 H 39.4597 -3.34461 -2.04641 0
M  V30 461 H 40.9497 -2.95083 -2.95492 0
M  V30 462 N 41.3868 0.248026 -1.55636 0
M  V30 463 C 42.6118 0.998028 -1.81808 0
M  V30 464 C 43.0368 1.78207 -0.601979 0
M  V30 465 O 42.3948 1.75653 0.448961 0
M  V30 466 C 42.4428 1.9125 -3.05705 0
M  V30 467 O 41.5468 3.00406 -2.82542 0
M  V30 468 H 40.8878 0.284045 -0.600179 0
M  V30 469 H 43.4178 0.269357 -2.02819 0
M  V30 470 H 43.4278 2.32737 -3.35108 0
M  V30 471 H 42.1028 1.33602 -3.93857 0
M  V30 472 H 40.6798 2.63056 -2.64303 0
M  V30 473 N 42.8649 1.48995 0.513639 0
M  V30 474 C 44.2809 1.35478 0.843682 0
M  V30 475 C 44.4809 0.378213 1.97919 0
M  V30 476 O 43.5369 -0.194689 2.51748 0
M  V30 477 C 44.8499 2.75901 1.1958 0
M  V30 478 C 46.3979 2.84509 1.30474 0
M  V30 479 C 46.8729 4.25671 1.69021 0
M  V30 480 N 48.3639 4.28422 1.76094 0
M  V30 481 C 49.0989 5.34601 2.07338 0
M  V30 482 N 48.5949 6.5104 2.36894 0
M  V30 483 N 50.3879 5.22007 2.08483 0
M  V30 484 H 42.5389 2.11092 -0.235328 0
M  V30 485 H 44.8019 0.947039 -0.0426669 0
M  V30 486 H 44.5079 3.49001 0.434913 0
M  V30 487 H 44.3819 3.10467 2.1422 0
M  V30 488 H 46.7689 2.11655 2.05637 0
M  V30 489 H 46.8499 2.53542 0.339155 0
M  V30 490 H 46.4939 4.99048 0.944135 0
M  V30 491 H 46.4239 4.54094 2.66658 0
M  V30 492 H 48.9149 3.44441 1.55464 0
M  V30 493 H 49.2279 7.2779 2.59887 0
M  V30 494 H 47.5729 6.54287 2.34378 0
M  V30 495 H 50.7639 4.30051 1.84861 0
M  V30 496 H 50.9369 6.04854 2.325 0
M  V30 497 N 44.343 -0.763751 1.37857 0
M  V30 498 C 45.754 -1.3405 1.29952 0
M  V30 499 C 46.105 -1.96138 -0.0492898 0
M  V30 500 O 45.23 -1.94372 -0.951239 0
M  V30 501 C 45.825 -2.43729 2.35333 0
M  V30 502 C 44.384 -2.97151 2.31037 0
M  V30 503 C 43.531 -1.70438 2.18738 0
M  V30 504 H 46.482 -0.563396 1.48363 0
M  V30 505 H 46.503 -3.23412 2.00462 0
M  V30 506 H 46.015 -1.9851 3.33489 0
M  V30 507 H 44.116 -3.46724 1.3643 0
M  V30 508 H 44.229 -3.52221 3.24772 0
M  V30 509 H 42.593 -1.93673 1.65418 0
M  V30 510 H 43.376 -1.27312 3.18821 0
M  V30 511 N 45.8211 -1.22559 -0.990812 0
M  V30 512 C 46.7531 -0.955325 -2.08342 0
M  V30 513 C 47.7661 0.0668408 -1.62663 0
M  V30 514 O 48.9551 -0.167421 -1.77713 0
M  V30 515 C 46.0551 -0.415566 -3.36342 0
M  V30 516 C 45.2281 -1.49544 -4.11042 0
M  V30 517 C 44.2871 -0.962399 -5.17324 0
M  V30 518 O 43.3131 -1.64907 -5.44788 0
M  V30 519 N 44.5151 0.215134 -5.80101 0
M  V30 520 H 47.2801 -1.89596 -2.32106 0
M  V30 521 H 44.8411 -1.13276 -1.15673 0
M  V30 522 H 46.8331 -0.0442386 -4.04676 0
M  V30 523 H 45.4031 0.430232 -3.09625 0
M  V30 524 H 44.6231 -2.04 -3.37309 0
M  V30 525 H 45.9111 -2.22195 -4.57719 0
M  V30 526 H 45.3091 0.789779 -5.6016 0
M  V30 527 H 43.8661 0.527826 -6.49659 0
M  V30 528 N 47.2992 1.18797 -1.03562 0
M  V30 529 C 48.5452 1.8893 -0.737113 0
M  V30 530 C 48.8782 1.79837 0.732956 0
M  V30 531 O 48.1532 1.19525 1.5344 0
M  V30 532 C 48.4362 3.39607 -1.19745 0
M  V30 533 C 48.2892 3.57537 -2.72924 0
M  V30 534 C 49.6082 4.33069 -0.783526 0
M  V30 535 H 46.7272 0.686057 -0.269249 0
M  V30 536 H 49.3692 1.39797 -1.28673 0
M  V30 537 H 47.5192 3.81583 -0.729855 0
M  V30 538 H 49.1912 3.24688 -3.27682 0
M  V30 539 H 47.4342 3.00363 -3.12993 0
M  V30 540 H 48.1052 4.63238 -3.00191 0
M  V30 541 H 50.5812 3.98846 -1.18581 0
M  V30 542 H 49.4572 5.3707 -1.13343 0
M  V30 543 H 49.7182 4.40986 0.313681 0
M  V30 544 N 48.7773 0.814389 1.34928 0
M  V30 545 C 50.1883 0.458364 1.80986 0
M  V30 546 C 50.5393 -1.02042 1.67577 0
M  V30 547 O 49.6643 -1.79352 1.21086 0
M  V30 548 C 50.2593 0.825212 3.28597 0
M  V30 549 C 48.8183 0.521677 3.72767 0
M  V30 550 C 47.9653 1.04668 2.56788 0
M  V30 551 H 50.9163 1.00533 1.22795 0
M  V30 552 H 50.9373 0.12571 3.80292 0
M  V30 553 H 50.4493 1.90154 3.38324 0
M  V30 554 H 48.5503 -0.545589 3.68584 0
M  V30 555 H 48.6633 1.05977 4.67232 0
M  V30 556 H 47.0273 0.468622 2.50352 0
M  V30 557 H 47.8103 2.12927 2.6929 0
M  V30 558 N 50.2554 -1.46986 0.568584 0
M  V30 559 C 51.2024 -2.30153 -0.172707 0
M  V30 560 C 52.1724 -1.39759 -0.897586 0
M  V30 561 O 53.3574 -1.68716 -0.891044 0
M  V30 562 C 50.4974 -3.23952 -1.1895 0
M  V30 563 C 49.6104 -4.29441 -0.469517 0
M  V30 564 C 48.7454 -5.1038 -1.47259 0
M  V30 565 C 47.7844 -6.07632 -0.738225 0
M  V30 566 N 46.9214 -6.8149 -1.68868 0
M  V30 567 H 51.7614 -2.93019 0.542596 0
M  V30 568 H 49.2984 -1.44422 0.279401 0
M  V30 569 H 51.2564 -3.76767 -1.79173 0
M  V30 570 H 49.8864 -2.62926 -1.87269 0
M  V30 571 H 48.9384 -3.79594 0.247467 0
M  V30 572 H 50.2504 -4.98689 0.105241 0
M  V30 573 H 49.4044 -5.67402 -2.14803 0
M  V30 574 H 48.1434 -4.4106 -2.08128 0
M  V30 575 H 47.1484 -5.49778 -0.0489293 0
M  V30 576 H 48.3734 -6.78966 -0.135129 0
M  V30 577 H 46.3194 -6.14891 -2.28573 0
M  V30 578 H 46.2364 -7.46948 -1.16636 0
M  V30 579 H 47.5044 -7.43078 -2.3549 0
M  V30 580 N 51.7335 -0.305618 -1.54608 0
M  V30 581 C 52.9815 0.301701 -1.99835 0
M  V30 582 C 53.3025 1.54054 -1.19551 0
M  V30 583 O 52.5725 1.93702 -0.292658 0
M  V30 584 H 51.1525 0.114468 -0.738178 0
M  V30 585 H 53.8145 -0.418016 -1.90364 0
M  V30 586 H 52.9105 0.570548 -3.06841 0
M  V30 587 N 53.2116 1.57565 -0.0334293 0
M  V30 588 C 54.1416 2.13511 0.945265 0
M  V30 589 C 55.1226 1.05231 1.33643 0
M  V30 590 O 56.3076 1.33084 1.41429 0
M  V30 591 C 53.4376 2.6657 2.22616 0
M  V30 592 C 52.3916 3.79676 1.97561 0
M  V30 593 C 51.7176 4.1918 3.31952 0
M  V30 594 C 53.0176 5.0557 1.31135 0
M  V30 595 H 54.7116 2.95538 0.479325 0
M  V30 596 H 52.2576 1.42166 0.229115 0
M  V30 597 H 54.2106 3.04344 2.91466 0
M  V30 598 H 52.9346 1.8171 2.71384 0
M  V30 599 H 51.5936 3.42347 1.31127 0
M  V30 600 H 51.2416 3.31296 3.78487 0
M  V30 601 H 50.9416 4.95402 3.15992 0
M  V30 602 H 52.4656 4.59541 4.02063 0
M  V30 603 H 53.8796 5.40903 1.89992 0
M  V30 604 H 52.2766 5.86818 1.25559 0
M  V30 605 H 53.3466 4.84062 0.284894 0
M  V30 606 N 54.6897 -0.239769 1.55765 0
M  V30 607 C 55.6367 -1.29696 1.90913 0
M  V30 608 C 56.6067 -1.47478 0.764164 0
M  V30 609 O 57.7917 -1.61345 1.01845 0
M  V30 610 C 54.9317 -2.64598 2.21544 0
M  V30 611 C 54.0447 -2.54765 3.48882 0
M  V30 612 C 53.1797 -3.82069 3.69049 0
M  V30 613 C 52.2187 -3.66883 4.89963 0
M  V30 614 N 51.3557 -4.86094 5.06614 0
M  V30 615 H 56.1957 -0.990224 2.81067 0
M  V30 616 H 53.7327 -0.477684 1.39128 0
M  V30 617 H 55.6907 -3.43132 2.3731 0
M  V30 618 H 54.3207 -2.93405 1.34585 0
M  V30 619 H 53.3727 -1.67763 3.41409 0
M  V30 620 H 54.6847 -2.39457 4.37563 0
M  V30 621 H 53.8387 -4.69046 3.84812 0
M  V30 622 H 52.5777 -4.00282 2.78614 0
M  V30 623 H 51.5827 -2.78289 4.74168 0
M  V30 624 H 52.8077 -3.50157 5.81865 0
M  V30 625 H 50.7537 -5.04655 4.19117 0
M  V30 626 H 50.6707 -4.73443 5.89396 0
M  V30 627 H 51.9387 -5.74549 5.26795 0
M  V30 628 N 56.1678 -1.49265 -0.50573 0
M  V30 629 C 57.1158 -1.66065 -1.62866 0
M  V30 630 C 58.1098 -0.526636 -1.61006 0
M  V30 631 O 59.3158 -0.706126 -1.65571 0
M  V30 632 H 55.6908 -0.52356 -0.539805 0
M  V30 633 H 57.6618 -2.60329 -1.45848 0
M  V30 634 C 56.4108 -1.74008 -3.01026 0
M  V30 635 H 55.7338 -2.6064 -3.03161 0
M  V30 636 H 57.1738 -1.89798 -3.79147 0
M  V30 637 C 55.6328 -0.483868 -3.33407 0
M  V30 638 O 56.1628 0.392548 -3.99777 0
M  V30 639 N 54.3688 -0.348236 -2.88506 0
M  V30 640 H 53.9158 -1.06242 -2.34671 0
M  V30 641 H 53.8738 0.491204 -3.10539 0
M  V30 642 N 57.6459 0.756429 -1.3826 0
M  V30 643 C 59.0569 1.33359 -1.30661 0
M  V30 644 C 59.4079 1.96161 0.0388875 0
M  V30 645 O 58.5329 1.94874 0.940918 0
M  V30 646 C 59.1279 2.42477 -2.36622 0
M  V30 647 C 57.6869 2.95922 -2.3261 0
M  V30 648 C 56.8339 1.69275 -2.19639 0
M  V30 649 H 59.7849 0.55552 -1.4866 0
M  V30 650 H 59.8059 3.22345 -2.02174 0
M  V30 651 H 59.3179 1.96739 -3.34538 0
M  V30 652 H 57.4189 3.45996 -1.38267 0
M  V30 653 H 57.5319 3.50494 -3.26636 0
M  V30 654 H 55.8959 1.92793 -1.66442 0
M  V30 655 H 56.6789 1.25619 -3.19491 0
M  V30 656 N 59.124 1.23083 0.984299 0
M  V30 657 C 60.535 1.05609 1.5396 0
M  V30 658 C 60.886 -0.377793 1.92528 0
M  V30 659 O 60.011 -1.26398 1.75649 0
M  V30 660 C 60.606 1.91087 2.7977 0
M  V30 661 C 59.165 1.77885 3.31713 0
M  V30 662 C 58.312 1.87028 2.04733 0
M  V30 663 H 61.263 1.36802 0.804419 0
M  V30 664 H 61.284 1.43336 3.5247 0
M  V30 665 H 60.796 2.9544 2.51668 0
M  V30 666 H 58.897 0.762995 3.64704 0
M  V30 667 H 59.01 2.61047 4.01735 0
M  V30 668 H 57.374 1.30565 2.18689 0
M  V30 669 H 58.157 2.92929 1.79017 0
M  V30 670 N 60.6021 -1.18246 1.0419 0
M  V30 671 C 61.8501 -1.87886 0.744543 0
M  V30 672 C 62.1711 -1.8082 -0.730006 0
M  V30 673 O 61.4411 -1.22736 -1.52685 0
M  V30 674 H 60.0211 -0.695556 0.272417 0
M  V30 675 H 62.6831 -1.43494 1.31892 0
M  V30 676 H 61.7791 -2.9389 1.05049 0
M  V30 677 N 62.0802 -0.821533 -1.34494 0
M  V30 678 C 63.4912 -0.467956 -1.8074 0
M  V30 679 C 63.8422 1.01151 -1.68116 0
M  V30 680 O 62.9672 1.78707 -1.22036 0
M  V30 681 C 63.5622 -0.842627 -3.28154 0
M  V30 682 C 62.1212 -0.541439 -3.72485 0
M  V30 683 C 61.2682 -1.06028 -2.56229 0
M  V30 684 H 64.2192 -1.01183 -1.22261 0
M  V30 685 H 64.2402 -0.145876 -3.8022 0
M  V30 686 H 63.7522 -1.91945 -3.37311 0
M  V30 687 H 61.8532 0.526034 -3.68868 0
M  V30 688 H 61.9662 -1.08453 -4.66663 0
M  V30 689 H 60.3302 -0.481892 -2.501 0
M  V30 690 H 61.1132 -2.14352 -2.68157 0
M  V30 691 N 63.5583 1.46682 -0.576371 0
M  V30 692 C 64.8043 2.03287 -0.0679305 0
M  V30 693 C 65.1593 1.44063 1.27529 0
M  V30 694 O 64.4523 0.593973 1.82161 0
M  V30 695 C 64.6463 3.57345 0.062886 0
M  V30 696 C 64.4753 4.31509 -1.26611 0
M  V30 697 C 63.2453 4.70664 -1.83856 0
M  V30 698 C 65.4433 4.65444 -2.18783 0
M  V30 699 N 63.4253 5.29552 -3.10561 0
M  V30 700 C 64.7963 5.24835 -3.30072 0
M  V30 701 C 66.8513 4.47375 -2.18542 0
M  V30 702 C 65.5543 5.68063 -4.41244 0
M  V30 703 C 67.5803 4.91614 -3.28739 0
M  V30 704 C 66.9423 5.51071 -4.38748 0
M  V30 705 H 63.0413 0.779083 -0.0674836 0
M  V30 706 H 65.6253 1.78918 -0.767877 0
M  V30 707 H 63.7963 3.8144 0.731988 0
M  V30 708 H 65.5283 4.00592 0.575134 0
M  V30 709 H 62.2833 4.53224 -1.37424 0
M  V30 710 H 62.7073 5.63523 -3.75195 0
M  V30 711 H 67.3493 4.00747 -1.34765 0
M  V30 712 H 65.0673 6.13672 -5.25768 0
M  V30 713 H 68.6533 4.79389 -3.29662 0
M  V30 714 H 67.5333 5.84678 -5.22611 0
M  V30 715 N 65.0364 0.313813 1.54444 0
M  V30 716 C 66.2844 -0.291099 1.99993 0
M  V30 717 C 66.6054 -1.53418 1.20366 0
M  V30 718 O 65.8754 -1.93544 0.302927 0
M  V30 719 H 64.4554 -0.110552 0.738774 0
M  V30 720 H 67.1174 0.428106 1.9014 0
M  V30 721 H 66.2134 -0.554268 3.07139 0
M  V30 722 N 66.5145 -1.57545 0.0417849 0
M  V30 723 C 67.7605 -1.93424 -0.629168 0
M  V30 724 C 68.1155 -0.919564 -1.69002 0
M  V30 725 O 67.4085 0.0626178 -1.91498 0
M  V30 726 C 67.6025 -3.33794 -1.27735 0
M  V30 727 C 67.4315 -4.48822 -0.280806 0
M  V30 728 C 66.2015 -5.05148 0.123869 0
M  V30 729 C 68.3995 -5.12148 0.470012 0
M  V30 730 N 66.3815 -6.03703 1.11426 0
M  V30 731 C 67.7525 -6.05921 1.31377 0
M  V30 732 C 69.8075 -4.95078 0.529343 0
M  V30 733 C 68.5105 -6.84459 2.21152 0
M  V30 734 C 70.5365 -5.74235 1.41448 0
M  V30 735 C 69.8985 -6.67634 2.24598 0
M  V30 736 H 65.9975 -0.755418 -0.202158 0
M  V30 737 H 68.5815 -1.94378 0.111923 0
M  V30 738 H 66.7525 -3.33635 -1.98852 0
M  V30 739 H 68.4845 -3.56988 -1.90635 0
M  V30 740 H 65.2395 -4.72923 -0.253178 0
M  V30 741 H 65.6635 -6.57674 1.60607 0
M  V30 742 H 70.3055 -4.22683 -0.0992798 0
M  V30 743 H 68.0235 -7.56151 2.85063 0
M  V30 744 H 71.6095 -5.63057 1.46484 0
M  V30 745 H 70.4895 -7.27817 2.9198 0
M  V30 746 N 67.9926 0.231505 -1.5589 0
M  V30 747 C 69.4036 0.799327 -1.68724 0
M  V30 748 C 69.7546 1.85398 -0.642022 0
M  V30 749 O 68.8796 2.1539 0.208784 0
M  V30 750 C 69.4746 1.45664 -3.05888 0
M  V30 751 C 68.0336 1.97197 -3.20609 0
M  V30 752 C 67.1806 0.828552 -2.64632 0
M  V30 753 H 70.1316 0.00702616 -1.58698 0
M  V30 754 H 70.1526 2.32517 -3.01191 0
M  V30 755 H 69.6646 0.688808 -3.81939 0
M  V30 756 H 67.7656 2.76813 -2.4941 0
M  V30 757 H 67.8786 2.15878 -4.27707 0
M  V30 758 H 66.2426 1.23321 -2.22854 0
M  V30 759 H 67.0256 0.0735544 -3.43221 0
M  V30 760 N 69.4707 1.49531 0.497807 0
M  V30 761 C 70.4007 1.6935 1.60757 0
M  V30 762 C 71.3817 0.542218 1.61227 0
M  V30 763 O 72.5667 0.778417 1.77917 0
M  V30 764 C 69.6967 1.76298 2.99226 0
M  V30 765 C 68.6507 2.91248 3.13622 0
M  V30 766 C 67.9767 2.83312 4.53474 0
M  V30 767 C 69.2767 4.3214 2.93346 0
M  V30 768 H 70.9707 2.62263 1.44425 0
M  V30 769 H 68.5167 1.26208 0.693367 0
M  V30 770 H 70.4697 1.88749 3.76765 0
M  V30 771 H 69.1937 0.799871 3.16654 0
M  V30 772 H 67.8527 2.78404 2.38509 0
M  V30 773 H 67.5007 1.84902 4.67782 0
M  V30 774 H 67.2007 3.60465 4.64046 0
M  V30 775 H 68.7247 2.97775 5.33069 0
M  V30 776 H 70.1387 4.45649 3.60652 0
M  V30 777 H 68.5357 5.1054 3.15387 0
M  V30 778 H 69.6057 4.46363 1.89441 0
M  V30 779 N 70.9488 -0.749086 1.3866 0
M  V30 780 C 72.1978 -1.50371 1.3443 0
M  V30 781 C 72.5108 -1.95503 -0.0616397 0
M  V30 782 O 73.7168 -2.70554 -0.226489 0
M  V30 783 C 72.1728 -2.71644 2.36088 0
M  V30 784 C 71.7808 -2.3352 3.82325 0
M  V30 785 C 73.5248 -3.49518 2.40909 0
M  V30 786 C 71.4318 -3.51431 4.75658 0
M  V30 787 H 70.3618 -0.564628 0.499712 0
M  V30 788 H 73.0128 -0.818449 1.64237 0
M  V30 789 H 71.3948 -3.42175 1.9933 0
M  V30 790 H 72.5688 -1.70627 4.28046 0
M  V30 791 H 70.8838 -1.6877 3.80665 0
M  V30 792 H 73.4808 -4.37197 3.07836 0
M  V30 793 H 73.8238 -3.90992 1.42937 0
M  V30 794 H 74.3568 -2.86005 2.76489 0
M  V30 795 H 71.0958 -3.15019 5.74842 0
M  V30 796 H 70.6158 -4.13352 4.34627 0
M  V30 797 H 72.2948 -4.17953 4.93887 0
M  V30 798 N 72.4269 -1.23603 -0.977757 0
M  V30 799 C 73.6749 -1.06759 -1.71601 0
M  V30 800 C 73.9959 0.395929 -1.90938 0
M  V30 801 O 73.2659 1.28356 -1.47992 0
M  V30 802 H 71.8459 -0.392062 -0.635843 0
M  V30 803 H 74.5079 -1.55362 -1.1768 0
M  V30 804 H 73.6039 -1.55763 -2.70452 0
M  V30 805 N 73.905 1.17692 -1.04816 0
M  V30 806 C 74.855 2.1952 -0.616042 0
M  V30 807 C 75.839 1.57147 0.345485 0
M  V30 808 O 77.031 1.76245 0.163325 0
M  V30 809 C 74.16 3.43298 0.0116917 0
M  V30 810 C 73.246 4.12777 -0.973435 0
M  V30 811 N 73.637 4.5814 -2.14339 0
M  V30 812 C 71.935 4.38747 -0.80108 0
M  V30 813 C 72.636 5.11713 -2.7663 0
M  V30 814 N 71.612 5.03686 -2.04453 0
M  V30 815 H 75.414 2.52293 -1.5075 0
M  V30 816 H 72.928 1.3398 -0.917776 0
M  V30 817 H 74.925 4.15519 0.339006 0
M  V30 818 H 73.585 3.12018 0.898593 0
M  V30 819 H 74.596 4.52349 -2.52191 0
M  V30 820 H 71.273 4.17485 0.0350934 0
M  V30 821 H 72.663 5.56962 -3.75823 0
M  V30 822 N 75.3831 0.828654 1.34056 0
M  V30 823 C 76.3161 0.199763 2.27324 0
M  V30 824 C 77.2941 -0.647168 1.49166 0
M  V30 825 O 78.4781 -0.609661 1.78369 0
M  V30 826 C 75.6051 -0.720455 3.30949 0
M  V30 827 C 74.6511 0.0496888 4.26471 0
M  V30 828 S 75.4841 1.40072 5.16856 0
M  V30 829 C 76.6401 0.485527 6.24014 0
M  V30 830 H 76.8731 0.990478 2.80316 0
M  V30 831 H 74.4061 0.624857 1.41191 0
M  V30 832 H 76.3641 -1.24581 3.91139 0
M  V30 833 H 75.0251 -1.48474 2.76793 0
M  V30 834 H 74.2181 -0.650104 4.9979 0
M  V30 835 H 73.8201 0.505779 3.70564 0
M  V30 836 H 76.1121 -0.320672 6.76741 0
M  V30 837 H 77.0551 1.18856 6.98054 0
M  V30 838 H 77.4631 0.0714109 5.64455 0
M  V30 839 N 76.8612 -1.46375 0.584142 0
M  V30 840 C 77.7912 -2.33103 -0.136037 0
M  V30 841 C 78.7722 -1.45431 -0.882255 0
M  V30 842 O 79.9572 -1.74246 -0.857434 0
M  V30 843 C 77.0872 -3.27731 -1.14933 0
M  V30 844 C 76.0412 -4.24855 -0.517862 0
M  V30 845 C 75.3672 -5.09001 -1.63773 0
M  V30 846 C 76.6672 -5.19439 0.545886 0
M  V30 847 H 78.3612 -2.93568 0.588086 0
M  V30 848 H 75.9072 -1.41166 0.284259 0
M  V30 849 H 77.8602 -3.87261 -1.66153 0
M  V30 850 H 76.5842 -2.65377 -1.90375 0
M  V30 851 H 75.2432 -3.6659 -0.0267361 0
M  V30 852 H 74.8912 -4.43031 -2.38185 0
M  V30 853 H 74.5912 -5.74777 -1.22085 0
M  V30 854 H 76.1152 -5.71396 -2.15266 0
M  V30 855 H 77.5292 -5.73177 0.118704 0
M  V30 856 H 75.9262 -5.93566 0.88317 0
M  V30 857 H 76.9962 -4.63285 1.43162 0
M  V30 858 N 78.3393 -0.321999 -1.54275 0
M  V30 859 C 79.5673 0.283052 -2.04955 0
M  V30 860 C 79.9823 1.45904 -1.19823 0
M  V30 861 O 79.3393 1.81063 -0.228545 0
M  V30 862 C 79.3903 0.719028 -3.54277 0
M  V30 863 O 79.1113 -0.410175 -4.36176 0
M  V30 864 C 80.6123 1.38705 -4.21041 0
M  V30 865 H 77.8323 0.0584616 -0.668448 0
M  V30 866 H 80.3763 -0.467734 -1.99079 0
M  V30 867 H 78.5313 1.41979 -3.60445 0
M  V30 868 H 78.9453 -0.0669416 -5.24457 0
M  V30 869 H 80.4193 1.64306 -5.2698 0
M  V30 870 H 80.8963 2.33385 -3.72059 0
M  V30 871 H 81.5023 0.728906 -4.19007 0
M  V30 872 N 79.8174 1.5752 -0.0501392 0
M  V30 873 C 80.7474 2.14502 0.922566 0
M  V30 874 C 81.7284 1.06642 1.3252 0
M  V30 875 O 82.9134 1.34577 1.4001 0
M  V30 876 C 80.0434 2.68916 2.19776 0
M  V30 877 C 78.9974 3.8175 1.93523 0
M  V30 878 C 78.3234 4.22677 3.27487 0
M  V30 879 C 79.6234 5.06932 1.25765 0
M  V30 880 H 81.3174 2.9603 0.447952 0
M  V30 881 H 78.8634 1.42401 0.214024 0
M  V30 882 H 80.8164 3.07419 2.88222 0
M  V30 883 H 79.5404 1.84578 2.69441 0
M  V30 884 H 78.1994 3.43718 1.27489 0
M  V30 885 H 77.8474 3.35291 3.74952 0
M  V30 886 H 77.5474 4.98725 3.1072 0
M  V30 887 H 79.0714 4.63779 3.97166 0
M  V30 888 H 80.4854 5.42888 1.84244 0
M  V30 889 H 78.8824 5.88116 1.19328 0
M  V30 890 H 79.9524 4.84337 0.233536 0
M  V30 891 N 81.2955 -0.223234 1.56011 0
M  V30 892 C 82.5435 -0.946003 1.78592 0
M  V30 893 C 82.8645 -1.84936 0.618349 0
M  V30 894 O 82.1345 -1.92473 -0.364833 0
M  V30 895 H 80.7145 -0.352298 0.658707 0
M  V30 896 H 83.3765 -0.235494 1.93472 0
M  V30 897 H 82.4725 -1.55381 2.70672 0
M  V30 898 N 82.7736 -1.49793 -0.48987 0
M  V30 899 C 83.7206 -1.67281 -1.59014 0
M  V30 900 C 84.6906 -0.514177 -1.57941 0
M  V30 901 O 85.8756 -0.742533 -1.75759 0
M  V30 902 C 83.0156 -1.75569 -2.97102 0
M  V30 903 C 82.1286 -3.0281 -3.08107 0
M  V30 904 C 81.2636 -3.02008 -4.36995 0
M  V30 905 C 80.3026 -4.23782 -4.41673 0
M  V30 906 N 79.4396 -4.20826 -5.62005 0
M  V30 907 H 84.2796 -2.61224 -1.43409 0
M  V30 908 H 81.8166 -1.29508 -0.697565 0
M  V30 909 H 83.7746 -1.78354 -3.77155 0
M  V30 910 H 82.4046 -0.850827 -3.11385 0
M  V30 911 H 81.4566 -3.09584 -2.21047 0
M  V30 912 H 82.7686 -3.92801 -3.07423 0
M  V30 913 H 81.9226 -3.03418 -5.25378 0
M  V30 914 H 80.6616 -2.09815 -4.4026 0
M  V30 915 H 79.6666 -4.22604 -3.5169 0
M  V30 916 H 80.8916 -5.17181 -4.40115 0
M  V30 917 H 78.8376 -3.31476 -5.66091 0
M  V30 918 H 78.7546 -5.04564 -5.62984 0
M  V30 919 H 80.0226 -4.26355 -6.52565 0
M  V30 920 N 84.2517 0.741722 -1.39055 0
M  V30 921 C 85.1997 1.87702 -1.3737 0
M  V30 922 C 86.1937 1.67427 -0.257812 0
M  V30 923 O 87.3997 1.7485 -0.427489 0
M  V30 924 H 83.7747 0.617757 -0.428812 0
M  V30 925 H 85.7457 1.86239 -2.33147 0
M  V30 926 C 84.4947 3.25315 -1.22741 0
M  V30 927 H 83.8177 3.41509 -2.07873 0
M  V30 928 H 85.2577 4.04964 -1.25618 0
M  V30 929 C 83.7167 3.36838 0.0647316 0
M  V30 930 O 84.2467 3.88073 1.03741 0
M  V30 931 N 82.4527 2.90329 0.125544 0
M  V30 932 H 81.9997 2.48823 -0.666682 0
M  V30 933 H 81.9577 2.98418 0.989639 0
M  V30 934 N 85.7298 1.2412 0.971189 0
M  V30 935 C 87.1408 1.07236 1.52831 0
M  V30 936 C 87.4918 -0.357352 1.92918 0
M  V30 937 O 86.6168 -1.24528 1.76979 0
M  V30 938 C 87.2118 1.94043 2.77728 0
M  V30 939 C 85.7708 1.81394 3.29808 0
M  V30 940 C 84.9178 1.89189 2.02738 0
M  V30 941 H 87.8688 1.37648 0.789864 0
M  V30 942 H 87.8898 1.47066 3.5093 0
M  V30 943 H 87.4018 2.98093 2.4852 0
M  V30 944 H 85.5028 0.801634 3.63874 0
M  V30 945 H 85.6158 2.65294 3.98944 0
M  V30 946 H 83.9798 1.32877 2.17292 0
M  V30 947 H 84.7628 2.94812 1.759 0
M  V30 948 N 87.2079 -1.17134 1.05439 0
M  V30 949 C 88.1579 -2.1919 0.627675 0
M  V30 950 C 89.1419 -1.57328 -0.337147 0
M  V30 951 O 90.3339 -1.76329 -0.153976 0
M  V30 952 C 87.4629 -3.43299 0.00651435 0
M  V30 953 C 86.5489 -4.12255 0.995312 0
M  V30 954 N 86.9399 -4.56997 2.16765 0
M  V30 955 C 85.2379 -4.38316 0.824336 0
M  V30 956 C 85.9389 -5.10239 2.7934 0
M  V30 957 N 84.9149 -5.02595 2.07122 0
M  V30 958 H 88.7169 -2.5149 1.52086 0
M  V30 959 H 86.2309 -1.33491 0.924868 0
M  V30 960 H 88.2279 -4.15693 -0.316965 0
M  V30 961 H 86.8879 -3.1249 -0.882033 0
M  V30 962 H 87.8989 -4.51006 2.54587 0
M  V30 963 H 84.5759 -4.17498 -0.0129526 0
M  V30 964 H 85.9659 -5.54961 3.78772 0
M  V30 965 N 88.686 -0.835752 -1.33615 0
M  V30 966 C 89.616 -0.281739 -2.31794 0
M  V30 967 C 90.597 0.608833 -1.58831 0
M  V30 968 O 91.782 0.533035 -1.86741 0
M  V30 969 C 88.912 0.546612 -3.42971 0
M  V30 970 C 87.866 -0.247904 -4.27281 0
M  V30 971 C 87.192 0.704001 -5.30045 0
M  V30 972 C 88.492 -1.46324 -5.01385 0
M  V30 973 H 90.186 -1.10206 -2.78379 0
M  V30 974 H 87.732 -0.531388 -1.33837 0
M  V30 975 H 89.685 0.944467 -4.1068 0
M  V30 976 H 88.409 1.40011 -2.95067 0
M  V30 977 H 87.068 -0.627281 -3.61194 0
M  V30 978 H 86.716 1.55381 -4.78399 0
M  V30 979 H 86.416 0.176524 -5.87335 0
M  V30 980 H 87.94 1.09944 -6.0062 0
M  V30 981 H 89.354 -1.13871 -5.61877 0
M  V30 982 H 87.751 -1.92728 -5.6831 0
M  V30 983 H 88.821 -2.23467 -4.30338 0
M  V30 984 N 90.1641 1.46063 -0.591896 0
M  V30 985 C 91.1271 2.28854 0.125973 0
M  V30 986 C 92.1271 1.38903 0.810107 0
M  V30 987 O 93.3171 1.61186 0.66066 0
M  V30 988 C 90.4491 3.19526 1.1881 0
M  V30 989 H 91.6421 2.93802 -0.601717 0
M  V30 990 H 89.1951 1.52325 -0.350254 0
M  V30 991 H 89.9301 2.59345 1.94707 0
M  V30 992 H 89.7151 3.85766 0.701936 0
M  V30 993 H 91.2051 3.81817 1.69132 0
M  V30 994 N 91.6422 0.330177 1.54103 0
M  V30 995 C 92.5722 -0.525353 2.27513 0
M  V30 996 C 93.5532 -1.11383 1.2856 0
M  V30 997 O 94.7382 -1.13773 1.57383 0
M  V30 998 C 91.8682 -1.6831 3.03791 0
M  V30 999 C 90.8222 -1.2236 4.10137 0
M  V30 1000 C 90.1482 -2.46882 4.74293 0
M  V30 1001 C 91.4482 -0.333697 5.21233 0
M  V30 1002 H 93.1422 0.087013 2.99274 0
M  V30 1003 H 90.6882 0.0432893 1.43935 0
M  V30 1004 H 92.6412 -2.28795 3.5388 0
M  V30 1005 H 91.3652 -2.32216 2.29659 0
M  V30 1006 H 90.0242 -0.64165 3.60941 0
M  V30 1007 H 89.6722 -3.09165 3.96769 0
M  V30 1008 H 89.3722 -2.16825 5.46133 0
M  V30 1009 H 90.8962 -3.08117 5.27159 0
M  V30 1010 H 92.3102 -0.845013 5.67038 0
M  V30 1011 H 90.7072 -0.125612 5.99969 0
M  V30 1012 H 91.7772 0.633724 4.80741 0
M  V30 1013 N 93.1203 -1.57491 0.0584922 0
M  V30 1014 C 94.3453 -1.97711 -0.62652 0
M  V30 1015 C 94.7703 -0.936132 -1.63151 0
M  V30 1016 O 94.1283 0.099811 -1.81025 0
M  V30 1017 C 94.1763 -3.36989 -1.28338 0
M  V30 1018 O 93.2803 -3.35433 -2.39913 0
M  V30 1019 H 92.6213 -0.643868 -0.162266 0
M  V30 1020 H 95.1513 -2.04193 0.129064 0
M  V30 1021 H 95.1613 -3.73879 -1.63335 0
M  V30 1022 H 93.8363 -4.12289 -0.546889 0
M  V30 1023 H 92.4133 -3.10298 -2.06809 0
M  V30 1024 N 94.5984 0.214957 -1.56127 0
M  V30 1025 C 96.0144 0.564948 -1.49267 0
M  V30 1026 C 96.2144 1.86827 -0.754838 0
M  V30 1027 O 95.2704 2.50745 -0.297198 0
M  V30 1028 C 96.5834 0.638071 -2.93852 0
M  V30 1029 C 98.1314 0.728253 -3.0441 0
M  V30 1030 C 98.6064 0.832663 -4.50367 0
M  V30 1031 N 100.097 0.896712 -4.54437 0
M  V30 1032 C 100.832 0.997324 -5.6466 0
M  V30 1033 N 100.328 1.06147 -6.8462 0
M  V30 1034 N 102.121 1.03297 -5.52527 0
M  V30 1035 H 94.2724 -0.640211 -2.02522 0
M  V30 1036 H 96.5354 -0.225507 -0.920788 0
M  V30 1037 H 96.2414 -0.250126 -3.50809 0
M  V30 1038 H 96.1154 1.49947 -3.46115 0
M  V30 1039 H 98.5024 1.60689 -2.47514 0
M  V30 1040 H 98.5834 -0.158952 -2.55306 0
M  V30 1041 H 98.2274 -0.0415417 -5.07883 0
M  V30 1042 H 98.1574 1.73538 -4.97184 0
M  V30 1043 H 100.648 0.857188 -3.6805 0
M  V30 1044 H 100.961 1.1382 -7.64372 0
M  V30 1045 H 99.3064 1.03049 -6.87318 0
M  V30 1046 H 102.497 0.979558 -4.57736 0
M  V30 1047 H 102.67 1.10793 -6.38458 0
M  V30 1048 N 96.0765 1.50051 0.48192 0
M  V30 1049 C 97.0095 1.62749 1.59963 0
M  V30 1050 C 97.9875 0.475903 1.5548 0
M  V30 1051 O 99.1715 0.693986 1.7526 0
M  V30 1052 C 96.2985 1.60008 2.98522 0
M  V30 1053 C 95.3445 2.80596 3.21198 0
M  V30 1054 S 96.1775 4.42038 3.02262 0
M  V30 1055 C 97.3335 4.41973 4.43182 0
M  V30 1056 H 97.5665 2.57296 1.4895 0
M  V30 1057 H 95.0995 1.39179 0.668477 0
M  V30 1058 H 97.0575 1.59112 3.78409 0
M  V30 1059 H 95.7185 0.667153 3.06933 0
M  V30 1060 H 94.9115 2.74952 4.22395 0
M  V30 1061 H 94.5135 2.79003 2.49065 0
M  V30 1062 H 96.8055 4.14868 5.35622 0
M  V30 1063 H 97.7485 5.43512 4.53873 0
M  V30 1064 H 98.1565 3.71812 4.24755 0
M  V30 1065 N 97.5546 -0.734337 1.39446 0
M  V30 1066 C 98.7796 -1.52866 1.40167 0
M  V30 1067 C 99.2046 -1.881 -0.00171513 0
M  V30 1068 O 98.5626 -1.51957 -0.988879 0
M  V30 1069 C 98.6106 -2.79235 2.28167 0
M  V30 1070 O 97.7146 -3.75185 1.71201 0
M  V30 1071 H 97.0556 -0.461618 0.477289 0
M  V30 1072 H 99.5856 -0.905949 1.8345 0
M  V30 1073 H 99.5956 -3.27963 2.42702 0
M  V30 1074 H 98.2706 -2.52923 3.30156 0
M  V30 1075 H 96.8476 -3.33958 1.65912 0
M  V30 1076 N 99.0327 -1.24633 -0.964593 0
M  V30 1077 C 99.9647 -0.999302 -2.06268 0
M  V30 1078 C 100.978 0.0323226 -1.62768 0
M  V30 1079 O 102.167 -0.205079 -1.77318 0
M  V30 1080 C 99.2667 -0.486816 -3.35385 0
M  V30 1081 C 98.4397 -1.5823 -4.07777 0
M  V30 1082 C 97.4987 -1.07191 -5.15166 0
M  V30 1083 O 96.5247 -1.76426 -5.41168 0
M  V30 1084 N 97.7267 0.0920373 -5.80427 0
M  V30 1085 H 100.492 -1.94477 -2.28033 0
M  V30 1086 H 98.0527 -1.15704 -1.13244 0
M  V30 1087 H 100.045 -0.130066 -4.04491 0
M  V30 1088 H 98.6147 0.364459 -3.10468 0
M  V30 1089 H 97.8347 -2.11109 -3.32906 0
M  V30 1090 H 99.1227 -2.31854 -4.52903 0
M  V30 1091 H 98.5207 0.670784 -5.61709 0
M  V30 1092 H 97.0777 0.389905 -6.50633 0
M  V30 1093 N 100.511 1.16574 -1.06058 0
M  V30 1094 C 101.443 2.2045 -0.627239 0
M  V30 1095 C 102.456 1.59752 0.313534 0
M  V30 1096 O 103.645 1.78192 0.104896 0
M  V30 1097 C 100.745 3.3875 0.100974 0
M  V30 1098 C 99.9178 4.29008 -0.852687 0
M  V30 1099 C 98.9768 5.25944 -0.164152 0
M  V30 1100 O 98.0028 5.63535 -0.801047 0
M  V30 1101 N 99.2048 5.70075 1.09518 0
M  V30 1102 H 101.97 2.58249 -1.52077 0
M  V30 1103 H 99.5308 1.3156 -0.943594 0
M  V30 1104 H 101.523 4.00638 0.57194 0
M  V30 1105 H 100.093 2.99476 0.89628 0
M  V30 1106 H 99.3128 3.64419 -1.50308 0
M  V30 1107 H 100.601 4.86195 -1.49972 0
M  V30 1108 H 99.9988 5.41624 1.6328 0
M  V30 1109 H 98.5558 6.34067 1.51006 0
M  V30 1110 N 101.989 0.842826 1.3317 0
M  V30 1111 C 103.219 0.453397 2.01564 0
M  V30 1112 C 103.627 -0.951147 1.63554 0
M  V30 1113 O 102.97 -1.63021 0.846746 0
M  V30 1114 C 103.032 0.499013 3.5602 0
M  V30 1115 C 102.696 1.86037 4.1742 0
M  V30 1116 C 103.693 2.82416 4.36506 0
M  V30 1117 C 101.378 2.15428 4.53757 0
M  V30 1118 C 103.372 4.06346 4.91082 0
M  V30 1119 C 101.059 3.39615 5.0804 0
M  V30 1120 C 102.057 4.3489 5.26649 0
M  V30 1121 O 101.745 5.5688 5.79776 0
M  V30 1122 H 101.477 0.177871 0.652179 0
M  V30 1123 H 104.031 1.13808 1.70988 0
M  V30 1124 H 102.261 -0.242467 3.85939 0
M  V30 1125 H 103.95 0.126852 4.05702 0
M  V30 1126 H 104.716 2.6101 4.08777 0
M  V30 1127 H 100.595 1.42061 4.38565 0
M  V30 1128 H 104.139 4.80722 5.05522 0
M  V30 1129 H 100.036 3.60876 5.352 0
M  V30 1130 H 100.804 5.58674 5.98185 0
M  V30 1131 N 103.467 -1.45747 0.599634 0
M  V30 1132 C 104.715 -2.01893 0.0915472 0
M  V30 1133 C 105.036 -1.47155 -1.27946 0
M  V30 1134 O 104.306 -0.66273 -1.84349 0
M  V30 1135 H 102.886 -0.746363 0.0308524 0
M  V30 1136 H 105.548 -1.78645 0.779237 0
M  V30 1137 H 104.644 -3.1208 0.0353086 0
M  V30 1138 N 104.945 -0.338344 -1.53925 0
M  V30 1139 C 106.222 0.314774 -1.93051 0
M  V30 1140 C 106.602 1.68669 -1.26941 0
M  V30 1141 O 105.95 2.24636 -0.418445 0
M  V30 1142 C 106.16 0.392249 -3.46789 0
M  V30 1143 C 107.508 0.645554 -4.19664 0
M  V30 1144 O 108.532 0.474575 -3.53024 0
M  V30 1145 O 107.391 0.976408 -5.37707 0
M  V30 1146 H 104.485 0.182598 -0.80659 0
M  V30 1147 H 107.031 -0.389141 -1.65178 0
M  V30 1148 H 105.803 -0.570702 -3.87116 0
M  V30 1149 H 105.426 1.14316 -3.80812 0
M  V30 1150 N 106.423 1.57458 -0.0668435 0
M  V30 1151 C 107.669 1.93587 0.6043 0
M  V30 1152 C 108.002 0.946722 1.69561 0
M  V30 1153 O 107.277 -0.0248516 1.94484 0
M  V30 1154 C 107.56 3.40014 1.18585 0
M  V30 1155 C 107.413 4.49685 0.101529 0
M  V30 1156 C 108.732 3.87154 2.09284 0
M  V30 1157 H 105.851 0.703958 0.218202 0
M  V30 1158 H 108.493 1.89542 -0.131804 0
M  V30 1159 H 106.643 3.43592 1.81319 0
M  V30 1160 H 108.315 4.5823 -0.531279 0
M  V30 1161 H 106.558 4.30059 -0.568487 0
M  V30 1162 H 107.229 5.49266 0.54874 0
M  V30 1163 H 109.705 3.85551 1.56491 0
M  V30 1164 H 108.581 4.90231 2.46911 0
M  V30 1165 H 108.842 3.2481 2.99918 0
M  V30 1166 N 107.901 -0.206675 1.56239 0
M  V30 1167 C 108.831 -1.25909 1.96645 0
M  V30 1168 C 109.812 -1.48097 0.836734 0
M  V30 1169 O 110.997 -1.6003 1.10019 0
M  V30 1170 C 108.127 -2.6058 2.29599 0
M  V30 1171 C 107.081 -2.53024 3.452 0
M  V30 1172 C 106.407 -3.91861 3.63798 0
M  V30 1173 C 107.707 -2.06524 4.79734 0
M  V30 1174 H 109.401 -0.923369 2.84806 0
M  V30 1175 H 106.947 -0.442735 1.37025 0
M  V30 1176 H 108.9 -3.34375 2.56459 0
M  V30 1177 H 107.624 -2.95869 1.38307 0
M  V30 1178 H 106.283 -1.81684 3.18412 0
M  V30 1179 H 105.931 -4.24483 2.69857 0
M  V30 1180 H 105.631 -3.87683 4.4156 0
M  V30 1181 H 107.155 -4.67296 3.93022 0
M  V30 1182 H 108.569 -2.70072 5.05702 0
M  V30 1183 H 106.966 -2.13374 5.60885 0
M  V30 1184 H 108.036 -1.01802 4.74093 0
M  V30 1185 N 109.379 -1.50304 -0.473955 0
M  V30 1186 C 110.311 -1.65109 -1.58971 0
M  V30 1187 C 111.324 -0.532676 -1.53839 0
M  V30 1188 O 112.513 -0.805751 -1.59279 0
M  V30 1189 C 109.613 -1.61684 -2.97845 0
M  V30 1190 C 108.786 -2.8951 -3.27876 0
M  V30 1191 C 107.845 -2.78768 -4.4629 0
M  V30 1192 O 106.871 -3.52722 -4.46739 0
M  V30 1193 N 108.073 -1.9213 -5.47783 0
M  V30 1194 H 110.838 -2.61347 -1.46689 0
M  V30 1195 H 108.399 -1.47732 -0.662324 0
M  V30 1196 H 110.391 -1.52114 -3.75024 0
M  V30 1197 H 108.961 -0.731925 -3.03911 0
M  V30 1198 H 108.181 -3.13228 -2.39336 0
M  V30 1199 H 109.469 -3.74199 -3.4475 0
M  V30 1200 H 108.867 -1.31353 -5.50239 0
M  V30 1201 H 107.424 -1.88466 -6.23958 0
M  V30 1202 N 110.857 0.726932 -1.39834 0
M  V30 1203 C 112.106 1.48214 -1.36805 0
M  V30 1204 C 112.419 1.95576 0.0305291 0
M  V30 1205 O 113.625 2.7088 0.183417 0
M  V30 1206 C 112.081 2.67854 -2.40379 0
M  V30 1207 C 111.689 2.27408 -3.85992 0
M  V30 1208 C 113.433 3.45641 -2.46439 0
M  V30 1209 C 111.34 3.43819 -4.81189 0
M  V30 1210 H 110.27 0.556606 -0.508631 0
M  V30 1211 H 112.921 0.792216 -1.65518 0
M  V30 1212 H 111.303 3.3896 -2.04749 0
M  V30 1213 H 112.477 1.63795 -4.30706 0
M  V30 1214 H 110.792 1.62692 -3.83302 0
M  V30 1215 H 113.389 4.32244 -3.14753 0
M  V30 1216 H 113.732 3.88669 -1.49139 0
M  V30 1217 H 114.265 2.8157 -2.81004 0
M  V30 1218 H 111.004 3.05834 -5.79781 0
M  V30 1219 H 110.524 4.06385 -4.41148 0
M  V30 1220 H 112.203 4.10043 -5.00474 0
M  V30 1221 N 112.336 1.25143 0.95797 0
M  V30 1222 C 113.752 1.01892 1.22842 0
M  V30 1223 C 113.952 -0.266311 1.99732 0
M  V30 1224 O 113.008 -0.979913 2.3271 0
M  V30 1225 C 114.321 2.24004 2.00606 0
M  V30 1226 C 115.869 2.28731 2.13662 0
M  V30 1227 C 116.344 3.5049 2.94823 0
M  V30 1228 N 117.835 3.50866 3.02403 0
M  V30 1229 C 118.57 4.4174 3.65586 0
M  V30 1230 N 118.066 5.42882 4.30408 0
M  V30 1231 N 119.859 4.29429 3.62694 0
M  V30 1232 H 112.01 2.07718 0.443493 0
M  V30 1233 H 114.273 0.912031 0.258657 0
M  V30 1234 H 113.979 3.17395 1.51503 0
M  V30 1235 H 113.853 2.26907 3.01319 0
M  V30 1236 H 116.24 1.35865 2.61963 0
M  V30 1237 H 116.321 2.29848 1.12265 0
M  V30 1238 H 115.965 4.43676 2.47213 0
M  V30 1239 H 115.895 3.46617 3.96439 0
M  V30 1240 H 118.386 2.777 2.56302 0
M  V30 1241 H 118.699 6.0844 4.76467 0
M  V30 1242 H 117.044 5.46758 4.29047 0
M  V30 1243 H 120.235 3.49643 3.11236 0
M  V30 1244 H 120.408 5.00448 4.1165 0
M  V30 1245 N 113.814 -1.1601 1.06675 0
M  V30 1246 C 115.063 -1.85973 0.780818 0
M  V30 1247 C 115.376 -1.82819 -0.695444 0
M  V30 1248 O 116.582 -2.484 -1.09589 0
M  V30 1249 C 115.038 -3.33757 1.34665 0
M  V30 1250 C 114.646 -3.45374 2.85343 0
M  V30 1251 C 116.39 -4.0895 1.13843 0
M  V30 1252 C 114.297 -4.87266 3.35151 0
M  V30 1253 H 113.227 -0.696661 0.288407 0
M  V30 1254 H 115.878 -1.30903 1.28595 0
M  V30 1255 H 114.26 -3.88456 0.769274 0
M  V30 1256 H 115.434 -3.00816 3.49065 0
M  V30 1257 H 113.749 -2.83619 3.04876 0
M  V30 1258 H 116.346 -5.13654 1.4854 0
M  V30 1259 H 116.689 -4.16229 0.0770282 0
M  V30 1260 H 117.222 -3.605 1.68179 0
M  V30 1261 H 113.961 -4.85168 4.40786 0
M  V30 1262 H 113.481 -5.32433 2.76179 0
M  V30 1263 H 115.16 -5.56097 3.30704 0
M  V30 1264 N 115.292 -0.849877 -1.32721 0
M  V30 1265 C 116.54 -0.450032 -1.97026 0
M  V30 1266 C 116.861 0.996604 -1.67609 0
M  V30 1267 O 116.131 1.6958 -0.980786 0
M  V30 1268 H 114.711 -0.163426 -0.728904 0
M  V30 1269 H 117.373 -1.08526 -1.6189 0
M  V30 1270 H 116.469 -0.591146 -3.0645 0
M  V30 1271 N 116.77 1.45427 -0.607355 0
M  V30 1272 C 117.995 2.07124 -0.107006 0
M  V30 1273 C 118.42 1.44906 1.19933 0
M  V30 1274 O 117.778 0.541687 1.73019 0
M  V30 1275 C 117.826 3.60595 0.0194119 0
M  V30 1276 O 116.93 3.98285 1.0697 0
M  V30 1277 H 116.271 0.659868 -0.0739597 0
M  V30 1278 H 118.801 1.86683 -0.837297 0
M  V30 1279 H 118.811 4.07419 0.2177 0
M  V30 1280 H 117.486 4.05266 -0.934453 0
M  V30 1281 H 116.063 3.63133 0.847889 0
M  V30 1282 N 118.248 0.346503 1.53744 0
M  V30 1283 C 119.476 -0.25041 2.05379 0
M  V30 1284 C 119.891 -1.43979 1.22129 0
M  V30 1285 O 119.248 -1.80677 0.257321 0
M  V30 1286 C 119.299 -0.662575 3.55376 0
M  V30 1287 O 119.02 0.479515 4.35468 0
M  V30 1288 C 120.521 -1.31989 4.23195 0
M  V30 1289 H 117.741 -0.0478198 0.669294 0
M  V30 1290 H 120.285 0.499346 1.9831 0
M  V30 1291 H 118.44 -1.36227 3.62658 0
M  V30 1292 H 118.854 0.15037 5.24284 0
M  V30 1293 H 120.328 -1.55902 5.29527 0
M  V30 1294 H 120.805 -2.27436 3.75725 0
M  V30 1295 H 121.411 -0.662154 4.20114 0
M  V30 1296 N 119.726 -1.57421 0.075193 0
M  V30 1297 C 121.137 -1.81021 -0.456964 0
M  V30 1298 C 121.488 -0.98936 -1.69429 0
M  V30 1299 O 120.613 -0.212865 -2.15351 0
M  V30 1300 C 121.208 -3.28329 -0.83581 0
M  V30 1301 C 119.767 -3.52764 -1.31281 0
M  V30 1302 C 118.914 -2.75676 -0.299648 0
M  V30 1303 H 121.865 -1.55822 0.300856 0
M  V30 1304 H 121.886 -3.40564 -1.69696 0
M  V30 1305 H 121.398 -3.88046 0.0649238 0
M  V30 1306 H 119.499 -2.98355 -2.23193 0
M  V30 1307 H 119.612 -4.61451 -1.28839 0
M  V30 1308 H 117.976 -2.42538 -0.777641 0
M  V30 1309 H 118.759 -3.38132 0.593417 0
M  V30 1310 N 121.204 0.198386 -1.56346 0
M  V30 1311 C 122.45 0.920648 -1.80698 0
M  V30 1312 C 122.783 1.83045 -0.648697 0
M  V30 1313 O 122.058 1.91308 0.350925 0
M  V30 1314 C 122.341 1.73971 -3.15287 0
M  V30 1315 C 122.194 0.85485 -4.41602 0
M  V30 1316 C 123.513 2.71296 -3.46535 0
M  V30 1317 H 120.632 0.333261 -0.657348 0
M  V30 1318 H 123.274 0.188198 -1.89066 0
M  V30 1319 H 121.424 2.36416 -3.08285 0
M  V30 1320 H 123.096 0.245362 -4.60647 0
M  V30 1321 H 121.339 0.161398 -4.335 0
M  V30 1322 H 122.01 1.46286 -5.32264 0
M  V30 1323 H 124.486 2.18983 -3.53816 0
M  V30 1324 H 123.362 3.2569 -4.41834 0
M  V30 1325 H 123.623 3.5018 -2.69864 0
M  V30 1326 N 122.682 1.50554 0.465978 0
M  V30 1327 C 123.928 1.62038 1.21949 0
M  V30 1328 C 124.261 0.322116 1.9151 0
M  V30 1329 O 123.536 -0.676723 1.82348 0
M  V30 1330 C 123.819 2.80421 2.25912 0
M  V30 1331 C 123.672 4.20144 1.60622 0
M  V30 1332 C 124.991 2.94354 3.27176 0
M  V30 1333 H 122.11 0.589752 0.441998 0
M  V30 1334 H 124.752 1.82956 0.51257 0
M  V30 1335 H 122.902 2.62717 2.86203 0
M  V30 1336 H 124.574 4.49449 1.03889 0
M  V30 1337 H 122.817 4.24165 0.909211 0
M  V30 1338 H 123.488 4.98914 2.36196 0
M  V30 1339 H 125.964 3.10578 2.76913 0
M  V30 1340 H 124.84 3.788 3.97242 0
M  V30 1341 H 125.101 2.05186 3.916 0
M  V30 1342 N 124.16 -0.719506 1.40217 0
M  V30 1343 C 125.406 -1.48152 1.38488 0
M  V30 1344 C 125.739 -1.94195 -0.0141867 0
M  V30 1345 O 125.014 -1.67884 -0.982096 0
M  V30 1346 C 125.297 -2.71035 2.37091 0
M  V30 1347 C 125.15 -2.30912 3.86005 0
M  V30 1348 C 126.469 -3.73182 2.33288 0
M  V30 1349 H 123.588 -0.537395 0.504357 0
M  V30 1350 H 126.23 -0.821472 1.71324 0
M  V30 1351 H 124.38 -3.27352 2.0922 0
M  V30 1352 H 126.052 -1.80107 4.24687 0
M  V30 1353 H 124.295 -1.62958 4.02029 0
M  V30 1354 H 124.966 -3.18978 4.50508 0
M  V30 1355 H 127.442 -3.26485 2.57966 0
M  V30 1356 H 126.318 -4.56806 3.04334 0
M  V30 1357 H 126.579 -4.21202 1.34317 0
M  V30 1358 N 125.638 -1.25649 -0.95132 0
M  V30 1359 C 126.568 -1.08808 -2.06599 0
M  V30 1360 C 127.549 0.00382547 -1.701 0
M  V30 1361 O 128.734 -0.166325 -1.93486 0
M  V30 1362 C 125.864 -0.709542 -3.39975 0
M  V30 1363 C 124.818 -1.75206 -3.90496 0
M  V30 1364 C 124.144 -1.22811 -5.20405 0
M  V30 1365 C 125.444 -3.15153 -4.16504 0
M  V30 1366 H 127.138 -2.02048 -2.20946 0
M  V30 1367 H 124.684 -0.972835 -1.06169 0
M  V30 1368 H 126.637 -0.578649 -4.17408 0
M  V30 1369 H 125.361 0.258556 -3.25575 0
M  V30 1370 H 124.02 -1.87145 -3.15234 0
M  V30 1371 H 123.668 -0.250145 -5.02378 0
M  V30 1372 H 123.368 -1.92492 -5.55176 0
M  V30 1373 H 124.892 -1.10968 -6.00432 0
M  V30 1374 H 126.306 -3.06349 -4.84586 0
M  V30 1375 H 124.703 -3.82333 -4.62538 0
M  V30 1376 H 125.773 -3.61966 -3.22658 0
M  V30 1377 N 127.117 1.15442 -1.07289 0
M  V30 1378 C 128.342 1.90638 -0.816828 0
M  V30 1379 C 128.767 1.77445 0.624083 0
M  V30 1380 O 128.125 1.10671 1.43602 0
M  V30 1381 C 128.173 3.39008 -1.22906 0
M  V30 1382 O 127.277 4.10701 -0.373975 0
M  V30 1383 H 126.618 0.593555 -0.297638 0
M  V30 1384 H 129.148 1.46198 -1.43134 0
M  V30 1385 H 129.158 3.89801 -1.20497 0
M  V30 1386 H 127.833 3.47929 -2.27856 0
M  V30 1387 H 126.41 3.70046 -0.460499 0
M  V30 1388 N 128.595 0.856903 1.32268 0
M  V30 1389 C 129.843 0.460474 1.96784 0
M  V30 1390 C 130.164 -0.987701 1.68135 0
M  V30 1391 O 129.434 -1.69058 0.989765 0
M  V30 1392 H 128.014 0.167289 0.728027 0
M  V30 1393 H 130.676 1.09383 1.61312 0
M  V30 1394 H 129.772 0.60739 3.06133 0
M  V30 1395 N 130.073 -1.45103 0.615059 0
M  V30 1396 C 131.003 -2.33339 -0.0865619 0
M  V30 1397 C 131.984 -1.4727 -0.851209 0
M  V30 1398 O 133.169 -1.76026 -0.820281 0
M  V30 1399 C 130.299 -3.30095 -1.07956 0
M  V30 1400 C 129.253 -4.25858 -0.427628 0
M  V30 1401 C 128.579 -5.12361 -1.5294 0
M  V30 1402 C 129.879 -5.18165 0.655944 0
M  V30 1403 H 131.573 -2.92254 0.650224 0
M  V30 1404 H 129.119 -1.40532 0.314138 0
M  V30 1405 H 131.072 -3.90698 -1.57901 0
M  V30 1406 H 129.796 -2.69355 -1.84703 0
M  V30 1407 H 128.455 -3.66564 0.0510292 0
M  V30 1408 H 128.103 -4.47984 -2.28734 0
M  V30 1409 H 127.803 -5.77238 -1.09865 0
M  V30 1410 H 129.327 -5.75833 -2.03098 0
M  V30 1411 H 130.741 -5.72796 0.240257 0
M  V30 1412 H 129.138 -5.91559 1.00888 0
M  V30 1413 H 130.208 -4.60144 1.52957 0
M  V30 1414 N 131.551 -0.354651 -1.53558 0
M  V30 1415 C 132.828 0.294281 -1.93374 0
M  V30 1416 C 133.208 1.67313 -1.28723 0
M  V30 1417 O 132.556 2.24179 -0.442247 0
M  V30 1418 C 132.766 0.355445 -3.47185 0
M  V30 1419 C 134.114 0.601007 -4.20325 0
M  V30 1420 O 135.138 0.437106 -3.53508 0
M  V30 1421 O 133.997 0.919322 -5.38712 0
M  V30 1422 H 131.091 0.174033 -0.808481 0
M  V30 1423 H 133.637 -0.406638 -1.64756 0
M  V30 1424 H 132.409 -0.611729 -3.86489 0
M  V30 1425 H 132.032 1.1027 -3.82003 0
M  V30 1426 N 133.029 1.57378 -0.0835403 0
M  V30 1427 C 134.257 1.98263 0.59157 0
M  V30 1428 C 134.672 0.962302 1.62435 0
M  V30 1429 O 134.029 -0.049581 1.82433 0
M  V30 1430 C 134.08 3.39214 1.24965 0
M  V30 1431 O 133.801 4.37339 0.258186 0
M  V30 1432 C 135.302 3.95038 2.01147 0
M  V30 1433 H 132.522 0.651773 0.159477 0
M  V30 1434 H 135.066 2.03878 -0.159415 0
M  V30 1435 H 133.221 3.34649 1.95164 0
M  V30 1436 H 133.635 5.19371 0.731734 0
M  V30 1437 H 135.109 4.95848 2.42567 0
M  V30 1438 H 135.586 3.32222 2.87272 0
M  V30 1439 H 136.192 4.0304 1.35789 0
M  V30 1440 N 134.507 -0.190092 1.56449 0
M  V30 1441 C 135.756 -0.907912 1.80111 0
M  V30 1442 C 136.069 -1.84214 0.657619 0
M  V30 1443 O 137.275 -2.60094 0.778663 0
M  V30 1444 C 135.731 -1.66485 3.19078 0
M  V30 1445 C 135.339 -0.7752 4.41242 0
M  V30 1446 C 137.083 -2.37201 3.52045 0
M  V30 1447 C 134.99 -1.53129 5.71231 0
M  V30 1448 H 133.92 -0.34276 0.671589 0
M  V30 1449 H 136.571 -0.161109 1.82791 0
M  V30 1450 H 134.953 -2.45572 3.10661 0
M  V30 1451 H 136.127 -0.0226298 4.60794 0
M  V30 1452 H 134.442 -0.178627 4.16017 0
M  V30 1453 H 137.039 -2.94329 4.46402 0
M  V30 1454 H 137.382 -3.11632 2.76028 0
M  V30 1455 H 137.915 -1.65075 3.61932 0
M  V30 1456 H 134.654 -0.82967 6.50228 0
M  V30 1457 H 134.174 -2.25767 5.55688 0
M  V30 1458 H 135.853 -2.08377 6.12526 0
M  V30 1459 N 135.985 -1.50799 -0.457987 0
M  V30 1460 C 137.401 -1.38515 -0.792819 0
M  V30 1461 C 137.601 -0.451409 -1.96379 0
M  V30 1462 O 136.657 0.10112 -2.52297 0
M  V30 1463 C 137.97 -2.80149 -1.09258 0
M  V30 1464 C 139.518 -2.89156 -1.19825 0
M  V30 1465 C 139.993 -4.31651 -1.53106 0
M  V30 1466 N 141.484 -4.34662 -1.60072 0
M  V30 1467 C 142.219 -5.41928 -1.87354 0
M  V30 1468 N 141.715 -6.59384 -2.12568 0
M  V30 1469 N 143.508 -5.29385 -1.88965 0
M  V30 1470 H 135.659 -2.10073 0.313511 0
M  V30 1471 H 137.922 -0.944803 0.0777862 0
M  V30 1472 H 137.628 -3.50374 -0.305084 0
M  V30 1473 H 137.502 -3.18204 -2.02549 0
M  V30 1474 H 139.889 -2.19141 -1.97639 0
M  V30 1475 H 139.97 -2.54626 -0.244821 0
M  V30 1476 H 139.614 -5.02208 -0.758266 0
M  V30 1477 H 139.544 -4.63678 -2.49621 0
M  V30 1478 H 142.035 -3.49973 -1.42573 0
M  V30 1479 H 142.348 -7.36934 -2.32696 0
M  V30 1480 H 140.693 -6.62535 -2.09933 0
M  V30 1481 H 143.884 -4.36616 -1.68772 0
M  V30 1482 H 144.057 -6.13066 -2.09891 0
M  V30 1483 N 137.463 0.71206 -1.40597 0
M  V30 1484 C 138.395 1.83704 -1.37061 0
M  V30 1485 C 139.408 1.60453 -0.275426 0
M  V30 1486 O 140.597 1.70262 -0.53602 0
M  V30 1487 C 137.697 3.20172 -1.11099 0
M  V30 1488 C 136.87 3.7059 -2.3234 0
M  V30 1489 C 135.929 4.85681 -2.02485 0
M  V30 1490 O 134.955 4.9815 -2.75382 0
M  V30 1491 N 136.157 5.71735 -1.00497 0
M  V30 1492 H 138.922 1.87235 -2.34016 0
M  V30 1493 H 136.483 0.893739 -1.34996 0
M  V30 1494 H 138.475 3.94768 -0.891064 0
M  V30 1495 H 137.045 3.11767 -0.227989 0
M  V30 1496 H 136.265 2.87085 -2.7014 0
M  V30 1497 H 137.553 4.01011 -3.13157 0
M  V30 1498 H 136.951 5.64275 -0.401298 0
M  V30 1499 H 135.508 6.463 -0.844942 0
M  V30 1500 N 138.941 1.26152 0.944643 0
M  V30 1501 C 139.904 1.07474 2.0244 0
M  V30 1502 C 140.904 0.0242064 1.60782 0
M  V30 1503 O 142.094 0.267302 1.72137 0
M  V30 1504 C 139.226 0.633956 3.34953 0
M  V30 1505 H 140.419 2.03336 2.20442 0
M  V30 1506 H 137.972 1.087 1.12312 0
M  V30 1507 H 138.707 -0.326811 3.22649 0
M  V30 1508 H 138.492 1.39247 3.66542 0
M  V30 1509 H 139.982 0.52501 4.14287 0
M  V30 1510 N 140.419 -1.14872 1.07899 0
M  V30 1511 C 141.349 -2.2193 0.725887 0
M  V30 1512 C 142.33 -1.67622 -0.28927 0
M  V30 1513 O 143.515 -1.93533 -0.160787 0
M  V30 1514 C 140.645 -3.47061 0.128856 0
M  V30 1515 C 139.599 -4.14363 1.07178 0
M  V30 1516 C 138.925 -5.33636 0.337229 0
M  V30 1517 C 140.225 -4.63492 2.40775 0
M  V30 1518 H 141.919 -2.51724 1.62097 0
M  V30 1519 H 139.465 -1.20991 0.780838 0
M  V30 1520 H 141.418 -4.21199 -0.130147 0
M  V30 1521 H 140.142 -3.16617 -0.80134 0
M  V30 1522 H 138.801 -3.42173 1.3158 0
M  V30 1523 H 138.449 -4.99449 -0.596606 0
M  V30 1524 H 138.149 -5.79609 0.965788 0
M  V30 1525 H 139.673 -6.10539 0.0861567 0
M  V30 1526 H 141.087 -5.2913 2.20669 0
M  V30 1527 H 139.484 -5.20148 2.99276 0
M  V30 1528 H 140.554 -3.78834 3.02676 0
M  V30 1529 N 141.898 -0.863906 -1.31812 0
M  V30 1530 C 143.144 -0.472535 -1.97218 0
M  V30 1531 C 143.477 0.971394 -1.68159 0
M  V30 1532 O 142.752 1.68309 -0.974798 0
M  V30 1533 C 143.035 -0.723054 -3.52766 0
M  V30 1534 C 142.888 -2.21608 -3.91421 0
M  V30 1535 C 144.207 -0.185522 -4.39709 0
M  V30 1536 H 141.326 -0.173158 -0.71637 0
M  V30 1537 H 143.968 -1.08403 -1.56041 0
M  V30 1538 H 142.118 -0.202577 -3.87971 0
M  V30 1539 H 143.79 -2.80334 -3.66347 0
M  V30 1540 H 142.033 -2.691 -3.40246 0
M  V30 1541 H 142.704 -2.34203 -4.99853 0
M  V30 1542 H 145.18 -0.630726 -4.11292 0
M  V30 1543 H 144.056 -0.390306 -5.47511 0
M  V30 1544 H 144.317 0.912229 -4.32586 0
M  V30 1545 N 143.376 1.44774 -0.622745 0
M  V30 1546 C 144.792 1.56986 -0.287652 0
M  V30 1547 C 144.992 1.61167 1.20944 0
M  V30 1548 O 144.048 1.55015 1.99315 0
M  V30 1549 C 145.361 2.84551 -0.972188 0
M  V30 1550 C 146.909 2.9825 -0.949536 0
M  V30 1551 C 147.384 4.28605 -1.61437 0
M  V30 1552 N 148.875 4.35399 -1.58057 0
M  V30 1553 C 149.61 5.34964 -2.064 0
M  V30 1554 N 149.106 6.40981 -2.62897 0
M  V30 1555 N 150.899 5.26419 -1.97078 0
M  V30 1556 H 143.05 1.40304 -1.59463 0
M  V30 1557 H 145.313 0.671794 -0.668878 0
M  V30 1558 H 145.019 2.87417 -2.02693 0
M  V30 1559 H 144.893 3.73807 -0.504771 0
M  V30 1560 H 147.28 2.94941 0.0967067 0
M  V30 1561 H 147.361 2.10364 -1.45536 0
M  V30 1562 H 147.005 4.32672 -2.66002 0
M  V30 1563 H 146.935 5.15334 -1.08344 0
M  V30 1564 H 149.426 3.59397 -1.16801 0
M  V30 1565 H 149.739 7.13225 -2.97539 0
M  V30 1566 H 148.084 6.4169 -2.66943 0
M  V30 1567 H 151.275 4.42504 -1.52669 0
M  V30 1568 H 151.448 6.03861 -2.35066 0
M  V30 1569 N 144.854 0.36279 1.53368 0
M  V30 1570 C 145.786 -0.519668 2.23231 0
M  V30 1571 C 146.799 -1.04844 1.24546 0
M  V30 1572 O 147.988 -0.955296 1.50786 0
M  V30 1573 C 145.088 -1.72995 2.9142 0
M  V30 1574 C 144.261 -1.33316 4.16588 0
M  V30 1575 C 143.32 -2.40521 4.68013 0
M  V30 1576 O 142.346 -2.03027 5.3176 0
M  V30 1577 N 143.548 -3.72065 4.45587 0
M  V30 1578 H 146.313 0.078751 2.99597 0
M  V30 1579 H 143.874 0.187833 1.60807 0
M  V30 1580 H 145.866 -2.44184 3.22733 0
M  V30 1581 H 144.436 -2.2353 2.18525 0
M  V30 1582 H 143.656 -0.451236 3.91609 0
M  V30 1583 H 144.944 -1.04432 4.97967 0
M  V30 1584 H 144.342 -4.05304 3.94646 0
M  V30 1585 H 142.899 -4.39366 4.81457 0
M  V30 1586 N 146.332 -1.57332 0.0918853 0
M  V30 1587 C 147.58 -1.93853 -0.571446 0
M  V30 1588 C 147.901 -0.974212 -1.6892 0
M  V30 1589 O 147.171 -0.0257254 -1.95883 0
M  V30 1590 H 145.751 -0.715666 -0.214082 0
M  V30 1591 H 148.413 -1.94287 0.154464 0
M  V30 1592 H 147.509 -2.96191 -0.983729 0
M  V30 1593 N 147.81 0.181792 -1.56548 0
M  V30 1594 C 149.087 0.926765 -1.72251 0
M  V30 1595 C 149.467 2.00831 -0.650386 0
M  V30 1596 O 148.815 2.26008 0.336521 0
M  V30 1597 C 149.025 1.50106 -3.1507 0
M  V30 1598 C 150.373 1.97805 -3.75711 0
M  V30 1599 O 151.397 1.59922 -3.18282 0
M  V30 1600 O 150.256 2.67555 -4.76525 0
M  V30 1601 H 147.35 0.435506 -0.703039 0
M  V30 1602 H 149.896 0.170443 -1.68842 0
M  V30 1603 H 148.668 0.72212 -3.84579 0
M  V30 1604 H 148.291 2.32186 -3.22763 0
M  V30 1605 N 149.288 1.51039 0.449983 0
M  V30 1606 C 150.565 1.53612 1.21089 0
M  V30 1607 C 150.945 0.292997 2.09057 0
M  V30 1608 O 150.293 -0.72259 2.16774 0
M  V30 1609 C 150.503 2.84337 2.0237 0
M  V30 1610 C 151.851 3.35807 2.59843 0
M  V30 1611 O 152.875 2.85802 2.12593 0
M  V30 1612 O 151.734 4.23029 3.45989 0
M  V30 1613 H 148.828 0.617057 0.550608 0
M  V30 1614 H 151.374 1.63344 0.460082 0
M  V30 1615 H 150.146 3.66278 1.37681 0
M  V30 1616 H 149.769 2.77708 2.84542 0
M  V30 1617 N 150.766 -0.704594 1.40972 0
M  V30 1618 C 152.013 -1.46458 1.39844 0
M  V30 1619 C 152.341 -1.94499 0.00447594 0
M  V30 1620 O 151.596 -1.69275 -0.982057 0
M  V30 1621 C 151.895 -2.698 2.34399 0
M  V30 1622 C 151.561 -2.40464 3.81429 0
M  V30 1623 C 150.223 -2.32174 4.21484 0
M  V30 1624 C 152.575 -2.16086 4.74296 0
M  V30 1625 C 149.903 -1.97589 5.52427 0
M  V30 1626 C 152.255 -1.83011 6.05549 0
M  V30 1627 C 150.919 -1.7321 6.44635 0
M  V30 1628 H 150.189 -0.535927 0.511725 0
M  V30 1629 H 152.836 -0.806124 1.73706 0
M  V30 1630 H 151.141 -3.40536 1.93759 0
M  V30 1631 H 152.838 -3.27919 2.30804 0
M  V30 1632 H 149.428 -2.47808 3.49699 0
M  V30 1633 H 153.612 -2.2144 4.4416 0
M  V30 1634 H 148.868 -1.88547 5.81601 0
M  V30 1635 H 153.042 -1.63164 6.77016 0
M  V30 1636 H 150.669 -1.46179 7.46013 0
M  V30 1637 N 152.244 -1.26651 -0.937939 0
M  V30 1638 C 153.191 -1.0849 -2.03712 0
M  V30 1639 C 154.161 0.011033 -1.66096 0
M  V30 1640 O 155.346 -0.149353 -1.90215 0
M  V30 1641 C 152.486 -0.72735 -3.37348 0
M  V30 1642 C 151.599 -1.89986 -3.87981 0
M  V30 1643 C 150.734 -1.48513 -5.10017 0
M  V30 1644 C 149.773 -2.62575 -5.5292 0
M  V30 1645 N 148.91 -2.21762 -6.66158 0
M  V30 1646 H 153.75 -2.02551 -2.18579 0
M  V30 1647 H 151.287 -1.00844 -1.07093 0
M  V30 1648 H 153.245 -0.50092 -4.14182 0
M  V30 1649 H 151.875 0.176298 -3.22318 0
M  V30 1650 H 150.927 -2.23913 -3.07518 0
M  V30 1651 H 152.239 -2.75586 -4.15757 0
M  V30 1652 H 151.393 -1.21934 -5.94321 0
M  V30 1653 H 150.132 -0.60009 -4.83994 0
M  V30 1654 H 149.137 -2.8988 -4.67172 0
M  V30 1655 H 150.362 -3.51685 -5.80943 0
M  V30 1656 H 148.308 -1.35696 -6.41812 0
M  V30 1657 H 148.225 -3.00903 -6.93537 0
M  V30 1658 H 149.493 -1.98403 -7.53828 0
M  V30 1659 N 153.722 1.14298 -1.08507 0
M  V30 1660 C 154.97 1.84993 -0.813763 0
M  V30 1661 C 155.291 1.83405 0.662393 0
M  V30 1662 O 154.561 1.28319 1.48024 0
M  V30 1663 H 153.141 0.684966 -0.298045 0
M  V30 1664 H 155.803 1.385 -1.37126 0
M  V30 1665 H 154.899 2.89788 -1.15884 0
M  V30 1666 N 155.201 0.870884 1.31352 0
M  V30 1667 C 156.617 0.562932 1.49343 0
M  V30 1668 C 156.817 -0.902725 1.80148 0
M  V30 1669 O 155.873 -1.68484 1.88067 0
M  V30 1670 C 157.186 1.46393 2.62659 0
M  V30 1671 C 158.734 1.46607 2.76542 0
M  V30 1672 C 159.209 2.35266 3.92955 0
M  V30 1673 N 160.7 2.33151 4.00243 0
M  V30 1674 C 161.435 2.98471 4.89594 0
M  V30 1675 N 160.931 3.72964 5.8384 0
M  V30 1676 N 162.724 2.87775 4.82848 0
M  V30 1677 H 154.875 1.81923 1.09626 0
M  V30 1678 H 157.138 0.777934 0.541777 0
M  V30 1679 H 156.844 2.50689 2.46674 0
M  V30 1680 H 156.718 1.16314 3.58819 0
M  V30 1681 H 159.105 0.43069 2.9194 0
M  V30 1682 H 159.186 1.8071 1.81046 0
M  V30 1683 H 158.83 3.38881 3.78315 0
M  V30 1684 H 158.76 1.98487 4.87761 0
M  V30 1685 H 161.251 1.79006 3.32814 0
M  V30 1686 H 161.564 4.19932 6.4875 0
M  V30 1687 H 159.909 3.77073 5.83816 0
M  V30 1688 H 163.1 2.29116 4.08195 0
M  V30 1689 H 163.273 3.38961 5.52277 0
M  V30 1690 N 156.679 -1.44442 0.630414 0
M  V30 1691 C 158.09 -1.85434 0.217063 0
M  V30 1692 C 158.441 -1.52748 -1.23136 0
M  V30 1693 O 157.566 -0.965205 -1.93682 0
M  V30 1694 C 158.161 -3.36581 0.387168 0
M  V30 1695 C 156.72 -3.76389 0.0283297 0
M  V30 1696 C 155.867 -2.68296 0.700889 0
M  V30 1697 H 158.818 -1.34919 0.83562 0
M  V30 1698 H 158.839 -3.78657 -0.374086 0
M  V30 1699 H 158.351 -3.60339 1.44144 0
M  V30 1700 H 156.452 -3.58246 -1.02423 0
M  V30 1701 H 156.565 -4.77095 0.437892 0
M  V30 1702 H 154.929 -2.54335 0.136267 0
M  V30 1703 H 155.712 -2.94887 1.75774 0
M  V30 1704 N 158.157 -0.370918 -1.53173 0
M  V30 1705 C 159.434 0.273754 -1.93675 0
M  V30 1706 C 159.814 1.65938 -1.3049 0
M  V30 1707 O 159.162 2.23698 -0.465999 0
M  V30 1708 C 159.372 0.318602 -3.47543 0
M  V30 1709 C 160.72 0.556392 -4.20939 0
M  V30 1710 O 161.744 0.399587 -3.53952 0
M  V30 1711 O 160.603 0.862133 -5.39657 0
M  V30 1712 H 157.697 0.165448 -0.810281 0
M  V30 1713 H 160.243 -0.42409 -1.64315 0
M  V30 1714 H 159.015 -0.652687 -3.85818 0
M  V30 1715 H 158.638 1.06212 -3.83151 0
M  V30 1716 N 159.635 1.57281 -0.100228 0
M  V30 1717 C 160.565 2.17328 0.853857 0
M  V30 1718 C 161.546 1.10804 1.2906 0
M  V30 1719 O 162.731 1.38963 1.35657 0
M  V30 1720 C 159.861 2.75772 2.11109 0
M  V30 1721 C 158.815 3.87713 1.81279 0
M  V30 1722 C 158.141 4.32882 3.13874 0
M  V30 1723 C 159.441 5.10677 1.09574 0
M  V30 1724 H 161.135 2.97305 0.353545 0
M  V30 1725 H 158.681 1.43009 0.168612 0
M  V30 1726 H 160.634 3.16433 2.78296 0
M  V30 1727 H 159.358 1.93057 2.63432 0
M  V30 1728 H 158.017 3.476 1.16489 0
M  V30 1729 H 157.665 3.47051 3.64095 0
M  V30 1730 H 157.365 5.08358 2.94696 0
M  V30 1731 H 158.889 4.7618 3.82211 0
M  V30 1732 H 160.303 5.48474 1.66879 0
M  V30 1733 H 158.7 5.91615 1.00557 0
M  V30 1734 H 159.77 4.84835 0.0793299 0
M  V30 1735 N 161.113 -0.173488 1.56642 0
M  V30 1736 C 162.343 -0.904781 1.85734 0
M  V30 1737 C 162.751 -1.76431 0.68328 0
M  V30 1738 O 162.094 -1.802 -0.356865 0
M  V30 1739 C 162.156 -1.83382 3.09211 0
M  V30 1740 C 161.82 -1.15411 4.42187 0
M  V30 1741 C 162.817 -0.520609 5.17287 0
M  V30 1742 C 160.502 -1.15151 4.88923 0
M  V30 1743 C 162.496 0.106412 6.37311 0
M  V30 1744 C 160.183 -0.520664 6.08878 0
M  V30 1745 C 161.181 0.107196 6.82916 0
M  V30 1746 O 160.869 0.728102 8.00596 0
M  V30 1747 H 160.601 -0.268408 0.62043 0
M  V30 1748 H 163.155 -0.179096 2.04618 0
M  V30 1749 H 161.385 -2.59976 2.86268 0
M  V30 1750 H 163.074 -2.43476 3.24768 0
M  V30 1751 H 163.84 -0.514606 4.82262 0
M  V30 1752 H 159.719 -1.62961 4.31236 0
M  V30 1753 H 163.263 0.597081 6.9504 0
M  V30 1754 H 159.16 -0.524242 6.43368 0
M  V30 1755 H 159.928 0.627138 8.16094 0
M  V30 1756 N 162.591 -1.51276 -0.441967 0
M  V30 1757 C 163.819 -1.67516 -1.21434 0
M  V30 1758 C 164.234 -0.37055 -1.85128 0
M  V30 1759 O 163.591 0.650498 -1.70513 0
M  V30 1760 C 163.642 -2.78748 -2.30177 0
M  V30 1761 O 163.363 -4.04154 -1.69089 0
M  V30 1762 C 164.864 -3.06217 -3.20541 0
M  V30 1763 H 162.084 -0.562276 -0.366178 0
M  V30 1764 H 164.628 -1.97666 -0.524244 0
M  V30 1765 H 162.783 -2.5121 -2.94911 0
M  V30 1766 H 163.197 -4.65894 -2.40922 0
M  V30 1767 H 164.671 -3.8764 -3.92987 0
M  V30 1768 H 165.148 -2.18439 -3.81026 0
M  V30 1769 H 165.754 -3.35397 -2.61513 0
M  V30 1770 N 164.069 0.697108 -1.41344 0
M  V30 1771 C 165.316 1.45714 -1.40619 0
M  V30 1772 C 165.644 1.94494 -0.0147907 0
M  V30 1773 O 164.899 1.69794 0.973066 0
M  V30 1774 C 165.198 2.68553 -2.35826 0
M  V30 1775 C 164.864 2.38438 -3.82698 0
M  V30 1776 C 163.526 2.29936 -4.22709 0
M  V30 1777 C 165.878 2.13567 -4.75435 0
M  V30 1778 C 163.206 1.94656 -5.53467 0
M  V30 1779 C 165.558 1.79797 -6.06511 0
M  V30 1780 C 164.222 1.69789 -6.45545 0
M  V30 1781 H 163.492 0.533206 -0.51456 0
M  V30 1782 H 166.139 0.796901 -1.74131 0
M  V30 1783 H 164.444 3.39503 -1.95563 0
M  V30 1784 H 166.141 3.2669 -2.32539 0
M  V30 1785 H 162.731 2.4595 -3.51008 0
M  V30 1786 H 166.915 2.19082 -4.45328 0
M  V30 1787 H 162.171 1.8546 -5.82593 0
M  V30 1788 H 166.345 1.59572 -6.77872 0
M  V30 1789 H 163.972 1.4222 -7.46778 0
M  V30 1790 N 165.547 1.27147 0.931209 0
M  V30 1791 C 166.775 1.16082 1.71267 0
M  V30 1792 C 167.19 -0.282772 1.8667 0
M  V30 1793 O 166.547 -1.19283 1.38122 0
M  V30 1794 C 166.598 1.8358 3.11417 0
M  V30 1795 O 166.319 3.22299 2.96741 0
M  V30 1796 C 167.82 1.78597 4.05732 0
M  V30 1797 H 165.04 0.403758 0.535929 0
M  V30 1798 H 167.584 1.67953 1.16671 0
M  V30 1799 H 165.739 1.35623 3.62885 0
M  V30 1800 H 166.153 3.55851 3.85319 0
M  V30 1801 H 167.627 2.30444 5.01597 0
M  V30 1802 H 168.104 0.754564 4.3267 0
M  V30 1803 H 168.71 2.26152 3.60188 0
M  V30 1804 N 167.025 -1.13721 1.09112 0
M  V30 1805 C 167.955 -2.21148 0.749385 0
M  V30 1806 C 168.936 -1.6792 -0.271475 0
M  V30 1807 O 170.121 -1.93693 -0.140251 0
M  V30 1808 C 167.251 -3.46905 0.165659 0
M  V30 1809 C 166.205 -4.13203 1.11567 0
M  V30 1810 C 165.531 -5.33248 0.393809 0
M  V30 1811 C 166.831 -4.60912 2.45678 0
M  V30 1812 H 168.525 -2.4999 1.64758 0
M  V30 1813 H 166.071 -1.20156 0.793626 0
M  V30 1814 H 168.024 -4.21313 -0.085466 0
M  V30 1815 H 166.748 -3.17449 -0.767714 0
M  V30 1816 H 165.407 -3.40758 1.35202 0
M  V30 1817 H 165.055 -5.00054 -0.543599 0
M  V30 1818 H 164.755 -5.78552 1.02721 0
M  V30 1819 H 166.279 -6.10413 0.150908 0
M  V30 1820 H 167.693 -5.26759 2.26269 0
M  V30 1821 H 166.09 -5.16944 3.04776 0
M  V30 1822 H 167.16 -3.75603 3.06677 0
M  V30 1823 N 168.503 -0.877838 -1.30888 0
M  V30 1824 C 169.752 -0.488793 -1.95688 0
M  V30 1825 C 170.065 0.965485 -1.70111 0
M  V30 1826 O 171.271 1.46104 -2.28836 0
M  V30 1827 C 169.727 -0.823201 -3.50359 0
M  V30 1828 C 169.335 -2.29477 -3.84765 0
M  V30 1829 C 171.079 -0.503009 -4.21509 0
M  V30 1830 C 168.986 -2.57118 -5.32583 0
M  V30 1831 H 167.916 -0.179062 -0.732429 0
M  V30 1832 H 170.567 -1.07183 -1.48943 0
M  V30 1833 H 168.949 -0.169331 -3.95638 0
M  V30 1834 H 170.123 -2.99236 -3.5042 0
M  V30 1835 H 168.438 -2.58178 -3.267 0
M  V30 1836 H 171.035 -0.68665 -5.30273 0
M  V30 1837 H 171.378 0.557109 -4.12555 0
M  V30 1838 H 171.911 -1.11376 -3.8189 0
M  V30 1839 H 168.65 -3.61843 -5.4658 0
M  V30 1840 H 168.17 -1.91961 -5.68253 0
M  V30 1841 H 169.849 -2.42251 -5.99936 0
M  V30 1842 N 169.982 1.44106 -0.638065 0
M  V30 1843 C 171.207 2.0685 -0.150916 0
M  V30 1844 C 171.632 1.47417 1.16833 0
M  V30 1845 O 170.99 0.578264 1.71831 0
M  V30 1846 C 171.038 3.60555 -0.05708 0
M  V30 1847 O 170.142 4.00465 0.984972 0
M  V30 1848 H 169.483 0.658151 -0.0879399 0
M  V30 1849 H 172.013 1.84865 -0.876707 0
M  V30 1850 H 172.023 4.07789 0.131232 0
M  V30 1851 H 170.698 4.03193 -1.02021 0
M  V30 1852 H 169.275 3.64849 0.770672 0
M  V30 1853 N 171.46 0.379036 1.52974 0
M  V30 1854 C 172.408 -0.476033 2.27677 0
M  V30 1855 C 173.402 -1.0719 1.31174 0
M  V30 1856 O 174.608 -1.01355 1.48752 0
M  V30 1857 H 170.983 -0.172255 0.732006 0
M  V30 1858 H 172.954 0.175615 2.97883 0
M  V30 1859 C 171.703 -1.5967 3.0887 0
M  V30 1860 H 171.026 -1.1475 3.82978 0
M  V30 1861 H 172.466 -2.16943 3.64296 0
M  V30 1862 C 170.925 -2.54682 2.20542 0
M  V30 1863 O 171.455 -3.57836 1.82527 0
M  V30 1864 N 169.661 -2.24183 1.84907 0
M  V30 1865 H 169.208 -1.40333 2.1602 0
M  V30 1866 H 169.166 -2.88006 1.26096 0
M  V30 1867 N 172.938 -1.57226 0.108567 0
M  V30 1868 C 174.186 -1.94448 -0.550853 0
M  V30 1869 C 174.507 -0.992074 -1.67878 0
M  V30 1870 O 173.777 -0.0465 -1.95845 0
M  V30 1871 H 172.357 -0.717897 -0.206479 0
M  V30 1872 H 175.019 -1.94112 0.175062 0
M  V30 1873 H 174.115 -2.97218 -0.952259 0
M  V30 1874 N 174.416 0.165178 -1.56732 0
M  V30 1875 C 175.348 1.22911 -1.93457 0
M  V30 1876 C 176.361 1.40152 -0.828333 0
M  V30 1877 O 177.55 1.40046 -1.10677 0
M  V30 1878 C 174.65 2.59686 -2.17753 0
M  V30 1879 C 173.823 2.63663 -3.48999 0
M  V30 1880 C 172.882 3.81845 -3.62051 0
M  V30 1881 O 171.908 3.67559 -4.34613 0
M  V30 1882 N 173.11 4.98557 -2.97357 0
M  V30 1883 H 175.875 0.917118 -2.85323 0
M  V30 1884 H 173.436 0.354895 -1.57962 0
M  V30 1885 H 175.428 3.37225 -2.23743 0
M  V30 1886 H 173.998 2.83251 -1.32242 0
M  V30 1887 H 173.218 1.72173 -3.54612 0
M  V30 1888 H 174.506 2.63336 -4.35352 0
M  V30 1889 H 173.904 5.13065 -2.38287 0
M  V30 1890 H 172.461 5.73936 -3.08934 0
M  V30 1891 N 175.894 1.51508 0.433938 0
M  V30 1892 C 177.119 1.68443 1.21003 0
M  V30 1893 C 177.544 0.382636 1.84167 0
M  V30 1894 O 176.902 -0.65755 1.68956 0
M  V30 1895 C 176.95 2.80405 2.26727 0
M  V30 1896 O 176.054 2.44245 3.32292 0
M  V30 1897 H 175.395 0.561536 0.354363 0
M  V30 1898 H 177.925 1.9809 0.512024 0
M  V30 1899 H 177.935 3.0459 2.71457 0
M  V30 1900 H 176.61 3.74867 1.80132 0
M  V30 1901 H 175.187 2.30644 2.93015 0
M  V30 1902 N 177.372 -0.689602 1.41712 0
M  V30 1903 C 178.305 -1.81403 1.3845 0
M  V30 1904 C 179.283 -1.60653 0.250874 0
M  V30 1905 O 180.467 -1.83323 0.43874 0
M  V30 1906 C 177.594 -3.18176 1.1611 0
M  V30 1907 C 176.64 -3.57705 2.3227 0
M  V30 1908 S 177.473 -3.61827 3.94767 0
M  V30 1909 C 178.629 -5.01318 3.74742 0
M  V30 1910 H 178.862 -1.83893 2.33603 0
M  V30 1911 H 176.395 -0.858878 1.28307 0
M  V30 1912 H 178.353 -3.97132 1.03907 0
M  V30 1913 H 177.014 -3.13288 0.225668 0
M  V30 1914 H 176.207 -4.57082 2.12349 0
M  V30 1915 H 175.809 -2.86073 2.40911 0
M  V30 1916 H 178.101 -5.88986 3.34817 0
M  V30 1917 H 179.044 -5.26283 4.73743 0
M  V30 1918 H 179.452 -4.73138 3.07898 0
M  V30 1919 N 178.85 -1.27639 -0.924453 0
M  V30 1920 C 180.075 -1.17101 -1.71179 0
M  V30 1921 C 180.5 0.268134 -1.86179 0
M  V30 1922 O 179.858 1.19415 -1.36418 0
M  V30 1923 C 179.906 -1.86313 -3.08739 0
M  V30 1924 O 179.01 -1.16331 -3.95652 0
M  V30 1925 H 178.351 -0.407091 -0.524569 0
M  V30 1926 H 180.881 -1.68767 -1.15666 0
M  V30 1927 H 180.891 -1.938 -3.59034 0
M  V30 1928 H 179.566 -2.91001 -2.97138 0
M  V30 1929 H 178.143 -1.16935 -3.54091 0
M  V30 1930 N 180.328 1.1314 -1.09713 0
M  V30 1931 C 181.575 1.84484 -0.834987 0
M  V30 1932 C 181.903 1.83689 0.639418 0
M  V30 1933 O 181.158 1.2724 1.4869 0
M  V30 1934 C 181.457 3.32167 -1.3191 0
M  V30 1935 C 181.123 3.53139 -2.80363 0
M  V30 1936 C 179.785 3.58571 -3.20905 0
M  V30 1937 C 182.137 3.60866 -3.76065 0
M  V30 1938 C 179.465 3.69267 -4.55916 0
M  V30 1939 C 181.817 3.73089 -5.10869 0
M  V30 1940 C 180.481 3.76775 -5.50996 0
M  V30 1941 H 179.751 0.675073 -0.305544 0
M  V30 1942 H 182.398 1.33554 -1.37243 0
M  V30 1943 H 180.703 3.85469 -0.701517 0
M  V30 1944 H 182.4 3.85821 -1.09284 0
M  V30 1945 H 178.99 3.49569 -2.47991 0
M  V30 1946 H 183.174 3.55946 -3.45855 0
M  V30 1947 H 178.43 3.70388 -4.86438 0
M  V30 1948 H 182.604 3.78011 -5.84877 0
M  V30 1949 H 180.231 3.84815 -6.55608 0
M  V30 1950 N 181.806 0.884767 1.30421 0
M  V30 1951 C 183.031 0.517288 2.00845 0
M  V30 1952 C 183.456 -0.886779 1.65885 0
M  V30 1953 O 182.814 -1.58768 0.875354 0
M  V30 1954 C 182.862 0.698994 3.5376 0
M  V30 1955 O 181.966 -0.255208 4.1161 0
M  V30 1956 H 181.307 0.203872 0.631927 0
M  V30 1957 H 183.837 1.19225 1.66272 0
M  V30 1958 H 183.847 0.597912 4.03595 0
M  V30 1959 H 182.522 1.72271 3.78544 0
M  V30 1960 H 181.099 -0.10784 3.72744 0
M  V30 1961 N 183.284 -1.43765 0.645699 0
M  V30 1962 C 184.695 -1.85193 0.236719 0
M  V30 1963 C 185.046 -1.54045 -1.21509 0
M  V30 1964 O 184.171 -0.985694 -1.92647 0
M  V30 1965 C 184.766 -3.36151 0.422845 0
M  V30 1966 C 183.325 -3.76338 0.0682492 0
M  V30 1967 C 182.472 -2.67538 0.729306 0
M  V30 1968 H 185.423 -1.34025 0.849883 0
M  V30 1969 H 185.444 -3.79032 -0.333904 0
M  V30 1970 H 184.956 -3.5879 1.47958 0
M  V30 1971 H 183.057 -3.59312 -0.986179 0
M  V30 1972 H 183.17 -4.76603 0.488469 0
M  V30 1973 H 181.534 -2.54176 0.163235 0
M  V30 1974 H 182.317 -2.93006 1.78892 0
M  V30 1975 N 184.763 -0.387143 -1.52771 0
M  V30 1976 C 186.04 0.253197 -1.93954 0
M  V30 1977 C 186.42 1.64545 -1.32243 0
M  V30 1978 O 185.768 2.23191 -0.489699 0
M  V30 1979 C 185.978 0.281722 -3.47861 0
M  V30 1980 C 187.326 0.511715 -4.21505 0
M  V30 1981 O 188.35 0.362023 -3.54356 0
M  V30 1982 O 187.209 0.804847 -5.40541 0
M  V30 1983 H 184.303 0.156845 -0.811991 0
M  V30 1984 H 186.849 -0.441494 -1.63856 0
M  V30 1985 H 185.621 -0.693571 -3.85104 0
M  V30 1986 H 185.244 1.02142 -3.84256 0
M  V30 1987 N 186.241 1.57166 -0.116904 0
M  V30 1988 C 187.466 1.999 0.55271 0
M  V30 1989 C 187.891 0.996039 1.59564 0
M  V30 1990 O 187.249 -0.032556 1.81271 0
M  V30 1991 C 187.297 3.4152 1.15742 0
M  V30 1992 O 186.401 3.44106 2.27299 0
M  V30 1993 H 185.742 0.649447 0.138258 0
M  V30 1994 H 188.272 2.03573 -0.204759 0
M  V30 1995 H 188.282 3.79684 1.49346 0
M  V30 1996 H 186.957 4.14034 0.393493 0
M  V30 1997 H 185.534 3.17759 1.9515 0
M  V30 1998 N 187.719 -0.156864 1.56817 0
M  V30 1999 C 188.967 -0.869404 1.82444 0
M  V30 2000 C 189.288 -1.82147 0.69623 0
M  V30 2001 O 188.558 -1.93847 -0.28287 0
M  V30 2002 H 187.138 -0.324043 0.673056 0
M  V30 2003 H 189.8 -0.153224 1.94297 0
M  V30 2004 H 188.896 -1.43761 2.77019 0
M  V30 2005 N 189.197 -1.51736 -0.425897 0
M  V30 2006 C 190.608 -1.5732 -1.00536 0
M  V30 2007 C 190.959 -0.403537 -1.92005 0
M  V30 2008 O 190.084 0.478256 -2.11049 0
M  V30 2009 C 190.679 -2.85119 -1.8301 0
M  V30 2010 C 189.238 -2.93236 -2.35987 0
M  V30 2011 C 188.385 -2.52098 -1.15508 0
M  V30 2012 H 191.336 -1.57348 -0.206739 0
M  V30 2013 H 191.357 -2.69526 -2.68581 0
M  V30 2014 H 190.869 -3.7023 -1.16411 0
M  V30 2015 H 188.97 -2.12581 -3.06007 0
M  V30 2016 H 189.083 -3.9713 -2.68001 0
M  V30 2017 H 187.447 -2.05558 -1.50393 0
M  V30 2018 H 188.23 -3.39565 -0.505014 0
M  V30 2019 N 190.675 0.682077 -1.42076 0
M  V30 2020 C 191.921 1.44428 -1.42367 0
M  V30 2021 C 192.254 1.94164 -0.0373056 0
M  V30 2022 O 191.529 1.70429 0.937239 0
M  V30 2023 C 191.812 2.64654 -2.44194 0
M  V30 2024 C 191.665 2.20596 -3.91991 0
M  V30 2025 C 192.984 3.66865 -2.431 0
M  V30 2026 H 190.103 0.523834 -0.518428 0
M  V30 2027 H 192.745 0.77576 -1.73442 0
M  V30 2028 H 190.895 3.2169 -2.17826 0
M  V30 2029 H 192.567 1.68783 -4.29313 0
M  V30 2030 H 190.81 1.52242 -4.06208 0
M  V30 2031 H 191.481 3.06921 -4.58807 0
M  V30 2032 H 193.957 3.19531 -2.66532 0
M  V30 2033 H 192.833 4.48577 -3.16339 0
M  V30 2034 H 193.094 4.17493 -1.45437 0
M  V30 2035 N 192.153 1.28127 0.917671 0
M  V30 2036 C 193.399 1.16232 1.66918 0
M  V30 2037 C 193.754 -0.28701 1.90247 0
M  V30 2038 O 193.047 -1.20586 1.48895 0
M  V30 2039 C 193.241 1.89018 3.03327 0
M  V30 2040 C 193.07 3.4088 2.9331 0
M  V30 2041 C 191.84 4.10214 2.95047 0
M  V30 2042 C 194.038 4.36689 2.71675 0
M  V30 2043 N 192.02 5.48571 2.75577 0
M  V30 2044 C 193.391 5.62382 2.6101 0
M  V30 2045 C 195.446 4.26661 2.56641 0
M  V30 2046 C 194.149 6.79189 2.36843 0
M  V30 2047 C 196.175 5.432 2.33853 0
M  V30 2048 C 195.537 6.67855 2.23939 0
M  V30 2049 H 191.636 0.48024 0.617166 0
M  V30 2050 H 194.22 1.61727 1.08409 0
M  V30 2051 H 192.391 1.45963 3.59929 0
M  V30 2052 H 194.123 1.69541 3.67475 0
M  V30 2053 H 190.878 3.61762 3.05655 0
M  V30 2054 H 191.302 6.21287 2.68945 0
M  V30 2055 H 195.944 3.30998 2.63059 0
M  V30 2056 H 193.662 7.74926 2.29164 0
M  V30 2057 H 197.248 5.37328 2.23091 0
M  V30 2058 H 196.128 7.56511 2.06546 0
M  V30 2059 N 193.631 -1.12557 1.10312 0
M  V30 2060 C 194.594 -2.16434 0.75424 0
M  V30 2061 C 195.594 -1.59278 -0.220685 0
M  V30 2062 O 196.784 -1.742 0.00230591 0
M  V30 2063 C 193.916 -3.40699 0.116987 0
M  V30 2064 H 195.109 -2.48811 1.67431 0
M  V30 2065 H 192.662 -1.27542 0.903475 0
M  V30 2066 H 193.397 -3.13921 -0.813877 0
M  V30 2067 H 193.182 -3.83459 0.818613 0
M  V30 2068 H 194.672 -4.17451 -0.111387 0
M  V30 2069 N 195.109 -0.891671 -1.2995 0
M  V30 2070 C 196.072 -0.36828 -2.26222 0
M  V30 2071 C 197.072 0.493014 -1.53056 0
M  V30 2072 O 198.262 0.299213 -1.71611 0
M  V30 2073 C 195.394 0.47442 -3.37583 0
M  V30 2074 H 196.587 -1.21844 -2.74033 0
M  V30 2075 H 194.14 -0.669107 -1.41254 0
M  V30 2076 H 194.875 1.34489 -2.95099 0
M  V30 2077 H 194.66 -0.142615 -3.91841 0
M  V30 2078 H 196.15 0.83218 -4.09224 0
M  V30 2079 N 196.587 1.43421 -0.653314 0
M  V30 2080 C 198.003 1.56341 -0.320886 0
M  V30 2081 C 198.203 1.63696 1.17499 0
M  V30 2082 O 197.259 1.59208 1.95982 0
M  V30 2083 C 198.572 2.82424 -1.03233 0
M  V30 2084 C 200.12 2.96168 -1.01259 0
M  V30 2085 C 200.595 4.25084 -1.70492 0
M  V30 2086 N 202.086 4.31948 -1.67257 0
M  V30 2087 C 202.821 5.30466 -2.17701 0
M  V30 2088 N 202.317 6.35261 -2.76434 0
M  V30 2089 N 204.11 5.2212 -2.082 0
M  V30 2090 H 196.261 1.3689 -1.62403 0
M  V30 2091 H 198.524 0.657455 -0.682977 0
M  V30 2092 H 198.23 2.83053 -2.08744 0
M  V30 2093 H 198.104 3.72653 -0.583948 0
M  V30 2094 H 200.491 2.9508 0.0341235 0
M  V30 2095 H 200.572 2.07229 -1.49966 0
M  V30 2096 H 200.216 4.26932 -2.7512 0
M  V30 2097 H 200.146 5.1292 -1.19251 0
M  V30 2098 H 202.637 3.56838 -1.24398 0
M  V30 2099 H 202.95 7.06754 -3.12601 0
M  V30 2100 H 201.295 6.35884 -2.80495 0
M  V30 2101 H 204.486 4.39166 -1.62021 0
M  V30 2102 H 204.659 5.98739 -2.47822 0
M  V30 2103 N 198.065 0.39524 1.52563 0
M  V30 2104 C 199.481 0.0454682 1.59535 0
M  V30 2105 C 199.681 -1.44056 1.4089 0
M  V30 2106 O 198.737 -2.20579 1.22888 0
M  V30 2107 C 200.05 0.527963 2.96029 0
M  V30 2108 C 201.598 0.484733 3.09224 0
M  V30 2109 C 202.073 0.943512 4.48176 0
M  V30 2110 N 203.564 0.899765 4.54377 0
M  V30 2111 C 204.299 1.22609 5.60138 0
M  V30 2112 N 203.795 1.62319 6.73516 0
M  V30 2113 N 205.588 1.14696 5.50274 0
M  V30 2114 H 197.739 1.36261 1.62931 0
M  V30 2115 H 200.002 0.558887 0.765735 0
M  V30 2116 H 199.708 1.56607 3.14908 0
M  V30 2117 H 199.582 -0.0698056 3.77135 0
M  V30 2118 H 201.969 -0.544298 2.90037 0
M  V30 2119 H 202.05 1.11838 2.30056 0
M  V30 2120 H 201.694 1.9708 4.68104 0
M  V30 2121 H 201.624 0.286817 5.25818 0
M  V30 2122 H 204.115 0.607632 3.72983 0
M  V30 2123 H 204.428 1.85567 7.5019 0
M  V30 2124 H 202.773 1.66211 6.74833 0
M  V30 2125 H 205.964 0.835701 4.6058 0
M  V30 2126 H 206.137 1.40459 6.32594 0
M  V30 2127 N 199.544 -1.57102 0.125237 0
M  V30 2128 C 200.96 -1.57915 -0.231322 0
M  V30 2129 C 201.16 -1.13833 -1.66266 0
M  V30 2130 O 200.216 -0.828581 -2.38518 0
M  V30 2131 C 201.529 -3.00699 0.00766489 0
M  V30 2132 C 203.077 -3.12947 -0.0577483 0
M  V30 2133 C 203.552 -4.57742 0.153626 0
M  V30 2134 N 205.043 -4.63092 0.0998073 0
M  V30 2135 C 205.778 -5.72905 0.238174 0
M  V30 2136 N 205.274 -6.91445 0.433057 0
M  V30 2137 N 207.067 -5.6182 0.177308 0
M  V30 2138 H 199.218 -1.84055 1.06007 0
M  V30 2139 H 201.481 -0.850905 0.417929 0
M  V30 2140 H 201.187 -3.3726 0.997431 0
M  V30 2141 H 201.061 -3.70236 -0.721452 0
M  V30 2142 H 203.448 -2.7624 -1.03804 0
M  V30 2143 H 203.529 -2.4594 0.70335 0
M  V30 2144 H 203.173 -4.95149 1.13092 0
M  V30 2145 H 203.103 -5.22848 -0.627534 0
M  V30 2146 H 205.594 -3.77871 -0.047051 0
M  V30 2147 H 205.907 -7.70985 0.529332 0
M  V30 2148 H 204.252 -6.93415 0.469109 0
M  V30 2149 H 207.443 -4.68093 0.0259748 0
M  V30 2150 H 207.616 -6.47357 0.288582 0
M  V30 2151 N 201.022 0.148545 -1.56898 0
M  V30 2152 C 201.952 1.18524 -2.01182 0
M  V30 2153 C 202.933 1.4489 -0.891123 0
M  V30 2154 O 204.118 1.55836 -1.15882 0
M  V30 2155 C 201.248 2.51879 -2.39112 0
M  V30 2156 C 200.202 2.40038 -3.54353 0
M  V30 2157 C 199.528 3.78089 -3.78091 0
M  V30 2158 C 200.828 1.88577 -4.87069 0
M  V30 2159 H 202.522 0.817029 -2.88036 0
M  V30 2160 H 200.068 0.391575 -1.38574 0
M  V30 2161 H 202.021 3.24627 -2.68692 0
M  V30 2162 H 200.745 2.90532 -1.49193 0
M  V30 2163 H 199.404 1.69742 -3.24936 0
M  V30 2164 H 199.052 4.14175 -2.85426 0
M  V30 2165 H 198.752 3.71028 -4.55645 0
M  V30 2166 H 200.276 4.52387 -4.10095 0
M  V30 2167 H 201.69 2.51117 -5.15377 0
M  V30 2168 H 200.087 1.9241 -5.68417 0
M  V30 2169 H 201.157 0.84136 -4.77545 0
M  V30 2170 N 202.5 1.5196 0.417844 0
M  V30 2171 C 203.463 1.74065 1.49111 0
M  V30 2172 C 204.463 0.610537 1.48758 0
M  V30 2173 O 205.653 0.87832 1.50437 0
M  V30 2174 C 202.785 1.81502 2.88565 0
M  V30 2175 H 203.978 2.69869 1.30807 0
M  V30 2176 H 201.531 1.42244 0.647785 0
M  V30 2177 H 202.266 0.875813 3.1225 0
M  V30 2178 H 202.051 2.63651 2.90225 0
M  V30 2179 H 203.541 2.00376 3.66387 0
M  V30 2180 N 203.978 -0.674533 1.42435 0
M  V30 2181 C 204.91 -1.80005 1.41883 0
M  V30 2182 C 205.923 -1.59667 0.31787 0
M  V30 2183 O 207.112 -1.68781 0.580973 0
M  V30 2184 C 204.212 -3.17114 1.19549 0
M  V30 2185 C 203.385 -3.64299 2.42084 0
M  V30 2186 C 202.444 -4.80142 2.15291 0
M  V30 2187 O 201.47 -4.90673 2.88493 0
M  V30 2188 N 202.672 -5.68869 1.1562 0
M  V30 2189 H 205.437 -1.80964 2.38898 0
M  V30 2190 H 202.998 -0.857633 1.37318 0
M  V30 2191 H 204.99 -3.92267 0.995417 0
M  V30 2192 H 203.56 -3.11053 0.310569 0
M  V30 2193 H 202.78 -2.79822 2.77657 0
M  V30 2194 H 204.068 -3.92567 3.23679 0
M  V30 2195 H 203.466 -5.63012 0.550765 0
M  V30 2196 H 202.023 -6.43833 1.016 0
M  V30 2197 N 205.456 -1.28612 -0.910864 0
M  V30 2198 C 206.404 -1.1265 -2.03501 0
M  V30 2199 C 207.398 -0.0450054 -1.6934 0
M  V30 2200 O 208.604 -0.203988 -1.7884 0
M  V30 2201 H 204.979 -0.347639 -0.666822 0
M  V30 2202 H 206.95 -2.07849 -2.14106 0
M  V30 2203 C 205.699 -0.808143 -3.38178 0
M  V30 2204 H 205.022 -1.63231 -3.6496 0
M  V30 2205 H 206.462 -0.736426 -4.17556 0
M  V30 2206 C 204.921 0.488226 -3.33344 0
M  V30 2207 O 205.451 1.51766 -3.71927 0
M  V30 2208 N 203.657 0.490009 -2.86439 0
M  V30 2209 H 203.204 -0.348161 -2.55236 0
M  V30 2210 H 203.162 1.35741 -2.83587 0
M  V30 2211 N 206.934 1.1197 -1.10907 0
M  V30 2212 C 208.182 1.83225 -0.852819 0
M  V30 2213 C 208.503 1.84769 0.623341 0
M  V30 2214 O 207.773 1.3143 1.45269 0
M  V30 2215 H 206.353 0.67849 -0.312507 0
M  V30 2216 H 209.015 1.3556 -1.40033 0
M  V30 2217 H 208.111 2.87265 -1.22005 0
M  V30 2218 N 208.412 0.89855 1.29475 0
M  V30 2219 C 209.342 0.39201 2.30186 0
M  V30 2220 C 210.323 -0.532359 1.61555 0
M  V30 2221 O 211.508 -0.443331 1.89072 0
M  V30 2222 C 208.638 -0.382353 3.45189 0
M  V30 2223 C 207.592 0.451483 4.25612 0
M  V30 2224 C 206.918 -0.450307 5.328 0
M  V30 2225 C 208.218 1.70079 4.93832 0
M  V30 2226 H 209.912 1.23362 2.72804 0
M  V30 2227 H 207.458 0.594638 1.31149 0
M  V30 2228 H 209.411 -0.747451 4.14718 0
M  V30 2229 H 208.135 -1.25774 3.01411 0
M  V30 2230 H 206.794 0.798897 3.57789 0
M  V30 2231 H 206.442 -1.32379 4.85268 0
M  V30 2232 H 206.142 0.103902 5.87508 0
M  V30 2233 H 207.666 -0.811623 6.05182 0
M  V30 2234 H 209.08 1.40549 5.55805 0
M  V30 2235 H 207.477 2.19623 5.58467 0
M  V30 2236 H 208.547 2.43744 4.19186 0
M  V30 2237 N 209.89 -1.43072 0.660911 0
M  V30 2238 C 210.837 -2.30785 -0.0259884 0
M  V30 2239 C 211.807 -1.45184 -0.806888 0
M  V30 2240 O 212.992 -1.74041 -0.781943 0
M  V30 2241 C 210.132 -3.30861 -0.981067 0
M  V30 2242 C 209.245 -4.31558 -0.195458 0
M  V30 2243 C 208.38 -5.18712 -1.14503 0
M  V30 2244 C 207.419 -6.11097 -0.350299 0
M  V30 2245 N 206.556 -6.90849 -1.25186 0
M  V30 2246 H 211.396 -2.88975 0.727846 0
M  V30 2247 H 208.933 -1.42353 0.370682 0
M  V30 2248 H 210.891 -3.87399 -1.54849 0
M  V30 2249 H 209.521 -2.74304 -1.70169 0
M  V30 2250 H 208.573 -3.77252 0.488374 0
M  V30 2251 H 209.885 -4.9701 0.422176 0
M  V30 2252 H 209.039 -5.79914 -1.78284 0
M  V30 2253 H 207.778 -4.53404 -1.79656 0
M  V30 2254 H 206.783 -5.48976 0.300808 0
M  V30 2255 H 208.008 -6.7845 0.296941 0
M  V30 2256 H 205.954 -6.28182 -1.89005 0
M  V30 2257 H 205.871 -7.52854 -0.688971 0
M  V30 2258 H 207.139 -7.5655 -1.87757 0
M  V30 2259 N 211.368 -0.403325 -1.52352 0
M  V30 2260 C 212.593 0.176499 -2.06648 0
M  V30 2261 C 213.018 1.38577 -1.27193 0
M  V30 2262 O 212.376 1.7879 -0.300637 0
M  V30 2263 C 212.424 0.511061 -3.5696 0
M  V30 2264 O 211.528 1.60294 -3.79973 0
M  V30 2265 H 210.869 0.0167337 -0.663789 0
M  V30 2266 H 213.399 -0.574848 -1.96359 0
M  V30 2267 H 213.409 0.771362 -4.00642 0
M  V30 2268 H 212.084 -0.37296 -4.14224 0
M  V30 2269 H 210.661 1.33526 -3.48174 0
M  V30 2270 N 212.846 1.57033 -0.133567 0
M  V30 2271 C 214.093 1.95686 0.520877 0
M  V30 2272 C 214.421 1.0177 1.6575 0
M  V30 2273 O 213.676 0.0443195 1.9565 0
M  V30 2274 C 213.975 3.40674 1.08057 0
M  V30 2275 C 213.641 4.50855 0.0637899 0
M  V30 2276 C 212.303 4.80716 -0.215757 0
M  V30 2277 C 214.655 5.17398 -0.62835 0
M  V30 2278 C 211.983 5.74433 -1.19348 0
M  V30 2279 C 214.335 6.12167 -1.5948 0
M  V30 2280 C 212.999 6.40414 -1.88218 0
M  V30 2281 H 212.269 0.716067 0.190602 0
M  V30 2282 H 214.916 1.9026 -0.217556 0
M  V30 2283 H 213.221 3.42865 1.89606 0
M  V30 2284 H 214.918 3.67902 1.59529 0
M  V30 2285 H 211.508 4.27605 0.291855 0
M  V30 2286 H 215.692 4.94472 -0.425562 0
M  V30 2287 H 210.948 5.94616 -1.42272 0
M  V30 2288 H 215.122 6.6281 -2.13671 0
M  V30 2289 H 212.749 7.12838 -2.64133 0
M  V30 2290 N 214.325 -0.140222 1.56975 0
M  V30 2291 C 215.55 -0.870414 1.88251 0
M  V30 2292 C 215.975 -1.73637 0.723312 0
M  V30 2293 O 215.333 -1.78329 -0.32689 0
M  V30 2294 C 215.381 -1.69737 3.18154 0
M  V30 2295 O 214.485 -2.80229 3.02565 0
M  V30 2296 H 213.826 -0.242025 0.61832 0
M  V30 2297 H 216.356 -0.128999 2.04193 0
M  V30 2298 H 216.366 -2.09099 3.50345 0
M  V30 2299 H 215.041 -1.06152 4.02125 0
M  V30 2300 H 213.618 -2.44224 2.81796 0
M  V30 2301 N 215.803 -1.52179 -0.40978 0
M  V30 2302 C 217.052 -1.65434 -1.15388 0
M  V30 2303 C 217.365 -0.390056 -1.91671 0
M  V30 2304 O 218.571 -0.402399 -2.68501 0
M  V30 2305 C 217.027 -2.92279 -2.10003 0
M  V30 2306 C 216.635 -4.25813 -1.39239 0
M  V30 2307 C 218.379 -3.14897 -2.84675 0
M  V30 2308 C 216.286 -5.43782 -2.32498 0
M  V30 2309 H 215.216 -0.616267 -0.434432 0
M  V30 2310 H 217.867 -1.78666 -0.418401 0
M  V30 2311 H 216.249 -2.72744 -2.871 0
M  V30 2312 H 217.423 -4.55828 -0.675099 0
M  V30 2313 H 215.738 -4.09292 -0.766097 0
M  V30 2314 H 218.335 -4.0021 -3.54593 0
M  V30 2315 H 218.678 -2.29103 -3.47588 0
M  V30 2316 H 219.211 -3.34901 -2.14677 0
M  V30 2317 H 215.95 -6.3192 -1.74233 0
M  V30 2318 H 215.47 -5.18106 -3.02201 0
M  V30 2319 H 217.149 -5.76834 -2.93038 0
M  V30 2320 N 217.281 0.66697 -1.42791 0
M  V30 2321 C 218.244 1.76211 -1.46568 0
M  V30 2322 C 219.244 1.56896 -0.352196 0
M  V30 2323 O 220.434 1.63044 -0.613364 0
M  V30 2324 C 217.566 3.14935 -1.30494 0
M  V30 2325 H 218.759 1.74247 -2.44086 0
M  V30 2326 H 216.312 0.877342 -1.29354 0
M  V30 2327 H 217.047 3.2252 -0.339301 0
M  V30 2328 H 216.832 3.30359 -2.11199 0
M  V30 2329 H 218.322 3.94821 -1.36038 0
M  V30 2330 N 218.759 1.29093 0.90403 0
M  V30 2331 C 219.984 1.19809 1.69294 0
M  V30 2332 C 220.409 -0.238481 1.86582 0
M  V30 2333 O 219.767 -1.1723 1.383 0
M  V30 2334 C 219.815 1.91202 3.05736 0
M  V30 2335 O 218.919 1.22611 3.93752 0
M  V30 2336 H 218.26 0.415385 0.518027 0
M  V30 2337 H 220.79 1.70586 1.12967 0
M  V30 2338 H 220.8 1.99487 3.55906 0
M  V30 2339 H 219.475 2.95692 2.92471 0
M  V30 2340 H 218.052 1.22554 3.52186 0
M  V30 2341 N 220.237 -1.11381 1.11499 0
M  V30 2342 C 221.514 -1.7955 0.775965 0
M  V30 2343 C 221.894 -1.97859 -0.73588 0
M  V30 2344 O 221.242 -1.56376 -1.66609 0
M  V30 2345 C 221.452 -3.13196 1.53977 0
M  V30 2346 C 222.8 -3.88227 1.71944 0
M  V30 2347 O 223.824 -3.22887 1.50407 0
M  V30 2348 O 222.683 -5.05477 2.07738 0
M  V30 2349 H 219.777 -0.777728 0.28119 0
M  V30 2350 H 222.323 -1.18118 1.21845 0
M  V30 2351 H 221.095 -2.95229 2.56818 0
M  V30 2352 H 220.718 -3.82342 1.09088 0
M  V30 2353 N 221.715 -0.905404 -1.28997 0
M  V30 2354 C 223.126 -0.581953 -1.77398 0
M  V30 2355 C 223.477 0.902552 -1.74208 0
M  V30 2356 O 222.602 1.70584 -1.33154 0
M  V30 2357 C 223.197 -1.04961 -3.22131 0
M  V30 2358 C 221.756 -0.777229 -3.68288 0
M  V30 2359 C 220.903 -1.22109 -2.48967 0
M  V30 2360 H 223.854 -1.08754 -1.15578 0
M  V30 2361 H 223.875 -0.387387 -3.78523 0
M  V30 2362 H 223.387 -2.13008 -3.24421 0
M  V30 2363 H 221.488 0.290383 -3.71467 0
M  V30 2364 H 221.601 -1.37911 -4.58822 0
M  V30 2365 H 219.965 -0.639971 -2.46529 0
M  V30 2366 H 220.748 -2.30972 -2.53982 0
M  V30 2367 N 223.193 1.4272 -0.668489 0
M  V30 2368 C 224.156 2.292 0.00448567 0
M  V30 2369 C 225.156 1.43001 0.735339 0
M  V30 2370 O 226.346 1.64461 0.57429 0
M  V30 2371 C 223.478 3.25375 1.01705 0
M  V30 2372 H 224.671 2.90199 -0.756608 0
M  V30 2373 H 222.224 1.50254 -0.430506 0
M  V30 2374 H 222.959 2.69301 1.80686 0
M  V30 2375 H 222.744 3.88944 0.496463 0
M  V30 2376 H 224.234 3.90245 1.48655 0
M  V30 2377 N 224.671 0.411399 1.52136 0
M  V30 2378 C 225.896 -0.165538 2.06738 0
M  V30 2379 C 226.321 -1.379 1.27926 0
M  V30 2380 O 225.679 -1.78628 0.310114 0
M  V30 2381 C 225.727 -0.492124 3.57226 0
M  V30 2382 O 224.831 -1.58276 3.80818 0
M  V30 2383 H 224.172 -0.0132132 0.663869 0
M  V30 2384 H 226.702 0.585253 1.96051 0
M  V30 2385 H 226.712 -0.750104 4.01045 0
M  V30 2386 H 225.387 0.394922 4.14021 0
M  V30 2387 H 223.964 -1.31677 3.48877 0
M  V30 2388 N 226.149 -1.5696 0.141893 0
M  V30 2389 C 227.374 -2.00754 -0.520838 0
M  V30 2390 C 227.799 -1.0213 -1.57959 0
M  V30 2391 O 227.157 0.00371324 -1.813 0
M  V30 2392 C 227.205 -3.43318 -1.10294 0
M  V30 2393 O 226.309 -3.47679 -2.21795 0
M  V30 2394 H 225.65 -0.651564 -0.127908 0
M  V30 2395 H 228.18 -2.03221 0.23712 0
M  V30 2396 H 228.19 -3.82012 -1.43287 0
M  V30 2397 H 226.865 -4.14608 -0.327574 0
M  V30 2398 H 225.442 -3.20824 -1.9007 0
M  V30 2399 N 227.627 0.131896 -1.57047 0
M  V30 2400 C 228.855 0.856461 -1.88341 0
M  V30 2401 C 229.27 1.74042 -0.731757 0
M  V30 2402 O 228.627 1.80051 0.297945 0
M  V30 2403 C 228.678 1.70064 -3.18999 0
M  V30 2404 O 228.399 0.852278 -4.2973 0
M  V30 2405 C 229.9 2.53148 -3.63911 0
M  V30 2406 H 227.12 0.246885 -0.62393 0
M  V30 2407 H 229.664 0.120152 -2.04147 0
M  V30 2408 H 227.819 2.38984 -3.04902 0
M  V30 2409 H 228.233 1.43329 -5.04537 0
M  V30 2410 H 229.707 3.07931 -4.58129 0
M  V30 2411 H 230.184 3.29901 -2.89935 0
M  V30 2412 H 230.79 1.89492 -3.80753 0
M  V30 2413 N 229.106 1.52395 0.401703 0
M  V30 2414 C 230.331 1.70972 1.17403 0
M  V30 2415 C 230.756 0.421615 1.83314 0
M  V30 2416 O 230.114 -0.621564 1.70312 0
M  V30 2417 C 230.162 2.85151 2.20728 0
M  V30 2418 O 229.266 2.51238 3.27037 0
M  V30 2419 H 228.607 0.568927 0.342372 0
M  V30 2420 H 231.137 1.99131 0.469891 0
M  V30 2421 H 231.147 3.10279 2.64936 0
M  V30 2422 H 229.822 3.78603 1.7214 0
M  V30 2423 H 228.399 2.36808 2.88057 0
M  V30 2424 N 230.584 -0.659388 1.43143 0
M  V30 2425 C 231.824 -1.43121 1.45931 0
M  V30 2426 C 232.188 -1.91838 0.0789298 0
M  V30 2427 O 233.389 -2.68794 -0.018491 0
M  V30 2428 C 231.66 -2.58534 2.46769 0
M  V30 2429 S 233.219 -3.47154 2.68384 0
M  V30 2430 H 230.037 -0.488624 0.516496 0
M  V30 2431 H 232.639 -0.766128 1.79863 0
M  V30 2432 H 231.343 -2.21007 3.45809 0
M  V30 2433 H 230.874 -3.29898 2.14315 0
M  V30 2434 H 232.889 -4.55051 1.97845 0
M  V30 2435 N 232.062 -1.29571 -0.897171 0
M  V30 2436 C 233.292 -1.20408 -1.67886 0
M  V30 2437 C 233.7 0.237429 -1.87704 0
M  V30 2438 O 233.043 1.17048 -1.41582 0
M  V30 2439 C 233.105 -1.84887 -3.08314 0
M  V30 2440 C 232.769 -3.34189 -3.11716 0
M  V30 2441 C 233.766 -4.30374 -2.91675 0
M  V30 2442 C 231.451 -3.75431 -3.33701 0
M  V30 2443 C 233.445 -5.65776 -2.93557 0
M  V30 2444 C 231.132 -5.10955 -3.35214 0
M  V30 2445 C 232.13 -6.05938 -3.15164 0
M  V30 2446 O 231.818 -7.38987 -3.1647 0
M  V30 2447 H 231.55 -0.418289 -0.531046 0
M  V30 2448 H 234.104 -1.71514 -1.13014 0
M  V30 2449 H 232.334 -1.28295 -3.64798 0
M  V30 2450 H 234.023 -1.70011 -3.6858 0
M  V30 2451 H 234.789 -3.99844 -2.74499 0
M  V30 2452 H 230.668 -3.01953 -3.48347 0
M  V30 2453 H 234.212 -6.39889 -2.77826 0
M  V30 2454 H 230.109 -5.4113 -3.51922 0
M  V30 2455 H 230.877 -7.47823 -3.3272 0
M  V30 2456 N 233.54 1.10788 -1.12088 0
M  V30 2457 C 234.47 2.19083 -0.807755 0
M  V30 2458 C 235.451 1.6858 0.226859 0
M  V30 2459 O 236.636 1.93997 0.0888475 0
M  V30 2460 C 233.766 3.46344 -0.257576 0
M  V30 2461 C 232.72 4.101 -1.22483 0
M  V30 2462 C 232.046 5.32016 -0.535052 0
M  V30 2463 C 233.346 4.54236 -2.57811 0
M  V30 2464 H 235.04 2.45534 -1.71328 0
M  V30 2465 H 232.586 1.1801 -0.825205 0
M  V30 2466 H 234.539 4.21392 -0.0262679 0
M  V30 2467 H 233.263 3.19373 0.683278 0
M  V30 2468 H 231.922 3.37054 -1.44189 0
M  V30 2469 H 231.57 5.01319 0.410827 0
M  V30 2470 H 231.27 5.75625 -1.18024 0
M  V30 2471 H 232.794 6.09799 -0.312695 0
M  V30 2472 H 234.208 5.20575 -2.40155 0
M  V30 2473 H 232.605 5.08682 -3.18375 0
M  V30 2474 H 233.675 3.6734 -3.16528 0
M  V30 2475 N 235.018 0.912232 1.28515 0
M  V30 2476 C 235.928 0.404506 2.31086 0
M  V30 2477 C 236.944 -0.50707 1.66448 0
M  V30 2478 O 238.12 -0.393624 1.97516 0
M  V30 2479 C 235.185 -0.348572 3.44943 0
M  V30 2480 C 234.246 0.59604 4.25142 0
M  V30 2481 C 233.479 -0.121194 5.33562 0
M  V30 2482 O 233.702 -1.34317 5.5436 0
M  V30 2483 O 232.636 0.542716 5.99448 0
M  V30 2484 H 236.462 1.25579 2.76521 0
M  V30 2485 H 234.047 0.676998 1.33181 0
M  V30 2486 H 235.929 -0.77395 4.14232 0
M  V30 2487 H 234.604 -1.17571 3.01594 0
M  V30 2488 H 233.511 1.07079 3.58448 0
M  V30 2489 H 234.844 1.38995 4.72167 0
M  V30 2490 N 236.496 -1.42363 0.676048 0
M  V30 2491 C 237.406 -2.346 -0.00153389 0
M  V30 2492 C 238.422 -1.5516 -0.787485 0
M  V30 2493 O 239.598 -1.87723 -0.729521 0
M  V30 2494 C 236.663 -3.33705 -0.940298 0
M  V30 2495 C 235.724 -4.29042 -0.148739 0
M  V30 2496 C 234.957 -5.23413 -1.04279 0
M  V30 2497 O 235.18 -5.22749 -2.28232 0
M  V30 2498 O 234.114 -5.99795 -0.502925 0
M  V30 2499 H 237.94 -2.94082 0.758268 0
M  V30 2500 H 235.525 -1.42888 0.436289 0
M  V30 2501 H 237.407 -3.94586 -1.47917 0
M  V30 2502 H 236.082 -2.76695 -1.67993 0
M  V30 2503 H 234.989 -3.71571 0.43427 0
M  V30 2504 H 236.322 -4.89097 0.551805 0
M  V30 2505 N 237.974 -0.419461 -1.51915 0
M  V30 2506 C 238.924 0.418496 -2.24126 0
M  V30 2507 C 239.908 1.00495 -1.25656 0
M  V30 2508 O 241.1 0.926058 -1.50842 0
M  V30 2509 C 238.229 1.52899 -3.07371 0
M  V30 2510 C 237.315 0.952797 -4.13258 0
M  V30 2511 N 237.706 0.104175 -5.05693 0
M  V30 2512 C 236.004 1.22224 -4.28926 0
M  V30 2513 C 236.705 -0.21752 -5.81293 0
M  V30 2514 N 235.681 0.394293 -5.42168 0
M  V30 2515 H 239.483 -0.236048 -2.92951 0
M  V30 2516 H 236.997 -0.230481 -1.60756 0
M  V30 2517 H 238.994 2.14199 -3.57665 0
M  V30 2518 H 237.654 2.18605 -2.40088 0
M  V30 2519 H 238.665 -0.260924 -5.17242 0
M  V30 2520 H 235.342 1.87812 -3.72871 0
M  V30 2521 H 236.732 -0.906992 -6.6575 0
M  V30 2522 N 239.452 1.56882 -0.150215 0
M  V30 2523 C 240.698 1.96518 0.500834 0
M  V30 2524 C 241.031 1.03527 1.64304 0
M  V30 2525 O 240.306 0.0782751 1.94342 0
M  V30 2526 C 240.589 3.45822 1.00395 0
M  V30 2527 C 240.442 4.49591 -0.136983 0
M  V30 2528 C 241.761 3.97704 1.88467 0
M  V30 2529 H 238.88 0.714535 0.18058 0
M  V30 2530 H 241.522 1.88577 -0.232091 0
M  V30 2531 H 239.672 3.5272 1.62851 0
M  V30 2532 H 241.344 4.5477 -0.77343 0
M  V30 2533 H 239.587 4.26441 -0.795652 0
M  V30 2534 H 240.258 5.51402 0.256815 0
M  V30 2535 H 242.734 3.93304 1.35834 0
M  V30 2536 H 241.61 5.0263 2.20578 0
M  V30 2537 H 241.871 3.40252 2.82279 0
M  V30 2538 N 240.93 -0.123565 1.57115 0
M  V30 2539 C 242.155 -0.850398 1.89164 0
M  V30 2540 C 242.58 -1.7286 0.741688 0
M  V30 2541 O 241.938 -1.78665 -0.307958 0
M  V30 2542 C 241.986 -1.66353 3.19936 0
M  V30 2543 O 241.09 -2.77004 3.0552 0
M  V30 2544 H 240.431 -0.235454 0.620852 0
M  V30 2545 H 242.961 -0.107335 2.04318 0
M  V30 2546 H 242.971 -2.05372 3.52543 0
M  V30 2547 H 241.646 -1.01881 4.03228 0
M  V30 2548 H 240.223 -2.41221 2.84371 0
M  V30 2549 N 242.408 -1.52605 -0.393616 0
M  V30 2550 C 243.355 -1.77055 -1.48054 0
M  V30 2551 C 244.325 -0.61358 -1.54352 0
M  V30 2552 O 245.51 -0.852806 -1.70681 0
M  V30 2553 C 242.65 -1.94108 -2.85335 0
M  V30 2554 C 241.763 -3.21792 -2.88226 0
M  V30 2555 C 240.898 -3.29188 -4.16904 0
M  V30 2556 C 239.937 -4.51013 -4.13828 0
M  V30 2557 N 239.074 -4.55716 -5.34105 0
M  V30 2558 H 243.914 -2.69815 -1.26506 0
M  V30 2559 H 241.451 -1.33683 -0.61379 0
M  V30 2560 H 243.409 -2.01979 -3.65049 0
M  V30 2561 H 242.039 -1.04713 -3.05344 0
M  V30 2562 H 241.091 -3.23015 -2.00911 0
M  V30 2563 H 242.403 -4.11557 -2.8182 0
M  V30 2564 H 241.557 -3.36216 -5.05018 0
M  V30 2565 H 240.296 -2.37389 -4.26026 0
M  V30 2566 H 239.301 -4.44115 -3.24102 0
M  V30 2567 H 240.526 -5.44123 -4.06333 0
M  V30 2568 H 238.472 -3.66807 -5.43865 0
M  V30 2569 H 238.389 -5.39346 -5.29756 0
M  V30 2570 H 239.657 -4.66993 -6.2413 0
M  V30 2571 N 243.887 0.651787 -1.4349 0
M  V30 2572 C 244.797 1.79368 -1.5121 0
M  V30 2573 C 245.813 1.69361 -0.399093 0
M  V30 2574 O 246.989 1.90505 -0.653431 0
M  V30 2575 C 244.054 3.15653 -1.43401 0
M  V30 2576 C 243.115 3.37446 -2.65384 0
M  V30 2577 C 242.348 4.67229 -2.57939 0
M  V30 2578 O 242.571 5.46676 -1.62792 0
M  V30 2579 O 241.505 4.90773 -3.48462 0
M  V30 2580 H 245.331 1.7581 -2.47638 0
M  V30 2581 H 242.916 0.810447 -1.25507 0
M  V30 2582 H 244.798 3.96935 -1.41494 0
M  V30 2583 H 243.473 3.19798 -0.501085 0
M  V30 2584 H 242.38 2.55923 -2.72863 0
M  V30 2585 H 243.713 3.38148 -3.57654 0
M  V30 2586 N 245.365 1.30045 0.890287 0
M  V30 2587 C 246.328 1.15963 1.977 0
M  V30 2588 C 247.328 0.0923777 1.60534 0
M  V30 2589 O 248.518 0.340071 1.70848 0
M  V30 2590 C 245.65 0.775451 3.31963 0
M  V30 2591 H 246.843 2.12502 2.11619 0
M  V30 2592 H 244.396 1.13366 1.07601 0
M  V30 2593 H 245.131 -0.189671 3.23745 0
M  V30 2594 H 244.916 1.54668 3.60306 0
M  V30 2595 H 246.406 0.700251 4.11687 0
M  V30 2596 N 246.843 -1.10192 1.12674 0
M  V30 2597 C 247.753 -2.20172 0.810026 0
M  V30 2598 C 248.769 -1.72821 -0.202188 0
M  V30 2599 O 249.945 -2.01369 -0.0351691 0
M  V30 2600 C 247.01 -3.45631 0.272007 0
M  V30 2601 C 246.071 -4.07704 1.34447 0
M  V30 2602 C 245.304 -5.27175 0.832029 0
M  V30 2603 O 245.527 -5.69425 -0.333284 0
M  V30 2604 O 244.461 -5.80168 1.60277 0
M  V30 2605 H 248.287 -2.49701 1.72867 0
M  V30 2606 H 245.872 -1.18977 0.903597 0
M  V30 2607 H 247.754 -4.21394 -0.0230219 0
M  V30 2608 H 246.429 -3.17723 -0.619164 0
M  V30 2609 H 245.336 -3.33614 1.6927 0
M  V30 2610 H 246.669 -4.3982 2.2095 0
M  V30 2611 N 248.321 -0.919034 -1.28029 0
M  V30 2612 C 249.567 -0.555757 -1.95036 0
M  V30 2613 C 249.9 0.899198 -1.72128 0
M  V30 2614 O 249.175 1.64023 -1.04531 0
M  V30 2615 C 249.458 -0.872024 -3.49382 0
M  V30 2616 C 249.311 -2.3801 -3.81669 0
M  V30 2617 C 250.63 -0.37185 -4.38526 0
M  V30 2618 H 247.749 -0.203386 -0.708381 0
M  V30 2619 H 250.391 -1.14924 -1.51303 0
M  V30 2620 H 248.541 -0.366946 -3.86763 0
M  V30 2621 H 250.213 -2.9562 -3.54128 0
M  V30 2622 H 248.456 -2.83289 -3.28526 0
M  V30 2623 H 249.127 -2.55192 -4.8947 0
M  V30 2624 H 251.603 -0.804602 -4.08247 0
M  V30 2625 H 250.479 -0.622173 -5.45362 0
M  V30 2626 H 250.74 0.727934 -4.36066 0
M  V30 2627 N 249.799 1.42003 -0.683588 0
M  V30 2628 C 250.729 2.33487 -0.024866 0
M  V30 2629 C 251.71 1.51163 0.779975 0
M  V30 2630 O 252.895 1.79739 0.735362 0
M  V30 2631 C 250.025 3.3487 0.920836 0
M  V30 2632 C 248.979 4.27414 0.223958 0
M  V30 2633 C 248.305 5.19074 1.2832 0
M  V30 2634 C 249.605 5.14445 -0.90242 0
M  V30 2635 H 251.299 2.88819 -0.788921 0
M  V30 2636 H 248.845 1.38873 -0.38083 0
M  V30 2637 H 250.798 3.97787 1.39081 0
M  V30 2638 H 249.522 2.77861 1.71642 0
M  V30 2639 H 248.181 3.65904 -0.225864 0
M  V30 2640 H 247.829 4.58387 2.071 0
M  V30 2641 H 247.529 5.81822 0.821995 0
M  V30 2642 H 249.053 5.84867 1.75392 0
M  V30 2643 H 250.467 5.70998 -0.513272 0
M  V30 2644 H 248.864 5.86072 -1.28997 0
M  V30 2645 H 249.934 4.52322 -1.74737 0
M  V30 2646 N 251.277 0.427512 1.51691 0
M  V30 2647 C 252.526 -0.143679 2.01188 0
M  V30 2648 C 252.839 -1.44642 1.31674 0
M  V30 2649 O 254.045 -2.09997 1.72086 0
M  V30 2650 C 252.501 -0.306602 3.58592 0
M  V30 2651 C 252.109 0.985125 4.37035 0
M  V30 2652 C 253.853 -0.832091 4.16265 0
M  V30 2653 C 251.76 0.788382 5.86122 0
M  V30 2654 H 250.69 -0.0574701 0.751807 0
M  V30 2655 H 253.341 0.555772 1.74881 0
M  V30 2656 H 251.723 -1.06882 3.81303 0
M  V30 2657 H 252.897 1.75492 4.26074 0
M  V30 2658 H 251.212 1.4384 3.90767 0
M  V30 2659 H 253.809 -0.995617 5.25349 0
M  V30 2660 H 254.152 -1.81186 3.74803 0
M  V30 2661 H 254.685 -0.128444 3.97593 0
M  V30 2662 H 251.424 1.74025 6.31978 0
M  V30 2663 H 250.944 0.0582143 5.99772 0
M  V30 2664 H 252.623 0.437722 6.45518 0
M  V30 2665 N 252.755 -1.56801 0.158532 0
M  V30 2666 C 253.98 -2.01295 -0.499516 0
M  V30 2667 C 254.405 -1.03799 -1.56867 0
M  V30 2668 O 253.763 -0.0155162 -1.81293 0
M  V30 2669 C 253.811 -3.44469 -1.06647 0
M  V30 2670 O 252.915 -3.50012 -2.18095 0
M  V30 2671 H 252.256 -0.652884 -0.12099 0
M  V30 2672 H 254.786 -2.02958 0.258661 0
M  V30 2673 H 254.796 -3.8351 -1.39227 0
M  V30 2674 H 253.471 -4.14932 -0.283581 0
M  V30 2675 H 252.048 -3.22822 -1.86656 0
M  V30 2676 N 254.233 0.115231 -1.57178 0
M  V30 2677 C 255.461 0.836437 -1.89239 0
M  V30 2678 C 255.876 1.73256 -0.750175 0
M  V30 2679 O 255.233 1.80357 0.278832 0
M  V30 2680 C 255.284 1.66671 -3.20785 0
M  V30 2681 O 255.005 0.806652 -4.3061 0
M  V30 2682 C 256.506 2.49274 -3.66575 0
M  V30 2683 H 253.726 0.240253 -0.626514 0
M  V30 2684 H 256.27 0.0984932 -2.04263 0
M  V30 2685 H 254.425 2.35737 -3.0742 0
M  V30 2686 H 254.839 1.37969 -5.06028 0
M  V30 2687 H 256.313 3.03055 -4.6137 0
M  V30 2688 H 256.79 3.26807 -2.93417 0
M  V30 2689 H 257.396 1.85443 -3.82741 0
M  V30 2690 N 255.711 1.52812 0.385517 0
M  V30 2691 C 256.641 1.80808 1.47752 0
M  V30 2692 C 257.622 0.660318 1.5676 0
M  V30 2693 O 258.807 0.908246 1.71652 0
M  V30 2694 C 255.937 1.98008 2.85324 0
M  V30 2695 C 254.891 3.13709 2.91154 0
M  V30 2696 C 254.217 3.16169 4.31209 0
M  V30 2697 C 255.517 4.52709 2.60483 0
M  V30 2698 H 257.211 2.72253 1.24573 0
M  V30 2699 H 254.757 1.31003 0.597839 0
M  V30 2700 H 256.71 2.16176 3.61726 0
M  V30 2701 H 255.434 1.03255 3.09848 0
M  V30 2702 H 254.093 2.95329 2.17201 0
M  V30 2703 H 253.741 2.19092 4.52778 0
M  V30 2704 H 253.441 3.93894 4.36029 0
M  V30 2705 H 254.965 3.36496 5.09512 0
M  V30 2706 H 256.379 4.71173 3.26602 0
M  V30 2707 H 254.776 5.32528 2.76648 0
M  V30 2708 H 255.846 4.59186 1.55809 0
M  V30 2709 N 257.189 -0.644168 1.43834 0
M  V30 2710 C 258.121 -1.76955 1.45669 0
M  V30 2711 C 259.134 -1.58956 0.351666 0
M  V30 2712 O 260.323 -1.6751 0.616644 0
M  V30 2713 C 257.423 -3.14507 1.26248 0
M  V30 2714 C 256.596 -3.59083 2.49757 0
M  V30 2715 C 255.655 -4.75467 2.25427 0
M  V30 2716 O 254.681 -4.84444 2.98836 0
M  V30 2717 N 255.883 -5.66289 1.27661 0
M  V30 2718 H 258.648 -1.75856 2.42682 0
M  V30 2719 H 256.209 -0.828312 1.39106 0
M  V30 2720 H 258.201 -3.90067 1.0784 0
M  V30 2721 H 256.771 -3.10325 0.376478 0
M  V30 2722 H 255.991 -2.7387 2.8353 0
M  V30 2723 H 257.279 -3.85613 3.31934 0
M  V30 2724 H 256.677 -5.61718 0.670064 0
M  V30 2725 H 255.234 -6.41533 1.15234 0
M  V30 2726 N 258.668 -1.30515 -0.883378 0
M  V30 2727 C 259.578 -1.18959 -2.02203 0
M  V30 2728 C 260.594 -0.109172 -1.73657 0
M  V30 2729 O 261.77 -0.324413 -1.9877 0
M  V30 2730 C 258.835 -0.883871 -3.35244 0
M  V30 2731 C 257.896 -2.04982 -3.77201 0
M  V30 2732 C 257.129 -1.75859 -5.03894 0
M  V30 2733 O 257.352 -0.687276 -5.66244 0
M  V30 2734 O 256.286 -2.61146 -5.42297 0
M  V30 2735 H 260.112 -2.14616 -2.1488 0
M  V30 2736 H 257.697 -1.10124 -1.0096 0
M  V30 2737 H 259.579 -0.728644 -4.15053 0
M  V30 2738 H 258.254 0.0427798 -3.23672 0
M  V30 2739 H 257.161 -2.26038 -2.9809 0
M  V30 2740 H 258.494 -2.95825 -3.93381 0
M  V30 2741 N 260.146 1.09593 -1.13257 0
M  V30 2742 C 261.076 2.18214 -0.830946 0
M  V30 2743 C 262.057 1.68812 0.208966 0
M  V30 2744 O 263.242 1.9408 0.0682666 0
M  V30 2745 C 260.372 3.46051 -0.294296 0
M  V30 2746 C 259.326 4.08778 -1.26826 0
M  V30 2747 C 258.652 5.31419 -0.591449 0
M  V30 2748 C 259.952 4.51476 -2.62615 0
M  V30 2749 H 261.646 2.43703 -1.73923 0
M  V30 2750 H 259.192 1.17128 -0.837675 0
M  V30 2751 H 261.145 4.2134 -0.0709606 0
M  V30 2752 H 259.869 3.20079 0.649366 0
M  V30 2753 H 258.528 3.35505 -1.47756 0
M  V30 2754 H 258.176 5.01727 0.357633 0
M  V30 2755 H 257.876 5.74341 -1.24123 0
M  V30 2756 H 259.4 6.09433 -0.377355 0
M  V30 2757 H 260.814 5.17999 -2.45663 0
M  V30 2758 H 259.211 5.05277 -3.23752 0
M  V30 2759 H 260.281 3.63962 -3.20406 0
M  V30 2760 N 261.624 0.925811 1.2754 0
M  V30 2761 C 262.557 0.367836 2.25216 0
M  V30 2762 C 263.535 -0.534738 1.53556 0
M  V30 2763 O 264.719 -0.475672 1.824 0
M  V30 2764 C 261.846 -0.47298 3.35381 0
M  V30 2765 C 260.892 0.365898 4.24928 0
M  V30 2766 S 261.725 1.78025 5.05042 0
M  V30 2767 C 262.881 0.947068 6.18693 0
M  V30 2768 H 263.114 1.19568 2.72196 0
M  V30 2769 H 260.647 0.727867 1.36167 0
M  V30 2770 H 262.605 -0.952242 3.99303 0
M  V30 2771 H 261.266 -1.27533 2.87044 0
M  V30 2772 H 260.459 -0.277582 5.03235 0
M  V30 2773 H 260.061 0.779261 3.65792 0
M  V30 2774 H 262.353 0.182201 6.77255 0
M  V30 2775 H 263.296 1.70309 6.87314 0
M  V30 2776 H 263.704 0.489913 5.6237 0
M  V30 2777 N 263.102 -1.41638 0.69111 0
M  V30 2778 C 264.065 -2.29178 0.0319786 0
M  V30 2779 C 265.065 -1.44153 -0.712496 0
M  V30 2780 O 266.255 -1.65354 -0.548053 0
M  V30 2781 C 263.387 -3.26952 -0.965161 0
M  V30 2782 H 264.58 -2.88959 0.802681 0
M  V30 2783 H 262.133 -1.4955 0.454356 0
M  V30 2784 H 262.868 -2.72142 -1.76378 0
M  V30 2785 H 262.653 -3.89685 -0.434522 0
M  V30 2786 H 264.143 -3.92561 -1.42428 0
M  V30 2787 N 264.58 -0.43555 -1.51462 0
M  V30 2788 C 265.828 0.131254 -2.01673 0
M  V30 2789 C 266.149 1.43368 -1.32177 0
M  V30 2790 O 265.419 1.90524 -0.455769 0
M  V30 2791 H 263.999 0.0514954 -0.745223 0
M  V30 2792 H 266.661 -0.577847 -1.86137 0
M  V30 2793 H 265.757 0.308446 -3.10572 0
M  V30 2794 N 266.058 1.56714 -0.166846 0
M  V30 2795 C 267.469 1.83378 0.350646 0
M  V30 2796 C 267.82 1.08646 1.63372 0
M  V30 2797 O 266.945 0.338058 2.13743 0
M  V30 2798 C 267.54 3.32643 0.642963 0
M  V30 2799 C 266.099 3.59818 1.10491 0
M  V30 2800 C 265.246 2.76954 0.138411 0
M  V30 2801 H 268.197 1.53803 -0.391193 0
M  V30 2802 H 268.218 3.49878 1.49551 0
M  V30 2803 H 267.73 3.87007 -0.291055 0
M  V30 2804 H 265.831 3.1086 2.05418 0
M  V30 2805 H 265.944 4.68178 1.01716 0
M  V30 2806 H 264.308 2.4666 0.634911 0
M  V30 2807 H 265.091 3.34097 -0.789549 0
M  V30 2808 N 267.536 -0.106894 1.57237 0
M  V30 2809 C 268.784 -0.810921 1.85117 0
M  V30 2810 C 269.105 -1.7984 0.753827 0
M  V30 2811 O 268.375 -1.94649 -0.221056 0
M  V30 2812 H 266.955 -0.302466 0.683025 0
M  V30 2813 H 269.617 -0.0913324 1.94686 0
M  V30 2814 H 268.713 -1.34875 2.81452 0
M  V30 2815 N 269.014 -1.53014 -0.377408 0
M  V30 2816 C 269.964 -1.74996 -1.46152 0
M  V30 2817 C 270.948 -0.604236 -1.49123 0
M  V30 2818 O 272.14 -0.862489 -1.54564 0
M  V30 2819 C 269.269 -1.93267 -2.8373 0
M  V30 2820 C 268.355 -3.13807 -2.85283 0
M  V30 2821 N 268.746 -4.35941 -2.56493 0
M  V30 2822 C 267.044 -3.14288 -3.16448 0
M  V30 2823 C 267.745 -5.17615 -2.65424 0
M  V30 2824 N 266.721 -4.53559 -2.99641 0
M  V30 2825 H 270.523 -2.67044 -1.22738 0
M  V30 2826 H 268.037 -1.51479 -0.585479 0
M  V30 2827 H 270.034 -2.0714 -3.61799 0
M  V30 2828 H 268.694 -1.0244 -3.08117 0
M  V30 2829 H 269.705 -4.63876 -2.30302 0
M  V30 2830 H 266.382 -2.33312 -3.46225 0
M  V30 2831 H 267.772 -6.25006 -2.46612 0
M  V30 2832 N 270.492 0.636531 -1.44174 0
M  V30 2833 C 271.739 1.39619 -1.46672 0
M  V30 2834 C 272.067 1.94257 -0.0972691 0
M  V30 2835 O 271.322 1.73768 0.900175 0
M  V30 2836 C 271.621 2.58309 -2.47005 0
M  V30 2837 C 271.287 2.21992 -3.92467 0
M  V30 2838 C 269.949 2.118 -4.32081 0
M  V30 2839 C 272.301 1.9321 -4.84065 0
M  V30 2840 C 269.629 1.71007 -5.61225 0
M  V30 2841 C 271.981 1.53911 -6.13591 0
M  V30 2842 C 270.645 1.42257 -6.52165 0
M  V30 2843 H 269.915 0.510902 -0.536712 0
M  V30 2844 H 272.562 0.722328 -1.77355 0
M  V30 2845 H 270.867 3.30903 -2.09786 0
M  V30 2846 H 272.564 3.16533 -2.46186 0
M  V30 2847 H 269.154 2.30841 -3.61124 0
M  V30 2848 H 273.338 1.99997 -4.54219 0
M  V30 2849 H 268.594 1.60583 -5.89935 0
M  V30 2850 H 272.768 1.30677 -6.8403 0
M  V30 2851 H 270.395 1.10419 -7.52138 0
M  V30 2852 N 271.97 1.30982 0.876444 0
M  V30 2853 C 272.918 1.18006 2.00443 0
M  V30 2854 C 273.912 0.0898871 1.69161 0
M  V30 2855 O 275.118 0.251333 1.78237 0
M  V30 2856 H 271.493 0.365196 0.65737 0
M  V30 2857 H 273.464 2.13453 2.0852 0
M  V30 2858 C 272.213 0.897521 3.35916 0
M  V30 2859 H 271.536 1.7285 3.60504 0
M  V30 2860 H 272.976 0.846874 4.15456 0
M  V30 2861 C 271.435 -0.399674 3.34521 0
M  V30 2862 O 271.965 -1.41852 3.7582 0
M  V30 2863 N 270.171 -0.413893 2.87637 0
M  V30 2864 H 269.718 0.41571 2.54224 0
M  V30 2865 H 269.676 -1.28175 2.87086 0
M  V30 2866 N 273.449 -1.08991 1.13837 0
M  V30 2867 C 274.86 -1.62746 0.914917 0
M  V30 2868 C 275.211 -1.88403 -0.547594 0
M  V30 2869 O 274.336 -1.63706 -1.41525 0
M  V30 2870 C 274.931 -2.95662 1.65437 0
M  V30 2871 C 273.49 -3.46225 1.47666 0
M  V30 2872 C 272.637 -2.20562 1.6807 0
M  V30 2873 H 275.588 -0.922946 1.29102 0
M  V30 2874 H 275.609 -3.63825 1.11407 0
M  V30 2875 H 275.121 -2.76956 2.71877 0
M  V30 2876 H 273.222 -3.70046 0.435478 0
M  V30 2877 H 273.335 -4.23368 2.24268 0
M  V30 2878 H 271.699 -2.29439 1.10589 0
M  V30 2879 H 272.482 -2.0437 2.7584 0
M  V30 2880 N 274.927 -0.932562 -1.27047 0
M  V30 2881 C 276.157 -0.591173 -1.97961 0
M  V30 2882 C 276.565 0.836219 -1.69717 0
M  V30 2883 O 275.908 1.56801 -0.957036 0
M  V30 2884 C 275.97 -0.743082 -3.51736 0
M  V30 2885 C 275.634 -2.1435 -4.03613 0
M  V30 2886 C 276.631 -3.11815 -4.16014 0
M  V30 2887 C 274.316 -2.46175 -4.37839 0
M  V30 2888 C 276.31 -4.39211 -4.61923 0
M  V30 2889 C 273.997 -3.73806 -4.83438 0
M  V30 2890 C 274.995 -4.70137 -4.95439 0
M  V30 2891 O 274.683 -5.95496 -5.40037 0
M  V30 2892 H 274.415 -0.222375 -0.638377 0
M  V30 2893 H 276.969 -1.25317 -1.62742 0
M  V30 2894 H 275.199 -0.0239739 -3.86693 0
M  V30 2895 H 276.888 -0.40603 -4.03864 0
M  V30 2896 H 277.654 -2.88549 -3.89826 0
M  V30 2897 H 273.533 -1.71936 -4.27737 0
M  V30 2898 H 277.077 -5.14404 -4.71205 0
M  V30 2899 H 272.974 -3.96888 -5.09068 0
M  V30 2900 H 273.742 -5.98554 -5.58279 0
M  V30 2901 N 276.405 1.4127 -0.698611 0
M  V30 2902 C 277.821 1.55241 -0.370462 0
M  V30 2903 C 278.021 1.67351 1.12231 0
M  V30 2904 O 277.077 1.65363 1.90818 0
M  V30 2905 C 278.39 2.78997 -1.12165 0
M  V30 2906 C 279.938 2.92797 -1.1063 0
M  V30 2907 C 280.413 4.19445 -1.8393 0
M  V30 2908 N 281.904 4.26409 -1.80914 0
M  V30 2909 C 282.639 5.23271 -2.34467 0
M  V30 2910 N 282.135 6.26145 -2.96504 0
M  V30 2911 N 283.928 5.15232 -2.24706 0
M  V30 2912 H 276.079 1.31654 -1.66676 0
M  V30 2913 H 278.342 0.635393 -0.703548 0
M  V30 2914 H 278.048 2.76268 -2.17644 0
M  V30 2915 H 277.922 3.70606 -0.702209 0
M  V30 2916 H 280.309 2.95039 -0.0597713 0
M  V30 2917 H 280.39 2.02353 -1.56483 0
M  V30 2918 H 280.034 4.17964 -2.88563 0
M  V30 2919 H 279.964 5.08866 -1.35509 0
M  V30 2920 H 282.455 3.527 -1.35687 0
M  V30 2921 H 282.768 6.96451 -3.34927 0
M  V30 2922 H 281.113 6.26638 -3.00583 0
M  V30 2923 H 284.304 4.33789 -1.7591 0
M  V30 2924 H 284.477 5.90552 -2.66745 0
M  V30 2925 N 277.883 0.443576 1.51229 0
M  V30 2926 C 279.113 -0.119117 2.06256 0
M  V30 2927 C 279.521 -1.36471 1.31043 0
M  V30 2928 O 278.864 -1.80034 0.365151 0
M  V30 2929 C 278.926 -0.500546 3.55998 0
M  V30 2930 C 278.59 0.639125 4.52509 0
M  V30 2931 C 279.587 1.51311 4.97394 0
M  V30 2932 C 277.272 0.821632 4.95535 0
M  V30 2933 C 279.266 2.55425 5.83984 0
M  V30 2934 C 276.953 1.86603 5.81913 0
M  V30 2935 C 277.951 2.73072 6.26036 0
M  V30 2936 O 277.639 3.75718 7.10698 0
M  V30 2937 H 277.371 -0.00857665 0.675946 0
M  V30 2938 H 279.925 0.623288 1.95715 0
M  V30 2939 H 278.155 -1.29575 3.64345 0
M  V30 2940 H 279.844 -0.995116 3.93513 0
M  V30 2941 H 280.61 1.38367 4.64844 0
M  V30 2942 H 276.489 0.158149 4.60729 0
M  V30 2943 H 280.033 3.22949 6.18344 0
M  V30 2944 H 275.93 1.99564 6.13876 0
M  V30 2945 H 276.698 3.72374 7.2889 0
M  V30 2946 N 279.361 -1.56624 0.175154 0
M  V30 2947 C 280.607 -1.9729 -0.469506 0
M  V30 2948 C 280.94 -1.06128 -1.62636 0
M  V30 2949 O 280.215 -0.109183 -1.94193 0
M  V30 2950 C 280.498 -3.47375 -0.948804 0
M  V30 2951 C 280.351 -4.49317 0.208491 0
M  V30 2952 C 281.67 -4.00652 -1.82116 0
M  V30 2953 H 278.789 -0.717317 -0.16919 0
M  V30 2954 H 281.431 -1.88184 0.262062 0
M  V30 2955 H 279.581 -3.55267 -1.57219 0
M  V30 2956 H 281.253 -4.53482 0.845682 0
M  V30 2957 H 279.496 -4.25121 0.863395 0
M  V30 2958 H 280.167 -5.51741 -0.169059 0
M  V30 2959 H 282.643 -3.95416 -1.2956 0
M  V30 2960 H 281.519 -5.06075 -2.12554 0
M  V30 2961 H 281.78 -3.44699 -2.7683 0
M  V30 2962 N 280.839 0.0985539 -1.57292 0
M  V30 2963 C 282.085 0.803867 -1.86188 0
M  V30 2964 C 282.418 1.78549 -0.763794 0
M  V30 2965 O 281.693 1.93153 0.22855 0
M  V30 2966 C 281.976 1.53568 -3.25713 0
M  V30 2967 C 281.829 0.572277 -4.46145 0
M  V30 2968 C 283.148 2.48708 -3.63087 0
M  V30 2969 H 280.267 0.290781 -0.677211 0
M  V30 2970 H 282.909 0.0675783 -1.8988 0
M  V30 2971 H 281.059 2.16332 -3.22696 0
M  V30 2972 H 282.731 -0.0480894 -4.61275 0
M  V30 2973 H 280.974 -0.114618 -4.33649 0
M  V30 2974 H 281.645 1.12139 -5.40489 0
M  V30 2975 H 284.121 1.96039 -3.67026 0
M  V30 2976 H 282.997 2.96932 -4.61652 0
M  V30 2977 H 283.258 3.32309 -2.91588 0
M  V30 2978 N 282.317 1.53212 0.369288 0
M  V30 2979 C 283.563 1.69466 1.11397 0
M  V30 2980 C 283.896 0.443257 1.89074 0
M  V30 2981 O 283.171 -0.559386 1.86282 0
M  V30 2982 C 283.454 2.9422 2.07621 0
M  V30 2983 C 283.307 4.29508 1.33577 0
M  V30 2984 C 284.626 3.14565 3.07794 0
M  V30 2985 H 281.745 0.616667 0.403597 0
M  V30 2986 H 284.387 1.85845 0.395179 0
M  V30 2987 H 282.537 2.80387 2.68916 0
M  V30 2988 H 284.209 4.55147 0.750955 0
M  V30 2989 H 282.452 4.29088 0.637618 0
M  V30 2990 H 283.123 5.12926 2.03989 0
M  V30 2991 H 285.599 3.2756 2.56601 0
M  V30 2992 H 284.475 4.03297 3.72348 0
M  V30 2993 H 284.736 2.29675 3.77759 0
M  V30 2994 N 283.795 -0.628877 1.44509 0
M  V30 2995 C 285.02 -1.42048 1.5112 0
M  V30 2996 C 285.445 -1.87594 0.137818 0
M  V30 2997 O 284.803 -1.58873 -0.873437 0
M  V30 2998 C 284.851 -2.61541 2.48251 0
M  V30 2999 O 283.955 -3.61453 1.98559 0
M  V30 3000 H 283.296 -0.424942 0.510216 0
M  V30 3001 H 285.826 -0.767374 1.89664 0
M  V30 3002 H 285.836 -3.09057 2.66361 0
M  V30 3003 H 284.511 -2.27736 3.48007 0
M  V30 3004 H 283.088 -3.20731 1.90227 0
M  V30 3005 N 285.273 -1.31445 -0.869486 0
M  V30 3006 C 286.519 -1.21337 -1.62496 0
M  V30 3007 C 286.852 0.227872 -1.92858 0
M  V30 3008 O 286.127 1.16094 -1.56053 0
M  V30 3009 C 286.41 -2.05814 -2.95487 0
M  V30 3010 C 286.263 -3.5824 -2.72 0
M  V30 3011 C 287.582 -1.9079 -3.96594 0
M  V30 3012 H 284.701 -0.442135 -0.589649 0
M  V30 3013 H 287.343 -1.6124 -1.00507 0
M  V30 3014 H 285.493 -1.71913 -3.48394 0
M  V30 3015 H 287.165 -4.0228 -2.25762 0
M  V30 3016 H 285.408 -3.81647 -2.06224 0
M  V30 3017 H 286.079 -4.12657 -3.66631 0
M  V30 3018 H 288.555 -2.20459 -3.52898 0
M  V30 3019 H 287.431 -2.52199 -4.87531 0
M  V30 3020 H 287.692 -0.871341 -4.33428 0
M  V30 3021 N 286.751 1.08385 -1.14413 0
M  V30 3022 C 287.979 1.84517 -0.936001 0
M  V30 3023 C 288.394 1.81626 0.515503 0
M  V30 3024 O 287.751 1.22008 1.35721 0
M  V30 3025 C 287.802 3.32049 -1.42918 0
M  V30 3026 O 287.523 3.34951 -2.82381 0
M  V30 3027 C 289.024 4.24986 -1.26103 0
M  V30 3028 H 286.244 0.582491 -0.333084 0
M  V30 3029 H 288.788 1.36885 -1.5193 0
M  V30 3030 H 286.943 3.7707 -0.888641 0
M  V30 3031 H 287.357 4.27048 -3.04517 0
M  V30 3032 H 288.831 5.26615 -1.6547 0
M  V30 3033 H 289.308 4.38726 -0.20392 0
M  V30 3034 H 289.914 3.85791 -1.79012 0
M  V30 3035 N 288.23 0.939286 1.26551 0
M  V30 3036 C 289.178 0.43815 2.28436 0
M  V30 3037 C 290.172 -0.483587 1.62351 0
M  V30 3038 O 291.378 -0.362009 1.76322 0
M  V30 3039 H 287.753 0.123149 0.741848 0
M  V30 3040 H 289.724 1.31002 2.68106 0
M  V30 3041 C 288.473 -0.283052 3.46546 0
M  V30 3042 H 287.796 0.417043 3.97619 0
M  V30 3043 H 289.236 -0.597948 4.19763 0
M  V30 3044 C 287.695 -1.50018 3.01656 0
M  V30 3045 O 288.225 -2.59855 3.0633 0
M  V30 3046 N 286.431 -1.35608 2.57019 0
M  V30 3047 H 285.978 -0.46244 2.53415 0
M  V30 3048 H 285.936 -2.17165 2.27347 0
M  V30 3049 N 289.708 -1.40897 0.706093 0
M  V30 3050 C 290.954 -2.01352 0.241889 0
M  V30 3051 C 291.287 -1.55832 -1.15888 0
M  V30 3052 O 290.562 -0.774145 -1.7843 0
M  V30 3053 C 290.845 -3.58752 0.311311 0
M  V30 3054 C 290.698 -4.1437 1.74978 0
M  V30 3055 C 292.017 -4.38914 -0.322922 0
M  V30 3056 H 289.136 -0.731562 0.0893687 0
M  V30 3057 H 291.778 -1.67504 0.896802 0
M  V30 3058 H 289.928 -3.87718 -0.246302 0
M  V30 3059 H 291.6 -3.96239 2.36205 0
M  V30 3060 H 289.843 -3.69016 2.28057 0
M  V30 3061 H 290.514 -5.23532 1.74981 0
M  V30 3062 H 292.99 -4.15822 0.152089 0
M  V30 3063 H 291.866 -5.48358 -0.243855 0
M  V30 3064 H 292.127 -4.19176 -1.40513 0
M  V30 3065 N 291.186 -0.45159 -1.50991 0
M  V30 3066 C 292.435 0.111653 -2.01391 0
M  V30 3067 C 292.748 1.42529 -1.33959 0
M  V30 3068 O 293.954 2.07232 -1.75405 0
M  V30 3069 C 292.41 0.249514 -3.59034 0
M  V30 3070 C 292.018 -1.05453 -4.35412 0
M  V30 3071 C 293.762 0.765762 -4.17536 0
M  V30 3072 C 291.669 -0.881529 -5.84793 0
M  V30 3073 H 290.599 0.0455022 -0.752626 0
M  V30 3074 H 293.25 -0.583524 -1.73975 0
M  V30 3075 H 291.632 1.00803 -3.82955 0
M  V30 3076 H 292.806 -1.82248 -4.23229 0
M  V30 3077 H 291.121 -1.50039 -3.88429 0
M  V30 3078 H 293.718 0.911913 -5.26866 0
M  V30 3079 H 294.061 1.75201 -3.77638 0
M  V30 3080 H 294.594 0.0651744 -3.97747 0
M  V30 3081 H 291.333 -1.84057 -6.29129 0
M  V30 3082 H 290.853 -0.153625 -5.99603 0
M  V30 3083 H 292.532 -0.540363 -6.4474 0
M  V30 3084 N 292.664 1.56529 -0.183458 0
M  V30 3085 C 293.904 1.99141 0.460667 0
M  V30 3086 C 294.268 1.06736 1.59597 0
M  V30 3087 O 295.469 1.38538 2.30349 0
M  V30 3088 C 293.74 3.45358 0.919939 0
M  V30 3089 S 295.299 4.09999 1.56354 0
M  V30 3090 H 292.117 0.695479 0.147748 0
M  V30 3091 H 294.719 1.93429 -0.283782 0
M  V30 3092 H 293.423 4.10315 0.0834208 0
M  V30 3093 H 292.954 3.54862 1.69814 0
M  V30 3094 H 294.969 4.06046 2.85203 0
M  V30 3095 N 294.142 -0.090211 1.57342 0
M  V30 3096 C 295.105 -1.09335 2.01441 0
M  V30 3097 C 296.105 -1.32666 0.908641 0
M  V30 3098 O 297.295 -1.28697 1.174 0
M  V30 3099 C 294.427 -2.44136 2.3793 0
M  V30 3100 H 295.62 -0.713662 2.91285 0
M  V30 3101 H 293.173 -0.335404 1.52659 0
M  V30 3102 H 293.908 -2.86972 1.51055 0
M  V30 3103 H 293.693 -2.28548 3.18603 0
M  V30 3104 H 295.183 -3.16277 2.72688 0
M  V30 3105 N 295.62 -1.53406 -0.361157 0
M  V30 3106 C 296.869 -1.69022 -1.10066 0
M  V30 3107 C 297.182 -0.450838 -1.90333 0
M  V30 3108 O 298.388 -0.487617 -2.67085 0
M  V30 3109 C 296.844 -2.98812 -2.00598 0
M  V30 3110 C 296.452 -4.30027 -1.25621 0
M  V30 3111 C 298.196 -3.23795 -2.74513 0
M  V30 3112 C 296.103 -5.50903 -2.1508 0
M  V30 3113 H 295.033 -0.629776 -0.414606 0
M  V30 3114 H 297.684 -1.79907 -0.361348 0
M  V30 3115 H 296.066 -2.8174 -2.78278 0
M  V30 3116 H 297.24 -4.57745 -0.529739 0
M  V30 3117 H 295.555 -4.11522 -0.635496 0
M  V30 3118 H 298.152 -4.11289 -3.41681 0
M  V30 3119 H 298.495 -2.40045 -3.40123 0
M  V30 3120 H 299.028 -3.41561 -2.03914 0
M  V30 3121 H 295.767 -6.37143 -1.54041 0
M  V30 3122 H 295.287 -5.27459 -2.85565 0
M  V30 3123 H 296.966 -5.85865 -2.74538 0
M  V30 3124 N 297.098 0.621204 -1.44841 0
M  V30 3125 C 298.338 1.39201 -1.49674 0
M  V30 3126 C 298.702 1.91561 -0.129764 0
M  V30 3127 O 299.903 2.68748 -0.0527814 0
M  V30 3128 C 298.174 2.519 -2.53537 0
M  V30 3129 S 299.733 3.39916 -2.77494 0
M  V30 3130 H 296.551 0.474758 -0.529269 0
M  V30 3131 H 299.153 0.718171 -1.81831 0
M  V30 3132 H 297.857 2.11761 -3.51547 0
M  V30 3133 H 297.388 3.241 -2.22986 0
M  V30 3134 H 299.403 4.49646 -2.0984 0
M  V30 3135 N 298.576 1.31904 0.862503 0
M  V30 3136 C 299.823 1.22017 1.61611 0
M  V30 3137 C 300.151 -0.21991 1.93253 0
M  V30 3138 O 299.406 -1.17076 1.56817 0
M  V30 3139 C 299.705 2.01713 2.95037 0
M  V30 3140 C 299.371 3.51145 2.82857 0
M  V30 3141 C 298.033 3.91889 2.79243 0
M  V30 3142 C 300.385 4.46204 2.69353 0
M  V30 3143 C 297.713 5.25947 2.59993 0
M  V30 3144 C 300.065 5.80397 2.5164 0
M  V30 3145 C 298.729 6.20352 2.46413 0
M  V30 3146 H 297.999 0.44649 0.591378 0
M  V30 3147 H 300.646 1.63248 1.00111 0
M  V30 3148 H 298.951 1.53185 3.60613 0
M  V30 3149 H 300.648 1.91437 3.52353 0
M  V30 3150 H 297.238 3.1878 2.86491 0
M  V30 3151 H 301.422 4.15652 2.71196 0
M  V30 3152 H 296.678 5.5597 2.54376 0
M  V30 3153 H 300.852 6.53676 2.40169 0
M  V30 3154 H 298.479 7.24172 2.31256 0
M  V30 3155 N 300.054 -1.07777 1.14986 0
M  V30 3156 C 301.302 -1.79934 0.920235 0
M  V30 3157 C 301.623 -1.86955 -0.554336 0
M  V30 3158 O 300.893 -1.36731 -1.40291 0
M  V30 3159 H 299.473 -0.666424 0.337473 0
M  V30 3160 H 302.135 -1.3027 1.44968 0
M  V30 3161 H 301.231 -2.82539 1.32583 0
M  V30 3162 N 301.532 -0.945985 -1.26051 0
M  V30 3163 C 302.948 -0.649045 -1.45807 0
M  V30 3164 C 303.148 0.796158 -1.85104 0
M  V30 3165 O 302.204 1.57233 -1.97571 0
M  V30 3166 C 303.517 -1.61458 -2.53677 0
M  V30 3167 C 305.065 -1.62481 -2.67524 0
M  V30 3168 C 305.54 -2.57776 -3.7857 0
M  V30 3169 N 307.031 -2.5609 -3.85969 0
M  V30 3170 C 307.766 -3.26508 -4.7136 0
M  V30 3171 N 307.262 -4.0637 -5.61102 0
M  V30 3172 N 309.055 -3.15437 -4.65248 0
M  V30 3173 H 301.206 -1.88005 -0.988328 0
M  V30 3174 H 303.469 -0.808198 -0.4955 0
M  V30 3175 H 303.175 -2.64644 -2.31638 0
M  V30 3176 H 303.049 -1.37036 -3.51427 0
M  V30 3177 H 305.436 -0.600167 -2.88933 0
M  V30 3178 H 305.517 -1.90958 -1.70202 0
M  V30 3179 H 305.161 -3.60361 -3.57913 0
M  V30 3180 H 305.091 -2.26587 -4.75359 0
M  V30 3181 H 307.582 -1.98105 -3.21812 0
M  V30 3182 H 307.895 -4.57042 -6.23164 0
M  V30 3183 H 306.24 -4.10469 -5.60839 0
M  V30 3184 H 309.431 -2.52525 -3.94143 0
M  V30 3185 H 309.604 -3.70584 -5.31575 0
M  V30 3186 N 303.011 1.40521 -0.713556 0
M  V30 3187 C 304.427 1.54839 -0.386907 0
M  V30 3188 C 304.627 1.68532 1.1045 0
M  V30 3189 O 303.683 1.67377 1.89053 0
M  V30 3190 C 304.996 2.77792 -1.15118 0
M  V30 3191 C 306.544 2.91607 -1.13729 0
M  V30 3192 C 307.019 4.1747 -1.88368 0
M  V30 3193 N 308.51 4.24466 -1.85427 0
M  V30 3194 C 309.245 5.20755 -2.40004 0
M  V30 3195 N 308.741 6.22965 -3.03129 0
M  V30 3196 N 310.534 5.1282 -2.30158 0
M  V30 3197 H 302.685 1.29879 -1.68063 0
M  V30 3198 H 304.948 0.627896 -0.710247 0
M  V30 3199 H 304.654 2.73944 -2.20561 0
M  V30 3200 H 304.528 3.6984 -0.741477 0
M  V30 3201 H 306.915 2.94959 -0.0910608 0
M  V30 3202 H 306.996 2.00682 -1.5862 0
M  V30 3203 H 306.64 4.1488 -2.9298 0
M  V30 3204 H 306.57 5.074 -1.40898 0
M  V30 3205 H 309.061 3.51241 -1.3942 0
M  V30 3206 H 309.374 6.92859 -3.42295 0
M  V30 3207 H 307.719 6.23415 -3.07212 0
M  V30 3208 H 310.91 4.31899 -1.80501 0
M  V30 3209 H 311.083 5.87689 -2.72993 0
M  V30 3210 N 304.489 0.459591 1.5075 0
M  V30 3211 C 305.719 -0.0972338 2.06371 0
M  V30 3212 C 306.127 -1.35074 1.32483 0
M  V30 3213 O 305.47 -1.79637 0.384226 0
M  V30 3214 C 305.532 -0.462759 3.56509 0
M  V30 3215 C 305.196 0.687084 4.51805 0
M  V30 3216 C 306.193 1.56578 4.95761 0
M  V30 3217 C 303.878 0.874144 4.94635 0
M  V30 3218 C 305.872 2.61604 5.81242 0
M  V30 3219 C 303.559 1.92765 5.79901 0
M  V30 3220 C 304.557 2.79697 6.23104 0
M  V30 3221 O 304.245 3.83235 7.06673 0
M  V30 3222 H 303.977 -0.00140687 0.675999 0
M  V30 3223 H 306.531 0.644011 1.95043 0
M  V30 3224 H 304.761 -1.25703 3.65699 0
M  V30 3225 H 306.45 -0.953323 3.94546 0
M  V30 3226 H 307.216 1.4329 4.6335 0
M  V30 3227 H 303.095 0.207006 4.60535 0
M  V30 3228 H 306.639 3.29489 6.14884 0
M  V30 3229 H 302.536 2.06064 6.11725 0
M  V30 3230 H 303.304 3.80084 7.24899 0
M  V30 3231 N 305.967 -1.56429 0.191757 0
M  V30 3232 C 307.244 -1.89224 -0.495332 0
M  V30 3233 C 307.624 -1.10478 -1.79883 0
M  V30 3234 O 306.972 -0.204852 -2.2758 0
M  V30 3235 C 307.182 -3.41548 -0.717367 0
M  V30 3236 C 308.53 -4.11711 -1.03823 0
M  V30 3237 O 309.554 -3.4698 -0.805204 0
M  V30 3238 O 308.413 -5.2611 -1.47887 0
M  V30 3239 H 305.507 -0.785788 -0.25781 0
M  V30 3240 H 308.053 -1.68111 0.231721 0
M  V30 3241 H 306.825 -3.90772 0.203287 0
M  V30 3242 H 306.448 -3.68342 -1.497 0
M  V30 3243 N 307.445 0.0818655 -1.57387 0
M  V30 3244 C 308.395 1.10501 -1.99433 0
M  V30 3245 C 309.379 1.35041 -0.874798 0
M  V30 3246 O 310.571 1.35511 -1.13868 0
M  V30 3247 C 307.7 2.42159 -2.43339 0
M  V30 3248 C 306.786 2.20937 -3.62005 0
M  V30 3249 N 307.177 1.69616 -4.76512 0
M  V30 3250 C 305.475 2.51451 -3.68359 0
M  V30 3251 C 306.176 1.62973 -5.58404 0
M  V30 3252 N 305.152 2.08664 -5.01956 0
M  V30 3253 H 308.954 0.701373 -2.85408 0
M  V30 3254 H 306.468 0.289096 -1.59806 0
M  V30 3255 H 308.465 3.16208 -2.71695 0
M  V30 3256 H 307.125 2.83249 -1.58746 0
M  V30 3257 H 308.136 1.38624 -4.99003 0
M  V30 3258 H 304.813 2.95975 -2.94457 0
M  V30 3259 H 306.203 1.24233 -6.60315 0
M  V30 3260 N 308.923 1.53595 0.353017 0
M  V30 3261 C 309.871 1.81605 1.45335 0
M  V30 3262 C 310.865 0.685923 1.54892 0
M  V30 3263 O 312.071 0.869095 1.57628 0
M  V30 3264 H 308.446 0.575204 0.484401 0
M  V30 3265 H 310.417 2.73679 1.18921 0
M  V30 3266 C 309.166 2.03406 2.81995 0
M  V30 3267 H 308.489 2.89814 2.75405 0
M  V30 3268 H 309.929 2.26975 3.58132 0
M  V30 3269 C 308.388 0.816794 3.26849 0
M  V30 3270 O 308.918 0.0115856 4.01698 0
M  V30 3271 N 307.124 0.636682 2.8354 0
M  V30 3272 H 306.671 1.2931 2.22793 0
M  V30 3273 H 306.629 -0.176336 3.13905 0
M  V30 3274 N 310.401 -0.613514 1.45168 0
M  V30 3275 C 311.351 -1.71871 1.49815 0
M  V30 3276 C 312.335 -1.56774 0.362021 0
M  V30 3277 O 313.527 -1.66212 0.608493 0
M  V30 3278 C 310.656 -3.1061 1.46207 0
M  V30 3279 C 309.742 -3.31114 2.64999 0
M  V30 3280 N 310.133 -3.21904 3.90143 0
M  V30 3281 C 308.431 -3.61966 2.6057 0
M  V30 3282 C 309.132 -3.43577 4.69393 0
M  V30 3283 N 308.108 -3.67287 4.00751 0
M  V30 3284 H 311.91 -1.63235 2.444 0
M  V30 3285 H 309.424 -0.816577 1.40377 0
M  V30 3286 H 311.421 -3.8989 1.4762 0
M  V30 3287 H 310.081 -3.20399 0.52673 0
M  V30 3288 H 311.092 -3.00436 4.21852 0
M  V30 3289 H 307.769 -3.78629 1.75916 0
M  V30 3290 H 309.159 -3.41901 5.78406 0
M  V30 3291 N 311.879 -1.3236 -0.855495 0
M  V30 3292 C 312.811 -1.17052 -1.97057 0
M  V30 3293 C 313.824 -0.10574 -1.62456 0
M  V30 3294 O 315.013 -0.354619 -1.74942 0
M  V30 3295 C 312.113 -0.769305 -3.30053 0
M  V30 3296 C 311.286 -1.9222 -3.929 0
M  V30 3297 C 310.345 -1.50466 -5.04228 0
M  V30 3298 O 309.371 -2.21655 -5.24269 0
M  V30 3299 N 310.573 -0.400209 -5.79119 0
M  V30 3300 H 313.338 -2.13103 -2.1073 0
M  V30 3301 H 310.899 -1.24885 -1.0303 0
M  V30 3302 H 312.891 -0.472407 -4.01933 0
M  V30 3303 H 311.461 0.100025 -3.1244 0
M  V30 3304 H 310.681 -2.38563 -3.13817 0
M  V30 3305 H 311.969 -2.69403 -4.31624 0
M  V30 3306 H 311.367 0.192319 -5.65373 0
M  V30 3307 H 309.924 -0.162912 -6.51596 0
M  V30 3308 N 313.357 1.07166 -1.15556 0
M  V30 3309 C 314.267 2.17947 -0.868116 0
M  V30 3310 C 315.283 1.73297 0.156297 0
M  V30 3311 O 316.459 2.01392 -0.0182327 0
M  V30 3312 C 313.524 3.44789 -0.36355 0
M  V30 3313 C 312.585 4.03996 -1.45209 0
M  V30 3314 C 311.818 5.24783 -0.971508 0
M  V30 3315 O 312.041 5.70109 0.182194 0
M  V30 3316 O 310.975 5.75715 -1.75603 0
M  V30 3317 H 314.801 2.4503 -1.79427 0
M  V30 3318 H 312.386 1.16539 -0.934824 0
M  V30 3319 H 314.268 4.21307 -0.0887113 0
M  V30 3320 H 312.943 3.19253 0.534708 0
M  V30 3321 H 311.85 3.29009 -1.78056 0
M  V30 3322 H 313.183 4.33808 -2.32533 0
M  V30 3323 N 314.835 0.952656 1.25548 0
M  V30 3324 C 315.765 0.489287 2.28316 0
M  V30 3325 C 316.746 -0.463359 1.63667 0
M  V30 3326 O 317.931 -0.36274 1.90782 0
M  V30 3327 C 315.061 -0.235603 3.465 0
M  V30 3328 C 314.015 0.631593 4.23314 0
M  V30 3329 C 313.341 -0.223923 5.34231 0
M  V30 3330 C 314.641 1.90871 4.86174 0
M  V30 3331 H 316.335 1.34822 2.67326 0
M  V30 3332 H 313.881 0.649728 1.28509 0
M  V30 3333 H 315.834 -0.570882 4.17515 0
M  V30 3334 H 314.558 -1.12877 3.06474 0
M  V30 3335 H 313.217 0.949929 3.54079 0
M  V30 3336 H 312.865 -1.11678 4.90446 0
M  V30 3337 H 312.565 0.35299 5.86539 0
M  V30 3338 H 314.089 -0.554214 6.0808 0
M  V30 3339 H 315.503 1.63997 5.49343 0
M  V30 3340 H 313.9 2.43112 5.4865 0
M  V30 3341 H 314.97 2.61304 4.08471 0
M  V30 3342 N 316.313 -1.40141 0.720998 0
M  V30 3343 C 317.243 -2.33339 0.0867621 0
M  V30 3344 C 318.224 -1.53178 -0.739622 0
M  V30 3345 O 319.409 -1.81625 -0.687449 0
M  V30 3346 C 316.539 -3.37194 -0.831728 0
M  V30 3347 C 315.493 -4.27857 -0.110558 0
M  V30 3348 C 314.819 -5.22294 -1.14513 0
M  V30 3349 C 316.119 -5.11872 1.0385 0
M  V30 3350 H 317.813 -2.86626 0.865219 0
M  V30 3351 H 315.359 -1.37814 0.417516 0
M  V30 3352 H 317.312 -4.01335 -1.28485 0
M  V30 3353 H 316.036 -2.82314 -1.64214 0
M  V30 3354 H 314.695 -3.65176 0.322797 0
M  V30 3355 H 314.343 -4.63717 -1.94874 0
M  V30 3356 H 314.043 -5.83797 -0.667446 0
M  V30 3357 H 315.567 -5.89312 -1.59824 0
M  V30 3358 H 316.981 -5.69436 0.664482 0
M  V30 3359 H 315.378 -5.82445 1.4449 0
M  V30 3360 H 316.448 -4.4753 1.86668 0
M  V30 3361 N 317.792 -0.46758 -1.50504 0
M  V30 3362 C 319.017 0.0886943 -2.0721 0
M  V30 3363 C 319.442 1.33057 -1.32956 0
M  V30 3364 O 318.8 1.77354 -0.376197 0
M  V30 3365 C 318.848 0.359202 -3.58806 0
M  V30 3366 O 317.952 1.44034 -3.8643 0
M  V30 3367 H 317.293 -0.0114349 -0.663902 0
M  V30 3368 H 319.823 -0.657613 -1.93744 0
M  V30 3369 H 319.833 0.600742 -4.03553 0
M  V30 3370 H 318.508 -0.548311 -4.1227 0
M  V30 3371 H 317.085 1.18638 -3.53524 0
M  V30 3372 N 319.27 1.56325 -0.20005 0
M  V30 3373 C 320.2 2.22318 0.713916 0
M  V30 3374 C 321.181 1.18788 1.21752 0
M  V30 3375 O 322.366 1.47309 1.26545 0
M  V30 3376 C 319.496 2.88639 1.93144 0
M  V30 3377 C 318.45 3.98457 1.56255 0
M  V30 3378 C 317.776 4.51967 2.85709 0
M  V30 3379 C 319.076 5.16612 0.768747 0
M  V30 3380 H 320.77 2.98952 0.163755 0
M  V30 3381 H 318.316 1.43792 0.0773219 0
M  V30 3382 H 320.269 3.33491 2.57608 0
M  V30 3383 H 318.993 2.09419 2.50621 0
M  V30 3384 H 317.652 3.54305 0.941471 0
M  V30 3385 H 317.3 3.69503 3.41287 0
M  V30 3386 H 317 5.26071 2.6177 0
M  V30 3387 H 318.524 4.99523 3.51154 0
M  V30 3388 H 319.938 5.57977 1.3166 0
M  V30 3389 H 318.335 5.96812 0.627286 0
M  V30 3390 H 319.405 4.84358 -0.229168 0
M  V30 3391 N 320.748 -0.0735177 1.57428 0
M  V30 3392 C 321.994 -0.774145 1.87443 0
M  V30 3393 C 322.327 -1.77311 0.792103 0
M  V30 3394 O 321.602 -1.93492 -0.197793 0
M  V30 3395 C 321.885 -1.48367 3.28115 0
M  V30 3396 C 321.738 -0.501227 4.46999 0
M  V30 3397 C 323.057 -2.429 3.66998 0
M  V30 3398 H 320.176 -0.279971 0.681752 0
M  V30 3399 H 322.818 -0.0373616 1.89963 0
M  V30 3400 H 320.968 -2.11171 3.26097 0
M  V30 3401 H 322.64 0.121468 4.6114 0
M  V30 3402 H 320.883 0.183593 4.33411 0
M  V30 3403 H 321.554 -1.03526 5.42205 0
M  V30 3404 H 324.03 -1.90175 3.70098 0
M  V30 3405 H 322.906 -2.89549 4.66318 0
M  V30 3406 H 323.167 -3.27628 2.96837 0
M  V30 3407 N 322.226 -1.5378 -0.344866 0
M  V30 3408 C 323.174 -1.82373 -1.4437 0
M  V30 3409 C 324.168 -0.694128 -1.54526 0
M  V30 3410 O 325.374 -0.877442 -1.57165 0
M  V30 3411 H 321.749 -0.577765 -0.481344 0
M  V30 3412 H 323.72 -2.74306 -1.17468 0
M  V30 3413 C 322.469 -2.04898 -2.80913 0
M  V30 3414 H 321.792 -2.9127 -2.73865 0
M  V30 3415 H 323.232 -2.28871 -3.56923 0
M  V30 3416 C 321.691 -0.834116 -3.26411 0
M  V30 3417 O 322.221 -0.0328885 -4.01687 0
M  V30 3418 N 320.427 -0.65171 -2.83198 0
M  V30 3419 H 319.974 -1.30489 -2.22104 0
M  V30 3420 H 319.932 0.159686 -3.13994 0
M  V30 3421 N 323.704 0.605807 -1.45491 0
M  V30 3422 C 324.634 1.72709 -1.57143 0
M  V30 3423 C 325.615 1.6476 -0.422884 0
M  V30 3424 O 326.8 1.83132 -0.646247 0
M  V30 3425 C 323.93 3.11316 -1.53948 0
M  V30 3426 C 322.884 3.34077 -2.67537 0
M  V30 3427 C 322.21 4.72975 -2.49397 0
M  V30 3428 C 323.51 3.24158 -4.09535 0
M  V30 3429 H 325.204 1.63214 -2.51001 0
M  V30 3430 H 322.75 0.78379 -1.208 0
M  V30 3431 H 324.703 3.89557 -1.60696 0
M  V30 3432 H 323.427 3.21655 -0.566205 0
M  V30 3433 H 322.086 2.58227 -2.6022 0
M  V30 3434 H 321.734 4.8005 -1.50205 0
M  V30 3435 H 321.434 4.8916 -3.25571 0
M  V30 3436 H 322.958 5.53414 -2.58002 0
M  V30 3437 H 324.372 3.92271 -4.18086 0
M  V30 3438 H 322.769 3.51872 -4.86113 0
M  V30 3439 H 323.839 2.2157 -4.31317 0
M  V30 3440 N 325.182 1.32811 0.848464 0
M  V30 3441 C 326.13 1.22231 1.97895 0
M  V30 3442 C 327.124 0.125749 1.68933 0
M  V30 3443 O 328.33 0.289083 1.77663 0
M  V30 3444 H 324.705 0.379058 0.649476 0
M  V30 3445 H 326.676 2.17828 2.03945 0
M  V30 3446 C 325.425 0.968572 3.33937 0
M  V30 3447 H 324.748 1.80458 3.56756 0
M  V30 3448 H 326.188 0.934808 4.13567 0
M  V30 3449 C 324.647 -0.328628 3.35293 0
M  V30 3450 O 325.177 -1.33848 3.78745 0
M  V30 3451 N 323.383 -0.352788 2.88451 0
M  V30 3452 H 322.93 0.469541 2.53285 0
M  V30 3453 H 322.888 -1.22057 2.89741 0
M  V30 3454 N 326.66 -1.06551 1.16123 0
M  V30 3455 C 327.608 -2.16063 0.861371 0
M  V30 3456 C 328.602 -1.6856 -0.168517 0
M  V30 3457 O 329.808 -1.79986 -0.0227579 0
M  V30 3458 H 326.183 -0.705278 0.260934 0
M  V30 3459 H 328.154 -2.38567 1.79244 0
M  V30 3460 C 326.903 -3.45661 0.376018 0
M  V30 3461 H 326.226 -3.82604 1.15992 0
M  V30 3462 H 327.666 -4.23504 0.204951 0
M  V30 3463 C 326.125 -3.24546 -0.903954 0
M  V30 3464 O 326.655 -3.49865 -1.97377 0
M  V30 3465 N 324.861 -2.77992 -0.846679 0
M  V30 3466 H 324.408 -2.57589 0.0241017 0
M  V30 3467 H 324.366 -2.64244 -1.70359 0
M  V30 3468 N 328.138 -0.959301 -1.25041 0
M  V30 3469 C 329.086 -0.474437 -2.2771 0
M  V30 3470 C 330.08 0.457697 -1.631 0
M  V30 3471 O 331.286 0.333912 -1.76876 0
M  V30 3472 H 327.661 -0.134936 -0.739795 0
M  V30 3473 H 329.632 -1.35251 -2.65988 0
M  V30 3474 C 328.381 0.227884 -3.46952 0
M  V30 3475 H 327.704 -0.480248 -3.96905 0
M  V30 3476 H 329.144 0.531091 -4.20661 0
M  V30 3477 C 327.603 1.452 -3.04004 0
M  V30 3478 O 328.133 2.54949 -3.10426 0
M  V30 3479 N 326.339 1.31502 -2.59144 0
M  V30 3480 H 325.886 0.422065 -2.54119 0
M  V30 3481 H 325.844 2.13521 -2.30773 0
M  V30 3482 N 329.616 1.39756 -0.72842 0
M  V30 3483 C 330.863 2.00645 -0.273487 0
M  V30 3484 C 331.191 1.57786 1.13727 0
M  V30 3485 O 330.446 0.794886 1.7883 0
M  V30 3486 C 330.745 3.56002 -0.315776 0
M  V30 3487 C 330.411 4.18489 -1.67863 0
M  V30 3488 C 329.073 4.3527 -2.05166 0
M  V30 3489 C 331.425 4.53219 -2.57375 0
M  V30 3490 C 328.753 4.84069 -3.31503 0
M  V30 3491 C 331.105 5.03423 -3.83077 0
M  V30 3492 C 329.769 5.18413 -4.20481 0
M  V30 3493 H 329.039 0.734211 -0.100076 0
M  V30 3494 H 331.686 1.6718 -0.933972 0
M  V30 3495 H 329.991 3.89452 0.428285 0
M  V30 3496 H 331.688 4.00963 0.0542575 0
M  V30 3497 H 328.278 4.05824 -1.37858 0
M  V30 3498 H 332.462 4.39878 -2.29827 0
M  V30 3499 H 327.718 4.93859 -3.60435 0
M  V30 3500 H 331.892 5.2927 -4.52599 0
M  V30 3501 H 329.519 5.55987 -5.18443 0
M  V30 3502 N 331.094 0.475555 1.50254 0
M  V30 3503 C 332.342 -0.077738 2.0195 0
M  V30 3504 C 332.663 -1.39813 1.35931 0
M  V30 3505 O 331.933 -1.89249 0.506123 0
M  V30 3506 H 330.513 -0.031719 0.746326 0
M  V30 3507 H 333.175 0.626995 1.84539 0
M  V30 3508 H 332.271 -0.225995 3.11281 0
M  V30 3509 N 332.573 -1.56217 0.208337 0
M  V30 3510 C 333.483 -2.23316 -0.718836 0
M  V30 3511 C 334.499 -1.23648 -1.22422 0
M  V30 3512 O 335.675 -1.56423 -1.26861 0
M  V30 3513 C 332.74 -2.88968 -1.91568 0
M  V30 3514 C 331.801 -4.03943 -1.45357 0
M  V30 3515 C 331.034 -4.66455 -2.59337 0
M  V30 3516 O 331.257 -4.27919 -3.77149 0
M  V30 3517 O 330.191 -5.55686 -2.31293 0
M  V30 3518 H 334.017 -3.03182 -0.177315 0
M  V30 3519 H 331.602 -1.49384 -0.0215402 0
M  V30 3520 H 333.484 -3.30455 -2.61491 0
M  V30 3521 H 332.159 -2.12071 -2.44556 0
M  V30 3522 H 331.066 -3.67052 -0.722746 0
M  V30 3523 H 332.399 -4.82543 -0.970219 0
M  V30 3524 N 334.051 0.0651679 -1.57465 0
M  V30 3525 C 335.297 0.764193 -1.87851 0
M  V30 3526 C 335.63 1.76889 -0.801495 0
M  V30 3527 O 334.905 1.93594 0.187528 0
M  V30 3528 C 335.188 1.46625 -3.28897 0
M  V30 3529 C 335.041 0.477515 -4.47258 0
M  V30 3530 C 336.36 2.4095 -3.68281 0
M  V30 3531 H 333.479 0.276351 -0.683227 0
M  V30 3532 H 336.121 0.0272868 -1.8998 0
M  V30 3533 H 334.271 2.09438 -3.27212 0
M  V30 3534 H 335.943 -0.145922 -4.61069 0
M  V30 3535 H 334.186 -0.206576 -4.33308 0
M  V30 3536 H 334.857 1.0065 -5.42746 0
M  V30 3537 H 337.333 1.88209 -3.71102 0
M  V30 3538 H 336.209 2.87072 -4.67847 0
M  V30 3539 H 336.47 3.26049 -2.98571 0
M  V30 3540 N 335.529 1.53961 0.336706 0
M  V30 3541 C 336.775 1.7179 1.07777 0
M  V30 3542 C 337.108 0.483263 1.88091 0
M  V30 3543 O 336.383 -0.519747 1.87427 0
M  V30 3544 C 336.666 2.98558 2.01334 0
M  V30 3545 C 336.519 4.32245 1.24437 0
M  V30 3546 C 337.838 3.21023 3.01052 0
M  V30 3547 H 334.957 0.625089 0.390426 0
M  V30 3548 H 337.599 1.86641 0.35567 0
M  V30 3549 H 335.749 2.86028 2.62908 0
M  V30 3550 H 337.421 4.56637 0.654243 0
M  V30 3551 H 335.664 4.30344 0.546458 0
M  V30 3552 H 336.335 5.17137 1.93063 0
M  V30 3553 H 338.811 3.32929 2.49595 0
M  V30 3554 H 337.687 4.11104 3.6371 0
M  V30 3555 H 337.948 2.37637 3.72802 0
M  V30 3556 N 337.007 -0.598083 1.45811 0
M  V30 3557 C 338.255 -1.35413 1.50026 0
M  V30 3558 C 338.576 -1.94444 0.147177 0
M  V30 3559 O 337.846 -1.77701 -0.824571 0
M  V30 3560 H 336.426 -0.502727 0.552517 0
M  V30 3561 H 339.088 -0.701606 1.81834 0
M  V30 3562 H 338.184 -2.16871 2.2444 0
M  V30 3563 N 338.485 -1.33259 -0.841409 0
M  V30 3564 C 339.71 -1.2775 -1.63385 0
M  V30 3565 C 340.135 0.149188 -1.87507 0
M  V30 3566 O 339.493 1.10498 -1.43736 0
M  V30 3567 C 339.541 -2.05571 -2.96265 0
M  V30 3568 O 338.645 -1.41257 -3.87453 0
M  V30 3569 H 337.986 -0.439627 -0.497618 0
M  V30 3570 H 340.516 -1.75782 -1.04699 0
M  V30 3571 H 340.526 -2.16241 -3.45982 0
M  V30 3572 H 339.201 -3.09309 -2.7803 0
M  V30 3573 H 337.778 -1.39217 -3.45938 0
M  V30 3574 N 339.963 1.05934 -1.16686 0
M  V30 3575 C 341.211 1.78447 -0.948744 0
M  V30 3576 C 341.532 1.87813 0.524523 0
M  V30 3577 O 340.802 1.38945 1.38098 0
M  V30 3578 H 339.382 0.660971 -0.348033 0
M  V30 3579 H 342.044 1.27947 -1.47022 0
M  V30 3580 H 341.14 2.80394 -1.37061 0
M  V30 3581 N 341.441 0.965919 1.2453 0
M  V30 3582 C 342.389 0.486506 2.27455 0
M  V30 3583 C 343.383 -0.449041 1.6334 0
M  V30 3584 O 344.589 -0.324527 1.7705 0
M  V30 3585 H 340.964 0.138857 0.739069 0
M  V30 3586 H 342.935 1.3666 2.65267 0
M  V30 3587 C 341.684 -0.209481 3.47068 0
M  V30 3588 H 341.007 0.50129 3.96645 0
M  V30 3589 H 342.447 -0.508775 4.20936 0
M  V30 3590 C 340.906 -1.43586 3.0477 0
M  V30 3591 O 341.436 -2.53299 3.11773 0
M  V30 3592 N 339.642 -1.30126 2.59838 0
M  V30 3593 H 339.189 -0.408583 2.54339 0
M  V30 3594 H 339.147 -2.12294 2.31902 0
M  V30 3595 N 342.919 -1.39368 0.735821 0
M  V30 3596 C 344.33 -1.83313 0.354015 0
M  V30 3597 C 344.681 -1.61461 -1.11466 0
M  V30 3598 O 343.806 -1.10621 -1.85989 0
M  V30 3599 C 344.401 -3.32781 0.635769 0
M  V30 3600 C 342.96 -3.75142 0.307448 0
M  V30 3601 C 342.107 -2.62358 0.897974 0
M  V30 3602 H 345.058 -1.28349 0.933398 0
M  V30 3603 H 345.079 -3.80388 -0.0921773 0
M  V30 3604 H 344.591 -3.48654 1.70476 0
M  V30 3605 H 342.692 -3.64857 -0.755674 0
M  V30 3606 H 342.805 -4.72532 0.790583 0
M  V30 3607 H 341.169 -2.52624 0.324551 0
M  V30 3608 H 341.952 -2.81036 1.97164 0
M  V30 3609 N 344.397 -0.483516 -1.5 0
M  V30 3610 C 345.36 0.292965 -2.2732 0
M  V30 3611 C 346.36 0.909499 -1.32608 0
M  V30 3612 O 347.55 0.776745 -1.55924 0
M  V30 3613 C 344.682 1.41854 -3.09984 0
M  V30 3614 H 345.875 -0.385289 -2.97415 0
M  V30 3615 H 343.428 -0.237942 -1.54478 0
M  V30 3616 H 344.163 2.13148 -2.44414 0
M  V30 3617 H 343.948 0.982114 -3.79601 0
M  V30 3618 H 345.438 1.96597 -3.68429 0
M  V30 3619 N 345.875 1.56104 -0.216619 0
M  V30 3620 C 347.152 1.89988 0.465165 0
M  V30 3621 C 347.532 1.13326 1.78102 0
M  V30 3622 O 346.88 0.241033 2.27225 0
M  V30 3623 C 347.09 3.42646 0.662939 0
M  V30 3624 C 348.438 4.13311 0.972602 0
M  V30 3625 O 349.462 3.48217 0.749901 0
M  V30 3626 O 348.321 5.28396 1.39499 0
M  V30 3627 H 345.415 0.78979 0.245276 0
M  V30 3628 H 347.961 1.67721 -0.258436 0
M  V30 3629 H 346.733 3.90399 -0.26543 0
M  V30 3630 H 346.356 3.70677 1.43821 0
M  V30 3631 N 347.353 -0.0568162 1.57498 0
M  V30 3632 C 348.6 -0.753104 1.87975 0
M  V30 3633 C 348.928 -1.76815 0.81035 0
M  V30 3634 O 348.183 -1.94756 -0.19199 0
M  V30 3635 C 348.482 -1.48359 3.25153 0
M  V30 3636 C 348.148 -0.60713 4.46794 0
M  V30 3637 C 346.81 -0.365642 4.79809 0
M  V30 3638 C 349.162 -0.000305978 5.212 0
M  V30 3639 C 346.49 0.491905 5.84634 0
M  V30 3640 C 348.842 0.844781 6.26934 0
M  V30 3641 C 347.506 1.096 6.58441 0
M  V30 3642 H 346.776 -0.27558 0.687849 0
M  V30 3643 H 349.423 -0.0135173 1.91495 0
M  V30 3644 H 347.728 -2.29577 3.17492 0
M  V30 3645 H 349.425 -2.02739 3.45974 0
M  V30 3646 H 346.015 -0.805487 4.20963 0
M  V30 3647 H 350.199 -0.173961 4.95995 0
M  V30 3648 H 345.455 0.695131 6.07436 0
M  V30 3649 H 349.629 1.32165 6.83744 0
M  V30 3650 H 347.256 1.76224 7.39492 0
M  V30 3651 N 348.832 -1.54138 -0.328536 0
M  V30 3652 C 350.081 -1.71318 -1.06456 0
M  V30 3653 C 350.394 -0.491109 -1.89334 0
M  V30 3654 O 351.6 -0.54416 -2.65991 0
M  V30 3655 C 350.056 -3.03 -1.94214 0
M  V30 3656 C 349.664 -4.32595 -1.16471 0
M  V30 3657 C 351.408 -3.29544 -2.67583 0
M  V30 3658 C 349.315 -5.55341 -2.03347 0
M  V30 3659 H 348.245 -0.638429 -0.401155 0
M  V30 3660 H 350.896 -1.80633 -0.323106 0
M  V30 3661 H 349.278 -2.87579 -2.72239 0
M  V30 3662 H 350.452 -4.58766 -0.432525 0
M  V30 3663 H 348.767 -4.12777 -0.548063 0
M  V30 3664 H 351.364 -4.18444 -3.3288 0
M  V30 3665 H 351.707 -2.47206 -3.34955 0
M  V30 3666 H 352.24 -3.45809 -1.96623 0
M  V30 3667 H 348.979 -6.40268 -1.40491 0
M  V30 3668 H 348.499 -5.33397 -2.74313 0
M  V30 3669 H 350.178 -5.91557 -2.62049 0
M  V30 3670 N 350.31 0.590341 -1.46126 0
M  V30 3671 C 351.721 1.17243 -1.45296 0
M  V30 3672 C 352.072 1.95281 -0.189723 0
M  V30 3673 O 351.197 2.04502 0.707674 0
M  V30 3674 C 351.792 2.13284 -2.6324 0
M  V30 3675 C 350.351 2.66832 -2.65476 0
M  V30 3676 C 349.498 1.42557 -2.3785 0
M  V30 3677 H 352.449 0.378692 -1.54116 0
M  V30 3678 H 352.47 2.96619 -2.38323 0
M  V30 3679 H 351.982 1.56459 -3.55165 0
M  V30 3680 H 350.083 3.27548 -1.77603 0
M  V30 3681 H 350.196 3.10088 -3.65215 0
M  V30 3682 H 348.56 1.72107 -1.87753 0
M  V30 3683 H 349.343 0.875741 -3.31942 0
M  V30 3684 N 351.788 1.33704 0.83433 0
M  V30 3685 C 353.037 1.24763 1.58484 0
M  V30 3686 C 353.35 -0.183775 1.94735 0
M  V30 3687 O 354.556 -0.395234 2.68608 0
M  V30 3688 C 353.012 2.18638 2.85876 0
M  V30 3689 C 352.62 3.66974 2.56971 0
M  V30 3690 C 354.364 2.18581 3.63899 0
M  V30 3691 C 352.271 4.5275 3.80488 0
M  V30 3692 H 351.201 0.463425 0.594772 0
M  V30 3693 H 353.852 1.58797 0.919551 0
M  V30 3694 H 352.234 1.77542 3.5397 0
M  V30 3695 H 353.408 4.16538 1.9706 0
M  V30 3696 H 351.723 3.69366 1.92244 0
M  V30 3697 H 354.32 2.79894 4.55591 0
M  V30 3698 H 354.663 1.18207 3.99165 0
M  V30 3699 H 355.196 2.58062 3.02735 0
M  V30 3700 H 351.935 5.54017 3.5035 0
M  V30 3701 H 351.455 4.07927 4.39722 0
M  V30 3702 H 353.134 4.66784 4.4802 0
M  V30 3703 N 353.266 -1.05314 1.17247 0
M  V30 3704 C 354.196 -2.1498 0.911362 0
M  V30 3705 C 355.177 -1.69471 -0.146169 0
M  V30 3706 O 356.362 -1.942 0.003812 0
M  V30 3707 C 353.492 -3.4472 0.422528 0
M  V30 3708 C 352.446 -4.03789 1.4191 0
M  V30 3709 C 351.772 -5.28858 0.788274 0
M  V30 3710 C 353.072 -4.41418 2.7919 0
M  V30 3711 H 354.766 -2.3708 1.82848 0
M  V30 3712 H 352.312 -1.13938 0.880569 0
M  V30 3713 H 354.265 -4.20787 0.227289 0
M  V30 3714 H 352.989 -3.22269 -0.530123 0
M  V30 3715 H 351.648 -3.2979 1.60106 0
M  V30 3716 H 351.296 -5.02709 -0.171173 0
M  V30 3717 H 350.996 -5.69338 1.45353 0
M  V30 3718 H 352.52 -6.07612 0.603282 0
M  V30 3719 H 353.934 -5.08524 2.64719 0
M  V30 3720 H 352.331 -4.92913 3.42282 0
M  V30 3721 H 353.401 -3.51819 3.33693 0
M  V30 3722 N 354.744 -0.972509 -1.24016 0
M  V30 3723 C 356.16 -0.679827 -1.44397 0
M  V30 3724 C 356.36 0.756716 -1.86751 0
M  V30 3725 O 355.416 1.53007 -2.00861 0
M  V30 3726 C 356.729 -1.66803 -2.50195 0
M  V30 3727 C 358.277 -1.68119 -2.64017 0
M  V30 3728 C 358.752 -2.65748 -3.73017 0
M  V30 3729 N 360.243 -2.64219 -3.8045 0
M  V30 3730 C 360.978 -3.36433 -4.64328 0
M  V30 3731 N 360.474 -4.1818 -5.52356 0
M  V30 3732 N 362.267 -3.25235 -4.58453 0
M  V30 3733 H 354.418 -1.90059 -0.948228 0
M  V30 3734 H 356.681 -0.818527 -0.478245 0
M  V30 3735 H 356.387 -2.69498 -2.25973 0
M  V30 3736 H 356.261 -1.4446 -3.48441 0
M  V30 3737 H 358.648 -0.661319 -2.87594 0
M  V30 3738 H 358.729 -1.94525 -1.66113 0
M  V30 3739 H 358.373 -3.67872 -3.50189 0
M  V30 3740 H 358.303 -2.36619 -4.70446 0
M  V30 3741 H 360.794 -2.04887 -3.17537 0
M  V30 3742 H 361.107 -4.70157 -6.13329 0
M  V30 3743 H 359.452 -4.22273 -5.52006 0
M  V30 3744 H 362.643 -2.60829 -3.88698 0
M  V30 3745 H 362.816 -3.81776 -5.23594 0
M  V30 3746 N 356.222 1.38976 -0.743202 0
M  V30 3747 C 357.452 2.04339 -0.304807 0
M  V30 3748 C 357.86 1.56162 1.06819 0
M  V30 3749 O 357.203 0.725284 1.68776 0
M  V30 3750 C 357.265 3.58716 -0.237369 0
M  V30 3751 C 356.929 4.29905 -1.55018 0
M  V30 3752 C 357.926 4.55987 -2.49744 0
M  V30 3753 C 355.611 4.68294 -1.81675 0
M  V30 3754 C 357.605 5.19478 -3.69353 0
M  V30 3755 C 355.292 5.31512 -3.0156 0
M  V30 3756 C 356.29 5.57037 -3.9522 0
M  V30 3757 O 355.978 6.18941 -5.12998 0
M  V30 3758 H 355.71 0.663439 -0.12971 0
M  V30 3759 H 358.264 1.78852 -1.01001 0
M  V30 3760 H 356.494 3.83133 0.524003 0
M  V30 3761 H 358.183 4.05543 0.170121 0
M  V30 3762 H 358.949 4.26767 -2.30423 0
M  V30 3763 H 354.828 4.47779 -1.09615 0
M  V30 3764 H 358.372 5.39318 -4.42473 0
M  V30 3765 H 354.269 5.60153 -3.20778 0
M  V30 3766 H 355.037 6.37433 -5.13441 0
M  V30 3767 N 357.7 0.491464 1.49741 0
M  V30 3768 C 358.63 -0.28154 2.31796 0
M  V30 3769 C 359.611 -0.971473 1.3963 0
M  V30 3770 O 360.796 -0.964719 1.68543 0
M  V30 3771 C 357.926 -1.35203 3.19902 0
M  V30 3772 C 356.88 -0.782529 4.20786 0
M  V30 3773 C 356.206 -1.95283 4.97764 0
M  V30 3774 C 357.506 0.21999 5.21837 0
M  V30 3775 H 359.2 0.403355 2.96671 0
M  V30 3776 H 356.746 0.195425 1.42668 0
M  V30 3777 H 358.699 -1.90045 3.76113 0
M  V30 3778 H 357.423 -2.06598 2.52953 0
M  V30 3779 H 356.082 -0.255928 3.65706 0
M  V30 3780 H 355.73 -2.65423 4.2727 0
M  V30 3781 H 355.43 -1.57789 5.66018 0
M  V30 3782 H 356.954 -2.50577 5.56816 0
M  V30 3783 H 358.368 -0.23996 5.72798 0
M  V30 3784 H 356.765 0.51026 5.97927 0
M  V30 3785 H 357.835 1.13911 4.7133 0
M  V30 3786 N 359.178 -1.55987 0.224894 0
M  V30 3787 C 360.589 -1.84553 -0.282345 0
M  V30 3788 C 360.94 -1.14634 -1.59227 0
M  V30 3789 O 360.065 -0.417155 -2.12341 0
M  V30 3790 C 360.66 -3.348 -0.519062 0
M  V30 3791 C 359.219 -3.63671 -0.970604 0
M  V30 3792 C 358.366 -2.77277 -0.0355261 0
M  V30 3793 H 361.317 -1.52245 0.448006 0
M  V30 3794 H 361.338 -3.55187 -1.36463 0
M  V30 3795 H 360.85 -3.8566 0.43449 0
M  V30 3796 H 358.951 -3.1827 -1.9374 0
M  V30 3797 H 359.064 -4.71631 -0.842698 0
M  V30 3798 H 357.428 -2.48846 -0.542927 0
M  V30 3799 H 358.211 -3.30937 0.913003 0
M  V30 3800 N 360.656 0.0484629 -1.57525 0
M  V30 3801 C 361.604 1.07359 -2.06341 0
M  V30 3802 C 362.598 1.3865 -0.973269 0
M  V30 3803 O 363.804 1.37783 -1.15827 0
M  V30 3804 H 360.179 0.363662 -0.65822 0
M  V30 3805 H 362.15 0.635916 -2.91545 0
M  V30 3806 C 360.899 2.37198 -2.54229 0
M  V30 3807 H 360.222 2.13977 -3.37719 0
M  V30 3808 H 361.662 3.07319 -2.92115 0
M  V30 3809 C 360.121 3.04805 -1.43511 0
M  V30 3810 O 360.651 3.93848 -0.79034 0
M  V30 3811 N 358.857 2.65811 -1.17444 0
M  V30 3812 H 358.404 1.93488 -1.70059 0
M  V30 3813 H 358.362 3.11366 -0.435737 0
M  V30 3814 N 362.134 1.5431 0.320358 0
M  V30 3815 C 363.545 1.63872 0.894594 0
M  V30 3816 C 363.896 0.534847 1.88769 0
M  V30 3817 O 363.021 -0.331732 2.13842 0
M  V30 3818 C 363.616 2.97049 1.62934 0
M  V30 3819 C 362.175 3.08796 2.15226 0
M  V30 3820 C 361.322 2.59456 0.978671 0
M  V30 3821 H 364.273 1.58398 0.0978544 0
M  V30 3822 H 364.294 2.87388 2.49376 0
M  V30 3823 H 363.806 3.7737 0.906302 0
M  V30 3824 H 361.907 2.33156 2.90636 0
M  V30 3825 H 362.02 4.14649 2.40006 0
M  V30 3826 H 360.384 2.1543 1.35875 0
M  V30 3827 H 361.167 3.42237 0.269895 0
M  V30 3828 N 363.613 -0.582584 1.46437 0
M  V30 3829 C 364.838 -1.37168 1.55563 0
M  V30 3830 C 365.263 -1.87061 0.19743 0
M  V30 3831 O 364.621 -1.61572 -0.822451 0
M  V30 3832 C 364.669 -2.53511 2.56446 0
M  V30 3833 O 363.773 -3.54953 2.09958 0
M  V30 3834 H 363.114 -0.408494 0.523477 0
M  V30 3835 H 365.644 -0.706646 1.9201 0
M  V30 3836 H 365.654 -3.00426 2.76058 0
M  V30 3837 H 364.329 -2.16549 3.55076 0
M  V30 3838 H 362.906 -3.14516 2.00334 0
M  V30 3839 N 365.091 -1.34144 -0.827227 0
M  V30 3840 C 366.021 -1.28005 -1.95287 0
M  V30 3841 C 367.002 -0.158321 -1.69362 0
M  V30 3842 O 368.187 -0.349987 -1.9102 0
M  V30 3843 C 365.317 -1.03036 -3.31664 0
M  V30 3844 C 364.271 -2.11628 -3.72019 0
M  V30 3845 C 363.597 -1.71854 -5.0633 0
M  V30 3846 C 364.897 -3.53417 -3.8457 0
M  V30 3847 H 366.591 -2.22187 -2.00682 0
M  V30 3848 H 364.137 -1.0696 -0.964135 0
M  V30 3849 H 366.09 -0.973863 -4.09993 0
M  V30 3850 H 364.814 -0.0529391 -3.26557 0
M  V30 3851 H 363.473 -2.16339 -2.95961 0
M  V30 3852 H 363.121 -0.727841 -4.97706 0
M  V30 3853 H 362.821 -2.44531 -5.34302 0
M  V30 3854 H 364.345 -1.67692 -5.87122 0
M  V30 3855 H 365.759 -3.51142 -4.5318 0
M  V30 3856 H 364.156 -4.24679 -4.2399 0
M  V30 3857 H 365.226 -3.91072 -2.86689 0
M  V30 3858 N 366.569 1.04691 -1.17803 0
M  V30 3859 C 367.517 2.14665 -0.895635 0
M  V30 3860 C 368.511 1.68806 0.141679 0
M  V30 3861 O 369.717 1.79999 -0.00587914 0
M  V30 3862 H 366.092 0.701038 -0.272121 0
M  V30 3863 H 368.063 2.35685 -1.83017 0
M  V30 3864 C 366.812 3.45019 -0.430962 0
M  V30 3865 H 366.135 3.8071 -1.22064 0
M  V30 3866 H 367.575 4.23125 -0.272301 0
M  V30 3867 C 366.034 3.25943 0.852207 0
M  V30 3868 O 366.564 3.5296 1.91786 0
M  V30 3869 N 364.77 2.79304 0.802346 0
M  V30 3870 H 364.317 2.57518 -0.0650788 0
M  V30 3871 H 364.275 2.66921 1.66134 0
M  V30 3872 N 368.047 0.979072 1.23499 0
M  V30 3873 C 369.01 0.523244 2.23147 0
M  V30 3874 C 370.01 -0.386406 1.56088 0
M  V30 3875 O 371.2 -0.180283 1.73265 0
M  V30 3876 C 368.332 -0.240739 3.40049 0
M  V30 3877 H 369.525 1.40432 2.64989 0
M  V30 3878 H 367.078 0.764824 1.36309 0
M  V30 3879 H 367.813 -1.13841 3.03662 0
M  V30 3880 H 367.598 0.412207 3.89927 0
M  V30 3881 H 369.088 -0.548297 4.13985 0
M  V30 3882 N 369.525 -1.3858 0.750561 0
M  V30 3883 C 370.772 -2.00184 0.305373 0
M  V30 3884 C 371.1 -1.59575 -1.11203 0
M  V30 3885 O 370.355 -0.823236 -1.77542 0
M  V30 3886 C 370.654 -3.55455 0.372373 0
M  V30 3887 C 370.32 -4.15765 1.745 0
M  V30 3888 C 368.982 -4.31951 2.12065 0
M  V30 3889 C 371.334 -4.49067 2.64553 0
M  V30 3890 C 368.662 -4.78734 3.39162 0
M  V30 3891 C 371.014 -4.97265 3.91038 0
M  V30 3892 C 369.678 -5.11658 4.28676 0
M  V30 3893 H 368.948 -0.732526 0.111744 0
M  V30 3894 H 371.595 -1.65673 0.960451 0
M  V30 3895 H 369.9 -3.90084 -0.366272 0
M  V30 3896 H 371.597 -4.00999 0.00953918 0
M  V30 3897 H 368.187 -4.03579 1.44297 0
M  V30 3898 H 372.371 -4.36166 2.36796 0
M  V30 3899 H 367.627 -4.88062 3.68246 0
M  V30 3900 H 371.801 -5.22003 4.60962 0
M  V30 3901 H 369.428 -5.47668 5.27222 0
M  V30 3902 N 371.003 -0.499398 -1.49478 0
M  V30 3903 C 371.95 0.279881 -2.29097 0
M  V30 3904 C 372.92 0.961805 -1.3542 0
M  V30 3905 O 374.105 0.968777 -1.64376 0
M  V30 3906 C 371.245 1.33932 -3.18051 0
M  V30 3907 C 370.358 0.669333 -4.26783 0
M  V30 3908 C 369.493 1.70907 -5.02955 0
M  V30 3909 C 368.532 1.02087 -6.03527 0
M  V30 3910 N 367.669 2.00474 -6.7287 0
M  V30 3911 H 372.509 -0.405317 -2.95231 0
M  V30 3912 H 370.046 -0.211726 -1.45568 0
M  V30 3913 H 372.004 1.96553 -3.67998 0
M  V30 3914 H 370.634 1.9933 -2.53904 0
M  V30 3915 H 369.686 -0.0701234 -3.80335 0
M  V30 3916 H 370.998 0.127503 -4.98637 0
M  V30 3917 H 370.152 2.41037 -5.56764 0
M  V30 3918 H 368.891 2.28476 -4.30871 0
M  V30 3919 H 367.896 0.305338 -5.48951 0
M  V30 3920 H 369.121 0.451708 -6.77596 0
M  V30 3921 H 367.067 2.57007 -6.03559 0
M  V30 3922 H 366.984 1.51353 -7.40694 0
M  V30 3923 H 368.252 2.69897 -7.31284 0
M  V30 3924 N 372.481 1.55866 -0.233164 0
M  V30 3925 C 373.758 1.90471 0.444988 0
M  V30 3926 C 374.138 1.15209 1.7689 0
M  V30 3927 O 373.486 0.265119 2.26957 0
M  V30 3928 C 373.696 3.4333 0.626559 0
M  V30 3929 C 375.044 4.14319 0.92871 0
M  V30 3930 O 376.068 3.48993 0.712926 0
M  V30 3931 O 374.927 5.29846 1.33887 0
M  V30 3932 H 372.021 0.792347 0.236885 0
M  V30 3933 H 374.567 1.67437 -0.276211 0
M  V30 3934 H 373.339 3.90095 -0.306822 0
M  V30 3935 H 372.962 3.72181 1.39881 0
M  V30 3936 N 373.959 -0.0401083 1.57549 0
M  V30 3937 C 374.889 -1.04384 2.08869 0
M  V30 3938 C 375.87 -1.38407 0.988817 0
M  V30 3939 O 377.055 -1.47483 1.26342 0
M  V30 3940 C 374.185 -2.34808 2.55895 0
M  V30 3941 C 373.139 -2.15057 3.70047 0
M  V30 3942 C 372.465 -3.51145 4.03239 0
M  V30 3943 C 373.765 -1.54576 4.98902 0
M  V30 3944 H 375.459 -0.616666 2.92981 0
M  V30 3945 H 373.005 -0.295184 1.40942 0
M  V30 3946 H 374.958 -3.05346 2.90417 0
M  V30 3947 H 373.682 -2.79565 1.68853 0
M  V30 3948 H 372.341 -1.46954 3.35857 0
M  V30 3949 H 371.989 -3.93529 3.13279 0
M  V30 3950 H 371.689 -3.38758 4.80122 0
M  V30 3951 H 373.213 -4.23062 4.40285 0
M  V30 3952 H 374.627 -2.15017 5.31451 0
M  V30 3953 H 373.024 -1.52796 5.80322 0
M  V30 3954 H 374.094 -0.51039 4.82206 0
M  V30 3955 N 375.437 -1.54477 -0.31217 0
M  V30 3956 C 376.385 -1.85395 -1.40469 0
M  V30 3957 C 377.379 -0.726749 -1.53019 0
M  V30 3958 O 378.585 -0.910582 -1.55269 0
M  V30 3959 H 374.96 -0.587845 -0.46898 0
M  V30 3960 H 376.931 -2.76736 -1.11623 0
M  V30 3961 C 375.68 -2.10811 -2.76503 0
M  V30 3962 H 375.003 -2.97014 -2.67625 0
M  V30 3963 H 376.443 -2.3639 -3.51988 0
M  V30 3964 C 374.902 -0.903165 -3.24568 0
M  V30 3965 O 375.432 -0.118085 -4.01526 0
M  V30 3966 N 373.638 -0.711634 -2.81752 0
M  V30 3967 H 373.185 -1.35171 -2.19286 0
M  V30 3968 H 373.143 0.0930473 -3.14262 0
M  V30 3969 N 376.915 0.57481 -1.46744 0
M  V30 3970 C 377.825 1.711 -1.60505 0
M  V30 3971 C 378.841 1.67008 -0.488307 0
M  V30 3972 O 380.017 1.86774 -0.753495 0
M  V30 3973 C 377.082 3.07608 -1.59932 0
M  V30 3974 C 376.143 3.22904 -2.82898 0
M  V30 3975 C 375.376 4.529 -2.82343 0
M  V30 3976 O 375.599 5.37278 -1.91542 0
M  V30 3977 O 374.533 4.71611 -3.73987 0
M  V30 3978 H 378.359 1.62436 -2.56609 0
M  V30 3979 H 375.944 0.742779 -1.29627 0
M  V30 3980 H 377.826 3.88877 -1.62336 0
M  V30 3981 H 376.501 3.16692 -0.669898 0
M  V30 3982 H 375.408 2.41099 -2.86046 0
M  V30 3983 H 376.741 3.18715 -3.75076 0
M  V30 3984 N 378.394 1.34581 0.820102 0
M  V30 3985 C 379.341 1.2639 1.93117 0
M  V30 3986 C 380.311 0.138554 1.65521 0
M  V30 3987 O 381.496 0.320004 1.88097 0
M  V30 3988 C 378.636 1.02812 3.29429 0
M  V30 3989 C 377.749 2.24146 3.693 0
M  V30 3990 C 376.884 1.93829 4.94574 0
M  V30 3991 C 375.923 3.1129 5.27034 0
M  V30 3992 N 375.06 2.80838 6.43486 0
M  V30 3993 H 379.9 2.21408 1.99455 0
M  V30 3994 H 377.437 1.10077 0.975784 0
M  V30 3995 H 379.395 0.871788 4.0799 0
M  V30 3996 H 378.025 0.114612 3.22596 0
M  V30 3997 H 377.077 2.50691 2.86109 0
M  V30 3998 H 378.389 3.11899 3.89257 0
M  V30 3999 H 377.543 1.74948 5.80929 0
M  V30 4000 H 376.282 1.03341 4.76626 0
M  V30 4001 H 375.287 3.30764 4.39175 0
M  V30 4002 H 376.512 4.02561 5.4692 0
M  V30 4003 H 374.458 1.92929 6.26988 0
M  V30 4004 H 374.375 3.62123 6.63629 0
M  V30 4005 H 375.643 2.65467 7.32903 0
M  V30 4006 N 379.872 -1.04064 1.18357 0
M  V30 4007 C 381.119 -1.77265 0.978947 0
M  V30 4008 C 381.447 -1.88189 -0.491428 0
M  V30 4009 O 380.702 -1.38653 -1.38108 0
M  V30 4010 C 381.001 -3.20634 1.57888 0
M  V30 4011 C 380.667 -3.29743 3.07539 0
M  V30 4012 C 379.329 -3.31937 3.48384 0
M  V30 4013 C 381.681 -3.29841 4.03552 0
M  V30 4014 C 379.009 -3.3187 4.83818 0
M  V30 4015 C 381.361 -3.31313 5.38901 0
M  V30 4016 C 380.025 -3.31799 5.79194 0
M  V30 4017 H 379.295 -0.648659 0.358222 0
M  V30 4018 H 381.942 -1.22225 1.47422 0
M  V30 4019 H 380.247 -3.78675 1.00561 0
M  V30 4020 H 381.944 -3.75917 1.39598 0
M  V30 4021 H 378.534 -3.28757 2.74986 0
M  V30 4022 H 382.718 -3.27337 3.73047 0
M  V30 4023 H 377.974 -3.30562 5.14333 0
M  V30 4024 H 382.148 -3.30338 6.13066 0
M  V30 4025 H 379.775 -3.315 6.84114 0
M  V30 4026 N 381.35 -0.985608 -1.22978 0
M  V30 4027 C 382.58 -0.674603 -1.95276 0
M  V30 4028 C 382.988 0.763483 -1.73111 0
M  V30 4029 O 382.331 1.52601 -1.02268 0
M  V30 4030 C 382.393 -0.891597 -3.48268 0
M  V30 4031 C 382.057 -2.31275 -3.94158 0
M  V30 4032 C 383.054 -3.29179 -4.02415 0
M  V30 4033 C 380.739 -2.64524 -4.27004 0
M  V30 4034 C 382.733 -4.58407 -4.42879 0
M  V30 4035 C 380.42 -3.93974 -4.67149 0
M  V30 4036 C 381.418 -4.90727 -4.75053 0
M  V30 4037 O 381.106 -6.17865 -5.14294 0
M  V30 4038 H 380.838 -0.249251 -0.628371 0
M  V30 4039 H 383.392 -1.32106 -1.5728 0
M  V30 4040 H 381.622 -0.187962 -3.86243 0
M  V30 4041 H 383.311 -0.576957 -4.01779 0
M  V30 4042 H 384.077 -3.04823 -3.77237 0
M  V30 4043 H 379.956 -1.89923 -4.2006 0
M  V30 4044 H 383.5 -5.33926 -4.48964 0
M  V30 4045 H 379.397 -4.18122 -4.91777 0
M  V30 4046 H 380.165 -6.21694 -5.32389 0
M  V30 4047 N 382.828 1.3818 -0.7579 0
M  V30 4048 C 384.053 2.04827 -0.325679 0
M  V30 4049 C 384.478 1.56788 1.03919 0
M  V30 4050 O 383.836 0.721811 1.66312 0
M  V30 4051 C 383.884 3.58774 -0.362447 0
M  V30 4052 O 382.988 4.07372 0.642033 0
M  V30 4053 H 382.329 0.64833 -0.143402 0
M  V30 4054 H 384.859 1.7677 -1.03023 0
M  V30 4055 H 384.869 4.07434 -0.214844 0
M  V30 4056 H 383.544 3.93096 -1.35824 0
M  V30 4057 H 382.121 3.70068 0.458688 0
M  V30 4058 N 384.306 0.507319 1.49211 0
M  V30 4059 C 385.553 -0.0349529 2.0247 0
M  V30 4060 C 385.881 -1.36409 1.38647 0
M  V30 4061 O 385.136 -1.88841 0.513566 0
M  V30 4062 C 385.435 -0.229513 3.56662 0
M  V30 4063 C 385.101 1.02241 4.39156 0
M  V30 4064 C 383.763 1.36557 4.61417 0
M  V30 4065 C 386.115 1.85428 4.871 0
M  V30 4066 C 383.443 2.53999 5.28868 0
M  V30 4067 C 385.795 3.02028 5.55843 0
M  V30 4068 C 384.459 3.36717 5.76349 0
M  V30 4069 H 383.729 -0.0127902 0.74089 0
M  V30 4070 H 386.376 0.668756 1.79443 0
M  V30 4071 H 384.681 -1.0158 3.78403 0
M  V30 4072 H 386.378 -0.663641 3.9547 0
M  V30 4073 H 382.968 0.745124 4.22073 0
M  V30 4074 H 387.152 1.6023 4.69723 0
M  V30 4075 H 382.408 2.81105 5.42946 0
M  V30 4076 H 386.582 3.66808 5.91967 0
M  V30 4077 H 384.209 4.27821 6.28389 0
M  V30 4078 N 385.784 -1.5574 0.241426 0
M  V30 4079 C 386.717 -2.17168 -0.700935 0
M  V30 4080 C 387.695 -1.12206 -1.1768 0
M  V30 4081 O 388.879 -1.40565 -1.25593 0
M  V30 4082 C 386.006 -2.76796 -1.95196 0
M  V30 4083 C 385.052 -3.94764 -1.61442 0
M  V30 4084 S 385.885 -5.30613 -0.72182 0
M  V30 4085 C 387.041 -5.93691 -1.98197 0
M  V30 4086 H 387.274 -2.96761 -0.178882 0
M  V30 4087 H 384.807 -1.54378 0.0259299 0
M  V30 4088 H 386.765 -3.11787 -2.67019 0
M  V30 4089 H 385.426 -1.9716 -2.44514 0
M  V30 4090 H 384.619 -4.35057 -2.54443 0
M  V30 4091 H 384.221 -3.61022 -0.976672 0
M  V30 4092 H 386.513 -6.10874 -2.92983 0
M  V30 4093 H 387.456 -6.89258 -1.62262 0
M  V30 4094 H 387.864 -5.22709 -2.13156 0
M  V30 4095 N 387.262 0.0317525 -1.57568 0
M  V30 4096 C 388.194 1.06073 -2.03178 0
M  V30 4097 C 389.207 1.32627 -0.944132 0
M  V30 4098 O 390.396 1.30162 -1.22148 0
M  V30 4099 C 387.496 2.40297 -2.38978 0
M  V30 4100 C 386.669 2.33137 -3.70089 0
M  V30 4101 C 385.728 3.49787 -3.9311 0
M  V30 4102 O 384.754 3.29403 -4.64201 0
M  V30 4103 N 385.956 4.71562 -3.38541 0
M  V30 4104 H 388.721 0.672006 -2.92069 0
M  V30 4105 H 386.282 0.219745 -1.60402 0
M  V30 4106 H 388.274 3.1705 -2.51518 0
M  V30 4107 H 386.844 2.71024 -1.55771 0
M  V30 4108 H 386.064 1.415 -3.67928 0
M  V30 4109 H 387.352 2.25493 -4.56104 0
M  V30 4110 H 386.75 4.91024 -2.80912 0
M  V30 4111 H 385.307 5.45689 -3.56464 0
M  V30 4112 N 388.74 1.54641 0.303973 0
M  V30 4113 C 389.687 1.85386 1.37479 0
M  V30 4114 C 390.657 0.702528 1.50512 0
M  V30 4115 O 391.842 0.950867 1.65418 0
M  V30 4116 C 388.982 2.10413 2.73533 0
M  V30 4117 C 388.095 3.38049 2.68974 0
M  V30 4118 C 387.23 3.52934 3.97002 0
M  V30 4119 C 386.269 4.74373 3.86829 0
M  V30 4120 N 385.406 4.8608 5.06627 0
M  V30 4121 H 390.246 2.76732 1.1056 0
M  V30 4122 H 387.783 1.37034 0.534805 0
M  V30 4123 H 389.741 2.22919 3.52652 0
M  V30 4124 H 388.371 1.22338 2.98719 0
M  V30 4125 H 387.423 3.3418 1.81736 0
M  V30 4126 H 388.735 4.27288 2.57346 0
M  V30 4127 H 387.889 3.65088 4.84557 0
M  V30 4128 H 386.628 2.61824 4.1146 0
M  V30 4129 H 385.633 4.62255 2.97658 0
M  V30 4130 H 386.858 5.66888 3.73918 0
M  V30 4131 H 384.804 3.97891 5.21554 0
M  V30 4132 H 384.721 5.69315 4.9741 0
M  V30 4133 H 385.989 5.02587 5.95841 0
M  V30 4134 N 390.218 -0.567019 1.47046 0
M  V30 4135 C 391.151 -1.69016 1.53326 0
M  V30 4136 C 392.129 -1.57949 0.386126 0
M  V30 4137 O 393.313 -1.78945 0.592529 0
M  V30 4138 C 390.44 -3.07191 1.42658 0
M  V30 4139 C 389.486 -3.36733 2.6175 0
M  V30 4140 S 390.319 -3.27069 4.24012 0
M  V30 4141 C 391.475 -4.67755 4.1588 0
M  V30 4142 H 391.708 -1.63434 2.48348 0
M  V30 4143 H 389.241 -0.747048 1.35124 0
M  V30 4144 H 391.199 -3.86897 1.37191 0
M  V30 4145 H 389.86 -3.10249 0.490369 0
M  V30 4146 H 389.053 -4.37441 2.50323 0
M  V30 4147 H 388.655 -2.64627 2.64289 0
M  V30 4148 H 390.947 -5.58491 3.83529 0
M  V30 4149 H 391.89 -4.84239 5.16641 0
M  V30 4150 H 392.298 -4.45341 3.46889 0
M  V30 4151 N 391.696 -1.35014 -0.812953 0
M  V30 4152 C 392.942 -1.2812 -1.57204 0
M  V30 4153 C 393.275 0.145869 -1.93651 0
M  V30 4154 O 392.55 1.0937 -1.60836 0
M  V30 4155 C 392.833 -2.18162 -2.86492 0
M  V30 4156 C 392.686 -3.69454 -2.56561 0
M  V30 4157 C 394.005 -2.07439 -3.88145 0
M  V30 4158 H 391.124 -0.466746 -0.570366 0
M  V30 4159 H 393.766 -1.65357 -0.935783 0
M  V30 4160 H 391.916 -1.86535 -3.40789 0
M  V30 4161 H 393.588 -4.11493 -2.08497 0
M  V30 4162 H 391.831 -3.9005 -1.89851 0
M  V30 4163 H 392.502 -4.27835 -3.48799 0
M  V30 4164 H 394.978 -2.35228 -3.4323 0
M  V30 4165 H 393.854 -2.7265 -4.76396 0
M  V30 4166 H 394.115 -1.05439 -4.29343 0
M  V30 4167 N 393.175 1.03435 -1.18907 0
M  V30 4168 C 394.122 2.11591 -0.921837 0
M  V30 4169 C 395.092 1.65499 0.141226 0
M  V30 4170 O 396.277 1.908 0.000242829 0
M  V30 4171 C 393.417 3.42012 -0.460616 0
M  V30 4172 C 392.53 4.01682 -1.58982 0
M  V30 4173 C 391.665 5.20091 -1.08069 0
M  V30 4174 C 390.704 5.71805 -2.18416 0
M  V30 4175 N 389.841 6.81494 -1.68849 0
M  V30 4176 H 394.681 2.33787 -1.8479 0
M  V30 4177 H 392.218 1.1467 -0.921373 0
M  V30 4178 H 394.176 4.16834 -0.174642 0
M  V30 4179 H 392.806 3.19944 0.428467 0
M  V30 4180 H 391.858 3.24127 -1.99113 0
M  V30 4181 H 393.17 4.36084 -2.4214 0
M  V30 4182 H 392.324 6.02051 -0.749615 0
M  V30 4183 H 391.063 4.87209 -0.218771 0
M  V30 4184 H 390.068 4.88461 -2.5236 0
M  V30 4185 H 391.293 6.06728 -3.05054 0
M  V30 4186 H 389.239 6.50475 -0.849572 0
M  V30 4187 H 389.156 7.14994 -2.45601 0
M  V30 4188 H 390.424 7.67063 -1.38689 0
M  V30 4189 N 394.653 0.992116 1.22453 0
M  V30 4190 C 395.563 0.55065 2.28046 0
M  V30 4191 C 396.579 -0.400189 1.69335 0
M  V30 4192 O 397.755 -0.267215 1.99619 0
M  V30 4193 C 394.82 -0.128496 3.46462 0
M  V30 4194 C 393.881 0.865208 4.20491 0
M  V30 4195 C 393.114 0.218377 5.33253 0
M  V30 4196 O 393.337 -0.987894 5.6178 0
M  V30 4197 O 392.271 0.922845 5.94783 0
M  V30 4198 H 396.097 1.4291 2.67975 0
M  V30 4199 H 393.682 0.760326 1.28606 0
M  V30 4200 H 395.564 -0.508947 4.18315 0
M  V30 4201 H 394.239 -0.981526 3.0846 0
M  V30 4202 H 393.146 1.29658 3.50913 0
M  V30 4203 H 394.479 1.68741 4.62371 0
M  V30 4204 N 396.131 -1.37776 0.765217 0
M  V30 4205 C 397.081 -2.2768 0.12075 0
M  V30 4206 C 398.065 -1.45778 -0.680988 0
M  V30 4207 O 399.257 -1.684 -0.545033 0
M  V30 4208 C 396.386 -3.34722 -0.762626 0
M  V30 4209 C 395.472 -4.24074 0.0465881 0
M  V30 4210 N 395.863 -4.93939 1.08892 0
M  V30 4211 C 394.161 -4.45643 -0.178418 0
M  V30 4212 C 394.862 -5.59845 1.57951 0
M  V30 4213 N 393.838 -5.36218 0.892797 0
M  V30 4214 H 397.64 -2.79166 0.918889 0
M  V30 4215 H 395.154 -1.50816 0.602353 0
M  V30 4216 H 397.151 -3.98031 -1.24005 0
M  V30 4217 H 395.811 -2.84793 -1.55959 0
M  V30 4218 H 396.822 -4.96572 1.47095 0
M  V30 4219 H 393.499 -4.06599 -0.9478 0
M  V30 4220 H 394.889 -6.25703 2.44838 0
M  V30 4221 N 397.609 -0.515225 -1.4894 0
M  V30 4222 C 398.839 0.0205735 -2.0659 0
M  V30 4223 C 399.247 1.30064 -1.37405 0
M  V30 4224 O 398.59 1.78087 -0.450632 0
M  V30 4225 C 398.652 0.330124 -3.57981 0
M  V30 4226 C 398.316 -0.854295 -4.48944 0
M  V30 4227 C 399.313 -1.7487 -4.89609 0
M  V30 4228 C 396.998 -1.05712 -4.9105 0
M  V30 4229 C 398.992 -2.82996 -5.71132 0
M  V30 4230 C 396.679 -2.14154 -5.72347 0
M  V30 4231 C 397.677 -3.0263 -6.12294 0
M  V30 4232 O 397.365 -4.09198 -6.91962 0
M  V30 4233 H 397.097 -0.0236833 -0.675585 0
M  V30 4234 H 399.651 -0.715956 -1.92518 0
M  V30 4235 H 397.881 1.12044 -3.70112 0
M  V30 4236 H 399.57 0.806233 -3.97812 0
M  V30 4237 H 400.336 -1.60388 -4.57712 0
M  V30 4238 H 396.215 -0.377788 -4.59449 0
M  V30 4239 H 399.759 -3.52083 -6.02232 0
M  V30 4240 H 395.656 -2.28626 -6.03656 0
M  V30 4241 H 396.424 -4.06726 -7.10293 0
M  V30 4242 N 399.087 1.5561 -0.249682 0
M  V30 4243 C 400.034 2.21496 0.648694 0
M  V30 4244 C 401.004 1.17977 1.16921 0
M  V30 4245 O 402.189 1.46434 1.22318 0
M  V30 4246 C 399.329 2.92039 1.83868 0
M  V30 4247 C 398.442 4.10219 1.35442 0
M  V30 4248 C 397.577 4.6847 2.50419 0
M  V30 4249 C 396.616 5.78893 1.98869 0
M  V30 4250 N 395.753 6.31315 3.07223 0
M  V30 4251 H 400.593 2.97892 0.0801582 0
M  V30 4252 H 398.13 1.47074 0.0278031 0
M  V30 4253 H 400.088 3.31138 2.53778 0
M  V30 4254 H 398.718 2.18111 2.37965 0
M  V30 4255 H 397.77 3.76413 0.54928 0
M  V30 4256 H 399.082 4.89927 0.936649 0
M  V30 4257 H 398.236 5.10158 3.28366 0
M  V30 4258 H 396.975 3.87984 2.95499 0
M  V30 4259 H 395.98 5.3668 1.19393 0
M  V30 4260 H 397.205 6.61232 1.54755 0
M  V30 4261 H 395.151 5.53733 3.51732 0
M  V30 4262 H 395.068 7.06224 2.69784 0
M  V30 4263 H 396.336 6.77662 3.8522 0
M  V30 4264 N 400.565 -0.0233959 1.57583 0
M  V30 4265 C 401.793 -0.724682 1.93794 0
M  V30 4266 C 402.208 -1.68588 0.849912 0
M  V30 4267 O 401.565 -1.81676 -0.173204 0
M  V30 4268 C 401.616 -1.47684 3.29957 0
M  V30 4269 O 401.337 -0.554222 4.3458 0
M  V30 4270 C 402.838 -2.27477 3.80485 0
M  V30 4271 H 400.058 -0.203317 0.639455 0
M  V30 4272 H 402.602 0.0207653 2.04489 0
M  V30 4273 H 400.757 -2.17412 3.20641 0
M  V30 4274 H 401.171 -1.08232 5.13212 0
M  V30 4275 H 402.645 -2.7564 4.78254 0
M  V30 4276 H 403.122 -3.09144 3.11972 0
M  V30 4277 H 403.728 -1.62813 3.92902 0
M  V30 4278 N 402.043 -1.548 -0.295768 0
M  V30 4279 C 403.29 -1.74329 -1.03032 0
M  V30 4280 C 403.618 -0.531915 -1.87085 0
M  V30 4281 O 402.873 0.486052 -1.89568 0
M  V30 4282 C 403.172 -2.98797 -1.961 0
M  V30 4283 C 402.838 -4.32356 -1.2798 0
M  V30 4284 C 401.5 -4.68661 -1.09135 0
M  V30 4285 C 403.852 -5.15128 -0.793243 0
M  V30 4286 C 401.18 -5.85312 -0.403269 0
M  V30 4287 C 403.532 -6.32488 -0.118854 0
M  V30 4288 C 402.196 -6.6745 0.0815043 0
M  V30 4289 H 401.466 -0.637916 -0.37702 0
M  V30 4290 H 404.113 -1.8906 -0.304696 0
M  V30 4291 H 402.418 -2.78869 -2.75207 0
M  V30 4292 H 404.115 -3.11102 -2.53015 0
M  V30 4293 H 400.705 -4.03808 -1.43655 0
M  V30 4294 H 404.889 -4.87575 -0.92653 0
M  V30 4295 H 400.145 -6.1094 -0.237098 0
M  V30 4296 H 404.319 -6.95892 0.266035 0
M  V30 4297 H 401.946 -7.57695 0.616685 0
M  V30 4298 N 403.521 0.559213 -1.47345 0
M  V30 4299 C 404.431 1.69388 -1.62311 0
M  V30 4300 C 405.447 1.6648 -0.505993 0
M  V30 4301 O 406.623 1.85964 -0.773262 0
M  V30 4302 C 403.688 3.05894 -1.63185 0
M  V30 4303 C 402.749 3.19885 -2.86307 0
M  V30 4304 C 401.982 4.49879 -2.87131 0
M  V30 4305 O 402.205 5.35217 -1.97229 0
M  V30 4306 O 401.139 4.67618 -3.78968 0
M  V30 4307 H 404.965 1.59706 -2.58317 0
M  V30 4308 H 402.55 0.728989 -1.30407 0
M  V30 4309 H 404.432 3.87133 -1.66451 0
M  V30 4310 H 403.107 3.15964 -0.70345 0
M  V30 4311 H 402.014 2.38052 -2.88587 0
M  V30 4312 H 403.347 3.14718 -3.78435 0
M  V30 4313 N 404.999 1.35443 0.805782 0
M  V30 4314 C 405.946 1.28431 1.91766 0
M  V30 4315 C 406.916 0.156102 1.65365 0
M  V30 4316 O 408.101 0.339936 1.87747 0
M  V30 4317 C 405.241 1.06301 3.2832 0
M  V30 4318 C 404.354 2.2805 3.66902 0
M  V30 4319 C 403.489 1.99064 4.92491 0
M  V30 4320 C 402.528 3.16863 5.23703 0
M  V30 4321 N 401.665 2.87647 6.40471 0
M  V30 4322 H 406.505 2.23511 1.97096 0
M  V30 4323 H 404.042 1.11105 0.964054 0
M  V30 4324 H 406 0.915012 4.07042 0
M  V30 4325 H 404.63 0.148822 3.22457 0
M  V30 4326 H 403.682 2.53711 2.83434 0
M  V30 4327 H 404.994 3.1601 3.85927 0
M  V30 4328 H 404.148 1.81099 5.7904 0
M  V30 4329 H 402.887 1.0839 4.75503 0
M  V30 4330 H 401.892 3.35404 4.35642 0
M  V30 4331 H 403.117 4.08339 5.4262 0
M  V30 4332 H 401.063 1.99568 6.24907 0
M  V30 4333 H 400.98 3.69141 6.59751 0
M  V30 4334 H 402.248 2.73226 7.30047 0
M  V30 4335 N 406.477 -1.02803 1.19454 0
M  V30 4336 C 407.725 -1.75869 0.995722 0
M  V30 4337 C 408.046 -1.89138 -0.474543 0
M  V30 4338 O 407.316 -1.42558 -1.34366 0
M  V30 4339 H 405.896 -0.651511 0.365435 0
M  V30 4340 H 408.558 -1.24004 1.50363 0
M  V30 4341 H 407.654 -2.76661 1.44447 0
M  V30 4342 N 407.956 -0.998596 -1.21925 0
M  V30 4343 C 408.906 -0.524743 -2.21879 0
M  V30 4344 C 409.89 0.41017 -1.55584 0
M  V30 4345 O 411.082 0.236063 -1.75419 0
M  V30 4346 C 408.211 0.153636 -3.42956 0
M  V30 4347 C 407.297 -0.801918 -4.16449 0
M  V30 4348 N 407.688 -1.95211 -4.66611 0
M  V30 4349 C 405.986 -0.618972 -4.41684 0
M  V30 4350 C 406.687 -2.55234 -5.22715 0
M  V30 4351 N 405.663 -1.83451 -5.1171 0
M  V30 4352 H 409.465 -1.40189 -2.58311 0
M  V30 4353 H 406.979 -0.86159 -1.3766 0
M  V30 4354 H 408.976 0.510534 -4.13762 0
M  V30 4355 H 407.636 1.02684 -3.08036 0
M  V30 4356 H 408.647 -2.33271 -4.62391 0
M  V30 4357 H 405.324 0.207694 -4.16983 0
M  V30 4358 H 406.714 -3.52471 -5.72026 0
M  V30 4359 N 409.434 1.37368 -0.772513 0
M  V30 4360 C 410.683 1.98918 -0.333861 0
M  V30 4361 C 410.996 1.62017 1.09589 0
M  V30 4362 O 412.202 2.16676 1.63596 0
M  V30 4363 C 410.658 3.55735 -0.545971 0
M  V30 4364 C 410.266 4.01573 -1.98603 0
M  V30 4365 C 412.01 4.24156 -0.170979 0
M  V30 4366 C 409.917 5.51102 -2.1457 0
M  V30 4367 H 408.847 0.744214 -0.121085 0
M  V30 4368 H 411.498 1.56888 -0.95175 0
M  V30 4369 H 409.88 3.95748 0.141387 0
M  V30 4370 H 411.054 3.72803 -2.7084 0
M  V30 4371 H 409.369 3.45937 -2.31769 0
M  V30 4372 H 411.966 5.34024 -0.26878 0
M  V30 4373 H 412.309 4.06917 0.878855 0
M  V30 4374 H 412.842 3.89447 -0.810914 0
M  V30 4375 H 409.581 5.73268 -3.17875 0
M  V30 4376 H 409.101 5.81554 -1.46817 0
M  V30 4377 H 410.78 6.17083 -1.94468 0
M  V30 4378 N 410.912 0.523116 1.48665 0
M  V30 4379 C 412.328 0.180511 1.58576 0
M  V30 4380 C 412.528 -1.31597 1.52592 0
M  V30 4381 O 411.584 -2.0937 1.4114 0
M  V30 4382 C 412.897 0.776949 2.90489 0
M  V30 4383 C 414.445 0.745058 3.04003 0
M  V30 4384 C 414.92 1.31995 4.38567 0
M  V30 4385 N 416.411 1.28162 4.45117 0
M  V30 4386 C 417.146 1.6964 5.47731 0
M  V30 4387 N 416.642 2.18816 6.57337 0
M  V30 4388 N 418.435 1.6092 5.38573 0
M  V30 4389 H 410.586 1.4958 1.50797 0
M  V30 4390 H 412.849 0.621772 0.715614 0
M  V30 4391 H 412.555 1.82732 3.00503 0
M  V30 4392 H 412.429 0.25007 3.7637 0
M  V30 4393 H 414.816 -0.296532 2.93606 0
M  V30 4394 H 414.897 1.30933 2.1975 0
M  V30 4395 H 414.541 2.36043 4.49718 0
M  V30 4396 H 414.471 0.731418 5.21496 0
M  V30 4397 H 416.962 0.92155 3.66491 0
M  V30 4398 H 417.275 2.48478 7.31764 0
M  V30 4399 H 415.62 2.22805 6.58318 0
M  V30 4400 H 418.811 1.22304 4.5184 0
M  V30 4401 H 418.984 1.93567 6.18414 0
M  V30 4402 N 412.39 -1.55475 0.257931 0
M  V30 4403 C 413.667 -1.91155 -0.414629 0
M  V30 4404 C 414.047 -1.18008 -1.75035 0
M  V30 4405 O 413.395 -0.301193 -2.26506 0
M  V30 4406 C 413.605 -3.44283 -0.571859 0
M  V30 4407 C 414.953 -4.15744 -0.862678 0
M  V30 4408 O 415.977 -3.50083 -0.657314 0
M  V30 4409 O 414.836 -5.31909 -1.2544 0
M  V30 4410 H 411.93 -0.796016 -0.22425 0
M  V30 4411 H 414.476 -1.66976 0.302814 0
M  V30 4412 H 413.248 -3.89558 0.368844 0
M  V30 4413 H 412.871 -3.7436 -1.33943 0
M  V30 4414 N 413.868 0.0150385 -1.57593 0
M  V30 4415 C 415.117 0.702115 -1.89085 0
M  V30 4416 C 415.43 1.75764 -0.858277 0
M  V30 4417 O 416.636 2.49829 -1.0629 0
M  V30 4418 C 415.092 1.29992 -3.35604 0
M  V30 4419 C 414.7 0.280007 -4.47124 0
M  V30 4420 C 416.444 1.96606 -3.76227 0
M  V30 4421 C 414.351 0.886949 -5.84711 0
M  V30 4422 H 413.281 0.265997 -0.705522 0
M  V30 4423 H 415.932 -0.0430408 -1.8345 0
M  V30 4424 H 414.314 2.09525 -3.36029 0
M  V30 4425 H 415.488 -0.489631 -4.58191 0
M  V30 4426 H 413.803 -0.284835 -4.15425 0
M  V30 4427 H 416.4 2.42893 -4.76347 0
M  V30 4428 H 416.743 2.79024 -3.08952 0
M  V30 4429 H 417.276 1.23828 -3.78036 0
M  V30 4430 H 414.015 0.101876 -6.55421 0
M  V30 4431 H 413.535 1.6261 -5.77337 0
M  V30 4432 H 415.214 1.39011 -6.3189 0
M  V30 4433 N 415.346 1.54954 0.287554 0
M  V30 4434 C 416.574 1.78881 1.03967 0
M  V30 4435 C 416.989 0.554894 1.80462 0
M  V30 4436 O 416.346 -0.475676 1.76192 0
M  V30 4437 C 416.397 3.00488 2.0097 0
M  V30 4438 O 416.118 4.19113 1.27577 0
M  V30 4439 C 417.619 3.36907 2.88112 0
M  V30 4440 H 414.839 0.596259 0.307761 0
M  V30 4441 H 417.383 2.01937 0.322749 0
M  V30 4442 H 415.538 2.79601 2.68145 0
M  V30 4443 H 415.952 4.87765 1.92835 0
M  V30 4444 H 417.426 4.25205 3.52001 0
M  V30 4445 H 417.903 2.55659 3.57121 0
M  V30 4446 H 418.509 3.60001 2.26449 0
M  V30 4447 N 416.824 -0.551391 1.4764 0
M  V30 4448 C 418.101 -1.31229 1.45046 0
M  V30 4449 C 418.481 -2.10563 0.150527 0
M  V30 4450 O 417.829 -2.11374 -0.867956 0
M  V30 4451 C 418.039 -2.21189 2.69956 0
M  V30 4452 C 419.387 -2.82021 3.1741 0
M  V30 4453 O 420.411 -2.31488 2.70724 0
M  V30 4454 O 419.27 -3.73885 3.98588 0
M  V30 4455 H 416.364 -0.591193 0.578291 0
M  V30 4456 H 418.91 -0.569813 1.59847 0
M  V30 4457 H 417.682 -1.62207 3.56096 0
M  V30 4458 H 417.305 -3.02722 2.57769 0
M  V30 4459 N 418.302 -1.35869 -0.798587 0
M  V30 4460 C 419.527 -1.32883 -1.59238 0
M  V30 4461 C 419.952 0.0894587 -1.87887 0
M  V30 4462 O 419.31 1.05869 -1.47178 0
M  V30 4463 C 419.358 -2.14892 -2.89575 0
M  V30 4464 O 418.462 -1.53512 -3.82763 0
M  V30 4465 H 417.803 -0.455236 -0.48338 0
M  V30 4466 H 420.333 -1.79024 -0.990539 0
M  V30 4467 H 420.343 -2.27139 -3.38928 0
M  V30 4468 H 419.018 -3.17998 -2.68049 0
M  V30 4469 H 417.595 -1.50153 -3.41334 0
M  V30 4470 N 419.78 1.02168 -1.19998 0
M  V30 4471 C 420.71 2.12488 -0.96804 0
M  V30 4472 C 421.691 1.69799 0.101185 0
M  V30 4473 O 422.876 1.94121 -0.0552993 0
M  V30 4474 C 420.006 3.43479 -0.513776 0
M  V30 4475 C 418.96 3.99884 -1.52566 0
M  V30 4476 C 418.286 5.26582 -0.928214 0
M  V30 4477 C 419.586 4.33861 -2.90795 0
M  V30 4478 H 421.28 2.32149 -1.89069 0
M  V30 4479 H 418.826 1.11564 -0.910468 0
M  V30 4480 H 420.779 4.20036 -0.338774 0
M  V30 4481 H 419.503 3.23561 0.444493 0
M  V30 4482 H 418.162 3.25429 -1.68794 0
M  V30 4483 H 417.81 5.02986 0.0378289 0
M  V30 4484 H 417.51 5.65284 -1.60397 0
M  V30 4485 H 419.034 6.05799 -0.764167 0
M  V30 4486 H 420.448 5.01327 -2.78109 0
M  V30 4487 H 418.845 4.83664 -3.55231 0
M  V30 4488 H 419.915 3.42848 -3.42904 0
M  V30 4489 N 421.258 1.00505 1.21394 0
M  V30 4490 C 422.507 0.683159 1.89778 0
M  V30 4491 C 422.82 -0.789471 1.7896 0
M  V30 4492 O 424.026 -1.22344 2.42372 0
M  V30 4493 C 422.482 1.17146 3.40301 0
M  V30 4494 C 422.09 2.67017 3.5973 0
M  V30 4495 C 423.834 0.924461 4.14311 0
M  V30 4496 C 421.741 3.09387 5.04017 0
M  V30 4497 H 420.671 0.25183 0.710702 0
M  V30 4498 H 423.322 1.21622 1.37406 0
M  V30 4499 H 421.704 0.566451 3.91928 0
M  V30 4500 H 422.878 3.32968 3.18542 0
M  V30 4501 H 421.193 2.89732 2.99073 0
M  V30 4502 H 423.79 1.21658 5.20676 0
M  V30 4503 H 424.133 -0.139286 4.16067 0
M  V30 4504 H 424.666 1.49226 3.6875 0
M  V30 4505 H 421.405 4.14989 5.07409 0
M  V30 4506 H 420.925 2.48149 5.46061 0
M  V30 4507 H 422.604 3.01371 5.72525 0
M  V30 4508 N 422.737 -1.36956 0.779787 0
M  V30 4509 C 423.647 -2.33965 0.172491 0
M  V30 4510 C 424.663 -1.60574 -0.670222 0
M  V30 4511 O 425.839 -1.92617 -0.588263 0
M  V30 4512 C 422.904 -3.39761 -0.690173 0
M  V30 4513 C 421.965 -4.28964 0.169924 0
M  V30 4514 C 421.198 -5.29707 -0.651662 0
M  V30 4515 O 421.421 -5.38238 -1.88827 0
M  V30 4516 O 420.355 -6.01873 -0.0566264 0
M  V30 4517 H 424.181 -2.87647 0.974321 0
M  V30 4518 H 421.766 -1.39258 0.541078 0
M  V30 4519 H 423.648 -4.04471 -1.1824 0
M  V30 4520 H 422.323 -2.88394 -1.47006 0
M  V30 4521 H 421.23 -3.67326 0.708696 0
M  V30 4522 H 422.563 -4.83656 0.913085 0
M  V30 4523 N 424.215 -0.530993 -1.48385 0
M  V30 4524 C 425.165 0.251092 -2.26613 0
M  V30 4525 C 426.149 0.908977 -1.32765 0
M  V30 4526 O 427.341 0.811616 -1.57295 0
M  V30 4527 C 424.47 1.29677 -3.17866 0
M  V30 4528 C 423.556 0.643627 -4.19188 0
M  V30 4529 N 423.947 -0.271223 -5.05072 0
M  V30 4530 C 422.245 0.900711 -4.3681 0
M  V30 4531 C 422.946 -0.648109 -5.78078 0
M  V30 4532 N 421.922 -0.00895987 -5.43599 0
M  V30 4533 H 425.724 -0.452702 -2.90393 0
M  V30 4534 H 423.238 -0.349091 -1.58604 0
M  V30 4535 H 425.235 1.87079 -3.72568 0
M  V30 4536 H 423.895 2.00193 -2.55642 0
M  V30 4537 H 424.906 -0.643883 -5.13882 0
M  V30 4538 H 421.583 1.59636 -3.85775 0
M  V30 4539 H 422.973 -1.39833 -6.57188 0
M  V30 4540 N 425.693 1.55336 -0.266172 0
M  V30 4541 C 426.933 2.01303 0.354459 0
M  V30 4542 C 427.297 1.15046 1.53715 0
M  V30 4543 O 428.498 1.50554 2.22681 0
M  V30 4544 C 426.769 3.49748 0.735579 0
M  V30 4545 S 428.328 4.1771 1.34401 0
M  V30 4546 H 425.146 0.702333 0.110674 0
M  V30 4547 H 427.748 1.91653 -0.385916 0
M  V30 4548 H 426.452 4.10181 -0.134196 0
M  V30 4549 H 425.983 3.63364 1.50764 0
M  V30 4550 H 427.998 4.20594 2.63278 0
M  V30 4551 N 427.171 -0.0066808 1.57599 0
M  V30 4552 C 428.103 -1.02827 2.04839 0
M  V30 4553 C 429.116 -1.31108 0.965113 0
M  V30 4554 O 430.305 -1.28202 1.24203 0
M  V30 4555 C 427.405 -2.36464 2.42771 0
M  V30 4556 C 426.578 -2.27219 3.73751 0
M  V30 4557 C 425.637 -3.43489 3.98625 0
M  V30 4558 O 424.663 -3.21976 4.69382 0
M  V30 4559 N 425.865 -4.66116 3.46 0
M  V30 4560 H 428.63 -0.625455 2.93101 0
M  V30 4561 H 426.191 -0.194198 1.60731 0
M  V30 4562 H 428.183 -3.13008 2.56531 0
M  V30 4563 H 426.753 -2.68512 1.60063 0
M  V30 4564 H 425.973 -1.35629 3.70133 0
M  V30 4565 H 427.261 -2.18208 4.59633 0
M  V30 4566 H 426.659 -4.86493 2.88688 0
M  V30 4567 H 425.216 -5.39949 3.65101 0
M  V30 4568 N 428.649 -1.55105 -0.279332 0
M  V30 4569 C 429.559 -1.90638 -1.36727 0
M  V30 4570 C 430.575 -0.802899 -1.54368 0
M  V30 4571 O 431.751 -1.10138 -1.68616 0
M  V30 4572 C 428.816 -2.16547 -2.70755 0
M  V30 4573 C 427.877 -3.40146 -2.61915 0
M  V30 4574 C 427.11 -3.6481 -3.8955 0
M  V30 4575 O 427.333 -2.92095 -4.89935 0
M  V30 4576 O 426.267 -4.58343 -3.90135 0
M  V30 4577 H 430.093 -2.83237 -1.09591 0
M  V30 4578 H 427.678 -1.4157 -0.477306 0
M  V30 4579 H 429.56 -2.34665 -3.50014 0
M  V30 4580 H 428.235 -1.27131 -2.9769 0
M  V30 4581 H 427.142 -3.2737 -1.81052 0
M  V30 4582 H 428.475 -4.29761 -2.3993 0
M  V30 4583 N 430.127 0.543554 -1.4793 0
M  V30 4584 C 431.074 1.64942 -1.6144 0
M  V30 4585 C 432.044 1.59692 -0.456903 0
M  V30 4586 O 433.229 1.78321 -0.678688 0
M  V30 4587 C 430.369 3.03238 -1.64744 0
M  V30 4588 C 429.482 3.18823 -2.91506 0
M  V30 4589 C 428.617 4.47599 -2.86057 0
M  V30 4590 C 427.656 4.56664 -4.07584 0
M  V30 4591 N 426.793 5.76811 -4.00292 0
M  V30 4592 H 431.633 1.52733 -2.55884 0
M  V30 4593 H 429.17 0.7438 -1.2691 0
M  V30 4594 H 431.128 3.83339 -1.64641 0
M  V30 4595 H 429.758 3.1425 -0.738017 0
M  V30 4596 H 428.81 2.32064 -3.01414 0
M  V30 4597 H 430.122 3.21384 -3.81463 0
M  V30 4598 H 429.276 5.35975 -2.84281 0
M  V30 4599 H 428.015 4.47538 -1.93807 0
M  V30 4600 H 427.02 3.66697 -4.09651 0
M  V30 4601 H 428.245 4.58474 -5.00978 0
M  V30 4602 H 426.191 5.77673 -3.10853 0
M  V30 4603 H 426.108 5.80808 -4.8394 0
M  V30 4604 H 427.376 6.67512 -4.02553 0
M  V30 4605 N 431.605 1.3629 0.791371 0
M  V30 4606 C 432.537 1.26321 1.91248 0
M  V30 4607 C 433.55 0.18313 1.61767 0
M  V30 4608 O 434.739 0.437682 1.73051 0
M  V30 4609 C 431.839 0.925901 3.26007 0
M  V30 4610 C 431.012 2.10746 3.83281 0
M  V30 4611 C 430.071 1.74352 4.96475 0
M  V30 4612 O 429.097 2.46416 5.13096 0
M  V30 4613 N 430.299 0.676058 5.7655 0
M  V30 4614 H 433.064 2.22915 2.00323 0
M  V30 4615 H 430.625 1.29659 0.969546 0
M  V30 4616 H 432.617 0.663636 3.99222 0
M  V30 4617 H 431.187 0.0491581 3.12561 0
M  V30 4618 H 430.407 2.53264 3.02077 0
M  V30 4619 H 431.695 2.8969 4.18279 0
M  V30 4620 H 431.093 0.0776467 5.65647 0
M  V30 4621 H 429.65 0.473612 6.50077 0
M  V30 4622 N 433.083 -1.0153 1.20538 0
M  V30 4623 C 434.013 -2.11972 0.979295 0
M  V30 4624 C 434.994 -1.6985 -0.0921787 0
M  V30 4625 O 436.179 -1.94089 0.0655932 0
M  V30 4626 C 433.309 -3.43201 0.531984 0
M  V30 4627 C 432.263 -3.9907 1.54685 0
M  V30 4628 C 431.589 -5.26082 0.956127 0
M  V30 4629 C 432.889 -4.32313 2.93092 0
M  V30 4630 H 434.583 -2.31143 1.90298 0
M  V30 4631 H 432.129 -1.11079 0.916372 0
M  V30 4632 H 434.082 -4.1985 0.361044 0
M  V30 4633 H 432.806 -3.23792 -0.427327 0
M  V30 4634 H 431.465 -3.2453 1.70517 0
M  V30 4635 H 431.113 -5.02999 -0.0111538 0
M  V30 4636 H 430.813 -5.64426 1.63393 0
M  V30 4637 H 432.337 -6.05386 0.796284 0
M  V30 4638 H 433.751 -4.99845 2.80763 0
M  V30 4639 H 432.148 -4.81774 3.57791 0
M  V30 4640 H 433.218 -3.41025 3.44717 0
M  V30 4641 N 434.561 -1.01147 -1.20859 0
M  V30 4642 C 435.838 -0.613136 -1.85742 0
M  V30 4643 C 436.218 0.909004 -1.90526 0
M  V30 4644 O 435.566 1.79862 -1.40932 0
M  V30 4645 C 435.776 -1.255 -3.25654 0
M  V30 4646 C 437.124 -1.3672 -4.01986 0
M  V30 4647 O 438.148 -1.21082 -3.34989 0
M  V30 4648 O 437.007 -1.6194 -5.21956 0
M  V30 4649 H 434.101 -0.210878 -0.799662 0
M  V30 4650 H 436.647 -1.10853 -1.2849 0
M  V30 4651 H 435.419 -2.29532 -3.16908 0
M  V30 4652 H 435.042 -0.746369 -3.90532 0
M  V30 4653 N 436.039 1.36541 -0.78704 0
M  V30 4654 C 436.949 2.3387 -0.184896 0
M  V30 4655 C 437.965 1.60927 0.661697 0
M  V30 4656 O 439.141 1.92927 0.57804 0
M  V30 4657 C 436.206 3.40122 0.672145 0
M  V30 4658 C 435.267 4.28867 -0.19267 0
M  V30 4659 C 434.5 5.30045 0.623561 0
M  V30 4660 O 434.723 5.39232 1.8597 0
M  V30 4661 O 433.657 6.01895 0.0247068 0
M  V30 4662 H 437.483 2.87126 -0.989562 0
M  V30 4663 H 435.068 1.38969 -0.548455 0
M  V30 4664 H 436.95 4.05093 1.16094 0
M  V30 4665 H 435.625 2.89169 1.45474 0
M  V30 4666 H 434.532 3.66945 -0.728166 0
M  V30 4667 H 435.865 4.83165 -0.938722 0
M  V30 4668 N 437.518 0.538854 1.48102 0
M  V30 4669 C 438.466 -0.232325 2.31437 0
M  V30 4670 C 439.46 -0.927004 1.41785 0
M  V30 4671 O 440.666 -0.850378 1.58646 0
M  V30 4672 H 437.041 -0.0937916 0.746128 0
M  V30 4673 H 439.012 0.489986 2.9435 0
M  V30 4674 C 437.761 -1.26074 3.24038 0
M  V30 4675 H 437.084 -0.735609 3.92974 0
M  V30 4676 H 438.524 -1.77157 3.85216 0
M  V30 4677 C 436.983 -2.29902 2.46265 0
M  V30 4678 O 437.513 -3.36502 2.19384 0
M  V30 4679 N 435.719 -2.03348 2.07601 0
M  V30 4680 H 435.266 -1.16675 2.29662 0
M  V30 4681 H 435.224 -2.73038 1.55877 0
M  V30 4682 N 438.996 -1.55193 0.274407 0
M  V30 4683 C 439.959 -2.212 -0.600279 0
M  V30 4684 C 440.959 -1.18963 -1.08187 0
M  V30 4685 O 442.149 -1.43873 -0.982158 0
M  V30 4686 C 439.281 -2.87739 -1.82809 0
M  V30 4687 H 440.474 -2.9989 -0.0239682 0
M  V30 4688 H 438.027 -1.5628 0.0250192 0
M  V30 4689 H 438.762 -2.13058 -2.44493 0
M  V30 4690 H 438.547 -3.62658 -1.49069 0
M  V30 4691 H 440.037 -3.38171 -2.45011 0
M  V30 4692 N 440.474 -0.00167713 -1.576 0
M  V30 4693 C 441.422 1.0074 -2.09652 0
M  V30 4694 C 442.416 1.35483 -1.01689 0
M  V30 4695 O 443.622 1.34028 -1.20152 0
M  V30 4696 H 439.997 0.342537 -0.669457 0
M  V30 4697 H 441.968 0.542841 -2.93421 0
M  V30 4698 C 440.717 2.2899 -2.61647 0
M  V30 4699 H 440.04 2.03124 -3.44355 0
M  V30 4700 H 441.48 2.9787 -3.01744 0
M  V30 4701 C 439.939 3.00085 -1.53136 0
M  V30 4702 O 440.469 3.91135 -0.91524 0
M  V30 4703 N 438.675 2.6194 -1.25841 0
M  V30 4704 H 438.222 1.8798 -1.76129 0
M  V30 4705 H 438.18 3.09822 -0.534576 0
M  V30 4706 N 441.952 1.55251 0.271103 0
M  V30 4707 C 443.198 1.76207 1.00394 0
M  V30 4708 C 443.531 0.562604 1.85872 0
M  V30 4709 O 442.806 -0.439785 1.89463 0
M  V30 4710 C 443.089 3.06828 1.8849 0
M  V30 4711 C 442.942 4.37134 1.05992 0
M  V30 4712 C 444.261 3.33503 2.87165 0
M  V30 4713 H 441.38 0.641086 0.363562 0
M  V30 4714 H 444.022 1.87982 0.276189 0
M  V30 4715 H 442.172 2.96921 2.5054 0
M  V30 4716 H 443.844 4.59001 0.459978 0
M  V30 4717 H 442.087 4.32275 0.363443 0
M  V30 4718 H 442.758 5.2486 1.70955 0
M  V30 4719 H 445.234 3.43215 2.3525 0
M  V30 4720 H 444.11 4.2616 3.45946 0
M  V30 4721 H 444.371 2.53235 3.62387 0
M  V30 4722 N 443.43 -0.535701 1.48216 0
M  V30 4723 C 444.362 -1.65662 1.58394 0
M  V30 4724 C 445.375 -1.5591 0.468607 0
M  V30 4725 O 446.564 -1.62475 0.7392 0
M  V30 4726 C 443.664 -3.04276 1.4923 0
M  V30 4727 C 442.837 -3.39567 2.75705 0
M  V30 4728 C 441.896 -4.57436 2.60075 0
M  V30 4729 O 440.922 -4.60942 3.33948 0
M  V30 4730 N 442.124 -5.55259 1.69315 0
M  V30 4731 H 444.889 -1.5737 2.55058 0
M  V30 4732 H 442.45 -0.722845 1.44867 0
M  V30 4733 H 444.442 -3.80994 1.36477 0
M  V30 4734 H 443.012 -3.06677 0.605632 0
M  V30 4735 H 442.232 -2.52083 3.03064 0
M  V30 4736 H 443.52 -3.59929 3.59623 0
M  V30 4737 H 442.918 -5.552 1.08489 0
M  V30 4738 H 441.475 -6.31218 1.62504 0
M  V30 4739 N 444.908 -1.36708 -0.784132 0
M  V30 4740 C 445.838 -1.34153 -1.91116 0
M  V30 4741 C 446.819 -0.212121 -1.68772 0
M  V30 4742 O 448.004 -0.410581 -1.8981 0
M  V30 4743 C 445.134 -1.13535 -3.28218 0
M  V30 4744 C 444.088 -2.23356 -3.65097 0
M  V30 4745 C 443.414 -1.87875 -5.00607 0
M  V30 4746 C 444.714 -3.65473 -3.73131 0
M  V30 4747 H 446.408 -2.28459 -1.93512 0
M  V30 4748 H 443.954 -1.09973 -0.929618 0
M  V30 4749 H 445.907 -1.10381 -4.06687 0
M  V30 4750 H 444.631 -0.156804 -3.26223 0
M  V30 4751 H 443.29 -2.25645 -2.88929 0
M  V30 4752 H 442.938 -0.885814 -4.95139 0
M  V30 4753 H 442.638 -2.61406 -5.26252 0
M  V30 4754 H 444.162 -1.86286 -5.81489 0
M  V30 4755 H 445.576 -3.65382 -4.41779 0
M  V30 4756 H 443.973 -4.37953 -4.10265 0
M  V30 4757 H 445.043 -3.99995 -2.74102 0
M  V30 4758 N 446.386 1.0089 -1.21074 0
M  V30 4759 C 447.611 1.78727 -1.05221 0
M  V30 4760 C 448.036 1.83932 0.393795 0
M  V30 4761 O 447.394 1.28004 1.28393 0
M  V30 4762 C 447.442 3.20665 -1.64944 0
M  V30 4763 O 446.546 4.02632 -0.892273 0
M  V30 4764 H 445.887 0.550973 -0.370574 0
M  V30 4765 H 448.417 1.26847 -1.60534 0
M  V30 4766 H 448.427 3.71352 -1.69002 0
M  V30 4767 H 447.102 3.16191 -2.70177 0
M  V30 4768 H 445.679 3.61207 -0.926492 0
M  V30 4769 N 447.864 1.01787 1.20321 0
M  V30 4770 C 449.141 0.622978 1.85414 0
M  V30 4771 C 449.521 -0.898887 1.91006 0
M  V30 4772 O 448.869 -1.79112 1.41884 0
M  V30 4773 C 449.079 1.27226 3.24984 0
M  V30 4774 C 450.427 1.3885 4.01255 0
M  V30 4775 O 451.451 1.22857 3.34342 0
M  V30 4776 O 450.31 1.64705 5.2109 0
M  V30 4777 H 447.404 0.215116 0.798533 0
M  V30 4778 H 449.95 1.11533 1.27901 0
M  V30 4779 H 448.722 2.31209 3.15687 0
M  V30 4780 H 448.345 0.767069 3.90131 0
M  V30 4781 N 449.342 -1.36122 0.79427 0
M  V30 4782 C 450.252 -2.33769 0.197296 0
M  V30 4783 C 451.268 -1.61276 -0.653153 0
M  V30 4784 O 452.444 -1.9323 -0.5678 0
M  V30 4785 C 449.509 -3.40474 -0.654098 0
M  V30 4786 C 448.57 -4.28759 0.215411 0
M  V30 4787 C 447.803 -5.30368 -0.595443 0
M  V30 4788 O 448.026 -5.40211 -1.83107 0
M  V30 4789 O 446.96 -6.019 0.00721351 0
M  V30 4790 H 450.786 -2.86597 1.00478 0
M  V30 4791 H 448.371 -1.38676 0.555818 0
M  V30 4792 H 450.253 -4.05703 -1.13944 0
M  V30 4793 H 448.928 -2.89937 -1.43938 0
M  V30 4794 H 447.835 -3.66554 0.747615 0
M  V30 4795 H 449.168 -4.82661 0.964332 0
M  V30 4796 N 450.82 -0.546701 -1.47814 0
M  V30 4797 C 451.767 0.206854 -2.29871 0
M  V30 4798 C 452.737 0.918235 -1.38411 0
M  V30 4799 O 453.922 0.915991 -1.67375 0
M  V30 4800 C 451.062 1.23746 -3.22151 0
M  V30 4801 C 450.175 0.533216 -4.28697 0
M  V30 4802 C 449.31 1.5482 -5.08138 0
M  V30 4803 C 448.349 0.828347 -6.06469 0
M  V30 4804 N 447.486 1.78966 -6.78908 0
M  V30 4805 H 452.326 -0.499037 -2.93792 0
M  V30 4806 H 449.863 -0.25793 -1.44821 0
M  V30 4807 H 451.821 1.84746 -3.74065 0
M  V30 4808 H 450.451 1.91151 -2.60117 0
M  V30 4809 H 449.503 -0.191089 -3.7992 0
M  V30 4810 H 450.815 -0.0311987 -4.9879 0
M  V30 4811 H 449.969 2.23202 -5.6415 0
M  V30 4812 H 448.708 2.14652 -4.37922 0
M  V30 4813 H 447.713 0.130539 -5.49645 0
M  V30 4814 H 448.938 0.235907 -6.7869 0
M  V30 4815 H 446.884 2.37675 -6.1143 0
M  V30 4816 H 446.801 1.27712 -7.45135 0
M  V30 4817 H 448.069 2.46496 -7.395 0
M  V30 4818 N 452.299 1.55045 -0.282633 0
M  V30 4819 C 453.548 1.98938 0.332667 0
M  V30 4820 C 453.861 1.17455 1.56409 0
M  V30 4821 O 455.067 1.51527 2.25282 0
M  V30 4822 C 453.523 3.54105 0.643226 0
M  V30 4823 C 453.131 4.44374 -0.568814 0
M  V30 4824 C 454.875 4.06569 1.22074 0
M  V30 4825 C 452.782 5.90943 -0.232426 0
M  V30 4826 H 451.712 0.743043 0.128075 0
M  V30 4827 H 454.363 1.79341 -0.388464 0
M  V30 4828 H 452.745 3.69532 1.42346 0
M  V30 4829 H 453.919 4.40718 -1.34551 0
M  V30 4830 H 452.234 4.02585 -1.06369 0
M  V30 4831 H 454.831 5.13626 1.48635 0
M  V30 4832 H 455.174 3.56057 2.15707 0
M  V30 4833 H 455.707 3.94612 0.502621 0
M  V30 4834 H 452.446 6.45567 -1.13683 0
M  V30 4835 H 451.966 5.9765 0.507357 0
M  V30 4836 H 453.645 6.4677 0.172657 0
M  V30 4837 N 453.777 0.010035 1.57597 0
M  V30 4838 C 455.026 -0.671945 1.90178 0
M  V30 4839 C 455.339 -1.74376 0.886131 0
M  V30 4840 O 456.545 -2.48107 1.10252 0
M  V30 4841 C 455.001 -1.24636 3.3763 0
M  V30 4842 C 454.609 -0.208838 4.47513 0
M  V30 4843 C 456.353 -1.90595 3.79307 0
M  V30 4844 C 454.26 -0.793814 5.86048 0
M  V30 4845 H 453.19 -0.25474 0.709665 0
M  V30 4846 H 455.841 0.0722206 1.83358 0
M  V30 4847 H 454.223 -2.04152 3.3932 0
M  V30 4848 H 455.397 0.562463 4.57354 0
M  V30 4849 H 453.712 0.350889 4.14919 0
M  V30 4850 H 456.309 -2.35284 4.80151 0
M  V30 4851 H 456.652 -2.74074 3.13352 0
M  V30 4852 H 457.185 -1.17798 3.79958 0
M  V30 4853 H 453.924 0.00240855 6.555 0
M  V30 4854 H 453.444 -1.53404 5.79851 0
M  V30 4855 H 455.123 -1.2894 6.34022 0
M  V30 4856 N 455.255 -1.55392 -0.262866 0
M  V30 4857 C 456.203 -1.8977 -1.345 0
M  V30 4858 C 457.197 -0.775063 -1.50629 0
M  V30 4859 O 458.403 -0.959519 -1.52293 0
M  V30 4860 H 454.778 -0.602467 -0.450041 0
M  V30 4861 H 456.749 -2.80147 -1.02762 0
M  V30 4862 C 455.498 -2.19501 -2.69657 0
M  V30 4863 H 454.821 -3.05378 -2.5804 0
M  V30 4864 H 456.261 -2.47469 -3.44289 0
M  V30 4865 C 454.72 -1.00597 -3.21531 0
M  V30 4866 O 455.25 -0.245768 -4.00947 0
M  V30 4867 N 453.456 -0.800911 -2.79345 0
M  V30 4868 H 453.003 -1.42079 -2.14875 0
M  V30 4869 H 452.961 -0.00697996 -3.14399 0
M  V30 4870 N 456.733 0.527833 -1.48498 0
M  V30 4871 C 457.982 1.28003 -1.55878 0
M  V30 4872 C 458.295 1.9414 -0.238577 0
M  V30 4873 O 459.501 2.7083 -0.190643 0
M  V30 4874 C 457.957 2.32272 -2.74914 0
M  V30 4875 C 457.565 1.72196 -4.13585 0
M  V30 4876 C 459.309 3.08488 -2.91608 0
M  V30 4877 C 457.216 2.74417 -5.23879 0
M  V30 4878 H 456.146 0.481413 -0.580308 0
M  V30 4879 H 458.797 0.557195 -1.74836 0
M  V30 4880 H 457.179 3.07601 -2.49395 0
M  V30 4881 H 458.353 1.03041 -4.49132 0
M  V30 4882 H 456.668 1.08464 -4.02025 0
M  V30 4883 H 459.265 3.84879 -3.71177 0
M  V30 4884 H 459.608 3.64481 -2.01145 0
M  V30 4885 H 460.141 2.40274 -3.17038 0
M  V30 4886 H 456.88 2.23242 -6.16314 0
M  V30 4887 H 456.4 3.41893 -4.92818 0
M  V30 4888 H 458.079 3.37362 -5.52083 0
M  V30 4889 N 458.211 1.37122 0.776871 0
M  V30 4890 C 459.457 1.32243 1.53752 0
M  V30 4891 C 459.79 -0.0944745 1.9397 0
M  V30 4892 O 459.065 -1.05068 1.6368 0
M  V30 4893 C 459.348 2.25681 2.80607 0
M  V30 4894 C 459.201 3.76127 2.46676 0
M  V30 4895 C 460.52 2.17657 3.82509 0
M  V30 4896 H 457.639 0.481704 0.557791 0
M  V30 4897 H 460.281 1.6778 0.891612 0
M  V30 4898 H 458.431 1.95505 3.35723 0
M  V30 4899 H 460.103 4.16877 1.97513 0
M  V30 4900 H 458.346 3.94946 1.79443 0
M  V30 4901 H 459.017 4.36933 3.37333 0
M  V30 4902 H 461.493 2.44245 3.36873 0
M  V30 4903 H 460.369 2.85185 4.69 0
M  V30 4904 H 460.63 1.16785 4.26396 0
M  V30 4905 N 459.689 -1.00246 1.21608 0
M  V30 4906 C 460.619 -2.10921 1.00172 0
M  V30 4907 C 461.6 -1.69938 -0.0741587 0
M  V30 4908 O 462.785 -1.94009 0.0861753 0
M  V30 4909 C 459.915 -3.42618 0.568355 0
M  V30 4910 C 458.869 -3.97407 1.58909 0
M  V30 4911 C 458.195 -5.25038 1.01187 0
M  V30 4912 C 459.495 -4.2918 2.97661 0
M  V30 4913 H 461.189 -2.29112 1.92739 0
M  V30 4914 H 458.735 -1.10101 0.928102 0
M  V30 4915 H 460.688 -4.19444 0.405555 0
M  V30 4916 H 459.412 -3.24227 -0.392961 0
M  V30 4917 H 458.071 -3.22703 1.73949 0
M  V30 4918 H 457.719 -5.02982 0.0421965 0
M  V30 4919 H 457.419 -5.62661 1.6937 0
M  V30 4920 H 458.943 -6.04507 0.860448 0
M  V30 4921 H 460.357 -4.96839 2.86049 0
M  V30 4922 H 458.754 -4.77952 3.6288 0
M  V30 4923 H 459.824 -3.3735 3.48315 0
M  V30 4924 N 461.167 -1.02423 -1.1978 0
M  V30 4925 C 462.444 -0.632802 -1.85081 0
M  V30 4926 C 462.824 0.888745 -1.9148 0
M  V30 4927 O 462.172 1.78357 -1.42832 0
M  V30 4928 C 462.382 -1.28947 -3.24305 0
M  V30 4929 C 463.73 -1.40976 -4.00513 0
M  V30 4930 O 464.754 -1.24628 -3.33686 0
M  V30 4931 O 463.613 -1.67467 -5.20209 0
M  V30 4932 H 460.707 -0.219348 -0.79738 0
M  V30 4933 H 463.253 -1.12209 -1.27307 0
M  V30 4934 H 462.025 -2.3288 -3.14456 0
M  V30 4935 H 461.648 -0.787748 -3.89718 0
M  V30 4936 N 462.645 1.35699 -0.801477 0
M  V30 4937 C 463.575 2.32436 -0.222658 0
M  V30 4938 C 464.556 1.5723 0.649057 0
M  V30 4939 O 465.741 1.85324 0.580387 0
M  V30 4940 C 462.871 3.41469 0.633719 0
M  V30 4941 C 461.825 4.27774 -0.139083 0
M  V30 4942 C 461.151 5.28082 0.838666 0
M  V30 4943 C 462.451 5.04946 -1.33517 0
M  V30 4944 H 464.145 2.81094 -1.03086 0
M  V30 4945 H 461.691 1.35146 -0.497155 0
M  V30 4946 H 463.644 4.08143 1.04868 0
M  V30 4947 H 462.368 2.91408 1.47475 0
M  V30 4948 H 461.027 3.62673 -0.535156 0
M  V30 4949 H 460.675 4.7429 1.67506 0
M  V30 4950 H 460.375 5.86695 0.32594 0
M  V30 4951 H 461.899 5.97628 1.25194 0
M  V30 4952 H 463.313 5.64593 -0.995349 0
M  V30 4953 H 461.71 5.7303 -1.78202 0
M  V30 4954 H 462.78 4.35886 -2.12442 0
M  V30 4955 N 464.123 0.554532 1.47522 0
M  V30 4956 C 465.37 0.029479 2.02479 0
M  V30 4957 C 465.698 -1.31929 1.42916 0
M  V30 4958 O 464.953 -1.87112 0.573385 0
M  V30 4959 C 465.252 -0.115927 3.57212 0
M  V30 4960 C 464.918 1.16161 4.3568 0
M  V30 4961 C 463.58 1.51168 4.56839 0
M  V30 4962 C 465.932 2.0083 4.80954 0
M  V30 4963 C 463.26 2.70696 5.2052 0
M  V30 4964 C 465.612 3.19559 5.45953 0
M  V30 4965 C 464.276 3.54882 5.65345 0
M  V30 4966 H 463.546 0.0107871 0.740921 0
M  V30 4967 H 466.193 0.725506 1.77225 0
M  V30 4968 H 464.498 -0.894902 3.81443 0
M  V30 4969 H 466.195 -0.53749 3.97381 0
M  V30 4970 H 462.785 0.879026 4.19489 0
M  V30 4971 H 466.969 1.75093 4.64388 0
M  V30 4972 H 462.225 2.98236 5.33728 0
M  V30 4973 H 466.399 3.85456 5.79997 0
M  V30 4974 H 464.026 4.47596 6.1446 0
M  V30 4975 N 465.601 -1.54893 0.290851 0
M  V30 4976 C 466.849 -1.99538 -0.320756 0
M  V30 4977 C 467.17 -1.18075 -1.55188 0
M  V30 4978 O 466.44 -0.274162 -1.93972 0
M  V30 4979 H 465.02 -0.737052 -0.121507 0
M  V30 4980 H 467.682 -1.90755 0.399832 0
M  V30 4981 H 466.778 -3.06282 -0.599802 0
M  V30 4982 N 467.08 -0.0183926 -1.57589 0
M  V30 4983 C 468.043 0.951986 -2.08494 0
M  V30 4984 C 469.043 1.26092 -0.997874 0
M  V30 4985 O 470.233 1.20304 -1.25987 0
M  V30 4986 C 467.365 2.27165 -2.54182 0
M  V30 4987 H 468.558 0.511307 -2.95509 0
M  V30 4988 H 466.111 0.229444 -1.54607 0
M  V30 4989 H 466.846 2.75884 -1.70465 0
M  V30 4990 H 466.631 2.06057 -3.33591 0
M  V30 4991 H 468.121 2.9674 -2.93828 0
M  V30 4992 N 468.558 1.5553 0.254621 0
M  V30 4993 C 469.806 1.7665 0.981793 0
M  V30 4994 C 470.127 0.580963 1.86145 0
M  V30 4995 O 469.397 -0.403537 1.91699 0
M  V30 4996 H 467.977 0.651475 0.365498 0
M  V30 4997 H 470.639 1.92958 0.274426 0
M  V30 4998 H 469.735 2.67486 1.60802 0
M  V30 4999 N 470.036 -0.519951 1.48776 0
M  V30 5000 C 471.283 -1.27522 1.57303 0
M  V30 5001 C 471.611 -1.92869 0.251328 0
M  V30 5002 O 470.866 -1.80372 -0.759243 0
M  V30 5003 C 471.165 -2.37864 2.6675 0
M  V30 5004 C 470.831 -1.90103 4.08867 0
M  V30 5005 C 469.493 -1.76795 4.47546 0
M  V30 5006 C 471.845 -1.54133 4.97888 0
M  V30 5007 C 469.173 -1.25868 5.73039 0
M  V30 5008 C 471.525 -1.04665 6.23881 0
M  V30 5009 C 470.189 -0.899823 6.61407 0
M  V30 5010 H 469.459 -0.466636 0.575614 0
M  V30 5011 H 472.106 -0.579109 1.82534 0
M  V30 5012 H 470.411 -3.13186 2.35418 0
M  V30 5013 H 472.108 -2.95969 2.70561 0
M  V30 5014 H 468.698 -2.01414 3.78326 0
M  V30 5015 H 472.882 -1.6327 4.68675 0
M  V30 5016 H 468.138 -1.13196 6.0083 0
M  V30 5017 H 472.312 -0.759074 6.92251 0
M  V30 5018 H 469.939 -0.503011 7.58534 0
M  V30 5019 N 471.514 -1.37532 -0.769588 0
M  V30 5020 C 472.791 -1.23392 -1.51768 0
M  V30 5021 C 473.171 0.17157 -2.10402 0
M  V30 5022 O 472.519 1.17943 -1.95708 0
M  V30 5023 C 472.729 -2.33163 -2.59685 0
M  V30 5024 C 474.077 -2.70809 -3.27028 0
M  V30 5025 O 475.101 -2.32355 -2.69981 0
M  V30 5026 O 473.96 -3.37066 -4.30173 0
M  V30 5027 H 471.054 -0.481617 -0.67229 0
M  V30 5028 H 473.6 -1.49318 -0.806368 0
M  V30 5029 H 472.372 -3.27273 -2.14494 0
M  V30 5030 H 471.995 -2.08713 -3.38415 0
M  V30 5031 N 472.992 0.995999 -1.22138 0
M  V30 5032 C 474.22 1.77066 -1.07029 0
M  V30 5033 C 474.635 1.8495 0.379357 0
M  V30 5034 O 473.992 1.3174 1.26297 0
M  V30 5035 C 474.043 3.20533 -1.67155 0
M  V30 5036 O 473.764 3.13082 -3.06449 0
M  V30 5037 C 475.265 4.14461 -1.5728 0
M  V30 5038 H 472.485 0.556179 -0.375374 0
M  V30 5039 H 475.029 1.25238 -1.61666 0
M  V30 5040 H 473.184 3.6944 -1.16589 0
M  V30 5041 H 473.598 4.03283 -3.35355 0
M  V30 5042 H 475.072 5.1289 -2.04078 0
M  V30 5043 H 475.549 4.36005 -0.528795 0
M  V30 5044 H 476.155 3.71449 -2.07136 0
M  V30 5045 N 474.47 1.03057 1.19235 0
M  V30 5046 C 475.716 0.729098 1.89241 0
M  V30 5047 C 476.049 -0.740573 1.79525 0
M  V30 5048 O 475.324 -1.53946 1.18874 0
M  V30 5049 C 475.607 1.18304 3.40112 0
M  V30 5050 C 475.46 2.71406 3.5869 0
M  V30 5051 C 476.779 0.765161 4.33397 0
M  V30 5052 H 473.898 0.266338 0.687192 0
M  V30 5053 H 476.54 1.28079 1.40341 0
M  V30 5054 H 474.69 0.713672 3.81889 0
M  V30 5055 H 476.362 3.26303 3.26074 0
M  V30 5056 H 474.605 3.11717 3.01687 0
M  V30 5057 H 475.276 2.98225 4.64506 0
M  V30 5058 H 477.752 1.16889 3.99345 0
M  V30 5059 H 476.628 1.11065 5.37546 0
M  V30 5060 H 476.889 -0.332372 4.40849 0
M  V30 5061 N 475.948 -1.35272 0.808662 0
M  V30 5062 C 477.176 -2.02946 0.402537 0
M  V30 5063 C 477.591 -1.60937 -0.987147 0
M  V30 5064 O 476.948 -0.807917 -1.63643 0
M  V30 5065 C 476.999 -3.58317 0.47868 0
M  V30 5066 O 476.72 -3.98799 1.81358 0
M  V30 5067 C 478.221 -4.43251 0.0656281 0
M  V30 5068 H 475.441 -0.650831 0.163279 0
M  V30 5069 H 477.985 -1.72849 1.09286 0
M  V30 5070 H 476.14 -3.87055 -0.163415 0
M  V30 5071 H 476.554 -4.93451 1.77781 0
M  V30 5072 H 478.028 -5.51738 0.170017 0
M  V30 5073 H 478.505 -4.27913 -0.989278 0
M  V30 5074 H 479.111 -4.19813 0.68096 0
M  V30 5075 N 477.426 -0.562348 -1.47226 0
M  V30 5076 C 478.654 -0.0452275 -2.06851 0
M  V30 5077 C 479.069 1.25078 -1.41424 0
M  V30 5078 O 478.426 1.75156 -0.512513 0
M  V30 5079 C 478.477 0.148674 -3.61194 0
M  V30 5080 O 478.198 -1.09602 -4.24169 0
M  V30 5081 C 479.699 0.702488 -4.37699 0
M  V30 5082 H 476.919 -0.0481775 -0.669268 0
M  V30 5083 H 479.463 -0.777223 -1.89155 0
M  V30 5084 H 477.618 0.830817 -3.78386 0
M  V30 5085 H 478.032 -0.896982 -5.16773 0
M  V30 5086 H 479.506 0.78743 -5.46355 0
M  V30 5087 H 479.983 1.71493 -4.04335 0
M  V30 5088 H 480.589 0.0558772 -4.25263 0
M  V30 5089 N 478.904 1.54736 -0.299062 0
M  V30 5090 C 479.867 2.22127 0.565012 0
M  V30 5091 C 480.867 1.20669 1.06281 0
M  V30 5092 O 482.057 1.45417 0.959145 0
M  V30 5093 C 479.189 2.90611 1.78208 0
M  V30 5094 H 480.382 2.99891 -0.0237448 0
M  V30 5095 H 477.935 1.5622 -0.0498788 0
M  V30 5096 H 478.67 2.16921 2.41072 0
M  V30 5097 H 478.455 3.64984 1.43281 0
M  V30 5098 H 479.945 3.42026 2.396 0
M  V30 5099 N 480.382 0.0267497 1.57577 0
M  V30 5100 C 481.631 -0.651736 1.9088 0
M  V30 5101 C 481.944 -1.73427 0.904576 0
M  V30 5102 O 483.15 -2.46923 1.12877 0
M  V30 5103 C 481.606 -1.21048 3.38933 0
M  V30 5104 C 481.214 -0.161362 4.47709 0
M  V30 5105 C 482.958 -1.86562 3.81307 0
M  V30 5106 C 480.865 -0.731611 5.86857 0
M  V30 5107 H 479.795 -0.247198 0.712326 0
M  V30 5108 H 482.446 0.0916641 1.83271 0
M  V30 5109 H 480.828 -2.00542 3.41466 0
M  V30 5110 H 482.002 0.61094 4.56732 0
M  V30 5111 H 480.317 0.394877 4.14523 0
M  V30 5112 H 482.914 -2.30178 4.8262 0
M  V30 5113 H 483.257 -2.70735 3.16241 0
M  V30 5114 H 483.79 -1.13762 3.81186 0
M  V30 5115 H 480.529 0.0719329 6.55461 0
M  V30 5116 H 480.049 -1.47245 5.81445 0
M  V30 5117 H 481.728 -1.22208 6.35354 0
M  V30 5118 N 481.861 -1.55662 -0.24637 0
M  V30 5119 C 483.086 -1.81914 -0.996093 0
M  V30 5120 C 483.511 -0.603875 -1.78143 0
M  V30 5121 O 482.869 0.447091 -1.75701 0
M  V30 5122 C 482.917 -3.05908 -1.90925 0
M  V30 5123 O 482.021 -2.82861 -3.00105 0
M  V30 5124 H 481.362 -0.600481 -0.283406 0
M  V30 5125 H 483.892 -2.02848 -0.267199 0
M  V30 5126 H 483.902 -3.35356 -2.3238 0
M  V30 5127 H 482.577 -3.93999 -1.33183 0
M  V30 5128 H 481.154 -2.64583 -2.62775 0
M  V30 5129 N 483.339 0.512053 -1.4905 0
M  V30 5130 C 484.585 1.26613 -1.59187 0
M  V30 5131 C 484.94 1.90494 -0.270163 0
M  V30 5132 O 484.233 1.77204 0.728648 0
M  V30 5133 C 484.427 2.36446 -2.68008 0
M  V30 5134 C 484.256 1.83334 -4.10632 0
M  V30 5135 C 483.026 1.65131 -4.77556 0
M  V30 5136 C 485.224 1.35153 -4.96224 0
M  V30 5137 N 483.206 1.06833 -6.04533 0
M  V30 5138 C 484.577 0.889186 -6.13591 0
M  V30 5139 C 486.632 1.23623 -4.82309 0
M  V30 5140 C 485.335 0.322953 -7.18575 0
M  V30 5141 C 487.361 0.683978 -5.87431 0
M  V30 5142 C 486.723 0.2318 -7.04018 0
M  V30 5143 H 482.822 0.453678 -0.636946 0
M  V30 5144 H 485.406 0.575217 -1.86009 0
M  V30 5145 H 483.577 3.03012 -2.42978 0
M  V30 5146 H 485.309 3.03485 -2.67729 0
M  V30 5147 H 482.064 1.89178 -4.34176 0
M  V30 5148 H 482.488 0.796425 -6.72299 0
M  V30 5149 H 487.13 1.57184 -3.92496 0
M  V30 5150 H 484.848 -0.024943 -8.08096 0
M  V30 5151 H 488.434 0.597694 -5.78722 0
M  V30 5152 H 487.314 -0.188869 -7.83973 0
M  V30 5153 N 484.817 1.37938 0.762283 0
M  V30 5154 C 486.042 1.37059 1.55659 0
M  V30 5155 C 486.467 -0.0396123 1.88058 0
M  V30 5156 O 485.825 -1.01929 1.49934 0
M  V30 5157 C 485.873 2.22494 2.83776 0
M  V30 5158 O 484.977 1.63607 3.78559 0
M  V30 5159 H 484.318 0.467892 0.47114 0
M  V30 5160 H 486.848 1.81587 0.942725 0
M  V30 5161 H 486.858 2.36045 3.32786 0
M  V30 5162 H 485.533 3.24993 2.59524 0
M  V30 5163 H 484.11 1.5915 3.37233 0
M  V30 5164 N 486.295 -0.989507 1.22664 0
M  V30 5165 C 487.225 -2.09847 1.02404 0
M  V30 5166 C 488.206 -1.70007 -0.0561303 0
M  V30 5167 O 489.391 -1.93906 0.106748 0
M  V30 5168 C 486.521 -3.41996 0.604663 0
M  V30 5169 C 485.475 -3.95699 1.63115 0
M  V30 5170 C 484.801 -5.23936 1.0675 0
M  V30 5171 C 486.101 -4.25999 3.02196 0
M  V30 5172 H 487.795 -2.27054 1.95158 0
M  V30 5173 H 485.341 -1.09111 0.939727 0
M  V30 5174 H 487.294 -4.1899 0.45002 0
M  V30 5175 H 486.018 -3.24626 -0.35855 0
M  V30 5176 H 484.677 -3.2084 1.77362 0
M  V30 5177 H 484.325 -5.02909 0.0955422 0
M  V30 5178 H 484.025 -5.60833 1.75328 0
M  V30 5179 H 485.549 -6.0356 0.924516 0
M  V30 5180 H 486.963 -4.93777 2.91303 0
M  V30 5181 H 485.36 -4.74076 3.67929 0
M  V30 5182 H 486.43 -3.33636 3.51873 0
M  V30 5183 N 487.773 -1.03688 -1.18687 0
M  V30 5184 C 488.706 -0.569112 -2.2099 0
M  V30 5185 C 489.684 0.394315 -1.57746 0
M  V30 5186 O 490.868 0.309519 -1.85941 0
M  V30 5187 C 487.995 0.169104 -3.38278 0
M  V30 5188 C 487.041 -0.746989 -4.19908 0
M  V30 5189 S 487.874 -2.22773 -4.86963 0
M  V30 5190 C 489.03 -1.50025 -6.07654 0
M  V30 5191 H 489.263 -1.43589 -2.60326 0
M  V30 5192 H 486.796 -0.847507 -1.29061 0
M  V30 5193 H 488.754 0.588868 -4.06254 0
M  V30 5194 H 487.415 1.01172 -2.9736 0
M  V30 5195 H 486.608 -0.176626 -5.0369 0
M  V30 5196 H 486.21 -1.10543 -3.5729 0
M  V30 5197 H 488.502 -0.791217 -6.72864 0
M  V30 5198 H 489.445 -2.31498 -6.69189 0
M  V30 5199 H 489.853 -0.994245 -5.55675 0
M  V30 5200 N 489.251 1.34841 -0.815825 0
M  V30 5201 C 490.481 2.02436 -0.412695 0
M  V30 5202 C 490.889 1.61604 0.983906 0
M  V30 5203 O 490.232 0.813729 1.64694 0
M  V30 5204 C 490.294 3.56953 -0.427182 0
M  V30 5205 C 489.958 4.21083 -1.77589 0
M  V30 5206 C 490.955 4.42107 -2.73564 0
M  V30 5207 C 488.64 4.58006 -2.06243 0
M  V30 5208 C 490.634 4.99169 -3.9637 0
M  V30 5209 C 488.321 5.1478 -3.2931 0
M  V30 5210 C 489.319 5.35304 -4.24191 0
M  V30 5211 O 489.007 5.90878 -5.45086 0
M  V30 5212 H 488.739 0.655631 -0.164695 0
M  V30 5213 H 491.293 1.73246 -1.1034 0
M  V30 5214 H 489.523 3.85372 0.320175 0
M  V30 5215 H 491.212 4.05875 -0.0450875 0
M  V30 5216 H 491.978 4.13953 -2.52721 0
M  V30 5217 H 487.857 4.41339 -1.33196 0
M  V30 5218 H 491.401 5.15105 -4.70439 0
M  V30 5219 H 487.298 5.42362 -3.5002 0
M  V30 5220 H 488.066 6.0932 -5.46508 0
M  V30 5221 N 490.729 0.570148 1.46925 0
M  V30 5222 C 491.659 -0.158274 2.32963 0
M  V30 5223 C 492.64 -0.896093 1.44583 0
M  V30 5224 O 493.825 -0.874022 1.7342 0
M  V30 5225 C 490.955 -1.18055 3.26619 0
M  V30 5226 C 489.909 -0.558379 4.24342 0
M  V30 5227 C 489.235 -1.68623 5.07415 0
M  V30 5228 C 490.535 0.496295 5.19937 0
M  V30 5229 H 492.229 0.560046 2.94115 0
M  V30 5230 H 489.775 0.270775 1.41431 0
M  V30 5231 H 491.728 -1.69841 3.85658 0
M  V30 5232 H 490.452 -1.92899 2.63548 0
M  V30 5233 H 489.111 -0.0617157 3.66548 0
M  V30 5234 H 488.759 -2.42402 4.40738 0
M  V30 5235 H 488.459 -1.27564 5.73586 0
M  V30 5236 H 489.983 -2.20709 5.69315 0
M  V30 5237 H 491.397 0.0640052 5.73264 0
M  V30 5238 H 489.794 0.82649 5.94381 0
M  V30 5239 H 490.864 1.38735 4.6463 0
M  V30 5240 N 492.207 -1.54576 0.307264 0
M  V30 5241 C 493.453 -2.0056 -0.300612 0
M  V30 5242 C 493.786 -1.1953 -1.53057 0
M  V30 5243 O 493.061 -0.27337 -1.92569 0
M  V30 5244 C 493.344 -3.54167 -0.650987 0
M  V30 5245 C 493.197 -4.45933 0.588539 0
M  V30 5246 C 494.516 -4.14645 -1.47506 0
M  V30 5247 H 491.635 -0.729075 -0.107788 0
M  V30 5248 H 494.277 -1.85286 0.420606 0
M  V30 5249 H 492.427 -3.67313 -1.26544 0
M  V30 5250 H 494.099 -4.44683 1.22697 0
M  V30 5251 H 492.342 -4.16274 1.22058 0
M  V30 5252 H 493.013 -5.51189 0.299153 0
M  V30 5253 H 495.489 -4.04973 -0.955821 0
M  V30 5254 H 494.365 -5.22269 -1.68899 0
M  V30 5255 H 494.626 -3.66921 -2.4662 0
M  V30 5256 N 493.685 -0.035106 -1.57561 0
M  V30 5257 C 494.618 0.979673 -2.06101 0
M  V30 5258 C 495.596 1.31378 -0.958046 0
M  V30 5259 O 496.78 1.42942 -1.22881 0
M  V30 5260 C 493.907 2.29809 -2.48808 0
M  V30 5261 C 492.953 2.11817 -3.70184 0
M  V30 5262 S 493.786 1.41143 -5.16565 0
M  V30 5263 C 494.942 2.74341 -5.62572 0
M  V30 5264 H 495.175 0.566506 -2.91853 0
M  V30 5265 H 492.708 0.176744 -1.53385 0
M  V30 5266 H 494.666 3.056 -2.74078 0
M  V30 5267 H 493.327 2.68257 -1.63392 0
M  V30 5268 H 492.52 3.09299 -3.97933 0
M  V30 5269 H 492.122 1.44168 -3.45097 0
M  V30 5270 H 494.414 3.70562 -5.67177 0
M  V30 5271 H 495.357 2.51249 -6.62027 0
M  V30 5272 H 495.765 2.79863 -4.90242 0
M  V30 5273 N 495.163 1.55791 0.238111 0
M  V30 5274 C 496.111 1.91885 1.31464 0
M  V30 5275 C 497.105 0.798929 1.49377 0
M  V30 5276 O 498.311 0.983626 1.50747 0
M  V30 5277 H 494.686 0.609551 0.440399 0
M  V30 5278 H 496.657 2.81747 0.982925 0
M  V30 5279 C 495.406 2.23763 2.6613 0
M  V30 5280 H 494.729 3.09444 2.53149 0
M  V30 5281 H 496.169 2.52915 3.40309 0
M  V30 5282 C 494.628 1.05699 3.1989 0
M  V30 5283 O 495.158 0.309524 4.00506 0
M  V30 5284 N 493.364 0.845251 2.78036 0
M  V30 5285 H 492.911 1.4548 2.12588 0
M  V30 5286 H 492.869 0.0569973 3.14348 0
M  V30 5287 N 496.642 -0.504142 1.49319 0
M  V30 5288 C 498.053 -1.08572 1.51885 0
M  V30 5289 C 498.404 -1.93842 0.303255 0
M  V30 5290 O 497.529 -2.0828 -0.58724 0
M  V30 5291 C 498.124 -1.97574 2.75227 0
M  V30 5292 C 496.683 -2.509 2.80581 0
M  V30 5293 C 495.83 -1.28447 2.45757 0
M  V30 5294 H 498.781 -0.288194 1.56061 0
M  V30 5295 H 498.802 -2.82219 2.55211 0
M  V30 5296 H 498.314 -1.35486 3.63683 0
M  V30 5297 H 496.415 -3.16636 1.96398 0
M  V30 5298 H 496.528 -2.88268 3.82673 0
M  V30 5299 H 494.892 -1.60868 1.97468 0
M  V30 5300 H 495.675 -0.68072 3.36483 0
M  V30 5301 N 498.12 -1.38341 -0.754957 0
M  V30 5302 C 499.536 -1.19508 -1.05783 0
M  V30 5303 C 499.736 -0.0428005 -2.01455 0
M  V30 5304 O 498.792 0.611861 -2.44975 0
M  V30 5305 C 500.105 -2.52091 -1.63923 0
M  V30 5306 C 501.653 -2.58762 -1.76101 0
M  V30 5307 C 502.128 -3.91517 -2.37652 0
M  V30 5308 N 503.619 -3.93049 -2.45085 0
M  V30 5309 C 504.354 -4.9253 -2.93602 0
M  V30 5310 N 503.85 -6.02408 -3.42165 0
M  V30 5311 N 505.643 -4.79921 -2.92629 0
M  V30 5312 H 497.794 -2.1206 -0.120056 0
M  V30 5313 H 500.057 -0.94089 -0.11589 0
M  V30 5314 H 499.763 -3.36858 -1.01093 0
M  V30 5315 H 499.637 -2.70388 -2.63003 0
M  V30 5316 H 502.024 -1.74391 -2.38058 0
M  V30 5317 H 502.105 -2.44333 -0.757294 0
M  V30 5318 H 501.749 -4.76309 -1.76329 0
M  V30 5319 H 501.679 -4.03256 -3.38662 0
M  V30 5320 H 504.17 -3.13685 -2.10736 0
M  V30 5321 H 504.483 -6.74248 -3.77637 0
M  V30 5322 H 502.828 -6.0603 -3.40225 0
M  V30 5323 H 506.019 -3.93194 -2.54001 0
M  V30 5324 H 506.192 -5.57601 -3.30128 0
M  V30 5325 N 499.598 0.982988 -1.23187 0
M  V30 5326 C 500.844 1.72648 -1.06398 0
M  V30 5327 C 501.177 1.90066 0.398561 0
M  V30 5328 O 500.452 1.45105 1.29518 0
M  V30 5329 C 500.735 3.12627 -1.78707 0
M  V30 5330 C 500.588 3.02795 -3.32618 0
M  V30 5331 C 501.907 4.11997 -1.54747 0
M  V30 5332 H 499.026 0.626649 -0.387918 0
M  V30 5333 H 501.668 1.14455 -1.51658 0
M  V30 5334 H 499.818 3.62308 -1.40234 0
M  V30 5335 H 501.49 2.60659 -3.80598 0
M  V30 5336 H 499.733 2.39362 -3.61785 0
M  V30 5337 H 500.404 4.01893 -3.78399 0
M  V30 5338 H 502.88 3.71114 -1.88186 0
M  V30 5339 H 501.756 5.08037 -2.07821 0
M  V30 5340 H 502.017 4.39462 -0.482249 0
M  V30 5341 N 501.076 1.04316 1.18135 0
M  V30 5342 C 502.008 0.594444 2.21357 0
M  V30 5343 C 503.021 -0.337215 1.59269 0
M  V30 5344 O 504.21 -0.131337 1.78016 0
M  V30 5345 C 501.31 -0.151251 3.38562 0
M  V30 5346 C 500.483 0.788907 4.30227 0
M  V30 5347 C 499.542 0.0860572 5.2613 0
M  V30 5348 O 498.568 0.717302 5.64662 0
M  V30 5349 N 499.77 -1.17969 5.68387 0
M  V30 5350 H 502.535 1.48227 2.60478 0
M  V30 5351 H 500.096 0.92396 1.32946 0
M  V30 5352 H 502.088 -0.631352 3.99745 0
M  V30 5353 H 500.658 -0.940639 2.98112 0
M  V30 5354 H 499.878 1.44882 3.6661 0
M  V30 5355 H 501.166 1.42738 4.88368 0
M  V30 5356 H 500.564 -1.71302 5.3914 0
M  V30 5357 H 499.121 -1.60402 6.31755 0
M  V30 5358 N 502.554 -1.34406 0.822964 0
M  V30 5359 C 503.97 -1.51275 0.508727 0
M  V30 5360 C 504.17 -1.76776 -0.967083 0
M  V30 5361 O 503.226 -1.81871 -1.75155 0
M  V30 5362 C 504.539 -2.67765 1.36829 0
M  V30 5363 C 506.087 -2.81647 1.36542 0
M  V30 5364 C 506.562 -4.01181 2.20947 0
M  V30 5365 N 508.053 -4.08388 2.18571 0
M  V30 5366 C 508.788 -5.00036 2.80627 0
M  V30 5367 N 508.284 -5.96906 3.51674 0
M  V30 5368 N 510.077 -4.92908 2.70181 0
M  V30 5369 H 502.228 -1.16113 1.77852 0
M  V30 5370 H 504.491 -0.56947 0.757897 0
M  V30 5371 H 504.197 -2.55551 2.41633 0
M  V30 5372 H 504.071 -3.62779 1.03303 0
M  V30 5373 H 506.458 -2.93303 0.325163 0
M  V30 5374 H 506.539 -1.87443 1.74066 0
M  V30 5375 H 506.183 -3.90286 3.25022 0
M  V30 5376 H 506.113 -4.94599 1.80774 0
M  V30 5377 H 508.604 -3.39051 1.66891 0
M  V30 5378 H 508.917 -6.63468 3.96271 0
M  V30 5379 H 507.262 -5.9703 3.5578 0
M  V30 5380 H 510.453 -4.1619 2.14251 0
M  V30 5381 H 510.626 -5.64137 3.18831 0
M  V30 5382 N 504.032 -0.577932 -1.46621 0
M  V30 5383 C 504.979 0.158048 -2.30258 0
M  V30 5384 C 505.949 0.888669 -1.40328 0
M  V30 5385 O 507.134 0.880283 -1.6928 0
M  V30 5386 C 504.274 1.16884 -3.24703 0
M  V30 5387 C 503.387 0.442163 -4.29731 0
M  V30 5388 C 502.522 1.44007 -5.11308 0
M  V30 5389 C 501.561 0.69952 -6.0809 0
M  V30 5390 N 500.698 1.64525 -6.82551 0
M  V30 5391 H 505.538 -0.561242 -2.92667 0
M  V30 5392 H 503.075 -0.288591 -1.44241 0
M  V30 5393 H 505.033 1.7677 -3.779 0
M  V30 5394 H 503.663 1.85591 -2.64113 0
M  V30 5395 H 502.715 -0.271632 -3.79429 0
M  V30 5396 H 504.027 -0.136992 -4.98612 0
M  V30 5397 H 503.181 2.11186 -5.68758 0
M  V30 5398 H 501.92 2.05315 -4.42377 0
M  V30 5399 H 500.925 0.0139217 -5.49798 0
M  V30 5400 H 502.15 0.091894 -6.79038 0
M  V30 5401 H 500.096 2.24653 -6.16334 0
M  V30 5402 H 500.013 1.11878 -7.47676 0
M  V30 5403 H 501.281 2.30754 -7.44562 0
M  V30 5404 N 505.51 1.54411 -0.315457 0
M  V30 5405 C 506.759 1.99599 0.290395 0
M  V30 5406 C 507.072 1.20746 1.53882 0
M  V30 5407 O 508.278 1.56272 2.22017 0
M  V30 5408 C 506.734 3.5539 0.56797 0
M  V30 5409 C 506.342 4.43068 -0.662945 0
M  V30 5410 C 508.086 4.09067 1.13422 0
M  V30 5411 C 505.993 5.90317 -0.357722 0
M  V30 5412 H 504.923 0.745592 0.112286 0
M  V30 5413 H 507.574 1.78477 -0.426418 0
M  V30 5414 H 505.956 3.72468 1.34476 0
M  V30 5415 H 507.13 4.37765 -1.43869 0
M  V30 5416 H 505.445 4.00238 -1.14884 0
M  V30 5417 H 508.042 5.16663 1.37707 0
M  V30 5418 H 508.385 3.60552 2.08106 0
M  V30 5419 H 508.918 3.95589 0.418805 0
M  V30 5420 H 505.657 6.4301 -1.27351 0
M  V30 5421 H 505.177 5.98592 0.380472 0
M  V30 5422 H 506.856 6.4699 0.0354284 0
M  V30 5423 N 506.988 0.0434614 1.5754 0
M  V30 5424 C 507.92 -0.962586 2.08007 0
M  V30 5425 C 508.933 -1.27972 1.00634 0
M  V30 5426 O 510.122 -1.24186 1.28219 0
M  V30 5427 C 507.222 -2.28621 2.50171 0
M  V30 5428 C 506.395 -2.15214 3.80791 0
M  V30 5429 C 505.454 -3.30633 4.09351 0
M  V30 5430 O 504.48 -3.0688 4.79388 0
M  V30 5431 N 505.682 -4.54873 3.60654 0
M  V30 5432 H 508.447 -0.531891 2.94942 0
M  V30 5433 H 506.008 -0.142965 1.61268 0
M  V30 5434 H 508 -3.04689 2.66359 0
M  V30 5435 H 506.57 -2.63283 1.68525 0
M  V30 5436 H 505.79 -1.23785 3.74261 0
M  V30 5437 H 507.078 -2.03475 4.66343 0
M  V30 5438 H 506.476 -4.77063 3.04019 0
M  V30 5439 H 505.033 -5.2806 3.82094 0
M  V30 5440 N 508.466 -1.55915 -0.229846 0
M  V30 5441 C 509.376 -1.94891 -1.30593 0
M  V30 5442 C 510.392 -0.851604 -1.51736 0
M  V30 5443 O 511.568 -1.15447 -1.65027 0
M  V30 5444 C 508.633 -2.25052 -2.63728 0
M  V30 5445 C 507.694 -3.48306 -2.5096 0
M  V30 5446 C 506.927 -3.77019 -3.77747 0
M  V30 5447 O 507.15 -3.07534 -4.80395 0
M  V30 5448 O 506.084 -4.70523 -3.75356 0
M  V30 5449 H 509.91 -2.86581 -1.00525 0
M  V30 5450 H 507.495 -1.43017 -0.432025 0
M  V30 5451 H 509.377 -2.45682 -3.42372 0
M  V30 5452 H 508.052 -1.36538 -2.93495 0
M  V30 5453 H 506.959 -3.32964 -1.70546 0
M  V30 5454 H 508.292 -4.37177 -2.26136 0
M  V30 5455 N 509.944 0.496216 -1.49584 0
M  V30 5456 C 510.854 1.62352 -1.69349 0
M  V30 5457 C 511.87 1.64184 -0.576147 0
M  V30 5458 O 513.046 1.82517 -0.85144 0
M  V30 5459 C 510.111 2.98698 -1.76013 0
M  V30 5460 C 509.172 3.07454 -2.99617 0
M  V30 5461 C 508.405 4.37296 -3.05953 0
M  V30 5462 O 508.628 5.2637 -2.19752 0
M  V30 5463 O 507.562 4.51124 -3.9846 0
M  V30 5464 H 511.388 1.48606 -2.64859 0
M  V30 5465 H 508.973 0.673022 -1.33382 0
M  V30 5466 H 510.855 3.79725 -1.82721 0
M  V30 5467 H 509.53 3.12696 -0.836828 0
M  V30 5468 H 508.437 2.25597 -2.98424 0
M  V30 5469 H 509.77 2.98385 -3.91443 0
M  V30 5470 N 511.423 1.38739 0.74761 0
M  V30 5471 C 512.353 1.39173 1.87492 0
M  V30 5472 C 513.334 0.256794 1.6815 0
M  V30 5473 O 514.519 0.460762 1.88655 0
M  V30 5474 C 511.649 1.22197 3.25093 0
M  V30 5475 C 510.603 2.32957 3.59047 0
M  V30 5476 C 509.929 2.01082 4.95449 0
M  V30 5477 C 511.229 3.75237 3.6331 0
M  V30 5478 H 512.923 2.3351 1.87386 0
M  V30 5479 H 510.469 1.12399 0.900134 0
M  V30 5480 H 512.422 1.21124 4.03617 0
M  V30 5481 H 511.146 0.243241 3.25693 0
M  V30 5482 H 509.805 2.33226 2.82845 0
M  V30 5483 H 509.453 1.01678 4.92616 0
M  V30 5484 H 509.153 2.75267 5.19136 0
M  V30 5485 H 510.677 2.01638 5.76346 0
M  V30 5486 H 512.091 3.76966 4.31937 0
M  V30 5487 H 510.488 4.48677 3.98509 0
M  V30 5488 H 511.558 4.07122 2.634 0
M  V30 5489 N 512.901 -0.976442 1.23707 0
M  V30 5490 C 514.178 -1.69296 0.979699 0
M  V30 5491 C 514.558 -2.0508 -0.500555 0
M  V30 5492 O 513.906 -1.74708 -1.47273 0
M  V30 5493 C 514.116 -2.93143 1.89389 0
M  V30 5494 C 515.464 -3.65572 2.15968 0
M  V30 5495 O 516.488 -3.03184 1.86971 0
M  V30 5496 O 515.347 -4.77859 2.65167 0
M  V30 5497 H 512.441 -0.739708 0.369812 0
M  V30 5498 H 514.987 -1.03131 1.34767 0
M  V30 5499 H 513.759 -2.63327 2.89439 0
M  V30 5500 H 513.382 -3.67044 1.52854 0
M  V30 5501 N 514.379 -1.04941 -1.1758 0
M  V30 5502 C 515.607 -0.778294 -1.91703 0
M  V30 5503 C 516.022 0.665697 -1.76675 0
M  V30 5504 O 515.379 1.45456 -1.10222 0
M  V30 5505 C 515.43 -1.14628 -3.42845 0
M  V30 5506 O 515.151 -2.53359 -3.57409 0
M  V30 5507 C 516.652 -0.900931 -4.34049 0
M  V30 5508 H 513.872 -0.283167 -0.608323 0
M  V30 5509 H 516.416 -1.39942 -1.49119 0
M  V30 5510 H 514.571 -0.569953 -3.83184 0
M  V30 5511 H 514.985 -2.67709 -4.51035 0
M  V30 5512 H 516.459 -1.20817 -5.38616 0
M  V30 5513 H 516.936 0.163966 -4.38894 0
M  V30 5514 H 517.542 -1.46097 -3.99419 0
M  V30 5515 N 515.857 1.33968 -0.830081 0
M  V30 5516 C 517.103 1.98357 -0.422191 0
M  V30 5517 C 517.436 1.65633 1.01387 0
M  V30 5518 O 516.711 0.931648 1.70735 0
M  V30 5519 C 516.994 3.54492 -0.633043 0
M  V30 5520 C 516.847 3.96934 -2.11574 0
M  V30 5521 C 518.166 4.40039 -0.0735584 0
M  V30 5522 H 515.285 0.720544 -0.154871 0
M  V30 5523 H 517.927 1.58749 -1.04397 0
M  V30 5524 H 516.077 3.88361 -0.103775 0
M  V30 5525 H 517.749 3.73363 -2.7092 0
M  V30 5526 H 515.992 3.46984 -2.60354 0
M  V30 5527 H 516.663 5.05651 -2.21406 0
M  V30 5528 H 519.139 4.12764 -0.52585 0
M  V30 5529 H 518.015 5.48327 -0.250841 0
M  V30 5530 H 518.276 4.30124 1.02202 0
M  V30 5531 N 517.335 0.585699 1.46312 0
M  V30 5532 C 518.584 0.0701192 2.01578 0
M  V30 5533 C 518.897 -1.29889 1.46247 0
M  V30 5534 O 520.103 -1.90598 1.93351 0
M  V30 5535 C 518.559 0.0747499 3.59822 0
M  V30 5536 C 518.167 1.44226 4.24149 0
M  V30 5537 C 519.911 -0.38673 4.22735 0
M  V30 5538 C 517.818 1.40446 5.74481 0
M  V30 5539 H 516.748 0.0224441 0.753666 0
M  V30 5540 H 519.399 0.737789 1.68015 0
M  V30 5541 H 517.781 -0.659144 3.90476 0
M  V30 5542 H 518.955 2.19612 4.05101 0
M  V30 5543 H 517.27 1.84401 3.73343 0
M  V30 5544 H 519.867 -0.433853 5.32937 0
M  V30 5545 H 520.21 -1.40489 3.91878 0
M  V30 5546 H 520.743 0.293195 3.96718 0
M  V30 5547 H 517.482 2.39952 6.10003 0
M  V30 5548 H 517.002 0.692845 5.95785 0
M  V30 5549 H 518.681 1.11865 6.37256 0
M  V30 5550 N 518.813 -1.54241 0.323641 0
M  V30 5551 C 520.061 -2.00174 -0.278359 0
M  V30 5552 C 520.382 -1.2134 -1.52648 0
M  V30 5553 O 519.652 -0.315244 -1.93347 0
M  V30 5554 H 518.232 -0.739463 -0.105845 0
M  V30 5555 H 520.894 -1.89864 0.440204 0
M  V30 5556 H 519.99 -3.07486 -0.5347 0
M  V30 5557 N 520.291 -0.0518155 -1.57515 0
M  V30 5558 C 521.707 0.304735 -1.56664 0
M  V30 5559 C 521.907 1.71395 -1.05953 0
M  V30 5560 O 520.963 2.42123 -0.716414 0
M  V30 5561 C 522.276 0.132614 -3.00407 0
M  V30 5562 C 523.824 0.20367 -3.12337 0
M  V30 5563 C 524.299 0.0600706 -4.57961 0
M  V30 5564 N 525.79 0.116326 -4.63054 0
M  V30 5565 C 526.525 0.0293363 -5.73392 0
M  V30 5566 N 526.021 -0.110038 -6.92713 0
M  V30 5567 N 527.814 0.0849651 -5.62036 0
M  V30 5568 H 519.965 -0.973056 -1.888 0
M  V30 5569 H 522.228 -0.377781 -0.869474 0
M  V30 5570 H 521.934 -0.839019 -3.41546 0
M  V30 5571 H 521.808 0.893376 -3.66468 0
M  V30 5572 H 524.195 1.16578 -2.71097 0
M  V30 5573 H 524.276 -0.587857 -2.48954 0
M  V30 5574 H 523.92 -0.898715 -4.99886 0
M  V30 5575 H 523.85 0.87075 -5.19351 0
M  V30 5576 H 526.341 0.22327 -3.7724 0
M  V30 5577 H 526.654 -0.169104 -7.72615 0
M  V30 5578 H 524.999 -0.145132 -6.94848 0
M  V30 5579 H 528.19 0.192411 -4.67704 0
M  V30 5580 H 528.363 0.0137131 -6.47999 0
M  V30 5581 N 521.769 1.56035 0.221574 0
M  V30 5582 C 522.994 1.83476 0.967026 0
M  V30 5583 C 523.419 0.632139 1.7716 0
M  V30 5584 O 522.777 -0.419082 1.7639 0
M  V30 5585 C 522.825 3.08907 1.86034 0
M  V30 5586 O 521.929 2.876 2.95567 0
M  V30 5587 H 521.27 0.604913 0.273817 0
M  V30 5588 H 523.8 2.03247 0.234893 0
M  V30 5589 H 523.81 3.3901 2.27016 0
M  V30 5590 H 522.485 3.96068 1.26898 0
M  V30 5591 H 521.062 2.6873 2.58532 0
M  V30 5592 N 523.247 -0.488276 1.49845 0
M  V30 5593 C 524.663 -0.820566 1.3689 0
M  V30 5594 C 524.863 -1.97248 0.411752 0
M  V30 5595 O 523.919 -2.52042 -0.151931 0
M  V30 5596 C 525.232 -1.1488 2.77891 0
M  V30 5597 C 526.78 -1.25626 2.86683 0
M  V30 5598 C 527.255 -1.61772 4.28479 0
M  V30 5599 N 528.746 -1.68797 4.31349 0
M  V30 5600 C 529.481 -1.98235 5.38043 0
M  V30 5601 N 528.977 -2.2581 6.54967 0
M  V30 5602 N 530.77 -1.99593 5.2547 0
M  V30 5603 H 522.921 0.271123 2.10662 0
M  V30 5604 H 525.184 0.058735 0.946179 0
M  V30 5605 H 524.89 -0.375614 3.49688 0
M  V30 5606 H 524.764 -2.08919 3.14058 0
M  V30 5607 H 527.151 -2.02014 2.15114 0
M  V30 5608 H 527.232 -0.296072 2.54081 0
M  V30 5609 H 526.876 -0.859295 5.00578 0
M  V30 5610 H 526.806 -2.58912 4.58554 0
M  V30 5611 H 529.297 -1.49595 3.4703 0
M  V30 5612 H 529.61 -2.47497 7.32096 0
M  V30 5613 H 527.955 -2.23239 6.58171 0
M  V30 5614 H 531.146 -1.77535 4.33127 0
M  V30 5615 H 531.319 -2.222 6.08713 0
M  V30 5616 N 524.725 -1.39134 -0.740242 0
M  V30 5617 C 526.141 -1.20623 -1.0451 0
M  V30 5618 C 526.341 -0.0641651 -2.01398 0
M  V30 5619 O 525.397 0.585843 -2.4561 0
M  V30 5620 C 526.71 -2.53815 -1.6124 0
M  V30 5621 C 528.258 -2.60615 -1.73346 0
M  V30 5622 C 528.733 -3.94015 -2.33486 0
M  V30 5623 N 530.224 -3.95627 -2.40902 0
M  V30 5624 C 530.959 -4.95616 -2.88361 0
M  V30 5625 N 530.455 -6.06003 -3.35756 0
M  V30 5626 N 532.248 -4.82998 -2.87523 0
M  V30 5627 H 524.399 -2.12176 -0.0975576 0
M  V30 5628 H 526.662 -0.942066 -0.105904 0
M  V30 5629 H 526.368 -3.37911 -0.975144 0
M  V30 5630 H 526.242 -2.73162 -2.6012 0
M  V30 5631 H 528.629 -1.76906 -2.36195 0
M  V30 5632 H 528.71 -2.45123 -0.731336 0
M  V30 5633 H 528.354 -4.78153 -1.71267 0
M  V30 5634 H 528.284 -4.06825 -3.34366 0
M  V30 5635 H 530.775 -3.15903 -2.07398 0
M  V30 5636 H 531.088 -6.78215 -3.70464 0
M  V30 5637 H 529.433 -6.09604 -3.33778 0
M  V30 5638 H 532.624 -3.95866 -2.49816 0
M  V30 5639 H 532.797 -5.61072 -3.24196 0
M  V30 5640 N 526.204 0.969867 -1.24223 0
M  V30 5641 C 527.615 1.52717 -1.07399 0
M  V30 5642 C 527.966 1.92956 0.355298 0
M  V30 5643 O 527.091 1.77112 1.2434 0
M  V30 5644 C 527.686 2.77521 -1.94339 0
M  V30 5645 C 526.245 3.29615 -1.81744 0
M  V30 5646 C 525.392 2.02537 -1.89405 0
M  V30 5647 H 528.343 0.788399 -1.37732 0
M  V30 5648 H 528.364 3.50773 -1.47439 0
M  V30 5649 H 527.876 2.48203 -2.98357 0
M  V30 5650 H 525.977 3.63789 -0.805505 0
M  V30 5651 H 526.09 3.98661 -2.65718 0
M  V30 5652 H 524.454 2.17151 -1.33108 0
M  V30 5653 H 525.237 1.75587 -2.94999 0
M  V30 5654 N 527.682 1.05563 1.17022 0
M  V30 5655 C 529.098 0.777684 1.39371 0
M  V30 5656 C 529.298 -0.626269 1.91521 0
M  V30 5657 O 528.354 -1.38806 2.10924 0
M  V30 5658 C 529.667 1.83642 2.3811 0
M  V30 5659 C 531.215 1.85907 2.51809 0
M  V30 5660 C 531.69 2.90813 3.53824 0
M  V30 5661 N 533.181 2.898 3.61345 0
M  V30 5662 C 533.916 3.6762 4.40049 0
M  V30 5663 N 533.412 4.55237 5.22237 0
M  V30 5664 N 535.205 3.56044 4.34959 0
M  V30 5665 H 527.356 1.9614 0.815047 0
M  V30 5666 H 529.619 0.849527 0.420722 0
M  V30 5667 H 529.325 2.84425 2.06871 0
M  V30 5668 H 529.199 1.6812 3.37662 0
M  V30 5669 H 531.586 0.857865 2.82356 0
M  V30 5670 H 531.667 2.05506 1.52318 0
M  V30 5671 H 531.311 3.91122 3.24015 0
M  V30 5672 H 531.241 2.68465 4.53028 0
M  V30 5673 H 533.732 2.26274 3.02669 0
M  V30 5674 H 534.045 5.11291 5.79484 0
M  V30 5675 H 532.39 4.59296 5.21605 0
M  V30 5676 H 535.581 2.86986 3.69806 0
M  V30 5677 H 535.754 4.16938 4.96051 0
M  V30 5678 N 529.16 -1.33526 0.837174 0
M  V30 5679 C 530.09 -2.31764 0.284206 0
M  V30 5680 C 531.071 -1.58896 -0.607142 0
M  V30 5681 O 532.256 -1.86798 -0.531047 0
M  V30 5682 C 529.386 -3.43029 -0.542962 0
M  V30 5683 C 528.34 -4.27255 0.252451 0
M  V30 5684 C 527.666 -5.3012 -0.69836 0
M  V30 5685 C 528.966 -5.01229 1.46858 0
M  V30 5686 H 530.66 -2.78262 1.10502 0
M  V30 5687 H 528.206 -1.3378 0.532812 0
M  V30 5688 H 530.159 -4.1078 -0.940096 0
M  V30 5689 H 528.883 -2.95216 -1.39697 0
M  V30 5690 H 527.542 -3.61127 0.631124 0
M  V30 5691 H 527.19 -4.78564 -1.54872 0
M  V30 5692 H 526.89 -5.87353 -0.170274 0
M  V30 5693 H 528.414 -6.00737 -1.09305 0
M  V30 5694 H 529.828 -5.61756 1.14469 0
M  V30 5695 H 528.225 -5.68104 1.93333 0
M  V30 5696 H 529.295 -4.301 2.23924 0
M  V30 5697 N 530.638 -0.59345 -1.46 0
M  V30 5698 C 531.863 -0.0872365 -2.07216 0
M  V30 5699 C 532.288 1.2131 -1.43755 0
M  V30 5700 O 531.646 1.73528 -0.525152 0
M  V30 5701 C 531.694 0.0538197 -3.6056 0
M  V30 5702 O 530.798 1.10765 -3.97247 0
M  V30 5703 H 530.139 -0.0676598 -0.660544 0
M  V30 5704 H 532.669 -0.819445 -1.87473 0
M  V30 5705 H 532.679 0.256567 -4.07193 0
M  V30 5706 H 531.354 -0.895739 -4.0614 0
M  V30 5707 H 529.931 0.882501 -3.62307 0
M  V30 5708 N 532.116 1.54067 -0.331816 0
M  V30 5709 C 533.393 1.92915 0.322955 0
M  V30 5710 C 533.773 1.26225 1.69205 0
M  V30 5711 O 533.121 0.408919 2.24811 0
M  V30 5712 C 533.331 3.46619 0.406946 0
M  V30 5713 C 534.679 4.19386 0.663339 0
M  V30 5714 O 535.703 3.5282 0.489536 0
M  V30 5715 O 534.562 5.37288 0.999193 0
M  V30 5716 H 531.656 0.805808 0.186016 0
M  V30 5717 H 534.202 1.65342 -0.382135 0
M  V30 5718 H 532.974 3.87354 -0.554287 0
M  V30 5719 H 532.597 3.80324 1.15929 0
M  V30 5720 N 533.594 0.0601682 1.57485 0
M  V30 5721 C 535.01 -0.296422 1.56823 0
M  V30 5722 C 535.21 -1.70831 1.0686 0
M  V30 5723 O 534.266 -2.4174 0.729245 0
M  V30 5724 C 535.579 -0.116681 3.00474 0
M  V30 5725 C 537.127 -0.187103 3.1244 0
M  V30 5726 C 537.602 -0.035783 4.57986 0
M  V30 5727 N 539.093 -0.0917676 4.63109 0
M  V30 5728 C 539.828 0.00107251 5.734 0
M  V30 5729 N 539.324 0.146773 6.92645 0
M  V30 5730 N 541.117 -0.0551577 5.62073 0
M  V30 5731 H 533.268 0.983055 1.88281 0
M  V30 5732 H 535.531 0.382386 0.867459 0
M  V30 5733 H 535.237 0.85712 3.41096 0
M  V30 5734 H 535.111 -0.873929 3.66936 0
M  V30 5735 H 537.498 -1.15138 2.71712 0
M  V30 5736 H 537.579 0.601052 2.48638 0
M  V30 5737 H 537.223 0.925212 4.99402 0
M  V30 5738 H 537.153 -0.843196 5.19806 0
M  V30 5739 H 539.644 -0.203261 3.77353 0
M  V30 5740 H 539.957 0.210076 7.72514 0
M  V30 5741 H 538.302 0.181979 6.94762 0
M  V30 5742 H 541.493 -0.167605 4.678 0
M  V30 5743 H 541.666 0.020652 6.47997 0
M  V30 5744 N 535.072 -1.5615 -0.213296 0
M  V30 5745 C 536.297 -1.83986 -0.957282 0
M  V30 5746 C 536.722 -0.641526 -1.76822 0
M  V30 5747 O 536.08 0.409722 -1.7661 0
M  V30 5748 C 536.128 -3.09889 -1.84393 0
M  V30 5749 O 535.232 -2.89163 -2.94038 0
M  V30 5750 H 534.573 -0.606357 -0.270605 0
M  V30 5751 H 537.103 -2.03369 -0.224111 0
M  V30 5752 H 537.113 -3.40209 -2.25215 0
M  V30 5753 H 535.788 -3.96735 -1.24795 0
M  V30 5754 H 534.365 -2.70097 -2.57103 0
M  V30 5755 N 536.55 0.480323 -1.50102 0
M  V30 5756 C 537.5 1.57685 -1.6468 0
M  V30 5757 C 538.484 1.52878 -0.5017 0
M  V30 5758 O 539.676 1.60058 -0.755668 0
M  V30 5759 C 536.805 2.96185 -1.73578 0
M  V30 5760 C 535.891 3.0591 -2.93734 0
M  V30 5761 N 536.282 2.85471 -4.1754 0
M  V30 5762 C 534.58 3.37036 -2.92101 0
M  V30 5763 C 535.281 2.99921 -4.9842 0
M  V30 5764 N 534.257 3.29715 -4.32191 0
M  V30 5765 H 538.059 1.40568 -2.58104 0
M  V30 5766 H 535.573 0.686874 -1.47159 0
M  V30 5767 H 537.57 3.75015 -1.82124 0
M  V30 5768 H 536.23 3.14356 -0.813057 0
M  V30 5769 H 537.241 2.61235 -4.47188 0
M  V30 5770 H 533.918 3.61253 -2.09291 0
M  V30 5771 H 535.308 2.88436 -6.06839 0
M  V30 5772 N 538.028 1.39524 0.732853 0
M  V30 5773 C 538.958 1.41153 1.86005 0
M  V30 5774 C 539.939 0.274614 1.67869 0
M  V30 5775 O 541.124 0.480745 1.88155 0
M  V30 5776 C 538.254 1.25638 3.23778 0
M  V30 5777 C 537.208 2.36752 3.56556 0
M  V30 5778 C 536.534 2.06326 4.93289 0
M  V30 5779 C 537.834 3.79069 3.5931 0
M  V30 5780 H 539.528 2.35484 1.84899 0
M  V30 5781 H 537.074 1.13348 0.888162 0
M  V30 5782 H 539.027 1.25398 4.0231 0
M  V30 5783 H 537.751 0.277772 3.25417 0
M  V30 5784 H 536.41 2.36213 2.80355 0
M  V30 5785 H 536.058 1.06897 4.9151 0
M  V30 5786 H 535.758 2.80757 5.16187 0
M  V30 5787 H 537.282 2.07739 5.74175 0
M  V30 5788 H 538.696 3.81526 4.27914 0
M  V30 5789 H 537.093 4.52878 3.93728 0
M  V30 5790 H 538.163 4.09893 2.59068 0
M  V30 5791 N 539.506 -0.963266 1.24736 0
M  V30 5792 C 540.917 -1.52145 1.08207 0
M  V30 5793 C 541.268 -1.93142 -0.345061 0
M  V30 5794 O 540.393 -1.77769 -1.23399 0
M  V30 5795 C 540.988 -2.76486 1.95808 0
M  V30 5796 C 539.547 -3.28646 1.8349 0
M  V30 5797 C 538.694 -2.01529 1.90476 0
M  V30 5798 H 541.645 -0.781083 1.38148 0
M  V30 5799 H 541.666 -3.49986 1.49297 0
M  V30 5800 H 541.178 -2.46617 2.99669 0
M  V30 5801 H 539.279 -3.63357 0.824787 0
M  V30 5802 H 539.392 -3.97246 2.67829 0
M  V30 5803 H 537.756 -2.16442 1.34258 0
M  V30 5804 H 538.539 -1.7402 2.95926 0
M  V30 5805 N 540.985 -1.06182 -1.16461 0
M  V30 5806 C 542.215 -0.797425 -1.9059 0
M  V30 5807 C 542.623 0.651845 -1.77616 0
M  V30 5808 O 541.966 1.45788 -1.11766 0
M  V30 5809 C 542.028 -1.11128 -3.41893 0
M  V30 5810 C 541.692 -2.55874 -3.78652 0
M  V30 5811 C 542.689 -3.54104 -3.80665 0
M  V30 5812 C 540.374 -2.91144 -4.09317 0
M  V30 5813 C 542.368 -4.85645 -4.12829 0
M  V30 5814 C 540.055 -4.22885 -4.41148 0
M  V30 5815 C 541.053 -5.19945 -4.42883 0
M  V30 5816 O 540.741 -6.49322 -4.73959 0
M  V30 5817 H 540.473 -0.288709 -0.611247 0
M  V30 5818 H 543.027 -1.41841 -1.4856 0
M  V30 5819 H 541.257 -0.433217 -3.84266 0
M  V30 5820 H 542.946 -0.831306 -3.97296 0
M  V30 5821 H 543.712 -3.28197 -3.57088 0
M  V30 5822 H 539.591 -2.16252 -4.07131 0
M  V30 5823 H 543.135 -5.61398 -4.14099 0
M  V30 5824 H 539.032 -4.48551 -4.6419 0
M  V30 5825 H 539.8 -6.54294 -4.91774 0
M  V30 5826 N 542.463 1.3308 -0.844243 0
M  V30 5827 C 543.396 2.27075 -0.226279 0
M  V30 5828 C 544.374 1.49911 0.629716 0
M  V30 5829 O 545.558 1.79068 0.588803 0
M  V30 5830 C 542.685 3.31767 0.681782 0
M  V30 5831 C 541.731 4.26384 -0.0994565 0
M  V30 5832 S 542.564 5.15186 -1.46094 0
M  V30 5833 C 543.72 6.23405 -0.558319 0
M  V30 5834 H 543.953 2.79141 -1.02312 0
M  V30 5835 H 541.486 1.40452 -0.641292 0
M  V30 5836 H 543.444 3.92566 1.20008 0
M  V30 5837 H 542.105 2.78507 1.45234 0
M  V30 5838 H 541.298 5.00514 0.591733 0
M  V30 5839 H 540.9 3.69949 -0.548991 0
M  V30 5840 H 543.192 6.77069 0.241672 0
M  V30 5841 H 544.135 6.96619 -1.26995 0
M  V30 5842 H 544.543 5.64333 -0.13728 0
M  V30 5843 N 543.941 0.601185 1.45683 0
M  V30 5844 C 544.851 -0.123395 2.34275 0
M  V30 5845 C 545.867 -0.86702 1.5086 0
M  V30 5846 O 547.043 -0.826049 1.8368 0
M  V30 5847 C 544.108 -1.11237 3.2837 0
M  V30 5848 C 543.169 -0.371405 4.2769 0
M  V30 5849 C 542.402 -1.31327 5.1729 0
M  V30 5850 O 542.625 -2.55078 5.10188 0
M  V30 5851 O 541.559 -0.813811 5.96373 0
M  V30 5852 H 545.385 0.604483 2.97623 0
M  V30 5853 H 542.97 0.361477 1.44961 0
M  V30 5854 H 544.852 -1.68214 3.8637 0
M  V30 5855 H 543.527 -1.82139 2.67595 0
M  V30 5856 H 542.434 0.24067 3.73325 0
M  V30 5857 H 543.767 0.296998 4.91303 0
M  V30 5858 N 545.419 -1.53889 0.339982 0
M  V30 5859 C 546.382 -2.23547 -0.50592 0
M  V30 5860 C 547.382 -1.23445 -1.03044 0
M  V30 5861 O 548.572 -1.47909 -0.920253 0
M  V30 5862 C 545.704 -2.95234 -1.7044 0
M  V30 5863 H 546.897 -2.99722 0.103247 0
M  V30 5864 H 544.45 -1.56033 0.0912804 0
M  V30 5865 H 545.185 -2.23236 -2.35236 0
M  V30 5866 H 544.97 -3.68654 -1.33553 0
M  V30 5867 H 546.46 -3.48258 -2.30447 0
M  V30 5868 N 546.897 -0.0685191 -1.57451 0
M  V30 5869 C 548.144 0.601348 -1.93365 0
M  V30 5870 C 548.472 1.69816 -0.948294 0
M  V30 5871 O 547.727 1.95666 0.0366199 0
M  V30 5872 C 548.026 1.22051 -3.35914 0
M  V30 5873 C 547.692 0.250165 -4.50205 0
M  V30 5874 C 546.354 -0.0167954 -4.81197 0
M  V30 5875 C 548.706 -0.413867 -5.19554 0
M  V30 5876 C 546.034 -0.95493 -5.78876 0
M  V30 5877 C 548.386 -1.3403 -6.18238 0
M  V30 5878 C 547.05 -1.61576 -6.47649 0
M  V30 5879 H 546.32 0.220049 -0.707573 0
M  V30 5880 H 548.967 -0.138697 -1.90997 0
M  V30 5881 H 547.272 2.03622 -3.34732 0
M  V30 5882 H 548.969 1.74605 -3.6099 0
M  V30 5883 H 545.559 0.468421 -4.26033 0
M  V30 5884 H 549.743 -0.220733 -4.95809 0
M  V30 5885 H 544.999 -1.17563 -5.99991 0
M  V30 5886 H 549.173 -1.86081 -6.71079 0
M  V30 5887 H 546.8 -2.34431 -7.2315 0
M  V30 5888 N 548.375 1.56261 0.205012 0
M  V30 5889 C 549.624 1.79236 0.925058 0
M  V30 5890 C 549.937 0.640011 1.84833 0
M  V30 5891 O 551.143 0.753809 2.60826 0
M  V30 5892 C 549.599 3.17475 1.69522 0
M  V30 5893 C 549.207 4.40482 0.817269 0
M  V30 5894 C 550.951 3.49766 2.4055 0
M  V30 5895 C 548.858 5.69744 1.58573 0
M  V30 5896 H 547.788 0.668287 0.349153 0
M  V30 5897 H 550.439 1.82629 0.178544 0
M  V30 5898 H 548.821 3.08304 2.48526 0
M  V30 5899 H 549.995 4.60752 0.0665988 0
M  V30 5900 H 548.31 4.15827 0.218316 0
M  V30 5901 H 550.907 4.43573 2.98575 0
M  V30 5902 H 551.25 2.73041 3.14252 0
M  V30 5903 H 551.783 3.60341 1.68522 0
M  V30 5904 H 548.522 6.49407 0.891679 0
M  V30 5905 H 548.042 5.53509 2.31059 0
M  V30 5906 H 549.721 6.1051 2.14212 0
M  V30 5907 N 549.853 -0.472356 1.50355 0
M  V30 5908 C 550.783 -1.57859 1.72055 0
M  V30 5909 C 551.764 -1.60283 0.569505 0
M  V30 5910 O 552.949 -1.7657 0.808503 0
M  V30 5911 C 550.079 -2.96191 1.81351 0
M  V30 5912 C 549.033 -3.08633 2.96529 0
M  V30 5913 C 548.359 -4.486 2.90968 0
M  V30 5914 C 549.659 -2.85969 4.37057 0
M  V30 5915 H 551.353 -1.39953 2.64676 0
M  V30 5916 H 548.899 -0.671846 1.27367 0
M  V30 5917 H 550.852 -3.73507 1.95117 0
M  V30 5918 H 549.576 -3.15251 0.853502 0
M  V30 5919 H 548.235 -2.33749 2.82413 0
M  V30 5920 H 547.883 -4.64577 1.92815 0
M  V30 5921 H 547.583 -4.57861 3.68289 0
M  V30 5922 H 549.107 -5.27938 3.0678 0
M  V30 5923 H 550.521 -3.53036 4.51706 0
M  V30 5924 H 548.918 -3.06677 5.15819 0
M  V30 5925 H 549.988 -1.81838 4.49514 0
M  V30 5926 N 551.331 -1.39911 -0.725443 0
M  V30 5927 C 552.241 -1.41688 -1.8698 0
M  V30 5928 C 553.257 -0.310579 -1.71206 0
M  V30 5929 O 554.433 -0.55359 -1.93642 0
M  V30 5930 C 551.498 -1.26811 -3.22676 0
M  V30 5931 C 550.559 -2.47497 -3.50776 0
M  V30 5932 C 549.792 -2.3332 -4.79997 0
M  V30 5933 O 550.015 -1.34175 -5.54394 0
M  V30 5934 O 548.949 -3.22498 -5.08211 0
M  V30 5935 H 552.775 -2.38171 -1.88436 0
M  V30 5936 H 550.36 -1.21128 -0.874548 0
M  V30 5937 H 552.242 -1.20684 -4.03749 0
M  V30 5938 H 550.917 -0.334289 -3.21969 0
M  V30 5939 H 549.824 -2.59201 -2.69751 0
M  V30 5940 H 551.157 -3.39606 -3.5627 0
M  V30 5941 N 552.809 0.956637 -1.25245 0
M  V30 5942 C 554.037 1.73571 -1.12608 0
M  V30 5943 C 554.452 1.86063 0.320324 0
M  V30 5944 O 553.809 1.35691 1.22042 0
M  V30 5945 C 553.86 3.15053 -1.77268 0
M  V30 5946 O 553.581 3.03174 -3.16255 0
M  V30 5947 C 555.082 4.09248 -1.70386 0
M  V30 5948 H 552.302 0.543955 -0.392879 0
M  V30 5949 H 554.846 1.20031 -1.65568 0
M  V30 5950 H 553.001 3.65543 -1.28284 0
M  V30 5951 H 553.415 3.9241 -3.48015 0
M  V30 5952 H 554.889 5.06138 -2.20291 0
M  V30 5953 H 555.366 4.34102 -0.667239 0
M  V30 5954 H 555.972 3.64672 -2.18849 0
M  V30 5955 N 554.287 1.06798 1.15896 0
M  V30 5956 C 555.534 0.787767 1.86549 0
M  V30 5957 C 555.862 -0.685959 1.82002 0
M  V30 5958 O 555.117 -1.5188 1.23414 0
M  V30 5959 C 555.416 1.23414 3.35416 0
M  V30 5960 C 555.082 2.71285 3.6016 0
M  V30 5961 C 553.744 3.11676 3.66622 0
M  V30 5962 C 556.096 3.6676 3.7032 0
M  V30 5963 C 553.424 4.4637 3.8075 0
M  V30 5964 C 555.776 5.01209 3.8597 0
M  V30 5965 C 554.44 5.41229 3.90676 0
M  V30 5966 H 553.71 0.288264 0.682631 0
M  V30 5967 H 556.357 1.338 1.37003 0
M  V30 5968 H 554.662 0.60319 3.87129 0
M  V30 5969 H 556.359 0.994298 3.88477 0
M  V30 5970 H 552.949 2.39015 3.55767 0
M  V30 5971 H 557.133 3.36685 3.64633 0
M  V30 5972 H 552.389 4.76855 3.82648 0
M  V30 5973 H 556.563 5.75067 3.92773 0
M  V30 5974 H 554.19 6.45602 4.01375 0
M  V30 5975 N 555.766 -1.3263 0.851289 0
M  V30 5976 C 557.182 -1.50162 0.5407 0
M  V30 5977 C 557.382 -1.78788 -0.929369 0
M  V30 5978 O 556.438 -1.85545 -1.71258 0
M  V30 5979 C 557.751 -2.64803 1.42478 0
M  V30 5980 C 559.299 -2.78688 1.42485 0
M  V30 5981 C 559.774 -3.96405 2.29407 0
M  V30 5982 N 561.265 -4.0366 2.27184 0
M  V30 5983 C 562 -4.93971 2.9117 0
M  V30 5984 N 561.496 -5.89313 3.64256 0
M  V30 5985 N 563.289 -4.87066 2.80576 0
M  V30 5986 H 555.44 -1.12315 1.80275 0
M  V30 5987 H 557.703 -0.553266 0.769806 0
M  V30 5988 H 557.409 -2.50368 2.46999 0
M  V30 5989 H 557.283 -3.60506 1.10974 0
M  V30 5990 H 559.67 -2.92547 0.387304 0
M  V30 5991 H 559.751 -1.83708 1.78002 0
M  V30 5992 H 559.395 -3.83304 3.33228 0
M  V30 5993 H 559.325 -4.90654 1.91224 0
M  V30 5994 H 561.816 -3.35435 1.74045 0
M  V30 5995 H 562.129 -6.54913 4.10255 0
M  V30 5996 H 560.474 -5.8935 3.68364 0
M  V30 5997 H 563.665 -4.11552 2.23031 0
M  V30 5998 H 563.838 -5.57248 3.30725 0
M  V30 5999 N 557.244 -0.608902 -1.45362 0
M  V30 6000 C 558.194 0.130616 -2.27626 0
M  V30 6001 C 559.178 0.837323 -1.37396 0
M  V30 6002 O 560.37 0.727096 -1.61376 0
M  V30 6003 C 557.499 1.12646 -3.24293 0
M  V30 6004 C 556.585 0.42052 -4.2201 0
M  V30 6005 N 556.976 -0.538569 -5.02925 0
M  V30 6006 C 555.274 0.667901 -4.40971 0
M  V30 6007 C 555.975 -0.953625 -5.7383 0
M  V30 6008 N 554.951 -0.297097 -5.42788 0
M  V30 6009 H 558.753 -0.605996 -2.87585 0
M  V30 6010 H 556.267 -0.432672 -1.5653 0
M  V30 6011 H 558.264 1.67066 -3.81961 0
M  V30 6012 H 556.924 1.86361 -2.65894 0
M  V30 6013 H 557.935 -0.915375 -5.09746 0
M  V30 6014 H 554.612 1.38963 -3.93695 0
M  V30 6015 H 556.002 -1.74473 -6.48852 0
M  V30 6016 N 558.722 1.53707 -0.348139 0
M  V30 6017 C 559.947 2.05877 0.250883 0
M  V30 6018 C 560.372 1.22115 1.43072 0
M  V30 6019 O 559.73 0.235986 1.79758 0
M  V30 6020 C 559.778 3.54886 0.639416 0
M  V30 6021 O 558.882 3.73948 1.73888 0
M  V30 6022 H 558.223 0.662754 0.040653 0
M  V30 6023 H 560.753 1.98303 -0.503685 0
M  V30 6024 H 560.763 3.97601 0.915295 0
M  V30 6025 H 559.438 4.153 -0.223386 0
M  V30 6026 H 558.015 3.43134 1.45991 0
M  V30 6027 N 560.2 0.0768682 1.57412 0
M  V30 6028 C 561.425 -0.603404 1.98428 0
M  V30 6029 C 561.85 -1.62047 0.955108 0
M  V30 6030 O 561.208 -1.81129 -0.0786778 0
M  V30 6031 C 561.256 -1.24396 3.38464 0
M  V30 6032 O 560.36 -2.35982 3.3821 0
M  V30 6033 H 559.701 -0.154741 0.645718 0
M  V30 6034 H 562.231 0.152885 2.04028 0
M  V30 6035 H 562.241 -1.5896 3.7576 0
M  V30 6036 H 560.916 -0.498735 4.12899 0
M  V30 6037 H 559.493 -2.03173 3.1269 0
M  V30 6038 N 561.678 -1.56367 -0.196722 0
M  V30 6039 C 562.925 -1.80529 -0.917366 0
M  V30 6040 C 563.253 -0.649817 -1.83324 0
M  V30 6041 O 562.508 0.36451 -1.92275 0
M  V30 6042 C 562.807 -3.10663 -1.767 0
M  V30 6043 C 562.473 -4.3962 -1.00225 0
M  V30 6044 C 561.135 -4.74653 -0.791095 0
M  V30 6045 C 563.487 -5.1913 -0.464035 0
M  V30 6046 C 560.815 -5.86692 -0.0302155 0
M  V30 6047 C 563.167 -6.31964 0.283625 0
M  V30 6048 C 561.831 -6.65581 0.505813 0
M  V30 6049 H 561.101 -0.660602 -0.335688 0
M  V30 6050 H 563.748 -1.90615 -0.183844 0
M  V30 6051 H 562.053 -2.95807 -2.56915 0
M  V30 6052 H 563.75 -3.26563 -2.32718 0
M  V30 6053 H 560.34 -4.12127 -1.17684 0
M  V30 6054 H 564.524 -4.9248 -0.614575 0
M  V30 6055 H 559.78 -6.11211 0.151917 0
M  V30 6056 H 563.954 -6.92791 0.708057 0
M  V30 6057 H 561.581 -7.52239 1.0973 0
M  V30 6058 N 563.156 0.464375 -1.50603 0
M  V30 6059 C 564.402 1.21776 -1.62168 0
M  V30 6060 C 564.735 1.91476 -0.324154 0
M  V30 6061 O 564.01 1.8242 0.674782 0
M  V30 6062 C 564.293 2.25614 -2.80661 0
M  V30 6063 C 564.146 1.60175 -4.20314 0
M  V30 6064 C 565.465 3.26862 -2.94702 0
M  V30 6065 H 562.584 0.44137 -0.590222 0
M  V30 6066 H 565.226 0.510623 -1.8301 0
M  V30 6067 H 563.376 2.85923 -2.63021 0
M  V30 6068 H 565.048 1.03411 -4.4956 0
M  V30 6069 H 563.291 0.904697 -4.24261 0
M  V30 6070 H 563.962 2.35665 -4.99165 0
M  V30 6071 H 566.438 2.76582 -3.10872 0
M  V30 6072 H 565.314 3.96839 -3.79223 0
M  V30 6073 H 565.575 3.91382 -2.05603 0
M  V30 6074 N 564.634 1.40294 0.718013 0
M  V30 6075 C 566.045 1.34289 1.29705 0
M  V30 6076 C 566.396 0.0152228 1.96194 0
M  V30 6077 O 565.521 -0.88682 1.97394 0
M  V30 6078 C 566.116 2.43219 2.3586 0
M  V30 6079 C 564.675 2.40682 2.89394 0
M  V30 6080 C 563.822 2.24223 1.63154 0
M  V30 6081 H 566.773 1.50135 0.514312 0
M  V30 6082 H 566.794 2.10986 3.16647 0
M  V30 6083 H 566.306 3.39836 1.87439 0
M  V30 6084 H 564.407 1.47756 3.42051 0
M  V30 6085 H 564.52 3.36177 3.41353 0
M  V30 6086 H 562.884 1.71696 1.88129 0
M  V30 6087 H 563.667 3.22834 1.16761 0
M  V30 6088 N 566.112 -0.949982 1.2575 0
M  V30 6089 C 567.359 -1.69515 1.10774 0
M  V30 6090 C 567.687 -1.91316 -0.350479 0
M  V30 6091 O 566.942 -1.48515 -1.27443 0
M  V30 6092 C 567.241 -3.08039 1.81237 0
M  V30 6093 C 566.907 -3.06023 3.31151 0
M  V30 6094 C 565.569 -3.0518 3.72047 0
M  V30 6095 C 567.921 -2.98998 4.26907 0
M  V30 6096 C 565.249 -2.95067 5.07102 0
M  V30 6097 C 567.601 -2.90426 5.61992 0
M  V30 6098 C 566.265 -2.87922 6.0221 0
M  V30 6099 H 565.535 -0.6203 0.405351 0
M  V30 6100 H 568.182 -1.10953 1.56082 0
M  V30 6101 H 566.487 -3.70172 1.28373 0
M  V30 6102 H 568.184 -3.64526 1.67098 0
M  V30 6103 H 564.774 -3.07453 2.98614 0
M  V30 6104 H 568.958 -2.98764 3.963 0
M  V30 6105 H 564.214 -2.915 5.37436 0
M  V30 6106 H 568.388 -2.83952 6.35881 0
M  V30 6107 H 566.015 -2.79841 7.06819 0
M  V30 6108 N 567.59 -1.07411 -1.15328 0
M  V30 6109 C 568.818 -0.818782 -1.90009 0
M  V30 6110 C 569.233 0.628072 -1.78047 0
M  V30 6111 O 568.59 1.43085 -1.13282 0
M  V30 6112 C 568.641 -1.21874 -3.40337 0
M  V30 6113 O 568.362 -2.60883 -3.51954 0
M  V30 6114 C 569.863 -0.992796 -4.3204 0
M  V30 6115 H 567.083 -0.296007 -0.60218 0
M  V30 6116 H 569.627 -1.43073 -1.46117 0
M  V30 6117 H 567.782 -0.651103 -3.81889 0
M  V30 6118 H 568.196 -2.77216 -4.45255 0
M  V30 6119 H 569.67 -1.32215 -5.35932 0
M  V30 6120 H 570.147 0.0708331 -4.39143 0
M  V30 6121 H 570.753 -1.54537 -3.9623 0
M  V30 6122 N 569.068 1.32177 -0.85831 0
M  V30 6123 C 570.317 1.96392 -0.459689 0
M  V30 6124 C 570.63 1.68659 0.990632 0
M  V30 6125 O 571.836 2.26641 1.49485 0
M  V30 6126 C 570.292 3.51542 -0.7711 0
M  V30 6127 C 569.9 3.8813 -2.2374 0
M  V30 6128 C 571.644 4.2221 -0.44038 0
M  V30 6129 C 569.551 5.36341 -2.49183 0
M  V30 6130 H 568.481 0.735007 -0.168169 0
M  V30 6131 H 571.132 1.50518 -1.0496 0
M  V30 6132 H 569.514 3.95846 -0.11058 0
M  V30 6133 H 570.688 3.54824 -2.94001 0
M  V30 6134 H 569.003 3.30497 -2.533 0
M  V30 6135 H 571.6 5.31234 -0.607855 0
M  V30 6136 H 571.943 4.11683 0.618291 0
M  V30 6137 H 572.476 3.83502 -1.05695 0
M  V30 6138 H 569.215 5.51892 -3.53689 0
M  V30 6139 H 568.735 5.7104 -1.83504 0
M  V30 6140 H 570.414 6.03466 -2.33318 0
M  V30 6141 N 570.547 0.616602 1.45037 0
M  V30 6142 C 571.958 0.199359 1.85633 0
M  V30 6143 C 572.309 -1.24588 1.51566 0
M  V30 6144 O 571.434 -1.94594 0.94668 0
M  V30 6145 C 572.029 0.355033 3.36935 0
M  V30 6146 C 570.588 -0.00758748 3.76399 0
M  V30 6147 C 569.735 0.675256 2.68953 0
M  V30 6148 H 572.686 0.822708 1.3571 0
M  V30 6149 H 572.707 -0.410201 3.78282 0
M  V30 6150 H 572.219 1.40699 3.61698 0
M  V30 6151 H 570.32 -1.05837 3.57252 0
M  V30 6152 H 570.433 0.392346 4.77491 0
M  V30 6153 H 568.797 0.111992 2.54454 0
M  V30 6154 H 569.58 1.72952 2.96551 0
M  V30 6155 N 572.025 -1.5352 0.356285 0
M  V30 6156 C 572.975 -2.22204 -0.510815 0
M  V30 6157 C 573.959 -1.21393 -1.05605 0
M  V30 6158 O 575.151 -1.46883 -0.987639 0
M  V30 6159 C 572.28 -3.00786 -1.65478 0
M  V30 6160 C 571.366 -4.08965 -1.12287 0
M  V30 6161 N 571.757 -5.04829 -0.313191 0
M  V30 6162 C 570.055 -4.23505 -1.39856 0
M  V30 6163 C 570.756 -5.81695 -0.0230322 0
M  V30 6164 N 569.732 -5.40074 -0.618144 0
M  V30 6165 H 573.534 -2.93676 0.114711 0
M  V30 6166 H 571.048 -1.61572 0.163811 0
M  V30 6167 H 573.045 -3.48502 -2.28806 0
M  V30 6168 H 571.705 -2.30843 -2.28345 0
M  V30 6169 H 572.716 -5.17879 0.0468202 0
M  V30 6170 H 569.393 -3.64786 -2.0307 0
M  V30 6171 H 570.783 -6.68931 0.630927 0
M  V30 6172 N 573.503 -0.0852151 -1.57369 0
M  V30 6173 C 574.728 0.592872 -1.98746 0
M  V30 6174 C 575.153 1.61538 -0.963689 0
M  V30 6175 O 574.511 1.81168 0.069071 0
M  V30 6176 C 574.559 1.22599 -3.39119 0
M  V30 6177 O 573.663 2.34185 -3.39457 0
M  V30 6178 H 573.004 0.151314 -0.646529 0
M  V30 6179 H 575.534 -0.163703 -2.03944 0
M  V30 6180 H 575.544 1.56965 -3.76598 0
M  V30 6181 H 574.219 0.476831 -4.13158 0
M  V30 6182 H 572.796 2.01512 -3.13763 0
M  V30 6183 N 574.981 1.5647 0.188427 0
M  V30 6184 C 576.209 1.85131 0.923803 0
M  V30 6185 C 576.624 0.668537 1.76567 0
M  V30 6186 O 575.981 -0.362662 1.7886 0
M  V30 6187 C 576.032 3.12661 1.81453 0
M  V30 6188 O 575.753 4.26378 1.00665 0
M  V30 6189 C 577.254 3.54548 2.66103 0
M  V30 6190 H 574.474 0.614624 0.269218 0
M  V30 6191 H 577.018 2.03581 0.193671 0
M  V30 6192 H 575.173 2.96088 2.49821 0
M  V30 6193 H 575.587 4.99041 1.61425 0
M  V30 6194 H 577.061 4.4673 3.24247 0
M  V30 6195 H 577.538 2.77853 3.40139 0
M  V30 6196 H 578.144 3.73674 2.03096 0
M  V30 6197 N 576.459 -0.456382 1.50847 0
M  V30 6198 C 577.687 -1.23026 1.66349 0
M  V30 6199 C 578.102 -1.85473 0.352868 0
M  V30 6200 O 577.459 -1.69885 -0.666739 0
M  V30 6201 C 577.51 -2.32827 2.76539 0
M  V30 6202 O 577.231 -1.72938 4.02522 0
M  V30 6203 C 578.732 -3.23448 3.03144 0
M  V30 6204 H 575.952 -0.371527 0.558756 0
M  V30 6205 H 578.496 -0.543082 1.97157 0
M  V30 6206 H 576.651 -2.97294 2.48384 0
M  V30 6207 H 577.065 -2.45357 4.63573 0
M  V30 6208 H 578.539 -3.96669 3.83872 0
M  V30 6209 H 579.016 -3.83094 2.14793 0
M  V30 6210 H 579.622 -2.64702 3.32886 0
M  V30 6211 N 577.937 -1.40673 -0.710563 0
M  V30 6212 C 579.353 -1.22813 -1.01928 0
M  V30 6213 C 579.553 -0.10687 -2.01216 0
M  V30 6214 O 578.609 0.533614 -2.46797 0
M  V30 6215 C 579.922 -2.57178 -1.5582 0
M  V30 6216 C 581.47 -2.64233 -1.67779 0
M  V30 6217 C 581.945 -3.98879 -2.25076 0
M  V30 6218 N 583.436 -4.00647 -2.32456 0
M  V30 6219 C 584.171 -5.01621 -2.77784 0
M  V30 6220 N 583.667 -6.12989 -3.22826 0
M  V30 6221 N 585.46 -4.88988 -2.77213 0
M  V30 6222 H 577.611 -2.12335 -0.05253 0
M  V30 6223 H 579.874 -0.9441 -0.085898 0
M  V30 6224 H 579.58 -3.39903 -0.903249 0
M  V30 6225 H 579.454 -2.78618 -2.54267 0
M  V30 6226 H 581.841 -1.81876 -2.3239 0
M  V30 6227 H 581.922 -2.46619 -0.679178 0
M  V30 6228 H 581.566 -4.81678 -1.61086 0
M  V30 6229 H 581.496 -4.13826 -3.25661 0
M  V30 6230 H 583.987 -3.20231 -2.0065 0
M  V30 6231 H 584.3 -6.85921 -3.55995 0
M  V30 6232 H 582.645 -6.16547 -3.20773 0
M  V30 6233 H 585.836 -4.01075 -2.41363 0
M  V30 6234 H 586.009 -5.67822 -3.12221 0
M  V30 6235 N 579.415 0.9433 -1.26252 0
M  V30 6236 C 580.692 1.66639 -1.02424 0
M  V30 6237 C 581.072 2.06335 0.446006 0
M  V30 6238 O 580.42 1.78551 1.42589 0
M  V30 6239 C 580.63 2.88019 -1.97094 0
M  V30 6240 C 581.978 3.59718 -2.25584 0
M  V30 6241 O 583.002 2.9812 -1.94943 0
M  V30 6242 O 581.861 4.7066 -2.77743 0
M  V30 6243 H 578.955 0.729643 -0.389294 0
M  V30 6244 H 581.501 0.995218 -1.37454 0
M  V30 6245 H 580.273 2.5556 -2.96319 0
M  V30 6246 H 579.896 3.62863 -1.62532 0
M  V30 6247 N 580.893 1.08022 1.14757 0
M  V30 6248 C 582.121 0.828847 1.89572 0
M  V30 6249 C 582.536 -0.618621 1.78377 0
M  V30 6250 O 581.893 -1.42482 1.1404 0
M  V30 6251 C 581.944 1.23677 3.39685 0
M  V30 6252 O 581.665 2.62746 3.50566 0
M  V30 6253 C 583.166 1.01569 4.31507 0
M  V30 6254 H 580.386 0.299196 0.600602 0
M  V30 6255 H 582.93 1.43846 1.45357 0
M  V30 6256 H 581.085 0.671347 3.81539 0
M  V30 6257 H 581.499 2.79573 4.43778 0
M  V30 6258 H 582.973 1.35055 5.35223 0
M  V30 6259 H 583.45 -0.0475433 4.39174 0
M  V30 6260 H 584.056 1.56636 3.95405 0
M  V30 6261 N 582.371 -1.3172 0.865308 0
M  V30 6262 C 583.596 -2.01591 0.487415 0
M  V30 6263 C 584.021 -1.6455 -0.911307 0
M  V30 6264 O 583.379 -0.851689 -1.6005 0
M  V30 6265 C 583.427 -3.54759 0.646401 0
M  V30 6266 O 582.531 -4.11185 -0.316284 0
M  V30 6267 H 581.872 -0.634884 0.194468 0
M  V30 6268 H 584.402 -1.68024 1.16744 0
M  V30 6269 H 584.412 -4.04438 0.537932 0
M  V30 6270 H 583.087 -3.8106 1.66632 0
M  V30 6271 H 581.664 -3.72543 -0.163162 0
M  V30 6272 N 583.85 -0.624285 -1.44708 0
M  V30 6273 C 584.779 0.0717025 -2.3339 0
M  V30 6274 C 585.76 0.841814 -1.47809 0
M  V30 6275 O 586.946 0.809056 -1.76544 0
M  V30 6276 C 584.076 1.05852 -3.30776 0
M  V30 6277 C 583.029 0.400503 -4.26122 0
M  V30 6278 C 582.356 1.49674 -5.13324 0
M  V30 6279 C 583.656 -0.688924 -5.17737 0
M  V30 6280 H 585.35 -0.668819 -2.91834 0
M  V30 6281 H 582.896 -0.32308 -1.40329 0
M  V30 6282 H 584.849 1.5541 -3.91696 0
M  V30 6283 H 583.572 1.82984 -2.70526 0
M  V30 6284 H 582.231 -0.0743687 -3.66525 0
M  V30 6285 H 581.88 2.25877 -4.49431 0
M  V30 6286 H 581.58 1.06188 -5.77926 0
M  V30 6287 H 583.104 1.99427 -5.77115 0
M  V30 6288 H 584.518 -0.276724 -5.72632 0
M  V30 6289 H 582.915 -1.04652 -5.90904 0
M  V30 6290 H 583.985 -1.55884 -4.5916 0
M  V30 6291 N 585.328 1.53329 -0.364422 0
M  V30 6292 C 586.275 2.25698 0.482607 0
M  V30 6293 C 587.245 1.26325 1.07848 0
M  V30 6294 O 588.43 1.55104 1.11119 0
M  V30 6295 C 585.57 3.04873 1.61699 0
M  V30 6296 C 584.683 4.19135 1.0464 0
M  V30 6297 C 583.818 4.85754 2.14979 0
M  V30 6298 C 582.857 5.9205 1.5538 0
M  V30 6299 N 581.994 6.52365 2.59547 0
M  V30 6300 H 586.834 2.97666 -0.141032 0
M  V30 6301 H 584.371 1.46875 -0.0813692 0
M  V30 6302 H 586.329 3.49051 2.28516 0
M  V30 6303 H 584.959 2.35162 2.2113 0
M  V30 6304 H 584.011 3.79451 0.268553 0
M  V30 6305 H 585.323 4.95525 0.570653 0
M  V30 6306 H 584.477 5.3311 2.89619 0
M  V30 6307 H 583.216 4.08834 2.65906 0
M  V30 6308 H 582.221 5.44058 0.792549 0
M  V30 6309 H 583.446 6.7089 1.0528 0
M  V30 6310 H 581.392 5.78298 3.09689 0
M  V30 6311 H 581.309 7.2429 2.16655 0
M  V30 6312 H 582.577 7.0437 3.33892 0
M  V30 6313 N 586.806 0.0935595 1.57322 0
M  V30 6314 C 588.054 -0.569383 1.93913 0
M  V30 6315 C 588.375 -1.68817 0.976009 0
M  V30 6316 O 587.645 -1.9588 0.0278099 0
M  V30 6317 H 586.225 -0.21332 0.715894 0
M  V30 6318 H 588.887 0.156531 1.9427 0
M  V30 6319 H 587.983 -0.980577 2.96296 0
M  V30 6320 N 588.284 -1.56567 -0.180126 0
M  V30 6321 C 589.531 -1.81492 -0.898167 0
M  V30 6322 C 589.859 -0.669225 -1.82624 0
M  V30 6323 O 589.114 0.344096 -1.92651 0
M  V30 6324 C 589.413 -3.1252 -1.73395 0
M  V30 6325 C 589.079 -4.40658 -0.955567 0
M  V30 6326 C 587.741 -4.75465 -0.740707 0
M  V30 6327 C 590.093 -5.19593 -0.408948 0
M  V30 6328 C 587.421 -5.86691 0.0320128 0
M  V30 6329 C 589.773 -6.31627 0.350638 0
M  V30 6330 C 588.437 -6.65007 0.576378 0
M  V30 6331 H 587.707 -0.664125 -0.328662 0
M  V30 6332 H 590.354 -1.908 -0.163616 0
M  V30 6333 H 588.659 -2.98515 -2.53763 0
M  V30 6334 H 590.356 -3.29013 -2.29241 0
M  V30 6335 H 586.946 -4.13352 -1.13306 0
M  V30 6336 H 591.13 -4.93104 -0.562307 0
M  V30 6337 H 586.386 -6.11016 0.216735 0
M  V30 6338 H 590.56 -6.92001 0.781497 0
M  V30 6339 H 588.187 -7.51033 1.17703 0
M  V30 6340 N 589.762 0.448376 -1.51087 0
M  V30 6341 C 590.992 1.21965 -1.66757 0
M  V30 6342 C 591.4 1.85748 -0.359753 0
M  V30 6343 O 590.743 1.71022 0.670604 0
M  V30 6344 C 590.805 2.35284 -2.71812 0
M  V30 6345 C 590.469 1.91957 -4.1473 0
M  V30 6346 C 591.466 1.42921 -4.9987 0
M  V30 6347 C 589.151 1.99985 -4.60772 0
M  V30 6348 C 591.145 1.02485 -6.29107 0
M  V30 6349 C 588.832 1.5916 -5.90009 0
M  V30 6350 C 589.83 1.10491 -6.74004 0
M  V30 6351 O 589.518 0.702413 -8.00825 0
M  V30 6352 H 589.25 0.374125 -0.563034 0
M  V30 6353 H 591.804 0.538927 -1.98204 0
M  V30 6354 H 590.034 3.06599 -2.35657 0
M  V30 6355 H 591.723 2.97184 -2.76472 0
M  V30 6356 H 592.489 1.36123 -4.65506 0
M  V30 6357 H 588.368 2.36814 -3.95525 0
M  V30 6358 H 591.912 0.644271 -6.94619 0
M  V30 6359 H 587.809 1.65626 -6.2389 0
M  V30 6360 H 588.577 0.829248 -8.14288 0
M  V30 6361 N 591.24 1.41047 0.703093 0
M  V30 6362 C 592.489 1.39301 1.4587 0
M  V30 6363 C 592.802 0.00267077 1.956 0
M  V30 6364 O 594.008 -0.137414 2.71152 0
M  V30 6365 C 592.464 2.44891 2.63735 0
M  V30 6366 C 592.072 3.89796 2.20824 0
M  V30 6367 C 593.816 2.5227 3.41409 0
M  V30 6368 C 591.723 4.86955 3.35602 0
M  V30 6369 H 590.653 0.518005 0.547893 0
M  V30 6370 H 593.304 1.66839 0.764009 0
M  V30 6371 H 591.686 2.10472 3.35436 0
M  V30 6372 H 592.86 4.33424 1.56461 0
M  V30 6373 H 591.175 3.86008 1.56163 0
M  V30 6374 H 593.772 3.22044 4.26839 0
M  V30 6375 H 594.115 1.55714 3.86081 0
M  V30 6376 H 594.648 2.85742 2.7676 0
M  V30 6377 H 591.387 5.84888 2.9595 0
M  V30 6378 H 590.907 4.47982 3.98839 0
M  V30 6379 H 592.586 5.07361 4.01489 0
M  V30 6380 N 592.718 -0.936591 1.26751 0
M  V30 6381 C 594.129 -1.49816 1.1141 0
M  V30 6382 C 594.48 -1.9383 -0.304015 0
M  V30 6383 O 593.605 -1.80346 -1.196 0
M  V30 6384 C 594.2 -2.72271 2.01629 0
M  V30 6385 C 592.759 -3.2468 1.9042 0
M  V30 6386 C 591.906 -1.97444 1.94708 0
M  V30 6387 H 594.857 -0.751604 1.39773 0
M  V30 6388 H 594.878 -3.46741 1.56688 0
M  V30 6389 H 594.39 -2.40205 3.04833 0
M  V30 6390 H 592.491 -3.61525 0.901674 0
M  V30 6391 H 592.604 -3.91476 2.76195 0
M  V30 6392 H 590.968 -2.13545 1.38818 0
M  V30 6393 H 591.751 -1.67703 2.9955 0
M  V30 6394 N 594.196 -1.08629 -1.14182 0
M  V30 6395 C 595.143 -0.718299 -2.19338 0
M  V30 6396 C 596.113 0.296587 -1.63431 0
M  V30 6397 O 597.298 0.180079 -1.89948 0
M  V30 6398 C 594.438 -0.136203 -3.44831 0
M  V30 6399 C 593.551 -1.20414 -4.14879 0
M  V30 6400 C 592.686 -0.585666 -5.27962 0
M  V30 6401 C 591.725 -1.63548 -5.89846 0
M  V30 6402 N 590.862 -1.03864 -6.94375 0
M  V30 6403 H 595.702 -1.61932 -2.50164 0
M  V30 6404 H 593.239 -0.80919 -1.22844 0
M  V30 6405 H 595.197 0.219021 -4.16625 0
M  V30 6406 H 593.827 0.728121 -3.14481 0
M  V30 6407 H 592.879 -1.67676 -3.41451 0
M  V30 6408 H 594.191 -1.99959 -4.56966 0
M  V30 6409 H 593.345 -0.178818 -6.06436 0
M  V30 6410 H 592.084 0.24142 -4.87102 0
M  V30 6411 H 591.089 -2.05197 -5.10073 0
M  V30 6412 H 592.314 -2.46509 -6.3278 0
M  V30 6413 H 590.26 -0.232687 -6.55587 0
M  V30 6414 H 590.177 -1.77116 -7.3496 0
M  V30 6415 H 591.445 -0.657724 -7.7672 0
M  V30 6416 N 595.674 1.31259 -0.872281 0
M  V30 6417 C 596.922 1.96233 -0.483409 0
M  V30 6418 C 597.243 1.69276 0.968012 0
M  V30 6419 O 596.513 1.00943 1.67891 0
M  V30 6420 H 595.093 0.726025 -0.175774 0
M  V30 6421 H 597.755 1.60024 -1.11258 0
M  V30 6422 H 596.851 3.05403 -0.643075 0
M  V30 6423 N 597.152 0.631951 1.44375 0
M  V30 6424 C 598.568 0.297642 1.568 0
M  V30 6425 C 598.768 -1.19916 1.61934 0
M  V30 6426 O 597.824 -1.98324 1.56281 0
M  V30 6427 C 599.137 0.990286 2.83926 0
M  V30 6428 C 600.685 0.968507 2.97639 0
M  V30 6429 C 601.16 1.64163 4.27568 0
M  V30 6430 N 602.651 1.60826 4.34384 0
M  V30 6431 C 603.386 2.09802 5.33639 0
M  V30 6432 N 602.882 2.66973 6.39294 0
M  V30 6433 N 604.675 2.00426 5.25153 0
M  V30 6434 H 596.826 1.60353 1.39286 0
M  V30 6435 H 599.089 0.673142 0.667521 0
M  V30 6436 H 598.795 2.04519 2.8612 0
M  V30 6437 H 598.669 0.528563 3.73478 0
M  V30 6438 H 601.056 -0.0779247 2.94997 0
M  V30 6439 H 601.137 1.46873 2.09433 0
M  V30 6440 H 600.781 2.68752 4.3097 0
M  V30 6441 H 600.711 1.11624 5.14634 0
M  V30 6442 H 603.202 1.19087 3.58646 0
M  V30 6443 H 603.515 3.02074 7.11316 0
M  V30 6444 H 601.86 2.71024 6.39977 0
M  V30 6445 H 605.051 1.55483 4.41523 0
M  V30 6446 H 605.224 2.38906 6.02352 0
M  V30 6447 N 598.631 -1.53133 0.372548 0
M  V30 6448 C 599.871 -2.03267 -0.214943 0
M  V30 6449 C 600.235 -1.25362 -1.45425 0
M  V30 6450 O 601.436 -1.65536 -2.11781 0
M  V30 6451 C 599.707 -3.53985 -0.492897 0
M  V30 6452 S 601.266 -4.25977 -1.05307 0
M  V30 6453 H 598.084 -0.708289 -0.062029 0
M  V30 6454 H 600.686 -1.88539 0.517025 0
M  V30 6455 H 599.39 -4.08282 0.416442 0
M  V30 6456 H 598.921 -3.72887 -1.25375 0
M  V30 6457 H 600.936 -4.37731 -2.33679 0
M  V30 6458 N 600.109 -0.101901 -1.5727 0
M  V30 6459 C 601.355 0.561027 -1.94885 0
M  V30 6460 C 601.688 1.6741 -0.984258 0
M  V30 6461 O 600.963 1.94491 -0.0184767 0
M  V30 6462 C 601.246 1.10982 -3.42571 0
M  V30 6463 C 601.099 0.00133418 -4.498 0
M  V30 6464 C 602.418 2.00608 -3.9172 0
M  V30 6465 H 599.537 0.202467 -0.708644 0
M  V30 6466 H 602.179 -0.173992 -1.89202 0
M  V30 6467 H 600.329 1.73621 -3.47546 0
M  V30 6468 H 602.001 -0.63322 -4.56933 0
M  V30 6469 H 600.244 -0.664143 -4.28686 0
M  V30 6470 H 600.915 0.426253 -5.50352 0
M  V30 6471 H 603.391 1.47864 -3.88941 0
M  V30 6472 H 602.267 2.3593 -4.95609 0
M  V30 6473 H 602.528 2.92608 -3.3141 0
M  V30 6474 N 601.587 1.56661 0.17182 0
M  V30 6475 C 602.834 1.81965 0.888529 0
M  V30 6476 C 603.162 0.6789 1.82267 0
M  V30 6477 O 602.417 -0.333875 1.92831 0
M  V30 6478 C 602.716 3.13435 1.71736 0
M  V30 6479 C 602.382 4.41159 0.932184 0
M  V30 6480 C 601.044 4.75851 0.715481 0
M  V30 6481 C 603.396 5.19803 0.381387 0
M  V30 6482 C 600.724 5.86666 -0.063126 0
M  V30 6483 C 603.076 6.31433 -0.384129 0
M  V30 6484 C 601.74 6.64692 -0.611637 0
M  V30 6485 H 601.01 0.665859 0.325136 0
M  V30 6486 H 603.657 1.90884 0.153495 0
M  V30 6487 H 601.962 2.99857 2.52177 0
M  V30 6488 H 603.659 3.30224 2.27493 0
M  V30 6489 H 600.249 4.13947 1.11112 0
M  V30 6490 H 604.433 4.93396 0.536148 0
M  V30 6491 H 599.689 6.10892 -0.249136 0
M  V30 6492 H 603.863 6.91577 -0.818185 0
M  V30 6493 H 601.49 7.50398 -1.21684 0
M  V30 6494 N 603.065 -0.440357 1.51323 0
M  V30 6495 C 604.311 -1.19181 1.64085 0
M  V30 6496 C 604.644 -1.90936 0.354575 0
M  V30 6497 O 603.919 -1.8347 -0.645675 0
M  V30 6498 C 604.202 -2.2112 2.84215 0
M  V30 6499 C 604.055 -1.53468 4.22809 0
M  V30 6500 C 605.374 -3.22133 2.99864 0
M  V30 6501 H 602.493 -0.431924 0.597169 0
M  V30 6502 H 605.135 -0.481443 1.83799 0
M  V30 6503 H 603.285 -2.81703 2.67537 0
M  V30 6504 H 604.957 -0.962455 4.51148 0
M  V30 6505 H 603.2 -0.837086 4.25647 0
M  V30 6506 H 603.871 -2.27694 5.02852 0
M  V30 6507 H 606.347 -2.71601 3.15233 0
M  V30 6508 H 605.223 -3.90756 3.85488 0
M  V30 6509 H 605.484 -3.88061 2.11804 0
M  V30 6510 N 604.543 -1.41418 -0.695603 0
M  V30 6511 C 605.491 -1.43467 -1.83084 0
M  V30 6512 C 606.485 -0.312719 -1.66489 0
M  V30 6513 O 607.691 -0.484744 -1.7335 0
M  V30 6514 H 604.066 -0.448891 -0.603325 0
M  V30 6515 H 606.037 -2.39144 -1.78473 0
M  V30 6516 C 604.786 -1.3337 -3.21104 0
M  V30 6517 H 604.109 -2.18989 -3.3449 0
M  V30 6518 H 605.549 -1.38865 -4.00615 0
M  V30 6519 C 604.008 -0.0460484 -3.36869 0
M  V30 6520 O 604.538 0.909258 -3.91274 0
M  V30 6521 N 602.744 0.0300222 -2.90584 0
M  V30 6522 H 602.291 -0.748129 -2.46497 0
M  V30 6523 H 602.249 0.890991 -3.01511 0
M  V30 6524 N 606.021 0.929856 -1.27246 0
M  V30 6525 C 606.953 2.03434 -1.0558 0
M  V30 6526 C 607.966 1.62795 -0.0125762 0
M  V30 6527 O 609.155 1.76685 -0.2539 0
M  V30 6528 C 606.255 3.33915 -0.57912 0
M  V30 6529 C 605.428 4.03259 -1.69415 0
M  V30 6530 C 604.487 5.12014 -1.21357 0
M  V30 6531 O 603.513 5.36097 -1.91282 0
M  V30 6532 N 604.715 5.8046 -0.0680622 0
M  V30 6533 H 607.48 2.22583 -2.00691 0
M  V30 6534 H 605.041 1.1001 -1.18783 0
M  V30 6535 H 607.033 4.03978 -0.241563 0
M  V30 6536 H 605.603 3.11355 0.278703 0
M  V30 6537 H 604.823 3.26958 -2.20209 0
M  V30 6538 H 606.111 4.46337 -2.44255 0
M  V30 6539 H 605.509 5.63345 0.515626 0
M  V30 6540 H 604.066 6.51461 0.210332 0
M  V30 6541 N 607.499 1.09233 1.13605 0
M  V30 6542 C 608.745 0.838255 1.85324 0
M  V30 6543 C 609.1 -0.629314 1.81817 0
M  V30 6544 O 608.393 -1.45729 1.24393 0
M  V30 6545 C 608.587 1.305 3.32723 0
M  V30 6546 C 608.416 2.81641 3.50583 0
M  V30 6547 C 607.186 3.49494 3.64941 0
M  V30 6548 C 609.384 3.79789 3.46792 0
M  V30 6549 N 607.366 4.89082 3.71042 0
M  V30 6550 C 608.737 5.05319 3.59239 0
M  V30 6551 C 610.792 3.72673 3.30181 0
M  V30 6552 C 609.495 6.24574 3.56791 0
M  V30 6553 C 611.521 4.91413 3.29039 0
M  V30 6554 C 610.883 6.15785 3.42035 0
M  V30 6555 H 606.982 0.359572 0.69443 0
M  V30 6556 H 609.566 1.39232 1.36098 0
M  V30 6557 H 607.737 0.778411 3.8052 0
M  V30 6558 H 609.469 0.996465 3.92241 0
M  V30 6559 H 606.224 2.9992 3.66531 0
M  V30 6560 H 606.648 5.61787 3.77789 0
M  V30 6561 H 611.29 2.77444 3.19037 0
M  V30 6562 H 609.008 7.20105 3.66708 0
M  V30 6563 H 612.594 4.87604 3.17386 0
M  V30 6564 H 611.474 7.06126 3.41111 0
M  V30 6565 N 608.977 -1.30795 0.87923 0
M  V30 6566 C 609.909 -2.27241 0.299025 0
M  V30 6567 C 610.922 -1.53472 -0.543166 0
M  V30 6568 O 612.111 -1.74756 -0.363651 0
M  V30 6569 C 609.211 -3.33655 -0.593931 0
M  V30 6570 C 608.384 -4.36857 0.2179 0
M  V30 6571 C 607.443 -5.22715 -0.604646 0
M  V30 6572 O 606.469 -5.69192 -0.0293838 0
M  V30 6573 N 607.671 -5.48008 -1.91488 0
M  V30 6574 H 610.436 -2.77667 1.12788 0
M  V30 6575 H 607.997 -1.43914 0.741637 0
M  V30 6576 H 609.989 -3.88013 -1.15012 0
M  V30 6577 H 608.559 -2.83202 -1.32346 0
M  V30 6578 H 607.779 -3.82444 0.955536 0
M  V30 6579 H 609.067 -5.02869 0.774614 0
M  V30 6580 H 608.465 -5.1202 -2.40525 0
M  V30 6581 H 607.022 -6.05264 -2.41864 0
M  V30 6582 N 610.455 -0.639598 -1.44038 0
M  V30 6583 C 611.704 -0.144885 -2.01179 0
M  V30 6584 C 612.017 1.24372 -1.50967 0
M  V30 6585 O 613.223 1.83291 -2.00292 0
M  V30 6586 C 611.679 -0.208244 -3.59297 0
M  V30 6587 C 611.287 -1.59869 -4.18504 0
M  V30 6588 C 613.031 0.229568 -4.23879 0
M  V30 6589 C 610.938 -1.61671 -5.68873 0
M  V30 6590 H 609.868 -0.0504005 -0.752314 0
M  V30 6591 H 612.519 -0.799639 -1.65161 0
M  V30 6592 H 610.901 0.513767 -3.92653 0
M  V30 6593 H 612.075 -2.34496 -3.96671 0
M  V30 6594 H 610.39 -1.98131 -3.66242 0
M  V30 6595 H 612.987 0.235758 -5.3418 0
M  V30 6596 H 613.33 1.25848 -3.96822 0
M  V30 6597 H 613.863 -0.440233 -3.95357 0
M  V30 6598 H 610.602 -2.62427 -6.00677 0
M  V30 6599 H 610.122 -0.913489 -5.92803 0
M  V30 6600 H 611.801 -1.35439 -6.32665 0
M  V30 6601 N 611.933 1.52934 -0.380664 0
M  V30 6602 C 612.881 2.27727 0.47361 0
M  V30 6603 C 613.875 1.31288 1.0705 0
M  V30 6604 O 615.081 1.4886 1.01197 0
M  V30 6605 H 611.456 0.732189 0.171475 0
M  V30 6606 H 613.427 2.97864 -0.178785 0
M  V30 6607 C 612.176 3.0904 1.59341 0
M  V30 6608 H 611.499 3.831 1.14343 0
M  V30 6609 H 612.939 3.64527 2.16555 0
M  V30 6610 C 611.398 2.20813 2.54447 0
M  V30 6611 O 611.928 1.82907 3.57642 0
M  V30 6612 N 610.134 1.85145 2.23986 0
M  V30 6613 H 609.681 2.16169 1.40103 0
M  V30 6614 H 609.639 1.26402 2.87871 0
M  V30 6615 N 613.412 0.11024 1.57214 0
M  V30 6616 C 614.362 -0.854147 2.11396 0
M  V30 6617 C 615.346 -1.23394 1.03261 0
M  V30 6618 O 616.538 -1.20649 1.2951 0
M  V30 6619 C 613.667 -2.10752 2.70995 0
M  V30 6620 C 612.753 -1.75249 3.86198 0
M  V30 6621 N 613.144 -1.10377 4.9361 0
M  V30 6622 C 611.442 -2.04763 3.96217 0
M  V30 6623 C 612.143 -0.938199 5.74084 0
M  V30 6624 N 611.119 -1.46039 5.23616 0
M  V30 6625 H 614.921 -0.348897 2.91822 0
M  V30 6626 H 612.435 -0.0925071 1.62136 0
M  V30 6627 H 614.432 -2.80801 3.0815 0
M  V30 6628 H 613.092 -2.61829 1.9203 0
M  V30 6629 H 614.103 -0.768785 5.12162 0
M  V30 6630 H 610.78 -2.57948 3.28282 0
M  V30 6631 H 612.17 -0.429678 6.70525 0
M  V30 6632 N 614.89 -1.56749 -0.16351 0
M  V30 6633 C 616.167 -1.73321 -0.906599 0
M  V30 6634 C 616.547 -0.673779 -2.00059 0
M  V30 6635 O 615.895 0.310121 -2.26386 0
M  V30 6636 C 616.105 -3.168 -1.46419 0
M  V30 6637 C 617.453 -3.77993 -1.93407 0
M  V30 6638 O 618.477 -3.20127 -1.56196 0
M  V30 6639 O 617.336 -4.79615 -2.61976 0
M  V30 6640 H 614.43 -0.708073 -0.427272 0
M  V30 6641 H 616.976 -1.69029 -0.150727 0
M  V30 6642 H 615.748 -3.85396 -0.677189 0
M  V30 6643 H 615.371 -3.2545 -2.28403 0
M  V30 6644 N 616.368 0.432326 -1.51554 0
M  V30 6645 C 617.3 1.54357 -1.6943 0
M  V30 6646 C 618.313 1.52311 -0.574897 0
M  V30 6647 O 619.502 1.56997 -0.849369 0
M  V30 6648 C 616.602 2.93273 -1.69836 0
M  V30 6649 C 615.775 3.19768 -2.98442 0
M  V30 6650 C 614.834 4.38433 -2.90969 0
M  V30 6651 O 613.86 4.36842 -3.64908 0
M  V30 6652 N 615.062 5.42276 -2.07163 0
M  V30 6653 H 617.827 1.39426 -2.65293 0
M  V30 6654 H 615.388 0.621331 -1.49503 0
M  V30 6655 H 617.38 3.70687 -1.62399 0
M  V30 6656 H 615.95 3.01777 -0.815456 0
M  V30 6657 H 615.17 2.30607 -3.19709 0
M  V30 6658 H 616.458 3.343 -3.83563 0
M  V30 6659 H 615.856 5.46407 -1.46477 0
M  V30 6660 H 614.413 6.18524 -2.05601 0
M  V30 6661 N 617.846 1.41785 0.688094 0
M  V30 6662 C 618.793 1.44221 1.80191 0
M  V30 6663 C 619.763 0.295688 1.63447 0
M  V30 6664 O 620.948 0.49783 1.84191 0
M  V30 6665 C 618.088 1.33743 3.1813 0
M  V30 6666 C 617.201 2.58325 3.46254 0
M  V30 6667 C 616.336 2.40086 4.73848 0
M  V30 6668 C 615.375 3.60107 4.94964 0
M  V30 6669 N 614.512 3.40892 6.13789 0
M  V30 6670 H 619.352 2.39411 1.77444 0
M  V30 6671 H 616.889 1.18876 0.866423 0
M  V30 6672 H 618.847 1.25669 3.97823 0
M  V30 6673 H 617.477 0.42157 3.20035 0
M  V30 6674 H 616.529 2.7682 2.60912 0
M  V30 6675 H 617.841 3.4758 3.57756 0
M  V30 6676 H 616.995 2.29522 5.61609 0
M  V30 6677 H 615.734 1.483 4.64606 0
M  V30 6678 H 614.739 3.71118 4.05649 0
M  V30 6679 H 615.964 4.52857 5.06061 0
M  V30 6680 H 613.91 2.51812 6.05745 0
M  V30 6681 H 613.827 4.23727 6.26092 0
M  V30 6682 H 615.095 3.34114 7.04264 0
M  V30 6683 N 619.324 -0.923095 1.27737 0
M  V30 6684 C 620.254 -2.04124 1.13383 0
M  V30 6685 C 621.235 -1.70066 0.0340658 0
M  V30 6686 O 622.42 -1.93068 0.209383 0
M  V30 6687 C 619.55 -3.3831 0.785097 0
M  V30 6688 C 618.504 -3.86496 1.8386 0
M  V30 6689 C 617.83 -5.1754 1.34373 0
M  V30 6690 C 619.13 -4.09381 3.24353 0
M  V30 6691 H 620.824 -2.1639 2.06919 0
M  V30 6692 H 618.37 -1.03976 0.996243 0
M  V30 6693 H 620.323 -4.16016 0.671485 0
M  V30 6694 H 619.047 -3.2607 -0.185969 0
M  V30 6695 H 617.706 -3.10987 1.9412 0
M  V30 6696 H 617.354 -5.01696 0.361989 0
M  V30 6697 H 617.054 -5.50751 2.04811 0
M  V30 6698 H 618.578 -5.97811 1.24315 0
M  V30 6699 H 619.992 -4.77641 3.17067 0
M  V30 6700 H 618.389 -4.53906 3.92542 0
M  V30 6701 H 619.459 -3.14515 3.69064 0
M  V30 6702 N 620.802 -1.09834 -1.13024 0
M  V30 6703 C 622.048 -0.848072 -1.84876 0
M  V30 6704 C 622.403 0.619663 -1.82148 0
M  V30 6705 O 621.696 1.45067 -1.25164 0
M  V30 6706 C 621.89 -1.32263 -3.32026 0
M  V30 6707 C 621.719 -2.83497 -3.49084 0
M  V30 6708 C 620.489 -3.51425 -3.63082 0
M  V30 6709 C 622.687 -3.81623 -3.44773 0
M  V30 6710 N 620.669 -4.91042 -3.68443 0
M  V30 6711 C 622.04 -5.07217 -3.56555 0
M  V30 6712 C 624.095 -3.74419 -3.282 0
M  V30 6713 C 622.798 -6.26457 -3.53474 0
M  V30 6714 C 624.824 -4.93151 -3.26429 0
M  V30 6715 C 624.186 -6.1759 -3.38765 0
M  V30 6716 H 620.285 -0.363249 -0.692513 0
M  V30 6717 H 622.869 -1.39952 -1.35357 0
M  V30 6718 H 621.04 -0.79858 -3.80102 0
M  V30 6719 H 622.772 -1.01725 -3.91707 0
M  V30 6720 H 619.527 -3.0186 -3.64935 0
M  V30 6721 H 619.951 -5.63782 -3.74805 0
M  V30 6722 H 624.593 -2.79132 -3.17561 0
M  V30 6723 H 622.311 -7.22039 -3.62884 0
M  V30 6724 H 625.897 -4.8928 -3.14796 0
M  V30 6725 H 624.777 -7.07925 -3.37361 0
M  V30 6726 N 622.28 1.30327 -0.886154 0
M  V30 6727 C 623.526 1.96388 -0.505941 0
M  V30 6728 C 623.859 1.69784 0.942712 0
M  V30 6729 O 623.134 1.00322 1.6663 0
M  V30 6730 C 623.417 3.51488 -0.782826 0
M  V30 6731 C 623.27 3.87603 -2.28219 0
M  V30 6732 C 624.589 4.39331 -0.260128 0
M  V30 6733 H 621.708 0.713327 -0.185292 0
M  V30 6734 H 624.35 1.54178 -1.11036 0
M  V30 6735 H 622.5 3.87572 -0.268399 0
M  V30 6736 H 624.172 3.61537 -2.86512 0
M  V30 6737 H 622.415 3.3563 -2.74837 0
M  V30 6738 H 623.086 4.95806 -2.42653 0
M  V30 6739 H 625.562 4.10162 -0.700444 0
M  V30 6740 H 624.438 5.46769 -0.483179 0
M  V30 6741 H 624.699 4.34072 0.838674 0
M  V30 6742 N 623.758 0.647228 1.43697 0
M  V30 6743 C 624.706 -0.0600105 2.32523 0
M  V30 6744 C 625.7 -0.819277 1.48271 0
M  V30 6745 O 626.906 -0.730356 1.64517 0
M  V30 6746 H 623.281 -0.0381872 0.75103 0
M  V30 6747 H 625.252 0.706978 2.89904 0
M  V30 6748 C 624.001 -1.0169 3.32497 0
M  V30 6749 H 623.324 -0.442083 3.97348 0
M  V30 6750 H 624.764 -1.48095 3.97296 0
M  V30 6751 C 623.223 -2.11002 2.6264 0
M  V30 6752 O 623.753 -3.19302 2.4374 0
M  V30 6753 N 621.959 -1.87388 2.22113 0
M  V30 6754 H 621.506 -0.993174 2.37684 0
M  V30 6755 H 621.464 -2.60723 1.75701 0
M  V30 6756 N 625.236 -1.5273 0.388769 0
M  V30 6757 C 626.647 -1.86505 -0.0853788 0
M  V30 6758 C 626.998 -1.30847 -1.46197 0
M  V30 6759 O 626.123 -0.639609 -2.06732 0
M  V30 6760 C 626.718 -3.38414 -0.161703 0
M  V30 6761 C 625.277 -3.71902 -0.580144 0
M  V30 6762 C 624.424 -2.76095 0.258218 0
M  V30 6763 H 627.375 -1.46647 0.606665 0
M  V30 6764 H 627.396 -3.67638 -0.980936 0
M  V30 6765 H 626.908 -3.78893 0.840333 0
M  V30 6766 H 625.009 -3.36992 -1.58957 0
M  V30 6767 H 625.122 -4.77902 -0.338663 0
M  V30 6768 H 623.486 -2.53195 -0.276432 0
M  V30 6769 H 624.269 -3.19411 1.25822 0
M  V30 6770 N 626.714 -0.118576 -1.57153 0
M  V30 6771 C 627.939 0.550582 -1.99958 0
M  V30 6772 C 628.364 1.59458 -0.997736 0
M  V30 6773 O 627.722 1.81274 0.0306269 0
M  V30 6774 C 627.77 1.15379 -3.41643 0
M  V30 6775 O 626.874 2.26932 -3.44348 0
M  V30 6776 H 626.215 0.137567 -0.649593 0
M  V30 6777 H 628.745 -0.206926 -2.03551 0
M  V30 6778 H 628.755 1.48942 -3.79843 0
M  V30 6779 H 627.43 0.389087 -4.14076 0
M  V30 6780 H 626.007 1.94812 -3.17967 0
M  V30 6781 N 628.193 1.56834 0.155195 0
M  V30 6782 C 629.103 2.009 1.21146 0
M  V30 6783 C 630.119 0.923029 1.475 0
M  V30 6784 O 631.295 1.23189 1.59331 0
M  V30 6785 C 628.36 2.37378 2.52691 0
M  V30 6786 C 627.421 3.59883 2.34057 0
M  V30 6787 C 626.654 3.94612 3.59329 0
M  V30 6788 O 626.877 3.30104 4.65175 0
M  V30 6789 O 625.811 4.87895 3.52479 0
M  V30 6790 H 629.637 2.9105 0.867371 0
M  V30 6791 H 627.222 1.44916 0.363298 0
M  V30 6792 H 629.104 2.61737 3.3026 0
M  V30 6793 H 627.779 1.50385 2.86646 0
M  V30 6794 H 626.686 3.40722 1.54465 0
M  V30 6795 H 628.019 4.47468 2.0502 0
M  V30 6796 N 629.671 -0.424282 1.51781 0
M  V30 6797 C 630.918 -1.1726 1.65095 0
M  V30 6798 C 631.246 -1.90881 0.373477 0
M  V30 6799 O 630.501 -1.84835 -0.642997 0
M  V30 6800 C 630.8 -2.20418 2.81337 0
M  V30 6801 C 630.466 -1.63715 4.20129 0
M  V30 6802 C 629.128 -1.47975 4.57883 0
M  V30 6803 C 631.48 -1.22157 5.06682 0
M  V30 6804 C 628.808 -0.891703 5.79884 0
M  V30 6805 C 631.16 -0.647767 6.29275 0
M  V30 6806 C 629.824 -0.477371 6.65791 0
M  V30 6807 H 629.094 -0.429085 0.604125 0
M  V30 6808 H 631.741 -0.461852 1.85847 0
M  V30 6809 H 630.046 -2.97581 2.54859 0
M  V30 6810 H 631.743 -2.78163 2.88836 0
M  V30 6811 H 628.333 -1.76946 3.90369 0
M  V30 6812 H 632.517 -1.33133 4.7811 0
M  V30 6813 H 627.773 -0.747563 6.06813 0
M  V30 6814 H 631.947 -0.317291 6.95677 0
M  V30 6815 H 629.574 -0.0195936 7.60197 0
M  V30 6816 N 631.149 -1.42148 -0.680565 0
M  V30 6817 C 632.079 -1.4796 -1.80638 0
M  V30 6818 C 633.06 -0.336728 -1.66734 0
M  V30 6819 O 634.245 -0.550247 -1.86242 0
M  V30 6820 C 631.375 -1.37569 -3.18892 0
M  V30 6821 C 630.329 -2.49823 -3.47524 0
M  V30 6822 C 629.655 -2.24491 -4.85291 0
M  V30 6823 C 630.955 -3.92144 -3.44994 0
M  V30 6824 H 632.649 -2.42184 -1.76032 0
M  V30 6825 H 630.195 -1.16566 -0.845481 0
M  V30 6826 H 632.148 -1.40243 -3.97379 0
M  V30 6827 H 630.872 -0.398357 -3.24162 0
M  V30 6828 H 629.531 -2.46455 -2.71395 0
M  V30 6829 H 629.179 -1.25066 -4.87204 0
M  V30 6830 H 628.879 -2.99722 -5.05411 0
M  V30 6831 H 630.403 -2.28906 -5.66069 0
M  V30 6832 H 631.817 -3.97145 -4.13459 0
M  V30 6833 H 630.214 -4.67179 -3.76648 0
M  V30 6834 H 631.284 -4.19225 -2.43676 0
M  V30 6835 N 632.627 0.916307 -1.28225 0
M  V30 6836 C 634.038 1.48024 -1.13779 0
M  V30 6837 C 634.389 1.94289 0.273139 0
M  V30 6838 O 633.514 1.82226 1.16716 0
M  V30 6839 C 634.109 2.69029 -2.05935 0
M  V30 6840 C 632.668 3.2161 -1.95561 0
M  V30 6841 C 631.815 1.94321 -1.97825 0
M  V30 6842 H 634.766 0.729272 -1.40951 0
M  V30 6843 H 634.787 3.44204 -1.62184 0
M  V30 6844 H 634.299 2.35325 -3.08616 0
M  V30 6845 H 632.4 3.60045 -0.959076 0
M  V30 6846 H 632.513 3.87032 -2.82388 0
M  V30 6847 H 630.877 2.1131 -1.42198 0
M  V30 6848 H 631.66 1.62917 -3.0218 0
M  V30 6849 N 634.105 1.10431 1.1244 0
M  V30 6850 C 635.015 0.765502 2.21759 0
M  V30 6851 C 636.031 -0.236966 1.72379 0
M  V30 6852 O 637.207 -0.0757329 2.01258 0
M  V30 6853 C 634.272 0.202316 3.46109 0
M  V30 6854 C 633.333 1.26205 4.1033 0
M  V30 6855 C 632.566 0.725648 5.28744 0
M  V30 6856 O 632.789 -0.447942 5.68638 0
M  V30 6857 O 631.723 1.48555 5.83279 0
M  V30 6858 H 635.549 1.67801 2.53133 0
M  V30 6859 H 633.134 0.879443 1.20773 0
M  V30 6860 H 635.016 -0.107918 4.21262 0
M  V30 6861 H 633.691 -0.683052 3.16411 0
M  V30 6862 H 632.598 1.62514 3.36957 0
M  V30 6863 H 633.931 2.12044 4.44183 0
M  V30 6864 N 635.583 -1.29855 0.893053 0
M  V30 6865 C 636.999 -1.48366 0.588199 0
M  V30 6866 C 637.199 -1.81654 -0.872018 0
M  V30 6867 O 636.255 -1.909 -1.65268 0
M  V30 6868 C 637.568 -2.60136 1.5083 0
M  V30 6869 C 639.116 -2.74014 1.51279 0
M  V30 6870 C 639.591 -3.88905 2.41902 0
M  V30 6871 N 641.082 -3.96228 2.39911 0
M  V30 6872 C 641.817 -4.84458 3.06738 0
M  V30 6873 N 641.313 -5.77426 3.8282 0
M  V30 6874 N 643.106 -4.77894 2.95929 0
M  V30 6875 H 635.257 -1.06522 1.83757 0
M  V30 6876 H 637.52 -0.528495 0.787018 0
M  V30 6877 H 637.226 -2.42383 2.54839 0
M  V30 6878 H 637.1 -3.56793 1.22388 0
M  V30 6879 H 639.487 -2.91167 0.480179 0
M  V30 6880 H 639.568 -1.77952 1.83757 0
M  V30 6881 H 639.212 -3.72508 3.45253 0
M  V30 6882 H 639.142 -4.84322 2.06737 0
M  V30 6883 H 641.633 -3.29728 1.84629 0
M  V30 6884 H 641.946 -6.41529 4.30883 0
M  V30 6885 H 640.291 -5.77332 3.86927 0
M  V30 6886 H 643.482 -4.04248 2.36012 0
M  V30 6887 H 643.655 -5.46444 3.48286 0
M  V30 6888 N 637.061 -0.65484 -1.43351 0
M  V30 6889 C 638.308 -0.168892 -2.01794 0
M  V30 6890 C 638.636 1.2177 -1.51665 0
M  V30 6891 O 637.891 1.82717 -0.70092 0
M  V30 6892 C 638.19 -0.130424 -3.57162 0
M  V30 6893 C 637.856 -1.45898 -4.26643 0
M  V30 6894 C 636.518 -1.82279 -4.4534 0
M  V30 6895 C 638.87 -2.33485 -4.65976 0
M  V30 6896 C 636.198 -3.0591 -5.00635 0
M  V30 6897 C 638.55 -3.5641 -5.22642 0
M  V30 6898 C 637.214 -3.92985 -5.39555 0
M  V30 6899 H 636.484 -0.061802 -0.738418 0
M  V30 6900 H 639.131 -0.845869 -1.71806 0
M  V30 6901 H 637.436 0.630008 -3.86702 0
M  V30 6902 H 639.133 0.262465 -4.0014 0
M  V30 6903 H 635.723 -1.16591 -4.12437 0
M  V30 6904 H 639.907 -2.06668 -4.51223 0
M  V30 6905 H 635.163 -3.34295 -5.11915 0
M  V30 6906 H 639.337 -4.24495 -5.52066 0
M  V30 6907 H 636.964 -4.88862 -5.82167 0
M  V30 6908 N 638.539 1.52521 -0.396863 0
M  V30 6909 C 639.469 2.29582 0.425941 0
M  V30 6910 C 640.45 1.33281 1.05689 0
M  V30 6911 O 641.635 1.62181 1.06823 0
M  V30 6912 C 638.765 3.10821 1.54943 0
M  V30 6913 C 637.719 4.15069 1.04413 0
M  V30 6914 C 637.045 4.84578 2.26028 0
M  V30 6915 C 638.345 5.22191 0.106767 0
M  V30 6916 H 640.039 2.98612 -0.217045 0
M  V30 6917 H 637.585 1.43611 -0.105826 0
M  V30 6918 H 639.538 3.63492 2.13193 0
M  V30 6919 H 638.262 2.39538 2.22011 0
M  V30 6920 H 636.921 3.63389 0.484118 0
M  V30 6921 H 636.569 4.09835 2.91623 0
M  V30 6922 H 636.269 5.55043 1.92876 0
M  V30 6923 H 637.793 5.40056 2.84906 0
M  V30 6924 H 639.207 5.70176 0.597685 0
M  V30 6925 H 637.604 5.99947 -0.135352 0
M  V30 6926 H 638.674 4.77531 -0.842134 0
M  V30 6927 N 640.017 0.126909 1.57088 0
M  V30 6928 C 641.245 -0.53667 1.99819 0
M  V30 6929 C 641.66 -1.5972 1.00673 0
M  V30 6930 O 641.017 -1.825 0.000747365 0
M  V30 6931 C 641.068 -1.15563 3.42531 0
M  V30 6932 O 640.789 -0.137483 4.37884 0
M  V30 6933 C 642.29 -1.90176 4.00435 0
M  V30 6934 H 639.51 -0.141443 0.655923 0
M  V30 6935 H 642.054 0.215578 2.03361 0
M  V30 6936 H 640.209 -1.85861 3.39904 0
M  V30 6937 H 640.623 -0.588229 5.21191 0
M  V30 6938 H 642.097 -2.28801 5.02349 0
M  V30 6939 H 642.574 -2.78002 3.40017 0
M  V30 6940 H 643.18 -1.24623 4.06632 0
M  V30 6941 N 641.495 -1.56914 -0.146875 0
M  V30 6942 C 642.906 -1.72799 -0.706928 0
M  V30 6943 C 643.257 -0.741329 -1.81656 0
M  V30 6944 O 642.382 0.0920162 -2.16204 0
M  V30 6945 C 642.977 -3.13317 -1.28911 0
M  V30 6946 C 641.536 -3.30803 -1.79573 0
M  V30 6947 C 640.683 -2.68725 -0.684252 0
M  V30 6948 H 643.634 -1.58504 0.0787931 0
M  V30 6949 H 643.655 -3.13323 -2.15891 0
M  V30 6950 H 643.167 -3.85104 -0.481284 0
M  V30 6951 H 641.268 -2.64012 -2.62923 0
M  V30 6952 H 641.381 -4.38754 -1.92436 0
M  V30 6953 H 639.745 -2.29196 -1.11091 0
M  V30 6954 H 640.528 -3.43117 0.112134 0
M  V30 6955 N 642.974 0.416227 -1.52004 0
M  V30 6956 C 644.251 1.17637 -1.56272 0
M  V30 6957 C 644.631 2.08352 -0.339493 0
M  V30 6958 O 643.979 2.1833 0.674124 0
M  V30 6959 C 644.189 1.95986 -2.88774 0
M  V30 6960 C 645.537 2.52299 -3.41512 0
M  V30 6961 O 646.561 2.06174 -2.90467 0
M  V30 6962 O 645.42 3.3648 -4.30631 0
M  V30 6963 H 642.514 0.536726 -0.629169 0
M  V30 6964 H 645.06 0.423583 -1.64329 0
M  V30 6965 H 643.832 1.29487 -3.69254 0
M  V30 6966 H 643.455 2.78285 -2.83978 0
M  V30 6967 N 644.452 1.42507 0.673017 0
M  V30 6968 C 645.7 1.42789 1.43023 0
M  V30 6969 C 646.021 0.0459738 1.94946 0
M  V30 6970 O 645.291 -0.915765 1.73178 0
M  V30 6971 H 643.871 0.525657 0.530748 0
M  V30 6972 H 646.533 1.77944 0.795113 0
M  V30 6973 H 645.629 2.12872 2.28237 0
M  V30 6974 N 645.93 -0.909495 1.28709 0
M  V30 6975 C 646.893 -1.99399 1.13016 0
M  V30 6976 C 647.893 -1.60654 0.068536 0
M  V30 6977 O 649.083 -1.71334 0.314671 0
M  V30 6978 C 646.215 -3.33078 0.726085 0
M  V30 6979 H 647.408 -2.14751 2.09338 0
M  V30 6980 H 644.961 -1.09272 1.11756 0
M  V30 6981 H 645.696 -3.23428 -0.23771 0
M  V30 6982 H 645.481 -3.62562 1.49302 0
M  V30 6983 H 646.971 -4.12681 0.639058 0
M  V30 6984 N 647.408 -1.11026 -1.11852 0
M  V30 6985 C 648.657 -0.851249 -1.82857 0
M  V30 6986 C 648.97 0.62514 -1.85341 0
M  V30 6987 O 650.176 1.00026 -2.52403 0
M  V30 6988 C 648.632 -1.47309 -3.28372 0
M  V30 6989 C 648.24 -2.9832 -3.34229 0
M  V30 6990 C 649.984 -1.29373 -4.04306 0
M  V30 6991 C 647.891 -3.53509 -4.74115 0
M  V30 6992 H 646.821 -0.314794 -0.685143 0
M  V30 6993 H 649.472 -1.33499 -1.25898 0
M  V30 6994 H 647.854 -0.917017 -3.85236 0
M  V30 6995 H 649.028 -3.60295 -2.87271 0
M  V30 6996 H 647.343 -3.15482 -2.71772 0
M  V30 6997 H 649.94 -1.68042 -5.07608 0
M  V30 6998 H 650.283 -0.235879 -4.15631 0
M  V30 6999 H 650.816 -1.8182 -3.53817 0
M  V30 7000 H 647.555 -4.58987 -4.67986 0
M  V30 7001 H 647.075 -2.96305 -5.21501 0
M  V30 7002 H 648.754 -3.51693 -5.43066 0
M  V30 7003 N 648.886 1.2938 -0.899927 0
M  V30 7004 C 650.163 1.9046 -0.445443 0
M  V30 7005 C 650.543 1.81683 1.07492 0
M  V30 7006 O 649.891 1.24371 1.91688 0
M  V30 7007 C 650.101 3.35529 -0.960279 0
M  V30 7008 C 651.449 4.12556 -1.00412 0
M  V30 7009 O 652.473 3.44434 -0.907965 0
M  V30 7010 O 651.332 5.34294 -1.14857 0
M  V30 7011 H 648.426 0.815253 -0.138893 0
M  V30 7012 H 650.972 1.37844 -0.989808 0
M  V30 7013 H 649.744 3.36074 -2.00425 0
M  V30 7014 H 649.367 3.95624 -0.395939 0
M  V30 7015 N 650.364 0.662433 1.43002 0
M  V30 7016 C 651.311 -0.0235324 2.30788 0
M  V30 7017 C 652.281 -0.805342 1.4527 0
M  V30 7018 O 653.466 -0.78009 1.74124 0
M  V30 7019 C 650.606 -0.977545 3.30965 0
M  V30 7020 C 649.719 -0.190865 4.31578 0
M  V30 7021 C 648.854 -1.13951 5.18834 0
M  V30 7022 C 647.893 -0.343796 6.11134 0
M  V30 7023 N 647.03 -1.2445 6.90982 0
M  V30 7024 H 651.87 0.730921 2.88897 0
M  V30 7025 H 649.407 0.372197 1.42313 0
M  V30 7026 H 651.365 -1.54437 3.87563 0
M  V30 7027 H 649.995 -1.69877 2.74484 0
M  V30 7028 H 649.047 0.492388 3.772 0
M  V30 7029 H 650.359 0.427464 4.96965 0
M  V30 7030 H 649.513 -1.77666 5.80103 0
M  V30 7031 H 648.252 -1.79174 4.53595 0
M  V30 7032 H 647.257 0.30665 5.48944 0
M  V30 7033 H 648.482 0.304161 6.78419 0
M  V30 7034 H 646.428 -1.88336 6.28383 0
M  V30 7035 H 646.345 -0.680959 7.52927 0
M  V30 7036 H 647.613 -1.86952 7.56749 0
M  V30 7037 N 651.842 -1.52309 0.404946 0
M  V30 7038 C 653.088 -2.02065 -0.172455 0
M  V30 7039 C 653.421 -1.29022 -1.45145 0
M  V30 7040 O 652.696 -0.395284 -1.90441 0
M  V30 7041 C 652.979 -3.5759 -0.424433 0
M  V30 7042 C 652.832 -4.41287 0.870945 0
M  V30 7043 C 654.151 -4.23186 -1.20837 0
M  V30 7044 H 651.27 -0.734454 -0.0612035 0
M  V30 7045 H 653.912 -1.82236 0.53759 0
M  V30 7046 H 652.062 -3.74617 -1.02929 0
M  V30 7047 H 653.734 -4.3598 1.50729 0
M  V30 7048 H 651.977 -4.07669 1.48284 0
M  V30 7049 H 652.648 -5.48171 0.649083 0
M  V30 7050 H 655.124 -4.10232 -0.696338 0
M  V30 7051 H 654 -5.31953 -1.35343 0
M  V30 7052 H 654.261 -3.81862 -2.22786 0
M  V30 7053 N 653.32 -0.135238 -1.57019 0
M  V30 7054 C 654.25 0.805235 -2.19176 0
M  V30 7055 C 655.231 1.2656 -1.13651 0
M  V30 7056 O 656.416 1.32528 -1.4195 0
M  V30 7057 C 653.546 2.04914 -2.80406 0
M  V30 7058 C 652.5 1.72598 -3.91655 0
M  V30 7059 C 651.826 3.04154 -4.39766 0
M  V30 7060 C 653.126 0.981709 -5.12991 0
M  V30 7061 H 654.82 0.287232 -2.98019 0
M  V30 7062 H 652.366 0.136714 -1.4335 0
M  V30 7063 H 654.319 2.71178 -3.22553 0
M  V30 7064 H 653.043 2.59067 -1.98877 0
M  V30 7065 H 651.702 1.08717 -3.50109 0
M  V30 7066 H 651.35 3.56274 -3.55075 0
M  V30 7067 H 651.05 2.83299 -5.14796 0
M  V30 7068 H 652.574 3.71509 -4.84576 0
M  V30 7069 H 653.988 1.5462 -5.52056 0
M  V30 7070 H 652.385 0.873533 -5.93708 0
M  V30 7071 H 653.455 -0.0286887 -4.84892 0
M  V30 7072 N 654.798 1.5699 0.138552 0
M  V30 7073 C 656.023 1.88344 0.86841 0
M  V30 7074 C 656.448 0.725159 1.7356 0
M  V30 7075 O 655.806 -0.324992 1.78363 0
M  V30 7076 C 655.854 3.18334 1.69398 0
M  V30 7077 O 654.958 3.02863 2.79907 0
M  V30 7078 H 654.299 0.618577 0.241367 0
M  V30 7079 H 656.829 2.04207 0.126826 0
M  V30 7080 H 656.839 3.50567 2.08726 0
M  V30 7081 H 655.514 4.02238 1.05725 0
M  V30 7082 H 654.091 2.82056 2.43924 0
M  V30 7083 N 656.276 -0.40816 1.52223 0
M  V30 7084 C 657.186 -1.52202 1.78526 0
M  V30 7085 C 658.202 -1.60546 0.670892 0
M  V30 7086 O 659.378 -1.77242 0.956404 0
M  V30 7087 C 656.443 -2.87928 1.93128 0
M  V30 7088 C 655.504 -2.89463 3.17033 0
M  V30 7089 C 654.737 -4.18715 3.30929 0
M  V30 7090 O 654.96 -5.12662 2.50067 0
M  V30 7091 O 653.894 -4.27125 4.24084 0
M  V30 7092 H 657.72 -1.32911 2.73072 0
M  V30 7093 H 655.305 -0.594112 1.37079 0
M  V30 7094 H 657.187 -3.68426 2.04549 0
M  V30 7095 H 655.862 -3.07285 1.01772 0
M  V30 7096 H 654.769 -2.07815 3.11069 0
M  V30 7097 H 656.102 -2.75055 4.08174 0
M  V30 7098 N 657.755 -1.42862 -0.66545 0
M  V30 7099 C 658.702 -1.4707 -1.77874 0
M  V30 7100 C 659.672 -0.321654 -1.62956 0
M  V30 7101 O 660.857 -0.52707 -1.83376 0
M  V30 7102 C 657.997 -1.38788 -3.15962 0
M  V30 7103 C 657.11 -2.63801 -3.42101 0
M  V30 7104 C 656.245 -2.47594 -4.69969 0
M  V30 7105 C 655.284 -3.67936 -4.89172 0
M  V30 7106 N 654.421 -3.50614 -6.08288 0
M  V30 7107 H 659.261 -2.42204 -1.73613 0
M  V30 7108 H 656.798 -1.20239 -0.847401 0
M  V30 7109 H 658.756 -1.31982 -3.95773 0
M  V30 7110 H 657.386 -0.472431 -3.19324 0
M  V30 7111 H 656.438 -2.80935 -2.56475 0
M  V30 7112 H 657.75 -3.53228 -3.52181 0
M  V30 7113 H 656.904 -2.38427 -5.57886 0
M  V30 7114 H 655.643 -1.55672 -4.62188 0
M  V30 7115 H 654.648 -3.77525 -3.99694 0
M  V30 7116 H 655.873 -4.60851 -4.98792 0
M  V30 7117 H 653.819 -2.61417 -6.01662 0
M  V30 7118 H 653.736 -4.33634 -6.19272 0
M  V30 7119 H 655.004 -3.45276 -6.98859 0
M  V30 7120 N 659.233 0.902656 -1.29189 0
M  V30 7121 C 660.479 1.65532 -1.17163 0
M  V30 7122 C 660.812 1.92216 0.276879 0
M  V30 7123 O 660.087 1.53048 1.20027 0
M  V30 7124 C 660.37 3.00629 -1.98228 0
M  V30 7125 C 660.223 2.81029 -3.51202 0
M  V30 7126 C 661.542 4.01321 -1.80635 0
M  V30 7127 H 658.661 0.60071 -0.426985 0
M  V30 7128 H 661.303 1.04578 -1.5863 0
M  V30 7129 H 659.453 3.52656 -1.62991 0
M  V30 7130 H 661.125 2.35927 -3.96404 0
M  V30 7131 H 659.368 2.1587 -3.76275 0
M  V30 7132 H 660.039 3.77014 -4.03192 0
M  V30 7133 H 662.515 3.58394 -2.11406 0
M  V30 7134 H 661.391 4.93792 -2.3971 0
M  V30 7135 H 661.652 4.35505 -0.760754 0
M  V30 7136 N 660.711 1.11618 1.11262 0
M  V30 7137 C 661.96 0.860934 1.82403 0
M  V30 7138 C 662.273 -0.615303 1.8567 0
M  V30 7139 O 663.479 -0.986861 2.52929 0
M  V30 7140 C 661.935 1.49048 3.27586 0
M  V30 7141 C 661.543 3.00089 3.32642 0
M  V30 7142 C 663.287 1.31515 4.03614 0
M  V30 7143 C 661.194 3.56019 4.72234 0
M  V30 7144 H 660.124 0.318423 0.683464 0
M  V30 7145 H 662.775 1.34165 1.25188 0
M  V30 7146 H 661.157 0.937434 3.84744 0
M  V30 7147 H 662.331 3.61813 2.85356 0
M  V30 7148 H 660.646 3.16919 2.70096 0
M  V30 7149 H 663.243 1.70732 5.0671 0
M  V30 7150 H 663.586 0.257917 4.155 0
M  V30 7151 H 664.119 1.83694 3.52848 0
M  V30 7152 H 660.858 4.61463 4.65545 0
M  V30 7153 H 660.378 2.99066 5.19923 0
M  V30 7154 H 662.057 3.54568 5.41193 0
M  V30 7155 N 662.189 -1.289 0.906776 0
M  V30 7156 C 663.438 -1.9455 0.532262 0
M  V30 7157 C 663.751 -1.72219 -0.927353 0
M  V30 7158 O 664.957 -2.32033 -1.40971 0
M  V30 7159 C 663.413 -3.48438 0.901041 0
M  V30 7160 C 663.021 -3.79558 2.37991 0
M  V30 7161 C 664.765 -4.20284 0.596777 0
M  V30 7162 C 662.672 -5.26723 2.68918 0
M  V30 7163 H 661.602 -0.728259 0.195333 0
M  V30 7164 H 664.253 -1.46519 1.10474 0
M  V30 7165 H 662.635 -3.95162 0.257419 0
M  V30 7166 H 663.809 -3.43668 3.06967 0
M  V30 7167 H 662.124 -3.20868 2.65391 0
M  V30 7168 H 664.721 -5.28612 0.8046 0
M  V30 7169 H 665.064 -4.13694 -0.465072 0
M  V30 7170 H 665.597 -3.79315 1.19855 0
M  V30 7171 H 662.336 -5.38384 3.73928 0
M  V30 7172 H 661.856 -5.63836 2.04571 0
M  V30 7173 H 663.535 -5.94391 2.55555 0
M  V30 7174 N 663.667 -0.670007 -1.42649 0
M  V30 7175 C 664.914 -0.190286 -2.01604 0
M  V30 7176 C 665.242 1.20155 -1.52948 0
M  V30 7177 O 664.497 1.81964 -0.72026 0
M  V30 7178 C 664.796 -0.168298 -3.57004 0
M  V30 7179 C 664.462 -1.50415 -4.25072 0
M  V30 7180 C 663.124 -1.86992 -4.43382 0
M  V30 7181 C 665.476 -2.38414 -4.63474 0
M  V30 7182 C 662.804 -3.11203 -4.97363 0
M  V30 7183 C 665.156 -3.61933 -5.18833 0
M  V30 7184 C 663.82 -3.98685 -5.35356 0
M  V30 7185 H 663.09 -0.0696305 -0.737721 0
M  V30 7186 H 665.737 -0.864044 -1.70899 0
M  V30 7187 H 664.042 0.588958 -3.87348 0
M  V30 7188 H 665.739 0.22001 -4.00396 0
M  V30 7189 H 662.329 -1.20959 -4.11177 0
M  V30 7190 H 666.513 -2.11442 -4.49006 0
M  V30 7191 H 661.769 -3.39705 -5.08341 0
M  V30 7192 H 665.943 -4.30326 -5.47533 0
M  V30 7193 H 663.57 -4.95009 -5.76949 0
M  V30 7194 N 665.145 1.52092 -0.413018 0
M  V30 7195 C 666.393 2.01456 0.161178 0
M  V30 7196 C 666.714 1.30034 1.45314 0
M  V30 7197 O 665.984 0.427435 1.9118 0
M  V30 7198 H 664.564 0.744376 0.0625526 0
M  V30 7199 H 667.226 1.86974 -0.550151 0
M  V30 7200 H 666.322 3.1008 0.354517 0
M  V30 7201 N 666.623 0.143563 1.56945 0
M  V30 7202 C 667.556 -0.835367 2.1236 0
M  V30 7203 C 668.534 -1.24466 1.04627 0
M  V30 7204 O 669.718 -1.34138 1.32436 0
M  V30 7205 C 666.845 -2.12123 2.64048 0
M  V30 7206 C 665.891 -1.85812 3.83896 0
M  V30 7207 S 666.724 -1.05222 5.25061 0
M  V30 7208 C 667.88 -2.34935 5.80135 0
M  V30 7209 H 668.113 -0.364109 2.95062 0
M  V30 7210 H 665.646 -0.0706601 1.54238 0
M  V30 7211 H 667.604 -2.85993 2.94479 0
M  V30 7212 H 666.265 -2.56364 1.81483 0
M  V30 7213 H 665.458 -2.81151 4.18294 0
M  V30 7214 H 665.06 -1.20052 3.54208 0
M  V30 7215 H 667.352 -3.3061 5.91357 0
M  V30 7216 H 668.295 -2.05046 6.77762 0
M  V30 7217 H 668.703 -2.45426 5.08356 0
M  V30 7218 N 668.101 -1.57061 -0.130224 0
M  V30 7219 C 669.349 -1.83893 -0.838313 0
M  V30 7220 C 669.67 -0.727046 -1.80939 0
M  V30 7221 O 668.94 0.249927 -1.94299 0
M  V30 7222 H 667.52 -0.67846 -0.312573 0
M  V30 7223 H 670.182 -1.94529 -0.120224 0
M  V30 7224 H 669.278 -2.79419 -1.39038 0
M  V30 7225 N 669.579 0.400081 -1.52437 0
M  V30 7226 C 670.526 1.48803 -1.76426 0
M  V30 7227 C 671.496 1.5461 -0.607032 0
M  V30 7228 O 672.681 1.71041 -0.845563 0
M  V30 7229 C 669.821 2.86156 -1.92896 0
M  V30 7230 C 668.934 2.89587 -3.20567 0
M  V30 7231 C 668.069 4.18296 -3.27417 0
M  V30 7232 C 667.108 4.15736 -4.49255 0
M  V30 7233 N 666.245 5.36032 -4.53447 0
M  V30 7234 H 671.085 1.27649 -2.69276 0
M  V30 7235 H 668.622 0.619451 -1.33421 0
M  V30 7236 H 670.58 3.65901 -2.00429 0
M  V30 7237 H 669.21 3.05785 -1.03418 0
M  V30 7238 H 668.262 2.02278 -3.22161 0
M  V30 7239 H 669.574 2.83562 -4.10358 0
M  V30 7240 H 668.728 5.06439 -3.34072 0
M  V30 7241 H 667.467 4.27028 -2.35581 0
M  V30 7242 H 666.472 3.25982 -4.42737 0
M  V30 7243 H 667.697 4.08636 -5.42396 0
M  V30 7244 H 665.643 5.45415 -3.64498 0
M  V30 7245 H 665.56 5.32038 -5.37096 0
M  V30 7246 H 666.828 6.26104 -4.64343 0
M  V30 7247 N 671.057 1.43213 0.657864 0
M  V30 7248 C 672.473 1.26511 0.972992 0
M  V30 7249 C 672.673 0.181477 2.00681 0
M  V30 7250 O 671.729 -0.441649 2.48608 0
M  V30 7251 C 673.042 2.62784 1.46168 0
M  V30 7252 C 674.59 2.70278 1.57857 0
M  V30 7253 C 675.065 4.06958 2.10117 0
M  V30 7254 N 676.556 4.08999 2.17426 0
M  V30 7255 C 677.291 5.11585 2.58975 0
M  V30 7256 N 676.787 6.24548 2.99853 0
M  V30 7257 N 678.58 4.9894 2.58873 0
M  V30 7258 H 670.731 2.12384 -0.0263129 0
M  V30 7259 H 672.994 0.946638 0.0507992 0
M  V30 7260 H 672.7 3.43022 0.776474 0
M  V30 7261 H 672.574 2.87863 2.43751 0
M  V30 7262 H 674.961 1.90376 2.25479 0
M  V30 7263 H 675.042 2.4897 0.587179 0
M  V30 7264 H 674.686 4.87325 1.43098 0
M  V30 7265 H 674.616 4.25628 3.10078 0
M  V30 7266 H 677.107 3.27457 1.88627 0
M  V30 7267 H 677.42 6.98661 3.30292 0
M  V30 7268 H 675.765 6.28027 2.97669 0
M  V30 7269 H 678.956 4.09757 2.26311 0
M  V30 7270 H 679.129 5.79019 2.90932 0
M  V30 7271 N 672.536 -0.895792 1.29666 0
M  V30 7272 C 673.483 -2.00035 1.15129 0
M  V30 7273 C 674.453 -1.66043 0.0435819 0
M  V30 7274 O 675.638 -1.89621 0.211811 0
M  V30 7275 C 672.778 -3.34774 0.83787 0
M  V30 7276 C 671.891 -3.81525 2.0264 0
M  V30 7277 C 671.026 -5.04858 1.65201 0
M  V30 7278 C 670.065 -5.43988 2.80612 0
M  V30 7279 N 669.202 -6.58507 2.43544 0
M  V30 7280 H 674.042 -2.11802 2.09628 0
M  V30 7281 H 671.579 -1.03719 1.04311 0
M  V30 7282 H 673.537 -4.12311 0.636824 0
M  V30 7283 H 672.167 -3.22724 -0.0702314 0
M  V30 7284 H 671.219 -2.9999 2.33903 0
M  V30 7285 H 672.531 -4.06472 2.89106 0
M  V30 7286 H 671.685 -5.8999 1.41408 0
M  V30 7287 H 670.424 -4.81759 0.758893 0
M  V30 7288 H 669.429 -4.57388 3.05083 0
M  V30 7289 H 670.654 -5.69066 3.70595 0
M  V30 7290 H 668.6 -6.37004 1.56724 0
M  V30 7291 H 668.517 -6.83269 3.23542 0
M  V30 7292 H 669.785 -7.46897 2.2308 0
M  V30 7293 N 674.014 -1.12206 -1.10668 0
M  V30 7294 C 675.254 -0.885935 -1.84202 0
M  V30 7295 C 675.618 0.577849 -1.83098 0
M  V30 7296 O 676.819 0.931051 -2.5216 0
M  V30 7297 C 675.09 -1.44197 -3.2702 0
M  V30 7298 S 676.649 -1.34402 -4.1771 0
M  V30 7299 H 673.467 -0.319653 -0.635093 0
M  V30 7300 H 676.069 -1.43112 -1.33189 0
M  V30 7301 H 674.773 -2.50096 -3.25392 0
M  V30 7302 H 674.304 -0.894173 -3.83103 0
M  V30 7303 H 676.319 -0.313873 -4.95206 0
M  V30 7304 N 675.492 1.28418 -0.913599 0
M  V30 7305 C 676.741 1.94265 -0.542572 0
M  V30 7306 C 677.054 1.72709 0.918207 0
M  V30 7307 O 678.26 2.32778 1.39738 0
M  V30 7308 C 676.716 3.47956 -0.919507 0
M  V30 7309 C 676.324 3.78291 -2.4 0
M  V30 7310 C 678.068 4.19962 -0.619057 0
M  V30 7311 C 675.975 5.2529 -2.71707 0
M  V30 7312 H 674.905 0.727213 -0.199192 0
M  V30 7313 H 677.556 1.45931 -1.11249 0
M  V30 7314 H 675.938 3.9502 -0.278372 0
M  V30 7315 H 677.112 3.42035 -3.08786 0
M  V30 7316 H 675.427 3.19456 -2.67089 0
M  V30 7317 H 678.024 5.28178 -0.832623 0
M  V30 7318 H 678.367 4.13935 0.443126 0
M  V30 7319 H 678.9 3.78674 -1.21865 0
M  V30 7320 H 675.639 5.36394 -3.76778 0
M  V30 7321 H 675.159 5.62743 -2.07559 0
M  V30 7322 H 676.838 5.93027 -2.58703 0
M  V30 7323 N 676.97 0.677563 1.42291 0
M  V30 7324 C 678.218 0.200578 2.01102 0
M  V30 7325 C 678.539 -1.19803 1.53858 0
M  V30 7326 O 677.809 -1.80496 0.761439 0
M  V30 7327 H 676.389 0.0711634 0.743603 0
M  V30 7328 H 679.051 0.874691 1.7417 0
M  V30 7329 H 678.147 0.204 3.11433 0
M  V30 7330 N 678.448 -1.51871 0.421078 0
M  V30 7331 C 679.358 -2.31077 -0.405069 0
M  V30 7332 C 680.374 -1.39301 -1.04265 0
M  V30 7333 O 681.55 -1.72376 -1.04157 0
M  V30 7334 C 678.615 -3.12556 -1.50032 0
M  V30 7335 C 677.676 -4.20088 -0.884559 0
M  V30 7336 C 676.909 -4.97673 -1.92762 0
M  V30 7337 O 677.132 -4.75696 -3.14753 0
M  V30 7338 O 676.066 -5.82203 -1.52719 0
M  V30 7339 H 679.892 -3.02742 0.241086 0
M  V30 7340 H 677.477 -1.48263 0.183991 0
M  V30 7341 H 679.359 -3.6326 -2.13589 0
M  V30 7342 H 678.034 -2.43672 -2.13086 0
M  V30 7343 H 676.941 -3.73502 -0.211379 0
M  V30 7344 H 678.274 -4.91298 -0.297763 0
M  V30 7345 N 679.926 -0.151884 -1.56866 0
M  V30 7346 C 681.154 0.504813 -2.00647 0
M  V30 7347 C 681.569 1.58098 -1.03201 0
M  V30 7348 O 680.926 1.82476 -0.0297814 0
M  V30 7349 C 680.977 1.10099 -3.44326 0
M  V30 7350 O 680.698 0.0678021 -4.38048 0
M  V30 7351 C 682.199 1.83782 -4.03409 0
M  V30 7352 H 679.419 0.130989 -0.65809 0
M  V30 7353 H 681.963 -0.247903 -2.02992 0
M  V30 7354 H 680.118 1.8043 -3.42817 0
M  V30 7355 H 680.532 0.505237 -5.22061 0
M  V30 7356 H 682.006 2.2078 -5.05925 0
M  V30 7357 H 682.483 2.72557 -3.44397 0
M  V30 7358 H 683.089 1.18138 -4.08563 0
M  V30 7359 N 681.404 1.57128 0.121893 0
M  V30 7360 C 682.653 1.83888 0.828748 0
M  V30 7361 C 682.966 0.737087 1.81181 0
M  V30 7362 O 684.172 0.891007 2.56463 0
M  V30 7363 C 682.628 3.26014 1.52455 0
M  V30 7364 C 682.236 4.44195 0.58263 0
M  V30 7365 C 683.98 3.62025 2.21671 0
M  V30 7366 C 681.887 5.77349 1.28149 0
M  V30 7367 H 680.817 0.685856 0.313238 0
M  V30 7368 H 683.468 1.83319 0.0814851 0
M  V30 7369 H 681.85 3.21044 2.31834 0
M  V30 7370 H 683.024 4.60457 -0.177729 0
M  V30 7371 H 681.339 4.164 -0.00241228 0
M  V30 7372 H 683.936 4.58776 2.74643 0
M  V30 7373 H 684.279 2.89315 2.99337 0
M  V30 7374 H 684.812 3.68767 1.49184 0
M  V30 7375 H 681.551 6.53221 0.546189 0
M  V30 7376 H 681.071 5.64978 2.01394 0
M  V30 7377 H 682.75 6.21006 1.81549 0
M  V30 7378 N 682.882 -0.391992 1.52647 0
M  V30 7379 C 683.845 -1.46135 1.7657 0
M  V30 7380 C 684.845 -1.47701 0.635698 0
M  V30 7381 O 686.035 -1.48924 0.903728 0
M  V30 7382 C 683.167 -2.85443 1.86374 0
M  V30 7383 H 684.36 -1.26208 2.72051 0
M  V30 7384 H 681.913 -0.623549 1.43323 0
M  V30 7385 H 682.648 -3.10718 0.928685 0
M  V30 7386 H 682.433 -2.85708 2.68539 0
M  V30 7387 H 683.923 -3.62933 2.06566 0
M  V30 7388 N 684.36 -1.4356 -0.65026 0
M  V30 7389 C 685.776 -1.27025 -0.966269 0
M  V30 7390 C 685.976 -0.192117 -2.00582 0
M  V30 7391 O 685.032 0.428459 -2.48838 0
M  V30 7392 C 686.345 -2.63556 -1.44772 0
M  V30 7393 C 687.893 -2.71111 -1.56421 0
M  V30 7394 C 688.368 -4.08067 -2.07956 0
M  V30 7395 N 689.859 -4.10146 -2.15254 0
M  V30 7396 C 690.594 -5.12952 -2.56258 0
M  V30 7397 N 690.09 -6.26129 -2.96537 0
M  V30 7398 N 691.883 -5.00306 -2.56224 0
M  V30 7399 H 684.034 -2.12367 0.0375758 0
M  V30 7400 H 686.297 -0.946894 -0.0457782 0
M  V30 7401 H 686.003 -3.43429 -0.758271 0
M  V30 7402 H 685.877 -2.89152 -2.42221 0
M  V30 7403 H 688.264 -1.91569 -2.24467 0
M  V30 7404 H 688.345 -2.49277 -0.573967 0
M  V30 7405 H 687.989 -4.88077 -1.40511 0
M  V30 7406 H 687.919 -4.27266 -3.07817 0
M  V30 7407 H 690.41 -3.28453 -1.86887 0
M  V30 7408 H 690.723 -7.00403 -3.26582 0
M  V30 7409 H 689.068 -6.29597 -2.94334 0
M  V30 7410 H 692.259 -4.10952 -2.24135 0
M  V30 7411 H 692.432 -5.80553 -2.87857 0
M  V30 7412 N 685.838 0.888903 -1.30139 0
M  V30 7413 C 687.084 1.64288 -1.19922 0
M  V30 7414 C 687.439 1.90839 0.244561 0
M  V30 7415 O 686.732 1.51544 1.17239 0
M  V30 7416 C 686.926 2.99041 -1.95728 0
M  V30 7417 C 686.755 2.85644 -3.47329 0
M  V30 7418 C 685.525 2.85836 -4.16685 0
M  V30 7419 C 687.723 2.6188 -4.42632 0
M  V30 7420 N 685.705 2.63289 -5.54574 0
M  V30 7421 C 687.076 2.48418 -5.68057 0
M  V30 7422 C 689.131 2.47073 -4.32272 0
M  V30 7423 C 687.834 2.21655 -6.84296 0
M  V30 7424 C 689.86 2.21695 -5.48275 0
M  V30 7425 C 689.222 2.09007 -6.72678 0
M  V30 7426 H 685.321 0.606315 -0.493868 0
M  V30 7427 H 687.905 1.0478 -1.64102 0
M  V30 7428 H 686.076 3.56589 -1.53945 0
M  V30 7429 H 687.808 3.63607 -1.77685 0
M  V30 7430 H 684.563 2.97521 -3.68481 0
M  V30 7431 H 684.987 2.55039 -6.27124 0
M  V30 7432 H 689.629 2.55621 -3.36776 0
M  V30 7433 H 687.347 2.11845 -7.79838 0
M  V30 7434 H 690.933 2.11067 -5.42164 0
M  V30 7435 H 689.813 1.89643 -7.60924 0
M  V30 7436 N 687.317 1.12792 1.10072 0
M  V30 7437 C 688.227 0.812369 2.20086 0
M  V30 7438 C 689.243 -0.200349 1.72843 0
M  V30 7439 O 690.419 -0.0330262 2.01373 0
M  V30 7440 C 687.484 0.275685 3.45602 0
M  V30 7441 C 686.545 1.34881 4.07561 0
M  V30 7442 C 685.778 0.837639 5.27086 0
M  V30 7443 O 686.001 -0.327224 5.69461 0
M  V30 7444 O 684.935 1.60894 5.79997 0
M  V30 7445 H 688.761 1.73133 2.49517 0
M  V30 7446 H 686.346 0.904863 1.18881 0
M  V30 7447 H 688.228 -0.0185375 4.21396 0
M  V30 7448 H 686.903 -0.615783 3.17789 0
M  V30 7449 H 685.81 1.69625 3.33434 0
M  V30 7450 H 687.143 2.21418 4.39585 0
M  V30 7451 N 688.795 -1.27931 0.920396 0
M  V30 7452 C 690.041 -1.94977 0.557832 0
M  V30 7453 C 690.374 -1.72224 -0.897365 0
M  V30 7454 O 689.649 -1.04705 -1.63912 0
M  V30 7455 C 689.932 -3.49289 0.875741 0
M  V30 7456 C 689.785 -3.81416 2.38416 0
M  V30 7457 C 691.104 -4.38486 0.376517 0
M  V30 7458 H 688.223 -0.708164 0.20414 0
M  V30 7459 H 690.865 -1.5118 1.15085 0
M  V30 7460 H 689.015 -3.86724 0.371062 0
M  V30 7461 H 690.687 -3.53813 2.95997 0
M  V30 7462 H 688.93 -3.28225 2.83639 0
M  V30 7463 H 689.601 -4.89198 2.55713 0
M  V30 7464 H 692.077 -4.08161 0.808945 0
M  V30 7465 H 690.953 -5.45296 0.627976 0
M  V30 7466 H 691.214 -4.36143 -0.723293 0
M  V30 7467 N 690.273 -0.685099 -1.4193 0
M  V30 7468 C 691.52 -0.211658 -2.01391 0
M  V30 7469 C 691.848 1.18526 -1.54214 0
M  V30 7470 O 691.103 1.81189 -0.739519 0
M  V30 7471 C 691.402 -0.206154 -3.56805 0
M  V30 7472 C 691.068 -1.54915 -4.23453 0
M  V30 7473 C 689.73 -1.91684 -4.41373 0
M  V30 7474 C 692.082 -2.43317 -4.60919 0
M  V30 7475 C 689.41 -3.16461 -4.94034 0
M  V30 7476 C 691.762 -3.67415 -5.14965 0
M  V30 7477 C 690.426 -4.04341 -5.31098 0
M  V30 7478 H 689.696 -0.0774511 -0.736941 0
M  V30 7479 H 692.343 -0.882121 -1.69973 0
M  V30 7480 H 690.648 0.547841 -3.87951 0
M  V30 7481 H 692.345 0.17753 -4.00607 0
M  V30 7482 H 688.935 -1.25314 -4.09871 0
M  V30 7483 H 693.119 -2.16192 -4.46738 0
M  V30 7484 H 688.375 -3.45078 -5.04709 0
M  V30 7485 H 692.549 -4.3611 -5.42938 0
M  V30 7486 H 690.176 -5.01101 -5.71666 0
M  V30 7487 N 691.751 1.51645 -0.429126 0
M  V30 7488 C 692.681 2.30434 0.377148 0
M  V30 7489 C 693.662 1.35493 1.02838 0
M  V30 7490 O 694.847 1.6441 1.03359 0
M  V30 7491 C 691.977 3.14038 1.48315 0
M  V30 7492 C 690.931 4.1719 0.955855 0
M  V30 7493 C 690.257 4.89263 2.15698 0
M  V30 7494 C 691.557 5.223 -0.00402136 0
M  V30 7495 H 693.251 2.98085 -0.280336 0
M  V30 7496 H 690.797 1.43354 -0.136265 0
M  V30 7497 H 692.75 3.67933 2.05435 0
M  V30 7498 H 691.474 2.44193 2.16881 0
M  V30 7499 H 690.133 3.64335 0.406929 0
M  V30 7500 H 689.781 4.15929 2.82864 0
M  V30 7501 H 689.481 5.59009 1.81059 0
M  V30 7502 H 691.005 5.45978 2.73387 0
M  V30 7503 H 692.419 5.71315 0.476607 0
M  V30 7504 H 690.816 5.99525 -0.26258 0
M  V30 7505 H 691.886 4.75638 -0.943236 0
M  V30 7506 N 693.229 0.160201 1.56784 0
M  V30 7507 C 694.476 -0.487588 1.96542 0
M  V30 7508 C 694.804 -1.63999 1.04569 0
M  V30 7509 O 694.059 -1.95546 0.0775211 0
M  V30 7510 C 694.358 -1.02259 3.42459 0
M  V30 7511 C 694.024 0.0127436 4.50898 0
M  V30 7512 C 692.686 0.297318 4.80281 0
M  V30 7513 C 695.038 0.716078 5.16257 0
M  V30 7514 C 692.366 1.29081 5.72324 0
M  V30 7515 C 694.718 1.69847 6.09372 0
M  V30 7516 C 693.382 1.99061 6.37127 0
M  V30 7517 H 692.652 -0.178421 0.719199 0
M  V30 7518 H 695.299 0.249818 1.89864 0
M  V30 7519 H 693.604 -1.8376 3.46034 0
M  V30 7520 H 695.301 -1.53261 3.70556 0
M  V30 7521 H 691.891 -0.219235 4.28039 0
M  V30 7522 H 696.075 0.509428 4.93679 0
M  V30 7523 H 691.331 1.52344 5.92116 0
M  V30 7524 H 695.505 2.2489 6.59088 0
M  V30 7525 H 693.132 2.76194 7.08252 0
M  V30 7526 N 694.707 -1.5719 -0.113559 0
M  V30 7527 C 695.637 -2.03772 -1.14013 0
M  V30 7528 C 696.618 -0.923176 -1.42869 0
M  V30 7529 O 697.803 -1.19325 -1.53216 0
M  V30 7530 C 694.933 -2.44663 -2.4649 0
M  V30 7531 C 693.887 -3.59612 -2.32085 0
M  V30 7532 C 693.213 -3.8642 -3.69573 0
M  V30 7533 C 694.513 -4.91149 -1.7768 0
M  V30 7534 H 696.207 -2.89785 -0.752665 0
M  V30 7535 H 693.753 -1.39412 -0.360609 0
M  V30 7536 H 695.706 -2.75857 -3.18561 0
M  V30 7537 H 694.43 -1.55628 -2.87137 0
M  V30 7538 H 693.089 -3.28636 -1.62461 0
M  V30 7539 H 692.737 -2.94581 -4.07715 0
M  V30 7540 H 692.437 -4.63797 -3.60786 0
M  V30 7541 H 693.961 -4.2007 -4.4314 0
M  V30 7542 H 695.375 -5.20843 -2.39574 0
M  V30 7543 H 693.772 -5.72562 -1.79701 0
M  V30 7544 H 694.842 -4.79301 -0.734776 0
M  V30 7545 N 696.185 0.383891 -1.52853 0
M  V30 7546 C 697.148 1.45197 -1.77343 0
M  V30 7547 C 698.148 1.47362 -0.643522 0
M  V30 7548 O 699.338 1.48443 -0.911613 0
M  V30 7549 C 696.47 2.8445 -1.87885 0
M  V30 7550 H 697.663 1.24764 -2.72716 0
M  V30 7551 H 695.216 0.615939 -1.43652 0
M  V30 7552 H 695.951 3.10222 -0.94515 0
M  V30 7553 H 695.736 2.8428 -2.70051 0
M  V30 7554 H 697.226 3.61832 -2.08488 0
M  V30 7555 N 697.663 1.43903 0.642637 0
M  V30 7556 C 698.912 1.45362 1.39831 0
M  V30 7557 C 699.225 0.0856289 1.95412 0
M  V30 7558 O 700.431 -0.0222856 2.71491 0
M  V30 7559 C 698.887 2.55857 2.53111 0
M  V30 7560 C 698.495 3.98811 2.04092 0
M  V30 7561 C 700.239 2.66524 3.30402 0
M  V30 7562 C 698.146 5.00751 3.14647 0
M  V30 7563 H 697.076 0.540777 0.52543 0
M  V30 7564 H 699.727 1.69929 0.692559 0
M  V30 7565 H 698.109 2.2451 3.26207 0
M  V30 7566 H 699.283 4.3967 1.37938 0
M  V30 7567 H 697.598 3.92284 1.39651 0
M  V30 7568 H 700.195 3.39858 4.12796 0
M  V30 7569 H 700.538 1.71949 3.79129 0
M  V30 7570 H 701.071 2.97224 2.64392 0
M  V30 7571 H 697.81 5.96914 2.70876 0
M  V30 7572 H 697.33 4.64495 3.79479 0
M  V30 7573 H 699.009 5.23933 3.79609 0
M  V30 7574 N 699.141 -0.881989 1.30609 0
M  V30 7575 C 700.071 -2.00413 1.1982 0
M  V30 7576 C 701.052 -1.69871 0.0881538 0
M  V30 7577 O 702.237 -1.92304 0.2707 0
M  V30 7578 C 699.367 -3.35641 0.89233 0
M  V30 7579 C 698.321 -3.80451 1.96064 0
M  V30 7580 C 697.647 -5.13003 1.5077 0
M  V30 7581 C 698.947 -3.98855 3.37213 0
M  V30 7582 H 700.641 -2.09698 2.13699 0
M  V30 7583 H 698.187 -1.00754 1.02882 0
M  V30 7584 H 700.14 -4.13669 0.803497 0
M  V30 7585 H 698.864 -3.26497 -0.0821381 0
M  V30 7586 H 697.523 -3.04654 2.03916 0
M  V30 7587 H 697.171 -5.0029 0.521417 0
M  V30 7588 H 696.871 -5.43956 2.22229 0
M  V30 7589 H 698.395 -5.93554 1.43271 0
M  V30 7590 H 699.809 -4.67312 3.32103 0
M  V30 7591 H 698.206 -4.41188 4.06784 0
M  V30 7592 H 699.276 -3.02614 3.78883 0
M  V30 7593 N 700.619 -1.13374 -1.09472 0
M  V30 7594 C 701.549 -0.833268 -2.18126 0
M  V30 7595 C 702.53 0.207169 -1.68834 0
M  V30 7596 O 703.715 0.0662012 -1.94087 0
M  V30 7597 C 700.845 -0.297979 -3.46019 0
M  V30 7598 C 699.799 -1.27261 -4.08642 0
M  V30 7599 C 699.125 -0.597104 -5.31356 0
M  V30 7600 C 700.425 -2.63095 -4.51197 0
M  V30 7601 H 702.119 -1.74182 -2.43518 0
M  V30 7602 H 699.665 -0.838921 -1.17039 0
M  V30 7603 H 701.618 -0.0754444 -4.21332 0
M  V30 7604 H 700.342 0.645959 -3.20148 0
M  V30 7605 H 699.001 -1.48113 -3.35348 0
M  V30 7606 H 698.649 0.352293 -5.01765 0
M  V30 7607 H 698.349 -1.24734 -5.74208 0
M  V30 7608 H 699.873 -0.38384 -6.09392 0
M  V30 7609 H 701.287 -2.46214 -5.17737 0
M  V30 7610 H 699.684 -3.2429 -5.04932 0
M  V30 7611 H 700.754 -3.20793 -3.6362 0
M  V30 7612 N 702.098 1.27442 -0.927168 0
M  V30 7613 C 703.03 2.25975 -0.383158 0
M  V30 7614 C 704.043 1.55382 0.485832 0
M  V30 7615 O 705.232 1.75986 0.298541 0
M  V30 7616 C 702.332 3.35629 0.469688 0
M  V30 7617 C 701.505 4.35747 -0.379886 0
M  V30 7618 C 700.564 5.24598 0.410227 0
M  V30 7619 O 699.59 5.68909 -0.181888 0
M  V30 7620 N 700.792 5.54737 1.71017 0
M  V30 7621 H 703.557 2.7329 -1.23015 0
M  V30 7622 H 701.118 1.41063 -0.794539 0
M  V30 7623 H 703.11 3.92015 1.00532 0
M  V30 7624 H 701.68 2.87919 1.21744 0
M  V30 7625 H 700.9 3.78634 -1.09682 0
M  V30 7626 H 702.188 4.99648 -0.960717 0
M  V30 7627 H 701.586 5.20594 2.21356 0
M  V30 7628 H 700.143 6.13824 2.19234 0
M  V30 7629 N 703.576 0.692616 1.41565 0
M  V30 7630 C 704.992 0.363878 1.55397 0
M  V30 7631 C 705.192 -1.1294 1.66874 0
M  V30 7632 O 704.248 -1.91517 1.64552 0
M  V30 7633 C 705.561 1.10982 2.7947 0
M  V30 7634 C 707.109 1.09387 2.93263 0
M  V30 7635 C 707.584 1.8215 4.20221 0
M  V30 7636 N 709.075 1.79105 4.27172 0
M  V30 7637 C 709.81 2.32247 5.2426 0
M  V30 7638 N 709.306 2.93847 6.27396 0
M  V30 7639 N 711.099 2.22519 5.1618 0
M  V30 7640 H 703.25 1.66116 1.3236 0
M  V30 7641 H 705.513 0.700848 0.63837 0
M  V30 7642 H 705.219 2.1647 2.77188 0
M  V30 7643 H 705.093 0.686492 3.709 0
M  V30 7644 H 707.48 0.0472638 2.95062 0
M  V30 7645 H 707.561 1.55623 2.03015 0
M  V30 7646 H 707.205 2.86789 4.19183 0
M  V30 7647 H 707.135 1.33351 5.09436 0
M  V30 7648 H 709.626 1.34191 3.53272 0
M  V30 7649 H 709.939 3.31972 6.97864 0
M  V30 7650 H 708.284 2.97924 6.27906 0
M  V30 7651 H 711.475 1.7407 4.34531 0
M  V30 7652 H 711.648 2.64239 5.91677 0
M  V30 7653 N 705.054 -1.51416 0.437162 0
M  V30 7654 C 706.3 -2.02386 -0.129555 0
M  V30 7655 C 706.633 -1.32071 -1.42376 0
M  V30 7656 O 705.908 -0.43559 -1.8956 0
M  V30 7657 C 706.191 -3.5841 -0.348487 0
M  V30 7658 C 706.044 -4.39341 0.964352 0
M  V30 7659 C 707.363 -4.25654 -1.11834 0
M  V30 7660 H 704.482 -0.735587 -0.0456109 0
M  V30 7661 H 707.124 -1.81055 0.576124 0
M  V30 7662 H 705.274 -3.76716 -0.949592 0
M  V30 7663 H 706.946 -4.32685 1.59942 0
M  V30 7664 H 705.189 -4.04432 1.56898 0
M  V30 7665 H 705.86 -5.4667 0.765212 0
M  V30 7666 H 708.336 -4.11617 -0.609165 0
M  V30 7667 H 707.212 -5.34704 -1.24029 0
M  V30 7668 H 707.473 -3.86502 -2.14636 0
M  V30 7669 N 706.532 -0.168513 -1.56696 0
M  V30 7670 C 707.442 0.775435 -2.21414 0
M  V30 7671 C 708.458 1.25529 -1.20492 0
M  V30 7672 O 709.634 1.30801 -1.53144 0
M  V30 7673 C 706.699 1.9886 -2.83999 0
M  V30 7674 C 705.76 1.5559 -4.00113 0
M  V30 7675 C 704.993 2.71124 -4.59704 0
M  V30 7676 O 705.216 3.87917 -4.18182 0
M  V30 7677 O 704.15 2.4536 -5.4962 0
M  V30 7678 H 707.976 0.254416 -3.02632 0
M  V30 7679 H 705.561 0.0595507 -1.49281 0
M  V30 7680 H 707.443 2.69816 -3.23693 0
M  V30 7681 H 706.118 2.49874 -2.05779 0
M  V30 7682 H 705.025 0.815924 -3.65094 0
M  V30 7683 H 706.358 1.09271 -4.79917 0
M  V30 7684 N 708.01 1.57248 0.105221 0
M  V30 7685 C 709.257 1.8557 0.810552 0
M  V30 7686 C 709.585 0.755595 1.79223 0
M  V30 7687 O 708.84 -0.251788 1.94073 0
M  V30 7688 C 709.139 3.20437 1.58287 0
M  V30 7689 C 708.805 4.44716 0.744235 0
M  V30 7690 C 707.467 4.78458 0.513013 0
M  V30 7691 C 709.819 5.20953 0.160578 0
M  V30 7692 C 707.147 5.8587 -0.311894 0
M  V30 7693 C 709.499 6.29235 -0.651596 0
M  V30 7694 C 708.163 6.615 -0.893005 0
M  V30 7695 H 707.433 0.67905 0.296602 0
M  V30 7696 H 710.08 1.91363 0.0723968 0
M  V30 7697 H 708.385 3.10283 2.39232 0
M  V30 7698 H 710.082 3.39576 2.13282 0
M  V30 7699 H 706.672 4.18287 0.934555 0
M  V30 7700 H 710.856 4.95226 0.3264 0
M  V30 7701 H 706.112 6.09286 -0.508012 0
M  V30 7702 H 710.286 6.87484 -1.11077 0
M  V30 7703 H 707.913 7.44562 -1.53401 0
M  V30 7704 N 709.488 -0.375779 1.53054 0
M  V30 7705 C 710.713 -1.14484 1.7294 0
M  V30 7706 C 711.138 -1.82572 0.452668 0
M  V30 7707 O 710.496 -1.71343 -0.592567 0
M  V30 7708 C 710.544 -2.15857 2.88857 0
M  V30 7709 O 709.648 -3.22725 2.56753 0
M  V30 7710 H 708.989 -0.332666 0.574656 0
M  V30 7711 H 711.519 -0.436025 1.999 0
M  V30 7712 H 711.529 -2.59631 3.14731 0
M  V30 7713 H 710.204 -1.65689 3.81471 0
M  V30 7714 H 708.781 -2.83996 2.41663 0
M  V30 7715 N 710.966 -1.44241 -0.634997 0
M  V30 7716 C 712.212 -1.47038 -1.39669 0
M  V30 7717 C 712.545 -0.101122 -1.93937 0
M  V30 7718 O 711.82 0.880699 -1.73418 0
M  V30 7719 C 712.103 -2.52763 -2.56482 0
M  V30 7720 C 711.956 -3.99032 -2.07589 0
M  V30 7721 C 713.275 -2.55031 -3.58674 0
M  V30 7722 H 710.394 -0.53537 -0.506506 0
M  V30 7723 H 713.036 -1.75898 -0.718317 0
M  V30 7724 H 711.186 -2.28284 -3.14354 0
M  V30 7725 H 712.858 -4.3463 -1.54577 0
M  V30 7726 H 711.101 -4.10994 -1.38804 0
M  V30 7727 H 711.772 -4.68649 -2.91671 0
M  V30 7728 H 714.248 -2.76893 -3.10595 0
M  V30 7729 H 713.124 -3.30916 -4.37934 0
M  V30 7730 H 713.385 -1.59085 -4.12486 0
M  V30 7731 N 712.444 0.87505 -1.31075 0
M  V30 7732 C 713.855 1.4433 -1.18431 0
M  V30 7733 C 714.206 1.9506 0.211189 0
M  V30 7734 O 713.331 1.85847 1.10859 0
M  V30 7735 C 713.926 2.62341 -2.14389 0
M  V30 7736 C 712.485 3.15225 -2.05694 0
M  V30 7737 C 711.632 1.87929 -2.03907 0
M  V30 7738 H 714.583 0.684061 -1.432 0
M  V30 7739 H 714.604 3.3887 -1.73053 0
M  V30 7740 H 714.116 2.25388 -3.15946 0
M  V30 7741 H 712.217 3.56812 -1.07314 0
M  V30 7742 H 712.33 3.77853 -2.94558 0
M  V30 7743 H 710.694 2.06679 -1.48849 0
M  V30 7744 H 711.477 1.53221 -3.07211 0
M  V30 7745 N 713.922 1.13953 1.08869 0
M  V30 7746 C 714.852 0.844824 2.17681 0
M  V30 7747 C 715.833 -0.198213 1.68941 0
M  V30 7748 O 717.018 -0.0559073 1.9412 0
M  V30 7749 C 714.148 0.316325 3.45856 0
M  V30 7750 C 713.102 1.29426 4.07962 0
M  V30 7751 C 712.428 0.625275 5.31031 0
M  V30 7752 C 713.728 2.65484 4.49795 0
M  V30 7753 H 715.422 1.75471 2.42591 0
M  V30 7754 H 712.968 0.845116 1.16592 0
M  V30 7755 H 714.921 0.0977876 4.21287 0
M  V30 7756 H 713.645 -0.628972 3.20486 0
M  V30 7757 H 712.304 1.49889 3.34558 0
M  V30 7758 H 711.952 -0.325678 5.01945 0
M  V30 7759 H 711.652 1.27777 5.73539 0
M  V30 7760 H 713.176 0.416152 6.0918 0
M  V30 7761 H 714.59 2.48957 5.16424 0
M  V30 7762 H 712.987 3.26963 5.03205 0
M  V30 7763 H 714.057 3.22717 3.61914 0
M  V30 7764 N 715.4 -1.26948 0.933913 0
M  V30 7765 C 716.648 -1.93704 0.576484 0
M  V30 7766 C 716.969 -1.73702 -0.886145 0
M  V30 7767 O 716.239 -1.08838 -1.62884 0
M  V30 7768 H 714.819 -0.716812 0.210214 0
M  V30 7769 H 717.481 -1.54534 1.18766 0
M  V30 7770 H 716.577 -3.01987 0.788055 0
M  V30 7771 N 716.879 -0.700114 -1.41195 0
M  V30 7772 C 718.125 -0.233351 -2.01453 0
M  V30 7773 C 718.458 1.16548 -1.55339 0
M  V30 7774 O 717.733 1.78756 -0.766575 0
M  V30 7775 C 718.016 -0.2961 -3.58881 0
M  V30 7776 C 717.869 -1.7322 -4.15108 0
M  V30 7777 C 719.188 0.341525 -4.38773 0
M  V30 7778 H 716.307 -0.0862667 -0.731934 0
M  V30 7779 H 718.949 -0.889693 -1.67882 0
M  V30 7780 H 717.099 0.262736 -3.87611 0
M  V30 7781 H 718.771 -2.34523 -3.97236 0
M  V30 7782 H 717.014 -2.2649 -3.69979 0
M  V30 7783 H 717.685 -1.7276 -5.24269 0
M  V30 7784 H 720.161 -0.134461 -4.15883 0
M  V30 7785 H 719.037 0.267098 -5.4825 0
M  V30 7786 H 719.298 1.42289 -4.18577 0
M  V30 7787 N 718.357 1.51182 -0.445186 0
M  V30 7788 C 719.304 2.27939 0.362291 0
M  V30 7789 C 720.274 1.31864 1.01 0
M  V30 7790 O 721.459 1.60776 1.02741 0
M  V30 7791 C 718.599 3.13016 1.45311 0
M  V30 7792 C 717.712 4.24093 0.822757 0
M  V30 7793 C 716.847 4.96467 1.88928 0
M  V30 7794 C 715.886 5.99454 1.23778 0
M  V30 7795 N 715.023 6.65206 2.24602 0
M  V30 7796 H 719.863 2.965 -0.29862 0
M  V30 7797 H 717.4 1.46237 -0.15911 0
M  V30 7798 H 719.358 3.60673 2.09692 0
M  V30 7799 H 717.988 2.46553 2.08354 0
M  V30 7800 H 717.04 3.80341 0.0670364 0
M  V30 7801 H 718.352 4.97853 0.307184 0
M  V30 7802 H 717.506 5.47712 2.60953 0
M  V30 7803 H 716.245 4.22355 2.4386 0
M  V30 7804 H 715.25 5.47494 0.503042 0
M  V30 7805 H 716.475 6.75527 0.695694 0
M  V30 7806 H 714.421 5.93901 2.78599 0
M  V30 7807 H 714.338 7.34756 1.77958 0
M  V30 7808 H 715.606 7.21078 2.96085 0
M  V30 7809 N 719.835 0.176821 1.56605 0
M  V30 7810 C 721.081 -0.467406 1.9734 0
M  V30 7811 C 721.414 -1.62523 1.06301 0
M  V30 7812 O 720.689 -1.94182 0.11125 0
M  V30 7813 C 720.972 -0.945106 3.47476 0
M  V30 7814 C 720.825 0.213273 4.49294 0
M  V30 7815 C 722.144 -1.8169 4.00845 0
M  V30 7816 H 719.263 -0.168426 0.717497 0
M  V30 7817 H 721.905 0.264065 1.88156 0
M  V30 7818 H 720.055 -1.56841 3.55434 0
M  V30 7819 H 721.727 0.850508 4.53392 0
M  V30 7820 H 719.97 0.867918 4.25029 0
M  V30 7821 H 720.641 -0.163187 5.51759 0
M  V30 7822 H 723.117 -1.29139 3.95553 0
M  V30 7823 H 721.993 -2.12015 5.06301 0
M  V30 7824 H 722.254 -2.76463 3.44994 0
M  V30 7825 N 721.313 -1.57302 -0.09688 0
M  V30 7826 C 722.59 -1.7701 -0.832272 0
M  V30 7827 C 722.97 -0.758025 -1.97021 0
M  V30 7828 O 722.318 0.213824 -2.27497 0
M  V30 7829 C 722.528 -3.22725 -1.32851 0
M  V30 7830 C 723.876 -3.85856 -1.772 0
M  V30 7831 O 724.9 -3.26464 -1.42478 0
M  V30 7832 O 723.759 -4.90295 -2.41398 0
M  V30 7833 H 720.853 -0.725558 -0.396856 0
M  V30 7834 H 723.399 -1.69516 -0.0789005 0
M  V30 7835 H 722.171 -3.87921 -0.51312 0
M  V30 7836 H 721.794 -3.34845 -2.14394 0
M  V30 7837 N 722.791 0.367657 -1.53252 0
M  V30 7838 C 723.724 1.47264 -1.74323 0
M  V30 7839 C 724.702 1.51458 -0.591535 0
M  V30 7840 O 725.886 1.69542 -0.823883 0
M  V30 7841 C 723.013 2.85637 -1.82015 0
M  V30 7842 C 722.059 2.99176 -3.03967 0
M  V30 7843 S 722.892 2.68147 -4.63527 0
M  V30 7844 C 724.048 4.08673 -4.74065 0
M  V30 7845 H 724.281 1.29169 -2.67773 0
M  V30 7846 H 721.814 0.561866 -1.43814 0
M  V30 7847 H 723.772 3.65365 -1.87132 0
M  V30 7848 H 722.433 3.01043 -0.896195 0
M  V30 7849 H 721.626 4.00511 -3.05953 0
M  V30 7850 H 721.228 2.27367 -2.96952 0
M  V30 7851 H 723.52 5.02889 -4.53992 0
M  V30 7852 H 724.463 4.11693 -5.7612 0
M  V30 7853 H 724.871 3.95576 -4.02716 0
M  V30 7854 N 724.269 1.44576 0.627338 0
M  V30 7855 C 725.497 1.51048 1.41394 0
M  V30 7856 C 725.912 0.136568 1.88305 0
M  V30 7857 O 725.269 -0.858251 1.6106 0
M  V30 7858 C 725.32 2.47837 2.63172 0
M  V30 7859 O 725.041 3.79887 2.18215 0
M  V30 7860 C 726.542 2.63811 3.56257 0
M  V30 7861 H 723.762 0.512171 0.4335 0
M  V30 7862 H 726.306 1.89576 0.766878 0
M  V30 7863 H 724.461 2.12433 3.23961 0
M  V30 7864 H 724.875 4.32177 2.97192 0
M  V30 7865 H 726.349 3.35554 4.38301 0
M  V30 7866 H 726.826 1.69169 4.05313 0
M  V30 7867 H 727.432 3.0013 3.01333 0
M  V30 7868 N 725.747 -0.868086 1.31537 0
M  V30 7869 C 727.158 -1.437 1.19195 0
M  V30 7870 C 727.509 -1.95169 -0.200842 0
M  V30 7871 O 726.634 -1.86432 -1.09872 0
M  V30 7872 C 727.229 -2.612 2.15778 0
M  V30 7873 C 725.788 -3.1413 2.07363 0
M  V30 7874 C 724.935 -1.86845 2.049 0
M  V30 7875 H 727.886 -0.676457 1.43561 0
M  V30 7876 H 727.907 -3.37948 1.74847 0
M  V30 7877 H 727.419 -2.23709 3.17137 0
M  V30 7878 H 725.52 -3.56238 1.09204 0
M  V30 7879 H 725.633 -3.76285 2.96557 0
M  V30 7880 H 723.997 -2.05886 1.49943 0
M  V30 7881 H 724.78 -1.51589 3.08019 0
M  V30 7882 N 727.225 -1.14528 -1.08264 0
M  V30 7883 C 728.474 -0.908992 -1.80056 0
M  V30 7884 C 728.787 0.565859 -1.87236 0
M  V30 7885 O 729.993 0.919454 -2.55457 0
M  V30 7886 C 728.449 -1.57681 -3.23519 0
M  V30 7887 C 728.057 -3.08803 -3.24569 0
M  V30 7888 C 729.801 -1.4217 -3.99985 0
M  V30 7889 C 727.708 -3.68414 -4.62629 0
M  V30 7890 H 726.638 -0.336432 -0.674781 0
M  V30 7891 H 729.289 -1.37437 -1.21587 0
M  V30 7892 H 727.671 -1.03911 -3.82124 0
M  V30 7893 H 728.845 -3.69252 -2.75663 0
M  V30 7894 H 727.16 -3.23968 -2.61598 0
M  V30 7895 H 729.757 -1.84106 -5.02005 0
M  V30 7896 H 730.1 -0.367989 -4.1467 0
M  V30 7897 H 730.633 -1.92984 -3.47853 0
M  V30 7898 H 727.372 -4.73644 -4.53147 0
M  V30 7899 H 726.892 -3.12746 -5.11811 0
M  V30 7900 H 728.571 -3.68793 -5.31602 0
M  V30 7901 N 728.703 1.26451 -0.940633 0
M  V30 7902 C 729.933 1.97581 -0.603766 0
M  V30 7903 C 730.341 1.70246 0.825395 0
M  V30 7904 O 729.684 0.967001 1.56188 0
M  V30 7905 C 729.746 3.51256 -0.765463 0
M  V30 7906 C 729.41 4.0224 -2.16915 0
M  V30 7907 C 730.407 4.1402 -3.14457 0
M  V30 7908 C 728.092 4.36263 -2.48958 0
M  V30 7909 C 730.086 4.59117 -4.42143 0
M  V30 7910 C 727.773 4.81048 -3.76877 0
M  V30 7911 C 728.771 4.92436 -4.73282 0
M  V30 7912 O 728.459 5.36234 -5.98923 0
M  V30 7913 H 728.191 0.636948 -0.226436 0
M  V30 7914 H 730.745 1.61941 -1.2635 0
M  V30 7915 H 728.975 3.86669 -0.0485956 0
M  V30 7916 H 730.664 4.03597 -0.431738 0
M  V30 7917 H 731.43 3.87981 -2.91026 0
M  V30 7918 H 727.309 4.26634 -1.74656 0
M  V30 7919 H 730.853 4.6792 -5.17394 0
M  V30 7920 H 726.75 5.06531 -4.00121 0
M  V30 7921 H 727.518 5.54456 -6.02097 0
M  V30 7922 N 730.181 0.707592 1.40822 0
M  V30 7923 C 731.429 0.243189 2.00632 0
M  V30 7924 C 731.75 -1.16512 1.56365 0
M  V30 7925 O 731.02 -1.78841 0.799553 0
M  V30 7926 H 729.6 0.0869203 0.741926 0
M  V30 7927 H 732.262 0.911438 1.72275 0
M  V30 7928 H 731.358 0.270014 3.1093 0
M  V30 7929 N 731.66 -1.50943 0.453197 0
M  V30 7930 C 732.59 -2.31005 -0.34044 0
M  V30 7931 C 733.571 -1.37112 -1.00669 0
M  V30 7932 O 734.756 -1.66033 -1.0073 0
M  V30 7933 C 731.886 -3.16358 -1.433 0
M  V30 7934 C 730.84 -4.18658 -0.889363 0
M  V30 7935 C 730.166 -4.92633 -2.07887 0
M  V30 7936 C 731.466 -5.22227 0.0871142 0
M  V30 7937 H 733.16 -2.97601 0.327723 0
M  V30 7938 H 730.706 -1.43119 0.159054 0
M  V30 7939 H 732.659 -3.71155 -1.99555 0
M  V30 7940 H 731.383 -2.47613 -2.12968 0
M  V30 7941 H 730.042 -3.64936 -0.348915 0
M  V30 7942 H 729.69 -4.20376 -2.76211 0
M  V30 7943 H 729.39 -5.61819 -1.72143 0
M  V30 7944 H 730.914 -5.50258 -2.64666 0
M  V30 7945 H 732.328 -5.72001 -0.385656 0
M  V30 7946 H 730.725 -5.99032 0.357926 0
M  V30 7947 H 731.795 -4.74077 1.01879 0
M  V30 7948 N 733.138 -0.185124 -1.56509 0
M  V30 7949 C 734.366 0.462139 -2.01673 0
M  V30 7950 C 734.781 1.55873 -1.06532 0
M  V30 7951 O 734.138 1.82371 -0.0684805 0
M  V30 7952 C 734.189 1.0277 -3.46584 0
M  V30 7953 O 733.91 -0.0251296 -4.38093 0
M  V30 7954 C 735.411 1.75183 -4.07217 0
M  V30 7955 H 732.631 0.117001 -0.660721 0
M  V30 7956 H 735.175 -0.290905 -2.0242 0
M  V30 7957 H 733.33 1.73118 -3.46568 0
M  V30 7958 H 733.744 0.394387 -5.23015 0
M  V30 7959 H 735.218 2.09999 -5.10494 0
M  V30 7960 H 735.695 2.6519 -3.50101 0
M  V30 7961 H 736.301 1.09445 -4.10977 0
M  V30 7962 N 734.616 1.57351 0.0885366 0
M  V30 7963 C 735.549 1.97786 1.13825 0
M  V30 7964 C 736.527 0.852091 1.38485 0
M  V30 7965 O 737.711 1.11296 1.52137 0
M  V30 7966 C 734.838 2.30024 2.48609 0
M  V30 7967 C 733.884 3.52437 2.40189 0
M  V30 7968 S 734.717 5.03908 1.81209 0
M  V30 7969 C 735.873 5.39331 3.17605 0
M  V30 7970 H 736.106 2.86513 0.793587 0
M  V30 7971 H 733.639 1.51527 0.29646 0
M  V30 7972 H 735.597 2.49274 3.26148 0
M  V30 7973 H 734.258 1.41856 2.80242 0
M  V30 7974 H 733.451 3.72457 3.39546 0
M  V30 7975 H 733.053 3.32731 1.70781 0
M  V30 7976 H 735.345 5.36378 4.13891 0
M  V30 7977 H 736.288 6.4029 3.02381 0
M  V30 7978 H 736.696 4.6679 3.17438 0
M  V30 7979 N 736.094 -0.359525 1.53444 0
M  V30 7980 C 737.041 -1.44073 1.8031 0
M  V30 7981 C 738.011 -1.52946 0.647811 0
M  V30 7982 O 739.196 -1.68739 0.890614 0
M  V30 7983 C 736.336 -2.80941 2.00416 0
M  V30 7984 C 735.449 -2.80986 3.28132 0
M  V30 7985 C 734.584 -4.09468 3.38393 0
M  V30 7986 C 733.623 -4.03679 4.60119 0
M  V30 7987 N 732.76 -5.23821 4.675 0
M  V30 7988 H 737.6 -1.20464 2.72566 0
M  V30 7989 H 735.137 -0.583859 1.35017 0
M  V30 7990 H 737.095 -3.60459 2.1006 0
M  V30 7991 H 735.725 -3.02936 1.11489 0
M  V30 7992 H 734.777 -1.93666 3.27411 0
M  V30 7993 H 736.089 -2.72583 4.17732 0
M  V30 7994 H 735.243 -4.97404 3.47382 0
M  V30 7995 H 733.982 -4.20632 2.4682 0
M  V30 7996 H 732.987 -3.14129 4.51224 0
M  V30 7997 H 734.212 -3.94112 5.5304 0
M  V30 7998 H 732.158 -5.35559 3.7883 0
M  V30 7999 H 732.075 -5.17611 5.51013 0
M  V30 8000 H 733.343 -6.13572 4.8078 0
M  V30 8001 N 737.572 -1.44907 -0.619662 0
M  V30 8002 C 738.522 -1.49085 -1.72504 0
M  V30 8003 C 739.506 -0.355372 -1.56926 0
M  V30 8004 O 740.698 -0.601441 -1.66468 0
M  V30 8005 C 737.827 -1.44889 -3.11227 0
M  V30 8006 C 736.913 -2.63593 -3.32234 0
M  V30 8007 N 737.304 -3.88775 -3.23555 0
M  V30 8008 C 735.602 -2.59033 -3.63067 0
M  V30 8009 C 736.303 -4.67932 -3.45564 0
M  V30 8010 N 735.279 -3.9919 -3.68983 0
M  V30 8011 H 739.081 -2.43706 -1.6427 0
M  V30 8012 H 736.595 -1.4003 -0.82252 0
M  V30 8013 H 738.592 -1.45966 -3.90512 0
M  V30 8014 H 737.252 -0.513143 -3.2062 0
M  V30 8015 H 738.263 -4.20574 -3.02221 0
M  V30 8016 H 734.94 -1.7431 -3.79371 0
M  V30 8017 H 736.33 -5.76952 -3.44349 0
M  V30 8018 N 739.05 0.861098 -1.31996 0
M  V30 8019 C 740.013 1.95068 -1.20338 0
M  V30 8020 C 741.013 1.60289 -0.128114 0
M  V30 8021 O 742.203 1.70048 -0.378044 0
M  V30 8022 C 739.335 3.30153 -0.849205 0
M  V30 8023 H 740.528 2.06833 -2.17164 0
M  V30 8024 H 738.081 1.05049 -1.15734 0
M  V30 8025 H 738.816 3.24087 0.117508 0
M  V30 8026 H 738.601 3.56771 -1.62655 0
M  V30 8027 H 740.091 4.10025 -0.791782 0
M  V30 8028 N 740.528 1.15101 1.07655 0
M  V30 8029 C 741.768 0.934462 1.81789 0
M  V30 8030 C 742.132 -0.529101 1.84566 0
M  V30 8031 O 743.333 -0.863868 2.5454 0
M  V30 8032 C 741.604 1.52817 3.23082 0
M  V30 8033 S 743.163 1.45429 4.14 0
M  V30 8034 H 739.981 0.336379 0.626395 0
M  V30 8035 H 742.583 1.46593 1.29347 0
M  V30 8036 H 741.287 2.58635 3.18647 0
M  V30 8037 H 740.818 0.995432 3.80598 0
M  V30 8038 H 742.833 0.445058 4.942 0
M  V30 8039 N 742.006 -1.2595 0.947325 0
M  V30 8040 C 743.246 -1.95218 0.605743 0
M  V30 8041 C 743.61 -1.72624 -0.84054 0
M  V30 8042 O 744.811 -2.35748 -1.29136 0
M  V30 8043 C 743.082 -3.44654 0.94596 0
M  V30 8044 S 744.641 -4.32922 0.715849 0
M  V30 8045 H 741.459 -0.675159 0.222894 0
M  V30 8046 H 744.061 -1.52766 1.21995 0
M  V30 8047 H 742.765 -3.586 1.99585 0
M  V30 8048 H 742.296 -3.92082 0.321718 0
M  V30 8049 H 744.311 -4.94445 -0.416959 0
M  V30 8050 N 743.484 -0.715051 -1.40445 0
M  V30 8051 C 744.394 -0.0631624 -2.34515 0
M  V30 8052 C 745.41 0.744397 -1.57273 0
M  V30 8053 O 746.586 0.677475 -1.89663 0
M  V30 8054 C 743.651 0.847915 -3.36172 0
M  V30 8055 C 742.712 0.0303655 -4.29289 0
M  V30 8056 C 741.945 0.898051 -5.2609 0
M  V30 8057 O 742.168 2.13729 -5.28844 0
M  V30 8058 O 741.102 0.337328 -6.00954 0
M  V30 8059 H 744.928 -0.839078 -2.91879 0
M  V30 8060 H 742.513 -0.475527 -1.4163 0
M  V30 8061 H 744.395 1.3698 -3.98515 0
M  V30 8062 H 743.07 1.60299 -2.81222 0
M  V30 8063 H 741.977 -0.536573 -3.70232 0
M  V30 8064 H 743.31 -0.686474 -4.87389 0
M  V30 8065 N 744.962 1.50701 -0.461195 0
M  V30 8066 C 745.912 2.25195 0.35653 0
M  V30 8067 C 746.896 1.2838 0.96992 0
M  V30 8068 O 748.088 1.53338 0.884108 0
M  V30 8069 C 745.217 3.11471 1.44364 0
M  V30 8070 C 744.303 4.15729 0.83847 0
M  V30 8071 N 744.694 5.05788 -0.0353198 0
M  V30 8072 C 742.992 4.32133 1.1035 0
M  V30 8073 C 743.693 5.80472 -0.37774 0
M  V30 8074 N 742.669 5.43049 0.24463 0
M  V30 8075 H 746.471 2.92188 -0.316746 0
M  V30 8076 H 743.985 1.60059 -0.274725 0
M  V30 8077 H 745.982 3.63436 2.04255 0
M  V30 8078 H 744.642 2.46025 2.11901 0
M  V30 8079 H 745.653 5.16326 -0.403465 0
M  V30 8080 H 742.33 3.77908 1.77458 0
M  V30 8081 H 743.72 6.62996 -1.09024 0
M  V30 8082 N 746.441 0.193421 1.56409 0
M  V30 8083 C 747.688 -0.445789 1.97532 0
M  V30 8084 C 748.016 -1.61744 1.08024 0
M  V30 8085 O 747.271 -1.95338 0.118982 0
M  V30 8086 C 747.57 -0.949718 3.44551 0
M  V30 8087 C 747.236 0.108383 4.5077 0
M  V30 8088 C 745.898 0.399126 4.79542 0
M  V30 8089 C 748.25 0.825423 5.14622 0
M  V30 8090 C 745.578 1.41192 5.69457 0
M  V30 8091 C 747.93 1.82735 6.05632 0
M  V30 8092 C 746.594 2.12531 6.32761 0
M  V30 8093 H 745.864 -0.163126 0.722822 0
M  V30 8094 H 748.511 0.290035 1.89291 0
M  V30 8095 H 746.816 -1.76378 3.49854 0
M  V30 8096 H 748.513 -1.45367 3.73724 0
M  V30 8097 H 745.103 -0.128392 4.28408 0
M  V30 8098 H 749.287 0.61403 4.92487 0
M  V30 8099 H 744.543 1.6487 5.88751 0
M  V30 8100 H 748.717 2.3882 6.5417 0
M  V30 8101 H 746.344 2.91155 7.02234 0
M  V30 8102 N 747.919 -1.57396 -0.0801906 0
M  V30 8103 C 748.851 -1.9982 -1.12271 0
M  V30 8104 C 749.864 -0.902902 -1.35468 0
M  V30 8105 O 751.053 -1.18088 -1.33856 0
M  V30 8106 C 748.153 -2.31476 -2.47532 0
M  V30 8107 C 747.326 -3.62745 -2.44407 0
M  V30 8108 C 746.385 -3.82168 -3.6171 0
M  V30 8109 O 745.411 -4.53852 -3.43522 0
M  V30 8110 N 746.613 -3.2388 -4.81749 0
M  V30 8111 H 749.378 -2.89864 -0.761501 0
M  V30 8112 H 746.939 -1.5965 -0.268965 0
M  V30 8113 H 748.931 -2.4165 -3.24634 0
M  V30 8114 H 747.501 -1.47364 -2.75686 0
M  V30 8115 H 746.721 -3.63403 -1.52747 0
M  V30 8116 H 748.009 -4.48954 -2.39412 0
M  V30 8117 H 747.407 -2.6568 -4.9943 0
M  V30 8118 H 745.964 -3.39515 -5.56392 0
M  V30 8119 N 749.397 0.351382 -1.53633 0
M  V30 8120 C 750.33 1.45407 -1.75875 0
M  V30 8121 C 751.308 1.50822 -0.607566 0
M  V30 8122 O 752.492 1.68658 -0.841818 0
M  V30 8123 C 749.619 2.8369 -1.85034 0
M  V30 8124 C 748.665 2.95935 -3.07123 0
M  V30 8125 S 749.498 2.63215 -4.66345 0
M  V30 8126 C 750.654 4.03622 -4.78373 0
M  V30 8127 H 750.887 1.26322 -2.69128 0
M  V30 8128 H 748.42 0.546581 -1.44402 0
M  V30 8129 H 750.378 3.6336 -1.90996 0
M  V30 8130 H 749.039 3.00076 -0.928074 0
M  V30 8131 H 748.232 3.97243 -3.10183 0
M  V30 8132 H 747.834 2.24205 -2.99346 0
M  V30 8133 H 750.126 4.98046 -4.593 0
M  V30 8134 H 751.069 4.05559 -5.80454 0
M  V30 8135 H 751.477 3.91282 -4.06889 0
M  V30 8136 N 750.875 1.45233 0.611969 0
M  V30 8137 C 751.807 1.49575 1.73666 0
M  V30 8138 C 752.82 0.386987 1.58134 0
M  V30 8139 O 754.009 0.653804 1.66095 0
M  V30 8140 C 751.109 1.33223 3.11617 0
M  V30 8141 C 750.282 2.57694 3.5343 0
M  V30 8142 C 749.341 2.35962 4.70328 0
M  V30 8143 O 748.367 3.09553 4.77667 0
M  V30 8144 N 749.569 1.40243 5.63305 0
M  V30 8145 H 752.334 2.46539 1.70407 0
M  V30 8146 H 749.895 1.40917 0.79712 0
M  V30 8147 H 751.887 1.16502 3.87569 0
M  V30 8148 H 750.457 0.44551 3.09409 0
M  V30 8149 H 749.677 2.8956 2.67486 0
M  V30 8150 H 750.965 3.40441 3.78124 0
M  V30 8151 H 750.363 0.795023 5.60086 0
M  V30 8152 H 748.92 1.29496 6.38807 0
M  V30 8153 N 752.353 -0.854086 1.3245 0
M  V30 8154 C 753.283 -1.97827 1.24044 0
M  V30 8155 C 754.264 -1.69646 0.124166 0
M  V30 8156 O 755.449 -1.91687 0.31143 0
M  V30 8157 C 752.579 -3.33673 0.963324 0
M  V30 8158 C 751.533 -3.76207 2.04089 0
M  V30 8159 C 750.859 -5.0969 1.61618 0
M  V30 8160 C 752.159 -3.91612 3.45597 0
M  V30 8161 H 753.853 -2.05118 2.18099 0
M  V30 8162 H 751.399 -0.985489 1.04996 0
M  V30 8163 H 753.352 -4.11871 0.891061 0
M  V30 8164 H 752.076 -3.26597 -0.0128649 0
M  V30 8165 H 750.735 -3.0026 2.10332 0
M  V30 8166 H 750.383 -4.99072 0.627418 0
M  V30 8167 H 750.083 -5.3912 2.33717 0
M  V30 8168 H 751.607 -5.90381 1.55829 0
M  V30 8169 H 753.021 -4.60163 3.4194 0
M  V30 8170 H 751.418 -4.3246 4.16051 0
M  V30 8171 H 752.488 -2.9451 3.85217 0
M  V30 8172 N 753.831 -1.1567 -1.07043 0
M  V30 8173 C 755.247 -0.900006 -1.31803 0
M  V30 8174 C 755.447 0.451293 -1.96381 0
M  V30 8175 O 754.503 1.19252 -2.22565 0
M  V30 8176 C 755.816 -2.04334 -2.20609 0
M  V30 8177 C 757.364 -2.07823 -2.34048 0
M  V30 8178 C 757.839 -3.21488 -3.26204 0
M  V30 8179 N 759.33 -3.21156 -3.33786 0
M  V30 8180 C 760.065 -4.05746 -4.05163 0
M  V30 8181 N 759.561 -5.00407 -4.79129 0
M  V30 8182 N 761.354 -3.93759 -4.01136 0
M  V30 8183 H 753.505 -2.02681 -0.635146 0
M  V30 8184 H 755.768 -0.883956 -0.342528 0
M  V30 8185 H 755.474 -3.01895 -1.80423 0
M  V30 8186 H 755.348 -1.97838 -3.21154 0
M  V30 8187 H 757.735 -1.1086 -2.73485 0
M  V30 8188 H 757.816 -2.18386 -1.33197 0
M  V30 8189 H 757.46 -4.18706 -2.87485 0
M  V30 8190 H 757.39 -3.08162 -4.27017 0
M  V30 8191 H 759.881 -2.52606 -2.81067 0
M  V30 8192 H 760.194 -5.61387 -5.31097 0
M  V30 8193 H 758.539 -5.04393 -4.78135 0
M  V30 8194 H 761.73 -3.19115 -3.42466 0
M  V30 8195 H 761.903 -4.59906 -4.56498 0
M  V30 8196 N 755.309 1.25446 -0.953992 0
M  V30 8197 C 756.534 1.97755 -0.625129 0
M  V30 8198 C 756.959 1.70437 0.795787 0
M  V30 8199 O 756.317 0.95992 1.53803 0
M  V30 8200 C 756.365 3.49463 -0.889251 0
M  V30 8201 O 755.469 4.12387 0.0322757 0
M  V30 8202 H 754.81 0.61998 -0.237742 0
M  V30 8203 H 757.34 1.59582 -1.28041 0
M  V30 8204 H 757.35 3.99772 -0.815263 0
M  V30 8205 H 756.025 3.68676 -1.92487 0
M  V30 8206 H 754.602 3.72782 -0.0938625 0
M  V30 8207 O 756.826 0.86056 1.36662 0
M  V30 8208 H 757.517 0.45661 1.88241 0
M  V30 END ATOM
M  V30 BEGIN BOND
M  V30 END BOND
M  V30 END CTAB
M  END
$$$$
