drugbank_target|Q9X9L0 Hypothetical gliding protein (DB03814)
 OpenBabel12092120283D

  0  0  0     0  0            999 V3000
M  V30 BEGIN CTAB
M  V30 COUNTS 2527 2549 0 0 0
M  V30 BEGIN ATOM
M  V30 1 H -0.908 1.98254 -0.117106 0
M  V30 2 N 0 1.576 0 0
M  V30 3 C 0.933 2.03868 1.02534 0
M  V30 4 C 1.911 0.928543 1.3348 0
M  V30 5 O 3.095 1.19667 1.45644 0
M  V30 6 C 0.222 2.43627 2.35294 0
M  V30 7 C -0.732 3.65373 2.2001 0
M  V30 8 S 0.101 5.13292 1.52614 0
M  V30 9 C 1.257 5.56322 2.86805 0
M  V30 10 H 1.49 2.90518 0.631377 0
M  V30 11 H -0.977 1.52953 0.210867 0
M  V30 12 H 0.981 2.67203 3.11629 0
M  V30 13 H -0.358 1.57376 2.7183 0
M  V30 14 H -1.165 3.90944 3.18086 0
M  V30 15 H -1.563 3.418 1.51819 0
M  V30 16 H 0.729 5.58782 3.83104 0
M  V30 17 H 1.672 6.56266 2.65933 0
M  V30 18 H 2.08 4.83886 2.90714 0
M  V30 19 N 1.4781 -0.272755 1.55222 0
M  V30 20 C 2.7241 -1.00581 1.761 0
M  V30 21 C 3.0571 -1.85932 0.560625 0
M  V30 22 O 2.3321 -1.89416 -0.441801 0
M  V30 23 C 2.6151 -1.88816 3.06628 0
M  V30 24 C 2.4681 -1.06457 4.37021 0
M  V30 25 C 3.7871 -2.8752 3.33197 0
M  V30 26 H 0.9061 -0.364244 0.640699 0
M  V30 27 H 3.5481 -0.278189 1.87952 0
M  V30 28 H 1.6981 -2.50856 2.96654 0
M  V30 29 H 3.3701 -0.464863 4.58952 0
M  V30 30 H 1.6131 -0.368043 4.32236 0
M  V30 31 H 2.2841 -1.71514 5.24678 0
M  V30 32 H 4.7601 -2.35615 3.42965 0
M  V30 33 H 3.6361 -3.46399 4.25792 0
M  V30 34 H 3.8971 -3.62657 2.52849 0
M  V30 35 N 2.9562 -1.48159 -0.537278 0
M  V30 36 C 3.8662 -1.64807 -1.6696 0
M  V30 37 C 4.8822 -0.530651 -1.65711 0
M  V30 38 O 6.0582 -0.800784 -1.84796 0
M  V30 39 C 3.1232 -1.67708 -3.03438 0
M  V30 40 C 2.1842 -2.91025 -3.156 0
M  V30 41 C 1.4172 -2.93778 -4.45567 0
M  V30 42 O 1.6402 -2.05153 -5.3223 0
M  V30 43 O 0.5742 -3.85868 -4.61941 0
M  V30 44 H 4.4002 -2.6066 -1.55853 0
M  V30 45 H 1.9852 -1.31475 -0.709549 0
M  V30 46 H 3.8672 -1.7218 -3.84619 0
M  V30 47 H 2.5422 -0.750278 -3.14885 0
M  V30 48 H 1.4492 -2.92089 -2.33741 0
M  V30 49 H 2.7822 -3.83065 -3.09066 0
M  V30 50 N 4.4343 0.785586 -1.36625 0
M  V30 51 C 5.8453 1.36101 -1.27803 0
M  V30 52 C 6.1963 1.96035 0.0804875 0
M  V30 53 O 5.3213 1.92834 0.982042 0
M  V30 54 C 5.9163 2.47442 -2.31426 0
M  V30 55 C 4.4753 3.00789 -2.26281 0
M  V30 56 C 3.6223 1.73896 -2.15999 0
M  V30 57 H 6.5733 0.586928 -1.47448 0
M  V30 58 H 6.5943 3.2656 -1.95291 0
M  V30 59 H 6.1063 2.03791 -3.30289 0
M  V30 60 H 4.2073 3.48851 -1.30896 0
M  V30 61 H 4.3203 3.57343 -3.19128 0
M  V30 62 H 2.6843 1.9628 -1.62316 0
M  V30 63 H 3.4673 1.32368 -3.16755 0
M  V30 64 N 5.9124 1.20967 1.01018 0
M  V30 65 C 7.1374 1.0503 1.78839 0
M  V30 66 C 7.5624 -0.395752 1.8389 0
M  V30 67 O 6.9204 -1.28529 1.27867 0
M  V30 68 C 6.9684 1.64602 3.2084 0
M  V30 69 O 6.0724 0.887988 4.02726 0
M  V30 70 H 5.4134 0.369987 0.551367 0
M  V30 71 H 7.9434 1.60399 1.27018 0
M  V30 72 H 7.9534 1.68607 3.71532 0
M  V30 73 H 6.6284 2.69841 3.16479 0
M  V30 74 H 5.2054 0.922648 3.61305 0
M  V30 75 N 7.3905 -1.2043 1.01659 0
M  V30 76 C 8.3205 -2.25466 0.607226 0
M  V30 77 C 9.3015 -1.65853 -0.377716 0
M  V30 78 O 10.4865 -1.92409 -0.263149 0
M  V30 79 C 7.6165 -3.47256 -0.0552949 0
M  V30 80 C 6.5705 -4.19462 0.850632 0
M  V30 81 C 5.8965 -5.34673 0.0538859 0
M  V30 82 C 7.1965 -4.75603 2.15868 0
M  V30 83 H 8.8905 -2.59962 1.48526 0
M  V30 84 H 6.4365 -1.2496 0.715605 0
M  V30 85 H 8.3895 -4.19917 -0.353233 0
M  V30 86 H 7.1135 -3.11924 -0.968045 0
M  V30 87 H 5.7725 -3.48667 1.13257 0
M  V30 88 H 5.4205 -4.95585 -0.860514 0
M  V30 89 H 5.1205 -5.83913 0.657192 0
M  V30 90 H 6.6445 -6.10138 -0.237598 0
M  V30 91 H 8.0585 -5.40083 1.92311 0
M  V30 92 H 6.4555 -5.3528 2.71284 0
M  V30 93 H 7.5255 -3.94346 2.82169 0
M  V30 94 N 8.8686 -0.792821 -1.36206 0
M  V30 95 C 10.1146 -0.36733 -1.99446 0
M  V30 96 C 10.4476 1.05917 -1.62774 0
M  V30 97 O 9.7226 1.7324 -0.88421 0
M  V30 98 C 10.0056 -0.535044 -3.56103 0
M  V30 99 C 9.8586 -2.00548 -4.02617 0
M  V30 100 C 11.1776 0.0478191 -4.40074 0
M  V30 101 H 8.2966 -0.134941 -0.724541 0
M  V30 102 H 10.9386 -0.999794 -1.61568 0
M  V30 103 H 9.0886 0.00336329 -3.885 0
M  V30 104 H 10.7606 -2.60521 -3.80692 0
M  V30 105 H 9.0036 -2.50686 -3.54032 0
M  V30 106 H 9.6746 -2.07377 -5.11565 0
M  V30 107 H 12.1506 -0.411822 -4.14057 0
M  V30 108 H 11.0266 -0.0995336 -5.4881 0
M  V30 109 H 11.2876 1.14025 -4.27142 0
M  V30 110 N 10.3467 1.47872 -0.545128 0
M  V30 111 C 11.2767 2.32661 0.197793 0
M  V30 112 C 12.2577 1.43041 0.920504 0
M  V30 113 O 13.4427 1.71912 0.90333 0
M  V30 114 C 10.5727 3.24569 1.23582 0
M  V30 115 C 9.5267 4.23333 0.630323 0
M  V30 116 C 8.8527 5.0448 1.77211 0
M  V30 117 C 10.1527 5.20704 -0.407974 0
M  V30 118 H 11.8467 2.95024 -0.510045 0
M  V30 119 H 9.3927 1.4187 -0.246731 0
M  V30 120 H 11.3457 3.8272 1.76362 0
M  V30 121 H 10.0697 2.60236 1.97344 0
M  V30 122 H 8.7287 3.6639 0.123922 0
M  V30 123 H 8.3767 4.36561 2.49847 0
M  V30 124 H 8.0767 5.71339 1.37281 0
M  V30 125 H 9.6007 5.65487 2.3034 0
M  V30 126 H 11.0147 5.7329 0.033305 0
M  V30 127 H 9.4117 5.95699 -0.725486 0
M  V30 128 H 10.4817 4.66917 -1.30828 0
M  V30 129 N 11.8248 0.280983 1.55075 0
M  V30 130 C 13.0548 -0.336804 2.03836 0
M  V30 131 C 13.4628 -1.49577 1.15859 0
M  V30 132 O 12.8058 -1.82888 0.172503 0
M  V30 133 C 12.8678 -0.874616 3.48699 0
M  V30 134 C 12.5318 0.156478 4.56732 0
M  V30 135 C 13.5288 0.978032 5.10618 0
M  V30 136 C 11.2138 0.292409 5.01448 0
M  V30 137 C 13.2078 1.92165 6.07743 0
M  V30 138 C 10.8948 1.23949 5.98398 0
M  V30 139 C 11.8928 2.05261 6.51427 0
M  V30 140 O 11.5808 2.98367 7.4648 0
M  V30 141 H 11.3128 -0.0800885 0.671239 0
M  V30 142 H 13.8668 0.412589 2.01213 0
M  V30 143 H 12.0968 -1.67418 3.4858 0
M  V30 144 H 13.7858 -1.40612 3.80766 0
M  V30 145 H 14.5518 0.883782 4.7688 0
M  V30 146 H 10.4308 -0.330498 4.59814 0
M  V30 147 H 13.9748 2.55672 6.49059 0
M  V30 148 H 9.8718 1.33454 6.31554 0
M  V30 149 H 10.6398 2.93116 7.64215 0
M  V30 150 N 13.3029 -1.57598 0.00835791 0
M  V30 151 C 14.5509 -1.90551 -0.6734 0
M  V30 152 C 14.8719 -0.883301 -1.73847 0
M  V30 153 O 14.1419 0.0781442 -1.95744 0
M  V30 154 H 12.7219 -0.703312 -0.251717 0
M  V30 155 H 15.3839 -1.94833 0.0512592 0
M  V30 156 H 14.4799 -2.9056 -1.13935 0
M  V30 157 N 14.781 0.264519 -1.55364 0
M  V30 158 C 15.744 1.31046 -1.88042 0
M  V30 159 C 16.744 1.41943 -0.755569 0
M  V30 160 O 17.934 1.40947 -1.02369 0
M  V30 161 C 15.066 2.69067 -2.09323 0
M  V30 162 H 16.259 1.03297 -2.81549 0
M  V30 163 H 13.812 0.502989 -1.47986 0
M  V30 164 H 14.547 3.01982 -1.18226 0
M  V30 165 H 14.332 2.62542 -2.91229 0
M  V30 166 H 15.822 3.44623 -2.35848 0
M  V30 167 N 16.2591 1.48442 0.529413 0
M  V30 168 C 17.6701 1.5002 1.11134 0
M  V30 169 C 18.0211 0.27031 1.94329 0
M  V30 170 O 17.1461 -0.622507 2.07253 0
M  V30 171 C 17.7411 2.71834 2.02217 0
M  V30 172 C 16.3001 2.76283 2.55627 0
M  V30 173 C 15.4471 2.43542 1.326 0
M  V30 174 H 18.3981 1.5555 0.314641 0
M  V30 175 H 18.4191 2.50384 2.8651 0
M  V30 176 H 17.9311 3.61331 1.41639 0
M  V30 177 H 16.0321 1.90995 3.19924 0
M  V30 178 H 16.1451 3.77725 2.94721 0
M  V30 179 H 14.5091 1.94709 1.64196 0
M  V30 180 H 15.2921 3.3528 0.737734 0
M  V30 181 N 17.7372 -0.778329 1.37039 0
M  V30 182 C 18.9672 -1.56507 1.34868 0
M  V30 183 C 19.3752 -1.89072 -0.0694802 0
M  V30 184 O 18.7182 -1.51434 -1.03987 0
M  V30 185 C 18.7802 -2.90641 2.11585 0
M  V30 186 C 18.4442 -2.80746 3.60598 0
M  V30 187 C 19.4412 -2.52226 4.54618 0
M  V30 188 C 17.1262 -2.98974 4.03633 0
M  V30 189 C 19.1202 -2.42054 5.89651 0
M  V30 190 C 16.8072 -2.88423 5.38754 0
M  V30 191 C 17.8052 -2.60002 6.31576 0
M  V30 192 O 17.4932 -2.49465 7.64214 0
M  V30 193 H 17.2252 -0.491723 0.463879 0
M  V30 194 H 19.7792 -0.973053 1.80889 0
M  V30 195 H 18.0092 -3.51936 1.60243 0
M  V30 196 H 19.6982 -3.51992 2.0213 0
M  V30 197 H 20.4642 -2.37835 4.22681 0
M  V30 198 H 16.3432 -3.20099 3.31749 0
M  V30 199 H 19.8872 -2.19791 6.62071 0
M  V30 200 H 15.7842 -3.0238 5.70295 0
M  V30 201 H 16.5522 -2.64864 7.74461 0
M  V30 202 N 19.2153 -1.21501 -1.00376 0
M  V30 203 C 20.1253 -0.991447 -2.12621 0
M  V30 204 C 21.1413 0.0568446 -1.73907 0
M  V30 205 O 22.3173 -0.13348 -2.00957 0
M  V30 206 C 19.3823 -0.560312 -3.42142 0
M  V30 207 C 18.4433 -1.68096 -3.95022 0
M  V30 208 C 17.6763 -1.2703 -5.18362 0
M  V30 209 O 17.8993 -0.144438 -5.70217 0
M  V30 210 O 16.8333 -2.08269 -5.64719 0
M  V30 211 H 20.6593 -1.93158 -2.34358 0
M  V30 212 H 18.2443 -0.999999 -1.10997 0
M  V30 213 H 20.1263 -0.329724 -4.20108 0
M  V30 214 H 18.8013 0.351089 -3.2179 0
M  V30 215 H 17.7083 -1.96597 -3.18278 0
M  V30 216 H 19.0413 -2.56983 -4.19786 0
M  V30 217 N 20.6934 1.19889 -1.02296 0
M  V30 218 C 22.1094 1.41462 -0.738954 0
M  V30 219 C 22.3094 1.89721 0.678846 0
M  V30 220 O 21.3654 2.07016 1.4457 0
M  V30 221 C 22.6784 2.43083 -1.77005 0
M  V30 222 C 24.2264 2.5684 -1.78892 0
M  V30 223 C 24.7014 3.61709 -2.80945 0
M  V30 224 N 26.1924 3.69199 -2.79725 0
M  V30 225 C 26.9274 4.50019 -3.55345 0
M  V30 226 N 26.4234 5.34592 -4.40662 0
M  V30 227 N 28.2164 4.44612 -3.43914 0
M  V30 228 H 20.3674 0.868827 -1.93817 0
M  V30 229 H 22.6304 0.44399 -0.837602 0
M  V30 230 H 22.3364 2.14636 -2.78612 0
M  V30 231 H 22.2104 3.4217 -1.58744 0
M  V30 232 H 24.5974 2.84614 -0.779674 0
M  V30 233 H 24.6784 1.57927 -2.01228 0
M  V30 234 H 24.3224 3.34678 -3.82038 0
M  V30 235 H 24.2524 4.60259 -2.5587 0
M  V30 236 H 26.7434 3.08794 -2.17842 0
M  V30 237 H 27.0564 5.93363 -4.95116 0
M  V30 238 H 25.4014 5.34073 -4.44737 0
M  V30 239 H 28.5924 3.7758 -2.76679 0
M  V30 240 H 28.7654 5.0736 -4.031 0
M  V30 241 N 22.1715 0.800033 1.35784 0
M  V30 242 C 23.1345 0.211565 2.28221 0
M  V30 243 C 24.1345 -0.59728 1.49296 0
M  V30 244 O 25.3245 -0.416721 1.69142 0
M  V30 245 C 22.4565 -0.705846 3.33513 0
M  V30 246 H 23.6495 1.02677 2.81776 0
M  V30 247 H 21.2025 0.570211 1.45528 0
M  V30 248 H 21.9375 -1.54498 2.85133 0
M  V30 249 H 21.7225 -0.127655 3.91892 0
M  V30 250 H 23.2125 -1.11211 4.02519 0
M  V30 251 N 23.6496 -1.47581 0.552962 0
M  V30 252 C 24.8956 -2.02782 0.0273648 0
M  V30 253 C 25.2286 -1.42687 -1.31734 0
M  V30 254 O 24.5036 -0.580897 -1.85623 0
M  V30 255 C 24.7866 -3.60031 -0.0702371 0
M  V30 256 C 24.6396 -4.30566 1.30126 0
M  V30 257 C 25.9586 -4.33028 -0.785771 0
M  V30 258 H 23.0776 -0.736912 0.0114185 0
M  V30 259 H 25.7196 -1.76056 0.714432 0
M  V30 260 H 23.8696 -3.82932 -0.655382 0
M  V30 261 H 25.5416 -4.19018 1.92929 0
M  V30 262 H 23.7846 -3.91086 1.87709 0
M  V30 263 H 24.4556 -5.39114 1.18573 0
M  V30 264 H 26.9316 -4.15095 -0.288982 0
M  V30 265 H 25.8076 -5.42695 -0.823013 0
M  V30 266 H 26.0686 -4.01945 -1.841 0
M  V30 267 N 25.1277 -0.289203 -1.54924 0
M  V30 268 C 26.0377 0.601863 -2.26748 0
M  V30 269 C 27.0537 1.15834 -1.2984 0
M  V30 270 O 28.2297 1.18564 -1.62802 0
M  V30 271 C 25.2947 1.76299 -2.98529 0
M  V30 272 C 24.3557 1.24178 -4.10948 0
M  V30 273 C 23.5887 2.34757 -4.79296 0
M  V30 274 O 23.8117 3.54411 -4.46933 0
M  V30 275 O 22.7457 2.02115 -5.66951 0
M  V30 276 H 26.5717 0.0195879 -3.03694 0
M  V30 277 H 24.1567 -0.0560868 -1.49295 0
M  V30 278 H 26.0387 2.43973 -3.43592 0
M  V30 279 H 24.7137 2.33209 -2.24488 0
M  V30 280 H 23.6207 0.531104 -3.70311 0
M  V30 281 H 24.9537 0.718252 -4.86931 0
M  V30 282 N 26.6058 1.57591 -0.0167156 0
M  V30 283 C 27.8518 1.91567 0.665582 0
M  V30 284 C 28.1848 0.892298 1.72487 0
M  V30 285 O 27.4598 -0.0867127 1.94307 0
M  V30 286 C 27.7428 3.36069 1.29342 0
M  V30 287 C 27.5958 4.49135 0.244541 0
M  V30 288 C 28.9148 3.803 2.21495 0
M  V30 289 H 26.0338 0.69666 0.240488 0
M  V30 290 H 28.6758 1.89866 -0.0714356 0
M  V30 291 H 26.8258 3.3765 1.92158 0
M  V30 292 H 28.4978 4.59689 -0.385228 0
M  V30 293 H 26.7408 4.3165 -0.431379 0
M  V30 294 H 27.4118 5.47242 0.723207 0
M  V30 295 H 29.8878 3.80377 1.68678 0
M  V30 296 H 28.7638 4.82127 2.62382 0
M  V30 297 H 29.0248 3.15104 3.101 0
M  V30 298 N 28.0839 -0.256276 1.55502 0
M  V30 299 C 29.0139 -1.32102 1.92539 0
M  V30 300 C 29.9949 -1.50684 0.789194 0
M  V30 301 O 31.1799 -1.63449 1.04872 0
M  V30 302 C 28.3099 -2.67752 2.21192 0
M  V30 303 C 27.2639 -2.63878 3.36975 0
M  V30 304 C 26.5899 -4.03236 3.51147 0
M  V30 305 C 27.8899 -2.21682 4.72921 0
M  V30 306 H 29.5839 -1.01351 2.81724 0
M  V30 307 H 27.1299 -0.486105 1.35547 0
M  V30 308 H 29.0829 -3.42365 2.45691 0
M  V30 309 H 27.8069 -3.0012 1.28824 0
M  V30 310 H 26.4659 -1.91722 3.12471 0
M  V30 311 H 26.1139 -4.32854 2.56216 0
M  V30 312 H 25.8139 -4.01535 4.29003 0
M  V30 313 H 27.3379 -4.79563 3.77957 0
M  V30 314 H 28.7519 -2.86023 4.96854 0
M  V30 315 H 27.1489 -2.3111 5.53812 0
M  V30 316 H 28.2189 -1.16833 4.70615 0
M  V30 317 N 29.562 -1.4872 -0.521534 0
M  V30 318 C 30.472 -1.66569 -1.65203 0
M  V30 319 C 31.488 -0.548197 -1.65139 0
M  V30 320 O 32.664 -0.820339 -1.83936 0
M  V30 321 C 29.729 -1.70917 -3.01642 0
M  V30 322 C 28.79 -2.94356 -3.12495 0
M  V30 323 C 28.023 -2.98487 -4.42426 0
M  V30 324 O 28.246 -2.10786 -5.30024 0
M  V30 325 O 27.18 -3.90746 -4.57822 0
M  V30 326 H 31.006 -2.62298 -1.5308 0
M  V30 327 H 28.591 -1.3222 -0.695565 0
M  V30 328 H 30.473 -1.7625 -3.82771 0
M  V30 329 H 29.148 -0.783633 -3.14071 0
M  V30 330 H 28.055 -2.94552 -2.3063 0
M  V30 331 H 29.388 -3.86322 -3.04986 0
M  V30 332 N 31.0401 0.771051 -1.3745 0
M  V30 333 C 31.9501 1.91538 -1.35464 0
M  V30 334 C 32.9661 1.72134 -0.254123 0
M  V30 335 O 34.1421 1.95358 -0.489626 0
M  V30 336 C 31.2071 3.26671 -1.16134 0
M  V30 337 C 30.2681 3.58723 -2.35831 0
M  V30 338 C 29.5011 4.87409 -2.17413 0
M  V30 339 O 29.7241 5.58506 -1.15876 0
M  V30 340 O 28.6581 5.18539 -3.05615 0
M  V30 341 H 32.4841 1.96165 -2.31847 0
M  V30 342 H 30.0691 0.9139 -1.18187 0
M  V30 343 H 31.9511 4.07499 -1.07345 0
M  V30 344 H 30.6261 3.22894 -0.228251 0
M  V30 345 H 29.5331 2.78127 -2.50192 0
M  V30 346 H 30.8661 3.67243 -3.27709 0
M  V30 347 N 32.5182 1.22032 0.997298 0
M  V30 348 C 33.7462 1.06841 1.7718 0
M  V30 349 C 34.1612 -0.381325 1.84909 0
M  V30 350 O 33.5182 -1.26437 1.31605 0
M  V30 351 C 33.5692 1.66814 3.20711 0
M  V30 352 O 33.2902 3.06116 3.13408 0
M  V30 353 C 34.7912 1.56838 4.14628 0
M  V30 354 H 32.0112 0.374782 0.556578 0
M  V30 355 H 34.5552 1.61532 1.2541 0
M  V30 356 H 32.7102 1.16196 3.69564 0
M  V30 357 H 33.1242 3.34926 4.0364 0
M  V30 358 H 34.5982 2.03532 5.13107 0
M  V30 359 H 35.0752 0.524155 4.36061 0
M  V30 360 H 35.6812 2.06741 3.7167 0
M  V30 361 N 33.9963 -1.19345 1.0293 0
M  V30 362 C 34.9263 -2.2481 0.631105 0
M  V30 363 C 35.9073 -1.66245 -0.360104 0
M  V30 364 O 37.0923 -1.92677 -0.242726 0
M  V30 365 C 34.2223 -3.47295 -0.0184607 0
M  V30 366 C 33.1763 -4.18536 0.895073 0
M  V30 367 C 32.5023 -5.34586 0.110592 0
M  V30 368 C 33.8023 -4.73287 2.209 0
M  V30 369 H 35.4963 -2.58372 1.51275 0
M  V30 370 H 33.0423 -1.24194 0.728818 0
M  V30 371 H 34.9953 -4.20268 -0.308675 0
M  V30 372 H 33.7193 -3.12933 -0.934907 0
M  V30 373 H 32.3783 -3.47446 1.16949 0
M  V30 374 H 32.0263 -4.96469 -0.807902 0
M  V30 375 H 31.7263 -5.83183 0.719087 0
M  V30 376 H 33.2503 -6.10355 -0.172871 0
M  V30 377 H 34.6643 -5.38013 1.98028 0
M  V30 378 H 33.0613 -5.32373 2.76946 0
M  V30 379 H 34.1313 -3.91331 2.86336 0
M  V30 380 N 35.4744 -0.807222 -1.35358 0
M  V30 381 C 36.8904 -0.491038 -1.51858 0
M  V30 382 C 37.0904 0.987648 -1.75635 0
M  V30 383 O 36.1464 1.77265 -1.79815 0
M  V30 384 C 37.4594 -1.33695 -2.69344 0
M  V30 385 C 39.0074 -1.33246 -2.83222 0
M  V30 386 C 39.4824 -2.1625 -4.03733 0
M  V30 387 N 40.9734 -2.1379 -4.10911 0
M  V30 388 C 41.7084 -2.74772 -5.03277 0
M  V30 389 N 41.2044 -3.44684 -6.0097 0
M  V30 390 N 42.9974 -2.6441 -4.96028 0
M  V30 391 H 35.1484 -1.76485 -1.18181 0
M  V30 392 H 37.4114 -0.751199 -0.578276 0
M  V30 393 H 37.1174 -2.38634 -2.58354 0
M  V30 394 H 36.9914 -0.990618 -3.6396 0
M  V30 395 H 39.3784 -0.290911 -2.93663 0
M  V30 396 H 39.4594 -1.71866 -1.89461 0
M  V30 397 H 39.1034 -3.20445 -3.94052 0
M  V30 398 H 39.0334 -1.74989 -4.96675 0
M  V30 399 H 41.5244 -1.62923 -3.40976 0
M  V30 400 H 41.8374 -3.88501 -6.68047 0
M  V30 401 H 40.1824 -3.48788 -6.01142 0
M  V30 402 H 43.3734 -2.0938 -4.18662 0
M  V30 403 H 43.5464 -3.12225 -5.6782 0
M  V30 404 N 36.9525 1.47285 -0.560781 0
M  V30 405 C 37.8625 2.33846 0.187954 0
M  V30 406 C 38.8785 1.48412 0.908293 0
M  V30 407 O 40.0545 1.81332 0.876388 0
M  V30 408 C 37.1195 3.25178 1.2025 0
M  V30 409 C 36.1805 4.26504 0.489208 0
M  V30 410 C 35.4135 5.13472 1.45542 0
M  V30 411 O 35.6365 5.02959 2.6905 0
M  V30 412 O 34.5705 5.93902 0.977963 0
M  V30 413 H 38.3965 2.99177 -0.522177 0
M  V30 414 H 35.9815 1.45903 -0.321364 0
M  V30 415 H 37.8635 3.81584 1.78805 0
M  V30 416 H 36.5385 2.6247 1.89449 0
M  V30 417 H 35.4455 3.73847 -0.137627 0
M  V30 418 H 36.7785 4.91935 -0.161399 0
M  V30 419 N 38.4306 0.297415 1.54768 0
M  V30 420 C 39.6586 -0.315623 2.04478 0
M  V30 421 C 40.0736 -1.47792 1.17486 0
M  V30 422 O 39.4306 -1.81404 0.19971 0
M  V30 423 C 39.4816 -0.7753 3.53088 0
M  V30 424 O 39.2026 0.340732 4.36773 0
M  V30 425 C 40.7036 -1.45386 4.18781 0
M  V30 426 H 37.9236 -0.0690887 0.667434 0
M  V30 427 H 40.4676 0.436003 1.99798 0
M  V30 428 H 38.6226 -1.47696 3.58141 0
M  V30 429 H 39.0366 -0.0165035 5.24497 0
M  V30 430 H 40.5106 -1.72669 5.24299 0
M  V30 431 H 40.9876 -2.39275 3.68299 0
M  V30 432 H 41.5936 -0.795475 4.17795 0
M  V30 433 N 39.9087 -1.5758 0.0250728 0
M  V30 434 C 41.1567 -1.91255 -0.653151 0
M  V30 435 C 41.4777 -0.901691 -1.729 0
M  V30 436 O 40.7477 0.0573785 -1.95816 0
M  V30 437 H 39.3277 -0.705942 -0.244243 0
M  V30 438 H 41.9897 -1.94767 0.0719209 0
M  V30 439 H 41.0857 -2.91752 -1.10847 0
M  V30 440 N 41.3868 0.248026 -1.55636 0
M  V30 441 C 42.3498 1.29044 -1.89421 0
M  V30 442 C 43.3498 1.41134 -0.770581 0
M  V30 443 O 44.5398 1.39854 -1.03858 0
M  V30 444 C 41.6718 2.66831 -2.12165 0
M  V30 445 H 42.8648 1.00305 -2.82629 0
M  V30 446 H 40.4178 0.487265 -1.48511 0
M  V30 447 H 41.1528 3.00711 -1.21422 0
M  V30 448 H 40.9378 2.59438 -2.93997 0
M  V30 449 H 42.4278 3.42103 -2.3949 0
M  V30 450 N 42.8649 1.48995 0.513639 0
M  V30 451 C 44.2809 1.35478 0.843682 0
M  V30 452 C 44.4809 0.378213 1.97919 0
M  V30 453 O 43.5369 -0.194689 2.51748 0
M  V30 454 C 44.8499 2.75901 1.1958 0
M  V30 455 C 46.3979 2.84509 1.30474 0
M  V30 456 C 46.8729 4.25671 1.69021 0
M  V30 457 N 48.3639 4.28422 1.76094 0
M  V30 458 C 49.0989 5.34601 2.07338 0
M  V30 459 N 48.5949 6.5104 2.36894 0
M  V30 460 N 50.3879 5.22007 2.08483 0
M  V30 461 H 42.5389 2.11092 -0.235328 0
M  V30 462 H 44.8019 0.947039 -0.0426669 0
M  V30 463 H 44.5079 3.49001 0.434913 0
M  V30 464 H 44.3819 3.10467 2.1422 0
M  V30 465 H 46.7689 2.11655 2.05637 0
M  V30 466 H 46.8499 2.53542 0.339155 0
M  V30 467 H 46.4939 4.99048 0.944135 0
M  V30 468 H 46.4239 4.54094 2.66658 0
M  V30 469 H 48.9149 3.44441 1.55464 0
M  V30 470 H 49.2279 7.2779 2.59887 0
M  V30 471 H 47.5729 6.54287 2.34378 0
M  V30 472 H 50.7639 4.30051 1.84861 0
M  V30 473 H 50.9369 6.04854 2.325 0
M  V30 474 N 44.343 -0.763751 1.37857 0
M  V30 475 C 45.573 -1.55067 1.3652 0
M  V30 476 C 45.981 -1.89135 -0.0494227 0
M  V30 477 O 45.324 -1.52529 -1.02375 0
M  V30 478 C 45.386 -2.8838 2.14656 0
M  V30 479 C 45.05 -2.76905 3.63555 0
M  V30 480 C 46.047 -2.4739 4.57268 0
M  V30 481 C 43.732 -2.94676 4.06781 0
M  V30 482 C 45.726 -2.35786 5.92186 0
M  V30 483 C 43.413 -2.82692 5.41782 0
M  V30 484 C 44.411 -2.53289 6.34298 0
M  V30 485 O 44.099 -2.41345 7.66817 0
M  V30 486 H 43.831 -0.486776 0.469069 0
M  V30 487 H 46.385 -0.953812 1.81911 0
M  V30 488 H 44.615 -3.50217 1.63967 0
M  V30 489 H 46.304 -3.49828 2.05852 0
M  V30 490 H 47.07 -2.33339 4.2518 0
M  V30 491 H 42.949 -3.16563 3.35126 0
M  V30 492 H 46.493 -2.12757 6.64365 0
M  V30 493 H 42.39 -2.96314 5.7347 0
M  V30 494 H 43.158 -2.56634 7.77226 0
M  V30 495 N 45.8211 -1.22559 -0.990812 0
M  V30 496 C 46.7841 -0.998863 -2.0629 0
M  V30 497 C 47.7841 0.0354834 -1.60761 0
M  V30 498 O 48.9741 -0.203231 -1.7301 0
M  V30 499 C 46.1061 -0.509203 -3.37076 0
M  V30 500 H 47.2991 -1.95014 -2.27837 0
M  V30 501 H 44.8521 -1.04456 -1.16269 0
M  V30 502 H 45.5871 0.446335 -3.21214 0
M  V30 503 H 45.3721 -1.25547 -3.71457 0
M  V30 504 H 46.8621 -0.370888 -4.1595 0
M  V30 505 N 47.2992 1.18797 -1.03562 0
M  V30 506 C 48.2292 2.24472 -0.643019 0
M  V30 507 C 49.2102 1.66433 0.351283 0
M  V30 508 O 50.3952 1.92803 0.232505 0
M  V30 509 C 47.5252 3.473 4.24935e-05 0
M  V30 510 C 46.4792 4.18055 -0.917257 0
M  V30 511 C 45.8052 5.34519 -0.138941 0
M  V30 512 C 47.1052 4.72109 -2.23407 0
M  V30 513 H 48.7992 2.57566 -1.52643 0
M  V30 514 H 46.3452 1.23806 -0.735394 0
M  V30 515 H 48.2982 4.20426 0.286383 0
M  V30 516 H 47.0222 3.13424 0.918299 0
M  V30 517 H 45.6812 3.46821 -1.1879 0
M  V30 518 H 45.3292 4.96891 0.781562 0
M  V30 519 H 45.0292 5.82794 -0.750005 0
M  V30 520 H 46.5532 6.10438 0.1405 0
M  V30 521 H 47.9672 5.36955 -2.00879 0
M  V30 522 H 46.3642 5.30897 -2.79765 0
M  V30 523 H 47.4342 3.89807 -2.88407 0
M  V30 524 N 48.7773 0.814389 1.34928 0
M  V30 525 C 49.7073 0.244827 2.32213 0
M  V30 526 C 50.6883 -0.634024 1.57842 0
M  V30 527 O 51.8733 -0.562676 1.8587 0
M  V30 528 C 49.0033 -0.601106 3.42058 0
M  V30 529 C 47.9573 0.179896 4.27622 0
M  V30 530 C 47.2833 -0.788237 5.28858 0
M  V30 531 C 48.5833 1.38329 5.03649 0
M  V30 532 H 50.2773 1.05763 2.80097 0
M  V30 533 H 47.8233 0.510029 1.34665 0
M  V30 534 H 49.7763 -1.00968 4.09125 0
M  V30 535 H 48.5003 -1.44688 2.92802 0
M  V30 536 H 47.1593 0.569739 3.62146 0
M  V30 537 H 46.8073 -1.62973 4.75866 0
M  V30 538 H 46.5073 -0.269942 5.8698 0
M  V30 539 H 48.0313 -1.19485 5.98795 0
M  V30 540 H 49.4453 1.04918 5.63618 0
M  V30 541 H 47.8423 1.83662 5.71304 0
M  V30 542 H 48.9123 2.16592 4.33839 0
M  V30 543 N 50.2554 -1.46986 0.568584 0
M  V30 544 C 51.5044 -2.01646 0.0465894 0
M  V30 545 C 51.8174 -1.44721 -1.31587 0
M  V30 546 O 53.0234 -1.91113 -1.92842 0
M  V30 547 C 51.4794 -3.59885 0.032752 0
M  V30 548 C 51.0874 -4.25804 1.39266 0
M  V30 549 C 52.8314 -4.22255 -0.436038 0
M  V30 550 C 50.7384 -5.76081 1.33732 0
M  V30 551 H 49.6684 -0.753876 0.013647 0
M  V30 552 H 52.3194 -1.68864 0.718131 0
M  V30 553 H 50.7014 -3.8968 -0.704669 0
M  V30 554 H 51.8754 -4.07637 2.1487 0
M  V30 555 H 50.1904 -3.7547 1.80032 0
M  V30 556 H 52.7874 -5.32394 -0.49602 0
M  V30 557 H 53.1304 -3.90212 -1.45053 0
M  V30 558 H 53.6634 -3.97033 0.246877 0
M  V30 559 H 50.4024 -6.12761 2.32817 0
M  V30 560 H 49.9224 -5.96553 0.623267 0
M  V30 561 H 51.6014 -6.38518 1.0442 0
M  V30 562 N 51.7335 -0.305618 -1.54608 0
M  V30 563 C 53.0105 0.355652 -1.92339 0
M  V30 564 C 53.3905 1.71324 -1.23335 0
M  V30 565 O 52.7385 2.25473 -0.370702 0
M  V30 566 C 52.9485 0.46572 -3.45879 0
M  V30 567 C 54.2965 0.734426 -4.182 0
M  V30 568 O 55.3205 0.54935 -3.51938 0
M  V30 569 O 54.1795 1.09024 -5.35515 0
M  V30 570 H 51.2735 0.199666 -0.802535 0
M  V30 571 H 53.8195 -0.354017 -1.65966 0
M  V30 572 H 52.5915 -0.488461 -3.88239 0
M  V30 573 H 52.2145 1.22367 -3.78301 0
M  V30 574 N 53.2116 1.57565 -0.0334293 0
M  V30 575 C 54.6276 1.56297 0.322997 0
M  V30 576 C 54.8276 1.03945 1.7262 0
M  V30 577 O 53.8836 0.688109 2.42943 0
M  V30 578 C 55.1966 3.00232 0.167664 0
M  V30 579 C 56.7446 3.12078 0.240107 0
M  V30 580 C 57.2196 4.57859 0.113513 0
M  V30 581 N 58.7106 4.62887 0.170359 0
M  V30 582 C 59.4456 5.73319 0.0962517 0
M  V30 583 N 58.9416 6.92794 -0.0291881 0
M  V30 584 N 60.7346 5.61898 0.150551 0
M  V30 585 H 52.8856 1.89923 -0.950956 0
M  V30 586 H 55.1486 0.873824 -0.367608 0
M  V30 587 H 54.8546 3.42501 -0.799102 0
M  V30 588 H 54.7286 3.654 0.936083 0
M  V30 589 H 57.1156 2.69718 1.19733 0
M  V30 590 H 57.1966 2.49623 -0.558763 0
M  V30 591 H 56.8406 5.009 -0.840314 0
M  V30 592 H 56.7706 5.18299 0.931302 0
M  V30 593 H 59.2616 3.76954 0.26728 0
M  V30 594 H 59.5746 7.7276 -0.0789252 0
M  V30 595 H 57.9196 6.94971 -0.0640299 0
M  V30 596 H 61.1106 4.67448 0.246981 0
M  V30 597 H 61.2836 6.47938 0.0893365 0
M  V30 598 N 54.6897 -0.239769 1.55765 0
M  V30 599 C 55.6367 -1.29696 1.90913 0
M  V30 600 C 56.6067 -1.47478 0.764164 0
M  V30 601 O 57.7917 -1.61345 1.01845 0
M  V30 602 C 54.9317 -2.64598 2.21544 0
M  V30 603 C 54.0447 -2.54765 3.48882 0
M  V30 604 C 53.1797 -3.82069 3.69049 0
M  V30 605 C 52.2187 -3.66883 4.89963 0
M  V30 606 N 51.3557 -4.86094 5.06614 0
M  V30 607 H 56.1957 -0.990224 2.81067 0
M  V30 608 H 53.7327 -0.477684 1.39128 0
M  V30 609 H 55.6907 -3.43132 2.3731 0
M  V30 610 H 54.3207 -2.93405 1.34585 0
M  V30 611 H 53.3727 -1.67763 3.41409 0
M  V30 612 H 54.6847 -2.39457 4.37563 0
M  V30 613 H 53.8387 -4.69046 3.84812 0
M  V30 614 H 52.5777 -4.00282 2.78614 0
M  V30 615 H 51.5827 -2.78289 4.74168 0
M  V30 616 H 52.8077 -3.50157 5.81865 0
M  V30 617 H 50.7537 -5.04655 4.19117 0
M  V30 618 H 50.6707 -4.73443 5.89396 0
M  V30 619 H 51.9387 -5.74549 5.26795 0
M  V30 620 N 56.1678 -1.49265 -0.50573 0
M  V30 621 C 57.4158 -1.582 -1.25766 0
M  V30 622 C 57.7368 -0.268482 -1.93143 0
M  V30 623 O 57.0068 0.711833 -1.8251 0
M  V30 624 H 55.5868 -0.582873 -0.467191 0
M  V30 625 H 58.2488 -1.85865 -0.586525 0
M  V30 626 H 57.3448 -2.37563 -2.02412 0
M  V30 627 N 57.6459 0.756429 -1.3826 0
M  V30 628 C 58.8929 1.51547 -1.34312 0
M  V30 629 C 59.2209 1.94382 0.0677144 0
M  V30 630 O 58.4759 1.65514 1.04421 0
M  V30 631 C 58.7749 2.78313 -2.24224 0
M  V30 632 C 58.4409 2.54455 -3.72241 0
M  V30 633 C 57.1029 2.47657 -4.12576 0
M  V30 634 C 59.4549 2.3354 -4.65949 0
M  V30 635 C 56.7829 2.17956 -5.44713 0
M  V30 636 C 59.1349 2.05359 -5.9834 0
M  V30 637 C 57.7989 1.97016 -6.37762 0
M  V30 638 H 57.0689 0.55455 -0.491482 0
M  V30 639 H 59.7159 0.870039 -1.70595 0
M  V30 640 H 58.0209 3.47492 -1.80987 0
M  V30 641 H 59.7179 3.36259 -2.18474 0
M  V30 642 H 56.3079 2.60616 -3.40261 0
M  V30 643 H 60.4919 2.37772 -4.35635 0
M  V30 644 H 55.7479 2.10003 -5.74203 0
M  V30 645 H 59.9219 1.88179 -6.70494 0
M  V30 646 H 57.5489 1.73766 -7.40074 0
M  V30 647 N 59.124 1.23083 0.984299 0
M  V30 648 C 60.37 1.06214 1.72761 0
M  V30 649 C 60.703 -0.400584 1.90024 0
M  V30 650 O 59.978 -1.29672 1.44967 0
M  V30 651 C 60.261 1.78375 3.12817 0
M  V30 652 C 60.114 3.32296 3.03149 0
M  V30 653 C 61.433 1.54309 4.12161 0
M  V30 654 H 58.552 0.387251 0.627061 0
M  V30 655 H 61.194 1.51536 1.14616 0
M  V30 656 H 59.344 1.39848 3.62457 0
M  V30 657 H 61.016 3.8032 2.61064 0
M  V30 658 H 59.259 3.6153 2.39747 0
M  V30 659 H 59.93 3.77972 4.02295 0
M  V30 660 H 62.406 1.87791 3.71314 0
M  V30 661 H 61.282 2.07281 5.08258 0
M  V30 662 H 61.543 0.477572 4.39513 0
M  V30 663 N 60.6021 -1.18246 1.0419 0
M  V30 664 C 61.5321 -2.24127 0.654914 0
M  V30 665 C 62.5131 -1.66617 -0.342451 0
M  V30 666 O 63.6981 -1.92924 -0.222277 0
M  V30 667 C 60.8281 -3.47295 0.0183757 0
M  V30 668 C 59.7821 -4.17563 0.939414 0
M  V30 669 C 59.1081 -5.34438 0.167286 0
M  V30 670 C 60.4081 -4.70917 2.25908 0
M  V30 671 H 62.1021 -2.56753 1.54007 0
M  V30 672 H 59.6481 -1.23414 0.74195 0
M  V30 673 H 61.6011 -4.20572 -0.264082 0
M  V30 674 H 60.3251 -3.13907 -0.901664 0
M  V30 675 H 58.9841 -3.46186 1.20628 0
M  V30 676 H 58.6321 -4.97298 -0.7552 0
M  V30 677 H 58.3321 -5.82388 0.780901 0
M  V30 678 H 59.8561 -6.10504 -0.108125 0
M  V30 679 H 61.2701 -5.35882 2.03724 0
M  V30 680 H 59.6671 -5.29406 2.82577 0
M  V30 681 H 60.7371 -3.88272 2.9047 0
M  V30 682 N 62.0802 -0.821533 -1.34494 0
M  V30 683 C 63.0432 -0.247847 -2.27856 0
M  V30 684 C 64.0432 0.573453 -1.50227 0
M  V30 685 O 65.2332 0.389759 -1.69784 0
M  V30 686 C 62.3652 0.652698 -3.34593 0
M  V30 687 H 63.5582 -1.07146 -2.80107 0
M  V30 688 H 61.1112 -0.593291 -1.44602 0
M  V30 689 H 61.8462 1.49943 -2.87555 0
M  V30 690 H 61.6312 0.065292 -3.92046 0
M  V30 691 H 63.1212 1.04793 -4.04238 0
M  V30 692 N 63.5583 1.46682 -0.576371 0
M  V30 693 C 64.5083 2.27278 0.181288 0
M  V30 694 C 65.4923 1.35497 0.867721 0
M  V30 695 O 66.6843 1.59717 0.762863 0
M  V30 696 C 63.8133 3.21703 1.19841 0
M  V30 697 C 62.8993 4.20969 0.51442 0
M  V30 698 N 63.2903 5.03999 -0.426407 0
M  V30 699 C 61.5883 4.39373 0.765963 0
M  V30 700 C 62.2893 5.75812 -0.825565 0
M  V30 701 N 61.2653 5.43315 -0.176116 0
M  V30 702 H 65.0673 2.88863 -0.541785 0
M  V30 703 H 62.5813 1.57455 -0.397697 0
M  V30 704 H 64.5783 3.78145 1.75533 0
M  V30 705 H 63.2383 2.61677 1.92238 0
M  V30 706 H 64.2493 5.11659 -0.8016 0
M  V30 707 H 60.9263 3.90502 1.47698 0
M  V30 708 H 62.3163 6.52577 -1.59976 0
M  V30 709 N 65.0364 0.313813 1.54444 0
M  V30 710 C 65.9834 -0.55655 2.23989 0
M  V30 711 C 66.9534 -1.11943 1.22711 0
M  V30 712 O 68.1384 -1.16158 1.51367 0
M  V30 713 C 65.2784 -1.71635 2.99392 0
M  V30 714 C 64.3914 -1.18364 4.15468 0
M  V30 715 C 63.5264 -2.30834 4.78424 0
M  V30 716 C 62.5654 -1.74762 5.86622 0
M  V30 717 N 61.7024 -2.80855 6.43479 0
M  V30 718 H 66.5424 0.0430893 2.97969 0
M  V30 719 H 64.0794 0.0330359 1.47063 0
M  V30 720 H 66.0374 -2.39868 3.41349 0
M  V30 721 H 64.6674 -2.28742 2.27765 0
M  V30 722 H 63.7194 -0.393163 3.78363 0
M  V30 723 H 65.0314 -0.733262 4.93381 0
M  V30 724 H 64.1854 -3.0699 5.23299 0
M  V30 725 H 62.9244 -2.79204 3.99871 0
M  V30 726 H 61.9294 -0.970995 5.41158 0
M  V30 727 H 63.1544 -1.2728 6.67066 0
M  V30 728 H 61.1004 -3.28535 5.67804 0
M  V30 729 H 61.0174 -2.40351 7.16776 0
M  V30 730 H 62.2854 -3.5687 6.93011 0
M  V30 731 N 66.5145 -1.57545 0.0417849 0
M  V30 732 C 67.4245 -2.14451 -0.951213 0
M  V30 733 C 68.4405 -1.09992 -1.34825 0
M  V30 734 O 69.6165 -1.42114 -1.42708 0
M  V30 735 C 66.6815 -2.67063 -2.21084 0
M  V30 736 C 65.7425 -3.86284 -1.87304 0
M  V30 737 C 64.9755 -4.36378 -3.07261 0
M  V30 738 O 65.1985 -3.85587 -4.20332 0
M  V30 739 O 64.1325 -5.28077 -2.88822 0
M  V30 740 H 67.9585 -2.99601 -0.497287 0
M  V30 741 H 65.5435 -1.48317 -0.179567 0
M  V30 742 H 67.4255 -3.00914 -2.95006 0
M  V30 743 H 66.1005 -1.84989 -2.65633 0
M  V30 744 H 65.0075 -3.57338 -1.10727 0
M  V30 745 H 66.3405 -4.6956 -1.47562 0
M  V30 746 N 67.9926 0.231505 -1.5589 0
M  V30 747 C 68.9556 1.27028 -1.90779 0
M  V30 748 C 69.9556 1.40308 -0.785507 0
M  V30 749 O 71.1456 1.38744 -1.05336 0
M  V30 750 C 68.2776 2.64566 -2.14983 0
M  V30 751 H 69.4706 0.973017 -2.83677 0
M  V30 752 H 67.0236 0.471486 -1.49019 0
M  V30 753 H 67.7586 2.99406 -1.24604 0
M  V30 754 H 67.5436 2.56305 -2.96732 0
M  V30 755 H 69.0336 3.39543 -2.43105 0
M  V30 756 N 69.4707 1.49531 0.497807 0
M  V30 757 C 70.4007 1.6935 1.60757 0
M  V30 758 C 71.3817 0.542218 1.61227 0
M  V30 759 O 72.5667 0.778417 1.77917 0
M  V30 760 C 69.6967 1.76298 2.99226 0
M  V30 761 C 68.6507 2.91248 3.13622 0
M  V30 762 C 67.9767 2.83312 4.53474 0
M  V30 763 C 69.2767 4.3214 2.93346 0
M  V30 764 H 70.9707 2.62263 1.44425 0
M  V30 765 H 68.5167 1.26208 0.693367 0
M  V30 766 H 70.4697 1.88749 3.76765 0
M  V30 767 H 69.1937 0.799871 3.16654 0
M  V30 768 H 67.8527 2.78404 2.38509 0
M  V30 769 H 67.5007 1.84902 4.67782 0
M  V30 770 H 67.2007 3.60465 4.64046 0
M  V30 771 H 68.7247 2.97775 5.33069 0
M  V30 772 H 70.1387 4.45649 3.60652 0
M  V30 773 H 68.5357 5.1054 3.15387 0
M  V30 774 H 69.6057 4.46363 1.89441 0
M  V30 775 N 70.9488 -0.749086 1.3866 0
M  V30 776 C 72.1948 -1.50959 1.36319 0
M  V30 777 C 72.5498 -1.92347 -0.0452451 0
M  V30 778 O 71.8428 -1.6289 -1.00884 0
M  V30 779 C 72.0368 -2.7712 2.25697 0
M  V30 780 C 71.8658 -2.48067 3.7509 0
M  V30 781 C 70.6358 -2.41062 4.44091 0
M  V30 782 C 72.8338 -2.14544 4.67414 0
M  V30 783 N 70.8158 -2.04331 5.78897 0
M  V30 784 C 72.1868 -1.88141 5.90765 0
M  V30 785 C 74.2418 -2.00892 4.55573 0
M  V30 786 C 72.9448 -1.49463 7.036 0
M  V30 787 C 74.9708 -1.63616 5.68317 0
M  V30 788 C 74.3328 -1.38088 6.90732 0
M  V30 789 H 70.4318 -0.551804 0.554108 0
M  V30 790 H 73.0158 -0.871886 1.74087 0
M  V30 791 H 71.1868 -3.38693 1.9011 0
M  V30 792 H 72.9188 -3.4321 2.1445 0
M  V30 793 H 69.6738 -2.57685 3.9736 0
M  V30 794 H 70.0978 -1.88598 6.502 0
M  V30 795 H 74.7398 -2.19301 3.61479 0
M  V30 796 H 72.4578 -1.29794 7.97608 0
M  V30 797 H 76.0438 -1.53678 5.61137 0
M  V30 798 H 74.9238 -1.09674 7.76493 0
M  V30 799 N 72.4269 -1.23603 -0.977757 0
M  V30 800 C 73.3899 -1.02069 -2.05218 0
M  V30 801 C 74.3899 0.0184305 -1.60789 0
M  V30 802 O 75.5799 -0.221569 -1.72785 0
M  V30 803 C 72.7119 -0.544926 -3.36517 0
M  V30 804 H 73.9049 -1.9742 -2.25755 0
M  V30 805 H 71.4579 -1.05684 -1.15155 0
M  V30 806 H 72.1929 0.412241 -3.21669 0
M  V30 807 H 71.9779 -1.2948 -3.70105 0
M  V30 808 H 73.4679 -0.414985 -4.15533 0
M  V30 809 N 73.905 1.17692 -1.04816 0
M  V30 810 C 75.316 1.69501 -0.782698 0
M  V30 811 C 75.667 1.83456 0.695577 0
M  V30 812 O 74.792 1.51942 1.54086 0
M  V30 813 C 75.387 3.07874 -1.41419 0
M  V30 814 C 73.946 3.56864 -1.19686 0
M  V30 815 C 73.093 2.3322 -1.50012 0
M  V30 816 H 76.044 1.02262 -1.2136 0
M  V30 817 H 76.065 3.71528 -0.821428 0
M  V30 818 H 75.577 2.97685 -2.49009 0
M  V30 819 H 73.678 3.72337 -0.140043 0
M  V30 820 H 73.791 4.39851 -1.89916 0
M  V30 821 H 72.155 2.37501 -0.920071 0
M  V30 822 H 72.938 2.25644 -2.58727 0
M  V30 823 N 75.3831 0.828654 1.34056 0
M  V30 824 C 76.3301 0.252567 2.29414 0
M  V30 825 C 77.3001 -0.62588 1.53857 0
M  V30 826 O 78.4851 -0.566312 1.82202 0
M  V30 827 C 75.6251 -0.574831 3.40279 0
M  V30 828 C 74.7381 0.326499 4.30764 0
M  V30 829 C 73.8731 -0.511016 5.28736 0
M  V30 830 C 72.9121 0.389342 6.1086 0
M  V30 831 N 72.0491 -0.409439 7.00905 0
M  V30 832 H 76.8891 1.07108 2.78086 0
M  V30 833 H 74.4261 0.539677 1.36843 0
M  V30 834 H 76.3841 -1.06992 4.03248 0
M  V30 835 H 75.0141 -1.35841 2.92826 0
M  V30 836 H 74.0661 0.939837 3.68607 0
M  V30 837 H 75.3781 1.01857 4.88289 0
M  V30 838 H 74.5321 -1.07035 5.97184 0
M  V30 839 H 73.2711 -1.23657 4.71763 0
M  V30 840 H 72.2761 0.960769 5.4134 0
M  V30 841 H 73.5011 1.1131 6.69916 0
M  V30 842 H 71.4471 -1.11856 6.46393 0
M  V30 843 H 71.3641 0.224126 7.55668 0
M  V30 844 H 72.6321 -0.951336 7.73673 0
M  V30 845 N 76.8612 -1.46375 0.584142 0
M  V30 846 C 78.2722 -1.86031 0.157959 0
M  V30 847 C 78.6232 -1.48753 -1.27933 0
M  V30 848 O 77.7482 -0.903098 -1.96655 0
M  V30 849 C 78.3432 -3.37642 0.279892 0
M  V30 850 C 76.9022 -3.76289 -0.09143 0
M  V30 851 C 76.0492 -2.7039 0.615178 0
M  V30 852 H 79.0002 -1.37509 0.792274 0
M  V30 853 H 79.0212 -3.77275 -0.494364 0
M  V30 854 H 78.5332 -3.64742 1.32607 0
M  V30 855 H 76.6342 -3.54806 -1.13769 0
M  V30 856 H 76.7472 -4.78246 0.285886 0
M  V30 857 H 75.1112 -2.5464 0.0552833 0
M  V30 858 H 75.8942 -3.0033 1.66303 0
M  V30 859 N 78.3393 -0.321999 -1.54275 0
M  V30 860 C 79.7503 0.166384 -1.85957 0
M  V30 861 C 80.1013 1.51747 -1.24367 0
M  V30 862 O 79.2263 2.09317 -0.549124 0
M  V30 863 C 79.8213 0.308681 -3.37391 0
M  V30 864 C 78.3803 0.741286 -3.69028 0
M  V30 865 C 77.5273 -0.137937 -2.76957 0
M  V30 866 H 80.4783 -0.542335 -1.49146 0
M  V30 867 H 80.4993 1.13984 -3.63026 0
M  V30 868 H 80.0113 -0.674809 -3.82188 0
M  V30 869 H 78.1123 1.73458 -3.29762 0
M  V30 870 H 78.2253 0.546118 -4.75977 0
M  V30 871 H 76.5893 0.386251 -2.51754 0
M  V30 872 H 77.3723 -1.11816 -3.2458 0
M  V30 873 N 79.8174 1.5752 -0.0501392 0
M  V30 874 C 81.2284 1.80271 0.485705 0
M  V30 875 C 81.5794 0.96228 1.70981 0
M  V30 876 O 80.7044 0.178578 2.15662 0
M  V30 877 C 81.2994 3.26957 0.887938 0
M  V30 878 C 79.8584 3.5063 1.36877 0
M  V30 879 C 79.0054 2.75165 0.343468 0
M  V30 880 H 81.9564 1.56281 -0.276028 0
M  V30 881 H 81.9774 3.37821 1.75093 0
M  V30 882 H 81.4894 3.881 -0.0031809 0
M  V30 883 H 79.5904 2.94766 2.27911 0
M  V30 884 H 79.7034 4.59343 1.36164 0
M  V30 885 H 78.0674 2.4127 0.816128 0
M  V30 886 H 78.8504 3.39034 -0.539548 0
M  V30 887 N 81.2955 -0.223234 1.56011 0
M  V30 888 C 82.2255 -1.27988 1.95298 0
M  V30 889 C 83.2065 -1.48976 0.820979 0
M  V30 890 O 84.3915 -1.61188 1.08315 0
M  V30 891 C 81.5215 -2.63 2.26822 0
M  V30 892 C 80.4755 -2.56671 3.42497 0
M  V30 893 C 79.8015 -3.95697 3.59622 0
M  V30 894 C 81.1015 -2.11601 4.77517 0
M  V30 895 H 82.7955 -0.953525 2.8381 0
M  V30 896 H 80.3415 -0.457244 1.36548 0
M  V30 897 H 82.2945 -3.37077 2.52898 0
M  V30 898 H 81.0185 -2.9732 1.35161 0
M  V30 899 H 79.6775 -1.85051 3.16467 0
M  V30 900 H 79.3255 -4.27322 2.6534 0
M  V30 901 H 79.0255 -3.92345 4.37424 0
M  V30 902 H 80.5495 -4.71438 3.88044 0
M  V30 903 H 81.9635 -2.7542 5.02809 0
M  V30 904 H 80.3605 -2.19311 5.5859 0
M  V30 905 H 81.4305 -1.06824 4.72987 0
M  V30 906 N 82.7736 -1.49793 -0.48987 0
M  V30 907 C 84.0506 -1.50348 -1.25119 0
M  V30 908 C 84.4306 -0.237466 -2.0976 0
M  V30 909 O 83.7786 0.77981 -2.14782 0
M  V30 910 C 83.9886 -2.78872 -2.09837 0
M  V30 911 C 85.3366 -3.288 -2.68655 0
M  V30 912 O 86.3606 -2.80065 -2.20096 0
M  V30 913 O 85.2196 -4.13707 -3.57083 0
M  V30 914 H 82.3136 -0.602242 -0.566775 0
M  V30 915 H 84.8596 -1.62067 -0.503229 0
M  V30 916 H 83.6316 -3.62499 -1.47343 0
M  V30 917 H 83.2546 -2.70066 -2.91805 0
M  V30 918 N 84.2517 0.741722 -1.39055 0
M  V30 919 C 85.4797 1.53098 -1.39171 0
M  V30 920 C 85.8947 1.88794 0.0155099 0
M  V30 921 O 85.2517 1.53626 0.985159 0
M  V30 922 C 85.3027 2.82274 -2.2584 0
M  V30 923 O 85.0237 2.48097 -3.61081 0
M  V30 924 C 86.5247 3.76343 -2.34266 0
M  V30 925 H 83.7447 0.473335 -0.4756 0
M  V30 926 H 86.2887 0.917045 -1.82785 0
M  V30 927 H 84.4437 3.40015 -1.85656 0
M  V30 928 H 84.8577 3.31029 -4.06842 0
M  V30 929 H 86.3317 4.63898 -2.9917 0
M  V30 930 H 86.8087 4.17619 -1.35982 0
M  V30 931 H 87.4147 3.24523 -2.74891 0
M  V30 932 N 85.7298 1.2412 0.971189 0
M  V30 933 C 86.6598 1.05508 2.08304 0
M  V30 934 C 87.6408 -0.0308864 1.70072 0
M  V30 935 O 88.8258 0.135521 1.93727 0
M  V30 936 C 85.9558 0.655365 3.4106 0
M  V30 937 C 84.9098 1.68971 3.93234 0
M  V30 938 C 84.2358 1.14516 5.22293 0
M  V30 939 C 85.5358 3.08487 4.21465 0
M  V30 940 H 87.2298 1.98507 2.24132 0
M  V30 941 H 84.7758 0.955821 1.07704 0
M  V30 942 H 86.7288 0.51217 4.18276 0
M  V30 943 H 85.4528 -0.31032 3.25122 0
M  V30 944 H 84.1118 1.82106 3.18171 0
M  V30 945 H 83.7598 0.170189 5.02712 0
M  V30 946 H 83.4598 1.83635 5.58168 0
M  V30 947 H 84.9838 1.01401 6.02121 0
M  V30 948 H 86.3978 2.98601 4.89398 0
M  V30 949 H 84.7948 3.74926 4.68562 0
M  V30 950 H 85.8648 3.56787 3.28376 0
M  V30 951 N 87.2079 -1.17134 1.05439 0
M  V30 952 C 88.1709 -2.19439 0.661764 0
M  V30 953 C 89.1709 -1.58199 -0.288042 0
M  V30 954 O 90.3609 -1.74053 -0.0715803 0
M  V30 955 C 87.4929 -3.40889 -0.0276209 0
M  V30 956 H 88.6859 -2.55688 1.56728 0
M  V30 957 H 86.2389 -1.31259 0.848567 0
M  V30 958 H 86.9739 -3.10187 -0.94629 0
M  V30 959 H 86.7589 -3.86586 0.655238 0
M  V30 960 H 88.2489 -4.16603 -0.288342 0
M  V30 961 N 88.686 -0.835752 -1.33615 0
M  V30 962 C 89.914 -0.443344 -2.02094 0
M  V30 963 C 90.329 0.954522 -1.62894 0
M  V30 964 O 89.686 1.61982 -0.840723 0
M  V30 965 C 89.737 -0.550775 -3.5728 0
M  V30 966 O 89.458 -1.89356 -3.95065 0
M  V30 967 C 90.959 -0.154919 -4.43029 0
M  V30 968 H 88.179 -0.176359 -0.647409 0
M  V30 969 H 90.723 -1.12746 -1.70612 0
M  V30 970 H 88.878 0.0853997 -3.87306 0
M  V30 971 H 89.292 -1.87687 -4.89769 0
M  V30 972 H 90.766 -0.281144 -5.51284 0
M  V30 973 H 91.243 0.902863 -4.2982 0
M  V30 974 H 91.849 -0.765404 -4.18356 0
M  V30 975 N 90.1641 1.46063 -0.591896 0
M  V30 976 C 91.0941 2.33172 0.123673 0
M  V30 977 C 92.0751 1.45897 0.87453 0
M  V30 978 O 93.2601 1.74698 0.848181 0
M  V30 979 C 90.3901 3.28336 1.13194 0
M  V30 980 C 89.3441 4.25124 0.495324 0
M  V30 981 C 88.6701 5.09863 1.61071 0
M  V30 982 C 89.9701 5.19143 -0.573425 0
M  V30 983 H 91.6641 2.93252 -0.603646 0
M  V30 984 H 89.2101 1.41014 -0.291741 0
M  V30 985 H 91.1631 3.88137 1.64097 0
M  V30 986 H 89.8871 2.66383 1.88965 0
M  V30 987 H 88.5461 3.66599 0.00729452 0
M  V30 988 H 88.1941 4.44288 2.35832 0
M  V30 989 H 87.8941 5.75417 1.19035 0
M  V30 990 H 89.4181 5.72529 2.12233 0
M  V30 991 H 90.8321 5.73106 -0.1491 0
M  V30 992 H 89.2291 5.93089 -0.914636 0
M  V30 993 H 90.2991 4.62519 -1.45617 0
M  V30 994 N 91.6422 0.330177 1.54103 0
M  V30 995 C 92.8882 -0.270806 2.00984 0
M  V30 996 C 93.2212 -1.51265 1.21789 0
M  V30 997 O 92.4962 -1.92142 0.301927 0
M  V30 998 C 92.7792 -0.598339 3.55094 0
M  V30 999 C 92.6322 0.654674 4.4501 0
M  V30 1000 C 93.9512 -1.41334 4.16789 0
M  V30 1001 H 91.0702 -0.0969531 0.730595 0
M  V30 1002 H 93.7122 0.448066 1.84641 0
M  V30 1003 H 91.8622 -1.21078 3.69151 0
M  V30 1004 H 93.5342 1.29285 4.42813 0
M  V30 1005 H 91.7772 1.28224 4.14416 0
M  V30 1006 H 92.4482 0.380944 5.50684 0
M  V30 1007 H 94.9242 -0.895597 4.06347 0
M  V30 1008 H 93.8002 -1.61127 5.24718 0
M  V30 1009 H 94.0612 -2.41146 3.70541 0
M  V30 1010 N 93.1203 -1.57491 0.0584922 0
M  V30 1011 C 94.0833 -2.1085 -0.898617 0
M  V30 1012 C 95.0833 -1.02964 -1.23511 0
M  V30 1013 O 96.2733 -1.29007 -1.17059 0
M  V30 1014 C 93.4053 -2.59881 -2.20623 0
M  V30 1015 H 94.5983 -2.96715 -0.435936 0
M  V30 1016 H 92.1513 -1.55141 -0.190023 0
M  V30 1017 H 92.8863 -1.77431 -2.71457 0
M  V30 1018 H 92.6713 -3.38727 -1.97501 0
M  V30 1019 H 94.1613 -3.01285 -2.89166 0
M  V30 1020 N 94.5984 0.214957 -1.56127 0
M  V30 1021 C 95.8464 0.936518 -1.79091 0
M  V30 1022 C 96.1674 1.84606 -0.628148 0
M  V30 1023 O 95.4374 1.92664 0.35462 0
M  V30 1024 H 94.0174 0.3488 -0.660566 0
M  V30 1025 H 96.6794 0.22523 -1.93594 0
M  V30 1026 H 95.7754 1.53943 -2.71492 0
M  V30 1027 N 96.0765 1.50051 0.48192 0
M  V30 1028 C 97.0245 1.68635 1.60203 0
M  V30 1029 C 98.0185 0.552184 1.60148 0
M  V30 1030 O 99.2245 0.732377 1.64427 0
M  V30 1031 H 95.5995 0.532081 0.531407 0
M  V30 1032 H 97.5705 2.62616 1.41688 0
M  V30 1033 C 96.3195 1.78775 2.9822 0
M  V30 1034 H 95.6425 2.6543 2.98976 0
M  V30 1035 H 97.0825 1.95806 3.7608 0
M  V30 1036 C 95.5415 0.536849 3.32595 0
M  V30 1037 O 96.0715 -0.328897 4.00351 0
M  V30 1038 N 94.2775 0.394091 2.87915 0
M  V30 1039 H 93.8245 1.09962 2.32951 0
M  V30 1040 H 93.7825 -0.441737 3.11281 0
M  V30 1041 N 97.5546 -0.734337 1.39446 0
M  V30 1042 C 98.5176 -1.83004 1.37994 0
M  V30 1043 C 99.5176 -1.58397 0.276938 0
M  V30 1044 O 100.708 -1.65785 0.534875 0
M  V30 1045 C 97.8396 -3.20802 1.1532 0
M  V30 1046 H 99.0326 -1.85694 2.35494 0
M  V30 1047 H 96.5856 -0.938059 1.25021 0
M  V30 1048 H 97.3206 -3.23772 0.185036 0
M  V30 1049 H 97.1056 -3.4006 1.95197 0
M  V30 1050 H 98.5956 -4.00862 1.17046 0
M  V30 1051 N 99.0327 -1.24633 -0.964593 0
M  V30 1052 C 99.9957 -1.0424 -2.04124 0
M  V30 1053 C 100.996 0.00137563 -1.608 0
M  V30 1054 O 102.186 -0.239883 -1.7254 0
M  V30 1055 C 99.3177 -0.580588 -3.3592 0
M  V30 1056 H 100.511 -1.99803 -2.23649 0
M  V30 1057 H 98.0637 -1.06899 -1.14027 0
M  V30 1058 H 98.7987 0.3781 -3.22088 0
M  V30 1059 H 98.5837 -1.33398 -3.6871 0
M  V30 1060 H 100.074 -0.459034 -4.15069 0
M  V30 1061 N 100.511 1.16574 -1.06058 0
M  V30 1062 C 101.474 2.19085 -0.673392 0
M  V30 1063 C 102.474 1.5835 0.279648 0
M  V30 1064 O 103.664 1.74088 0.0623488 0
M  V30 1065 C 100.796 3.40899 0.00954234 0
M  V30 1066 H 101.989 2.54853 -1.58081 0
M  V30 1067 H 99.5418 1.30808 -0.855516 0
M  V30 1068 H 100.277 3.10684 0.929826 0
M  V30 1069 H 100.062 3.86233 -0.67573 0
M  V30 1070 H 101.552 4.1675 0.266245 0
M  V30 1071 N 101.989 0.842826 1.3317 0
M  V30 1072 C 103.217 0.454055 2.01856 0
M  V30 1073 C 103.632 -0.94587 1.63397 0
M  V30 1074 O 102.989 -1.61534 0.849302 0
M  V30 1075 C 103.04 0.569715 3.56982 0
M  V30 1076 O 102.761 1.91448 3.94055 0
M  V30 1077 C 104.262 0.178412 4.42941 0
M  V30 1078 H 101.482 0.17979 0.646465 0
M  V30 1079 H 104.026 1.1365 1.70012 0
M  V30 1080 H 102.181 -0.0648587 3.87346 0
M  V30 1081 H 102.595 1.90282 4.88767 0
M  V30 1082 H 104.069 0.310376 5.51127 0
M  V30 1083 H 104.546 -0.880056 4.30293 0
M  V30 1084 H 105.152 0.787579 4.17944 0
M  V30 1085 N 103.467 -1.45747 0.599634 0
M  V30 1086 C 104.399 -2.28628 -0.161879 0
M  V30 1087 C 105.412 -1.39494 -0.839367 0
M  V30 1088 O 106.601 -1.63941 -0.706089 0
M  V30 1089 C 103.701 -3.15014 -1.24976 0
M  V30 1090 C 102.874 -4.32378 -0.660935 0
M  V30 1091 C 101.933 -5.00033 -1.63869 0
M  V30 1092 O 100.959 -5.57085 -1.1681 0
M  V30 1093 N 102.161 -4.98589 -2.97303 0
M  V30 1094 H 104.926 -2.94624 0.549265 0
M  V30 1095 H 102.487 -1.55847 0.438565 0
M  V30 1096 H 104.479 -3.5714 -1.9035 0
M  V30 1097 H 103.049 -2.5098 -1.86354 0
M  V30 1098 H 102.269 -3.9383 0.170688 0
M  V30 1099 H 103.557 -5.08197 -0.247619 0
M  V30 1100 H 102.955 -4.53514 -3.38145 0
M  V30 1101 H 101.512 -5.44603 -3.58121 0
M  V30 1102 N 104.945 -0.338344 -1.53925 0
M  V30 1103 C 105.908 0.508299 -2.23493 0
M  V30 1104 C 106.908 1.03175 -1.23335 0
M  V30 1105 O 108.098 0.921826 -1.47811 0
M  V30 1106 C 105.23 1.70754 -2.95052 0
M  V30 1107 H 106.423 -0.100058 -2.99733 0
M  V30 1108 H 103.976 -0.0896198 -1.56043 0
M  V30 1109 H 104.711 2.35474 -2.22986 0
M  V30 1110 H 104.496 1.33946 -3.68512 0
M  V30 1111 H 105.986 2.30818 -3.48013 0
M  V30 1112 N 106.423 1.57458 -0.0668435 0
M  V30 1113 C 107.353 2.15468 0.899764 0
M  V30 1114 C 108.334 1.08042 1.31381 0
M  V30 1115 O 109.519 1.36054 1.38574 0
M  V30 1116 C 106.649 2.71232 2.16911 0
M  V30 1117 C 105.603 3.83781 1.89463 0
M  V30 1118 C 104.929 4.26127 3.22986 0
M  V30 1119 C 106.229 5.08238 1.20381 0
M  V30 1120 H 107.923 2.96488 0.416529 0
M  V30 1121 H 105.469 1.4262 0.198908 0
M  V30 1122 H 107.422 3.10458 2.84945 0
M  V30 1123 H 106.146 1.87426 2.67468 0
M  V30 1124 H 104.805 3.45051 1.23836 0
M  V30 1125 H 104.453 3.39249 3.71374 0
M  V30 1126 H 104.153 5.01993 3.05413 0
M  V30 1127 H 105.677 4.67966 3.92225 0
M  V30 1128 H 107.091 5.44811 1.78475 0
M  V30 1129 H 105.488 5.89349 1.13083 0
M  V30 1130 H 106.558 4.84558 0.182153 0
M  V30 1131 N 107.901 -0.206675 1.56239 0
M  V30 1132 C 108.864 -1.23976 1.92776 0
M  V30 1133 C 109.864 -1.39041 0.807729 0
M  V30 1134 O 111.054 -1.37051 1.0753 0
M  V30 1135 C 108.186 -2.61112 2.19165 0
M  V30 1136 H 109.379 -0.927764 2.85189 0
M  V30 1137 H 106.932 -0.447718 1.4975 0
M  V30 1138 H 107.667 -2.97386 1.29352 0
M  V30 1139 H 107.452 -2.51552 3.00772 0
M  V30 1140 H 108.942 -3.35633 2.48476 0
M  V30 1141 N 109.379 -1.50304 -0.473955 0
M  V30 1142 C 110.326 -1.68959 -1.57231 0
M  V30 1143 C 111.296 -0.530899 -1.57387 0
M  V30 1144 O 112.481 -0.761133 -1.74961 0
M  V30 1145 C 109.621 -1.7871 -2.95223 0
M  V30 1146 C 108.734 -3.06061 -3.04878 0
M  V30 1147 C 107.869 -3.06626 -4.33767 0
M  V30 1148 C 106.908 -4.28443 -4.37154 0
M  V30 1149 N 106.045 -4.26763 -5.5751 0
M  V30 1150 H 110.885 -2.6273 -1.40631 0
M  V30 1151 H 108.422 -1.30241 -0.683789 0
M  V30 1152 H 110.38 -1.82344 -3.75242 0
M  V30 1153 H 109.01 -0.883806 -3.10465 0
M  V30 1154 H 108.062 -3.11911 -2.17751 0
M  V30 1155 H 109.374 -3.96039 -3.0324 0
M  V30 1156 H 108.528 -3.08973 -5.22131 0
M  V30 1157 H 107.267 -2.14473 -4.3801 0
M  V30 1158 H 106.272 -4.2631 -3.47188 0
M  V30 1159 H 107.497 -5.2182 -4.34605 0
M  V30 1160 H 105.443 -3.37462 -5.62544 0
M  V30 1161 H 105.36 -5.10507 -5.57601 0
M  V30 1162 H 106.628 -4.33253 -6.48006 0
M  V30 1163 N 110.857 0.726932 -1.39834 0
M  V30 1164 C 111.787 1.85405 -1.41941 0
M  V30 1165 C 112.768 1.67751 -0.281728 0
M  V30 1166 O 113.953 1.8795 -0.488717 0
M  V30 1167 C 111.083 3.23243 -1.2701 0
M  V30 1168 C 110.037 3.55549 -2.38262 0
M  V30 1169 C 109.363 4.9241 -2.08415 0
M  V30 1170 C 110.663 3.577 -3.80589 0
M  V30 1171 H 112.357 1.83899 -2.36266 0
M  V30 1172 H 109.903 0.883349 -1.13723 0
M  V30 1173 H 111.856 4.01775 -1.27103 0
M  V30 1174 H 110.58 3.25296 -0.291564 0
M  V30 1175 H 109.239 2.79351 -2.37399 0
M  V30 1176 H 108.887 4.91052 -1.0898 0
M  V30 1177 H 108.587 5.14992 -2.82943 0
M  V30 1178 H 110.111 5.73289 -2.10171 0
M  V30 1179 H 111.525 4.26293 -3.83337 0
M  V30 1180 H 109.922 3.91804 -4.54543 0
M  V30 1181 H 110.992 2.57328 -4.10987 0
M  V30 1182 N 112.336 1.25143 0.95797 0
M  V30 1183 C 113.266 1.07711 2.07173 0
M  V30 1184 C 114.247 -0.0128462 1.70095 0
M  V30 1185 O 115.432 0.156061 1.93572 0
M  V30 1186 C 112.562 0.691503 3.40346 0
M  V30 1187 C 111.516 1.73132 3.9142 0
M  V30 1188 C 110.842 1.20049 5.21049 0
M  V30 1189 C 112.142 3.1294 4.1817 0
M  V30 1190 H 113.836 2.00873 2.22014 0
M  V30 1191 H 111.382 0.967191 1.06684 0
M  V30 1192 H 113.335 0.556505 4.17709 0
M  V30 1193 H 112.059 -0.275819 3.25433 0
M  V30 1194 H 110.718 1.8547 3.16222 0
M  V30 1195 H 110.366 0.223499 5.02503 0
M  V30 1196 H 110.066 1.89545 5.56189 0
M  V30 1197 H 111.59 1.07782 6.01012 0
M  V30 1198 H 113.004 3.03775 4.86203 0
M  V30 1199 H 111.401 3.79875 4.64559 0
M  V30 1200 H 112.471 3.6025 3.24573 0
M  V30 1201 N 113.814 -1.1601 1.06675 0
M  V30 1202 C 115.062 -1.86264 0.784229 0
M  V30 1203 C 115.383 -1.82328 -0.691488 0
M  V30 1204 O 114.653 -1.25947 -1.50047 0
M  V30 1205 H 113.233 -0.689621 0.28711 0
M  V30 1206 H 115.895 -1.40664 1.34906 0
M  V30 1207 H 114.991 -2.91595 1.11259 0
M  V30 1208 N 115.292 -0.849877 -1.32721 0
M  V30 1209 C 116.202 -0.293791 -2.32753 0
M  V30 1210 C 117.218 0.585906 -1.63839 0
M  V30 1211 O 118.394 0.487413 -1.95413 0
M  V30 1212 C 115.459 0.512752 -3.42887 0
M  V30 1213 C 114.52 -0.39252 -4.27502 0
M  V30 1214 C 113.753 0.375625 -5.32377 0
M  V30 1215 O 113.976 1.60613 -5.4732 0
M  V30 1216 O 112.91 -0.256094 -6.01355 0
M  V30 1217 H 116.736 -1.12242 -2.82197 0
M  V30 1218 H 114.321 -0.612685 -1.36259 0
M  V30 1219 H 116.203 0.970704 -4.10067 0
M  V30 1220 H 114.878 1.31826 -2.95641 0
M  V30 1221 H 113.785 -0.898547 -3.63149 0
M  V30 1222 H 115.118 -1.16309 -4.7826 0
M  V30 1223 N 116.77 1.45427 -0.607355 0
M  V30 1224 C 117.733 2.28974 0.101693 0
M  V30 1225 C 118.733 1.39754 0.795329 0
M  V30 1226 O 119.923 1.61878 0.643527 0
M  V30 1227 C 117.055 3.20768 1.15414 0
M  V30 1228 H 118.248 2.93147 -0.632844 0
M  V30 1229 H 115.801 1.51945 -0.366391 0
M  V30 1230 H 116.536 2.61395 1.91945 0
M  V30 1231 H 116.321 3.86489 0.66098 0
M  V30 1232 H 117.811 3.83589 1.65073 0
M  V30 1233 N 118.248 0.346503 1.53744 0
M  V30 1234 C 119.664 -0.00530975 1.59599 0
M  V30 1235 C 119.864 -1.48465 1.36236 0
M  V30 1236 O 118.92 -2.24376 1.15808 0
M  V30 1237 C 120.233 0.433516 2.97559 0
M  V30 1238 C 121.781 0.386111 3.10609 0
M  V30 1239 C 122.256 0.800451 4.50951 0
M  V30 1240 N 123.747 0.754753 4.5701 0
M  V30 1241 C 124.482 1.04727 5.63755 0
M  V30 1242 N 123.978 1.4081 6.7834 0
M  V30 1243 N 125.771 0.971316 5.53644 0
M  V30 1244 H 117.922 1.31009 1.67184 0
M  V30 1245 H 120.185 0.534242 0.783128 0
M  V30 1246 H 119.891 1.46509 3.19731 0
M  V30 1247 H 119.765 -0.189753 3.76722 0
M  V30 1248 H 122.152 -0.636295 2.88158 0
M  V30 1249 H 122.233 1.04462 2.33498 0
M  V30 1250 H 121.877 1.82088 4.74137 0
M  V30 1251 H 121.807 0.119386 5.26465 0
M  V30 1252 H 124.298 0.488662 3.74727 0
M  V30 1253 H 124.611 1.61607 7.55714 0
M  V30 1254 H 122.956 1.44657 6.79779 0
M  V30 1255 H 126.147 0.688748 4.63005 0
M  V30 1256 H 126.32 1.20263 6.36742 0
M  V30 1257 N 119.726 -1.57421 0.075193 0
M  V30 1258 C 120.973 -1.93618 -0.593146 0
M  V30 1259 C 121.301 -0.955484 -1.69413 0
M  V30 1260 O 120.556 0.0283251 -1.9568 0
M  V30 1261 C 120.855 -3.36428 -1.20626 0
M  V30 1262 C 120.521 -4.50307 -0.231078 0
M  V30 1263 C 119.183 -4.81186 0.0371936 0
M  V30 1264 C 121.535 -5.19374 0.435888 0
M  V30 1265 C 118.863 -5.78466 0.979461 0
M  V30 1266 C 121.215 -6.17665 1.3665 0
M  V30 1267 C 119.879 -6.46958 1.6432 0
M  V30 1268 H 119.149 -0.708499 -0.217047 0
M  V30 1269 H 121.796 -1.90937 0.146793 0
M  V30 1270 H 120.101 -3.35592 -2.02201 0
M  V30 1271 H 121.798 -3.61727 -1.73073 0
M  V30 1272 H 118.388 -4.26227 -0.450357 0
M  V30 1273 H 122.572 -4.95711 0.241748 0
M  V30 1274 H 117.828 -5.99487 1.20106 0
M  V30 1275 H 122.002 -6.70284 1.88924 0
M  V30 1276 H 119.629 -7.2215 2.37494 0
M  V30 1277 N 121.204 0.198386 -1.56346 0
M  V30 1278 C 122.136 1.26987 -1.90806 0
M  V30 1279 C 123.149 1.41877 -0.798419 0
M  V30 1280 O 124.338 1.42362 -1.07682 0
M  V30 1281 C 121.438 2.64246 -2.12196 0
M  V30 1282 C 120.611 2.71007 -3.43328 0
M  V30 1283 C 119.67 3.89439 -3.5387 0
M  V30 1284 O 118.696 3.76695 -4.26719 0
M  V30 1285 N 119.898 5.04752 -2.86715 0
M  V30 1286 H 122.663 0.977433 -2.83313 0
M  V30 1287 H 120.224 0.388322 -1.57174 0
M  V30 1288 H 122.216 3.41896 -2.1654 0
M  V30 1289 H 120.786 2.85992 -1.26204 0
M  V30 1290 H 120.006 1.79657 -3.50881 0
M  V30 1291 H 121.294 2.72512 -4.29668 0
M  V30 1292 H 120.692 5.18004 -2.2735 0
M  V30 1293 H 119.249 5.8036 -2.96691 0
M  V30 1294 N 122.682 1.50554 0.465978 0
M  V30 1295 C 123.592 1.72585 1.58907 0
M  V30 1296 C 124.608 0.60911 1.6299 0
M  V30 1297 O 125.784 0.88804 1.80765 0
M  V30 1298 C 122.849 1.81995 2.95091 0
M  V30 1299 C 121.91 3.05751 3.01355 0
M  V30 1300 C 121.143 3.14702 4.31043 0
M  V30 1301 O 121.366 2.30313 5.21835 0
M  V30 1302 O 120.3 4.07468 4.43005 0
M  V30 1303 H 124.126 2.67799 1.43239 0
M  V30 1304 H 121.711 1.34711 0.646013 0
M  V30 1305 H 123.593 1.90335 3.75966 0
M  V30 1306 H 122.268 0.899659 3.10947 0
M  V30 1307 H 121.175 3.02908 2.19539 0
M  V30 1308 H 122.508 3.97375 2.90437 0
M  V30 1309 N 124.16 -0.719506 1.40217 0
M  V30 1310 C 125.07 -1.86378 1.42479 0
M  V30 1311 C 126.086 -1.71073 0.317834 0
M  V30 1312 O 127.262 -1.93406 0.561794 0
M  V30 1313 C 124.327 -3.22136 1.28178 0
M  V30 1314 C 123.388 -3.49723 2.48982 0
M  V30 1315 C 122.621 -4.79004 2.35353 0
M  V30 1316 O 122.844 -5.53821 1.36524 0
M  V30 1317 O 121.778 -5.06839 3.2465 0
M  V30 1318 H 125.604 -1.87425 2.38968 0
M  V30 1319 H 123.189 -0.869405 1.21498 0
M  V30 1320 H 125.071 -4.03234 1.22395 0
M  V30 1321 H 123.746 -3.21825 0.347934 0
M  V30 1322 H 122.653 -2.6865 2.60342 0
M  V30 1323 H 123.986 -3.54828 3.41113 0
M  V30 1324 N 125.638 -1.25649 -0.95132 0
M  V30 1325 C 126.884 -1.10757 -1.69884 0
M  V30 1326 C 127.217 0.350061 -1.91019 0
M  V30 1327 O 126.492 1.25783 -1.48354 0
M  V30 1328 C 126.775 -1.86606 -3.07978 0
M  V30 1329 C 126.628 -3.40217 -2.94232 0
M  V30 1330 C 127.947 -1.65182 -4.07925 0
M  V30 1331 H 125.066 -0.40374 -0.616574 0
M  V30 1332 H 127.708 -1.54521 -1.10558 0
M  V30 1333 H 125.858 -1.49409 -3.58621 0
M  V30 1334 H 127.53 -3.87108 -2.50889 0
M  V30 1335 H 125.773 -3.67759 -2.30078 0
M  V30 1336 H 126.444 -3.88505 -3.92133 0
M  V30 1337 H 128.92 -1.9757 -3.66204 0
M  V30 1338 H 127.796 -2.20683 -5.02583 0
M  V30 1339 H 128.057 -0.593933 -4.38092 0
M  V30 1340 N 127.117 1.15442 -1.07289 0
M  V30 1341 C 128.067 2.18164 -0.662467 0
M  V30 1342 C 129.051 1.57845 0.312074 0
M  V30 1343 O 130.243 1.76552 0.125905 0
M  V30 1344 C 127.372 3.43246 -0.0611295 0
M  V30 1345 C 126.458 4.1062 -1.06077 0
M  V30 1346 N 126.849 4.53491 -2.24008 0
M  V30 1347 C 125.147 4.36949 -0.893964 0
M  V30 1348 C 125.848 5.05731 -2.87422 0
M  V30 1349 N 124.824 4.99236 -2.15091 0
M  V30 1350 H 128.626 2.49038 -1.56068 0
M  V30 1351 H 126.14 1.32003 -0.945988 0
M  V30 1352 H 128.137 4.16145 0.250792 0
M  V30 1353 H 126.797 3.13854 0.832207 0
M  V30 1354 H 127.808 4.46898 -2.6173 0
M  V30 1355 H 124.485 4.17466 -0.0534693 0
M  V30 1356 H 125.875 5.48865 -3.87553 0
M  V30 1357 N 128.595 0.856903 1.32268 0
M  V30 1358 C 129.527 0.260412 2.27716 0
M  V30 1359 C 130.54 -0.569137 1.52528 0
M  V30 1360 O 131.729 -0.39326 1.74114 0
M  V30 1361 C 128.829 -0.650477 3.32599 0
M  V30 1362 C 128.002 0.14372 4.37164 0
M  V30 1363 C 127.061 -0.69328 5.21613 0
M  V30 1364 O 126.087 -0.12599 5.69061 0
M  V30 1365 N 127.289 -2.00761 5.44679 0
M  V30 1366 H 130.054 1.08059 2.79541 0
M  V30 1367 H 127.615 0.717103 1.45152 0
M  V30 1368 H 129.607 -1.21581 3.86005 0
M  V30 1369 H 128.177 -1.37133 2.80915 0
M  V30 1370 H 127.397 0.890486 3.8401 0
M  V30 1371 H 128.685 0.68915 5.04111 0
M  V30 1372 H 128.083 -2.49181 5.07863 0
M  V30 1373 H 126.64 -2.52103 6.01072 0
M  V30 1374 N 130.073 -1.45103 0.615059 0
M  V30 1375 C 131.321 -2.01784 0.112955 0
M  V30 1376 C 131.642 -1.48504 -1.26378 0
M  V30 1377 O 130.912 -0.682245 -1.83636 0
M  V30 1378 H 129.492 -0.745993 0.0387668 0
M  V30 1379 H 132.154 -1.77808 0.798141 0
M  V30 1380 H 131.25 -3.12025 0.0684069 0
M  V30 1381 N 131.551 -0.354651 -1.53558 0
M  V30 1382 C 132.461 0.50515 -2.29097 0
M  V30 1383 C 133.477 1.10223 -1.34636 0
M  V30 1384 O 134.653 1.11553 -1.67684 0
M  V30 1385 C 131.718 1.63479 -3.05738 0
M  V30 1386 C 130.779 1.06636 -4.15845 0
M  V30 1387 C 130.012 2.14217 -4.88822 0
M  V30 1388 O 130.235 3.35137 -4.61562 0
M  V30 1389 O 129.169 1.77887 -5.75013 0
M  V30 1390 H 132.995 -0.109237 -3.03503 0
M  V30 1391 H 130.58 -0.119357 -1.48922 0
M  V30 1392 H 132.462 2.2918 -3.5363 0
M  V30 1393 H 131.137 2.23478 -2.34178 0
M  V30 1394 H 130.044 0.373565 -3.7223 0
M  V30 1395 H 131.377 0.511081 -4.89539 0
M  V30 1396 N 133.029 1.57378 -0.0835403 0
M  V30 1397 C 134.445 1.57246 0.273109 0
M  V30 1398 C 134.645 1.09385 1.69225 0
M  V30 1399 O 133.701 0.765051 2.40631 0
M  V30 1400 C 135.014 3.00614 0.0720628 0
M  V30 1401 C 136.562 3.12684 0.1407 0
M  V30 1402 C 137.037 4.57989 -0.0322094 0
M  V30 1403 N 138.528 4.63194 0.0230085 0
M  V30 1404 C 139.263 5.73335 -0.0861941 0
M  V30 1405 N 138.759 6.9235 -0.24958 0
M  V30 1406 N 140.552 5.62093 -0.0282886 0
M  V30 1407 H 132.703 1.86801 -1.0109 0
M  V30 1408 H 134.966 0.861687 -0.395222 0
M  V30 1409 H 134.672 3.39786 -0.907662 0
M  V30 1410 H 134.546 3.68193 0.81936 0
M  V30 1411 H 136.933 2.73391 1.11092 0
M  V30 1412 H 137.014 2.47719 -0.637896 0
M  V30 1413 H 136.658 4.97973 -0.999247 0
M  V30 1414 H 136.588 5.21 0.765937 0
M  V30 1415 H 139.079 3.77613 0.14722 0
M  V30 1416 H 139.392 7.72117 -0.324733 0
M  V30 1417 H 137.737 6.94415 -0.285097 0
M  V30 1418 H 140.928 4.67997 0.0981408 0
M  V30 1419 H 141.101 6.47895 -0.116845 0
M  V30 1420 N 134.507 -0.190092 1.56449 0
M  V30 1421 C 135.44 -1.26375 1.90012 0
M  V30 1422 C 136.418 -1.43705 0.760765 0
M  V30 1423 O 137.602 -1.59014 1.01226 0
M  V30 1424 C 134.729 -2.62962 2.13468 0
M  V30 1425 C 133.775 -2.62474 3.36169 0
M  V30 1426 S 134.608 -2.13412 4.91137 0
M  V30 1427 C 135.764 -3.51812 5.17667 0
M  V30 1428 H 135.997 -0.977181 2.80782 0
M  V30 1429 H 133.53 -0.393814 1.49293 0
M  V30 1430 H 135.488 -3.41583 2.27664 0
M  V30 1431 H 134.149 -2.88828 1.23439 0
M  V30 1432 H 133.342 -3.62918 3.49723 0
M  V30 1433 H 132.944 -1.91937 3.20992 0
M  V30 1434 H 135.236 -4.47706 5.08494 0
M  V30 1435 H 136.179 -3.43148 6.19399 0
M  V30 1436 H 136.587 -3.46956 4.45288 0
M  V30 1437 N 135.985 -1.50799 -0.457987 0
M  V30 1438 C 137.233 -1.62121 -1.2067 0
M  V30 1439 C 137.554 -0.329793 -1.92191 0
M  V30 1440 O 136.824 0.653409 -1.84682 0
M  V30 1441 H 135.404 -0.597441 -0.448411 0
M  V30 1442 H 138.066 -1.87637 -0.527096 0
M  V30 1443 H 137.162 -2.43882 -1.94751 0
M  V30 1444 N 137.463 0.71206 -1.40597 0
M  V30 1445 C 138.393 1.83889 -1.43899 0
M  V30 1446 C 139.374 1.67442 -0.299504 0
M  V30 1447 O 140.559 1.87421 -0.508624 0
M  V30 1448 C 137.689 3.21877 -1.30431 0
M  V30 1449 C 136.643 3.53002 -2.42019 0
M  V30 1450 C 135.969 4.90172 -2.13626 0
M  V30 1451 C 137.269 3.53643 -3.84362 0
M  V30 1452 H 138.963 1.81383 -2.38203 0
M  V30 1453 H 136.509 0.871237 -1.14654 0
M  V30 1454 H 138.462 4.00404 -1.31357 0
M  V30 1455 H 137.186 3.24968 -0.326049 0
M  V30 1456 H 135.845 2.76818 -2.40349 0
M  V30 1457 H 135.493 4.89869 -1.14182 0
M  V30 1458 H 135.193 5.11962 -2.88389 0
M  V30 1459 H 136.717 5.71028 -2.1624 0
M  V30 1460 H 138.131 4.22203 -3.87837 0
M  V30 1461 H 136.528 3.86961 -4.58673 0
M  V30 1462 H 137.598 2.52954 -4.13693 0
M  V30 1463 N 138.941 1.26152 0.944643 0
M  V30 1464 C 140.171 1.14094 1.72239 0
M  V30 1465 C 140.579 -0.306931 1.86694 0
M  V30 1466 O 139.922 -1.22222 1.3714 0
M  V30 1467 C 139.984 1.73316 3.14963 0
M  V30 1468 C 139.648 3.2239 3.23904 0
M  V30 1469 C 140.645 4.19252 3.07447 0
M  V30 1470 C 138.33 3.62788 3.47405 0
M  V30 1471 C 140.324 5.54491 3.14353 0
M  V30 1472 C 138.011 4.98162 3.53947 0
M  V30 1473 C 139.009 5.93823 3.37436 0
M  V30 1474 O 138.697 7.26732 3.43679 0
M  V30 1475 H 138.429 0.398292 0.546205 0
M  V30 1476 H 140.983 1.67201 1.19301 0
M  V30 1477 H 139.213 1.14667 3.69308 0
M  V30 1478 H 140.902 1.56214 3.74636 0
M  V30 1479 H 141.668 3.8938 2.8915 0
M  V30 1480 H 137.547 2.88816 3.59313 0
M  V30 1481 H 141.091 6.29137 3.01384 0
M  V30 1482 H 136.988 5.27695 3.71763 0
M  V30 1483 H 137.756 7.3496 3.60245 0
M  V30 1484 N 140.419 -1.14872 1.07899 0
M  V30 1485 C 141.665 -1.86064 0.806725 0
M  V30 1486 C 141.998 -1.82434 -0.665706 0
M  V30 1487 O 141.273 -1.25138 -1.48899 0
M  V30 1488 C 141.556 -3.34929 1.32267 0
M  V30 1489 C 141.409 -3.47161 2.86006 0
M  V30 1490 C 142.728 -4.29863 0.943717 0
M  V30 1491 H 139.847 -0.675591 0.294526 0
M  V30 1492 H 142.489 -1.34925 1.33773 0
M  V30 1493 H 140.639 -3.78611 0.870974 0
M  V30 1494 H 142.311 -3.12302 3.39507 0
M  V30 1495 H 140.554 -2.88539 3.23925 0
M  V30 1496 H 141.225 -4.51777 3.17177 0
M  V30 1497 H 143.701 -3.9417 1.33302 0
M  V30 1498 H 142.577 -5.32494 1.33198 0
M  V30 1499 H 142.838 -4.41846 -0.149796 0
M  V30 1500 N 141.898 -0.863906 -1.31812 0
M  V30 1501 C 143.175 -0.39275 -1.91616 0
M  V30 1502 C 143.555 1.12461 -1.7865 0
M  V30 1503 O 142.903 1.95045 -1.19037 0
M  V30 1504 C 143.113 -0.867385 -3.38049 0
M  V30 1505 C 144.461 -0.889966 -4.15168 0
M  V30 1506 O 145.485 -0.812635 -3.46806 0
M  V30 1507 O 144.344 -1.00079 -5.37258 0
M  V30 1508 H 141.438 -0.116358 -0.818773 0
M  V30 1509 H 143.984 -0.951418 -1.40521 0
M  V30 1510 H 142.756 -1.91081 -3.41473 0
M  V30 1511 H 142.379 -0.286687 -3.96565 0
M  V30 1512 N 143.376 1.44774 -0.622745 0
M  V30 1513 C 144.286 2.34433 0.0886031 0
M  V30 1514 C 145.302 1.52131 0.844529 0
M  V30 1515 O 146.478 1.84886 0.798691 0
M  V30 1516 C 143.543 3.29986 1.0635 0
M  V30 1517 C 142.604 4.28195 0.307873 0
M  V30 1518 C 141.837 5.19183 1.23633 0
M  V30 1519 O 142.06 5.13918 2.47476 0
M  V30 1520 O 140.994 5.97515 0.725189 0
M  V30 1521 H 144.82 2.96693 -0.648599 0
M  V30 1522 H 142.405 1.44408 -0.382957 0
M  V30 1523 H 144.287 3.88825 1.6246 0
M  V30 1524 H 142.962 2.70269 1.78146 0
M  V30 1525 H 141.869 3.72927 -0.296064 0
M  V30 1526 H 143.202 4.90808 -0.3699 0
M  V30 1527 N 144.854 0.36279 1.53368 0
M  V30 1528 C 145.817 -0.472679 2.24273 0
M  V30 1529 C 146.817 -1.012 1.24961 0
M  V30 1530 O 148.007 -0.898194 1.49259 0
M  V30 1531 C 145.139 -1.66039 2.97731 0
M  V30 1532 H 146.332 0.14773 2.99536 0
M  V30 1533 H 143.885 0.114434 1.55881 0
M  V30 1534 H 144.62 -2.31896 2.26704 0
M  V30 1535 H 144.405 -1.28066 3.70596 0
M  V30 1536 H 145.895 -2.25252 3.51641 0
M  V30 1537 N 146.332 -1.57332 0.0918853 0
M  V30 1538 C 147.58 -1.93853 -0.571446 0
M  V30 1539 C 147.901 -0.974212 -1.6892 0
M  V30 1540 O 147.171 -0.0257254 -1.95883 0
M  V30 1541 H 145.751 -0.715666 -0.214082 0
M  V30 1542 H 148.413 -1.94287 0.154464 0
M  V30 1543 H 147.509 -2.96191 -0.983729 0
M  V30 1544 N 147.81 0.181792 -1.56548 0
M  V30 1545 C 148.72 1.24538 -1.98815 0
M  V30 1546 C 149.736 1.49045 -0.897861 0
M  V30 1547 O 150.912 1.61399 -1.20467 0
M  V30 1548 C 147.977 2.56683 -2.33055 0
M  V30 1549 C 147.038 2.40131 -3.55859 0
M  V30 1550 C 146.271 3.65975 -3.88456 0
M  V30 1551 O 146.494 4.70711 -3.22161 0
M  V30 1552 O 145.428 3.6071 -4.81842 0
M  V30 1553 H 149.254 0.916647 -2.89536 0
M  V30 1554 H 146.839 0.387842 -1.44278 0
M  V30 1555 H 148.721 3.34655 -2.56094 0
M  V30 1556 H 147.396 2.89157 -1.45498 0
M  V30 1557 H 146.303 1.60226 -3.38051 0
M  V30 1558 H 147.636 2.12585 -4.43924 0
M  V30 1559 N 149.288 1.51039 0.449983 0
M  V30 1560 C 150.238 1.67824 1.54335 0
M  V30 1561 C 151.222 0.5324 1.51836 0
M  V30 1562 O 152.414 0.787762 1.58503 0
M  V30 1563 C 149.543 1.7951 2.92628 0
M  V30 1564 C 148.629 2.99838 2.9993 0
M  V30 1565 N 149.02 4.23207 2.77001 0
M  V30 1566 C 147.318 2.98832 3.31082 0
M  V30 1567 C 148.019 5.04361 2.89818 0
M  V30 1568 N 146.995 4.38746 3.2094 0
M  V30 1569 H 150.797 2.60884 1.35339 0
M  V30 1570 H 148.311 1.48513 0.657085 0
M  V30 1571 H 150.308 1.89642 3.7127 0
M  V30 1572 H 148.968 0.876227 3.12654 0
M  V30 1573 H 149.979 4.5236 2.52172 0
M  V30 1574 H 146.656 2.16527 3.56963 0
M  V30 1575 H 148.046 6.12528 2.76151 0
M  V30 1576 N 150.766 -0.704594 1.40972 0
M  V30 1577 C 151.729 -1.80035 1.41845 0
M  V30 1578 C 152.729 -1.57774 0.310474 0
M  V30 1579 O 153.919 -1.64613 0.56992 0
M  V30 1580 C 151.051 -3.18284 1.22098 0
M  V30 1581 H 152.244 -1.80658 2.3938 0
M  V30 1582 H 149.797 -0.911329 1.26982 0
M  V30 1583 H 150.532 -3.23306 0.253672 0
M  V30 1584 H 150.317 -3.35843 2.02366 0
M  V30 1585 H 151.807 -3.98289 1.25522 0
M  V30 1586 N 152.244 -1.26651 -0.937939 0
M  V30 1587 C 153.174 -1.10993 -2.05433 0
M  V30 1588 C 154.155 -0.0142161 -1.70094 0
M  V30 1589 O 155.34 -0.186837 -1.93299 0
M  V30 1590 C 152.47 -0.745561 -3.39203 0
M  V30 1591 C 151.424 -1.79337 -3.88616 0
M  V30 1592 C 150.75 -1.28324 -5.19073 0
M  V30 1593 C 152.05 -3.19553 -4.13138 0
M  V30 1594 H 153.744 -2.0438 -2.1879 0
M  V30 1595 H 151.29 -0.984041 -1.05131 0
M  V30 1596 H 153.243 -0.622888 -4.16771 0
M  V30 1597 H 151.967 0.22401 -3.25831 0
M  V30 1598 H 150.626 -1.90477 -3.13231 0
M  V30 1599 H 150.274 -0.303414 -5.02084 0
M  V30 1600 H 149.974 -1.98369 -5.53103 0
M  V30 1601 H 151.498 -1.1733 -5.99221 0
M  V30 1602 H 152.912 -3.11471 -4.81309 0
M  V30 1603 H 151.309 -3.87218 -4.58457 0
M  V30 1604 H 152.379 -3.65368 -3.18801 0
M  V30 1605 N 153.722 1.14298 -1.08507 0
M  V30 1606 C 154.652 2.21542 -0.737646 0
M  V30 1607 C 155.633 1.67773 0.280377 0
M  V30 1608 O 156.818 1.93616 0.150521 0
M  V30 1609 C 153.948 3.46988 -0.147259 0
M  V30 1610 C 152.902 4.13789 -1.09374 0
M  V30 1611 C 152.228 5.33449 -0.365524 0
M  V30 1612 C 153.528 4.62208 -2.4323 0
M  V30 1613 H 155.222 2.5086 -1.6343 0
M  V30 1614 H 152.768 1.20576 -0.787243 0
M  V30 1615 H 154.721 4.21262 0.107808 0
M  V30 1616 H 153.445 3.17037 0.784538 0
M  V30 1617 H 152.104 3.4147 -1.33393 0
M  V30 1618 H 151.752 4.99759 0.57011 0
M  V30 1619 H 151.452 5.79088 -0.996512 0
M  V30 1620 H 152.976 6.10485 -0.118534 0
M  V30 1621 H 154.39 5.27952 -2.23472 0
M  V30 1622 H 152.787 5.18553 -3.02031 0
M  V30 1623 H 153.857 3.77224 -3.04681 0
M  V30 1624 N 155.201 0.870884 1.31352 0
M  V30 1625 C 156.447 0.482987 1.96965 0
M  V30 1626 C 156.78 -0.962462 1.68672 0
M  V30 1627 O 156.055 -1.6779 0.98371 0
M  V30 1628 C 156.338 0.741752 3.52378 0
M  V30 1629 C 156.191 2.2368 3.9024 0
M  V30 1630 C 157.51 0.208838 4.39604 0
M  V30 1631 H 154.629 0.176955 0.715441 0
M  V30 1632 H 157.271 1.09229 1.55464 0
M  V30 1633 H 155.421 0.223149 3.87859 0
M  V30 1634 H 157.093 2.82273 3.64856 0
M  V30 1635 H 155.336 2.70901 3.38814 0
M  V30 1636 H 156.007 2.3685 4.98604 0
M  V30 1637 H 158.483 0.652529 4.10952 0
M  V30 1638 H 157.359 0.419336 5.47296 0
M  V30 1639 H 157.62 -0.889275 4.33064 0
M  V30 1640 N 156.679 -1.44442 0.630414 0
M  V30 1641 C 157.609 -2.33418 -0.0618083 0
M  V30 1642 C 158.59 -1.48165 -0.835541 0
M  V30 1643 O 159.775 -1.76886 -0.801564 0
M  V30 1644 C 156.905 -3.31222 -1.04449 0
M  V30 1645 C 155.859 -4.26288 -0.382436 0
M  V30 1646 C 155.185 -5.13954 -1.47497 0
M  V30 1647 C 156.485 -5.1744 0.710865 0
M  V30 1648 H 158.179 -2.91548 0.681184 0
M  V30 1649 H 155.725 -1.40191 0.329026 0
M  V30 1650 H 157.678 -3.92351 -1.53748 0
M  V30 1651 H 156.402 -2.71299 -1.81836 0
M  V30 1652 H 155.061 -3.6649 0.0899054 0
M  V30 1653 H 154.709 -4.50385 -2.2397 0
M  V30 1654 H 154.409 -5.7837 -1.03737 0
M  V30 1655 H 155.933 -5.77955 -1.96979 0
M  V30 1656 H 157.347 -5.72509 0.300996 0
M  V30 1657 H 155.744 -5.90455 1.07156 0
M  V30 1658 H 156.814 -4.58496 1.57829 0
M  V30 1659 N 158.157 -0.370918 -1.53173 0
M  V30 1660 C 159.403 0.217423 -2.01631 0
M  V30 1661 C 159.736 1.47983 -1.25756 0
M  V30 1662 O 159.011 1.91274 -0.352764 0
M  V30 1663 C 159.294 0.503982 -3.56556 0
M  V30 1664 C 159.147 -0.77243 -4.43118 0
M  V30 1665 C 160.466 1.30234 -4.20389 0
M  V30 1666 H 157.585 0.0775486 -0.732909 0
M  V30 1667 H 160.227 -0.496863 -1.83388 0
M  V30 1668 H 158.377 1.11248 -3.72231 0
M  V30 1669 H 160.049 -1.4098 -4.39229 0
M  V30 1670 H 158.292 -1.39167 -4.10871 0
M  V30 1671 H 158.963 -0.526815 -5.4948 0
M  V30 1672 H 161.439 0.787546 -4.08579 0
M  V30 1673 H 160.315 1.47158 -5.28806 0
M  V30 1674 H 160.576 2.31237 -3.76805 0
M  V30 1675 N 159.635 1.57281 -0.100228 0
M  V30 1676 C 160.882 1.94537 0.562268 0
M  V30 1677 C 161.21 0.982315 1.67871 0
M  V30 1678 O 160.465 0.00280936 1.957 0
M  V30 1679 C 160.764 3.38305 1.15259 0
M  V30 1680 C 160.43 4.50618 0.159409 0
M  V30 1681 C 159.092 4.81066 -0.113741 0
M  V30 1682 C 161.444 5.18615 -0.518461 0
M  V30 1683 C 158.772 5.76835 -1.07137 0
M  V30 1684 C 161.124 6.15412 -1.46459 0
M  V30 1685 C 159.788 6.44262 -1.74592 0
M  V30 1686 H 159.058 0.711863 0.205748 0
M  V30 1687 H 161.705 1.90679 -0.17715 0
M  V30 1688 H 160.01 3.38766 1.96836 0
M  V30 1689 H 161.707 3.64435 1.67297 0
M  V30 1690 H 158.297 4.2689 0.382491 0
M  V30 1691 H 162.481 4.95264 -0.320581 0
M  V30 1692 H 157.737 5.975 -1.29628 0
M  V30 1693 H 161.911 6.67194 -1.99564 0
M  V30 1694 H 159.538 7.1828 -2.48953 0
M  V30 1695 N 161.113 -0.173488 1.56642 0
M  V30 1696 C 162.39 -0.917617 1.7274 0
M  V30 1697 C 162.77 -2.00484 0.661027 0
M  V30 1698 O 162.118 -2.26184 -0.32453 0
M  V30 1699 C 162.328 -1.48433 3.15862 0
M  V30 1700 C 163.676 -1.95809 3.76754 0
M  V30 1701 O 164.7 -1.58231 3.19126 0
M  V30 1702 O 163.559 -2.65024 4.77938 0
M  V30 1703 H 160.653 -0.431772 0.705338 0
M  V30 1704 H 163.199 -0.161487 1.6893 0
M  V30 1705 H 161.971 -0.701715 3.84957 0
M  V30 1706 H 161.594 -2.30471 3.23989 0
M  V30 1707 N 162.591 -1.51276 -0.441967 0
M  V30 1708 C 163.501 -1.75092 -1.56141 0
M  V30 1709 C 164.517 -0.634963 -1.62001 0
M  V30 1710 O 165.693 -0.916686 -1.79329 0
M  V30 1711 C 162.758 -1.86666 -2.92158 0
M  V30 1712 C 161.819 -3.10506 -2.96453 0
M  V30 1713 C 161.052 -3.21519 -4.25982 0
M  V30 1714 O 161.275 -2.38586 -5.18105 0
M  V30 1715 O 160.209 -4.14465 -4.36466 0
M  V30 1716 H 164.035 -2.70044 -1.38961 0
M  V30 1717 H 161.62 -1.35722 -0.624499 0
M  V30 1718 H 163.502 -1.96292 -3.72891 0
M  V30 1719 H 162.177 -0.949014 -3.09476 0
M  V30 1720 H 161.084 -3.06363 -2.14692 0
M  V30 1721 H 162.417 -4.01945 -2.84079 0
M  V30 1722 N 164.069 0.697108 -1.41344 0
M  V30 1723 C 165.297 1.48593 -1.43972 0
M  V30 1724 C 165.712 1.88747 -0.0445612 0
M  V30 1725 O 165.069 1.56682 0.935785 0
M  V30 1726 C 165.12 2.74946 -2.34706 0
M  V30 1727 O 164.841 2.36484 -3.68791 0
M  V30 1728 C 166.342 3.687 -2.46121 0
M  V30 1729 H 163.562 0.457964 -0.490418 0
M  V30 1730 H 166.106 0.858429 -1.8561 0
M  V30 1731 H 164.261 3.33937 -1.9638 0
M  V30 1732 H 164.675 3.17918 -4.17167 0
M  V30 1733 H 166.149 4.54145 -3.13777 0
M  V30 1734 H 166.626 4.13081 -1.49199 0
M  V30 1735 H 167.232 3.15613 -2.85076 0
M  V30 1736 N 165.547 1.27147 0.931209 0
M  V30 1737 C 166.51 1.09615 2.01289 0
M  V30 1738 C 167.51 0.0412581 1.60747 0
M  V30 1739 O 168.7 0.285545 1.71844 0
M  V30 1740 C 165.832 0.669447 3.34262 0
M  V30 1741 H 167.025 2.05662 2.18273 0
M  V30 1742 H 164.578 1.09885 1.11153 0
M  V30 1743 H 165.313 -0.292572 3.22978 0
M  V30 1744 H 165.098 1.43127 3.65044 0
M  V30 1745 H 166.588 0.568921 4.13706 0
M  V30 1746 N 167.025 -1.13721 1.09112 0
M  V30 1747 C 168.436 -1.6648 0.845068 0
M  V30 1748 C 168.787 -1.85911 -0.62701 0
M  V30 1749 O 167.912 -1.57556 -1.48341 0
M  V30 1750 C 168.507 -3.02413 1.52748 0
M  V30 1751 C 167.066 -3.52176 1.32849 0
M  V30 1752 C 166.213 -2.27492 1.58564 0
M  V30 1753 H 169.164 -0.976872 1.25072 0
M  V30 1754 H 169.185 -3.68223 0.958752 0
M  V30 1755 H 168.697 -2.88238 2.59885 0
M  V30 1756 H 166.798 -3.7156 0.278137 0
M  V30 1757 H 166.911 -4.32499 2.0611 0
M  V30 1758 H 165.275 -2.33923 1.00758 0
M  V30 1759 H 166.058 -2.15886 2.66924 0
M  V30 1760 N 168.503 -0.877838 -1.30888 0
M  V30 1761 C 169.433 -0.35534 -2.3078 0
M  V30 1762 C 170.414 0.557994 -1.60687 0
M  V30 1763 O 171.599 0.473355 -1.88343 0
M  V30 1764 C 168.729 0.437221 -3.44537 0
M  V30 1765 C 167.683 -0.383715 -4.26276 0
M  V30 1766 C 167.009 0.535014 -5.32017 0
M  V30 1767 C 168.309 -1.62201 -4.96476 0
M  V30 1768 H 170.003 -1.19007 -2.74732 0
M  V30 1769 H 167.549 -0.573698 -1.32078 0
M  V30 1770 H 169.502 0.813334 -4.13477 0
M  V30 1771 H 168.226 1.30553 -2.99372 0
M  V30 1772 H 166.885 -0.741874 -3.59015 0
M  V30 1773 H 166.533 1.40083 -4.831 0
M  V30 1774 H 166.233 -0.0104211 -5.87599 0
M  V30 1775 H 167.757 0.907799 -6.03814 0
M  V30 1776 H 169.171 -1.31689 -5.5797 0
M  V30 1777 H 167.568 -2.10711 -5.61891 0
M  V30 1778 H 168.638 -2.37044 -4.23011 0
M  V30 1779 N 169.982 1.44106 -0.638065 0
M  V30 1780 C 171.23 2.01579 -0.145043 0
M  V30 1781 C 171.551 1.50496 1.24 0
M  V30 1782 O 170.821 0.711374 1.82527 0
M  V30 1783 H 169.401 0.745282 -0.05063 0
M  V30 1784 H 172.063 1.76516 -0.826327 0
M  V30 1785 H 171.159 3.11877 -0.118039 0
M  V30 1786 N 171.46 0.379036 1.52974 0
M  V30 1787 C 172.407 -0.461048 2.26148 0
M  V30 1788 C 173.377 -1.06637 1.27349 0
M  V30 1789 O 174.562 -1.09633 1.56157 0
M  V30 1790 C 171.702 -1.58782 3.06402 0
M  V30 1791 C 170.815 -1.00636 4.20115 0
M  V30 1792 C 169.95 -2.10334 4.87784 0
M  V30 1793 C 168.989 -1.49724 5.93506 0
M  V30 1794 N 168.126 -2.5331 6.54812 0
M  V30 1795 H 172.966 0.169429 2.97518 0
M  V30 1796 H 170.503 0.0953806 1.4679 0
M  V30 1797 H 172.461 -2.25174 3.51215 0
M  V30 1798 H 171.091 -2.18876 2.37261 0
M  V30 1799 H 170.143 -0.232332 3.7969 0
M  V30 1800 H 171.455 -0.523343 4.96047 0
M  V30 1801 H 170.609 -2.84519 5.35849 0
M  V30 1802 H 169.348 -2.61992 4.11353 0
M  V30 1803 H 168.353 -0.740598 5.44789 0
M  V30 1804 H 169.578 -0.988732 6.71864 0
M  V30 1805 H 167.524 -3.04156 5.81227 0
M  V30 1806 H 167.441 -2.09734 7.26325 0
M  V30 1807 H 168.709 -3.27155 7.07524 0
M  V30 1808 N 172.938 -1.57226 0.108567 0
M  V30 1809 C 174.184 -1.95121 -0.552761 0
M  V30 1810 C 174.517 -0.991345 -1.66991 0
M  V30 1811 O 173.792 -0.0267211 -1.94482 0
M  V30 1812 C 174.075 -3.43039 -1.09528 0
M  V30 1813 C 173.928 -4.49797 0.0177332 0
M  V30 1814 C 175.247 -3.92567 -1.98945 0
M  V30 1815 H 172.366 -0.709496 -0.199461 0
M  V30 1816 H 175.008 -1.89126 0.182011 0
M  V30 1817 H 173.158 -3.48279 -1.72146 0
M  V30 1818 H 174.83 -4.56661 0.652584 0
M  V30 1819 H 173.073 -4.284 0.682309 0
M  V30 1820 H 173.744 -5.50528 -0.402919 0
M  V30 1821 H 176.22 -3.89565 -1.46214 0
M  V30 1822 H 175.096 -4.96605 -2.33827 0
M  V30 1823 H 175.357 -3.32648 -2.91201 0
M  V30 1824 N 174.416 0.165178 -1.56732 0
M  V30 1825 C 175.363 1.2044 -1.96883 0
M  V30 1826 C 176.333 1.43664 -0.833657 0
M  V30 1827 O 177.518 1.56302 -1.09427 0
M  V30 1828 C 174.658 2.53727 -2.33916 0
M  V30 1829 C 173.771 2.3783 -3.6064 0
M  V30 1830 C 172.906 3.64026 -3.86857 0
M  V30 1831 C 171.945 3.43088 -5.06909 0
M  V30 1832 N 171.082 4.61369 -5.29229 0
M  V30 1833 H 175.922 0.854996 -2.85471 0
M  V30 1834 H 173.459 0.41076 -1.41249 0
M  V30 1835 H 175.417 3.31419 -2.53411 0
M  V30 1836 H 174.047 2.8665 -1.48431 0
M  V30 1837 H 173.099 1.51282 -3.49024 0
M  V30 1838 H 174.411 2.18308 -4.4849 0
M  V30 1839 H 173.565 4.50152 -4.06753 0
M  V30 1840 H 172.304 3.86533 -2.97394 0
M  V30 1841 H 171.309 2.55349 -4.86906 0
M  V30 1842 H 172.534 3.21997 -5.97909 0
M  V30 1843 H 170.48 4.84084 -4.42718 0
M  V30 1844 H 170.397 4.44783 -6.11313 0
M  V30 1845 H 171.665 5.48761 -5.53608 0
M  V30 1846 N 175.894 1.51508 0.433938 0
M  V30 1847 C 176.824 1.76016 1.53429 0
M  V30 1848 C 177.805 0.610112 1.58782 0
M  V30 1849 O 178.99 0.853177 1.74455 0
M  V30 1850 C 176.12 1.88831 2.9148 0
M  V30 1851 C 175.074 3.04288 3.00987 0
M  V30 1852 C 174.4 3.0229 4.4105 0
M  V30 1853 C 175.7 4.44193 2.74754 0
M  V30 1854 H 177.394 2.68152 1.33171 0
M  V30 1855 H 174.94 1.29035 0.639214 0
M  V30 1856 H 176.893 2.04559 3.6842 0
M  V30 1857 H 175.617 0.933455 3.12976 0
M  V30 1858 H 174.276 2.8827 2.26486 0
M  V30 1859 H 173.924 2.04576 4.59519 0
M  V30 1860 H 173.624 3.79822 4.4834 0
M  V30 1861 H 175.148 3.20116 5.1996 0
M  V30 1862 H 176.562 4.60544 3.41426 0
M  V30 1863 H 174.959 5.23457 2.9345 0
M  V30 1864 H 176.029 4.53996 1.70339 0
M  V30 1865 N 177.372 -0.689602 1.41712 0
M  V30 1866 C 178.322 -1.79571 1.40493 0
M  V30 1867 C 179.306 -1.58473 0.278409 0
M  V30 1868 O 180.498 -1.69204 0.519532 0
M  V30 1869 C 177.627 -3.17923 1.29536 0
M  V30 1870 C 176.713 -3.44695 2.47075 0
M  V30 1871 N 177.104 -3.42132 3.72531 0
M  V30 1872 C 175.402 -3.75269 2.41017 0
M  V30 1873 C 176.103 -3.67976 4.50521 0
M  V30 1874 N 175.079 -3.88014 3.80718 0
M  V30 1875 H 178.881 -1.75961 2.35404 0
M  V30 1876 H 176.395 -0.889839 1.35851 0
M  V30 1877 H 178.392 -3.97167 1.26745 0
M  V30 1878 H 177.052 -3.22741 0.356153 0
M  V30 1879 H 178.063 -3.22375 4.05333 0
M  V30 1880 H 174.74 -3.87421 1.55599 0
M  V30 1881 H 176.13 -3.7208 5.59469 0
M  V30 1882 N 178.85 -1.27639 -0.924453 0
M  V30 1883 C 180.098 -1.13941 -1.66918 0
M  V30 1884 C 180.419 0.314589 -1.92446 0
M  V30 1885 O 179.689 1.21964 -1.53303 0
M  V30 1886 H 178.269 -0.418678 -0.618642 0
M  V30 1887 H 180.931 -1.60213 -1.10985 0
M  V30 1888 H 180.027 -1.67094 -2.63602 0
M  V30 1889 N 180.328 1.1314 -1.09713 0
M  V30 1890 C 181.275 2.18642 -0.739196 0
M  V30 1891 C 182.245 1.63706 0.280978 0
M  V30 1892 O 183.43 1.90111 0.161946 0
M  V30 1893 C 180.57 3.44685 -0.169102 0
M  V30 1894 C 179.683 4.13711 -1.24367 0
M  V30 1895 C 178.818 5.27379 -0.636019 0
M  V30 1896 C 177.857 5.88259 -1.69169 0
M  V30 1897 N 176.994 6.93352 -1.10485 0
M  V30 1898 H 181.834 2.48607 -1.64312 0
M  V30 1899 H 179.371 1.22066 -0.820875 0
M  V30 1900 H 181.329 4.16815 0.179256 0
M  V30 1901 H 179.959 3.15161 0.698079 0
M  V30 1902 H 179.011 3.39835 -1.70927 0
M  V30 1903 H 180.323 4.55037 -2.04311 0
M  V30 1904 H 179.477 6.06238 -0.236677 0
M  V30 1905 H 178.216 4.8731 0.194928 0
M  V30 1906 H 177.221 5.08092 -2.10055 0
M  V30 1907 H 178.446 6.30399 -2.52536 0
M  V30 1908 H 176.392 6.55335 -0.295234 0
M  V30 1909 H 176.309 7.33236 -1.84121 0
M  V30 1910 H 177.577 7.76057 -0.73181 0
M  V30 1911 N 181.806 0.884767 1.30421 0
M  V30 1912 C 183.222 0.57874 1.48737 0
M  V30 1913 C 183.422 -0.883567 1.81095 0
M  V30 1914 O 182.478 -1.6648 1.89844 0
M  V30 1915 C 183.791 1.49171 2.61091 0
M  V30 1916 C 185.339 1.49532 2.74971 0
M  V30 1917 C 185.814 2.39421 3.90438 0
M  V30 1918 N 187.305 2.37383 3.97748 0
M  V30 1919 C 188.04 3.03647 4.86401 0
M  V30 1920 N 187.536 3.79136 5.79852 0
M  V30 1921 N 189.329 2.9288 4.79768 0
M  V30 1922 H 181.48 1.83075 1.0769 0
M  V30 1923 H 183.743 0.783637 0.533495 0
M  V30 1924 H 183.449 2.53291 2.44001 0
M  V30 1925 H 183.323 1.20113 3.57565 0
M  V30 1926 H 185.71 0.46163 2.91467 0
M  V30 1927 H 185.791 1.8262 1.79119 0
M  V30 1928 H 185.435 3.42874 3.74699 0
M  V30 1929 H 185.365 2.03649 4.85628 0
M  V30 1930 H 187.856 1.82525 3.30897 0
M  V30 1931 H 188.169 4.26789 6.4426 0
M  V30 1932 H 186.514 3.83243 5.79784 0
M  V30 1933 H 189.705 2.33433 4.05742 0
M  V30 1934 H 189.878 3.448 5.4865 0
M  V30 1935 N 183.284 -1.43765 0.645699 0
M  V30 1936 C 184.247 -2.29163 -0.0409488 0
M  V30 1937 C 185.247 -1.41813 -0.757996 0
M  V30 1938 O 186.437 -1.63527 -0.600382 0
M  V30 1939 C 183.569 -3.23716 -1.06869 0
M  V30 1940 H 184.762 -2.91366 0.710345 0
M  V30 1941 H 182.315 -1.5092 0.406547 0
M  V30 1942 H 183.05 -2.66393 -1.84947 0
M  V30 1943 H 182.835 -3.88105 -0.558277 0
M  V30 1944 H 184.325 -3.87831 -1.54845 0
M  V30 1945 N 184.763 -0.387143 -1.52771 0
M  V30 1946 C 185.726 0.436939 -2.24997 0
M  V30 1947 C 186.726 0.991991 -1.26555 0
M  V30 1948 O 187.916 0.874335 -1.50669 0
M  V30 1949 C 185.048 1.61281 -3.00335 0
M  V30 1950 H 186.241 -0.195365 -2.99263 0
M  V30 1951 H 183.794 -0.139218 -1.55679 0
M  V30 1952 H 184.529 2.2826 -2.30364 0
M  V30 1953 H 184.314 1.22154 -3.72587 0
M  V30 1954 H 185.804 2.19629 -3.5518 0
M  V30 1955 N 186.241 1.57166 -0.116904 0
M  V30 1956 C 187.151 2.18745 0.847812 0
M  V30 1957 C 188.167 1.163 1.29423 0
M  V30 1958 O 189.343 1.48761 1.35765 0
M  V30 1959 C 186.408 2.77307 2.0809 0
M  V30 1960 C 185.469 3.94781 1.68661 0
M  V30 1961 C 184.702 4.50541 2.86091 0
M  V30 1962 O 184.925 4.05202 4.01456 0
M  V30 1963 O 183.859 5.41256 2.63298 0
M  V30 1964 H 187.685 3.01632 0.353778 0
M  V30 1965 H 185.27 1.49005 0.108599 0
M  V30 1966 H 187.152 3.14647 2.80313 0
M  V30 1967 H 185.827 1.97452 2.56504 0
M  V30 1968 H 184.734 3.62214 0.935518 0
M  V30 1969 H 186.067 4.76065 1.24991 0
M  V30 1970 N 187.719 -0.156864 1.56817 0
M  V30 1971 C 188.682 -1.17781 1.96622 0
M  V30 1972 C 189.682 -1.36401 0.851555 0
M  V30 1973 O 190.872 -1.33561 1.11836 0
M  V30 1974 C 188.004 -2.54008 2.27361 0
M  V30 1975 H 189.197 -0.836564 2.87996 0
M  V30 1976 H 186.75 -0.39985 1.51099 0
M  V30 1977 H 187.485 -2.9312 1.38748 0
M  V30 1978 H 187.27 -2.41856 3.08623 0
M  V30 1979 H 188.76 -3.27558 2.59029 0
M  V30 1980 N 189.197 -1.51736 -0.425897 0
M  V30 1981 C 190.127 -1.76827 -1.52494 0
M  V30 1982 C 191.108 -0.618524 -1.58456 0
M  V30 1983 O 192.293 -0.862416 -1.74 0
M  V30 1984 C 189.423 -1.90374 -2.90474 0
M  V30 1985 C 188.377 -3.0588 -2.99369 0
M  V30 1986 C 187.703 -3.04625 -4.3944 0
M  V30 1987 C 189.003 -4.45644 -2.72394 0
M  V30 1988 H 190.697 -2.68855 -1.31748 0
M  V30 1989 H 188.243 -1.29372 -0.632362 0
M  V30 1990 H 190.196 -2.0651 -3.6733 0
M  V30 1991 H 188.92 -0.95004 -3.12477 0
M  V30 1992 H 187.579 -2.89467 -2.24954 0
M  V30 1993 H 187.227 -2.0701 -4.58428 0
M  V30 1994 H 186.927 -3.82195 -4.46319 0
M  V30 1995 H 188.451 -3.22869 -5.18255 0
M  V30 1996 H 189.865 -4.62348 -3.38979 0
M  V30 1997 H 188.262 -5.25006 -2.9067 0
M  V30 1998 H 189.332 -4.54893 -1.67929 0
M  V30 1999 N 190.675 0.682077 -1.42076 0
M  V30 2000 C 191.638 1.77756 -1.44691 0
M  V30 2001 C 192.638 1.5726 -0.335535 0
M  V30 2002 O 193.828 1.63686 -0.596037 0
M  V30 2003 C 190.96 3.16301 -1.27146 0
M  V30 2004 H 192.153 1.76826 -2.42224 0
M  V30 2005 H 189.706 0.891012 -1.28416 0
M  V30 2006 H 190.441 3.22862 -0.305075 0
M  V30 2007 H 190.226 3.32581 -2.07683 0
M  V30 2008 H 191.716 3.96241 -1.31843 0
M  V30 2009 N 192.153 1.28127 0.917671 0
M  V30 2010 C 193.569 1.05749 1.19538 0
M  V30 2011 C 193.769 -0.202633 2.00479 0
M  V30 2012 O 192.825 -0.905382 2.3571 0
M  V30 2013 C 194.138 2.30273 1.93378 0
M  V30 2014 C 195.686 2.35412 2.06277 0
M  V30 2015 C 196.161 3.59692 2.83524 0
M  V30 2016 N 197.652 3.60309 2.91087 0
M  V30 2017 C 198.387 4.53147 3.51348 0
M  V30 2018 N 197.883 5.563 4.12919 0
M  V30 2019 N 199.676 4.40751 3.48849 0
M  V30 2020 H 191.827 2.09024 0.377184 0
M  V30 2021 H 194.09 0.919798 0.22951 0
M  V30 2022 H 193.796 3.22055 1.41328 0
M  V30 2023 H 193.67 2.36378 2.93947 0
M  V30 2024 H 196.057 1.4413 2.57508 0
M  V30 2025 H 196.138 2.33304 1.04895 0
M  V30 2026 H 195.782 4.51316 2.32973 0
M  V30 2027 H 195.712 3.59054 3.85211 0
M  V30 2028 H 198.203 2.85714 2.47338 0
M  V30 2029 H 198.516 6.2329 4.56869 0
M  V30 2030 H 196.861 5.60131 4.11435 0
M  V30 2031 H 200.052 3.59367 2.99955 0
M  V30 2032 H 200.225 5.13291 3.9552 0
M  V30 2033 N 193.631 -1.12557 1.10312 0
M  V30 2034 C 194.88 -1.83395 0.839588 0
M  V30 2035 C 195.193 -1.84939 -0.636929 0
M  V30 2036 O 196.399 -2.51761 -1.01631 0
M  V30 2037 C 194.855 -3.29303 1.45215 0
M  V30 2038 C 194.463 -3.36122 2.96186 0
M  V30 2039 C 196.207 -4.05121 1.26796 0
M  V30 2040 C 194.114 -4.76357 3.50483 0
M  V30 2041 H 193.044 -0.687133 0.310425 0
M  V30 2042 H 195.695 -1.26746 1.32694 0
M  V30 2043 H 194.077 -3.85812 0.892469 0
M  V30 2044 H 195.251 -2.89559 3.58458 0
M  V30 2045 H 193.566 -2.73776 3.13745 0
M  V30 2046 H 196.163 -5.08668 1.64806 0
M  V30 2047 H 196.506 -4.15773 0.209409 0
M  V30 2048 H 197.039 -3.54967 1.79563 0
M  V30 2049 H 193.778 -4.70899 4.55998 0
M  V30 2050 H 193.298 -5.23377 2.92978 0
M  V30 2051 H 194.977 -5.45294 3.48228 0
M  V30 2052 N 195.109 -0.891671 -1.2995 0
M  V30 2053 C 196.072 -0.36828 -2.26222 0
M  V30 2054 C 197.072 0.493014 -1.53056 0
M  V30 2055 O 198.262 0.299213 -1.71611 0
M  V30 2056 C 195.394 0.47442 -3.37583 0
M  V30 2057 H 196.587 -1.21844 -2.74033 0
M  V30 2058 H 194.14 -0.669107 -1.41254 0
M  V30 2059 H 194.875 1.34489 -2.95099 0
M  V30 2060 H 194.66 -0.142615 -3.91841 0
M  V30 2061 H 196.15 0.83218 -4.09224 0
M  V30 2062 N 196.587 1.43421 -0.653314 0
M  V30 2063 C 197.497 2.34568 0.0388565 0
M  V30 2064 C 198.513 1.53888 0.81207 0
M  V30 2065 O 199.689 1.86539 0.759294 0
M  V30 2066 C 196.754 3.32167 0.993269 0
M  V30 2067 C 195.815 4.28751 0.216977 0
M  V30 2068 C 195.048 5.21688 1.12593 0
M  V30 2069 O 195.271 5.19052 2.36519 0
M  V30 2070 O 194.205 5.98919 0.598284 0
M  V30 2071 H 198.031 2.95251 -0.711386 0
M  V30 2072 H 195.616 1.43564 -0.413502 0
M  V30 2073 H 197.498 3.92183 1.54176 0
M  V30 2074 H 196.173 2.73987 1.72374 0
M  V30 2075 H 195.08 3.72215 -0.375101 0
M  V30 2076 H 196.413 4.89913 -0.473924 0
M  V30 2077 N 198.065 0.39524 1.52563 0
M  V30 2078 C 198.975 -0.444232 2.30356 0
M  V30 2079 C 199.991 -1.06615 1.37511 0
M  V30 2080 O 201.167 -1.07067 1.70583 0
M  V30 2081 C 198.232 -1.55315 3.09964 0
M  V30 2082 C 197.293 -0.955734 4.18526 0
M  V30 2083 C 196.526 -2.01181 4.9433 0
M  V30 2084 O 196.749 -3.22781 4.70285 0
M  V30 2085 O 195.683 -1.62579 5.79527 0
M  V30 2086 H 199.509 0.189667 3.03107 0
M  V30 2087 H 197.094 0.1588 1.48554 0
M  V30 2088 H 198.976 -2.19724 3.59582 0
M  V30 2089 H 197.651 -2.17191 2.4002 0
M  V30 2090 H 196.558 -0.274743 3.7309 0
M  V30 2091 H 197.891 -0.381109 4.90722 0
M  V30 2092 N 199.544 -1.57102 0.125237 0
M  V30 2093 C 200.507 -2.14471 -0.80838 0
M  V30 2094 C 201.507 -1.0811 -1.19033 0
M  V30 2095 O 202.697 -1.33856 -1.11482 0
M  V30 2096 C 199.829 -2.69005 -2.09402 0
M  V30 2097 H 201.022 -2.98297 -0.309696 0
M  V30 2098 H 198.575 -1.55807 -0.124051 0
M  V30 2099 H 199.31 -1.88785 -2.63687 0
M  V30 2100 H 199.095 -3.46799 -1.82957 0
M  V30 2101 H 200.585 -3.13278 -2.76128 0
M  V30 2102 N 201.022 0.148545 -1.56898 0
M  V30 2103 C 201.952 1.18524 -2.01182 0
M  V30 2104 C 202.933 1.4489 -0.891123 0
M  V30 2105 O 204.118 1.55836 -1.15882 0
M  V30 2106 C 201.248 2.51879 -2.39112 0
M  V30 2107 C 200.202 2.40038 -3.54353 0
M  V30 2108 C 199.528 3.78089 -3.78091 0
M  V30 2109 C 200.828 1.88577 -4.87069 0
M  V30 2110 H 202.522 0.817029 -2.88036 0
M  V30 2111 H 200.068 0.391575 -1.38574 0
M  V30 2112 H 202.021 3.24627 -2.68692 0
M  V30 2113 H 200.745 2.90532 -1.49193 0
M  V30 2114 H 199.404 1.69742 -3.24936 0
M  V30 2115 H 199.052 4.14175 -2.85426 0
M  V30 2116 H 198.752 3.71028 -4.55645 0
M  V30 2117 H 200.276 4.52387 -4.10095 0
M  V30 2118 H 201.69 2.51117 -5.15377 0
M  V30 2119 H 200.087 1.9241 -5.68417 0
M  V30 2120 H 201.157 0.84136 -4.77545 0
M  V30 2121 N 202.5 1.5196 0.417844 0
M  V30 2122 C 203.463 1.74065 1.49111 0
M  V30 2123 C 204.463 0.610537 1.48758 0
M  V30 2124 O 205.653 0.87832 1.50437 0
M  V30 2125 C 202.785 1.81502 2.88565 0
M  V30 2126 H 203.978 2.69869 1.30807 0
M  V30 2127 H 201.531 1.42244 0.647785 0
M  V30 2128 H 202.266 0.875813 3.1225 0
M  V30 2129 H 202.051 2.63651 2.90225 0
M  V30 2130 H 203.541 2.00376 3.66387 0
M  V30 2131 N 203.978 -0.674533 1.42435 0
M  V30 2132 C 204.926 -1.80934 1.46169 0
M  V30 2133 C 205.92 -1.66006 0.3374 0
M  V30 2134 O 207.126 -1.72611 0.510425 0
M  V30 2135 H 203.501 -0.596594 0.457798 0
M  V30 2136 H 205.472 -1.74903 2.41767 0
M  V30 2137 C 204.221 -3.19088 1.38123 0
M  V30 2138 H 203.544 -3.31203 2.23931 0
M  V30 2139 H 204.984 -3.9851 1.44797 0
M  V30 2140 C 203.443 -3.36763 0.0960517 0
M  V30 2141 O 203.973 -3.92581 -0.851073 0
M  V30 2142 N 202.179 -2.90597 0.0131186 0
M  V30 2143 H 201.726 -2.45359 0.784639 0
M  V30 2144 H 201.684 -3.028 -0.846133 0
M  V30 2145 N 205.456 -1.28612 -0.910864 0
M  V30 2146 C 206.867 -1.14406 -1.47541 0
M  V30 2147 C 207.218 0.264901 -1.94403 0
M  V30 2148 O 206.343 1.15942 -1.82719 0
M  V30 2149 C 206.938 -2.07073 -2.68153 0
M  V30 2150 C 205.497 -1.96923 -3.20778 0
M  V30 2151 C 204.644 -1.98646 -1.93481 0
M  V30 2152 H 207.595 -1.41259 -0.723291 0
M  V30 2153 H 207.616 -1.63642 -3.43514 0
M  V30 2154 H 207.128 -3.09611 -2.34015 0
M  V30 2155 H 205.229 -0.97433 -3.59635 0
M  V30 2156 H 205.342 -2.84026 -3.85832 0
M  V30 2157 H 203.706 -1.43093 -2.10705 0
M  V30 2158 H 204.489 -3.02868 -1.61634 0
M  V30 2159 N 206.934 1.1197 -1.10907 0
M  V30 2160 C 208.345 1.65114 -0.871446 0
M  V30 2161 C 208.696 1.86885 0.597353 0
M  V30 2162 O 207.821 1.59896 1.45816 0
M  V30 2163 C 208.416 2.99944 -1.5754 0
M  V30 2164 C 206.975 3.50018 -1.38435 0
M  V30 2165 C 206.122 2.24941 -1.62164 0
M  V30 2166 H 209.073 0.956851 -1.2661 0
M  V30 2167 H 209.094 3.66651 -1.01721 0
M  V30 2168 H 208.606 2.84067 -2.64438 0
M  V30 2169 H 206.707 3.71071 -0.337214 0
M  V30 2170 H 206.82 4.29165 -2.12965 0
M  V30 2171 H 205.184 2.3229 -1.04467 0
M  V30 2172 H 205.967 2.11612 -2.70324 0
M  V30 2173 N 208.412 0.89855 1.29475 0
M  V30 2174 C 209.828 0.594483 1.48115 0
M  V30 2175 C 210.028 -0.86431 1.82022 0
M  V30 2176 O 209.084 -1.64457 1.91599 0
M  V30 2177 C 210.397 1.51932 2.59494 0
M  V30 2178 C 211.945 1.5244 2.7337 0
M  V30 2179 C 212.42 2.43548 3.87877 0
M  V30 2180 N 213.911 2.41589 3.95208 0
M  V30 2181 C 214.646 3.08789 4.83153 0
M  V30 2182 N 214.142 3.85265 5.75798 0
M  V30 2183 N 215.935 2.97952 4.76635 0
M  V30 2184 H 208.086 1.84207 1.05742 0
M  V30 2185 H 210.349 0.789251 0.525154 0
M  V30 2186 H 210.055 2.55865 2.41301 0
M  V30 2187 H 209.929 1.23899 3.56271 0
M  V30 2188 H 212.316 0.492518 2.90961 0
M  V30 2189 H 212.397 1.8451 1.77172 0
M  V30 2190 H 212.041 3.46829 3.71041 0
M  V30 2191 H 211.971 2.08788 4.83441 0
M  V30 2192 H 214.462 1.86025 3.28943 0
M  V30 2193 H 214.775 4.33598 6.39697 0
M  V30 2194 H 213.12 3.89371 5.75687 0
M  V30 2195 H 216.311 2.37723 4.03244 0
M  V30 2196 H 216.484 3.50599 5.44962 0
M  V30 2197 N 209.89 -1.43072 0.660911 0
M  V30 2198 C 210.82 -2.33497 -0.0122829 0
M  V30 2199 C 211.801 -1.49903 -0.803925 0
M  V30 2200 O 212.986 -1.78546 -0.763864 0
M  V30 2201 C 210.116 -3.33363 -0.973994 0
M  V30 2202 C 209.07 -4.27003 -0.291928 0
M  V30 2203 C 208.396 -5.16967 -1.36562 0
M  V30 2204 C 209.696 -5.15816 0.820462 0
M  V30 2205 H 211.39 -2.90038 0.742873 0
M  V30 2206 H 208.936 -1.39461 0.358688 0
M  V30 2207 H 210.889 -3.95524 -1.45392 0
M  V30 2208 H 209.613 -2.75095 -1.7604 0
M  V30 2209 H 208.272 -3.66217 0.167623 0
M  V30 2210 H 207.92 -4.55034 -2.14366 0
M  V30 2211 H 207.62 -5.80441 -0.914454 0
M  V30 2212 H 209.144 -5.82003 -1.84675 0
M  V30 2213 H 210.558 -5.71742 0.422366 0
M  V30 2214 H 208.955 -5.8805 1.19656 0
M  V30 2215 H 210.025 -4.55045 1.67518 0
M  V30 2216 N 211.368 -0.403325 -1.52352 0
M  V30 2217 C 212.331 0.413051 -2.25447 0
M  V30 2218 C 213.331 0.978513 -1.276 0
M  V30 2219 O 214.521 0.858305 -1.51587 0
M  V30 2220 C 211.653 1.58087 -3.02029 0
M  V30 2221 H 212.846 -0.227094 -2.99039 0
M  V30 2222 H 210.399 -0.155722 -1.55522 0
M  V30 2223 H 211.134 2.25804 -2.32772 0
M  V30 2224 H 210.919 1.18195 -3.73861 0
M  V30 2225 H 212.409 2.1585 -3.57489 0
M  V30 2226 N 212.846 1.57033 -0.133567 0
M  V30 2227 C 213.776 2.1909 0.807567 0
M  V30 2228 C 214.757 1.13517 1.26681 0
M  V30 2229 O 215.942 1.41809 1.32679 0
M  V30 2230 C 213.072 2.80188 2.05212 0
M  V30 2231 C 212.026 3.91471 1.73015 0
M  V30 2232 C 211.352 4.39443 3.04622 0
M  V30 2233 C 212.652 5.12886 0.987168 0
M  V30 2234 H 214.346 2.97988 0.290403 0
M  V30 2235 H 211.892 1.43335 0.138239 0
M  V30 2236 H 213.845 3.22264 2.71521 0
M  V30 2237 H 212.569 1.98601 2.59278 0
M  V30 2238 H 211.228 3.49993 1.0909 0
M  V30 2239 H 210.876 3.54695 3.56651 0
M  V30 2240 H 210.576 5.14495 2.83847 0
M  V30 2241 H 212.1 4.8418 3.72024 0
M  V30 2242 H 213.514 5.51891 1.55208 0
M  V30 2243 H 211.911 5.93615 0.87985 0
M  V30 2244 H 212.981 4.84894 -0.0235286 0
M  V30 2245 N 214.325 -0.140222 1.56975 0
M  V30 2246 C 215.602 -0.880769 1.74648 0
M  V30 2247 C 215.982 -1.99036 0.703404 0
M  V30 2248 O 215.33 -2.26821 -0.27648 0
M  V30 2249 C 215.54 -1.417 3.18939 0
M  V30 2250 C 216.888 -1.87774 3.80823 0
M  V30 2251 O 217.912 -1.51427 3.2241 0
M  V30 2252 O 216.771 -2.54827 4.83452 0
M  V30 2253 H 213.865 -0.416713 0.714338 0
M  V30 2254 H 216.411 -0.125618 1.69234 0
M  V30 2255 H 215.183 -0.619902 3.86359 0
M  V30 2256 H 214.806 -2.23546 3.28805 0
M  V30 2257 N 215.803 -1.52179 -0.40978 0
M  V30 2258 C 217.031 -1.70054 -1.17853 0
M  V30 2259 C 217.446 -0.409735 -1.843 0
M  V30 2260 O 216.803 0.614183 -1.71855 0
M  V30 2261 C 216.854 -2.83568 -2.24213 0
M  V30 2262 O 216.575 -4.0765 -1.60478 0
M  V30 2263 C 218.076 -3.12947 -3.13973 0
M  V30 2264 H 215.296 -0.569917 -0.354169 0
M  V30 2265 H 217.84 -1.98734 -0.482198 0
M  V30 2266 H 215.995 -2.57409 -2.89516 0
M  V30 2267 H 216.409 -4.70899 -2.30986 0
M  V30 2268 H 217.883 -3.95889 -3.84677 0
M  V30 2269 H 218.36 -2.26472 -3.76307 0
M  V30 2270 H 218.966 -3.40868 -2.5434 0
M  V30 2271 N 217.281 0.66697 -1.42791 0
M  V30 2272 C 218.191 1.80962 -1.49299 0
M  V30 2273 C 219.207 1.69775 -0.381108 0
M  V30 2274 O 220.383 1.91188 -0.633188 0
M  V30 2275 C 217.448 3.17156 -1.40045 0
M  V30 2276 C 216.509 3.40242 -2.6179 0
M  V30 2277 C 215.742 4.69939 -2.52969 0
M  V30 2278 O 215.965 5.48372 -1.56985 0
M  V30 2279 O 214.899 4.94441 -3.43237 0
M  V30 2280 H 218.725 1.78427 -2.45759 0
M  V30 2281 H 216.31 0.823713 -1.24641 0
M  V30 2282 H 218.192 3.98413 -1.37276 0
M  V30 2283 H 216.867 3.20312 -0.467138 0
M  V30 2284 H 215.774 2.58802 -2.70134 0
M  V30 2285 H 217.107 3.41923 -3.54047 0
M  V30 2286 N 218.759 1.29093 0.90403 0
M  V30 2287 C 219.989 1.19516 1.68522 0
M  V30 2288 C 220.397 -0.24738 1.87576 0
M  V30 2289 O 219.74 -1.17798 1.40959 0
M  V30 2290 C 219.802 1.83249 3.0929 0
M  V30 2291 C 219.466 3.32531 3.13484 0
M  V30 2292 C 220.463 4.28821 2.93953 0
M  V30 2293 C 218.148 3.73656 3.35688 0
M  V30 2294 C 220.142 5.64212 2.96553 0
M  V30 2295 C 217.829 5.0917 3.37919 0
M  V30 2296 C 218.827 6.04258 3.18373 0
M  V30 2297 O 218.515 7.37298 3.20385 0
M  V30 2298 H 218.247 0.415467 0.533257 0
M  V30 2299 H 220.801 1.70912 1.13922 0
M  V30 2300 H 219.031 1.26358 3.65473 0
M  V30 2301 H 220.72 1.68054 3.69476 0
M  V30 2302 H 221.486 3.98382 2.76616 0
M  V30 2303 H 217.365 3.00101 3.49943 0
M  V30 2304 H 220.909 6.38407 2.81216 0
M  V30 2305 H 216.806 5.39256 3.54787 0
M  V30 2306 H 217.574 7.46048 3.36681 0
M  V30 2307 N 220.237 -1.11381 1.11499 0
M  V30 2308 C 221.653 -1.35143 0.849031 0
M  V30 2309 C 221.853 -1.94515 -0.525938 0
M  V30 2310 O 220.909 -2.1785 -1.27662 0
M  V30 2311 C 222.222 -2.28249 1.95762 0
M  V30 2312 C 223.77 -2.41812 1.98736 0
M  V30 2313 C 224.245 -3.3824 3.088 0
M  V30 2314 N 225.736 -3.45803 3.08179 0
M  V30 2315 C 226.471 -4.20358 3.89982 0
M  V30 2316 N 225.967 -4.97884 4.8175 0
M  V30 2317 N 227.76 -4.15877 3.78157 0
M  V30 2318 H 219.911 -0.712062 2.00109 0
M  V30 2319 H 222.174 -0.376025 0.870235 0
M  V30 2320 H 221.88 -1.91817 2.94787 0
M  V30 2321 H 221.754 -3.28473 1.85433 0
M  V30 2322 H 224.141 -2.77518 1.00338 0
M  V30 2323 H 224.222 -1.41437 2.13141 0
M  V30 2324 H 223.866 -3.03261 4.07425 0
M  V30 2325 H 223.796 -4.38471 2.91635 0
M  V30 2326 H 226.287 -2.90506 2.41691 0
M  V30 2327 H 226.6 -5.52142 5.40702 0
M  V30 2328 H 224.945 -4.97043 4.85771 0
M  V30 2329 H 228.136 -3.544 3.05808 0
M  V30 2330 H 228.309 -4.73723 4.42143 0
M  V30 2331 N 221.715 -0.905404 -1.28997 0
M  V30 2332 C 222.625 -0.392246 -2.31298 0
M  V30 2333 C 223.641 0.515889 -1.66176 0
M  V30 2334 O 224.817 0.404093 -1.97304 0
M  V30 2335 C 221.882 0.36686 -3.44754 0
M  V30 2336 C 220.943 -0.573485 -4.25452 0
M  V30 2337 C 220.176 0.149488 -5.33491 0
M  V30 2338 O 220.399 1.37255 -5.5364 0
M  V30 2339 O 219.333 -0.510919 -5.99728 0
M  V30 2340 H 223.159 -1.2411 -2.77183 0
M  V30 2341 H 220.744 -0.669926 -1.33538 0
M  V30 2342 H 222.626 0.795907 -4.13816 0
M  V30 2343 H 221.301 1.19169 -3.00966 0
M  V30 2344 H 220.208 -1.05176 -3.59011 0
M  V30 2345 H 221.541 -1.36489 -4.72897 0
M  V30 2346 N 223.193 1.4272 -0.668489 0
M  V30 2347 C 224.441 2.01226 -0.187769 0
M  V30 2348 C 224.762 1.53092 1.2078 0
M  V30 2349 O 224.032 0.74993 1.80977 0
M  V30 2350 H 222.612 0.744041 -0.0664272 0
M  V30 2351 H 225.274 1.74723 -0.863583 0
M  V30 2352 H 224.37 3.11556 -0.184166 0
M  V30 2353 N 224.671 0.411399 1.52136 0
M  V30 2354 C 225.634 -0.401089 2.25663 0
M  V30 2355 C 226.634 -0.971732 1.28117 0
M  V30 2356 O 227.824 -0.850254 1.52041 0
M  V30 2357 C 224.956 -1.56483 3.02863 0
M  V30 2358 H 226.149 0.24295 2.98914 0
M  V30 2359 H 223.702 0.163968 1.55438 0
M  V30 2360 H 224.437 -2.24567 2.33967 0
M  V30 2361 H 224.222 -1.16211 3.74483 0
M  V30 2362 H 225.712 -2.13951 3.58629 0
M  V30 2363 N 226.149 -1.5696 0.141893 0
M  V30 2364 C 227.059 -2.20066 -0.812905 0
M  V30 2365 C 228.075 -1.18344 -1.27557 0
M  V30 2366 O 229.251 -1.50902 -1.33381 0
M  V30 2367 C 226.316 -2.80583 -2.03652 0
M  V30 2368 C 225.377 -3.97414 -1.62359 0
M  V30 2369 C 224.61 -4.55036 -2.78887 0
M  V30 2370 O 224.833 -4.11538 -3.94959 0
M  V30 2371 O 223.767 -5.45376 -2.54653 0
M  V30 2372 H 227.593 -3.02157 -0.305746 0
M  V30 2373 H 225.178 -1.49159 -0.0848799 0
M  V30 2374 H 227.06 -3.19067 -2.75272 0
M  V30 2375 H 225.735 -2.01508 -2.5333 0
M  V30 2376 H 224.642 -3.63656 -0.877775 0
M  V30 2377 H 225.975 -4.77994 -1.17401 0
M  V30 2378 N 227.627 0.131896 -1.57047 0
M  V30 2379 C 228.59 1.14638 -1.98471 0
M  V30 2380 C 229.59 1.35029 -0.873148 0
M  V30 2381 O 230.78 1.31764 -1.13946 0
M  V30 2382 C 227.912 2.50358 -2.31373 0
M  V30 2383 H 229.105 0.79064 -2.8929 0
M  V30 2384 H 226.658 0.375761 -1.51716 0
M  V30 2385 H 227.393 2.90876 -1.43393 0
M  V30 2386 H 227.178 2.36915 -3.12432 0
M  V30 2387 H 228.668 3.23395 -2.64207 0
M  V30 2388 N 229.106 1.52395 0.401703 0
M  V30 2389 C 230.036 1.79231 1.49661 0
M  V30 2390 C 231.017 0.643654 1.57452 0
M  V30 2391 O 232.202 0.889989 1.72606 0
M  V30 2392 C 229.332 1.94971 2.87409 0
M  V30 2393 C 228.286 3.10604 2.94465 0
M  V30 2394 C 227.612 3.11577 4.34538 0
M  V30 2395 C 228.912 4.49921 2.6527 0
M  V30 2396 H 230.606 2.70917 1.27454 0
M  V30 2397 H 228.152 1.30362 0.6117 0
M  V30 2398 H 230.105 2.12328 3.63999 0
M  V30 2399 H 228.829 0.999632 3.10926 0
M  V30 2400 H 227.488 2.93009 2.20321 0
M  V30 2401 H 227.136 2.14277 4.55076 0
M  V30 2402 H 226.836 3.89247 4.40183 0
M  V30 2403 H 228.36 3.31073 5.13053 0
M  V30 2404 H 229.774 4.67683 3.31581 0
M  V30 2405 H 228.171 5.29564 2.82281 0
M  V30 2406 H 229.241 4.57507 1.60671 0
M  V30 2407 N 230.584 -0.659388 1.43143 0
M  V30 2408 C 231.514 -1.78422 1.50625 0
M  V30 2409 C 232.495 -1.66216 0.361443 0
M  V30 2410 O 233.68 -1.85404 0.577834 0
M  V30 2411 C 230.81 -3.16815 1.42287 0
M  V30 2412 C 229.764 -3.43777 2.54954 0
M  V30 2413 C 229.09 -4.81905 2.31671 0
M  V30 2414 C 230.39 -3.39134 3.97222 0
M  V30 2415 H 232.084 -1.72417 2.44771 0
M  V30 2416 H 229.63 -0.828084 1.17808 0
M  V30 2417 H 231.583 -3.95253 1.46127 0
M  V30 2418 H 230.307 -3.23534 0.446435 0
M  V30 2419 H 228.966 -2.67707 2.50457 0
M  V30 2420 H 228.614 -4.85294 1.32284 0
M  V30 2421 H 228.314 -5.00906 3.07192 0
M  V30 2422 H 229.838 -5.62609 2.37284 0
M  V30 2423 H 231.252 -4.07518 4.03239 0
M  V30 2424 H 229.649 -3.69671 4.72719 0
M  V30 2425 H 230.719 -2.37426 4.22797 0
M  V30 2426 N 232.062 -1.29571 -0.897171 0
M  V30 2427 C 233.339 -1.08365 -1.62839 0
M  V30 2428 C 233.719 0.371331 -2.07808 0
M  V30 2429 O 233.067 1.3606 -1.83576 0
M  V30 2430 C 233.277 -2.0735 -2.80726 0
M  V30 2431 C 234.625 -2.38406 -3.51351 0
M  V30 2432 O 235.649 -2.05564 -2.90898 0
M  V30 2433 O 234.508 -2.9453 -4.60341 0
M  V30 2434 H 231.602 -0.415345 -0.715134 0
M  V30 2435 H 234.148 -1.40952 -0.945018 0
M  V30 2436 H 232.92 -3.05339 -2.44711 0
M  V30 2437 H 232.543 -1.75507 -3.56767 0
M  V30 2438 N 233.54 1.10788 -1.12088 0
M  V30 2439 C 234.817 1.79136 -0.785476 0
M  V30 2440 C 235.197 1.98246 0.725377 0
M  V30 2441 O 234.545 1.57258 1.65778 0
M  V30 2442 C 234.755 3.12375 -1.55636 0
M  V30 2443 C 236.103 3.8731 -1.74001 0
M  V30 2444 O 237.127 3.22085 -1.52117 0
M  V30 2445 O 235.986 5.04369 -2.10415 0
M  V30 2446 H 233.08 0.776226 -0.285311 0
M  V30 2447 H 235.626 1.1747 -1.2247 0
M  V30 2448 H 234.398 2.93863 -2.5838 0
M  V30 2449 H 234.021 3.81758 -1.11114 0
M  V30 2450 N 235.018 0.912232 1.28515 0
M  V30 2451 C 235.948 0.416403 2.29757 0
M  V30 2452 C 236.929 -0.515194 1.6211 0
M  V30 2453 O 238.114 -0.423253 1.89532 0
M  V30 2454 C 235.244 -0.34572 3.45575 0
M  V30 2455 C 234.198 0.496599 4.25109 0
M  V30 2456 C 233.524 -0.393771 5.33248 0
M  V30 2457 C 234.824 1.75307 4.92001 0
M  V30 2458 H 236.518 1.26249 2.7148 0
M  V30 2459 H 234.064 0.608515 1.30511 0
M  V30 2460 H 236.017 -0.703422 4.15488 0
M  V30 2461 H 234.741 -1.2257 3.02728 0
M  V30 2462 H 233.4 0.8368 3.56922 0
M  V30 2463 H 233.048 -1.27225 4.86644 0
M  V30 2464 H 232.748 0.166209 5.87365 0
M  V30 2465 H 234.272 -0.747389 6.06009 0
M  V30 2466 H 235.686 1.46437 5.54283 0
M  V30 2467 H 234.083 2.25534 5.56106 0
M  V30 2468 H 235.153 2.48176 4.16577 0
M  V30 2469 N 236.496 -1.42363 0.676048 0
M  V30 2470 C 237.426 -2.33497 0.0124832 0
M  V30 2471 C 238.407 -1.50748 -0.787981 0
M  V30 2472 O 239.592 -1.79346 -0.744884 0
M  V30 2473 C 236.722 -3.34377 -0.938582 0
M  V30 2474 C 235.676 -4.27289 -0.246622 0
M  V30 2475 C 235.002 -5.18386 -1.31071 0
M  V30 2476 C 236.302 -5.14916 0.875125 0
M  V30 2477 H 237.996 -2.89233 0.773593 0
M  V30 2478 H 235.542 -1.39073 0.37346 0
M  V30 2479 H 237.495 -3.97044 -1.41188 0
M  V30 2480 H 236.219 -2.76947 -1.73113 0
M  V30 2481 H 234.878 -3.66018 0.206456 0
M  V30 2482 H 234.526 -4.57282 -2.09528 0
M  V30 2483 H 234.226 -5.81378 -0.852839 0
M  V30 2484 H 235.75 -5.83929 -1.78492 0
M  V30 2485 H 237.164 -5.71262 0.482983 0
M  V30 2486 H 235.561 -5.86747 1.25887 0
M  V30 2487 H 236.631 -4.53242 1.72335 0
M  V30 2488 N 237.974 -0.419461 -1.51915 0
M  V30 2489 C 239.39 -0.0708431 -1.59443 0
M  V30 2490 C 239.59 1.41796 -1.43164 0
M  V30 2491 O 238.646 2.18596 -1.26381 0
M  V30 2492 C 239.959 -0.574991 -2.95151 0
M  V30 2493 C 241.507 -0.533867 -3.08413 0
M  V30 2494 C 241.982 -1.01469 -4.46618 0
M  V30 2495 N 243.473 -0.971939 -4.52888 0
M  V30 2496 C 244.208 -1.31505 -5.58116 0
M  V30 2497 N 243.704 -1.73014 -6.70849 0
M  V30 2498 N 245.497 -1.23436 -5.48379 0
M  V30 2499 H 237.648 -1.38836 -1.60743 0
M  V30 2500 H 239.911 -0.570998 -0.756747 0
M  V30 2501 H 239.617 -1.61597 -3.12377 0
M  V30 2502 H 239.491 0.00979777 -3.77199 0
M  V30 2503 H 241.878 0.498086 -2.90866 0
M  V30 2504 H 241.959 -1.15484 -2.28248 0
M  V30 2505 H 241.603 -2.04502 -4.6491 0
M  V30 2506 H 241.533 -0.370433 -5.25295 0
M  V30 2507 H 244.024 -0.666893 -3.71969 0
M  V30 2508 H 244.337 -1.97479 -7.47143 0
M  V30 2509 H 242.682 -1.76926 -6.72103 0
M  V30 2510 H 245.873 -0.908869 -4.59192 0
M  V30 2511 H 246.046 -1.50506 -6.30279 0
M  V30 2512 N 239.452 1.56882 -0.150215 0
M  V30 2513 C 240.4 2.18214 0.805313 0
M  V30 2514 C 241.394 1.14006 1.25296 0
M  V30 2515 O 242.6 1.3225 1.22107 0
M  V30 2516 H 238.975 0.698762 0.277913 0
M  V30 2517 H 240.946 2.97231 0.263862 0
M  V30 2518 C 239.695 2.82065 2.03309 0
M  V30 2519 H 239.018 3.61968 1.69763 0
M  V30 2520 H 240.458 3.28477 2.68103 0
M  V30 2521 C 238.917 1.80739 2.84315 0
M  V30 2522 O 239.447 1.27983 3.80767 0
M  V30 2523 N 237.653 1.4997 2.48913 0
M  V30 2524 H 237.2 1.93062 1.70542 0
M  V30 2525 H 237.158 0.824217 3.03404 0
M  V30 2526 O 240.969 0.011717 1.61496 0
M  V30 2527 H 241.66 -0.603327 1.84064 0
M  V30 END ATOM
M  V30 BEGIN BOND
M  V30 END BOND
M  V30 END CTAB
M  END
$$$$
