drugbank_target|P06213 Insulin receptor (DB00030; DB00046; DB00047; DB00071; DB01277; DB01306; DB01307; DB01309; DB03909; DB05115; DB05120; DB08513; DB09129; DB09564; DB12010; DB12267; DB14751)
 OpenBabel12092119223D

  0  0  0     0  0            999 V3000
M  V30 BEGIN CTAB
M  V30 COUNTS 21719 21987 0 0 0
M  V30 BEGIN ATOM
M  V30 1 H -0.908 1.98254 -0.117106 0
M  V30 2 N 0 1.576 0 0
M  V30 3 C 0.933 2.03868 1.02534 0
M  V30 4 C 1.911 0.928543 1.3348 0
M  V30 5 O 3.095 1.19667 1.45644 0
M  V30 6 C 0.222 2.43627 2.35294 0
M  V30 7 C -0.732 3.65373 2.2001 0
M  V30 8 S 0.101 5.13292 1.52614 0
M  V30 9 C 1.257 5.56322 2.86805 0
M  V30 10 H 1.49 2.90518 0.631377 0
M  V30 11 H -0.977 1.52953 0.210867 0
M  V30 12 H 0.981 2.67203 3.11629 0
M  V30 13 H -0.358 1.57376 2.7183 0
M  V30 14 H -1.165 3.90944 3.18086 0
M  V30 15 H -1.563 3.418 1.51819 0
M  V30 16 H 0.729 5.58782 3.83104 0
M  V30 17 H 1.672 6.56266 2.65933 0
M  V30 18 H 2.08 4.83886 2.90714 0
M  V30 19 N 1.4781 -0.272755 1.55222 0
M  V30 20 C 2.4411 -1.32041 1.87344 0
M  V30 21 C 3.4411 -1.42342 0.74803 0
M  V30 22 O 4.6311 -1.41488 1.0162 0
M  V30 23 C 1.7631 -2.70173 2.07893 0
M  V30 24 H 2.9561 -1.04789 2.80997 0
M  V30 25 H 0.5091 -0.51083 1.47717 0
M  V30 26 H 1.2441 -3.02605 1.16622 0
M  V30 27 H 1.0291 -2.64082 2.89833 0
M  V30 28 H 2.5191 -3.45869 2.34017 0
M  V30 29 N 2.9562 -1.48159 -0.537278 0
M  V30 30 C 4.1842 -1.59454 -1.31841 0
M  V30 31 C 4.5992 -0.252065 -1.8711 0
M  V30 32 O 3.9562 0.757621 -1.66031 0
M  V30 33 C 4.0072 -2.63546 -2.47439 0
M  V30 34 O 3.7282 -3.92583 -1.94449 0
M  V30 35 C 5.2292 -2.85212 -3.39366 0
M  V30 36 H 2.4492 -0.53785 -0.401196 0
M  V30 37 H 4.9932 -1.93932 -0.648891 0
M  V30 38 H 3.1482 -2.31946 -3.1029 0
M  V30 39 H 3.5622 -4.49629 -2.70063 0
M  V30 40 H 5.0362 -3.61863 -4.16844 0
M  V30 41 H 5.5132 -1.93765 -3.94147 0
M  V30 42 H 6.1192 -3.18086 -2.82314 0
M  V30 43 N 4.4343 0.785586 -1.36625 0
M  V30 44 C 5.6823 1.54057 -1.30808 0
M  V30 45 C 6.0033 1.94683 0.111157 0
M  V30 46 O 5.2733 1.65241 1.05224 0
M  V30 47 H 3.8533 0.571354 -0.481211 0
M  V30 48 H 6.5153 0.935821 -1.70963 0
M  V30 49 H 5.6113 2.44637 -1.93801 0
M  V30 50 N 5.9124 1.20967 1.01018 0
M  V30 51 C 7.1604 1.02172 1.74371 0
M  V30 52 C 7.4814 -0.446414 1.89821 0
M  V30 53 O 6.7514 -1.32234 1.44537 0
M  V30 54 H 5.3314 0.375066 0.646014 0
M  V30 55 H 7.9934 1.52187 1.21758 0
M  V30 56 H 7.0894 1.48538 2.74487 0
M  V30 57 N 7.3905 -1.2043 1.01659 0
M  V30 58 C 8.8065 -1.41852 0.731442 0
M  V30 59 C 9.0065 -1.89358 -0.688898 0
M  V30 60 O 8.0625 -2.06247 -1.45666 0
M  V30 61 C 9.3755 -2.44019 1.75714 0
M  V30 62 C 10.9235 -2.57785 1.77527 0
M  V30 63 C 11.3985 -3.63194 2.79023 0
M  V30 64 N 12.8895 -3.70678 2.77763 0
M  V30 65 C 13.6245 -4.51897 3.52954 0
M  V30 66 N 13.1205 -5.36921 4.37821 0
M  V30 67 N 14.9135 -4.4643 3.41551 0
M  V30 68 H 7.0645 -0.879093 1.93354 0
M  V30 69 H 9.3275 -0.448425 0.835236 0
M  V30 70 H 9.0335 -2.1611 2.77469 0
M  V30 71 H 8.9075 -3.43007 1.56927 0
M  V30 72 H 11.2945 -2.85023 0.764569 0
M  V30 73 H 11.3755 -1.58992 2.00387 0
M  V30 74 H 11.0195 -3.36699 3.80258 0
M  V30 75 H 10.9495 -4.61609 2.53425 0
M  V30 76 H 13.4405 -3.09944 2.16201 0
M  V30 77 H 13.7535 -5.95981 4.91962 0
M  V30 78 H 12.0985 -5.36424 4.41899 0
M  V30 79 H 15.2895 -3.79042 2.74672 0
M  V30 80 H 15.4625 -5.09491 4.00404 0
M  V30 81 N 8.8686 -0.792821 -1.36206 0
M  V30 82 C 10.2846 -0.474903 -1.52371 0
M  V30 83 C 10.4846 1.00622 -1.74578 0
M  V30 84 O 9.5406 1.79162 -1.77924 0
M  V30 85 C 10.8536 -1.3083 -2.70747 0
M  V30 86 C 12.4016 -1.30234 -2.84619 0
M  V30 87 C 12.8766 -2.11956 -4.06004 0
M  V30 88 N 14.3676 -2.09419 -4.13156 0
M  V30 89 C 15.1026 -2.69419 -5.06163 0
M  V30 90 N 14.5986 -3.3829 -6.04592 0
M  V30 91 N 16.3916 -2.59134 -4.98804 0
M  V30 92 H 8.5426 -1.75222 -1.20046 0
M  V30 93 H 10.8056 -0.745024 -0.586211 0
M  V30 94 H 10.5116 -2.35881 -2.6087 0
M  V30 95 H 10.3856 -0.95196 -3.6499 0
M  V30 96 H 12.7726 -0.259748 -2.93955 0
M  V30 97 H 12.8536 -1.69847 -1.91274 0
M  V30 98 H 12.4976 -3.16248 -3.97429 0
M  V30 99 H 12.4276 -1.69711 -4.98503 0
M  V30 100 H 14.9186 -1.59297 -3.42685 0
M  V30 101 H 15.2316 -3.81394 -6.7213 0
M  V30 102 H 13.5766 -3.42393 -6.04807 0
M  V30 103 H 16.7676 -2.04927 -4.20859 0
M  V30 104 H 16.9406 -3.06185 -5.711 0
M  V30 105 N 10.3467 1.47872 -0.545128 0
M  V30 106 C 11.5947 2.02093 -0.016553 0
M  V30 107 C 11.9157 1.42305 1.3332 0
M  V30 108 O 11.1857 0.593853 1.86682 0
M  V30 109 H 9.7657 0.746993 -0.00313038 0
M  V30 110 H 12.4277 1.81414 -0.712397 0
M  V30 111 H 11.5237 3.11996 0.0805422 0
M  V30 112 N 11.8248 0.280983 1.55075 0
M  V30 113 C 12.7878 -0.590896 2.21452 0
M  V30 114 C 13.7878 -1.07682 1.19421 0
M  V30 115 O 14.9778 -0.97605 1.44288 0
M  V30 116 C 12.1098 -1.81587 2.88511 0
M  V30 117 H 13.3028 -0.0112554 2.99898 0
M  V30 118 H 10.8558 0.0316438 1.56268 0
M  V30 119 H 11.5908 -2.43587 2.14093 0
M  V30 120 H 11.3758 -1.4753 3.63287 0
M  V30 121 H 12.8658 -2.43575 3.39206 0
M  V30 122 N 13.3029 -1.57598 0.00835791 0
M  V30 123 C 14.2659 -2.07884 -0.965242 0
M  V30 124 C 15.2659 -0.989825 -1.26725 0
M  V30 125 O 16.4559 -1.25218 -1.21104 0
M  V30 126 C 13.5879 -2.52731 -2.28779 0
M  V30 127 H 14.7809 -2.95178 -0.530112 0
M  V30 128 H 12.3339 -1.54458 -0.239283 0
M  V30 129 H 13.0689 -1.68705 -2.76964 0
M  V30 130 H 12.8539 -3.32272 -2.08177 0
M  V30 131 H 14.3439 -2.91933 -2.98605 0
M  V30 132 N 14.781 0.264519 -1.55364 0
M  V30 133 C 15.744 1.31046 -1.88042 0
M  V30 134 C 16.744 1.41943 -0.755569 0
M  V30 135 O 17.934 1.40947 -1.02369 0
M  V30 136 C 15.066 2.69067 -2.09323 0
M  V30 137 H 16.259 1.03297 -2.81549 0
M  V30 138 H 13.812 0.502989 -1.47986 0
M  V30 139 H 14.547 3.01982 -1.18226 0
M  V30 140 H 14.332 2.62542 -2.91229 0
M  V30 141 H 15.822 3.44623 -2.35848 0
M  V30 142 N 16.2591 1.48442 0.529413 0
M  V30 143 C 17.2221 1.62524 1.61612 0
M  V30 144 C 18.2221 0.498509 1.52877 0
M  V30 145 O 19.4121 0.76431 1.56537 0
M  V30 146 C 16.5441 1.59597 3.01233 0
M  V30 147 H 17.7371 2.59423 1.50465 0
M  V30 148 H 15.2901 1.37047 0.751514 0
M  V30 149 H 16.0251 0.641781 3.17886 0
M  V30 150 H 15.8101 2.41397 3.08982 0
M  V30 151 H 17.3001 1.72646 3.80241 0
M  V30 152 N 17.7372 -0.778329 1.37039 0
M  V30 153 C 19.1482 -1.35421 1.28523 0
M  V30 154 C 19.4992 -1.96075 -0.0700901 0
M  V30 155 O 18.6242 -1.93352 -0.971801 0
M  V30 156 C 19.2192 -2.46211 2.32735 0
M  V30 157 C 17.7782 -2.99585 2.27873 0
M  V30 158 C 16.9252 -1.72748 2.16918 0
M  V30 159 H 19.8762 -0.5791 1.47757 0
M  V30 160 H 19.8972 -3.2552 1.9702 0
M  V30 161 H 19.4092 -2.02036 3.31365 0
M  V30 162 H 17.5102 -3.48152 1.32745 0
M  V30 163 H 17.6232 -3.55646 3.21018 0
M  V30 164 H 15.9872 -1.95416 1.63354 0
M  V30 165 H 16.7702 -1.30686 3.17452 0
M  V30 166 N 19.2153 -1.21501 -1.00376 0
M  V30 167 C 20.1453 -0.999478 -2.11028 0
M  V30 168 C 21.1263 0.0759671 -1.6993 0
M  V30 169 O 22.3113 -0.0841106 -1.94018 0
M  V30 170 C 19.4413 -0.564709 -3.42678 0
M  V30 171 C 18.3953 -1.58486 -3.97576 0
M  V30 172 C 17.7213 -1.00628 -5.25146 0
M  V30 173 C 19.0213 -2.97204 -4.29496 0
M  V30 174 H 20.7153 -1.92495 -2.29317 0
M  V30 175 H 18.2613 -0.92693 -1.102 0
M  V30 176 H 20.2143 -0.401091 -4.19487 0
M  V30 177 H 18.9383 0.396411 -3.24185 0
M  V30 178 H 17.5973 -1.73606 -3.22888 0
M  V30 179 H 17.2453 -0.0368439 -5.02987 0
M  V30 180 H 16.9453 -1.68771 -5.62841 0
M  V30 181 H 18.4693 -0.854015 -6.04598 0
M  V30 182 H 19.8833 -2.8552 -4.97143 0
M  V30 183 H 18.2803 -3.62372 -4.78338 0
M  V30 184 H 19.3503 -3.47956 -3.3772 0
M  V30 185 N 20.6934 1.19889 -1.02296 0
M  V30 186 C 21.6234 2.25141 -0.619174 0
M  V30 187 C 22.6044 1.66051 0.368915 0
M  V30 188 O 23.7894 1.92546 0.252941 0
M  V30 189 C 20.9194 3.4728 0.0368783 0
M  V30 190 C 19.8734 4.19005 -0.872865 0
M  V30 191 C 19.1994 5.34637 -0.0822402 0
M  V30 192 C 20.4994 4.74452 -2.18387 0
M  V30 193 H 22.1934 2.59171 -1.49903 0
M  V30 194 H 19.7394 1.24579 -0.722222 0
M  V30 195 H 21.6924 4.20098 0.330958 0
M  V30 196 H 20.4164 3.12433 0.95149 0
M  V30 197 H 19.0754 3.48061 -1.15105 0
M  V30 198 H 18.7234 4.96034 0.83422 0
M  V30 199 H 18.4234 5.83557 -0.688149 0
M  V30 200 H 19.9474 6.10255 0.205238 0
M  V30 201 H 21.3614 5.39055 -1.95172 0
M  V30 202 H 19.7584 5.33834 -2.74119 0
M  V30 203 H 20.8284 3.92844 -2.84257 0
M  V30 204 N 22.1715 0.800033 1.35784 0
M  V30 205 C 23.4175 0.377901 1.99248 0
M  V30 206 C 23.7505 -1.05052 1.63333 0
M  V30 207 O 23.0255 -1.72768 0.893385 0
M  V30 208 C 23.3085 0.553922 3.55814 0
M  V30 209 C 23.1615 2.0268 4.01548 0
M  V30 210 C 24.4805 -0.0244802 4.40093 0
M  V30 211 H 21.5995 0.138782 0.723815 0
M  V30 212 H 24.2415 1.00835 1.61035 0
M  V30 213 H 22.3915 0.0172398 3.88496 0
M  V30 214 H 24.0635 2.62536 3.79305 0
M  V30 215 H 22.3065 2.5256 3.52698 0
M  V30 216 H 22.9775 2.10087 5.10458 0
M  V30 217 H 25.4535 0.433775 4.13833 0
M  V30 218 H 24.3295 0.128637 5.48749 0
M  V30 219 H 24.5905 -1.11758 4.27741 0
M  V30 220 N 23.6496 -1.47581 0.552962 0
M  V30 221 C 24.6126 -2.28439 -0.186605 0
M  V30 222 C 25.6126 -1.36706 -0.84665 0
M  V30 223 O 26.8026 -1.59378 -0.703164 0
M  V30 224 C 23.9346 -3.16264 -1.2724 0
M  V30 225 H 25.1276 -2.95294 0.523609 0
M  V30 226 H 22.6806 -1.532 0.309745 0
M  V30 227 H 23.4156 -2.54091 -2.01514 0
M  V30 228 H 23.2006 -3.83769 -0.803968 0
M  V30 229 H 24.6906 -3.77198 -1.79196 0
M  V30 230 N 25.1277 -0.289203 -1.54924 0
M  V30 231 C 26.3737 0.323998 -2.00195 0
M  V30 232 C 26.7067 1.54441 -1.17735 0
M  V30 233 O 25.9817 1.92875 -0.250878 0
M  V30 234 C 26.2647 0.692276 -3.53383 0
M  V30 235 C 26.1177 -0.536457 -4.46589 0
M  V30 236 C 27.4367 1.52335 -4.12895 0
M  V30 237 H 24.5557 0.116289 -0.727768 0
M  V30 238 H 27.1977 -0.398954 -1.85764 0
M  V30 239 H 25.3477 1.30822 -3.65811 0
M  V30 240 H 27.0197 -1.17499 -4.46085 0
M  V30 241 H 25.2627 -1.17192 -4.1767 0
M  V30 242 H 25.9337 -0.234806 -5.515 0
M  V30 243 H 28.4097 1.00302 -4.0383 0
M  V30 244 H 27.2857 1.74982 -5.20262 0
M  V30 245 H 27.5467 2.50886 -3.64018 0
M  V30 246 N 26.6058 1.57591 -0.0167156 0
M  V30 247 C 27.5688 2.08393 0.954204 0
M  V30 248 C 28.5688 0.996531 1.26198 0
M  V30 249 O 29.7588 1.25858 1.20438 0
M  V30 250 C 26.8908 2.5394 2.27436 0
M  V30 251 H 28.0838 2.95455 0.514451 0
M  V30 252 H 25.6368 1.54582 0.231089 0
M  V30 253 H 26.3718 1.70171 2.76066 0
M  V30 254 H 26.1568 3.33371 2.06412 0
M  V30 255 H 27.6468 2.93512 2.97053 0
M  V30 256 N 28.0839 -0.256276 1.55502 0
M  V30 257 C 29.0469 -1.30047 1.88734 0
M  V30 258 C 30.0469 -1.4154 0.763086 0
M  V30 259 O 31.2369 -1.40403 1.03115 0
M  V30 260 C 28.3689 -2.67953 2.10747 0
M  V30 261 H 29.5619 -1.01802 2.82093 0
M  V30 262 H 27.1149 -0.495134 1.4825 0
M  V30 263 H 27.8499 -3.01351 1.19825 0
M  V30 264 H 27.6349 -2.60993 2.92617 0
M  V30 265 H 29.1249 -3.43368 2.37673 0
M  V30 266 N 29.562 -1.4872 -0.521534 0
M  V30 267 C 30.492 -1.66771 -1.63431 0
M  V30 268 C 31.473 -0.516499 -1.62069 0
M  V30 269 O 32.658 -0.750013 -1.79132 0
M  V30 270 C 29.788 -1.71515 -3.01993 0
M  V30 271 C 28.742 -2.86222 -3.18216 0
M  V30 272 C 28.068 -2.76061 -4.57924 0
M  V30 273 C 29.368 -4.27419 -3.00184 0
M  V30 274 H 31.062 -2.59932 -1.48579 0
M  V30 275 H 28.608 -1.25089 -0.713358 0
M  V30 276 H 30.561 -1.82731 -3.7972 0
M  V30 277 H 29.285 -0.749393 -3.17886 0
M  V30 278 H 27.944 -2.74575 -2.42908 0
M  V30 279 H 27.592 -1.77437 -4.70665 0
M  V30 280 H 27.292 -3.53037 -4.69722 0
M  V30 281 H 28.816 -2.89256 -5.37739 0
M  V30 282 H 30.23 -4.39855 -3.67697 0
M  V30 283 H 28.627 -5.05458 -3.2347 0
M  V30 284 H 29.697 -4.43293 -1.96518 0
M  V30 285 N 31.0401 0.771051 -1.3745 0
M  V30 286 C 31.9701 1.89827 -1.3597 0
M  V30 287 C 32.9511 1.68562 -0.228216 0
M  V30 288 O 34.1361 1.8941 -0.428675 0
M  V30 289 C 31.2661 3.2712 -1.16662 0
M  V30 290 C 30.2201 3.6295 -2.2683 0
M  V30 291 C 29.5461 4.98791 -1.92644 0
M  V30 292 C 30.8461 3.69627 -3.69017 0
M  V30 293 H 32.5401 1.91323 -2.30295 0
M  V30 294 H 30.0861 0.919082 -1.10855 0
M  V30 295 H 32.0391 4.05615 -1.14256 0
M  V30 296 H 30.7631 3.26059 -0.187926 0
M  V30 297 H 29.4221 2.86763 -2.28392 0
M  V30 298 H 29.0701 4.94271 -0.933021 0
M  V30 299 H 28.7701 5.23733 -2.66416 0
M  V30 300 H 30.2941 5.79685 -1.91826 0
M  V30 301 H 31.7081 4.38273 -3.69581 0
M  V30 302 H 30.1051 4.06067 -4.41848 0
M  V30 303 H 31.1751 2.70273 -4.02592 0
M  V30 304 N 32.5182 1.22032 0.997298 0
M  V30 305 C 33.4482 1.01065 2.10495 0
M  V30 306 C 34.4292 -0.0669542 1.69968 0
M  V30 307 O 35.6142 0.0943987 1.9397 0
M  V30 308 C 32.7442 0.582874 3.42374 0
M  V30 309 C 31.6982 1.60592 3.96729 0
M  V30 310 C 31.0242 1.03412 5.24605 0
M  V30 311 C 32.3242 2.99478 4.27914 0
M  V30 312 H 34.0182 1.93708 2.28292 0
M  V30 313 H 31.5642 0.932761 1.09707 0
M  V30 314 H 33.5172 0.423332 4.19268 0
M  V30 315 H 32.2412 -0.379213 3.24391 0
M  V30 316 H 30.9002 1.75316 3.21963 0
M  V30 317 H 30.5482 0.063518 5.0296 0
M  V30 318 H 30.2482 1.71754 5.61938 0
M  V30 319 H 31.7722 0.886066 6.04137 0
M  V30 320 H 33.1862 2.88153 4.95622 0
M  V30 321 H 31.5832 3.64903 4.76409 0
M  V30 322 H 32.6532 3.49742 3.3587 0
M  V30 323 N 33.9963 -1.19345 1.0293 0
M  V30 324 C 35.2443 -1.88665 0.724574 0
M  V30 325 C 35.5653 -1.80036 -0.749144 0
M  V30 326 O 34.8353 -1.2111 -1.53978 0
M  V30 327 H 33.4153 -0.698406 0.265025 0
M  V30 328 H 36.0773 -1.44885 1.30362 0
M  V30 329 H 35.1733 -2.94987 1.01926 0
M  V30 330 N 35.4744 -0.807222 -1.35358 0
M  V30 331 C 36.4374 -0.223665 -2.28106 0
M  V30 332 C 37.4374 0.589354 -1.4961 0
M  V30 333 O 38.6274 0.407745 -1.69361 0
M  V30 334 C 35.7594 0.688149 -3.33882 0
M  V30 335 H 36.9524 -1.04169 -2.81227 0
M  V30 336 H 34.5054 -0.577921 -1.45223 0
M  V30 337 H 35.2404 1.52984 -2.85948 0
M  V30 338 H 35.0254 0.10687 -3.91954 0
M  V30 339 H 36.5154 1.09075 -4.03104 0
M  V30 340 N 36.9525 1.47285 -0.560781 0
M  V30 341 C 37.9155 2.28535 0.174488 0
M  V30 342 C 38.9155 1.37153 0.839388 0
M  V30 343 O 40.1055 1.59748 0.694702 0
M  V30 344 C 37.2375 3.16934 1.25561 0
M  V30 345 H 38.4305 2.95012 -0.539262 0
M  V30 346 H 35.9835 1.53034 -0.317865 0
M  V30 347 H 36.7185 2.55157 2.00164 0
M  V30 348 H 36.5035 3.8419 0.783604 0
M  V30 349 H 37.9935 3.78143 1.77193 0
M  V30 350 N 38.4306 0.297415 1.54768 0
M  V30 351 C 39.6786 -0.312295 1.99673 0
M  V30 352 C 39.9996 -1.54686 1.18732 0
M  V30 353 O 39.2696 -1.93854 0.282382 0
M  V30 354 H 37.8496 -0.118381 0.73756 0
M  V30 355 H 40.5116 0.407915 1.90583 0
M  V30 356 H 39.6076 -0.586813 3.06534 0
M  V30 357 N 39.9087 -1.5758 0.0250728 0
M  V30 358 C 40.8587 -2.06468 -0.967201 0
M  V30 359 C 41.8427 -0.964376 -1.28797 0
M  V30 360 O 43.0347 -1.22797 -1.27475 0
M  V30 361 C 40.1637 -2.59203 -2.25097 0
M  V30 362 C 39.2497 -3.76157 -1.95874 0
M  V30 363 N 39.6407 -4.86919 -1.36905 0
M  V30 364 C 37.9387 -3.84566 -2.25887 0
M  V30 365 C 38.6397 -5.68172 -1.24724 0
M  V30 366 N 37.6157 -5.14953 -1.74138 0
M  V30 367 H 41.4177 -2.89508 -0.506176 0
M  V30 368 H 38.9317 -1.61399 -0.18004 0
M  V30 369 H 40.9287 -2.92517 -2.97052 0
M  V30 370 H 39.5887 -1.77592 -2.71829 0
M  V30 371 H 40.5997 -5.07256 -1.04459 0
M  V30 372 H 37.2767 -3.13854 -2.75321 0
M  V30 373 H 38.6667 -6.67221 -0.791605 0
M  V30 374 N 41.3868 0.248026 -1.55636 0
M  V30 375 C 42.3168 1.31079 -1.93237 0
M  V30 376 C 43.2978 1.50264 -0.797174 0
M  V30 377 O 44.4828 1.62891 -1.05737 0
M  V30 378 C 41.6128 2.66575 -2.22609 0
M  V30 379 C 40.5668 2.62087 -3.3837 0
M  V30 380 C 39.8928 4.01369 -3.53281 0
M  V30 381 C 41.1928 2.19171 -4.7409 0
M  V30 382 H 42.8868 0.998556 -2.82257 0
M  V30 383 H 40.4328 0.47891 -1.35803 0
M  V30 384 H 42.3858 3.41057 -2.47503 0
M  V30 385 H 41.1098 2.99432 -1.30414 0
M  V30 386 H 39.7688 1.90063 -3.13483 0
M  V30 387 H 39.4168 4.31489 -2.58508 0
M  V30 388 H 39.1168 3.99254 -4.31127 0
M  V30 389 H 40.6408 4.77552 -3.80495 0
M  V30 390 H 42.0548 2.83384 -4.98363 0
M  V30 391 H 40.4518 2.2817 -5.5503 0
M  V30 392 H 41.5218 1.14336 -4.71227 0
M  V30 393 N 42.8649 1.48995 0.513639 0
M  V30 394 C 44.0949 1.61297 1.291 0
M  V30 395 C 44.5029 0.278656 1.87137 0
M  V30 396 O 43.8459 -0.744325 1.67945 0
M  V30 397 C 43.9079 2.61326 2.46879 0
M  V30 398 C 43.5719 4.05993 2.09807 0
M  V30 399 C 44.5689 4.93183 1.64519 0
M  V30 400 C 42.2539 4.51642 2.19829 0
M  V30 401 C 44.2479 6.24056 1.2974 0
M  V30 402 C 41.9349 5.82532 1.84662 0
M  V30 403 C 42.9329 6.68562 1.3969 0
M  V30 404 O 42.6209 7.97014 1.04992 0
M  V30 405 H 42.3529 0.546236 0.39825 0
M  V30 406 H 44.9069 1.95673 0.62459 0
M  V30 407 H 43.1369 2.22104 3.16554 0
M  V30 408 H 44.8259 2.6329 3.08923 0
M  V30 409 H 45.5919 4.59147 1.56233 0
M  V30 410 H 41.4709 3.84855 2.53786 0
M  V30 411 H 45.0149 6.91161 0.945659 0
M  V30 412 H 40.9119 6.16099 1.92594 0
M  V30 413 H 41.6799 8.09913 1.18249 0
M  V30 414 N 44.343 -0.763751 1.37857 0
M  V30 415 C 45.754 -1.3405 1.29952 0
M  V30 416 C 46.105 -1.96138 -0.0492898 0
M  V30 417 O 45.23 -1.94372 -0.951239 0
M  V30 418 C 45.825 -2.43729 2.35333 0
M  V30 419 C 44.384 -2.97151 2.31037 0
M  V30 420 C 43.531 -1.70438 2.18738 0
M  V30 421 H 46.482 -0.563396 1.48363 0
M  V30 422 H 46.503 -3.23412 2.00462 0
M  V30 423 H 46.015 -1.9851 3.33489 0
M  V30 424 H 44.116 -3.46724 1.3643 0
M  V30 425 H 44.229 -3.52221 3.24772 0
M  V30 426 H 42.593 -1.93673 1.65418 0
M  V30 427 H 43.376 -1.27312 3.18821 0
M  V30 428 N 45.8211 -1.22559 -0.990812 0
M  V30 429 C 47.0691 -1.04933 -1.72724 0
M  V30 430 C 47.3901 0.416158 -1.90508 0
M  V30 431 O 46.6601 1.29918 -1.46622 0
M  V30 432 H 45.2401 -0.385296 -0.639965 0
M  V30 433 H 47.9021 -1.54105 -1.19322 0
M  V30 434 H 46.9981 -1.52886 -2.72089 0
M  V30 435 N 47.2992 1.18797 -1.03562 0
M  V30 436 C 48.2092 2.25913 -0.632505 0
M  V30 437 C 49.2252 1.70668 0.338882 0
M  V30 438 O 50.4012 2.00453 0.195076 0
M  V30 439 C 47.4662 3.467 0.00350942 0
M  V30 440 C 46.5272 4.17098 -1.01624 0
M  V30 441 C 45.7602 5.32119 -0.410478 0
M  V30 442 O 45.9832 5.64976 0.784725 0
M  V30 443 O 44.9172 5.9107 -1.13667 0
M  V30 444 H 48.7432 2.62648 -1.52478 0
M  V30 445 H 46.3282 1.25781 -0.806195 0
M  V30 446 H 48.2102 4.19878 0.35781 0
M  V30 447 H 46.8852 3.11798 0.869686 0
M  V30 448 H 45.7922 3.4601 -1.42224 0
M  V30 449 H 47.1252 4.55987 -1.85301 0
M  V30 450 N 48.7773 0.814389 1.34928 0
M  V30 451 C 50.0233 0.399013 1.98836 0
M  V30 452 C 50.3563 -1.03314 1.64438 0
M  V30 453 O 49.6313 -1.71811 0.911659 0
M  V30 454 C 49.9143 0.591629 3.55207 0
M  V30 455 C 49.7673 2.06928 3.99376 0
M  V30 456 C 51.0863 0.022199 4.40094 0
M  V30 457 H 48.2053 0.146451 0.722303 0
M  V30 458 H 50.8473 1.02537 1.59957 0
M  V30 459 H 48.9973 0.0584441 3.88456 0
M  V30 460 H 50.6693 2.66544 3.76499 0
M  V30 461 H 48.9123 2.56287 3.49999 0
M  V30 462 H 49.5833 2.1549 5.08201 0
M  V30 463 H 52.0593 0.477643 4.13349 0
M  V30 464 H 50.9353 0.186832 5.48582 0
M  V30 465 H 51.1963 -1.07215 4.28902 0
M  V30 466 N 50.2554 -1.46986 0.568584 0
M  V30 467 C 51.4954 -2.04336 0.0512999 0
M  V30 468 C 51.8594 -1.43214 -1.27881 0
M  V30 469 O 53.0604 -1.91679 -1.88448 0
M  V30 470 C 51.3314 -3.57389 -0.0282328 0
M  V30 471 S 52.8904 -4.36056 -0.489991 0
M  V30 472 H 49.7084 -0.71034 0.0306349 0
M  V30 473 H 52.3104 -1.80212 0.757891 0
M  V30 474 H 51.0144 -3.99395 0.944011 0
M  V30 475 H 50.5454 -3.86028 -0.75803 0
M  V30 476 H 52.5604 -4.6441 -1.74752 0
M  V30 477 N 51.7335 -0.305618 -1.54608 0
M  V30 478 C 53.1445 0.186098 -1.8577 0
M  V30 479 C 53.4955 1.53058 -1.22751 0
M  V30 480 O 52.6205 2.09888 -0.526893 0
M  V30 481 C 53.2155 0.344449 -3.37044 0
M  V30 482 C 51.7745 0.780384 -3.68221 0
M  V30 483 C 50.9215 -0.108554 -2.77087 0
M  V30 484 H 53.8725 -0.526485 -1.49712 0
M  V30 485 H 53.8935 1.17828 -3.61796 0
M  V30 486 H 53.4055 -0.634235 -3.82883 0
M  V30 487 H 51.5065 1.76945 -3.27904 0
M  V30 488 H 51.6195 0.596572 -4.75371 0
M  V30 489 H 49.9835 0.412931 -2.5133 0
M  V30 490 H 50.7665 -1.08368 -3.25747 0
M  V30 491 N 53.2116 1.57565 -0.0334293 0
M  V30 492 C 54.4596 1.91598 0.642999 0
M  V30 493 C 54.7806 0.910847 1.7242 0
M  V30 494 O 54.0506 -0.0469931 1.95844 0
M  V30 495 H 52.6306 0.707228 0.240496 0
M  V30 496 H 55.2926 1.94726 -0.0822488 0
M  V30 497 H 54.3886 2.92336 1.09298 0
M  V30 498 N 54.6897 -0.239769 1.55765 0
M  V30 499 C 55.6227 -1.32356 1.85895 0
M  V30 500 C 56.6007 -1.46053 0.714662 0
M  V30 501 O 57.7847 -1.62154 0.961157 0
M  V30 502 C 54.9117 -2.6962 2.04994 0
M  V30 503 C 53.9577 -2.73036 3.27648 0
M  V30 504 S 54.7907 -2.28929 4.84099 0
M  V30 505 C 55.9467 -3.68103 5.06212 0
M  V30 506 H 56.1797 -1.06601 2.77531 0
M  V30 507 H 53.7127 -0.441112 1.47965 0
M  V30 508 H 55.6707 -3.48653 2.16682 0
M  V30 509 H 54.3317 -2.92609 1.14188 0
M  V30 510 H 53.5247 -3.7386 3.38 0
M  V30 511 H 53.1267 -2.02052 3.14723 0
M  V30 512 H 55.4187 -4.63656 4.93993 0
M  V30 513 H 56.3617 -3.6268 6.08168 0
M  V30 514 H 56.7697 -3.60947 4.34025 0
M  V30 515 N 56.1678 -1.49265 -0.50573 0
M  V30 516 C 57.4448 -1.49012 -1.26707 0
M  V30 517 C 57.8248 -0.215205 -2.1 0
M  V30 518 O 57.1728 0.802547 -2.13943 0
M  V30 519 C 57.3828 -2.7663 -2.12783 0
M  V30 520 C 58.7308 -3.25932 -2.72127 0
M  V30 521 O 59.7548 -2.77715 -2.23054 0
M  V30 522 O 58.6138 -4.09897 -3.61451 0
M  V30 523 H 55.7078 -0.596197 -0.57313 0
M  V30 524 H 58.2538 -1.61524 -0.52039 0
M  V30 525 H 57.0258 -3.60916 -1.5118 0
M  V30 526 H 56.6488 -2.66956 -2.94653 0
M  V30 527 N 57.6459 0.756429 -1.3826 0
M  V30 528 C 58.8949 1.51082 -1.3363 0
M  V30 529 C 59.2079 1.95467 0.0720068 0
M  V30 530 O 60.4139 2.7043 0.240834 0
M  V30 531 C 58.8699 2.72893 -2.34644 0
M  V30 532 C 58.4779 2.35544 -3.81081 0
M  V30 533 C 60.2219 3.50791 -2.39052 0
M  V30 534 C 58.1289 3.53948 -4.73787 0
M  V30 535 H 57.0589 0.56727 -0.49671 0
M  V30 536 H 59.7099 0.827147 -1.638 0
M  V30 537 H 58.0919 3.43227 -1.97513 0
M  V30 538 H 59.2659 1.72894 -4.27135 0
M  V30 539 H 57.5809 1.70786 -3.79764 0
M  V30 540 H 60.1779 4.38823 -3.05513 0
M  V30 541 H 60.5209 3.91745 -1.40861 0
M  V30 542 H 61.0539 2.87467 -2.74968 0
M  V30 543 H 57.7929 3.18064 -5.73163 0
M  V30 544 H 57.3129 4.15651 -4.32428 0
M  V30 545 H 58.9919 4.20566 -4.91663 0
M  V30 546 N 59.124 1.23083 0.984299 0
M  V30 547 C 60.54 0.992637 1.24975 0
M  V30 548 C 60.74 -0.308618 1.99123 0
M  V30 549 O 59.796 -1.02905 2.30579 0
M  V30 550 C 61.109 2.19698 2.05312 0
M  V30 551 C 62.657 2.24147 2.18465 0
M  V30 552 C 63.132 3.44157 3.02192 0
M  V30 553 N 64.623 3.44372 3.09777 0
M  V30 554 C 65.358 4.33886 3.74874 0
M  V30 555 N 64.854 5.3363 4.41827 0
M  V30 556 N 66.647 4.21639 3.71721 0
M  V30 557 H 58.798 2.06731 0.487453 0
M  V30 558 H 61.061 0.906339 0.277944 0
M  V30 559 H 60.767 3.1411 1.58201 0
M  V30 560 H 60.641 2.20465 3.06064 0
M  V30 561 H 63.028 1.30277 2.64786 0
M  V30 562 H 63.109 2.27415 1.17115 0
M  V30 563 H 62.753 4.38332 2.56568 0
M  V30 564 H 62.683 3.3813 4.03702 0
M  V30 565 H 65.174 2.72201 2.62135 0
M  V30 566 H 65.487 5.98196 4.89266 0
M  V30 567 H 63.832 5.37534 4.40548 0
M  V30 568 H 67.023 3.42962 3.18582 0
M  V30 569 H 67.196 4.91604 4.22173 0
M  V30 570 N 60.6021 -1.18246 1.0419 0
M  V30 571 C 61.5501 -2.23968 0.627792 0
M  V30 572 C 62.5441 -1.65828 -0.346019 0
M  V30 573 O 63.7501 -1.78733 -0.213175 0
M  V30 574 H 60.1251 -0.728939 0.184802 0
M  V30 575 H 62.0961 -2.56202 1.52981 0
M  V30 576 C 60.8451 -3.47699 0.00796591 0
M  V30 577 H 60.1681 -3.92734 0.748347 0
M  V30 578 H 61.6081 -4.23294 -0.24455 0
M  V30 579 C 60.0671 -3.13153 -1.24246 0
M  V30 580 O 60.5971 -3.27003 -2.33307 0
M  V30 581 N 58.8031 -2.67467 -1.13622 0
M  V30 582 H 58.3501 -2.56396 -0.248734 0
M  V30 583 H 58.3081 -2.44724 -1.97377 0
M  V30 584 N 62.0802 -0.821533 -1.34494 0
M  V30 585 C 63.0282 -0.230702 -2.31453 0
M  V30 586 C 64.0222 0.627793 -1.57338 0
M  V30 587 O 65.2282 0.519288 -1.72347 0
M  V30 588 H 61.6032 -0.0558577 -0.749923 0
M  V30 589 H 63.5742 -1.06332 -2.78812 0
M  V30 590 C 62.3232 0.59391 -3.4259 0
M  V30 591 H 61.6462 -0.0573588 -3.99759 0
M  V30 592 H 63.0862 0.973446 -4.12674 0
M  V30 593 C 61.5452 1.76568 -2.86924 0
M  V30 594 O 62.0752 2.8638 -2.81691 0
M  V30 595 N 60.2812 1.58198 -2.43766 0
M  V30 596 H 59.8282 0.68872 -2.48222 0
M  V30 597 H 59.7862 2.36752 -2.06871 0
M  V30 598 N 63.5583 1.46682 -0.576371 0
M  V30 599 C 64.4883 2.33028 0.148397 0
M  V30 600 C 65.4693 1.44961 0.889956 0
M  V30 601 O 66.6543 1.73789 0.866662 0
M  V30 602 C 63.7843 3.27117 1.1667 0
M  V30 603 C 62.7383 4.24575 0.540386 0
M  V30 604 C 62.0643 5.08126 1.6647 0
M  V30 605 C 63.3643 5.19722 -0.518331 0
M  V30 606 H 65.0583 2.93875 -0.572509 0
M  V30 607 H 62.6043 1.41315 -0.276768 0
M  V30 608 H 64.5573 3.86374 1.68204 0
M  V30 609 H 63.2813 2.64364 1.9178 0
M  V30 610 H 61.9403 3.66571 0.0461769 0
M  V30 611 H 61.5883 4.41762 2.40531 0
M  V30 612 H 61.2883 5.74122 1.25131 0
M  V30 613 H 62.8123 5.70246 2.18293 0
M  V30 614 H 64.2263 5.73232 -0.0883058 0
M  V30 615 H 62.6233 5.94026 -0.851679 0
M  V30 616 H 63.6933 4.64037 -1.40703 0
M  V30 617 N 65.0364 0.313813 1.54444 0
M  V30 618 C 66.2644 -0.293918 2.04802 0
M  V30 619 C 66.6794 -1.46537 1.19047 0
M  V30 620 O 66.0364 -1.81182 0.218939 0
M  V30 621 C 66.0874 -0.737806 3.53891 0
M  V30 622 O 65.8084 0.387038 4.36387 0
M  V30 623 C 67.3094 -1.40936 4.203 0
M  V30 624 H 64.5294 -0.0620057 0.668129 0
M  V30 625 H 67.0734 0.457169 1.99324 0
M  V30 626 H 65.2284 -1.43889 3.59687 0
M  V30 627 H 65.6424 0.0391274 5.24485 0
M  V30 628 H 67.1164 -1.67099 5.26101 0
M  V30 629 H 67.5934 -2.35355 3.70816 0
M  V30 630 H 68.1994 -0.751117 4.18615 0
M  V30 631 N 66.5145 -1.57545 0.0417849 0
M  V30 632 C 67.9305 -1.56467 -0.314704 0
M  V30 633 C 68.1305 -1.04859 -1.72066 0
M  V30 634 O 67.1865 -0.700983 -2.42575 0
M  V30 635 C 68.4995 -3.00317 -0.15174 0
M  V30 636 C 70.0475 -3.12201 -0.223553 0
M  V30 637 C 70.5225 -4.57913 -0.0892295 0
M  V30 638 N 72.0135 -4.6297 -0.145808 0
M  V30 639 C 72.7485 -5.73362 -0.0658459 0
M  V30 640 N 72.2445 -6.92769 0.0659282 0
M  V30 641 N 74.0375 -5.6197 -0.12075 0
M  V30 642 H 66.1885 -1.89416 0.961014 0
M  V30 643 H 68.4515 -0.871862 0.372237 0
M  V30 644 H 68.1575 -3.42073 0.817254 0
M  V30 645 H 68.0315 -3.65892 -0.916692 0
M  V30 646 H 70.4185 -2.70349 -1.18301 0
M  V30 647 H 70.4995 -2.49323 0.571994 0
M  V30 648 H 70.1435 -5.00448 0.866867 0
M  V30 649 H 70.0735 -5.18786 -0.903802 0
M  V30 650 H 72.5645 -3.7709 -0.247286 0
M  V30 651 H 72.8775 -7.72707 0.119905 0
M  V30 652 H 71.2225 -6.94927 0.100885 0
M  V30 653 H 74.4135 -4.67572 -0.222187 0
M  V30 654 H 74.5865 -6.47977 -0.0549735 0
M  V30 655 N 67.9926 0.231505 -1.5589 0
M  V30 656 C 68.9226 1.29022 -1.94617 0
M  V30 657 C 69.9036 1.4941 -0.813067 0
M  V30 658 O 71.0886 1.6176 -1.07459 0
M  V30 659 C 68.2186 2.64199 -2.25424 0
M  V30 660 C 67.1726 2.58484 -3.41131 0
M  V30 661 C 66.4986 3.97599 -3.57518 0
M  V30 662 C 67.7986 2.1413 -4.76388 0
M  V30 663 H 69.4926 0.968563 -2.83301 0
M  V30 664 H 67.0386 0.464479 -1.36303 0
M  V30 665 H 68.9916 3.38413 -2.51107 0
M  V30 666 H 67.7156 2.98032 -1.33583 0
M  V30 667 H 66.3746 1.86727 -3.15481 0
M  V30 668 H 66.0226 4.28723 -2.6307 0
M  V30 669 H 65.7226 3.94659 -4.35337 0
M  V30 670 H 67.2466 4.7349 -3.85538 0
M  V30 671 H 68.6606 2.78083 -5.01341 0
M  V30 672 H 67.0576 2.2227 -5.57419 0
M  V30 673 H 68.1276 1.09331 -4.72414 0
M  V30 674 N 69.4707 1.49531 0.497807 0
M  V30 675 C 70.4207 1.62829 1.59596 0
M  V30 676 C 71.4047 0.483824 1.53453 0
M  V30 677 O 72.5967 0.736937 1.60929 0
M  V30 678 C 69.7257 1.7011 2.98191 0
M  V30 679 C 68.8117 2.90144 3.09317 0
M  V30 680 N 69.2027 4.1418 2.90324 0
M  V30 681 C 67.5007 2.88148 3.40422 0
M  V30 682 C 68.2017 4.94886 3.05717 0
M  V30 683 N 67.1777 4.28314 3.34736 0
M  V30 684 H 70.9797 2.56446 1.4357 0
M  V30 685 H 68.4937 1.46347 0.704001 0
M  V30 686 H 70.4907 1.77735 3.77115 0
M  V30 687 H 69.1507 0.776315 3.15283 0
M  V30 688 H 70.1617 4.44109 2.66436 0
M  V30 689 H 66.8387 2.05061 3.63671 0
M  V30 690 H 68.2287 6.03432 2.95499 0
M  V30 691 N 70.9488 -0.749086 1.3866 0
M  V30 692 C 71.8588 -1.89358 1.38494 0
M  V30 693 C 72.8748 -1.71708 0.281476 0
M  V30 694 O 74.0508 -1.94554 0.520643 0
M  V30 695 C 71.1158 -3.24782 1.21316 0
M  V30 696 C 70.1768 -3.54926 2.41508 0
M  V30 697 C 69.4098 -4.83888 2.2514 0
M  V30 698 O 69.6328 -5.56592 1.24746 0
M  V30 699 O 68.5668 -5.13612 3.13826 0
M  V30 700 H 72.3928 -1.92452 2.34938 0
M  V30 701 H 69.9778 -0.894981 1.19626 0
M  V30 702 H 71.8598 -4.05739 1.13814 0
M  V30 703 H 70.5348 -3.2249 0.279592 0
M  V30 704 H 69.4418 -2.74112 2.54585 0
M  V30 705 H 70.7748 -3.61983 3.3351 0
M  V30 706 N 72.4269 -1.23603 -0.977757 0
M  V30 707 C 73.3569 -1.04401 -2.0886 0
M  V30 708 C 74.3379 0.0399052 -1.70053 0
M  V30 709 O 75.5229 -0.125246 -1.93796 0
M  V30 710 C 72.6529 -0.637269 -3.41403 0
M  V30 711 C 71.6069 -1.66883 -3.94124 0
M  V30 712 C 70.9329 -1.11745 -5.22893 0
M  V30 713 C 72.2329 -3.06247 -4.23096 0
M  V30 714 H 73.9269 -1.97316 -2.25182 0
M  V30 715 H 71.4729 -0.950096 -1.08209 0
M  V30 716 H 73.4259 -0.48998 -4.18542 0
M  V30 717 H 72.1499 0.327557 -3.24953 0
M  V30 718 H 70.8089 -1.80416 -3.19133 0
M  V30 719 H 70.4569 -0.143527 -5.02795 0
M  V30 720 H 70.1569 -1.80672 -5.59134 0
M  V30 721 H 71.6809 -0.982067 -6.02651 0
M  V30 722 H 73.0949 -2.96001 -4.90975 0
M  V30 723 H 71.4919 -3.72436 -4.70544 0
M  V30 724 H 72.5619 -3.55041 -3.30263 0
M  V30 725 N 73.905 1.17692 -1.04816 0
M  V30 726 C 74.815 2.25229 -0.65643 0
M  V30 727 C 75.831 1.71018 0.320761 0
M  V30 728 O 77.007 2.00649 0.173805 0
M  V30 729 C 74.072 3.46684 -0.0332629 0
M  V30 730 C 73.133 4.15997 -1.06042 0
M  V30 731 C 72.366 5.31654 -0.466893 0
M  V30 732 O 72.589 5.65777 0.724758 0
M  V30 733 O 71.523 5.89831 -1.1993 0
M  V30 734 H 75.349 2.61016 -1.55255 0
M  V30 735 H 72.934 1.24919 -0.81949 0
M  V30 736 H 74.816 4.20234 0.313256 0
M  V30 737 H 73.491 3.12703 0.836566 0
M  V30 738 H 72.398 3.44482 -1.45886 0
M  V30 739 H 73.731 4.53996 -1.90127 0
M  V30 740 N 75.3831 0.828654 1.34056 0
M  V30 741 C 76.3311 0.242973 2.31327 0
M  V30 742 C 77.3251 -0.61944 1.57668 0
M  V30 743 O 78.5311 -0.51014 1.7262 0
M  V30 744 H 74.9061 0.059834 0.749616 0
M  V30 745 H 76.8771 1.07809 2.78244 0
M  V30 746 C 75.6261 -0.575733 3.429 0
M  V30 747 H 74.9491 0.0785582 3.99723 0
M  V30 748 H 76.3891 -0.951547 4.13185 0
M  V30 749 C 74.8481 -1.75044 2.87856 0
M  V30 750 O 75.3781 -2.84882 2.83205 0
M  V30 751 N 73.5841 -1.56903 2.44602 0
M  V30 752 H 73.1311 -0.675547 2.48584 0
M  V30 753 H 73.0891 -2.35652 2.08124 0
M  V30 754 N 76.8612 -1.46375 0.584142 0
M  V30 755 C 78.1012 -2.0427 0.0729695 0
M  V30 756 C 78.4652 -1.44563 -1.26355 0
M  V30 757 O 79.6662 -1.93667 -1.86405 0
M  V30 758 C 77.9372 -3.57399 0.00967464 0
M  V30 759 S 79.4962 -4.36551 -0.443714 0
M  V30 760 H 76.3142 -0.709975 0.0381673 0
M  V30 761 H 78.9162 -1.79398 0.776962 0
M  V30 762 H 77.6202 -3.98372 0.986319 0
M  V30 763 H 77.1512 -3.8681 -0.717044 0
M  V30 764 H 79.1662 -4.66237 -1.69816 0
M  V30 765 N 78.3393 -0.321999 -1.54275 0
M  V30 766 C 79.5643 0.285791 -2.05422 0
M  V30 767 C 79.9893 1.45124 -1.19669 0
M  V30 768 O 79.3473 1.80132 -0.205441 0
M  V30 769 C 79.3953 0.69956 -3.53749 0
M  V30 770 O 78.4993 1.8021 -3.70942 0
M  V30 771 H 77.8403 0.0518962 -0.661969 0
M  V30 772 H 80.3703 -0.469954 -1.9913 0
M  V30 773 H 80.3803 0.982649 -3.9599 0
M  V30 774 H 79.0553 -0.152864 -4.15619 0
M  V30 775 H 77.6323 1.51794 -3.40607 0
M  V30 776 N 79.8174 1.5752 -0.0501392 0
M  V30 777 C 81.0634 1.92936 0.624798 0
M  V30 778 C 81.3964 0.928685 1.70555 0
M  V30 779 O 80.6714 -0.0454779 1.94447 0
M  V30 780 C 80.9544 3.38737 1.22185 0
M  V30 781 C 80.8074 4.49552 0.149218 0
M  V30 782 C 82.1264 3.84913 2.13378 0
M  V30 783 H 79.2454 0.701604 0.225657 0
M  V30 784 H 81.8874 1.89671 -0.111693 0
M  V30 785 H 80.0374 3.4165 1.84953 0
M  V30 786 H 81.7094 4.58768 -0.482648 0
M  V30 787 H 79.9524 4.30638 -0.522841 0
M  V30 788 H 80.6234 5.48653 0.606966 0
M  V30 789 H 83.0994 3.8387 1.60572 0
M  V30 790 H 81.9754 4.87584 2.52097 0
M  V30 791 H 82.2364 3.21611 3.03346 0
M  V30 792 N 81.2955 -0.223234 1.56011 0
M  V30 793 C 82.5445 -0.945912 1.78144 0
M  V30 794 C 82.8575 -1.85567 0.618396 0
M  V30 795 O 84.0635 -2.61688 0.723318 0
M  V30 796 C 82.5195 -1.73216 3.15475 0
M  V30 797 C 82.1275 -0.868619 4.39499 0
M  V30 798 C 83.8715 -2.44615 3.46935 0
M  V30 799 C 81.7785 -1.65212 5.67855 0
M  V30 800 H 80.7085 -0.356929 0.664167 0
M  V30 801 H 83.3595 -0.199845 1.82409 0
M  V30 802 H 81.7415 -2.52107 3.05382 0
M  V30 803 H 82.9155 -0.120366 4.60643 0
M  V30 804 H 81.2305 -0.26683 4.15544 0
M  V30 805 H 83.8275 -3.03732 4.40058 0
M  V30 806 H 84.1705 -3.17417 2.69355 0
M  V30 807 H 84.7035 -1.72715 3.58349 0
M  V30 808 H 81.4425 -0.967407 6.48322 0
M  V30 809 H 80.9625 -2.37503 5.50774 0
M  V30 810 H 82.6415 -2.21322 6.07968 0
M  V30 811 N 82.7736 -1.49793 -0.48987 0
M  V30 812 C 83.6836 -1.70036 -1.61632 0
M  V30 813 C 84.6996 -0.583102 -1.63939 0
M  V30 814 O 85.8756 -0.859169 -1.82154 0
M  V30 815 C 82.9406 -1.77277 -2.97949 0
M  V30 816 C 82.0016 -3.00918 -3.06181 0
M  V30 817 C 81.2346 -3.07804 -4.35996 0
M  V30 818 O 81.4576 -2.21982 -5.25433 0
M  V30 819 O 80.3916 -4.00369 -4.49431 0
M  V30 820 H 84.2176 -2.65486 -1.47482 0
M  V30 821 H 81.8026 -1.33666 -0.667362 0
M  V30 822 H 83.6846 -1.84329 -3.78947 0
M  V30 823 H 82.3596 -0.850076 -3.12339 0
M  V30 824 H 81.2666 -2.99377 -2.2433 0
M  V30 825 H 82.5996 -3.92704 -2.96723 0
M  V30 826 N 84.2517 0.741722 -1.39055 0
M  V30 827 C 85.4997 1.49818 -1.35643 0
M  V30 828 C 85.8207 1.94938 0.0491642 0
M  V30 829 O 85.0907 1.68505 0.999141 0
M  V30 830 H 83.6707 0.555755 -0.499144 0
M  V30 831 H 86.3327 0.880957 -1.73854 0
M  V30 832 H 85.4287 2.38348 -2.01486 0
M  V30 833 N 85.7298 1.2412 0.971189 0
M  V30 834 C 86.6798 0.997551 2.05019 0
M  V30 835 C 87.6638 -0.0597747 1.60789 0
M  V30 836 O 88.8558 0.153516 1.76333 0
M  V30 837 C 85.9848 0.600557 3.38006 0
M  V30 838 C 85.0708 1.69377 3.88809 0
M  V30 839 N 85.4618 2.92586 4.12586 0
M  V30 840 C 83.7598 1.57048 4.17435 0
M  V30 841 C 84.4608 3.63431 4.54195 0
M  V30 842 N 83.4368 2.90979 4.59165 0
M  V30 843 H 87.2388 1.93316 2.21374 0
M  V30 844 H 84.7528 1.14194 1.1547 0
M  V30 845 H 86.7498 0.40725 4.14906 0
M  V30 846 H 85.4098 -0.327903 3.2304 0
M  V30 847 H 86.4208 3.288 4.00139 0
M  V30 848 H 83.0978 0.709798 4.11422 0
M  V30 849 H 84.4878 4.69102 4.81033 0
M  V30 850 N 87.2079 -1.17134 1.05439 0
M  V30 851 C 88.1379 -2.2342 0.678649 0
M  V30 852 C 89.1189 -1.66971 -0.32476 0
M  V30 853 O 90.3039 -1.93149 -0.201802 0
M  V30 854 C 87.4339 -3.47256 0.0552099 0
M  V30 855 C 86.3879 -4.16543 0.98365 0
M  V30 856 C 85.7139 -5.34231 0.223961 0
M  V30 857 C 87.0139 -4.68495 2.3089 0
M  V30 858 H 88.7079 -2.55105 1.56722 0
M  V30 859 H 86.2539 -1.2262 0.754998 0
M  V30 860 H 88.2069 -4.20828 -0.21946 0
M  V30 861 H 86.9309 -3.14846 -0.868319 0
M  V30 862 H 85.5899 -3.44887 1.24293 0
M  V30 863 H 85.2379 -4.98071 -0.702412 0
M  V30 864 H 84.9379 -5.81527 0.842627 0
M  V30 865 H 86.4619 -6.10585 -0.0433671 0
M  V30 866 H 87.8759 -5.33691 2.09396 0
M  V30 867 H 86.2729 -5.26379 2.88176 0
M  V30 868 H 87.3429 -3.85169 2.94572 0
M  V30 869 N 88.686 -0.835752 -1.33615 0
M  V30 870 C 89.618 -0.224151 -2.28101 0
M  V30 871 C 90.631 0.593331 -1.51603 0
M  V30 872 O 91.82 0.420911 -1.73466 0
M  V30 873 C 88.92 0.703309 -3.31522 0
M  V30 874 C 88.093 -0.0741528 -4.37337 0
M  V30 875 C 87.152 0.776176 -5.20444 0
M  V30 876 O 86.178 0.216506 -5.68788 0
M  V30 877 N 87.38 2.09401 -5.41416 0
M  V30 878 H 90.145 -1.03598 -2.81225 0
M  V30 879 H 87.706 -0.69392 -1.46275 0
M  V30 880 H 89.698 1.27707 -3.84022 0
M  V30 881 H 88.268 1.41585 -2.78698 0
M  V30 882 H 87.488 -0.82928 -3.85378 0
M  V30 883 H 88.776 -0.608863 -5.05144 0
M  V30 884 H 88.174 2.57229 -5.03835 0
M  V30 885 H 86.731 2.61633 -5.96985 0
M  V30 886 N 90.1641 1.46063 -0.591896 0
M  V30 887 C 91.4131 2.01547 -0.0786637 0
M  V30 888 C 91.7261 1.46796 1.29268 0
M  V30 889 O 92.9321 1.94157 1.89777 0
M  V30 890 C 91.3881 3.59787 -0.0900024 0
M  V30 891 C 90.9961 4.23534 -1.46023 0
M  V30 892 C 92.7401 4.22895 0.368806 0
M  V30 893 C 90.6471 5.73881 -1.4288 0
M  V30 894 H 89.5771 0.753564 -0.0256388 0
M  V30 895 H 92.2281 1.677 -0.744905 0
M  V30 896 H 90.6101 3.90752 0.642586 0
M  V30 897 H 91.7841 4.04167 -2.21328 0
M  V30 898 H 90.0991 3.72558 -1.85982 0
M  V30 899 H 92.6961 5.33116 0.411258 0
M  V30 900 H 93.0391 3.9247 1.38827 0
M  V30 901 H 93.5721 3.9659 -0.31001 0
M  V30 902 H 90.3111 6.0898 -2.42536 0
M  V30 903 H 89.8311 5.95486 -0.718095 0
M  V30 904 H 91.5101 6.36776 -1.14565 0
M  V30 905 N 91.6422 0.330177 1.54103 0
M  V30 906 C 92.5722 -0.525353 2.27513 0
M  V30 907 C 93.5532 -1.11383 1.2856 0
M  V30 908 O 94.7382 -1.13773 1.57383 0
M  V30 909 C 91.8682 -1.6831 3.03791 0
M  V30 910 C 90.8222 -1.2236 4.10137 0
M  V30 911 C 90.1482 -2.46882 4.74293 0
M  V30 912 C 91.4482 -0.333697 5.21233 0
M  V30 913 H 93.1422 0.087013 2.99274 0
M  V30 914 H 90.6882 0.0432893 1.43935 0
M  V30 915 H 92.6412 -2.28795 3.5388 0
M  V30 916 H 91.3652 -2.32216 2.29659 0
M  V30 917 H 90.0242 -0.64165 3.60941 0
M  V30 918 H 89.6722 -3.09165 3.96769 0
M  V30 919 H 89.3722 -2.16825 5.46133 0
M  V30 920 H 90.8962 -3.08117 5.27159 0
M  V30 921 H 92.3102 -0.845013 5.67038 0
M  V30 922 H 90.7072 -0.125612 5.99969 0
M  V30 923 H 91.7772 0.633724 4.80741 0
M  V30 924 N 93.1203 -1.57491 0.0584922 0
M  V30 925 C 94.0503 -2.14988 -0.911178 0
M  V30 926 C 95.0313 -1.07343 -1.31952 0
M  V30 927 O 96.2163 -1.35318 -1.39294 0
M  V30 928 C 93.3463 -2.70078 -2.18347 0
M  V30 929 C 92.3003 -3.82771 -1.91495 0
M  V30 930 C 91.6263 -4.24408 -3.25241 0
M  V30 931 C 92.9263 -5.07592 -1.23075 0
M  V30 932 H 94.6203 -2.96263 -0.432246 0
M  V30 933 H 92.1663 -1.42512 -0.206469 0
M  V30 934 H 94.1193 -3.08943 -2.86587 0
M  V30 935 H 92.8433 -1.86005 -2.68458 0
M  V30 936 H 91.5023 -3.44389 -1.25664 0
M  V30 937 H 91.1503 -3.37275 -3.73168 0
M  V30 938 H 90.8503 -5.00366 -3.08071 0
M  V30 939 H 92.3743 -4.65879 -3.94701 0
M  V30 940 H 93.7883 -5.43857 -1.81362 0
M  V30 941 H 92.1853 -5.88741 -1.16207 0
M  V30 942 H 93.2553 -4.84454 -0.207847 0
M  V30 943 N 94.5984 0.214957 -1.56127 0
M  V30 944 C 95.5314 1.29382 -1.87977 0
M  V30 945 C 96.5094 1.44897 -0.737807 0
M  V30 946 O 97.6934 1.60605 -0.986833 0
M  V30 947 C 94.8204 2.66325 -2.09258 0
M  V30 948 C 93.8664 2.67789 -3.31951 0
M  V30 949 S 94.6994 2.21198 -4.8768 0
M  V30 950 C 95.8554 3.60003 -5.12004 0
M  V30 951 H 96.0884 1.02173 -2.79192 0
M  V30 952 H 93.6214 0.417516 -1.48648 0
M  V30 953 H 95.5794 3.45162 -2.22201 0
M  V30 954 H 94.2404 2.90755 -1.18829 0
M  V30 955 H 93.4334 3.68436 -3.43906 0
M  V30 956 H 93.0354 1.9702 -3.17898 0
M  V30 957 H 95.3274 4.55739 -5.01307 0
M  V30 958 H 96.2704 3.52959 -6.13861 0
M  V30 959 H 96.6784 3.53996 -4.39712 0
M  V30 960 N 96.0765 1.50051 0.48192 0
M  V30 961 C 97.3235 1.60498 1.23477 0
M  V30 962 C 97.6515 0.300331 1.92167 0
M  V30 963 O 96.9065 -0.713094 1.82246 0
M  V30 964 C 97.2055 2.72717 2.30998 0
M  V30 965 C 96.8715 4.13572 1.79636 0
M  V30 966 C 95.5335 4.519 1.65348 0
M  V30 967 C 97.8855 5.01649 1.41412 0
M  V30 968 C 95.2135 5.76057 1.11244 0
M  V30 969 C 97.5655 6.26343 0.887538 0
M  V30 970 C 96.2295 6.63483 0.731207 0
M  V30 971 H 95.4995 0.587303 0.451836 0
M  V30 972 H 98.1465 1.83948 0.532468 0
M  V30 973 H 96.4515 2.43312 3.07094 0
M  V30 974 H 98.1485 2.78006 2.88988 0
M  V30 975 H 94.7385 3.83329 1.91721 0
M  V30 976 H 98.9225 4.72679 1.51289 0
M  V30 977 H 94.1785 6.03516 0.978686 0
M  V30 978 H 98.3525 6.93958 0.582654 0
M  V30 979 H 95.9795 7.59568 0.309806 0
M  V30 980 N 97.5546 -0.734337 1.39446 0
M  V30 981 C 98.5016 -1.84835 1.38219 0
M  V30 982 C 99.4716 -1.64331 0.24179 0
M  V30 983 O 100.657 -1.85728 0.437002 0
M  V30 984 C 97.7966 -3.22355 1.23212 0
M  V30 985 C 96.9096 -3.5456 2.46801 0
M  V30 986 C 96.0446 -4.81485 2.24377 0
M  V30 987 C 95.0836 -5.06536 3.43639 0
M  V30 988 N 94.2206 -6.24665 3.20528 0
M  V30 989 H 99.0606 -1.85219 2.33448 0
M  V30 990 H 96.5976 -0.905039 1.15963 0
M  V30 991 H 98.5556 -4.0174 1.12522 0
M  V30 992 H 97.1856 -3.21248 0.316121 0
M  V30 993 H 96.2376 -2.69872 2.68092 0
M  V30 994 H 97.5496 -3.6899 3.3563 0
M  V30 995 H 96.7036 -5.68852 2.10933 0
M  V30 996 H 95.4426 -4.6923 1.32944 0
M  V30 997 H 94.4476 -4.17632 3.5758 0
M  V30 998 H 95.6726 -5.20676 4.35974 0
M  V30 999 H 93.6186 -6.13696 2.3176 0
M  V30 1000 H 93.5356 -6.39685 4.02913 0
M  V30 1001 H 94.8036 -7.14868 3.10779 0
M  V30 1002 N 99.0327 -1.24633 -0.964593 0
M  V30 1003 C 100.261 -1.11501 -1.74285 0
M  V30 1004 C 100.676 0.332165 -1.85855 0
M  V30 1005 O 100.033 1.22903 -1.34911 0
M  V30 1006 C 100.084 -1.75258 -3.16175 0
M  V30 1007 O 99.8047 -3.14318 -3.05182 0
M  V30 1008 C 101.306 -1.67776 -4.10324 0
M  V30 1009 H 98.5257 -0.389407 -0.546446 0
M  V30 1010 H 101.07 -1.64801 -1.21083 0
M  V30 1011 H 99.2247 -1.25954 -3.66353 0
M  V30 1012 H 99.6387 -3.4551 -3.94618 0
M  V30 1013 H 101.113 -2.17064 -5.0753 0
M  V30 1014 H 101.59 -0.639584 -4.34518 0
M  V30 1015 H 102.196 -2.16522 -3.66058 0
M  V30 1016 N 100.511 1.16574 -1.06058 0
M  V30 1017 C 101.927 1.3904 -0.783585 0
M  V30 1018 C 102.127 1.91784 0.618145 0
M  V30 1019 O 101.183 2.11511 1.37911 0
M  V30 1020 C 102.496 2.37329 -1.84649 0
M  V30 1021 C 104.044 2.51018 -1.86973 0
M  V30 1022 C 104.519 3.52588 -2.92311 0
M  V30 1023 N 106.01 3.60113 -2.91329 0
M  V30 1024 C 106.745 4.38486 -3.69482 0
M  V30 1025 N 106.241 5.20302 -4.57447 0
M  V30 1026 N 108.034 4.33446 -3.57885 0
M  V30 1027 H 100.185 0.806725 -1.96483 0
M  V30 1028 H 102.448 0.417117 -0.851303 0
M  V30 1029 H 102.154 2.05663 -2.85299 0
M  V30 1030 H 102.028 3.36946 -1.6955 0
M  V30 1031 H 104.415 2.81989 -0.869827 0
M  V30 1032 H 104.496 1.51445 -2.0615 0
M  V30 1033 H 104.14 3.22354 -3.92492 0
M  V30 1034 H 104.07 4.51886 -2.70383 0
M  V30 1035 H 106.561 3.01707 -2.27555 0
M  V30 1036 H 106.874 5.77311 -5.13743 0
M  V30 1037 H 105.219 5.19653 -4.61503 0
M  V30 1038 H 108.41 3.68586 -2.88551 0
M  V30 1039 H 108.583 4.94279 -4.19037 0
M  V30 1040 N 101.989 0.842826 1.3317 0
M  V30 1041 C 103.4 0.496651 1.79973 0
M  V30 1042 C 103.751 -0.984641 1.69703 0
M  V30 1043 O 102.876 -1.76743 1.24863 0
M  V30 1044 C 103.471 0.894727 3.26772 0
M  V30 1045 C 102.03 0.600629 3.71577 0
M  V30 1046 C 101.177 1.10091 2.5451 0
M  V30 1047 H 104.128 1.03116 1.20635 0
M  V30 1048 H 104.149 0.206347 3.7994 0
M  V30 1049 H 103.661 1.97287 3.34215 0
M  V30 1050 H 101.762 -0.467284 3.69658 0
M  V30 1051 H 101.875 1.15863 4.64879 0
M  V30 1052 H 100.239 0.52162 2.49301 0
M  V30 1053 H 101.022 2.18591 2.64713 0
M  V30 1054 N 103.467 -1.45747 0.599634 0
M  V30 1055 C 104.377 -2.34262 -0.125888 0
M  V30 1056 C 105.393 -1.50768 -0.868625 0
M  V30 1057 O 106.569 -1.83592 -0.828003 0
M  V30 1058 C 103.634 -3.28252 -1.11587 0
M  V30 1059 C 102.695 -4.27651 -0.375956 0
M  V30 1060 C 101.928 -5.1715 -1.31877 0
M  V30 1061 O 102.151 -5.09916 -2.55621 0
M  V30 1062 O 101.085 -5.96286 -0.820157 0
M  V30 1063 H 104.911 -2.97688 0.601315 0
M  V30 1064 H 102.496 -1.44999 0.359934 0
M  V30 1065 H 104.378 -3.86191 -1.68626 0
M  V30 1066 H 103.053 -2.67401 -1.82424 0
M  V30 1067 H 101.96 -3.7335 0.236698 0
M  V30 1068 H 103.293 -4.91334 0.29177 0
M  V30 1069 N 104.945 -0.338344 -1.53925 0
M  V30 1070 C 106.222 0.314774 -1.93051 0
M  V30 1071 C 106.602 1.68669 -1.26941 0
M  V30 1072 O 105.95 2.24636 -0.418445 0
M  V30 1073 C 106.16 0.392249 -3.46789 0
M  V30 1074 C 107.508 0.645554 -4.19664 0
M  V30 1075 O 108.532 0.474575 -3.53024 0
M  V30 1076 O 107.391 0.976408 -5.37707 0
M  V30 1077 H 104.485 0.182598 -0.80659 0
M  V30 1078 H 107.031 -0.389141 -1.65178 0
M  V30 1079 H 105.803 -0.570702 -3.87116 0
M  V30 1080 H 105.426 1.14316 -3.80812 0
M  V30 1081 N 106.423 1.57458 -0.0668435 0
M  V30 1082 C 107.67 1.93301 0.603406 0
M  V30 1083 C 107.998 0.946486 1.69917 0
M  V30 1084 O 107.253 -0.0387021 1.95662 0
M  V30 1085 C 107.552 3.35784 1.22409 0
M  V30 1086 C 107.218 4.50179 0.254955 0
M  V30 1087 C 105.88 4.81199 -0.0116746 0
M  V30 1088 C 108.232 5.19598 -0.408338 0
M  V30 1089 C 105.56 5.78978 -0.94877 0
M  V30 1090 C 107.912 6.18381 -1.33372 0
M  V30 1091 C 106.576 6.47821 -1.60887 0
M  V30 1092 H 105.846 0.707338 0.220802 0
M  V30 1093 H 108.493 1.91012 -0.136665 0
M  V30 1094 H 106.798 3.34515 2.03978 0
M  V30 1095 H 108.495 3.60804 1.74989 0
M  V30 1096 H 105.085 4.25983 0.472954 0
M  V30 1097 H 109.269 4.95832 -0.215456 0
M  V30 1098 H 104.525 6.00115 -1.16925 0
M  V30 1099 H 108.699 6.71277 -1.85367 0
M  V30 1100 H 106.326 7.23399 -2.33661 0
M  V30 1101 N 107.901 -0.206675 1.56239 0
M  V30 1102 C 109.317 -0.557025 1.49564 0
M  V30 1103 C 109.517 -1.86424 0.764735 0
M  V30 1104 O 108.573 -2.50584 0.310491 0
M  V30 1105 C 109.886 -0.622478 2.94186 0
M  V30 1106 C 111.434 -0.712099 3.04792 0
M  V30 1107 C 111.909 -0.808767 4.50803 0
M  V30 1108 N 113.4 -0.8726 4.54907 0
M  V30 1109 C 114.135 -0.967365 5.65181 0
M  V30 1110 N 113.631 -1.02515 6.85173 0
M  V30 1111 N 115.424 -1.00366 5.53067 0
M  V30 1112 H 107.575 0.650943 2.02179 0
M  V30 1113 H 109.838 0.230387 0.919579 0
M  V30 1114 H 109.544 0.268727 3.50672 0
M  V30 1115 H 109.418 -1.4811 3.46905 0
M  V30 1116 H 111.805 -1.59374 2.48363 0
M  V30 1117 H 111.886 0.172489 2.55218 0
M  V30 1118 H 111.53 0.0684754 5.07854 0
M  V30 1119 H 111.46 -1.70899 4.98098 0
M  V30 1120 H 113.951 -0.837657 3.68499 0
M  V30 1121 H 114.264 -1.09765 7.64965 0
M  V30 1122 H 112.609 -0.994026 6.87855 0
M  V30 1123 H 115.8 -0.95527 4.58249 0
M  V30 1124 H 115.973 -1.07405 6.39037 0
M  V30 1125 N 109.379 -1.50304 -0.473955 0
M  V30 1126 C 110.656 -1.51667 -1.23518 0
M  V30 1127 C 111.036 -0.259701 -2.09496 0
M  V30 1128 O 110.384 0.756986 -2.15597 0
M  V30 1129 C 110.594 -2.81082 -2.06868 0
M  V30 1130 C 111.942 -3.31631 -2.65153 0
M  V30 1131 O 112.966 -2.82384 -2.17113 0
M  V30 1132 O 111.825 -4.17471 -3.52675 0
M  V30 1133 H 108.919 -0.60822 -0.560355 0
M  V30 1134 H 111.465 -1.62592 -0.486011 0
M  V30 1135 H 110.237 -3.64041 -1.4349 0
M  V30 1136 H 109.86 -2.73146 -2.88924 0
M  V30 1137 N 110.857 0.726932 -1.39834 0
M  V30 1138 C 111.787 1.85405 -1.41941 0
M  V30 1139 C 112.768 1.67751 -0.281728 0
M  V30 1140 O 113.953 1.8795 -0.488717 0
M  V30 1141 C 111.083 3.23243 -1.2701 0
M  V30 1142 C 110.037 3.55549 -2.38262 0
M  V30 1143 C 109.363 4.9241 -2.08415 0
M  V30 1144 C 110.663 3.577 -3.80589 0
M  V30 1145 H 112.357 1.83899 -2.36266 0
M  V30 1146 H 109.903 0.883349 -1.13723 0
M  V30 1147 H 111.856 4.01775 -1.27103 0
M  V30 1148 H 110.58 3.25296 -0.291564 0
M  V30 1149 H 109.239 2.79351 -2.37399 0
M  V30 1150 H 108.887 4.91052 -1.0898 0
M  V30 1151 H 108.587 5.14992 -2.82943 0
M  V30 1152 H 110.111 5.73289 -2.10171 0
M  V30 1153 H 111.525 4.26293 -3.83337 0
M  V30 1154 H 109.922 3.91804 -4.54543 0
M  V30 1155 H 110.992 2.57328 -4.10987 0
M  V30 1156 N 112.336 1.25143 0.95797 0
M  V30 1157 C 113.561 1.12521 1.74223 0
M  V30 1158 C 113.986 -0.317402 1.85403 0
M  V30 1159 O 113.344 -1.2299 1.33204 0
M  V30 1160 C 113.392 1.78062 3.1357 0
M  V30 1161 O 112.496 1.058 3.98598 0
M  V30 1162 H 111.837 0.39304 0.535178 0
M  V30 1163 H 114.367 1.65641 1.201 0
M  V30 1164 H 114.377 1.84213 3.64046 0
M  V30 1165 H 113.052 2.83021 3.04749 0
M  V30 1166 H 111.629 1.07506 3.57067 0
M  V30 1167 N 113.814 -1.1601 1.06675 0
M  V30 1168 C 115.061 -1.86633 0.785781 0
M  V30 1169 C 115.389 -1.81929 -0.687896 0
M  V30 1170 O 114.644 -1.23253 -1.52011 0
M  V30 1171 C 114.943 -3.35547 1.23057 0
M  V30 1172 C 114.609 -3.60448 2.70902 0
M  V30 1173 C 113.271 -3.66954 3.11285 0
M  V30 1174 C 115.623 -3.7071 3.66365 0
M  V30 1175 C 112.951 -3.81225 4.45965 0
M  V30 1176 C 115.303 -3.86503 5.00797 0
M  V30 1177 C 113.967 -3.91252 5.40813 0
M  V30 1178 H 113.237 -0.682937 0.287538 0
M  V30 1179 H 115.884 -1.37146 1.33654 0
M  V30 1180 H 114.189 -3.87193 0.59907 0
M  V30 1181 H 115.886 -3.88583 0.990163 0
M  V30 1182 H 112.476 -3.56021 2.38636 0
M  V30 1183 H 116.66 -3.64991 3.36296 0
M  V30 1184 H 111.916 -3.83155 4.76447 0
M  V30 1185 H 116.09 -3.93385 5.74649 0
M  V30 1186 H 113.717 -4.02062 6.45174 0
M  V30 1187 N 115.292 -0.849877 -1.32721 0
M  V30 1188 C 116.703 -0.506188 -1.79707 0
M  V30 1189 C 117.054 0.975627 -1.70223 0
M  V30 1190 O 116.179 1.76078 -1.25799 0
M  V30 1191 C 116.774 -0.912044 -3.26293 0
M  V30 1192 C 115.333 -0.620326 -3.71253 0
M  V30 1193 C 114.48 -1.11439 -2.53922 0
M  V30 1194 H 117.431 -1.03754 -1.20087 0
M  V30 1195 H 117.452 -0.226493 -3.79825 0
M  V30 1196 H 116.964 -1.99057 -3.33164 0
M  V30 1197 H 115.065 0.447674 -3.69901 0
M  V30 1198 H 115.178 -1.18327 -4.64258 0
M  V30 1199 H 113.542 -0.534834 -2.49021 0
M  V30 1200 H 114.325 -2.19992 -2.6355 0
M  V30 1201 N 116.77 1.45427 -0.607355 0
M  V30 1202 C 117.717 2.3053 0.111625 0
M  V30 1203 C 118.687 1.4209 0.860216 0
M  V30 1204 O 119.872 1.71019 0.845998 0
M  V30 1205 C 117.012 3.26992 1.10319 0
M  V30 1206 C 116.125 4.30535 0.355493 0
M  V30 1207 C 115.26 5.14105 1.33676 0
M  V30 1208 C 114.299 6.09376 0.576862 0
M  V30 1209 N 113.436 6.85727 1.5074 0
M  V30 1210 H 118.276 2.91477 -0.620093 0
M  V30 1211 H 115.813 1.43631 -0.317594 0
M  V30 1212 H 117.771 3.81385 1.6912 0
M  V30 1213 H 116.401 2.67799 1.80232 0
M  V30 1214 H 115.453 3.78805 -0.348023 0
M  V30 1215 H 116.765 4.98235 -0.237423 0
M  V30 1216 H 115.919 5.72897 1.99684 0
M  V30 1217 H 114.658 4.46423 1.9636 0
M  V30 1218 H 113.663 5.49715 -0.0968519 0
M  V30 1219 H 114.888 6.79085 -0.0449341 0
M  V30 1220 H 112.834 6.20735 2.12189 0
M  V30 1221 H 112.751 7.49778 0.967913 0
M  V30 1222 H 114.019 7.4906 2.15706 0
M  V30 1223 N 118.248 0.346503 1.53744 0
M  V30 1224 C 119.178 -0.501193 2.28058 0
M  V30 1225 C 120.159 -1.10014 1.29734 0
M  V30 1226 O 121.344 -1.12097 1.58581 0
M  V30 1227 C 118.474 -1.65078 3.05559 0
M  V30 1228 C 117.428 -1.18003 4.11411 0
M  V30 1229 C 116.754 -2.41837 4.76884 0
M  V30 1230 C 118.054 -0.278394 5.21558 0
M  V30 1231 H 119.748 0.11875 2.99164 0
M  V30 1232 H 117.294 0.0585531 1.43881 0
M  V30 1233 H 119.247 -2.25028 3.56287 0
M  V30 1234 H 117.971 -2.29767 2.32109 0
M  V30 1235 H 116.63 -0.603331 3.61601 0
M  V30 1236 H 116.278 -3.0494 4.00026 0
M  V30 1237 H 115.978 -2.1102 5.48402 0
M  V30 1238 H 117.502 -3.02508 5.30397 0
M  V30 1239 H 118.916 -0.784823 5.67903 0
M  V30 1240 H 117.313 -0.0619707 6.00068 0
M  V30 1241 H 118.383 0.684677 4.80042 0
M  V30 1242 N 119.726 -1.57421 0.075193 0
M  V30 1243 C 120.975 -1.92794 -0.592731 0
M  V30 1244 C 121.288 -0.957478 -1.70563 0
M  V30 1245 O 122.494 -1.20417 -2.43335 0
M  V30 1246 C 120.95 -3.42495 -1.10569 0
M  V30 1247 C 120.558 -4.47994 -0.0236121 0
M  V30 1248 C 122.302 -3.86864 -1.74748 0
M  V30 1249 C 120.209 -5.88829 -0.550803 0
M  V30 1250 H 119.139 -0.719591 -0.225177 0
M  V30 1251 H 121.79 -1.82902 0.147978 0
M  V30 1252 H 120.172 -3.47471 -1.89947 0
M  V30 1253 H 121.346 -4.54637 0.751099 0
M  V30 1254 H 119.661 -4.13113 0.522159 0
M  V30 1255 H 122.258 -4.8947 -2.15229 0
M  V30 1256 H 122.601 -3.24417 -2.60882 0
M  V30 1257 H 123.134 -3.84504 -1.01986 0
M  V30 1258 H 119.873 -6.54929 0.273457 0
M  V30 1259 H 119.393 -5.85698 -1.29296 0
M  V30 1260 H 121.072 -6.38811 -1.02613 0
M  V30 1261 N 121.204 0.198386 -1.56346 0
M  V30 1262 C 122.137 1.27381 -1.89339 0
M  V30 1263 C 123.115 1.44106 -0.753134 0
M  V30 1264 O 124.299 1.59549 -1.00381 0
M  V30 1265 C 121.426 2.6409 -2.12071 0
M  V30 1266 C 120.472 2.64253 -3.34772 0
M  V30 1267 S 121.305 2.16013 -4.89999 0
M  V30 1268 C 122.461 3.54553 -5.15794 0
M  V30 1269 H 122.694 0.992058 -2.8026 0
M  V30 1270 H 120.227 0.401726 -1.49082 0
M  V30 1271 H 122.185 3.42786 -2.2585 0
M  V30 1272 H 120.846 2.89478 -1.21906 0
M  V30 1273 H 120.039 3.64768 -3.47794 0
M  V30 1274 H 119.641 1.93637 -3.1997 0
M  V30 1275 H 121.933 4.50396 -5.06112 0
M  V30 1276 H 122.876 3.46428 -6.1757 0
M  V30 1277 H 123.284 3.49313 -4.43442 0
M  V30 1278 N 122.682 1.50554 0.465978 0
M  V30 1279 C 123.931 1.61038 1.21448 0
M  V30 1280 C 124.244 0.31865 1.92987 0
M  V30 1281 O 125.45 0.302469 2.6981 0
M  V30 1282 C 123.906 2.84283 2.20706 0
M  V30 1283 C 123.514 4.20352 1.54946 0
M  V30 1284 C 125.258 3.04115 2.96166 0
M  V30 1285 C 123.165 5.34778 2.5252 0
M  V30 1286 H 122.095 0.599718 0.457005 0
M  V30 1287 H 124.746 1.7699 0.484424 0
M  V30 1288 H 123.128 2.61901 2.97025 0
M  V30 1289 H 124.302 4.53008 0.843811 0
M  V30 1290 H 122.617 4.06167 0.917475 0
M  V30 1291 H 125.214 3.86774 3.69202 0
M  V30 1292 H 125.557 2.16045 3.55852 0
M  V30 1293 H 126.09 3.26702 2.26959 0
M  V30 1294 H 122.829 6.25018 1.97566 0
M  V30 1295 H 122.349 5.06534 3.21222 0
M  V30 1296 H 124.028 5.65561 3.14245 0
M  V30 1297 N 124.16 -0.719506 1.40217 0
M  V30 1298 C 125.388 -1.50864 1.41589 0
M  V30 1299 C 125.803 -1.88794 0.0145275 0
M  V30 1300 O 125.16 -1.55174 -0.960594 0
M  V30 1301 C 125.211 -2.78646 2.30302 0
M  V30 1302 O 124.932 -2.42321 3.64983 0
M  V30 1303 C 126.433 -3.72569 2.40224 0
M  V30 1304 H 123.653 -0.465709 0.48307 0
M  V30 1305 H 126.197 -0.88785 1.84221 0
M  V30 1306 H 124.352 -3.37019 1.91042 0
M  V30 1307 H 124.766 -3.24514 4.12057 0
M  V30 1308 H 126.24 -4.5908 3.06512 0
M  V30 1309 H 126.717 -4.15403 1.42608 0
M  V30 1310 H 127.323 -3.20109 2.80019 0
M  V30 1311 N 125.638 -1.25649 -0.95132 0
M  V30 1312 C 126.915 -1.01361 -1.67288 0
M  V30 1313 C 127.295 0.459135 -2.06046 0
M  V30 1314 O 126.643 1.43723 -1.7764 0
M  V30 1315 C 126.853 -1.95256 -2.89268 0
M  V30 1316 C 128.201 -2.23289 -3.61147 0
M  V30 1317 O 129.225 -1.93041 -2.99355 0
M  V30 1318 O 128.084 -2.74741 -4.72419 0
M  V30 1319 H 125.178 -0.38464 -0.732107 0
M  V30 1320 H 127.724 -1.36817 -1.00395 0
M  V30 1321 H 126.496 -2.94685 -2.57442 0
M  V30 1322 H 126.119 -1.60218 -3.6389 0
M  V30 1323 N 127.117 1.15442 -1.07289 0
M  V30 1324 C 128.347 1.89821 -0.815576 0
M  V30 1325 C 128.755 1.7823 0.634867 0
M  V30 1326 O 128.098 1.13152 1.44715 0
M  V30 1327 C 128.16 3.40817 -1.14385 0
M  V30 1328 C 127.824 3.76193 -2.59476 0
M  V30 1329 C 128.821 3.77269 -3.57721 0
M  V30 1330 C 126.506 4.0652 -2.95037 0
M  V30 1331 C 128.5 4.08176 -4.89562 0
M  V30 1332 C 126.187 4.37092 -4.27076 0
M  V30 1333 C 127.185 4.37902 -5.24148 0
M  V30 1334 O 126.873 4.67741 -6.53815 0
M  V30 1335 H 126.605 0.608465 -0.294528 0
M  V30 1336 H 129.159 1.472 -1.43252 0
M  V30 1337 H 127.389 3.83835 -0.469865 0
M  V30 1338 H 129.078 3.96485 -0.869179 0
M  V30 1339 H 129.844 3.5394 -3.3159 0
M  V30 1340 H 125.723 4.05049 -2.20128 0
M  V30 1341 H 129.267 4.08723 -5.65324 0
M  V30 1342 H 125.164 4.59889 -4.5296 0
M  V30 1343 H 125.932 4.85509 -6.58957 0
M  V30 1344 N 128.595 0.856903 1.32268 0
M  V30 1345 C 129.525 0.31858 2.31316 0
M  V30 1346 C 130.506 -0.583487 1.59779 0
M  V30 1347 O 131.691 -0.503259 1.87566 0
M  V30 1348 C 128.821 -0.491979 3.43798 0
M  V30 1349 C 127.775 0.315849 4.26833 0
M  V30 1350 C 127.101 -0.619586 5.31098 0
M  V30 1351 C 128.401 1.54282 4.98993 0
M  V30 1352 H 130.095 1.14621 2.76591 0
M  V30 1353 H 127.641 0.552613 1.32974 0
M  V30 1354 H 129.594 -0.879012 4.1213 0
M  V30 1355 H 128.318 -1.35299 2.97257 0
M  V30 1356 H 126.977 0.684664 3.6015 0
M  V30 1357 H 126.625 -1.47751 4.8081 0
M  V30 1358 H 126.325 -0.0830621 5.87541 0
M  V30 1359 H 127.849 -1.00375 6.02293 0
M  V30 1360 H 129.263 1.22796 5.59995 0
M  V30 1361 H 127.66 2.01745 5.65172 0
M  V30 1362 H 128.73 2.30285 4.26728 0
M  V30 1363 N 130.073 -1.45103 0.615059 0
M  V30 1364 C 131.003 -2.33339 -0.0865619 0
M  V30 1365 C 131.984 -1.4727 -0.851209 0
M  V30 1366 O 133.169 -1.76026 -0.820281 0
M  V30 1367 C 130.299 -3.30095 -1.07956 0
M  V30 1368 C 129.253 -4.25858 -0.427628 0
M  V30 1369 C 128.579 -5.12361 -1.5294 0
M  V30 1370 C 129.879 -5.18165 0.655944 0
M  V30 1371 H 131.573 -2.92254 0.650224 0
M  V30 1372 H 129.119 -1.40532 0.314138 0
M  V30 1373 H 131.072 -3.90698 -1.57901 0
M  V30 1374 H 129.796 -2.69355 -1.84703 0
M  V30 1375 H 128.455 -3.66564 0.0510292 0
M  V30 1376 H 128.103 -4.47984 -2.28734 0
M  V30 1377 H 127.803 -5.77238 -1.09865 0
M  V30 1378 H 129.327 -5.75833 -2.03098 0
M  V30 1379 H 130.741 -5.72796 0.240257 0
M  V30 1380 H 129.138 -5.91559 1.00888 0
M  V30 1381 H 130.208 -4.60144 1.52957 0
M  V30 1382 N 131.551 -0.354651 -1.53558 0
M  V30 1383 C 132.481 0.489091 -2.2832 0
M  V30 1384 C 133.462 1.09324 -1.30316 0
M  V30 1385 O 134.647 1.11255 -1.59173 0
M  V30 1386 C 131.777 1.63456 -3.0643 0
M  V30 1387 C 130.731 1.1582 -4.12031 0
M  V30 1388 C 130.057 2.39305 -4.7816 0
M  V30 1389 C 131.357 0.250731 -5.21698 0
M  V30 1390 H 133.051 -0.134614 -2.99097 0
M  V30 1391 H 130.597 -0.0661826 -1.43848 0
M  V30 1392 H 132.55 2.23136 -3.57475 0
M  V30 1393 H 131.274 2.28533 -2.33325 0
M  V30 1394 H 129.933 0.584146 -3.61916 0
M  V30 1395 H 129.581 3.02814 -4.01637 0
M  V30 1396 H 129.281 2.08109 -5.49513 0
M  V30 1397 H 130.805 2.99691 -5.31994 0
M  V30 1398 H 132.219 0.754695 -5.68311 0
M  V30 1399 H 130.616 0.0301468 -6.00092 0
M  V30 1400 H 131.686 -0.710125 -4.79672 0
M  V30 1401 N 133.029 1.57378 -0.0835403 0
M  V30 1402 C 134.276 1.9393 0.58287 0
M  V30 1403 C 134.604 0.964455 1.68904 0
M  V30 1404 O 133.859 -0.0179474 1.95692 0
M  V30 1405 C 134.158 3.37063 1.1884 0
M  V30 1406 C 133.824 4.50424 0.207194 0
M  V30 1407 C 132.486 4.81159 -0.0627115 0
M  V30 1408 C 134.838 5.19136 -0.463426 0
M  V30 1409 C 132.166 5.77939 -1.01012 0
M  V30 1410 C 134.518 6.16931 -1.39924 0
M  V30 1411 C 133.182 6.46078 -1.67749 0
M  V30 1412 H 132.452 0.70964 0.213287 0
M  V30 1413 H 135.099 1.90856 -0.156916 0
M  V30 1414 H 133.404 3.3666 2.00418 0
M  V30 1415 H 135.101 3.6264 1.71153 0
M  V30 1416 H 131.691 4.2646 0.427747 0
M  V30 1417 H 135.875 4.95576 -0.268034 0
M  V30 1418 H 131.131 5.98842 -1.23283 0
M  V30 1419 H 135.305 6.69273 -1.92476 0
M  V30 1420 H 132.932 7.2088 -2.41321 0
M  V30 1421 N 134.507 -0.190092 1.56449 0
M  V30 1422 C 135.923 -0.54113 1.50146 0
M  V30 1423 C 136.123 -1.85603 0.784465 0
M  V30 1424 O 135.179 -2.5024 0.337051 0
M  V30 1425 C 136.492 -0.591241 2.9483 0
M  V30 1426 C 138.04 -0.679732 3.0553 0
M  V30 1427 C 138.515 -0.760908 4.51635 0
M  V30 1428 N 140.006 -0.824302 4.55806 0
M  V30 1429 C 140.741 -0.907365 5.66175 0
M  V30 1430 N 140.237 -0.952422 6.86222 0
M  V30 1431 N 142.03 -0.94494 5.541 0
M  V30 1432 H 134.181 0.67235 2.01478 0
M  V30 1433 H 136.444 0.240127 0.917084 0
M  V30 1434 H 136.15 0.305905 3.50367 0
M  V30 1435 H 136.024 -1.44422 3.48457 0
M  V30 1436 H 138.411 -1.56731 2.50039 0
M  V30 1437 H 138.492 0.199549 2.5502 0
M  V30 1438 H 138.136 0.122336 5.07753 0
M  V30 1439 H 138.066 -1.65606 4.99882 0
M  V30 1440 H 140.557 -0.798526 3.69367 0
M  V30 1441 H 140.87 -1.01645 7.66086 0
M  V30 1442 H 139.215 -0.921014 6.8887 0
M  V30 1443 H 142.406 -0.906612 4.59236 0
M  V30 1444 H 142.579 -1.00622 6.4014 0
M  V30 1445 N 135.985 -1.50799 -0.457987 0
M  V30 1446 C 137.231 -1.62683 -1.21088 0
M  V30 1447 C 137.564 -0.332268 -1.91336 0
M  V30 1448 O 136.839 0.667043 -1.82704 0
M  V30 1449 C 137.122 -2.81615 -2.24422 0
M  V30 1450 C 136.975 -4.20989 -1.58392 0
M  V30 1451 C 138.294 -2.96085 -3.2561 0
M  V30 1452 H 135.413 -0.592087 -0.438864 0
M  V30 1453 H 138.055 -1.83225 -0.50286 0
M  V30 1454 H 136.205 -2.64231 -2.84806 0
M  V30 1455 H 137.877 -4.49994 -1.01504 0
M  V30 1456 H 136.12 -4.24641 -0.886704 0
M  V30 1457 H 136.791 -5.0016 -2.33547 0
M  V30 1458 H 139.267 -3.12042 -2.75262 0
M  V30 1459 H 138.143 -3.80902 -3.95228 0
M  V30 1460 H 138.404 -2.0726 -3.90507 0
M  V30 1461 N 137.463 0.71206 -1.40597 0
M  V30 1462 C 138.693 1.49894 -1.42181 0
M  V30 1463 C 139.101 1.89189 -0.0208078 0
M  V30 1464 O 138.444 1.56223 0.966436 0
M  V30 1465 C 138.506 2.80215 -2.25211 0
M  V30 1466 C 138.17 2.63221 -3.73582 0
M  V30 1467 C 139.167 2.30249 -4.66135 0
M  V30 1468 C 136.852 2.79376 -4.17438 0
M  V30 1469 C 138.846 2.13645 -6.00529 0
M  V30 1470 C 136.533 2.6239 -5.51901 0
M  V30 1471 C 137.531 2.29573 -6.43262 0
M  V30 1472 O 137.219 2.12719 -7.75246 0
M  V30 1473 H 136.951 0.469031 -0.486812 0
M  V30 1474 H 139.505 0.88564 -1.85326 0
M  V30 1475 H 137.735 3.4389 -1.76852 0
M  V30 1476 H 139.424 3.41947 -2.18694 0
M  V30 1477 H 140.19 2.17398 -4.33547 0
M  V30 1478 H 136.069 3.03906 -3.46644 0
M  V30 1479 H 139.613 1.87953 -6.71803 0
M  V30 1480 H 135.51 2.74826 -5.84073 0
M  V30 1481 H 136.278 2.27611 -7.86216 0
M  V30 1482 N 138.941 1.26152 0.944643 0
M  V30 1483 C 140.189 1.11271 1.6871 0
M  V30 1484 C 140.51 -0.345166 1.91921 0
M  V30 1485 O 139.78 -1.24387 1.51343 0
M  V30 1486 H 138.36 0.408783 0.625224 0
M  V30 1487 H 141.022 1.58427 1.1352 0
M  V30 1488 H 140.118 1.62879 2.66227 0
M  V30 1489 N 140.419 -1.14872 1.07899 0
M  V30 1490 C 141.349 -2.2193 0.725887 0
M  V30 1491 C 142.33 -1.67622 -0.28927 0
M  V30 1492 O 143.515 -1.93533 -0.160787 0
M  V30 1493 C 140.645 -3.47061 0.128856 0
M  V30 1494 C 139.599 -4.14363 1.07178 0
M  V30 1495 C 138.925 -5.33636 0.337229 0
M  V30 1496 C 140.225 -4.63492 2.40775 0
M  V30 1497 H 141.919 -2.51724 1.62097 0
M  V30 1498 H 139.465 -1.20991 0.780838 0
M  V30 1499 H 141.418 -4.21199 -0.130147 0
M  V30 1500 H 140.142 -3.16617 -0.80134 0
M  V30 1501 H 138.801 -3.42173 1.3158 0
M  V30 1502 H 138.449 -4.99449 -0.596606 0
M  V30 1503 H 138.149 -5.79609 0.965788 0
M  V30 1504 H 139.673 -6.10539 0.0861567 0
M  V30 1505 H 141.087 -5.2913 2.20669 0
M  V30 1506 H 139.484 -5.20148 2.99276 0
M  V30 1507 H 140.554 -3.78834 3.02676 0
M  V30 1508 N 141.898 -0.863906 -1.31812 0
M  V30 1509 C 142.808 -0.318461 -2.32428 0
M  V30 1510 C 143.824 0.568496 -1.64451 0
M  V30 1511 O 145 0.46666 -1.95919 0
M  V30 1512 C 142.065 0.476355 -3.43412 0
M  V30 1513 C 141.126 -0.43784 -4.27061 0
M  V30 1514 C 140.359 0.319138 -5.32745 0
M  V30 1515 O 140.582 1.54799 -5.48993 0
M  V30 1516 O 139.516 -0.319861 -6.01049 0
M  V30 1517 H 143.342 -1.15229 -2.80991 0
M  V30 1518 H 140.927 -0.627103 -1.35602 0
M  V30 1519 H 142.809 0.927156 -4.11074 0
M  V30 1520 H 141.484 1.28683 -2.97022 0
M  V30 1521 H 140.391 -0.937013 -3.62175 0
M  V30 1522 H 141.724 -1.21375 -4.77 0
M  V30 1523 N 143.376 1.44774 -0.622745 0
M  V30 1524 C 144.601 2.06999 -0.128968 0
M  V30 1525 C 145.026 1.4617 1.1839 0
M  V30 1526 O 144.384 0.560007 1.72434 0
M  V30 1527 C 144.432 3.60595 -0.0188351 0
M  V30 1528 O 143.536 3.99398 1.02739 0
M  V30 1529 H 142.877 0.659047 -0.0809544 0
M  V30 1530 H 145.407 1.85784 -0.85705 0
M  V30 1531 H 145.417 4.07627 0.174476 0
M  V30 1532 H 144.092 4.04252 -0.977384 0
M  V30 1533 H 142.669 3.64011 0.809326 0
M  V30 1534 N 144.854 0.36279 1.53368 0
M  V30 1535 C 145.784 -0.476976 2.28576 0
M  V30 1536 C 146.765 -1.08631 1.30894 0
M  V30 1537 O 147.95 -1.10409 1.59761 0
M  V30 1538 C 145.08 -1.61828 3.07293 0
M  V30 1539 C 144.034 -1.13633 4.1264 0
M  V30 1540 C 143.36 -2.36766 4.79423 0
M  V30 1541 C 144.66 -0.223061 5.21823 0
M  V30 1542 H 146.354 0.150474 2.99022 0
M  V30 1543 H 143.9 0.0738103 1.43811 0
M  V30 1544 H 145.853 -2.21237 3.58653 0
M  V30 1545 H 144.577 -2.27292 2.34533 0
M  V30 1546 H 143.236 -0.564945 3.62221 0
M  V30 1547 H 142.884 -3.0068 4.03238 0
M  V30 1548 H 142.584 -2.05192 5.50609 0
M  V30 1549 H 144.108 -2.96865 5.33576 0
M  V30 1550 H 145.522 -0.724545 5.68703 0
M  V30 1551 H 143.919 0.001678 6.001 0
M  V30 1552 H 144.989 0.735553 4.79289 0
M  V30 1553 N 146.332 -1.57332 0.0918853 0
M  V30 1554 C 147.279 -2.13847 -0.868211 0
M  V30 1555 C 148.249 -1.05618 -1.28196 0
M  V30 1556 O 149.434 -1.33387 -1.36427 0
M  V30 1557 C 146.574 -2.72062 -2.12312 0
M  V30 1558 C 145.687 -3.94514 -1.7602 0
M  V30 1559 C 144.822 -4.40903 -2.96273 0
M  V30 1560 C 143.861 -5.55953 -2.56092 0
M  V30 1561 N 142.998 -5.97209 -3.69169 0
M  V30 1562 H 147.838 -2.95575 -0.379406 0
M  V30 1563 H 145.375 -1.46048 -0.175606 0
M  V30 1564 H 147.333 -3.03931 -2.858 0
M  V30 1565 H 145.963 -1.93068 -2.58698 0
M  V30 1566 H 145.015 -3.68979 -0.925135 0
M  V30 1567 H 146.327 -4.7802 -1.42472 0
M  V30 1568 H 145.481 -4.74539 -3.78018 0
M  V30 1569 H 144.22 -3.56291 -3.33029 0
M  V30 1570 H 143.225 -5.21948 -1.72773 0
M  V30 1571 H 144.45 -6.42311 -2.20484 0
M  V30 1572 H 142.396 -5.15543 -4.05649 0
M  V30 1573 H 142.313 -6.75504 -3.39456 0
M  V30 1574 H 143.581 -6.35475 -4.51434 0
M  V30 1575 N 147.81 0.181792 -1.56548 0
M  V30 1576 C 149.087 0.926765 -1.72251 0
M  V30 1577 C 149.467 2.00831 -0.650386 0
M  V30 1578 O 148.815 2.26008 0.336521 0
M  V30 1579 C 149.025 1.50106 -3.1507 0
M  V30 1580 C 150.373 1.97805 -3.75711 0
M  V30 1581 O 151.397 1.59922 -3.18282 0
M  V30 1582 O 150.256 2.67555 -4.76525 0
M  V30 1583 H 147.35 0.435506 -0.703039 0
M  V30 1584 H 149.896 0.170443 -1.68842 0
M  V30 1585 H 148.668 0.72212 -3.84579 0
M  V30 1586 H 148.291 2.32186 -3.22763 0
M  V30 1587 N 149.288 1.51039 0.449983 0
M  V30 1588 C 150.218 1.74379 1.55288 0
M  V30 1589 C 151.199 0.593236 1.5942 0
M  V30 1590 O 152.384 0.834625 1.7535 0
M  V30 1591 C 149.514 1.85728 2.93466 0
M  V30 1592 C 148.468 3.01078 3.04197 0
M  V30 1593 C 147.794 2.97595 4.44231 0
M  V30 1594 C 149.094 4.41254 2.7945 0
M  V30 1595 H 150.788 2.66725 1.36008 0
M  V30 1596 H 148.334 1.2835 0.652864 0
M  V30 1597 H 150.287 2.0064 3.70569 0
M  V30 1598 H 149.011 0.900207 3.13949 0
M  V30 1599 H 147.67 2.85851 2.29531 0
M  V30 1600 H 147.318 1.99691 4.61663 0
M  V30 1601 H 147.018 3.75046 4.52343 0
M  V30 1602 H 148.542 3.14583 5.23326 0
M  V30 1603 H 149.956 4.56897 3.46292 0
M  V30 1604 H 148.353 5.20315 2.98985 0
M  V30 1605 H 149.423 4.52164 1.75144 0
M  V30 1606 N 150.766 -0.704594 1.40972 0
M  V30 1607 C 152.013 -1.46458 1.39844 0
M  V30 1608 C 152.341 -1.94499 0.00447594 0
M  V30 1609 O 151.596 -1.69275 -0.982057 0
M  V30 1610 C 151.895 -2.698 2.34399 0
M  V30 1611 C 151.561 -2.40464 3.81429 0
M  V30 1612 C 150.223 -2.32174 4.21484 0
M  V30 1613 C 152.575 -2.16086 4.74296 0
M  V30 1614 C 149.903 -1.97589 5.52427 0
M  V30 1615 C 152.255 -1.83011 6.05549 0
M  V30 1616 C 150.919 -1.7321 6.44635 0
M  V30 1617 H 150.189 -0.535927 0.511725 0
M  V30 1618 H 152.836 -0.806124 1.73706 0
M  V30 1619 H 151.141 -3.40536 1.93759 0
M  V30 1620 H 152.838 -3.27919 2.30804 0
M  V30 1621 H 149.428 -2.47808 3.49699 0
M  V30 1622 H 153.612 -2.2144 4.4416 0
M  V30 1623 H 148.868 -1.88547 5.81601 0
M  V30 1624 H 153.042 -1.63164 6.77016 0
M  V30 1625 H 150.669 -1.46179 7.46013 0
M  V30 1626 N 152.244 -1.26651 -0.937939 0
M  V30 1627 C 153.655 -1.1125 -1.49934 0
M  V30 1628 C 154.006 0.306077 -1.93798 0
M  V30 1629 O 153.131 1.19792 -1.80219 0
M  V30 1630 C 153.726 -2.01339 -2.72485 0
M  V30 1631 C 152.285 -1.90074 -3.24883 0
M  V30 1632 C 151.432 -1.94498 -1.97651 0
M  V30 1633 H 154.383 -1.39693 -0.753091 0
M  V30 1634 H 154.404 -1.56319 -3.46907 0
M  V30 1635 H 153.916 -3.04577 -2.40529 0
M  V30 1636 H 152.017 -0.897827 -3.61621 0
M  V30 1637 H 152.13 -2.75778 -3.9177 0
M  V30 1638 H 150.494 -1.38591 -2.13693 0
M  V30 1639 H 151.277 -2.99372 -1.68022 0
M  V30 1640 N 153.722 1.14298 -1.08507 0
M  V30 1641 C 154.67 2.21483 -0.710483 0
M  V30 1642 C 155.664 1.66998 0.284234 0
M  V30 1643 O 156.87 1.79401 0.146692 0
M  V30 1644 H 153.245 0.721578 -0.211729 0
M  V30 1645 H 155.216 2.50348 -1.62384 0
M  V30 1646 C 153.965 3.4743 -0.137007 0
M  V30 1647 H 153.288 3.89686 -0.893592 0
M  V30 1648 H 154.728 4.2391 0.0872789 0
M  V30 1649 C 153.187 3.17548 1.12538 0
M  V30 1650 O 153.717 3.35437 2.21009 0
M  V30 1651 N 151.923 2.71499 1.03617 0
M  V30 1652 H 151.47 2.57143 0.153403 0
M  V30 1653 H 151.428 2.51881 1.88158 0
M  V30 1654 N 155.201 0.870884 1.31352 0
M  V30 1655 C 156.131 0.343096 2.30966 0
M  V30 1656 C 157.112 -0.566507 1.60389 0
M  V30 1657 O 158.297 -0.483336 1.88089 0
M  V30 1658 C 155.427 -0.455487 3.443 0
M  V30 1659 C 154.381 0.361103 4.26474 0
M  V30 1660 C 153.707 -0.563221 5.31725 0
M  V30 1661 C 155.007 1.59566 4.97329 0
M  V30 1662 H 156.701 1.17548 2.75359 0
M  V30 1663 H 154.247 0.566686 1.32381 0
M  V30 1664 H 156.2 -0.83525 4.13039 0
M  V30 1665 H 154.924 -1.32139 2.98675 0
M  V30 1666 H 153.583 0.722825 3.59403 0
M  V30 1667 H 153.231 -1.42643 4.82351 0
M  V30 1668 H 152.931 -0.0207409 5.87596 0
M  V30 1669 H 154.455 -0.939808 6.03324 0
M  V30 1670 H 155.869 1.28728 5.58661 0
M  V30 1671 H 154.266 2.07728 5.63 0
M  V30 1672 H 155.336 2.34798 4.24262 0
M  V30 1673 N 156.679 -1.44442 0.630414 0
M  V30 1674 C 157.907 -2.06414 0.141671 0
M  V30 1675 C 158.322 -1.47105 -1.18345 0
M  V30 1676 O 157.679 -0.593662 -1.72574 0
M  V30 1677 C 157.73 -3.61494 0.0199784 0
M  V30 1678 O 157.451 -4.18594 1.29269 0
M  V30 1679 C 158.952 -4.40499 -0.497544 0
M  V30 1680 H 156.172 -0.666292 0.0793452 0
M  V30 1681 H 158.716 -1.85323 0.864614 0
M  V30 1682 H 156.871 -3.8185 -0.653402 0
M  V30 1683 H 157.285 -5.12026 1.13707 0
M  V30 1684 H 158.759 -5.49433 -0.531708 0
M  V30 1685 H 159.236 -4.11895 -1.52445 0
M  V30 1686 H 159.842 -4.25061 0.142562 0
M  V30 1687 N 158.157 -0.370918 -1.53173 0
M  V30 1688 C 159.403 0.217423 -2.01631 0
M  V30 1689 C 159.736 1.47983 -1.25756 0
M  V30 1690 O 159.011 1.91274 -0.352764 0
M  V30 1691 C 159.294 0.503982 -3.56556 0
M  V30 1692 C 159.147 -0.77243 -4.43118 0
M  V30 1693 C 160.466 1.30234 -4.20389 0
M  V30 1694 H 157.585 0.0775486 -0.732909 0
M  V30 1695 H 160.227 -0.496863 -1.83388 0
M  V30 1696 H 158.377 1.11248 -3.72231 0
M  V30 1697 H 160.049 -1.4098 -4.39229 0
M  V30 1698 H 158.292 -1.39167 -4.10871 0
M  V30 1699 H 158.963 -0.526815 -5.4948 0
M  V30 1700 H 161.439 0.787546 -4.08579 0
M  V30 1701 H 160.315 1.47158 -5.28806 0
M  V30 1702 H 160.576 2.31237 -3.76805 0
M  V30 1703 N 159.635 1.57281 -0.100228 0
M  V30 1704 C 160.884 1.93713 0.561984 0
M  V30 1705 C 161.197 0.984492 1.69018 0
M  V30 1706 O 162.403 1.24273 2.41389 0
M  V30 1707 C 160.859 3.4421 1.05106 0
M  V30 1708 C 160.467 4.47975 -0.0476628 0
M  V30 1709 C 162.211 3.89595 1.68571 0
M  V30 1710 C 160.118 5.89631 0.457055 0
M  V30 1711 H 159.048 0.723082 0.2137 0
M  V30 1712 H 161.699 1.82644 -0.177057 0
M  V30 1713 H 160.081 3.50449 1.84395 0
M  V30 1714 H 161.255 4.53385 -0.823333 0
M  V30 1715 H 159.57 4.1223 -0.587816 0
M  V30 1716 H 162.167 4.92832 2.07414 0
M  V30 1717 H 162.51 3.28526 2.55688 0
M  V30 1718 H 163.043 3.86078 0.958562 0
M  V30 1719 H 159.782 6.54411 -0.377616 0
M  V30 1720 H 159.302 5.87681 1.19962 0
M  V30 1721 H 160.981 6.40363 0.92437 0
M  V30 1722 N 161.113 -0.173488 1.56642 0
M  V30 1723 C 162.529 -0.525174 1.50712 0
M  V30 1724 C 162.729 -1.8476 0.804107 0
M  V30 1725 O 161.785 -2.49869 0.363574 0
M  V30 1726 C 163.098 -0.559937 2.95441 0
M  V30 1727 C 164.646 -0.647288 3.06234 0
M  V30 1728 C 165.121 -0.712963 4.52417 0
M  V30 1729 N 166.612 -0.775911 4.56655 0
M  V30 1730 C 167.347 -0.847264 5.67106 0
M  V30 1731 N 166.843 -0.879585 6.87194 0
M  V30 1732 N 168.636 -0.886117 5.55071 0
M  V30 1733 H 160.787 0.693681 2.00753 0
M  V30 1734 H 163.05 0.249841 0.914485 0
M  V30 1735 H 162.756 0.343049 3.50023 0
M  V30 1736 H 162.63 -1.40718 3.49969 0
M  V30 1737 H 165.017 -1.5407 2.51687 0
M  V30 1738 H 165.098 0.226586 2.54794 0
M  V30 1739 H 164.742 0.176183 5.07594 0
M  V30 1740 H 164.672 -1.60295 5.0161 0
M  V30 1741 H 167.163 -0.759304 3.70193 0
M  V30 1742 H 167.476 -0.935144 7.67121 0
M  V30 1743 H 165.821 -0.847898 6.89808 0
M  V30 1744 H 169.012 -0.857853 4.60172 0
M  V30 1745 H 169.185 -0.938263 6.41171 0
M  V30 1746 N 162.591 -1.51276 -0.441967 0
M  V30 1747 C 163.839 -1.63392 -1.18943 0
M  V30 1748 C 164.16 -0.350159 -1.9183 0
M  V30 1749 O 163.43 0.633784 -1.85364 0
M  V30 1750 H 162.01 -0.602164 -0.442049 0
M  V30 1751 H 164.672 -1.88186 -0.507165 0
M  V30 1752 H 163.768 -2.45934 -1.92154 0
M  V30 1753 N 164.069 0.697108 -1.41344 0
M  V30 1754 C 165.294 1.49096 -1.44171 0
M  V30 1755 C 165.719 1.88038 -0.0481568 0
M  V30 1756 O 165.077 1.54525 0.948243 0
M  V30 1757 C 165.125 2.73088 -2.3549 0
M  V30 1758 O 164.229 3.70514 -1.81088 0
M  V30 1759 H 163.57 0.448801 -0.489361 0
M  V30 1760 H 166.1 0.856992 -1.85787 0
M  V30 1761 H 166.11 3.21413 -2.51312 0
M  V30 1762 H 164.785 2.44081 -3.36745 0
M  V30 1763 H 163.362 3.29441 -1.74708 0
M  V30 1764 N 165.547 1.27147 0.931209 0
M  V30 1765 C 166.963 1.04475 1.20653 0
M  V30 1766 C 167.163 -0.223885 2.00252 0
M  V30 1767 O 166.219 -0.930332 2.34736 0
M  V30 1768 C 167.532 2.28209 1.95809 0
M  V30 1769 C 169.08 2.33211 2.08762 0
M  V30 1770 C 169.555 3.56665 2.87323 0
M  V30 1771 N 171.046 3.57201 2.94892 0
M  V30 1772 C 171.781 4.49395 3.56134 0
M  V30 1773 N 171.277 5.51889 4.18796 0
M  V30 1774 N 173.07 4.37026 3.53504 0
M  V30 1775 H 165.221 2.08612 0.399333 0
M  V30 1776 H 167.484 0.917312 0.239253 0
M  V30 1777 H 167.19 3.20538 1.44736 0
M  V30 1778 H 167.064 2.33247 2.96438 0
M  V30 1779 H 169.451 1.41391 2.59023 0
M  V30 1780 H 169.532 2.32178 1.07364 0
M  V30 1781 H 169.176 4.4882 2.37746 0
M  V30 1782 H 169.106 3.54948 3.88998 0
M  V30 1783 H 171.597 2.83074 2.50354 0
M  V30 1784 H 171.91 6.18409 4.63454 0
M  V30 1785 H 170.255 5.55735 4.17353 0
M  V30 1786 H 173.446 3.56166 3.03749 0
M  V30 1787 H 173.619 5.09067 4.00942 0
M  V30 1788 N 167.025 -1.13721 1.09112 0
M  V30 1789 C 167.955 -2.21148 0.749385 0
M  V30 1790 C 168.936 -1.6792 -0.271475 0
M  V30 1791 O 170.121 -1.93693 -0.140251 0
M  V30 1792 C 167.251 -3.46905 0.165659 0
M  V30 1793 C 166.205 -4.13203 1.11567 0
M  V30 1794 C 165.531 -5.33248 0.393809 0
M  V30 1795 C 166.831 -4.60912 2.45678 0
M  V30 1796 H 168.525 -2.4999 1.64758 0
M  V30 1797 H 166.071 -1.20156 0.793626 0
M  V30 1798 H 168.024 -4.21313 -0.085466 0
M  V30 1799 H 166.748 -3.17449 -0.767714 0
M  V30 1800 H 165.407 -3.40758 1.35202 0
M  V30 1801 H 165.055 -5.00054 -0.543599 0
M  V30 1802 H 164.755 -5.78552 1.02721 0
M  V30 1803 H 166.279 -6.10413 0.150908 0
M  V30 1804 H 167.693 -5.26759 2.26269 0
M  V30 1805 H 166.09 -5.16944 3.04776 0
M  V30 1806 H 167.16 -3.75603 3.06677 0
M  V30 1807 N 168.503 -0.877838 -1.30888 0
M  V30 1808 C 169.75 -0.492696 -1.96415 0
M  V30 1809 C 170.078 0.956671 -1.69346 0
M  V30 1810 O 169.333 1.68993 -0.986913 0
M  V30 1811 C 169.632 -0.705748 -3.50363 0
M  V30 1812 C 169.298 -2.1291 -3.97467 0
M  V30 1813 C 167.96 -2.51834 -4.1004 0
M  V30 1814 C 170.312 -3.05702 -4.22132 0
M  V30 1815 C 167.64 -3.82775 -4.44635 0
M  V30 1816 C 169.992 -4.36166 -4.58194 0
M  V30 1817 C 168.656 -4.74993 -4.68975 0
M  V30 1818 H 167.926 -0.18029 -0.718733 0
M  V30 1819 H 170.573 -1.11233 -1.55883 0
M  V30 1820 H 168.878 -0.00303058 -3.918 0
M  V30 1821 H 170.575 -0.387456 -3.99124 0
M  V30 1822 H 167.165 -1.81694 -3.88182 0
M  V30 1823 H 171.349 -2.76853 -4.11906 0
M  V30 1824 H 166.605 -4.12609 -4.51181 0
M  V30 1825 H 170.779 -5.08111 -4.76231 0
M  V30 1826 H 168.406 -5.76495 -4.95537 0
M  V30 1827 N 169.982 1.44106 -0.638065 0
M  V30 1828 C 171.229 2.01978 -0.14533 0
M  V30 1829 C 171.557 1.50234 1.23532 0
M  V30 1830 O 170.812 0.679548 1.83523 0
M  V30 1831 C 171.111 3.5729 -0.0887327 0
M  V30 1832 C 170.777 4.28317 -1.40909 0
M  V30 1833 C 169.439 4.47437 -1.77069 0
M  V30 1834 C 171.791 4.6867 -2.28031 0
M  V30 1835 C 169.119 5.04171 -3.00047 0
M  V30 1836 C 171.471 5.26766 -3.50286 0
M  V30 1837 C 170.135 5.44104 -3.86661 0
M  V30 1838 H 169.405 0.739089 -0.0531801 0
M  V30 1839 H 172.052 1.72781 -0.825761 0
M  V30 1840 H 170.357 3.8594 0.675095 0
M  V30 1841 H 172.054 3.99807 0.309145 0
M  V30 1842 H 168.644 4.1377 -1.1177 0
M  V30 1843 H 172.828 4.53604 -2.01388 0
M  V30 1844 H 168.084 5.15782 -3.28298 0
M  V30 1845 H 172.258 5.56983 -4.18023 0
M  V30 1846 H 169.885 5.87832 -4.82034 0
M  V30 1847 N 171.46 0.379036 1.52974 0
M  V30 1848 C 172.408 -0.476033 2.27677 0
M  V30 1849 C 173.402 -1.0719 1.31174 0
M  V30 1850 O 174.608 -1.01355 1.48752 0
M  V30 1851 H 170.983 -0.172255 0.732006 0
M  V30 1852 H 172.954 0.175615 2.97883 0
M  V30 1853 C 171.703 -1.5967 3.0887 0
M  V30 1854 H 171.026 -1.1475 3.82978 0
M  V30 1855 H 172.466 -2.16943 3.64296 0
M  V30 1856 C 170.925 -2.54682 2.20542 0
M  V30 1857 O 171.455 -3.57836 1.82527 0
M  V30 1858 N 169.661 -2.24183 1.84907 0
M  V30 1859 H 169.208 -1.40333 2.1602 0
M  V30 1860 H 169.166 -2.88006 1.26096 0
M  V30 1861 N 172.938 -1.57226 0.108567 0
M  V30 1862 C 174.168 -1.9889 -0.559142 0
M  V30 1863 C 174.576 -0.986889 -1.61422 0
M  V30 1864 O 173.919 0.0298705 -1.83676 0
M  V30 1865 C 173.981 -3.36952 -1.25315 0
M  V30 1866 C 173.645 -4.55679 -0.347248 0
M  V30 1867 C 174.642 -5.18281 0.409996 0
M  V30 1868 C 172.327 -5.0162 -0.261367 0
M  V30 1869 C 174.321 -6.25203 1.24096 0
M  V30 1870 C 172.008 -6.08405 0.573238 0
M  V30 1871 C 173.006 -6.70063 1.32304 0
M  V30 1872 O 172.694 -7.74788 2.14381 0
M  V30 1873 H 172.426 -0.658343 -0.153492 0
M  V30 1874 H 174.98 -2.04532 0.188584 0
M  V30 1875 H 173.21 -3.28032 -2.04773 0
M  V30 1876 H 174.899 -3.62974 -1.81673 0
M  V30 1877 H 175.665 -4.8371 0.353457 0
M  V30 1878 H 171.544 -4.53381 -0.834656 0
M  V30 1879 H 175.088 -6.73259 1.82669 0
M  V30 1880 H 170.985 -6.42406 0.631208 0
M  V30 1881 H 171.753 -7.91837 2.07209 0
M  V30 1882 N 174.416 0.165178 -1.56732 0
M  V30 1883 C 175.379 1.18822 -1.95995 0
M  V30 1884 C 176.379 1.3685 -0.84431 0
M  V30 1885 O 177.569 1.34152 -1.11126 0
M  V30 1886 C 174.701 2.5521 -2.26011 0
M  V30 1887 H 175.894 0.851825 -2.87548 0
M  V30 1888 H 173.447 0.407857 -1.50885 0
M  V30 1889 H 174.182 2.93852 -1.37191 0
M  V30 1890 H 173.967 2.43489 -3.07336 0
M  V30 1891 H 175.457 3.28927 -2.57288 0
M  V30 1892 N 175.894 1.51508 0.433938 0
M  V30 1893 C 176.824 1.76016 1.53429 0
M  V30 1894 C 177.805 0.610112 1.58782 0
M  V30 1895 O 178.99 0.853177 1.74455 0
M  V30 1896 C 176.12 1.88831 2.9148 0
M  V30 1897 C 175.074 3.04288 3.00987 0
M  V30 1898 C 174.4 3.0229 4.4105 0
M  V30 1899 C 175.7 4.44193 2.74754 0
M  V30 1900 H 177.394 2.68152 1.33171 0
M  V30 1901 H 174.94 1.29035 0.639214 0
M  V30 1902 H 176.893 2.04559 3.6842 0
M  V30 1903 H 175.617 0.933455 3.12976 0
M  V30 1904 H 174.276 2.8827 2.26486 0
M  V30 1905 H 173.924 2.04576 4.59519 0
M  V30 1906 H 173.624 3.79822 4.4834 0
M  V30 1907 H 175.148 3.20116 5.1996 0
M  V30 1908 H 176.562 4.60544 3.41426 0
M  V30 1909 H 174.959 5.23457 2.9345 0
M  V30 1910 H 176.029 4.53996 1.70339 0
M  V30 1911 N 177.372 -0.689602 1.41712 0
M  V30 1912 C 178.618 -1.45181 1.41599 0
M  V30 1913 C 178.951 -1.94181 0.0270081 0
M  V30 1914 O 178.226 -1.6993 -0.946265 0
M  V30 1915 C 178.509 -2.65945 2.42787 0
M  V30 1916 C 178.362 -2.22672 3.90816 0
M  V30 1917 C 179.681 -3.68149 2.41151 0
M  V30 1918 H 176.8 -0.526576 0.515642 0
M  V30 1919 H 179.442 -0.784947 1.73028 0
M  V30 1920 H 177.592 -3.2284 2.16116 0
M  V30 1921 H 179.264 -1.71058 4.28412 0
M  V30 1922 H 177.507 -1.54394 4.05395 0
M  V30 1923 H 178.178 -3.0935 4.57172 0
M  V30 1924 H 180.654 -3.2094 2.64834 0
M  V30 1925 H 179.53 -4.50248 3.13955 0
M  V30 1926 H 179.791 -4.18259 1.43221 0
M  V30 1927 N 178.85 -1.27639 -0.924453 0
M  V30 1928 C 180.099 -1.13549 -1.66702 0
M  V30 1929 C 180.412 0.317487 -1.93006 0
M  V30 1930 O 181.618 0.579333 -2.65247 0
M  V30 1931 C 180.074 -1.98426 -3.00259 0
M  V30 1932 C 179.682 -3.484 -2.81641 0
M  V30 1933 C 181.426 -1.92993 -3.78092 0
M  V30 1934 C 179.333 -4.25464 -4.10773 0
M  V30 1935 H 178.263 -0.421351 -0.625283 0
M  V30 1936 H 180.914 -1.52085 -1.02676 0
M  V30 1937 H 179.296 -1.52736 -3.6536 0
M  V30 1938 H 180.47 -4.01973 -2.25287 0
M  V30 1939 H 178.785 -3.55245 -2.17232 0
M  V30 1940 H 181.382 -2.47844 -4.7379 0
M  V30 1941 H 181.725 -0.904281 -4.0636 0
M  V30 1942 H 182.258 -2.36595 -3.19793 0
M  V30 1943 H 178.997 -5.28566 -3.87683 0
M  V30 1944 H 178.517 -3.76667 -4.66779 0
M  V30 1945 H 180.196 -4.34812 -4.79111 0
M  V30 1946 N 180.328 1.1314 -1.09713 0
M  V30 1947 C 181.575 1.84484 -0.834987 0
M  V30 1948 C 181.903 1.83689 0.639418 0
M  V30 1949 O 181.158 1.2724 1.4869 0
M  V30 1950 C 181.457 3.32167 -1.3191 0
M  V30 1951 C 181.123 3.53139 -2.80363 0
M  V30 1952 C 179.785 3.58571 -3.20905 0
M  V30 1953 C 182.137 3.60866 -3.76065 0
M  V30 1954 C 179.465 3.69267 -4.55916 0
M  V30 1955 C 181.817 3.73089 -5.10869 0
M  V30 1956 C 180.481 3.76775 -5.50996 0
M  V30 1957 H 179.751 0.675073 -0.305544 0
M  V30 1958 H 182.398 1.33554 -1.37243 0
M  V30 1959 H 180.703 3.85469 -0.701517 0
M  V30 1960 H 182.4 3.85821 -1.09284 0
M  V30 1961 H 178.99 3.49569 -2.47991 0
M  V30 1962 H 183.174 3.55946 -3.45855 0
M  V30 1963 H 178.43 3.70388 -4.86438 0
M  V30 1964 H 182.604 3.78011 -5.84877 0
M  V30 1965 H 180.231 3.84815 -6.55608 0
M  V30 1966 N 181.806 0.884767 1.30421 0
M  V30 1967 C 182.716 0.355398 2.31892 0
M  V30 1968 C 183.732 -0.542261 1.65335 0
M  V30 1969 O 184.908 -0.435432 1.96637 0
M  V30 1970 C 181.973 -0.421661 3.44126 0
M  V30 1971 C 181.034 0.505727 4.26311 0
M  V30 1972 C 180.267 -0.234343 5.33185 0
M  V30 1973 O 180.49 -1.46045 5.51386 0
M  V30 1974 O 179.424 0.415443 6.00465 0
M  V30 1975 H 183.25 1.19685 2.79122 0
M  V30 1976 H 180.835 0.648596 1.34587 0
M  V30 1977 H 182.717 -0.861641 4.12497 0
M  V30 1978 H 181.392 -1.23942 2.99032 0
M  V30 1979 H 180.299 0.994513 3.60639 0
M  V30 1980 H 181.632 1.28948 4.75009 0
M  V30 1981 N 183.284 -1.43765 0.645699 0
M  V30 1982 C 184.217 -2.2798 -0.100072 0
M  V30 1983 C 185.195 -1.39391 -0.837194 0
M  V30 1984 O 186.379 -1.68833 -0.838306 0
M  V30 1985 C 183.506 -3.18643 -1.14823 0
M  V30 1986 C 182.552 -4.2344 -0.510009 0
M  V30 1987 S 183.385 -5.30761 0.710824 0
M  V30 1988 C 184.541 -6.24992 -0.33699 0
M  V30 1989 H 184.774 -2.90884 0.614322 0
M  V30 1990 H 182.307 -1.48166 0.434304 0
M  V30 1991 H 184.265 -3.71424 -1.74799 0
M  V30 1992 H 182.926 -2.54932 -1.8349 0
M  V30 1993 H 182.119 -4.86948 -1.29991 0
M  V30 1994 H 181.721 -3.73997 0.0154577 0
M  V30 1995 H 184.013 -6.66691 -1.20537 0
M  V30 1996 H 184.956 -7.07612 0.262879 0
M  V30 1997 H 185.364 -5.60517 -0.669425 0
M  V30 1998 N 184.763 -0.387143 -1.52771 0
M  V30 1999 C 186.009 0.196025 -2.0185 0
M  V30 2000 C 186.342 1.46641 -1.27319 0
M  V30 2001 O 185.617 1.90889 -0.373032 0
M  V30 2002 C 185.9 0.466136 -3.5707 0
M  V30 2003 C 185.753 -0.819385 -4.42274 0
M  V30 2004 C 187.072 1.25768 -4.21747 0
M  V30 2005 H 184.191 0.0697708 -0.73369 0
M  V30 2006 H 186.833 -0.516286 -1.82851 0
M  V30 2007 H 184.983 1.07293 -3.7339 0
M  V30 2008 H 186.655 -1.4563 -4.37709 0
M  V30 2009 H 184.898 -1.43517 -4.09372 0
M  V30 2010 H 185.569 -0.585065 -5.48891 0
M  V30 2011 H 188.045 0.744167 -4.09391 0
M  V30 2012 H 186.921 1.41541 -5.30337 0
M  V30 2013 H 187.182 2.27228 -3.79236 0
M  V30 2014 N 186.241 1.57166 -0.116904 0
M  V30 2015 C 187.191 2.11756 0.845178 0
M  V30 2016 C 188.175 1.03783 1.22955 0
M  V30 2017 O 189.367 1.3002 1.20099 0
M  V30 2018 C 186.496 2.71886 2.09602 0
M  V30 2019 C 185.582 3.86937 1.7361 0
M  V30 2020 N 185.973 4.94073 1.08284 0
M  V30 2021 C 184.271 3.97082 2.03082 0
M  V30 2022 C 184.972 5.74477 0.913855 0
M  V30 2023 N 183.948 5.2423 1.43818 0
M  V30 2024 H 187.75 2.91967 0.336523 0
M  V30 2025 H 185.264 1.62174 0.0856332 0
M  V30 2026 H 187.261 3.09338 2.79492 0
M  V30 2027 H 185.921 1.93138 2.61013 0
M  V30 2028 H 186.932 5.12483 0.747067 0
M  V30 2029 H 183.609 3.29372 2.56554 0
M  V30 2030 H 184.999 6.70701 0.40125 0
M  V30 2031 N 187.719 -0.156864 1.56817 0
M  V30 2032 C 188.649 -1.19589 2.00551 0
M  V30 2033 C 189.63 -1.4536 0.883426 0
M  V30 2034 O 190.815 -1.56449 1.15054 0
M  V30 2035 C 187.945 -2.53143 2.37773 0
M  V30 2036 C 186.899 -2.41913 3.53075 0
M  V30 2037 C 186.225 -3.80088 3.76081 0
M  V30 2038 C 187.525 -1.91157 4.86062 0
M  V30 2039 H 189.219 -0.832293 2.87599 0
M  V30 2040 H 186.765 -0.398918 1.38364 0
M  V30 2041 H 188.718 -3.26047 2.66967 0
M  V30 2042 H 187.442 -2.91319 1.4765 0
M  V30 2043 H 186.101 -1.71462 3.24031 0
M  V30 2044 H 185.749 -4.15683 2.83225 0
M  V30 2045 H 185.449 -3.73439 4.53671 0
M  V30 2046 H 186.973 -4.54556 4.0769 0
M  V30 2047 H 188.387 -2.53846 5.14038 0
M  V30 2048 H 186.784 -1.95422 5.67389 0
M  V30 2049 H 187.854 -0.866673 4.77092 0
M  V30 2050 N 189.197 -1.51736 -0.425897 0
M  V30 2051 C 190.144 -1.73875 -1.51776 0
M  V30 2052 C 191.114 -0.580702 -1.55618 0
M  V30 2053 O 192.299 -0.81641 -1.72451 0
M  V30 2054 C 189.439 -1.88012 -2.89388 0
M  V30 2055 C 188.552 -3.15606 -2.94986 0
M  V30 2056 C 187.687 -3.20271 -4.23793 0
M  V30 2057 C 186.726 -4.42134 -4.23302 0
M  V30 2058 N 185.863 -4.44284 -5.43651 0
M  V30 2059 H 190.703 -2.67071 -1.32201 0
M  V30 2060 H 188.24 -1.32351 -0.642008 0
M  V30 2061 H 190.198 -1.9419 -3.69251 0
M  V30 2062 H 188.828 -0.98213 -3.07496 0
M  V30 2063 H 187.88 -3.18681 -2.07717 0
M  V30 2064 H 189.192 -4.05486 -2.90486 0
M  V30 2065 H 188.346 -3.25428 -5.12036 0
M  V30 2066 H 187.085 -2.28299 -4.30965 0
M  V30 2067 H 186.09 -4.3714 -3.3345 0
M  V30 2068 H 187.315 -5.35382 -4.17783 0
M  V30 2069 H 185.261 -3.55188 -5.51523 0
M  V30 2070 H 185.178 -5.27988 -5.41078 0
M  V30 2071 H 186.446 -4.53649 -6.33895 0
M  V30 2072 N 190.675 0.682077 -1.42076 0
M  V30 2073 C 191.585 1.82535 -1.47371 0
M  V30 2074 C 192.601 1.7017 -0.363079 0
M  V30 2075 O 193.777 1.91848 -0.612875 0
M  V30 2076 C 190.842 3.18624 -1.36674 0
M  V30 2077 C 189.903 3.42999 -2.58167 0
M  V30 2078 C 189.136 4.72595 -2.4797 0
M  V30 2079 O 189.359 5.50006 -1.5116 0
M  V30 2080 O 188.293 4.98054 -3.37974 0
M  V30 2081 H 192.119 1.81023 -2.43853 0
M  V30 2082 H 189.704 0.836887 -1.2376 0
M  V30 2083 H 191.586 3.99847 -1.33043 0
M  V30 2084 H 190.261 3.20789 -0.433138 0
M  V30 2085 H 189.168 2.61653 -2.67373 0
M  V30 2086 H 190.501 3.45659 -3.50401 0
M  V30 2087 N 192.153 1.28127 0.917671 0
M  V30 2088 C 193.083 1.14248 2.03641 0
M  V30 2089 C 194.064 0.0412748 1.7005 0
M  V30 2090 O 195.249 0.217566 1.92977 0
M  V30 2091 C 192.379 0.799431 3.37974 0
M  V30 2092 C 191.333 1.85497 3.85713 0
M  V30 2093 C 190.659 1.36565 5.16966 0
M  V30 2094 C 191.959 3.26085 4.08002 0
M  V30 2095 H 193.653 2.07835 2.15511 0
M  V30 2096 H 191.199 1.00064 1.03553 0
M  V30 2097 H 193.152 0.689114 4.15727 0
M  V30 2098 H 191.876 -0.172145 3.26146 0
M  V30 2099 H 190.535 1.95437 3.10161 0
M  V30 2100 H 190.183 0.383253 5.01538 0
M  V30 2101 H 189.883 2.07143 5.49878 0
M  V30 2102 H 191.407 1.26848 5.97279 0
M  V30 2103 H 192.821 3.19089 4.76293 0
M  V30 2104 H 191.218 3.94462 4.52238 0
M  V30 2105 H 192.288 3.70394 3.12948 0
M  V30 2106 N 193.631 -1.12557 1.10312 0
M  V30 2107 C 194.879 -1.83675 0.843091 0
M  V30 2108 C 195.2 -1.84435 -0.633131 0
M  V30 2109 O 194.47 -1.30657 -1.45964 0
M  V30 2110 H 193.05 -0.680138 0.308904 0
M  V30 2111 H 195.712 -1.36301 1.39313 0
M  V30 2112 H 194.808 -2.87908 1.2048 0
M  V30 2113 N 195.109 -0.891671 -1.2995 0
M  V30 2114 C 196.039 -0.379797 -2.30391 0
M  V30 2115 C 197.02 0.540919 -1.6127 0
M  V30 2116 O 198.205 0.453352 -1.88834 0
M  V30 2117 C 195.335 0.400654 -3.44981 0
M  V30 2118 C 194.289 -0.428905 -4.25846 0
M  V30 2119 C 193.615 0.478557 -5.32554 0
M  V30 2120 C 194.915 -1.67458 -4.94727 0
M  V30 2121 H 196.609 -1.21914 -2.73454 0
M  V30 2122 H 194.155 -0.587675 -1.31462 0
M  V30 2123 H 196.108 0.769434 -4.14316 0
M  V30 2124 H 194.832 1.27371 -3.0074 0
M  V30 2125 H 193.491 -0.779911 -3.58208 0
M  V30 2126 H 193.139 1.34951 -4.84559 0
M  V30 2127 H 192.839 -0.0727433 -5.87555 0
M  V30 2128 H 194.363 0.843705 -6.04743 0
M  V30 2129 H 195.777 -1.376 -5.56542 0
M  V30 2130 H 194.174 -2.16659 -5.59624 0
M  V30 2131 H 195.244 -2.41518 -4.20473 0
M  V30 2132 N 196.587 1.43421 -0.653314 0
M  V30 2133 C 197.817 2.05864 -0.174238 0
M  V30 2134 C 198.225 1.49052 1.16534 0
M  V30 2135 O 197.568 0.616481 1.73047 0
M  V30 2136 C 197.63 3.59499 -0.00875873 0
M  V30 2137 C 197.294 4.38893 -1.27364 0
M  V30 2138 C 198.291 4.70947 -2.20239 0
M  V30 2139 C 195.976 4.789 -1.51525 0
M  V30 2140 C 197.97 5.41916 -3.35568 0
M  V30 2141 C 195.657 5.49614 -2.67147 0
M  V30 2142 C 196.655 5.81044 -3.58994 0
M  V30 2143 O 196.343 6.50313 -4.72597 0
M  V30 2144 H 196.075 0.670345 -0.0872549 0
M  V30 2145 H 198.629 1.84913 -0.894226 0
M  V30 2146 H 196.859 3.79025 0.7666 0
M  V30 2147 H 198.548 4.0364 0.427687 0
M  V30 2148 H 199.314 4.40558 -2.02815 0
M  V30 2149 H 195.193 4.53843 -0.809158 0
M  V30 2150 H 198.737 5.66365 -4.07279 0
M  V30 2151 H 194.634 5.79419 -2.84505 0
M  V30 2152 H 195.402 6.68795 -4.71864 0
M  V30 2153 N 198.065 0.39524 1.52563 0
M  V30 2154 C 199.013 -0.451859 2.28169 0
M  V30 2155 C 200.007 -1.05792 1.32304 0
M  V30 2156 O 201.213 -0.997718 1.49818 0
M  V30 2157 H 197.588 -0.164481 0.733792 0
M  V30 2158 H 199.559 0.207199 2.9768 0
M  V30 2159 C 198.308 -1.56385 3.10546 0
M  V30 2160 H 197.631 -1.10682 3.84174 0
M  V30 2161 H 199.071 -2.13067 3.66577 0
M  V30 2162 C 197.53 -2.52328 2.23231 0
M  V30 2163 O 198.06 -3.5588 1.86312 0
M  V30 2164 N 196.266 -2.22209 1.87274 0
M  V30 2165 H 195.813 -1.38033 2.17496 0
M  V30 2166 H 195.771 -2.86652 1.29143 0
M  V30 2167 N 199.544 -1.57102 0.125237 0
M  V30 2168 C 200.474 -2.18659 -0.819174 0
M  V30 2169 C 201.455 -1.12843 -1.27281 0
M  V30 2170 O 202.64 -1.41104 -1.33429 0
M  V30 2171 C 199.77 -2.79096 -2.06695 0
M  V30 2172 C 198.724 -3.90548 -1.75088 0
M  V30 2173 C 198.05 -4.37821 -3.06948 0
M  V30 2174 C 199.35 -5.12356 -1.01435 0
M  V30 2175 H 201.044 -2.9783 -0.306202 0
M  V30 2176 H 198.59 -1.4326 -0.145839 0
M  V30 2177 H 200.543 -3.2082 -2.73226 0
M  V30 2178 H 199.267 -1.97223 -2.60328 0
M  V30 2179 H 197.926 -3.49409 -1.10944 0
M  V30 2180 H 197.574 -3.52799 -3.58527 0
M  V30 2181 H 197.274 -5.12982 -2.86571 0
M  V30 2182 H 198.798 -4.822 -3.74587 0
M  V30 2183 H 200.212 -5.5106 -1.58132 0
M  V30 2184 H 198.609 -5.9314 -0.911319 0
M  V30 2185 H 199.679 -4.849 -0.00218681 0
M  V30 2186 N 201.022 0.148545 -1.56898 0
M  V30 2187 C 201.955 1.21293 -1.93296 0
M  V30 2188 C 202.933 1.41637 -0.798599 0
M  V30 2189 O 204.117 1.56275 -1.05406 0
M  V30 2190 C 201.244 2.5721 -2.20365 0
M  V30 2191 C 200.29 2.53469 -3.4301 0
M  V30 2192 S 201.123 2.00315 -4.96623 0
M  V30 2193 C 202.279 3.37964 -5.26812 0
M  V30 2194 H 202.512 0.902393 -2.83274 0
M  V30 2195 H 200.045 0.354094 -1.50285 0
M  V30 2196 H 202.003 3.35427 -2.36641 0
M  V30 2197 H 200.664 2.85454 -1.31054 0
M  V30 2198 H 199.857 3.53518 -3.59223 0
M  V30 2199 H 199.459 1.83359 -3.25968 0
M  V30 2200 H 201.751 4.34066 -5.20185 0
M  V30 2201 H 202.694 3.26606 -6.28279 0
M  V30 2202 H 203.102 3.35028 -4.54331 0
M  V30 2203 N 202.5 1.5196 0.417844 0
M  V30 2204 C 203.448 1.75278 1.52907 0
M  V30 2205 C 204.442 0.619611 1.57662 0
M  V30 2206 O 205.648 0.801457 1.61173 0
M  V30 2207 H 202.023 0.554141 0.508362 0
M  V30 2208 H 203.994 2.68389 1.30422 0
M  V30 2209 C 202.743 1.91262 2.90369 0
M  V30 2210 H 202.066 2.77872 2.8745 0
M  V30 2211 H 203.506 2.11581 3.67436 0
M  V30 2212 C 201.965 0.677431 3.30019 0
M  V30 2213 O 202.495 -0.158799 4.01386 0
M  V30 2214 N 200.701 0.515851 2.85985 0
M  V30 2215 H 200.248 1.19744 2.28077 0
M  V30 2216 H 200.206 -0.309315 3.12875 0
M  V30 2217 N 203.978 -0.674533 1.42435 0
M  V30 2218 C 205.227 -1.43034 1.42212 0
M  V30 2219 C 205.54 -1.95555 0.0420788 0
M  V30 2220 O 206.746 -2.71374 -0.0827558 0
M  V30 2221 C 205.202 -2.58748 2.50155 0
M  V30 2222 C 204.81 -2.12925 3.94166 0
M  V30 2223 C 206.554 -3.36257 2.59098 0
M  V30 2224 C 204.461 -3.25723 4.93618 0
M  V30 2225 H 203.391 -0.537345 0.528939 0
M  V30 2226 H 206.042 -0.73024 1.68344 0
M  V30 2227 H 204.424 -3.31128 2.17188 0
M  V30 2228 H 205.598 -1.47697 4.36488 0
M  V30 2229 H 203.913 -1.48354 3.89076 0
M  V30 2230 H 206.51 -4.20264 3.30578 0
M  V30 2231 H 206.853 -3.82866 1.63461 0
M  V30 2232 H 207.386 -2.70947 2.9126 0
M  V30 2233 H 204.125 -2.84105 5.90732 0
M  V30 2234 H 203.645 -3.89732 4.55926 0
M  V30 2235 H 205.324 -3.91186 5.15347 0
M  V30 2236 N 205.456 -1.28612 -0.910864 0
M  V30 2237 C 206.684 -1.18792 -1.69399 0
M  V30 2238 C 207.099 0.253039 -1.87097 0
M  V30 2239 O 206.456 1.17071 -1.40003 0
M  V30 2240 C 206.507 -1.88511 -3.08457 0
M  V30 2241 O 206.228 -3.26979 -2.91576 0
M  V30 2242 C 207.729 -1.85029 -4.02839 0
M  V30 2243 H 204.949 -0.412233 -0.529438 0
M  V30 2244 H 207.493 -1.69788 -1.13984 0
M  V30 2245 H 205.648 -1.41379 -3.60681 0
M  V30 2246 H 206.062 -3.61936 -3.79608 0
M  V30 2247 H 207.536 -2.38395 -4.97867 0
M  V30 2248 H 208.013 -0.823303 -4.31414 0
M  V30 2249 H 208.619 -2.31853 -3.56545 0
M  V30 2250 N 206.934 1.1197 -1.10907 0
M  V30 2251 C 208.35 1.35591 -0.841852 0
M  V30 2252 C 208.55 1.94233 0.536246 0
M  V30 2253 O 207.606 2.1717 1.28816 0
M  V30 2254 C 208.919 2.29284 -1.94549 0
M  V30 2255 C 210.467 2.42862 -1.97451 0
M  V30 2256 C 210.942 3.39873 -3.07002 0
M  V30 2257 N 212.433 3.47433 -3.06341 0
M  V30 2258 C 213.168 4.22421 -3.87748 0
M  V30 2259 N 212.664 5.00432 -4.79103 0
M  V30 2260 N 214.457 4.17876 -3.75946 0
M  V30 2261 H 206.608 0.722664 -1.99728 0
M  V30 2262 H 208.871 0.380635 -0.868229 0
M  V30 2263 H 208.577 1.93378 -2.93765 0
M  V30 2264 H 208.451 3.29452 -1.83688 0
M  V30 2265 H 210.838 2.78046 -0.988645 0
M  V30 2266 H 210.919 1.42566 -2.12388 0
M  V30 2267 H 210.563 3.05417 -4.05811 0
M  V30 2268 H 210.493 4.40011 -2.89306 0
M  V30 2269 H 212.984 2.91784 -2.40147 0
M  V30 2270 H 213.297 5.55002 -5.37766 0
M  V30 2271 H 211.642 4.99612 -4.83128 0
M  V30 2272 H 214.833 3.56016 -3.03924 0
M  V30 2273 H 215.006 4.76061 -4.39624 0
M  V30 2274 N 208.412 0.89855 1.29475 0
M  V30 2275 C 209.66 0.522847 1.9522 0
M  V30 2276 C 209.981 -0.93371 1.71192 0
M  V30 2277 O 209.251 -1.65823 1.04305 0
M  V30 2278 H 207.831 0.190366 0.722336 0
M  V30 2279 H 210.493 1.14459 1.5775 0
M  V30 2280 H 209.589 0.704476 3.04045 0
M  V30 2281 N 209.89 -1.43072 0.660911 0
M  V30 2282 C 211.115 -2.06584 0.183805 0
M  V30 2283 C 211.54 -1.49257 -1.14472 0
M  V30 2284 O 210.898 -0.605528 -1.70889 0
M  V30 2285 C 210.946 -3.60418 0.114434 0
M  V30 2286 O 210.05 -4.01981 -0.921137 0
M  V30 2287 H 209.391 -0.656669 0.0983994 0
M  V30 2288 H 211.921 -1.83447 0.906006 0
M  V30 2289 H 211.931 -4.07946 -0.0663394 0
M  V30 2290 H 210.606 -4.01519 1.08422 0
M  V30 2291 H 209.183 -3.66029 -0.71253 0
M  V30 2292 N 211.368 -0.403325 -1.52352 0
M  V30 2293 C 212.614 0.174605 -2.02047 0
M  V30 2294 C 212.947 1.45282 -1.28867 0
M  V30 2295 O 212.222 1.90483 -0.393257 0
M  V30 2296 C 212.505 0.428238 -3.57545 0
M  V30 2297 C 212.358 -0.866248 -4.4138 0
M  V30 2298 C 213.677 1.21287 -4.23057 0
M  V30 2299 H 210.796 0.0619851 -0.734389 0
M  V30 2300 H 213.438 -0.53565 -1.82293 0
M  V30 2301 H 211.588 1.03327 -3.74507 0
M  V30 2302 H 213.26 -1.50265 -4.3614 0
M  V30 2303 H 211.503 -1.47851 -4.07827 0
M  V30 2304 H 212.174 -0.643249 -5.48239 0
M  V30 2305 H 214.65 0.700703 -4.10158 0
M  V30 2306 H 213.526 1.35909 -5.31808 0
M  V30 2307 H 213.787 2.23193 -3.81625 0
M  V30 2308 N 212.846 1.57033 -0.133567 0
M  V30 2309 C 214.262 1.58035 0.222944 0
M  V30 2310 C 214.462 1.14713 1.6566 0
M  V30 2311 O 213.518 0.841218 2.38075 0
M  V30 2312 C 214.831 3.00691 -0.0236116 0
M  V30 2313 C 216.379 3.12973 0.0411512 0
M  V30 2314 C 216.854 4.57654 -0.177899 0
M  V30 2315 N 218.345 4.63033 -0.124365 0
M  V30 2316 C 219.08 5.72771 -0.268553 0
M  V30 2317 N 218.576 6.91206 -0.46972 0
M  V30 2318 N 220.369 5.61718 -0.2071 0
M  V30 2319 H 212.52 1.8349 -1.06981 0
M  V30 2320 H 214.783 0.848677 -0.422436 0
M  V30 2321 H 214.489 3.36726 -1.0153 0
M  V30 2322 H 214.363 3.70614 0.701808 0
M  V30 2323 H 216.75 2.76787 1.02338 0
M  V30 2324 H 216.831 2.45564 -0.716383 0
M  V30 2325 H 216.475 4.94542 -1.15717 0
M  V30 2326 H 216.405 5.23173 0.599797 0
M  V30 2327 H 218.896 3.7789 0.027011 0
M  V30 2328 H 219.209 7.70693 -0.570212 0
M  V30 2329 H 217.554 6.93156 -0.505876 0
M  V30 2330 H 220.745 4.68072 -0.0507986 0
M  V30 2331 H 220.918 6.47195 -0.322909 0
M  V30 2332 N 214.325 -0.140222 1.56975 0
M  V30 2333 C 215.574 -0.850152 1.82908 0
M  V30 2334 C 215.887 -1.82028 0.715892 0
M  V30 2335 O 217.093 -2.57485 0.861016 0
M  V30 2336 C 215.549 -1.5625 3.24213 0
M  V30 2337 C 215.157 -0.63443 4.43485 0
M  V30 2338 C 216.901 -2.25881 3.59413 0
M  V30 2339 C 214.808 -1.34879 5.75814 0
M  V30 2340 H 213.738 -0.321221 0.682153 0
M  V30 2341 H 216.389 -0.102874 1.83211 0
M  V30 2342 H 214.771 -2.35565 3.18316 0
M  V30 2343 H 215.945 0.12398 4.60633 0
M  V30 2344 H 214.26 -0.0461836 4.16374 0
M  V30 2345 H 216.857 -2.79978 4.5554 0
M  V30 2346 H 217.2 -3.02693 2.85802 0
M  V30 2347 H 217.733 -1.53477 3.67001 0
M  V30 2348 H 214.472 -0.622385 6.52539 0
M  V30 2349 H 213.992 -2.07974 5.6259 0
M  V30 2350 H 215.671 -1.88784 6.18845 0
M  V30 2351 N 215.803 -1.52179 -0.40978 0
M  V30 2352 C 216.713 -1.78364 -1.52392 0
M  V30 2353 C 217.729 -0.669183 -1.60617 0
M  V30 2354 O 218.905 -0.954518 -1.77344 0
M  V30 2355 C 215.97 -1.92822 -2.88133 0
M  V30 2356 C 215.031 -3.16725 -2.898 0
M  V30 2357 C 214.264 -3.30483 -4.19067 0
M  V30 2358 O 214.487 -2.49522 -5.12928 0
M  V30 2359 O 213.421 -4.2363 -4.27576 0
M  V30 2360 H 217.247 -2.72931 -1.33201 0
M  V30 2361 H 214.832 -1.37016 -0.59557 0
M  V30 2362 H 216.714 -2.04157 -3.68643 0
M  V30 2363 H 215.389 -1.01444 -3.07393 0
M  V30 2364 H 214.296 -3.10848 -2.08146 0
M  V30 2365 H 215.629 -4.07881 -2.75489 0
M  V30 2366 N 217.281 0.66697 -1.42791 0
M  V30 2367 C 218.228 1.7803 -1.4688 0
M  V30 2368 C 219.198 1.6299 -0.319919 0
M  V30 2369 O 220.383 1.83432 -0.525118 0
M  V30 2370 C 217.523 3.1611 -1.38451 0
M  V30 2371 C 216.636 3.42381 -2.63437 0
M  V30 2372 C 215.771 4.70232 -2.47094 0
M  V30 2373 C 214.81 4.89564 -3.67415 0
M  V30 2374 N 213.947 6.08661 -3.49966 0
M  V30 2375 H 218.787 1.7387 -2.42019 0
M  V30 2376 H 216.324 0.84868 -1.20149 0
M  V30 2377 H 218.282 3.95914 -1.31561 0
M  V30 2378 H 216.912 3.19374 -0.469033 0
M  V30 2379 H 215.964 2.56774 -2.80662 0
M  V30 2380 H 217.276 3.52557 -3.52853 0
M  V30 2381 H 216.43 5.5814 -2.37834 0
M  V30 2382 H 215.169 4.62353 -1.5518 0
M  V30 2383 H 214.174 4.00096 -3.77099 0
M  V30 2384 H 215.399 4.99282 -4.6032 0
M  V30 2385 H 213.345 6.0194 -2.60776 0
M  V30 2386 H 213.262 6.19733 -4.32975 0
M  V30 2387 H 214.53 6.99226 -3.44532 0
M  V30 2388 N 218.759 1.29093 0.90403 0
M  V30 2389 C 219.707 1.13727 2.02901 0
M  V30 2390 C 220.701 0.0539853 1.69314 0
M  V30 2391 O 221.907 0.213469 1.7873 0
M  V30 2392 H 218.282 0.35117 0.664969 0
M  V30 2393 H 220.253 2.08982 2.13001 0
M  V30 2394 C 219.002 0.826066 3.37745 0
M  V30 2395 H 218.325 1.65164 3.64089 0
M  V30 2396 H 219.765 0.758559 4.17159 0
M  V30 2397 C 218.224 -0.470541 3.33598 0
M  V30 2398 O 218.754 -1.49792 3.72727 0
M  V30 2399 N 216.96 -0.474812 2.86695 0
M  V30 2400 H 216.507 0.361692 2.55048 0
M  V30 2401 H 216.465 -1.34236 2.84303 0
M  V30 2402 N 220.237 -1.11381 1.11499 0
M  V30 2403 C 221.185 -2.19522 0.768956 0
M  V30 2404 C 222.179 -1.67693 -0.239857 0
M  V30 2405 O 223.385 -1.79727 -0.0990755 0
M  V30 2406 H 219.76 -0.715711 0.230786 0
M  V30 2407 H 221.731 -2.45954 1.68964 0
M  V30 2408 C 220.48 -3.46945 0.229073 0
M  V30 2409 H 219.803 -3.8718 0.996596 0
M  V30 2410 H 221.243 -4.23993 0.0251441 0
M  V30 2411 C 219.702 -3.2042 -1.04079 0
M  V30 2412 O 220.232 -3.41178 -2.12038 0
M  V30 2413 N 218.438 -2.74151 -0.963823 0
M  V30 2414 H 217.985 -2.57459 -0.0851722 0
M  V30 2415 H 217.943 -2.56781 -1.81414 0
M  V30 2416 N 221.715 -0.905404 -1.28997 0
M  V30 2417 C 222.625 -0.392246 -2.31298 0
M  V30 2418 C 223.641 0.515889 -1.66176 0
M  V30 2419 O 224.817 0.404093 -1.97304 0
M  V30 2420 C 221.882 0.36686 -3.44754 0
M  V30 2421 C 220.943 -0.573485 -4.25452 0
M  V30 2422 C 220.176 0.149488 -5.33491 0
M  V30 2423 O 220.399 1.37255 -5.5364 0
M  V30 2424 O 219.333 -0.510919 -5.99728 0
M  V30 2425 H 223.159 -1.2411 -2.77183 0
M  V30 2426 H 220.744 -0.669926 -1.33538 0
M  V30 2427 H 222.626 0.795907 -4.13816 0
M  V30 2428 H 221.301 1.19169 -3.00966 0
M  V30 2429 H 220.208 -1.05176 -3.59011 0
M  V30 2430 H 221.541 -1.36489 -4.72897 0
M  V30 2431 N 223.193 1.4272 -0.668489 0
M  V30 2432 C 224.123 2.335 -0.000100175 0
M  V30 2433 C 225.104 1.50328 0.795964 0
M  V30 2434 O 226.289 1.78949 0.754385 0
M  V30 2435 C 223.419 3.33874 0.956302 0
M  V30 2436 C 222.373 4.27152 0.269278 0
M  V30 2437 C 221.699 5.17684 1.33818 0
M  V30 2438 C 222.999 5.15373 -0.847805 0
M  V30 2439 H 224.693 2.89639 -0.758244 0
M  V30 2440 H 222.239 1.39269 -0.366079 0
M  V30 2441 H 224.192 3.9629 1.43292 0
M  V30 2442 H 222.916 2.76025 1.74579 0
M  V30 2443 H 221.575 3.66123 -0.187042 0
M  V30 2444 H 221.223 4.56165 2.1195 0
M  V30 2445 H 220.923 5.80918 0.883659 0
M  V30 2446 H 222.447 5.82974 1.81586 0
M  V30 2447 H 223.861 5.7151 -0.452681 0
M  V30 2448 H 222.258 5.87407 -1.22773 0
M  V30 2449 H 223.328 4.5415 -1.69929 0
M  V30 2450 N 224.671 0.411399 1.52136 0
M  V30 2451 C 225.911 -0.163143 2.03748 0
M  V30 2452 C 226.275 -1.42187 1.29022 0
M  V30 2453 O 227.476 -2.075 1.70872 0
M  V30 2454 C 225.747 -0.402651 3.55125 0
M  V30 2455 S 227.306 -0.944315 4.28519 0
M  V30 2456 H 224.124 -0.0439833 0.709638 0
M  V30 2457 H 226.726 0.56484 1.87163 0
M  V30 2458 H 225.43 0.520212 4.0709 0
M  V30 2459 H 224.961 -1.15844 3.75957 0
M  V30 2460 H 226.976 -2.22463 4.43536 0
M  V30 2461 N 226.149 -1.5696 0.141893 0
M  V30 2462 C 227.379 -2.00031 -0.516828 0
M  V30 2463 C 227.787 -1.02091 -1.59293 0
M  V30 2464 O 227.13 -0.00909657 -1.83698 0
M  V30 2465 C 227.192 -3.39534 -1.1814 0
M  V30 2466 C 226.856 -4.56313 -0.250513 0
M  V30 2467 C 227.853 -5.17295 0.519839 0
M  V30 2468 C 225.538 -5.02061 -0.154907 0
M  V30 2469 C 227.532 -6.2243 1.3733 0
M  V30 2470 C 225.219 -6.07053 0.702161 0
M  V30 2471 C 226.217 -6.67106 1.46487 0
M  V30 2472 O 225.905 -7.70066 2.30767 0
M  V30 2473 H 225.637 -0.661451 -0.139493 0
M  V30 2474 H 228.191 -2.04086 0.231926 0
M  V30 2475 H 226.421 -3.32302 -1.97769 0
M  V30 2476 H 228.11 -3.66745 -1.73933 0
M  V30 2477 H 228.876 -4.82852 0.45598 0
M  V30 2478 H 224.755 -4.5505 -0.7383 0
M  V30 2479 H 228.299 -6.69233 1.96909 0
M  V30 2480 H 224.196 -6.40923 0.76733 0
M  V30 2481 H 224.964 -7.87264 2.23959 0
M  V30 2482 N 227.627 0.131896 -1.57047 0
M  V30 2483 C 228.557 1.16384 -2.02428 0
M  V30 2484 C 229.538 1.43936 -0.90644 0
M  V30 2485 O 230.723 1.54599 -1.17528 0
M  V30 2486 C 227.853 2.49328 -2.4177 0
M  V30 2487 C 226.807 2.36266 -3.56879 0
M  V30 2488 C 226.133 3.74057 -3.8208 0
M  V30 2489 C 227.433 1.834 -4.89042 0
M  V30 2490 H 229.127 0.786433 -2.88887 0
M  V30 2491 H 226.673 0.376855 -1.38981 0
M  V30 2492 H 228.626 3.21759 -2.7212 0
M  V30 2493 H 227.35 2.88934 -1.52266 0
M  V30 2494 H 226.009 1.66286 -3.26718 0
M  V30 2495 H 225.657 4.11125 -2.89803 0
M  V30 2496 H 225.357 3.66174 -4.59554 0
M  V30 2497 H 226.881 4.48012 -4.1487 0
M  V30 2498 H 228.295 2.45636 -5.18011 0
M  V30 2499 H 226.692 1.8637 -5.70426 0
M  V30 2500 H 227.762 0.790662 -4.7841 0
M  V30 2501 N 229.106 1.52395 0.401703 0
M  V30 2502 C 230.069 1.75636 1.47257 0
M  V30 2503 C 231.069 0.62628 1.48103 0
M  V30 2504 O 232.259 0.894227 1.49497 0
M  V30 2505 C 229.391 1.84553 2.86624 0
M  V30 2506 H 230.584 2.71241 1.27938 0
M  V30 2507 H 228.137 1.42923 0.632662 0
M  V30 2508 H 228.872 0.908882 3.11303 0
M  V30 2509 H 228.657 2.66715 2.87412 0
M  V30 2510 H 230.147 2.04251 3.64241 0
M  V30 2511 N 230.584 -0.659388 1.43143 0
M  V30 2512 C 231.812 -1.44723 1.47861 0
M  V30 2513 C 232.227 -1.88563 0.0945886 0
M  V30 2514 O 231.584 -1.59108 -0.893915 0
M  V30 2515 C 231.635 -2.68627 2.41913 0
M  V30 2516 O 231.356 -2.26623 3.74932 0
M  V30 2517 C 232.857 -3.62045 2.55809 0
M  V30 2518 H 230.077 -0.444801 0.502387 0
M  V30 2519 H 232.621 -0.808916 1.87821 0
M  V30 2520 H 230.776 -3.28613 2.05164 0
M  V30 2521 H 231.19 -3.06745 4.2545 0
M  V30 2522 H 232.664 -4.45666 3.25708 0
M  V30 2523 H 233.141 -4.08981 1.60099 0
M  V30 2524 H 233.747 -3.07944 2.93344 0
M  V30 2525 N 232.062 -1.29571 -0.897171 0
M  V30 2526 C 233.311 -1.1706 -1.64256 0
M  V30 2527 C 233.624 0.276476 -1.93636 0
M  V30 2528 O 234.83 0.52294 -2.66416 0
M  V30 2529 C 233.286 -2.0475 -2.95982 0
M  V30 2530 C 232.894 -3.54295 -2.74187 0
M  V30 2531 C 234.638 -2.0097 -3.73914 0
M  V30 2532 C 232.545 -4.34081 -4.01656 0
M  V30 2533 H 231.475 -0.43452 -0.616205 0
M  V30 2534 H 234.126 -1.54229 -0.994268 0
M  V30 2535 H 232.508 -1.60452 -3.62038 0
M  V30 2536 H 233.682 -4.06662 -2.1671 0
M  V30 2537 H 231.997 -3.59773 -2.09648 0
M  V30 2538 H 234.594 -2.57838 -4.68427 0
M  V30 2539 H 234.937 -0.990273 -4.0435 0
M  V30 2540 H 235.47 -2.43325 -3.14703 0
M  V30 2541 H 232.209 -5.36671 -3.76384 0
M  V30 2542 H 231.729 -3.86483 -4.58684 0
M  V30 2543 H 233.408 -4.44877 -4.69781 0
M  V30 2544 N 233.54 1.10788 -1.12088 0
M  V30 2545 C 234.817 1.79136 -0.785476 0
M  V30 2546 C 235.197 1.98246 0.725377 0
M  V30 2547 O 234.545 1.57258 1.65778 0
M  V30 2548 C 234.755 3.12375 -1.55636 0
M  V30 2549 C 236.103 3.8731 -1.74001 0
M  V30 2550 O 237.127 3.22085 -1.52117 0
M  V30 2551 O 235.986 5.04369 -2.10415 0
M  V30 2552 H 233.08 0.776226 -0.285311 0
M  V30 2553 H 235.626 1.1747 -1.2247 0
M  V30 2554 H 234.398 2.93863 -2.5838 0
M  V30 2555 H 234.021 3.81758 -1.11114 0
M  V30 2556 N 235.018 0.912232 1.28515 0
M  V30 2557 C 236.264 0.554851 1.95686 0
M  V30 2558 C 236.619 -0.89138 1.70506 0
M  V30 2559 O 235.912 -1.62529 1.01464 0
M  V30 2560 C 236.106 0.798392 3.48368 0
M  V30 2561 C 235.935 2.26674 3.88393 0
M  V30 2562 C 234.705 2.91657 4.12631 0
M  V30 2563 C 236.903 3.24303 3.99164 0
M  V30 2564 N 234.885 4.28805 4.39317 0
M  V30 2565 C 236.256 4.4661 4.30046 0
M  V30 2566 C 238.311 3.19723 3.81683 0
M  V30 2567 C 237.014 5.64915 4.45268 0
M  V30 2568 C 239.04 4.37325 3.98121 0
M  V30 2569 C 238.402 5.58406 4.29375 0
M  V30 2570 H 234.501 0.252876 0.739985 0
M  V30 2571 H 237.085 1.17565 1.55199 0
M  V30 2572 H 235.256 0.20688 3.87849 0
M  V30 2573 H 236.988 0.405193 4.02666 0
M  V30 2574 H 233.743 2.42393 4.06869 0
M  V30 2575 H 234.167 4.99712 4.56746 0
M  V30 2576 H 238.809 2.27191 3.56573 0
M  V30 2577 H 236.527 6.57927 4.6921 0
M  V30 2578 H 240.113 4.35282 3.86033 0
M  V30 2579 H 238.993 6.47889 4.41825 0
M  V30 2580 N 236.496 -1.42363 0.676048 0
M  V30 2581 C 237.721 -2.06377 0.205705 0
M  V30 2582 C 238.146 -1.50463 -1.12883 0
M  V30 2583 O 237.504 -0.623619 -1.70237 0
M  V30 2584 C 237.552 -3.60277 0.152655 0
M  V30 2585 O 236.656 -4.02935 -0.87845 0
M  V30 2586 H 235.997 -0.655588 0.105359 0
M  V30 2587 H 238.527 -1.82475 0.925412 0
M  V30 2588 H 238.537 -4.07993 -0.0230675 0
M  V30 2589 H 237.212 -4.00346 1.12675 0
M  V30 2590 H 235.789 -3.66764 -0.673668 0
M  V30 2591 N 237.974 -0.419461 -1.51915 0
M  V30 2592 C 239.39 -0.0708431 -1.59443 0
M  V30 2593 C 239.59 1.41796 -1.43164 0
M  V30 2594 O 238.646 2.18596 -1.26381 0
M  V30 2595 C 239.959 -0.574991 -2.95151 0
M  V30 2596 C 241.507 -0.533867 -3.08413 0
M  V30 2597 C 241.982 -1.01469 -4.46618 0
M  V30 2598 N 243.473 -0.971939 -4.52888 0
M  V30 2599 C 244.208 -1.31505 -5.58116 0
M  V30 2600 N 243.704 -1.73014 -6.70849 0
M  V30 2601 N 245.497 -1.23436 -5.48379 0
M  V30 2602 H 237.648 -1.38836 -1.60743 0
M  V30 2603 H 239.911 -0.570998 -0.756747 0
M  V30 2604 H 239.617 -1.61597 -3.12377 0
M  V30 2605 H 239.491 0.00979777 -3.77199 0
M  V30 2606 H 241.878 0.498086 -2.90866 0
M  V30 2607 H 241.959 -1.15484 -2.28248 0
M  V30 2608 H 241.603 -2.04502 -4.6491 0
M  V30 2609 H 241.533 -0.370433 -5.25295 0
M  V30 2610 H 244.024 -0.666893 -3.71969 0
M  V30 2611 H 244.337 -1.97479 -7.47143 0
M  V30 2612 H 242.682 -1.76926 -6.72103 0
M  V30 2613 H 245.873 -0.908869 -4.59192 0
M  V30 2614 H 246.046 -1.50506 -6.30279 0
M  V30 2615 N 239.452 1.56882 -0.150215 0
M  V30 2616 C 240.701 1.95403 0.500071 0
M  V30 2617 C 241.014 1.03777 1.658 0
M  V30 2618 O 242.22 1.31889 2.37313 0
M  V30 2619 C 240.676 3.4738 0.941018 0
M  V30 2620 C 240.284 4.47596 -0.190158 0
M  V30 2621 C 242.028 3.9476 1.56091 0
M  V30 2622 C 239.935 5.90787 0.269237 0
M  V30 2623 H 238.865 0.729515 0.190588 0
M  V30 2624 H 241.516 1.81988 -0.235074 0
M  V30 2625 H 239.898 3.56138 1.73152 0
M  V30 2626 H 241.072 4.50536 -0.967157 0
M  V30 2627 H 239.387 4.10151 -0.718666 0
M  V30 2628 H 241.984 4.99181 1.9163 0
M  V30 2629 H 242.327 3.36494 2.45107 0
M  V30 2630 H 242.86 3.88932 0.835249 0
M  V30 2631 H 239.599 6.52879 -0.585621 0
M  V30 2632 H 239.119 5.912 1.01204 0
M  V30 2633 H 240.798 6.42979 0.720176 0
M  V30 2634 N 240.93 -0.123565 1.57115 0
M  V30 2635 C 241.86 -1.15309 2.03042 0
M  V30 2636 C 242.841 -1.43454 0.914061 0
M  V30 2637 O 244.026 -1.53973 1.18347 0
M  V30 2638 C 241.156 -2.48043 2.43089 0
M  V30 2639 C 240.11 -2.3437 3.58127 0
M  V30 2640 C 239.436 -3.72026 3.84059 0
M  V30 2641 C 240.736 -1.80804 4.90007 0
M  V30 2642 H 242.43 -0.771102 2.893 0
M  V30 2643 H 239.976 -0.369479 1.39179 0
M  V30 2644 H 241.929 -3.20311 2.73823 0
M  V30 2645 H 240.653 -2.88122 1.53796 0
M  V30 2646 H 239.312 -1.64551 3.27595 0
M  V30 2647 H 238.96 -4.09582 2.91979 0
M  V30 2648 H 238.66 -3.63732 4.6149 0
M  V30 2649 H 240.184 -4.45806 4.1724 0
M  V30 2650 H 241.598 -2.42886 5.19307 0
M  V30 2651 H 239.995 -1.83343 5.71407 0
M  V30 2652 H 241.065 -0.76528 4.78823 0
M  V30 2653 N 242.408 -1.52605 -0.393616 0
M  V30 2654 C 243.685 -1.58001 -1.15304 0
M  V30 2655 C 244.065 -0.370385 -2.07825 0
M  V30 2656 O 243.413 0.641638 -2.19306 0
M  V30 2657 C 243.623 -2.91652 -1.91677 0
M  V30 2658 C 244.971 -3.4522 -2.47201 0
M  V30 2659 O 245.995 -2.93495 -2.01839 0
M  V30 2660 O 244.854 -4.35579 -3.3005 0
M  V30 2661 H 241.948 -0.637068 -0.527327 0
M  V30 2662 H 244.494 -1.64939 -0.399141 0
M  V30 2663 H 243.266 -3.71136 -1.23992 0
M  V30 2664 H 242.889 -2.88077 -2.74039 0
M  V30 2665 N 243.887 0.651787 -1.4349 0
M  V30 2666 C 245.112 1.44434 -1.48841 0
M  V30 2667 C 245.537 1.8779 -0.107955 0
M  V30 2668 O 244.895 1.57464 0.898602 0
M  V30 2669 C 244.943 2.65458 -2.44059 0
M  V30 2670 O 244.047 3.64566 -1.92784 0
M  V30 2671 H 243.388 0.433005 -0.503391 0
M  V30 2672 H 245.918 0.797451 -1.88419 0
M  V30 2673 H 245.928 3.13255 -2.6141 0
M  V30 2674 H 244.603 2.33244 -3.4434 0
M  V30 2675 H 243.18 3.23716 -1.851 0
M  V30 2676 N 245.365 1.30045 0.890287 0
M  V30 2677 C 246.611 1.18737 1.64406 0
M  V30 2678 C 246.944 -0.258525 1.92472 0
M  V30 2679 O 246.219 -1.18562 1.54186 0
M  V30 2680 C 246.502 2.01087 2.98724 0
M  V30 2681 C 246.355 3.53867 2.77665 0
M  V30 2682 C 247.674 1.84457 3.9958 0
M  V30 2683 H 244.793 0.432698 0.596608 0
M  V30 2684 H 247.435 1.5962 1.0306 0
M  V30 2685 H 245.585 1.66349 3.51084 0
M  V30 2686 H 247.257 3.98637 2.32133 0
M  V30 2687 H 245.5 3.78318 2.12269 0
M  V30 2688 H 246.171 4.06772 3.7315 0
M  V30 2689 H 248.647 2.14817 3.56361 0
M  V30 2690 H 247.523 2.44411 4.91482 0
M  V30 2691 H 247.784 0.802276 4.3476 0
M  V30 2692 N 246.843 -1.10192 1.12674 0
M  V30 2693 C 247.753 -2.20172 0.810026 0
M  V30 2694 C 248.769 -1.72821 -0.202188 0
M  V30 2695 O 249.945 -2.01369 -0.0351691 0
M  V30 2696 C 247.01 -3.45631 0.272007 0
M  V30 2697 C 246.071 -4.07704 1.34447 0
M  V30 2698 C 245.304 -5.27175 0.832029 0
M  V30 2699 O 245.527 -5.69425 -0.333284 0
M  V30 2700 O 244.461 -5.80168 1.60277 0
M  V30 2701 H 248.287 -2.49701 1.72867 0
M  V30 2702 H 245.872 -1.18977 0.903597 0
M  V30 2703 H 247.754 -4.21394 -0.0230219 0
M  V30 2704 H 246.429 -3.17723 -0.619164 0
M  V30 2705 H 245.336 -3.33614 1.6927 0
M  V30 2706 H 246.669 -4.3982 2.2095 0
M  V30 2707 N 248.321 -0.919034 -1.28029 0
M  V30 2708 C 249.598 -0.473668 -1.89778 0
M  V30 2709 C 249.978 1.04783 -1.83259 0
M  V30 2710 O 249.326 1.8982 -1.27202 0
M  V30 2711 C 249.536 -1.00998 -3.34066 0
M  V30 2712 C 250.884 -1.06525 -4.1102 0
M  V30 2713 O 251.908 -0.958996 -3.43048 0
M  V30 2714 O 250.767 -1.22776 -5.3253 0
M  V30 2715 H 247.861 -0.15098 -0.813101 0
M  V30 2716 H 250.407 -1.01016 -1.36359 0
M  V30 2717 H 249.179 -2.05392 -3.33061 0
M  V30 2718 H 248.802 -0.454626 -3.94992 0
M  V30 2719 N 249.799 1.42003 -0.683588 0
M  V30 2720 C 250.747 2.326 0.000815408 0
M  V30 2721 C 251.741 1.50308 0.781278 0
M  V30 2722 O 252.947 1.66322 0.688251 0
M  V30 2723 H 249.322 0.751758 0.0190616 0
M  V30 2724 H 251.293 2.88011 -0.780528 0
M  V30 2725 C 250.042 3.34978 0.93195 0
M  V30 2726 H 249.365 3.98345 0.340817 0
M  V30 2727 H 250.805 4.00936 1.37936 0
M  V30 2728 C 249.264 2.67925 2.04249 0
M  V30 2729 O 249.794 2.51788 3.12995 0
M  V30 2730 N 248 2.2681 1.81675 0
M  V30 2731 H 247.547 2.40135 0.932363 0
M  V30 2732 H 247.505 1.8228 2.56167 0
M  V30 2733 N 251.277 0.427512 1.51691 0
M  V30 2734 C 252.507 -0.140986 2.06118 0
M  V30 2735 C 252.915 -1.37854 1.29588 0
M  V30 2736 O 252.258 -1.80411 0.346036 0
M  V30 2737 C 252.32 -0.538276 3.55447 0
M  V30 2738 C 251.984 0.591095 4.53161 0
M  V30 2739 C 252.981 1.46027 4.98971 0
M  V30 2740 C 250.666 0.769028 4.96378 0
M  V30 2741 C 252.66 2.49216 5.8666 0
M  V30 2742 C 250.347 1.80421 5.83859 0
M  V30 2743 C 251.345 2.66417 6.28897 0
M  V30 2744 O 251.033 3.68159 7.14643 0
M  V30 2745 H 250.765 -0.0157455 0.675817 0
M  V30 2746 H 253.319 0.602495 1.96365 0
M  V30 2747 H 251.549 -1.33432 3.6295 0
M  V30 2748 H 253.238 -1.0368 3.92435 0
M  V30 2749 H 254.004 1.33429 4.66285 0
M  V30 2750 H 249.883 0.109273 4.6087 0
M  V30 2751 H 253.427 3.16372 6.21735 0
M  V30 2752 H 249.324 1.93042 6.15959 0
M  V30 2753 H 250.092 3.64622 7.32798 0
M  V30 2754 N 252.755 -1.56801 0.158532 0
M  V30 2755 C 254.004 -1.95665 -0.489702 0
M  V30 2756 C 254.317 -1.04654 -1.65248 0
M  V30 2757 O 255.523 -1.33146 -2.3661 0
M  V30 2758 C 253.979 -3.47874 -0.922582 0
M  V30 2759 C 253.587 -4.47489 0.213893 0
M  V30 2760 C 255.331 -3.95583 -1.53996 0
M  V30 2761 C 253.238 -5.90921 -0.237903 0
M  V30 2762 H 252.168 -0.730516 -0.186716 0
M  V30 2763 H 254.819 -1.81861 0.244722 0
M  V30 2764 H 253.201 -3.57051 -1.71261 0
M  V30 2765 H 254.375 -4.50017 0.991036 0
M  V30 2766 H 252.69 -4.09764 0.740407 0
M  V30 2767 H 255.287 -5.0019 -1.8898 0
M  V30 2768 H 255.63 -3.37789 -2.43319 0
M  V30 2769 H 256.163 -3.8937 -0.814611 0
M  V30 2770 H 252.902 -6.52559 0.620236 0
M  V30 2771 H 252.422 -5.91729 -0.980676 0
M  V30 2772 H 254.101 -6.43352 -0.686067 0
M  V30 2773 N 254.233 0.115231 -1.57178 0
M  V30 2774 C 255.479 0.82357 -1.85325 0
M  V30 2775 C 255.812 1.79349 -0.744814 0
M  V30 2776 O 255.087 1.92899 0.249024 0
M  V30 2777 C 255.37 1.57014 -3.24066 0
M  V30 2778 C 255.223 0.619565 -4.45513 0
M  V30 2779 C 256.542 2.52545 -3.60429 0
M  V30 2780 H 253.661 0.297948 -0.674089 0
M  V30 2781 H 256.303 0.0877138 -1.89797 0
M  V30 2782 H 254.453 2.19742 -3.20383 0
M  V30 2783 H 256.125 0.000837639 -4.613 0
M  V30 2784 H 254.368 -0.0686174 -4.33746 0
M  V30 2785 H 255.039 1.17866 -5.3927 0
M  V30 2786 H 257.515 1.9992 -3.64926 0
M  V30 2787 H 256.391 3.01811 -4.58477 0
M  V30 2788 H 256.652 3.35383 -2.88047 0
M  V30 2789 N 255.711 1.52812 0.385517 0
M  V30 2790 C 256.641 1.80808 1.47752 0
M  V30 2791 C 257.622 0.660318 1.5676 0
M  V30 2792 O 258.807 0.908246 1.71652 0
M  V30 2793 C 255.937 1.98008 2.85324 0
M  V30 2794 C 254.891 3.13709 2.91154 0
M  V30 2795 C 254.217 3.16169 4.31209 0
M  V30 2796 C 255.517 4.52709 2.60483 0
M  V30 2797 H 257.211 2.72253 1.24573 0
M  V30 2798 H 254.757 1.31003 0.597839 0
M  V30 2799 H 256.71 2.16176 3.61726 0
M  V30 2800 H 255.434 1.03255 3.09848 0
M  V30 2801 H 254.093 2.95329 2.17201 0
M  V30 2802 H 253.741 2.19092 4.52778 0
M  V30 2803 H 253.441 3.93894 4.36029 0
M  V30 2804 H 254.965 3.36496 5.09512 0
M  V30 2805 H 256.379 4.71173 3.26602 0
M  V30 2806 H 254.776 5.32528 2.76648 0
M  V30 2807 H 255.846 4.59186 1.55809 0
M  V30 2808 N 257.189 -0.644168 1.43834 0
M  V30 2809 C 258.137 -1.77793 1.49974 0
M  V30 2810 C 259.131 -1.65253 0.372536 0
M  V30 2811 O 260.337 -1.7149 0.546924 0
M  V30 2812 H 256.712 -0.58675 0.47035 0
M  V30 2813 H 258.683 -1.69736 2.45423 0
M  V30 2814 C 257.432 -3.16087 1.4486 0
M  V30 2815 H 256.755 -3.26378 2.30905 0
M  V30 2816 H 258.195 -3.95349 1.53217 0
M  V30 2817 C 256.654 -3.36484 0.167463 0
M  V30 2818 O 257.184 -3.94298 -0.767609 0
M  V30 2819 N 255.39 -2.90504 0.0747556 0
M  V30 2820 H 254.937 -2.4364 0.836507 0
M  V30 2821 H 254.895 -3.04527 -0.781714 0
M  V30 2822 N 258.668 -1.30515 -0.883378 0
M  V30 2823 C 259.615 -1.17032 -1.98927 0
M  V30 2824 C 260.585 -0.0594241 -1.65994 0
M  V30 2825 O 261.77 -0.229895 -1.8941 0
M  V30 2826 C 258.91 -0.869777 -3.33959 0
M  V30 2827 C 258.023 -2.06271 -3.79574 0
M  V30 2828 C 257.158 -1.70011 -5.03259 0
M  V30 2829 C 256.197 -2.8579 -5.41286 0
M  V30 2830 N 255.334 -2.49816 -6.56153 0
M  V30 2831 H 260.174 -2.1164 -2.09792 0
M  V30 2832 H 257.711 -1.05296 -1.02719 0
M  V30 2833 H 259.669 -0.676138 -4.11685 0
M  V30 2834 H 258.299 0.0394332 -3.22776 0
M  V30 2835 H 257.351 -2.36755 -2.97744 0
M  V30 2836 H 258.663 -2.92971 -4.03694 0
M  V30 2837 H 257.817 -1.47032 -5.88614 0
M  V30 2838 H 256.556 -0.804829 -4.81013 0
M  V30 2839 H 255.561 -3.09434 -4.54456 0
M  V30 2840 H 256.786 -3.76008 -5.65504 0
M  V30 2841 H 254.732 -1.62795 -6.35479 0
M  V30 2842 H 254.649 -3.30048 -6.8015 0
M  V30 2843 H 255.917 -2.30197 -7.44735 0
M  V30 2844 N 260.146 1.09593 -1.13257 0
M  V30 2845 C 261.423 1.78293 -0.804432 0
M  V30 2846 C 261.803 1.99004 0.70431 0
M  V30 2847 O 261.151 1.59007 1.641 0
M  V30 2848 C 261.361 3.10707 -1.5894 0
M  V30 2849 C 262.709 3.85443 -1.78099 0
M  V30 2850 O 263.733 3.20454 -1.55525 0
M  V30 2851 O 262.592 5.02108 -2.15753 0
M  V30 2852 H 259.686 0.773156 -0.293528 0
M  V30 2853 H 262.232 1.16164 -1.23709 0
M  V30 2854 H 261.004 2.91106 -2.61482 0
M  V30 2855 H 260.627 3.80558 -1.15157 0
M  V30 2856 N 261.624 0.925811 1.2754 0
M  V30 2857 C 262.901 0.483726 1.89524 0
M  V30 2858 C 263.281 -1.03809 1.83812 0
M  V30 2859 O 262.629 -1.89143 1.28207 0
M  V30 2860 C 262.839 1.02769 3.33526 0
M  V30 2861 C 264.187 1.08703 4.10449 0
M  V30 2862 O 265.211 0.977175 3.42534 0
M  V30 2863 O 264.07 1.25599 5.31871 0
M  V30 2864 H 261.164 0.15529 0.812289 0
M  V30 2865 H 263.71 1.01738 1.35822 0
M  V30 2866 H 262.482 2.07155 3.31967 0
M  V30 2867 H 262.105 0.475567 3.94746 0
M  V30 2868 N 263.102 -1.41638 0.69111 0
M  V30 2869 C 264.05 -2.32597 0.0115199 0
M  V30 2870 C 265.044 -1.5072 -0.773296 0
M  V30 2871 O 266.25 -1.66685 -0.67942 0
M  V30 2872 H 262.625 -0.751849 -0.0150746 0
M  V30 2873 H 264.596 -2.87593 0.795791 0
M  V30 2874 C 263.345 -3.35467 -0.914172 0
M  V30 2875 H 262.668 -3.9852 -0.319687 0
M  V30 2876 H 264.108 -4.01662 -1.35808 0
M  V30 2877 C 262.567 -2.69004 -2.02826 0
M  V30 2878 O 263.097 -2.53444 -3.11655 0
M  V30 2879 N 261.303 -2.2777 -1.80469 0
M  V30 2880 H 260.85 -2.40626 -0.919615 0
M  V30 2881 H 260.808 -1.83635 -2.55197 0
M  V30 2882 N 264.58 -0.43555 -1.51462 0
M  V30 2883 C 265.49 0.383001 -2.31453 0
M  V30 2884 C 266.506 1.02931 -1.4029 0
M  V30 2885 O 267.682 1.02507 -1.73362 0
M  V30 2886 C 264.747 1.47043 -3.13973 0
M  V30 2887 C 263.808 0.844433 -4.20913 0
M  V30 2888 C 263.041 1.88004 -4.9949 0
M  V30 2889 O 263.264 3.10199 -4.78678 0
M  V30 2890 O 262.198 1.47157 -5.83634 0
M  V30 2891 H 266.024 -0.269964 -3.02498 0
M  V30 2892 H 263.609 -0.19813 -1.4808 0
M  V30 2893 H 265.491 2.10113 -3.65281 0
M  V30 2894 H 264.166 2.10751 -2.45695 0
M  V30 2895 H 263.073 0.175729 -3.73687 0
M  V30 2896 H 264.406 0.250869 -4.9156 0
M  V30 2897 N 266.058 1.56714 -0.166846 0
M  V30 2898 C 266.968 2.21331 0.777791 0
M  V30 2899 C 267.984 1.20358 1.25658 0
M  V30 2900 O 269.16 1.53005 1.30964 0
M  V30 2901 C 266.225 2.83787 1.99163 0
M  V30 2902 C 265.286 3.99947 1.56016 0
M  V30 2903 C 264.519 4.59415 2.71613 0
M  V30 2904 O 264.742 4.17769 3.88362 0
M  V30 2905 O 263.676 5.49359 2.45945 0
M  V30 2906 H 267.502 3.02605 0.257636 0
M  V30 2907 H 265.087 1.49275 0.0611393 0
M  V30 2908 H 266.969 3.23405 2.70161 0
M  V30 2909 H 265.644 2.05513 2.50092 0
M  V30 2910 H 264.551 3.65007 0.819809 0
M  V30 2911 H 265.884 4.79801 1.09782 0
M  V30 2912 N 267.536 -0.106894 1.57237 0
M  V30 2913 C 268.776 -0.818277 1.87306 0
M  V30 2914 C 269.14 -1.76474 0.756371 0
M  V30 2915 O 270.341 -2.5186 0.939155 0
M  V30 2916 C 268.612 -1.53806 3.22612 0
M  V30 2917 S 270.171 -2.28935 3.74345 0
M  V30 2918 H 266.989 -0.272862 0.656557 0
M  V30 2919 H 269.591 -0.075988 1.95352 0
M  V30 2920 H 268.295 -0.834951 4.01817 0
M  V30 2921 H 267.826 -2.32049 3.17674 0
M  V30 2922 H 269.841 -3.54871 3.46815 0
M  V30 2923 N 269.014 -1.53014 -0.377408 0
M  V30 2924 C 270.262 -1.6829 -1.11906 0
M  V30 2925 C 270.583 -0.431206 -1.90173 0
M  V30 2926 O 269.853 0.554595 -1.87886 0
M  V30 2927 H 268.433 -0.620371 -0.416112 0
M  V30 2928 H 271.095 -1.90167 -0.426893 0
M  V30 2929 H 270.191 -2.53862 -1.8155 0
M  V30 2930 N 270.492 0.636531 -1.44174 0
M  V30 2931 C 271.769 1.39463 -1.37148 0
M  V30 2932 C 272.149 2.11082 -0.027507 0
M  V30 2933 O 271.497 2.05954 0.989716 0
M  V30 2934 C 271.707 2.36552 -2.56601 0
M  V30 2935 C 273.055 3.00048 -3.00427 0
M  V30 2936 O 274.079 2.46878 -2.56767 0
M  V30 2937 O 272.938 3.96488 -3.76111 0
M  V30 2938 H 270.032 0.623903 -0.542839 0
M  V30 2939 H 272.578 0.662039 -1.56253 0
M  V30 2940 H 271.35 1.82692 -3.46034 0
M  V30 2941 H 270.973 3.17236 -2.39681 0
M  V30 2942 N 271.97 1.30982 0.876444 0
M  V30 2943 C 273.219 1.19658 1.62373 0
M  V30 2944 C 273.532 -0.245636 1.94052 0
M  V30 2945 O 274.738 -0.48049 2.67214 0
M  V30 2946 C 273.194 2.09433 2.92687 0
M  V30 2947 C 272.802 3.58613 2.68516 0
M  V30 2948 C 274.546 2.06893 3.70669 0
M  V30 2949 C 272.453 4.40416 3.94699 0
M  V30 2950 H 271.383 0.444268 0.609214 0
M  V30 2951 H 274.034 1.55791 0.969605 0
M  V30 2952 H 272.416 1.66191 3.59439 0
M  V30 2953 H 273.59 4.10058 2.10212 0
M  V30 2954 H 271.905 3.63063 2.03898 0
M  V30 2955 H 274.502 2.65258 4.64265 0
M  V30 2956 H 274.845 1.05448 4.02724 0
M  V30 2957 H 275.378 2.48301 3.10792 0
M  V30 2958 H 272.117 5.42591 3.67798 0
M  V30 2959 H 271.637 3.93731 4.52477 0
M  V30 2960 H 273.316 4.52294 4.62644 0
M  V30 2961 N 273.449 -1.08991 1.13837 0
M  V30 2962 C 274.689 -1.82867 0.913183 0
M  V30 2963 C 275.053 -1.83936 -0.550604 0
M  V30 2964 O 276.254 -2.53515 -0.893515 0
M  V30 2965 C 274.525 -3.24843 1.49036 0
M  V30 2966 S 276.084 -4.15669 1.40588 0
M  V30 2967 H 272.902 -0.630278 0.329046 0
M  V30 2968 H 275.504 -1.31049 1.45073 0
M  V30 2969 H 274.208 -3.21644 2.54899 0
M  V30 2970 H 273.739 -3.81734 0.950947 0
M  V30 2971 H 275.754 -4.94686 0.387353 0
M  V30 2972 N 274.927 -0.932562 -1.27047 0
M  V30 2973 C 276.338 -0.619451 -1.76124 0
M  V30 2974 C 276.689 0.865397 -1.76083 0
M  V30 2975 O 275.814 1.67722 -1.36742 0
M  V30 2976 C 276.409 -1.11771 -3.19832 0
M  V30 2977 C 274.968 -0.855174 -3.66557 0
M  V30 2978 C 274.115 -1.27362 -2.46321 0
M  V30 2979 H 277.066 -1.11181 -1.13245 0
M  V30 2980 H 277.087 -0.46759 -3.77616 0
M  V30 2981 H 276.599 -2.19842 -3.1983 0
M  V30 2982 H 274.7 0.211524 -3.71999 0
M  V30 2983 H 274.813 -1.47613 -4.55793 0
M  V30 2984 H 273.177 -0.692119 -2.45116 0
M  V30 2985 H 273.96 -2.36307 -2.49025 0
M  V30 2986 N 276.405 1.4127 -0.698611 0
M  V30 2987 C 277.653 2.00782 -0.230409 0
M  V30 2988 C 277.974 1.5562 1.17505 0
M  V30 2989 O 277.244 0.78815 1.79346 0
M  V30 2990 H 275.824 0.742464 -0.0821944 0
M  V30 2991 H 278.486 1.72852 -0.90045 0
M  V30 2992 H 277.582 3.11095 -0.25021 0
M  V30 2993 N 277.883 0.443576 1.51229 0
M  V30 2994 C 279.111 -0.11929 2.06556 0
M  V30 2995 C 279.526 -1.35921 1.31038 0
M  V30 2996 O 278.883 -1.78675 0.371704 0
M  V30 2997 C 278.934 -0.435228 3.5887 0
M  V30 2998 O 278.655 0.755486 4.31537 0
M  V30 2999 C 280.156 -1.04808 4.30732 0
M  V30 3000 H 277.376 -0.0051584 0.67098 0
M  V30 3001 H 279.92 0.624453 1.94733 0
M  V30 3002 H 278.075 -1.12887 3.70588 0
M  V30 3003 H 278.489 0.483491 5.22267 0
M  V30 3004 H 279.963 -1.2191 5.3837 0
M  V30 3005 H 280.44 -2.03081 3.89429 0
M  V30 3006 H 281.046 -0.393637 4.23474 0
M  V30 3007 N 279.361 -1.56624 0.175154 0
M  V30 3008 C 280.324 -2.16934 -0.739738 0
M  V30 3009 C 281.324 -1.11842 -1.15533 0
M  V30 3010 O 282.514 -1.37335 -1.07167 0
M  V30 3011 C 279.646 -2.75531 -2.00738 0
M  V30 3012 H 280.839 -2.99131 -0.214639 0
M  V30 3013 H 278.392 -1.56123 -0.0744197 0
M  V30 3014 H 279.127 -1.97078 -2.57548 0
M  V30 3015 H 278.912 -3.52444 -1.71831 0
M  V30 3016 H 280.402 -3.21904 -2.66021 0
M  V30 3017 N 280.839 0.0985539 -1.57292 0
M  V30 3018 C 281.786 1.11981 -2.01814 0
M  V30 3019 C 282.756 1.39999 -0.89384 0
M  V30 3020 O 283.941 1.5152 -1.15958 0
M  V30 3021 C 281.081 2.43577 -2.44467 0
M  V30 3022 C 280.194 2.2232 -3.70402 0
M  V30 3023 C 279.329 3.4729 -4.01949 0
M  V30 3024 C 278.368 3.2128 -5.21005 0
M  V30 3025 N 277.505 4.38507 -5.48321 0
M  V30 3026 H 282.345 0.733149 -2.88841 0
M  V30 3027 H 279.882 0.350482 -1.42864 0
M  V30 3028 H 281.84 3.20373 -2.6724 0
M  V30 3029 H 280.47 2.80097 -1.60455 0
M  V30 3030 H 279.522 1.36343 -3.55126 0
M  V30 3031 H 280.834 1.99089 -4.57345 0
M  V30 3032 H 279.988 4.32495 -4.25479 0
M  V30 3033 H 278.727 3.73572 -3.13521 0
M  V30 3034 H 277.732 2.34468 -4.97298 0
M  V30 3035 H 278.957 2.96348 -6.11028 0
M  V30 3036 H 276.903 4.64871 -4.62851 0
M  V30 3037 H 276.82 4.18455 -6.29628 0
M  V30 3038 H 278.088 5.24787 -5.76385 0
M  V30 3039 N 282.317 1.53212 0.369288 0
M  V30 3040 C 283.565 1.68881 1.11012 0
M  V30 3041 C 283.886 0.441285 1.89941 0
M  V30 3042 O 283.156 -0.544623 1.88177 0
M  V30 3043 H 281.736 0.622569 0.412816 0
M  V30 3044 H 284.398 1.90391 0.416802 0
M  V30 3045 H 283.494 2.54822 1.80201 0
M  V30 3046 N 283.795 -0.628877 1.44509 0
M  V30 3047 C 284.742 -1.74074 1.51549 0
M  V30 3048 C 285.712 -1.62084 0.363021 0
M  V30 3049 O 286.897 -1.81975 0.573567 0
M  V30 3050 C 284.037 -3.12328 1.46784 0
M  V30 3051 C 283.15 -3.35277 2.72422 0
M  V30 3052 C 282.285 -4.63515 2.59475 0
M  V30 3053 C 281.324 -4.7965 3.80266 0
M  V30 3054 N 280.461 -5.99168 3.65981 0
M  V30 3055 H 285.301 -1.67392 2.46544 0
M  V30 3056 H 282.838 -0.816527 1.22357 0
M  V30 3057 H 284.796 -3.92286 1.42012 0
M  V30 3058 H 283.426 -3.18018 0.553544 0
M  V30 3059 H 282.478 -2.49242 2.87372 0
M  V30 3060 H 283.79 -3.43078 3.62076 0
M  V30 3061 H 282.944 -5.51638 2.52548 0
M  V30 3062 H 281.683 -4.58076 1.67384 0
M  V30 3063 H 280.688 -3.89957 3.87574 0
M  V30 3064 H 281.913 -4.86902 4.73395 0
M  V30 3065 H 279.859 -5.94814 2.76644 0
M  V30 3066 H 279.776 -6.08035 4.49254 0
M  V30 3067 H 281.044 -6.89846 3.6295 0
M  V30 3068 N 285.273 -1.31445 -0.869486 0
M  V30 3069 C 286.501 -1.24122 -1.65534 0
M  V30 3070 C 286.916 0.193387 -1.87807 0
M  V30 3071 O 286.273 1.12557 -1.43656 0
M  V30 3072 C 286.324 -1.98229 -3.02304 0
M  V30 3073 O 286.045 -3.3609 -2.81026 0
M  V30 3074 C 287.546 -1.97751 -3.96749 0
M  V30 3075 H 284.766 -0.428868 -0.516055 0
M  V30 3076 H 287.31 -1.73328 -1.08525 0
M  V30 3077 H 285.465 -1.52782 -3.56001 0
M  V30 3078 H 285.879 -3.7383 -3.67902 0
M  V30 3079 H 287.353 -2.54114 -4.90031 0
M  V30 3080 H 287.83 -0.960137 -4.28577 0
M  V30 3081 H 288.436 -2.43079 -3.48988 0
M  V30 3082 N 286.751 1.08385 -1.14413 0
M  V30 3083 C 287.699 2.17406 -0.826888 0
M  V30 3084 C 288.693 1.6827 0.195312 0
M  V30 3085 O 289.899 1.79927 0.0513892 0
M  V30 3086 H 286.274 0.70934 -0.249681 0
M  V30 3087 H 288.245 2.41388 -1.75426 0
M  V30 3088 C 286.994 3.46215 -0.320979 0
M  V30 3089 H 286.317 3.84401 -1.0989 0
M  V30 3090 H 287.757 4.23777 -0.137549 0
M  V30 3091 C 286.216 3.23067 0.955472 0
M  V30 3092 O 286.746 3.4668 2.02918 0
M  V30 3093 N 284.952 2.7661 0.890798 0
M  V30 3094 H 284.499 2.57594 0.0168815 0
M  V30 3095 H 284.457 2.61501 1.74542 0
M  V30 3096 N 288.23 0.939286 1.26551 0
M  V30 3097 C 289.47 0.5933 1.956 0
M  V30 3098 C 289.834 -0.851515 1.72085 0
M  V30 3099 O 291.035 -1.30634 2.34921 0
M  V30 3100 C 289.306 0.923996 3.45249 0
M  V30 3101 S 290.865 0.688269 4.33369 0
M  V30 3102 H 287.683 0.218591 0.676564 0
M  V30 3103 H 290.285 1.2102 1.5354 0
M  V30 3104 H 288.989 1.97297 3.59864 0
M  V30 3105 H 288.52 0.296746 3.92279 0
M  V30 3106 H 290.535 -0.448434 4.9417 0
M  V30 3107 N 289.708 -1.40897 0.706093 0
M  V30 3108 C 291.119 -1.84023 0.315052 0
M  V30 3109 C 291.47 -1.5906 -1.14866 0
M  V30 3110 O 290.595 -1.06651 -1.88293 0
M  V30 3111 C 291.19 -3.34055 0.565038 0
M  V30 3112 C 289.749 -3.7571 0.227806 0
M  V30 3113 C 288.896 -2.64204 0.842122 0
M  V30 3114 H 291.847 -1.303 0.905963 0
M  V30 3115 H 291.868 -3.80107 -0.172843 0
M  V30 3116 H 291.38 -3.52192 1.63042 0
M  V30 3117 H 289.481 -3.63172 -0.832895 0
M  V30 3118 H 289.594 -4.74103 0.690174 0
M  V30 3119 H 287.958 -2.53255 0.270893 0
M  V30 3120 H 288.741 -2.85155 1.91158 0
M  V30 3121 N 291.186 -0.45159 -1.50991 0
M  V30 3122 C 292.149 0.341117 -2.26647 0
M  V30 3123 C 293.149 0.937422 -1.30649 0
M  V30 3124 O 294.339 0.809644 -1.54241 0
M  V30 3125 C 291.471 1.48398 -3.06905 0
M  V30 3126 H 292.664 -0.322117 -2.98165 0
M  V30 3127 H 290.217 -0.205122 -1.54948 0
M  V30 3128 H 290.952 2.18284 -2.39838 0
M  V30 3129 H 290.737 1.06241 -3.77432 0
M  V30 3130 H 292.227 2.04367 -3.64176 0
M  V30 3131 N 292.664 1.56529 -0.183458 0
M  V30 3132 C 293.892 2.01623 0.464285 0
M  V30 3133 C 294.307 1.06366 1.55986 0
M  V30 3134 O 293.664 0.0665398 1.82379 0
M  V30 3135 C 293.715 3.46475 1.03139 0
M  V30 3136 O 293.436 4.38095 -0.0204675 0
M  V30 3137 C 294.937 4.0703 1.75617 0
M  V30 3138 H 292.157 0.660596 0.117704 0
M  V30 3139 H 294.701 2.02451 -0.288751 0
M  V30 3140 H 292.856 3.46383 1.73486 0
M  V30 3141 H 293.27 5.22973 0.399952 0
M  V30 3142 H 294.744 5.10271 2.10542 0
M  V30 3143 H 295.221 3.49819 2.65563 0
M  V30 3144 H 295.827 4.1086 1.09882 0
M  V30 3145 N 294.142 -0.090211 1.57342 0
M  V30 3146 C 295.388 -0.793982 1.86611 0
M  V30 3147 C 295.721 -1.78142 0.773252 0
M  V30 3148 O 294.996 -1.93271 -0.218304 0
M  V30 3149 C 295.279 -1.51839 3.26523 0
M  V30 3150 C 295.132 -0.548609 4.46442 0
M  V30 3151 C 296.451 -2.46779 3.64401 0
M  V30 3152 H 293.57 -0.287186 0.678744 0
M  V30 3153 H 296.212 -0.0575076 1.89913 0
M  V30 3154 H 294.362 -2.14617 3.23839 0
M  V30 3155 H 296.034 0.0725513 4.61243 0
M  V30 3156 H 294.277 0.137614 4.33582 0
M  V30 3157 H 294.948 -1.09271 5.41076 0
M  V30 3158 H 297.424 -1.94089 3.68061 0
M  V30 3159 H 296.3 -2.94479 4.63221 0
M  V30 3160 H 296.561 -3.30758 2.93346 0
M  V30 3161 N 295.62 -1.53406 -0.361157 0
M  V30 3162 C 296.869 -1.69022 -1.10066 0
M  V30 3163 C 297.182 -0.450838 -1.90333 0
M  V30 3164 O 298.388 -0.487617 -2.67085 0
M  V30 3165 C 296.844 -2.98812 -2.00598 0
M  V30 3166 C 296.452 -4.30027 -1.25621 0
M  V30 3167 C 298.196 -3.23795 -2.74513 0
M  V30 3168 C 296.103 -5.50903 -2.1508 0
M  V30 3169 H 295.033 -0.629776 -0.414606 0
M  V30 3170 H 297.684 -1.79907 -0.361348 0
M  V30 3171 H 296.066 -2.8174 -2.78278 0
M  V30 3172 H 297.24 -4.57745 -0.529739 0
M  V30 3173 H 295.555 -4.11522 -0.635496 0
M  V30 3174 H 298.152 -4.11289 -3.41681 0
M  V30 3175 H 298.495 -2.40045 -3.40123 0
M  V30 3176 H 299.028 -3.41561 -2.03914 0
M  V30 3177 H 295.767 -6.37143 -1.54041 0
M  V30 3178 H 295.287 -5.27459 -2.85565 0
M  V30 3179 H 296.966 -5.85865 -2.74538 0
M  V30 3180 N 297.098 0.621204 -1.44841 0
M  V30 3181 C 298.046 1.75385 -1.52784 0
M  V30 3182 C 299.04 1.64639 -0.398779 0
M  V30 3183 O 300.246 1.70598 -0.574137 0
M  V30 3184 H 296.621 0.579193 -0.479625 0
M  V30 3185 H 298.592 1.6581 -2.48092 0
M  V30 3186 C 297.341 3.13742 -1.4987 0
M  V30 3187 H 296.664 3.22663 -2.36069 0
M  V30 3188 H 298.104 3.92861 -1.59487 0
M  V30 3189 C 296.563 3.36175 -0.220973 0
M  V30 3190 O 297.093 3.95469 0.704782 0
M  V30 3191 N 295.299 2.90348 -0.120963 0
M  V30 3192 H 294.846 2.42278 -0.875162 0
M  V30 3193 H 294.804 3.05732 0.733168 0
M  V30 3194 N 298.576 1.31904 0.862503 0
M  V30 3195 C 299.824 1.21776 1.61292 0
M  V30 3196 C 300.145 -0.222413 1.93727 0
M  V30 3197 O 299.415 -1.1451 1.58947 0
M  V30 3198 H 297.995 0.447717 0.597962 0
M  V30 3199 H 300.657 1.65326 1.03215 0
M  V30 3200 H 299.753 1.7948 2.5533 0
M  V30 3201 N 300.054 -1.07777 1.14986 0
M  V30 3202 C 300.986 -2.14769 0.800436 0
M  V30 3203 C 301.999 -1.61739 -0.185595 0
M  V30 3204 O 303.188 -1.78462 0.0370358 0
M  V30 3205 C 300.288 -3.38481 0.168533 0
M  V30 3206 C 299.461 -4.20876 1.1909 0
M  V30 3207 C 298.52 -5.22976 0.581575 0
M  V30 3208 O 297.546 -5.55388 1.24633 0
M  V30 3209 N 298.748 -5.76976 -0.638706 0
M  V30 3210 H 301.513 -2.45348 1.72118 0
M  V30 3211 H 299.074 -1.23645 1.04515 0
M  V30 3212 H 301.066 -4.03916 -0.251764 0
M  V30 3213 H 299.636 -3.05651 -0.655467 0
M  V30 3214 H 298.856 -3.51322 1.78791 0
M  V30 3215 H 300.144 -4.7274 1.88133 0
M  V30 3216 H 299.542 -5.52886 -1.19723 0
M  V30 3217 H 298.099 -6.44061 -1.00142 0
M  V30 3218 N 301.532 -0.945985 -1.26051 0
M  V30 3219 C 302.779 -0.596118 -1.93527 0
M  V30 3220 C 303.107 0.865559 -1.74179 0
M  V30 3221 O 302.362 1.63524 -1.0751 0
M  V30 3222 C 302.661 -0.890475 -3.46129 0
M  V30 3223 C 302.327 -2.3368 -3.85622 0
M  V30 3224 C 300.989 -2.73216 -3.96114 0
M  V30 3225 C 303.341 -3.27648 -4.05334 0
M  V30 3226 C 300.669 -4.05806 -4.2372 0
M  V30 3227 C 303.021 -4.59841 -4.3443 0
M  V30 3228 C 301.685 -4.99185 -4.43137 0
M  V30 3229 H 300.955 -0.218135 -0.708165 0
M  V30 3230 H 303.602 -1.1934 -1.49768 0
M  V30 3231 H 301.907 -0.210711 -3.91233 0
M  V30 3232 H 303.604 -0.598478 -3.96509 0
M  V30 3233 H 300.194 -2.02015 -3.78005 0
M  V30 3234 H 304.378 -2.98298 -3.96651 0
M  V30 3235 H 299.634 -4.35945 -4.28675 0
M  V30 3236 H 303.808 -5.32641 -4.48628 0
M  V30 3237 H 301.435 -6.01952 -4.64282 0
M  V30 3238 N 303.011 1.40521 -0.713556 0
M  V30 3239 C 304.257 2.01221 -0.252564 0
M  V30 3240 C 304.59 1.56444 1.1506 0
M  V30 3241 O 303.865 0.783597 1.78017 0
M  V30 3242 C 304.148 3.58582 -0.330332 0
M  V30 3243 C 304.001 4.13437 -1.77173 0
M  V30 3244 C 305.32 4.39079 0.299641 0
M  V30 3245 H 302.439 0.731077 -0.0932471 0
M  V30 3246 H 305.081 1.67026 -0.905673 0
M  V30 3247 H 303.231 3.87844 0.225737 0
M  V30 3248 H 304.903 3.9498 -2.38303 0
M  V30 3249 H 303.146 3.67801 -2.3001 0
M  V30 3250 H 303.817 5.22597 -1.77755 0
M  V30 3251 H 306.293 4.15735 -0.174139 0
M  V30 3252 H 305.169 5.4848 0.214771 0
M  V30 3253 H 305.43 4.19915 1.38288 0
M  V30 3254 N 304.489 0.459591 1.5075 0
M  V30 3255 C 305.399 -0.34613 2.32033 0
M  V30 3256 C 306.415 -1.00686 1.41909 0
M  V30 3257 O 307.591 -0.997361 1.7497 0
M  V30 3258 C 304.656 -1.42029 3.16273 0
M  V30 3259 C 303.717 -0.777362 4.22203 0
M  V30 3260 C 302.95 -1.80034 5.02418 0
M  V30 3261 O 303.173 -3.02544 4.83553 0
M  V30 3262 O 302.107 -1.37853 5.85901 0
M  V30 3263 H 305.933 0.318054 3.0203 0
M  V30 3264 H 303.518 0.221663 1.47746 0
M  V30 3265 H 305.4 -2.04275 3.68578 0
M  V30 3266 H 304.075 -2.06815 2.49016 0
M  V30 3267 H 302.982 -0.116256 3.73919 0
M  V30 3268 H 304.315 -0.172634 4.91897 0
M  V30 3269 N 305.967 -1.56429 0.191757 0
M  V30 3270 C 307.383 -1.58754 -0.164137 0
M  V30 3271 C 307.583 -1.20782 -1.61288 0
M  V30 3272 O 306.639 -0.928999 -2.34789 0
M  V30 3273 C 307.952 -3.00396 0.135195 0
M  V30 3274 C 309.5 -3.1291 0.0750351 0
M  V30 3275 C 309.975 -4.56679 0.347632 0
M  V30 3276 N 311.466 -4.62252 0.296131 0
M  V30 3277 C 312.201 -5.71379 0.480948 0
M  V30 3278 N 311.697 -6.88986 0.725933 0
M  V30 3279 N 313.49 -5.60563 0.415435 0
M  V30 3280 H 305.641 -1.79393 1.13718 0
M  V30 3281 H 307.904 -0.832414 0.453643 0
M  V30 3282 H 307.61 -3.32726 1.13958 0
M  V30 3283 H 307.484 -3.72963 -0.563773 0
M  V30 3284 H 309.871 -2.80394 -0.919948 0
M  V30 3285 H 309.952 -2.42736 0.807029 0
M  V30 3286 H 309.596 -4.89907 1.33992 0
M  V30 3287 H 309.526 -5.25039 -0.405212 0
M  V30 3288 H 312.017 -3.7773 0.113259 0
M  V30 3289 H 312.33 -7.68046 0.855857 0
M  V30 3290 H 310.675 -6.90801 0.762788 0
M  V30 3291 H 313.866 -4.67561 0.224486 0
M  V30 3292 H 314.039 -6.45551 0.562889 0
M  V30 3293 N 307.445 0.0818655 -1.57387 0
M  V30 3294 C 308.685 0.788375 -1.88584 0
M  V30 3295 C 309.049 1.75248 -0.784351 0
M  V30 3296 O 310.25 2.50334 -0.979105 0
M  V30 3297 C 308.521 1.48654 -3.25018 0
M  V30 3298 S 310.08 2.22951 -3.7794 0
M  V30 3299 H 306.898 0.262383 -0.660815 0
M  V30 3300 H 309.5 0.0448995 -1.95448 0
M  V30 3301 H 308.204 0.770919 -4.03094 0
M  V30 3302 H 307.735 2.26965 -3.21326 0
M  V30 3303 H 309.75 3.49309 -3.52417 0
M  V30 3304 N 308.923 1.53595 0.353017 0
M  V30 3305 C 310.169 1.71581 1.09232 0
M  V30 3306 C 310.524 0.468328 1.86613 0
M  V30 3307 O 309.817 -0.538911 1.83865 0
M  V30 3308 C 310.011 2.91313 2.07054 0
M  V30 3309 C 309.84 4.27585 1.39287 0
M  V30 3310 C 308.61 4.92233 1.1417 0
M  V30 3311 C 310.808 5.07656 0.824005 0
M  V30 3312 N 308.79 6.124 0.428841 0
M  V30 3313 C 310.161 6.19531 0.241195 0
M  V30 3314 C 312.216 4.92609 0.723922 0
M  V30 3315 C 310.919 7.18002 -0.431952 0
M  V30 3316 C 312.945 5.91365 0.0645334 0
M  V30 3317 C 312.307 7.02571 -0.507347 0
M  V30 3318 H 308.406 0.680987 0.384422 0
M  V30 3319 H 310.99 1.91013 0.377096 0
M  V30 3320 H 309.161 2.73398 2.75877 0
M  V30 3321 H 310.893 2.98062 2.73753 0
M  V30 3322 H 307.648 4.51612 1.42631 0
M  V30 3323 H 308.072 6.76944 0.0874131 0
M  V30 3324 H 312.714 4.06808 1.15181 0
M  V30 3325 H 310.432 8.03384 -0.871758 0
M  V30 3326 H 314.018 5.81799 -0.0121469 0
M  V30 3327 H 312.898 7.77675 -1.0095 0
M  V30 3328 N 310.401 -0.613514 1.45168 0
M  V30 3329 C 311.629 -1.39946 1.5239 0
M  V30 3330 C 312.044 -1.88167 0.154531 0
M  V30 3331 O 311.401 -1.61872 -0.842843 0
M  V30 3332 C 311.452 -2.60795 2.50337 0
M  V30 3333 O 311.173 -2.1458 3.81952 0
M  V30 3334 C 312.674 -3.53723 2.67198 0
M  V30 3335 H 309.894 -0.428593 0.516284 0
M  V30 3336 H 312.438 -0.748753 1.903 0
M  V30 3337 H 310.593 -3.21919 2.15515 0
M  V30 3338 H 311.007 -2.93055 4.34993 0
M  V30 3339 H 312.481 -4.35079 3.39721 0
M  V30 3340 H 312.958 -4.0368 1.73029 0
M  V30 3341 H 313.564 -2.98456 3.02992 0
M  V30 3342 N 311.879 -1.3236 -0.855495 0
M  V30 3343 C 312.829 -1.17809 -1.95205 0
M  V30 3344 C 313.813 -0.0852319 -1.60674 0
M  V30 3345 O 315.005 -0.311651 -1.74235 0
M  V30 3346 C 312.134 -0.902437 -3.31226 0
M  V30 3347 C 311.22 -2.03695 -3.7198 0
M  V30 3348 N 311.611 -3.28544 -3.84568 0
M  V30 3349 C 309.909 -1.93993 -4.016 0
M  V30 3350 C 310.61 -4.02847 -4.19629 0
M  V30 3351 N 309.586 -3.31138 -4.31102 0
M  V30 3352 H 313.388 -2.12462 -2.0307 0
M  V30 3353 H 310.902 -1.24127 -1.0472 0
M  V30 3354 H 312.899 -0.77915 -4.09554 0
M  V30 3355 H 311.559 0.0357267 -3.2468 0
M  V30 3356 H 312.57 -3.6349 -3.68911 0
M  V30 3357 H 309.247 -1.07733 -4.03361 0
M  V30 3358 H 310.637 -5.10506 -4.36845 0
M  V30 3359 N 313.357 1.07166 -1.15556 0
M  V30 3360 C 314.582 1.84053 -0.955988 0
M  V30 3361 C 315.007 1.81586 0.490739 0
M  V30 3362 O 314.365 1.21018 1.34997 0
M  V30 3363 C 314.413 3.28957 -1.47714 0
M  V30 3364 O 313.517 4.06795 -0.677593 0
M  V30 3365 H 312.858 0.569842 -0.340847 0
M  V30 3366 H 315.388 1.35178 -1.53584 0
M  V30 3367 H 315.398 3.79788 -1.4908 0
M  V30 3368 H 314.073 3.30068 -2.53037 0
M  V30 3369 H 312.65 3.6561 -0.733721 0
M  V30 3370 N 314.835 0.952656 1.25548 0
M  V30 3371 C 315.785 0.442033 2.23674 0
M  V30 3372 C 316.769 -0.467632 1.53955 0
M  V30 3373 O 317.961 -0.301006 1.74422 0
M  V30 3374 C 315.09 -0.280816 3.4215 0
M  V30 3375 C 314.176 0.646803 4.19139 0
M  V30 3376 N 314.567 1.77759 4.73535 0
M  V30 3377 C 312.865 0.454617 4.43677 0
M  V30 3378 C 313.566 2.35658 5.31827 0
M  V30 3379 N 312.542 1.64333 5.18166 0
M  V30 3380 H 316.344 1.30505 2.63336 0
M  V30 3381 H 313.858 0.809904 1.40763 0
M  V30 3382 H 315.855 -0.663747 4.11582 0
M  V30 3383 H 314.515 -1.14046 3.04012 0
M  V30 3384 H 315.526 2.15949 4.7073 0
M  V30 3385 H 312.203 -0.362312 4.15925 0
M  V30 3386 H 313.593 3.30998 5.84713 0
M  V30 3387 N 316.313 -1.40141 0.720998 0
M  V30 3388 C 317.553 -2.02644 0.267335 0
M  V30 3389 C 317.917 -1.55948 -1.12001 0
M  V30 3390 O 319.118 -2.10552 -1.67097 0
M  V30 3391 C 317.389 -3.55679 0.350281 0
M  V30 3392 S 318.948 -4.38793 -0.0256004 0
M  V30 3393 H 315.766 -0.703105 0.105664 0
M  V30 3394 H 318.368 -1.71175 0.944416 0
M  V30 3395 H 317.072 -3.87157 1.36153 0
M  V30 3396 H 316.603 -3.91883 -0.345096 0
M  V30 3397 H 318.618 -4.803 -1.24604 0
M  V30 3398 N 317.792 -0.46758 -1.50504 0
M  V30 3399 C 318.724 0.364655 -2.26281 0
M  V30 3400 C 319.737 0.960151 -1.31472 0
M  V30 3401 O 320.926 0.849153 -1.57008 0
M  V30 3402 C 318.026 1.52509 -3.02645 0
M  V30 3403 C 317.199 1.04302 -4.24782 0
M  V30 3404 C 316.258 2.07709 -4.8347 0
M  V30 3405 O 315.284 1.65913 -5.44483 0
M  V30 3406 N 316.486 3.40485 -4.70159 0
M  V30 3407 H 319.251 -0.28495 -2.98342 0
M  V30 3408 H 316.812 -0.298163 -1.59131 0
M  V30 3409 H 318.804 2.21371 -3.38787 0
M  V30 3410 H 317.374 2.07945 -2.33404 0
M  V30 3411 H 316.594 0.180393 -3.93787 0
M  V30 3412 H 317.882 0.698798 -5.03978 0
M  V30 3413 H 317.28 3.77155 -4.21629 0
M  V30 3414 H 315.837 4.05156 -5.1058 0
M  V30 3415 N 319.27 1.56325 -0.20005 0
M  V30 3416 C 320.217 2.1932 0.718833 0
M  V30 3417 C 321.187 1.14198 1.20615 0
M  V30 3418 O 322.372 1.42469 1.26914 0
M  V30 3419 C 319.512 2.86041 1.93066 0
M  V30 3420 C 318.625 4.05702 1.48425 0
M  V30 3421 C 317.76 4.60266 2.65196 0
M  V30 3422 C 316.799 5.72273 2.17185 0
M  V30 3423 N 315.936 6.21221 3.27152 0
M  V30 3424 H 320.776 2.97486 0.17489 0
M  V30 3425 H 318.313 1.46911 0.0745794 0
M  V30 3426 H 320.271 3.22897 2.64184 0
M  V30 3427 H 318.901 2.1043 2.44783 0
M  V30 3428 H 317.953 3.74475 0.668755 0
M  V30 3429 H 319.265 4.86699 1.09204 0
M  V30 3430 H 318.419 4.99453 3.4443 0
M  V30 3431 H 317.158 3.78386 3.07693 0
M  V30 3432 H 316.163 5.3261 1.36407 0
M  V30 3433 H 317.388 6.55974 1.75713 0
M  V30 3434 H 315.334 5.42263 3.69171 0
M  V30 3435 H 315.251 6.97284 2.92116 0
M  V30 3436 H 316.519 6.65063 4.06585 0
M  V30 3437 N 320.748 -0.0735177 1.57428 0
M  V30 3438 C 321.994 -0.774145 1.87443 0
M  V30 3439 C 322.327 -1.77311 0.792103 0
M  V30 3440 O 321.602 -1.93492 -0.197793 0
M  V30 3441 C 321.885 -1.48367 3.28115 0
M  V30 3442 C 321.738 -0.501227 4.46999 0
M  V30 3443 C 323.057 -2.429 3.66998 0
M  V30 3444 H 320.176 -0.279971 0.681752 0
M  V30 3445 H 322.818 -0.0373616 1.89963 0
M  V30 3446 H 320.968 -2.11171 3.26097 0
M  V30 3447 H 322.64 0.121468 4.6114 0
M  V30 3448 H 320.883 0.183593 4.33411 0
M  V30 3449 H 321.554 -1.03526 5.42205 0
M  V30 3450 H 324.03 -1.90175 3.70098 0
M  V30 3451 H 322.906 -2.89549 4.66318 0
M  V30 3452 H 323.167 -3.27628 2.96837 0
M  V30 3453 N 322.226 -1.5378 -0.344866 0
M  V30 3454 C 323.466 -1.72677 -1.09371 0
M  V30 3455 C 323.83 -0.479084 -1.85927 0
M  V30 3456 O 325.031 -0.54505 -2.63216 0
M  V30 3457 C 323.302 -2.95457 -2.01097 0
M  V30 3458 S 324.861 -3.35158 -2.83222 0
M  V30 3459 H 321.679 -0.607402 -0.369573 0
M  V30 3460 H 324.281 -1.91922 -0.372307 0
M  V30 3461 H 322.985 -3.84437 -1.43655 0
M  V30 3462 H 322.516 -2.78673 -2.77678 0
M  V30 3463 H 324.531 -2.88789 -4.03504 0
M  V30 3464 N 323.704 0.605807 -1.45491 0
M  V30 3465 C 325.115 1.18777 -1.44045 0
M  V30 3466 C 325.466 1.95471 -0.169001 0
M  V30 3467 O 324.591 2.0374 0.729324 0
M  V30 3468 C 325.186 2.16064 -2.60963 0
M  V30 3469 C 323.745 2.69633 -2.62631 0
M  V30 3470 C 322.892 1.45072 -2.36325 0
M  V30 3471 H 325.843 0.395017 -1.53705 0
M  V30 3472 H 325.864 2.9913 -2.35163 0
M  V30 3473 H 325.376 1.60217 -3.53486 0
M  V30 3474 H 323.477 3.29414 -1.74119 0
M  V30 3475 H 323.59 3.13944 -3.61906 0
M  V30 3476 H 321.954 1.74089 -1.85917 0
M  V30 3477 H 322.737 0.910899 -3.30995 0
M  V30 3478 N 325.182 1.32811 0.848464 0
M  V30 3479 C 326.41 1.26739 1.63538 0
M  V30 3480 C 326.825 -0.163484 1.88091 0
M  V30 3481 O 326.182 -1.10258 1.45429 0
M  V30 3482 C 326.233 2.03013 2.99112 0
M  V30 3483 O 325.954 3.40518 2.75643 0
M  V30 3484 C 327.455 2.04038 3.93552 0
M  V30 3485 H 324.675 0.437024 0.509167 0
M  V30 3486 H 327.219 1.75033 1.05753 0
M  V30 3487 H 325.374 1.58426 3.53525 0
M  V30 3488 H 325.788 3.79635 3.61908 0
M  V30 3489 H 327.262 2.61877 4.85926 0
M  V30 3490 H 327.739 1.0282 4.26995 0
M  V30 3491 H 328.345 2.486 3.45077 0
M  V30 3492 N 326.66 -1.06551 1.16123 0
M  V30 3493 C 327.909 -1.78687 0.935622 0
M  V30 3494 C 328.222 -1.88056 -0.538001 0
M  V30 3495 O 329.428 -2.56794 -0.88143 0
M  V30 3496 C 327.884 -3.21143 1.62466 0
M  V30 3497 C 327.492 -3.19949 3.13587 0
M  V30 3498 C 329.236 -3.9783 1.48092 0
M  V30 3499 C 327.143 -4.57108 3.75241 0
M  V30 3500 H 326.073 -0.669712 0.346412 0
M  V30 3501 H 328.724 -1.19534 1.39226 0
M  V30 3502 H 327.106 -3.80539 1.09572 0
M  V30 3503 H 328.28 -2.70151 3.73303 0
M  V30 3504 H 326.595 -2.5676 3.27816 0
M  V30 3505 H 329.192 -4.99217 1.91538 0
M  V30 3506 H 329.535 -4.14078 0.429507 0
M  V30 3507 H 330.068 -3.4495 1.98127 0
M  V30 3508 H 326.807 -4.46065 4.80319 0
M  V30 3509 H 326.327 -5.07111 3.20309 0
M  V30 3510 H 328.006 -5.26069 3.76644 0
M  V30 3511 N 328.138 -0.959301 -1.25041 0
M  V30 3512 C 329.378 -0.624343 -1.94631 0
M  V30 3513 C 329.742 0.82403 -1.73418 0
M  V30 3514 O 330.943 1.26881 -2.3697 0
M  V30 3515 C 329.214 -0.978805 -3.43736 0
M  V30 3516 S 330.773 -0.757127 -4.32219 0
M  V30 3517 H 327.591 -0.229327 -0.673001 0
M  V30 3518 H 330.193 -1.23447 -1.51595 0
M  V30 3519 H 328.897 -2.02997 -3.56679 0
M  V30 3520 H 328.428 -0.359117 -3.91757 0
M  V30 3521 H 330.443 0.369759 -4.9482 0
M  V30 3522 N 329.616 1.39756 -0.72842 0
M  V30 3523 C 330.563 2.30647 -0.0841519 0
M  V30 3524 C 331.533 1.48869 0.7367 0
M  V30 3525 O 332.718 1.77574 0.698015 0
M  V30 3526 C 329.858 3.35165 0.822091 0
M  V30 3527 C 328.971 4.31999 -0.0106663 0
M  V30 3528 C 328.106 5.23585 0.896241 0
M  V30 3529 C 327.145 6.12072 0.0583381 0
M  V30 3530 N 326.282 6.96035 0.920818 0
M  V30 3531 H 331.122 2.85173 -0.864891 0
M  V30 3532 H 328.659 1.40422 -0.438179 0
M  V30 3533 H 330.617 3.94345 1.36189 0
M  V30 3534 H 329.247 2.8211 1.56888 0
M  V30 3535 H 328.299 3.74492 -0.66781 0
M  V30 3536 H 329.611 4.9443 -0.658825 0
M  V30 3537 H 328.765 5.87759 1.50412 0
M  V30 3538 H 327.504 4.61459 1.57819 0
M  V30 3539 H 326.509 5.46916 -0.562389 0
M  V30 3540 H 327.734 6.76261 -0.6203 0
M  V30 3541 H 325.68 6.36485 1.58818 0
M  V30 3542 H 325.597 7.55284 0.32899 0
M  V30 3543 H 326.865 7.64646 1.51447 0
M  V30 3544 N 331.094 0.475555 1.50254 0
M  V30 3545 C 332.319 -0.0777042 2.07254 0
M  V30 3546 C 332.744 -1.3235 1.3366 0
M  V30 3547 O 332.102 -1.77152 0.385597 0
M  V30 3548 C 332.15 -0.340169 3.58992 0
M  V30 3549 O 331.254 -1.41982 3.87188 0
M  V30 3550 H 330.595 0.0149556 0.663832 0
M  V30 3551 H 333.125 0.667878 1.93392 0
M  V30 3552 H 333.135 -0.579332 4.03866 0
M  V30 3553 H 331.81 0.570167 4.11973 0
M  V30 3554 H 330.387 -1.16762 3.54148 0
M  V30 3555 N 332.573 -1.56217 0.208337 0
M  V30 3556 C 333.523 -2.16324 -0.720281 0
M  V30 3557 C 334.507 -1.10775 -1.16695 0
M  V30 3558 O 335.699 -1.36801 -1.12314 0
M  V30 3559 C 332.828 -2.83644 -1.93393 0
M  V30 3560 C 331.914 -3.96401 -1.50755 0
M  V30 3561 N 332.305 -4.99546 -0.792937 0
M  V30 3562 C 330.603 -4.08246 -1.79585 0
M  V30 3563 C 331.304 -5.78828 -0.577364 0
M  V30 3564 N 330.28 -5.31723 -1.1301 0
M  V30 3565 H 334.082 -2.93432 -0.165725 0
M  V30 3566 H 331.596 -1.62397 0.00906463 0
M  V30 3567 H 333.593 -3.25107 -2.60981 0
M  V30 3568 H 332.253 -2.08027 -2.49308 0
M  V30 3569 H 333.264 -5.15967 -0.447004 0
M  V30 3570 H 329.941 -3.4377 -2.36915 0
M  V30 3571 H 331.331 -6.71899 -0.00952956 0
M  V30 3572 N 334.051 0.0651679 -1.57465 0
M  V30 3573 C 335.299 0.761555 -1.87202 0
M  V30 3574 C 335.62 1.77778 -0.801243 0
M  V30 3575 O 334.89 1.95166 0.16937 0
M  V30 3576 H 333.47 0.284251 -0.690804 0
M  V30 3577 H 336.132 0.0396827 -1.9486 0
M  V30 3578 H 335.228 1.27365 -2.84929 0
M  V30 3579 N 335.529 1.53961 0.336706 0
M  V30 3580 C 336.769 1.73254 1.08454 0
M  V30 3581 C 337.133 0.488937 1.8567 0
M  V30 3582 O 338.334 0.559001 2.62923 0
M  V30 3583 C 336.605 2.96519 1.99528 0
M  V30 3584 S 338.164 3.36655 2.81441 0
M  V30 3585 H 334.982 0.609353 0.366347 0
M  V30 3586 H 337.584 1.92117 0.362124 0
M  V30 3587 H 336.288 3.85193 1.41614 0
M  V30 3588 H 335.819 2.80142 2.76196 0
M  V30 3589 H 337.834 2.90925 4.01967 0
M  V30 3590 N 337.007 -0.598083 1.45811 0
M  V30 3591 C 338.235 -1.38322 1.53866 0
M  V30 3592 C 338.65 -1.87992 0.174479 0
M  V30 3593 O 338.007 -1.62756 -0.825627 0
M  V30 3594 C 338.058 -2.58125 2.53089 0
M  V30 3595 O 337.779 -2.10516 3.84206 0
M  V30 3596 C 339.28 -3.50869 2.70935 0
M  V30 3597 H 336.5 -0.423093 0.520801 0
M  V30 3598 H 339.044 -0.728527 1.91083 0
M  V30 3599 H 337.199 -3.19615 2.18917 0
M  V30 3600 H 337.613 -2.88425 4.38077 0
M  V30 3601 H 339.087 -4.31451 3.44317 0
M  V30 3602 H 339.564 -4.01822 1.77301 0
M  V30 3603 H 340.17 -2.95225 3.06141 0
M  V30 3604 N 338.485 -1.33259 -0.841409 0
M  V30 3605 C 339.448 -1.23221 -1.9326 0
M  V30 3606 C 340.448 -0.151895 -1.60081 0
M  V30 3607 O 341.638 -0.403246 -1.69468 0
M  V30 3608 C 338.77 -0.898123 -3.28856 0
M  V30 3609 H 339.963 -2.2021 -2.03587 0
M  V30 3610 H 337.516 -1.17281 -1.03319 0
M  V30 3611 H 338.251 0.0693841 -3.24226 0
M  V30 3612 H 338.036 -1.67934 -3.54317 0
M  V30 3613 H 339.526 -0.852563 -4.08805 0
M  V30 3614 N 339.963 1.05934 -1.16686 0
M  V30 3615 C 340.873 2.17014 -0.891183 0
M  V30 3616 C 341.889 1.73453 0.137907 0
M  V30 3617 O 343.065 2.01361 -0.039592 0
M  V30 3618 C 340.13 3.44384 -0.400099 0
M  V30 3619 C 339.191 4.02433 -1.49486 0
M  V30 3620 C 338.424 5.23723 -1.02711 0
M  V30 3621 O 338.647 5.7027 0.121716 0
M  V30 3622 O 337.581 5.7382 -1.81699 0
M  V30 3623 H 341.407 2.43113 -1.82015 0
M  V30 3624 H 338.992 1.15541 -0.947132 0
M  V30 3625 H 340.874 4.21189 -0.133392 0
M  V30 3626 H 339.549 3.19802 0.500817 0
M  V30 3627 H 338.456 3.27102 -1.81535 0
M  V30 3628 H 339.789 4.31317 -2.37121 0
M  V30 3629 N 341.441 0.965919 1.2453 0
M  V30 3630 C 342.689 0.625593 1.92174 0
M  V30 3631 C 343.01 -0.841652 1.75901 0
M  V30 3632 O 342.28 -1.60061 1.12948 0
M  V30 3633 H 340.86 0.228388 0.71123 0
M  V30 3634 H 343.522 1.2266 1.51461 0
M  V30 3635 H 342.618 0.864653 2.99884 0
M  V30 3636 N 342.919 -1.39368 0.735821 0
M  V30 3637 C 343.849 -2.33234 0.111506 0
M  V30 3638 C 344.83 -1.53954 -0.723334 0
M  V30 3639 O 346.015 -1.82344 -0.668147 0
M  V30 3640 C 343.145 -3.38057 -0.795917 0
M  V30 3641 C 342.099 -4.2795 -0.065172 0
M  V30 3642 C 341.425 -5.23479 -1.08967 0
M  V30 3643 C 342.725 -5.10741 1.09273 0
M  V30 3644 H 344.419 -2.85692 0.895571 0
M  V30 3645 H 341.965 -1.37364 0.432109 0
M  V30 3646 H 343.918 -4.02675 -1.24221 0
M  V30 3647 H 342.642 -2.8404 -1.61211 0
M  V30 3648 H 341.301 -3.64813 0.361511 0
M  V30 3649 H 340.949 -4.65758 -1.89944 0
M  V30 3650 H 340.649 -5.84472 -0.605489 0
M  V30 3651 H 342.173 -5.90974 -1.53565 0
M  V30 3652 H 343.587 -5.68699 0.724841 0
M  V30 3653 H 341.984 -5.8088 1.50659 0
M  V30 3654 H 343.054 -4.45525 1.91404 0
M  V30 3655 N 344.397 -0.483516 -1.5 0
M  V30 3656 C 345.637 0.0657469 -2.04294 0
M  V30 3657 C 346.001 1.35869 -1.35659 0
M  V30 3658 O 347.202 1.99111 -1.80578 0
M  V30 3659 C 345.473 0.232758 -3.56641 0
M  V30 3660 S 347.032 0.738788 -4.32536 0
M  V30 3661 H 343.85 0.0100755 -0.710929 0
M  V30 3662 H 346.452 -0.653494 -1.84254 0
M  V30 3663 H 345.156 -0.713847 -4.04144 0
M  V30 3664 H 344.687 0.977751 -3.81056 0
M  V30 3665 H 346.702 2.01048 -4.53645 0
M  V30 3666 N 345.875 1.56104 -0.216619 0
M  V30 3667 C 347.115 2.00074 0.418322 0
M  V30 3668 C 347.479 1.10098 1.57297 0
M  V30 3669 O 348.68 1.43393 2.27359 0
M  V30 3670 C 346.951 3.47231 0.846477 0
M  V30 3671 S 348.51 4.13223 1.47622 0
M  V30 3672 H 345.328 0.698457 0.132962 0
M  V30 3673 H 347.93 1.92784 -0.324748 0
M  V30 3674 H 346.634 4.104 -0.0036319 0
M  V30 3675 H 346.165 3.58384 1.62248 0
M  V30 3676 H 348.18 4.12005 2.76526 0
M  V30 3677 N 347.353 -0.0568162 1.57498 0
M  V30 3678 C 348.303 -1.07315 2.01166 0
M  V30 3679 C 349.287 -1.33632 0.896171 0
M  V30 3680 O 350.479 -1.33682 1.16009 0
M  V30 3681 C 347.608 -2.38257 2.47161 0
M  V30 3682 C 346.694 -2.1515 3.65474 0
M  V30 3683 N 347.085 -1.62014 4.7915 0
M  V30 3684 C 345.383 -2.45559 3.72313 0
M  V30 3685 C 346.084 -1.54069 5.60926 0
M  V30 3686 N 345.06 -2.00652 5.05213 0
M  V30 3687 H 348.862 -0.655878 2.86488 0
M  V30 3688 H 346.376 -0.263635 1.60246 0
M  V30 3689 H 348.373 -3.11845 2.76691 0
M  V30 3690 H 347.033 -2.80687 1.63232 0
M  V30 3691 H 348.044 -1.30667 5.01145 0
M  V30 3692 H 344.721 -2.91253 2.99129 0
M  V30 3693 H 346.111 -1.13712 6.62208 0
M  V30 3694 N 348.832 -1.54138 -0.328536 0
M  V30 3695 C 350.057 -1.76378 -1.09112 0
M  V30 3696 C 350.482 -0.508596 -1.81094 0
M  V30 3697 O 349.84 0.539598 -1.73084 0
M  V30 3698 C 349.888 -2.95358 -2.06872 0
M  V30 3699 O 348.992 -2.66556 -3.14677 0
M  V30 3700 H 348.333 -0.584614 -0.314838 0
M  V30 3701 H 350.863 -2.01146 -0.374348 0
M  V30 3702 H 350.873 -3.22566 -2.4983 0
M  V30 3703 H 349.548 -3.86385 -1.5388 0
M  V30 3704 H 348.125 -2.50282 -2.7643 0
M  V30 3705 N 350.31 0.590341 -1.46126 0
M  V30 3706 C 351.22 1.72793 -1.58681 0
M  V30 3707 C 352.236 1.67516 -0.470566 0
M  V30 3708 O 353.412 1.87562 -0.733642 0
M  V30 3709 C 350.477 3.09287 -1.5666 0
M  V30 3710 C 349.538 3.25886 -2.79458 0
M  V30 3711 C 348.771 4.55869 -2.77524 0
M  V30 3712 O 348.994 5.3928 -1.85832 0
M  V30 3713 O 347.928 4.75552 -3.68964 0
M  V30 3714 H 351.754 1.65149 -2.54872 0
M  V30 3715 H 349.339 0.756486 -1.28832 0
M  V30 3716 H 351.221 3.90577 -1.58202 0
M  V30 3717 H 349.896 3.17385 -0.636271 0
M  V30 3718 H 348.803 2.44119 -2.83472 0
M  V30 3719 H 350.136 3.22675 -3.71674 0
M  V30 3720 N 351.788 1.33704 0.83433 0
M  V30 3721 C 353.028 1.26754 1.60352 0
M  V30 3722 C 353.392 -0.163182 1.91305 0
M  V30 3723 O 354.593 -0.3567 2.66423 0
M  V30 3724 C 352.864 2.12262 2.8754 0
M  V30 3725 S 354.423 2.22549 3.78176 0
M  V30 3726 H 351.241 0.450879 0.549753 0
M  V30 3727 H 353.843 1.68788 0.986444 0
M  V30 3728 H 352.547 3.15238 2.62779 0
M  V30 3729 H 352.078 1.71082 3.54252 0
M  V30 3730 H 354.093 1.3899 4.76336 0
M  V30 3731 N 353.266 -1.05314 1.17247 0
M  V30 3732 C 354.196 -2.1498 0.911362 0
M  V30 3733 C 355.177 -1.69471 -0.146169 0
M  V30 3734 O 356.362 -1.942 0.003812 0
M  V30 3735 C 353.492 -3.4472 0.422528 0
M  V30 3736 C 352.446 -4.03789 1.4191 0
M  V30 3737 C 351.772 -5.28858 0.788274 0
M  V30 3738 C 353.072 -4.41418 2.7919 0
M  V30 3739 H 354.766 -2.3708 1.82848 0
M  V30 3740 H 352.312 -1.13938 0.880569 0
M  V30 3741 H 354.265 -4.20787 0.227289 0
M  V30 3742 H 352.989 -3.22269 -0.530123 0
M  V30 3743 H 351.648 -3.2979 1.60106 0
M  V30 3744 H 351.296 -5.02709 -0.171173 0
M  V30 3745 H 350.996 -5.69338 1.45353 0
M  V30 3746 H 352.52 -6.07612 0.603282 0
M  V30 3747 H 353.934 -5.08524 2.64719 0
M  V30 3748 H 352.331 -4.92913 3.42282 0
M  V30 3749 H 353.401 -3.51819 3.33693 0
M  V30 3750 N 354.744 -0.972509 -1.24016 0
M  V30 3751 C 355.992 -0.635776 -1.91839 0
M  V30 3752 C 356.313 0.832312 -1.76345 0
M  V30 3753 O 355.583 1.5946 -1.13795 0
M  V30 3754 H 354.163 -0.232157 -0.710009 0
M  V30 3755 H 356.825 -1.23462 -1.50809 0
M  V30 3756 H 355.921 -0.880545 -2.99421 0
M  V30 3757 N 356.222 1.38976 -0.743202 0
M  V30 3758 C 357.17 2.32394 -0.0978389 0
M  V30 3759 C 358.164 1.53486 0.716824 0
M  V30 3760 O 359.37 1.69092 0.617088 0
M  V30 3761 H 355.745 0.75189 -0.0128402 0
M  V30 3762 H 357.716 2.84441 -0.901981 0
M  V30 3763 C 356.465 3.38629 0.789036 0
M  V30 3764 H 355.788 3.99432 0.171559 0
M  V30 3765 H 357.228 4.06426 1.20807 0
M  V30 3766 C 355.687 2.76347 1.92702 0
M  V30 3767 O 356.217 2.64836 3.02034 0
M  V30 3768 N 354.423 2.34311 1.71891 0
M  V30 3769 H 353.97 2.43873 0.829675 0
M  V30 3770 H 353.928 1.9298 2.48205 0
M  V30 3771 N 357.7 0.491464 1.49741 0
M  V30 3772 C 358.94 -0.0549118 2.04326 0
M  V30 3773 C 359.304 -1.35148 1.36378 0
M  V30 3774 O 360.505 -1.9815 1.81631 0
M  V30 3775 C 358.776 -0.213841 3.5676 0
M  V30 3776 S 360.335 -0.715839 4.32922 0
M  V30 3777 H 357.153 -0.00630513 0.710972 0
M  V30 3778 H 359.755 0.663257 1.83905 0
M  V30 3779 H 358.459 0.73527 4.0376 0
M  V30 3780 H 357.99 -0.957529 3.81569 0
M  V30 3781 H 360.005 -1.9864 4.54705 0
M  V30 3782 N 359.178 -1.55987 0.224894 0
M  V30 3783 C 360.403 -2.03232 -0.41369 0
M  V30 3784 C 360.828 -1.10359 -1.52323 0
M  V30 3785 O 360.186 -0.092395 -1.81064 0
M  V30 3786 C 360.234 -3.48682 -0.919405 0
M  V30 3787 O 359.338 -3.58947 -2.03054 0
M  V30 3788 H 358.679 -0.657428 -0.0931903 0
M  V30 3789 H 361.209 -2.01679 0.34451 0
M  V30 3790 H 361.219 -3.8907 -1.22835 0
M  V30 3791 H 359.894 -4.15761 -0.107339 0
M  V30 3792 H 358.471 -3.30448 -1.72796 0
M  V30 3793 N 360.656 0.0484629 -1.57525 0
M  V30 3794 C 361.588 1.08222 -2.02041 0
M  V30 3795 C 362.601 1.33621 -0.930012 0
M  V30 3796 O 363.79 1.3145 -1.20761 0
M  V30 3797 C 360.89 2.42818 -2.36416 0
M  V30 3798 C 360.063 2.37049 -3.67596 0
M  V30 3799 C 359.122 3.53937 -3.89378 0
M  V30 3800 O 358.148 3.34308 -4.60681 0
M  V30 3801 N 359.35 4.75126 -3.3352 0
M  V30 3802 H 362.115 0.702946 -2.9134 0
M  V30 3803 H 359.676 0.236745 -1.6016 0
M  V30 3804 H 361.668 3.197 -2.48141 0
M  V30 3805 H 360.238 2.72661 -1.52888 0
M  V30 3806 H 359.458 1.45395 -3.66407 0
M  V30 3807 H 360.746 2.30318 -4.53686 0
M  V30 3808 H 360.144 4.93976 -2.75688 0
M  V30 3809 H 358.701 5.49439 -3.50656 0
M  V30 3810 N 362.134 1.5431 0.320358 0
M  V30 3811 C 363.545 1.63872 0.894594 0
M  V30 3812 C 363.896 0.534847 1.88769 0
M  V30 3813 O 363.021 -0.331732 2.13842 0
M  V30 3814 C 363.616 2.97049 1.62934 0
M  V30 3815 C 362.175 3.08796 2.15226 0
M  V30 3816 C 361.322 2.59456 0.978671 0
M  V30 3817 H 364.273 1.58398 0.0978544 0
M  V30 3818 H 364.294 2.87388 2.49376 0
M  V30 3819 H 363.806 3.7737 0.906302 0
M  V30 3820 H 361.907 2.33156 2.90636 0
M  V30 3821 H 362.02 4.14649 2.40006 0
M  V30 3822 H 360.384 2.1543 1.35875 0
M  V30 3823 H 361.167 3.42237 0.269895 0
M  V30 3824 N 363.613 -0.582584 1.46437 0
M  V30 3825 C 364.89 -1.34276 1.4223 0
M  V30 3826 C 365.27 -2.10835 0.10583 0
M  V30 3827 O 364.618 -2.09485 -0.912596 0
M  V30 3828 C 364.828 -2.26865 2.65204 0
M  V30 3829 C 366.176 -2.88691 3.11356 0
M  V30 3830 O 367.2 -2.37178 2.65753 0
M  V30 3831 O 366.059 -3.82255 3.90568 0
M  V30 3832 H 363.153 -0.603326 0.565621 0
M  V30 3833 H 365.699 -0.603591 1.58603 0
M  V30 3834 H 364.471 -1.69724 3.52576 0
M  V30 3835 H 364.094 -3.08122 2.5129 0
M  V30 3836 N 365.091 -1.34144 -0.827227 0
M  V30 3837 C 366.368 -1.16844 -1.56865 0
M  V30 3838 C 366.748 0.260654 -2.09485 0
M  V30 3839 O 366.096 1.26138 -1.9053 0
M  V30 3840 C 366.306 -2.21939 -2.6934 0
M  V30 3841 C 367.654 -2.56695 -3.3822 0
M  V30 3842 O 368.678 -2.20695 -2.79593 0
M  V30 3843 O 367.537 -3.18518 -4.44082 0
M  V30 3844 H 364.631 -0.452669 -0.692112 0
M  V30 3845 H 367.177 -1.45763 -0.868973 0
M  V30 3846 H 365.949 -3.17882 -2.28182 0
M  V30 3847 H 365.572 -1.94172 -3.46962 0
M  V30 3848 N 366.569 1.04691 -1.17803 0
M  V30 3849 C 367.98 1.59238 -0.974689 0
M  V30 3850 C 368.331 1.90306 0.477292 0
M  V30 3851 O 367.456 1.68846 1.35352 0
M  V30 3852 C 368.051 2.89318 -1.76296 0
M  V30 3853 C 366.61 3.40506 -1.60414 0
M  V30 3854 C 365.757 2.14172 -1.76141 0
M  V30 3855 H 368.708 0.874395 -1.32439 0
M  V30 3856 H 368.729 3.5944 -1.24833 0
M  V30 3857 H 368.241 2.66675 -2.81968 0
M  V30 3858 H 366.342 3.68175 -0.572519 0
M  V30 3859 H 366.455 4.14753 -2.39827 0
M  V30 3860 H 364.819 2.25176 -1.19028 0
M  V30 3861 H 365.602 1.93992 -2.83235 0
M  V30 3862 N 368.047 0.979072 1.23499 0
M  V30 3863 C 369.275 0.665202 1.95915 0
M  V30 3864 C 369.69 -0.767571 1.72493 0
M  V30 3865 O 369.047 -1.51635 1.01554 0
M  V30 3866 C 369.098 0.944438 3.48945 0
M  V30 3867 O 368.819 2.3209 3.71572 0
M  V30 3868 C 370.32 0.646336 4.38563 0
M  V30 3869 H 367.54 0.247218 0.623798 0
M  V30 3870 H 370.084 1.31009 1.57025 0
M  V30 3871 H 368.239 0.345575 3.85856 0
M  V30 3872 H 368.653 2.40957 4.65876 0
M  V30 3873 H 370.127 0.892091 5.44744 0
M  V30 3874 H 370.604 -0.419575 4.37191 0
M  V30 3875 H 371.21 1.22562 4.07258 0
M  V30 3876 N 369.525 -1.3858 0.750561 0
M  V30 3877 C 370.472 -2.30483 0.120835 0
M  V30 3878 C 371.442 -1.50022 -0.712923 0
M  V30 3879 O 372.627 -1.78662 -0.669676 0
M  V30 3880 C 369.767 -3.36431 -0.768666 0
M  V30 3881 C 368.88 -4.31927 0.0793922 0
M  V30 3882 C 368.015 -5.24944 -0.81283 0
M  V30 3883 C 367.054 -6.12088 0.0390447 0
M  V30 3884 N 366.191 -6.97412 -0.809969 0
M  V30 3885 H 371.031 -2.83761 0.91015 0
M  V30 3886 H 368.568 -1.39707 0.460463 0
M  V30 3887 H 370.526 -3.96462 -1.29898 0
M  V30 3888 H 369.156 -2.8457 -1.5238 0
M  V30 3889 H 368.208 -3.73382 0.727303 0
M  V30 3890 H 369.52 -4.93319 0.737401 0
M  V30 3891 H 368.674 -5.90078 -1.41042 0
M  V30 3892 H 367.413 -4.63911 -1.50458 0
M  V30 3893 H 366.418 -5.45952 0.649328 0
M  V30 3894 H 367.643 -6.75189 0.727809 0
M  V30 3895 H 365.589 -6.38931 -1.48672 0
M  V30 3896 H 365.506 -7.55712 -0.208789 0
M  V30 3897 H 366.774 -7.66959 -1.39263 0
M  V30 3898 N 371.003 -0.499398 -1.49478 0
M  V30 3899 C 372.243 0.0440751 -2.04352 0
M  V30 3900 C 372.607 1.34423 -1.37093 0
M  V30 3901 O 373.808 1.97184 -1.82679 0
M  V30 3902 C 372.079 0.194918 -3.56868 0
M  V30 3903 S 373.638 0.69287 -4.33295 0
M  V30 3904 H 370.456 0.00253458 -0.710995 0
M  V30 3905 H 373.058 -0.673 -1.83551 0
M  V30 3906 H 371.762 -0.756672 -4.03364 0
M  V30 3907 H 371.293 0.93728 -3.82071 0
M  V30 3908 H 373.308 1.96226 -4.55752 0
M  V30 3909 N 372.481 1.55866 -0.233164 0
M  V30 3910 C 373.727 1.98897 0.395959 0
M  V30 3911 C 374.06 1.12091 1.58585 0
M  V30 3912 O 373.335 0.181182 1.93654 0
M  V30 3913 C 373.618 3.50658 0.819224 0
M  V30 3914 C 373.471 4.48233 -0.375109 0
M  V30 3915 C 374.79 4.07135 1.67121 0
M  V30 3916 H 371.909 0.723102 0.142451 0
M  V30 3917 H 374.551 1.87082 -0.331725 0
M  V30 3918 H 372.701 3.60857 1.43925 0
M  V30 3919 H 374.373 4.50031 -1.01341 0
M  V30 3920 H 372.616 4.21624 -1.02058 0
M  V30 3921 H 373.287 5.51988 -0.0358328 0
M  V30 3922 H 375.763 3.99952 1.14795 0
M  V30 3923 H 374.639 5.13615 1.93625 0
M  V30 3924 H 374.9 3.54736 2.63846 0
M  V30 3925 N 373.959 -0.0401083 1.57549 0
M  V30 3926 C 374.922 -1.02871 2.04817 0
M  V30 3927 C 375.922 -1.29708 0.950388 0
M  V30 3928 O 377.112 -1.24897 1.21435 0
M  V30 3929 C 374.244 -2.36443 2.45576 0
M  V30 3930 H 375.437 -0.620631 2.93408 0
M  V30 3931 H 372.99 -0.286667 1.53649 0
M  V30 3932 H 373.725 -2.82021 1.60108 0
M  V30 3933 H 373.51 -2.18296 3.25713 0
M  V30 3934 H 375 -3.07441 2.82612 0
M  V30 3935 N 375.437 -1.54477 -0.31217 0
M  V30 3936 C 376.677 -1.74958 -1.05684 0
M  V30 3937 C 377.041 -0.518414 -1.84869 0
M  V30 3938 O 378.242 -0.600759 -2.62001 0
M  V30 3939 C 376.513 -2.99656 -1.94785 0
M  V30 3940 S 378.072 -3.4109 -2.76049 0
M  V30 3941 H 374.89 -0.615104 -0.356606 0
M  V30 3942 H 377.492 -1.92669 -0.331514 0
M  V30 3943 H 376.196 -3.87397 -1.35468 0
M  V30 3944 H 375.727 -2.845 -2.71704 0
M  V30 3945 H 377.742 -2.97283 -3.97287 0
M  V30 3946 N 376.915 0.57481 -1.46744 0
M  V30 3947 C 378.331 0.898981 -1.31873 0
M  V30 3948 C 378.531 1.99313 -0.29605 0
M  V30 3949 O 377.587 2.50728 0.298621 0
M  V30 3950 C 378.9 1.30886 -2.7072 0
M  V30 3951 C 380.448 1.42127 -2.78871 0
M  V30 3952 C 380.923 1.86478 -4.18318 0
M  V30 3953 N 382.414 1.93658 -4.20774 0
M  V30 3954 C 383.149 2.29267 -5.2557 0
M  V30 3955 N 382.645 2.63612 -6.40688 0
M  V30 3956 N 384.438 2.29889 -5.1294 0
M  V30 3957 H 376.589 -0.147839 -2.11885 0
M  V30 3958 H 378.852 -0.00347013 -0.947994 0
M  V30 3959 H 378.558 0.578853 -3.46904 0
M  V30 3960 H 378.432 2.26874 -3.01343 0
M  V30 3961 H 380.819 2.14213 -2.0297 0
M  V30 3962 H 380.9 0.443705 -2.51922 0
M  V30 3963 H 380.544 1.14968 -4.94717 0
M  V30 3964 H 380.474 2.85207 -4.42679 0
M  V30 3965 H 382.965 1.69574 -3.37718 0
M  V30 3966 H 383.278 2.89759 -7.16421 0
M  V30 3967 H 381.623 2.61232 -6.44036 0
M  V30 3968 H 384.814 2.02485 -4.22039 0
M  V30 3969 H 384.987 2.57312 -5.94722 0
M  V30 3970 N 378.394 1.34581 0.820102 0
M  V30 3971 C 379.342 1.26401 1.95258 0
M  V30 3972 C 380.336 0.161553 1.68628 0
M  V30 3973 O 381.542 0.326703 1.7701 0
M  V30 3974 H 377.917 0.392749 0.64129 0
M  V30 3975 H 379.888 2.22105 1.99279 0
M  V30 3976 C 378.637 1.03919 3.31807 0
M  V30 3977 H 377.96 1.87984 3.52848 0
M  V30 3978 H 379.4 1.02232 4.11491 0
M  V30 3979 C 377.859 -0.257433 3.35915 0
M  V30 3980 O 378.389 -1.25784 3.81499 0
M  V30 3981 N 376.595 -0.291524 2.89134 0
M  V30 3982 H 376.142 0.523161 2.52232 0
M  V30 3983 H 376.1 -1.15883 2.92264 0
M  V30 3984 N 379.872 -1.04064 1.18357 0
M  V30 3985 C 381.119 -1.77265 0.978947 0
M  V30 3986 C 381.447 -1.88189 -0.491428 0
M  V30 3987 O 380.702 -1.38653 -1.38108 0
M  V30 3988 C 381.001 -3.20634 1.57888 0
M  V30 3989 C 380.667 -3.29743 3.07539 0
M  V30 3990 C 379.329 -3.31937 3.48384 0
M  V30 3991 C 381.681 -3.29841 4.03552 0
M  V30 3992 C 379.009 -3.3187 4.83818 0
M  V30 3993 C 381.361 -3.31313 5.38901 0
M  V30 3994 C 380.025 -3.31799 5.79194 0
M  V30 3995 H 379.295 -0.648659 0.358222 0
M  V30 3996 H 381.942 -1.22225 1.47422 0
M  V30 3997 H 380.247 -3.78675 1.00561 0
M  V30 3998 H 381.944 -3.75917 1.39598 0
M  V30 3999 H 378.534 -3.28757 2.74986 0
M  V30 4000 H 382.718 -3.27337 3.73047 0
M  V30 4001 H 377.974 -3.30562 5.14333 0
M  V30 4002 H 382.148 -3.30338 6.13066 0
M  V30 4003 H 379.775 -3.315 6.84114 0
M  V30 4004 N 381.35 -0.985608 -1.22978 0
M  V30 4005 C 382.58 -0.674603 -1.95276 0
M  V30 4006 C 382.988 0.763483 -1.73111 0
M  V30 4007 O 382.331 1.52601 -1.02268 0
M  V30 4008 C 382.393 -0.891597 -3.48268 0
M  V30 4009 C 382.057 -2.31275 -3.94158 0
M  V30 4010 C 383.054 -3.29179 -4.02415 0
M  V30 4011 C 380.739 -2.64524 -4.27004 0
M  V30 4012 C 382.733 -4.58407 -4.42879 0
M  V30 4013 C 380.42 -3.93974 -4.67149 0
M  V30 4014 C 381.418 -4.90727 -4.75053 0
M  V30 4015 O 381.106 -6.17865 -5.14294 0
M  V30 4016 H 380.838 -0.249251 -0.628371 0
M  V30 4017 H 383.392 -1.32106 -1.5728 0
M  V30 4018 H 381.622 -0.187962 -3.86243 0
M  V30 4019 H 383.311 -0.576957 -4.01779 0
M  V30 4020 H 384.077 -3.04823 -3.77237 0
M  V30 4021 H 379.956 -1.89923 -4.2006 0
M  V30 4022 H 383.5 -5.33926 -4.48964 0
M  V30 4023 H 379.397 -4.18122 -4.91777 0
M  V30 4024 H 380.165 -6.21694 -5.32389 0
M  V30 4025 N 382.828 1.3818 -0.7579 0
M  V30 4026 C 383.758 2.33027 -0.148597 0
M  V30 4027 C 384.739 1.55085 0.69875 0
M  V30 4028 O 385.924 1.83384 0.639053 0
M  V30 4029 C 383.054 3.3928 0.742034 0
M  V30 4030 C 382.008 4.28 -0.00291946 0
M  V30 4031 C 381.334 5.25146 1.00625 0
M  V30 4032 C 382.634 5.08938 -1.17385 0
M  V30 4033 H 384.328 2.84231 -0.940909 0
M  V30 4034 H 381.874 1.36659 -0.453908 0
M  V30 4035 H 383.827 4.046 1.17799 0
M  V30 4036 H 382.551 2.86569 1.56671 0
M  V30 4037 H 381.21 3.64192 -0.419504 0
M  V30 4038 H 380.858 4.68721 1.8251 0
M  V30 4039 H 380.558 5.85361 0.512428 0
M  V30 4040 H 382.082 5.93342 1.44143 0
M  V30 4041 H 383.496 5.67474 -0.815224 0
M  V30 4042 H 381.893 5.7841 -1.59882 0
M  V30 4043 H 382.963 4.42424 -1.98468 0
M  V30 4044 N 384.306 0.507319 1.49211 0
M  V30 4045 C 385.583 -0.0982702 1.95353 0
M  V30 4046 C 385.963 -1.53516 1.449 0
M  V30 4047 O 385.311 -2.18594 0.66551 0
M  V30 4048 C 385.521 -0.00440283 3.49 0
M  V30 4049 C 386.869 -0.175147 4.24239 0
M  V30 4050 O 387.893 -0.0792891 3.56112 0
M  V30 4051 O 386.752 -0.37276 5.45227 0
M  V30 4052 H 383.846 -0.0918236 0.821887 0
M  V30 4053 H 386.392 0.570307 1.5983 0
M  V30 4054 H 385.164 0.997402 3.78375 0
M  V30 4055 H 384.787 -0.712845 3.91158 0
M  V30 4056 N 385.784 -1.5574 0.241426 0
M  V30 4057 C 387.032 -1.98417 -0.384075 0
M  V30 4058 C 387.353 -1.13078 -1.58866 0
M  V30 4059 O 386.623 -0.212312 -1.94746 0
M  V30 4060 H 385.203 -0.732813 -0.144894 0
M  V30 4061 H 387.865 -1.9193 0.338943 0
M  V30 4062 H 386.961 -3.04219 -0.696939 0
M  V30 4063 N 387.262 0.0317525 -1.57568 0
M  V30 4064 C 388.678 0.38735 -1.54828 0
M  V30 4065 C 388.878 1.7677 -0.967187 0
M  V30 4066 O 387.934 2.45581 -0.587063 0
M  V30 4067 C 389.247 0.291667 -2.99282 0
M  V30 4068 C 390.795 0.368946 -3.10818 0
M  V30 4069 C 391.27 0.302741 -4.56998 0
M  V30 4070 N 392.761 0.361617 -4.61786 0
M  V30 4071 C 393.496 0.333238 -5.72431 0
M  V30 4072 N 392.992 0.257308 -6.92322 0
M  V30 4073 N 394.785 0.382769 -5.60795 0
M  V30 4074 H 386.936 -0.871609 -1.93692 0
M  V30 4075 H 389.199 -0.331161 -0.888277 0
M  V30 4076 H 388.905 -0.656794 -3.45513 0
M  V30 4077 H 388.779 1.08638 -3.61217 0
M  V30 4078 H 391.166 1.30784 -2.64536 0
M  V30 4079 H 391.247 -0.455066 -2.5172 0
M  V30 4080 H 390.891 -0.632473 -5.03947 0
M  V30 4081 H 390.821 1.14482 -5.14005 0
M  V30 4082 H 393.312 0.422923 -3.75526 0
M  V30 4083 H 393.625 0.24068 -7.72425 0
M  V30 4084 H 391.97 0.223396 -6.94641 0
M  V30 4085 H 395.161 0.44006 -4.66027 0
M  V30 4086 H 395.334 0.357184 -6.47015 0
M  V30 4087 N 388.74 1.54641 0.303973 0
M  V30 4088 C 389.98 1.75516 1.04755 0
M  V30 4089 C 390.344 0.528211 1.84591 0
M  V30 4090 O 391.545 0.614645 2.61678 0
M  V30 4091 C 389.816 3.00685 1.93193 0
M  V30 4092 S 391.375 3.42549 2.74237 0
M  V30 4093 H 388.193 0.616987 0.353339 0
M  V30 4094 H 390.795 1.92842 0.321292 0
M  V30 4095 H 389.499 3.8811 1.33411 0
M  V30 4096 H 389.03 2.85937 2.70191 0
M  V30 4097 H 391.045 2.99386 3.95705 0
M  V30 4098 N 390.218 -0.567019 1.47046 0
M  V30 4099 C 391.464 -1.32658 1.53394 0
M  V30 4100 C 391.797 -1.93254 0.19148 0
M  V30 4101 O 391.072 -1.77338 -0.798844 0
M  V30 4102 C 391.355 -2.44412 2.64452 0
M  V30 4103 C 391.208 -1.88749 4.08282 0
M  V30 4104 C 392.527 -3.46387 2.71485 0
M  V30 4105 H 389.646 -0.48098 0.558415 0
M  V30 4106 H 392.288 -0.635481 1.79058 0
M  V30 4107 H 390.438 -3.03363 2.427 0
M  V30 4108 H 392.11 -1.34134 4.41368 0
M  V30 4109 H 390.353 -1.19481 4.17021 0
M  V30 4110 H 391.024 -2.69491 4.81745 0
M  V30 4111 H 393.5 -2.9734 2.91081 0
M  V30 4112 H 392.376 -4.2202 3.50985 0
M  V30 4113 H 392.637 -4.04616 1.78153 0
M  V30 4114 N 391.696 -1.35014 -0.812953 0
M  V30 4115 C 392.606 -1.2951 -1.95613 0
M  V30 4116 C 393.622 -0.20107 -1.72834 0
M  V30 4117 O 394.798 -0.42932 -1.96771 0
M  V30 4118 C 391.863 -1.06033 -3.30088 0
M  V30 4119 C 390.924 -2.24688 -3.65805 0
M  V30 4120 C 390.157 -2.02322 -4.93864 0
M  V30 4121 O 390.38 -0.986464 -5.61805 0
M  V30 4122 O 389.314 -2.89525 -5.27692 0
M  V30 4123 H 393.14 -2.25705 -2.03202 0
M  V30 4124 H 390.725 -1.15321 -0.949811 0
M  V30 4125 H 392.607 -0.94763 -4.10607 0
M  V30 4126 H 391.282 -0.128852 -3.23443 0
M  V30 4127 H 390.189 -2.41521 -2.85689 0
M  V30 4128 H 391.522 -3.16261 -3.77147 0
M  V30 4129 N 393.175 1.03435 -1.18907 0
M  V30 4130 C 394.403 1.80381 -1.01342 0
M  V30 4131 C 394.818 1.83649 0.438005 0
M  V30 4132 O 394.175 1.27655 1.30424 0
M  V30 4133 C 394.226 3.25689 -1.56873 0
M  V30 4134 O 393.947 3.22673 -2.96334 0
M  V30 4135 C 395.448 4.19255 -1.44014 0
M  V30 4136 H 392.668 0.56784 -0.35749 0
M  V30 4137 H 395.212 1.30317 -1.576 0
M  V30 4138 H 393.367 3.72962 -1.04777 0
M  V30 4139 H 393.781 4.13748 -3.22355 0
M  V30 4140 H 395.255 5.19123 -1.87657 0
M  V30 4141 H 395.732 4.37467 -0.389815 0
M  V30 4142 H 396.338 3.77851 -1.95214 0
M  V30 4143 N 394.653 0.992116 1.22453 0
M  V30 4144 C 395.893 0.675727 1.92907 0
M  V30 4145 C 396.257 -0.777762 1.75542 0
M  V30 4146 O 397.458 -1.20553 2.40251 0
M  V30 4147 C 395.729 1.0696 3.4102 0
M  V30 4148 S 397.288 0.871456 4.30059 0
M  V30 4149 H 394.106 0.247089 0.666684 0
M  V30 4150 H 396.708 1.27423 1.48269 0
M  V30 4151 H 395.412 2.12383 3.51172 0
M  V30 4152 H 394.943 0.462858 3.90668 0
M  V30 4153 H 396.958 -0.238436 4.95627 0
M  V30 4154 N 396.131 -1.37776 0.765217 0
M  V30 4155 C 397.542 -1.82521 0.392819 0
M  V30 4156 C 397.893 -1.63789 -1.08017 0
M  V30 4157 O 397.018 -1.14542 -1.83601 0
M  V30 4158 C 397.613 -3.31358 0.706214 0
M  V30 4159 C 396.172 -3.74406 0.386952 0
M  V30 4160 C 395.319 -2.60394 0.953422 0
M  V30 4161 H 398.27 -1.2634 0.960412 0
M  V30 4162 H 398.291 -3.80498 -0.0114706 0
M  V30 4163 H 397.803 -3.44959 1.77833 0
M  V30 4164 H 395.904 -3.66377 -0.678112 0
M  V30 4165 H 396.017 -4.70749 0.890636 0
M  V30 4166 H 394.381 -2.51878 0.378064 0
M  V30 4167 H 395.164 -2.76791 2.03081 0
M  V30 4168 N 397.609 -0.515225 -1.4894 0
M  V30 4169 C 399.02 -0.0710067 -1.86565 0
M  V30 4170 C 399.371 1.34733 -1.42623 0
M  V30 4171 O 398.496 2.00653 -0.810379 0
M  V30 4172 C 399.091 -0.122083 -3.3858 0
M  V30 4173 C 397.65 0.266863 -3.75453 0
M  V30 4174 C 396.797 -0.488376 -2.72966 0
M  V30 4175 H 399.748 -0.727266 -1.41055 0
M  V30 4176 H 399.769 0.669818 -3.74558 0
M  V30 4177 H 399.281 -1.15448 -3.70531 0
M  V30 4178 H 397.382 1.30196 -3.49113 0
M  V30 4179 H 397.495 -0.0624811 -4.79059 0
M  V30 4180 H 395.859 0.0635622 -2.54621 0
M  V30 4181 H 396.642 -1.52113 -3.07761 0
M  V30 4182 N 399.087 1.5561 -0.249682 0
M  V30 4183 C 400.498 1.84979 0.252949 0
M  V30 4184 C 400.849 1.17153 1.57384 0
M  V30 4185 O 399.974 0.450884 2.11651 0
M  V30 4186 C 400.569 3.35584 0.465732 0
M  V30 4187 C 399.128 3.65169 0.912624 0
M  V30 4188 C 398.275 2.77299 -0.00859085 0
M  V30 4189 H 401.226 1.51513 -0.47217 0
M  V30 4190 H 401.247 3.57313 1.30795 0
M  V30 4191 H 400.759 3.8492 -0.49579 0
M  V30 4192 H 398.86 3.21312 1.88652 0
M  V30 4193 H 398.973 4.72912 0.767559 0
M  V30 4194 H 397.337 2.49678 0.50327 0
M  V30 4195 H 398.12 3.29442 -0.965537 0
M  V30 4196 N 400.565 -0.0233959 1.57583 0
M  V30 4197 C 401.795 -0.723631 1.93513 0
M  V30 4198 C 402.203 -1.69115 0.848333 0
M  V30 4199 O 401.546 -1.82781 -0.183484 0
M  V30 4200 C 401.608 -1.53075 3.25282 0
M  V30 4201 C 401.272 -0.727388 4.51174 0
M  V30 4202 C 402.269 -0.0251924 5.19894 0
M  V30 4203 C 399.954 -0.680256 4.97672 0
M  V30 4204 C 401.948 0.713374 6.33395 0
M  V30 4205 C 399.635 0.0620523 6.11068 0
M  V30 4206 C 400.633 0.757622 6.78785 0
M  V30 4207 O 400.321 1.48787 7.90011 0
M  V30 4208 H 400.053 -0.208051 0.643188 0
M  V30 4209 H 402.607 0.0167489 2.05393 0
M  V30 4210 H 400.837 -2.31508 3.09744 0
M  V30 4211 H 402.526 -2.11413 3.46496 0
M  V30 4212 H 403.292 -0.0526003 4.84971 0
M  V30 4213 H 399.171 -1.21116 4.44805 0
M  V30 4214 H 402.715 1.25683 6.86185 0
M  V30 4215 H 398.612 0.0913634 6.45435 0
M  V30 4216 H 399.38 1.40213 8.06401 0
M  V30 4217 N 402.043 -1.548 -0.295768 0
M  V30 4218 C 403.273 -1.78069 -1.04762 0
M  V30 4219 C 403.681 -0.542847 -1.81245 0
M  V30 4220 O 403.024 0.497051 -1.76848 0
M  V30 4221 C 403.086 -2.93881 -2.07061 0
M  V30 4222 C 402.75 -4.31777 -1.49725 0
M  V30 4223 C 403.747 -5.11613 -0.924581 0
M  V30 4224 C 401.432 -4.78389 -1.5313 0
M  V30 4225 C 403.426 -6.36184 -0.393594 0
M  V30 4226 C 401.113 -6.02921 -0.996447 0
M  V30 4227 C 402.111 -6.81654 -0.428569 0
M  V30 4228 O 401.799 -8.0384 0.0981593 0
M  V30 4229 H 401.531 -0.597475 -0.316226 0
M  V30 4230 H 404.085 -2.02584 -0.338973 0
M  V30 4231 H 402.315 -2.65003 -2.81621 0
M  V30 4232 H 404.004 -3.04679 -2.6819 0
M  V30 4233 H 404.77 -4.76743 -0.891136 0
M  V30 4234 H 400.649 -4.17132 -1.9627 0
M  V30 4235 H 404.193 -6.97582 0.0503014 0
M  V30 4236 H 400.09 -6.37277 -1.02706 0
M  V30 4237 H 400.858 -8.18499 -0.0146455 0
M  V30 4238 N 403.521 0.559213 -1.47345 0
M  V30 4239 C 404.471 1.66192 -1.5609 0
M  V30 4240 C 405.455 1.55323 -0.419957 0
M  V30 4241 O 406.647 1.63839 -0.669762 0
M  V30 4242 C 403.776 3.0497 -1.57634 0
M  V30 4243 C 402.862 3.2105 -2.77106 0
M  V30 4244 N 403.253 3.07203 -4.01821 0
M  V30 4245 C 401.551 3.52046 -2.73825 0
M  V30 4246 C 402.252 3.25919 -4.81821 0
M  V30 4247 N 401.228 3.52161 -4.14106 0
M  V30 4248 H 405.03 1.54052 -2.5029 0
M  V30 4249 H 402.544 0.763914 -1.43311 0
M  V30 4250 H 404.541 3.84142 -1.61989 0
M  V30 4251 H 403.201 3.18224 -0.645281 0
M  V30 4252 H 404.212 2.84572 -4.32711 0
M  V30 4253 H 400.889 3.71839 -1.89848 0
M  V30 4254 H 402.279 3.20198 -5.90697 0
M  V30 4255 N 404.999 1.35443 0.805782 0
M  V30 4256 C 406.246 1.28761 1.56291 0
M  V30 4257 C 406.574 -0.137747 1.94012 0
M  V30 4258 O 405.829 -1.1032 1.61642 0
M  V30 4259 C 406.128 2.14045 2.86216 0
M  V30 4260 C 405.794 3.62826 2.67709 0
M  V30 4261 C 404.456 4.0338 2.6237 0
M  V30 4262 C 406.808 4.57227 2.50186 0
M  V30 4263 C 404.136 5.36501 2.37451 0
M  V30 4264 C 406.488 5.90547 2.26797 0
M  V30 4265 C 405.152 6.30245 2.1988 0
M  V30 4266 H 404.422 0.471171 0.571908 0
M  V30 4267 H 407.069 1.67347 0.930974 0
M  V30 4268 H 405.374 1.68342 3.53791 0
M  V30 4269 H 407.071 2.0621 3.43917 0
M  V30 4270 H 403.661 3.30644 2.72713 0
M  V30 4271 H 407.845 4.2678 2.53323 0
M  V30 4272 H 403.101 5.66259 2.30567 0
M  V30 4273 H 407.275 6.63274 2.12228 0
M  V30 4274 H 404.902 7.33328 2.00333 0
M  V30 4275 N 406.477 -1.02803 1.19454 0
M  V30 4276 C 407.409 -2.11181 0.890807 0
M  V30 4277 C 408.422 -1.6238 -0.116829 0
M  V30 4278 O 409.611 -1.78144 0.112694 0
M  V30 4279 C 406.711 -3.37461 0.311942 0
M  V30 4280 C 405.884 -4.15446 1.36834 0
M  V30 4281 C 404.943 -5.20039 0.802864 0
M  V30 4282 O 403.969 -5.49602 1.48077 0
M  V30 4283 N 405.171 -5.79165 -0.393417 0
M  V30 4284 H 407.936 -2.37827 1.82369 0
M  V30 4285 H 405.497 -1.19101 1.09666 0
M  V30 4286 H 407.489 -4.0462 -0.0802225 0
M  V30 4287 H 406.059 -3.08156 -0.52524 0
M  V30 4288 H 405.279 -3.43423 1.93531 0
M  V30 4289 H 406.567 -4.64335 2.08015 0
M  V30 4290 H 405.965 -5.57466 -0.961658 0
M  V30 4291 H 404.522 -6.47729 -0.727351 0
M  V30 4292 N 407.956 -0.998596 -1.21925 0
M  V30 4293 C 409.233 -0.593401 -1.86382 0
M  V30 4294 C 409.613 0.92916 -1.89552 0
M  V30 4295 O 408.961 1.81347 -1.39017 0
M  V30 4296 C 409.171 -1.22039 -3.26967 0
M  V30 4297 C 410.519 -1.32449 -4.03413 0
M  V30 4298 O 411.543 -1.17522 -3.36254 0
M  V30 4299 O 410.402 -1.56395 -5.23644 0
M  V30 4300 H 407.496 -0.202385 -0.801854 0
M  V30 4301 H 410.042 -1.09484 -1.29659 0
M  V30 4302 H 408.814 -2.26158 -3.19325 0
M  V30 4303 H 408.437 -0.704906 -3.91301 0
M  V30 4304 N 409.434 1.37368 -0.772513 0
M  V30 4305 C 410.68 2.00423 -0.3467 0
M  V30 4306 C 411.035 1.60224 1.06518 0
M  V30 4307 O 410.328 0.838712 1.72268 0
M  V30 4308 C 410.522 3.54817 -0.428876 0
M  V30 4309 C 410.351 4.10011 -1.84719 0
M  V30 4310 C 409.121 4.40927 -2.46803 0
M  V30 4311 C 411.319 4.30955 -2.80681 0
M  V30 4312 N 409.301 4.8184 -3.80399 0
M  V30 4313 C 410.672 4.74486 -3.99078 0
M  V30 4314 C 412.727 4.1309 -2.77958 0
M  V30 4315 C 411.43 5.02023 -5.15136 0
M  V30 4316 C 413.456 4.41764 -3.9319 0
M  V30 4317 C 412.818 4.85535 -5.10328 0
M  V30 4318 H 408.917 0.762413 -0.173927 0
M  V30 4319 H 411.501 1.66666 -1.00651 0
M  V30 4320 H 409.672 3.87881 0.200757 0
M  V30 4321 H 411.404 4.04696 0.0190668 0
M  V30 4322 H 408.159 4.30033 -1.98415 0
M  V30 4323 H 408.583 5.06604 -4.49089 0
M  V30 4324 H 413.225 3.7842 -1.88568 0
M  V30 4325 H 410.943 5.35582 -6.05126 0
M  V30 4326 H 414.529 4.29528 -3.92425 0
M  V30 4327 H 413.409 5.07296 -5.98013 0
M  V30 4328 N 410.912 0.523116 1.48665 0
M  V30 4329 C 412.328 0.180511 1.58576 0
M  V30 4330 C 412.528 -1.31597 1.52592 0
M  V30 4331 O 411.584 -2.0937 1.4114 0
M  V30 4332 C 412.897 0.776949 2.90489 0
M  V30 4333 C 414.445 0.745058 3.04003 0
M  V30 4334 C 414.92 1.31995 4.38567 0
M  V30 4335 N 416.411 1.28162 4.45117 0
M  V30 4336 C 417.146 1.6964 5.47731 0
M  V30 4337 N 416.642 2.18816 6.57337 0
M  V30 4338 N 418.435 1.6092 5.38573 0
M  V30 4339 H 410.586 1.4958 1.50797 0
M  V30 4340 H 412.849 0.621772 0.715614 0
M  V30 4341 H 412.555 1.82732 3.00503 0
M  V30 4342 H 412.429 0.25007 3.7637 0
M  V30 4343 H 414.816 -0.296532 2.93606 0
M  V30 4344 H 414.897 1.30933 2.1975 0
M  V30 4345 H 414.541 2.36043 4.49718 0
M  V30 4346 H 414.471 0.731418 5.21496 0
M  V30 4347 H 416.962 0.92155 3.66491 0
M  V30 4348 H 417.275 2.48478 7.31764 0
M  V30 4349 H 415.62 2.22805 6.58318 0
M  V30 4350 H 418.811 1.22304 4.5184 0
M  V30 4351 H 418.984 1.93567 6.18414 0
M  V30 4352 N 412.39 -1.55475 0.257931 0
M  V30 4353 C 413.63 -2.01112 -0.365129 0
M  V30 4354 C 413.994 -1.1423 -1.54323 0
M  V30 4355 O 415.195 -1.49371 -2.23477 0
M  V30 4356 C 413.466 -3.49353 -0.754117 0
M  V30 4357 S 415.025 -4.16992 -1.36614 0
M  V30 4358 H 411.843 -0.701737 -0.114397 0
M  V30 4359 H 414.445 -1.91855 0.375747 0
M  V30 4360 H 413.149 -4.10246 0.112441 0
M  V30 4361 H 412.68 -3.6256 -1.52689 0
M  V30 4362 H 414.695 -4.19191 -2.65505 0
M  V30 4363 N 413.868 0.0150385 -1.57593 0
M  V30 4364 C 415.114 0.704043 -1.90187 0
M  V30 4365 C 415.447 1.74249 -0.857366 0
M  V30 4366 O 414.722 1.94092 0.125843 0
M  V30 4367 C 415.005 1.36087 -3.33395 0
M  V30 4368 C 414.858 0.334981 -4.48551 0
M  V30 4369 C 416.177 2.29112 -3.7576 0
M  V30 4370 H 413.296 0.254475 -0.691673 0
M  V30 4371 H 415.938 -0.0331678 -1.89971 0
M  V30 4372 H 414.088 1.98922 -3.3371 0
M  V30 4373 H 415.76 -0.292534 -4.60372 0
M  V30 4374 H 414.003 -0.344325 -4.32431 0
M  V30 4375 H 414.674 0.833316 -5.45674 0
M  V30 4376 H 417.15 1.76308 -3.76902 0
M  V30 4377 H 416.026 2.72043 -4.76743 0
M  V30 4378 H 416.287 3.16385 -3.08793 0
M  V30 4379 N 415.346 1.54954 0.287554 0
M  V30 4380 C 416.294 1.87606 1.37502 0
M  V30 4381 C 417.288 0.751001 1.51843 0
M  V30 4382 O 418.494 0.935169 1.53801 0
M  V30 4383 H 414.869 0.595231 0.459569 0
M  V30 4384 H 416.84 2.78477 1.07206 0
M  V30 4385 C 415.589 2.15183 2.73115 0
M  V30 4386 H 414.912 3.01234 2.62866 0
M  V30 4387 H 416.352 2.4196 3.48183 0
M  V30 4388 C 414.811 0.954686 3.2309 0
M  V30 4389 O 415.341 0.181949 4.01288 0
M  V30 4390 N 413.547 0.756368 2.80584 0
M  V30 4391 H 413.094 1.38643 2.17108 0
M  V30 4392 H 413.052 -0.0430391 3.14371 0
M  V30 4393 N 416.824 -0.551391 1.4764 0
M  V30 4394 C 418.071 -1.3083 1.54563 0
M  V30 4395 C 418.399 -1.93359 0.210361 0
M  V30 4396 O 417.654 -1.78721 -0.797332 0
M  V30 4397 C 417.953 -2.43469 2.61644 0
M  V30 4398 C 417.619 -1.98732 4.04742 0
M  V30 4399 C 416.281 -1.86248 4.43695 0
M  V30 4400 C 418.633 -1.64659 4.94507 0
M  V30 4401 C 415.961 -1.37995 5.70241 0
M  V30 4402 C 418.313 -1.17875 6.21521 0
M  V30 4403 C 416.977 -1.03992 6.5935 0
M  V30 4404 H 416.247 -0.478741 0.565587 0
M  V30 4405 H 418.894 -0.617697 1.81264 0
M  V30 4406 H 417.199 -3.18109 2.28722 0
M  V30 4407 H 418.896 -3.01642 2.64222 0
M  V30 4408 H 415.486 -2.09393 3.73968 0
M  V30 4409 H 419.67 -1.73174 4.65107 0
M  V30 4410 H 414.926 -1.25915 5.98294 0
M  V30 4411 H 419.1 -0.905739 6.90485 0
M  V30 4412 H 416.727 -0.663794 7.57296 0
M  V30 4413 N 418.302 -1.35869 -0.798587 0
M  V30 4414 C 419.527 -1.32883 -1.59238 0
M  V30 4415 C 419.952 0.0894587 -1.87887 0
M  V30 4416 O 419.31 1.05869 -1.47178 0
M  V30 4417 C 419.358 -2.14892 -2.89575 0
M  V30 4418 O 418.462 -1.53512 -3.82763 0
M  V30 4419 H 417.803 -0.455236 -0.48338 0
M  V30 4420 H 420.333 -1.79024 -0.990539 0
M  V30 4421 H 420.343 -2.27139 -3.38928 0
M  V30 4422 H 419.018 -3.17998 -2.68049 0
M  V30 4423 H 417.595 -1.50153 -3.41334 0
M  V30 4424 N 419.78 1.02168 -1.19998 0
M  V30 4425 C 421.027 1.75685 -1.00702 0
M  V30 4426 C 421.355 1.88947 0.461426 0
M  V30 4427 O 420.61 1.40832 1.35885 0
M  V30 4428 C 420.909 3.18081 -1.62969 0
M  V30 4429 C 420.575 3.24809 -3.12746 0
M  V30 4430 C 419.237 3.26352 -3.53621 0
M  V30 4431 C 421.589 3.23379 -4.08749 0
M  V30 4432 C 418.917 3.2413 -4.89036 0
M  V30 4433 C 421.269 3.22698 -5.44104 0
M  V30 4434 C 419.933 3.22542 -5.84399 0
M  V30 4435 H 419.203 0.642877 -0.368496 0
M  V30 4436 H 421.85 1.19865 -1.49348 0
M  V30 4437 H 420.155 3.77027 -1.06573 0
M  V30 4438 H 421.852 3.73648 -1.45561 0
M  V30 4439 H 418.442 3.2434 -2.80181 0
M  V30 4440 H 422.626 3.21361 -3.78207 0
M  V30 4441 H 417.882 3.22338 -5.19527 0
M  V30 4442 H 422.056 3.20543 -6.18244 0
M  V30 4443 H 419.683 3.20575 -6.89301 0
M  V30 4444 N 421.258 1.00505 1.21394 0
M  V30 4445 C 422.498 0.696149 1.9218 0
M  V30 4446 C 422.862 -0.759099 1.76357 0
M  V30 4447 O 424.063 -1.17998 2.41516 0
M  V30 4448 C 422.334 1.10571 3.39866 0
M  V30 4449 S 423.893 0.91702 4.29111 0
M  V30 4450 H 420.711 0.254147 0.664026 0
M  V30 4451 H 423.313 1.28988 1.46909 0
M  V30 4452 H 422.017 2.16096 3.489 0
M  V30 4453 H 421.548 0.504268 3.90155 0
M  V30 4454 H 423.563 -0.185855 4.95852 0
M  V30 4455 N 422.737 -1.36956 0.779787 0
M  V30 4456 C 423.669 -2.28833 0.129639 0
M  V30 4457 C 424.682 -1.4902 -0.655511 0
M  V30 4458 O 425.871 -1.71578 -0.492279 0
M  V30 4459 C 422.971 -3.2833 -0.839792 0
M  V30 4460 C 422.144 -4.3727 -0.10675 0
M  V30 4461 C 421.203 -5.16789 -0.990717 0
M  V30 4462 O 420.229 -5.67406 -0.451516 0
M  V30 4463 N 421.431 -5.32294 -2.3161 0
M  V30 4464 H 424.196 -2.85268 0.918803 0
M  V30 4465 H 421.757 -1.49019 0.632841 0
M  V30 4466 H 423.749 -3.78413 -1.43477 0
M  V30 4467 H 422.319 -2.72605 -1.52988 0
M  V30 4468 H 421.539 -3.88478 0.669216 0
M  V30 4469 H 422.827 -5.07229 0.399464 0
M  V30 4470 H 422.225 -4.92768 -2.77843 0
M  V30 4471 H 420.782 -5.85656 -2.86095 0
M  V30 4472 N 424.215 -0.530993 -1.48385 0
M  V30 4473 C 425.492 0.0671788 -1.95485 0
M  V30 4474 C 425.872 1.51191 -1.47324 0
M  V30 4475 O 425.22 2.17507 -0.700202 0
M  V30 4476 C 425.43 -0.0511206 -3.48963 0
M  V30 4477 C 426.778 0.107632 -4.24464 0
M  V30 4478 O 427.802 0.0226248 -3.56193 0
M  V30 4479 O 426.661 0.285972 -5.45751 0
M  V30 4480 H 423.755 0.0787365 -0.823243 0
M  V30 4481 H 426.301 -0.595662 -1.58902 0
M  V30 4482 H 425.073 -1.05747 -3.7674 0
M  V30 4483 H 424.696 0.650525 -3.92242 0
M  V30 4484 N 425.693 1.55336 -0.266172 0
M  V30 4485 C 426.623 2.25146 0.618981 0
M  V30 4486 C 427.604 1.23845 1.16604 0
M  V30 4487 O 428.789 1.52544 1.20183 0
M  V30 4488 C 425.919 2.96572 1.80728 0
M  V30 4489 C 424.873 4.04726 1.39215 0
M  V30 4490 C 424.199 4.63678 2.66283 0
M  V30 4491 C 425.499 5.19407 0.548942 0
M  V30 4492 H 427.193 2.99377 0.0368116 0
M  V30 4493 H 424.739 1.43991 0.0162651 0
M  V30 4494 H 426.692 3.44116 2.43232 0
M  V30 4495 H 425.416 2.19861 2.41514 0
M  V30 4496 H 424.075 3.57979 0.790351 0
M  V30 4497 H 423.723 3.83646 3.25308 0
M  V30 4498 H 423.423 5.367 2.39222 0
M  V30 4499 H 424.947 5.13967 3.29651 0
M  V30 4500 H 426.361 5.63059 1.07876 0
M  V30 4501 H 424.758 5.98936 0.373593 0
M  V30 4502 H 425.828 4.8295 -0.434394 0
M  V30 4503 N 427.171 -0.0066808 1.57599 0
M  V30 4504 C 428.121 -1.0086 2.04478 0
M  V30 4505 C 429.105 -1.30714 0.938231 0
M  V30 4506 O 430.297 -1.29924 1.20203 0
M  V30 4507 C 427.426 -2.30273 2.54615 0
M  V30 4508 C 426.512 -2.03413 3.72134 0
M  V30 4509 N 426.903 -1.46688 4.84062 0
M  V30 4510 C 425.201 -2.33589 3.79937 0
M  V30 4511 C 425.902 -1.36146 5.65543 0
M  V30 4512 N 424.878 -1.84477 5.1134 0
M  V30 4513 H 428.68 -0.564402 2.8843 0
M  V30 4514 H 426.194 -0.212521 1.61003 0
M  V30 4515 H 428.191 -3.02885 2.86472 0
M  V30 4516 H 426.851 -2.75352 1.72079 0
M  V30 4517 H 427.862 -1.14658 5.05049 0
M  V30 4518 H 424.539 -2.81589 3.08243 0
M  V30 4519 H 425.929 -0.925873 6.6549 0
M  V30 4520 N 428.649 -1.55105 -0.279332 0
M  V30 4521 C 429.599 -1.83937 -1.34727 0
M  V30 4522 C 430.583 -0.69785 -1.44979 0
M  V30 4523 O 431.775 -0.95904 -1.48766 0
M  V30 4524 C 428.904 -2.1092 -2.70864 0
M  V30 4525 C 427.99 -3.31314 -2.64748 0
M  V30 4526 N 428.381 -4.51371 -2.2825 0
M  V30 4527 C 426.679 -3.33777 -2.95819 0
M  V30 4528 C 427.38 -5.33447 -2.31969 0
M  V30 4529 N 426.356 -4.71697 -2.7019 0
M  V30 4530 H 430.158 -2.74309 -1.05506 0
M  V30 4531 H 427.672 -1.54896 -0.487959 0
M  V30 4532 H 429.669 -2.2973 -3.47893 0
M  V30 4533 H 428.329 -1.21828 -3.00979 0
M  V30 4534 H 429.34 -4.77584 -2.00335 0
M  V30 4535 H 426.017 -2.54858 -3.30687 0
M  V30 4536 H 427.407 -6.39424 -2.06365 0
M  V30 4537 N 430.127 0.543554 -1.4793 0
M  V30 4538 C 431.074 1.64942 -1.6144 0
M  V30 4539 C 432.044 1.59692 -0.456903 0
M  V30 4540 O 433.229 1.78321 -0.678688 0
M  V30 4541 C 430.369 3.03238 -1.64744 0
M  V30 4542 C 429.482 3.18823 -2.91506 0
M  V30 4543 C 428.617 4.47599 -2.86057 0
M  V30 4544 C 427.656 4.56664 -4.07584 0
M  V30 4545 N 426.793 5.76811 -4.00292 0
M  V30 4546 H 431.633 1.52733 -2.55884 0
M  V30 4547 H 429.17 0.7438 -1.2691 0
M  V30 4548 H 431.128 3.83339 -1.64641 0
M  V30 4549 H 429.758 3.1425 -0.738017 0
M  V30 4550 H 428.81 2.32064 -3.01414 0
M  V30 4551 H 430.122 3.21384 -3.81463 0
M  V30 4552 H 429.276 5.35975 -2.84281 0
M  V30 4553 H 428.015 4.47538 -1.93807 0
M  V30 4554 H 427.02 3.66697 -4.09651 0
M  V30 4555 H 428.245 4.58474 -5.00978 0
M  V30 4556 H 426.191 5.77673 -3.10853 0
M  V30 4557 H 426.108 5.80808 -4.8394 0
M  V30 4558 H 427.376 6.67512 -4.02553 0
M  V30 4559 N 431.605 1.3629 0.791371 0
M  V30 4560 C 432.845 1.31792 1.56238 0
M  V30 4561 C 433.209 -0.102237 1.91728 0
M  V30 4562 O 434.41 -0.271759 2.67423 0
M  V30 4563 C 432.681 2.21303 2.80642 0
M  V30 4564 S 434.24 2.34468 3.70904 0
M  V30 4565 H 431.058 0.468141 0.535131 0
M  V30 4566 H 433.66 1.71841 0.932246 0
M  V30 4567 H 432.364 3.23439 2.52617 0
M  V30 4568 H 431.895 1.82266 3.4863 0
M  V30 4569 H 433.91 1.54074 4.71673 0
M  V30 4570 N 433.083 -1.0153 1.20538 0
M  V30 4571 C 434.03 -2.10098 0.955383 0
M  V30 4572 C 435 -1.65702 -0.114878 0
M  V30 4573 O 436.185 -1.90776 0.0301118 0
M  V30 4574 C 433.325 -3.41236 0.514969 0
M  V30 4575 C 432.438 -3.99102 1.65353 0
M  V30 4576 C 431.573 -5.18306 1.16329 0
M  V30 4577 C 430.612 -5.68258 2.27485 0
M  V30 4578 N 429.749 -6.78722 1.7967 0
M  V30 4579 H 434.589 -2.30818 1.88486 0
M  V30 4580 H 432.126 -1.13189 0.939499 0
M  V30 4581 H 434.084 -4.16504 0.240935 0
M  V30 4582 H 432.714 -3.20585 -0.377512 0
M  V30 4583 H 431.766 -3.20918 2.04245 0
M  V30 4584 H 433.078 -4.32177 2.49047 0
M  V30 4585 H 432.232 -6.00782 0.845302 0
M  V30 4586 H 430.971 -4.86799 0.296254 0
M  V30 4587 H 429.976 -4.84385 2.60099 0
M  V30 4588 H 431.201 -6.01798 3.14667 0
M  V30 4589 H 429.147 -6.49042 0.95295 0
M  V30 4590 H 429.064 -7.10996 2.56944 0
M  V30 4591 H 430.332 -7.64759 1.50875 0
M  V30 4592 N 434.561 -1.01147 -1.20859 0
M  V30 4593 C 435.509 -0.57059 -2.25493 0
M  V30 4594 C 436.503 0.388109 -1.64894 0
M  V30 4595 O 437.709 0.258592 -1.78133 0
M  V30 4596 H 434.084 -0.166191 -0.733406 0
M  V30 4597 H 436.055 -1.46411 -2.60012 0
M  V30 4598 C 434.804 0.0805241 -3.47607 0
M  V30 4599 H 434.127 -0.648156 -3.94511 0
M  V30 4600 H 435.567 0.352197 -4.22535 0
M  V30 4601 C 434.026 1.32175 -3.09889 0
M  V30 4602 O 434.556 2.41553 -3.20959 0
M  V30 4603 N 432.762 1.20392 -2.64488 0
M  V30 4604 H 432.309 0.313905 -2.5568 0
M  V30 4605 H 432.267 2.03541 -2.39621 0
M  V30 4606 N 436.039 1.36541 -0.78704 0
M  V30 4607 C 437.264 2.0409 -0.369053 0
M  V30 4608 C 437.689 1.58957 1.00569 0
M  V30 4609 O 437.047 0.756926 1.64743 0
M  V30 4610 C 437.095 3.57924 -0.438466 0
M  V30 4611 O 436.199 4.08642 0.555479 0
M  V30 4612 H 435.54 0.645142 -0.157122 0
M  V30 4613 H 438.07 1.74545 -1.06749 0
M  V30 4614 H 438.08 4.06887 -0.301218 0
M  V30 4615 H 436.755 3.90127 -1.44132 0
M  V30 4616 H 435.332 3.70958 0.380088 0
M  V30 4617 N 437.518 0.538854 1.48102 0
M  V30 4618 C 438.934 0.19732 1.58376 0
M  V30 4619 C 439.134 -1.29971 1.5398 0
M  V30 4620 O 438.19 -2.07861 1.43352 0
M  V30 4621 C 439.503 0.807716 2.89649 0
M  V30 4622 C 441.051 0.77726 3.03196 0
M  V30 4623 C 441.526 1.36639 4.37143 0
M  V30 4624 N 443.017 1.32875 4.43732 0
M  V30 4625 C 443.752 1.7544 5.45901 0
M  V30 4626 N 443.248 2.25776 6.54979 0
M  V30 4627 N 445.041 1.66623 5.36836 0
M  V30 4628 H 437.192 1.5117 1.49202 0
M  V30 4629 H 439.455 0.629327 0.708979 0
M  V30 4630 H 439.161 1.85909 2.98548 0
M  V30 4631 H 439.035 0.289975 3.76084 0
M  V30 4632 H 441.422 -0.265374 2.93904 0
M  V30 4633 H 441.503 1.33256 2.18349 0
M  V30 4634 H 441.147 2.408 4.47189 0
M  V30 4635 H 441.077 0.786689 5.20691 0
M  V30 4636 H 443.568 0.96037 3.65493 0
M  V30 4637 H 443.881 2.56226 7.29087 0
M  V30 4638 H 442.226 2.29775 6.55918 0
M  V30 4639 H 445.417 1.27089 4.50517 0
M  V30 4640 H 445.59 2.00115 6.16326 0
M  V30 4641 N 438.996 -1.55193 0.274407 0
M  V30 4642 C 440.412 -1.59401 -0.0797543 0
M  V30 4643 C 440.612 -1.29162 -1.54659 0
M  V30 4644 O 439.668 -1.05215 -2.29534 0
M  V30 4645 C 440.981 -2.99257 0.294238 0
M  V30 4646 C 442.529 -3.12072 0.240796 0
M  V30 4647 C 443.004 -4.54194 0.589218 0
M  V30 4648 N 444.495 -4.60033 0.540744 0
M  V30 4649 C 445.23 -5.68027 0.783147 0
M  V30 4650 N 444.726 -6.8417 1.09013 0
M  V30 4651 N 446.519 -5.57572 0.711993 0
M  V30 4652 H 438.67 -1.73113 1.23067 0
M  V30 4653 H 440.933 -0.807197 0.497129 0
M  V30 4654 H 440.639 -3.26217 1.31435 0
M  V30 4655 H 440.513 -3.75427 -0.365281 0
M  V30 4656 H 442.9 -2.84877 -0.770024 0
M  V30 4657 H 442.981 -2.38117 0.934563 0
M  V30 4658 H 442.625 -4.82115 1.59772 0
M  V30 4659 H 442.555 -5.26448 -0.126331 0
M  V30 4660 H 445.046 -3.76599 0.313327 0
M  V30 4661 H 445.359 -7.6243 1.26178 0
M  V30 4662 H 443.704 -6.85787 1.12789 0
M  V30 4663 H 446.895 -4.65714 0.472014 0
M  V30 4664 H 447.068 -6.41659 0.90429 0
M  V30 4665 N 440.474 -0.00167713 -1.576 0
M  V30 4666 C 441.406 1.0174 -2.05382 0
M  V30 4667 C 442.419 1.30595 -0.972052 0
M  V30 4668 O 443.608 1.27542 -1.24882 0
M  V30 4669 C 440.708 2.35174 -2.44022 0
M  V30 4670 C 439.881 2.25234 -3.74951 0
M  V30 4671 C 438.94 3.4137 -4.00441 0
M  V30 4672 O 437.966 3.19483 -4.71083 0
M  V30 4673 N 439.168 4.64275 -3.48467 0
M  V30 4674 H 441.933 0.609902 -2.93428 0
M  V30 4675 H 439.494 0.185672 -1.60832 0
M  V30 4676 H 441.486 3.11643 -2.58187 0
M  V30 4677 H 440.056 2.67659 -1.61485 0
M  V30 4678 H 439.276 1.33664 -3.70847 0
M  V30 4679 H 440.564 2.15767 -4.60784 0
M  V30 4680 H 439.962 4.84955 -2.91264 0
M  V30 4681 H 438.519 5.38005 -3.67959 0
M  V30 4682 N 441.952 1.55251 0.271103 0
M  V30 4683 C 443.2 1.75599 1.00047 0
M  V30 4684 C 443.521 0.561188 1.8675 0
M  V30 4685 O 442.791 -0.423846 1.9126 0
M  V30 4686 H 441.371 0.647562 0.372387 0
M  V30 4687 H 444.033 1.92656 0.294876 0
M  V30 4688 H 443.129 2.65766 1.6363 0
M  V30 4689 N 443.43 -0.535701 1.48216 0
M  V30 4690 C 444.67 -1.30238 1.57536 0
M  V30 4691 C 445.034 -1.90479 0.241229 0
M  V30 4692 O 446.235 -2.67983 0.20938 0
M  V30 4693 C 444.506 -2.3669 2.67792 0
M  V30 4694 S 446.065 -3.23159 2.9684 0
M  V30 4695 H 442.883 -0.443093 0.556048 0
M  V30 4696 H 445.485 -0.610937 1.85709 0
M  V30 4697 H 444.189 -1.90905 3.63296 0
M  V30 4698 H 443.72 -3.10548 2.41502 0
M  V30 4699 H 445.735 -4.36647 2.35699 0
M  V30 4700 N 444.908 -1.36708 -0.784132 0
M  V30 4701 C 445.858 -1.2799 -1.88686 0
M  V30 4702 C 446.842 -0.170282 -1.59996 0
M  V30 4703 O 448.034 -0.403571 -1.72338 0
M  V30 4704 C 445.163 -1.07674 -3.25977 0
M  V30 4705 C 444.249 -2.23127 -3.60659 0
M  V30 4706 N 444.64 -3.48467 -3.66612 0
M  V30 4707 C 442.938 -2.15009 -3.90752 0
M  V30 4708 C 443.639 -4.24525 -3.97685 0
M  V30 4709 N 442.615 -3.53524 -4.12943 0
M  V30 4710 H 446.417 -2.22927 -1.91522 0
M  V30 4711 H 443.931 -1.29503 -0.979933 0
M  V30 4712 H 445.928 -0.995151 -4.04849 0
M  V30 4713 H 444.588 -0.13643 -3.24413 0
M  V30 4714 H 445.599 -3.82534 -3.49125 0
M  V30 4715 H 442.276 -1.28963 -3.97083 0
M  V30 4716 H 443.666 -5.32944 -4.0917 0
M  V30 4717 N 446.386 1.0089 -1.21074 0
M  V30 4718 C 447.318 2.09737 -0.924291 0
M  V30 4719 C 448.331 1.62546 0.0909809 0
M  V30 4720 O 449.52 1.77942 -0.141021 0
M  V30 4721 C 446.62 3.36922 -0.36559 0
M  V30 4722 C 445.793 4.13216 -1.43426 0
M  V30 4723 C 444.852 5.18696 -0.885496 0
M  V30 4724 O 443.878 5.47176 -1.56801 0
M  V30 4725 N 445.08 5.79718 0.301227 0
M  V30 4726 H 447.845 2.34895 -1.8613 0
M  V30 4727 H 445.406 1.17341 -1.11546 0
M  V30 4728 H 447.398 4.04697 0.0158407 0
M  V30 4729 H 445.968 3.08952 0.476149 0
M  V30 4730 H 445.188 3.40301 -1.9897 0
M  V30 4731 H 446.476 4.60967 -2.15376 0
M  V30 4732 H 445.874 5.58926 0.872849 0
M  V30 4733 H 444.431 6.48804 0.624211 0
M  V30 4734 N 447.864 1.01787 1.20321 0
M  V30 4735 C 449.094 0.72614 1.93419 0
M  V30 4736 C 449.502 -0.717317 1.75075 0
M  V30 4737 O 448.845 -1.49836 1.06278 0
M  V30 4738 C 448.907 0.983621 3.45782 0
M  V30 4739 C 448.571 2.41645 3.87888 0
M  V30 4740 C 449.568 3.39732 3.93545 0
M  V30 4741 C 447.253 2.75752 4.19841 0
M  V30 4742 C 449.247 4.69988 4.30569 0
M  V30 4743 C 446.934 4.06221 4.56539 0
M  V30 4744 C 447.932 5.0315 4.61876 0
M  V30 4745 O 447.62 6.31284 4.97731 0
M  V30 4746 H 447.352 0.265824 0.621541 0
M  V30 4747 H 449.906 1.3623 1.53722 0
M  V30 4748 H 448.136 0.290301 3.85609 0
M  V30 4749 H 449.825 0.683279 4.00108 0
M  V30 4750 H 450.591 3.14718 3.69022 0
M  V30 4751 H 446.47 2.00993 4.14877 0
M  V30 4752 H 450.014 5.45642 4.3465 0
M  V30 4753 H 445.911 4.31013 4.80518 0
M  V30 4754 H 446.679 6.35591 5.15719 0
M  V30 4755 N 449.342 -1.36122 0.79427 0
M  V30 4756 C 450.588 -1.99406 0.369452 0
M  V30 4757 C 450.921 -1.62886 -1.05743 0
M  V30 4758 O 450.196 -0.886053 -1.73145 0
M  V30 4759 C 450.479 -3.56046 0.538833 0
M  V30 4760 C 450.332 -4.02404 2.00976 0
M  V30 4761 C 451.651 -4.40079 -0.0431359 0
M  V30 4762 H 448.77 -0.724397 0.135712 0
M  V30 4763 H 451.412 -1.61461 1.00151 0
M  V30 4764 H 449.562 -3.885 0.000771004 0
M  V30 4765 H 451.234 -3.80415 2.60926 0
M  V30 4766 H 449.477 -3.53765 2.51063 0
M  V30 4767 H 450.148 -5.11344 2.07922 0
M  V30 4768 H 452.624 -4.14013 0.416228 0
M  V30 4769 H 451.5 -5.48799 0.105374 0
M  V30 4770 H 451.761 -4.27264 -1.13571 0
M  V30 4771 N 450.82 -0.546701 -1.47814 0
M  V30 4772 C 452.069 -0.0166497 -2.01693 0
M  V30 4773 C 452.382 1.33721 -1.42752 0
M  V30 4774 O 453.588 1.95658 -1.8823 0
M  V30 4775 C 452.044 0.0206769 -3.59894 0
M  V30 4776 C 451.652 -1.3293 -4.27824 0
M  V30 4777 C 453.396 0.498674 -4.21561 0
M  V30 4778 C 451.303 -1.25165 -5.78003 0
M  V30 4779 H 450.233 -0.0024541 -0.753996 0
M  V30 4780 H 452.884 -0.692984 -1.69912 0
M  V30 4781 H 451.266 0.76244 -3.88591 0
M  V30 4782 H 452.44 -2.08795 -4.10781 0
M  V30 4783 H 450.755 -1.74438 -3.78101 0
M  V30 4784 H 453.352 0.575 -5.31599 0
M  V30 4785 H 453.695 1.5083 -3.88016 0
M  V30 4786 H 454.228 -0.18791 -3.97356 0
M  V30 4787 H 450.967 -2.23695 -6.1615 0
M  V30 4788 H 450.487 -0.53464 -5.97412 0
M  V30 4789 H 452.166 -0.949299 -6.39998 0
M  V30 4790 N 452.299 1.55045 -0.282633 0
M  V30 4791 C 453.249 2.19514 0.616249 0
M  V30 4792 C 454.233 1.16216 1.11277 0
M  V30 4793 O 455.425 1.42004 1.05659 0
M  V30 4794 C 452.554 2.92548 1.7964 0
M  V30 4795 C 451.64 4.03142 1.31671 0
M  V30 4796 N 452.031 5.0276 0.553695 0
M  V30 4797 C 450.329 4.1635 1.59903 0
M  V30 4798 C 451.03 5.80923 0.30054 0
M  V30 4799 N 450.006 5.3651 0.875116 0
M  V30 4800 H 453.808 2.93889 0.0255363 0
M  V30 4801 H 451.322 1.62169 -0.0865362 0
M  V30 4802 H 453.319 3.37188 2.45173 0
M  V30 4803 H 451.979 2.19685 2.39099 0
M  V30 4804 H 452.99 5.17512 0.20032 0
M  V30 4805 H 449.667 3.54682 2.20243 0
M  V30 4806 H 451.057 6.7118 -0.311053 0
M  V30 4807 N 453.777 0.010035 1.57597 0
M  V30 4808 C 454.725 -0.996272 2.10184 0
M  V30 4809 C 455.719 -1.34942 1.02406 0
M  V30 4810 O 456.925 -1.33389 1.20861 0
M  V30 4811 H 453.3 -0.338982 0.671264 0
M  V30 4812 H 455.271 -0.527272 2.93705 0
M  V30 4813 C 454.02 -2.27599 2.62857 0
M  V30 4814 H 453.343 -2.01295 3.45428 0
M  V30 4815 H 454.783 -2.96265 3.0332 0
M  V30 4816 C 453.242 -2.99269 1.54725 0
M  V30 4817 O 453.772 -3.90644 0.93597 0
M  V30 4818 N 451.978 -2.61269 1.27228 0
M  V30 4819 H 451.525 -1.87043 1.77123 0
M  V30 4820 H 451.483 -3.09534 0.550999 0
M  V30 4821 N 455.255 -1.55392 -0.262866 0
M  V30 4822 C 456.203 -1.8977 -1.345 0
M  V30 4823 C 457.197 -0.775063 -1.50629 0
M  V30 4824 O 458.403 -0.959519 -1.52293 0
M  V30 4825 H 454.778 -0.602467 -0.450041 0
M  V30 4826 H 456.749 -2.80147 -1.02762 0
M  V30 4827 C 455.498 -2.19501 -2.69657 0
M  V30 4828 H 454.821 -3.05378 -2.5804 0
M  V30 4829 H 456.261 -2.47469 -3.44289 0
M  V30 4830 C 454.72 -1.00597 -3.21531 0
M  V30 4831 O 455.25 -0.245768 -4.00947 0
M  V30 4832 N 453.456 -0.800911 -2.79345 0
M  V30 4833 H 453.003 -1.42079 -2.14875 0
M  V30 4834 H 452.961 -0.00697996 -3.14399 0
M  V30 4835 N 456.733 0.527833 -1.48498 0
M  V30 4836 C 457.68 1.6322 -1.6318 0
M  V30 4837 C 458.65 1.59199 -0.473815 0
M  V30 4838 O 459.835 1.77591 -0.697563 0
M  V30 4839 C 456.975 3.01474 -1.67951 0
M  V30 4840 C 456.088 3.15713 -2.94871 0
M  V30 4841 C 455.223 4.44539 -2.90789 0
M  V30 4842 C 454.262 4.52315 -4.12404 0
M  V30 4843 N 453.399 5.72533 -4.06387 0
M  V30 4844 H 458.239 1.50011 -2.57489 0
M  V30 4845 H 455.776 0.730298 -1.27691 0
M  V30 4846 H 457.734 3.81572 -1.68698 0
M  V30 4847 H 456.364 3.1345 -0.771306 0
M  V30 4848 H 455.416 2.28854 -3.03859 0
M  V30 4849 H 456.728 3.1732 -3.8485 0
M  V30 4850 H 455.882 5.3293 -2.89949 0
M  V30 4851 H 454.621 4.45457 -1.98542 0
M  V30 4852 H 453.626 3.62331 -4.13517 0
M  V30 4853 H 454.851 4.53134 -5.05812 0
M  V30 4854 H 452.797 5.74344 -3.16962 0
M  V30 4855 H 452.714 5.75643 -4.90073 0
M  V30 4856 H 453.982 6.63204 -4.0961 0
M  V30 4857 N 458.211 1.37122 0.776871 0
M  V30 4858 C 459.451 1.33441 1.54831 0
M  V30 4859 C 459.815 -0.0818963 1.91825 0
M  V30 4860 O 461.016 -0.24338 2.67696 0
M  V30 4861 C 459.287 2.24267 2.78279 0
M  V30 4862 S 460.846 2.38389 3.68397 0
M  V30 4863 H 457.664 0.473791 0.530135 0
M  V30 4864 H 460.266 1.7282 0.913968 0
M  V30 4865 H 458.97 3.261 2.49173 0
M  V30 4866 H 458.501 1.85953 3.46677 0
M  V30 4867 H 460.516 1.59068 4.70013 0
M  V30 4868 N 459.689 -1.00246 1.21608 0
M  V30 4869 C 460.938 -1.73476 1.02902 0
M  V30 4870 C 461.251 -1.90643 -0.437561 0
M  V30 4871 O 462.457 -2.61105 -0.74407 0
M  V30 4872 C 460.913 -3.12079 1.79261 0
M  V30 4873 C 460.521 -3.02877 3.30106 0
M  V30 4874 C 462.265 -3.89421 1.68972 0
M  V30 4875 C 460.172 -4.36575 3.98944 0
M  V30 4876 H 459.102 -0.650408 0.381425 0
M  V30 4877 H 461.753 -1.11985 1.45367 0
M  V30 4878 H 460.135 -3.74196 1.2959 0
M  V30 4879 H 461.309 -2.49983 3.87098 0
M  V30 4880 H 459.624 -2.39022 3.40965 0
M  V30 4881 H 462.221 -4.88362 2.17731 0
M  V30 4882 H 462.564 -4.1122 0.648397 0
M  V30 4883 H 463.097 -3.33963 2.16133 0
M  V30 4884 H 459.836 -4.19978 5.03288 0
M  V30 4885 H 459.356 -4.8942 3.4674 0
M  V30 4886 H 461.035 -5.05364 4.04 0
M  V30 4887 N 461.167 -1.02423 -1.1978 0
M  V30 4888 C 462.578 -0.748389 -1.71044 0
M  V30 4889 C 462.929 0.732398 -1.82017 0
M  V30 4890 O 462.054 1.57116 -1.48807 0
M  V30 4891 C 462.649 -1.35187 -3.1066 0
M  V30 4892 C 461.208 -1.12472 -3.59203 0
M  V30 4893 C 460.355 -1.45283 -2.36195 0
M  V30 4894 H 463.306 -1.19275 -1.04686 0
M  V30 4895 H 463.327 -0.746408 -3.73107 0
M  V30 4896 H 462.839 -2.4296 -3.02642 0
M  V30 4897 H 460.94 -0.0649983 -3.72543 0
M  V30 4898 H 461.053 -1.81016 -4.43588 0
M  V30 4899 H 459.417 -0.872034 -2.39307 0
M  V30 4900 H 460.2 -2.54129 -2.30811 0
M  V30 4901 N 462.645 1.35699 -0.801477 0
M  V30 4902 C 463.555 2.33661 -0.209691 0
M  V30 4903 C 464.571 1.6162 0.644591 0
M  V30 4904 O 465.747 1.93529 0.557545 0
M  V30 4905 C 462.812 3.40816 0.636033 0
M  V30 4906 C 461.873 4.28639 -0.238147 0
M  V30 4907 C 461.106 5.30676 0.567307 0
M  V30 4908 O 461.329 5.41174 1.8024 0
M  V30 4909 O 460.263 6.01887 -0.0391336 0
M  V30 4910 H 464.089 2.8606 -1.01996 0
M  V30 4911 H 461.674 1.38379 -0.563164 0
M  V30 4912 H 463.556 4.06301 1.11791 0
M  V30 4913 H 462.231 2.90696 1.42399 0
M  V30 4914 H 461.138 3.66152 -0.767044 0
M  V30 4915 H 462.471 4.82143 -0.989915 0
M  V30 4916 N 464.123 0.554532 1.47522 0
M  V30 4917 C 465.363 0.0317994 2.04375 0
M  V30 4918 C 465.727 -1.29242 1.41988 0
M  V30 4919 O 466.928 -1.90269 1.89872 0
M  V30 4920 C 465.199 -0.0623344 3.57346 0
M  V30 4921 S 466.758 -0.531578 4.35568 0
M  V30 4922 H 463.576 0.0238553 0.7106 0
M  V30 4923 H 466.178 0.74066 1.80927 0
M  V30 4924 H 464.882 0.905857 4.00278 0
M  V30 4925 H 464.413 -0.794831 3.85287 0
M  V30 4926 H 466.428 -1.79175 4.62721 0
M  V30 4927 N 465.601 -1.54893 0.290851 0
M  V30 4928 C 467.012 -1.85584 -0.203816 0
M  V30 4929 C 467.363 -1.21285 -1.54222 0
M  V30 4930 O 466.488 -0.506841 -2.10381 0
M  V30 4931 C 467.083 -3.367 -0.376595 0
M  V30 4932 C 465.642 -3.6746 -0.815485 0
M  V30 4933 C 464.789 -2.77178 0.0821087 0
M  V30 4934 H 467.74 -1.50208 0.512175 0
M  V30 4935 H 467.761 -3.60656 -1.21275 0
M  V30 4936 H 467.273 -3.8347 0.59767 0
M  V30 4937 H 465.374 -3.26201 -1.80066 0
M  V30 4938 H 465.487 -4.7478 -0.641905 0
M  V30 4939 H 463.851 -2.50925 -0.436895 0
M  V30 4940 H 464.634 -3.26767 1.05254 0
M  V30 4941 N 467.08 -0.0183926 -1.57589 0
M  V30 4942 C 468.305 0.676634 -1.96052 0
M  V30 4943 C 468.73 1.6548 -0.894307 0
M  V30 4944 O 468.088 1.80712 0.145849 0
M  V30 4945 C 468.136 1.36872 -3.33614 0
M  V30 4946 O 467.24 2.48372 -3.29219 0
M  V30 4947 H 466.581 0.1786 -0.63953 0
M  V30 4948 H 469.111 -0.077056 -2.04455 0
M  V30 4949 H 469.121 1.72797 -3.69601 0
M  V30 4950 H 467.796 0.651636 -4.10763 0
M  V30 4951 H 466.373 2.14639 -3.04934 0
M  V30 4952 N 468.558 1.5553 0.254621 0
M  V30 4953 C 469.806 1.7665 0.981793 0
M  V30 4954 C 470.127 0.580963 1.86145 0
M  V30 4955 O 469.397 -0.403537 1.91699 0
M  V30 4956 H 467.977 0.651475 0.365498 0
M  V30 4957 H 470.639 1.92958 0.274426 0
M  V30 4958 H 469.735 2.67486 1.60802 0
M  V30 4959 N 470.036 -0.519951 1.48776 0
M  V30 4960 C 471.266 -1.29783 1.60748 0
M  V30 4961 C 471.674 -1.87253 0.27072 0
M  V30 4962 O 471.017 -1.67628 -0.751438 0
M  V30 4963 C 471.079 -2.47984 2.60277 0
M  V30 4964 C 470.743 -2.11526 4.051 0
M  V30 4965 C 471.74 -1.66608 4.92481 0
M  V30 4966 C 469.425 -2.21742 4.50706 0
M  V30 4967 C 471.419 -1.32384 6.23501 0
M  V30 4968 C 469.106 -1.87129 5.81744 0
M  V30 4969 C 470.104 -1.42523 6.67964 0
M  V30 4970 O 469.792 -1.0837 7.96562 0
M  V30 4971 H 469.524 -0.400562 0.544542 0
M  V30 4972 H 472.078 -0.632879 1.95407 0
M  V30 4973 H 470.308 -3.17493 2.2076 0
M  V30 4974 H 471.997 -3.10036 2.61978 0
M  V30 4975 H 472.763 -1.58178 4.58481 0
M  V30 4976 H 468.642 -2.55415 3.83776 0
M  V30 4977 H 472.186 -0.974949 6.90754 0
M  V30 4978 H 468.083 -1.95204 6.15277 0
M  V30 4979 H 468.851 -1.21681 8.09405 0
M  V30 4980 N 471.514 -1.37532 -0.769588 0
M  V30 4981 C 472.742 -1.36059 -1.55871 0
M  V30 4982 C 473.157 0.053544 -1.88724 0
M  V30 4983 O 472.514 1.01591 -1.5161 0
M  V30 4984 C 472.565 -2.20107 -2.86767 0
M  V30 4985 O 472.286 -3.56009 -2.55321 0
M  V30 4986 C 473.787 -2.26636 -3.80987 0
M  V30 4987 H 471.007 -0.465967 -0.482821 0
M  V30 4988 H 473.551 -1.80901 -0.953686 0
M  V30 4989 H 471.706 -1.78768 -3.43687 0
M  V30 4990 H 472.12 -4.0009 -3.39158 0
M  V30 4991 H 473.594 -2.89763 -4.69831 0
M  V30 4992 H 474.071 -1.2754 -4.20274 0
M  V30 4993 H 474.677 -2.68296 -3.29996 0
M  V30 4994 N 472.992 0.995999 -1.22138 0
M  V30 4995 C 473.925 2.08302 -0.931952 0
M  V30 4996 C 474.903 1.62127 0.123956 0
M  V30 4997 O 476.087 1.88499 -0.00696004 0
M  V30 4998 C 473.214 3.36317 -0.401068 0
M  V30 4999 C 472.26 4.01413 -1.44117 0
M  V30 5000 S 473.093 4.42664 -3.01345 0
M  V30 5001 C 474.249 5.73853 -2.49887 0
M  V30 5002 H 474.482 2.32532 -1.85246 0
M  V30 5003 H 472.015 1.13005 -1.0521 0
M  V30 5004 H 473.973 4.10375 -0.101352 0
M  V30 5005 H 472.634 3.10123 0.498272 0
M  V30 5006 H 471.827 4.9358 -1.01952 0
M  V30 5007 H 471.429 3.33668 -1.68943 0
M  V30 5008 H 473.721 6.50039 -1.90934 0
M  V30 5009 H 474.664 6.20841 -3.40532 0
M  V30 5010 H 475.072 5.31105 -1.9128 0
M  V30 5011 N 474.47 1.03057 1.19235 0
M  V30 5012 C 475.418 0.606391 2.24557 0
M  V30 5013 C 476.412 -0.361826 1.65491 0
M  V30 5014 O 477.618 -0.23022 1.78522 0
M  V30 5015 H 473.993 0.177838 0.730669 0
M  V30 5016 H 475.964 1.50529 2.5765 0
M  V30 5017 C 474.713 -0.0252127 3.47691 0
M  V30 5018 H 474.036 0.710838 3.9343 0
M  V30 5019 H 475.476 -0.284931 4.23042 0
M  V30 5020 C 473.935 -1.27229 3.11953 0
M  V30 5021 O 474.465 -2.36416 3.24762 0
M  V30 5022 N 472.671 -1.16169 2.6637 0
M  V30 5023 H 472.218 -0.273189 2.56147 0
M  V30 5024 H 472.176 -1.99703 2.42829 0
M  V30 5025 N 475.948 -1.35272 0.808662 0
M  V30 5026 C 477.173 -2.03477 0.401475 0
M  V30 5027 C 477.598 -1.60537 -0.980279 0
M  V30 5028 O 476.956 -0.78304 -1.63518 0
M  V30 5029 C 477.004 -3.57181 0.495354 0
M  V30 5030 O 476.108 -4.09474 -0.490397 0
M  V30 5031 H 475.449 -0.642561 0.167366 0
M  V30 5032 H 477.979 -1.72824 1.09512 0
M  V30 5033 H 477.989 -4.06356 0.365912 0
M  V30 5034 H 476.664 -3.87784 1.5032 0
M  V30 5035 H 475.241 -3.71516 -0.321023 0
M  V30 5036 N 477.426 -0.562348 -1.47226 0
M  V30 5037 C 478.651 -0.0432632 -2.07355 0
M  V30 5038 C 479.076 1.24332 -1.41149 0
M  V30 5039 O 478.434 1.74603 -0.488226 0
M  V30 5040 C 478.482 0.130288 -3.60365 0
M  V30 5041 O 477.586 1.19166 -3.94808 0
M  V30 5042 H 476.927 -0.0536334 -0.66183 0
M  V30 5043 H 479.457 -0.779495 -1.89169 0
M  V30 5044 H 479.467 0.342881 -4.06557 0
M  V30 5045 H 478.142 -0.809389 -4.07948 0
M  V30 5046 H 476.719 0.959153 -3.60354 0
M  V30 5047 N 478.904 1.54736 -0.299062 0
M  V30 5048 C 479.852 2.24897 0.593658 0
M  V30 5049 C 480.846 1.25429 1.13859 0
M  V30 5050 O 482.052 1.43286 1.08945 0
M  V30 5051 H 478.427 0.72207 0.210046 0
M  V30 5052 H 480.398 2.98393 -0.0206421 0
M  V30 5053 C 479.147 3.00159 1.75499 0
M  V30 5054 H 478.47 3.76501 1.34489 0
M  V30 5055 H 479.91 3.52535 2.35574 0
M  V30 5056 C 478.369 2.07015 2.65794 0
M  V30 5057 O 478.899 1.63692 3.66835 0
M  V30 5058 N 477.105 1.73012 2.33485 0
M  V30 5059 H 476.652 2.08439 1.51364 0
M  V30 5060 H 476.61 1.10965 2.94167 0
M  V30 5061 N 480.382 0.0267497 1.57577 0
M  V30 5062 C 481.312 -0.954308 2.13108 0
M  V30 5063 C 482.293 -1.34088 1.04663 0
M  V30 5064 O 483.478 -1.41992 1.32484 0
M  V30 5065 C 480.608 -2.23744 2.65624 0
M  V30 5066 C 479.562 -1.99168 3.78835 0
M  V30 5067 C 478.888 -3.33726 4.17769 0
M  V30 5068 C 480.188 -1.33277 5.0501 0
M  V30 5069 H 481.882 -0.491848 2.95332 0
M  V30 5070 H 479.428 -0.23514 1.42067 0
M  V30 5071 H 481.381 -2.92754 3.03106 0
M  V30 5072 H 480.105 -2.72151 1.80558 0
M  V30 5073 H 478.764 -1.32577 3.41788 0
M  V30 5074 H 478.412 -3.79888 3.29688 0
M  V30 5075 H 478.112 -3.18089 4.94058 0
M  V30 5076 H 479.636 -4.04008 4.57832 0
M  V30 5077 H 481.05 -1.92283 5.40093 0
M  V30 5078 H 479.447 -1.28045 5.8628 0
M  V30 5079 H 480.517 -0.305411 4.83937 0
M  V30 5080 N 481.861 -1.55662 -0.24637 0
M  V30 5081 C 482.791 -1.93377 -1.30873 0
M  V30 5082 C 483.772 -0.798773 -1.50179 0
M  V30 5083 O 484.957 -1.0591 -1.62778 0
M  V30 5084 C 482.087 -2.22893 -2.66338 0
M  V30 5085 C 481.041 -3.38649 -2.61727 0
M  V30 5086 C 480.367 -3.53708 -4.00992 0
M  V30 5087 C 481.667 -4.74323 -2.18666 0
M  V30 5088 H 483.361 -2.82363 -0.995552 0
M  V30 5089 H 480.907 -1.35854 -0.477464 0
M  V30 5090 H 482.86 -2.47866 -3.40794 0
M  V30 5091 H 481.584 -1.30733 -2.99293 0
M  V30 5092 H 480.243 -3.13685 -1.89729 0
M  V30 5093 H 479.891 -2.58967 -4.31214 0
M  V30 5094 H 479.591 -4.31551 -3.98795 0
M  V30 5095 H 481.115 -3.81003 -4.77147 0
M  V30 5096 H 482.529 -4.98665 -2.82854 0
M  V30 5097 H 480.926 -5.55273 -2.27579 0
M  V30 5098 H 481.996 -4.71349 -1.13834 0
M  V30 5099 N 483.339 0.512053 -1.4905 0
M  V30 5100 C 484.579 1.27715 -1.59588 0
M  V30 5101 C 484.943 1.90071 -0.271502 0
M  V30 5102 O 486.144 2.67616 -0.251987 0
M  V30 5103 C 484.415 2.32399 -2.71524 0
M  V30 5104 S 485.974 3.18396 -3.01943 0
M  V30 5105 H 482.792 0.43419 -0.563027 0
M  V30 5106 H 485.394 0.581315 -1.86657 0
M  V30 5107 H 484.098 1.85101 -3.66287 0
M  V30 5108 H 483.629 3.06667 -2.46412 0
M  V30 5109 H 485.644 4.32842 -2.42616 0
M  V30 5110 N 484.817 1.37938 0.762283 0
M  V30 5111 C 486.045 1.36883 1.55147 0
M  V30 5112 C 486.46 -0.0435348 1.8875 0
M  V30 5113 O 485.817 -1.00786 1.52146 0
M  V30 5114 C 485.868 2.21624 2.85596 0
M  V30 5115 O 485.589 3.57358 2.5343 0
M  V30 5116 C 487.09 2.28653 3.7978 0
M  V30 5117 H 484.31 0.468521 0.480343 0
M  V30 5118 H 486.854 1.81404 0.944079 0
M  V30 5119 H 485.009 1.80588 3.42734 0
M  V30 5120 H 485.423 4.01883 3.37032 0
M  V30 5121 H 486.897 2.9225 4.68288 0
M  V30 5122 H 487.374 1.29767 4.19592 0
M  V30 5123 H 487.98 2.70043 3.28568 0
M  V30 5124 N 486.295 -0.989507 1.22664 0
M  V30 5125 C 487.706 -1.54406 1.04955 0
M  V30 5126 C 488.057 -1.92366 -0.385951 0
M  V30 5127 O 487.182 -1.75111 -1.27142 0
M  V30 5128 C 487.777 -2.80578 1.89899 0
M  V30 5129 C 486.336 -3.32464 1.76478 0
M  V30 5130 C 485.483 -2.05524 1.86159 0
M  V30 5131 H 488.434 -0.810211 1.3646 0
M  V30 5132 H 488.455 -3.53075 1.4184 0
M  V30 5133 H 487.967 -2.52918 2.94371 0
M  V30 5134 H 486.068 -3.65024 0.747528 0
M  V30 5135 H 486.181 -4.02838 2.59342 0
M  V30 5136 H 484.545 -2.19241 1.29636 0
M  V30 5137 H 485.328 -1.80258 2.92168 0
M  V30 5138 N 487.773 -1.03688 -1.18687 0
M  V30 5139 C 489.013 -0.746858 -1.90267 0
M  V30 5140 C 489.377 0.712075 -1.78307 0
M  V30 5141 O 490.578 1.11553 -2.44559 0
M  V30 5142 C 488.849 -1.19543 -3.36815 0
M  V30 5143 S 490.408 -1.03047 -4.26529 0
M  V30 5144 H 487.226 -0.271663 -0.657054 0
M  V30 5145 H 489.828 -1.32838 -1.43437 0
M  V30 5146 H 488.532 -2.2527 -3.43047 0
M  V30 5147 H 488.063 -0.607533 -3.88681 0
M  V30 5148 H 490.078 0.0543232 -4.9617 0
M  V30 5149 N 489.251 1.34841 -0.815825 0
M  V30 5150 C 490.181 2.32187 -0.247298 0
M  V30 5151 C 491.162 1.5791 0.632344 0
M  V30 5152 O 492.347 1.8593 0.560698 0
M  V30 5153 C 489.477 3.42122 0.597466 0
M  V30 5154 C 488.431 4.27602 -0.184446 0
M  V30 5155 C 487.757 5.28942 0.782609 0
M  V30 5156 C 489.057 5.03502 -1.38865 0
M  V30 5157 H 490.751 2.79985 -1.06061 0
M  V30 5158 H 488.297 1.34611 -0.511461 0
M  V30 5159 H 490.25 4.09232 1.00533 0
M  V30 5160 H 488.974 2.92956 1.44376 0
M  V30 5161 H 487.633 3.62085 -0.573592 0
M  V30 5162 H 487.281 4.7604 1.62466 0
M  V30 5163 H 486.981 5.87008 0.263695 0
M  V30 5164 H 488.505 5.98922 1.18848 0
M  V30 5165 H 489.919 5.63506 -1.05518 0
M  V30 5166 H 488.316 5.71108 -1.8427 0
M  V30 5167 H 489.386 4.33608 -2.17054 0
M  V30 5168 N 490.729 0.570148 1.46925 0
M  V30 5169 C 491.977 0.0508523 2.02036 0
M  V30 5170 C 492.298 -1.30885 1.44548 0
M  V30 5171 O 491.568 -1.85647 0.625453 0
M  V30 5172 H 490.148 0.0158088 0.746833 0
M  V30 5173 H 492.81 0.743086 1.80178 0
M  V30 5174 H 491.906 -0.027575 3.12088 0
M  V30 5175 N 492.207 -1.54576 0.307264 0
M  V30 5176 C 493.618 -1.8579 -0.184121 0
M  V30 5177 C 493.969 -1.22914 -1.52927 0
M  V30 5178 O 493.094 -0.529126 -2.09831 0
M  V30 5179 C 493.689 -3.37081 -0.340862 0
M  V30 5180 C 492.248 -3.68304 -0.776465 0
M  V30 5181 C 491.395 -2.77076 0.111503 0
M  V30 5182 H 494.346 -1.49656 0.528078 0
M  V30 5183 H 494.367 -3.61922 -1.17443 0
M  V30 5184 H 493.879 -3.82815 0.638309 0
M  V30 5185 H 491.98 -3.28092 -1.76596 0
M  V30 5186 H 492.093 -4.75434 -0.591512 0
M  V30 5187 H 490.457 -2.51374 -0.410256 0
M  V30 5188 H 491.24 -3.25632 1.08714 0
M  V30 5189 N 493.685 -0.035106 -1.57561 0
M  V30 5190 C 494.925 0.646316 -1.93913 0
M  V30 5191 C 495.289 1.68947 -0.912185 0
M  V30 5192 O 496.49 2.42381 -1.1621 0
M  V30 5193 C 494.761 1.24136 -3.35149 0
M  V30 5194 S 496.32 1.94302 -3.93436 0
M  V30 5195 H 493.138 0.212642 -0.678457 0
M  V30 5196 H 495.74 -0.100203 -1.95243 0
M  V30 5197 H 494.444 0.46979 -4.07702 0
M  V30 5198 H 493.975 2.02505 -3.37276 0
M  V30 5199 H 495.99 3.22205 -3.77357 0
M  V30 5200 N 495.163 1.55791 0.238111 0
M  V30 5201 C 496.574 1.68383 0.806472 0
M  V30 5202 C 496.925 0.634157 1.85669 0
M  V30 5203 O 496.05 -0.217913 2.153 0
M  V30 5204 C 496.645 3.05268 1.46959 0
M  V30 5205 C 495.204 3.1977 1.98555 0
M  V30 5206 C 494.351 2.64279 0.839763 0
M  V30 5207 H 497.302 1.58694 0.0137535 0
M  V30 5208 H 497.323 3.00203 2.33792 0
M  V30 5209 H 496.835 3.81643 0.704993 0
M  V30 5210 H 494.936 2.48234 2.77868 0
M  V30 5211 H 495.049 4.26788 2.17689 0
M  V30 5212 H 493.413 2.22329 1.24265 0
M  V30 5213 H 494.196 3.43187 0.0881032 0
M  V30 5214 N 496.642 -0.504142 1.49319 0
M  V30 5215 C 497.589 -1.60603 1.65756 0
M  V30 5216 C 498.559 -1.58425 0.499082 0
M  V30 5217 O 499.744 -1.76459 0.725728 0
M  V30 5218 C 496.884 -2.98764 1.72726 0
M  V30 5219 C 495.997 -3.10982 2.99857 0
M  V30 5220 C 495.132 -4.39857 2.97824 0
M  V30 5221 C 494.171 -4.45697 4.19548 0
M  V30 5222 N 493.308 -5.65995 4.15444 0
M  V30 5223 H 498.148 -1.45895 2.59843 0
M  V30 5224 H 495.685 -0.709891 1.28837 0
M  V30 5225 H 497.643 -3.78839 1.74747 0
M  V30 5226 H 496.273 -3.12183 0.821075 0
M  V30 5227 H 495.325 -2.23991 3.07461 0
M  V30 5228 H 496.637 -3.11157 3.89849 0
M  V30 5229 H 495.791 -5.2825 2.98391 0
M  V30 5230 H 494.53 -4.42242 2.05604 0
M  V30 5231 H 493.535 -3.55707 4.19229 0
M  V30 5232 H 494.76 -4.4503 5.12957 0
M  V30 5233 H 492.706 -5.69229 3.26059 0
M  V30 5234 H 492.623 -5.67773 4.99169 0
M  V30 5235 H 493.891 -6.56604 4.20109 0
M  V30 5236 N 498.12 -1.38341 -0.754957 0
M  V30 5237 C 499.366 -1.34672 -1.51628 0
M  V30 5238 C 499.699 0.0636036 -1.94096 0
M  V30 5239 O 498.974 1.0245 -1.6533 0
M  V30 5240 C 499.257 -2.30116 -2.76981 0
M  V30 5241 C 499.11 -3.80003 -2.4066 0
M  V30 5242 C 500.429 -2.23715 -3.78998 0
M  V30 5243 H 497.548 -0.490517 -0.550056 0
M  V30 5244 H 500.19 -1.69178 -0.864807 0
M  V30 5245 H 498.34 -2.00821 -3.3257 0
M  V30 5246 H 500.012 -4.19966 -1.90856 0
M  V30 5247 H 498.255 -3.97751 -1.73137 0
M  V30 5248 H 498.926 -4.42244 -3.30339 0
M  V30 5249 H 501.402 -2.49574 -3.32945 0
M  V30 5250 H 500.278 -2.9261 -4.64403 0
M  V30 5251 H 500.539 -1.23554 -4.24484 0
M  V30 5252 N 499.598 0.982988 -1.23187 0
M  V30 5253 C 500.838 1.73903 -1.07412 0
M  V30 5254 C 501.202 1.88146 0.382764 0
M  V30 5255 O 502.403 2.6053 0.661638 0
M  V30 5256 C 500.674 3.10105 -1.77678 0
M  V30 5257 S 502.233 4.01323 -1.77441 0
M  V30 5258 H 499.051 0.598093 -0.384456 0
M  V30 5259 H 501.653 1.17456 -1.56283 0
M  V30 5260 H 500.357 2.97388 -2.82822 0
M  V30 5261 H 499.888 3.71622 -1.29077 0
M  V30 5262 H 501.903 4.89189 -0.831162 0
M  V30 5263 N 501.076 1.04316 1.18135 0
M  V30 5264 C 502.026 0.606731 2.19779 0
M  V30 5265 C 503.01 -0.352144 1.56999 0
M  V30 5266 O 504.202 -0.170795 1.76174 0
M  V30 5267 C 501.331 -0.0262443 3.4329 0
M  V30 5268 C 500.417 0.955928 4.13186 0
M  V30 5269 N 500.808 2.12395 4.59045 0
M  V30 5270 C 499.106 0.782473 4.39082 0
M  V30 5271 C 499.807 2.74458 5.12882 0
M  V30 5272 N 498.783 2.02316 5.04548 0
M  V30 5273 H 502.585 1.49679 2.5293 0
M  V30 5274 H 500.099 0.912088 1.34368 0
M  V30 5275 H 502.096 -0.356617 4.15372 0
M  V30 5276 H 500.756 -0.911811 3.11635 0
M  V30 5277 H 501.767 2.50272 4.53414 0
M  V30 5278 H 498.444 -0.0527906 4.17467 0
M  V30 5279 H 499.834 3.73459 5.5855 0
M  V30 5280 N 502.554 -1.34406 0.822964 0
M  V30 5281 C 503.484 -2.32052 0.259608 0
M  V30 5282 C 504.465 -1.58243 -0.623961 0
M  V30 5283 O 505.65 -1.86224 -0.55083 0
M  V30 5284 C 502.78 -3.42434 -0.579314 0
M  V30 5285 C 501.734 -4.27499 0.20712 0
M  V30 5286 C 501.06 -5.29349 -0.754547 0
M  V30 5287 C 502.36 -5.02758 1.41533 0
M  V30 5288 H 504.054 -2.79418 1.07545 0
M  V30 5289 H 501.6 -1.34338 0.518593 0
M  V30 5290 H 503.553 -4.0976 -0.983612 0
M  V30 5291 H 502.277 -2.93717 -1.4282 0
M  V30 5292 H 500.936 -3.61776 0.592787 0
M  V30 5293 H 500.584 -4.76895 -1.59939 0
M  V30 5294 H 500.284 -5.8714 -0.232561 0
M  V30 5295 H 501.808 -5.99544 -1.1567 0
M  V30 5296 H 503.222 -5.62938 1.08504 0
M  V30 5297 H 501.619 -5.70123 1.87296 0
M  V30 5298 H 502.689 -4.32451 2.1935 0
M  V30 5299 N 504.032 -0.577932 -1.46621 0
M  V30 5300 C 504.962 0.145917 -2.33044 0
M  V30 5301 C 505.943 0.888412 -1.45056 0
M  V30 5302 O 507.128 0.864812 -1.73881 0
M  V30 5303 C 504.258 1.16322 -3.27241 0
M  V30 5304 C 503.212 0.535868 -4.24632 0
M  V30 5305 C 502.538 1.65929 -5.08303 0
M  V30 5306 C 503.838 -0.523861 -5.19666 0
M  V30 5307 H 505.532 -0.575636 -2.93814 0
M  V30 5308 H 503.078 -0.278272 -1.41286 0
M  V30 5309 H 505.031 1.67793 -3.86553 0
M  V30 5310 H 503.755 1.91498 -2.64567 0
M  V30 5311 H 502.414 0.0422759 -3.66576 0
M  V30 5312 H 502.062 2.40061 -4.42018 0
M  V30 5313 H 501.762 1.2452 -5.74255 0
M  V30 5314 H 503.286 2.17686 -5.70478 0
M  V30 5315 H 504.7 -0.0944059 -5.73222 0
M  V30 5316 H 503.097 -0.858 -5.93935 0
M  V30 5317 H 504.167 -1.41197 -4.63887 0
M  V30 5318 N 505.51 1.54411 -0.315457 0
M  V30 5319 C 506.42 2.27737 0.56329 0
M  V30 5320 C 507.436 1.31787 1.13614 0
M  V30 5321 O 508.612 1.64791 1.15784 0
M  V30 5322 C 505.677 3.01478 1.71207 0
M  V30 5323 C 504.738 4.12997 1.17185 0
M  V30 5324 C 503.971 4.83212 2.26588 0
M  V30 5325 O 504.194 4.52884 3.46775 0
M  V30 5326 O 503.128 5.70299 1.92463 0
M  V30 5327 H 506.954 3.03683 -0.0319614 0
M  V30 5328 H 504.539 1.49178 -0.0814188 0
M  V30 5329 H 506.421 3.47683 2.38106 0
M  V30 5330 H 505.096 2.28414 2.29366 0
M  V30 5331 H 504.003 3.71159 0.468174 0
M  V30 5332 H 505.336 4.8808 0.635501 0
M  V30 5333 N 506.988 0.0434614 1.5754 0
M  V30 5334 C 508.236 -0.630786 1.92004 0
M  V30 5335 C 508.557 -1.71836 0.921807 0
M  V30 5336 O 507.827 -1.9587 -0.034522 0
M  V30 5337 H 506.407 -0.235988 0.708745 0
M  V30 5338 H 509.069 0.0946462 1.9467 0
M  V30 5339 H 508.165 -1.07434 2.93026 0
M  V30 5340 N 508.466 -1.55915 -0.229846 0
M  V30 5341 C 509.376 -1.94891 -1.30593 0
M  V30 5342 C 510.392 -0.851604 -1.51736 0
M  V30 5343 O 511.568 -1.15447 -1.65027 0
M  V30 5344 C 508.633 -2.25052 -2.63728 0
M  V30 5345 C 507.694 -3.48306 -2.5096 0
M  V30 5346 C 506.927 -3.77019 -3.77747 0
M  V30 5347 O 507.15 -3.07534 -4.80395 0
M  V30 5348 O 506.084 -4.70523 -3.75356 0
M  V30 5349 H 509.91 -2.86581 -1.00525 0
M  V30 5350 H 507.495 -1.43017 -0.432025 0
M  V30 5351 H 509.377 -2.45682 -3.42372 0
M  V30 5352 H 508.052 -1.36538 -2.93495 0
M  V30 5353 H 506.959 -3.32964 -1.70546 0
M  V30 5354 H 508.292 -4.37177 -2.26136 0
M  V30 5355 N 509.944 0.496216 -1.49584 0
M  V30 5356 C 510.891 1.59722 -1.66606 0
M  V30 5357 C 511.861 1.58158 -0.507477 0
M  V30 5358 O 513.046 1.76072 -0.735076 0
M  V30 5359 C 510.186 2.97844 -1.74308 0
M  V30 5360 C 509.299 3.09388 -3.01502 0
M  V30 5361 C 508.434 4.38271 -3.00153 0
M  V30 5362 C 507.473 4.43466 -4.21906 0
M  V30 5363 N 506.61 5.63784 -4.1844 0
M  V30 5364 H 511.45 1.44515 -2.60613 0
M  V30 5365 H 508.987 0.703048 -1.29212 0
M  V30 5366 H 510.945 3.77907 -1.76754 0
M  V30 5367 H 509.575 3.11743 -0.837619 0
M  V30 5368 H 508.627 2.22357 -3.08645 0
M  V30 5369 H 509.939 3.09085 -3.91494 0
M  V30 5370 H 509.093 5.2666 -3.01188 0
M  V30 5371 H 507.832 4.41146 -2.07947 0
M  V30 5372 H 506.837 3.53478 -4.21109 0
M  V30 5373 H 508.062 4.42303 -5.1531 0
M  V30 5374 H 506.008 5.67491 -3.29074 0
M  V30 5375 H 505.925 5.65118 -5.02173 0
M  V30 5376 H 507.193 6.54367 -4.23585 0
M  V30 5377 N 511.423 1.38739 0.74761 0
M  V30 5378 C 512.651 1.38521 1.53686 0
M  V30 5379 C 513.066 -0.0235129 1.88785 0
M  V30 5380 O 512.423 -0.991662 1.53207 0
M  V30 5381 C 512.474 2.24641 2.83229 0
M  V30 5382 O 512.195 3.60026 2.49625 0
M  V30 5383 C 513.696 2.32669 3.77333 0
M  V30 5384 H 510.916 0.473589 0.475347 0
M  V30 5385 H 513.46 1.82395 0.924786 0
M  V30 5386 H 511.615 1.84213 3.40799 0
M  V30 5387 H 512.029 4.05435 3.3275 0
M  V30 5388 H 513.503 2.97201 4.65162 0
M  V30 5389 H 513.98 1.3421 4.18192 0
M  V30 5390 H 514.586 2.73512 3.25685 0
M  V30 5391 N 512.901 -0.976442 1.23707 0
M  V30 5392 C 514.15 -1.71254 1.06559 0
M  V30 5393 C 514.463 -1.91528 -0.397024 0
M  V30 5394 O 515.669 -2.62625 -0.688518 0
M  V30 5395 C 514.125 -3.08207 1.8584 0
M  V30 5396 C 513.733 -2.95806 3.36456 0
M  V30 5397 C 515.477 -3.85749 1.77194 0
M  V30 5398 C 513.384 -4.28015 4.08114 0
M  V30 5399 H 512.314 -0.642171 0.395136 0
M  V30 5400 H 514.965 -1.08877 1.4771 0
M  V30 5401 H 513.347 -3.71363 1.37498 0
M  V30 5402 H 514.521 -2.41716 3.92314 0
M  V30 5403 H 512.836 -2.31736 3.45959 0
M  V30 5404 H 515.433 -4.83633 2.28041 0
M  V30 5405 H 515.776 -4.09752 0.735477 0
M  V30 5406 H 516.309 -3.29303 2.23169 0
M  V30 5407 H 513.048 -4.09208 5.12083 0
M  V30 5408 H 512.568 -4.81955 3.57043 0
M  V30 5409 H 514.247 -4.96681 4.14629 0
M  V30 5410 N 514.379 -1.04941 -1.1758 0
M  V30 5411 C 515.656 -0.671918 -1.83697 0
M  V30 5412 C 516.036 0.847929 -1.93322 0
M  V30 5413 O 515.384 1.75287 -1.46583 0
M  V30 5414 C 515.594 -1.35797 -3.21497 0
M  V30 5415 C 516.942 -1.4944 -3.97433 0
M  V30 5416 O 517.966 -1.31678 -3.30967 0
M  V30 5417 O 516.825 -1.78463 -5.1654 0
M  V30 5418 H 513.919 -0.236212 -0.792548 0
M  V30 5419 H 516.465 -1.14884 -1.24899 0
M  V30 5420 H 515.237 -2.39498 -3.09446 0
M  V30 5421 H 514.86 -0.870236 -3.8796 0
M  V30 5422 N 515.857 1.33968 -0.830081 0
M  V30 5423 C 517.082 2.02813 -0.433796 0
M  V30 5424 C 517.507 1.62076 0.954614 0
M  V30 5425 O 516.865 0.808955 1.62252 0
M  V30 5426 C 516.913 3.56348 -0.552115 0
M  V30 5427 O 516.017 4.10202 0.425191 0
M  V30 5428 H 515.358 0.639817 -0.177567 0
M  V30 5429 H 517.888 1.7106 -1.12248 0
M  V30 5430 H 517.898 4.05722 -0.430513 0
M  V30 5431 H 516.573 3.85344 -1.56471 0
M  V30 5432 H 515.15 3.71979 0.261878 0
M  V30 5433 N 517.335 0.585699 1.46312 0
M  V30 5434 C 518.581 0.0725284 2.0267 0
M  V30 5435 C 518.914 -1.28523 1.45586 0
M  V30 5436 O 518.189 -1.84283 0.622101 0
M  V30 5437 C 518.472 0.0099788 3.60099 0
M  V30 5438 C 518.325 1.39685 4.27561 0
M  V30 5439 C 519.644 -0.689117 4.34671 0
M  V30 5440 H 516.763 0.0278307 0.736474 0
M  V30 5441 H 519.405 0.753472 1.74421 0
M  V30 5442 H 517.555 -0.56992 3.84297 0
M  V30 5443 H 519.227 2.02215 4.14617 0
M  V30 5444 H 517.47 1.96374 3.86807 0
M  V30 5445 H 518.141 1.30553 5.36339 0
M  V30 5446 H 520.617 -0.196446 4.15636 0
M  V30 5447 H 519.493 -0.701921 5.44393 0
M  V30 5448 H 519.754 -1.75101 4.05946 0
M  V30 5449 N 518.813 -1.54241 0.323641 0
M  V30 5450 C 520.041 -2.04985 -0.280871 0
M  V30 5451 C 520.456 -1.19978 -1.45777 0
M  V30 5452 O 519.813 -0.230471 -1.81039 0
M  V30 5453 C 519.864 -3.54353 -0.715258 0
M  V30 5454 O 519.585 -4.36132 0.414817 0
M  V30 5455 C 521.086 -4.21189 -1.38257 0
M  V30 5456 H 518.306 -0.66851 -0.0577502 0
M  V30 5457 H 520.85 -1.99029 0.469852 0
M  V30 5458 H 519.005 -3.60596 -1.41596 0
M  V30 5459 H 519.419 -5.2445 0.0725227 0
M  V30 5460 H 520.893 -5.27154 -1.63745 0
M  V30 5461 H 521.37 -3.72307 -2.32989 0
M  V30 5462 H 521.976 -4.19085 -0.724447 0
M  V30 5463 N 520.291 -0.0518155 -1.57515 0
M  V30 5464 C 521.516 0.634896 -1.97443 0
M  V30 5465 C 521.941 1.63546 -0.929207 0
M  V30 5466 O 521.299 1.80981 0.107484 0
M  V30 5467 C 521.347 1.29765 -3.36442 0
M  V30 5468 O 520.451 2.41333 -3.34413 0
M  V30 5469 H 519.792 0.164994 -0.643174 0
M  V30 5470 H 522.322 -0.120407 -2.04245 0
M  V30 5471 H 522.332 1.64918 -3.73184 0
M  V30 5472 H 521.007 0.564361 -4.12053 0
M  V30 5473 H 519.584 2.08122 -3.09418 0
M  V30 5474 N 521.769 1.56035 0.221574 0
M  V30 5475 C 522.732 1.91584 1.2581 0
M  V30 5476 C 523.732 0.794425 1.39805 0
M  V30 5477 O 524.922 1.06217 1.38071 0
M  V30 5478 C 522.054 2.16663 2.63192 0
M  V30 5479 H 523.247 2.8429 0.954935 0
M  V30 5480 H 520.8 1.49316 0.461988 0
M  V30 5481 H 521.535 1.26508 2.98607 0
M  V30 5482 H 521.32 2.98358 2.5441 0
M  V30 5483 H 522.81 2.45262 3.37988 0
M  V30 5484 N 523.247 -0.488276 1.49845 0
M  V30 5485 C 524.179 -1.60539 1.63584 0
M  V30 5486 C 525.192 -1.5434 0.517972 0
M  V30 5487 O 526.381 -1.60041 0.790516 0
M  V30 5488 C 523.481 -2.99374 1.58835 0
M  V30 5489 C 522.654 -3.30624 2.86368 0
M  V30 5490 C 521.713 -4.4893 2.74496 0
M  V30 5491 O 520.739 -4.50085 3.48443 0
M  V30 5492 N 521.941 -5.49591 1.86894 0
M  V30 5493 H 524.706 -1.49176 2.59936 0
M  V30 5494 H 522.267 -0.67639 1.47094 0
M  V30 5495 H 524.259 -3.76459 1.48529 0
M  V30 5496 H 522.829 -3.04595 0.702892 0
M  V30 5497 H 522.049 -2.42314 3.1093 0
M  V30 5498 H 523.337 -3.48305 3.70892 0
M  V30 5499 H 522.735 -5.51467 1.26097 0
M  V30 5500 H 521.292 -6.25728 1.82503 0
M  V30 5501 N 524.725 -1.39134 -0.740242 0
M  V30 5502 C 525.635 -1.39697 -1.88473 0
M  V30 5503 C 526.651 -0.292403 -1.71526 0
M  V30 5504 O 527.827 -0.533021 -1.94219 0
M  V30 5505 C 524.892 -1.23382 -3.24003 0
M  V30 5506 C 523.953 -2.43763 -3.53381 0
M  V30 5507 C 523.186 -2.28216 -4.82445 0
M  V30 5508 O 523.409 -1.28288 -5.55786 0
M  V30 5509 O 522.343 -3.1709 -5.11603 0
M  V30 5510 H 526.169 -2.36159 -1.90952 0
M  V30 5511 H 523.754 -1.20194 -0.887346 0
M  V30 5512 H 525.636 -1.16395 -4.05006 0
M  V30 5513 H 524.311 -0.300121 -3.22306 0
M  V30 5514 H 523.218 -2.56325 -2.72485 0
M  V30 5515 H 524.551 -3.35808 -3.59852 0
M  V30 5516 N 526.204 0.969867 -1.24223 0
M  V30 5517 C 527.134 2.08191 -1.05729 0
M  V30 5518 C 528.115 1.70075 0.0290765 0
M  V30 5519 O 529.3 1.93712 -0.137583 0
M  V30 5520 C 526.43 3.40991 -0.658995 0
M  V30 5521 C 525.384 3.93054 -1.69389 0
M  V30 5522 C 524.71 5.22171 -1.15072 0
M  V30 5523 C 526.01 4.21137 -3.08935 0
M  V30 5524 H 527.704 2.23921 -1.98746 0
M  V30 5525 H 525.25 1.07602 -0.956967 0
M  V30 5526 H 527.203 4.18221 -0.51662 0
M  V30 5527 H 525.927 3.25155 0.30686 0
M  V30 5528 H 524.586 3.17977 -1.82444 0
M  V30 5529 H 524.234 5.02694 -0.175539 0
M  V30 5530 H 523.934 5.57973 -1.84229 0
M  V30 5531 H 525.458 6.02013 -1.02042 0
M  V30 5532 H 526.872 4.8908 -2.99121 0
M  V30 5533 H 525.269 4.68163 -3.75425 0
M  V30 5534 H 526.339 3.27996 -3.57137 0
M  V30 5535 N 527.682 1.05563 1.17022 0
M  V30 5536 C 529.098 0.777684 1.39371 0
M  V30 5537 C 529.298 -0.626269 1.91521 0
M  V30 5538 O 528.354 -1.38806 2.10924 0
M  V30 5539 C 529.667 1.83642 2.3811 0
M  V30 5540 C 531.215 1.85907 2.51809 0
M  V30 5541 C 531.69 2.90813 3.53824 0
M  V30 5542 N 533.181 2.898 3.61345 0
M  V30 5543 C 533.916 3.6762 4.40049 0
M  V30 5544 N 533.412 4.55237 5.22237 0
M  V30 5545 N 535.205 3.56044 4.34959 0
M  V30 5546 H 527.356 1.9614 0.815047 0
M  V30 5547 H 529.619 0.849527 0.420722 0
M  V30 5548 H 529.325 2.84425 2.06871 0
M  V30 5549 H 529.199 1.6812 3.37662 0
M  V30 5550 H 531.586 0.857865 2.82356 0
M  V30 5551 H 531.667 2.05506 1.52318 0
M  V30 5552 H 531.311 3.91122 3.24015 0
M  V30 5553 H 531.241 2.68465 4.53028 0
M  V30 5554 H 533.732 2.26274 3.02669 0
M  V30 5555 H 534.045 5.11291 5.79484 0
M  V30 5556 H 532.39 4.59296 5.21605 0
M  V30 5557 H 535.581 2.86986 3.69806 0
M  V30 5558 H 535.754 4.16938 4.96051 0
M  V30 5559 N 529.16 -1.33526 0.837174 0
M  V30 5560 C 530.408 -1.97446 0.431211 0
M  V30 5561 C 530.729 -1.6665 -1.01255 0
M  V30 5562 O 529.999 -0.964559 -1.70508 0
M  V30 5563 H 528.579 -0.73043 0.156463 0
M  V30 5564 H 531.241 -1.62918 1.06976 0
M  V30 5565 H 530.337 -3.07001 0.561877 0
M  V30 5566 N 530.638 -0.59345 -1.46 0
M  V30 5567 C 531.878 -0.0859747 -2.04219 0
M  V30 5568 C 532.242 1.25432 -1.45364 0
M  V30 5569 O 533.443 1.85168 -1.9485 0
M  V30 5570 C 531.714 -0.0324314 -3.57385 0
M  V30 5571 S 533.273 0.415908 -4.36824 0
M  V30 5572 H 530.091 -0.0426872 -0.709717 0
M  V30 5573 H 532.693 -0.788369 -1.78899 0
M  V30 5574 H 531.397 -1.01166 -3.97735 0
M  V30 5575 H 530.928 0.6924 -3.87259 0
M  V30 5576 H 532.943 1.66844 -4.67309 0
M  V30 5577 N 532.116 1.54067 -0.331816 0
M  V30 5578 C 533.344 2.05131 0.269996 0
M  V30 5579 C 533.759 1.20749 1.45138 0
M  V30 5580 O 533.116 0.240069 1.80914 0
M  V30 5581 C 533.167 3.54728 0.696456 0
M  V30 5582 O 532.888 4.35906 -0.43794 0
M  V30 5583 C 534.389 4.21916 1.36021 0
M  V30 5584 H 531.609 0.668807 0.0542042 0
M  V30 5585 H 534.153 1.98777 -0.4804 0
M  V30 5586 H 532.308 3.61342 1.39681 0
M  V30 5587 H 532.722 5.24404 -0.100334 0
M  V30 5588 H 534.196 5.28015 1.60947 0
M  V30 5589 H 534.673 3.73538 2.31011 0
M  V30 5590 H 535.279 4.19463 0.702212 0
M  V30 5591 N 533.594 0.0601682 1.57485 0
M  V30 5592 C 534.84 -0.612501 1.93329 0
M  V30 5593 C 535.173 -1.6996 0.939526 0
M  V30 5594 O 534.448 -1.94472 -0.0330957 0
M  V30 5595 C 534.731 -1.20025 3.39508 0
M  V30 5596 C 534.584 -0.12059 4.49638 0
M  V30 5597 C 535.903 -2.10923 3.86264 0
M  V30 5598 H 533.022 -0.221185 0.703027 0
M  V30 5599 H 535.664 0.123768 1.89596 0
M  V30 5600 H 533.814 -1.82774 3.42821 0
M  V30 5601 H 535.486 0.51185 4.58452 0
M  V30 5602 H 533.729 0.550251 4.30296 0
M  V30 5603 H 534.4 -0.572019 5.49028 0
M  V30 5604 H 536.876 -1.58124 3.84884 0
M  V30 5605 H 535.752 -2.48987 4.8918 0
M  V30 5606 H 536.013 -3.01292 3.23536 0
M  V30 5607 N 535.072 -1.5615 -0.213296 0
M  V30 5608 C 536.321 -1.78743 -0.93455 0
M  V30 5609 C 536.634 -0.630199 -1.8517 0
M  V30 5610 O 537.84 -0.739966 -2.61222 0
M  V30 5611 C 536.296 -3.16571 -1.71203 0
M  V30 5612 C 535.904 -4.40043 -0.840617 0
M  V30 5613 C 537.648 -3.48485 -2.42401 0
M  V30 5614 C 535.555 -5.68895 -1.61592 0
M  V30 5615 H 534.485 -0.666426 -0.352692 0
M  V30 5616 H 537.136 -1.82532 -0.188227 0
M  V30 5617 H 535.518 -3.06981 -2.50157 0
M  V30 5618 H 536.692 -4.6071 -0.0910326 0
M  V30 5619 H 535.007 -4.15706 -0.240365 0
M  V30 5620 H 537.604 -4.41983 -3.00924 0
M  V30 5621 H 537.947 -2.71371 -3.15695 0
M  V30 5622 H 538.48 -3.59442 -1.7043 0
M  V30 5623 H 535.219 -6.48925 -0.926106 0
M  V30 5624 H 534.739 -5.52275 -2.33991 0
M  V30 5625 H 536.418 -6.09365 -2.17447 0
M  V30 5626 N 536.55 0.480323 -1.50102 0
M  V30 5627 C 537.498 1.60024 -1.68805 0
M  V30 5628 C 538.492 1.60089 -0.553888 0
M  V30 5629 O 539.698 1.64349 -0.734127 0
M  V30 5630 H 536.073 0.530841 -0.532646 0
M  V30 5631 H 538.044 1.41408 -2.62767 0
M  V30 5632 C 536.793 2.98029 -1.79092 0
M  V30 5633 H 536.116 2.98694 -2.65748 0
M  V30 5634 H 537.556 3.75871 -1.96206 0
M  V30 5635 C 536.015 3.32538 -0.540388 0
M  V30 5636 O 536.545 4.00386 0.324637 0
M  V30 5637 N 534.751 2.87873 -0.397154 0
M  V30 5638 H 534.298 2.32834 -1.1021 0
M  V30 5639 H 534.256 3.11328 0.438425 0
M  V30 5640 N 538.028 1.39524 0.732853 0
M  V30 5641 C 539.276 1.36594 1.48951 0
M  V30 5642 C 539.597 -0.0367507 1.94965 0
M  V30 5643 O 538.867 -0.988391 1.69138 0
M  V30 5644 H 537.447 0.502673 0.552566 0
M  V30 5645 H 540.109 1.74411 0.869869 0
M  V30 5646 H 539.205 2.03 2.3706 0
M  V30 5647 N 539.506 -0.963266 1.24736 0
M  V30 5648 C 540.731 -1.74699 1.11781 0
M  V30 5649 C 541.156 -1.85267 -0.325258 0
M  V30 5650 O 540.514 -1.32681 -1.23553 0
M  V30 5651 C 540.562 -3.14322 1.76731 0
M  V30 5652 O 539.666 -3.99043 1.04109 0
M  V30 5653 H 539.007 -0.53684 0.390767 0
M  V30 5654 H 541.537 -1.20801 1.65131 0
M  V30 5655 H 541.547 -3.64824 1.82668 0
M  V30 5656 H 540.222 -3.05946 2.81726 0
M  V30 5657 H 538.799 -3.5752 1.05991 0
M  V30 5658 N 540.985 -1.06182 -1.16461 0
M  V30 5659 C 541.915 -0.692861 -2.22984 0
M  V30 5660 C 542.896 0.314122 -1.67174 0
M  V30 5661 O 544.081 0.189499 -1.93273 0
M  V30 5662 C 541.211 -0.07732 -3.47214 0
M  V30 5663 C 540.165 -1.01015 -4.15909 0
M  V30 5664 C 539.491 -0.257973 -5.34077 0
M  V30 5665 C 540.791 -2.33868 -4.67015 0
M  V30 5666 H 542.485 -1.58343 -2.54102 0
M  V30 5667 H 540.031 -0.76279 -1.22137 0
M  V30 5668 H 541.984 0.19266 -4.20959 0
M  V30 5669 H 540.708 0.848254 -3.15392 0
M  V30 5670 H 539.367 -1.26486 -3.44088 0
M  V30 5671 H 539.015 0.670684 -4.98509 0
M  V30 5672 H 538.715 -0.879638 -5.80979 0
M  V30 5673 H 540.239 0.00448788 -6.106 0
M  V30 5674 H 541.653 -2.1279 -5.32347 0
M  V30 5675 H 540.05 -2.91522 -5.24533 0
M  V30 5676 H 541.12 -2.97019 -3.83286 0
M  V30 5677 N 542.463 1.3308 -0.844243 0
M  V30 5678 C 543.712 1.96868 -0.438833 0
M  V30 5679 C 544.025 1.67599 1.00846 0
M  V30 5680 O 545.231 2.25043 1.51881 0
M  V30 5681 C 543.687 3.5234 -0.73377 0
M  V30 5682 C 543.295 3.90481 -2.1961 0
M  V30 5683 C 545.039 4.22653 -0.395574 0
M  V30 5684 C 542.946 5.38954 -2.43481 0
M  V30 5685 H 541.876 0.736749 -0.160364 0
M  V30 5686 H 544.527 1.51623 -1.03358 0
M  V30 5687 H 542.909 3.95941 -0.068589 0
M  V30 5688 H 544.083 3.57922 -2.90221 0
M  V30 5689 H 542.398 3.33165 -2.4978 0
M  V30 5690 H 544.995 5.31848 -0.551477 0
M  V30 5691 H 545.338 4.11004 0.661921 0
M  V30 5692 H 545.871 3.84601 -1.01621 0
M  V30 5693 H 542.61 5.55612 -3.47816 0
M  V30 5694 H 542.13 5.72954 -1.77437 0
M  V30 5695 H 543.809 6.05907 -2.26905 0
M  V30 5696 N 543.941 0.601185 1.45683 0
M  V30 5697 C 545.19 0.0914953 2.01492 0
M  V30 5698 C 545.503 -1.28331 1.47616 0
M  V30 5699 O 546.709 -1.88537 1.95362 0
M  V30 5700 C 545.165 0.11291 3.59723 0
M  V30 5701 C 544.773 1.48717 4.22596 0
M  V30 5702 C 546.517 -0.341871 4.23121 0
M  V30 5703 C 544.424 1.46531 5.7296 0
M  V30 5704 H 543.354 0.0304365 0.753385 0
M  V30 5705 H 546.005 0.755568 1.67223 0
M  V30 5706 H 544.387 -0.617692 3.91153 0
M  V30 5707 H 545.561 2.23897 4.02749 0
M  V30 5708 H 543.876 1.88351 3.71366 0
M  V30 5709 H 546.473 -0.377304 5.33367 0
M  V30 5710 H 546.816 -1.36325 3.93346 0
M  V30 5711 H 547.349 0.335256 3.96385 0
M  V30 5712 H 544.088 2.46408 6.07423 0
M  V30 5713 H 543.608 0.755997 5.95017 0
M  V30 5714 H 545.287 1.18618 6.36034 0
M  V30 5715 N 545.419 -1.53889 0.339982 0
M  V30 5716 C 546.367 -2.26391 -0.533822 0
M  V30 5717 C 547.361 -1.28404 -1.10493 0
M  V30 5718 O 548.567 -1.46124 -1.05108 0
M  V30 5719 H 544.942 -0.727385 -0.190828 0
M  V30 5720 H 546.913 -2.98233 0.0997484 0
M  V30 5721 C 545.662 -3.04707 -1.67479 0
M  V30 5722 H 544.985 -3.79934 -1.2446 0
M  V30 5723 H 546.425 -3.58657 -2.26144 0
M  V30 5724 C 544.884 -2.13989 -2.60212 0
M  V30 5725 O 545.414 -1.73361 -3.62366 0
M  V30 5726 N 543.62 -1.79141 -2.28816 0
M  V30 5727 H 543.167 -2.12378 -1.45785 0
M  V30 5728 H 543.125 -1.18725 -2.91121 0
M  V30 5729 N 546.897 -0.0685191 -1.57451 0
M  V30 5730 C 548.146 0.600898 -1.92541 0
M  V30 5731 C 548.459 1.70967 -0.950239 0
M  V30 5732 O 549.665 2.43844 -1.19384 0
M  V30 5733 C 548.121 1.12019 -3.42023 0
M  V30 5734 C 547.729 0.0426028 -4.4798 0
M  V30 5735 C 549.473 1.76386 -3.86119 0
M  V30 5736 C 547.38 0.575759 -5.88591 0
M  V30 5737 H 546.31 0.228225 -0.71863 0
M  V30 5738 H 548.961 -0.140223 -1.82963 0
M  V30 5739 H 547.343 1.91418 -3.46663 0
M  V30 5740 H 548.517 -0.73182 -4.54952 0
M  V30 5741 H 546.832 -0.504642 -4.13331 0
M  V30 5742 H 549.429 2.17302 -4.88553 0
M  V30 5743 H 549.772 2.62255 -3.23308 0
M  V30 5744 H 550.305 1.03615 -3.84069 0
M  V30 5745 H 547.044 -0.245691 -6.55039 0
M  V30 5746 H 546.564 1.31778 -5.85145 0
M  V30 5747 H 548.243 1.0532 -6.3837 0
M  V30 5748 N 548.375 1.56261 0.205012 0
M  V30 5749 C 549.791 1.49623 0.555433 0
M  V30 5750 C 549.991 0.766719 1.86343 0
M  V30 5751 O 549.047 0.313158 2.50551 0
M  V30 5752 C 550.36 2.94253 0.619347 0
M  V30 5753 C 551.908 3.04868 0.708855 0
M  V30 5754 C 552.383 4.50888 0.803969 0
M  V30 5755 N 553.874 4.54999 0.867758 0
M  V30 5756 C 554.609 5.65284 0.96135 0
M  V30 5757 N 554.105 6.85282 1.01786 0
M  V30 5758 N 555.898 5.53174 0.997771 0
M  V30 5759 H 548.049 2.0211 -0.653094 0
M  V30 5760 H 550.312 0.919333 -0.231366 0
M  V30 5761 H 550.018 3.50643 -0.272458 0
M  V30 5762 H 549.892 3.47063 1.47741 0
M  V30 5763 H 552.279 2.48532 1.5911 0
M  V30 5764 H 552.36 2.55199 -0.175205 0
M  V30 5765 H 552.004 5.07846 -0.0738798 0
M  V30 5766 H 551.934 4.98279 1.70369 0
M  V30 5767 H 554.425 3.68588 0.833735 0
M  V30 5768 H 554.738 7.65081 1.08951 0
M  V30 5769 H 553.083 6.8796 0.986706 0
M  V30 5770 H 556.274 4.5835 0.950392 0
M  V30 5771 H 556.447 6.39151 1.06725 0
M  V30 5772 N 549.853 -0.472356 1.50355 0
M  V30 5773 C 551.101 -1.22211 1.60962 0
M  V30 5774 C 551.422 -1.92497 0.311439 0
M  V30 5775 O 550.692 -1.8405 -0.671002 0
M  V30 5776 H 549.272 -0.454092 0.593135 0
M  V30 5777 H 551.934 -0.544977 1.87126 0
M  V30 5778 H 551.03 -1.9707 2.42012 0
M  V30 5779 N 551.331 -1.39911 -0.725443 0
M  V30 5780 C 552.579 -1.37382 -1.48224 0
M  V30 5781 C 552.9 0.0264107 -1.94982 0
M  V30 5782 O 552.17 0.979408 -1.6966 0
M  V30 5783 H 550.75 -0.505596 -0.549892 0
M  V30 5784 H 553.412 -1.7487 -0.860608 0
M  V30 5785 H 552.508 -2.04254 -2.3598 0
M  V30 5786 N 552.809 0.956637 -1.25245 0
M  V30 5787 C 553.757 2.0743 -1.0524 0
M  V30 5788 C 554.751 1.69392 0.0160725 0
M  V30 5789 O 555.957 1.7946 -0.139382 0
M  V30 5790 H 552.332 0.678921 -0.323373 0
M  V30 5791 H 554.303 2.2146 -1.99995 0
M  V30 5792 C 553.052 3.40872 -0.685702 0
M  V30 5793 H 552.375 3.70607 -1.49968 0
M  V30 5794 H 553.815 4.19939 -0.585415 0
M  V30 5795 C 552.274 3.31367 0.608082 0
M  V30 5796 O 552.804 3.66214 1.65076 0
M  V30 5797 N 551.01 2.84486 0.592955 0
M  V30 5798 H 550.557 2.56326 -0.25592 0
M  V30 5799 H 550.515 2.78509 1.45877 0
M  V30 5800 N 554.287 1.06798 1.15896 0
M  V30 5801 C 555.235 0.677525 2.22514 0
M  V30 5802 C 556.229 -0.308994 1.66558 0
M  V30 5803 O 557.435 -0.173308 1.79164 0
M  V30 5804 H 553.81 0.200994 0.724642 0
M  V30 5805 H 555.781 1.5865 2.52731 0
M  V30 5806 C 554.53 0.0854153 3.47595 0
M  V30 5807 H 553.853 0.835645 3.90969 0
M  V30 5808 H 555.293 -0.150199 4.23734 0
M  V30 5809 C 553.752 -1.1724 3.15843 0
M  V30 5810 O 554.282 -2.25965 3.32119 0
M  V30 5811 N 552.488 -1.07636 2.69931 0
M  V30 5812 H 552.035 -0.191559 2.56887 0
M  V30 5813 H 551.993 -1.91876 2.4906 0
M  V30 5814 N 555.766 -1.3263 0.851289 0
M  V30 5815 C 556.696 -2.31449 0.308771 0
M  V30 5816 C 557.677 -1.59531 -0.590255 0
M  V30 5817 O 558.862 -1.87351 -0.511205 0
M  V30 5818 C 555.992 -3.43586 -0.506548 0
M  V30 5819 C 554.946 -4.26963 0.297753 0
M  V30 5820 C 554.272 -5.30831 -0.642094 0
M  V30 5821 C 555.572 -4.99643 1.52166 0
M  V30 5822 H 557.266 -2.77074 1.13447 0
M  V30 5823 H 554.812 -1.33207 0.546971 0
M  V30 5824 H 556.765 -4.11754 -0.896474 0
M  V30 5825 H 555.489 -2.96681 -1.36558 0
M  V30 5826 H 554.148 -3.60437 0.669391 0
M  V30 5827 H 553.796 -4.8018 -1.49788 0
M  V30 5828 H 553.496 -5.87501 -0.107968 0
M  V30 5829 H 555.02 -6.01862 -1.02927 0
M  V30 5830 H 556.434 -5.6051 1.20421 0
M  V30 5831 H 554.831 -5.66022 1.99347 0
M  V30 5832 H 555.901 -4.27701 2.28474 0
M  V30 5833 N 557.244 -0.608902 -1.45362 0
M  V30 5834 C 558.207 0.0992563 -2.28985 0
M  V30 5835 C 559.207 0.793841 -1.39838 0
M  V30 5836 O 560.397 0.641804 -1.61946 0
M  V30 5837 C 557.529 1.15073 -3.20891 0
M  V30 5838 H 558.722 -0.635964 -2.93079 0
M  V30 5839 H 556.275 -0.368007 -1.51906 0
M  V30 5840 H 557.01 1.91667 -2.616 0
M  V30 5841 H 556.795 0.656867 -3.86559 0
M  V30 5842 H 558.285 1.64665 -3.83765 0
M  V30 5843 N 558.722 1.53707 -0.348139 0
M  V30 5844 C 559.685 2.23812 0.494058 0
M  V30 5845 C 560.685 1.23989 1.02388 0
M  V30 5846 O 561.875 1.48395 0.912396 0
M  V30 5847 C 559.007 2.96133 1.68872 0
M  V30 5848 H 560.2 2.99663 -0.119141 0
M  V30 5849 H 557.753 1.55983 -0.0995539 0
M  V30 5850 H 558.488 2.24481 2.34049 0
M  V30 5851 H 558.273 3.69357 1.31596 0
M  V30 5852 H 559.763 3.49475 2.28597 0
M  V30 5853 N 560.2 0.0768682 1.57412 0
M  V30 5854 C 561.11 -0.903207 2.16516 0
M  V30 5855 C 562.126 -1.32341 1.12968 0
M  V30 5856 O 563.302 -1.39507 1.45258 0
M  V30 5857 C 560.367 -2.1508 2.71922 0
M  V30 5858 C 559.428 -1.78653 3.90361 0
M  V30 5859 C 558.661 -2.97465 4.43114 0
M  V30 5860 O 558.884 -4.11638 3.94854 0
M  V30 5861 O 557.818 -2.76987 5.3438 0
M  V30 5862 H 561.644 -0.430427 3.00634 0
M  V30 5863 H 559.229 -0.146485 1.4868 0
M  V30 5864 H 561.111 -2.8823 3.07411 0
M  V30 5865 H 559.786 -2.61446 1.9086 0
M  V30 5866 H 558.693 -1.0274 3.59716 0
M  V30 5867 H 560.026 -1.37066 4.7273 0
M  V30 5868 N 561.678 -1.56367 -0.196722 0
M  V30 5869 C 562.608 -1.97442 -1.24655 0
M  V30 5870 C 563.589 -0.846147 -1.47561 0
M  V30 5871 O 564.774 -1.11035 -1.59326 0
M  V30 5872 C 561.904 -2.31253 -2.59112 0
M  V30 5873 C 560.858 -3.46804 -2.50821 0
M  V30 5874 C 560.184 -3.66286 -3.89536 0
M  V30 5875 C 561.484 -4.8104 -2.03465 0
M  V30 5876 H 563.178 -2.85388 -0.905216 0
M  V30 5877 H 560.724 -1.37304 -0.434002 0
M  V30 5878 H 562.677 -2.58583 -3.32736 0
M  V30 5879 H 561.401 -1.40188 -2.94983 0
M  V30 5880 H 560.06 -3.19563 -1.79653 0
M  V30 5881 H 559.708 -2.72555 -4.22756 0
M  V30 5882 H 559.408 -4.4402 -3.84864 0
M  V30 5883 H 560.932 -3.9599 -4.64784 0
M  V30 5884 H 562.346 -5.07411 -2.66846 0
M  V30 5885 H 560.743 -5.62232 -2.09798 0
M  V30 5886 H 561.813 -4.74732 -0.98781 0
M  V30 5887 N 563.156 0.464375 -1.50603 0
M  V30 5888 C 564.066 1.58723 -1.72754 0
M  V30 5889 C 565.082 1.62925 -0.610844 0
M  V30 5890 O 566.258 1.8067 -0.889963 0
M  V30 5891 C 563.323 2.94897 -1.82309 0
M  V30 5892 C 562.384 3.0103 -3.06071 0
M  V30 5893 C 561.617 4.30708 -3.1516 0
M  V30 5894 O 561.84 5.2159 -2.30868 0
M  V30 5895 O 560.774 4.42571 -4.0794 0
M  V30 5896 H 564.6 1.42954 -2.67951 0
M  V30 5897 H 562.185 0.644579 -1.3478 0
M  V30 5898 H 564.067 3.75764 -1.90735 0
M  V30 5899 H 562.742 3.10851 -0.902967 0
M  V30 5900 H 561.649 2.19217 -3.03142 0
M  V30 5901 H 562.982 2.90014 -3.97684 0
M  V30 5902 N 564.634 1.40294 0.718013 0
M  V30 5903 C 565.597 1.4012 1.81381 0
M  V30 5904 C 566.597 0.295405 1.58063 0
M  V30 5905 O 567.787 0.554187 1.6515 0
M  V30 5906 C 564.919 1.19056 3.19435 0
M  V30 5907 H 566.112 2.37645 1.82933 0
M  V30 5908 H 563.665 1.26107 0.923405 0
M  V30 5909 H 564.4 0.222809 3.23534 0
M  V30 5910 H 564.185 1.99152 3.37758 0
M  V30 5911 H 565.675 1.21716 3.99468 0
M  V30 5912 N 566.112 -0.949982 1.2575 0
M  V30 5913 C 567.06 -2.06869 1.06339 0
M  V30 5914 C 568.054 -1.69399 -0.00708901 0
M  V30 5915 O 569.26 -1.79383 0.148897 0
M  V30 5916 H 565.635 -0.677197 0.326969 0
M  V30 5917 H 567.606 -2.20396 2.01167 0
M  V30 5918 C 566.355 -3.40503 0.703769 0
M  V30 5919 H 565.678 -3.69807 1.51931 0
M  V30 5920 H 567.118 -4.19623 0.607677 0
M  V30 5921 C 565.577 -3.31685 -0.5905 0
M  V30 5922 O 566.107 -3.67085 -1.63131 0
M  V30 5923 N 564.313 -2.84797 -0.577859 0
M  V30 5924 H 563.86 -2.56186 0.26951 0
M  V30 5925 H 563.818 -2.79279 -1.44398 0
M  V30 5926 N 567.59 -1.07411 -1.15328 0
M  V30 5927 C 568.52 -0.716472 -2.22236 0
M  V30 5928 C 569.501 0.296373 -1.67498 0
M  V30 5929 O 570.686 0.168989 -1.93463 0
M  V30 5930 C 567.816 -0.114142 -3.47112 0
M  V30 5931 C 566.77 -1.05421 -4.14814 0
M  V30 5932 C 566.096 -0.314604 -5.33774 0
M  V30 5933 C 567.396 -2.38808 -4.64508 0
M  V30 5934 H 569.09 -1.61029 -2.52408 0
M  V30 5935 H 566.636 -0.775702 -1.21321 0
M  V30 5936 H 568.589 0.148001 -4.2114 0
M  V30 5937 H 567.313 0.814755 -3.16274 0
M  V30 5938 H 565.972 -1.30128 -3.42728 0
M  V30 5939 H 565.62 0.617772 -4.99192 0
M  V30 5940 H 565.32 -0.941209 -5.80013 0
M  V30 5941 H 566.844 -0.0602747 -6.1057 0
M  V30 5942 H 568.258 -2.18424 -5.3006 0
M  V30 5943 H 566.655 -2.97069 -5.21412 0
M  V30 5944 H 567.725 -3.01067 -3.80114 0
M  V30 5945 N 569.068 1.32177 -0.85831 0
M  V30 5946 C 570.316 1.96735 -0.462568 0
M  V30 5947 C 570.637 1.6824 0.985911 0
M  V30 5948 O 569.907 0.991564 1.68952 0
M  V30 5949 H 568.487 0.727849 -0.168064 0
M  V30 5950 H 571.149 1.61195 -1.09554 0
M  V30 5951 H 570.245 3.06068 -0.610647 0
M  V30 5952 N 570.547 0.616602 1.45037 0
M  V30 5953 C 571.477 -0.0840787 2.33349 0
M  V30 5954 C 572.458 -0.849641 1.4736 0
M  V30 5955 O 573.643 -0.818407 1.76113 0
M  V30 5956 C 570.773 -1.07604 3.3021 0
M  V30 5957 C 569.727 -0.423096 4.25904 0
M  V30 5958 C 569.053 -1.52394 5.12523 0
M  V30 5959 C 570.353 0.661457 5.18095 0
M  V30 5960 H 572.047 0.653333 2.92185 0
M  V30 5961 H 569.593 0.315634 1.40498 0
M  V30 5962 H 571.546 -1.57485 3.90866 0
M  V30 5963 H 570.27 -1.84416 2.69552 0
M  V30 5964 H 568.929 0.05493 3.66559 0
M  V30 5965 H 568.577 -2.28257 4.48227 0
M  V30 5966 H 568.277 -1.09251 5.77354 0
M  V30 5967 H 569.801 -2.02485 5.76049 0
M  V30 5968 H 571.215 0.246353 5.7277 0
M  V30 5969 H 569.612 1.01517 5.91451 0
M  V30 5970 H 570.682 1.53446 4.59981 0
M  V30 5971 N 572.025 -1.5352 0.356285 0
M  V30 5972 C 573.274 -2.00298 -0.237373 0
M  V30 5973 C 573.587 -1.24784 -1.50627 0
M  V30 5974 O 574.793 -1.62103 -2.17795 0
M  V30 5975 C 573.249 -3.56771 -0.473545 0
M  V30 5976 C 572.857 -4.41154 0.780183 0
M  V30 5977 C 574.601 -4.1193 -1.02537 0
M  V30 5978 C 572.508 -5.89161 0.514108 0
M  V30 5979 H 571.438 -0.748307 -0.092478 0
M  V30 5980 H 574.089 -1.77283 0.473588 0
M  V30 5981 H 572.471 -3.75902 -1.24553 0
M  V30 5982 H 573.645 -4.33797 1.55425 0
M  V30 5983 H 571.96 -3.97052 1.25455 0
M  V30 5984 H 574.557 -5.20133 -1.2396 0
M  V30 5985 H 574.9 -3.65943 -1.98473 0
M  V30 5986 H 575.433 -3.96561 -0.313775 0
M  V30 5987 H 572.172 -6.39408 1.44355 0
M  V30 5988 H 571.692 -5.9939 -0.221632 0
M  V30 5989 H 573.371 -6.46857 0.136122 0
M  V30 5990 N 573.503 -0.0852151 -1.57369 0
M  V30 5991 C 574.413 0.891712 -2.16992 0
M  V30 5992 C 575.429 1.3174 -1.13669 0
M  V30 5993 O 576.605 1.38735 -1.45995 0
M  V30 5994 C 573.67 2.13635 -2.73059 0
M  V30 5995 C 572.731 1.7658 -3.91303 0
M  V30 5996 C 571.964 2.95111 -4.44686 0
M  V30 5997 O 572.187 4.09539 -3.97032 0
M  V30 5998 O 571.121 2.74149 -5.35841 0
M  V30 5999 H 574.947 0.414477 -3.00858 0
M  V30 6000 H 572.532 0.138598 -1.48756 0
M  V30 6001 H 574.414 2.86595 -3.08935 0
M  V30 6002 H 573.089 2.6043 -1.92244 0
M  V30 6003 H 571.996 1.00831 -3.60255 0
M  V30 6004 H 573.329 1.34557 -4.7345 0
M  V30 6005 N 574.981 1.5647 0.188427 0
M  V30 6006 C 575.891 1.98285 1.2538 0
M  V30 6007 C 576.907 0.891535 1.49424 0
M  V30 6008 O 578.083 1.19782 1.61908 0
M  V30 6009 C 575.148 2.31965 2.57669 0
M  V30 6010 C 574.209 3.54838 2.41638 0
M  V30 6011 C 573.442 3.86901 3.67618 0
M  V30 6012 O 573.665 3.20163 4.72072 0
M  V30 6013 O 572.599 4.80309 3.62749 0
M  V30 6014 H 576.425 2.89145 0.928912 0
M  V30 6015 H 574.01 1.44112 0.393955 0
M  V30 6016 H 575.892 2.54673 3.35737 0
M  V30 6017 H 574.567 1.44271 2.89771 0
M  V30 6018 H 573.474 3.37369 1.61658 0
M  V30 6019 H 574.807 4.43019 2.14465 0
M  V30 6020 N 576.459 -0.456382 1.50847 0
M  V30 6021 C 577.708 -1.2042 1.61808 0
M  V30 6022 C 578.021 -1.9278 0.330932 0
M  V30 6023 O 579.227 -2.69612 0.319643 0
M  V30 6024 C 577.683 -2.18891 2.85683 0
M  V30 6025 C 577.291 -1.52267 4.2133 0
M  V30 6026 C 579.035 -2.94224 3.05994 0
M  V30 6027 C 576.942 -2.4911 5.36375 0
M  V30 6028 H 575.872 -0.453177 0.602616 0
M  V30 6029 H 578.523 -0.473144 1.77295 0
M  V30 6030 H 576.905 -2.95351 2.63787 0
M  V30 6031 H 578.079 -0.814949 4.53536 0
M  V30 6032 H 576.394 -0.891594 4.06743 0
M  V30 6033 H 578.991 -3.66732 3.89117 0
M  V30 6034 H 579.334 -3.54469 2.18306 0
M  V30 6035 H 579.867 -2.24874 3.28141 0
M  V30 6036 H 576.606 -1.93582 6.26264 0
M  V30 6037 H 576.126 -3.17991 5.08569 0
M  V30 6038 H 577.805 -3.10637 5.67551 0
M  V30 6039 N 577.937 -1.40673 -0.710563 0
M  V30 6040 C 579.162 -1.42741 -1.50465 0
M  V30 6041 C 579.587 -0.0302116 -1.88076 0
M  V30 6042 O 578.945 0.962945 -1.53613 0
M  V30 6043 C 578.993 -2.32873 -2.75322 0
M  V30 6044 O 578.097 -1.77544 -3.72226 0
M  V30 6045 H 577.438 -0.485056 -0.45345 0
M  V30 6046 H 579.968 -1.84961 -0.874681 0
M  V30 6047 H 579.978 -2.48233 -3.23797 0
M  V30 6048 H 578.653 -3.34401 -2.47283 0
M  V30 6049 H 577.23 -1.71556 -3.31093 0
M  V30 6050 N 579.415 0.9433 -1.26252 0
M  V30 6051 C 580.663 1.68592 -1.11451 0
M  V30 6052 C 580.984 1.91957 0.343123 0
M  V30 6053 O 580.254 1.51475 1.24226 0
M  V30 6054 H 578.834 0.624789 -0.409448 0
M  V30 6055 H 581.496 1.13351 -1.58548 0
M  V30 6056 H 580.592 2.66054 -1.63162 0
M  V30 6057 N 580.893 1.08022 1.14757 0
M  V30 6058 C 582.123 0.827646 1.89298 0
M  V30 6059 C 582.531 -0.623506 1.78631 0
M  V30 6060 O 581.874 -1.43991 1.14071 0
M  V30 6061 C 581.936 1.16553 3.40082 0
M  V30 6062 C 581.6 2.61866 3.74533 0
M  V30 6063 C 582.597 3.60116 3.74984 0
M  V30 6064 C 580.282 2.97619 4.04633 0
M  V30 6065 C 582.276 4.92151 4.05051 0
M  V30 6066 C 579.963 4.2985 4.34364 0
M  V30 6067 C 580.961 5.26926 4.34555 0
M  V30 6068 O 580.649 6.5678 4.63568 0
M  V30 6069 H 580.381 0.298396 0.606577 0
M  V30 6070 H 582.935 1.44187 1.46285 0
M  V30 6071 H 581.165 0.494296 3.83528 0
M  V30 6072 H 582.854 0.894407 3.95923 0
M  V30 6073 H 583.62 3.33837 3.51821 0
M  V30 6074 H 579.499 2.22702 4.03639 0
M  V30 6075 H 583.043 5.67915 4.05115 0
M  V30 6076 H 578.94 4.55879 4.56995 0
M  V30 6077 H 579.708 6.62035 4.81303 0
M  V30 6078 N 582.371 -1.3172 0.865308 0
M  V30 6079 C 583.301 -2.31109 0.333302 0
M  V30 6080 C 584.282 -1.60148 -0.573301 0
M  V30 6081 O 585.467 -1.87882 -0.491305 0
M  V30 6082 C 582.597 -3.44104 -0.470078 0
M  V30 6083 C 581.551 -4.26623 0.343021 0
M  V30 6084 C 580.877 -5.31482 -0.585756 0
M  V30 6085 C 582.177 -4.98001 1.57456 0
M  V30 6086 H 583.871 -2.75855 1.1638 0
M  V30 6087 H 581.417 -1.3262 0.561069 0
M  V30 6088 H 583.37 -4.12682 -0.852752 0
M  V30 6089 H 582.094 -2.98112 -1.33404 0
M  V30 6090 H 580.753 -3.59707 0.707583 0
M  V30 6091 H 580.401 -4.81741 -1.44686 0
M  V30 6092 H 580.101 -5.87582 -0.0456494 0
M  V30 6093 H 581.625 -6.0292 -0.965375 0
M  V30 6094 H 583.039 -5.59201 1.26359 0
M  V30 6095 H 581.436 -5.63876 2.05339 0
M  V30 6096 H 582.506 -4.25253 2.32997 0
M  V30 6097 N 583.85 -0.624285 -1.44708 0
M  V30 6098 C 584.797 0.0847135 -2.30644 0
M  V30 6099 C 585.767 0.843575 -1.43084 0
M  V30 6100 O 586.952 0.825982 -1.71995 0
M  V30 6101 C 584.091 1.06495 -3.28257 0
M  V30 6102 C 583.205 0.305224 -4.3092 0
M  V30 6103 C 582.34 1.27667 -5.1563 0
M  V30 6104 C 581.379 0.505706 -6.10007 0
M  V30 6105 N 580.516 1.42727 -6.8744 0
M  V30 6106 H 585.356 -0.654068 -2.90733 0
M  V30 6107 H 582.893 -0.334334 -1.4325 0
M  V30 6108 H 584.851 1.64658 -3.83332 0
M  V30 6109 H 583.481 1.77094 -2.69884 0
M  V30 6110 H 582.533 -0.392207 -3.78373 0
M  V30 6111 H 583.845 -0.295553 -4.97924 0
M  V30 6112 H 582.999 1.92984 -5.75189 0
M  V30 6113 H 581.738 1.91137 -4.48685 0
M  V30 6114 H 580.743 -0.160999 -5.49564 0
M  V30 6115 H 581.968 -0.124183 -6.78986 0
M  V30 6116 H 579.913 2.04931 -6.23169 0
M  V30 6117 H 579.831 0.880345 -7.50857 0
M  V30 6118 H 581.099 2.0695 -7.51526 0
M  V30 6119 N 585.328 1.53329 -0.364422 0
M  V30 6120 C 586.577 2.00421 0.226747 0
M  V30 6121 C 586.89 1.25581 1.49963 0
M  V30 6122 O 588.096 1.63256 2.16933 0
M  V30 6123 C 586.552 3.57017 0.454618 0
M  V30 6124 C 586.16 4.40734 -0.803568 0
M  V30 6125 C 587.904 4.12468 1.00351 0
M  V30 6126 C 585.811 5.8888 -0.545345 0
M  V30 6127 H 584.741 0.748787 0.0885082 0
M  V30 6128 H 587.392 1.7703 -0.482983 0
M  V30 6129 H 585.774 3.76558 1.22558 0
M  V30 6130 H 586.948 4.32967 -1.57723 0
M  V30 6131 H 585.263 3.96381 -1.27559 0
M  V30 6132 H 587.86 5.20783 1.212 0
M  V30 6133 H 588.203 3.6699 1.9653 0
M  V30 6134 H 588.736 3.96721 0.29274 0
M  V30 6135 H 585.475 6.38633 -1.47743 0
M  V30 6136 H 584.995 5.99499 0.189842 0
M  V30 6137 H 586.674 6.46776 -0.170425 0
M  V30 6138 N 586.806 0.0935595 1.57322 0
M  V30 6139 C 588.222 -0.263091 1.57417 0
M  V30 6140 C 588.422 -1.68526 1.1046 0
M  V30 6141 O 587.478 -2.40139 0.780357 0
M  V30 6142 C 588.791 -0.0529201 3.00653 0
M  V30 6143 C 590.339 -0.120788 3.12767 0
M  V30 6144 C 590.814 0.0613707 4.57959 0
M  V30 6145 N 592.305 0.00648534 4.632 0
M  V30 6146 C 593.04 0.122699 5.73269 0
M  V30 6147 N 592.536 0.29366 6.92177 0
M  V30 6148 N 594.329 0.0640787 5.62063 0
M  V30 6149 H 586.48 1.02277 1.86154 0
M  V30 6150 H 588.743 0.4007 0.859153 0
M  V30 6151 H 588.449 0.929279 3.39201 0
M  V30 6152 H 588.323 -0.795899 3.68708 0
M  V30 6153 H 590.71 -1.09349 2.74093 0
M  V30 6154 H 590.791 0.653656 2.47307 0
M  V30 6155 H 590.435 1.03093 4.97327 0
M  V30 6156 H 590.365 -0.732748 5.21477 0
M  V30 6157 H 592.856 -0.123173 3.77699 0
M  V30 6158 H 593.169 0.37389 7.71895 0
M  V30 6159 H 591.514 0.329307 6.94219 0
M  V30 6160 H 594.705 -0.0683396 4.6805 0
M  V30 6161 H 594.878 0.158097 6.47807 0
M  V30 6162 N 588.284 -1.56567 -0.180126 0
M  V30 6163 C 589.7 -1.50488 -0.531559 0
M  V30 6164 C 589.9 -0.796267 -1.851 0
M  V30 6165 O 588.956 -0.352978 -2.50021 0
M  V30 6166 C 590.269 -2.95201 -0.572456 0
M  V30 6167 C 591.817 -3.05957 -0.660264 0
M  V30 6168 C 592.292 -4.5211 -0.732135 0
M  V30 6169 N 593.783 -4.56322 -0.795262 0
M  V30 6170 C 594.518 -5.66742 -0.871296 0
M  V30 6171 N 594.014 -6.86815 -0.908708 0
M  V30 6172 N 595.807 -5.54691 -0.909639 0
M  V30 6173 H 587.958 -2.01045 0.685165 0
M  V30 6174 H 590.221 -0.915536 0.245962 0
M  V30 6175 H 589.927 -3.50165 0.328208 0
M  V30 6176 H 589.801 -3.49369 -1.422 0
M  V30 6177 H 592.188 -2.51032 -1.55136 0
M  V30 6178 H 592.269 -2.54888 0.215783 0
M  V30 6179 H 591.913 -5.07664 0.154664 0
M  V30 6180 H 591.843 -5.00926 -1.6242 0
M  V30 6181 H 594.334 -3.69868 -0.77499 0
M  V30 6182 H 594.647 -7.66718 -0.967654 0
M  V30 6183 H 592.992 -6.89443 -0.877132 0
M  V30 6184 H 596.183 -4.59804 -0.877353 0
M  V30 6185 H 596.356 -6.40768 -0.965434 0
M  V30 6186 N 589.762 0.448376 -1.51087 0
M  V30 6187 C 590.987 1.22605 -1.6728 0
M  V30 6188 C 591.412 1.84524 -0.365045 0
M  V30 6189 O 590.77 1.6832 0.673642 0
M  V30 6190 C 590.818 2.29393 -2.78229 0
M  V30 6191 O 589.922 3.34608 -2.41063 0
M  V30 6192 H 589.263 0.359705 -0.558129 0
M  V30 6193 H 591.793 0.530903 -1.97592 0
M  V30 6194 H 591.803 2.74352 -3.01986 0
M  V30 6195 H 590.478 1.83701 -3.73131 0
M  V30 6196 H 589.055 2.95202 -2.27838 0
M  V30 6197 N 591.24 1.41047 0.703093 0
M  V30 6198 C 592.47 1.43133 1.48985 0
M  V30 6199 C 592.878 0.0328537 1.89171 0
M  V30 6200 O 592.221 -0.956469 1.56835 0
M  V30 6201 C 592.283 2.26991 2.78775 0
M  V30 6202 C 591.947 3.7525 2.60837 0
M  V30 6203 C 592.944 4.67591 2.27276 0
M  V30 6204 C 590.629 4.19208 2.76712 0
M  V30 6205 C 592.623 6.01877 2.09817 0
M  V30 6206 C 590.31 5.53561 2.5887 0
M  V30 6207 C 591.308 6.4471 2.25472 0
M  V30 6208 O 590.996 7.76584 2.07778 0
M  V30 6209 H 590.728 0.489788 0.465922 0
M  V30 6210 H 593.282 1.85886 0.873822 0
M  V30 6211 H 591.512 1.79038 3.42757 0
M  V30 6212 H 593.201 2.20867 3.40547 0
M  V30 6213 H 593.967 4.34923 2.14633 0
M  V30 6214 H 589.846 3.48572 3.01693 0
M  V30 6215 H 593.39 6.72986 1.83671 0
M  V30 6216 H 589.287 5.85811 2.71102 0
M  V30 6217 H 590.055 7.87649 2.22601 0
M  V30 6218 N 592.718 -0.936591 1.26751 0
M  V30 6219 C 593.681 -2.01752 1.08761 0
M  V30 6220 C 594.681 -1.60763 0.0344435 0
M  V30 6221 O 595.871 -1.71963 0.278258 0
M  V30 6222 C 593.003 -3.34543 0.655271 0
M  V30 6223 H 594.196 -2.19143 2.04735 0
M  V30 6224 H 591.749 -1.11618 1.09413 0
M  V30 6225 H 592.484 -3.22851 -0.30626 0
M  V30 6226 H 592.269 -3.65647 1.41578 0
M  V30 6227 H 593.759 -4.13944 0.551378 0
M  V30 6228 N 594.196 -1.08629 -1.14182 0
M  V30 6229 C 595.126 -0.740003 -2.21464 0
M  V30 6230 C 596.107 0.278591 -1.67803 0
M  V30 6231 O 597.292 0.148461 -1.93632 0
M  V30 6232 C 594.422 -0.150952 -3.46972 0
M  V30 6233 C 593.376 -1.09815 -4.13672 0
M  V30 6234 C 592.702 -0.3712 -5.3341 0
M  V30 6235 C 594.002 -2.43722 -4.61949 0
M  V30 6236 H 595.696 -1.63697 -2.50686 0
M  V30 6237 H 593.242 -0.788526 -1.20492 0
M  V30 6238 H 595.195 0.103325 -4.21273 0
M  V30 6239 H 593.919 0.781164 -3.1712 0
M  V30 6240 H 592.578 -1.33756 -3.41328 0
M  V30 6241 H 592.226 0.564792 -4.99819 0
M  V30 6242 H 591.926 -1.00267 -5.78982 0
M  V30 6243 H 593.45 -0.12503 -6.10472 0
M  V30 6244 H 594.864 -2.24034 -5.27714 0
M  V30 6245 H 593.261 -3.02582 -5.18232 0
M  V30 6246 H 594.331 -3.05082 -3.76899 0
M  V30 6247 N 595.674 1.31259 -0.872281 0
M  V30 6248 C 596.92 1.96913 -0.485083 0
M  V30 6249 C 597.253 1.68774 0.960667 0
M  V30 6250 O 596.528 0.985495 1.67685 0
M  V30 6251 C 596.811 3.52299 -0.745502 0
M  V30 6252 C 596.664 3.90002 -2.24095 0
M  V30 6253 C 597.983 4.39582 -0.213516 0
M  V30 6254 H 595.102 0.715252 -0.177716 0
M  V30 6255 H 597.744 1.55347 -1.09395 0
M  V30 6256 H 595.894 3.87835 -0.227276 0
M  V30 6257 H 597.566 3.64555 -2.82661 0
M  V30 6258 H 595.809 3.38526 -2.71261 0
M  V30 6259 H 596.48 4.98352 -2.37381 0
M  V30 6260 H 598.956 4.10882 -0.656902 0
M  V30 6261 H 597.832 5.47251 -0.42516 0
M  V30 6262 H 598.093 4.33158 0.884666 0
M  V30 6263 N 597.152 0.631951 1.44375 0
M  V30 6264 C 598.377 0.142146 2.06912 0
M  V30 6265 C 598.802 -1.17456 1.4692 0
M  V30 6266 O 598.16 -1.72074 0.570975 0
M  V30 6267 C 598.208 0.0417952 3.60576 0
M  V30 6268 O 597.312 -1.00194 4.00044 0
M  V30 6269 H 596.653 0.0851491 0.658518 0
M  V30 6270 H 599.183 0.868863 1.85235 0
M  V30 6271 H 599.193 -0.148517 4.0773 0
M  V30 6272 H 597.868 1.0031 4.03622 0
M  V30 6273 H 596.445 -0.786131 3.64519 0
M  V30 6274 N 598.631 -1.53133 0.372548 0
M  V30 6275 C 599.561 -2.28876 -0.462412 0
M  V30 6276 C 600.542 -1.31583 -1.07796 0
M  V30 6277 O 601.727 -1.60461 -1.09389 0
M  V30 6278 C 598.857 -3.08317 -1.59868 0
M  V30 6279 C 597.811 -4.13355 -1.11003 0
M  V30 6280 C 597.137 -4.8092 -2.33708 0
M  V30 6281 C 598.437 -5.21955 -0.18983 0
M  V30 6282 H 600.131 -2.9892 0.169511 0
M  V30 6283 H 597.677 -1.43761 0.0829658 0
M  V30 6284 H 599.63 -3.60055 -2.18949 0
M  V30 6285 H 598.354 -2.35976 -2.25794 0
M  V30 6286 H 597.013 -3.62573 -0.541869 0
M  V30 6287 H 596.661 -4.05144 -2.98106 0
M  V30 6288 H 596.361 -5.51904 -2.01682 0
M  V30 6289 H 597.885 -5.35455 -2.93462 0
M  V30 6290 H 599.299 -5.69153 -0.688319 0
M  V30 6291 H 597.696 -6.00087 0.0398887 0
M  V30 6292 H 598.766 -4.78811 0.766057 0
M  V30 6293 N 600.109 -0.101901 -1.5727 0
M  V30 6294 C 601.334 0.571759 -1.99363 0
M  V30 6295 C 601.759 1.60507 -0.980768 0
M  V30 6296 O 601.117 1.81231 0.0498517 0
M  V30 6297 C 601.165 1.18996 -3.404 0
M  V30 6298 O 600.269 2.30572 -3.41922 0
M  V30 6299 H 599.61 0.144449 -0.648098 0
M  V30 6300 H 602.14 -0.185325 -2.03759 0
M  V30 6301 H 602.15 1.52962 -3.78241 0
M  V30 6302 H 600.825 0.432984 -4.1364 0
M  V30 6303 H 599.402 1.98173 -3.15883 0
M  V30 6304 N 601.587 1.56661 0.17182 0
M  V30 6305 C 602.834 1.81965 0.888529 0
M  V30 6306 C 603.162 0.6789 1.82267 0
M  V30 6307 O 602.417 -0.333875 1.92831 0
M  V30 6308 C 602.716 3.13435 1.71736 0
M  V30 6309 C 602.382 4.41159 0.932184 0
M  V30 6310 C 601.044 4.75851 0.715481 0
M  V30 6311 C 603.396 5.19803 0.381387 0
M  V30 6312 C 600.724 5.86666 -0.063126 0
M  V30 6313 C 603.076 6.31433 -0.384129 0
M  V30 6314 C 601.74 6.64692 -0.611637 0
M  V30 6315 H 601.01 0.665859 0.325136 0
M  V30 6316 H 603.657 1.90884 0.153495 0
M  V30 6317 H 601.962 2.99857 2.52177 0
M  V30 6318 H 603.659 3.30224 2.27493 0
M  V30 6319 H 600.249 4.13947 1.11112 0
M  V30 6320 H 604.433 4.93396 0.536148 0
M  V30 6321 H 599.689 6.10892 -0.249136 0
M  V30 6322 H 603.863 6.91577 -0.818185 0
M  V30 6323 H 601.49 7.50398 -1.21684 0
M  V30 6324 N 603.065 -0.440357 1.51323 0
M  V30 6325 C 604.312 -1.19004 1.63842 0
M  V30 6326 C 604.64 -1.91266 0.35321 0
M  V30 6327 O 603.895 -1.84143 -0.662565 0
M  V30 6328 C 604.194 -2.2339 2.78984 0
M  V30 6329 C 603.86 -1.68162 4.18369 0
M  V30 6330 C 602.522 -1.52823 4.56288 0
M  V30 6331 C 604.874 -1.27524 5.05358 0
M  V30 6332 C 602.202 -0.953157 5.78906 0
M  V30 6333 C 604.554 -0.714474 6.28552 0
M  V30 6334 C 603.218 -0.547961 6.65247 0
M  V30 6335 H 602.488 -0.435468 0.59954 0
M  V30 6336 H 605.135 -0.481538 1.85347 0
M  V30 6337 H 603.44 -3.00267 2.51688 0
M  V30 6338 H 605.137 -2.81211 2.85869 0
M  V30 6339 H 601.727 -1.81077 3.8847 0
M  V30 6340 H 605.911 -1.38197 4.76671 0
M  V30 6341 H 601.167 -0.811882 6.05986 0
M  V30 6342 H 605.341 -0.391059 6.95301 0
M  V30 6343 H 602.968 -0.100222 7.60134 0
M  V30 6344 N 604.543 -1.41418 -0.695603 0
M  V30 6345 C 605.959 -1.23887 -1.00619 0
M  V30 6346 C 606.159 -0.128206 -2.01092 0
M  V30 6347 O 605.215 0.507408 -2.47349 0
M  V30 6348 C 606.528 -2.58816 -1.53083 0
M  V30 6349 C 608.076 -2.65998 -1.64967 0
M  V30 6350 C 608.551 -4.01244 -2.20833 0
M  V30 6351 N 610.042 -4.0309 -2.28194 0
M  V30 6352 C 610.777 -5.04539 -2.72448 0
M  V30 6353 N 610.273 -6.16378 -3.16306 0
M  V30 6354 N 612.066 -4.91901 -2.72011 0
M  V30 6355 H 604.217 -2.12379 -0.0300061 0
M  V30 6356 H 606.48 -0.944958 -0.0758797 0
M  V30 6357 H 606.186 -3.40842 -0.867147 0
M  V30 6358 H 606.06 -2.81299 -2.51298 0
M  V30 6359 H 608.447 -1.84331 -2.30448 0
M  V30 6360 H 608.528 -2.47325 -0.652982 0
M  V30 6361 H 608.172 -4.83359 -1.55968 0
M  V30 6362 H 608.102 -4.17257 -3.21254 0
M  V30 6363 H 610.593 -3.22341 -1.97242 0
M  V30 6364 H 610.906 -6.89658 -3.487 0
M  V30 6365 H 609.251 -6.19914 -3.14215 0
M  V30 6366 H 612.442 -4.03613 -2.37095 0
M  V30 6367 H 612.615 -5.71102 -3.06181 0
M  V30 6368 N 606.021 0.929856 -1.27246 0
M  V30 6369 C 606.968 2.03017 -1.09785 0
M  V30 6370 C 607.938 1.661 0.000456744 0
M  V30 6371 O 609.123 1.90116 -0.161462 0
M  V30 6372 C 606.263 3.36878 -0.748816 0
M  V30 6373 C 605.376 3.86763 -1.92453 0
M  V30 6374 C 604.511 5.09061 -1.51758 0
M  V30 6375 C 603.55 5.51237 -2.66091 0
M  V30 6376 N 602.687 6.64732 -2.25999 0
M  V30 6377 H 607.527 2.17285 -2.03939 0
M  V30 6378 H 605.064 1.06448 -1.01524 0
M  V30 6379 H 607.022 4.13855 -0.527283 0
M  V30 6380 H 605.652 3.22424 0.155771 0
M  V30 6381 H 604.704 3.06086 -2.25867 0
M  V30 6382 H 606.016 4.13994 -2.78227 0
M  V30 6383 H 605.17 5.93532 -1.25716 0
M  V30 6384 H 603.909 4.83602 -0.630896 0
M  V30 6385 H 602.914 4.65316 -2.92849 0
M  V30 6386 H 604.139 5.78692 -3.55377 0
M  V30 6387 H 602.085 6.40935 -1.3978 0
M  V30 6388 H 602.002 6.91607 -3.05313 0
M  V30 6389 H 603.27 7.52549 -2.03199 0
M  V30 6390 N 607.499 1.09233 1.13605 0
M  V30 6391 C 608.429 0.751738 2.21068 0
M  V30 6392 C 609.41 -0.269688 1.67948 0
M  V30 6393 O 610.595 -0.13819 1.93708 0
M  V30 6394 C 607.725 0.16935 3.46887 0
M  V30 6395 C 606.679 1.12007 4.13084 0
M  V30 6396 C 606.005 0.399483 5.33206 0
M  V30 6397 C 607.305 2.46168 4.6065 0
M  V30 6398 H 608.999 1.65024 2.49815 0
M  V30 6399 H 606.545 0.794905 1.20072 0
M  V30 6400 H 608.498 -0.0809824 4.21322 0
M  V30 6401 H 607.222 -0.764335 3.1753 0
M  V30 6402 H 605.881 1.35564 3.40614 0
M  V30 6403 H 605.529 -0.538277 5.00112 0
M  V30 6404 H 605.229 1.03337 5.78442 0
M  V30 6405 H 606.753 0.157403 6.10397 0
M  V30 6406 H 608.167 2.26829 5.26518 0
M  V30 6407 H 606.564 3.05326 5.1662 0
M  V30 6408 H 607.634 3.07076 3.75276 0
M  V30 6409 N 608.977 -1.30795 0.87923 0
M  V30 6410 C 610.393 -1.48981 0.57243 0
M  V30 6411 C 610.593 -1.80719 -0.891236 0
M  V30 6412 O 609.649 -1.89136 -1.67283 0
M  V30 6413 C 610.962 -2.61721 1.48063 0
M  V30 6414 C 612.51 -2.75603 1.48365 0
M  V30 6415 C 612.985 -3.91449 2.37763 0
M  V30 6416 N 614.476 -3.98751 2.35695 0
M  V30 6417 C 615.211 -4.87684 3.01583 0
M  V30 6418 N 614.707 -5.81454 3.76674 0
M  V30 6419 N 616.5 -4.81005 2.90844 0
M  V30 6420 H 608.651 -1.08465 1.82617 0
M  V30 6421 H 610.914 -0.536813 0.781368 0
M  V30 6422 H 610.62 -2.45073 2.52254 0
M  V30 6423 H 610.494 -3.58071 1.18596 0
M  V30 6424 H 612.881 -2.9166 0.44927 0
M  V30 6425 H 612.962 -1.79891 1.81859 0
M  V30 6426 H 612.606 -3.76149 3.41283 0
M  V30 6427 H 612.536 -4.86487 2.01589 0
M  V30 6428 H 615.027 -3.31668 1.81121 0
M  V30 6429 H 615.34 -6.46063 4.24054 0
M  V30 6430 H 613.685 -5.81403 3.80782 0
M  V30 6431 H 616.876 -4.06728 2.31711 0
M  V30 6432 H 617.049 -5.50107 3.42471 0
M  V30 6433 N 610.455 -0.639598 -1.44038 0
M  V30 6434 C 611.385 0.0469443 -2.33453 0
M  V30 6435 C 612.366 0.82609 -1.48694 0
M  V30 6436 O 613.551 0.790285 -1.77393 0
M  V30 6437 C 610.681 1.02338 -3.3188 0
M  V30 6438 C 609.635 0.355284 -4.26523 0
M  V30 6439 C 608.961 1.44221 -5.14883 0
M  V30 6440 C 610.261 -0.743798 -5.16977 0
M  V30 6441 H 611.955 -0.699735 -2.91108 0
M  V30 6442 H 609.501 -0.337946 -1.39978 0
M  V30 6443 H 611.454 1.51247 -3.93322 0
M  V30 6444 H 610.178 1.80105 -2.72451 0
M  V30 6445 H 608.837 -0.113239 -3.66425 0
M  V30 6446 H 608.485 2.21097 -4.51802 0
M  V30 6447 H 608.185 1.00052 -5.79019 0
M  V30 6448 H 609.709 1.93295 -5.79197 0
M  V30 6449 H 611.123 -0.337444 -5.72306 0
M  V30 6450 H 609.52 -1.10914 -5.89761 0
M  V30 6451 H 610.59 -1.60745 -4.57481 0
M  V30 6452 N 611.933 1.52934 -0.380664 0
M  V30 6453 C 613.182 2.00651 0.205477 0
M  V30 6454 C 613.495 1.27164 1.48623 0
M  V30 6455 O 614.701 1.65547 2.15189 0
M  V30 6456 C 613.157 3.57479 0.416726 0
M  V30 6457 C 612.765 4.39857 -0.850268 0
M  V30 6458 C 614.509 4.13509 0.959702 0
M  V30 6459 C 612.416 5.88269 -0.607773 0
M  V30 6460 H 611.346 0.749684 0.0805614 0
M  V30 6461 H 613.997 1.76508 -0.501732 0
M  V30 6462 H 612.379 3.77836 1.18557 0
M  V30 6463 H 613.553 4.31269 -1.62307 0
M  V30 6464 H 611.868 3.95005 -1.31756 0
M  V30 6465 H 614.465 5.22039 1.15669 0
M  V30 6466 H 614.808 3.69054 1.92626 0
M  V30 6467 H 615.341 3.9701 0.250645 0
M  V30 6468 H 612.08 6.3703 -1.54509 0
M  V30 6469 H 611.6 5.99667 0.126247 0
M  V30 6470 H 613.279 6.46558 -0.239014 0
M  V30 6471 N 613.412 0.11024 1.57214 0
M  V30 6472 C 614.828 -0.24638 1.57687 0
M  V30 6473 C 615.028 -1.67344 1.12241 0
M  V30 6474 O 614.084 -2.39298 0.805783 0
M  V30 6475 C 615.397 -0.0210288 3.00693 0
M  V30 6476 C 616.945 -0.0876077 3.12877 0
M  V30 6477 C 617.42 0.10994 4.57868 0
M  V30 6478 N 618.911 0.0556135 4.63167 0
M  V30 6479 C 619.646 0.183495 5.73106 0
M  V30 6480 N 619.142 0.367058 6.91827 0
M  V30 6481 N 620.935 0.123689 5.61964 0
M  V30 6482 H 613.086 1.04246 1.85058 0
M  V30 6483 H 615.349 0.40979 0.854854 0
M  V30 6484 H 615.055 0.965203 3.38196 0
M  V30 6485 H 614.929 -0.756748 3.69531 0
M  V30 6486 H 617.316 -1.06436 2.75237 0
M  V30 6487 H 617.397 0.67985 2.466 0
M  V30 6488 H 617.041 1.08362 4.96206 0
M  V30 6489 H 616.971 -0.677397 5.22225 0
M  V30 6490 H 619.462 -0.0831062 3.77809 0
M  V30 6491 H 619.775 0.455739 7.71455 0
M  V30 6492 H 618.12 0.40292 6.93831 0
M  V30 6493 H 621.311 -0.0186928 4.68096 0
M  V30 6494 H 621.484 0.226797 6.47603 0
M  V30 6495 N 614.89 -1.56749 -0.16351 0
M  V30 6496 C 616.138 -1.82074 -0.87713 0
M  V30 6497 C 616.459 -0.688503 -1.82441 0
M  V30 6498 O 615.729 0.291085 -1.93725 0
M  V30 6499 H 614.309 -0.671677 -0.326893 0
M  V30 6500 H 616.971 -1.9423 -0.161459 0
M  V30 6501 H 616.067 -2.76407 -1.44934 0
M  V30 6502 N 616.368 0.432326 -1.51554 0
M  V30 6503 C 617.278 1.55023 -1.76082 0
M  V30 6504 C 618.294 1.61593 -0.645265 0
M  V30 6505 O 619.47 1.78742 -0.928086 0
M  V30 6506 C 616.535 2.90964 -1.88523 0
M  V30 6507 C 615.596 2.9447 -3.12388 0
M  V30 6508 C 614.829 4.23926 -3.24225 0
M  V30 6509 O 615.052 5.16576 -2.4188 0
M  V30 6510 O 613.986 4.33818 -4.17235 0
M  V30 6511 H 617.812 1.37238 -2.70923 0
M  V30 6512 H 615.397 0.615845 -1.36117 0
M  V30 6513 H 617.279 3.71633 -1.98662 0
M  V30 6514 H 615.954 3.08865 -0.9687 0
M  V30 6515 H 614.861 2.12737 -3.07723 0
M  V30 6516 H 616.194 2.81514 -4.03746 0
M  V30 6517 N 617.846 1.41785 0.688094 0
M  V30 6518 C 619.074 1.44915 1.47673 0
M  V30 6519 C 619.489 0.0565786 1.88715 0
M  V30 6520 O 618.846 -0.92579 1.57275 0
M  V30 6521 C 618.897 2.36452 2.73446 0
M  V30 6522 O 618.618 3.7029 2.34131 0
M  V30 6523 C 620.119 2.48463 3.67125 0
M  V30 6524 H 617.339 0.493324 0.454832 0
M  V30 6525 H 619.883 1.86153 0.846594 0
M  V30 6526 H 618.038 1.98502 3.3268 0
M  V30 6527 H 618.452 4.19183 3.15255 0
M  V30 6528 H 619.926 3.16662 4.52138 0
M  V30 6529 H 620.403 1.51826 4.12123 0
M  V30 6530 H 621.009 2.8708 3.13792 0
M  V30 6531 N 619.324 -0.923095 1.27737 0
M  V30 6532 C 620.254 -2.04124 1.13383 0
M  V30 6533 C 621.235 -1.70066 0.0340658 0
M  V30 6534 O 622.42 -1.93068 0.209383 0
M  V30 6535 C 619.55 -3.3831 0.785097 0
M  V30 6536 C 618.504 -3.86496 1.8386 0
M  V30 6537 C 617.83 -5.1754 1.34373 0
M  V30 6538 C 619.13 -4.09381 3.24353 0
M  V30 6539 H 620.824 -2.1639 2.06919 0
M  V30 6540 H 618.37 -1.03976 0.996243 0
M  V30 6541 H 620.323 -4.16016 0.671485 0
M  V30 6542 H 619.047 -3.2607 -0.185969 0
M  V30 6543 H 617.706 -3.10987 1.9412 0
M  V30 6544 H 617.354 -5.01696 0.361989 0
M  V30 6545 H 617.054 -5.50751 2.04811 0
M  V30 6546 H 618.578 -5.97811 1.24315 0
M  V30 6547 H 619.992 -4.77641 3.17067 0
M  V30 6548 H 618.389 -4.53906 3.92542 0
M  V30 6549 H 619.459 -3.14515 3.69064 0
M  V30 6550 N 620.802 -1.09834 -1.13024 0
M  V30 6551 C 621.712 -0.753731 -2.22162 0
M  V30 6552 C 622.728 0.246105 -1.72251 0
M  V30 6553 O 623.904 0.0864051 -2.01215 0
M  V30 6554 C 620.969 -0.183958 -3.46212 0
M  V30 6555 C 620.03 -1.24028 -4.10993 0
M  V30 6556 C 619.263 -0.697597 -5.29121 0
M  V30 6557 O 619.486 0.478092 -5.68393 0
M  V30 6558 O 618.42 -1.4546 -5.84059 0
M  V30 6559 H 622.246 -1.66456 -2.5402 0
M  V30 6560 H 619.831 -0.873026 -1.21238 0
M  V30 6561 H 621.713 0.130257 -4.21199 0
M  V30 6562 H 620.388 0.699823 -3.16045 0
M  V30 6563 H 619.295 -1.60725 -3.37814 0
M  V30 6564 H 620.628 -2.09685 -4.45301 0
M  V30 6565 N 622.28 1.30327 -0.886154 0
M  V30 6566 C 623.529 1.95373 -0.501243 0
M  V30 6567 C 623.842 1.70722 0.954634 0
M  V30 6568 O 625.048 2.29761 1.44644 0
M  V30 6569 C 623.504 3.49828 -0.845493 0
M  V30 6570 C 623.112 3.83296 -2.31922 0
M  V30 6571 C 624.856 4.2118 -0.529838 0
M  V30 6572 C 622.763 5.30935 -2.60504 0
M  V30 6573 H 621.693 0.731274 -0.183722 0
M  V30 6574 H 624.344 1.48258 -1.08129 0
M  V30 6575 H 622.726 3.95522 -0.19452 0
M  V30 6576 H 623.9 3.48508 -3.01461 0
M  V30 6577 H 622.215 3.2505 -2.60253 0
M  V30 6578 H 624.812 5.29825 -0.720401 0
M  V30 6579 H 625.155 4.12902 0.530828 0
M  V30 6580 H 625.688 3.81173 -1.13806 0
M  V30 6581 H 622.427 5.44265 -3.65316 0
M  V30 6582 H 621.947 5.67019 -1.95575 0
M  V30 6583 H 623.626 5.98381 -2.46066 0
M  V30 6584 N 623.758 0.647228 1.43697 0
M  V30 6585 C 625.006 0.157876 2.01482 0
M  V30 6586 C 625.327 -1.23039 1.51282 0
M  V30 6587 O 624.597 -1.82071 0.722982 0
M  V30 6588 H 623.177 0.0553745 0.744945 0
M  V30 6589 H 625.839 0.83755 1.75986 0
M  V30 6590 H 624.935 0.137895 3.11795 0
M  V30 6591 N 625.236 -1.5273 0.388769 0
M  V30 6592 C 626.184 -2.27975 -0.461527 0
M  V30 6593 C 627.178 -1.31854 -1.06352 0
M  V30 6594 O 628.384 -1.49394 -1.00406 0
M  V30 6595 H 624.759 -0.733088 -0.16759 0
M  V30 6596 H 626.73 -2.97765 0.194579 0
M  V30 6597 C 625.479 -3.09881 -1.577 0
M  V30 6598 H 624.802 -3.83701 -1.12309 0
M  V30 6599 H 626.242 -3.6567 -2.14619 0
M  V30 6600 C 624.701 -2.22159 -2.53272 0
M  V30 6601 O 625.231 -1.84802 -3.56667 0
M  V30 6602 N 623.437 -1.8633 -2.23001 0
M  V30 6603 H 622.984 -2.16909 -1.38954 0
M  V30 6604 H 622.942 -1.27927 -2.87197 0
M  V30 6605 N 626.714 -0.118576 -1.57153 0
M  V30 6606 C 627.944 0.546466 -1.99242 0
M  V30 6607 C 628.352 1.60791 -0.997148 0
M  V30 6608 O 627.695 1.83691 0.0181745 0
M  V30 6609 C 627.757 1.23167 -3.37743 0
M  V30 6610 C 627.421 0.318226 -4.55891 0
M  V30 6611 C 628.418 -0.442988 -5.18009 0
M  V30 6612 C 626.103 0.229421 -5.01776 0
M  V30 6613 C 628.097 -1.28074 -6.244 0
M  V30 6614 C 625.784 -0.611966 -6.08028 0
M  V30 6615 C 626.782 -1.36568 -6.69207 0
M  V30 6616 O 626.47 -2.1931 -7.73407 0
M  V30 6617 H 626.202 0.149297 -0.659307 0
M  V30 6618 H 628.756 -0.201603 -2.04408 0
M  V30 6619 H 626.986 2.0268 -3.29329 0
M  V30 6620 H 628.675 1.79358 -3.64123 0
M  V30 6621 H 629.441 -0.38425 -4.83475 0
M  V30 6622 H 625.32 0.805771 -4.53903 0
M  V30 6623 H 628.864 -1.86952 -6.72082 0
M  V30 6624 H 624.761 -0.6721 -6.41991 0
M  V30 6625 H 625.529 -2.12247 -7.90502 0
M  V30 6626 N 628.193 1.56834 0.155195 0
M  V30 6627 C 629.418 1.87412 0.888337 0
M  V30 6628 C 629.843 0.70671 1.74319 0
M  V30 6629 O 629.201 -0.343892 1.78009 0
M  V30 6630 C 629.249 3.1652 1.72765 0
M  V30 6631 O 628.353 2.99877 2.83103 0
M  V30 6632 H 627.694 0.615983 0.247914 0
M  V30 6633 H 630.224 2.04061 0.148478 0
M  V30 6634 H 630.234 3.48334 2.12433 0
M  V30 6635 H 628.909 4.01094 1.09985 0
M  V30 6636 H 627.486 2.79453 2.46902 0
M  V30 6637 N 629.671 -0.424282 1.51781 0
M  V30 6638 C 630.918 -1.1726 1.65095 0
M  V30 6639 C 631.246 -1.90881 0.373477 0
M  V30 6640 O 630.501 -1.84835 -0.642997 0
M  V30 6641 C 630.8 -2.20418 2.81337 0
M  V30 6642 C 630.466 -1.63715 4.20129 0
M  V30 6643 C 629.128 -1.47975 4.57883 0
M  V30 6644 C 631.48 -1.22157 5.06682 0
M  V30 6645 C 628.808 -0.891703 5.79884 0
M  V30 6646 C 631.16 -0.647767 6.29275 0
M  V30 6647 C 629.824 -0.477371 6.65791 0
M  V30 6648 H 629.094 -0.429085 0.604125 0
M  V30 6649 H 631.741 -0.461852 1.85847 0
M  V30 6650 H 630.046 -2.97581 2.54859 0
M  V30 6651 H 631.743 -2.78163 2.88836 0
M  V30 6652 H 628.333 -1.76946 3.90369 0
M  V30 6653 H 632.517 -1.33133 4.7811 0
M  V30 6654 H 627.773 -0.747563 6.06813 0
M  V30 6655 H 631.947 -0.317291 6.95677 0
M  V30 6656 H 629.574 -0.0195936 7.60197 0
M  V30 6657 N 631.149 -1.42148 -0.680565 0
M  V30 6658 C 632.379 -1.45485 -1.46689 0
M  V30 6659 C 632.787 -0.0629451 -1.89095 0
M  V30 6660 O 632.13 0.931397 -1.58337 0
M  V30 6661 C 632.192 -2.31397 -2.75129 0
M  V30 6662 C 631.856 -3.79353 -2.54834 0
M  V30 6663 C 632.853 -4.71148 -2.19808 0
M  V30 6664 C 630.538 -4.23557 -2.70008 0
M  V30 6665 C 632.532 -6.05139 -2.00215 0
M  V30 6666 C 630.219 -5.57609 -2.50031 0
M  V30 6667 C 631.217 -6.48216 -2.15187 0
M  V30 6668 O 630.905 -7.79792 -1.95397 0
M  V30 6669 H 630.637 -0.497139 -0.458071 0
M  V30 6670 H 633.191 -1.87252 -0.844139 0
M  V30 6671 H 631.421 -1.84468 -3.39865 0
M  V30 6672 H 633.11 -2.26257 -3.36991 0
M  V30 6673 H 633.876 -4.38282 -2.07686 0
M  V30 6674 H 629.755 -3.53327 -2.96109 0
M  V30 6675 H 633.299 -6.75823 -1.72941 0
M  V30 6676 H 629.196 -5.9005 -2.61748 0
M  V30 6677 H 629.964 -7.91091 -2.10042 0
M  V30 6678 N 632.627 0.916307 -1.28225 0
M  V30 6679 C 633.59 1.99996 -1.11957 0
M  V30 6680 C 634.59 1.60688 -0.0600152 0
M  V30 6681 O 635.78 1.71499 -0.30558 0
M  V30 6682 C 632.912 3.33458 -0.708411 0
M  V30 6683 H 634.105 2.15858 -2.08196 0
M  V30 6684 H 631.658 1.09863 -1.11175 0
M  V30 6685 H 632.393 3.23297 0.254859 0
M  V30 6686 H 632.178 3.63349 -1.47377 0
M  V30 6687 H 633.668 4.13014 -0.617164 0
M  V30 6688 N 634.105 1.10431 1.1244 0
M  V30 6689 C 635.035 0.775143 2.20258 0
M  V30 6690 C 636.016 -0.25186 1.68225 0
M  V30 6691 O 637.201 -0.117637 1.93843 0
M  V30 6692 C 634.331 0.206133 3.46688 0
M  V30 6693 C 633.285 1.16382 4.11873 0
M  V30 6694 C 632.611 0.456014 5.32752 0
M  V30 6695 C 633.911 2.5104 4.58013 0
M  V30 6696 H 635.605 1.67665 2.4805 0
M  V30 6697 H 633.151 0.807595 1.19222 0
M  V30 6698 H 635.104 -0.036291 4.21384 0
M  V30 6699 H 633.828 -0.730614 3.18323 0
M  V30 6700 H 632.487 1.39169 3.39157 0
M  V30 6701 H 632.135 -0.485203 5.00654 0
M  V30 6702 H 631.835 1.09466 5.77314 0
M  V30 6703 H 633.359 0.222135 6.10196 0
M  V30 6704 H 634.773 2.32401 5.24083 0
M  V30 6705 H 633.17 3.10789 5.13352 0
M  V30 6706 H 634.24 3.11039 3.71998 0
M  V30 6707 N 635.583 -1.29855 0.893053 0
M  V30 6708 C 636.86 -1.90694 0.435336 0
M  V30 6709 C 637.24 -1.8111 -1.08454 0
M  V30 6710 O 636.588 -1.23352 -1.92345 0
M  V30 6711 C 636.798 -3.36033 0.942472 0
M  V30 6712 C 638.146 -4.13083 0.982226 0
M  V30 6713 O 639.17 -3.4491 0.889686 0
M  V30 6714 O 638.029 -5.34896 1.12022 0
M  V30 6715 H 635.123 -0.815978 0.134567 0
M  V30 6716 H 637.669 -1.38367 0.982484 0
M  V30 6717 H 636.441 -3.37132 1.9864 0
M  V30 6718 H 636.064 -3.95828 0.374952 0
M  V30 6719 N 637.061 -0.65484 -1.43351 0
M  V30 6720 C 638.009 0.0476784 -2.32551 0
M  V30 6721 C 639.003 0.811403 -1.48703 0
M  V30 6722 O 640.209 0.721621 -1.64902 0
M  V30 6723 H 636.584 0.0342038 -0.751222 0
M  V30 6724 H 638.555 -0.722342 -2.89525 0
M  V30 6725 C 637.304 0.999251 -3.33032 0
M  V30 6726 H 636.627 0.421005 -3.97577 0
M  V30 6727 H 638.067 1.45986 -3.98076 0
M  V30 6728 C 636.526 2.09606 -2.63756 0
M  V30 6729 O 637.056 3.18004 -2.4543 0
M  V30 6730 N 635.262 1.86207 -2.23103 0
M  V30 6731 H 634.809 0.980555 -2.38208 0
M  V30 6732 H 634.767 2.59787 -1.77081 0
M  V30 6733 N 638.539 1.52521 -0.396863 0
M  V30 6734 C 639.471 2.24333 0.469814 0
M  V30 6735 C 640.484 1.2685 1.02043 0
M  V30 6736 O 641.673 1.52876 0.92147 0
M  V30 6737 C 638.773 2.95202 1.66461 0
M  V30 6738 C 637.946 4.19454 1.24003 0
M  V30 6739 C 637.005 4.73255 2.30036 0
M  V30 6740 O 636.031 5.36151 1.91131 0
M  V30 6741 N 637.233 4.53765 3.62047 0
M  V30 6742 H 639.998 2.99347 -0.145468 0
M  V30 6743 H 637.559 1.60348 -0.223606 0
M  V30 6744 H 639.551 3.28092 2.36934 0
M  V30 6745 H 638.121 2.2345 2.18607 0
M  V30 6746 H 637.341 3.92517 0.363892 0
M  V30 6747 H 638.629 5.0017 0.933135 0
M  V30 6748 H 638.027 4.03576 3.96412 0
M  V30 6749 H 636.584 4.91124 4.28533 0
M  V30 6750 N 640.017 0.126909 1.57088 0
M  V30 6751 C 640.965 -0.837618 2.16995 0
M  V30 6752 C 641.959 -1.26974 1.12133 0
M  V30 6753 O 643.165 -1.24056 1.30423 0
M  V30 6754 H 639.54 -0.288256 0.694559 0
M  V30 6755 H 641.511 -0.307957 2.96807 0
M  V30 6756 C 640.26 -2.07474 2.79016 0
M  V30 6757 H 639.583 -1.75117 3.59408 0
M  V30 6758 H 641.023 -2.72949 3.24461 0
M  V30 6759 C 639.482 -2.86967 1.76498 0
M  V30 6760 O 640.012 -3.82625 1.22316 0
M  V30 6761 N 638.218 -2.51111 1.46258 0
M  V30 6762 H 637.765 -1.73389 1.90509 0
M  V30 6763 H 637.723 -3.04594 0.779085 0
M  V30 6764 N 641.495 -1.56914 -0.146875 0
M  V30 6765 C 642.425 -2.01308 -1.1831 0
M  V30 6766 C 643.406 -0.892664 -1.44795 0
M  V30 6767 O 644.591 -1.16048 -1.55713 0
M  V30 6768 C 641.721 -2.3938 -2.51624 0
M  V30 6769 C 640.675 -3.54608 -2.3966 0
M  V30 6770 C 640.001 -3.78493 -3.77686 0
M  V30 6771 C 641.301 -4.87269 -1.88058 0
M  V30 6772 H 642.995 -2.88123 -0.813964 0
M  V30 6773 H 640.541 -1.38615 -0.3901 0
M  V30 6774 H 642.494 -2.69037 -3.24341 0
M  V30 6775 H 641.218 -1.49502 -2.90373 0
M  V30 6776 H 639.877 -3.25116 -1.69396 0
M  V30 6777 H 639.525 -2.85866 -4.13871 0
M  V30 6778 H 639.225 -4.56039 -3.70543 0
M  V30 6779 H 640.749 -4.10576 -4.51951 0
M  V30 6780 H 642.163 -5.15644 -2.50568 0
M  V30 6781 H 640.56 -5.68622 -1.91805 0
M  V30 6782 H 641.63 -4.77634 -0.836277 0
M  V30 6783 N 642.974 0.416227 -1.52004 0
M  V30 6784 C 644.39 0.754319 -1.40649 0
M  V30 6785 C 644.59 1.95059 -0.505392 0
M  V30 6786 O 643.646 2.5248 0.0315057 0
M  V30 6787 C 644.959 1.0149 -2.83055 0
M  V30 6788 C 646.507 1.11805 -2.9235 0
M  V30 6789 C 646.982 1.41144 -4.35709 0
M  V30 6790 N 648.473 1.48024 -4.38911 0
M  V30 6791 C 649.208 1.72338 -5.46889 0
M  V30 6792 N 648.704 1.94303 -6.64995 0
M  V30 6793 N 650.497 1.74294 -5.34395 0
M  V30 6794 H 642.648 -0.371324 -2.09129 0
M  V30 6795 H 644.911 -0.103811 -0.942299 0
M  V30 6796 H 644.617 0.208345 -3.51082 0
M  V30 6797 H 644.491 1.93697 -3.23668 0
M  V30 6798 H 646.878 1.91521 -2.24508 0
M  V30 6799 H 646.959 0.17451 -2.55204 0
M  V30 6800 H 646.603 0.619484 -5.04108 0
M  V30 6801 H 646.533 2.36739 -4.70385 0
M  V30 6802 H 649.024 1.32868 -3.53772 0
M  V30 6803 H 649.337 2.12286 -7.43071 0
M  V30 6804 H 647.682 1.91582 -6.68073 0
M  V30 6805 H 650.873 1.56667 -4.41104 0
M  V30 6806 H 651.046 1.92904 -6.18621 0
M  V30 6807 N 644.452 1.42507 0.673017 0
M  V30 6808 C 645.384 1.42074 1.79854 0
M  V30 6809 C 646.397 0.319569 1.59633 0
M  V30 6810 O 647.586 0.582769 1.68719 0
M  V30 6811 C 644.686 1.19886 3.16987 0
M  V30 6812 C 643.859 2.42471 3.64042 0
M  V30 6813 C 642.918 2.15802 4.79913 0
M  V30 6814 O 641.944 2.89015 4.90366 0
M  V30 6815 N 643.146 1.16225 5.68746 0
M  V30 6816 H 645.911 2.3909 1.8071 0
M  V30 6817 H 643.472 1.37409 0.856171 0
M  V30 6818 H 645.464 0.999591 3.92161 0
M  V30 6819 H 644.034 0.313879 3.1102 0
M  V30 6820 H 643.254 2.77954 2.79526 0
M  V30 6821 H 644.542 3.24097 3.92223 0
M  V30 6822 H 643.94 0.556756 5.62954 0
M  V30 6823 H 642.497 1.02285 6.43724 0
M  V30 6824 N 645.93 -0.909495 1.28709 0
M  V30 6825 C 646.86 -2.0291 1.15542 0
M  V30 6826 C 647.841 -1.7002 0.0521017 0
M  V30 6827 O 649.026 -1.92835 0.229849 0
M  V30 6828 C 646.156 -3.37458 0.820935 0
M  V30 6829 C 645.11 -3.84524 1.87949 0
M  V30 6830 C 644.436 -5.16086 1.39854 0
M  V30 6831 C 645.736 -4.05918 3.28676 0
M  V30 6832 H 647.43 -2.14183 2.09203 0
M  V30 6833 H 644.976 -1.02913 1.00722 0
M  V30 6834 H 646.929 -4.1528 0.715571 0
M  V30 6835 H 645.653 -3.26249 -0.151374 0
M  V30 6836 H 644.312 -3.08911 1.97408 0
M  V30 6837 H 643.96 -5.01284 0.41518 0
M  V30 6838 H 643.66 -5.48547 2.1064 0
M  V30 6839 H 645.184 -5.96459 1.30649 0
M  V30 6840 H 646.598 -4.74252 3.22115 0
M  V30 6841 H 644.995 -4.49717 3.97334 0
M  V30 6842 H 646.065 -3.10583 3.72379 0
M  V30 6843 N 647.408 -1.11026 -1.11852 0
M  V30 6844 C 648.654 -0.867633 -1.83967 0
M  V30 6845 C 649.009 0.600309 -1.82795 0
M  V30 6846 O 648.302 1.43731 -1.26696 0
M  V30 6847 C 648.496 -1.35777 -3.30604 0
M  V30 6848 C 648.325 -2.87183 -3.46058 0
M  V30 6849 C 647.095 -3.55256 -3.59334 0
M  V30 6850 C 649.293 -3.85258 -3.40706 0
M  V30 6851 N 647.275 -4.94923 -3.63215 0
M  V30 6852 C 648.646 -5.1097 -3.51155 0
M  V30 6853 C 650.701 -3.77879 -3.2421 0
M  V30 6854 C 649.404 -6.30171 -3.46809 0
M  V30 6855 C 651.43 -4.96586 -3.2118 0
M  V30 6856 C 650.792 -6.21149 -3.32196 0
M  V30 6857 H 646.891 -0.370574 -0.688621 0
M  V30 6858 H 649.475 -1.41379 -1.33865 0
M  V30 6859 H 647.646 -0.83885 -3.79233 0
M  V30 6860 H 649.378 -1.05874 -3.90606 0
M  V30 6861 H 646.133 -3.05714 -3.61713 0
M  V30 6862 H 646.557 -5.67726 -3.68804 0
M  V30 6863 H 651.199 -2.82485 -3.14582 0
M  V30 6864 H 648.917 -7.25847 -3.55206 0
M  V30 6865 H 652.503 -4.92591 -3.09589 0
M  V30 6866 H 651.383 -7.11463 -3.29834 0
M  V30 6867 N 648.886 1.2938 -0.899927 0
M  V30 6868 C 650.163 1.9046 -0.445443 0
M  V30 6869 C 650.543 1.81683 1.07492 0
M  V30 6870 O 649.891 1.24371 1.91688 0
M  V30 6871 C 650.101 3.35529 -0.960279 0
M  V30 6872 C 651.449 4.12556 -1.00412 0
M  V30 6873 O 652.473 3.44434 -0.907965 0
M  V30 6874 O 651.332 5.34294 -1.14857 0
M  V30 6875 H 648.426 0.815253 -0.138893 0
M  V30 6876 H 650.972 1.37844 -0.989808 0
M  V30 6877 H 649.744 3.36074 -2.00425 0
M  V30 6878 H 649.367 3.95624 -0.395939 0
M  V30 6879 N 650.364 0.662433 1.43002 0
M  V30 6880 C 651.61 0.188492 2.02525 0
M  V30 6881 C 651.965 -1.18752 1.51379 0
M  V30 6882 O 651.258 -1.78313 0.701065 0
M  V30 6883 C 651.452 0.149363 3.57088 0
M  V30 6884 C 651.281 1.52004 4.23231 0
M  V30 6885 C 650.051 2.11473 4.5892 0
M  V30 6886 C 652.249 2.46028 4.51635 0
M  V30 6887 N 650.231 3.4145 5.10181 0
M  V30 6888 C 651.602 3.60647 5.04315 0
M  V30 6889 C 653.657 2.44715 4.33612 0
M  V30 6890 C 652.36 4.74189 5.40867 0
M  V30 6891 C 654.386 3.57344 4.71232 0
M  V30 6892 C 653.748 4.70689 5.24053 0
M  V30 6893 H 649.847 0.113615 0.773703 0
M  V30 6894 H 652.431 0.872738 1.74044 0
M  V30 6895 H 650.602 -0.504255 3.85113 0
M  V30 6896 H 652.334 -0.336307 4.033 0
M  V30 6897 H 649.089 1.64087 4.44266 0
M  V30 6898 H 649.513 4.07987 5.40255 0
M  V30 6899 H 654.155 1.58318 3.9204 0
M  V30 6900 H 651.873 5.61271 5.81378 0
M  V30 6901 H 655.459 3.5754 4.58973 0
M  V30 6902 H 654.339 5.56398 5.52621 0
M  V30 6903 N 651.842 -1.52309 0.404946 0
M  V30 6904 C 653.067 -2.06666 -0.1743 0
M  V30 6905 C 653.492 -1.27341 -1.38441 0
M  V30 6906 O 652.85 -0.302539 -1.78758 0
M  V30 6907 C 652.898 -3.57014 -0.507262 0
M  V30 6908 O 652.002 -3.80144 -1.59889 0
M  V30 6909 H 651.343 -0.663807 -0.0160273 0
M  V30 6910 H 653.873 -1.96297 0.576937 0
M  V30 6911 H 653.883 -4.00724 -0.767098 0
M  V30 6912 H 652.558 -4.14184 0.377368 0
M  V30 6913 H 651.135 -3.48316 -1.33155 0
M  V30 6914 N 653.32 -0.135238 -1.57019 0
M  V30 6915 C 654.267 0.808908 -2.1616 0
M  V30 6916 C 655.237 1.25234 -1.09113 0
M  V30 6917 O 656.422 1.32697 -1.37099 0
M  V30 6918 C 653.562 2.04729 -2.77813 0
M  V30 6919 C 652.675 1.65074 -3.99218 0
M  V30 6920 C 651.81 2.84002 -4.48906 0
M  V30 6921 C 650.849 2.40663 -5.62803 0
M  V30 6922 N 649.986 3.5256 -6.07162 0
M  V30 6923 H 654.826 0.297751 -2.96509 0
M  V30 6924 H 652.363 0.135264 -1.46477 0
M  V30 6925 H 654.321 2.7731 -3.11697 0
M  V30 6926 H 652.951 2.53275 -2.00128 0
M  V30 6927 H 652.003 0.823029 -3.7139 0
M  V30 6928 H 653.315 1.29236 -4.81767 0
M  V30 6929 H 652.469 3.64788 -4.84783 0
M  V30 6930 H 651.208 3.23076 -3.65339 0
M  V30 6931 H 650.213 1.58314 -5.26514 0
M  V30 6932 H 651.438 2.02687 -6.48147 0
M  V30 6933 H 649.384 3.91278 -5.26534 0
M  V30 6934 H 649.301 3.20699 -6.84608 0
M  V30 6935 H 650.569 4.33738 -6.47682 0
M  V30 6936 N 654.798 1.5699 0.138552 0
M  V30 6937 C 655.748 1.9532 1.17619 0
M  V30 6938 C 656.732 0.825545 1.38107 0
M  V30 6939 O 657.924 1.08908 1.39528 0
M  V30 6940 C 655.053 2.34451 2.50774 0
M  V30 6941 C 654.139 3.53805 2.33844 0
M  V30 6942 N 654.53 4.70088 1.86685 0
M  V30 6943 C 652.828 3.59055 2.64567 0
M  V30 6944 C 653.529 5.52165 1.82998 0
M  V30 6945 N 652.505 4.94108 2.26624 0
M  V30 6946 H 656.307 2.82694 0.803809 0
M  V30 6947 H 653.821 1.5866 0.346519 0
M  V30 6948 H 655.818 2.60119 3.25797 0
M  V30 6949 H 654.478 1.48431 2.88788 0
M  V30 6950 H 655.489 4.93681 1.56523 0
M  V30 6951 H 652.166 2.83596 3.06398 0
M  V30 6952 H 653.556 6.55407 1.47957 0
M  V30 6953 N 656.276 -0.40816 1.52223 0
M  V30 6954 C 657.224 -1.51788 1.76248 0
M  V30 6955 C 658.218 -1.57264 0.629638 0
M  V30 6956 O 659.424 -1.60659 0.811704 0
M  V30 6957 H 655.799 -0.504823 0.557367 0
M  V30 6958 H 657.77 -1.2871 2.69214 0
M  V30 6959 C 656.519 -2.89145 1.93107 0
M  V30 6960 H 655.842 -2.85674 2.79697 0
M  V30 6961 H 657.282 -3.66082 2.13916 0
M  V30 6962 C 655.741 -3.29581 0.698431 0
M  V30 6963 O 656.271 -4.01479 -0.133238 0
M  V30 6964 N 654.477 -2.85651 0.53405 0
M  V30 6965 H 654.024 -2.2731 1.21194 0
M  V30 6966 H 653.982 -3.13065 -0.289387 0
M  V30 6967 N 657.755 -1.42862 -0.66545 0
M  V30 6968 C 658.685 -1.49867 -1.79059 0
M  V30 6969 C 659.666 -0.354394 -1.66367 0
M  V30 6970 O 660.851 -0.569969 -1.85647 0
M  V30 6971 C 657.981 -1.40943 -3.17415 0
M  V30 6972 C 656.935 -2.53495 -3.44854 0
M  V30 6973 C 656.261 -2.29626 -4.82883 0
M  V30 6974 C 657.561 -3.95781 -3.40815 0
M  V30 6975 H 659.255 -2.44037 -1.73453 0
M  V30 6976 H 656.801 -1.17456 -0.833071 0
M  V30 6977 H 658.754 -1.4445 -3.95869 0
M  V30 6978 H 657.478 -0.432716 -3.23721 0
M  V30 6979 H 656.137 -2.4932 -2.68766 0
M  V30 6980 H 655.785 -1.30226 -4.8585 0
M  V30 6981 H 655.485 -3.05065 -5.02204 0
M  V30 6982 H 657.009 -2.34897 -5.63609 0
M  V30 6983 H 658.423 -4.01508 -4.09224 0
M  V30 6984 H 656.82 -4.71148 -3.71672 0
M  V30 6985 H 657.89 -4.21786 -2.39216 0
M  V30 6986 N 659.233 0.902656 -1.29189 0
M  V30 6987 C 660.461 1.68639 -1.19869 0
M  V30 6988 C 660.876 1.87254 0.241121 0
M  V30 6989 O 660.233 1.40745 1.16177 0
M  V30 6990 C 660.284 3.07251 -1.90471 0
M  V30 6991 O 660.005 2.89488 -3.28829 0
M  V30 6992 C 661.506 4.01653 -1.8759 0
M  V30 6993 H 658.726 0.526802 -0.415596 0
M  V30 6994 H 661.27 1.12901 -1.7051 0
M  V30 6995 H 659.425 3.59774 -1.43672 0
M  V30 6996 H 659.839 3.77296 -3.64346 0
M  V30 6997 H 661.313 4.96339 -2.4156 0
M  V30 6998 H 661.79 4.30881 -0.850756 0
M  V30 6999 H 662.396 3.55061 -2.34119 0
M  V30 7000 N 660.711 1.11618 1.11262 0
M  V30 7001 C 661.96 0.860934 1.82403 0
M  V30 7002 C 662.273 -0.615303 1.8567 0
M  V30 7003 O 663.479 -0.986861 2.52929 0
M  V30 7004 C 661.935 1.49048 3.27586 0
M  V30 7005 C 661.543 3.00089 3.32642 0
M  V30 7006 C 663.287 1.31515 4.03614 0
M  V30 7007 C 661.194 3.56019 4.72234 0
M  V30 7008 H 660.124 0.318423 0.683464 0
M  V30 7009 H 662.775 1.34165 1.25188 0
M  V30 7010 H 661.157 0.937434 3.84744 0
M  V30 7011 H 662.331 3.61813 2.85356 0
M  V30 7012 H 660.646 3.16919 2.70096 0
M  V30 7013 H 663.243 1.70732 5.0671 0
M  V30 7014 H 663.586 0.257917 4.155 0
M  V30 7015 H 664.119 1.83694 3.52848 0
M  V30 7016 H 660.858 4.61463 4.65545 0
M  V30 7017 H 660.378 2.99066 5.19923 0
M  V30 7018 H 662.057 3.54568 5.41193 0
M  V30 7019 N 662.189 -1.289 0.906776 0
M  V30 7020 C 663.417 -1.99401 0.551969 0
M  V30 7021 C 663.832 -1.67816 -0.865048 0
M  V30 7022 O 663.189 -0.927078 -1.57199 0
M  V30 7023 C 663.24 -3.53779 0.743152 0
M  V30 7024 O 662.961 -3.84248 2.1044 0
M  V30 7025 C 664.462 -4.41543 0.39424 0
M  V30 7026 H 661.682 -0.636926 0.211106 0
M  V30 7027 H 664.226 -1.64266 1.21807 0
M  V30 7028 H 662.381 -3.87201 0.124143 0
M  V30 7029 H 662.795 -4.78904 2.13895 0
M  V30 7030 H 664.269 -5.48957 0.578814 0
M  V30 7031 H 664.746 -4.34073 -0.669137 0
M  V30 7032 H 665.352 -4.13605 0.990491 0
M  V30 7033 N 663.667 -0.670007 -1.42649 0
M  V30 7034 C 664.599 0.0501746 -2.29145 0
M  V30 7035 C 665.612 0.770331 -1.43422 0
M  V30 7036 O 666.801 0.625288 -1.6719 0
M  V30 7037 C 663.901 1.09463 -3.20735 0
M  V30 7038 C 663.074 0.44926 -4.35087 0
M  V30 7039 C 662.133 1.39285 -5.07431 0
M  V30 7040 O 661.159 0.894997 -5.6212 0
M  V30 7041 N 662.361 2.72631 -5.12496 0
M  V30 7042 H 665.126 -0.692312 -2.91594 0
M  V30 7043 H 662.687 -0.514056 -1.53522 0
M  V30 7044 H 664.679 1.72705 -3.65999 0
M  V30 7045 H 663.249 1.73891 -2.59771 0
M  V30 7046 H 662.469 -0.362573 -3.92529 0
M  V30 7047 H 663.757 -0.000544776 -5.088 0
M  V30 7048 H 663.155 3.15623 -4.69467 0
M  V30 7049 H 661.712 3.31132 -5.61422 0
M  V30 7050 N 665.145 1.52092 -0.413018 0
M  V30 7051 C 666.393 2.01456 0.161178 0
M  V30 7052 C 666.714 1.30034 1.45314 0
M  V30 7053 O 665.984 0.427435 1.9118 0
M  V30 7054 H 664.564 0.744376 0.0625526 0
M  V30 7055 H 667.226 1.86974 -0.550151 0
M  V30 7056 H 666.322 3.1008 0.354517 0
M  V30 7057 N 666.623 0.143563 1.56945 0
M  V30 7058 C 667.57 -0.797433 2.16586 0
M  V30 7059 C 668.54 -1.24654 1.09775 0
M  V30 7060 O 669.725 -1.31968 1.37801 0
M  V30 7061 C 666.865 -2.03253 2.78895 0
M  V30 7062 C 665.978 -1.62954 4.00087 0
M  V30 7063 C 665.113 -2.81617 4.50406 0
M  V30 7064 C 664.152 -2.37675 5.64072 0
M  V30 7065 N 663.289 -3.49335 6.09023 0
M  V30 7066 H 668.129 -0.282023 2.96662 0
M  V30 7067 H 665.666 -0.127494 1.46546 0
M  V30 7068 H 667.624 -2.75653 3.13163 0
M  V30 7069 H 666.254 -2.52211 2.01469 0
M  V30 7070 H 665.306 -0.803322 3.71821 0
M  V30 7071 H 666.618 -1.26679 4.82446 0
M  V30 7072 H 665.772 -3.62212 4.86711 0
M  V30 7073 H 664.511 -3.21134 3.67048 0
M  V30 7074 H 663.516 -1.55519 5.27346 0
M  V30 7075 H 664.741 -1.99247 6.49213 0
M  V30 7076 H 662.687 -3.8848 5.28601 0
M  V30 7077 H 662.604 -3.17064 6.86299 0
M  V30 7078 H 663.872 -4.30297 6.49973 0
M  V30 7079 N 668.101 -1.57061 -0.130224 0
M  V30 7080 C 669.031 -2.02552 -1.16168 0
M  V30 7081 C 670.012 -0.907971 -1.4384 0
M  V30 7082 O 671.197 -1.17693 -1.54473 0
M  V30 7083 C 668.327 -2.42035 -2.49071 0
M  V30 7084 C 667.281 -3.5713 -2.35886 0
M  V30 7085 C 666.607 -3.82478 -3.7365 0
M  V30 7086 C 667.907 -4.89236 -1.8288 0
M  V30 7087 H 669.601 -2.8897 -0.783359 0
M  V30 7088 H 667.147 -1.39021 -0.375376 0
M  V30 7089 H 669.1 -2.72462 -3.21469 0
M  V30 7090 H 667.824 -1.52573 -2.88771 0
M  V30 7091 H 666.483 -3.26895 -1.65938 0
M  V30 7092 H 666.131 -2.9024 -4.10816 0
M  V30 7093 H 665.831 -4.59944 -3.65685 0
M  V30 7094 H 667.355 -4.15347 -4.47571 0
M  V30 7095 H 668.769 -5.18272 -2.45085 0
M  V30 7096 H 667.166 -5.70624 -1.85763 0
M  V30 7097 H 668.236 -4.78494 -0.785571 0
M  V30 7098 N 669.579 0.400081 -1.52437 0
M  V30 7099 C 670.826 1.14619 -1.6694 0
M  V30 7100 C 671.154 1.90262 -0.403797 0
M  V30 7101 O 670.409 1.85835 0.61351 0
M  V30 7102 C 670.708 2.15914 -2.84808 0
M  V30 7103 C 670.374 1.57011 -4.2268 0
M  V30 7104 C 669.036 1.40672 -4.60179 0
M  V30 7105 C 671.388 1.14081 -5.08562 0
M  V30 7106 C 668.716 0.799335 -5.81229 0
M  V30 7107 C 671.068 0.547573 -6.30226 0
M  V30 7108 C 669.732 0.371389 -6.66466 0
M  V30 7109 H 669.002 0.419419 -0.610875 0
M  V30 7110 H 671.649 0.432227 -1.86558 0
M  V30 7111 H 669.954 2.93488 -2.59561 0
M  V30 7112 H 671.651 2.73533 -2.93225 0
M  V30 7113 H 668.241 1.70713 -3.93135 0
M  V30 7114 H 672.425 1.2551 -4.80168 0
M  V30 7115 H 667.681 0.65093 -6.07925 0
M  V30 7116 H 671.855 0.206575 -6.96094 0
M  V30 7117 H 669.482 -0.10135 -7.60132 0
M  V30 7118 N 671.057 1.43213 0.657864 0
M  V30 7119 C 672.304 1.44584 1.41781 0
M  V30 7120 C 672.632 0.0684208 1.9438 0
M  V30 7121 O 671.887 -0.925872 1.72413 0
M  V30 7122 C 672.186 2.43143 2.61947 0
M  V30 7123 C 671.852 3.89128 2.27794 0
M  V30 7124 C 670.514 4.28889 2.18191 0
M  V30 7125 C 672.866 4.81144 2.00375 0
M  V30 7126 C 670.194 5.58625 1.79319 0
M  V30 7127 C 672.546 6.11239 1.63003 0
M  V30 7128 C 671.21 6.49981 1.51922 0
M  V30 7129 H 670.48 0.529069 0.518813 0
M  V30 7130 H 673.127 1.76263 0.748577 0
M  V30 7131 H 671.432 2.04851 3.33981 0
M  V30 7132 H 673.129 2.4146 3.20153 0
M  V30 7133 H 669.719 3.57657 2.36176 0
M  V30 7134 H 673.903 4.512 2.06718 0
M  V30 7135 H 669.159 5.87486 1.69323 0
M  V30 7136 H 673.333 6.82014 1.40817 0
M  V30 7137 H 670.96 7.50416 1.21572 0
M  V30 7138 N 672.536 -0.895792 1.29666 0
M  V30 7139 C 673.486 -1.98736 1.1175 0
M  V30 7140 C 674.47 -1.6086 0.0357834 0
M  V30 7141 O 675.662 -1.75111 0.257926 0
M  V30 7142 C 672.791 -3.33845 0.800156 0
M  V30 7143 C 671.877 -3.78068 1.9216 0
M  V30 7144 N 672.268 -3.94489 3.16563 0
M  V30 7145 C 670.566 -4.07376 1.81552 0
M  V30 7146 C 671.267 -4.31819 3.89753 0
M  V30 7147 N 670.243 -4.41081 3.17724 0
M  V30 7148 H 674.045 -2.09507 2.06117 0
M  V30 7149 H 671.559 -1.08488 1.20848 0
M  V30 7150 H 673.556 -4.11757 0.652841 0
M  V30 7151 H 672.216 -3.24417 -0.135551 0
M  V30 7152 H 673.227 -3.79914 3.51974 0
M  V30 7153 H 669.904 -4.06483 0.952787 0
M  V30 7154 H 671.294 -4.52337 4.96831 0
M  V30 7155 N 674.014 -1.12206 -1.10668 0
M  V30 7156 C 675.244 -0.897332 -1.86095 0
M  V30 7157 C 675.652 0.556778 -1.80822 0
M  V30 7158 O 674.995 1.39658 -1.19337 0
M  V30 7159 C 675.057 -1.29095 -3.35522 0
M  V30 7160 C 674.721 -2.75586 -3.64556 0
M  V30 7161 C 675.718 -3.73785 -3.6136 0
M  V30 7162 C 673.403 -3.12432 -3.93309 0
M  V30 7163 C 675.397 -5.06845 -3.86506 0
M  V30 7164 C 673.084 -4.45675 -4.18111 0
M  V30 7165 C 674.082 -5.42691 -4.147 0
M  V30 7166 O 673.77 -6.73532 -4.38873 0
M  V30 7167 H 673.502 -0.320704 -0.595084 0
M  V30 7168 H 676.056 -1.49517 -1.40833 0
M  V30 7169 H 674.286 -0.636299 -3.81429 0
M  V30 7170 H 675.975 -1.04073 -3.92331 0
M  V30 7171 H 676.741 -3.46664 -3.39189 0
M  V30 7172 H 672.62 -2.3753 -3.95096 0
M  V30 7173 H 676.164 -5.82559 -3.83758 0
M  V30 7174 H 672.061 -4.72526 -4.39761 0
M  V30 7175 H 672.829 -6.79442 -4.564 0
M  V30 7176 N 675.492 1.28418 -0.913599 0
M  V30 7177 C 676.44 2.29272 -0.392037 0
M  V30 7178 C 677.434 1.61344 0.516198 0
M  V30 7179 O 678.64 1.75557 0.39746 0
M  V30 7180 H 675.015 0.744178 -0.108178 0
M  V30 7181 H 676.986 2.70691 -1.25574 0
M  V30 7182 C 675.735 3.45905 0.352815 0
M  V30 7183 H 675.058 3.98378 -0.336848 0
M  V30 7184 H 676.498 4.18473 0.682398 0
M  V30 7185 C 674.957 2.98572 1.56065 0
M  V30 7186 O 675.487 3.01033 2.65974 0
M  V30 7187 N 673.693 2.54235 1.40759 0
M  V30 7188 H 673.24 2.52432 0.513403 0
M  V30 7189 H 673.198 2.22925 2.21702 0
M  V30 7190 N 676.97 0.677563 1.42291 0
M  V30 7191 C 678.381 0.277912 1.8462 0
M  V30 7192 C 678.732 -1.18048 1.56714 0
M  V30 7193 O 677.857 -1.90404 1.02836 0
M  V30 7194 C 678.452 0.497619 3.35126 0
M  V30 7195 C 677.011 0.152063 3.76093 0
M  V30 7196 C 676.158 0.78872 2.65847 0
M  V30 7197 H 679.109 0.879527 1.32098 0
M  V30 7198 H 679.13 -0.24939 3.79682 0
M  V30 7199 H 678.642 1.55913 3.55405 0
M  V30 7200 H 676.743 -0.905896 3.6142 0
M  V30 7201 H 676.856 0.594514 4.75397 0
M  V30 7202 H 675.22 0.219813 2.5375 0
M  V30 7203 H 676.003 1.85374 2.88949 0
M  V30 7204 N 678.448 -1.51871 0.421078 0
M  V30 7205 C 679.395 -2.27334 -0.398508 0
M  V30 7206 C 680.365 -1.30241 -1.03085 0
M  V30 7207 O 681.55 -1.59121 -1.05285 0
M  V30 7208 C 678.69 -3.10664 -1.50272 0
M  V30 7209 C 677.803 -4.2273 -0.890122 0
M  V30 7210 C 676.938 -4.93399 -1.96803 0
M  V30 7211 C 675.977 -5.97409 -1.333 0
M  V30 7212 N 675.114 -6.61548 -2.35156 0
M  V30 7213 H 679.954 -2.96938 0.251411 0
M  V30 7214 H 677.491 -1.46472 0.135825 0
M  V30 7215 H 679.449 -3.57292 -2.15403 0
M  V30 7216 H 678.079 -2.43207 -2.1225 0
M  V30 7217 H 677.131 -3.80186 -0.127537 0
M  V30 7218 H 678.443 -4.97302 -0.386349 0
M  V30 7219 H 677.597 -5.43491 -2.69633 0
M  V30 7220 H 676.336 -4.18421 -2.50549 0
M  V30 7221 H 675.341 -5.46624 -0.59008 0
M  V30 7222 H 676.566 -6.74335 -0.803076 0
M  V30 7223 H 674.512 -5.89394 -2.88012 0
M  V30 7224 H 674.429 -7.31832 -1.89624 0
M  V30 7225 H 675.697 -7.16276 -3.0752 0
M  V30 7226 N 679.926 -0.151884 -1.56866 0
M  V30 7227 C 680.856 0.781943 -2.20018 0
M  V30 7228 C 681.837 1.25347 -1.14987 0
M  V30 7229 O 683.022 1.31015 -1.43348 0
M  V30 7230 C 680.152 2.01928 -2.82564 0
M  V30 7231 C 679.106 1.68434 -3.93464 0
M  V30 7232 C 678.432 2.99472 -4.42968 0
M  V30 7233 C 679.732 0.927244 -5.14003 0
M  V30 7234 H 681.426 0.255607 -2.98307 0
M  V30 7235 H 678.972 0.121502 -1.43486 0
M  V30 7236 H 680.925 2.67741 -3.25411 0
M  V30 7237 H 679.649 2.56943 -2.01614 0
M  V30 7238 H 678.308 1.04998 -3.51242 0
M  V30 7239 H 677.956 3.52488 -3.58834 0
M  V30 7240 H 677.656 2.77823 -5.17772 0
M  V30 7241 H 679.18 3.66348 -4.88489 0
M  V30 7242 H 680.594 1.48756 -5.53665 0
M  V30 7243 H 678.991 0.810513 -5.94601 0
M  V30 7244 H 680.061 -0.0801163 -4.84834 0
M  V30 7245 N 681.404 1.57128 0.121893 0
M  V30 7246 C 682.644 1.86517 0.836113 0
M  V30 7247 C 683.008 0.739497 1.77188 0
M  V30 7248 O 684.209 0.91508 2.52744 0
M  V30 7249 C 682.48 3.21129 1.56878 0
M  V30 7250 S 684.039 3.72143 2.32497 0
M  V30 7251 H 680.857 0.653923 0.279115 0
M  V30 7252 H 683.459 1.95271 0.0946254 0
M  V30 7253 H 682.163 4.01002 0.873255 0
M  V30 7254 H 681.694 3.15446 2.35069 0
M  V30 7255 H 683.709 3.43413 3.58164 0
M  V30 7256 N 682.882 -0.391992 1.52647 0
M  V30 7257 C 683.812 -1.48517 1.8018 0
M  V30 7258 C 684.793 -1.57039 0.653667 0
M  V30 7259 O 685.978 -1.72036 0.900962 0
M  V30 7260 C 683.108 -2.86161 1.96797 0
M  V30 7261 C 682.062 -2.92481 3.12472 0
M  V30 7262 C 681.388 -4.32546 3.14338 0
M  V30 7263 C 682.688 -2.624 4.51601 0
M  V30 7264 H 684.382 -1.25726 2.71723 0
M  V30 7265 H 681.928 -0.603387 1.30749 0
M  V30 7266 H 683.881 -3.62639 2.14641 0
M  V30 7267 H 682.605 -3.10283 1.01941 0
M  V30 7268 H 681.264 -2.18451 2.94406 0
M  V30 7269 H 680.912 -4.53703 2.1717 0
M  V30 7270 H 680.612 -4.37695 3.92042 0
M  V30 7271 H 682.136 -5.10934 3.34333 0
M  V30 7272 H 683.55 -3.28596 4.69785 0
M  V30 7273 H 681.947 -2.78903 5.3135 0
M  V30 7274 H 683.017 -1.57754 4.58521 0
M  V30 7275 N 684.36 -1.4356 -0.65026 0
M  V30 7276 C 685.585 -1.48995 -1.44275 0
M  V30 7277 C 686.01 -0.109954 -1.87778 0
M  V30 7278 O 685.368 0.896926 -1.57559 0
M  V30 7279 C 685.416 -2.44341 -2.65198 0
M  V30 7280 O 684.52 -1.93172 -3.6436 0
M  V30 7281 H 683.861 -0.503852 -0.432469 0
M  V30 7282 H 686.391 -1.88504 -0.795446 0
M  V30 7283 H 686.401 -2.61743 -3.12977 0
M  V30 7284 H 685.076 -3.44588 -2.32877 0
M  V30 7285 H 683.653 -1.85445 -3.23519 0
M  V30 7286 N 685.838 0.888903 -1.30139 0
M  V30 7287 C 686.748 2.02705 -1.18101 0
M  V30 7288 C 687.764 1.73702 -0.101809 0
M  V30 7289 O 688.94 1.98906 -0.315984 0
M  V30 7290 C 686.005 3.35616 -0.869651 0
M  V30 7291 C 685.066 3.78067 -2.03381 0
M  V30 7292 C 684.299 5.04635 -1.73721 0
M  V30 7293 O 684.522 5.66531 -0.663267 0
M  V30 7294 O 683.456 5.43399 -2.58845 0
M  V30 7295 H 687.282 2.15788 -2.13704 0
M  V30 7296 H 684.867 1.01426 -1.09695 0
M  V30 7297 H 686.749 4.15358 -0.711043 0
M  V30 7298 H 685.424 3.23651 0.0565002 0
M  V30 7299 H 684.331 2.99046 -2.24772 0
M  V30 7300 H 685.664 3.94631 -2.94155 0
M  V30 7301 N 687.317 1.12792 1.10072 0
M  V30 7302 C 688.566 0.880232 1.81479 0
M  V30 7303 C 688.879 -0.595575 1.86312 0
M  V30 7304 O 690.085 -0.959979 2.53962 0
M  V30 7305 C 688.541 1.52514 3.25987 0
M  V30 7306 C 688.149 3.036 3.29441 0
M  V30 7307 C 689.893 1.35788 4.02196 0
M  V30 7308 C 687.8 3.61007 4.68431 0
M  V30 7309 H 686.73 0.325654 0.680048 0
M  V30 7310 H 689.381 1.35485 1.23758 0
M  V30 7311 H 687.763 0.978188 3.83728 0
M  V30 7312 H 688.937 3.64819 2.81502 0
M  V30 7313 H 687.252 3.19765 2.66719 0
M  V30 7314 H 689.849 1.76096 5.0487 0
M  V30 7315 H 690.192 0.301972 4.15203 0
M  V30 7316 H 690.725 1.87426 3.50879 0
M  V30 7317 H 687.464 4.66375 4.60625 0
M  V30 7318 H 686.984 3.04564 5.16721 0
M  V30 7319 H 688.663 3.60289 5.37402 0
M  V30 7320 N 688.795 -1.27931 0.920396 0
M  V30 7321 C 689.745 -2.24727 0.384966 0
M  V30 7322 C 690.729 -1.52715 -0.506661 0
M  V30 7323 O 691.921 -1.73599 -0.345298 0
M  V30 7324 C 689.05 -3.41324 -0.3678 0
M  V30 7325 C 688.136 -4.20649 0.539925 0
M  V30 7326 N 688.527 -4.77906 1.6565 0
M  V30 7327 C 686.825 -4.4469 0.341557 0
M  V30 7328 C 687.526 -5.37652 2.22047 0
M  V30 7329 N 686.502 -5.2218 1.51093 0
M  V30 7330 H 690.304 -2.66572 1.23761 0
M  V30 7331 H 687.818 -1.42779 0.773819 0
M  V30 7332 H 689.815 -4.0976 -0.768277 0
M  V30 7333 H 688.475 -3.01012 -1.21746 0
M  V30 7334 H 689.486 -4.76073 2.03899 0
M  V30 7335 H 686.163 -4.14868 -0.468045 0
M  V30 7336 H 687.553 -5.92948 3.1601 0
M  V30 7337 N 690.273 -0.685099 -1.4193 0
M  V30 7338 C 691.22 -0.0131869 -2.30796 0
M  V30 7339 C 692.19 0.782129 -1.46533 0
M  V30 7340 O 693.375 0.75229 -1.75343 0
M  V30 7341 C 690.515 0.924768 -3.32479 0
M  V30 7342 C 689.628 0.122181 -4.31827 0
M  V30 7343 C 688.763 1.05682 -5.20581 0
M  V30 7344 C 687.802 0.246526 -6.11603 0
M  V30 7345 N 686.939 1.13442 -6.92875 0
M  V30 7346 H 691.779 -0.776789 -2.87698 0
M  V30 7347 H 689.316 -0.394791 -1.41703 0
M  V30 7348 H 691.274 1.48251 -3.89971 0
M  V30 7349 H 689.904 1.65488 -2.77152 0
M  V30 7350 H 688.956 -0.552335 -3.76369 0
M  V30 7351 H 690.268 -0.506473 -4.96222 0
M  V30 7352 H 689.422 1.68415 -5.82856 0
M  V30 7353 H 688.161 1.71935 -4.56388 0
M  V30 7354 H 687.166 -0.393944 -5.48387 0
M  V30 7355 H 688.391 -0.412053 -6.77849 0
M  V30 7356 H 686.337 1.78316 -6.313 0
M  V30 7357 H 686.254 0.561089 -7.53915 0
M  V30 7358 H 687.522 1.74889 -7.59628 0
M  V30 7359 N 691.751 1.51645 -0.429126 0
M  V30 7360 C 692.684 2.24083 0.431492 0
M  V30 7361 C 693.662 1.25691 1.03153 0
M  V30 7362 O 694.846 1.54802 1.07557 0
M  V30 7363 C 691.973 2.9849 1.60067 0
M  V30 7364 C 691.019 4.11474 1.12211 0
M  V30 7365 S 691.852 5.35453 0.0708449 0
M  V30 7366 C 693.008 6.13395 1.24488 0
M  V30 7367 H 693.241 2.96733 -0.183525 0
M  V30 7368 H 690.774 1.52916 -0.213574 0
M  V30 7369 H 692.732 3.4196 2.27099 0
M  V30 7370 H 691.393 2.25445 2.18708 0
M  V30 7371 H 690.586 4.62784 1.99618 0
M  V30 7372 H 690.188 3.70223 0.530149 0
M  V30 7373 H 692.48 6.41984 2.16479 0
M  V30 7374 H 693.423 7.0388 0.771921 0
M  V30 7375 H 693.831 5.44761 1.47973 0
M  V30 7376 N 693.229 0.160201 1.56784 0
M  V30 7377 C 694.139 -0.787167 2.21 0
M  V30 7378 C 695.155 -1.26167 1.19825 0
M  V30 7379 O 696.331 -1.31611 1.52448 0
M  V30 7380 C 693.396 -2.00364 2.8294 0
M  V30 7381 C 692.457 -1.5771 3.99282 0
M  V30 7382 C 691.69 -2.73558 4.58259 0
M  V30 7383 O 691.913 -3.90129 4.16119 0
M  V30 7384 O 690.847 -2.48271 5.48311 0
M  V30 7385 H 694.673 -0.270462 3.02493 0
M  V30 7386 H 692.258 -0.0674666 1.49248 0
M  V30 7387 H 694.14 -2.71529 3.22257 0
M  V30 7388 H 692.815 -2.50961 2.04451 0
M  V30 7389 H 691.722 -0.835274 3.64656 0
M  V30 7390 H 693.055 -1.11815 4.79331 0
M  V30 7391 N 694.707 -1.5719 -0.113559 0
M  V30 7392 C 695.617 -2.04041 -1.15777 0
M  V30 7393 C 696.633 -0.961812 -1.45001 0
M  V30 7394 O 697.809 -1.2737 -1.56009 0
M  V30 7395 C 694.874 -2.43994 -2.46308 0
M  V30 7396 C 693.935 -3.65962 -2.24433 0
M  V30 7397 C 693.168 -4.04 -3.4874 0
M  V30 7398 O 693.391 -3.42321 -4.56259 0
M  V30 7399 O 692.325 -4.97069 -3.3942 0
M  V30 7400 H 696.151 -2.93248 -0.789899 0
M  V30 7401 H 693.736 -1.45828 -0.324748 0
M  V30 7402 H 695.618 -2.70401 -3.23204 0
M  V30 7403 H 694.293 -1.57932 -2.82558 0
M  V30 7404 H 693.2 -3.44697 -1.45377 0
M  V30 7405 H 694.533 -4.52746 -1.93084 0
M  V30 7406 N 696.185 0.383891 -1.52853 0
M  V30 7407 C 697.431 1.13009 -1.68395 0
M  V30 7408 C 697.764 1.89488 -0.425195 0
M  V30 7409 O 697.039 1.8574 0.577136 0
M  V30 7410 C 697.322 2.10419 -2.92226 0
M  V30 7411 C 697.175 1.3767 -4.28214 0
M  V30 7412 C 698.494 3.10781 -3.11614 0
M  V30 7413 H 695.613 0.409463 -0.612788 0
M  V30 7414 H 698.255 0.412895 -1.85459 0
M  V30 7415 H 696.405 2.71579 -2.77808 0
M  V30 7416 H 698.077 0.794352 -4.54409 0
M  V30 7417 H 696.32 0.678533 -4.2846 0
M  V30 7418 H 696.991 2.08874 -5.10956 0
M  V30 7419 H 699.467 2.59715 -3.25096 0
M  V30 7420 H 698.343 3.76179 -3.99725 0
M  V30 7421 H 698.604 3.79933 -2.2606 0
M  V30 7422 N 697.663 1.43903 0.642637 0
M  V30 7423 C 698.888 1.49758 1.43483 0
M  V30 7424 C 699.313 0.119911 1.87717 0
M  V30 7425 O 698.671 -0.888558 1.58033 0
M  V30 7426 C 698.719 2.45744 2.63898 0
M  V30 7427 O 697.823 1.95101 3.63331 0
M  V30 7428 H 697.164 0.506138 0.429791 0
M  V30 7429 H 699.694 1.88923 0.785438 0
M  V30 7430 H 699.704 2.63399 3.11584 0
M  V30 7431 H 698.379 3.45818 2.31046 0
M  V30 7432 H 696.956 1.87158 3.22531 0
M  V30 7433 N 699.141 -0.881989 1.30609 0
M  V30 7434 C 700.389 -1.63082 1.19368 0
M  V30 7435 C 700.71 -1.93376 -0.251147 0
M  V30 7436 O 699.98 -1.5723 -1.16857 0
M  V30 7437 H 698.56 -0.604542 0.438791 0
M  V30 7438 H 701.222 -1.05658 1.63776 0
M  V30 7439 H 700.318 -2.57966 1.7567 0
M  V30 7440 N 700.619 -1.13374 -1.09472 0
M  V30 7441 C 701.847 -0.918351 -1.85402 0
M  V30 7442 C 702.262 0.53281 -1.81126 0
M  V30 7443 O 701.619 1.36879 -1.20708 0
M  V30 7444 C 701.67 -1.39743 -3.33398 0
M  V30 7445 O 701.391 -2.79172 -3.37631 0
M  V30 7446 C 702.892 -1.22042 -4.2617 0
M  V30 7447 H 700.112 -0.327511 -0.585643 0
M  V30 7448 H 702.656 -1.50617 -1.38328 0
M  V30 7449 H 700.811 -0.852619 -3.77901 0
M  V30 7450 H 701.225 -3.00428 -4.29934 0
M  V30 7451 H 702.699 -1.60438 -5.2817 0
M  V30 7452 H 703.176 -0.162047 -4.38901 0
M  V30 7453 H 703.782 -1.75323 -3.87482 0
M  V30 7454 N 702.098 1.27442 -0.927168 0
M  V30 7455 C 703.045 2.26863 -0.424459 0
M  V30 7456 C 704.015 1.5813 0.508346 0
M  V30 7457 O 705.2 1.85946 0.42762 0
M  V30 7458 C 702.34 3.43639 0.31718 0
M  V30 7459 C 701.453 4.27087 -0.649675 0
M  V30 7460 C 700.588 5.31082 0.111753 0
M  V30 7461 C 699.627 6.062 -0.847843 0
M  V30 7462 N 698.764 7.01999 -0.119074 0
M  V30 7463 H 703.604 2.69239 -1.27728 0
M  V30 7464 H 701.141 1.32394 -0.641106 0
M  V30 7465 H 703.099 4.10155 0.763486 0
M  V30 7466 H 701.729 3.02217 1.13424 0
M  V30 7467 H 700.781 3.60491 -1.21451 0
M  V30 7468 H 702.093 4.79242 -1.38307 0
M  V30 7469 H 701.247 6.03544 0.618 0
M  V30 7470 H 699.986 4.7973 0.878114 0
M  V30 7471 H 698.991 5.32577 -1.36534 0
M  V30 7472 H 700.216 6.59642 -1.61398 0
M  V30 7473 H 698.162 6.52977 0.629051 0
M  V30 7474 H 698.079 7.5184 -0.792046 0
M  V30 7475 H 699.347 7.78638 0.366537 0
M  V30 7476 N 703.576 0.692616 1.41565 0
M  V30 7477 C 704.824 0.221896 2.00878 0
M  V30 7478 C 705.145 -1.18164 1.5512 0
M  V30 7479 O 704.415 -1.79679 0.78054 0
M  V30 7480 H 702.995 0.0790463 0.742806 0
M  V30 7481 H 705.657 0.893115 1.73232 0
M  V30 7482 H 704.753 0.23702 3.11199 0
M  V30 7483 N 705.054 -1.51416 0.437162 0
M  V30 7484 C 706.47 -1.59349 0.0894459 0
M  V30 7485 C 706.67 -1.44809 -1.40116 0
M  V30 7486 O 705.726 -1.28924 -2.17106 0
M  V30 7487 C 707.039 -2.9446 0.609398 0
M  V30 7488 C 708.587 -3.07769 0.569824 0
M  V30 7489 C 709.062 -4.45404 1.06675 0
M  V30 7490 N 710.553 -4.51723 1.02473 0
M  V30 7491 C 711.288 -5.56544 1.3801 0
M  V30 7492 N 710.784 -6.68784 1.80831 0
M  V30 7493 N 712.577 -5.46901 1.29828 0
M  V30 7494 H 704.728 -1.59112 1.40703 0
M  V30 7495 H 706.991 -0.750031 0.579791 0
M  V30 7496 H 706.697 -3.1047 1.65231 0
M  V30 7497 H 706.571 -3.77184 0.0342236 0
M  V30 7498 H 708.958 -2.91428 -0.464107 0
M  V30 7499 H 709.039 -2.26885 1.1814 0
M  V30 7500 H 708.683 -4.62492 2.09914 0
M  V30 7501 H 708.613 -5.24827 0.431712 0
M  V30 7502 H 711.104 -3.71165 0.710258 0
M  V30 7503 H 711.417 -7.44787 2.06185 0
M  V30 7504 H 709.762 -6.69992 1.84757 0
M  V30 7505 H 712.953 -4.581 0.962397 0
M  V30 7506 H 713.126 -6.2848 1.57851 0
M  V30 7507 N 706.532 -0.168513 -1.56696 0
M  V30 7508 C 707.464 0.794249 -2.14998 0
M  V30 7509 C 708.477 1.1957 -1.10485 0
M  V30 7510 O 709.666 1.13604 -1.37682 0
M  V30 7511 C 706.766 2.08018 -2.67547 0
M  V30 7512 C 705.939 1.84274 -3.96689 0
M  V30 7513 C 704.998 2.97059 -4.3433 0
M  V30 7514 O 704.024 2.67815 -5.02259 0
M  V30 7515 N 705.226 4.24775 -3.9566 0
M  V30 7516 H 707.991 0.295832 -2.98236 0
M  V30 7517 H 705.552 0.0143611 -1.61894 0
M  V30 7518 H 707.544 2.82559 -2.89729 0
M  V30 7519 H 706.114 2.49059 -1.88914 0
M  V30 7520 H 705.334 0.936528 -3.82914 0
M  V30 7521 H 706.622 1.65773 -4.81037 0
M  V30 7522 H 706.02 4.51395 -3.40968 0
M  V30 7523 H 704.577 4.96027 -4.22848 0
M  V30 7524 N 708.01 1.57248 0.105221 0
M  V30 7525 C 708.92 2.04653 1.14693 0
M  V30 7526 C 709.936 0.969488 1.44489 0
M  V30 7527 O 711.112 1.28196 1.55331 0
M  V30 7528 C 708.177 2.45297 2.45011 0
M  V30 7529 C 707.238 3.67148 2.22489 0
M  V30 7530 C 706.471 4.05844 3.46592 0
M  V30 7531 O 706.694 3.44736 4.54437 0
M  V30 7532 O 705.628 4.98862 3.36779 0
M  V30 7533 H 709.454 2.93663 0.774336 0
M  V30 7534 H 707.039 1.45998 0.31701 0
M  V30 7535 H 708.921 2.72112 3.21766 0
M  V30 7536 H 707.596 1.59429 2.81717 0
M  V30 7537 H 706.503 3.45463 1.43547 0
M  V30 7538 H 707.836 4.53764 1.9068 0
M  V30 7539 N 709.488 -0.375779 1.53054 0
M  V30 7540 C 710.904 -0.716764 1.426 0
M  V30 7541 C 711.104 -1.93651 0.556931 0
M  V30 7542 O 710.16 -2.52475 0.0354461 0
M  V30 7543 C 711.473 -0.939499 2.85646 0
M  V30 7544 C 713.021 -1.04015 2.95212 0
M  V30 7545 C 713.496 -1.29543 4.39298 0
M  V30 7546 N 714.987 -1.36335 4.42682 0
M  V30 7547 C 715.722 -1.57778 5.51266 0
M  V30 7548 N 715.218 -1.76604 6.69913 0
M  V30 7549 N 717.011 -1.60065 5.38828 0
M  V30 7550 H 709.162 0.42664 2.08071 0
M  V30 7551 H 711.425 0.128758 0.939215 0
M  V30 7552 H 711.131 -0.115189 3.51511 0
M  V30 7553 H 711.005 -1.85048 3.2869 0
M  V30 7554 H 713.392 -1.85501 2.29507 0
M  V30 7555 H 713.473 -0.106785 2.55577 0
M  V30 7556 H 713.117 -0.485611 5.05573 0
M  V30 7557 H 713.047 -2.24184 4.76497 0
M  V30 7558 H 715.538 -1.23441 3.5717 0
M  V30 7559 H 715.851 -1.9251 7.48438 0
M  V30 7560 H 714.196 -1.73802 6.72917 0
M  V30 7561 H 717.387 -1.44917 4.45103 0
M  V30 7562 H 717.56 -1.76435 6.23518 0
M  V30 7563 N 710.966 -1.44241 -0.634997 0
M  V30 7564 C 711.914 -1.51103 -1.76835 0
M  V30 7565 C 712.908 -0.383051 -1.65012 0
M  V30 7566 O 714.114 -0.557832 -1.71138 0
M  V30 7567 H 710.489 -0.474076 -0.583743 0
M  V30 7568 H 712.46 -2.46499 -1.68169 0
M  V30 7569 C 711.209 -1.4687 -3.15158 0
M  V30 7570 H 710.532 -2.32979 -3.24901 0
M  V30 7571 H 711.972 -1.55731 -3.94365 0
M  V30 7572 C 710.431 -0.188884 -3.3637 0
M  V30 7573 O 710.961 0.742487 -3.94778 0
M  V30 7574 N 709.167 -0.0932516 -2.9045 0
M  V30 7575 H 708.714 -0.852004 -2.43102 0
M  V30 7576 H 708.672 0.762308 -3.05018 0
M  V30 7577 N 712.444 0.87505 -1.31075 0
M  V30 7578 C 713.721 1.60976 -1.11113 0
M  V30 7579 C 714.101 2.08409 0.336006 0
M  V30 7580 O 713.449 1.85858 1.32924 0
M  V30 7581 C 713.659 2.77166 -2.12085 0
M  V30 7582 C 715.007 3.47254 -2.44335 0
M  V30 7583 O 716.031 2.87367 -2.10472 0
M  V30 7584 O 714.89 4.55276 -3.02301 0
M  V30 7585 H 711.984 0.707982 -0.427424 0
M  V30 7586 H 714.53 0.920957 -1.42536 0
M  V30 7587 H 713.302 2.39494 -3.09449 0
M  V30 7588 H 712.925 3.53737 -1.81538 0
M  V30 7589 N 713.922 1.13953 1.08869 0
M  V30 7590 C 715.171 0.899431 1.80536 0
M  V30 7591 C 715.484 -0.575781 1.86933 0
M  V30 7592 O 716.69 -0.932988 2.54966 0
M  V30 7593 C 715.146 1.55963 3.24351 0
M  V30 7594 C 714.754 3.07077 3.26202 0
M  V30 7595 C 716.498 1.40046 4.00733 0
M  V30 7596 C 714.405 3.65955 4.64576 0
M  V30 7597 H 713.335 0.332849 0.676556 0
M  V30 7598 H 715.986 1.3679 1.22314 0
M  V30 7599 H 714.368 1.01883 3.82669 0
M  V30 7600 H 715.542 3.67785 2.77617 0
M  V30 7601 H 713.857 3.22576 2.63312 0
M  V30 7602 H 716.454 1.81441 5.02974 0
M  V30 7603 H 716.797 0.345993 4.1486 0
M  V30 7604 H 717.33 1.91137 3.48872 0
M  V30 7605 H 714.069 4.71234 4.55652 0
M  V30 7606 H 713.589 3.10027 5.13462 0
M  V30 7607 H 715.268 3.65968 5.33551 0
M  V30 7608 N 715.4 -1.26948 0.933913 0
M  V30 7609 C 716.363 -2.24889 0.442457 0
M  V30 7610 C 717.363 -1.54594 -0.442426 0
M  V30 7611 O 718.553 -1.72502 -0.242629 0
M  V30 7612 C 715.685 -3.3896 -0.363173 0
M  V30 7613 H 716.878 -2.69879 1.30787 0
M  V30 7614 H 714.431 -1.38978 0.715187 0
M  V30 7615 H 715.166 -2.99361 -1.24714 0
M  V30 7616 H 714.951 -3.9116 0.271366 0
M  V30 7617 H 716.441 -4.11739 -0.697186 0
M  V30 7618 N 716.879 -0.700114 -1.41195 0
M  V30 7619 C 717.809 -0.0521132 -2.33442 0
M  V30 7620 C 718.79 0.76228 -1.52063 0
M  V30 7621 O 719.975 0.714336 -1.80585 0
M  V30 7622 C 717.105 0.881693 -3.35922 0
M  V30 7623 C 716.059 0.174062 -4.27646 0
M  V30 7624 C 715.385 1.22254 -5.20536 0
M  V30 7625 C 716.685 -0.962396 -5.13357 0
M  V30 7626 H 718.379 -0.822574 -2.87879 0
M  V30 7627 H 715.925 -0.397011 -1.38419 0
M  V30 7628 H 717.878 1.34429 -3.99383 0
M  V30 7629 H 716.602 1.68387 -2.79845 0
M  V30 7630 H 715.261 -0.268551 -3.65615 0
M  V30 7631 H 714.909 2.01736 -4.60773 0
M  V30 7632 H 714.609 0.754038 -5.82742 0
M  V30 7633 H 716.133 1.68555 -5.86874 0
M  V30 7634 H 717.547 -0.579875 -5.7036 0
M  V30 7635 H 715.944 -1.35828 -5.84526 0
M  V30 7636 H 717.014 -1.80003 -4.50252 0
M  V30 7637 N 718.357 1.51182 -0.445186 0
M  V30 7638 C 719.304 2.27939 0.362291 0
M  V30 7639 C 720.274 1.31864 1.01 0
M  V30 7640 O 721.459 1.60776 1.02741 0
M  V30 7641 C 718.599 3.13016 1.45311 0
M  V30 7642 C 717.712 4.24093 0.822757 0
M  V30 7643 C 716.847 4.96467 1.88928 0
M  V30 7644 C 715.886 5.99454 1.23778 0
M  V30 7645 N 715.023 6.65206 2.24602 0
M  V30 7646 H 719.863 2.965 -0.29862 0
M  V30 7647 H 717.4 1.46237 -0.15911 0
M  V30 7648 H 719.358 3.60673 2.09692 0
M  V30 7649 H 717.988 2.46553 2.08354 0
M  V30 7650 H 717.04 3.80341 0.0670364 0
M  V30 7651 H 718.352 4.97853 0.307184 0
M  V30 7652 H 717.506 5.47712 2.60953 0
M  V30 7653 H 716.245 4.22355 2.4386 0
M  V30 7654 H 715.25 5.47494 0.503042 0
M  V30 7655 H 716.475 6.75527 0.695694 0
M  V30 7656 H 714.421 5.93901 2.78599 0
M  V30 7657 H 714.338 7.34756 1.77958 0
M  V30 7658 H 715.606 7.21078 2.96085 0
M  V30 7659 N 719.835 0.176821 1.56605 0
M  V30 7660 C 721.063 -0.472828 2.01425 0
M  V30 7661 C 721.478 -1.56436 1.05703 0
M  V30 7662 O 720.835 -1.82405 0.058808 0
M  V30 7663 C 720.886 -1.04607 3.46034 0
M  V30 7664 O 720.607 0.00189608 4.381 0
M  V30 7665 C 722.108 -1.7734 4.06282 0
M  V30 7666 H 719.328 -0.120503 0.660091 0
M  V30 7667 H 721.872 0.280166 2.02572 0
M  V30 7668 H 720.027 -1.74953 3.45645 0
M  V30 7669 H 720.441 -0.422118 5.22799 0
M  V30 7670 H 721.915 -2.12703 5.09374 0
M  V30 7671 H 722.392 -2.67043 3.4869 0
M  V30 7672 H 722.998 -1.11623 4.10391 0
M  V30 7673 N 721.313 -1.57302 -0.09688 0
M  V30 7674 C 722.261 -2.02942 -1.13654 0
M  V30 7675 C 723.255 -0.930173 -1.41577 0
M  V30 7676 O 724.461 -1.11535 -1.41279 0
M  V30 7677 H 720.836 -0.646726 -0.383731 0
M  V30 7678 H 722.807 -2.89452 -0.725267 0
M  V30 7679 C 721.556 -2.46815 -2.44903 0
M  V30 7680 H 720.879 -3.30979 -2.24261 0
M  V30 7681 H 722.319 -2.82527 -3.16156 0
M  V30 7682 C 720.778 -1.34071 -3.09074 0
M  V30 7683 O 721.308 -0.668856 -3.96092 0
M  V30 7684 N 719.514 -1.09214 -2.69296 0
M  V30 7685 H 719.061 -1.64029 -1.98626 0
M  V30 7686 H 719.019 -0.339785 -3.12559 0
M  V30 7687 N 722.791 0.367657 -1.53252 0
M  V30 7688 C 724.039 1.10832 -1.68999 0
M  V30 7689 C 724.36 1.89894 -0.443306 0
M  V30 7690 O 723.63 1.88235 0.54262 0
M  V30 7691 H 722.21 0.412153 -0.623008 0
M  V30 7692 H 724.872 0.414775 -1.90435 0
M  V30 7693 H 723.968 1.7993 -2.55013 0
M  V30 7694 N 724.269 1.44576 0.627338 0
M  V30 7695 C 725.546 1.38033 1.38586 0
M  V30 7696 C 725.926 0.0409468 2.1106 0
M  V30 7697 O 725.274 -0.976582 2.0658 0
M  V30 7698 C 725.484 2.58102 2.34913 0
M  V30 7699 C 726.832 3.02332 2.98129 0
M  V30 7700 O 727.856 2.58334 2.45238 0
M  V30 7701 O 726.715 3.78628 3.94085 0
M  V30 7702 H 723.809 0.546801 0.620434 0
M  V30 7703 H 726.355 1.56672 0.652077 0
M  V30 7704 H 725.127 3.4719 1.80485 0
M  V30 7705 H 724.75 2.41696 3.15703 0
M  V30 7706 N 725.747 -0.868086 1.31537 0
M  V30 7707 C 726.679 -1.98165 1.15166 0
M  V30 7708 C 727.692 -1.6255 0.0902335 0
M  V30 7709 O 728.881 -1.75272 0.33791 0
M  V30 7710 C 725.981 -3.30772 0.737776 0
M  V30 7711 C 725.154 -3.94716 1.88462 0
M  V30 7712 C 724.213 -5.05641 1.45648 0
M  V30 7713 O 723.239 -5.2636 2.16642 0
M  V30 7714 N 724.441 -5.79474 0.34493 0
M  V30 7715 H 727.206 -2.12754 2.11083 0
M  V30 7716 H 724.767 -1.04217 1.23897 0
M  V30 7717 H 726.759 -4.02366 0.434032 0
M  V30 7718 H 725.329 -3.1233 -0.129834 0
M  V30 7719 H 724.549 -3.16079 2.35558 0
M  V30 7720 H 725.837 -4.34175 2.65273 0
M  V30 7721 H 725.235 -5.65164 -0.246259 0
M  V30 7722 H 723.792 -6.51722 0.100728 0
M  V30 7723 N 727.225 -1.14528 -1.08264 0
M  V30 7724 C 728.188 -0.83632 -2.13397 0
M  V30 7725 C 729.188 0.159715 -1.60005 0
M  V30 7726 O 730.378 -0.0688098 -1.74064 0
M  V30 7727 C 727.51 -0.246973 -3.40004 0
M  V30 7728 H 728.703 -1.76808 -2.42237 0
M  V30 7729 H 726.256 -0.951509 -1.24 0
M  V30 7730 H 726.991 0.693436 -3.168 0
M  V30 7731 H 726.776 -0.964412 -3.80055 0
M  V30 7732 H 728.266 -0.0480679 -4.17572 0
M  V30 7733 N 728.703 1.26451 -0.940633 0
M  V30 7734 C 729.928 1.98407 -0.60412 0
M  V30 7735 C 730.353 1.69584 0.81382 0
M  V30 7736 O 729.711 0.943553 1.54812 0
M  V30 7737 C 729.759 3.50387 -0.852136 0
M  V30 7738 O 728.863 4.1233 0.076013 0
M  V30 7739 H 728.204 0.622466 -0.231153 0
M  V30 7740 H 730.734 1.60932 -1.26342 0
M  V30 7741 H 730.744 4.00614 -0.772816 0
M  V30 7742 H 729.419 3.70696 -1.88566 0
M  V30 7743 H 727.996 3.7286 -0.0543187 0
M  V30 7744 N 730.181 0.707592 1.40822 0
M  V30 7745 C 731.421 0.247986 2.0289 0
M  V30 7746 C 731.785 -1.13484 1.54872 0
M  V30 7747 O 732.986 -1.69098 2.08948 0
M  V30 7748 C 731.257 0.316326 3.55997 0
M  V30 7749 S 732.816 -0.0674698 4.38748 0
M  V30 7750 H 729.634 0.09895 0.704081 0
M  V30 7751 H 732.236 0.928039 1.72069 0
M  V30 7752 H 730.94 1.32453 3.88438 0
M  V30 7753 H 730.471 -0.382474 3.91536 0
M  V30 7754 H 732.486 -1.29182 4.79089 0
M  V30 7755 N 731.66 -1.50943 0.453197 0
M  V30 7756 C 732.57 -2.31884 -0.355963 0
M  V30 7757 C 733.586 -1.41481 -1.01287 0
M  V30 7758 O 734.762 -1.74546 -1.00477 0
M  V30 7759 C 731.827 -3.15668 -1.43369 0
M  V30 7760 C 730.888 -4.2187 -0.795253 0
M  V30 7761 C 730.121 -5.0165 -1.82162 0
M  V30 7762 O 730.344 -4.82266 -3.04592 0
M  V30 7763 O 729.278 -5.85311 -1.40336 0
M  V30 7764 H 733.104 -3.02162 0.305248 0
M  V30 7765 H 730.689 -1.47839 0.215398 0
M  V30 7766 H 732.571 -3.67709 -2.05836 0
M  V30 7767 H 731.246 -2.48137 -2.07869 0
M  V30 7768 H 730.153 -3.73867 -0.132106 0
M  V30 7769 H 731.486 -4.9182 -0.193484 0
M  V30 7770 N 733.138 -0.185124 -1.56509 0
M  V30 7771 C 734.086 0.756505 -2.19954 0
M  V30 7772 C 735.08 1.22725 -1.16769 0
M  V30 7773 O 736.286 1.1913 -1.34937 0
M  V30 7774 H 732.661 0.262279 -0.704779 0
M  V30 7775 H 734.632 0.197587 -2.97745 0
M  V30 7776 C 733.381 1.96975 -2.86524 0
M  V30 7777 H 732.704 1.61658 -3.65659 0
M  V30 7778 H 734.144 2.60719 -3.34367 0
M  V30 7779 C 732.603 2.80219 -1.87027 0
M  V30 7780 O 733.133 3.77821 -1.36433 0
M  V30 7781 N 731.339 2.4551 -1.55477 0
M  V30 7782 H 730.886 1.66199 -1.96813 0
M  V30 7783 H 730.844 3.01493 -0.891597 0
M  V30 7784 N 734.616 1.57351 0.0885366 0
M  V30 7785 C 735.526 2.05858 1.12516 0
M  V30 7786 C 736.542 0.984758 1.43452 0
M  V30 7787 O 737.718 1.29836 1.53963 0
M  V30 7788 C 734.783 2.47882 2.42395 0
M  V30 7789 C 733.844 3.69487 2.18582 0
M  V30 7790 C 733.077 4.09497 3.42268 0
M  V30 7791 O 733.3 3.49536 4.50755 0
M  V30 7792 O 732.234 5.02406 3.31469 0
M  V30 7793 H 736.06 2.94467 0.743146 0
M  V30 7794 H 733.645 1.46326 0.301507 0
M  V30 7795 H 735.527 2.75509 3.18862 0
M  V30 7796 H 734.202 1.62408 2.8001 0
M  V30 7797 H 733.109 3.46967 1.39875 0
M  V30 7798 H 734.442 4.55761 1.85857 0
M  V30 7799 N 736.094 -0.359525 1.53444 0
M  V30 7800 C 737.024 -1.44662 1.8329 0
M  V30 7801 C 738.005 -1.55617 0.68683 0
M  V30 7802 O 739.19 -1.70086 0.93725 0
M  V30 7803 C 736.32 -2.81923 2.02822 0
M  V30 7804 C 735.274 -2.85787 3.18606 0
M  V30 7805 C 734.6 -4.25781 3.23442 0
M  V30 7806 C 735.9 -2.52762 4.57065 0
M  V30 7807 H 737.594 -1.19934 2.74329 0
M  V30 7808 H 735.14 -0.575517 1.31999 0
M  V30 7809 H 737.093 -3.58005 2.22285 0
M  V30 7810 H 735.817 -3.08051 1.085 0
M  V30 7811 H 734.476 -2.12157 2.98973 0
M  V30 7812 H 734.124 -4.48994 2.26745 0
M  V30 7813 H 733.824 -4.29281 4.01238 0
M  V30 7814 H 735.348 -5.03727 3.45096 0
M  V30 7815 H 736.762 -3.18557 4.76649 0
M  V30 7816 H 735.159 -2.67569 5.37147 0
M  V30 7817 H 736.229 -1.47993 4.61764 0
M  V30 7818 N 737.572 -1.44907 -0.619662 0
M  V30 7819 C 738.502 -1.55488 -1.742 0
M  V30 7820 C 739.483 -0.407143 -1.65156 0
M  V30 7821 O 740.668 -0.628743 -1.8374 0
M  V30 7822 C 737.798 -1.5097 -3.1277 0
M  V30 7823 C 736.752 -2.64337 -3.36615 0
M  V30 7824 C 736.078 -2.44872 -4.75333 0
M  V30 7825 C 737.378 -4.06423 -3.28051 0
M  V30 7826 H 739.072 -2.49432 -1.65602 0
M  V30 7827 H 736.618 -1.20047 -0.795281 0
M  V30 7828 H 738.571 -1.56971 -3.91073 0
M  V30 7829 H 737.295 -0.535486 -3.2218 0
M  V30 7830 H 735.954 -2.57744 -2.60698 0
M  V30 7831 H 735.602 -1.45617 -4.81461 0
M  V30 7832 H 735.302 -3.20888 -4.92244 0
M  V30 7833 H 736.826 -2.52709 -5.55851 0
M  V30 7834 H 738.24 -4.14324 -3.96243 0
M  V30 7835 H 736.637 -4.82733 -3.56495 0
M  V30 7836 H 737.707 -4.29183 -2.25676 0
M  V30 7837 N 739.05 0.861098 -1.31996 0
M  V30 7838 C 739.997 1.96912 -1.20392 0
M  V30 7839 C 740.967 1.65869 -0.0875899 0
M  V30 7840 O 742.152 1.88992 -0.262011 0
M  V30 7841 C 739.292 3.32435 -0.926335 0
M  V30 7842 C 738.405 3.76018 -2.12684 0
M  V30 7843 C 737.54 5.00301 -1.78529 0
M  V30 7844 C 736.579 5.36357 -2.94937 0
M  V30 7845 N 735.716 6.51818 -2.60917 0
M  V30 7846 H 740.556 2.06169 -2.1517 0
M  V30 7847 H 738.093 1.00917 -1.07024 0
M  V30 7848 H 740.051 4.10478 -0.745917 0
M  V30 7849 H 738.681 3.22796 -0.0153578 0
M  V30 7850 H 737.733 2.93683 -2.41774 0
M  V30 7851 H 739.045 3.98664 -2.99781 0
M  V30 7852 H 738.199 5.86034 -1.57001 0
M  V30 7853 H 736.938 4.79578 -0.886356 0
M  V30 7854 H 735.943 4.49139 -3.17103 0
M  V30 7855 H 737.168 5.59041 -3.85552 0
M  V30 7856 H 735.114 6.32624 -1.73558 0
M  V30 7857 H 735.031 6.7445 -3.41544 0
M  V30 7858 H 736.299 7.4072 -2.42804 0
M  V30 7859 N 740.528 1.15101 1.07655 0
M  V30 7860 C 741.775 0.923974 1.80191 0
M  V30 7861 C 742.103 -0.549065 1.86589 0
M  V30 7862 O 741.358 -1.42307 1.3434 0
M  V30 7863 C 741.657 1.47954 3.25337 0
M  V30 7864 C 741.323 2.97253 3.39044 0
M  V30 7865 C 739.985 3.38012 3.42493 0
M  V30 7866 C 742.337 3.93219 3.42094 0
M  V30 7867 C 739.665 4.73384 3.4659 0
M  V30 7868 C 742.017 5.28458 3.47728 0
M  V30 7869 C 740.681 5.68717 3.49453 0
M  V30 7870 H 739.951 0.338106 0.659367 0
M  V30 7871 H 742.598 1.43594 1.26701 0
M  V30 7872 H 740.903 0.888691 3.81588 0
M  V30 7873 H 742.6 1.27972 3.80032 0
M  V30 7874 H 739.19 2.64746 3.37057 0
M  V30 7875 H 743.374 3.62805 3.38654 0
M  V30 7876 H 738.63 5.03925 3.46222 0
M  V30 7877 H 742.804 6.02618 3.49034 0
M  V30 7878 H 740.431 6.73596 3.5238 0
M  V30 7879 N 742.006 -1.2595 0.947325 0
M  V30 7880 C 743.231 -1.98083 0.614633 0
M  V30 7881 C 743.656 -1.70013 -0.804815 0
M  V30 7882 O 743.014 -0.95175 -1.54309 0
M  V30 7883 C 743.062 -3.4993 0.870706 0
M  V30 7884 O 742.166 -4.12364 -0.0541451 0
M  V30 7885 H 741.507 -0.621232 0.234451 0
M  V30 7886 H 744.037 -1.60259 1.27193 0
M  V30 7887 H 744.047 -4.00198 0.794051 0
M  V30 7888 H 742.722 -3.69691 1.90529 0
M  V30 7889 H 741.299 -3.72826 0.0740917 0
M  V30 7890 N 743.484 -0.715051 -1.40445 0
M  V30 7891 C 744.714 -0.263576 -2.04912 0
M  V30 7892 C 745.122 1.09943 -1.53978 0
M  V30 7893 O 744.465 1.70203 -0.691133 0
M  V30 7894 C 744.527 -0.165048 -3.59121 0
M  V30 7895 C 744.191 -1.46325 -4.32941 0
M  V30 7896 C 745.188 -2.40506 -4.60926 0
M  V30 7897 C 742.873 -1.72203 -4.7186 0
M  V30 7898 C 744.867 -3.58812 -5.26814 0
M  V30 7899 C 742.554 -2.9079 -5.3748 0
M  V30 7900 C 743.552 -3.83917 -5.64887 0
M  V30 7901 O 743.24 -5.00424 -6.29151 0
M  V30 7902 H 742.972 -0.116317 -0.665918 0
M  V30 7903 H 745.526 -0.973774 -1.8085 0
M  V30 7904 H 743.756 0.601088 -3.82 0
M  V30 7905 H 745.445 0.251794 -4.05118 0
M  V30 7906 H 746.211 -2.21778 -4.31323 0
M  V30 7907 H 742.09 -1.00571 -4.49896 0
M  V30 7908 H 745.634 -4.31517 -5.48123 0
M  V30 7909 H 741.531 -3.09428 -5.66502 0
M  V30 7910 H 742.299 -5.00494 -6.47648 0
M  V30 7911 N 744.962 1.50701 -0.461195 0
M  V30 7912 C 746.211 2.01458 0.0988277 0
M  V30 7913 C 746.524 1.34863 1.41673 0
M  V30 7914 O 747.73 1.76721 2.06111 0
M  V30 7915 C 746.186 3.59186 0.226648 0
M  V30 7916 C 745.794 4.34732 -1.08223 0
M  V30 7917 C 747.538 4.18015 0.73916 0
M  V30 7918 C 745.445 5.8422 -0.918747 0
M  V30 7919 H 744.375 0.7529 0.040709 0
M  V30 7920 H 747.026 1.736 -0.594589 0
M  V30 7921 H 745.408 3.83589 0.983621 0
M  V30 7922 H 746.582 4.22059 -1.84939 0
M  V30 7923 H 744.897 3.87466 -1.52509 0
M  V30 7924 H 747.494 5.27436 0.878347 0
M  V30 7925 H 747.837 3.78746 1.72793 0
M  V30 7926 H 748.37 3.9778 0.0398469 0
M  V30 7927 H 745.109 6.27944 -1.88059 0
M  V30 7928 H 744.629 5.99493 -0.191801 0
M  V30 7929 H 746.308 6.44382 -0.581405 0
M  V30 7930 N 746.441 0.193421 1.56409 0
M  V30 7931 C 747.857 -0.162447 1.58771 0
M  V30 7932 C 748.057 -1.6116 1.20954 0
M  V30 7933 O 747.113 -2.3469 0.931497 0
M  V30 7934 C 748.426 0.138391 3.00381 0
M  V30 7935 C 749.974 0.0783649 3.12902 0
M  V30 7936 C 750.449 0.352491 4.56642 0
M  V30 7937 N 751.94 0.30105 4.62221 0
M  V30 7938 C 752.675 0.487028 5.71328 0
M  V30 7939 N 752.171 0.733265 6.88909 0
M  V30 7940 N 753.964 0.4214 5.60518 0
M  V30 7941 H 746.115 1.13909 1.79272 0
M  V30 7942 H 748.378 0.454528 0.83193 0
M  V30 7943 H 748.084 1.14312 3.32604 0
M  V30 7944 H 747.958 -0.559804 3.73023 0
M  V30 7945 H 750.345 -0.916963 2.80492 0
M  V30 7946 H 750.426 0.809611 2.4265 0
M  V30 7947 H 750.07 1.34513 4.89764 0
M  V30 7948 H 750 -0.399624 5.25081 0
M  V30 7949 H 752.491 0.117279 3.77718 0
M  V30 7950 H 752.804 0.86403 7.67955 0
M  V30 7951 H 751.149 0.770138 6.9072 0
M  V30 7952 H 754.34 0.229461 4.67537 0
M  V30 7953 H 754.513 0.569758 6.4549 0
M  V30 7954 N 747.919 -1.57396 -0.0801906 0
M  V30 7955 C 749.147 -1.91055 -0.794075 0
M  V30 7956 C 749.562 -0.788583 -1.71542 0
M  V30 7957 O 748.919 0.238587 -1.80934 0
M  V30 7958 C 748.97 -3.24418 -1.59484 0
M  V30 7959 O 748.691 -4.323 -0.710532 0
M  V30 7960 C 750.192 -3.72037 -2.41046 0
M  V30 7961 H 747.412 -0.63171 -0.226238 0
M  V30 7962 H 749.956 -2.04431 -0.0529685 0
M  V30 7963 H 748.111 -3.12595 -2.2883 0
M  V30 7964 H 748.525 -5.08976 -1.26663 0
M  V30 7965 H 749.999 -4.68006 -2.92702 0
M  V30 7966 H 750.476 -3.00624 -3.2019 0
M  V30 7967 H 751.082 -3.86777 -1.76871 0
M  V30 7968 N 749.397 0.351382 -1.53633 0
M  V30 7969 C 750.622 1.11718 -1.74739 0
M  V30 7970 C 751.047 1.81829 -0.481657 0
M  V30 7971 O 750.405 1.72264 0.565233 0
M  V30 7972 C 750.453 2.11234 -2.92254 0
M  V30 7973 O 749.557 3.186 -2.61855 0
M  V30 7974 H 748.898 0.323482 -0.579875 0
M  V30 7975 H 751.428 0.404167 -2.00568 0
M  V30 7976 H 751.438 2.54591 -3.18822 0
M  V30 7977 H 750.113 1.59599 -3.84058 0
M  V30 7978 H 748.69 2.80115 -2.4615 0
M  V30 7979 N 750.875 1.45233 0.611969 0
M  V30 7980 C 752.122 1.49021 1.37109 0
M  V30 7981 C 752.45 0.130227 1.94064 0
M  V30 7982 O 751.705 -0.870551 1.75271 0
M  V30 7983 C 752.004 2.51353 2.54079 0
M  V30 7984 C 751.67 3.96178 2.15299 0
M  V30 7985 C 750.332 4.35614 2.04436 0
M  V30 7986 C 752.684 4.87275 1.84966 0
M  V30 7987 C 750.012 5.64047 1.61456 0
M  V30 7988 C 752.364 6.16115 1.43474 0
M  V30 7989 C 751.028 6.54486 1.31167 0
M  V30 7990 H 750.298 0.545307 0.501719 0
M  V30 7991 H 752.945 1.78555 0.692122 0
M  V30 7992 H 751.25 2.15372 3.27295 0
M  V30 7993 H 752.947 2.51523 3.12309 0
M  V30 7994 H 749.537 3.6499 2.24678 0
M  V30 7995 H 753.721 4.57548 1.92258 0
M  V30 7996 H 748.977 5.92575 1.50547 0
M  V30 7997 H 753.151 6.86149 1.19048 0
M  V30 7998 H 750.778 7.53904 0.97637 0
M  V30 7999 N 752.353 -0.854086 1.3245 0
M  V30 8000 C 753.63 -1.59188 1.1366 0
M  V30 8001 C 754.01 -2.08917 -0.302807 0
M  V30 8002 O 753.358 -1.8795 -1.29951 0
M  V30 8003 C 753.568 -2.73757 2.16467 0
M  V30 8004 C 754.916 -3.43323 2.49829 0
M  V30 8005 O 755.94 -2.83983 2.15017 0
M  V30 8006 O 754.799 -4.50409 3.09506 0
M  V30 8007 H 751.893 -0.701092 0.438633 0
M  V30 8008 H 754.439 -0.898165 1.43983 0
M  V30 8009 H 753.211 -2.3454 3.1322 0
M  V30 8010 H 752.834 -3.50804 1.87142 0
M  V30 8011 N 753.831 -1.1567 -1.07043 0
M  V30 8012 C 754.778 -0.856336 -2.14326 0
M  V30 8013 C 755.748 0.192051 -1.64986 0
M  V30 8014 O 756.933 0.0589148 -1.90709 0
M  V30 8015 C 754.073 -0.355227 -3.43267 0
M  V30 8016 C 753.186 -1.46555 -4.06381 0
M  V30 8017 C 752.321 -0.920245 -5.23168 0
M  V30 8018 C 751.36 -2.00729 -5.78251 0
M  V30 8019 N 750.497 -1.47813 -6.86364 0
M  V30 8020 H 755.337 -1.77514 -2.39359 0
M  V30 8021 H 752.874 -0.885676 -1.17449 0
M  V30 8022 H 754.832 -0.0463804 -4.17174 0
M  V30 8023 H 753.462 0.526649 -3.18475 0
M  V30 8024 H 752.514 -1.89052 -3.30096 0
M  V30 8025 H 753.826 -2.28616 -4.43324 0
M  V30 8026 H 752.98 -0.564127 -6.04072 0
M  V30 8027 H 751.719 -0.0688477 -4.87651 0
M  V30 8028 H 750.724 -2.3722 -4.95991 0
M  V30 8029 H 751.949 -2.86252 -6.15822 0
M  V30 8030 H 749.895 -0.649145 -6.5278 0
M  V30 8031 H 749.812 -2.23498 -7.22208 0
M  V30 8032 H 751.08 -1.15036 -7.70965 0
M  V30 8033 N 755.309 1.25446 -0.953992 0
M  V30 8034 C 756.558 1.92441 -0.604101 0
M  V30 8035 C 756.871 1.75543 0.862796 0
M  V30 8036 O 758.077 2.37106 1.32262 0
M  V30 8037 C 756.533 3.44854 -1.02974 0
M  V30 8038 C 756.141 3.70464 -2.51914 0
M  V30 8039 C 757.885 4.1778 -0.752352 0
M  V30 8040 C 755.792 5.1638 -2.88281 0
M  V30 8041 H 754.722 0.720508 -0.222227 0
M  V30 8042 H 757.373 1.42318 -1.15836 0
M  V30 8043 H 755.755 3.93935 -0.403904 0
M  V30 8044 H 756.929 3.32038 -3.19511 0
M  V30 8045 H 755.244 3.10797 -2.77117 0
M  V30 8046 H 757.841 5.25261 -1.00024 0
M  V30 8047 H 758.184 4.15135 0.311212 0
M  V30 8048 H 758.717 3.74605 -1.33851 0
M  V30 8049 H 755.456 5.24135 -3.93653 0
M  V30 8050 H 754.976 5.55855 -2.25357 0
M  V30 8051 H 756.655 5.84497 -2.77439 0
M  V30 8052 N 756.787 0.722489 1.40064 0
M  V30 8053 C 757.717 0.0892452 2.33329 0
M  V30 8054 C 758.698 -0.737992 1.53257 0
M  V30 8055 O 759.883 -0.685516 1.81698 0
M  V30 8056 C 757.013 -0.828139 3.37282 0
M  V30 8057 C 755.967 -0.106005 4.27869 0
M  V30 8058 C 755.293 -1.13957 5.22415 0
M  V30 8059 C 756.593 1.04395 5.11761 0
M  V30 8060 H 758.287 0.868269 2.86534 0
M  V30 8061 H 755.833 0.418982 1.3777 0
M  V30 8062 H 757.786 -1.28058 4.01471 0
M  V30 8063 H 756.51 -1.63914 2.82489 0
M  V30 8064 H 755.169 0.326683 3.65142 0
M  V30 8065 H 754.817 -1.9438 4.63924 0
M  V30 8066 H 754.517 -0.661233 5.83868 0
M  V30 8067 H 756.041 -1.59197 5.89482 0
M  V30 8068 H 757.455 0.670541 5.69365 0
M  V30 8069 H 755.852 1.4511 5.82291 0
M  V30 8070 H 756.922 1.87144 4.47331 0
M  V30 8071 N 758.265 -1.50454 0.469181 0
M  V30 8072 C 759.195 -2.31353 -0.31592 0
M  V30 8073 C 760.176 -1.38172 -0.992094 0
M  V30 8074 O 761.361 -1.67093 -0.989633 0
M  V30 8075 C 758.491 -3.1786 -1.39937 0
M  V30 8076 C 757.445 -4.19578 -0.844909 0
M  V30 8077 C 756.771 -4.9481 -2.0265 0
M  V30 8078 C 758.071 -5.22106 0.142499 0
M  V30 8079 H 759.765 -2.97237 0.359269 0
M  V30 8080 H 757.311 -1.42942 0.174224 0
M  V30 8081 H 759.264 -3.7325 -1.95607 0
M  V30 8082 H 757.988 -2.49858 -2.1033 0
M  V30 8083 H 756.647 -3.65285 -0.310189 0
M  V30 8084 H 756.295 -4.23282 -2.71737 0
M  V30 8085 H 755.995 -5.63613 -1.66174 0
M  V30 8086 H 757.519 -5.53035 -2.58815 0
M  V30 8087 H 758.933 -5.72378 -0.324966 0
M  V30 8088 H 757.33 -5.98618 0.421441 0
M  V30 8089 H 758.4 -4.7297 1.06901 0
M  V30 8090 N 759.743 -0.201713 -1.56304 0
M  V30 8091 C 761.159 0.154025 -1.58855 0
M  V30 8092 C 761.359 1.60516 -1.21807 0
M  V30 8093 O 760.415 2.34193 -0.94393 0
M  V30 8094 C 761.728 -0.154319 -3.00304 0
M  V30 8095 C 763.276 -0.0949578 -3.12856 0
M  V30 8096 C 763.751 -0.376703 -4.56448 0
M  V30 8097 N 765.242 -0.325558 -4.62054 0
M  V30 8098 C 765.977 -0.51732 -5.71062 0
M  V30 8099 N 765.473 -0.769789 -6.8851 0
M  V30 8100 N 767.266 -0.45112 -5.60287 0
M  V30 8101 H 759.417 -1.14858 -1.78666 0
M  V30 8102 H 761.68 -0.458934 -0.829508 0
M  V30 8103 H 761.386 -1.16074 -3.31994 0
M  V30 8104 H 761.26 0.540014 -3.73314 0
M  V30 8105 H 763.647 0.902075 -2.80974 0
M  V30 8106 H 763.728 -0.822468 -2.42217 0
M  V30 8107 H 763.372 -1.37108 -4.89044 0
M  V30 8108 H 763.302 0.371772 -5.25286 0
M  V30 8109 H 765.793 -0.137308 -3.7765 0
M  V30 8110 H 766.106 -0.904744 -7.67486 0
M  V30 8111 H 764.451 -0.806758 -6.90302 0
M  V30 8112 H 767.642 -0.254253 -4.67409 0
M  V30 8113 H 767.815 -0.603982 -6.45179 0
M  V30 8114 N 761.222 1.57436 0.0718424 0
M  V30 8115 C 762.468 1.88388 0.766904 0
M  V30 8116 C 762.823 0.7954 1.75189 0
M  V30 8117 O 762.116 -0.200438 1.90549 0
M  V30 8118 C 762.31 3.23723 1.51455 0
M  V30 8119 C 762.139 4.45632 0.603475 0
M  V30 8120 C 760.909 5.04728 0.240437 0
M  V30 8121 C 763.107 5.14203 -0.0997624 0
M  V30 8122 N 761.089 6.10163 -0.676363 0
M  V30 8123 C 762.46 6.13812 -0.873755 0
M  V30 8124 C 764.515 4.97605 -0.171238 0
M  V30 8125 C 763.218 6.98615 -1.71258 0
M  V30 8126 C 765.244 5.82935 -0.997041 0
M  V30 8127 C 764.606 6.82082 -1.75908 0
M  V30 8128 H 760.705 0.738888 0.256064 0
M  V30 8129 H 763.289 1.94679 0.0284273 0
M  V30 8130 H 761.46 3.1844 2.22375 0
M  V30 8131 H 763.192 3.42324 2.15862 0
M  V30 8132 H 759.947 4.69869 0.593284 0
M  V30 8133 H 760.371 6.67537 -1.12801 0
M  V30 8134 H 765.013 4.20869 0.403586 0
M  V30 8135 H 762.731 7.74726 -2.29838 0
M  V30 8136 H 766.317 5.72149 -1.05532 0
M  V30 8137 H 765.197 7.46964 -2.38778 0
M  V30 8138 N 762.7 -0.34323 1.53817 0
M  V30 8139 C 763.61 -1.44493 1.84821 0
M  V30 8140 C 764.626 -1.57556 0.738381 0
M  V30 8141 O 765.802 -1.73026 1.03072 0
M  V30 8142 C 762.867 -2.79478 2.05166 0
M  V30 8143 C 761.928 -2.75756 3.29025 0
M  V30 8144 C 761.161 -4.04302 3.4839 0
M  V30 8145 O 761.384 -5.01595 2.71586 0
M  V30 8146 O 760.318 -4.08754 4.41819 0
M  V30 8147 H 764.144 -1.21209 2.78464 0
M  V30 8148 H 761.729 -0.535437 1.39476 0
M  V30 8149 H 763.611 -3.59419 2.19991 0
M  V30 8150 H 762.286 -3.02692 1.14713 0
M  V30 8151 H 761.193 -1.94434 3.19603 0
M  V30 8152 H 762.526 -2.57495 4.19472 0
M  V30 8153 N 764.178 -1.45556 -0.604258 0
M  V30 8154 C 765.589 -1.44171 -1.18624 0
M  V30 8155 C 765.94 -0.171081 -1.95453 0
M  V30 8156 O 765.065 0.727156 -2.03817 0
M  V30 8157 C 765.66 -2.61193 -2.15786 0
M  V30 8158 C 764.219 -2.62918 -2.69353 0
M  V30 8159 C 763.366 -2.36479 -1.4482 0
M  V30 8160 H 766.317 -1.53747 -0.393381 0
M  V30 8161 H 766.338 -2.35481 -2.98879 0
M  V30 8162 H 765.85 -3.53656 -1.59841 0
M  V30 8163 H 763.951 -1.7447 -3.29228 0
M  V30 8164 H 764.064 -3.6224 -3.13559 0
M  V30 8165 H 762.428 -1.86103 -1.73891 0
M  V30 8166 H 763.211 -3.31091 -0.907376 0
M  V30 8167 N 765.656 0.84705 -1.32902 0
M  V30 8168 C 766.886 1.63166 -1.26729 0
M  V30 8169 C 767.294 1.88474 0.165595 0
M  V30 8170 O 766.637 1.45947 1.11558 0
M  V30 8171 C 766.699 3.0103 -1.96522 0
M  V30 8172 C 766.363 2.9873 -3.45846 0
M  V30 8173 C 767.36 2.75032 -4.41196 0
M  V30 8174 C 765.045 3.19125 -3.87898 0
M  V30 8175 C 767.039 2.71743 -5.76571 0
M  V30 8176 C 764.726 3.15462 -5.2338 0
M  V30 8177 C 765.724 2.91801 -6.17528 0
M  V30 8178 O 765.412 2.88027 -7.5053 0
M  V30 8179 H 765.144 0.51469 -0.438258 0
M  V30 8180 H 767.698 1.06383 -1.75704 0
M  V30 8181 H 765.928 3.59634 -1.42128 0
M  V30 8182 H 767.617 3.61821 -1.83958 0
M  V30 8183 H 768.383 2.59034 -4.10032 0
M  V30 8184 H 764.262 3.36565 -3.15032 0
M  V30 8185 H 767.806 2.53194 -6.5003 0
M  V30 8186 H 763.703 3.31006 -5.54171 0
M  V30 8187 H 764.471 3.03927 -7.59981 0
M  V30 8188 N 767.134 1.16236 1.06428 0
M  V30 8189 C 768.38 0.954417 1.79617 0
M  V30 8190 C 768.735 -0.512411 1.85451 0
M  V30 8191 O 768.028 -1.37523 1.33409 0
M  V30 8192 C 768.222 1.51396 3.2375 0
M  V30 8193 C 768.051 3.03367 3.31962 0
M  V30 8194 C 766.821 3.71996 3.41975 0
M  V30 8195 C 769.019 4.01075 3.21937 0
M  V30 8196 N 767.001 5.11688 3.39187 0
M  V30 8197 C 768.372 5.27142 3.26376 0
M  V30 8198 C 770.427 3.92917 3.05812 0
M  V30 8199 C 769.13 6.46 3.16348 0
M  V30 8200 C 771.156 5.11344 2.97121 0
M  V30 8201 C 770.518 6.36291 3.02181 0
M  V30 8202 H 766.617 0.403007 0.670156 0
M  V30 8203 H 769.201 1.47605 1.26968 0
M  V30 8204 H 767.372 1.01883 3.74799 0
M  V30 8205 H 769.104 1.2439 3.85109 0
M  V30 8206 H 765.859 3.22623 3.46715 0
M  V30 8207 H 766.283 5.84676 3.41297 0
M  V30 8208 H 770.925 2.97172 3.00746 0
M  V30 8209 H 768.643 7.41968 3.2017 0
M  V30 8210 H 772.229 5.06801 2.85734 0
M  V30 8211 H 771.109 7.26389 2.95513 0
M  V30 8212 N 768.612 -1.24939 0.960631 0
M  V30 8213 C 770.023 -1.74701 0.658529 0
M  V30 8214 C 770.374 -1.77967 -0.825959 0
M  V30 8215 O 769.499 -1.40444 -1.64634 0
M  V30 8216 C 770.094 -3.17263 1.18867 0
M  V30 8217 C 768.653 -3.64561 0.936614 0
M  V30 8218 C 767.8 -2.43423 1.32817 0
M  V30 8219 H 770.751 -1.10741 1.13676 0
M  V30 8220 H 770.772 -3.76481 0.551589 0
M  V30 8221 H 770.284 -3.14854 2.26912 0
M  V30 8222 H 768.385 -3.72378 -0.128608 0
M  V30 8223 H 768.498 -4.52392 1.57729 0
M  V30 8224 H 766.862 -2.43513 0.746548 0
M  V30 8225 H 767.645 -2.437 2.41796 0
M  V30 8226 N 770.09 -0.729906 -1.39679 0
M  V30 8227 C 771.501 -0.346241 -1.83461 0
M  V30 8228 C 771.852 1.1215 -1.60987 0
M  V30 8229 O 770.977 1.86456 -1.09832 0
M  V30 8230 C 771.572 -0.621656 -3.33048 0
M  V30 8231 C 770.131 -0.291543 -3.75269 0
M  V30 8232 C 769.278 -0.886844 -2.62736 0
M  V30 8233 H 772.229 -0.927949 -1.28743 0
M  V30 8234 H 772.25 0.108301 -3.80346 0
M  V30 8235 H 771.762 -1.68996 -3.49373 0
M  V30 8236 H 769.863 0.771133 -3.64533 0
M  V30 8237 H 769.976 -0.770544 -4.72863 0
M  V30 8238 H 768.34 -0.313839 -2.52759 0
M  V30 8239 H 769.123 -1.95971 -2.81869 0
M  V30 8240 N 771.568 1.50203 -0.477153 0
M  V30 8241 C 772.845 1.95115 0.137609 0
M  V30 8242 C 773.225 1.41778 1.56404 0
M  V30 8243 O 772.573 0.621333 2.1989 0
M  V30 8244 C 772.783 3.4892 0.0747168 0
M  V30 8245 C 774.131 4.238 0.260585 0
M  V30 8246 O 775.155 3.5588 0.151021 0
M  V30 8247 O 774.014 5.44366 0.482534 0
M  V30 8248 H 771.108 0.81987 0.108364 0
M  V30 8249 H 773.654 1.60946 -0.537989 0
M  V30 8250 H 772.426 3.80308 -0.920966 0
M  V30 8251 H 772.049 3.89642 0.791509 0
M  V30 8252 N 773.046 0.209999 1.56195 0
M  V30 8253 C 774.293 -0.424813 1.97994 0
M  V30 8254 C 774.621 -1.60589 1.09733 0
M  V30 8255 O 773.876 -1.95201 0.139693 0
M  V30 8256 C 774.175 -0.91312 3.45539 0
M  V30 8257 C 773.841 0.156187 4.50629 0
M  V30 8258 C 772.503 0.449966 4.79092 0
M  V30 8259 C 774.855 0.879959 5.13718 0
M  V30 8260 C 772.183 1.47223 5.67928 0
M  V30 8261 C 774.535 1.89148 6.0366 0
M  V30 8262 C 773.199 2.1923 6.30472 0
M  V30 8263 H 772.469 -0.15545 0.724511 0
M  V30 8264 H 775.116 0.310095 1.88973 0
M  V30 8265 H 773.421 -1.72658 3.51705 0
M  V30 8266 H 775.118 -1.41395 3.75245 0
M  V30 8267 H 771.708 -0.0829466 4.2852 0
M  V30 8268 H 775.892 0.66623 4.91808 0
M  V30 8269 H 771.148 1.71105 5.86969 0
M  V30 8270 H 775.322 2.45745 6.516 0
M  V30 8271 H 772.949 2.98587 6.99107 0
M  V30 8272 N 774.524 -1.57472 -0.0634922 0
M  V30 8273 C 775.94 -1.54016 -0.418466 0
M  V30 8274 C 776.14 -0.931376 -1.78683 0
M  V30 8275 O 775.196 -0.537465 -2.46714 0
M  V30 8276 C 776.509 -2.98634 -0.351906 0
M  V30 8277 C 778.057 -3.10012 -0.431494 0
M  V30 8278 C 778.532 -4.56296 -0.394754 0
M  V30 8279 N 780.023 -4.60964 -0.454583 0
M  V30 8280 C 780.758 -5.71643 -0.448501 0
M  V30 8281 N 780.254 -6.91663 -0.396742 0
M  V30 8282 N 782.047 -5.5991 -0.495677 0
M  V30 8283 H 774.198 -1.95409 0.832408 0
M  V30 8284 H 776.461 -0.894769 0.313197 0
M  V30 8285 H 776.167 -3.46766 0.587048 0
M  V30 8286 H 776.041 -3.58955 -1.15893 0
M  V30 8287 H 778.428 -2.61848 -1.36087 0
M  V30 8288 H 778.509 -2.52585 0.404258 0
M  V30 8289 H 778.153 -5.05119 0.530811 0
M  V30 8290 H 778.083 -5.11594 -1.24815 0
M  V30 8291 H 780.574 -3.74598 -0.498496 0
M  V30 8292 H 780.887 -7.71783 -0.396256 0
M  V30 8293 H 779.232 -6.9405 -0.363304 0
M  V30 8294 H 782.423 -4.65046 -0.533864 0
M  V30 8295 H 782.596 -6.46164 -0.487469 0
M  V30 8296 N 776.003 0.335068 -1.53997 0
M  V30 8297 C 777.28 1.09188 -1.62288 0
M  V30 8298 C 777.66 2.0626 -0.449458 0
M  V30 8299 O 777.008 2.21596 0.557444 0
M  V30 8300 C 777.218 1.80403 -2.98757 0
M  V30 8301 C 778.566 2.33841 -3.54406 0
M  V30 8302 O 779.59 1.90487 -3.00987 0
M  V30 8303 O 778.449 3.1318 -4.47862 0
M  V30 8304 H 775.543 0.502621 -0.656736 0
M  V30 8305 H 778.089 0.33588 -1.66343 0
M  V30 8306 H 776.861 1.09732 -3.75599 0
M  V30 8307 H 776.484 2.62841 -2.9833 0
M  V30 8308 N 777.481 1.45874 0.596531 0
M  V30 8309 C 778.411 1.5824 1.71705 0
M  V30 8310 C 779.392 0.433366 1.64487 0
M  V30 8311 O 780.577 0.657895 1.82717 0
M  V30 8312 C 777.707 1.55927 3.10329 0
M  V30 8313 C 776.661 2.69659 3.32367 0
M  V30 8314 C 775.987 2.52403 4.71377 0
M  V30 8315 C 777.287 4.11591 3.21544 0
M  V30 8316 H 778.981 2.52035 1.61613 0
M  V30 8317 H 776.527 1.21297 0.776082 0
M  V30 8318 H 778.48 1.63173 3.88526 0
M  V30 8319 H 777.204 0.586674 3.21288 0
M  V30 8320 H 775.863 2.61859 2.56564 0
M  V30 8321 H 775.511 1.53258 4.79083 0
M  V30 8322 H 775.211 3.28679 4.87077 0
M  V30 8323 H 776.735 2.6152 5.5176 0
M  V30 8324 H 778.149 4.20576 3.89601 0
M  V30 8325 H 776.546 4.88344 3.4877 0
M  V30 8326 H 777.616 4.32719 2.1882 0
M  V30 8327 N 778.959 -0.83999 1.33349 0
M  V30 8328 C 779.889 -1.965 1.26135 0
M  V30 8329 C 780.87 -1.69505 0.142152 0
M  V30 8330 O 782.055 -1.91346 0.331743 0
M  V30 8331 C 779.185 -3.32632 0.99866 0
M  V30 8332 C 778.139 -3.74021 2.08068 0
M  V30 8333 C 777.465 -5.07947 1.67014 0
M  V30 8334 C 778.765 -3.87925 3.49731 0
M  V30 8335 H 780.459 -2.02793 2.20262 0
M  V30 8336 H 778.005 -0.974297 1.06035 0
M  V30 8337 H 779.958 -4.10903 0.934696 0
M  V30 8338 H 778.682 -3.26593 0.0217759 0
M  V30 8339 H 777.341 -2.98012 2.13505 0
M  V30 8340 H 776.989 -4.98378 0.680316 0
M  V30 8341 H 776.689 -5.36611 2.39422 0
M  V30 8342 H 778.213 -5.88695 1.62082 0
M  V30 8343 H 779.627 -4.5651 3.46802 0
M  V30 8344 H 778.024 -4.28023 4.20614 0
M  V30 8345 H 779.094 -2.90407 3.88319 0
M  V30 8346 N 780.437 -1.16799 -1.0581 0
M  V30 8347 C 781.685 -0.950642 -1.78346 0
M  V30 8348 C 782.006 0.522524 -1.87869 0
M  V30 8349 O 781.276 1.3795 -1.39092 0
M  V30 8350 H 779.856 -0.348736 -0.6606 0
M  V30 8351 H 782.518 -1.47158 -1.27791 0
M  V30 8352 H 781.614 -1.37359 -2.80248 0
M  V30 8353 N 781.915 1.24427 -0.967243 0
M  V30 8354 C 783.162 1.92487 -0.62888 0
M  V30 8355 C 783.49 1.75623 0.835871 0
M  V30 8356 O 782.745 1.1027 1.61675 0
M  V30 8357 C 783.044 3.44568 -0.949096 0
M  V30 8358 C 782.71 3.816 -2.40192 0
M  V30 8359 C 781.372 3.9142 -2.799 0
M  V30 8360 C 783.724 3.99715 -3.34481 0
M  V30 8361 C 781.052 4.16771 -4.12939 0
M  V30 8362 C 783.404 4.26562 -4.67148 0
M  V30 8363 C 782.068 4.34601 -5.06634 0
M  V30 8364 H 781.338 0.704361 -0.230124 0
M  V30 8365 H 783.985 1.4772 -1.21864 0
M  V30 8366 H 782.29 3.90819 -0.277085 0
M  V30 8367 H 783.987 3.95436 -0.665692 0
M  V30 8368 H 780.577 3.74522 -2.08402 0
M  V30 8369 H 784.761 3.91531 -3.04987 0
M  V30 8370 H 780.017 4.21214 -4.43158 0
M  V30 8371 H 784.191 4.39523 -5.40178 0
M  V30 8372 H 781.818 4.53998 -6.09746 0
M  V30 8373 N 783.393 0.737304 1.3929 0
M  V30 8374 C 784.326 0.0475454 2.2815 0
M  V30 8375 C 785.304 -0.745314 1.44512 0
M  V30 8376 O 786.488 -0.727387 1.739 0
M  V30 8377 C 783.615 -0.939803 3.254 0
M  V30 8378 C 782.661 -0.235153 4.25851 0
M  V30 8379 S 783.494 1.05252 5.25055 0
M  V30 8380 C 784.65 0.0678242 6.25863 0
M  V30 8381 H 784.883 0.801117 2.86303 0
M  V30 8382 H 782.416 0.529197 1.45048 0
M  V30 8383 H 784.374 -1.50417 3.81949 0
M  V30 8384 H 783.035 -1.66623 2.66262 0
M  V30 8385 H 782.228 -0.982336 4.94334 0
M  V30 8386 H 781.83 0.257245 3.73114 0
M  V30 8387 H 784.122 -0.771779 6.7309 0
M  V30 8388 H 785.065 0.719858 7.04431 0
M  V30 8389 H 785.473 -0.305604 5.63672 0
M  V30 8390 N 784.871 -1.49948 0.485112 0
M  V30 8391 C 785.801 -2.31675 -0.291364 0
M  V30 8392 C 786.782 -1.39216 -0.977383 0
M  V30 8393 O 787.967 -1.68133 -0.971855 0
M  V30 8394 C 785.097 -3.19326 -1.36558 0
M  V30 8395 C 784.051 -4.2045 -0.800359 0
M  V30 8396 C 783.377 -4.96931 -1.97391 0
M  V30 8397 C 784.677 -5.21925 0.197867 0
M  V30 8398 H 786.371 -2.96839 0.390775 0
M  V30 8399 H 783.917 -1.42749 0.189375 0
M  V30 8400 H 785.87 -3.75304 -1.91638 0
M  V30 8401 H 784.594 -2.52074 -2.07668 0
M  V30 8402 H 783.253 -3.65594 -0.271428 0
M  V30 8403 H 782.901 -4.26141 -2.67232 0
M  V30 8404 H 782.601 -5.65344 -1.60187 0
M  V30 8405 H 784.125 -5.55749 -2.52935 0
M  V30 8406 H 785.539 -5.72691 -0.264239 0
M  V30 8407 H 783.936 -5.98138 0.484908 0
M  V30 8408 H 785.006 -4.71809 1.11912 0
M  V30 8409 N 786.349 -0.21828 -1.56081 0
M  V30 8410 C 787.596 0.414307 -1.98216 0
M  V30 8411 C 787.924 1.60005 -1.10584 0
M  V30 8412 O 787.179 1.95124 -0.150043 0
M  V30 8413 C 787.478 0.894782 -3.46018 0
M  V30 8414 C 787.144 -0.180083 -4.5054 0
M  V30 8415 C 785.806 -0.475367 -4.78846 0
M  V30 8416 C 788.158 -0.907191 -5.13244 0
M  V30 8417 C 785.486 -1.50233 -5.67139 0
M  V30 8418 C 787.838 -1.92347 -6.02649 0
M  V30 8419 C 786.502 -2.22571 -6.293 0
M  V30 8420 H 785.772 0.151606 -0.725325 0
M  V30 8421 H 788.419 -0.320113 -1.88806 0
M  V30 8422 H 786.724 1.7079 -3.52616 0
M  V30 8423 H 788.421 1.39403 -3.75989 0
M  V30 8424 H 785.011 0.06022 -4.28558 0
M  V30 8425 H 789.195 -0.692303 -4.91448 0
M  V30 8426 H 784.451 -1.74215 -5.86054 0
M  V30 8427 H 788.625 -2.49197 -6.50288 0
M  V30 8428 H 786.252 -3.0229 -6.97513 0
M  V30 8429 N 787.827 1.57504 0.0551401 0
M  V30 8430 C 789.057 1.92015 0.762472 0
M  V30 8431 C 789.465 0.814088 1.7079 0
M  V30 8432 O 788.808 -0.220273 1.82375 0
M  V30 8433 C 788.87 3.22132 1.59598 0
M  V30 8434 C 788.534 4.49617 0.818141 0
M  V30 8435 C 789.531 5.19738 0.129933 0
M  V30 8436 C 787.216 4.96201 0.780387 0
M  V30 8437 C 789.21 6.34704 -0.585616 0
M  V30 8438 C 786.897 6.11069 0.0610756 0
M  V30 8439 C 787.895 6.80174 -0.62071 0
M  V30 8440 O 787.583 7.92849 -1.3284 0
M  V30 8441 H 787.315 0.638866 0.220967 0
M  V30 8442 H 789.869 2.05385 0.0246362 0
M  V30 8443 H 788.099 3.05016 2.37701 0
M  V30 8444 H 789.788 3.42166 2.18351 0
M  V30 8445 H 790.554 4.84767 0.150299 0
M  V30 8446 H 786.433 4.42275 1.30054 0
M  V30 8447 H 789.977 6.88578 -1.11833 0
M  V30 8448 H 785.874 6.45488 0.0386945 0
M  V30 8449 H 786.642 8.09062 -1.23938 0
M  V30 8450 N 789.305 -0.326896 1.54172 0
M  V30 8451 C 790.252 -1.40216 1.83325 0
M  V30 8452 C 791.222 -1.51538 0.680107 0
M  V30 8453 O 792.407 -1.66811 0.926206 0
M  V30 8454 C 789.547 -2.76626 2.0633 0
M  V30 8455 C 788.66 -2.73963 3.34019 0
M  V30 8456 C 787.795 -4.02198 3.47002 0
M  V30 8457 C 786.834 -3.93828 4.68578 0
M  V30 8458 N 785.971 -5.13787 4.78506 0
M  V30 8459 H 790.811 -1.14656 2.7506 0
M  V30 8460 H 788.348 -0.555089 1.36225 0
M  V30 8461 H 790.306 -3.55922 2.17659 0
M  V30 8462 H 788.936 -3.00503 1.1789 0
M  V30 8463 H 787.988 -1.86677 3.31445 0
M  V30 8464 H 789.3 -2.6366 4.2342 0
M  V30 8465 H 788.454 -4.89923 3.57855 0
M  V30 8466 H 787.193 -4.15302 2.55687 0
M  V30 8467 H 786.198 -3.04487 4.57786 0
M  V30 8468 H 787.423 -3.82292 5.61275 0
M  V30 8469 H 785.369 -5.27403 3.90105 0
M  V30 8470 H 785.286 -5.05807 5.61868 0
M  V30 8471 H 786.554 -6.03236 4.93686 0
M  V30 8472 N 790.784 -1.46188 -0.588786 0
M  V30 8473 C 791.694 -1.58865 -1.72624 0
M  V30 8474 C 792.71 -0.472348 -1.67466 0
M  V30 8475 O 793.886 -0.735638 -1.87484 0
M  V30 8476 C 790.951 -1.56989 -3.0912 0
M  V30 8477 C 790.012 -2.79804 -3.25589 0
M  V30 8478 C 789.245 -2.78009 -4.55573 0
M  V30 8479 O 789.468 -1.86406 -5.39082 0
M  V30 8480 O 788.402 -3.6947 -4.75159 0
M  V30 8481 H 792.228 -2.55047 -1.64878 0
M  V30 8482 H 789.813 -1.28912 -0.755115 0
M  V30 8483 H 791.695 -1.58618 -3.90408 0
M  V30 8484 H 790.37 -0.639648 -3.17317 0
M  V30 8485 H 789.277 -2.83732 -2.43818 0
M  V30 8486 H 790.61 -3.72017 -3.22279 0
M  V30 8487 N 792.262 0.832906 -1.33792 0
M  V30 8488 C 793.225 1.92471 -1.24449 0
M  V30 8489 C 794.225 1.59981 -0.162085 0
M  V30 8490 O 795.415 1.69208 -0.414029 0
M  V30 8491 C 792.547 3.28278 -0.919044 0
M  V30 8492 H 793.74 2.0218 -2.21502 0
M  V30 8493 H 791.293 1.0257 -1.17936 0
M  V30 8494 H 792.028 3.24263 0.048738 0
M  V30 8495 H 791.813 3.53241 -1.70187 0
M  V30 8496 H 793.303 4.08253 -0.878576 0
M  V30 8497 N 793.74 1.17359 1.05189 0
M  V30 8498 C 795.151 0.96793 1.5965 0
M  V30 8499 C 795.502 -0.485355 1.90102 0
M  V30 8500 O 794.627 -1.36066 1.6827 0
M  V30 8501 C 795.222 1.75068 2.90063 0
M  V30 8502 C 793.781 1.58969 3.41183 0
M  V30 8503 C 792.928 1.75231 2.14917 0
M  V30 8504 H 795.879 1.32067 0.880001 0
M  V30 8505 H 795.9 1.23308 3.59966 0
M  V30 8506 H 795.412 2.80835 2.67868 0
M  V30 8507 H 793.513 0.556906 3.68415 0
M  V30 8508 H 793.626 2.38067 4.15766 0
M  V30 8509 H 791.99 1.18073 2.25679 0
M  V30 8510 H 792.773 2.8241 1.95191 0
M  V30 8511 N 795.218 -1.23913 0.973828 0
M  V30 8512 C 796.448 -1.95911 0.655938 0
M  V30 8513 C 796.856 -1.72375 -0.779967 0
M  V30 8514 O 796.199 -1.00807 -1.5357 0
M  V30 8515 C 796.261 -3.49103 0.858324 0
M  V30 8516 C 795.925 -3.96347 2.27504 0
M  V30 8517 C 796.922 -4.05537 3.25324 0
M  V30 8518 C 794.607 -4.29509 2.60437 0
M  V30 8519 C 796.601 -4.47233 4.5416 0
M  V30 8520 C 794.288 -4.70887 3.89498 0
M  V30 8521 C 795.286 -4.79714 4.86172 0
M  V30 8522 O 794.974 -5.20166 6.1293 0
M  V30 8523 H 794.706 -0.630721 0.243244 0
M  V30 8524 H 797.26 -1.58534 1.30599 0
M  V30 8525 H 795.49 -3.86405 0.151097 0
M  V30 8526 H 797.179 -4.02311 0.538592 0
M  V30 8527 H 797.945 -3.80128 3.0121 0
M  V30 8528 H 793.824 -4.21853 1.85906 0
M  V30 8529 H 797.368 -4.54038 5.29618 0
M  V30 8530 H 793.265 -4.95744 4.1341 0
M  V30 8531 H 794.033 -5.38298 6.16586 0
M  V30 8532 N 796.696 -0.74468 -1.38897 0
M  V30 8533 C 797.628 -0.0713608 -2.29089 0
M  V30 8534 C 798.641 0.693224 -1.47303 0
M  V30 8535 O 799.83 0.535785 -1.70269 0
M  V30 8536 C 796.93 0.923078 -3.26087 0
M  V30 8537 C 796.103 0.217998 -4.36856 0
M  V30 8538 C 795.162 1.12192 -5.14101 0
M  V30 8539 O 794.188 0.595771 -5.66073 0
M  V30 8540 N 795.39 2.45082 -5.26227 0
M  V30 8541 H 798.155 -0.845906 -2.87514 0
M  V30 8542 H 795.716 -0.594712 -1.50581 0
M  V30 8543 H 797.708 1.53061 -3.74639 0
M  V30 8544 H 796.278 1.59876 -2.68623 0
M  V30 8545 H 795.498 -0.570134 -3.90055 0
M  V30 8546 H 796.786 -0.270248 -5.08082 0
M  V30 8547 H 796.184 2.90294 -4.85537 0
M  V30 8548 H 794.741 3.00907 -5.78185 0
M  V30 8549 N 798.174 1.49689 -0.493057 0
M  V30 8550 C 799.122 2.30613 0.303383 0
M  V30 8551 C 800.116 1.38867 0.970165 0
M  V30 8552 O 801.322 1.55956 0.898761 0
M  V30 8553 H 797.697 0.742891 0.116691 0
M  V30 8554 H 799.668 2.95717 -0.39924 0
M  V30 8555 C 798.417 3.20008 1.35978 0
M  V30 8556 H 797.74 3.90526 0.856103 0
M  V30 8557 H 799.18 3.79586 1.88919 0
M  V30 8558 C 797.639 2.39079 2.37367 0
M  V30 8559 O 798.169 2.08933 3.43089 0
M  V30 8560 N 796.375 2.0125 2.09635 0
M  V30 8561 H 795.922 2.25966 1.23682 0
M  V30 8562 H 795.88 1.47408 2.77702 0
M  V30 8563 N 799.652 0.226554 1.55963 0
M  V30 8564 C 800.898 -0.404387 1.98727 0
M  V30 8565 C 801.231 -1.59059 1.11418 0
M  V30 8566 O 800.506 -1.93729 0.172971 0
M  V30 8567 C 800.789 -0.834081 3.50307 0
M  V30 8568 C 800.642 0.356104 4.48388 0
M  V30 8569 C 801.961 -1.68845 4.06423 0
M  V30 8570 H 799.08 -0.145515 0.722492 0
M  V30 8571 H 801.722 0.323791 1.87221 0
M  V30 8572 H 799.872 -1.45454 3.60244 0
M  V30 8573 H 801.544 0.99432 4.50456 0
M  V30 8574 H 799.787 1.0027 4.22053 0
M  V30 8575 H 800.458 0.0124333 5.51999 0
M  V30 8576 H 802.934 -1.16489 3.99461 0
M  V30 8577 H 801.81 -1.958 5.1279 0
M  V30 8578 H 802.071 -2.65347 3.53615 0
M  V30 8579 N 801.13 -1.57531 -0.0467866 0
M  V30 8580 C 802.358 -1.92696 -0.753371 0
M  V30 8581 C 802.773 -0.824792 -1.69831 0
M  V30 8582 O 802.13 0.200155 -1.81399 0
M  V30 8583 C 802.181 -3.27728 -1.52566 0
M  V30 8584 O 801.902 -4.3371 -0.618674 0
M  V30 8585 C 803.403 -3.77066 -2.33101 0
M  V30 8586 H 800.623 -0.636367 -0.212788 0
M  V30 8587 H 803.167 -2.04498 -0.00959361 0
M  V30 8588 H 801.322 -3.17378 -2.22148 0
M  V30 8589 H 801.736 -5.11548 -1.15839 0
M  V30 8590 H 803.21 -4.74109 -2.82709 0
M  V30 8591 H 803.687 -3.07348 -3.13741 0
M  V30 8592 H 804.293 -3.90442 -1.68628 0
M  V30 8593 N 802.608 0.318715 -1.54344 0
M  V30 8594 C 803.518 1.41535 -1.87097 0
M  V30 8595 C 804.534 1.56361 -0.763353 0
M  V30 8596 O 805.71 1.71365 -1.05811 0
M  V30 8597 C 802.775 2.76178 -2.09587 0
M  V30 8598 C 801.836 2.70486 -3.3337 0
M  V30 8599 C 801.069 3.98708 -3.54778 0
M  V30 8600 O 801.292 4.9721 -2.79532 0
M  V30 8601 O 800.226 4.01674 -4.48266 0
M  V30 8602 H 804.052 1.16764 -2.80357 0
M  V30 8603 H 801.637 0.51318 -1.4031 0
M  V30 8604 H 803.519 3.55873 -2.25682 0
M  V30 8605 H 802.194 3.00829 -1.19514 0
M  V30 8606 H 801.101 1.89325 -3.22656 0
M  V30 8607 H 802.434 2.50789 -4.23516 0
M  V30 8608 N 804.086 1.46499 0.581025 0
M  V30 8609 C 805.333 1.51896 1.33918 0
M  V30 8610 C 805.661 0.171361 1.93744 0
M  V30 8611 O 804.916 -0.833178 1.77078 0
M  V30 8612 C 805.215 2.56686 2.48691 0
M  V30 8613 C 804.881 4.00656 2.06847 0
M  V30 8614 C 803.543 4.39852 1.9515 0
M  V30 8615 C 805.895 4.91089 1.74589 0
M  V30 8616 C 803.223 5.67345 1.49456 0
M  V30 8617 C 805.575 6.1902 1.30373 0
M  V30 8618 C 804.239 6.57121 1.17255 0
M  V30 8619 H 803.509 0.555826 0.490039 0
M  V30 8620 H 806.156 1.79983 0.654092 0
M  V30 8621 H 804.461 2.22266 3.22653 0
M  V30 8622 H 806.158 2.58091 3.06904 0
M  V30 8623 H 802.748 3.69674 2.16886 0
M  V30 8624 H 806.932 4.61523 1.8251 0
M  V30 8625 H 802.188 5.95635 1.37944 0
M  V30 8626 H 806.362 6.8852 1.04467 0
M  V30 8627 H 803.989 7.55805 0.816236 0
M  V30 8628 N 805.565 -0.825799 1.34232 0
M  V30 8629 C 806.842 -1.56741 1.17011 0
M  V30 8630 C 807.222 -2.09512 -0.258425 0
M  V30 8631 O 806.57 -1.90664 -1.25935 0
M  V30 8632 C 806.78 -2.69104 2.22225 0
M  V30 8633 C 808.128 -3.37947 2.57055 0
M  V30 8634 O 809.152 -2.79358 2.20992 0
M  V30 8635 O 808.011 -4.43743 3.1899 0
M  V30 8636 H 805.105 -0.69163 0.453405 0
M  V30 8637 H 807.651 -0.867422 1.45856 0
M  V30 8638 H 806.423 -2.27844 3.18124 0
M  V30 8639 H 806.046 -3.46756 1.94541 0
M  V30 8640 N 807.043 -1.17915 -1.04565 0
M  V30 8641 C 808.291 -0.969505 -1.77327 0
M  V30 8642 C 808.612 0.502569 -1.88412 0
M  V30 8643 O 807.882 1.36467 -1.40547 0
M  V30 8644 H 806.462 -0.355723 -0.656864 0
M  V30 8645 H 809.124 -1.48506 -1.26223 0
M  V30 8646 H 808.22 -1.40324 -2.78775 0
M  V30 8647 N 808.521 1.23394 -0.980386 0
M  V30 8648 C 809.453 2.24146 -0.478657 0
M  V30 8649 C 810.466 1.57303 0.419492 0
M  V30 8650 O 811.655 1.77094 0.223631 0
M  V30 8651 C 808.755 3.3732 0.326913 0
M  V30 8652 C 807.928 4.33744 -0.56436 0
M  V30 8653 C 806.987 5.25866 0.187358 0
M  V30 8654 O 806.013 5.67626 -0.423019 0
M  V30 8655 N 807.215 5.61492 1.47335 0
M  V30 8656 H 809.98 2.67826 -1.34496 0
M  V30 8657 H 807.541 1.37566 -0.853653 0
M  V30 8658 H 809.533 3.95926 0.838148 0
M  V30 8659 H 808.103 2.92823 1.09422 0
M  V30 8660 H 807.323 3.73641 -1.25642 0
M  V30 8661 H 808.611 4.95123 -1.17177 0
M  V30 8662 H 808.009 5.29514 1.99077 0
M  V30 8663 H 806.566 6.2257 1.93002 0
M  V30 8664 N 809.999 0.752036 1.385 0
M  V30 8665 C 811.276 0.233075 1.94206 0
M  V30 8666 C 811.656 -1.26838 1.68746 0
M  V30 8667 O 811.004 -2.04214 1.02513 0
M  V30 8668 C 811.214 0.58509 3.44061 0
M  V30 8669 C 812.562 0.543871 4.21102 0
M  V30 8670 O 813.586 0.523291 3.52335 0
M  V30 8671 O 812.445 0.553436 5.4369 0
M  V30 8672 H 809.539 0.0483049 0.825588 0
M  V30 8673 H 812.085 0.832053 1.47902 0
M  V30 8674 H 810.857 1.62212 3.56094 0
M  V30 8675 H 810.48 -0.0419738 3.97578 0
M  V30 8676 N 811.477 -1.49425 0.500989 0
M  V30 8677 C 812.44 -2.27646 -0.266416 0
M  V30 8678 C 813.44 -1.3366 -0.893961 0
M  V30 8679 O 814.63 -1.5682 -0.758495 0
M  V30 8680 C 811.762 -3.11618 -1.38227 0
M  V30 8681 H 812.955 -2.96945 0.419973 0
M  V30 8682 H 810.508 -1.5419 0.255954 0
M  V30 8683 H 811.243 -2.46885 -2.10281 0
M  V30 8684 H 811.028 -3.80721 -0.937746 0
M  V30 8685 H 812.518 -3.70698 -1.92283 0
M  V30 8686 N 812.955 -0.234822 -1.55841 0
M  V30 8687 C 814.195 0.394944 -2.00548 0
M  V30 8688 C 814.559 1.56002 -1.11926 0
M  V30 8689 O 815.76 2.2567 -1.46037 0
M  V30 8690 C 814.031 0.805896 -3.48195 0
M  V30 8691 S 815.59 1.4279 -4.14918 0
M  V30 8692 H 812.408 0.124802 -0.699961 0
M  V30 8693 H 815.01 -0.347224 -1.92392 0
M  V30 8694 H 813.714 -0.0515271 -4.10368 0
M  V30 8695 H 813.245 1.58055 -3.60253 0
M  V30 8696 H 815.26 2.71699 -4.15204 0
M  V30 8697 N 814.433 1.57553 0.0384317 0
M  V30 8698 C 815.681 1.88468 0.729672 0
M  V30 8699 C 816.002 0.831302 1.76393 0
M  V30 8700 O 815.272 -0.13622 1.95426 0
M  V30 8701 H 813.852 0.695529 0.272485 0
M  V30 8702 H 816.514 1.94899 0.0066032 0
M  V30 8703 H 815.61 2.8705 1.22511 0
M  V30 8704 N 815.911 -0.310526 1.54511 0
M  V30 8705 C 817.136 -1.07046 1.7764 0
M  V30 8706 C 817.561 -1.80488 0.529696 0
M  V30 8707 O 816.919 -1.73702 -0.519361 0
M  V30 8708 C 816.967 -2.03411 2.97752 0
M  V30 8709 O 816.071 -3.11545 2.7021 0
M  V30 8710 H 815.412 -0.307994 0.588248 0
M  V30 8711 H 817.942 -0.350848 2.01569 0
M  V30 8712 H 817.952 -2.46048 3.2546 0
M  V30 8713 H 816.627 -1.49361 3.88155 0
M  V30 8714 H 815.204 -2.7349 2.53491 0
M  V30 8715 N 817.389 -1.46805 -0.573248 0
M  V30 8716 C 818.337 -1.58468 -1.70267 0
M  V30 8717 C 819.331 -0.452694 -1.63239 0
M  V30 8718 O 820.537 -0.629915 -1.68618 0
M  V30 8719 H 816.912 -0.498408 -0.56311 0
M  V30 8720 H 818.883 -2.5341 -1.57563 0
M  V30 8721 C 817.632 -1.60104 -3.08645 0
M  V30 8722 H 816.955 -2.4655 -3.14727 0
M  V30 8723 H 818.395 -1.72318 -3.87405 0
M  V30 8724 C 816.854 -0.33138 -3.35266 0
M  V30 8725 O 817.384 0.57438 -3.97572 0
M  V30 8726 N 815.59 -0.216358 -2.89793 0
M  V30 8727 H 815.137 -0.954345 -2.3927 0
M  V30 8728 H 815.095 0.632253 -3.07977 0
M  V30 8729 N 818.867 0.818669 -1.34668 0
M  V30 8730 C 820.092 1.61193 -1.30505 0
M  V30 8731 C 820.517 1.87734 0.117341 0
M  V30 8732 O 819.875 1.45591 1.08042 0
M  V30 8733 C 819.923 2.92733 -2.1057 0
M  V30 8734 O 819.027 3.85 -1.47813 0
M  V30 8735 H 818.368 0.490085 -0.44801 0
M  V30 8736 H 820.898 1.01701 -1.77534 0
M  V30 8737 H 820.908 3.42262 -2.22082 0
M  V30 8738 H 819.583 2.7274 -3.13984 0
M  V30 8739 H 818.16 3.43525 -1.45069 0
M  V30 8740 N 820.346 1.18468 1.03938 0
M  V30 8741 C 821.592 0.992302 1.77553 0
M  V30 8742 C 821.947 -0.472959 1.86496 0
M  V30 8743 O 821.24 -1.34662 1.36296 0
M  V30 8744 C 821.434 1.58229 3.20466 0
M  V30 8745 C 821.263 3.1034 3.25452 0
M  V30 8746 C 820.033 3.79166 3.34008 0
M  V30 8747 C 822.231 4.07814 3.13357 0
M  V30 8748 N 820.213 5.18768 3.28258 0
M  V30 8749 C 821.584 5.33946 3.15121 0
M  V30 8750 C 823.639 3.99315 2.97409 0
M  V30 8751 C 822.342 6.52565 3.02574 0
M  V30 8752 C 824.368 5.17532 2.86208 0
M  V30 8753 C 823.73 6.42557 2.88617 0
M  V30 8754 H 819.829 0.417131 0.661457 0
M  V30 8755 H 822.413 1.50265 1.23808 0
M  V30 8756 H 820.584 1.0981 3.72554 0
M  V30 8757 H 822.316 1.32531 3.82384 0
M  V30 8758 H 819.071 3.29905 3.39794 0
M  V30 8759 H 819.495 5.91783 3.28818 0
M  V30 8760 H 824.137 3.03485 2.94375 0
M  V30 8761 H 821.855 7.48592 3.0436 0
M  V30 8762 H 825.441 5.12748 2.7492 0
M  V30 8763 H 824.321 7.32494 2.80039 0
M  V30 8764 N 821.824 -1.22873 0.986916 0
M  V30 8765 C 823.052 -1.95487 0.677663 0
M  V30 8766 C 823.467 -1.72978 -0.756572 0
M  V30 8767 O 822.824 -1.02517 -1.50985 0
M  V30 8768 C 822.875 -3.48337 0.966638 0
M  V30 8769 O 822.596 -3.70087 2.34451 0
M  V30 8770 C 824.097 -4.38142 0.674248 0
M  V30 8771 H 821.317 -0.622211 0.251185 0
M  V30 8772 H 823.861 -1.56187 1.32007 0
M  V30 8773 H 822.016 -3.85628 0.370137 0
M  V30 8774 H 822.43 -4.64332 2.43918 0
M  V30 8775 H 823.904 -5.44165 0.926759 0
M  V30 8776 H 824.381 -4.3745 -0.391728 0
M  V30 8777 H 824.987 -4.06469 1.25152 0
M  V30 8778 N 823.302 -0.75937 -1.38099 0
M  V30 8779 C 824.548 -0.318584 -2.00282 0
M  V30 8780 C 824.881 1.09854 -1.60143 0
M  V30 8781 O 824.156 1.75344 -0.841702 0
M  V30 8782 C 824.439 -0.448047 -3.57302 0
M  V30 8783 C 824.292 -1.9067 -4.07388 0
M  V30 8784 C 825.611 0.155119 -4.39827 0
M  V30 8785 H 822.73 -0.117233 -0.727616 0
M  V30 8786 H 825.372 -0.960097 -1.63958 0
M  V30 8787 H 823.522 0.0981003 -3.88376 0
M  V30 8788 H 825.194 -2.5116 -3.86932 0
M  V30 8789 H 823.437 -2.41979 -3.6004 0
M  V30 8790 H 824.108 -1.94841 -5.1647 0
M  V30 8791 H 826.584 -0.31073 -4.14938 0
M  V30 8792 H 825.46 0.0343264 -5.48889 0
M  V30 8793 H 825.721 1.24407 -4.24235 0
M  V30 8794 N 824.78 1.49157 -0.508906 0
M  V30 8795 C 826.026 2.02773 0.0328469 0
M  V30 8796 C 826.359 1.38714 1.35912 0
M  V30 8797 O 825.634 0.525536 1.87266 0
M  V30 8798 C 825.917 3.59664 0.177088 0
M  V30 8799 C 825.77 4.34239 -1.17287 0
M  V30 8800 C 827.089 4.30505 0.913977 0
M  V30 8801 H 824.208 0.736926 0.0104631 0
M  V30 8802 H 826.85 1.781 -0.661851 0
M  V30 8803 H 825 3.80818 0.768774 0
M  V30 8804 H 826.672 4.24561 -1.80404 0
M  V30 8805 H 824.915 3.96486 -1.76016 0
M  V30 8806 H 825.586 5.42397 -1.02516 0
M  V30 8807 H 828.062 4.14054 0.412084 0
M  V30 8808 H 826.938 5.40012 0.983759 0
M  V30 8809 H 827.199 3.96302 1.95951 0
M  V30 8810 N 826.258 0.243083 1.55714 0
M  V30 8811 C 827.535 -0.432851 1.90751 0
M  V30 8812 C 827.915 -1.76153 1.16333 0
M  V30 8813 O 827.263 -2.26783 0.279565 0
M  V30 8814 C 827.473 -0.604685 3.43722 0
M  V30 8815 C 828.821 -0.90231 4.14902 0
M  V30 8816 O 829.845 -0.690689 3.49439 0
M  V30 8817 O 828.704 -1.3051 5.30688 0
M  V30 8818 H 825.798 -0.231835 0.79384 0
M  V30 8819 H 828.344 0.286867 1.67258 0
M  V30 8820 H 827.116 0.331655 3.89892 0
M  V30 8821 H 826.739 -1.37509 3.73065 0
M  V30 8822 N 827.736 -1.57571 -0.0300757 0
M  V30 8823 C 828.985 -1.88407 -0.720126 0
M  V30 8824 C 829.298 -0.841466 -1.76575 0
M  V30 8825 O 830.504 -1.03902 -2.50832 0
M  V30 8826 C 828.96 -3.34348 -1.33188 0
M  V30 8827 C 828.568 -4.46837 -0.32266 0
M  V30 8828 C 830.312 -3.74333 -2.00187 0
M  V30 8829 C 828.219 -5.83838 -0.942703 0
M  V30 8830 H 827.149 -0.702952 -0.272718 0
M  V30 8831 H 829.8 -1.83482 0.0255337 0
M  V30 8832 H 828.182 -3.34014 -2.12721 0
M  V30 8833 H 829.356 -4.58638 0.445887 0
M  V30 8834 H 827.671 -4.15678 0.245181 0
M  V30 8835 H 830.268 -4.74008 -2.47428 0
M  V30 8836 H 830.611 -3.06275 -2.81959 0
M  V30 8837 H 831.144 -3.76837 -1.2743 0
M  V30 8838 H 827.883 -6.55294 -0.164413 0
M  V30 8839 H 827.403 -5.75759 -1.68111 0
M  V30 8840 H 829.082 -6.30535 -1.45034 0
M  V30 8841 N 829.214 0.302327 -1.54673 0
M  V30 8842 C 830.491 1.05721 -1.64567 0
M  V30 8843 C 830.871 2.0526 -0.493108 0
M  V30 8844 O 830.219 2.22729 0.510315 0
M  V30 8845 C 830.429 1.74025 -3.02517 0
M  V30 8846 C 831.777 2.26271 -3.59286 0
M  V30 8847 O 832.801 1.8406 -3.0496 0
M  V30 8848 O 831.66 3.0361 -4.54404 0
M  V30 8849 H 828.754 0.488577 -0.667249 0
M  V30 8850 H 831.3 0.300521 -1.67018 0
M  V30 8851 H 830.072 1.0174 -3.77842 0
M  V30 8852 H 829.695 2.56454 -3.03838 0
M  V30 8853 N 830.692 1.47107 0.565454 0
M  V30 8854 C 832.103 1.47266 1.1476 0
M  V30 8855 C 832.454 0.222841 1.9493 0
M  V30 8856 O 831.579 -0.672862 2.05673 0
M  V30 8857 C 832.174 2.66822 2.08785 0
M  V30 8858 C 830.733 2.69967 2.62288 0
M  V30 8859 C 829.88 2.40236 1.38499 0
M  V30 8860 H 832.831 1.54736 0.352479 0
M  V30 8861 H 832.852 2.43323 2.92531 0
M  V30 8862 H 832.364 3.5777 1.50408 0
M  V30 8863 H 830.465 1.83137 3.24487 0
M  V30 8864 H 830.578 3.70426 3.03845 0
M  V30 8865 H 828.942 1.90648 1.68895 0
M  V30 8866 H 829.725 3.33381 0.819274 0
M  V30 8867 N 832.17 -0.811516 1.35101 0
M  V30 8868 C 833.581 -1.38515 1.25182 0
M  V30 8869 C 833.932 -1.95846 -0.117883 0
M  V30 8870 O 833.057 -1.90925 -1.01866 0
M  V30 8871 C 833.652 -2.51813 2.26662 0
M  V30 8872 C 832.211 -3.05052 2.20499 0
M  V30 8873 C 831.358 -1.77987 2.12641 0
M  V30 8874 H 834.309 -0.614959 1.46301 0
M  V30 8875 H 834.33 -3.30228 1.89023 0
M  V30 8876 H 833.842 -2.10057 3.2634 0
M  V30 8877 H 831.943 -3.51285 1.24215 0
M  V30 8878 H 832.056 -3.63368 3.1225 0
M  V30 8879 H 830.42 -1.99342 1.5854 0
M  V30 8880 H 831.203 -1.38389 3.14171 0
M  V30 8881 N 833.648 -1.19017 -1.03309 0
M  V30 8882 C 834.578 -0.94772 -2.13402 0
M  V30 8883 C 835.559 0.117383 -1.69694 0
M  V30 8884 O 836.744 -0.0367733 -1.94165 0
M  V30 8885 C 833.874 -0.480977 -3.43953 0
M  V30 8886 C 832.828 -1.48743 -4.01322 0
M  V30 8887 C 832.154 -0.877924 -5.27443 0
M  V30 8888 C 833.454 -2.86642 -4.36616 0
M  V30 8889 H 835.148 -1.86846 -2.33942 0
M  V30 8890 H 832.694 -0.899781 -1.12427 0
M  V30 8891 H 834.647 -0.298677 -4.2034 0
M  V30 8892 H 833.371 0.475348 -3.23122 0
M  V30 8893 H 832.03 -1.65681 -3.27025 0
M  V30 8894 H 831.678 0.0858232 -5.02927 0
M  V30 8895 H 831.378 -1.54996 -5.66789 0
M  V30 8896 H 832.902 -0.706326 -6.06501 0
M  V30 8897 H 834.316 -2.73312 -5.03958 0
M  V30 8898 H 832.713 -3.50599 -4.87032 0
M  V30 8899 H 833.783 -3.39617 -3.46105 0
M  V30 8900 N 835.127 1.22348 -0.993418 0
M  V30 8901 C 836.543 1.43222 -0.704238 0
M  V30 8902 C 836.743 1.88009 0.724909 0
M  V30 8903 O 835.799 2.03429 1.49575 0
M  V30 8904 C 837.112 2.47328 -1.71025 0
M  V30 8905 C 838.66 2.61126 -1.72576 0
M  V30 8906 C 839.135 3.68453 -2.72041 0
M  V30 8907 N 840.626 3.75911 -2.70639 0
M  V30 8908 C 841.361 4.58551 -3.44266 0
M  V30 8909 N 840.857 5.45179 -4.27495 0
M  V30 8910 N 842.65 4.52866 -3.32969 0
M  V30 8911 H 834.801 0.915832 -1.91641 0
M  V30 8912 H 837.064 0.464283 -0.826526 0
M  V30 8913 H 836.77 2.21366 -2.73295 0
M  V30 8914 H 836.644 3.45939 -1.50353 0
M  V30 8915 H 839.031 2.86431 -0.710037 0
M  V30 8916 H 839.112 1.62787 -1.97317 0
M  V30 8917 H 838.756 3.43895 -3.73763 0
M  V30 8918 H 838.686 4.66362 -2.4457 0
M  V30 8919 H 841.177 3.14014 -2.10247 0
M  V30 8920 H 841.49 6.0526 -4.80499 0
M  V30 8921 H 839.835 5.44759 -4.31582 0
M  V30 8922 H 843.026 3.84215 -2.67389 0
M  V30 8923 H 843.199 5.17039 -3.90608 0
M  V30 8924 N 836.605 0.766683 1.37694 0
M  V30 8925 C 837.83 0.338715 2.04615 0
M  V30 8926 C 838.255 -1.02918 1.57447 0
M  V30 8927 O 837.613 -1.65849 0.732386 0
M  V30 8928 C 837.661 0.385284 3.58536 0
M  V30 8929 O 836.765 -0.616081 4.07772 0
M  V30 8930 H 836.106 0.147527 0.647404 0
M  V30 8931 H 838.636 1.04146 1.7611 0
M  V30 8932 H 838.646 0.240782 4.07289 0
M  V30 8933 H 837.321 1.38325 3.92223 0
M  V30 8934 H 835.898 -0.435115 3.70353 0
M  V30 8935 N 838.083 -1.48885 0.516809 0
M  V30 8936 C 839.031 -2.31066 -0.266656 0
M  V30 8937 C 840.025 -1.40393 -0.94795 0
M  V30 8938 O 841.231 -1.57366 -0.873836 0
M  V30 8939 H 837.606 -0.744654 -0.104858 0
M  V30 8940 H 839.577 -2.95045 0.446236 0
M  V30 8941 C 838.326 -3.22131 -1.3087 0
M  V30 8942 H 837.649 -3.91839 -0.793865 0
M  V30 8943 H 839.089 -3.82544 -1.82856 0
M  V30 8944 C 837.548 -2.42825 -2.33533 0
M  V30 8945 O 838.078 -2.14364 -3.39722 0
M  V30 8946 N 836.284 -2.04559 -2.06407 0
M  V30 8947 H 835.831 -2.27905 -1.20071 0
M  V30 8948 H 835.789 -1.51807 -2.75322 0
M  V30 8949 N 839.561 -0.251338 -1.55583 0
M  V30 8950 C 840.838 0.422729 -1.90977 0
M  V30 8951 C 841.218 1.75534 -1.17265 0
M  V30 8952 O 840.566 2.26632 -0.291588 0
M  V30 8953 C 840.776 0.586448 -3.44037 0
M  V30 8954 C 842.124 0.880294 -4.15375 0
M  V30 8955 O 843.148 0.672148 -3.49801 0
M  V30 8956 O 842.007 1.27694 -5.31372 0
M  V30 8957 H 839.101 0.227622 -0.795058 0
M  V30 8958 H 841.647 -0.295733 -1.67103 0
M  V30 8959 H 840.419 -0.352327 -3.89711 0
M  V30 8960 H 840.042 1.35528 -3.73789 0
M  V30 8961 N 841.039 1.57585 0.0217189 0
M  V30 8962 C 842.45 1.7787 0.567377 0
M  V30 8963 C 842.801 0.883337 1.7519 0
M  V30 8964 O 841.926 0.0800819 2.16252 0
M  V30 8965 C 842.521 3.2257 1.03606 0
M  V30 8966 C 841.08 3.44026 1.52718 0
M  V30 8967 C 840.227 2.73313 0.468545 0
M  V30 8968 H 843.178 1.57377 -0.2045 0
M  V30 8969 H 843.199 3.29488 1.9031 0
M  V30 8970 H 842.711 3.87711 0.173739 0
M  V30 8971 H 840.812 2.8407 2.41111 0
M  V30 8972 H 840.925 4.52659 1.56962 0
M  V30 8973 H 839.289 2.37299 0.925263 0
M  V30 8974 H 840.072 3.41141 -0.384438 0
M  V30 8975 N 842.517 -0.29412 1.54831 0
M  V30 8976 C 843.464 -1.36296 1.86258 0
M  V30 8977 C 844.434 -1.50061 0.712097 0
M  V30 8978 O 845.619 -1.64809 0.961381 0
M  V30 8979 C 842.759 -2.72187 2.12151 0
M  V30 8980 C 841.872 -2.66816 3.39755 0
M  V30 8981 C 841.007 -3.94747 3.55455 0
M  V30 8982 C 840.046 -3.838 4.76827 0
M  V30 8983 N 839.183 -5.03521 4.89296 0
M  V30 8984 H 844.023 -1.08796 2.7743 0
M  V30 8985 H 841.56 -0.526069 1.37371 0
M  V30 8986 H 843.518 -3.51225 2.25159 0
M  V30 8987 H 842.148 -2.97934 1.24237 0
M  V30 8988 H 841.2 -1.79605 3.3533 0
M  V30 8989 H 842.512 -2.5462 4.28917 0
M  V30 8990 H 841.666 -4.82223 3.68166 0
M  V30 8991 H 840.405 -4.09785 2.64438 0
M  V30 8992 H 839.41 -2.94708 4.64141 0
M  V30 8993 H 840.635 -3.70301 5.69258 0
M  V30 8994 H 838.581 -5.1901 4.01204 0
M  V30 8995 H 838.498 -4.93775 5.72471 0
M  V30 8996 H 839.766 -5.92629 5.06371 0
M  V30 8997 N 843.995 -1.47404 -0.557645 0
M  V30 8998 C 845.22 -1.57868 -1.34508 0
M  V30 8999 C 845.645 -0.229151 -1.86699 0
M  V30 9000 O 845.003 0.794908 -1.62944 0
M  V30 9001 C 845.051 -2.60712 -2.49122 0
M  V30 9002 O 844.155 -2.15952 -3.51338 0
M  V30 9003 H 843.496 -0.530335 -0.399551 0
M  V30 9004 H 846.026 -1.93181 -0.673954 0
M  V30 9005 H 846.036 -2.81118 -2.95697 0
M  V30 9006 H 844.711 -3.58701 -2.10491 0
M  V30 9007 H 843.288 -2.05644 -3.11071 0
M  V30 9008 N 845.473 0.80434 -1.35529 0
M  V30 9009 C 846.405 1.92445 -1.2449 0
M  V30 9010 C 847.418 1.61934 -0.167685 0
M  V30 9011 O 848.607 1.73461 -0.42115 0
M  V30 9012 C 845.707 3.26875 -0.894751 0
M  V30 9013 C 844.88 3.85275 -2.07079 0
M  V30 9014 C 843.939 4.98116 -1.69607 0
M  V30 9015 O 842.965 5.15424 -2.41509 0
M  V30 9016 N 844.167 5.77169 -0.621012 0
M  V30 9017 H 846.932 2.02441 -2.20993 0
M  V30 9018 H 844.493 0.981874 -1.28728 0
M  V30 9019 H 846.485 3.99837 -0.625511 0
M  V30 9020 H 845.055 3.12594 -0.0193306 0
M  V30 9021 H 844.275 3.0448 -2.5037 0
M  V30 9022 H 845.563 4.21024 -2.85685 0
M  V30 9023 H 844.961 5.65695 -0.0236679 0
M  V30 9024 H 843.518 6.50499 -0.411558 0
M  V30 9025 N 846.951 1.19563 1.02676 0
M  V30 9026 C 847.899 0.931942 2.13114 0
M  V30 9027 C 848.893 -0.113007 1.69023 0
M  V30 9028 O 850.099 0.0364298 1.79963 0
M  V30 9029 H 846.474 0.283981 0.696318 0
M  V30 9030 H 848.445 1.86991 2.32545 0
M  V30 9031 C 847.194 0.489461 3.44238 0
M  V30 9032 H 846.517 1.28508 3.78584 0
M  V30 9033 H 847.957 0.34408 4.22602 0
M  V30 9034 C 846.416 -0.796761 3.27343 0
M  V30 9035 O 846.946 -1.85767 3.56165 0
M  V30 9036 N 845.152 -0.754824 2.80626 0
M  V30 9037 H 844.699 0.108778 2.5737 0
M  V30 9038 H 844.657 -1.6158 2.69702 0
M  V30 9039 N 848.429 -1.21819 0.999893 0
M  V30 9040 C 849.379 -2.21823 0.527104 0
M  V30 9041 C 850.363 -1.55628 -0.408515 0
M  V30 9042 O 851.555 -1.75444 -0.234196 0
M  V30 9043 C 848.684 -3.42972 -0.149986 0
M  V30 9044 C 847.77 -4.16364 0.806349 0
M  V30 9045 N 848.161 -4.66403 1.95708 0
M  V30 9046 C 846.459 -4.41618 0.623672 0
M  V30 9047 C 847.16 -5.22443 2.5579 0
M  V30 9048 N 846.136 -5.11514 1.83995 0
M  V30 9049 H 849.938 -2.58161 1.40464 0
M  V30 9050 H 847.452 -1.37569 0.863054 0
M  V30 9051 H 849.449 -4.13816 -0.50613 0
M  V30 9052 H 848.109 -3.08145 -1.02357 0
M  V30 9053 H 849.12 -4.62142 2.33763 0
M  V30 9054 H 845.797 -4.17005 -0.203257 0
M  V30 9055 H 847.187 -5.7165 3.5308 0
M  V30 9056 N 849.908 -0.773975 -1.37286 0
M  V30 9057 C 851.319 -0.404433 -1.82267 0
M  V30 9058 C 851.67 1.06971 -1.64474 0
M  V30 9059 O 850.795 1.82867 -1.15708 0
M  V30 9060 C 851.39 -0.727298 -3.30902 0
M  V30 9061 C 849.949 -0.410784 -3.74152 0
M  V30 9062 C 849.096 -0.969983 -2.59782 0
M  V30 9063 H 852.047 -0.968437 -1.25726 0
M  V30 9064 H 852.068 -0.0127575 -3.80498 0
M  V30 9065 H 851.58 -1.80026 -3.4382 0
M  V30 9066 H 849.681 0.65477 -3.66802 0
M  V30 9067 H 849.794 -0.920592 -4.70172 0
M  V30 9068 H 848.158 -0.394094 -2.51633 0
M  V30 9069 H 848.941 -2.04839 -2.75492 0
M  V30 9070 N 851.386 1.48609 -0.524698 0
M  V30 9071 C 852.634 2.02097 0.0112991 0
M  V30 9072 C 852.955 1.40455 1.35268 0
M  V30 9073 O 852.225 0.56807 1.87483 0
M  V30 9074 H 850.805 0.746966 0.00716426 0
M  V30 9075 H 853.467 1.82378 -0.687329 0
M  V30 9076 H 852.563 3.11855 0.123531 0
M  V30 9077 N 852.864 0.259585 1.55447 0
M  V30 9078 C 854.11 -0.355207 2.00274 0
M  V30 9079 C 854.465 -1.54637 1.14477 0
M  V30 9080 O 853.758 -1.90519 0.203215 0
M  V30 9081 C 853.952 -0.802727 3.48269 0
M  V30 9082 C 853.781 0.34353 4.48386 0
M  V30 9083 C 852.551 0.822317 4.98564 0
M  V30 9084 C 854.749 1.17482 5.00702 0
M  V30 9085 N 852.731 1.93966 5.82452 0
M  V30 9086 C 854.102 2.14032 5.81885 0
M  V30 9087 C 856.157 1.20994 4.82975 0
M  V30 9088 C 854.86 3.1382 6.47232 0
M  V30 9089 C 856.886 2.19618 5.4911 0
M  V30 9090 C 856.248 3.14903 6.30092 0
M  V30 9091 H 852.347 -0.0955824 0.776137 0
M  V30 9092 H 854.931 0.380062 1.90954 0
M  V30 9093 H 853.102 -1.50726 3.57961 0
M  V30 9094 H 854.834 -1.39354 3.79951 0
M  V30 9095 H 851.589 0.404272 4.71871 0
M  V30 9096 H 852.013 2.50148 6.29091 0
M  V30 9097 H 856.655 0.487104 4.19985 0
M  V30 9098 H 854.373 3.87045 7.09381 0
M  V30 9099 H 857.959 2.23057 5.37342 0
M  V30 9100 H 856.839 3.8997 6.80362 0
M  V30 9101 N 854.342 -1.57594 -0.0133615 0
M  V30 9102 C 855.272 -2.10611 -1.00823 0
M  V30 9103 C 856.253 -1.01217 -1.36708 0
M  V30 9104 O 857.438 -1.28827 -1.45318 0
M  V30 9105 C 854.568 -2.59844 -2.30431 0
M  V30 9106 C 853.522 -3.73644 -2.08745 0
M  V30 9107 C 852.848 -4.09141 -3.4425 0
M  V30 9108 C 854.148 -5.01454 -1.46086 0
M  V30 9109 H 855.842 -2.93985 -0.566849 0
M  V30 9110 H 853.388 -1.41423 -0.271219 0
M  V30 9111 H 855.341 -2.95557 -3.00373 0
M  V30 9112 H 854.065 -1.73573 -2.76658 0
M  V30 9113 H 852.724 -3.38303 -1.41232 0
M  V30 9114 H 852.372 -3.19914 -3.88155 0
M  V30 9115 H 852.072 -4.85802 -3.3056 0
M  V30 9116 H 853.596 -4.47402 -4.15528 0
M  V30 9117 H 855.01 -5.35024 -2.05966 0
M  V30 9118 H 853.407 -5.82832 -1.42924 0
M  V30 9119 H 854.477 -4.83003 -0.428471 0
M  V30 9120 N 855.82 0.285905 -1.54985 0
M  V30 9121 C 856.753 1.37817 -1.81884 0
M  V30 9122 C 857.731 1.4811 -0.670988 0
M  V30 9123 O 858.915 1.64936 -0.912595 0
M  V30 9124 C 856.042 2.75587 -1.969 0
M  V30 9125 C 855.088 2.82643 -3.19398 0
M  V30 9126 S 855.921 2.43199 -4.7709 0
M  V30 9127 C 857.077 3.82969 -4.95061 0
M  V30 9128 H 857.31 1.14794 -2.74244 0
M  V30 9129 H 854.843 0.484843 -1.4659 0
M  V30 9130 H 856.801 3.54932 -2.06236 0
M  V30 9131 H 855.462 2.9587 -1.05451 0
M  V30 9132 H 854.655 3.8373 -3.26753 0
M  V30 9133 H 854.257 2.11306 -3.08586 0
M  V30 9134 H 856.549 4.78117 -4.80011 0
M  V30 9135 H 857.492 3.80575 -5.97133 0
M  V30 9136 H 857.9 3.73673 -4.23118 0
M  V30 9137 N 857.298 1.47698 0.54982 0
M  V30 9138 C 858.714 1.3338 0.876468 0
M  V30 9139 C 858.914 0.329837 1.98782 0
M  V30 9140 O 857.97 -0.256022 2.51199 0
M  V30 9141 C 859.283 2.72903 1.26272 0
M  V30 9142 C 860.831 2.81243 1.37373 0
M  V30 9143 C 861.306 4.21423 1.79351 0
M  V30 9144 N 862.797 4.24 1.86489 0
M  V30 9145 C 863.532 5.29386 2.20313 0
M  V30 9146 N 863.028 6.4507 2.527 0
M  V30 9147 N 864.821 5.16768 2.2115 0
M  V30 9148 H 856.972 2.11603 -0.183781 0
M  V30 9149 H 859.235 0.947798 -0.0195601 0
M  V30 9150 H 858.941 3.47836 0.519889 0
M  V30 9151 H 858.815 3.05151 2.21727 0
M  V30 9152 H 861.202 2.06577 2.10737 0
M  V30 9153 H 861.283 2.52639 0.400882 0
M  V30 9154 H 860.927 4.96597 1.06555 0
M  V30 9155 H 860.857 4.47456 2.77652 0
M  V30 9156 H 863.348 3.40547 1.63817 0
M  V30 9157 H 863.661 7.21236 2.77557 0
M  V30 9158 H 862.006 6.48377 2.50263 0
M  V30 9159 H 865.197 4.25416 1.95293 0
M  V30 9160 H 865.37 5.99004 2.4718 0
M  V30 9161 N 858.776 -0.797141 1.35954 0
M  V30 9162 C 860.024 -1.55161 1.29497 0
M  V30 9163 C 860.345 -1.94582 -0.127659 0
M  V30 9164 O 859.615 -1.64343 -1.06622 0
M  V30 9165 H 858.195 -0.575413 0.47635 0
M  V30 9166 H 860.857 -0.950282 1.70164 0
M  V30 9167 H 859.953 -2.46272 1.9172 0
M  V30 9168 N 860.254 -1.20106 -1.0204 0
M  V30 9169 C 861.184 -0.970301 -2.12385 0
M  V30 9170 C 862.165 0.099378 -1.69809 0
M  V30 9171 O 863.35 -0.057365 -1.94115 0
M  V30 9172 C 860.48 -0.517431 -3.43424 0
M  V30 9173 C 859.434 -1.52992 -3.99722 0
M  V30 9174 C 858.76 -0.933817 -5.26483 0
M  V30 9175 C 860.06 -2.91257 -4.33551 0
M  V30 9176 H 861.754 -1.89316 -2.31948 0
M  V30 9177 H 859.3 -0.911655 -1.11467 0
M  V30 9178 H 861.253 -0.343243 -4.2 0
M  V30 9179 H 859.977 0.441049 -3.23608 0
M  V30 9180 H 858.636 -1.6914 -3.2525 0
M  V30 9181 H 858.284 0.0324763 -5.0299 0
M  V30 9182 H 857.984 -1.60999 -5.65113 0
M  V30 9183 H 859.508 -0.770614 -6.05718 0
M  V30 9184 H 860.922 -2.78642 -5.0103 0
M  V30 9185 H 859.319 -3.55745 -4.83286 0
M  V30 9186 H 860.389 -3.43269 -3.42483 0
M  V30 9187 N 861.732 1.21287 -1.00634 0
M  V30 9188 C 862.679 2.23705 -0.567876 0
M  V30 9189 C 863.649 1.61043 0.406753 0
M  V30 9190 O 864.834 1.88289 0.308499 0
M  V30 9191 C 861.974 3.44961 0.097996 0
M  V30 9192 C 861.087 4.22091 -0.919972 0
M  V30 9193 C 860.222 5.30718 -0.226222 0
M  V30 9194 C 859.261 5.99581 -1.23165 0
M  V30 9195 N 858.398 6.99821 -0.565278 0
M  V30 9196 H 863.238 2.60571 -1.44592 0
M  V30 9197 H 860.775 1.28049 -0.724006 0
M  V30 9198 H 862.733 4.1418 0.501097 0
M  V30 9199 H 861.363 3.08818 0.939744 0
M  V30 9200 H 860.415 3.52038 -1.44131 0
M  V30 9201 H 861.727 4.69476 -1.68505 0
M  V30 9202 H 860.881 6.06253 0.232917 0
M  V30 9203 H 859.62 4.84343 0.571247 0
M  V30 9204 H 858.625 5.22816 -1.70128 0
M  V30 9205 H 859.85 6.48042 -2.03022 0
M  V30 9206 H 857.796 6.55656 0.212508 0
M  V30 9207 H 857.713 7.4528 -1.26858 0
M  V30 9208 H 858.981 7.79393 -0.129389 0
M  V30 9209 N 863.21 0.781244 1.36873 0
M  V30 9210 C 864.621 0.414093 1.8205 0
M  V30 9211 C 864.972 -1.06098 1.65039 0
M  V30 9212 O 864.097 -1.82251 1.16677 0
M  V30 9213 C 864.692 0.744837 3.30511 0
M  V30 9214 C 863.251 0.430621 3.73929 0
M  V30 9215 C 862.398 0.983746 2.59264 0
M  V30 9216 H 865.349 0.975091 1.2521 0
M  V30 9217 H 865.37 0.032936 3.80486 0
M  V30 9218 H 864.882 1.81847 3.42861 0
M  V30 9219 H 862.983 -0.635308 3.67144 0
M  V30 9220 H 863.096 0.945514 4.69677 0
M  V30 9221 H 861.46 0.407433 2.5142 0
M  V30 9222 H 862.243 2.06297 2.74402 0
M  V30 9223 N 864.689 -1.48329 0.532571 0
M  V30 9224 C 865.935 -2.03399 0.00755104 0
M  V30 9225 C 866.29 -1.40213 -1.3175 0
M  V30 9226 O 865.583 -0.539633 -1.83844 0
M  V30 9227 C 865.777 -3.57 -0.168943 0
M  V30 9228 C 865.606 -4.35077 1.13745 0
M  V30 9229 C 864.376 -4.75915 1.69803 0
M  V30 9230 C 866.574 -4.71734 2.04869 0
M  V30 9231 N 864.556 -5.38538 2.94703 0
M  V30 9232 C 865.927 -5.34403 3.14346 0
M  V30 9233 C 867.982 -4.53665 2.05164 0
M  V30 9234 C 866.685 -5.80912 4.24186 0
M  V30 9235 C 868.711 -5.01157 3.13999 0
M  V30 9236 C 868.073 -5.63853 4.22195 0
M  V30 9237 H 864.172 -0.780743 0.0443253 0
M  V30 9238 H 866.756 -1.81119 0.714423 0
M  V30 9239 H 864.927 -3.79099 -0.844903 0
M  V30 9240 H 866.659 -3.98708 -0.693804 0
M  V30 9241 H 863.414 -4.57103 1.23909 0
M  V30 9242 H 863.838 -5.74413 3.583 0
M  V30 9243 H 868.48 -4.04571 1.22808 0
M  V30 9244 H 866.198 -6.2901 5.07318 0
M  V30 9245 H 869.784 -4.88965 3.15285 0
M  V30 9246 H 868.664 -5.99935 5.05023 0
M  V30 9247 N 866.167 -0.267825 -1.55308 0
M  V30 9248 C 867.395 0.354587 -2.03839 0
M  V30 9249 C 867.81 1.50007 -1.14644 0
M  V30 9250 O 867.167 1.81752 -0.165055 0
M  V30 9251 C 867.218 0.84254 -3.51544 0
M  V30 9252 O 866.939 -0.257318 -4.37344 0
M  V30 9253 C 868.44 1.53351 -4.15931 0
M  V30 9254 H 865.66 0.0818131 -0.665994 0
M  V30 9255 H 868.204 -0.397795 -2.00594 0
M  V30 9256 H 866.359 1.54503 -3.55257 0
M  V30 9257 H 866.773 0.116593 -5.2437 0
M  V30 9258 H 868.247 1.82643 -5.20908 0
M  V30 9259 H 868.724 2.4626 -3.63666 0
M  V30 9260 H 869.33 0.87506 -4.162 0
M  V30 9261 N 867.645 1.57599 0.00500368 0
M  V30 9262 C 868.577 2.04949 1.02609 0
M  V30 9263 C 869.59 0.966507 1.31006 0
M  V30 9264 O 870.779 1.2434 1.2807 0
M  V30 9265 C 867.879 2.43023 2.36206 0
M  V30 9266 C 867.052 3.73993 2.26821 0
M  V30 9267 C 866.111 3.9899 3.43065 0
M  V30 9268 O 865.137 4.69725 3.21477 0
M  V30 9269 N 866.339 3.46496 4.65748 0
M  V30 9270 H 869.104 2.93167 0.622336 0
M  V30 9271 H 866.665 1.60752 0.192488 0
M  V30 9272 H 868.657 2.56863 3.12735 0
M  V30 9273 H 867.227 1.60349 2.68341 0
M  V30 9274 H 866.447 3.70277 1.35235 0
M  V30 9275 H 867.735 4.59865 2.17719 0
M  V30 9276 H 867.133 2.89206 4.86186 0
M  V30 9277 H 865.69 3.65675 5.3956 0
M  V30 9278 N 869.123 -0.277682 1.55134 0
M  V30 9279 C 870.353 -1.02677 1.79279 0
M  V30 9280 C 870.761 -1.80599 0.563962 0
M  V30 9281 O 870.104 -1.77416 -0.476378 0
M  V30 9282 C 870.166 -2.03617 2.96277 0
M  V30 9283 C 869.83 -1.44676 4.33495 0
M  V30 9284 C 870.827 -0.864811 5.12657 0
M  V30 9285 C 868.512 -1.47537 4.80144 0
M  V30 9286 C 870.506 -0.319322 6.366 0
M  V30 9287 C 868.193 -0.926016 6.04043 0
M  V30 9288 C 869.191 -0.348988 6.82108 0
M  V30 9289 O 868.879 0.191964 8.03671 0
M  V30 9290 H 868.611 -0.309232 0.601125 0
M  V30 9291 H 871.165 -0.315308 2.02965 0
M  V30 9292 H 869.395 -2.78509 2.68272 0
M  V30 9293 H 871.084 -2.64616 3.07788 0
M  V30 9294 H 871.85 -0.835438 4.7775 0
M  V30 9295 H 867.729 -1.91389 4.19394 0
M  V30 9296 H 871.273 0.131709 6.97476 0
M  V30 9297 H 867.17 -0.952613 6.38432 0
M  V30 9298 H 867.938 0.0808779 8.1846 0
M  V30 9299 N 870.601 -1.47988 -0.541979 0
M  V30 9300 C 871.564 -1.61148 -1.62984 0
M  V30 9301 C 872.564 -0.48553 -1.53295 0
M  V30 9302 O 873.754 -0.751012 -1.5718 0
M  V30 9303 C 870.886 -1.57038 -3.02576 0
M  V30 9304 H 872.079 -2.58138 -1.52659 0
M  V30 9305 H 869.632 -1.36405 -0.763106 0
M  V30 9306 H 870.367 -0.614807 -3.18419 0
M  V30 9307 H 870.152 -2.38769 -3.11018 0
M  V30 9308 H 871.642 -1.69416 -3.81691 0
M  V30 9309 N 872.079 0.78992 -1.36375 0
M  V30 9310 C 873.328 1.54296 -1.29906 0
M  V30 9311 C 873.641 1.95234 0.119651 0
M  V30 9312 O 874.847 2.69762 0.306708 0
M  V30 9313 C 873.303 2.78533 -2.27919 0
M  V30 9314 C 872.911 2.44767 -3.75224 0
M  V30 9315 C 874.655 3.56516 -2.30427 0
M  V30 9316 C 872.562 3.65397 -4.65015 0
M  V30 9317 H 871.492 0.579214 -0.482729 0
M  V30 9318 H 874.143 0.866845 -1.61735 0
M  V30 9319 H 872.525 3.47941 -1.89084 0
M  V30 9320 H 873.699 1.83259 -4.22792 0
M  V30 9321 H 872.014 1.79996 -3.75487 0
M  V30 9322 H 874.611 4.46143 -2.94722 0
M  V30 9323 H 874.954 3.95063 -1.31266 0
M  V30 9324 H 875.487 2.94087 -2.67876 0
M  V30 9325 H 872.226 3.31946 -5.65236 0
M  V30 9326 H 871.746 4.26072 -4.22164 0
M  V30 9327 H 873.425 4.32431 -4.81261 0
M  V30 9328 N 873.557 1.20646 1.01402 0
M  V30 9329 C 874.804 1.01819 1.7504 0
M  V30 9330 C 875.132 -0.449386 1.89237 0
M  V30 9331 O 874.387 -1.34985 1.41695 0
M  V30 9332 C 874.686 1.64991 3.17037 0
M  V30 9333 C 874.352 3.14808 3.22811 0
M  V30 9334 C 873.014 3.55692 3.24094 0
M  V30 9335 C 875.366 4.108 3.2077 0
M  V30 9336 C 872.694 4.9109 3.2101 0
M  V30 9337 C 875.046 5.46147 3.19227 0
M  V30 9338 C 873.71 5.86441 3.18815 0
M  V30 9339 H 872.98 0.372582 0.640518 0
M  V30 9340 H 875.627 1.50108 1.18911 0
M  V30 9341 H 873.932 1.08971 3.76341 0
M  V30 9342 H 875.629 1.47937 3.72714 0
M  V30 9343 H 872.219 2.8224 3.2255 0
M  V30 9344 H 876.403 3.80246 3.18946 0
M  V30 9345 H 871.659 5.21569 3.19023 0
M  V30 9346 H 875.833 6.20272 3.166 0
M  V30 9347 H 873.46 6.91328 3.16179 0
M  V30 9348 N 875.035 -1.20752 1.01276 0
M  V30 9349 C 876.281 -1.90302 0.700924 0
M  V30 9350 C 876.614 -1.78406 -0.767142 0
M  V30 9351 O 875.889 -1.16575 -1.55694 0
M  V30 9352 C 876.172 -3.41831 1.13242 0
M  V30 9353 C 876.025 -3.6268 2.66051 0
M  V30 9354 C 877.344 -4.34486 0.700738 0
M  V30 9355 H 874.463 -0.69107 0.256107 0
M  V30 9356 H 877.105 -1.42227 1.25982 0
M  V30 9357 H 875.255 -3.82906 0.656902 0
M  V30 9358 H 876.927 -3.30882 3.21426 0
M  V30 9359 H 875.17 -3.06281 3.07204 0
M  V30 9360 H 875.841 -4.68882 2.91296 0
M  V30 9361 H 878.317 -4.01036 1.10948 0
M  V30 9362 H 877.193 -5.39136 1.03073 0
M  V30 9363 H 877.454 -4.40307 -0.39778 0
M  V30 9364 N 876.513 -0.788492 -1.36457 0
M  V30 9365 C 877.46 -0.18435 -2.30063 0
M  V30 9366 C 878.43 0.67128 -1.51931 0
M  V30 9367 O 879.615 0.620152 -1.8044 0
M  V30 9368 C 876.755 0.675596 -3.38422 0
M  V30 9369 C 875.868 -0.198475 -4.31544 0
M  V30 9370 C 875.003 0.667757 -5.26986 0
M  V30 9371 C 874.042 -0.207825 -6.11747 0
M  V30 9372 N 873.179 0.617335 -6.99381 0
M  V30 9373 H 878.019 -0.988056 -2.81143 0
M  V30 9374 H 875.556 -0.498815 -1.38384 0
M  V30 9375 H 877.514 1.18916 -3.99894 0
M  V30 9376 H 876.144 1.44474 -2.88664 0
M  V30 9377 H 875.196 -0.829995 -3.71235 0
M  V30 9378 H 876.508 -0.873163 -4.91098 0
M  V30 9379 H 875.662 1.24716 -5.93743 0
M  V30 9380 H 874.401 1.37607 -4.67884 0
M  V30 9381 H 873.406 -0.799638 -5.43954 0
M  V30 9382 H 874.631 -0.913729 -6.72925 0
M  V30 9383 H 872.577 1.30996 -6.42788 0
M  V30 9384 H 872.494 0.000307255 -7.56 0
M  V30 9385 H 873.762 1.1806 -7.70508 0
M  V30 9386 N 877.991 1.48044 -0.54043 0
M  V30 9387 C 879.219 2.06895 -0.0145153 0
M  V30 9388 C 879.634 1.39552 1.27164 0
M  V30 9389 O 878.991 0.486454 1.75897 0
M  V30 9390 C 879.042 3.60934 0.202278 0
M  V30 9391 O 878.763 4.25749 -1.03293 0
M  V30 9392 C 880.264 4.36607 0.767387 0
M  V30 9393 H 877.484 0.66991 -0.0382368 0
M  V30 9394 H 880.028 1.90288 -0.749057 0
M  V30 9395 H 878.183 3.77111 0.886897 0
M  V30 9396 H 878.597 5.18048 -0.820167 0
M  V30 9397 H 880.071 5.45126 0.86845 0
M  V30 9398 H 880.548 4.01745 1.77477 0
M  V30 9399 H 881.154 4.25133 0.119002 0
M  V30 9400 N 879.47 0.276058 1.55163 0
M  V30 9401 C 880.4 -0.604633 2.25536 0
M  V30 9402 C 881.381 -1.15813 1.24585 0
M  V30 9403 O 882.566 -1.1921 1.53306 0
M  V30 9404 C 879.696 -1.78836 2.97716 0
M  V30 9405 C 878.65 -1.36635 4.05604 0
M  V30 9406 C 877.976 -2.63325 4.65364 0
M  V30 9407 C 879.276 -0.515858 5.19746 0
M  V30 9408 H 880.97 -0.0177483 2.99395 0
M  V30 9409 H 878.516 -0.00709627 1.43998 0
M  V30 9410 H 880.469 -2.41036 3.45658 0
M  V30 9411 H 879.193 -2.40109 2.21394 0
M  V30 9412 H 877.852 -0.767541 3.58475 0
M  V30 9413 H 877.5 -3.22858 3.85709 0
M  V30 9414 H 877.2 -2.358 5.38212 0
M  V30 9415 H 878.724 -3.26372 5.16056 0
M  V30 9416 H 880.138 -1.04289 5.63735 0
M  V30 9417 H 878.535 -0.335449 5.99162 0
M  V30 9418 H 879.605 0.465137 4.82664 0
M  V30 9419 N 880.948 -1.576 0.00335426 0
M  V30 9420 C 882.194 -1.90996 -0.681799 0
M  V30 9421 C 882.527 -0.877643 -1.73237 0
M  V30 9422 O 881.802 0.103183 -1.94226 0
M  V30 9423 C 882.085 -3.34961 -1.32187 0
M  V30 9424 C 881.938 -4.48911 -0.28261 0
M  V30 9425 C 883.257 -3.78408 -2.24711 0
M  V30 9426 H 880.376 -0.694596 -0.246386 0
M  V30 9427 H 883.018 -1.89919 0.055336 0
M  V30 9428 H 881.168 -3.36008 -1.95014 0
M  V30 9429 H 882.84 -4.59999 0.346241 0
M  V30 9430 H 881.083 -4.32 0.394768 0
M  V30 9431 H 881.754 -5.46609 -0.769576 0
M  V30 9432 H 884.23 -3.78934 -1.71897 0
M  V30 9433 H 883.106 -4.79885 -2.66461 0
M  V30 9434 H 883.367 -3.12464 -3.1276 0
M  V30 9435 N 882.426 0.269451 -1.5528 0
M  V30 9436 C 883.654 1.01872 -1.80082 0
M  V30 9437 C 884.069 1.79802 -0.575917 0
M  V30 9438 O 883.426 1.76735 0.455081 0
M  V30 9439 C 883.477 1.9745 -3.02813 0
M  V30 9440 O 883.198 1.22677 -4.20573 0
M  V30 9441 C 884.699 2.8416 -3.40247 0
M  V30 9442 H 881.919 0.300781 -0.59981 0
M  V30 9443 H 884.463 0.29916 -2.023 0
M  V30 9444 H 882.618 2.64864 -2.82712 0
M  V30 9445 H 883.032 1.87129 -4.89982 0
M  V30 9446 H 884.506 3.47014 -4.29284 0
M  V30 9447 H 884.983 3.54113 -2.59809 0
M  V30 9448 H 885.589 2.22232 -3.6262 0
M  V30 9449 N 883.904 1.48273 0.534124 0
M  V30 9450 C 885.151 1.56079 1.29017 0
M  V30 9451 C 885.479 0.232912 1.931 0
M  V30 9452 O 884.734 -0.77642 1.79639 0
M  V30 9453 C 885.033 2.64468 2.40398 0
M  V30 9454 C 884.699 4.07034 1.93995 0
M  V30 9455 C 883.361 4.45838 1.81058 0
M  V30 9456 C 885.713 4.96395 1.58877 0
M  V30 9457 C 883.041 5.71812 1.31331 0
M  V30 9458 C 885.393 6.22854 1.10614 0
M  V30 9459 C 884.057 6.60518 0.962895 0
M  V30 9460 H 883.327 0.571135 0.472108 0
M  V30 9461 H 885.974 1.81973 0.5965 0
M  V30 9462 H 884.279 2.32419 3.15418 0
M  V30 9463 H 885.976 2.67725 2.98537 0
M  V30 9464 H 882.566 3.76387 2.05015 0
M  V30 9465 H 886.75 4.67096 1.67734 0
M  V30 9466 H 882.006 5.99722 1.18924 0
M  V30 9467 H 886.18 6.91495 0.825095 0
M  V30 9468 H 883.807 7.58019 0.575369 0
M  V30 9469 N 885.382 -0.782676 1.36792 0
M  V30 9470 C 886.607 -1.57676 1.34733 0
M  V30 9471 C 887.032 -1.87979 -0.0675253 0
M  V30 9472 O 886.39 -1.48404 -1.04144 0
M  V30 9473 C 886.438 -2.87047 2.18257 0
M  V30 9474 O 885.542 -3.80946 1.57969 0
M  V30 9475 H 884.883 -0.478034 0.460846 0
M  V30 9476 H 887.413 -0.969578 1.80168 0
M  V30 9477 H 887.423 -3.36254 2.31079 0
M  V30 9478 H 886.098 -2.64319 3.21104 0
M  V30 9479 H 884.675 -3.39558 1.54126 0
M  V30 9480 N 886.86 -1.21182 -1.00761 0
M  V30 9481 C 888.137 -0.936297 -1.71735 0
M  V30 9482 C 888.517 0.552585 -2.03739 0
M  V30 9483 O 887.865 1.51672 -1.70903 0
M  V30 9484 C 888.075 -1.81867 -2.97868 0
M  V30 9485 C 889.423 -2.06594 -3.7095 0
M  V30 9486 O 890.447 -1.79194 -3.07844 0
M  V30 9487 O 889.306 -2.5292 -4.84452 0
M  V30 9488 H 886.4 -0.350867 -0.74888 0
M  V30 9489 H 888.946 -1.32098 -1.06527 0
M  V30 9490 H 887.718 -2.82643 -2.70607 0
M  V30 9491 H 887.341 -1.43463 -3.70815 0
M  V30 9492 N 888.338 1.20213 -1.01915 0
M  V30 9493 C 889.248 2.26763 -0.601311 0
M  V30 9494 C 890.264 1.70185 0.362369 0
M  V30 9495 O 891.44 2.00165 0.222682 0
M  V30 9496 C 888.505 3.46662 0.0512879 0
M  V30 9497 C 887.566 4.18459 -0.958659 0
M  V30 9498 C 886.799 5.32634 -0.337107 0
M  V30 9499 O 887.022 5.63841 0.86251 0
M  V30 9500 O 885.956 5.9258 -1.05511 0
M  V30 9501 H 889.782 2.64725 -1.48844 0
M  V30 9502 H 887.367 1.2688 -0.788784 0
M  V30 9503 H 889.249 4.19345 0.41564 0
M  V30 9504 H 887.924 3.1057 0.912572 0
M  V30 9505 H 886.831 3.47937 -1.37442 0
M  V30 9506 H 888.164 4.58498 -1.78999 0
M  V30 9507 N 889.816 0.795718 1.36037 0
M  V30 9508 C 891.232 0.478145 1.52269 0
M  V30 9509 C 891.432 -1.0025 1.74792 0
M  V30 9510 O 890.488 -1.78783 1.78305 0
M  V30 9511 C 891.801 1.31406 2.70468 0
M  V30 9512 C 893.349 1.3084 2.84341 0
M  V30 9513 C 893.824 2.12819 4.05551 0
M  V30 9514 N 895.315 2.10298 4.12709 0
M  V30 9515 C 896.05 2.70495 5.05589 0
M  V30 9516 N 895.546 3.39576 6.03871 0
M  V30 9517 N 897.339 2.60195 4.98252 0
M  V30 9518 H 889.49 1.75477 1.19673 0
M  V30 9519 H 891.753 0.74627 0.584624 0
M  V30 9520 H 891.459 2.36435 2.60368 0
M  V30 9521 H 891.333 0.959726 3.64786 0
M  V30 9522 H 893.72 0.266003 2.93899 0
M  V30 9523 H 893.801 1.70254 1.90912 0
M  V30 9524 H 893.445 3.17093 3.96755 0
M  V30 9525 H 893.375 1.70772 4.98141 0
M  V30 9526 H 895.866 1.60026 3.42345 0
M  V30 9527 H 896.179 3.82823 6.71317 0
M  V30 9528 H 894.524 3.43679 6.04077 0
M  V30 9529 H 897.715 2.05823 4.20422 0
M  V30 9530 H 897.888 3.074 5.70447 0
M  V30 9531 N 891.294 -1.47756 0.548274 0
M  V30 9532 C 892.71 -1.58247 0.207401 0
M  V30 9533 C 892.91 -1.54804 -1.28988 0
M  V30 9534 O 891.966 -1.44673 -2.06944 0
M  V30 9535 C 893.279 -2.89129 0.826142 0
M  V30 9536 C 894.827 -3.02695 0.79655 0
M  V30 9537 C 895.302 -4.36264 1.3942 0
M  V30 9538 N 896.793 -4.42877 1.35698 0
M  V30 9539 C 897.528 -5.44773 1.78913 0
M  V30 9540 N 897.024 -6.53528 2.29942 0
M  V30 9541 N 898.817 -5.35765 1.70038 0
M  V30 9542 H 890.968 -1.48236 1.52117 0
M  V30 9543 H 893.231 -0.704957 0.633829 0
M  V30 9544 H 892.937 -2.97358 1.87806 0
M  V30 9545 H 892.811 -3.75891 0.313916 0
M  V30 9546 H 895.198 -2.94067 -0.246655 0
M  V30 9547 H 895.279 -2.17496 1.34644 0
M  V30 9548 H 894.923 -4.45646 2.43642 0
M  V30 9549 H 894.853 -5.20179 0.819827 0
M  V30 9550 H 897.344 -3.64874 0.983623 0
M  V30 9551 H 897.657 -7.27441 2.60863 0
M  V30 9552 H 896.002 -6.54442 2.33947 0
M  V30 9553 H 899.193 -4.49699 1.29955 0
M  V30 9554 H 899.366 -6.1504 2.04035 0
M  V30 9555 N 892.772 -0.284283 -1.55015 0
M  V30 9556 C 894 0.332948 -2.04203 0
M  V30 9557 C 894.415 1.48783 -1.16229 0
M  V30 9558 O 893.772 1.81567 -0.184323 0
M  V30 9559 C 893.823 0.805207 -3.52418 0
M  V30 9560 O 893.544 -0.303689 -4.37046 0
M  V30 9561 C 895.045 1.48931 -4.17534 0
M  V30 9562 H 892.265 0.0747447 -0.666824 0
M  V30 9563 H 894.809 -0.419048 -2.00161 0
M  V30 9564 H 892.964 1.50727 -3.56876 0
M  V30 9565 H 893.378 0.0609703 -5.24465 0
M  V30 9566 H 894.852 1.77108 -5.22816 0
M  V30 9567 H 895.329 2.42389 -3.66257 0
M  V30 9568 H 895.935 0.830867 -4.17105 0
M  V30 9569 N 894.251 1.57596 -0.0117121 0
M  V30 9570 C 895.481 1.95077 0.680346 0
M  V30 9571 C 895.889 0.885793 1.67184 0
M  V30 9572 O 895.232 -0.142723 1.83145 0
M  V30 9573 C 895.294 3.28611 1.45791 0
M  V30 9574 C 894.958 4.52682 0.626706 0
M  V30 9575 C 895.955 5.19821 -0.0906223 0
M  V30 9576 C 893.64 4.99064 0.569229 0
M  V30 9577 C 895.634 6.31649 -0.854289 0
M  V30 9578 C 893.321 6.10779 -0.198155 0
M  V30 9579 C 894.319 6.76929 -0.908636 0
M  V30 9580 O 894.007 7.86501 -1.66348 0
M  V30 9581 H 893.739 0.647663 0.193672 0
M  V30 9582 H 896.293 2.05305 -0.0624969 0
M  V30 9583 H 894.523 3.14824 2.2455 0
M  V30 9584 H 896.212 3.51119 2.03642 0
M  V30 9585 H 896.978 4.84968 -0.0554421 0
M  V30 9586 H 892.857 4.47393 1.11178 0
M  V30 9587 H 896.401 6.83215 -1.40937 0
M  V30 9588 H 892.298 6.45072 -0.235114 0
M  V30 9589 H 893.066 8.03078 -1.58141 0
M  V30 9590 N 895.729 -0.261212 1.5542 0
M  V30 9591 C 896.977 -0.989272 1.76232 0
M  V30 9592 C 897.298 -1.86389 0.573067 0
M  V30 9593 O 896.568 -1.91526 -0.41166 0
M  V30 9594 H 895.148 -0.368256 0.64992 0
M  V30 9595 H 897.81 -0.282603 1.9284 0
M  V30 9596 H 896.906 -1.61935 2.66802 0
M  V30 9597 N 897.207 -1.48554 -0.526253 0
M  V30 9598 C 898.17 -1.62868 -1.61266 0
M  V30 9599 C 899.17 -0.501762 -1.52771 0
M  V30 9600 O 900.36 -0.76764 -1.56374 0
M  V30 9601 C 897.492 -1.60238 -3.00893 0
M  V30 9602 H 898.685 -2.59742 -1.49913 0
M  V30 9603 H 896.238 -1.37207 -0.748595 0
M  V30 9604 H 896.973 -0.648545 -3.17749 0
M  V30 9605 H 896.758 -2.42054 -3.08468 0
M  V30 9606 H 898.248 -1.73455 -3.79872 0
M  V30 9607 N 898.685 0.775411 -1.37205 0
M  V30 9608 C 899.632 1.88857 -1.32671 0
M  V30 9609 C 900.602 1.64976 -0.192899 0
M  V30 9610 O 901.787 1.86944 -0.381673 0
M  V30 9611 C 898.927 3.25871 -1.13588 0
M  V30 9612 C 898.04 3.61731 -2.36167 0
M  V30 9613 C 897.175 4.87934 -2.09985 0
M  V30 9614 C 896.214 5.16514 -3.2845 0
M  V30 9615 N 895.351 6.33905 -3.01842 0
M  V30 9616 H 900.191 1.92068 -2.27846 0
M  V30 9617 H 897.728 0.939066 -1.13225 0
M  V30 9618 H 899.686 4.04903 -1.00546 0
M  V30 9619 H 898.316 3.22045 -0.220613 0
M  V30 9620 H 897.368 2.77712 -2.59962 0
M  V30 9621 H 898.68 3.78792 -3.24528 0
M  V30 9622 H 897.834 5.74863 -1.93953 0
M  V30 9623 H 896.573 4.7297 -1.18956 0
M  V30 9624 H 895.578 4.28063 -3.45025 0
M  V30 9625 H 896.803 5.33389 -4.20325 0
M  V30 9626 H 894.749 6.20306 -2.13439 0
M  V30 9627 H 894.666 6.51364 -3.83746 0
M  V30 9628 H 895.934 7.23779 -2.8942 0
M  V30 9629 N 900.163 1.21714 1.00117 0
M  V30 9630 C 901.388 1.06357 1.78054 0
M  V30 9631 C 901.813 -0.382075 1.84179 0
M  V30 9632 O 901.171 -1.27575 1.28819 0
M  V30 9633 C 901.219 1.66982 3.19608 0
M  V30 9634 O 900.323 0.917892 4.02055 0
M  V30 9635 H 899.664 0.374074 0.548602 0
M  V30 9636 H 902.194 1.61338 1.25822 0
M  V30 9637 H 902.204 1.71363 3.70268 0
M  V30 9638 H 900.879 2.72185 3.14465 0
M  V30 9639 H 899.456 0.949473 3.6061 0
M  V30 9640 N 901.641 -1.19671 1.02551 0
M  V30 9641 C 902.918 -1.85014 0.634771 0
M  V30 9642 C 903.298 -1.91574 -0.886706 0
M  V30 9643 O 902.646 -1.43022 -1.78205 0
M  V30 9644 C 902.856 -3.24167 1.29292 0
M  V30 9645 C 904.204 -4.00363 1.41402 0
M  V30 9646 O 905.228 -3.33553 1.24983 0
M  V30 9647 O 904.087 -5.2003 1.6802 0
M  V30 9648 H 901.181 -0.797147 0.220196 0
M  V30 9649 H 903.727 -1.27188 1.12345 0
M  V30 9650 H 902.499 -3.14208 2.33215 0
M  V30 9651 H 902.122 -3.89634 0.791895 0
M  V30 9652 N 903.119 -0.802921 -1.35613 0
M  V30 9653 C 904.368 -0.378087 -1.98125 0
M  V30 9654 C 904.681 1.05953 -1.64418 0
M  V30 9655 O 905.887 1.58729 -2.20266 0
M  V30 9656 C 904.343 -0.625077 -3.5443 0
M  V30 9657 C 903.951 -2.07499 -3.97049 0
M  V30 9658 C 905.695 -0.265419 -4.23669 0
M  V30 9659 C 903.602 -2.26793 -5.46186 0
M  V30 9660 H 902.532 -0.137633 -0.741332 0
M  V30 9661 H 905.183 -0.986461 -1.54729 0
M  V30 9662 H 903.565 0.0531975 -3.95964 0
M  V30 9663 H 904.739 -2.79077 -3.66678 0
M  V30 9664 H 903.054 -2.39417 -3.40688 0
M  V30 9665 H 905.651 -0.387669 -5.33293 0
M  V30 9666 H 905.994 0.787994 -4.08774 0
M  V30 9667 H 906.527 -0.897464 -3.87544 0
M  V30 9668 H 903.266 -3.30566 -5.66045 0
M  V30 9669 H 902.786 -1.59735 -5.78139 0
M  V30 9670 H 904.465 -2.08165 -6.12598 0
M  V30 9671 N 904.597 1.47463 -0.556102 0
M  V30 9672 C 905.846 2.01678 -0.029492 0
M  V30 9673 C 906.159 1.436 1.32809 0
M  V30 9674 O 907.365 1.89472 1.94455 0
M  V30 9675 C 905.821 3.599 -0.00223937 0
M  V30 9676 C 905.429 4.26969 -1.35651 0
M  V30 9677 C 907.173 4.2187 0.471822 0
M  V30 9678 C 905.08 5.77194 -1.28843 0
M  V30 9679 H 904.01 0.753965 -0.00725504 0
M  V30 9680 H 906.661 1.69467 -0.703789 0
M  V30 9681 H 905.043 3.89068 0.737682 0
M  V30 9682 H 906.217 4.09444 -2.11406 0
M  V30 9683 H 904.532 3.76983 -1.76842 0
M  V30 9684 H 907.129 5.31955 0.541139 0
M  V30 9685 H 907.472 3.88968 1.48356 0
M  V30 9686 H 908.005 3.97228 -0.213207 0
M  V30 9687 H 904.744 6.14713 -2.27613 0
M  V30 9688 H 904.264 5.9706 -0.572668 0
M  V30 9689 H 905.943 6.3938 -0.990031 0
M  V30 9690 N 906.075 0.2925 1.54862 0
M  V30 9691 C 907.305 -0.321646 2.04081 0
M  V30 9692 C 907.713 -1.48712 1.16967 0
M  V30 9693 O 907.056 -1.82755 0.18609 0
M  V30 9694 C 907.118 -0.848678 3.49339 0
M  V30 9695 C 906.782 0.190416 4.56603 0
M  V30 9696 C 907.779 1.01595 5.09877 0
M  V30 9697 C 905.464 0.329666 5.01217 0
M  V30 9698 C 907.458 1.96676 6.06298 0
M  V30 9699 C 905.145 1.28393 5.9746 0
M  V30 9700 C 906.143 2.10097 6.49883 0
M  V30 9701 O 905.831 3.03907 7.44242 0
M  V30 9702 H 905.563 -0.075098 0.671816 0
M  V30 9703 H 908.117 0.427531 2.00901 0
M  V30 9704 H 906.347 -1.64823 3.49815 0
M  V30 9705 H 908.036 -1.37779 3.81801 0
M  V30 9706 H 908.802 0.919197 4.7621 0
M  V30 9707 H 904.681 -0.296317 4.60047 0
M  V30 9708 H 908.225 2.60488 6.47141 0
M  V30 9709 H 904.122 1.38144 6.30545 0
M  V30 9710 H 904.89 2.98787 7.62016 0
M  V30 9711 N 907.553 -1.57587 0.0200696 0
M  V30 9712 C 908.799 -1.91708 -0.661503 0
M  V30 9713 C 909.132 -0.895968 -1.72296 0
M  V30 9714 O 908.407 0.082577 -1.94325 0
M  V30 9715 C 908.69 -3.36344 -1.28627 0
M  V30 9716 C 908.543 -4.49186 -0.234982 0
M  V30 9717 C 909.862 -3.80771 -2.20685 0
M  V30 9718 H 906.981 -0.69717 -0.239005 0
M  V30 9719 H 909.623 -1.8985 0.0754764 0
M  V30 9720 H 907.773 -3.38058 -1.91439 0
M  V30 9721 H 909.445 -4.59606 0.395011 0
M  V30 9722 H 907.688 -4.31557 0.440565 0
M  V30 9723 H 908.359 -5.47395 -0.711558 0
M  V30 9724 H 910.835 -3.80735 -1.67868 0
M  V30 9725 H 909.711 -4.82685 -2.61356 0
M  V30 9726 H 909.972 -3.15764 -3.09428 0
M  V30 9727 N 909.032 0.252966 -1.55557 0
M  V30 9728 C 909.964 1.33585 -1.86246 0
M  V30 9729 C 910.977 1.44584 -0.748291 0
M  V30 9730 O 912.166 1.46042 -1.02635 0
M  V30 9731 C 909.266 2.71509 -2.02821 0
M  V30 9732 C 908.439 2.82853 -3.33636 0
M  V30 9733 C 907.498 4.01581 -3.40028 0
M  V30 9734 O 906.524 3.91394 -4.13278 0
M  V30 9735 N 907.726 5.14474 -2.6888 0
M  V30 9736 H 910.491 1.07596 -2.7972 0
M  V30 9737 H 908.052 0.443075 -1.55719 0
M  V30 9738 H 910.044 3.49262 -2.04445 0
M  V30 9739 H 908.614 2.90232 -1.1612 0
M  V30 9740 H 907.834 1.91823 -3.4438 0
M  V30 9741 H 909.122 2.87378 -4.19871 0
M  V30 9742 H 908.52 5.25641 -2.09087 0
M  V30 9743 H 907.077 5.90385 -2.76204 0
M  V30 9744 N 910.51 1.48831 0.518367 0
M  V30 9745 C 911.738 1.6112 1.298 0
M  V30 9746 C 912.153 0.275872 1.86774 0
M  V30 9747 O 911.51 -0.736416 1.66983 0
M  V30 9748 C 911.561 2.66675 2.44063 0
M  V30 9749 O 911.282 3.95027 1.89434 0
M  V30 9750 C 912.783 2.8951 3.35706 0
M  V30 9751 H 910.003 0.542916 0.394314 0
M  V30 9752 H 912.547 1.94743 0.624142 0
M  V30 9753 H 910.702 2.35879 3.07311 0
M  V30 9754 H 911.116 4.53031 2.64316 0
M  V30 9755 H 912.59 3.67142 4.12202 0
M  V30 9756 H 913.067 1.98768 3.91648 0
M  V30 9757 H 913.673 3.21656 2.7824 0
M  V30 9758 N 911.988 -0.768124 1.37614 0
M  V30 9759 C 913.265 -1.51637 1.23554 0
M  V30 9760 C 913.645 -2.1042 -0.169331 0
M  V30 9761 O 912.993 -1.95834 -1.17735 0
M  V30 9762 C 913.203 -2.59436 2.33439 0
M  V30 9763 C 914.551 -3.2674 2.71157 0
M  V30 9764 O 915.575 -2.69733 2.32642 0
M  V30 9765 O 914.434 -4.29814 3.37524 0
M  V30 9766 H 911.528 -0.671778 0.482332 0
M  V30 9767 H 914.074 -0.804779 1.49403 0
M  V30 9768 H 912.846 -2.14146 3.27502 0
M  V30 9769 H 912.469 -3.38192 2.09073 0
M  V30 9770 N 913.466 -1.22244 -0.994698 0
M  V30 9771 C 914.429 -0.992308 -2.06606 0
M  V30 9772 C 915.429 0.0405872 -1.60749 0
M  V30 9773 O 916.619 -0.197737 -1.73074 0
M  V30 9774 C 913.751 -0.498499 -3.37236 0
M  V30 9775 H 914.944 -1.9429 -2.28455 0
M  V30 9776 H 912.497 -1.04087 -1.166 0
M  V30 9777 H 913.232 0.456531 -3.21071 0
M  V30 9778 H 913.017 -1.24367 -3.71854 0
M  V30 9779 H 914.507 -0.35768 -4.16065 0
M  V30 9780 N 914.944 1.19125 -1.03184 0
M  V30 9781 C 916.172 1.92838 -0.74975 0
M  V30 9782 C 916.587 1.75667 0.691851 0
M  V30 9783 O 915.944 1.0805 1.47076 0
M  V30 9784 C 915.995 3.44509 -1.09525 0
M  V30 9785 O 915.716 3.6113 -2.48025 0
M  V30 9786 C 917.217 4.35338 -0.836397 0
M  V30 9787 H 914.437 0.61246 -0.274105 0
M  V30 9788 H 916.981 1.5118 -1.37712 0
M  V30 9789 H 915.136 3.83988 -0.513006 0
M  V30 9790 H 915.55 4.54959 -2.60984 0
M  V30 9791 H 917.024 5.4035 -1.12808 0
M  V30 9792 H 917.501 4.38602 0.229102 0
M  V30 9793 H 918.107 4.01544 -1.40152 0
M  V30 9794 N 916.422 0.810101 1.35185 0
M  V30 9795 C 917.37 0.211071 2.3164 0
M  V30 9796 C 918.364 -0.641109 1.568 0
M  V30 9797 O 919.57 -0.533881 1.719 0
M  V30 9798 H 915.945 0.0494978 0.750369 0
M  V30 9799 H 917.916 1.03964 2.79703 0
M  V30 9800 C 916.665 -0.622933 3.42074 0
M  V30 9801 H 915.988 0.0234648 3.99793 0
M  V30 9802 H 917.428 -1.0084 4.11834 0
M  V30 9803 C 915.887 -1.78994 2.85417 0
M  V30 9804 O 916.417 -2.88758 2.79252 0
M  V30 9805 N 914.623 -1.60259 2.42416 0
M  V30 9806 H 914.17 -0.70974 2.4763 0
M  V30 9807 H 914.128 -2.38498 2.04857 0
M  V30 9808 N 917.9 -1.47166 0.563914 0
M  V30 9809 C 919.311 -1.86231 0.132307 0
M  V30 9810 C 919.662 -1.46976 -1.29971 0
M  V30 9811 O 918.787 -0.875911 -1.97881 0
M  V30 9812 C 919.382 -3.37996 0.233335 0
M  V30 9813 C 917.941 -3.76127 -0.143278 0
M  V30 9814 C 917.088 -2.71212 0.577857 0
M  V30 9815 H 920.039 -1.38588 0.773249 0
M  V30 9816 H 920.06 -3.76558 -0.546309 0
M  V30 9817 H 919.572 -3.66535 1.27568 0
M  V30 9818 H 917.673 -3.53205 -1.18648 0
M  V30 9819 H 917.786 -4.78595 0.219952 0
M  V30 9820 H 916.15 -2.54692 0.020186 0
M  V30 9821 H 916.933 -3.02593 1.62149 0
M  V30 9822 N 919.378 -0.300708 -1.54705 0
M  V30 9823 C 920.603 0.314073 -2.05008 0
M  V30 9824 C 921.028 1.46759 -1.17657 0
M  V30 9825 O 920.386 1.80398 -0.180598 0
M  V30 9826 C 920.434 0.748243 -3.52752 0
M  V30 9827 O 919.538 1.85305 -3.68424 0
M  V30 9828 H 918.879 0.0610139 -0.661191 0
M  V30 9829 H 921.409 -0.442467 -1.99758 0
M  V30 9830 H 921.419 1.03713 -3.94598 0
M  V30 9831 H 920.094 -0.095573 -4.1579 0
M  V30 9832 H 918.671 1.56473 -3.38483 0
M  V30 9833 N 920.856 1.57574 -0.0284266 0
M  V30 9834 C 922.102 1.92056 0.651327 0
M  V30 9835 C 922.435 0.905092 1.71819 0
M  V30 9836 O 921.71 -0.0722703 1.94366 0
M  V30 9837 C 921.993 3.37021 1.26841 0
M  V30 9838 C 921.846 4.49304 0.211157 0
M  V30 9839 C 923.165 3.81936 2.18662 0
M  V30 9840 H 920.284 0.698428 0.235304 0
M  V30 9841 H 922.926 1.89807 -0.0855435 0
M  V30 9842 H 921.076 3.39068 1.89644 0
M  V30 9843 H 922.748 4.5939 -0.419379 0
M  V30 9844 H 920.991 4.31317 -0.463445 0
M  V30 9845 H 921.662 5.47764 0.682518 0
M  V30 9846 H 924.138 3.8162 1.65847 0
M  V30 9847 H 923.014 4.84064 2.58792 0
M  V30 9848 H 923.275 3.174 3.07749 0
M  V30 9849 N 922.334 -0.244713 1.55689 0
M  V30 9850 C 923.745 -0.813603 1.6804 0
M  V30 9851 C 924.096 -1.85936 0.626281 0
M  V30 9852 O 923.221 -2.15206 -0.227038 0
M  V30 9853 C 923.816 -1.48252 3.04642 0
M  V30 9854 C 922.375 -1.99908 3.18926 0
M  V30 9855 C 921.522 -0.850958 2.6392 0
M  V30 9856 H 924.473 -0.0204805 1.58687 0
M  V30 9857 H 924.494 -2.35062 2.99209 0
M  V30 9858 H 924.006 -0.721164 3.81341 0
M  V30 9859 H 922.107 -2.78918 2.47054 0
M  V30 9860 H 922.22 -2.19497 4.25862 0
M  V30 9861 H 920.584 -1.25206 2.21801 0
M  V30 9862 H 921.367 -0.10265 3.43146 0
M  V30 9863 N 923.813 -1.49104 -0.510467 0
M  V30 9864 C 924.743 -1.67981 -1.62187 0
M  V30 9865 C 925.724 -0.528529 -1.6168 0
M  V30 9866 O 926.909 -0.763305 -1.7857 0
M  V30 9867 C 924.039 -1.73755 -3.0071 0
M  V30 9868 C 922.993 -2.88579 -3.1608 0
M  V30 9869 C 922.319 -2.79457 -4.5586 0
M  V30 9870 C 923.619 -4.29638 -2.97 0
M  V30 9871 H 925.313 -2.61029 -1.46643 0
M  V30 9872 H 922.859 -1.25615 -0.704042 0
M  V30 9873 H 924.812 -1.85548 -3.78352 0
M  V30 9874 H 923.536 -0.772996 -3.17321 0
M  V30 9875 H 922.195 -2.76372 -2.40861 0
M  V30 9876 H 921.843 -1.80929 -4.69333 0
M  V30 9877 H 921.543 -3.56518 -4.67086 0
M  V30 9878 H 923.067 -2.93245 -5.35574 0
M  V30 9879 H 924.481 -4.42575 -3.64418 0
M  V30 9880 H 922.878 -5.07847 -3.19704 0
M  V30 9881 H 923.948 -4.44741 -1.93219 0
M  V30 9882 N 925.291 0.760815 -1.38019 0
M  V30 9883 C 926.568 1.5098 -1.24356 0
M  V30 9884 C 926.948 2.10507 0.158169 0
M  V30 9885 O 926.296 1.96455 1.16695 0
M  V30 9886 C 926.506 2.58195 -2.34811 0
M  V30 9887 C 927.854 3.25297 -2.72886 0
M  V30 9888 O 928.878 2.68496 -2.34069 0
M  V30 9889 O 927.737 4.28018 -3.39799 0
M  V30 9890 H 924.831 0.66921 -0.485888 0
M  V30 9891 H 927.377 0.796844 -1.49828 0
M  V30 9892 H 926.149 2.12406 -3.28633 0
M  V30 9893 H 925.772 3.37079 -2.10864 0
M  V30 9894 N 926.769 1.22769 0.988202 0
M  V30 9895 C 928.18 1.0512 1.54294 0
M  V30 9896 C 928.531 -0.383904 1.92407 0
M  V30 9897 O 927.656 -1.26955 1.75246 0
M  V30 9898 C 928.251 1.90198 2.80375 0
M  V30 9899 C 926.81 1.76831 3.32276 0
M  V30 9900 C 925.957 1.86377 2.05326 0
M  V30 9901 H 928.908 1.36546 0.808758 0
M  V30 9902 H 928.929 1.42216 3.52923 0
M  V30 9903 H 928.441 2.9464 2.52605 0
M  V30 9904 H 926.542 0.751412 3.64945 0
M  V30 9905 H 926.655 2.59771 4.02562 0
M  V30 9906 H 925.019 1.2987 2.19103 0
M  V30 9907 H 925.802 2.9236 1.79946 0
M  V30 9908 N 928.247 -1.18576 1.03814 0
M  V30 9909 C 929.496 -1.87822 0.735235 0
M  V30 9910 C 929.809 -1.81069 -0.739819 0
M  V30 9911 O 931.015 -2.45654 -1.15614 0
M  V30 9912 C 929.471 -3.36941 1.26486 0
M  V30 9913 C 929.079 -3.5223 2.76836 0
M  V30 9914 C 930.823 -4.11604 1.03836 0
M  V30 9915 C 928.73 -4.95294 3.23169 0
M  V30 9916 H 927.66 -0.703487 0.271333 0
M  V30 9917 H 930.311 -1.34 1.25365 0
M  V30 9918 H 928.693 -3.90217 0.674318 0
M  V30 9919 H 929.867 -3.09239 3.41625 0
M  V30 9920 H 928.182 -2.90969 2.97869 0
M  V30 9921 H 930.779 -5.17123 1.3597 0
M  V30 9922 H 931.122 -4.16293 -0.0244945 0
M  V30 9923 H 931.655 -3.64494 1.59338 0
M  V30 9924 H 928.394 -4.95772 4.28824 0
M  V30 9925 H 927.914 -5.3901 2.63113 0
M  V30 9926 H 929.593 -5.63996 3.17045 0
M  V30 9927 N 929.725 -0.817259 -1.34754 0
M  V30 9928 C 930.95 -0.414423 -2.03217 0
M  V30 9929 C 931.375 0.970037 -1.61158 0
M  V30 9930 O 930.733 1.63016 -0.793436 0
M  V30 9931 C 930.781 -0.518087 -3.56859 0
M  V30 9932 O 929.885 0.464314 -4.09778 0
M  V30 9933 H 929.226 -0.171454 -0.641482 0
M  V30 9934 H 931.756 -1.10611 -1.72123 0
M  V30 9935 H 931.766 -0.391779 -4.06115 0
M  V30 9936 H 930.441 -1.52786 -3.86819 0
M  V30 9937 H 929.018 0.297361 -3.71712 0
M  V30 9938 N 931.203 1.46865 -0.571711 0
M  V30 9939 C 932.449 2.0273 -0.0531858 0
M  V30 9940 C 932.782 1.44353 1.29907 0
M  V30 9941 O 932.057 0.604488 1.84868 0
M  V30 9942 C 932.34 3.60092 0.0243831 0
M  V30 9943 C 932.193 4.28874 -1.35599 0
M  V30 9944 C 933.512 4.33994 0.730563 0
M  V30 9945 H 930.631 0.736706 -0.0208018 0
M  V30 9946 H 933.273 1.75132 -0.736794 0
M  V30 9947 H 931.423 3.83736 0.606565 0
M  V30 9948 H 933.095 4.16527 -1.98249 0
M  V30 9949 H 931.338 3.88664 -1.92674 0
M  V30 9950 H 932.009 5.37561 -1.25429 0
M  V30 9951 H 934.485 4.1543 0.236098 0
M  V30 9952 H 933.361 5.43699 0.753836 0
M  V30 9953 H 933.622 4.04257 1.78967 0
M  V30 9954 N 932.681 0.308908 1.54543 0
M  V30 9955 C 933.906 -0.303196 2.05172 0
M  V30 9956 C 934.331 -1.46133 1.18434 0
M  V30 9957 O 933.689 -1.803 0.190162 0
M  V30 9958 C 933.737 -0.729526 3.53143 0
M  V30 9959 O 932.841 -1.83348 3.69401 0
M  V30 9960 H 932.182 -0.0575066 0.661505 0
M  V30 9961 H 934.712 0.453055 1.99521 0
M  V30 9962 H 934.722 -1.01619 3.95143 0
M  V30 9963 H 933.397 0.117622 4.15734 0
M  V30 9964 H 931.974 -1.54676 3.39308 0
M  V30 9965 N 934.159 -1.57557 0.0367827 0
M  V30 9966 C 935.107 -2.11844 -0.960454 0
M  V30 9967 C 936.101 -1.04681 -1.33185 0
M  V30 9968 O 937.307 -1.23108 -1.31318 0
M  V30 9969 H 933.682 -0.676921 -0.32754 0
M  V30 9970 H 935.653 -2.94557 -0.477346 0
M  V30 9971 C 934.402 -2.66683 -2.23105 0
M  V30 9972 H 933.725 -3.48795 -1.95403 0
M  V30 9973 H 935.165 -3.08305 -2.91074 0
M  V30 9974 C 933.624 -1.59782 -2.96599 0
M  V30 9975 O 934.154 -1.00214 -3.88999 0
M  V30 9976 N 932.36 -1.31644 -2.59072 0
M  V30 9977 H 931.907 -1.80272 -1.8401 0
M  V30 9978 H 931.865 -0.603457 -3.08554 0
M  V30 9979 N 935.637 0.236453 -1.55816 0
M  V30 9980 C 936.862 0.98449 -1.82545 0
M  V30 9981 C 937.287 1.77755 -0.615206 0
M  V30 9982 O 936.645 1.75982 0.435895 0
M  V30 9983 C 936.693 1.88973 -3.07118 0
M  V30 9984 O 935.797 2.98298 -2.84766 0
M  V30 9985 H 935.138 0.279577 -0.602273 0
M  V30 9986 H 937.668 0.254277 -2.03014 0
M  V30 9987 H 937.678 2.3024 -3.36829 0
M  V30 9988 H 936.353 1.30671 -3.94839 0
M  V30 9989 H 934.93 2.61085 -2.6625 0
M  V30 9990 N 937.115 1.49373 0.502552 0
M  V30 9991 C 938.34 1.62752 1.28556 0
M  V30 9992 C 938.765 0.298285 1.8572 0
M  V30 9993 O 938.123 -0.733885 1.65782 0
M  V30 9994 C 938.171 2.69778 2.39274 0
M  V30 9995 O 937.275 2.28843 3.43081 0
M  V30 9996 H 936.616 0.544799 0.379592 0
M  V30 9997 H 939.146 1.9555 0.601792 0
M  V30 9998 H 939.156 2.91899 2.8506 0
M  V30 9999 H 937.831 3.66266 1.97033 0
M  V30 10000 H 936.408 2.17047 3.03224 0
M  V30 10001 N 938.594 -0.753485 1.38421 0
M  V30 10002 C 939.819 -1.54783 1.38047 0
M  V30 10003 C 940.244 -1.8808 -0.0276371 0
M  V30 10004 O 939.602 -1.5058 -1.00973 0
M  V30 10005 C 939.65 -2.82353 2.24297 0
M  V30 10006 O 938.754 -3.77509 1.66014 0
M  V30 10007 H 938.095 -0.468151 0.470883 0
M  V30 10008 H 940.625 -0.931144 1.82184 0
M  V30 10009 H 940.635 -3.31277 2.38159 0
M  V30 10010 H 939.31 -2.57449 3.26639 0
M  V30 10011 H 937.887 -3.36212 1.61294 0
M  V30 10012 N 940.072 -1.23292 -0.981677 0
M  V30 10013 C 941.004 -0.970782 -2.07626 0
M  V30 10014 C 942.017 0.0547506 -1.62708 0
M  V30 10015 O 943.206 -0.180623 -1.77584 0
M  V30 10016 C 940.306 -0.44055 -3.36024 0
M  V30 10017 C 939.479 -1.52595 -4.09919 0
M  V30 10018 C 938.538 -1.00082 -5.16595 0
M  V30 10019 O 937.564 -1.68951 -5.43548 0
M  V30 10020 N 938.766 0.172017 -5.80245 0
M  V30 10021 H 941.531 -1.91316 -2.30691 0
M  V30 10022 H 939.092 -1.14133 -1.14828 0
M  V30 10023 H 941.084 -0.0743111 -4.04632 0
M  V30 10024 H 939.654 0.407211 -3.09936 0
M  V30 10025 H 938.874 -2.06501 -3.35784 0
M  V30 10026 H 940.162 -2.2559 -4.56055 0
M  V30 10027 H 939.56 0.748129 -5.60731 0
M  V30 10028 H 938.117 0.479532 -6.50034 0
M  V30 10029 N 941.55 1.18024 -1.04442 0
M  V30 10030 C 942.799 1.8743 -0.745185 0
M  V30 10031 C 943.112 1.81459 0.730206 0
M  V30 10032 O 944.318 2.46263 1.1431 0
M  V30 10033 C 942.774 3.36266 -1.28271 0
M  V30 10034 C 942.382 3.50757 -2.787 0
M  V30 10035 C 944.126 4.11048 -1.06018 0
M  V30 10036 C 942.033 4.93573 -3.25791 0
M  V30 10037 H 940.963 0.702038 -0.27506 0
M  V30 10038 H 943.614 1.33333 -1.26073 0
M  V30 10039 H 941.996 3.89853 -0.695002 0
M  V30 10040 H 943.17 3.07423 -3.43261 0
M  V30 10041 H 941.485 2.89385 -2.99408 0
M  V30 10042 H 944.082 5.16395 -1.38711 0
M  V30 10043 H 944.425 4.163 0.00241716 0
M  V30 10044 H 944.958 3.63644 -1.61269 0
M  V30 10045 H 941.697 4.93491 -4.31447 0
M  V30 10046 H 941.217 5.37607 -2.65968 0
M  V30 10047 H 942.896 5.62307 -3.20031 0
M  V30 10048 N 943.028 0.824394 1.34319 0
M  V30 10049 C 944.277 0.40956 1.97498 0
M  V30 10050 C 944.59 -1.03323 1.66083 0
M  V30 10051 O 945.796 -1.55205 2.22764 0
M  V30 10052 C 944.252 0.681384 3.53391 0
M  V30 10053 C 943.86 2.1379 3.93698 0
M  V30 10054 C 945.604 0.332788 4.23194 0
M  V30 10055 C 943.511 2.35453 5.42509 0
M  V30 10056 H 942.441 0.149409 0.739049 0
M  V30 10057 H 945.092 1.01095 1.5314 0
M  V30 10058 H 943.474 0.00980375 3.95999 0
M  V30 10059 H 944.648 2.84876 3.62191 0
M  V30 10060 H 942.963 2.44807 3.36836 0
M  V30 10061 H 945.56 0.472463 5.32609 0
M  V30 10062 H 945.903 -0.722862 4.09976 0
M  V30 10063 H 946.436 0.959005 3.86067 0
M  V30 10064 H 943.175 3.39529 5.60714 0
M  V30 10065 H 942.695 1.68912 5.75525 0
M  V30 10066 H 944.374 2.17885 6.09209 0
M  V30 10067 N 944.506 -1.46559 0.579492 0
M  V30 10068 C 945.436 -2.33059 -0.143437 0
M  V30 10069 C 946.417 -1.4515 -0.886868 0
M  V30 10070 O 947.602 -1.73973 -0.862961 0
M  V30 10071 C 944.732 -3.27364 -1.15973 0
M  V30 10072 C 943.686 -4.24689 -0.531348 0
M  V30 10073 C 943.012 -5.08479 -1.65388 0
M  V30 10074 C 944.312 -5.1961 0.529391 0
M  V30 10075 H 946.006 -2.93753 0.578762 0
M  V30 10076 H 943.552 -1.41256 0.279775 0
M  V30 10077 H 945.505 -3.86732 -1.67382 0
M  V30 10078 H 944.229 -2.64771 -1.91217 0
M  V30 10079 H 942.888 -3.6658 -0.0383749 0
M  V30 10080 H 942.536 -4.42273 -2.3959 0
M  V30 10081 H 942.236 -5.74387 -1.23909 0
M  V30 10082 H 943.76 -5.70709 -2.17079 0
M  V30 10083 H 945.174 -5.73212 0.100506 0
M  V30 10084 H 943.571 -5.93843 0.86432 0
M  V30 10085 H 944.641 -4.63737 1.4169 0
M  V30 10086 N 945.984 -0.3171 -1.54377 0
M  V30 10087 C 946.931 0.551782 -2.24107 0
M  V30 10088 C 947.901 1.11681 -1.22949 0
M  V30 10089 O 949.086 1.15836 -1.51614 0
M  V30 10090 C 946.226 1.70997 -2.99756 0
M  V30 10091 C 945.339 1.17479 -4.15719 0
M  V30 10092 C 944.474 2.29815 -4.78914 0
M  V30 10093 C 943.513 1.73513 -5.86992 0
M  V30 10094 N 942.65 2.79485 -6.44075 0
M  V30 10095 H 947.49 -0.049431 -2.97959 0
M  V30 10096 H 945.027 -0.0361658 -1.47056 0
M  V30 10097 H 946.985 2.39141 -3.41859 0
M  V30 10098 H 945.615 2.28257 -2.28251 0
M  V30 10099 H 944.667 0.385109 -3.78446 0
M  V30 10100 H 945.979 0.72276 -4.93536 0
M  V30 10101 H 945.133 3.05875 -5.23952 0
M  V30 10102 H 943.872 2.78352 -4.00464 0
M  V30 10103 H 942.877 0.959475 -5.41363 0
M  V30 10104 H 944.102 1.2586 -6.67335 0
M  V30 10105 H 942.048 3.27325 -5.68502 0
M  V30 10106 H 941.965 2.38825 -7.17286 0
M  V30 10107 H 943.233 3.55394 -6.93769 0
M  V30 10108 N 947.462 1.57535 -0.0451378 0
M  V30 10109 C 948.708 1.93558 0.62505 0
M  V30 10110 C 949.063 0.923159 1.68806 0
M  V30 10111 O 948.356 -0.0585419 1.91511 0
M  V30 10112 C 948.55 3.34065 1.27024 0
M  V30 10113 C 948.379 4.48881 0.271253 0
M  V30 10114 C 947.149 5.05121 -0.13462 0
M  V30 10115 C 949.347 5.12047 -0.480911 0
M  V30 10116 N 947.329 6.03465 -1.1271 0
M  V30 10117 C 948.7 6.0564 -1.32666 0
M  V30 10118 C 950.755 4.94964 -0.539878 0
M  V30 10119 C 949.458 6.83987 -2.22608 0
M  V30 10120 C 951.484 5.73933 -1.4267 0
M  V30 10121 C 950.846 6.67154 -2.26019 0
M  V30 10122 H 946.945 0.755846 0.20055 0
M  V30 10123 H 949.529 1.94354 -0.116059 0
M  V30 10124 H 947.7 3.34058 1.98141 0
M  V30 10125 H 949.432 3.57393 1.89875 0
M  V30 10126 H 946.187 4.72976 0.243112 0
M  V30 10127 H 946.611 6.5733 -1.62006 0
M  V30 10128 H 951.253 4.22704 0.0902834 0
M  V30 10129 H 948.971 7.55543 -2.86672 0
M  V30 10130 H 952.557 5.62744 -1.47682 0
M  V30 10131 H 951.437 7.27194 -2.93528 0
M  V30 10132 N 948.94 -0.228186 1.55939 0
M  V30 10133 C 949.887 -1.28274 1.91871 0
M  V30 10134 C 950.857 -1.46906 0.775103 0
M  V30 10135 O 952.042 -1.60583 1.03042 0
M  V30 10136 C 949.182 -2.62945 2.23504 0
M  V30 10137 C 948.295 -2.52166 3.50766 0
M  V30 10138 C 947.43 -3.79316 3.71878 0
M  V30 10139 C 946.469 -3.63231 4.92676 0
M  V30 10140 N 945.606 -4.82315 5.10212 0
M  V30 10141 H 950.446 -0.96931 2.81795 0
M  V30 10142 H 947.983 -0.467331 1.39479 0
M  V30 10143 H 949.941 -3.41359 2.39854 0
M  V30 10144 H 948.571 -2.92397 1.36762 0
M  V30 10145 H 947.623 -1.65221 3.42646 0
M  V30 10146 H 948.935 -2.36199 4.39331 0
M  V30 10147 H 948.089 -4.66173 3.88288 0
M  V30 10148 H 946.828 -3.982 2.81581 0
M  V30 10149 H 945.833 -2.74757 4.76223 0
M  V30 10150 H 947.058 -3.45823 5.84451 0
M  V30 10151 H 945.004 -5.01526 4.22856 0
M  V30 10152 H 944.921 -4.6905 5.92898 0
M  V30 10153 H 946.189 -5.70618 5.31051 0
M  V30 10154 N 950.418 -1.49637 -0.494624 0
M  V30 10155 C 951.829 -1.52573 -1.07603 0
M  V30 10156 C 952.18 -0.315591 -1.93645 0
M  V30 10157 O 951.305 0.573966 -2.08649 0
M  V30 10158 C 951.9 -2.7648 -1.95817 0
M  V30 10159 C 950.459 -2.82173 -2.49109 0
M  V30 10160 C 949.606 -2.4657 -1.2688 0
M  V30 10161 H 952.557 -1.56242 -0.278251 0
M  V30 10162 H 952.578 -2.57003 -2.80588 0
M  V30 10163 H 952.09 -3.64538 -1.33167 0
M  V30 10164 H 950.191 -1.9841 -3.15379 0
M  V30 10165 H 950.304 -3.84501 -2.85825 0
M  V30 10166 H 948.668 -1.98489 -1.59607 0
M  V30 10167 H 949.451 -3.3691 -0.659281 0
M  V30 10168 N 951.896 0.746133 -1.38819 0
M  V30 10169 C 953.307 1.32384 -1.31648 0
M  V30 10170 C 953.658 1.96185 0.0243086 0
M  V30 10171 O 952.783 1.95567 0.92641 0
M  V30 10172 C 953.378 2.40712 -2.38418 0
M  V30 10173 C 951.937 2.94185 -2.34803 0
M  V30 10174 C 951.084 1.67639 -2.20891 0
M  V30 10175 H 954.035 0.544457 -1.49068 0
M  V30 10176 H 954.056 3.20833 -2.04564 0
M  V30 10177 H 953.568 1.94247 -3.3599 0
M  V30 10178 H 951.669 3.44959 -1.40834 0
M  V30 10179 H 951.782 3.48057 -3.29231 0
M  V30 10180 H 950.146 1.9155 -1.67871 0
M  V30 10181 H 950.929 1.23242 -3.20416 0
M  V30 10182 N 953.375 1.23811 0.975125 0
M  V30 10183 C 954.6 1.10109 1.75757 0
M  V30 10184 C 955.025 -0.342922 1.84948 0
M  V30 10185 O 954.383 -1.24814 1.31496 0
M  V30 10186 C 954.431 1.73724 3.15994 0
M  V30 10187 O 953.535 1.00297 4.00018 0
M  V30 10188 H 952.876 0.385627 0.540544 0
M  V30 10189 H 955.406 1.63971 1.22372 0
M  V30 10190 H 955.416 1.79178 3.6655 0
M  V30 10191 H 954.091 2.78794 3.0862 0
M  V30 10192 H 952.668 1.02575 3.58515 0
M  V30 10193 N 954.853 -1.17469 1.05066 0
M  V30 10194 C 956.13 -1.83625 0.673872 0
M  V30 10195 C 956.51 -1.93412 -0.845871 0
M  V30 10196 O 955.858 -1.4677 -1.75131 0
M  V30 10197 C 956.068 -3.21352 1.36139 0
M  V30 10198 C 957.416 -3.97274 1.49863 0
M  V30 10199 O 958.44 -3.30827 1.3203 0
M  V30 10200 O 957.299 -5.16349 1.79013 0
M  V30 10201 H 954.393 -0.792297 0.237055 0
M  V30 10202 H 956.939 -1.24776 1.15017 0
M  V30 10203 H 955.711 -3.0919 2.39827 0
M  V30 10204 H 955.334 -3.87867 0.874364 0
M  V30 10205 N 956.331 -0.831506 -1.3388 0
M  V30 10206 C 957.742 -0.481375 -1.80388 0
M  V30 10207 C 958.093 0.998993 -1.68863 0
M  V30 10208 O 957.218 1.77795 -1.2336 0
M  V30 10209 C 957.813 -0.86699 -3.27519 0
M  V30 10210 C 956.372 -0.569105 -3.72073 0
M  V30 10211 C 955.519 -1.07929 -2.55434 0
M  V30 10212 H 958.47 -1.02089 -1.21505 0
M  V30 10213 H 958.491 -0.174128 -3.80101 0
M  V30 10214 H 958.003 -1.94447 -3.35875 0
M  V30 10215 H 956.104 0.498607 -3.69249 0
M  V30 10216 H 956.217 -1.11918 -4.65845 0
M  V30 10217 H 954.581 -0.500465 -2.49735 0
M  V30 10218 H 955.364 -2.16339 -2.66556 0
M  V30 10219 N 957.809 1.4625 -0.587256 0
M  V30 10220 C 958.757 2.32076 0.156108 0
M  V30 10221 C 959.751 1.44756 0.879887 0
M  V30 10222 O 960.957 1.61356 0.797759 0
M  V30 10223 H 957.332 0.748808 0.0692098 0
M  V30 10224 H 959.303 2.9258 -0.586497 0
M  V30 10225 C 958.052 3.28008 1.15352 0
M  V30 10226 H 957.375 3.9518 0.60601 0
M  V30 10227 H 958.815 3.90832 1.64396 0
M  V30 10228 C 957.274 2.53691 2.21681 0
M  V30 10229 O 957.804 2.30329 3.29107 0
M  V30 10230 N 956.01 2.14174 1.96412 0
M  V30 10231 H 955.557 2.33374 1.09061 0
M  V30 10232 H 955.515 1.6477 2.67765 0
M  V30 10233 N 959.287 0.325282 1.54207 0
M  V30 10234 C 960.535 -0.276229 2.00203 0
M  V30 10235 C 960.856 -1.52519 1.21503 0
M  V30 10236 O 960.126 -1.93313 0.317302 0
M  V30 10237 H 958.706 -0.105059 0.739575 0
M  V30 10238 H 961.368 0.442225 1.89817 0
M  V30 10239 H 960.464 -0.531427 3.07542 0
M  V30 10240 N 960.765 -1.57509 0.0534917 0
M  V30 10241 C 961.713 -2.12851 -0.937931 0
M  V30 10242 C 962.707 -1.06088 -1.32067 0
M  V30 10243 O 963.913 -1.24494 -1.30005 0
M  V30 10244 H 960.288 -0.680357 -0.320342 0
M  V30 10245 H 962.259 -2.95047 -0.446077 0
M  V30 10246 C 961.008 -2.69034 -2.20264 0
M  V30 10247 H 960.331 -3.50848 -1.91693 0
M  V30 10248 H 961.771 -3.11375 -2.87788 0
M  V30 10249 C 960.23 -1.62919 -2.94888 0
M  V30 10250 O 960.76 -1.04334 -3.87914 0
M  V30 10251 N 958.966 -1.34385 -2.57661 0
M  V30 10252 H 958.513 -1.82214 -1.82088 0
M  V30 10253 H 958.471 -0.636149 -3.07897 0
M  V30 10254 N 962.243 0.219913 -1.56058 0
M  V30 10255 C 963.492 0.942119 -1.78345 0
M  V30 10256 C 963.805 1.85435 -0.622344 0
M  V30 10257 O 965.011 2.61533 -0.728886 0
M  V30 10258 C 963.467 1.72544 -3.15843 0
M  V30 10259 C 963.075 0.859263 -4.39682 0
M  V30 10260 C 964.819 2.43876 -3.47455 0
M  V30 10261 C 962.726 1.64003 -5.68205 0
M  V30 10262 H 961.656 0.355514 -0.664925 0
M  V30 10263 H 964.307 0.195963 -1.82451 0
M  V30 10264 H 962.689 2.51456 -3.05918 0
M  V30 10265 H 963.863 0.110562 -4.60667 0
M  V30 10266 H 962.178 0.257985 -4.156 0
M  V30 10267 H 964.775 3.02794 -4.40704 0
M  V30 10268 H 965.118 3.16843 -2.7003 0
M  V30 10269 H 965.651 1.71952 -3.58716 0
M  V30 10270 H 962.39 0.953606 -6.48526 0
M  V30 10271 H 961.91 2.3633 -5.51279 0
M  V30 10272 H 963.589 2.20028 -6.08438 0
M  V30 10273 N 963.721 1.49897 0.486681 0
M  V30 10274 C 964.949 1.63837 1.26353 0
M  V30 10275 C 965.364 0.315428 1.86146 0
M  V30 10276 O 964.721 -0.700831 1.68507 0
M  V30 10277 C 964.772 2.71792 2.38351 0
M  V30 10278 O 964.493 3.98956 1.81013 0
M  V30 10279 C 965.994 2.96566 3.2949 0
M  V30 10280 H 963.214 0.551158 0.382709 0
M  V30 10281 H 965.758 1.96023 0.582694 0
M  V30 10282 H 963.913 2.42344 3.02238 0
M  V30 10283 H 964.327 4.58536 2.54647 0
M  V30 10284 H 965.801 3.75803 4.04322 0
M  V30 10285 H 966.278 2.07031 3.87343 0
M  V30 10286 H 966.884 3.27485 2.71355 0
M  V30 10287 N 965.199 -0.738761 1.39212 0
M  V30 10288 C 966.149 -1.84376 1.34125 0
M  V30 10289 C 967.133 -1.5935 0.222793 0
M  V30 10290 O 968.325 -1.70918 0.460014 0
M  V30 10291 C 965.454 -3.22261 1.18334 0
M  V30 10292 C 964.54 -3.53129 2.34864 0
M  V30 10293 N 964.931 -3.54957 3.60332 0
M  V30 10294 C 963.229 -3.83472 2.27739 0
M  V30 10295 C 963.93 -3.83513 4.3737 0
M  V30 10296 N 962.906 -4.01097 3.66909 0
M  V30 10297 H 966.708 -1.84089 2.29104 0
M  V30 10298 H 964.222 -0.936826 1.32655 0
M  V30 10299 H 966.219 -4.01358 1.12772 0
M  V30 10300 H 964.879 -3.23789 0.243016 0
M  V30 10301 H 965.89 -3.36359 3.93806 0
M  V30 10302 H 962.567 -3.92628 1.41949 0
M  V30 10303 H 963.957 -3.91427 5.46109 0
M  V30 10304 N 966.677 -1.24326 -0.968545 0
M  V30 10305 C 967.907 -1.10786 -1.74385 0
M  V30 10306 C 968.315 0.342503 -1.86074 0
M  V30 10307 O 967.658 1.24817 -1.34782 0
M  V30 10308 C 967.72 -1.67274 -3.18213 0
M  V30 10309 C 967.384 -3.1615 -3.29998 0
M  V30 10310 C 968.381 -4.13309 -3.15392 0
M  V30 10311 C 966.066 -3.56092 -3.54265 0
M  V30 10312 C 968.06 -5.48392 -3.24878 0
M  V30 10313 C 965.747 -4.91316 -3.63389 0
M  V30 10314 C 966.745 -5.87275 -3.48707 0
M  V30 10315 O 966.433 -7.20041 -3.57485 0
M  V30 10316 H 966.165 -0.387795 -0.553706 0
M  V30 10317 H 968.719 -1.64894 -1.22471 0
M  V30 10318 H 966.949 -1.07598 -3.71429 0
M  V30 10319 H 968.638 -1.49036 -3.77549 0
M  V30 10320 H 969.404 -3.83792 -2.96528 0
M  V30 10321 H 965.283 -2.81907 -3.6476 0
M  V30 10322 H 968.827 -6.23271 -3.13335 0
M  V30 10323 H 964.724 -5.20505 -3.81766 0
M  V30 10324 H 965.492 -7.27951 -3.74205 0
M  V30 10325 N 968.156 1.1691 -1.05688 0
M  V30 10326 C 969.086 2.23275 -0.683402 0
M  V30 10327 C 970.067 1.6704 0.321206 0
M  V30 10328 O 971.252 1.93191 0.197691 0
M  V30 10329 C 968.382 3.47244 -0.0626006 0
M  V30 10330 C 967.336 4.16333 -0.992513 0
M  V30 10331 C 966.662 5.34182 -0.23533 0
M  V30 10332 C 967.962 4.68002 -2.31886 0
M  V30 10333 H 969.656 2.54771 -1.57264 0
M  V30 10334 H 967.202 1.2246 -0.757606 0
M  V30 10335 H 969.155 4.20874 0.210503 0
M  V30 10336 H 967.879 3.1503 0.861616 0
M  V30 10337 H 966.538 3.44622 -1.25026 0
M  V30 10338 H 966.186 4.9822 0.69181 0
M  V30 10339 H 965.886 5.81346 -0.855002 0
M  V30 10340 H 967.41 6.10592 0.0303717 0
M  V30 10341 H 968.824 5.33244 -2.10531 0
M  V30 10342 H 967.221 5.25764 -2.89296 0
M  V30 10343 H 968.291 3.84541 -2.95391 0
M  V30 10344 N 969.634 0.838594 1.33437 0
M  V30 10345 C 970.88 0.434813 1.98084 0
M  V30 10346 C 971.213 -1.00331 1.66275 0
M  V30 10347 O 970.488 -1.70139 0.942501 0
M  V30 10348 C 970.771 0.655602 3.54082 0
M  V30 10349 C 970.624 2.14097 3.95578 0
M  V30 10350 C 971.943 0.101576 4.39983 0
M  V30 10351 H 969.062 0.159456 0.719544 0
M  V30 10352 H 971.704 1.05406 1.58081 0
M  V30 10353 H 969.854 0.128501 3.88287 0
M  V30 10354 H 971.526 2.73292 3.71631 0
M  V30 10355 H 969.769 2.62558 3.4532 0
M  V30 10356 H 970.44 2.24621 5.04231 0
M  V30 10357 H 972.916 0.552122 4.12421 0
M  V30 10358 H 971.792 0.28575 5.48156 0
M  V30 10359 H 972.053 -0.994616 4.30767 0
M  V30 10360 N 971.112 -1.45937 0.595003 0
M  V30 10361 C 972.359 -2.0232 0.0853053 0
M  V30 10362 C 972.687 -1.465 -1.27937 0
M  V30 10363 O 971.942 -0.624767 -1.85459 0
M  V30 10364 C 972.241 -3.57396 -0.0173747 0
M  V30 10365 C 971.907 -4.32311 1.28131 0
M  V30 10366 C 970.569 -4.52496 1.63708 0
M  V30 10367 C 972.921 -4.75233 2.14017 0
M  V30 10368 C 970.249 -5.12857 2.84947 0
M  V30 10369 C 972.601 -5.36933 3.34493 0
M  V30 10370 C 971.265 -5.55343 3.70338 0
M  V30 10371 H 970.535 -0.740342 0.0312154 0
M  V30 10372 H 973.182 -1.75157 0.774103 0
M  V30 10373 H 971.487 -3.83766 -0.789371 0
M  V30 10374 H 973.184 -3.98713 -0.427699 0
M  V30 10375 H 969.774 -4.16905 0.994374 0
M  V30 10376 H 973.958 -4.59383 1.87833 0
M  V30 10377 H 969.214 -5.253 3.12841 0
M  V30 10378 H 973.388 -5.69147 4.01304 0
M  V30 10379 H 971.015 -6.01883 4.64371 0
M  V30 10380 N 972.59 -0.333456 -1.54032 0
M  V30 10381 C 973.836 0.259248 -2.01741 0
M  V30 10382 C 974.191 1.48999 -1.21725 0
M  V30 10383 O 973.484 1.89333 -0.293882 0
M  V30 10384 C 973.678 0.63565 -3.51702 0
M  V30 10385 C 973.507 -0.55707 -4.46236 0
M  V30 10386 C 972.277 -1.05925 -4.94073 0
M  V30 10387 C 974.475 -1.41237 -4.94527 0
M  V30 10388 N 972.457 -2.21535 -5.72534 0
M  V30 10389 C 973.828 -2.41551 -5.71011 0
M  V30 10390 C 975.883 -1.43899 -4.76652 0
M  V30 10391 C 974.586 -3.44342 -6.31523 0
M  V30 10392 C 976.612 -2.45567 -5.38006 0
M  V30 10393 C 975.974 -3.44606 -6.1435 0
M  V30 10394 H 972.073 0.0584431 -0.779813 0
M  V30 10395 H 974.657 -0.470736 -1.88924 0
M  V30 10396 H 972.828 1.33475 -3.64745 0
M  V30 10397 H 974.56 1.21067 -3.86167 0
M  V30 10398 H 971.315 -0.628947 -4.69405 0
M  V30 10399 H 971.739 -2.79878 -6.16439 0
M  V30 10400 H 976.381 -0.686929 -4.17182 0
M  V30 10401 H 974.099 -4.20449 -6.90107 0
M  V30 10402 H 977.685 -2.4844 -5.26088 0
M  V30 10403 H 976.565 -4.21987 -6.60982 0
M  V30 10404 N 974.068 1.57479 -0.061844 0
M  V30 10405 C 974.978 2.15645 0.923826 0
M  V30 10406 C 975.994 1.117 1.33413 0
M  V30 10407 O 977.17 1.4392 1.40887 0
M  V30 10408 C 974.235 2.69857 2.17665 0
M  V30 10409 C 973.296 3.88638 1.8237 0
M  V30 10410 C 972.529 4.40256 3.01679 0
M  V30 10411 O 972.752 3.90908 4.15388 0
M  V30 10412 O 971.686 5.31713 2.82073 0
M  V30 10413 H 975.512 3.0021 0.459094 0
M  V30 10414 H 973.097 1.48534 0.160665 0
M  V30 10415 H 974.979 3.04647 2.9115 0
M  V30 10416 H 973.654 1.88357 2.63255 0
M  V30 10417 H 972.561 3.58719 1.06167 0
M  V30 10418 H 973.894 4.71401 1.4157 0
M  V30 10419 N 975.546 -0.211634 1.56173 0
M  V30 10420 C 976.962 -0.56177 1.49386 0
M  V30 10421 C 977.162 -1.86666 0.758813 0
M  V30 10422 O 976.218 -2.50681 0.302534 0
M  V30 10423 C 977.531 -0.631815 2.93987 0
M  V30 10424 C 979.079 -0.721773 3.04564 0
M  V30 10425 C 979.554 -0.823075 4.50544 0
M  V30 10426 N 981.045 -0.887038 4.54627 0
M  V30 10427 C 981.78 -0.985304 5.64871 0
M  V30 10428 N 981.276 -1.0469 6.84844 0
M  V30 10429 N 983.069 -1.02121 5.52746 0
M  V30 10430 H 975.22 0.64452 2.02385 0
M  V30 10431 H 977.483 0.227466 0.920306 0
M  V30 10432 H 977.189 0.257592 3.50755 0
M  V30 10433 H 977.063 -1.4921 3.46433 0
M  V30 10434 H 979.45 -1.60162 2.47855 0
M  V30 10435 H 979.531 0.164385 2.55271 0
M  V30 10436 H 979.175 0.0523511 5.07873 0
M  V30 10437 H 979.105 -1.72479 4.97552 0
M  V30 10438 H 981.596 -0.849352 3.68231 0
M  V30 10439 H 981.909 -1.12193 7.64613 0
M  V30 10440 H 980.254 -1.01586 6.87536 0
M  V30 10441 H 983.445 -0.969814 4.57943 0
M  V30 10442 H 983.618 -1.09434 6.38693 0
M  V30 10443 N 977.024 -1.50153 -0.478725 0
M  V30 10444 C 977.956 -1.64603 -1.59494 0
M  V30 10445 C 978.969 -0.527789 -1.54007 0
M  V30 10446 O 980.158 -0.80069 -1.59534 0
M  V30 10447 C 977.258 -1.60738 -2.98356 0
M  V30 10448 C 976.431 -2.88468 -3.28794 0
M  V30 10449 C 975.49 -2.77349 -4.47173 0
M  V30 10450 O 974.516 -3.51302 -4.47857 0
M  V30 10451 N 975.718 -1.9039 -5.4839 0
M  V30 10452 H 978.483 -2.6088 -1.47518 0
M  V30 10453 H 976.044 -1.47521 -0.667011 0
M  V30 10454 H 978.036 -1.50923 -3.75505 0
M  V30 10455 H 976.606 -0.722273 -3.04141 0
M  V30 10456 H 975.826 -3.12467 -2.40329 0
M  V30 10457 H 977.114 -3.73102 -3.45937 0
M  V30 10458 H 976.512 -1.29606 -5.50653 0
M  V30 10459 H 975.069 -1.86484 -6.24553 0
M  V30 10460 N 978.502 0.731368 -1.39602 0
M  V30 10461 C 979.465 1.8271 -1.38383 0
M  V30 10462 C 980.465 1.58338 -0.280309 0
M  V30 10463 O 981.655 1.65671 -0.538402 0
M  V30 10464 C 978.787 3.20556 -1.16002 0
M  V30 10465 H 979.98 1.85193 -2.35889 0
M  V30 10466 H 977.533 0.935396 -1.2522 0
M  V30 10467 H 978.268 3.23732 -0.191927 0
M  V30 10468 H 978.053 3.39643 -1.9592 0
M  V30 10469 H 979.543 4.00612 -1.17899 0
M  V30 10470 N 979.98 1.24838 0.961938 0
M  V30 10471 C 980.89 1.06304 2.09133 0
M  V30 10472 C 981.906 0.00221475 1.74 0
M  V30 10473 O 983.082 0.201611 2.00388 0
M  V30 10474 C 980.147 0.676117 3.40043 0
M  V30 10475 C 979.208 1.81407 3.89089 0
M  V30 10476 C 978.441 1.44551 5.13752 0
M  V30 10477 O 978.664 0.337894 5.69398 0
M  V30 10478 O 977.598 2.27316 5.57325 0
M  V30 10479 H 981.424 2.01001 2.27667 0
M  V30 10480 H 979.009 1.0371 1.07539 0
M  V30 10481 H 980.891 0.472124 4.18747 0
M  V30 10482 H 979.566 -0.241667 3.22797 0
M  V30 10483 H 978.473 2.07286 3.11421 0
M  V30 10484 H 979.806 2.71083 4.10822 0
M  V30 10485 N 981.458 -1.16348 1.06306 0
M  V30 10486 C 982.735 -1.829 0.69331 0
M  V30 10487 C 983.115 -1.94298 -0.82531 0
M  V30 10488 O 982.463 -1.48619 -1.73565 0
M  V30 10489 C 982.673 -3.1989 1.3954 0
M  V30 10490 C 984.021 -3.95662 1.54068 0
M  V30 10491 O 985.045 -3.29408 1.35532 0
M  V30 10492 O 983.904 -5.14422 1.84479 0
M  V30 10493 H 980.998 -0.789738 0.245445 0
M  V30 10494 H 983.544 -1.23549 1.16334 0
M  V30 10495 H 982.316 -3.06629 2.43093 0
M  V30 10496 H 981.939 -3.86918 0.915453 0
M  V30 10497 N 982.937 -0.845659 -1.3299 0
M  V30 10498 C 984.162 -0.457435 -2.02293 0
M  V30 10499 C 984.587 0.935634 -1.63179 0
M  V30 10500 O 983.945 1.61297 -0.827835 0
M  V30 10501 C 983.993 -0.593665 -3.5568 0
M  V30 10502 O 983.097 0.37729 -4.10671 0
M  V30 10503 H 982.438 -0.185022 -0.637701 0
M  V30 10504 H 984.968 -1.14237 -1.69738 0
M  V30 10505 H 984.978 -0.477834 -4.05192 0
M  V30 10506 H 983.653 -1.60957 -3.83491 0
M  V30 10507 H 982.23 0.218448 -3.7226 0
M  V30 10508 N 984.415 1.45619 -0.602734 0
M  V30 10509 C 985.325 2.34288 0.120902 0
M  V30 10510 C 986.341 1.50952 0.865414 0
M  V30 10511 O 987.517 1.83768 0.824094 0
M  V30 10512 C 984.582 3.28489 1.10888 0
M  V30 10513 C 983.643 4.2773 0.366853 0
M  V30 10514 C 982.876 5.17429 1.30776 0
M  V30 10515 O 983.099 5.10459 2.54535 0
M  V30 10516 O 982.033 5.96459 0.807464 0
M  V30 10517 H 985.859 2.97559 -0.60765 0
M  V30 10518 H 983.444 1.44922 -0.363019 0
M  V30 10519 H 985.326 3.86549 1.67803 0
M  V30 10520 H 984.001 2.67789 1.81854 0
M  V30 10521 H 982.908 3.73299 -0.244643 0
M  V30 10522 H 984.241 4.91271 -0.302226 0
M  V30 10523 N 985.893 0.34162 1.53853 0
M  V30 10524 C 986.823 -0.508431 2.27897 0
M  V30 10525 C 987.804 -1.10425 1.29384 0
M  V30 10526 O 988.989 -1.126 1.58224 0
M  V30 10527 C 986.119 -1.66048 3.05034 0
M  V30 10528 C 985.073 -1.19309 4.11035 0
M  V30 10529 C 984.399 -2.4335 4.76114 0
M  V30 10530 C 985.699 -0.294952 5.21467 0
M  V30 10531 H 987.393 0.109251 2.99201 0
M  V30 10532 H 984.939 0.0539847 1.43899 0
M  V30 10533 H 986.892 -2.26158 3.5557 0
M  V30 10534 H 985.616 -2.30503 2.31379 0
M  V30 10535 H 984.275 -0.614809 3.61408 0
M  V30 10536 H 983.923 -3.06208 3.99056 0
M  V30 10537 H 983.623 -2.1276 5.47729 0
M  V30 10538 H 985.147 -3.0419 5.29434 0
M  V30 10539 H 986.561 -0.80285 5.67651 0
M  V30 10540 H 984.958 -0.0810221 6.00045 0
M  V30 10541 H 986.028 0.669433 4.80257 0
M  V30 10542 N 987.371 -1.57444 0.0701946 0
M  V30 10543 C 988.618 -1.93429 -0.59929 0
M  V30 10544 C 988.946 -0.9501 -1.69715 0
M  V30 10545 O 988.201 0.0345377 -1.9567 0
M  V30 10546 C 988.5 -3.36044 -1.21694 0
M  V30 10547 C 988.166 -4.50232 -0.245374 0
M  V30 10548 C 986.828 -4.81195 0.0219161 0
M  V30 10549 C 989.18 -5.1951 0.419396 0
M  V30 10550 C 986.508 -5.78775 0.96109 0
M  V30 10551 C 988.86 -6.18095 1.34688 0
M  V30 10552 C 987.524 -6.47477 1.62265 0
M  V30 10553 H 986.794 -0.707807 -0.219296 0
M  V30 10554 H 989.441 -1.90982 0.14073 0
M  V30 10555 H 987.746 -3.34948 -2.03265 0
M  V30 10556 H 989.443 -3.61176 -1.74221 0
M  V30 10557 H 986.033 -4.26082 -0.463887 0
M  V30 10558 H 990.217 -4.95785 0.226009 0
M  V30 10559 H 985.473 -5.99865 1.18202 0
M  V30 10560 H 989.647 -6.7088 1.86795 0
M  V30 10561 H 987.274 -7.229 2.352 0
M  V30 10562 N 988.849 0.203349 -1.56283 0
M  V30 10563 C 989.759 1.27266 -1.9708 0
M  V30 10564 C 990.775 1.50268 -0.877236 0
M  V30 10565 O 991.951 1.63044 -1.18231 0
M  V30 10566 C 989.016 2.59871 -2.29495 0
M  V30 10567 C 988.077 2.45012 -3.52516 0
M  V30 10568 C 987.31 3.71293 -3.83376 0
M  V30 10569 O 987.533 4.75106 -3.15643 0
M  V30 10570 O 986.467 3.67316 -4.76826 0
M  V30 10571 H 990.293 0.956461 -2.88246 0
M  V30 10572 H 987.878 0.407688 -1.4373 0
M  V30 10573 H 989.76 3.38152 -2.51458 0
M  V30 10574 H 988.435 2.91135 -1.415 0
M  V30 10575 H 987.342 1.6487 -3.35811 0
M  V30 10576 H 988.675 2.18683 -4.40952 0
M  V30 10577 N 990.327 1.50405 0.470755 0
M  V30 10578 C 991.257 1.72222 1.57676 0
M  V30 10579 C 992.238 0.57121 1.60222 0
M  V30 10580 O 993.423 0.810381 1.76484 0
M  V30 10581 C 990.553 1.81666 2.95998 0
M  V30 10582 C 989.507 2.96857 3.08318 0
M  V30 10583 C 988.833 2.91445 4.4829 0
M  V30 10584 C 990.133 4.37361 2.85504 0
M  V30 10585 H 991.827 2.64825 1.39671 0
M  V30 10586 H 989.373 1.27438 0.67049 0
M  V30 10587 H 991.326 1.95514 3.73299 0
M  V30 10588 H 990.05 0.856856 3.1516 0
M  V30 10589 H 988.709 2.82661 2.33449 0
M  V30 10590 H 988.357 1.93309 4.64371 0
M  V30 10591 H 988.057 3.68776 4.57469 0
M  V30 10592 H 989.581 3.07341 5.27611 0
M  V30 10593 H 990.995 4.52081 3.52555 0
M  V30 10594 H 989.392 5.16145 3.06127 0
M  V30 10595 H 990.462 4.49708 1.81359 0
M  V30 10596 N 991.805 -0.723954 1.39988 0
M  V30 10597 C 993.082 -1.4763 1.28316 0
M  V30 10598 C 993.462 -2.10852 -0.102302 0
M  V30 10599 O 992.81 -1.9948 -1.11445 0
M  V30 10600 C 993.02 -2.51878 2.41574 0
M  V30 10601 C 994.368 -3.17948 2.81415 0
M  V30 10602 O 995.392 -2.62195 2.41106 0
M  V30 10603 O 994.251 -4.18858 3.51027 0
M  V30 10604 H 991.345 -0.656092 0.50346 0
M  V30 10605 H 993.891 -0.75684 1.51888 0
M  V30 10606 H 992.663 -2.03618 3.34149 0
M  V30 10607 H 992.286 -3.3137 2.19727 0
M  V30 10608 N 993.283 -1.25346 -0.955304 0
M  V30 10609 C 994.513 -1.12629 -1.732 0
M  V30 10610 C 994.921 0.322748 -1.86427 0
M  V30 10611 O 994.264 1.23381 -1.36099 0
M  V30 10612 C 994.326 -1.7064 -3.16421 0
M  V30 10613 C 993.99 -3.19632 -3.26626 0
M  V30 10614 C 994.987 -4.1663 -3.10991 0
M  V30 10615 C 992.672 -3.59829 -3.50468 0
M  V30 10616 C 994.666 -5.51806 -3.19043 0
M  V30 10617 C 992.353 -4.95143 -3.58157 0
M  V30 10618 C 993.351 -5.90941 -3.42459 0
M  V30 10619 O 993.039 -7.23792 -3.49828 0
M  V30 10620 H 992.771 -0.393646 -0.549562 0
M  V30 10621 H 995.325 -1.66184 -1.20715 0
M  V30 10622 H 993.555 -1.11532 -3.70267 0
M  V30 10623 H 995.244 -1.53032 -3.75947 0
M  V30 10624 H 996.01 -3.86915 -2.92441 0
M  V30 10625 H 991.889 -2.8576 -3.61749 0
M  V30 10626 H 995.433 -6.26559 -3.06707 0
M  V30 10627 H 991.33 -5.24525 -3.76224 0
M  V30 10628 H 992.098 -7.31879 -3.66463 0
M  V30 10629 N 994.761 1.15782 -1.06922 0
M  V30 10630 C 996.001 1.88135 -0.799043 0
M  V30 10631 C 996.365 1.80203 0.662632 0
M  V30 10632 O 997.566 2.47543 1.04767 0
M  V30 10633 C 995.837 3.3339 -1.28786 0
M  V30 10634 S 997.396 4.23525 -1.1477 0
M  V30 10635 H 994.214 0.649313 -0.289679 0
M  V30 10636 H 996.816 1.3972 -1.36743 0
M  V30 10637 H 995.52 3.36705 -2.34645 0
M  V30 10638 H 995.051 3.86857 -0.714489 0
M  V30 10639 H 997.066 4.96131 -0.0825264 0
M  V30 10640 N 996.239 0.8527 1.3254 0
M  V30 10641 C 997.169 0.311234 2.31416 0
M  V30 10642 C 998.15 -0.588557 1.59593 0
M  V30 10643 O 999.335 -0.509211 1.87405 0
M  V30 10644 C 996.465 -0.502892 3.4364 0
M  V30 10645 C 995.419 0.302296 4.26931 0
M  V30 10646 C 994.745 -0.636445 5.30899 0
M  V30 10647 C 996.045 1.52697 4.99481 0
M  V30 10648 H 997.739 1.13742 2.76953 0
M  V30 10649 H 995.285 0.548389 1.33149 0
M  V30 10650 H 997.238 -0.892092 4.11849 0
M  V30 10651 H 995.962 -1.36242 2.96826 0
M  V30 10652 H 994.621 0.673226 3.60365 0
M  V30 10653 H 994.269 -1.49277 4.80339 0
M  V30 10654 H 993.969 -0.101716 5.87512 0
M  V30 10655 H 995.493 -1.02286 6.01972 0
M  V30 10656 H 996.907 1.21017 5.60382 0
M  V30 10657 H 995.304 1.9995 5.65809 0
M  V30 10658 H 996.374 2.28929 4.27457 0
M  V30 10659 N 997.718 -1.45297 0.610449 0
M  V30 10660 C 998.665 -2.30553 -0.106718 0
M  V30 10661 C 999.635 -1.42272 -0.85719 0
M  V30 10662 O 1000.82 -1.71199 -0.842357 0
M  V30 10663 C 997.96 -3.27226 -1.09623 0
M  V30 10664 C 997.073 -4.3061 -0.346329 0
M  V30 10665 C 996.208 -5.14389 -1.32581 0
M  V30 10666 C 995.247 -6.09497 -0.563892 0
M  V30 10667 N 994.384 -6.86047 -1.4928 0
M  V30 10668 H 999.224 -2.91344 0.626296 0
M  V30 10669 H 996.761 -1.43563 0.32065 0
M  V30 10670 H 998.719 -3.81744 -1.68308 0
M  V30 10671 H 997.349 -2.68182 -1.79662 0
M  V30 10672 H 996.401 -3.7873 0.356084 0
M  V30 10673 H 997.713 -4.98183 0.248026 0
M  V30 10674 H 996.867 -5.73321 -1.98464 0
M  V30 10675 H 995.606 -4.4684 -1.9541 0
M  V30 10676 H 994.611 -5.49693 0.108551 0
M  V30 10677 H 995.836 -6.79074 0.0593872 0
M  V30 10678 H 993.782 -6.21185 -2.10868 0
M  V30 10679 H 993.699 -7.49983 -0.951953 0
M  V30 10680 H 994.967 -7.49518 -2.14112 0
M  V30 10681 N 999.196 -0.349774 -1.5367 0
M  V30 10682 C 1000.44 0.244343 -2.00617 0
M  V30 10683 C 1000.76 1.50567 -1.23914 0
M  V30 10684 O 1000.03 1.92784 -0.348016 0
M  V30 10685 H 998.615 0.0932792 -0.741153 0
M  V30 10686 H 1001.28 -0.472367 -1.89089 0
M  V30 10687 H 1000.37 0.482433 -3.08349 0
M  V30 10688 N 1000.67 1.57404 -0.0785433 0
M  V30 10689 C 1001.6 2.16131 0.883726 0
M  V30 10690 C 1002.58 1.09015 1.30575 0
M  V30 10691 O 1003.77 1.3708 1.37559 0
M  V30 10692 C 1000.9 2.72836 2.1489 0
M  V30 10693 C 999.854 3.85178 1.86605 0
M  V30 10694 C 999.18 4.28516 3.1981 0
M  V30 10695 C 1000.48 5.09118 1.16601 0
M  V30 10696 H 1002.17 2.9679 0.394484 0
M  V30 10697 H 999.72 1.42763 0.188304 0
M  V30 10698 H 1001.67 3.12567 2.8263 0
M  V30 10699 H 1000.4 1.89408 2.66068 0
M  V30 10700 H 999.056 3.45962 1.21268 0
M  V30 10701 H 998.704 3.42 3.68843 0
M  V30 10702 H 998.404 5.04249 3.01674 0
M  V30 10703 H 999.928 4.70868 3.88737 0
M  V30 10704 H 1001.34 5.46123 1.74422 0
M  V30 10705 H 999.739 5.90173 1.087 0
M  V30 10706 H 1000.81 4.8468 0.146138 0
M  V30 10707 N 1002.15 -0.195058 1.56388 0
M  V30 10708 C 1003.1 -1.24175 1.94549 0
M  V30 10709 C 1004.07 -1.45229 0.806089 0
M  V30 10710 O 1005.25 -1.58362 1.06425 0
M  V30 10711 C 1002.39 -2.58145 2.29031 0
M  V30 10712 C 1001.51 -2.44669 3.56035 0
M  V30 10713 C 1000.64 -3.71342 3.7984 0
M  V30 10714 C 999.681 -3.52699 5.0027 0
M  V30 10715 N 998.818 -4.71385 5.20328 0
M  V30 10716 H 1003.66 -0.909319 2.83788 0
M  V30 10717 H 1001.19 -0.437641 1.40439 0
M  V30 10718 H 1003.15 -3.36195 2.4704 0
M  V30 10719 H 1001.78 -2.8943 1.42933 0
M  V30 10720 H 1000.83 -1.57916 3.46073 0
M  V30 10721 H 1002.15 -2.26827 4.44242 0
M  V30 10722 H 1001.3 -4.57832 3.98088 0
M  V30 10723 H 1000.04 -3.92138 2.89964 0
M  V30 10724 H 999.045 -2.64594 4.81944 0
M  V30 10725 H 1000.27 -3.33349 5.91655 0
M  V30 10726 H 998.216 -4.92444 4.33399 0
M  V30 10727 H 998.133 -4.56368 6.02714 0
M  V30 10728 H 999.401 -5.59226 5.43035 0
M  V30 10729 N 1003.63 -1.50653 -0.462772 0
M  V30 10730 C 1004.56 -1.73056 -1.5676 0
M  V30 10731 C 1005.54 -0.579699 -1.59917 0
M  V30 10732 O 1006.73 -0.819729 -1.76051 0
M  V30 10733 C 1003.86 -1.83234 -2.9503 0
M  V30 10734 C 1002.81 -2.98488 -3.06739 0
M  V30 10735 C 1002.14 -2.93818 -4.46738 0
M  V30 10736 C 1003.44 -4.38869 -2.83181 0
M  V30 10737 H 1005.13 -2.65562 -1.38265 0
M  V30 10738 H 1002.68 -1.27792 -0.663722 0
M  V30 10739 H 1004.63 -1.97491 -3.72257 0
M  V30 10740 H 1003.35 -0.873558 -3.14701 0
M  V30 10741 H 1002.01 -2.83895 -2.31946 0
M  V30 10742 H 1001.66 -1.95769 -4.63339 0
M  V30 10743 H 1001.36 -3.71197 -4.55507 0
M  V30 10744 H 1002.88 -3.10135 -5.25974 0
M  V30 10745 H 1004.3 -4.53945 -3.50153 0
M  V30 10746 H 1002.69 -5.17762 -3.03386 0
M  V30 10747 H 1003.76 -4.50663 -1.78972 0
M  V30 10748 N 1005.11 0.71652 -1.4037 0
M  V30 10749 C 1006.52 1.29562 -1.34427 0
M  V30 10750 C 1006.87 1.96192 -0.0173106 0
M  V30 10751 O 1006 1.97488 0.884719 0
M  V30 10752 C 1006.59 2.35601 -2.4347 0
M  V30 10753 C 1005.15 2.89138 -2.4099 0
M  V30 10754 C 1004.3 1.62915 -2.24397 0
M  V30 10755 H 1007.25 0.512715 -1.5019 0
M  V30 10756 H 1007.27 3.16422 -2.11323 0
M  V30 10757 H 1006.78 1.87077 -3.40035 0
M  V30 10758 H 1004.88 3.41894 -1.4812 0
M  V30 10759 H 1004.99 3.40995 -3.3654 0
M  V30 10760 H 1003.36 1.87947 -1.71896 0
M  V30 10761 H 1004.14 1.16417 -3.22958 0
M  V30 10762 N 1006.59 1.25851 0.948643 0
M  V30 10763 C 1007.81 1.13813 1.73382 0
M  V30 10764 C 1008.24 -0.303615 1.85633 0
M  V30 10765 O 1007.59 -1.21997 1.34114 0
M  V30 10766 C 1007.64 1.80388 3.12238 0
M  V30 10767 O 1006.75 1.08759 3.978 0
M  V30 10768 H 1006.09 0.397006 0.532243 0
M  V30 10769 H 1008.62 1.66529 1.18866 0
M  V30 10770 H 1008.63 1.86913 3.62667 0
M  V30 10771 H 1007.3 2.85278 3.02637 0
M  V30 10772 H 1005.88 1.10157 3.56258 0
M  V30 10773 N 1008.06 -1.15214 1.07534 0
M  V30 10774 C 1009.48 -1.38031 0.801228 0
M  V30 10775 C 1009.68 -1.92556 -0.593672 0
M  V30 10776 O 1008.74 -2.1325 -1.35206 0
M  V30 10777 C 1010.05 -2.34958 1.87657 0
M  V30 10778 C 1011.6 -2.48617 1.90154 0
M  V30 10779 C 1012.07 -3.48837 2.96777 0
M  V30 10780 N 1013.56 -3.56374 2.95892 0
M  V30 10781 C 1014.3 -4.33746 3.75036 0
M  V30 10782 N 1013.79 -5.14435 4.64036 0
M  V30 10783 N 1015.59 -4.28853 3.63375 0
M  V30 10784 H 1007.74 -0.781639 1.97495 0
M  V30 10785 H 1010 -0.406243 0.856546 0
M  V30 10786 H 1009.71 -2.02013 2.87895 0
M  V30 10787 H 1009.58 -3.3476 1.73827 0
M  V30 10788 H 1011.97 -2.80859 0.905666 0
M  V30 10789 H 1012.05 -1.48808 2.08062 0
M  V30 10790 H 1011.69 -3.1733 3.96565 0
M  V30 10791 H 1011.62 -4.48406 2.76116 0
M  V30 10792 H 1014.11 -2.98784 2.31379 0
M  V30 10793 H 1014.43 -5.70722 5.21053 0
M  V30 10794 H 1012.77 -5.13734 4.68084 0
M  V30 10795 H 1015.96 -3.64882 2.93221 0
M  V30 10796 H 1016.14 -4.88903 4.25298 0
M  V30 10797 N 1009.54 -0.859717 -1.32086 0
M  V30 10798 C 1010.77 -0.479724 -2.01262 0
M  V30 10799 C 1011.19 0.924985 -1.64589 0
M  V30 10800 O 1010.54 1.60439 -0.869803 0
M  V30 10801 C 1010.59 -0.615128 -3.56228 0
M  V30 10802 O 1010.31 -1.96451 -3.91585 0
M  V30 10803 C 1011.82 -0.234804 -4.42678 0
M  V30 10804 H 1009.04 -0.188007 -0.644123 0
M  V30 10805 H 1011.58 -1.15805 -1.68551 0
M  V30 10806 H 1009.73 0.0155268 -3.87397 0
M  V30 10807 H 1010.15 -1.96491 -4.86304 0
M  V30 10808 H 1011.62 -0.380534 -5.50687 0
M  V30 10809 H 1012.1 0.825189 -4.31378 0
M  V30 10810 H 1012.71 -0.840739 -4.16907 0
M  V30 10811 N 1011.02 1.44971 -0.618145 0
M  V30 10812 C 1012.27 2.03009 -0.126125 0
M  V30 10813 C 1012.62 1.47656 1.23351 0
M  V30 10814 O 1011.91 0.645901 1.80385 0
M  V30 10815 C 1012.11 3.57378 -0.0394861 0
M  V30 10816 C 1011.94 4.27706 -1.38918 0
M  V30 10817 C 1010.71 4.65206 -1.97261 0
M  V30 10818 C 1012.91 4.58987 -2.32024 0
M  V30 10819 N 1010.89 5.2044 -3.256 0
M  V30 10820 C 1012.26 5.15167 -3.44969 0
M  V30 10821 C 1014.31 4.40932 -2.31265 0
M  V30 10822 C 1013.02 5.55193 -4.57333 0
M  V30 10823 C 1015.04 4.81997 -3.42684 0
M  V30 10824 C 1014.4 5.38279 -4.54352 0
M  V30 10825 H 1010.5 0.77683 -0.0897695 0
M  V30 10826 H 1013.09 1.76646 -0.818805 0
M  V30 10827 H 1011.26 3.8338 0.622441 0
M  V30 10828 H 1012.99 4.02075 0.460165 0
M  V30 10829 H 1009.75 4.49102 -1.50348 0
M  V30 10830 H 1010.17 5.52546 -3.9118 0
M  V30 10831 H 1014.81 3.96723 -1.46187 0
M  V30 10832 H 1012.53 5.98362 -5.43128 0
M  V30 10833 H 1016.12 4.69751 -3.43257 0
M  V30 10834 H 1015 5.6947 -5.39142 0
M  V30 10835 N 1012.5 0.357919 1.53482 0
M  V30 10836 C 1013.72 -0.237769 2.06033 0
M  V30 10837 C 1014.15 -1.42292 1.23023 0
M  V30 10838 O 1013.51 -1.79604 0.247427 0
M  V30 10839 C 1013.55 -0.616806 3.55286 0
M  V30 10840 O 1012.66 -1.71503 3.75047 0
M  V30 10841 H 1012 -0.0364322 0.663 0
M  V30 10842 H 1014.53 0.516301 1.97979 0
M  V30 10843 H 1014.54 -0.88996 3.98175 0
M  V30 10844 H 1013.21 0.249825 4.15149 0
M  V30 10845 H 1011.79 -1.43803 3.44057 0
M  V30 10846 N 1013.98 -1.5736 0.0868897 0
M  V30 10847 C 1015.39 -1.81356 -0.443499 0
M  V30 10848 C 1015.74 -1.00192 -1.68689 0
M  V30 10849 O 1014.86 -0.228863 -2.15186 0
M  V30 10850 C 1015.46 -3.28941 -0.811387 0
M  V30 10851 C 1014.02 -3.53729 -1.28656 0
M  V30 10852 C 1013.16 -2.75891 -0.279153 0
M  V30 10853 H 1016.12 -1.55594 0.312427 0
M  V30 10854 H 1016.14 -3.41815 -1.6716 0
M  V30 10855 H 1015.65 -3.87987 0.0937598 0
M  V30 10856 H 1013.75 -3.00005 -2.2097 0
M  V30 10857 H 1013.86 -4.62396 -1.25406 0
M  V30 10858 H 1012.23 -2.4311 -0.759595 0
M  V30 10859 H 1013.01 -3.37682 0.618529 0
M  V30 10860 N 1015.45 0.186762 -1.56489 0
M  V30 10861 C 1016.87 0.750675 -1.70944 0
M  V30 10862 C 1017.22 1.83483 -0.694858 0
M  V30 10863 O 1016.34 2.159 0.147009 0
M  V30 10864 C 1016.94 1.36843 -3.09934 0
M  V30 10865 C 1015.5 1.87934 -3.26125 0
M  V30 10866 C 1014.64 0.75242 -2.66897 0
M  V30 10867 H 1017.59 -0.0384292 -1.58653 0
M  V30 10868 H 1017.61 2.23795 -3.07727 0
M  V30 10869 H 1017.13 0.579135 -3.83755 0
M  V30 10870 H 1015.23 2.69556 -2.57235 0
M  V30 10871 H 1015.34 2.0354 -4.33715 0
M  V30 10872 H 1013.7 1.16888 -2.26295 0
M  V30 10873 H 1014.49 -0.0247769 -3.43291 0
M  V30 10874 N 1016.93 1.50896 0.454776 0
M  V30 10875 C 1018.18 1.62699 1.20562 0
M  V30 10876 C 1018.51 0.334943 1.91594 0
M  V30 10877 O 1017.76 -0.680106 1.83502 0
M  V30 10878 C 1018.06 2.76839 2.26042 0
M  V30 10879 C 1017.73 4.16745 1.72147 0
M  V30 10880 C 1016.39 4.54809 1.5717 0
M  V30 10881 C 1018.74 5.04118 1.32341 0
M  V30 10882 C 1016.07 5.7797 1.00835 0
M  V30 10883 C 1018.42 6.27842 0.774419 0
M  V30 10884 C 1017.09 6.64694 0.611415 0
M  V30 10885 H 1016.36 0.595358 0.441169 0
M  V30 10886 H 1019 1.84879 0.499202 0
M  V30 10887 H 1017.31 2.48812 3.02655 0
M  V30 10888 H 1019 2.83173 2.83926 0
M  V30 10889 H 1015.59 3.86725 1.84775 0
M  V30 10890 H 1019.78 4.75331 1.42739 0
M  V30 10891 H 1015.03 6.05183 0.869669 0
M  V30 10892 H 1019.21 6.94896 0.457389 0
M  V30 10893 H 1016.84 7.60004 0.172751 0
M  V30 10894 N 1018.41 -0.709066 1.40748 0
M  V30 10895 C 1019.32 -1.85314 1.43861 0
M  V30 10896 C 1020.34 -1.70832 0.330539 0
M  V30 10897 O 1021.51 -1.92983 0.576152 0
M  V30 10898 C 1018.58 -3.21174 1.30568 0
M  V30 10899 C 1017.64 -3.47863 2.51574 0
M  V30 10900 C 1016.87 -4.77241 2.38906 0
M  V30 10901 O 1017.09 -5.52791 1.40636 0
M  V30 10902 O 1016.03 -5.04413 3.28407 0
M  V30 10903 H 1019.85 -1.85644 2.40354 0
M  V30 10904 H 1017.44 -0.860352 1.2214 0
M  V30 10905 H 1019.32 -4.02313 1.25388 0
M  V30 10906 H 1018 -3.21557 0.371841 0
M  V30 10907 H 1016.9 -2.66708 2.62331 0
M  V30 10908 H 1018.24 -3.52283 3.43741 0
M  V30 10909 N 1019.89 -1.26353 -0.941956 0
M  V30 10910 C 1021.11 -1.14731 -1.72776 0
M  V30 10911 C 1021.54 0.293766 -1.85792 0
M  V30 10912 O 1020.9 1.21284 -1.34759 0
M  V30 10913 C 1020.95 -1.82041 -3.11277 0
M  V30 10914 O 1020.05 -1.10867 -3.97218 0
M  V30 10915 H 1019.39 -0.399823 -0.53013 0
M  V30 10916 H 1021.92 -1.67157 -1.17981 0
M  V30 10917 H 1021.93 -1.88834 -3.61671 0
M  V30 10918 H 1020.61 -2.86879 -3.0112 0
M  V30 10919 H 1019.18 -1.12044 -3.55669 0
M  V30 10920 N 1021.37 1.14642 -1.08144 0
M  V30 10921 C 1022.28 2.23257 -0.720668 0
M  V30 10922 C 1023.29 1.71866 0.271648 0
M  V30 10923 O 1024.47 2.01064 0.116266 0
M  V30 10924 C 1021.53 3.46447 -0.132542 0
M  V30 10925 C 1020.6 4.12789 -1.17913 0
M  V30 10926 C 1019.83 5.30099 -0.618971 0
M  V30 10927 O 1020.05 5.6762 0.562418 0
M  V30 10928 O 1018.99 5.86154 -1.36774 0
M  V30 10929 H 1022.81 2.56463 -1.62667 0
M  V30 10930 H 1020.4 1.22521 -0.854932 0
M  V30 10931 H 1022.28 4.20959 0.19277 0
M  V30 10932 H 1020.95 3.14971 0.746662 0
M  V30 10933 H 1019.86 3.40163 -1.55693 0
M  V30 10934 H 1021.19 4.48365 -2.03051 0
M  V30 10935 N 1022.85 0.866709 1.31628 0
M  V30 10936 C 1024.12 0.396828 1.91532 0
M  V30 10937 C 1024.5 -1.12081 1.78889 0
M  V30 10938 O 1023.85 -1.94791 1.19452 0
M  V30 10939 C 1024.06 0.874578 3.37864 0
M  V30 10940 C 1025.41 0.8988 4.14978 0
M  V30 10941 O 1026.43 0.820014 3.46633 0
M  V30 10942 O 1025.29 1.01223 5.37044 0
M  V30 10943 H 1022.39 0.1181 0.818524 0
M  V30 10944 H 1024.93 0.954407 1.40318 0
M  V30 10945 H 1023.7 1.91807 3.41066 0
M  V30 10946 H 1023.33 0.295126 3.96503 0
M  V30 10947 N 1024.32 -1.44642 0.625825 0
M  V30 10948 C 1025.55 -2.06971 0.133373 0
M  V30 10949 C 1025.97 -1.46421 -1.18078 0
M  V30 10950 O 1025.33 -0.563676 -1.72315 0
M  V30 10951 C 1025.38 -3.6059 0.0265097 0
M  V30 10952 O 1024.48 -3.99615 -1.01889 0
M  V30 10953 H 1023.82 -0.658873 0.0823568 0
M  V30 10954 H 1026.35 -1.85601 0.861002 0
M  V30 10955 H 1026.36 -4.07663 -0.1658 0
M  V30 10956 H 1025.04 -4.04043 0.985986 0
M  V30 10957 H 1023.62 -3.64183 -0.801577 0
M  V30 10958 N 1025.8 -0.366053 -1.5329 0
M  V30 10959 C 1026.73 0.514916 -2.23341 0
M  V30 10960 C 1027.75 1.04579 -1.24768 0
M  V30 10961 O 1028.94 0.952084 -1.50989 0
M  V30 10962 C 1026.04 1.72374 -2.91788 0
M  V30 10963 C 1025.21 1.32429 -4.16871 0
M  V30 10964 C 1024.27 2.39524 -4.68524 0
M  V30 10965 O 1023.29 2.01895 -5.32191 0
M  V30 10966 N 1024.5 3.71116 -4.46378 0
M  V30 10967 H 1027.26 -0.0851272 -2.99579 0
M  V30 10968 H 1024.82 -0.191255 -1.60766 0
M  V30 10969 H 1026.81 2.43496 -3.23252 0
M  V30 10970 H 1025.38 2.23064 -2.19 0
M  V30 10971 H 1024.6 0.442901 -3.91704 0
M  V30 10972 H 1025.89 1.03372 -4.98188 0
M  V30 10973 H 1025.29 4.04463 -3.95508 0
M  V30 10974 H 1023.85 4.38341 -4.82391 0
M  V30 10975 N 1027.28 1.57312 -0.0952337 0
M  V30 10976 C 1028.23 2.14032 0.863657 0
M  V30 10977 C 1029.2 1.0589 1.27971 0
M  V30 10978 O 1030.38 1.33678 1.36143 0
M  V30 10979 C 1027.52 2.72513 2.11733 0
M  V30 10980 C 1026.63 3.94887 1.7518 0
M  V30 10981 C 1025.77 4.41533 2.95334 0
M  V30 10982 C 1024.81 5.56496 2.54908 0
M  V30 10983 N 1023.95 5.97993 3.67897 0
M  V30 10984 H 1028.79 2.95655 0.373115 0
M  V30 10985 H 1026.32 1.46085 0.172497 0
M  V30 10986 H 1028.28 3.04539 2.85153 0
M  V30 10987 H 1026.91 1.93618 2.58287 0
M  V30 10988 H 1025.96 3.69175 0.917279 0
M  V30 10989 H 1027.27 4.78322 1.41455 0
M  V30 10990 H 1026.43 4.75343 3.77007 0
M  V30 10991 H 1025.17 3.56999 3.3227 0
M  V30 10992 H 1024.17 5.22314 1.71662 0
M  V30 10993 H 1025.4 6.42779 2.19117 0
M  V30 10994 H 1023.34 5.16405 4.04551 0
M  V30 10995 H 1023.26 6.76225 3.38018 0
M  V30 10996 H 1024.53 6.36434 4.5008 0
M  V30 10997 N 1028.76 -0.17846 1.56586 0
M  V30 10998 C 1029.71 -1.22552 1.92263 0
M  V30 10999 C 1030.69 -1.40163 0.790131 0
M  V30 11000 O 1031.88 -1.42254 1.05322 0
M  V30 11001 C 1029.01 -2.5666 2.27993 0
M  V30 11002 C 1028.1 -2.42772 3.47739 0
M  V30 11003 N 1028.49 -1.98588 4.65185 0
M  V30 11004 C 1026.79 -2.73619 3.52205 0
M  V30 11005 C 1027.49 -1.96991 5.47329 0
M  V30 11006 N 1026.46 -2.39126 4.8818 0
M  V30 11007 H 1030.27 -0.875493 2.80557 0
M  V30 11008 H 1027.78 -0.386785 1.57727 0
M  V30 11009 H 1029.78 -3.32312 2.51743 0
M  V30 11010 H 1028.44 -2.92472 1.41034 0
M  V30 11011 H 1029.45 -1.69036 4.89538 0
M  V30 11012 H 1026.13 -3.13516 2.75706 0
M  V30 11013 H 1027.52 -1.64589 6.51429 0
M  V30 11014 N 1030.24 -1.51135 -0.446768 0
M  V30 11015 C 1031.18 -1.72328 -1.56224 0
M  V30 11016 C 1032.18 -0.589411 -1.58815 0
M  V30 11017 O 1033.38 -0.770554 -1.62673 0
M  V30 11018 H 1029.76 -0.544339 -0.518844 0
M  V30 11019 H 1031.73 -2.65851 -1.3552 0
M  V30 11020 C 1030.48 -1.85686 -2.93966 0
M  V30 11021 H 1029.8 -2.72336 -2.927 0
M  V30 11022 H 1031.24 -2.0453 -3.71407 0
M  V30 11023 C 1029.7 -0.614328 -3.31252 0
M  V30 11024 O 1030.23 0.235369 -4.0101 0
M  V30 11025 N 1028.44 -0.461181 -2.86917 0
M  V30 11026 H 1027.98 -1.15369 -2.30321 0
M  V30 11027 H 1027.94 0.368966 -3.12227 0
M  V30 11028 N 1031.71 0.701592 -1.41122 0
M  V30 11029 C 1032.65 1.8268 -1.38422 0
M  V30 11030 C 1033.66 1.60244 -0.287342 0
M  V30 11031 O 1034.85 1.69859 -0.548658 0
M  V30 11032 C 1031.95 3.19338 -1.13475 0
M  V30 11033 C 1031.12 3.68853 -2.35088 0
M  V30 11034 C 1030.18 4.84163 -2.06089 0
M  V30 11035 O 1029.21 4.9609 -2.79077 0
M  V30 11036 N 1030.41 5.70972 -1.04743 0
M  V30 11037 H 1033.17 1.8549 -2.35401 0
M  V30 11038 H 1030.73 0.883682 -1.35656 0
M  V30 11039 H 1032.73 3.94095 -0.920377 0
M  V30 11040 H 1031.3 3.11589 -0.251152 0
M  V30 11041 H 1030.52 2.8507 -2.72266 0
M  V30 11042 H 1031.8 3.98673 -3.16129 0
M  V30 11043 H 1031.2 5.63961 -0.443221 0
M  V30 11044 H 1029.76 6.45654 -0.892949 0
M  V30 11045 N 1033.19 1.2685 0.935242 0
M  V30 11046 C 1034.42 1.15645 1.72165 0
M  V30 11047 C 1034.84 -0.283909 1.85945 0
M  V30 11048 O 1034.2 -1.20567 1.354 0
M  V30 11049 C 1034.25 1.83689 3.10307 0
M  V30 11050 O 1033.35 1.12972 3.96625 0
M  V30 11051 H 1032.69 0.402629 0.528002 0
M  V30 11052 H 1035.22 1.67781 1.17093 0
M  V30 11053 H 1035.23 1.90749 3.60664 0
M  V30 11054 H 1033.91 2.88472 2.99595 0
M  V30 11055 H 1032.48 1.13929 3.5507 0
M  V30 11056 N 1034.67 -1.14067 1.0875 0
M  V30 11057 C 1035.58 -2.22871 0.732498 0
M  V30 11058 C 1036.6 -1.72008 -0.26253 0
M  V30 11059 O 1037.77 -2.01123 -0.105601 0
M  V30 11060 C 1034.84 -3.46371 0.150913 0
M  V30 11061 C 1033.9 -4.12158 1.201 0
M  V30 11062 C 1033.13 -5.29763 0.647075 0
M  V30 11063 O 1033.35 -5.67911 -0.532307 0
M  V30 11064 O 1032.29 -5.8542 1.3988 0
M  V30 11065 H 1036.11 -2.55596 1.64025 0
M  V30 11066 H 1033.7 -1.22065 0.861417 0
M  V30 11067 H 1035.58 -4.21055 -0.170442 0
M  V30 11068 H 1034.26 -3.15362 -0.729948 0
M  V30 11069 H 1033.16 -3.39332 1.57494 0
M  V30 11070 H 1034.5 -4.47282 2.05426 0
M  V30 11071 N 1036.15 -0.873678 -1.31166 0
M  V30 11072 C 1037.38 -0.500317 -2.0045 0
M  V30 11073 C 1037.79 0.912716 -1.65729 0
M  V30 11074 O 1037.13 1.61001 -0.884563 0
M  V30 11075 C 1037.19 -0.58197 -3.54758 0
M  V30 11076 C 1036.86 -1.95728 -4.12964 0
M  V30 11077 C 1037.85 -2.92526 -4.29796 0
M  V30 11078 C 1035.54 -2.2596 -4.48606 0
M  V30 11079 C 1037.53 -4.17697 -4.81464 0
M  V30 11080 C 1035.22 -3.5138 -4.99976 0
M  V30 11081 C 1036.22 -4.47064 -5.16356 0
M  V30 11082 O 1035.9 -5.70259 -5.66621 0
M  V30 11083 H 1035.64 -0.193044 -0.64785 0
M  V30 11084 H 1038.19 -1.17768 -1.68285 0
M  V30 11085 H 1036.42 0.152326 -3.864 0
M  V30 11086 H 1038.11 -0.221506 -4.05295 0
M  V30 11087 H 1038.88 -2.70479 -4.02574 0
M  V30 11088 H 1034.75 -1.52258 -4.3513 0
M  V30 11089 H 1038.3 -4.92389 -4.94165 0
M  V30 11090 H 1034.2 -3.73269 -5.26631 0
M  V30 11091 H 1034.96 -5.72483 -5.84983 0
M  V30 11092 N 1037.63 1.44308 -0.633487 0
M  V30 11093 C 1038.54 2.34492 0.0711787 0
M  V30 11094 C 1039.55 1.52754 0.8332 0
M  V30 11095 O 1040.73 1.85475 0.784929 0
M  V30 11096 C 1037.79 3.30767 1.03895 0
M  V30 11097 C 1036.85 4.28412 0.276043 0
M  V30 11098 C 1036.09 5.20087 1.19772 0
M  V30 11099 O 1036.31 5.15743 2.4365 0
M  V30 11100 O 1035.24 5.98038 0.680764 0
M  V30 11101 H 1039.07 2.96203 -0.67063 0
M  V30 11102 H 1036.66 1.4412 -0.393678 0
M  V30 11103 H 1038.54 3.90021 1.59566 0
M  V30 11104 H 1037.21 2.71586 1.76133 0
M  V30 11105 H 1036.12 3.72696 -0.32377 0
M  V30 11106 H 1037.45 4.9052 -0.406364 0
M  V30 11107 N 1039.1 0.374177 1.53094 0
M  V30 11108 C 1040.38 -0.269632 1.93733 0
M  V30 11109 C 1040.76 -1.6566 1.30843 0
M  V30 11110 O 1040.11 -2.23598 0.470759 0
M  V30 11111 C 1040.32 -0.311204 3.4761 0
M  V30 11112 C 1041.67 -0.547432 4.21056 0
M  V30 11113 O 1042.69 -0.392053 3.54036 0
M  V30 11114 O 1041.55 -0.850645 5.39839 0
M  V30 11115 H 1038.64 -0.163723 0.810632 0
M  V30 11116 H 1041.19 0.427586 1.64225 0
M  V30 11117 H 1039.96 0.660897 3.85678 0
M  V30 11118 H 1039.59 -1.05397 3.83376 0
M  V30 11119 N 1040.58 -1.57259 0.103575 0
M  V30 11120 C 1041.81 -1.99424 -0.569638 0
M  V30 11121 C 1042.23 -0.982475 -1.60403 0
M  V30 11122 O 1041.59 0.0479231 -1.81237 0
M  V30 11123 C 1041.64 -3.40527 -1.18633 0
M  V30 11124 O 1040.74 -3.42167 -2.30208 0
M  V30 11125 H 1040.08 -0.648251 -0.143759 0
M  V30 11126 H 1042.61 -2.03739 0.187493 0
M  V30 11127 H 1042.62 -3.78404 -1.5256 0
M  V30 11128 H 1041.3 -4.13686 -0.428582 0
M  V30 11129 H 1039.88 -3.16093 -1.97837 0
M  V30 11130 N 1042.06 0.170153 -1.56679 0
M  V30 11131 C 1043.02 1.19443 -1.95617 0
M  V30 11132 C 1044.02 1.37118 -0.83996 0
M  V30 11133 O 1045.21 1.34504 -1.10699 0
M  V30 11134 C 1042.35 2.55926 -2.25199 0
M  V30 11135 H 1043.54 0.86095 -2.87276 0
M  V30 11136 H 1041.09 0.412646 -1.50755 0
M  V30 11137 H 1041.83 2.94286 -1.36257 0
M  V30 11138 H 1041.61 2.44464 -3.06562 0
M  V30 11139 H 1043.1 3.29742 -2.56242 0
M  V30 11140 N 1043.54 1.5137 0.438746 0
M  V30 11141 C 1044.79 1.63645 1.18595 0
M  V30 11142 C 1045.11 0.354241 1.91755 0
M  V30 11143 O 1044.38 -0.629838 1.85499 0
M  V30 11144 H 1042.96 0.603103 0.440767 0
M  V30 11145 H 1045.62 1.88293 0.503159 0
M  V30 11146 H 1044.72 2.46342 1.9163 0
M  V30 11147 N 1045.02 -0.694098 1.41492 0
M  V30 11148 C 1045.93 -1.83778 1.45818 0
M  V30 11149 C 1046.94 -1.70471 0.348639 0
M  V30 11150 O 1048.12 -1.92361 0.596588 0
M  V30 11151 C 1045.18 -3.19771 1.33967 0
M  V30 11152 C 1044.24 -3.45175 2.5525 0
M  V30 11153 C 1043.48 -4.74681 2.43955 0
M  V30 11154 O 1043.7 -5.51268 1.46491 0
M  V30 11155 O 1042.63 -5.00901 3.33739 0
M  V30 11156 H 1046.46 -1.83084 2.42309 0
M  V30 11157 H 1044.05 -0.847349 1.23046 0
M  V30 11158 H 1045.93 -4.00961 1.29648 0
M  V30 11159 H 1044.6 -3.21145 0.405926 0
M  V30 11160 H 1043.51 -2.6391 2.65146 0
M  V30 11161 H 1044.84 -3.48617 3.47458 0
M  V30 11162 N 1046.49 -1.27344 -0.928501 0
M  V30 11163 C 1047.73 -1.14871 -1.69068 0
M  V30 11164 C 1048.1 0.300603 -1.89632 0
M  V30 11165 O 1049.3 0.547743 -2.6316 0
M  V30 11166 C 1047.57 -1.90992 -3.02087 0
M  V30 11167 S 1049.13 -1.94722 -3.93229 0
M  V30 11168 H 1045.95 -0.410095 -0.580812 0
M  V30 11169 H 1048.55 -1.61242 -1.1055 0
M  V30 11170 H 1047.25 -2.95484 -2.84811 0
M  V30 11171 H 1046.78 -1.45112 -3.65658 0
M  V30 11172 H 1048.8 -1.04306 -4.85113 0
M  V30 11173 N 1047.97 1.13488 -1.09353 0
M  V30 11174 C 1049.21 1.86397 -0.83877 0
M  V30 11175 C 1049.58 1.81568 0.624259 0
M  V30 11176 O 1050.78 2.49709 0.994923 0
M  V30 11177 C 1049.05 3.30583 -1.35828 0
M  V30 11178 S 1050.61 4.20995 -1.23728 0
M  V30 11179 H 1047.43 0.643022 -0.303387 0
M  V30 11180 H 1050.03 1.36788 -1.39676 0
M  V30 11181 H 1048.73 3.31652 -2.41734 0
M  V30 11182 H 1048.26 3.85255 -0.796386 0
M  V30 11183 H 1050.28 4.95845 -0.187745 0
M  V30 11184 N 1049.45 0.880621 1.30701 0
M  V30 11185 C 1050.68 0.510909 2.01009 0
M  V30 11186 C 1051.1 -0.892041 1.65603 0
M  V30 11187 O 1050.46 -1.59045 0.870309 0
M  V30 11188 C 1050.51 0.687759 3.53981 0
M  V30 11189 O 1049.61 -0.268275 4.11526 0
M  V30 11190 H 1048.95 0.201864 0.632572 0
M  V30 11191 H 1051.48 1.18697 1.6665 0
M  V30 11192 H 1051.49 0.585095 4.03783 0
M  V30 11193 H 1050.17 1.71068 3.79089 0
M  V30 11194 H 1048.74 -0.119673 3.72708 0
M  V30 11195 N 1050.93 -1.4397 0.641131 0
M  V30 11196 C 1052.17 -2.03826 0.153071 0
M  V30 11197 C 1052.53 -1.4941 -1.20585 0
M  V30 11198 O 1053.73 -2.00832 -1.78661 0
M  V30 11199 C 1052.01 -3.57085 0.149914 0
M  V30 11200 S 1053.56 -4.37956 -0.272065 0
M  V30 11201 H 1050.38 -0.70793 0.0659981 0
M  V30 11202 H 1052.98 -1.76211 0.846761 0
M  V30 11203 H 1051.69 -3.94194 1.14188 0
M  V30 11204 H 1051.22 -3.89326 -0.564703 0
M  V30 11205 H 1053.23 -4.72542 -1.5139 0
M  V30 11206 N 1052.41 -0.382291 -1.52893 0
M  V30 11207 C 1053.82 0.0932841 -1.86467 0
M  V30 11208 C 1054.17 1.4675 -1.30226 0
M  V30 11209 O 1053.29 2.07001 -0.63084 0
M  V30 11210 C 1053.89 0.176048 -3.38342 0
M  V30 11211 C 1052.45 0.595904 -3.71653 0
M  V30 11212 C 1051.6 -0.246511 -2.76202 0
M  V30 11213 H 1054.55 -0.600443 -1.46903 0
M  V30 11214 H 1054.57 0.996512 -3.67219 0
M  V30 11215 H 1054.08 -0.824264 -3.79246 0
M  V30 11216 H 1052.18 1.60384 -3.36315 0
M  V30 11217 H 1052.29 0.358919 -4.77754 0
M  V30 11218 H 1050.66 0.287162 -2.53076 0
M  V30 11219 H 1051.44 -1.24467 -3.19942 0
M  V30 11220 N 1053.89 1.57202 -0.111913 0
M  V30 11221 C 1054.83 2.14936 0.840908 0
M  V30 11222 C 1055.8 1.07242 1.2684 0
M  V30 11223 O 1056.99 1.35114 1.34718 0
M  V30 11224 C 1054.13 2.74743 2.0883 0
M  V30 11225 C 1053.24 3.96723 1.70982 0
M  V30 11226 C 1052.38 4.4464 2.90634 0
M  V30 11227 C 1051.41 5.59169 2.48992 0
M  V30 11228 N 1050.55 6.01862 3.61534 0
M  V30 11229 H 1055.39 2.96034 0.341735 0
M  V30 11230 H 1052.93 1.4626 0.156993 0
M  V30 11231 H 1054.89 3.07546 2.81907 0
M  V30 11232 H 1053.52 1.96346 2.56218 0
M  V30 11233 H 1052.57 3.70127 0.878072 0
M  V30 11234 H 1053.88 4.79795 1.36373 0
M  V30 11235 H 1053.03 4.79315 3.71944 0
M  V30 11236 H 1051.77 3.60503 3.28464 0
M  V30 11237 H 1050.78 5.24106 1.66113 0
M  V30 11238 H 1052 6.45067 2.12287 0
M  V30 11239 H 1049.95 5.20667 3.99051 0
M  V30 11240 H 1049.87 6.79772 3.30827 0
M  V30 11241 H 1051.13 6.41172 4.43305 0
M  V30 11242 N 1055.36 -0.161842 1.56767 0
M  V30 11243 C 1056.59 -0.892247 1.86672 0
M  V30 11244 C 1057.01 -1.75407 0.69841 0
M  V30 11245 O 1056.36 -1.7945 -0.332251 0
M  V30 11246 C 1056.41 -1.7612 3.15696 0
M  V30 11247 O 1056.14 -0.934131 4.28025 0
M  V30 11248 C 1057.64 -2.60046 3.59014 0
M  V30 11249 H 1054.86 -0.258747 0.619105 0
M  V30 11250 H 1057.4 -0.159089 2.0388 0
M  V30 11251 H 1055.56 -2.44759 3.00286 0
M  V30 11252 H 1055.97 -1.52931 5.01709 0
M  V30 11253 H 1057.44 -3.16618 4.5217 0
M  V30 11254 H 1057.92 -3.35374 2.83586 0
M  V30 11255 H 1058.53 -1.96724 3.77067 0
M  V30 11256 N 1056.84 -1.516 -0.430713 0
M  V30 11257 C 1058.12 -1.55142 -1.19123 0
M  V30 11258 C 1058.5 -0.319596 -2.08667 0
M  V30 11259 O 1057.85 0.694927 -2.17676 0
M  V30 11260 C 1058.06 -2.86891 -1.98732 0
M  V30 11261 C 1059.4 -3.39089 -2.55546 0
M  V30 11262 O 1060.43 -2.88486 -2.08936 0
M  V30 11263 O 1059.29 -4.27401 -3.40574 0
M  V30 11264 H 1056.38 -0.624019 -0.542705 0
M  V30 11265 H 1058.93 -1.63917 -0.439244 0
M  V30 11266 H 1057.7 -3.68002 -1.33005 0
M  V30 11267 H 1057.32 -2.81309 -2.80982 0
M  V30 11268 N 1058.32 0.686584 -1.41858 0
M  V30 11269 C 1059.54 1.4802 -1.45275 0
M  V30 11270 C 1059.97 1.87997 -0.0621297 0
M  V30 11271 O 1059.33 1.55226 0.936733 0
M  V30 11272 C 1059.38 2.7133 -2.37513 0
M  V30 11273 O 1058.48 3.69159 -1.83836 0
M  V30 11274 H 1057.82 0.445152 -0.492682 0
M  V30 11275 H 1060.35 0.843161 -1.86419 0
M  V30 11276 H 1060.36 3.19537 -2.53693 0
M  V30 11277 H 1059.04 2.41571 -3.3855 0
M  V30 11278 H 1057.61 3.28134 -1.77151 0
M  V30 11279 N 1059.8 1.27835 0.921735 0
M  V30 11280 C 1060.73 1.06874 2.02758 0
M  V30 11281 C 1061.74 0.0229418 1.62784 0
M  V30 11282 O 1062.93 0.265145 1.7652 0
M  V30 11283 C 1060.03 0.60037 3.3354 0
M  V30 11284 C 1059.2 1.71979 4.02172 0
M  V30 11285 C 1058.26 1.24615 5.11231 0
M  V30 11286 O 1057.29 1.94692 5.34868 0
M  V30 11287 N 1058.49 0.105021 5.80405 0
M  V30 11288 H 1061.26 2.02105 2.213 0
M  V30 11289 H 1058.82 1.19481 1.09251 0
M  V30 11290 H 1060.81 0.267281 4.03816 0
M  V30 11291 H 1059.38 -0.258872 3.11526 0
M  V30 11292 H 1058.6 2.22287 3.25549 0
M  V30 11293 H 1059.89 2.47092 4.44773 0
M  V30 11294 H 1059.29 -0.479745 5.63662 0
M  V30 11295 H 1057.84 -0.168846 6.51581 0
M  V30 11296 N 1061.28 -1.12907 1.09954 0
M  V30 11297 C 1062.52 -1.83661 0.833761 0
M  V30 11298 C 1062.84 -1.84736 -0.642798 0
M  V30 11299 O 1064.04 -2.51437 -1.0243 0
M  V30 11300 C 1062.5 -3.29763 1.44168 0
M  V30 11301 C 1062.11 -3.3706 2.95118 0
M  V30 11302 C 1063.85 -4.05522 1.25509 0
M  V30 11303 C 1061.76 -4.77467 3.48969 0
M  V30 11304 H 1060.69 -0.688115 0.308242 0
M  V30 11305 H 1063.34 -1.27166 1.32291 0
M  V30 11306 H 1061.72 -3.86094 0.880215 0
M  V30 11307 H 1062.9 -2.90695 3.57537 0
M  V30 11308 H 1061.21 -2.7477 3.12874 0
M  V30 11309 H 1063.81 -5.09188 1.63191 0
M  V30 11310 H 1064.15 -4.15837 0.196208 0
M  V30 11311 H 1064.68 -3.55536 1.78435 0
M  V30 11312 H 1061.42 -4.72344 4.54501 0
M  V30 11313 H 1060.94 -5.24305 2.91315 0
M  V30 11314 H 1062.62 -5.46397 3.46495 0
M  V30 11315 N 1062.75 -0.88754 -1.30232 0
M  V30 11316 C 1063.68 -0.372481 -2.3051 0
M  V30 11317 C 1064.66 0.546037 -1.61098 0
M  V30 11318 O 1065.85 0.459345 -1.88689 0
M  V30 11319 C 1062.98 0.411605 -3.44852 0
M  V30 11320 C 1061.93 -0.415383 -4.2598 0
M  V30 11321 C 1061.26 0.495463 -5.324 0
M  V30 11322 C 1062.56 -1.65886 -4.95257 0
M  V30 11323 H 1064.25 -1.21045 -2.7384 0
M  V30 11324 H 1061.8 -0.583498 -1.31648 0
M  V30 11325 H 1063.75 0.782584 -4.1407 0
M  V30 11326 H 1062.48 1.28325 -3.00334 0
M  V30 11327 H 1061.14 -0.768534 -3.58454 0
M  V30 11328 H 1060.78 1.36489 -4.84128 0
M  V30 11329 H 1060.48 -0.0540885 -5.87575 0
M  V30 11330 H 1062.01 0.862901 -6.04472 0
M  V30 11331 H 1063.42 -1.35832 -5.56976 0
M  V30 11332 H 1061.82 -2.14881 -5.60309 0
M  V30 11333 H 1062.89 -2.40181 -4.21237 0
M  V30 11334 N 1064.23 1.43628 -0.648757 0
M  V30 11335 C 1065.18 2.30755 0.0455536 0
M  V30 11336 C 1066.15 1.44495 0.819168 0
M  V30 11337 O 1067.33 1.73372 0.79667 0
M  V30 11338 C 1064.47 3.30017 1.00908 0
M  V30 11339 C 1063.59 4.31376 0.232039 0
M  V30 11340 C 1062.72 5.17723 1.18897 0
M  V30 11341 C 1061.76 6.10778 0.402096 0
M  V30 11342 N 1060.9 6.89763 1.31038 0
M  V30 11343 H 1065.74 2.89581 -0.70332 0
M  V30 11344 H 1063.28 1.42662 -0.3586 0
M  V30 11345 H 1065.23 3.86072 1.58128 0
M  V30 11346 H 1063.86 2.72851 1.72488 0
M  V30 11347 H 1062.92 3.77652 -0.456373 0
M  V30 11348 H 1064.23 4.9735 -0.380023 0
M  V30 11349 H 1063.38 5.78381 1.83194 0
M  V30 11350 H 1062.12 4.51864 1.83494 0
M  V30 11351 H 1061.13 5.49212 -0.254255 0
M  V30 11352 H 1062.35 6.78678 -0.239411 0
M  V30 11353 H 1060.3 6.26557 1.94324 0
M  V30 11354 H 1060.21 7.52243 0.752774 0
M  V30 11355 H 1061.48 7.54931 1.94164 0
M  V30 11356 N 1065.71 0.390394 1.52688 0
M  V30 11357 C 1066.62 -0.451543 2.30213 0
M  V30 11358 C 1067.64 -1.07051 1.37172 0
M  V30 11359 O 1068.81 -1.07609 1.70242 0
M  V30 11360 C 1065.88 -1.56299 3.0947 0
M  V30 11361 C 1064.94 -0.969017 4.18221 0
M  V30 11362 C 1064.17 -2.0275 4.93688 0
M  V30 11363 O 1064.39 -3.24273 4.69258 0
M  V30 11364 O 1063.33 -1.64418 5.79008 0
M  V30 11365 H 1067.15 0.180042 3.03166 0
M  V30 11366 H 1064.74 0.154082 1.48603 0
M  V30 11367 H 1066.62 -2.20864 3.58883 0
M  V30 11368 H 1065.3 -2.17952 2.3933 0
M  V30 11369 H 1064.2 -0.286587 3.73001 0
M  V30 11370 H 1065.54 -0.396687 4.90599 0
M  V30 11371 N 1067.19 -1.57141 0.120249 0
M  V30 11372 C 1068.12 -2.18398 -0.826112 0
M  V30 11373 C 1069.1 -1.12439 -1.27638 0
M  V30 11374 O 1070.28 -1.40679 -1.33877 0
M  V30 11375 C 1067.41 -2.78438 -2.0758 0
M  V30 11376 C 1066.37 -3.89991 -1.76327 0
M  V30 11377 C 1065.69 -4.36844 -3.08336 0
M  V30 11378 C 1066.99 -5.12031 -1.03062 0
M  V30 11379 H 1068.69 -2.97731 -0.315656 0
M  V30 11380 H 1066.23 -1.43213 -0.150387 0
M  V30 11381 H 1068.19 -3.19951 -2.74243 0
M  V30 11382 H 1066.91 -1.96396 -2.60953 0
M  V30 11383 H 1065.57 -3.49055 -1.12053 0
M  V30 11384 H 1065.22 -3.51659 -3.59646 0
M  V30 11385 H 1064.92 -5.1207 -2.88199 0
M  V30 11386 H 1066.44 -4.81009 -3.76116 0
M  V30 11387 H 1067.86 -5.50555 -1.59881 0
M  V30 11388 H 1066.25 -5.92848 -0.930146 0
M  V30 11389 H 1067.32 -4.84897 -0.017582 0
M  V30 11390 N 1068.67 0.153526 -1.5685 0
M  V30 11391 C 1069.58 1.20932 -2.01029 0
M  V30 11392 C 1070.59 1.47401 -0.924598 0
M  V30 11393 O 1071.77 1.592 -1.23359 0
M  V30 11394 C 1068.83 2.52438 -2.37647 0
M  V30 11395 C 1067.89 2.33673 -3.60132 0
M  V30 11396 C 1067.13 3.58909 -3.94994 0
M  V30 11397 O 1067.35 4.64823 -3.30599 0
M  V30 11398 O 1066.28 3.5196 -4.8827 0
M  V30 11399 H 1070.11 0.864273 -2.91143 0
M  V30 11400 H 1067.7 0.361755 -1.44954 0
M  V30 11401 H 1069.58 3.29981 -2.62088 0
M  V30 11402 H 1068.25 2.86486 -1.5069 0
M  V30 11403 H 1067.16 1.54102 -3.40886 0
M  V30 11404 H 1068.49 2.04544 -4.47686 0
M  V30 11405 N 1070.14 1.51827 0.422667 0
M  V30 11406 C 1071.05 1.77066 1.53899 0
M  V30 11407 C 1072.07 0.655541 1.61179 0
M  V30 11408 O 1073.25 0.939448 1.78147 0
M  V30 11409 C 1070.31 1.90372 2.89758 0
M  V30 11410 C 1069.37 3.14256 2.92475 0
M  V30 11411 C 1068.61 3.26918 4.21853 0
M  V30 11412 O 1068.83 2.45164 5.15025 0
M  V30 11413 O 1067.76 4.19989 4.31153 0
M  V30 11414 H 1071.59 2.71791 1.35511 0
M  V30 11415 H 1069.17 1.36506 0.607165 0
M  V30 11416 H 1071.06 2.01024 3.70361 0
M  V30 11417 H 1069.73 0.988347 3.08242 0
M  V30 11418 H 1068.64 3.09072 2.10773 0
M  V30 11419 H 1069.97 4.0553 2.78937 0
M  V30 11420 N 1071.62 -0.679052 1.4222 0
M  V30 11421 C 1072.85 -1.47248 1.46058 0
M  V30 11422 C 1073.27 -1.87962 0.0720987 0
M  V30 11423 O 1072.63 -1.5572 -0.928488 0
M  V30 11424 C 1072.68 -2.70067 2.38948 0
M  V30 11425 O 1071.78 -3.68178 1.85791 0
M  V30 11426 H 1071.12 -0.442533 0.495036 0
M  V30 11427 H 1073.65 -0.833263 1.86863 0
M  V30 11428 H 1073.66 -3.18187 2.55385 0
M  V30 11429 H 1072.34 -2.39773 3.39826 0
M  V30 11430 H 1070.92 -3.2719 1.78889 0
M  V30 11431 N 1073.1 -1.28322 -0.914942 0
M  V30 11432 C 1074.33 -1.1837 -1.70304 0
M  V30 11433 C 1074.75 0.254291 -1.86373 0
M  V30 11434 O 1074.11 1.18398 -1.37301 0
M  V30 11435 C 1074.16 -1.88603 -3.07346 0
M  V30 11436 O 1073.26 -1.19268 -3.94777 0
M  V30 11437 H 1072.6 -0.410978 -0.52153 0
M  V30 11438 H 1075.13 -1.69622 -1.14409 0
M  V30 11439 H 1075.14 -1.96463 -3.57584 0
M  V30 11440 H 1073.82 -2.93201 -2.94967 0
M  V30 11441 H 1072.39 -1.19563 -3.53212 0
M  V30 11442 N 1074.58 1.12322 -1.10551 0
M  V30 11443 C 1075.83 1.83858 -0.848674 0
M  V30 11444 C 1076.15 1.84159 0.62575 0
M  V30 11445 O 1075.41 1.28341 1.4774 0
M  V30 11446 C 1075.71 3.31177 -1.34375 0
M  V30 11447 C 1075.37 3.51046 -2.8298 0
M  V30 11448 C 1074.04 3.56177 -3.23561 0
M  V30 11449 C 1076.39 3.58061 -3.78737 0
M  V30 11450 C 1073.72 3.65868 -4.58647 0
M  V30 11451 C 1076.07 3.69283 -5.13627 0
M  V30 11452 C 1074.73 3.7267 -5.53781 0
M  V30 11453 H 1074 0.672784 -0.310552 0
M  V30 11454 H 1076.65 1.3253 -1.38232 0
M  V30 11455 H 1074.95 3.84937 -0.730144 0
M  V30 11456 H 1076.65 3.84998 -1.12148 0
M  V30 11457 H 1073.24 3.47716 -2.50582 0
M  V30 11458 H 1077.42 3.53366 -3.48491 0
M  V30 11459 H 1072.68 3.66763 -4.89178 0
M  V30 11460 H 1076.85 3.73654 -5.8767 0
M  V30 11461 H 1074.48 3.79932 -6.58449 0
M  V30 11462 N 1076.06 0.894434 1.2976 0
M  V30 11463 C 1077.47 0.589778 1.48303 0
M  V30 11464 C 1077.67 -0.870085 1.81746 0
M  V30 11465 O 1076.73 -1.65065 1.91076 0
M  V30 11466 C 1078.04 1.51107 2.59975 0
M  V30 11467 C 1079.59 1.51571 2.73853 0
M  V30 11468 C 1080.06 2.42316 3.88648 0
M  V30 11469 N 1081.56 2.40333 3.95973 0
M  V30 11470 C 1082.29 3.07254 4.84131 0
M  V30 11471 N 1081.79 3.83435 5.77018 0
M  V30 11472 N 1083.58 2.96438 4.77578 0
M  V30 11473 H 1075.73 1.83871 1.06327 0
M  V30 11474 H 1077.99 0.78758 0.527657 0
M  V30 11475 H 1077.7 2.55097 2.42112 0
M  V30 11476 H 1077.57 1.22767 3.56662 0
M  V30 11477 H 1079.96 0.483277 2.91116 0
M  V30 11478 H 1080.04 1.83946 1.77757 0
M  V30 11479 H 1079.69 3.4565 3.72141 0
M  V30 11480 H 1079.62 2.07252 4.84101 0
M  V30 11481 H 1082.11 1.84979 3.29532 0
M  V30 11482 H 1082.42 4.31565 6.4107 0
M  V30 11483 H 1080.76 3.87542 5.7692 0
M  V30 11484 H 1083.96 2.36442 4.03996 0
M  V30 11485 H 1084.13 3.48867 5.46073 0
M  V30 11486 N 1077.53 -1.43282 0.656365 0
M  V30 11487 C 1078.48 -2.30776 -0.0333155 0
M  V30 11488 C 1079.45 -1.44928 -0.811493 0
M  V30 11489 O 1080.64 -1.73792 -0.787465 0
M  V30 11490 C 1077.78 -3.30548 -0.991566 0
M  V30 11491 C 1076.89 -4.31493 -0.209159 0
M  V30 11492 C 1076.02 -5.18346 -1.16149 0
M  V30 11493 C 1075.06 -6.10983 -0.369699 0
M  V30 11494 N 1074.2 -6.90449 -1.27378 0
M  V30 11495 H 1079.04 -2.89204 0.718668 0
M  V30 11496 H 1076.58 -1.4247 0.366161 0
M  V30 11497 H 1078.54 -3.86905 -1.56078 0
M  V30 11498 H 1077.17 -2.73762 -1.71039 0
M  V30 11499 H 1076.22 -3.77405 0.476394 0
M  V30 11500 H 1077.53 -4.97142 0.406394 0
M  V30 11501 H 1076.68 -5.79345 -1.80124 0
M  V30 11502 H 1075.42 -4.52831 -1.81095 0
M  V30 11503 H 1074.43 -5.49069 0.283377 0
M  V30 11504 H 1075.65 -6.78541 0.275399 0
M  V30 11505 H 1073.6 -6.27579 -1.90999 0
M  V30 11506 H 1073.52 -7.52631 -0.71287 0
M  V30 11507 H 1074.78 -7.5595 -1.90158 0
M  V30 11508 N 1079.01 -0.398486 -1.52479 0
M  V30 11509 C 1080.24 0.180557 -2.06111 0
M  V30 11510 C 1080.66 1.39751 -1.26945 0
M  V30 11511 O 1080.01 1.79699 -0.318497 0
M  V30 11512 C 1080.06 0.541573 -3.5742 0
M  V30 11513 O 1079.79 -0.627043 -4.33589 0
M  V30 11514 C 1081.29 1.17549 -4.27431 0
M  V30 11515 H 1078.51 0.0250754 -0.670531 0
M  V30 11516 H 1081.05 -0.566368 -1.96501 0
M  V30 11517 H 1079.21 1.23839 -3.67073 0
M  V30 11518 H 1079.62 -0.328233 -5.23472 0
M  V30 11519 H 1081.09 1.37839 -5.34513 0
M  V30 11520 H 1081.57 2.14553 -3.83228 0
M  V30 11521 H 1082.18 0.51918 -4.22119 0
M  V30 11522 N 1080.49 1.57075 -0.12858 0
M  V30 11523 C 1081.74 1.9552 0.527087 0
M  V30 11524 C 1082.07 1.01243 1.66072 0
M  V30 11525 O 1081.32 0.0381076 1.95663 0
M  V30 11526 C 1081.62 3.40329 1.09138 0
M  V30 11527 C 1081.29 4.50832 0.0781039 0
M  V30 11528 C 1079.95 4.80782 -0.200493 0
M  V30 11529 C 1082.3 5.17595 -0.61192 0
M  V30 11530 C 1079.63 5.74809 -1.17524 0
M  V30 11531 C 1081.98 6.12671 -1.57536 0
M  V30 11532 C 1080.64 6.41008 -1.86184 0
M  V30 11533 H 1079.91 0.715458 0.192875 0
M  V30 11534 H 1082.56 1.90328 -0.211515 0
M  V30 11535 H 1080.87 3.42262 1.90694 0
M  V30 11536 H 1082.56 3.67393 1.60696 0
M  V30 11537 H 1079.15 4.2751 0.30543 0
M  V30 11538 H 1083.34 4.94605 -0.40986 0
M  V30 11539 H 1078.59 5.95065 -1.40384 0
M  V30 11540 H 1082.77 6.63486 -2.11565 0
M  V30 11541 H 1080.39 7.13673 -2.61868 0
M  V30 11542 N 1081.97 -0.145205 1.5693 0
M  V30 11543 C 1082.88 -1.19864 2.01667 0
M  V30 11544 C 1083.9 -1.46909 0.932402 0
M  V30 11545 O 1085.07 -1.58543 1.24201 0
M  V30 11546 C 1082.14 -2.51174 2.38982 0
M  V30 11547 C 1081.2 -2.3176 3.61366 0
M  V30 11548 C 1080.43 -3.56809 3.96892 0
M  V30 11549 O 1080.65 -4.63063 3.33059 0
M  V30 11550 O 1079.59 -3.49366 4.9013 0
M  V30 11551 H 1083.41 -0.848821 2.91597 0
M  V30 11552 H 1081 -0.354063 1.45144 0
M  V30 11553 H 1082.88 -3.28587 2.63835 0
M  V30 11554 H 1081.56 -2.85683 1.52207 0
M  V30 11555 H 1080.46 -1.52293 3.41698 0
M  V30 11556 H 1081.8 -2.02167 4.48764 0
M  V30 11557 N 1083.45 -1.52049 -0.414609 0
M  V30 11558 C 1084.72 -1.56397 -1.17471 0
M  V30 11559 C 1085.1 -0.34171 -2.08316 0
M  V30 11560 O 1084.45 0.6718 -2.18401 0
M  V30 11561 C 1084.66 -2.88983 -1.95678 0
M  V30 11562 C 1086.01 -3.41781 -2.51935 0
M  V30 11563 O 1087.03 -2.90686 -2.05865 0
M  V30 11564 O 1085.89 -4.30989 -3.36022 0
M  V30 11565 H 1082.99 -0.62974 -0.536056 0
M  V30 11566 H 1085.53 -1.64374 -0.421834 0
M  V30 11567 H 1084.31 -3.69392 -1.29094 0
M  V30 11568 H 1083.93 -2.84274 -2.77983 0
M  V30 11569 N 1084.93 0.6715 -1.42579 0
M  V30 11570 C 1086.16 1.4576 -1.46416 0
M  V30 11571 C 1086.56 1.89051 -0.0749843 0
M  V30 11572 O 1085.91 1.58927 0.921296 0
M  V30 11573 C 1085.97 2.7365 -2.33144 0
M  V30 11574 C 1085.63 2.52414 -3.80968 0
M  V30 11575 C 1086.63 2.16804 -4.72538 0
M  V30 11576 C 1084.31 2.67306 -4.25268 0
M  V30 11577 C 1086.31 1.96358 -6.06401 0
M  V30 11578 C 1084 2.46475 -5.5919 0
M  V30 11579 C 1084.99 2.11055 -6.49573 0
M  V30 11580 O 1084.68 1.90428 -7.8102 0
M  V30 11581 H 1084.41 0.454896 -0.500045 0
M  V30 11582 H 1086.97 0.832198 -1.87786 0
M  V30 11583 H 1085.2 3.38684 -1.86629 0
M  V30 11584 H 1086.89 3.35543 -2.28398 0
M  V30 11585 H 1087.65 2.04891 -4.39596 0
M  V30 11586 H 1083.53 2.93854 -3.55206 0
M  V30 11587 H 1087.08 1.68634 -6.76911 0
M  V30 11588 H 1082.97 2.57985 -5.91704 0
M  V30 11589 H 1083.74 2.05 -7.92412 0
M  V30 11590 N 1086.4 1.28806 0.908124 0
M  V30 11591 C 1087.33 1.15758 2.02787 0
M  V30 11592 C 1088.31 0.053911 1.70015 0
M  V30 11593 O 1089.5 0.231901 1.9281 0
M  V30 11594 C 1086.63 0.824526 3.37371 0
M  V30 11595 C 1085.58 1.88359 3.84324 0
M  V30 11596 C 1084.91 1.40404 5.15937 0
M  V30 11597 C 1086.21 3.29108 4.05568 0
M  V30 11598 H 1087.9 2.09431 2.13961 0
M  V30 11599 H 1085.45 1.00831 1.02806 0
M  V30 11600 H 1087.4 0.71999 4.15204 0
M  V30 11601 H 1086.13 -0.147902 3.26265 0
M  V30 11602 H 1084.79 1.97736 3.087 0
M  V30 11603 H 1084.43 0.420515 5.01239 0
M  V30 11604 H 1084.13 2.11224 5.48323 0
M  V30 11605 H 1085.66 1.31283 5.9632 0
M  V30 11606 H 1087.07 3.2262 4.73909 0
M  V30 11607 H 1085.47 3.97812 4.49294 0
M  V30 11608 H 1086.54 3.72709 3.10187 0
M  V30 11609 N 1087.88 -1.11734 1.11145 0
M  V30 11610 C 1088.83 -2.15789 0.736133 0
M  V30 11611 C 1089.82 -1.58813 -0.25832 0
M  V30 11612 O 1091.01 -1.76877 -0.0659078 0
M  V30 11613 C 1088.14 -3.4284 0.177597 0
M  V30 11614 C 1087.22 -4.06783 1.19953 0
M  V30 11615 N 1087.61 -4.45626 2.39271 0
M  V30 11616 C 1085.91 -4.33663 1.04176 0
M  V30 11617 C 1086.61 -4.95684 3.04422 0
M  V30 11618 N 1085.59 -4.91648 2.31912 0
M  V30 11619 H 1089.39 -2.43598 1.6443 0
M  V30 11620 H 1086.9 -1.28716 0.990247 0
M  V30 11621 H 1088.9 -4.16756 -0.109402 0
M  V30 11622 H 1087.56 -3.16498 -0.725201 0
M  V30 11623 H 1088.57 -4.37757 2.76747 0
M  V30 11624 H 1085.25 -4.17044 0.195132 0
M  V30 11625 H 1086.64 -5.35394 4.05959 0
M  V30 11626 N 1089.36 -0.901303 -1.29284 0
M  V30 11627 C 1090.31 -0.370142 -2.29636 0
M  V30 11628 C 1091.3 0.53157 -1.60844 0
M  V30 11629 O 1092.51 0.414194 -1.7517 0
M  V30 11630 H 1088.88 -0.101072 -0.745177 0
M  V30 11631 H 1090.85 -1.22985 -2.71877 0
M  V30 11632 C 1089.6 0.385806 -3.45553 0
M  V30 11633 H 1088.93 -0.298818 -3.98682 0
M  V30 11634 H 1090.37 0.722299 -4.17802 0
M  V30 11635 C 1088.82 1.58907 -2.97069 0
M  V30 11636 O 1089.35 2.68835 -2.98481 0
M  V30 11637 N 1087.56 1.43178 -2.5288 0
M  V30 11638 H 1087.11 0.537467 -2.51931 0
M  V30 11639 H 1087.07 2.23819 -2.208 0
M  V30 11640 N 1090.84 1.42931 -0.663954 0
M  V30 11641 C 1092.08 2.01982 -0.182007 0
M  V30 11642 C 1092.42 1.52323 1.20463 0
M  V30 11643 O 1091.69 0.720834 1.80649 0
M  V30 11644 C 1091.97 3.59518 -0.204671 0
M  V30 11645 C 1091.83 4.19382 -1.62599 0
M  V30 11646 C 1093.15 4.37762 0.45308 0
M  V30 11647 H 1090.27 0.733892 -0.0676115 0
M  V30 11648 H 1092.91 1.70092 -0.84668 0
M  V30 11649 H 1091.06 3.86816 0.361295 0
M  V30 11650 H 1092.73 4.03076 -2.24337 0
M  V30 11651 H 1090.97 3.75623 -2.17001 0
M  V30 11652 H 1091.64 5.28496 -1.59362 0
M  V30 11653 H 1094.12 4.1609 -0.0285774 0
M  V30 11654 H 1093 5.47392 0.406538 0
M  V30 11655 H 1093.26 4.1482 1.52895 0
M  V30 11656 N 1092.32 0.406567 1.52266 0
M  V30 11657 C 1093.56 -0.170305 2.02084 0
M  V30 11658 C 1093.89 -1.45008 1.29176 0
M  V30 11659 O 1093.17 -1.90399 0.39731 0
M  V30 11660 C 1093.45 -0.420627 3.57635 0
M  V30 11661 C 1093.31 0.87564 4.41194 0
M  V30 11662 C 1094.62 -1.20387 4.23314 0
M  V30 11663 H 1091.74 -0.0604219 0.734519 0
M  V30 11664 H 1094.39 0.539529 1.82179 0
M  V30 11665 H 1092.54 -1.0253 3.74726 0
M  V30 11666 H 1094.21 1.51192 4.35819 0
M  V30 11667 H 1092.45 1.48718 4.07511 0
M  V30 11668 H 1093.12 0.654916 5.48101 0
M  V30 11669 H 1095.6 -0.691972 4.10306 0
M  V30 11670 H 1094.47 -1.34776 5.32096 0
M  V30 11671 H 1094.73 -2.2238 3.82099 0
M  V30 11672 N 1093.79 -1.57004 0.136909 0
M  V30 11673 C 1095.04 -1.95797 -0.516711 0
M  V30 11674 C 1095.37 -1.02123 -1.65533 0
M  V30 11675 O 1094.62 -0.0484835 -1.9564 0
M  V30 11676 C 1094.92 -3.40903 -1.07331 0
M  V30 11677 C 1094.59 -4.50867 -0.0541941 0
M  V30 11678 C 1093.25 -4.80669 0.225988 0
M  V30 11679 C 1095.6 -5.17264 0.639361 0
M  V30 11680 C 1092.93 -5.74177 1.2057 0
M  V30 11681 C 1095.28 -6.11827 1.60783 0
M  V30 11682 C 1093.95 -6.40012 1.89581 0
M  V30 11683 H 1093.22 -0.716471 -0.189078 0
M  V30 11684 H 1095.86 -1.90213 0.221605 0
M  V30 11685 H 1094.17 -3.43268 -1.88876 0
M  V30 11686 H 1095.87 -3.6824 -1.58745 0
M  V30 11687 H 1092.46 -4.27666 -0.282754 0
M  V30 11688 H 1096.64 -4.9438 0.436085 0
M  V30 11689 H 1091.9 -5.94312 1.43538 0
M  V30 11690 H 1096.07 -6.62354 2.15081 0
M  V30 11691 H 1093.7 -7.12274 2.65649 0
M  V30 11692 N 1095.27 0.136881 -1.57004 0
M  V30 11693 C 1096.52 0.849031 -1.84172 0
M  V30 11694 C 1096.85 1.80359 -0.720027 0
M  V30 11695 O 1096.13 1.92538 0.275584 0
M  V30 11696 C 1096.41 1.61465 -3.21871 0
M  V30 11697 C 1096.26 0.680902 -4.44616 0
M  V30 11698 C 1097.58 2.57488 -3.56914 0
M  V30 11699 H 1094.7 0.307209 -0.669919 0
M  V30 11700 H 1097.34 0.113862 -1.89659 0
M  V30 11701 H 1095.49 2.24137 -3.17325 0
M  V30 11702 H 1097.16 0.0644094 -4.61255 0
M  V30 11703 H 1095.41 -0.00883629 -4.33799 0
M  V30 11704 H 1096.08 1.25286 -5.37594 0
M  V30 11705 H 1098.55 2.0493 -3.62136 0
M  V30 11706 H 1097.43 3.08101 -4.54274 0
M  V30 11707 H 1097.69 3.39321 -2.83397 0
M  V30 11708 N 1096.75 1.52266 0.40654 0
M  V30 11709 C 1098.16 1.58587 0.985241 0
M  V30 11710 C 1098.51 0.427955 1.91476 0
M  V30 11711 O 1097.64 -0.451341 2.11641 0
M  V30 11712 C 1098.23 2.87426 1.79365 0
M  V30 11713 C 1096.79 2.96217 2.32233 0
M  V30 11714 C 1095.94 2.53548 1.12288 0
M  V30 11715 H 1098.89 1.57598 0.186685 0
M  V30 11716 H 1098.91 2.72925 2.65127 0
M  V30 11717 H 1098.42 3.71682 1.11687 0
M  V30 11718 H 1096.52 2.1646 3.03275 0
M  V30 11719 H 1096.64 4.00511 2.62922 0
M  V30 11720 H 1095 2.07457 1.47763 0
M  V30 11721 H 1095.78 3.40181 0.461731 0
M  V30 11722 N 1098.23 -0.663929 1.42933 0
M  V30 11723 C 1099.64 -0.978346 1.26097 0
M  V30 11724 C 1099.84 -2.00756 0.172968 0
M  V30 11725 O 1098.9 -2.48418 -0.452184 0
M  V30 11726 C 1100.21 -1.4728 2.62162 0
M  V30 11727 C 1101.76 -1.59001 2.69606 0
M  V30 11728 C 1102.24 -2.1184 4.06064 0
M  V30 11729 N 1103.73 -2.19158 4.08074 0
M  V30 11730 C 1104.46 -2.61141 5.10483 0
M  V30 11731 N 1103.96 -3.02498 6.23271 0
M  V30 11732 N 1105.75 -2.60986 4.97838 0
M  V30 11733 H 1097.9 0.0173096 2.12393 0
M  V30 11734 H 1100.17 -0.0548116 0.946414 0
M  V30 11735 H 1099.87 -0.791008 3.42689 0
M  V30 11736 H 1099.75 -2.4497 2.86827 0
M  V30 11737 H 1102.13 -2.26284 1.89418 0
M  V30 11738 H 1102.21 -0.597728 2.48718 0
M  V30 11739 H 1101.86 -1.45162 4.86714 0
M  V30 11740 H 1101.79 -3.1188 4.2431 0
M  V30 11741 H 1104.28 -1.90013 3.26655 0
M  V30 11742 H 1104.59 -3.33251 6.97254 0
M  V30 11743 H 1102.94 -3.00328 6.2676 0
M  V30 11744 H 1106.13 -2.28046 4.08794 0
M  V30 11745 H 1106.3 -2.93384 5.7778 0
M  V30 11746 N 1099.71 -1.29285 -0.901281 0
M  V30 11747 C 1100.65 -1.1428 -2.00521 0
M  V30 11748 C 1101.62 -0.0365428 -1.6606 0
M  V30 11749 O 1102.81 -0.203771 -1.89709 0
M  V30 11750 C 1099.95 -0.823671 -3.35126 0
M  V30 11751 C 1099.06 -2.01021 -3.8238 0
M  V30 11752 C 1098.2 -1.6306 -5.05554 0
M  V30 11753 C 1097.24 -2.78304 -5.45173 0
M  V30 11754 N 1096.37 -2.4075 -6.59533 0
M  V30 11755 H 1101.21 -2.08729 -2.12688 0
M  V30 11756 H 1098.75 -1.0387 -1.04161 0
M  V30 11757 H 1100.71 -0.61934 -4.12577 0
M  V30 11758 H 1099.34 0.0839113 -3.22691 0
M  V30 11759 H 1098.39 -2.32629 -3.00978 0
M  V30 11760 H 1099.7 -2.8738 -4.07694 0
M  V30 11761 H 1098.86 -1.38906 -5.90584 0
M  V30 11762 H 1097.59 -0.738464 -4.82077 0
M  V30 11763 H 1096.6 -3.03142 -4.58678 0
M  V30 11764 H 1097.82 -3.68179 -5.70632 0
M  V30 11765 H 1095.77 -1.54022 -6.37662 0
M  V30 11766 H 1095.69 -3.20643 -6.84634 0
M  V30 11767 H 1096.96 -2.19912 -7.47836 0
M  V30 11768 N 1101.18 1.11143 -1.11736 0
M  V30 11769 C 1102.41 1.86745 -0.890727 0
M  V30 11770 C 1102.83 1.80315 0.55964 0
M  V30 11771 O 1102.18 1.18663 1.38656 0
M  V30 11772 C 1102.24 3.35436 -1.34779 0
M  V30 11773 O 1101.96 3.41738 -2.74129 0
M  V30 11774 C 1103.46 4.27935 -1.15702 0
M  V30 11775 H 1100.68 0.59044 -0.318781 0
M  V30 11776 H 1103.22 1.40549 -1.48547 0
M  V30 11777 H 1101.38 3.79125 -0.796425 0
M  V30 11778 H 1101.79 4.34347 -2.94012 0
M  V30 11779 H 1103.26 5.30494 -1.52579 0
M  V30 11780 H 1103.74 4.39093 -0.0968735 0
M  V30 11781 H 1104.35 3.90042 -1.69551 0
M  V30 11782 N 1102.66 0.908147 1.28804 0
M  V30 11783 C 1103.89 0.553431 1.9988 0
M  V30 11784 C 1104.31 -0.856714 1.67458 0
M  V30 11785 O 1103.67 -1.57163 0.903849 0
M  V30 11786 C 1103.72 0.762688 3.52442 0
M  V30 11787 O 1102.82 -0.180924 4.12003 0
M  V30 11788 H 1102.16 0.215237 0.628147 0
M  V30 11789 H 1104.69 1.22205 1.64095 0
M  V30 11790 H 1104.7 0.670612 4.02451 0
M  V30 11791 H 1103.38 1.79071 3.75375 0
M  V30 11792 H 1101.96 -0.0405897 3.72878 0
M  V30 11793 N 1104.14 -1.42577 0.671525 0
M  V30 11794 C 1105.37 -2.06442 0.199152 0
M  V30 11795 C 1105.79 -1.50104 -1.1336 0
M  V30 11796 O 1105.15 -0.618211 -1.70434 0
M  V30 11797 C 1105.2 -3.60323 0.141215 0
M  V30 11798 O 1104.3 -4.02655 -0.891238 0
M  V30 11799 H 1103.64 -0.655919 0.103277 0
M  V30 11800 H 1106.17 -1.82768 0.919614 0
M  V30 11801 H 1106.18 -4.07984 -0.0360209 0
M  V30 11802 H 1104.86 -4.00702 1.11403 0
M  V30 11803 H 1103.43 -3.66549 -0.685309 0
M  V30 11804 N 1105.62 -0.414636 -1.52048 0
M  V30 11805 C 1106.87 0.159034 -2.01473 0
M  V30 11806 C 1107.19 1.45176 -1.30188 0
M  V30 11807 O 1106.46 1.91134 -0.429469 0
M  V30 11808 H 1105.04 0.0617604 -0.744443 0
M  V30 11809 H 1107.7 -0.552141 -1.86916 0
M  V30 11810 H 1106.8 0.351217 -3.10118 0
M  V30 11811 N 1107.1 1.56929 -0.145233 0
M  V30 11812 C 1108.32 2.00431 0.513314 0
M  V30 11813 C 1108.74 1.0253 1.58534 0
M  V30 11814 O 1108.1 0.0220459 1.82487 0
M  V30 11815 C 1108.15 3.43856 1.11557 0
M  V30 11816 O 1107.87 4.38015 0.0863707 0
M  V30 11817 C 1109.37 4.02627 1.8549 0
M  V30 11818 H 1106.59 0.657529 0.133778 0
M  V30 11819 H 1109.13 2.03095 -0.239296 0
M  V30 11820 H 1107.29 3.4205 1.81881 0
M  V30 11821 H 1107.7 5.21842 0.527363 0
M  V30 11822 H 1109.18 5.04985 2.22923 0
M  V30 11823 H 1109.65 3.43239 2.74014 0
M  V30 11824 H 1110.26 4.08058 1.19869 0
M  V30 11825 N 1108.58 -0.128553 1.57075 0
M  V30 11826 C 1109.82 -0.836355 1.83982 0
M  V30 11827 C 1110.14 -1.80862 0.728971 0
M  V30 11828 O 1109.41 -1.94326 -0.247859 0
M  V30 11829 H 1107.99 -0.31185 0.678792 0
M  V30 11830 H 1110.66 -0.118153 1.94542 0
M  V30 11831 H 1109.75 -1.38741 2.79567 0
M  V30 11832 N 1110.05 -1.5248 -0.398459 0
M  V30 11833 C 1111.02 -1.75949 -1.46883 0
M  V30 11834 C 1112.02 -0.629431 -1.47969 0
M  V30 11835 O 1113.21 -0.897407 -1.49306 0
M  V30 11836 C 1110.34 -1.85162 -2.8623 0
M  V30 11837 H 1111.53 -2.71513 -1.2736 0
M  V30 11838 H 1109.08 -1.43058 -0.629619 0
M  V30 11839 H 1109.82 -0.915505 -3.11109 0
M  V30 11840 H 1109.6 -2.67326 -2.86844 0
M  V30 11841 H 1111.09 -2.05025 -3.63805 0
M  V30 11842 N 1111.53 0.65634 -1.43283 0
M  V30 11843 C 1112.44 1.79847 -1.50639 0
M  V30 11844 C 1113.46 1.69487 -0.393714 0
M  V30 11845 O 1114.63 1.90712 -0.647379 0
M  V30 11846 C 1111.7 3.16107 -1.42398 0
M  V30 11847 C 1110.76 3.38287 -2.64312 0
M  V30 11848 C 1109.99 4.68046 -2.56454 0
M  V30 11849 O 1110.22 5.4719 -1.61056 0
M  V30 11850 O 1109.15 4.91877 -3.46902 0
M  V30 11851 H 1112.98 1.76596 -2.47078 0
M  V30 11852 H 1110.56 0.814428 -1.25249 0
M  V30 11853 H 1112.44 3.97382 -1.40233 0
M  V30 11854 H 1111.12 3.19956 -0.490929 0
M  V30 11855 H 1110.02 2.56788 -2.72049 0
M  V30 11856 H 1111.36 3.39282 -3.56579 0
M  V30 11857 N 1113.01 1.29761 0.894412 0
M  V30 11858 C 1114.29 1.08711 1.62608 0
M  V30 11859 C 1114.67 -0.366907 2.07887 0
M  V30 11860 O 1114.01 -1.35669 1.83865 0
M  V30 11861 C 1114.22 2.07947 2.80284 0
M  V30 11862 C 1115.57 2.39153 3.50843 0
M  V30 11863 O 1116.6 2.06183 2.9046 0
M  V30 11864 O 1115.46 2.95509 4.59713 0
M  V30 11865 H 1112.55 0.416866 0.714249 0
M  V30 11866 H 1115.1 1.41153 0.942015 0
M  V30 11867 H 1113.87 3.05859 2.44061 0
M  V30 11868 H 1113.49 1.76266 3.56393 0
M  V30 11869 N 1114.49 -1.10549 1.12324 0
M  V30 11870 C 1115.9 -1.63991 0.892402 0
M  V30 11871 C 1116.25 -1.87631 -0.573506 0
M  V30 11872 O 1115.37 -1.6174 -1.43768 0
M  V30 11873 C 1115.97 -2.97914 1.61347 0
M  V30 11874 C 1114.53 -3.48227 1.42881 0
M  V30 11875 C 1113.68 -2.22857 1.65015 0
M  V30 11876 H 1116.63 -0.94065 1.27818 0
M  V30 11877 H 1116.65 -3.65326 1.06382 0
M  V30 11878 H 1116.16 -2.80677 2.68034 0
M  V30 11879 H 1114.26 -3.70611 0.384441 0
M  V30 11880 H 1114.37 -4.26419 2.18413 0
M  V30 11881 H 1112.74 -2.30941 1.07417 0
M  V30 11882 H 1113.52 -2.08152 2.72997 0
M  V30 11883 N 1115.97 -0.914965 -1.28321 0
M  V30 11884 C 1117.38 -0.613297 -1.47346 0
M  V30 11885 C 1117.58 0.84106 -1.83108 0
M  V30 11886 O 1116.64 1.62004 -1.93678 0
M  V30 11887 C 1117.95 -1.55224 -2.57538 0
M  V30 11888 C 1119.5 -1.55909 -2.71407 0
M  V30 11889 C 1119.97 -2.48468 -3.84744 0
M  V30 11890 N 1121.46 -2.46602 -3.92099 0
M  V30 11891 C 1122.2 -3.14917 -4.79182 0
M  V30 11892 N 1121.7 -3.92566 -5.70845 0
M  V30 11893 N 1123.49 -3.03998 -4.72802 0
M  V30 11894 H 1115.64 -1.85539 -1.03388 0
M  V30 11895 H 1117.9 -0.795875 -0.515061 0
M  V30 11896 H 1117.61 -2.58917 -2.38023 0
M  V30 11897 H 1117.48 -1.28426 -3.54664 0
M  V30 11898 H 1119.87 -0.52953 -2.9031 0
M  V30 11899 H 1119.95 -1.86751 -1.74808 0
M  V30 11900 H 1119.59 -3.51526 -3.66595 0
M  V30 11901 H 1119.52 -2.14928 -4.80743 0
M  V30 11902 H 1122.02 -1.90199 -3.26547 0
M  V30 11903 H 1122.33 -4.41709 -6.34123 0
M  V30 11904 H 1120.67 -3.96671 -5.70681 0
M  V30 11905 H 1123.86 -2.42839 -4.00184 0
M  V30 11906 H 1124.04 -3.57511 -5.40454 0
M  V30 11907 N 1117.44 1.42219 -0.679077 0
M  V30 11908 C 1118.85 1.8459 -0.279877 0
M  V30 11909 C 1119.21 1.56839 1.17881 0
M  V30 11910 O 1118.33 1.03039 1.90294 0
M  V30 11911 C 1118.93 3.35072 -0.501185 0
M  V30 11912 C 1117.48 3.76076 -0.156065 0
M  V30 11913 C 1116.63 2.65763 -0.791549 0
M  V30 11914 H 1119.58 1.32005 -0.880932 0
M  V30 11915 H 1119.6 3.79708 0.245349 0
M  V30 11916 H 1119.12 3.55239 -1.56291 0
M  V30 11917 H 1117.22 3.61516 0.90205 0
M  V30 11918 H 1117.33 4.75334 -0.599572 0
M  V30 11919 H 1115.69 2.53726 -0.222514 0
M  V30 11920 H 1116.48 2.88751 -1.85682 0
M  V30 11921 N 1118.92 0.422693 1.51826 0
M  V30 11922 C 1120.15 -0.15017 2.06856 0
M  V30 11923 C 1120.57 -1.36946 1.28948 0
M  V30 11924 O 1119.93 -1.78393 0.32338 0
M  V30 11925 C 1119.98 -0.465563 3.57582 0
M  V30 11926 O 1119.08 -1.55442 3.81984 0
M  V30 11927 H 1118.42 -0.00827931 0.663948 0
M  V30 11928 H 1120.95 0.599806 1.95611 0
M  V30 11929 H 1120.96 -0.720279 4.01592 0
M  V30 11930 H 1119.64 0.425679 4.13716 0
M  V30 11931 H 1118.21 -1.29081 3.49846 0
M  V30 11932 N 1120.4 -1.5685 0.153553 0
M  V30 11933 C 1121.82 -1.58306 -0.202801 0
M  V30 11934 C 1122.02 -1.16813 -1.64186 0
M  V30 11935 O 1121.07 -0.871468 -2.36985 0
M  V30 11936 C 1122.38 -3.00636 0.0619012 0
M  V30 11937 C 1123.93 -3.13 -0.00129219 0
M  V30 11938 C 1124.41 -4.57391 0.236164 0
M  V30 11939 N 1125.9 -4.62837 0.18332 0
M  V30 11940 C 1126.63 -5.72382 0.341471 0
M  V30 11941 N 1126.13 -6.90552 0.557704 0
M  V30 11942 N 1127.92 -5.61409 0.278615 0
M  V30 11943 H 1120.07 -1.82113 1.09309 0
M  V30 11944 H 1122.34 -0.843228 0.433209 0
M  V30 11945 H 1122.04 -3.35406 1.0581 0
M  V30 11946 H 1121.92 -3.71477 -0.654555 0
M  V30 11947 H 1124.3 -2.78068 -0.98805 0
M  V30 11948 H 1124.38 -2.44632 0.747596 0
M  V30 11949 H 1124.03 -4.93029 1.22005 0
M  V30 11950 H 1123.96 -5.23894 -0.533125 0
M  V30 11951 H 1126.45 -3.77894 0.0211138 0
M  V30 11952 H 1126.76 -7.69905 0.66831 0
M  V30 11953 H 1125.11 -6.92456 0.594105 0
M  V30 11954 H 1128.3 -4.6797 0.110401 0
M  V30 11955 H 1128.47 -6.46731 0.4053 0
M  V30 11956 N 1121.88 0.120221 -1.57141 0
M  V30 11957 C 1122.82 1.14751 -2.00252 0
M  V30 11958 C 1123.79 1.41217 -0.874462 0
M  V30 11959 O 1124.98 1.53104 -1.13859 0
M  V30 11960 C 1122.12 2.46923 -2.41087 0
M  V30 11961 C 1121.23 2.27403 -3.67303 0
M  V30 11962 C 1120.37 3.52797 -3.97125 0
M  V30 11963 C 1119.41 3.28429 -5.16528 0
M  V30 11964 N 1118.54 4.46022 -5.42226 0
M  V30 11965 H 1123.38 0.772884 -2.87803 0
M  V30 11966 H 1120.92 0.370137 -1.42367 0
M  V30 11967 H 1122.88 3.24025 -2.62799 0
M  V30 11968 H 1121.51 2.82281 -1.5658 0
M  V30 11969 H 1120.56 1.41224 -3.53214 0
M  V30 11970 H 1121.87 2.05373 -4.54558 0
M  V30 11971 H 1121.03 4.38318 -4.19479 0
M  V30 11972 H 1119.77 3.77857 -3.08343 0
M  V30 11973 H 1118.77 2.41299 -4.94019 0
M  V30 11974 H 1120 3.0474 -6.06886 0
M  V30 11975 H 1117.94 4.71205 -4.56401 0
M  V30 11976 H 1117.86 4.27092 -6.23802 0
M  V30 11977 H 1119.13 5.3268 -5.69098 0
M  V30 11978 N 1123.36 1.52689 0.390367 0
M  V30 11979 C 1124.77 1.41909 0.730338 0
M  V30 11980 C 1124.97 0.538427 1.94173 0
M  V30 11981 O 1124.03 0.0113527 2.52497 0
M  V30 11982 C 1125.34 2.84737 0.966714 0
M  V30 11983 C 1126.89 2.94206 1.06827 0
M  V30 11984 C 1127.36 4.38042 1.33728 0
M  V30 11985 N 1128.86 4.4136 1.40553 0
M  V30 11986 C 1129.59 5.49735 1.63031 0
M  V30 11987 N 1129.09 6.68197 1.82988 0
M  V30 11988 N 1130.88 5.37276 1.65199 0
M  V30 11989 H 1123.03 2.08469 -0.406766 0
M  V30 11990 H 1125.29 0.940401 -0.11979 0
M  V30 11991 H 1125 3.51385 0.148725 0
M  V30 11992 H 1124.87 3.26909 1.88176 0
M  V30 11993 H 1127.26 2.27726 1.87683 0
M  V30 11994 H 1127.34 2.55463 0.131168 0
M  V30 11995 H 1126.99 5.05087 0.533832 0
M  V30 11996 H 1126.92 4.74336 2.28721 0
M  V30 11997 H 1129.41 3.55976 1.26844 0
M  V30 11998 H 1129.72 7.46567 1.99643 0
M  V30 11999 H 1128.06 6.71228 1.80215 0
M  V30 12000 H 1131.26 4.437 1.49158 0
M  V30 12001 H 1131.43 6.21806 1.82377 0
M  V30 12002 N 1124.83 -0.648732 1.43629 0
M  V30 12003 C 1126.25 -0.964917 1.27128 0
M  V30 12004 C 1126.45 -2.00561 0.194251 0
M  V30 12005 O 1125.51 -2.48884 -0.42581 0
M  V30 12006 C 1126.82 -1.44491 2.6371 0
M  V30 12007 C 1128.37 -1.56133 2.71278 0
M  V30 12008 C 1128.84 -2.07521 4.08288 0
M  V30 12009 N 1130.33 -2.14817 4.10375 0
M  V30 12010 C 1131.07 -2.55712 5.13224 0
M  V30 12011 N 1130.56 -2.9587 6.26444 0
M  V30 12012 N 1132.36 -2.55691 5.00578 0
M  V30 12013 H 1124.51 0.0398357 2.12363 0
M  V30 12014 H 1126.77 -0.0447705 0.946942 0
M  V30 12015 H 1126.48 -0.754616 3.43509 0
M  V30 12016 H 1126.35 -2.41914 2.89409 0
M  V30 12017 H 1128.74 -2.24263 1.91808 0
M  V30 12018 H 1128.82 -0.571314 2.49338 0
M  V30 12019 H 1128.46 -1.39992 4.88226 0
M  V30 12020 H 1128.39 -3.07362 4.27594 0
M  V30 12021 H 1130.88 -1.86538 3.28652 0
M  V30 12022 H 1131.2 -3.25837 7.0075 0
M  V30 12023 H 1129.54 -2.93664 6.2991 0
M  V30 12024 H 1132.73 -2.23697 4.1119 0
M  V30 12025 H 1132.91 -2.87239 5.80859 0
M  V30 12026 N 1126.31 -1.30234 -0.887518 0
M  V30 12027 C 1127.54 -1.21955 -1.67755 0
M  V30 12028 C 1127.96 0.214701 -1.86871 0
M  V30 12029 O 1127.32 1.15459 -1.39782 0
M  V30 12030 C 1127.37 -1.95079 -3.03276 0
M  V30 12031 O 1126.47 -1.27615 -3.92158 0
M  V30 12032 H 1125.81 -0.421948 -0.512695 0
M  V30 12033 H 1128.34 -1.72011 -1.10785 0
M  V30 12034 H 1128.35 -2.04004 -3.53336 0
M  V30 12035 H 1127.03 -2.99392 -2.88682 0
M  V30 12036 H 1125.61 -1.27029 -3.50597 0
M  V30 12037 N 1127.79 1.09952 -1.12909 0
M  V30 12038 C 1128.72 2.18477 -0.824014 0
M  V30 12039 C 1129.7 1.68744 0.214324 0
M  V30 12040 O 1130.89 1.94057 0.0744281 0
M  V30 12041 C 1128.02 3.46143 -0.283308 0
M  V30 12042 C 1126.97 4.09178 -1.25528 0
M  V30 12043 C 1126.3 5.31604 -0.574574 0
M  V30 12044 C 1127.6 4.52308 -2.6118 0
M  V30 12045 H 1129.29 2.44254 -1.73148 0
M  V30 12046 H 1126.84 1.17394 -0.833952 0
M  V30 12047 H 1128.79 4.21361 -0.057583 0
M  V30 12048 H 1127.51 3.19872 0.659525 0
M  V30 12049 H 1126.17 3.35973 -1.4669 0
M  V30 12050 H 1125.82 5.01611 0.37356 0
M  V30 12051 H 1125.52 5.74732 -1.22299 0
M  V30 12052 H 1127.04 6.0955 -0.358004 0
M  V30 12053 H 1128.46 5.18776 -2.44017 0
M  V30 12054 H 1126.86 5.06302 -3.22147 0
M  V30 12055 H 1127.93 3.64977 -3.19249 0
M  V30 12056 N 1129.27 0.921757 1.27833 0
M  V30 12057 C 1130.52 0.557974 1.94245 0
M  V30 12058 C 1130.84 -0.90268 1.72849 0
M  V30 12059 O 1130.11 -1.63915 1.07279 0
M  V30 12060 H 1128.69 0.203364 0.718785 0
M  V30 12061 H 1131.35 1.17286 1.5566 0
M  V30 12062 H 1130.45 0.759202 3.02725 0
M  V30 12063 N 1130.75 -1.41857 0.686609 0
M  V30 12064 C 1132.02 -1.95082 0.142228 0
M  V30 12065 C 1132.4 -1.62646 -1.34572 0
M  V30 12066 O 1131.75 -0.928757 -2.08773 0
M  V30 12067 C 1131.96 -3.46415 0.423955 0
M  V30 12068 C 1133.31 -4.23181 0.346842 0
M  V30 12069 O 1134.33 -3.54393 0.358363 0
M  V30 12070 O 1133.19 -5.4568 0.299211 0
M  V30 12071 H 1130.29 -0.826943 0.00974 0
M  V30 12072 H 1132.83 -1.51622 0.762153 0
M  V30 12073 H 1131.6 -3.63273 1.45424 0
M  V30 12074 H 1131.23 -3.96949 -0.227391 0
M  V30 12075 N 1132.22 -0.430739 -1.51599 0
M  V30 12076 C 1133.47 0.138133 -2.02329 0
M  V30 12077 C 1133.8 1.42934 -1.31466 0
M  V30 12078 O 1133.08 1.89743 -0.427551 0
M  V30 12079 C 1133.36 0.363677 -3.58259 0
M  V30 12080 C 1133.21 -0.94572 -4.39746 0
M  V30 12081 C 1134.53 1.13637 -4.25176 0
M  V30 12082 H 1131.65 0.0487287 -0.735387 0
M  V30 12083 H 1134.29 -0.568444 -1.81297 0
M  V30 12084 H 1132.44 0.965552 -3.7631 0
M  V30 12085 H 1134.12 -1.58107 -4.33359 0
M  V30 12086 H 1132.36 -1.55183 -4.05094 0
M  V30 12087 H 1133.03 -0.742031 -5.4699 0
M  V30 12088 H 1135.51 0.626608 -4.11355 0
M  V30 12089 H 1134.38 1.26294 -5.34173 0
M  V30 12090 H 1134.64 2.16273 -3.85588 0
M  V30 12091 N 1133.7 1.56767 -0.161869 0
M  V30 12092 C 1134.95 1.96206 0.484537 0
M  V30 12093 C 1135.27 1.04848 1.64414 0
M  V30 12094 O 1134.54 0.112946 1.95574 0
M  V30 12095 H 1133.12 0.724491 0.181994 0
M  V30 12096 H 1135.78 1.93406 -0.240845 0
M  V30 12097 H 1134.88 3.00279 0.85083 0
M  V30 12098 N 1135.18 -0.111886 1.57202 0
M  V30 12099 C 1136.13 -1.15585 2.01849 0
M  V30 12100 C 1137.12 -1.42458 0.916621 0
M  V30 12101 O 1138.33 -1.42337 1.10182 0
M  V30 12102 H 1134.7 -0.389885 0.643035 0
M  V30 12103 H 1136.67 -0.752854 2.88747 0
M  V30 12104 C 1135.42 -2.47247 2.44467 0
M  V30 12105 H 1134.75 -2.27409 3.28824 0
M  V30 12106 H 1136.19 -3.18837 2.79497 0
M  V30 12107 C 1134.65 -3.10339 1.31115 0
M  V30 12108 O 1135.18 -3.96713 0.631029 0
M  V30 12109 N 1133.38 -2.70326 1.0664 0
M  V30 12110 H 1132.93 -2.00182 1.62126 0
M  V30 12111 H 1132.89 -3.12869 0.309944 0
M  V30 12112 N 1136.66 -1.52894 -0.382264 0
M  V30 12113 C 1137.9 -1.68515 -1.12829 0
M  V30 12114 C 1138.24 -0.427211 -1.89443 0
M  V30 12115 O 1137.51 0.57516 -1.85801 0
M  V30 12116 C 1137.8 -2.92449 -2.10108 0
M  V30 12117 C 1137.65 -4.2836 -1.37214 0
M  V30 12118 C 1138.97 -3.11944 -3.1045 0
M  V30 12119 H 1136.09 -0.613223 -0.408811 0
M  V30 12120 H 1138.73 -1.85503 -0.410921 0
M  V30 12121 H 1136.88 -2.78097 -2.71283 0
M  V30 12122 H 1138.55 -4.54493 -0.789516 0
M  V30 12123 H 1136.79 -4.28532 -0.673973 0
M  V30 12124 H 1137.46 -5.11178 -2.0833 0
M  V30 12125 H 1139.94 -3.25372 -2.59369 0
M  V30 12126 H 1138.82 -4.00125 -3.75754 0
M  V30 12127 H 1139.08 -2.26465 -3.79692 0
M  V30 12128 N 1138.14 0.641106 -1.43971 0
M  V30 12129 C 1139.37 1.42829 -1.49692 0
M  V30 12130 C 1139.78 1.88427 -0.118594 0
M  V30 12131 O 1139.14 1.60234 0.873581 0
M  V30 12132 C 1139.19 2.65524 -2.45314 0
M  V30 12133 O 1138.91 2.2183 -3.77787 0
M  V30 12134 C 1140.41 3.58758 -2.60399 0
M  V30 12135 H 1137.63 0.438367 -0.508011 0
M  V30 12136 H 1140.17 0.784933 -1.88836 0
M  V30 12137 H 1138.33 3.25973 -2.09332 0
M  V30 12138 H 1138.74 3.01303 -4.29321 0
M  V30 12139 H 1140.22 4.41483 -3.31357 0
M  V30 12140 H 1140.69 4.06909 -1.65294 0
M  V30 12141 H 1141.3 3.04184 -2.97241 0
M  V30 12142 N 1139.62 1.30703 0.880598 0
M  V30 12143 C 1140.86 1.19955 1.63519 0
M  V30 12144 C 1141.19 -0.244214 1.92658 0
M  V30 12145 O 1140.47 -1.17412 1.55063 0
M  V30 12146 C 1140.75 2.03302 2.97221 0
M  V30 12147 C 1140.61 3.55921 2.75028 0
M  V30 12148 C 1141.92 1.87421 3.98198 0
M  V30 12149 H 1139.04 0.43712 0.593376 0
M  V30 12150 H 1141.69 1.60382 1.01871 0
M  V30 12151 H 1139.84 1.68953 3.49839 0
M  V30 12152 H 1141.51 4.00352 2.29164 0
M  V30 12153 H 1139.75 3.79885 2.09452 0
M  V30 12154 H 1140.42 4.09533 3.70117 0
M  V30 12155 H 1142.9 2.17459 3.54755 0
M  V30 12156 H 1141.77 2.48057 4.89652 0
M  V30 12157 H 1142.03 0.834563 4.34151 0
M  V30 12158 N 1141.09 -1.09351 1.1349 0
M  V30 12159 C 1142.06 -2.14185 0.815919 0
M  V30 12160 C 1143.06 -1.59845 -0.174976 0
M  V30 12161 O 1144.25 -1.74122 0.0521971 0
M  V30 12162 C 1141.38 -3.40224 0.214517 0
M  V30 12163 H 1142.57 -2.43913 1.74489 0
M  V30 12164 H 1140.12 -1.24902 0.939634 0
M  V30 12165 H 1140.86 -3.16123 -0.723634 0
M  V30 12166 H 1140.64 -3.80958 0.928102 0
M  V30 12167 H 1142.13 -4.17599 0.00821999 0
M  V30 12168 N 1142.57 -0.928524 -1.27343 0
M  V30 12169 C 1143.82 -0.570235 -1.94618 0
M  V30 12170 C 1144.15 0.886381 -1.72792 0
M  V30 12171 O 1143.43 1.63242 -1.05747 0
M  V30 12172 C 1143.71 -0.897964 -3.48724 0
M  V30 12173 C 1143.56 -2.40839 -3.7989 0
M  V30 12174 C 1144.88 -0.404429 -4.38238 0
M  V30 12175 H 1142 -0.208645 -0.70685 0
M  V30 12176 H 1144.64 -1.16045 -1.50444 0
M  V30 12177 H 1142.79 -0.395679 -3.8648 0
M  V30 12178 H 1144.46 -2.98243 -3.51921 0
M  V30 12179 H 1142.71 -2.85723 -3.26412 0
M  V30 12180 H 1143.38 -2.58823 -4.8756 0
M  V30 12181 H 1145.85 -0.834918 -4.07637 0
M  V30 12182 H 1144.73 -0.662684 -5.44885 0
M  V30 12183 H 1144.99 0.695507 -4.36595 0
M  V30 12184 N 1144.05 1.41491 -0.694123 0
M  V30 12185 C 1145.46 1.84283 -0.299439 0
M  V30 12186 C 1145.81 1.58081 1.16211 0
M  V30 12187 O 1144.94 1.05051 1.89191 0
M  V30 12188 C 1145.53 3.34522 -0.536696 0
M  V30 12189 C 1144.09 3.7589 -0.195944 0
M  V30 12190 C 1143.24 2.64908 -0.819692 0
M  V30 12191 H 1146.19 1.31063 -0.894884 0
M  V30 12192 H 1146.21 3.79947 0.205062 0
M  V30 12193 H 1145.72 3.53561 -1.6005 0
M  V30 12194 H 1143.82 3.62452 0.863655 0
M  V30 12195 H 1143.94 4.74671 -0.649954 0
M  V30 12196 H 1142.3 2.53476 -0.249412 0
M  V30 12197 H 1143.08 2.86765 -1.88734 0
M  V30 12198 N 1145.53 0.438773 1.51369 0
M  V30 12199 C 1146.76 -0.125847 2.06517 0
M  V30 12200 C 1147.17 -1.36336 1.30606 0
M  V30 12201 O 1146.53 -1.78792 0.36603 0
M  V30 12202 C 1146.58 -0.446619 3.5873 0
M  V30 12203 O 1146.3 0.741781 4.31775 0
M  V30 12204 C 1147.8 -1.06175 4.30397 0
M  V30 12205 H 1145.02 -0.00728868 0.67096 0
M  V30 12206 H 1147.56 0.618267 1.9493 0
M  V30 12207 H 1145.72 -1.14064 3.70227 0
M  V30 12208 H 1146.13 0.466907 5.22418 0
M  V30 12209 H 1147.61 -1.23619 5.3798 0
M  V30 12210 H 1148.08 -2.04317 3.88782 0
M  V30 12211 H 1148.69 -0.40708 4.23347 0
M  V30 12212 N 1147.01 -1.56678 0.170181 0
M  V30 12213 C 1148.25 -1.9714 -0.475767 0
M  V30 12214 C 1148.58 -1.05611 -1.62972 0
M  V30 12215 O 1147.86 -0.103017 -1.94227 0
M  V30 12216 C 1148.14 -3.47072 -0.959828 0
M  V30 12217 C 1148 -4.4938 0.194225 0
M  V30 12218 C 1149.31 -4.00071 -1.83387 0
M  V30 12219 H 1146.43 -0.716776 -0.171466 0
M  V30 12220 H 1149.08 -1.88266 0.256086 0
M  V30 12221 H 1147.23 -3.54766 -1.58346 0
M  V30 12222 H 1148.9 -4.53748 0.83128 0
M  V30 12223 H 1147.14 -4.25393 0.849893 0
M  V30 12224 H 1147.81 -5.51685 -0.186575 0
M  V30 12225 H 1150.29 -3.95002 -1.30815 0
M  V30 12226 H 1149.16 -5.05398 -2.14159 0
M  V30 12227 H 1149.42 -3.43819 -2.77923 0
M  V30 12228 N 1148.48 0.103547 -1.57259 0
M  V30 12229 C 1149.45 1.11039 -2.00507 0
M  V30 12230 C 1150.45 1.33432 -0.897361 0
M  V30 12231 O 1151.64 1.29688 -1.16304 0
M  V30 12232 C 1148.77 2.46144 -2.35851 0
M  V30 12233 H 1149.96 0.738332 -2.90669 0
M  V30 12234 H 1147.51 0.348334 -1.52369 0
M  V30 12235 H 1148.25 2.88242 -1.48617 0
M  V30 12236 H 1148.03 2.31241 -3.16654 0
M  V30 12237 H 1149.52 3.18577 -2.69997 0
M  V30 12238 N 1149.96 1.53094 0.37415 0
M  V30 12239 C 1150.92 1.78264 1.44065 0
M  V30 12240 C 1151.92 0.652892 1.46949 0
M  V30 12241 O 1153.11 0.921046 1.47859 0
M  V30 12242 C 1150.25 1.89693 2.83248 0
M  V30 12243 H 1151.44 2.73505 1.23025 0
M  V30 12244 H 1148.99 1.44041 0.60678 0
M  V30 12245 H 1149.73 0.964884 3.09613 0
M  V30 12246 H 1149.51 2.71855 2.82554 0
M  V30 12247 H 1151 2.10787 3.60498 0
M  V30 12248 N 1151.44 -0.633461 1.44309 0
M  V30 12249 C 1152.69 -1.39306 1.46969 0
M  V30 12250 C 1153.01 -1.94235 0.101403 0
M  V30 12251 O 1152.27 -1.73959 -0.896475 0
M  V30 12252 C 1152.57 -2.57783 2.47554 0
M  V30 12253 C 1152.23 -2.21156 3.92939 0
M  V30 12254 C 1150.9 -2.1088 4.32531 0
M  V30 12255 C 1153.25 -1.9218 4.84475 0
M  V30 12256 C 1150.58 -1.69812 5.61588 0
M  V30 12257 C 1152.93 -1.52605 6.13917 0
M  V30 12258 C 1151.59 -1.40868 6.52466 0
M  V30 12259 H 1150.86 -0.509758 0.537799 0
M  V30 12260 H 1153.51 -0.718552 1.77508 0
M  V30 12261 H 1151.81 -3.30456 2.1049 0
M  V30 12262 H 1153.51 -3.16009 2.46859 0
M  V30 12263 H 1150.1 -2.30072 3.61614 0
M  V30 12264 H 1154.29 -1.9903 4.54644 0
M  V30 12265 H 1149.54 -1.59327 5.90275 0
M  V30 12266 H 1153.72 -1.29221 6.84306 0
M  V30 12267 H 1151.34 -1.08818 7.52371 0
M  V30 12268 N 1152.92 -1.31168 -0.873655 0
M  V30 12269 C 1154.33 -1.18584 -1.44203 0
M  V30 12270 C 1154.68 0.209114 -1.95082 0
M  V30 12271 O 1153.81 1.10662 -1.85965 0
M  V30 12272 C 1154.4 -2.14668 -2.62112 0
M  V30 12273 C 1152.96 -2.06029 -3.15006 0
M  V30 12274 C 1152.11 -2.04106 -1.87712 0
M  V30 12275 H 1155.06 -1.43273 -0.682536 0
M  V30 12276 H 1155.08 -1.73413 -3.38686 0
M  V30 12277 H 1154.59 -3.16186 -2.25051 0
M  V30 12278 H 1152.69 -1.07693 -3.56697 0
M  V30 12279 H 1152.8 -2.9496 -3.77539 0
M  V30 12280 H 1151.17 -1.49069 -2.0652 0
M  V30 12281 H 1151.95 -3.07373 -1.52894 0
M  V30 12282 N 1154.4 1.08748 -1.14068 0
M  V30 12283 C 1155.34 2.17667 -0.819981 0
M  V30 12284 C 1156.34 1.68207 0.200654 0
M  V30 12285 O 1157.54 1.79909 0.0571014 0
M  V30 12286 H 1153.92 0.710129 -0.247427 0
M  V30 12287 H 1155.89 2.41944 -1.74659 0
M  V30 12288 C 1154.64 3.46315 -0.309985 0
M  V30 12289 H 1153.96 3.84748 -1.08669 0
M  V30 12290 H 1155.4 4.23818 -0.124094 0
M  V30 12291 C 1153.86 3.22762 0.965724 0
M  V30 12292 O 1154.39 3.46034 2.04018 0
M  V30 12293 N 1152.6 2.76326 0.899576 0
M  V30 12294 H 1152.14 2.57588 0.0250598 0
M  V30 12295 H 1152.1 2.60945 1.75371 0
M  V30 12296 N 1155.87 0.935264 1.26849 0
M  V30 12297 C 1157.1 0.596249 1.98122 0
M  V30 12298 C 1157.52 -0.827452 1.69702 0
M  V30 12299 O 1156.87 -1.55095 0.961864 0
M  V30 12300 C 1156.93 0.821773 3.52036 0
M  V30 12301 O 1156.65 2.18947 3.79465 0
M  V30 12302 C 1158.15 0.492498 4.40556 0
M  V30 12303 H 1155.37 0.225242 0.632066 0
M  V30 12304 H 1157.91 1.25435 1.61512 0
M  V30 12305 H 1156.07 0.210363 3.86828 0
M  V30 12306 H 1156.48 2.24509 4.74021 0
M  V30 12307 H 1157.95 0.700953 5.47531 0
M  V30 12308 H 1158.43 -0.57228 4.35456 0
M  V30 12309 H 1159.04 1.08238 4.11296 0
M  V30 12310 N 1157.35 -1.41121 0.701616 0
M  V30 12311 C 1158.58 -2.05973 0.242896 0
M  V30 12312 C 1159 -1.52474 -1.10151 0
M  V30 12313 O 1158.36 -0.654224 -1.69085 0
M  V30 12314 C 1158.41 -3.59943 0.217614 0
M  V30 12315 O 1157.51 -4.04454 -0.805629 0
M  V30 12316 H 1156.85 -0.653581 0.117166 0
M  V30 12317 H 1159.38 -1.80777 0.958175 0
M  V30 12318 H 1159.39 -4.07969 0.0505267 0
M  V30 12319 H 1158.07 -3.98249 1.19877 0
M  V30 12320 H 1156.65 -3.6792 -0.607404 0
M  V30 12321 N 1158.83 -0.446794 -1.51134 0
M  V30 12322 C 1160.06 0.117242 -2.07068 0
M  V30 12323 C 1160.48 1.34877 -1.3111 0
M  V30 12324 O 1159.84 1.77856 -0.35172 0
M  V30 12325 C 1159.89 0.408616 -3.58277 0
M  V30 12326 O 1158.99 1.49345 -3.84408 0
M  V30 12327 H 1158.33 -0.00228458 -0.663996 0
M  V30 12328 H 1160.86 -0.63085 -1.94632 0
M  V30 12329 H 1160.87 0.656298 -4.02687 0
M  V30 12330 H 1159.55 -0.491444 -4.12986 0
M  V30 12331 H 1158.12 1.23499 -3.51856 0
M  V30 12332 N 1160.31 1.56586 -0.178487 0
M  V30 12333 C 1161.54 2.01475 0.470684 0
M  V30 12334 C 1161.95 1.0587 1.56323 0
M  V30 12335 O 1161.31 0.060749 1.82399 0
M  V30 12336 C 1161.36 3.46145 1.04238 0
M  V30 12337 O 1161.08 4.381 -0.0065582 0
M  V30 12338 C 1162.58 4.06471 1.76908 0
M  V30 12339 H 1159.8 0.660219 0.119801 0
M  V30 12340 H 1162.35 2.02542 -0.282322 0
M  V30 12341 H 1160.5 3.45831 1.74585 0
M  V30 12342 H 1160.91 5.22843 0.416554 0
M  V30 12343 H 1162.39 5.096 2.12161 0
M  V30 12344 H 1162.87 3.48974 2.66672 0
M  V30 12345 H 1163.47 4.10509 1.11186 0
M  V30 12346 N 1161.79 -0.095206 1.57312 0
M  V30 12347 C 1163.01 -0.81614 1.90667 0
M  V30 12348 C 1163.44 -1.71494 0.772746 0
M  V30 12349 O 1162.79 -1.79192 -0.275682 0
M  V30 12350 C 1162.84 -1.60555 3.22885 0
M  V30 12351 O 1161.95 -2.71448 3.10467 0
M  V30 12352 H 1161.29 -0.224217 0.624998 0
M  V30 12353 H 1163.82 -0.070464 2.04479 0
M  V30 12354 H 1163.83 -1.98979 3.5619 0
M  V30 12355 H 1162.5 -0.945918 4.05 0
M  V30 12356 H 1161.08 -2.36053 2.88675 0
M  V30 12357 N 1163.26 -1.53291 -0.366026 0
M  V30 12358 C 1164.51 -1.69702 -1.11036 0
M  V30 12359 C 1164.84 -0.44728 -1.88979 0
M  V30 12360 O 1164.12 0.55542 -1.86401 0
M  V30 12361 C 1164.4 -2.94661 -2.06995 0
M  V30 12362 C 1164.25 -4.29791 -1.32663 0
M  V30 12363 C 1165.57 -3.15219 -3.07123 0
M  V30 12364 H 1162.69 -0.617525 -0.402284 0
M  V30 12365 H 1165.33 -1.85929 -0.391223 0
M  V30 12366 H 1163.48 -2.80958 -2.68318 0
M  V30 12367 H 1165.16 -4.55305 -0.741266 0
M  V30 12368 H 1163.4 -4.29223 -0.628484 0
M  V30 12369 H 1164.07 -5.13359 -2.02896 0
M  V30 12370 H 1166.55 -3.28105 -2.55903 0
M  V30 12371 H 1165.42 -4.04088 -3.71489 0
M  V30 12372 H 1165.68 -2.30479 -3.77269 0
M  V30 12373 N 1164.74 0.6258 -1.44643 0
M  V30 12374 C 1166.15 1.20751 -1.42394 0
M  V30 12375 C 1166.5 1.95685 -0.142047 0
M  V30 12376 O 1165.63 2.02715 0.757332 0
M  V30 12377 C 1166.22 2.1964 -2.57961 0
M  V30 12378 C 1164.78 2.73227 -2.5889 0
M  V30 12379 C 1163.93 1.48315 -2.34303 0
M  V30 12380 H 1166.88 0.416162 -1.53146 0
M  V30 12381 H 1166.9 3.02342 -2.31019 0
M  V30 12382 H 1166.41 1.65073 -3.51244 0
M  V30 12383 H 1164.52 3.31782 -1.69563 0
M  V30 12384 H 1164.63 3.18902 -3.57545 0
M  V30 12385 H 1162.99 1.76634 -1.83501 0
M  V30 12386 H 1163.78 0.956427 -3.29708 0
M  V30 12387 N 1166.22 1.31629 0.866686 0
M  V30 12388 C 1167.45 1.24474 1.65269 0
M  V30 12389 C 1167.86 -0.18939 1.87848 0
M  V30 12390 O 1167.22 -1.12251 1.43895 0
M  V30 12391 C 1167.27 1.98872 3.01881 0
M  V30 12392 O 1166.99 3.36687 2.8031 0
M  V30 12393 C 1168.49 1.98595 3.96327 0
M  V30 12394 H 1165.71 0.429966 0.515141 0
M  V30 12395 H 1168.26 1.73559 1.08156 0
M  V30 12396 H 1166.41 1.53539 3.55675 0
M  V30 12397 H 1166.83 3.74612 3.67105 0
M  V30 12398 H 1168.3 2.55156 4.89489 0
M  V30 12399 H 1168.78 0.969257 4.28371 0
M  V30 12400 H 1169.38 2.43821 3.4847 0
M  V30 12401 N 1167.7 -1.08142 1.14644 0
M  V30 12402 C 1168.92 -1.84857 0.940349 0
M  V30 12403 C 1169.35 -1.81163 -0.506117 0
M  V30 12404 O 1168.71 -1.19869 -1.36019 0
M  V30 12405 C 1168.76 -3.30198 1.4492 0
M  V30 12406 O 1167.86 -4.07355 0.64308 0
M  V30 12407 H 1167.2 -0.572711 0.336003 0
M  V30 12408 H 1169.73 -1.36475 1.52432 0
M  V30 12409 H 1169.74 -3.81039 1.45854 0
M  V30 12410 H 1168.42 -3.32202 2.50229 0
M  V30 12411 H 1166.99 -3.66219 0.702698 0
M  V30 12412 N 1169.18 -0.941978 -1.26351 0
M  V30 12413 C 1170.59 -0.632522 -1.75659 0
M  V30 12414 C 1170.94 0.852287 -1.76722 0
M  V30 12415 O 1170.06 1.66701 -1.37985 0
M  V30 12416 C 1170.66 -1.14145 -3.18993 0
M  V30 12417 C 1169.22 -0.882391 -3.65911 0
M  V30 12418 C 1168.37 -1.29189 -2.45368 0
M  V30 12419 H 1171.32 -1.12019 -1.12416 0
M  V30 12420 H 1171.34 -0.495639 -3.77258 0
M  V30 12421 H 1170.85 -2.22213 -3.18187 0
M  V30 12422 H 1168.95 0.183873 -3.72146 0
M  V30 12423 H 1169.06 -1.50996 -4.54683 0
M  V30 12424 H 1167.43 -0.710316 -2.44595 0
M  V30 12425 H 1168.21 -2.38152 -2.47262 0
M  V30 12426 N 1170.66 1.40747 -0.709091 0
M  V30 12427 C 1171.57 2.3454 -0.0532205 0
M  V30 12428 C 1172.58 1.56956 0.751057 0
M  V30 12429 O 1173.76 1.89375 0.685509 0
M  V30 12430 C 1170.82 3.35809 0.862157 0
M  V30 12431 C 1169.88 4.29273 0.0485632 0
M  V30 12432 C 1169.12 5.25705 0.920345 0
M  V30 12433 O 1169.34 5.27933 2.15969 0
M  V30 12434 O 1168.27 6.00806 0.3628 0
M  V30 12435 H 1172.1 2.92232 -0.826698 0
M  V30 12436 H 1169.68 1.4183 -0.469519 0
M  V30 12437 H 1171.57 3.97931 1.38668 0
M  V30 12438 H 1170.24 2.8054 1.61489 0
M  V30 12439 H 1169.15 3.70456 -0.520873 0
M  V30 12440 H 1170.48 4.87676 -0.665807 0
M  V30 12441 N 1172.13 0.454803 1.50895 0
M  V30 12442 C 1173.04 -0.353495 2.31921 0
M  V30 12443 C 1174.06 -1.01136 1.41589 0
M  V30 12444 O 1175.24 -1.00291 1.74653 0
M  V30 12445 C 1172.3 -1.43032 3.15821 0
M  V30 12446 C 1171.36 -0.790763 4.21954 0
M  V30 12447 C 1170.59 -1.81628 5.01843 0
M  V30 12448 O 1170.82 -3.04078 4.8259 0
M  V30 12449 O 1169.75 -1.39713 5.8546 0
M  V30 12450 H 1173.58 0.308463 3.02129 0
M  V30 12451 H 1171.16 0.216971 1.47816 0
M  V30 12452 H 1173.04 -2.05444 3.67927 0
M  V30 12453 H 1171.72 -2.07605 2.48358 0
M  V30 12454 H 1170.63 -0.128127 3.73881 0
M  V30 12455 H 1171.96 -0.188251 4.9184 0
M  V30 12456 N 1173.61 -1.56489 0.186789 0
M  V30 12457 C 1174.56 -2.15311 -0.750024 0
M  V30 12458 C 1175.55 -1.09156 -1.18211 0
M  V30 12459 O 1176.74 -1.3524 -1.14189 0
M  V30 12460 C 1173.87 -2.80952 -1.97284 0
M  V30 12461 C 1172.95 -3.94286 -1.56204 0
M  V30 12462 N 1173.34 -4.98406 -0.861705 0
M  V30 12463 C 1171.64 -4.05733 -1.85194 0
M  V30 12464 C 1172.34 -5.77977 -0.657078 0
M  V30 12465 N 1171.32 -5.30116 -1.20326 0
M  V30 12466 H 1175.12 -2.93176 -0.206148 0
M  V30 12467 H 1172.63 -1.62395 -0.0133163 0
M  V30 12468 H 1174.63 -3.21479 -2.65437 0
M  V30 12469 H 1173.29 -2.04572 -2.52152 0
M  V30 12470 H 1174.3 -5.15302 -0.518067 0
M  V30 12471 H 1170.98 -3.40472 -2.4163 0
M  V30 12472 H 1172.37 -6.71822 -0.102123 0
M  V30 12473 N 1175.09 0.086862 -1.5736 0
M  V30 12474 C 1176.51 0.441284 -1.53378 0
M  V30 12475 C 1176.71 1.80046 -0.904748 0
M  V30 12476 O 1175.76 2.47484 -0.500781 0
M  V30 12477 C 1177.07 0.3962 -2.98078 0
M  V30 12478 C 1178.62 0.477468 -3.09337 0
M  V30 12479 C 1179.1 0.462448 -4.55659 0
M  V30 12480 N 1180.59 0.522963 -4.60238 0
M  V30 12481 C 1181.32 0.533313 -5.70914 0
M  V30 12482 N 1180.82 0.499376 -6.90998 0
M  V30 12483 N 1182.61 0.578742 -5.59113 0
M  V30 12484 H 1174.76 -0.803308 -1.96623 0
M  V30 12485 H 1177.03 -0.299879 -0.89932 0
M  V30 12486 H 1176.73 -0.535505 -3.47599 0
M  V30 12487 H 1176.61 1.21209 -3.57195 0
M  V30 12488 H 1178.99 1.39959 -2.59799 0
M  V30 12489 H 1179.07 -0.366717 -2.53158 0
M  V30 12490 H 1178.72 -0.455768 -5.05851 0
M  V30 12491 H 1178.65 1.32396 -5.09685 0
M  V30 12492 H 1181.14 0.554051 -3.73816 0
M  V30 12493 H 1181.45 0.510784 -7.7111 0
M  V30 12494 H 1179.8 0.466296 -6.93434 0
M  V30 12495 H 1182.99 0.602841 -4.64202 0
M  V30 12496 H 1183.16 0.583339 -6.45369 0
M  V30 12497 N 1176.57 1.53483 0.357892 0
M  V30 12498 C 1177.98 1.61641 0.934289 0
M  V30 12499 C 1178.33 0.488655 1.90017 0
M  V30 12500 O 1177.45 -0.38378 2.1297 0
M  V30 12501 C 1178.05 2.92987 1.7013 0
M  V30 12502 C 1176.61 3.03456 2.22692 0
M  V30 12503 C 1175.76 2.56992 1.04165 0
M  V30 12504 H 1178.71 1.58112 0.136452 0
M  V30 12505 H 1178.73 2.81221 2.5631 0
M  V30 12506 H 1178.24 3.75047 0.998056 0
M  V30 12507 H 1176.34 2.25999 2.96235 0
M  V30 12508 H 1176.45 4.08673 2.50046 0
M  V30 12509 H 1174.82 2.12052 1.41088 0
M  V30 12510 H 1175.6 3.41477 0.353272 0
M  V30 12511 N 1178.05 -0.61812 1.44973 0
M  V30 12512 C 1179.29 -1.3774 1.48439 0
M  V30 12513 C 1179.62 -1.94117 0.121999 0
M  V30 12514 O 1178.88 -1.749 -0.877974 0
M  V30 12515 C 1179.17 -2.55143 2.50274 0
M  V30 12516 C 1178.84 -2.16976 3.95262 0
M  V30 12517 C 1177.5 -2.06281 4.34743 0
M  V30 12518 C 1179.85 -1.8703 4.86486 0
M  V30 12519 C 1177.18 -1.63846 5.63357 0
M  V30 12520 C 1179.53 -1.46085 6.15501 0
M  V30 12521 C 1178.2 -1.3394 6.53924 0
M  V30 12522 H 1177.47 -0.504026 0.543175 0
M  V30 12523 H 1180.12 -0.699685 1.7826 0
M  V30 12524 H 1178.42 -3.28205 2.13983 0
M  V30 12525 H 1180.12 -3.13373 2.50197 0
M  V30 12526 H 1176.71 -2.26223 3.64034 0
M  V30 12527 H 1180.89 -1.94196 4.56729 0
M  V30 12528 H 1176.15 -1.53058 5.91932 0
M  V30 12529 H 1180.32 -1.21956 6.85638 0
M  V30 12530 H 1177.95 -1.00832 7.53483 0
M  V30 12531 N 1179.52 -1.32087 -0.859693 0
M  V30 12532 C 1180.43 -1.22587 -2.00024 0
M  V30 12533 C 1181.45 -0.140477 -1.73432 0
M  V30 12534 O 1182.63 -0.360213 -1.98153 0
M  V30 12535 C 1179.69 -0.944195 -3.33595 0
M  V30 12536 C 1178.75 -2.11752 -3.73443 0
M  V30 12537 C 1177.98 -1.84919 -5.0064 0
M  V30 12538 O 1178.21 -0.789299 -5.64913 0
M  V30 12539 O 1177.14 -2.70885 -5.37499 0
M  V30 12540 H 1180.97 -2.18457 -2.10974 0
M  V30 12541 H 1178.55 -1.11927 -0.989577 0
M  V30 12542 H 1180.43 -0.803389 -4.13671 0
M  V30 12543 H 1179.11 -0.0156083 -3.23696 0
M  V30 12544 H 1178.02 -2.31378 -2.93965 0
M  V30 12545 H 1179.35 -3.02872 -3.87981 0
M  V30 12546 N 1181 1.07532 -1.15215 0
M  V30 12547 C 1181.95 2.14687 -0.847243 0
M  V30 12548 C 1182.92 1.64903 0.199043 0
M  V30 12549 O 1184.1 1.90682 0.0669986 0
M  V30 12550 C 1181.24 3.43414 -0.340673 0
M  V30 12551 C 1180.36 4.06999 -1.44831 0
M  V30 12552 C 1179.49 5.23554 -0.898059 0
M  V30 12553 C 1178.53 5.79097 -1.98276 0
M  V30 12554 N 1177.67 6.86985 -1.44902 0
M  V30 12555 H 1182.51 2.4011 -1.76498 0
M  V30 12556 H 1180.04 1.17823 -0.880689 0
M  V30 12557 H 1182 4.1719 -0.0286956 0
M  V30 12558 H 1180.63 3.18249 0.540144 0
M  V30 12559 H 1179.68 3.30895 -1.87651 0
M  V30 12560 H 1181 4.44289 -2.26735 0
M  V30 12561 H 1180.15 6.04305 -0.538514 0
M  V30 12562 H 1178.89 4.87676 -0.0481752 0
M  V30 12563 H 1177.89 4.96992 -2.35115 0
M  V30 12564 H 1179.12 6.1703 -2.83639 0
M  V30 12565 H 1177.07 6.5305 -0.621468 0
M  V30 12566 H 1176.98 7.23149 -2.20434 0
M  V30 12567 H 1178.25 7.71446 -1.11767 0
M  V30 12568 N 1182.48 0.948665 1.2585 0
M  V30 12569 C 1183.73 0.601125 1.93686 0
M  V30 12570 C 1184.06 -0.858779 1.7418 0
M  V30 12571 O 1183.33 -1.61539 1.0833 0
M  V30 12572 C 1183.62 0.95333 3.47252 0
M  V30 12573 C 1183.47 2.46853 3.7601 0
M  V30 12574 C 1184.79 0.474098 4.37539 0
M  V30 12575 H 1181.91 0.219864 0.703441 0
M  V30 12576 H 1184.55 1.18424 1.48579 0
M  V30 12577 H 1182.7 0.457114 3.85801 0
M  V30 12578 H 1184.37 3.03804 3.47132 0
M  V30 12579 H 1182.62 2.9088 3.21825 0
M  V30 12580 H 1183.29 2.66547 4.83381 0
M  V30 12581 H 1185.76 0.899664 4.06258 0
M  V30 12582 H 1184.64 0.749287 5.43762 0
M  V30 12583 H 1184.9 -0.625961 4.37646 0
M  V30 12584 N 1183.96 -1.40369 0.716545 0
M  V30 12585 C 1185.2 -2.01167 0.256846 0
M  V30 12586 C 1185.54 -1.56689 -1.14727 0
M  V30 12587 O 1184.81 -0.787384 -1.7785 0
M  V30 12588 C 1185.1 -3.58511 0.337963 0
M  V30 12589 C 1184.95 -4.13059 1.78052 0
M  V30 12590 C 1186.27 -4.39142 -0.290295 0
M  V30 12591 H 1183.39 -0.730877 0.0948028 0
M  V30 12592 H 1186.03 -1.66833 0.909225 0
M  V30 12593 H 1184.18 -3.87891 -0.217482 0
M  V30 12594 H 1185.85 -3.94472 2.39143 0
M  V30 12595 H 1184.09 -3.67311 2.30793 0
M  V30 12596 H 1184.76 -5.22217 1.78867 0
M  V30 12597 H 1187.24 -4.15697 0.182987 0
M  V30 12598 H 1186.12 -5.48524 -0.203097 0
M  V30 12599 H 1186.38 -4.20209 -1.37394 0
M  V30 12600 N 1185.44 -0.462799 -1.50652 0
M  V30 12601 C 1186.38 0.349784 -2.29955 0
M  V30 12602 C 1187.38 0.997947 -1.36885 0
M  V30 12603 O 1188.58 0.93 -1.54114 0
M  V30 12604 H 1184.96 0.131635 -0.740389 0
M  V30 12605 H 1186.93 -0.33958 -2.96461 0
M  V30 12606 C 1185.68 1.42398 -3.17204 0
M  V30 12607 H 1185 0.934611 -3.88722 0
M  V30 12608 H 1186.44 1.96528 -3.75703 0
M  V30 12609 C 1184.9 2.42135 -2.34248 0
M  V30 12610 O 1185.43 3.47229 -2.01978 0
M  V30 12611 N 1183.64 2.13647 -1.96985 0
M  V30 12612 H 1183.18 1.28209 -2.23428 0
M  V30 12613 H 1183.14 2.80615 -1.41783 0
M  V30 12614 N 1186.91 1.56388 -0.195085 0
M  V30 12615 C 1187.86 2.19091 0.725793 0
M  V30 12616 C 1188.83 1.13814 1.20977 0
M  V30 12617 O 1190.02 1.42065 1.27366 0
M  V30 12618 C 1187.16 2.85427 1.93973 0
M  V30 12619 C 1186.27 4.05229 1.49712 0
M  V30 12620 C 1185.4 4.59421 2.66656 0
M  V30 12621 C 1184.44 5.71581 2.19001 0
M  V30 12622 N 1183.58 6.2018 3.29123 0
M  V30 12623 H 1188.42 2.97429 0.184334 0
M  V30 12624 H 1185.96 1.46886 0.0792434 0
M  V30 12625 H 1187.92 3.22057 2.65208 0
M  V30 12626 H 1186.55 2.09652 2.4545 0
M  V30 12627 H 1185.6 3.74261 0.680641 0
M  V30 12628 H 1186.91 4.8635 1.10749 0
M  V30 12629 H 1186.06 4.98357 3.46014 0
M  V30 12630 H 1184.8 3.77407 3.08893 0
M  V30 12631 H 1183.81 5.32174 1.38097 0
M  V30 12632 H 1185.03 6.55413 1.77795 0
M  V30 12633 H 1182.98 5.41088 3.70891 0
M  V30 12634 H 1182.9 6.96353 2.94328 0
M  V30 12635 H 1184.16 6.63769 4.08694 0
M  V30 12636 N 1188.39 -0.0785156 1.57404 0
M  V30 12637 C 1189.3 -1.11203 2.0657 0
M  V30 12638 C 1190.32 -1.42822 0.993872 0
M  V30 12639 O 1191.49 -1.53133 1.30814 0
M  V30 12640 C 1188.56 -2.40812 2.4942 0
M  V30 12641 C 1187.62 -2.16225 3.70871 0
M  V30 12642 C 1186.85 -3.39654 4.11668 0
M  V30 12643 O 1187.08 -4.48521 3.524 0
M  V30 12644 O 1186.01 -3.28263 5.04507 0
M  V30 12645 H 1189.84 -0.724381 2.94935 0
M  V30 12646 H 1187.42 -0.292184 1.46515 0
M  V30 12647 H 1189.3 -3.17101 2.77534 0
M  V30 12648 H 1187.98 -2.7897 1.64187 0
M  V30 12649 H 1186.89 -1.37663 3.4785 0
M  V30 12650 H 1188.22 -1.82951 4.56935 0
M  V30 12651 N 1189.87 -1.5367 -0.349747 0
M  V30 12652 C 1191.1 -1.74858 -1.11532 0
M  V30 12653 C 1191.52 -0.483591 -1.81777 0
M  V30 12654 O 1190.88 0.563399 -1.72324 0
M  V30 12655 C 1190.93 -2.92479 -2.10923 0
M  V30 12656 O 1190.03 -2.62194 -3.18321 0
M  V30 12657 H 1189.37 -0.580219 -0.322865 0
M  V30 12658 H 1191.9 -2.00611 -0.402033 0
M  V30 12659 H 1191.91 -3.19093 -2.54252 0
M  V30 12660 H 1190.59 -3.84228 -1.59191 0
M  V30 12661 H 1189.16 -2.46448 -2.79853 0
M  V30 12662 N 1191.35 0.610423 -1.45298 0
M  V30 12663 C 1192.28 1.73207 -1.56594 0
M  V30 12664 C 1193.26 1.64893 -0.417651 0
M  V30 12665 O 1194.44 1.83336 -0.64043 0
M  V30 12666 C 1191.57 3.11803 -1.52959 0
M  V30 12667 C 1190.53 3.34925 -2.66475 0
M  V30 12668 C 1189.85 4.73764 -2.47894 0
M  V30 12669 C 1191.15 3.25456 -4.08504 0
M  V30 12670 H 1192.85 1.6401 -2.50482 0
M  V30 12671 H 1190.39 0.787621 -1.20551 0
M  V30 12672 H 1192.35 3.90065 -1.59458 0
M  V30 12673 H 1191.07 3.21833 -0.55599 0
M  V30 12674 H 1189.73 2.59051 -2.59399 0
M  V30 12675 H 1189.38 4.80524 -1.4868 0
M  V30 12676 H 1189.08 4.90191 -3.24016 0
M  V30 12677 H 1190.6 5.54231 -2.56243 0
M  V30 12678 H 1192.02 3.93597 -4.16839 0
M  V30 12679 H 1190.41 3.53414 -4.84994 0
M  V30 12680 H 1191.48 2.22939 -4.30612 0
M  V30 12681 N 1192.83 1.32541 0.852676 0
M  V30 12682 C 1194.07 1.23397 1.60938 0
M  V30 12683 C 1194.41 -0.203294 1.93133 0
M  V30 12684 O 1193.68 -1.14097 1.57519 0
M  V30 12685 C 1193.96 2.0956 2.92842 0
M  V30 12686 C 1193.82 3.61675 2.67416 0
M  V30 12687 C 1195.14 1.95825 3.94133 0
M  V30 12688 H 1192.25 0.449608 0.583971 0
M  V30 12689 H 1194.9 1.62507 0.98446 0
M  V30 12690 H 1193.05 1.76336 3.46176 0
M  V30 12691 H 1194.72 4.05122 2.20621 0
M  V30 12692 H 1192.96 3.84242 2.01347 0
M  V30 12693 H 1193.63 4.17292 3.61347 0
M  V30 12694 H 1196.11 2.24935 3.50062 0
M  V30 12695 H 1194.98 2.58387 4.8428 0
M  V30 12696 H 1195.25 0.926466 4.32284 0
M  V30 12697 N 1194.3 -1.0692 1.15784 0
M  V30 12698 C 1195.55 -1.78983 0.929944 0
M  V30 12699 C 1195.87 -1.87884 -0.543969 0
M  V30 12700 O 1197.07 -2.56513 -0.889578 0
M  V30 12701 C 1195.53 -3.21657 1.61446 0
M  V30 12702 C 1195.14 -3.20943 3.12569 0
M  V30 12703 C 1196.88 -3.98299 1.46828 0
M  V30 12704 C 1194.79 -4.58298 3.73788 0
M  V30 12705 H 1193.72 -0.670809 0.344284 0
M  V30 12706 H 1196.37 -1.19975 1.38846 0
M  V30 12707 H 1194.75 -3.80885 1.08364 0
M  V30 12708 H 1195.92 -2.71334 3.72444 0
M  V30 12709 H 1194.24 -2.57799 3.26999 0
M  V30 12710 H 1196.84 -4.99822 1.89952 0
M  V30 12711 H 1197.18 -4.14213 0.416358 0
M  V30 12712 H 1197.71 -3.45577 1.97031 0
M  V30 12713 H 1194.45 -4.47588 4.789 0
M  V30 12714 H 1193.97 -5.08126 3.18698 0
M  V30 12715 H 1195.65 -5.27262 3.74972 0
M  V30 12716 N 1195.78 -0.955326 -1.25345 0
M  V30 12717 C 1197.01 -0.627233 -1.97688 0
M  V30 12718 C 1197.43 0.793973 -1.70522 0
M  V30 12719 O 1196.79 1.537 -0.961556 0
M  V30 12720 C 1196.84 -0.892969 -3.49369 0
M  V30 12721 O 1195.94 0.0278871 -4.12391 0
M  V30 12722 H 1195.28 -0.238402 -0.619726 0
M  V30 12723 H 1197.81 -1.28211 -1.59446 0
M  V30 12724 H 1197.82 -0.819517 -3.99685 0
M  V30 12725 H 1196.5 -1.92879 -3.6847 0
M  V30 12726 H 1195.08 -0.0978295 -3.72772 0
M  V30 12727 N 1197.26 1.39987 -0.723979 0
M  V30 12728 C 1198.51 2.00334 -0.266587 0
M  V30 12729 C 1198.83 1.57714 1.14679 0
M  V30 12730 O 1198.1 0.82037 1.77895 0
M  V30 12731 H 1196.68 0.740861 -0.095573 0
M  V30 12732 H 1199.34 1.712 -0.931481 0
M  V30 12733 H 1198.44 3.10594 -0.306282 0
M  V30 12734 N 1198.74 0.470782 1.50404 0
M  V30 12735 C 1199.67 -0.313458 2.31386 0
M  V30 12736 C 1200.65 -0.990623 1.38278 0
M  V30 12737 O 1201.84 -0.987854 1.67198 0
M  V30 12738 C 1198.97 -1.39599 3.18009 0
M  V30 12739 C 1197.92 -0.840443 4.19667 0
M  V30 12740 C 1197.25 -2.02124 4.95025 0
M  V30 12741 C 1198.55 0.148055 5.2209 0
M  V30 12742 H 1200.24 0.362432 2.97198 0
M  V30 12743 H 1197.79 0.175745 1.42924 0
M  V30 12744 H 1199.74 -1.9521 3.73458 0
M  V30 12745 H 1198.46 -2.10064 2.50081 0
M  V30 12746 H 1197.12 -0.306302 3.65318 0
M  V30 12747 H 1196.77 -2.71286 4.23571 0
M  V30 12748 H 1196.47 -1.65574 5.6379 0
M  V30 12749 H 1197.99 -2.58226 5.5331 0
M  V30 12750 H 1199.41 -0.318874 5.72413 0
M  V30 12751 H 1197.8 0.427811 5.98573 0
M  V30 12752 H 1198.87 1.07404 4.72855 0
M  V30 12753 N 1200.22 -1.56282 0.203376 0
M  V30 12754 C 1201.63 -1.58871 -0.152335 0
M  V30 12755 C 1201.83 -1.21978 -1.60386 0
M  V30 12756 O 1200.89 -0.946422 -2.34092 0
M  V30 12757 C 1202.2 -3.00287 0.157515 0
M  V30 12758 C 1203.75 -3.12846 0.098287 0
M  V30 12759 C 1204.23 -4.56408 0.38156 0
M  V30 12760 N 1205.72 -4.6202 0.330475 0
M  V30 12761 C 1206.45 -5.71006 0.523397 0
M  V30 12762 N 1205.95 -6.88428 0.777115 0
M  V30 12763 N 1207.74 -5.60238 0.457082 0
M  V30 12764 H 1199.89 -1.78543 1.15048 0
M  V30 12765 H 1202.15 -0.829019 0.459816 0
M  V30 12766 H 1201.86 -3.3187 1.16427 0
M  V30 12767 H 1201.73 -3.73372 -0.536041 0
M  V30 12768 H 1204.12 -2.8107 -0.899085 0
M  V30 12769 H 1204.2 -2.42129 0.825045 0
M  V30 12770 H 1203.85 -4.88897 1.37629 0
M  V30 12771 H 1203.78 -5.25325 -0.366182 0
M  V30 12772 H 1206.27 -3.77636 0.141327 0
M  V30 12773 H 1206.58 -7.67389 0.912911 0
M  V30 12774 H 1204.93 -6.90215 0.814104 0
M  V30 12775 H 1208.12 -4.67382 0.259226 0
M  V30 12776 H 1208.29 -6.45114 0.610848 0
M  V30 12777 N 1201.7 0.070167 -1.57444 0
M  V30 12778 C 1202.65 1.09016 -2.00249 0
M  V30 12779 C 1203.63 1.34387 -0.884809 0
M  V30 12780 O 1204.82 1.34661 -1.14872 0
M  V30 12781 C 1201.95 2.40344 -2.45132 0
M  V30 12782 C 1201.04 2.1824 -3.63637 0
M  V30 12783 N 1201.43 1.6607 -4.7776 0
M  V30 12784 C 1199.73 2.48706 -3.70218 0
M  V30 12785 C 1200.43 1.58819 -5.59599 0
M  V30 12786 N 1199.4 2.04928 -5.03493 0
M  V30 12787 H 1203.2 0.680143 -2.85922 0
M  V30 12788 H 1200.72 0.277212 -1.60017 0
M  V30 12789 H 1202.72 3.1418 -2.74037 0
M  V30 12790 H 1201.38 2.82061 -1.60846 0
M  V30 12791 H 1202.39 1.34911 -5.00019 0
M  V30 12792 H 1199.06 2.93778 -2.96649 0
M  V30 12793 H 1200.45 1.19323 -6.6122 0
M  V30 12794 N 1203.17 1.53854 0.341593 0
M  V30 12795 C 1204.42 1.71194 1.08162 0
M  V30 12796 C 1204.75 0.47614 1.88582 0
M  V30 12797 O 1204 -0.542115 1.88041 0
M  V30 12798 C 1204.3 2.92844 2.04884 0
M  V30 12799 C 1203.97 4.28366 1.40759 0
M  V30 12800 C 1202.63 4.65214 1.23 0
M  V30 12801 C 1204.98 5.12546 0.945819 0
M  V30 12802 C 1202.31 5.83857 0.576852 0
M  V30 12803 C 1204.66 6.31857 0.306568 0
M  V30 12804 C 1203.33 6.67398 0.116677 0
M  V30 12805 H 1202.6 0.626442 0.395792 0
M  V30 12806 H 1205.24 1.88073 0.360688 0
M  V30 12807 H 1203.55 2.70576 2.83365 0
M  V30 12808 H 1205.25 3.03454 2.62139 0
M  V30 12809 H 1201.84 3.99366 1.5558 0
M  V30 12810 H 1206.02 4.84609 1.07087 0
M  V30 12811 H 1201.28 6.09967 0.418363 0
M  V30 12812 H 1205.45 6.96375 -0.0593285 0
M  V30 12813 H 1203.08 7.59191 -0.391477 0
M  V30 12814 N 1204.65 -0.602709 1.4562 0
M  V30 12815 C 1205.88 -1.3881 1.53426 0
M  V30 12816 C 1206.29 -1.88046 0.16851 0
M  V30 12817 O 1205.65 -1.62493 -0.830791 0
M  V30 12818 C 1205.7 -2.58927 2.52268 0
M  V30 12819 O 1205.42 -2.11735 3.83536 0
M  V30 12820 C 1206.92 -3.51728 2.69819 0
M  V30 12821 H 1204.14 -0.424744 0.519455 0
M  V30 12822 H 1206.69 -0.73459 1.90851 0
M  V30 12823 H 1204.84 -3.20309 2.17902 0
M  V30 12824 H 1205.26 -2.89814 4.37159 0
M  V30 12825 H 1206.73 -4.32542 3.42945 0
M  V30 12826 H 1207.21 -4.02383 1.76024 0
M  V30 12827 H 1207.81 -2.96196 3.05202 0
M  V30 12828 N 1206.13 -1.32992 -0.845635 0
M  V30 12829 C 1207.38 -1.2382 -1.59728 0
M  V30 12830 C 1207.7 0.197724 -1.93995 0
M  V30 12831 O 1206.97 1.12477 -1.60392 0
M  V30 12832 H 1205.55 -0.455296 -0.592212 0
M  V30 12833 H 1208.21 -1.66627 -1.01101 0
M  V30 12834 H 1207.31 -1.82717 -2.53023 0
M  V30 12835 N 1207.61 1.06304 -1.1635 0
M  V30 12836 C 1208.84 1.82534 -0.967725 0
M  V30 12837 C 1209.25 1.82816 0.487338 0
M  V30 12838 O 1208.59 1.24581 1.35001 0
M  V30 12839 C 1208.65 3.30349 -1.4181 0
M  V30 12840 C 1208.31 3.53769 -2.89303 0
M  V30 12841 C 1209.31 3.46826 -3.87308 0
M  V30 12842 C 1207 3.81094 -3.2722 0
M  V30 12843 C 1208.99 3.66874 -5.21232 0
M  V30 12844 C 1206.68 4.00792 -4.61313 0
M  V30 12845 C 1207.68 3.93679 -5.58127 0
M  V30 12846 O 1207.36 4.12839 -6.89796 0
M  V30 12847 H 1207.1 0.582407 -0.343189 0
M  V30 12848 H 1209.65 1.35022 -1.54784 0
M  V30 12849 H 1207.88 3.78722 -0.781456 0
M  V30 12850 H 1209.57 3.88072 -1.18976 0
M  V30 12851 H 1210.33 3.25706 -3.59361 0
M  V30 12852 H 1206.21 3.85739 -2.5244 0
M  V30 12853 H 1209.76 3.61238 -5.96786 0
M  V30 12854 H 1205.65 4.214 -4.8897 0
M  V30 12855 H 1206.42 4.30128 -6.96371 0
M  V30 12856 N 1209.09 0.96196 1.24836 0
M  V30 12857 C 1210.5 0.667561 1.44968 0
M  V30 12858 C 1210.7 -0.772521 1.86103 0
M  V30 12859 O 1209.76 -1.54704 1.99557 0
M  V30 12860 C 1211.07 1.64675 2.516 0
M  V30 12861 C 1212.62 1.65874 2.65433 0
M  V30 12862 C 1213.09 2.62576 3.75257 0
M  V30 12863 N 1214.58 2.60984 3.82677 0
M  V30 12864 C 1215.32 3.32484 4.67163 0
M  V30 12865 N 1214.82 4.13482 5.55882 0
M  V30 12866 N 1216.61 3.21336 4.61193 0
M  V30 12867 H 1208.76 1.89248 0.964307 0
M  V30 12868 H 1211.02 0.814443 0.485167 0
M  V30 12869 H 1210.73 2.67572 2.2825 0
M  V30 12870 H 1210.6 1.415 3.49653 0
M  V30 12871 H 1212.99 0.636912 2.88145 0
M  V30 12872 H 1213.07 1.9311 1.67756 0
M  V30 12873 H 1212.71 3.6489 3.53295 0
M  V30 12874 H 1212.64 2.32622 4.72435 0
M  V30 12875 H 1215.14 2.02187 3.19263 0
M  V30 12876 H 1215.45 4.6494 6.17293 0
M  V30 12877 H 1213.79 4.17578 5.55566 0
M  V30 12878 H 1216.98 2.57524 3.90895 0
M  V30 12879 H 1217.16 3.77323 5.26812 0
M  V30 12880 N 1210.56 -1.39601 0.731392 0
M  V30 12881 C 1211.81 -1.99821 0.274661 0
M  V30 12882 C 1212.13 -1.58693 -1.1435 0
M  V30 12883 O 1213.33 -2.11724 -1.69957 0
M  V30 12884 C 1211.79 -3.57199 0.440124 0
M  V30 12885 C 1211.4 -4.07292 1.86594 0
M  V30 12886 C 1213.14 -4.24476 0.0449851 0
M  V30 12887 C 1211.05 -5.57229 1.98115 0
M  V30 12888 H 1209.98 -0.747481 0.0989383 0
M  V30 12889 H 1212.63 -1.59645 0.904755 0
M  V30 12890 H 1211.01 -3.95153 -0.25881 0
M  V30 12891 H 1212.18 -3.80679 2.59654 0
M  V30 12892 H 1210.5 -3.52665 2.21397 0
M  V30 12893 H 1213.1 -5.34587 0.110126 0
M  V30 12894 H 1213.44 -4.04129 -0.999269 0
M  V30 12895 H 1213.97 -3.91683 0.694942 0
M  V30 12896 H 1210.71 -5.82452 3.00716 0
M  V30 12897 H 1210.23 -5.85656 1.29487 0
M  V30 12898 H 1211.91 -6.22584 1.76063 0
M  V30 12899 N 1212.04 -0.478751 -1.50152 0
M  V30 12900 C 1212.95 0.316554 -2.32455 0
M  V30 12901 C 1213.97 0.98871 -1.4318 0
M  V30 12902 O 1215.14 0.974998 -1.76226 0
M  V30 12903 C 1212.21 1.3799 -3.18056 0
M  V30 12904 C 1211.27 0.723534 -4.23159 0
M  V30 12905 C 1210.5 1.73621 -5.0467 0
M  V30 12906 O 1210.73 2.96362 -4.87366 0
M  V30 12907 O 1209.66 1.30381 -5.87609 0
M  V30 12908 H 1213.49 -0.356491 -3.016 0
M  V30 12909 H 1211.07 -0.24046 -1.47452 0
M  V30 12910 H 1212.95 1.99565 -3.71149 0
M  V30 12911 H 1211.63 2.03627 -2.5163 0
M  V30 12912 H 1210.54 0.0686296 -3.74037 0
M  V30 12913 H 1211.87 0.109979 -4.92077 0
M  V30 12914 N 1213.52 1.56172 -0.211661 0
M  V30 12915 C 1214.45 2.22843 0.697375 0
M  V30 12916 C 1215.43 1.19689 1.20866 0
M  V30 12917 O 1216.62 1.48245 1.25447 0
M  V30 12918 C 1213.75 2.90067 1.90993 0
M  V30 12919 C 1212.7 3.99608 1.5329 0
M  V30 12920 C 1212.03 4.54078 2.82343 0
M  V30 12921 C 1213.33 5.17169 0.730333 0
M  V30 12922 H 1215.02 2.99065 0.141533 0
M  V30 12923 H 1212.57 1.43846 0.0666337 0
M  V30 12924 H 1214.52 3.35396 2.55123 0
M  V30 12925 H 1213.24 2.11276 2.49058 0
M  V30 12926 H 1211.9 3.54995 0.915115 0
M  V30 12927 H 1211.55 3.72029 3.38531 0
M  V30 12928 H 1211.25 5.28001 2.57853 0
M  V30 12929 H 1212.77 5.02119 3.47432 0
M  V30 12930 H 1214.19 5.5894 1.2751 0
M  V30 12931 H 1212.59 5.97262 0.582916 0
M  V30 12932 H 1213.66 4.84174 -0.265157 0
M  V30 12933 N 1215 -0.0618163 1.57479 0
M  V30 12934 C 1215.93 -1.09931 2.01116 0
M  V30 12935 C 1216.94 -1.34405 0.91865 0
M  V30 12936 O 1218.13 -1.32469 1.19642 0
M  V30 12937 C 1215.23 -2.44814 2.34349 0
M  V30 12938 C 1214.41 -2.40157 3.65573 0
M  V30 12939 C 1213.46 -3.57226 3.86363 0
M  V30 12940 O 1212.49 -3.38202 4.5783 0
M  V30 12941 N 1213.69 -4.77937 3.2948 0
M  V30 12942 H 1216.46 -0.727621 2.90733 0
M  V30 12943 H 1214.02 -0.250315 1.59953 0
M  V30 12944 H 1216.01 -3.21792 2.45422 0
M  V30 12945 H 1214.58 -2.73947 1.50571 0
M  V30 12946 H 1213.8 -1.48496 3.65161 0
M  V30 12947 H 1215.09 -2.34156 4.51717 0
M  V30 12948 H 1214.49 -4.96296 2.7149 0
M  V30 12949 H 1213.04 -5.52392 3.45986 0
M  V30 12950 N 1216.48 -1.54033 -0.333429 0
M  V30 12951 C 1217.44 -1.82021 -1.39288 0
M  V30 12952 C 1218.44 -0.691623 -1.45166 0
M  V30 12953 O 1219.63 -0.959925 -1.45365 0
M  V30 12954 C 1216.76 -1.97136 -2.78119 0
M  V30 12955 H 1217.95 -2.76671 -1.1573 0
M  V30 12956 H 1215.51 -1.45599 -0.568376 0
M  V30 12957 H 1216.24 -1.04663 -3.06946 0
M  V30 12958 H 1216.03 -2.79251 -2.75247 0
M  V30 12959 H 1217.52 -2.20271 -3.54782 0
M  V30 12960 N 1217.95 0.594978 -1.45938 0
M  V30 12961 C 1219.19 1.36479 -1.52161 0
M  V30 12962 C 1219.56 1.91296 -0.164295 0
M  V30 12963 O 1220.76 2.68609 -0.101247 0
M  V30 12964 C 1219.03 2.47286 -2.5804 0
M  V30 12965 S 1220.59 3.34855 -2.8358 0
M  V30 12966 H 1217.41 0.465134 -0.537746 0
M  V30 12967 H 1220.01 0.685257 -1.83097 0
M  V30 12968 H 1218.71 2.05386 -3.5531 0
M  V30 12969 H 1218.24 3.20025 -2.28795 0
M  V30 12970 H 1220.26 4.45788 -2.17916 0
M  V30 12971 N 1219.43 1.33438 0.838571 0
M  V30 12972 C 1220.38 1.23698 1.96981 0
M  V30 12973 C 1221.37 0.138299 1.68835 0
M  V30 12974 O 1222.58 0.302278 1.77444 0
M  V30 12975 H 1218.96 0.383874 0.646641 0
M  V30 12976 H 1220.93 2.19337 2.02321 0
M  V30 12977 C 1219.68 0.993362 3.33208 0
M  V30 12978 H 1219 1.83104 3.55405 0
M  V30 12979 H 1220.44 0.965517 4.1286 0
M  V30 12980 C 1218.9 -0.303701 3.35528 0
M  V30 12981 O 1219.43 -1.3103 3.79729 0
M  V30 12982 N 1217.63 -0.331342 2.88705 0
M  V30 12983 H 1217.18 0.488351 2.52929 0
M  V30 12984 H 1217.14 -1.199 2.9064 0
M  V30 12985 N 1220.91 -1.05686 1.16912 0
M  V30 12986 C 1221.84 -2.1329 0.839044 0
M  V30 12987 C 1222.86 -1.62047 -0.156392 0
M  V30 12988 O 1224.04 -1.78366 0.0692192 0
M  V30 12989 C 1221.14 -3.38122 0.229558 0
M  V30 12990 C 1220.32 -4.18659 1.26662 0
M  V30 12991 C 1219.38 -5.21842 0.675811 0
M  V30 12992 O 1218.4 -5.53049 1.3463 0
M  V30 12993 N 1219.6 -5.78034 -0.534532 0
M  V30 12994 H 1222.37 -2.42203 1.76515 0
M  V30 12995 H 1219.93 -1.2174 1.06729 0
M  V30 12996 H 1221.92 -4.04305 -0.178868 0
M  V30 12997 H 1220.49 -3.06783 -0.60023 0
M  V30 12998 H 1219.71 -3.4804 1.85099 0
M  V30 12999 H 1221 -4.6927 1.9663 0
M  V30 13000 H 1220.4 -5.54955 -1.09731 0
M  V30 13001 H 1218.96 -6.45763 -0.885087 0
M  V30 13002 N 1222.39 -0.968567 -1.24324 0
M  V30 13003 C 1223.67 -0.547774 -1.87773 0
M  V30 13004 C 1224.05 0.975107 -1.87229 0
M  V30 13005 O 1223.39 1.84683 -1.34553 0
M  V30 13006 C 1223.6 -1.1403 -3.29846 0
M  V30 13007 C 1224.95 -1.22572 -4.06523 0
M  V30 13008 O 1225.98 -1.09287 -3.3902 0
M  V30 13009 O 1224.83 -1.43579 -5.27302 0
M  V30 13010 H 1221.93 -0.182771 -0.806551 0
M  V30 13011 H 1224.47 -1.06289 -1.3229 0
M  V30 13012 H 1223.25 -2.18303 -3.24745 0
M  V30 13013 H 1222.87 -0.609275 -3.92904 0
M  V30 13014 N 1223.87 1.39211 -0.738786 0
M  V30 13015 C 1225.09 2.04732 -0.298751 0
M  V30 13016 C 1225.51 1.55706 1.06776 0
M  V30 13017 O 1224.87 0.723605 1.67542 0
M  V30 13018 C 1224.92 3.60288 -0.29574 0
M  V30 13019 O 1224.64 4.07511 -1.60831 0
M  V30 13020 C 1226.14 4.43011 0.159994 0
M  V30 13021 H 1223.36 0.658296 -0.129952 0
M  V30 13022 H 1225.9 1.78186 -1.0035 0
M  V30 13023 H 1224.06 3.85722 0.360146 0
M  V30 13024 H 1224.47 5.01858 -1.52443 0
M  V30 13025 H 1225.95 5.51889 0.110941 0
M  V30 13026 H 1226.42 4.22325 1.20573 0
M  V30 13027 H 1227.03 4.22734 -0.466467 0
M  V30 13028 N 1225.34 0.486708 1.49896 0
M  V30 13029 C 1226.76 0.0353906 1.86666 0
M  V30 13030 C 1227.11 -1.3743 1.40026 0
M  V30 13031 O 1226.23 -2.02163 0.77194 0
M  V30 13032 C 1226.83 0.0574475 3.38751 0
M  V30 13033 C 1225.39 -0.338464 3.74875 0
M  V30 13034 C 1224.53 0.436196 2.73848 0
M  V30 13035 H 1227.48 0.700215 1.42417 0
M  V30 13036 H 1227.5 -0.741175 3.73212 0
M  V30 13037 H 1227.02 1.08356 3.72667 0
M  V30 13038 H 1225.12 -1.36835 3.46565 0
M  V30 13039 H 1225.23 -0.0289519 4.79091 0
M  V30 13040 H 1223.59 -0.112141 2.54453 0
M  V30 13041 H 1224.38 1.46212 3.10608 0
M  V30 13042 N 1226.82 -1.56058 0.219941 0
M  V30 13043 C 1227.73 -2.23844 -0.70222 0
M  V30 13044 C 1228.75 -1.24554 -1.215 0
M  V30 13045 O 1229.93 -1.57362 -1.25695 0
M  V30 13046 C 1226.99 -2.90384 -1.89416 0
M  V30 13047 C 1226.05 -4.05012 -1.42351 0
M  V30 13048 C 1225.28 -4.68369 -2.55863 0
M  V30 13049 O 1225.51 -4.3071 -3.73958 0
M  V30 13050 O 1224.44 -5.5739 -2.27157 0
M  V30 13051 H 1228.27 -3.03305 -0.15478 0
M  V30 13052 H 1225.85 -1.49396 -0.010438 0
M  V30 13053 H 1227.73 -3.32389 -2.59028 0
M  V30 13054 H 1226.41 -2.13883 -2.42973 0
M  V30 13055 H 1225.32 -3.67579 -0.695448 0
M  V30 13056 H 1226.65 -4.83251 -0.934332 0
M  V30 13057 N 1228.3 0.053464 -1.57509 0
M  V30 13058 C 1229.21 1.07902 -2.08313 0
M  V30 13059 C 1230.23 1.41223 -1.01647 0
M  V30 13060 O 1231.4 1.51032 -1.33233 0
M  V30 13061 C 1228.47 2.36813 -2.5322 0
M  V30 13062 C 1227.53 2.10297 -3.74264 0
M  V30 13063 C 1226.76 3.33062 -4.1702 0
M  V30 13064 O 1226.99 4.42857 -3.59491 0
M  V30 13065 O 1225.92 3.20195 -5.09665 0
M  V30 13066 H 1229.75 0.677368 -2.9605 0
M  V30 13067 H 1227.33 0.268838 -1.46961 0
M  V30 13068 H 1229.21 3.12645 -2.82544 0
M  V30 13069 H 1227.89 2.76323 -1.68605 0
M  V30 13070 H 1226.79 1.32111 -3.49996 0
M  V30 13071 H 1228.13 1.75658 -4.59788 0
M  V30 13072 N 1229.78 1.54207 0.325255 0
M  V30 13073 C 1231.2 1.44879 0.669492 0
M  V30 13074 C 1231.4 0.620298 1.91715 0
M  V30 13075 O 1230.45 0.118435 2.52222 0
M  V30 13076 C 1231.76 2.88581 0.845077 0
M  V30 13077 C 1233.31 2.98472 0.942527 0
M  V30 13078 C 1233.79 4.4332 1.15029 0
M  V30 13079 N 1235.28 4.46925 1.21707 0
M  V30 13080 C 1236.01 5.56155 1.39568 0
M  V30 13081 N 1235.51 6.75357 1.54483 0
M  V30 13082 N 1237.3 5.43799 1.42263 0
M  V30 13083 H 1229.45 2.06556 -0.494819 0
M  V30 13084 H 1231.72 0.934474 -0.159568 0
M  V30 13085 H 1231.42 3.517 -0.000442996 0
M  V30 13086 H 1231.3 3.34596 1.74141 0
M  V30 13087 H 1233.68 2.35481 1.77855 0
M  V30 13088 H 1233.76 2.5579 0.0226995 0
M  V30 13089 H 1233.41 5.06896 0.319127 0
M  V30 13090 H 1233.34 4.8361 2.08397 0
M  V30 13091 H 1235.83 3.61036 1.11632 0
M  V30 13092 H 1236.14 7.54363 1.67799 0
M  V30 13093 H 1234.49 6.78268 1.51584 0
M  V30 13094 H 1237.68 4.49627 1.30205 0
M  V30 13095 H 1237.85 6.28982 1.5584 0
M  V30 13096 N 1231.26 -0.58723 1.46251 0
M  V30 13097 C 1232.5 -1.3567 1.52882 0
M  V30 13098 C 1232.86 -1.91206 0.174438 0
M  V30 13099 O 1234.06 -2.68552 0.115491 0
M  V30 13100 C 1232.33 -2.45914 2.59347 0
M  V30 13101 S 1233.89 -3.33347 2.85351 0
M  V30 13102 H 1230.71 -0.462276 0.540205 0
M  V30 13103 H 1233.31 -0.675537 1.83458 0
M  V30 13104 H 1232.02 -2.03498 3.56394 0
M  V30 13105 H 1231.55 -3.18807 2.30489 0
M  V30 13106 H 1233.56 -4.44626 2.20278 0
M  V30 13107 N 1232.74 -1.33881 -0.831482 0
M  V30 13108 C 1233.96 -1.28961 -1.62431 0
M  V30 13109 C 1234.39 0.135249 -1.87613 0
M  V30 13110 O 1233.74 1.09426 -1.44553 0
M  V30 13111 C 1233.79 -2.07767 -2.94729 0
M  V30 13112 O 1232.9 -1.44133 -3.86393 0
M  V30 13113 H 1232.24 -0.443313 -0.494337 0
M  V30 13114 H 1234.77 -1.76555 -1.0339 0
M  V30 13115 H 1234.78 -2.18806 -3.44366 0
M  V30 13116 H 1233.45 -3.11367 -2.75724 0
M  V30 13117 H 1232.03 -1.41784 -3.44894 0
M  V30 13118 N 1234.21 1.05064 -1.1747 0
M  V30 13119 C 1235.46 1.78352 -0.965311 0
M  V30 13120 C 1235.79 1.87527 0.504707 0
M  V30 13121 O 1235.07 1.376 1.37465 0
M  V30 13122 C 1235.35 3.22173 -1.60862 0
M  V30 13123 C 1235.2 3.21003 -3.15083 0
M  V30 13124 C 1236.52 4.2004 -1.31358 0
M  V30 13125 H 1233.64 0.647452 -0.352101 0
M  V30 13126 H 1236.28 1.22794 -1.44988 0
M  V30 13127 H 1234.43 3.69613 -1.19658 0
M  V30 13128 H 1236.11 2.81629 -3.65353 0
M  V30 13129 H 1234.35 2.59309 -3.47766 0
M  V30 13130 H 1235.02 4.22516 -3.55224 0
M  V30 13131 H 1237.5 3.81099 -1.6704 0
M  V30 13132 H 1236.37 5.1891 -1.78953 0
M  V30 13133 H 1236.63 4.41477 -0.234606 0
M  V30 13134 N 1235.69 0.975146 1.23809 0
M  V30 13135 C 1236.65 0.516157 2.23312 0
M  V30 13136 C 1237.65 -0.39136 1.55965 0
M  V30 13137 O 1238.84 -0.185783 1.73206 0
M  V30 13138 C 1235.98 -0.251534 3.39971 0
M  V30 13139 H 1237.17 1.3959 2.65433 0
M  V30 13140 H 1234.72 0.760493 1.36551 0
M  V30 13141 H 1235.46 -1.14805 3.03299 0
M  V30 13142 H 1235.24 0.399825 3.90056 0
M  V30 13143 H 1236.73 -0.561438 4.13809 0
M  V30 13144 N 1237.17 -1.38817 0.746158 0
M  V30 13145 C 1238.13 -2.28876 0.121886 0
M  V30 13146 C 1239.13 -1.46838 -0.655379 0
M  V30 13147 O 1240.32 -1.67377 -0.482744 0
M  V30 13148 C 1237.45 -3.30487 -0.836118 0
M  V30 13149 H 1238.65 -2.85586 0.915453 0
M  V30 13150 H 1236.2 -1.47652 0.512691 0
M  V30 13151 H 1236.94 -2.78853 -1.65563 0
M  V30 13152 H 1236.72 -3.9109 -0.281271 0
M  V30 13153 H 1238.21 -3.97848 -1.26914 0
M  V30 13154 N 1238.65 -0.49465 -1.49636 0
M  V30 13155 C 1239.88 0.0490417 -2.06542 0
M  V30 13156 C 1240.29 1.31945 -1.35599 0
M  V30 13157 O 1239.63 1.78691 -0.426047 0
M  V30 13158 C 1239.69 0.379426 -3.57492 0
M  V30 13159 C 1239.35 -0.792345 -4.50079 0
M  V30 13160 C 1240.35 -1.68106 -4.91972 0
M  V30 13161 C 1238.04 -0.98935 -4.9246 0
M  V30 13162 C 1240.03 -2.75099 -5.74978 0
M  V30 13163 C 1237.72 -2.06247 -5.75244 0
M  V30 13164 C 1238.72 -2.94163 -6.16407 0
M  V30 13165 O 1238.4 -3.99623 -6.97536 0
M  V30 13166 H 1238.14 -0.0143708 -0.675847 0
M  V30 13167 H 1240.69 -0.689358 -1.93486 0
M  V30 13168 H 1238.92 1.17133 -3.68533 0
M  V30 13169 H 1240.61 0.860979 -3.96664 0
M  V30 13170 H 1241.37 -1.54065 -4.59879 0
M  V30 13171 H 1237.25 -0.314435 -4.59926 0
M  V30 13172 H 1240.8 -3.4375 -6.07027 0
M  V30 13173 H 1236.69 -2.20285 -6.06749 0
M  V30 13174 H 1237.46 -3.96899 -7.15831 0
M  V30 13175 N 1240.13 1.55939 -0.228214 0
M  V30 13176 C 1241.37 1.9877 0.402272 0
M  V30 13177 C 1241.7 1.11587 1.5894 0
M  V30 13178 O 1240.98 0.175032 1.93711 0
M  V30 13179 C 1241.26 3.50396 0.830353 0
M  V30 13180 C 1241.12 4.4835 -0.360876 0
M  V30 13181 C 1242.43 4.06602 1.68413 0
M  V30 13182 H 1239.55 0.722646 0.144746 0
M  V30 13183 H 1242.2 1.87186 -0.325784 0
M  V30 13184 H 1240.35 3.60398 1.4507 0
M  V30 13185 H 1242.02 4.5035 -0.999113 0
M  V30 13186 H 1240.26 4.21946 -1.00719 0
M  V30 13187 H 1240.93 5.51997 -0.0183074 0
M  V30 13188 H 1243.41 3.99585 1.16064 0
M  V30 13189 H 1242.28 5.12998 1.95254 0
M  V30 13190 H 1242.54 3.53897 2.64971 0
M  V30 13191 N 1241.6 -0.0451101 1.57535 0
M  V30 13192 C 1242.83 -0.755068 1.93167 0
M  V30 13193 C 1243.25 -1.68949 0.826915 0
M  V30 13194 O 1242.61 -1.79978 -0.218534 0
M  V30 13195 C 1242.66 -1.50201 3.27829 0
M  V30 13196 O 1241.76 -2.61434 3.18945 0
M  V30 13197 H 1241.11 -0.204219 0.631815 0
M  V30 13198 H 1243.64 -0.00537504 2.04599 0
M  V30 13199 H 1243.65 -1.87547 3.6234 0
M  V30 13200 H 1242.32 -0.816591 4.07805 0
M  V30 13201 H 1240.9 -2.26749 2.96039 0
M  V30 13202 N 1243.08 -1.54377 -0.317073 0
M  V30 13203 C 1244.05 -1.83488 -1.37349 0
M  V30 13204 C 1245.05 -0.706981 -1.44424 0
M  V30 13205 O 1246.24 -0.975289 -1.44339 0
M  V30 13206 C 1243.37 -2.00074 -2.76013 0
M  V30 13207 H 1244.56 -2.77883 -1.12789 0
M  V30 13208 H 1242.11 -1.46194 -0.552902 0
M  V30 13209 H 1242.85 -1.07913 -3.05819 0
M  V30 13210 H 1242.63 -2.82155 -2.7227 0
M  V30 13211 H 1244.12 -2.24022 -3.52426 0
M  V30 13212 N 1244.56 0.579466 -1.4656 0
M  V30 13213 C 1245.98 0.903163 -1.31587 0
M  V30 13214 C 1246.18 1.99406 -0.28972 0
M  V30 13215 O 1245.23 2.50632 0.30658 0
M  V30 13216 C 1246.55 1.31745 -2.70303 0
M  V30 13217 C 1248.09 1.43012 -2.78418 0
M  V30 13218 C 1248.57 1.87805 -4.17724 0
M  V30 13219 N 1250.06 1.94993 -4.20157 0
M  V30 13220 C 1250.79 2.30934 -5.2484 0
M  V30 13221 N 1250.29 2.65645 -6.39847 0
M  V30 13222 N 1252.08 2.31517 -5.12207 0
M  V30 13223 H 1244.23 -0.141111 -2.11931 0
M  V30 13224 H 1246.5 -0.000460304 -0.948 0
M  V30 13225 H 1246.2 0.589864 -3.46718 0
M  V30 13226 H 1246.08 2.2783 -3.00622 0
M  V30 13227 H 1248.46 2.14856 -2.02289 0
M  V30 13228 H 1248.55 0.451701 -2.5178 0
M  V30 13229 H 1248.19 1.16539 -4.94349 0
M  V30 13230 H 1248.12 2.86611 -4.41771 0
M  V30 13231 H 1250.61 1.70645 -3.37178 0
M  V30 13232 H 1250.92 2.92032 -7.15498 0
M  V30 13233 H 1249.27 2.63276 -6.43204 0
M  V30 13234 H 1252.46 2.03824 -4.21394 0
M  V30 13235 H 1252.63 2.59199 -5.93902 0
M  V30 13236 N 1246.04 1.3432 0.824371 0
M  V30 13237 C 1247.27 1.29669 1.61226 0
M  V30 13238 C 1247.68 -0.129532 1.88355 0
M  V30 13239 O 1247.04 -1.07616 1.47394 0
M  V30 13240 C 1247.09 2.08375 2.95402 0
M  V30 13241 O 1246.81 3.45434 2.69456 0
M  V30 13242 C 1248.31 2.11103 3.89808 0
M  V30 13243 H 1245.53 0.446137 0.501201 0
M  V30 13244 H 1248.08 1.76912 1.02579 0
M  V30 13245 H 1246.23 1.64777 3.5061 0
M  V30 13246 H 1246.64 3.86101 3.55001 0
M  V30 13247 H 1248.12 2.706 4.81124 0
M  V30 13248 H 1248.6 1.10505 4.25071 0
M  V30 13249 H 1249.2 2.54784 3.40537 0
M  V30 13250 N 1247.52 -1.0444 1.18026 0
M  V30 13251 C 1248.45 -2.11888 0.847277 0
M  V30 13252 C 1249.43 -1.61496 -0.189171 0
M  V30 13253 O 1250.61 -1.88374 -0.0689859 0
M  V30 13254 C 1247.74 -3.3766 0.26525 0
M  V30 13255 C 1246.78 -4.06893 1.27829 0
M  V30 13256 S 1247.62 -4.54445 2.83267 0
M  V30 13257 C 1248.77 -5.83454 2.26565 0
M  V30 13258 H 1249.01 -2.39806 1.75727 0
M  V30 13259 H 1246.54 -1.17152 1.00572 0
M  V30 13260 H 1248.5 -4.1045 -0.0640578 0
M  V30 13261 H 1247.16 -3.07864 -0.622806 0
M  V30 13262 H 1246.35 -4.97287 0.819849 0
M  V30 13263 H 1245.95 -3.40203 1.55364 0
M  V30 13264 H 1248.25 -6.57203 1.64591 0
M  V30 13265 H 1249.19 -6.34056 3.15244 0
M  V30 13266 H 1249.6 -5.3838 1.69728 0
M  V30 13267 N 1248.99 -0.981699 -1.2329 0
M  V30 13268 C 1250.41 -0.688087 -1.73558 0
M  V30 13269 C 1250.76 0.795633 -1.79344 0
M  V30 13270 O 1249.88 1.62227 -1.43218 0
M  V30 13271 C 1250.48 -1.24235 -3.152 0
M  V30 13272 C 1249.04 -0.998356 -3.62918 0
M  V30 13273 C 1248.18 -1.3693 -2.41134 0
M  V30 13274 H 1251.13 -1.15539 -1.08795 0
M  V30 13275 H 1251.15 -0.61541 -3.7549 0
M  V30 13276 H 1250.67 -2.32223 -3.10957 0
M  V30 13277 H 1248.77 0.0653847 -3.72543 0
M  V30 13278 H 1248.88 -1.65385 -4.49649 0
M  V30 13279 H 1247.24 -0.787773 -2.42211 0
M  V30 13280 H 1248.03 -2.45898 -2.39561 0
M  V30 13281 N 1250.47 1.3842 -0.753509 0
M  V30 13282 C 1251.38 2.34252 -0.127811 0
M  V30 13283 C 1252.4 1.59266 0.700743 0
M  V30 13284 O 1253.57 1.9146 0.624914 0
M  V30 13285 C 1250.64 3.38382 0.754886 0
M  V30 13286 C 1249.7 4.2921 -0.0880312 0
M  V30 13287 C 1248.93 5.28367 0.75263 0
M  V30 13288 O 1249.16 5.34537 1.99064 0
M  V30 13289 O 1248.09 6.01656 0.171475 0
M  V30 13290 H 1251.92 2.89454 -0.91925 0
M  V30 13291 H 1249.5 1.40265 -0.514404 0
M  V30 13292 H 1251.38 4.02141 1.25938 0
M  V30 13293 H 1250.06 2.85536 1.52482 0
M  V30 13294 H 1248.97 3.68611 -0.638468 0
M  V30 13295 H 1250.3 4.85311 -0.82062 0
M  V30 13296 N 1251.95 0.502579 1.49372 0
M  V30 13297 C 1252.91 -0.263993 2.27675 0
M  V30 13298 C 1253.91 -0.892538 1.33755 0
M  V30 13299 O 1255.1 -0.756826 1.56901 0
M  V30 13300 C 1252.24 -1.37895 3.11765 0
M  V30 13301 H 1253.43 0.423132 2.969 0
M  V30 13302 H 1250.98 0.257595 1.54163 0
M  V30 13303 H 1251.72 -2.10018 2.47109 0
M  V30 13304 H 1251.5 -0.933694 3.80821 0
M  V30 13305 H 1252.99 -1.91889 3.70902 0
M  V30 13306 N 1253.43 -1.55816 0.23648 0
M  V30 13307 C 1254.38 -2.20938 -0.66745 0
M  V30 13308 C 1255.35 -1.16982 -1.17917 0
M  V30 13309 O 1256.53 -1.45392 -1.23555 0
M  V30 13310 C 1253.67 -2.90469 -1.86337 0
M  V30 13311 C 1252.78 -4.09056 -1.38915 0
M  V30 13312 C 1251.92 -4.6633 -2.54382 0
M  V30 13313 C 1250.96 -5.77187 -2.0377 0
M  V30 13314 N 1250.09 -6.28688 -3.12564 0
M  V30 13315 H 1254.93 -2.97814 -0.105411 0
M  V30 13316 H 1252.47 -1.47045 -0.0402712 0
M  V30 13317 H 1254.43 -3.28975 -2.56576 0
M  V30 13318 H 1253.06 -2.16086 -2.39806 0
M  V30 13319 H 1252.11 -3.75934 -0.581173 0
M  V30 13320 H 1253.42 -4.89115 -0.978152 0
M  V30 13321 H 1252.58 -5.07355 -3.32679 0
M  V30 13322 H 1251.32 -3.85464 -2.98778 0
M  V30 13323 H 1250.32 -5.35648 -1.23939 0
M  V30 13324 H 1251.55 -6.59896 -1.60355 0
M  V30 13325 H 1249.49 -5.50731 -3.56414 0
M  V30 13326 H 1249.41 -7.03911 -2.75762 0
M  V30 13327 H 1250.68 -6.74371 -3.90952 0
M  V30 13328 N 1254.91 0.036755 -1.57557 0
M  V30 13329 C 1255.87 1.02435 -2.05036 0
M  V30 13330 C 1256.87 1.29506 -0.953146 0
M  V30 13331 O 1258.06 1.24638 -1.217 0
M  V30 13332 C 1255.19 2.3592 -2.46079 0
M  V30 13333 H 1256.38 0.614384 -2.93539 0
M  V30 13334 H 1253.94 0.283396 -1.53709 0
M  V30 13335 H 1254.67 2.8168 -1.60708 0
M  V30 13336 H 1254.46 2.17603 -3.26177 0
M  V30 13337 H 1255.95 3.06839 -2.83266 0
M  V30 13338 N 1256.39 1.54543 0.308881 0
M  V30 13339 C 1257.66 1.64118 1.06418 0
M  V30 13340 C 1258.04 0.484402 2.05467 0
M  V30 13341 O 1257.39 -0.519752 2.2251 0
M  V30 13342 C 1257.6 3.01776 1.75306 0
M  V30 13343 C 1258.95 3.58324 2.27792 0
M  V30 13344 O 1259.97 3.04177 1.85351 0
M  V30 13345 O 1258.83 4.53113 3.05533 0
M  V30 13346 H 1255.93 0.665172 0.491401 0
M  V30 13347 H 1258.47 1.66889 0.307598 0
M  V30 13348 H 1257.24 3.77407 1.03341 0
M  V30 13349 H 1256.87 3.02748 2.57739 0
M  V30 13350 N 1257.86 -0.571685 1.46866 0
M  V30 13351 C 1259.14 -1.33216 1.43223 0
M  V30 13352 C 1259.52 -2.1075 0.121495 0
M  V30 13353 O 1258.87 -2.10157 -0.897003 0
M  V30 13354 C 1259.08 -2.24888 2.66882 0
M  V30 13355 C 1260.43 -2.86369 3.13493 0
M  V30 13356 O 1261.45 -2.35197 2.67509 0
M  V30 13357 O 1260.31 -3.79342 3.93398 0
M  V30 13358 H 1257.4 -0.599106 0.570089 0
M  V30 13359 H 1259.95 -0.591788 1.59047 0
M  V30 13360 H 1258.72 -1.67099 3.53827 0
M  V30 13361 H 1258.34 -3.06246 2.53573 0
M  V30 13362 N 1259.34 -1.34755 -0.817236 0
M  V30 13363 C 1260.59 -1.26771 -1.56882 0
M  V30 13364 C 1260.9 0.158962 -1.94953 0
M  V30 13365 O 1262.11 0.360996 -2.69089 0
M  V30 13366 C 1260.57 -2.22261 -2.83069 0
M  V30 13367 C 1260.17 -3.70216 -2.52277 0
M  V30 13368 C 1261.92 -2.23197 -3.61086 0
M  V30 13369 C 1259.82 -4.57559 -3.74691 0
M  V30 13370 H 1258.75 -0.470961 -0.588822 0
M  V30 13371 H 1261.41 -1.59955 -0.899254 0
M  V30 13372 H 1259.79 -1.82036 -3.5168 0
M  V30 13373 H 1260.96 -4.19014 -1.9174 0
M  V30 13374 H 1259.28 -3.71784 -1.87525 0
M  V30 13375 H 1261.87 -2.85673 -4.5199 0
M  V30 13376 H 1262.22 -1.2328 -3.97628 0
M  V30 13377 H 1262.75 -2.61897 -2.99424 0
M  V30 13378 H 1259.49 -5.58434 -3.43267 0
M  V30 13379 H 1259.01 -4.13494 -4.34491 0
M  V30 13380 H 1260.69 -4.72451 -4.42039 0
M  V30 13381 N 1260.82 1.03812 -1.18578 0
M  V30 13382 C 1262.07 1.77319 -0.984173 0
M  V30 13383 C 1262.4 1.88052 0.484789 0
M  V30 13384 O 1261.67 1.3905 1.35998 0
M  V30 13385 C 1261.96 3.20448 -1.6427 0
M  V30 13386 C 1261.81 3.17643 -3.1847 0
M  V30 13387 C 1263.13 4.18623 -1.35805 0
M  V30 13388 H 1260.25 0.643681 -0.358949 0
M  V30 13389 H 1262.89 1.21249 -1.46283 0
M  V30 13390 H 1261.04 3.68324 -1.23572 0
M  V30 13391 H 1262.71 2.77738 -3.6832 0
M  V30 13392 H 1260.95 2.55606 -3.50497 0
M  V30 13393 H 1261.63 4.18724 -3.59686 0
M  V30 13394 H 1264.1 3.79306 -1.71073 0
M  V30 13395 H 1262.98 5.16982 -1.84446 0
M  V30 13396 H 1263.24 4.41203 -0.281418 0
M  V30 13397 N 1262.3 0.988223 1.22768 0
M  V30 13398 C 1263.55 0.660154 1.91014 0
M  V30 13399 C 1263.87 -0.809788 1.77391 0
M  V30 13400 O 1263.14 -1.57998 1.15817 0
M  V30 13401 H 1261.72 0.24118 0.706995 0
M  V30 13402 H 1264.38 1.25372 1.49224 0
M  V30 13403 H 1263.47 0.918603 2.98275 0
M  V30 13404 N 1263.78 -1.38018 0.760839 0
M  V30 13405 C 1265.19 -1.82645 0.387022 0
M  V30 13406 C 1265.54 -1.63445 -1.08536 0
M  V30 13407 O 1264.66 -1.13958 -1.83963 0
M  V30 13408 C 1265.26 -3.3158 0.69569 0
M  V30 13409 C 1263.82 -3.74527 0.375063 0
M  V30 13410 C 1262.96 -2.60696 0.94515 0
M  V30 13411 H 1265.91 -1.26644 0.956396 0
M  V30 13412 H 1265.94 -3.80493 -0.0235511 0
M  V30 13413 H 1265.45 -3.45522 1.76737 0
M  V30 13414 H 1263.55 -3.6616 -0.689741 0
M  V30 13415 H 1263.66 -4.71029 0.875685 0
M  V30 13416 H 1262.03 -2.51997 0.370065 0
M  V30 13417 H 1262.81 -2.77434 2.02201 0
M  V30 13418 N 1265.25 -0.510493 -1.49103 0
M  V30 13419 C 1266.5 0.030689 -2.02777 0
M  V30 13420 C 1266.83 1.35765 -1.38858 0
M  V30 13421 O 1266.11 1.87209 -0.527528 0
M  V30 13422 C 1266.39 0.173261 -3.59683 0
M  V30 13423 C 1266.24 -1.17749 -4.34114 0
M  V30 13424 C 1267.56 0.909395 -4.30602 0
M  V30 13425 H 1264.68 0.0096789 -0.736936 0
M  V30 13426 H 1267.32 -0.663746 -1.78029 0
M  V30 13427 H 1265.47 0.764721 -3.80899 0
M  V30 13428 H 1267.15 -1.80856 -4.24369 0
M  V30 13429 H 1265.39 -1.76438 -3.96298 0
M  V30 13430 H 1266.06 -1.03094 -5.42287 0
M  V30 13431 H 1268.54 0.407677 -4.14098 0
M  V30 13432 H 1267.41 0.978012 -5.40117 0
M  V30 13433 H 1267.67 1.9553 -3.96511 0
M  V30 13434 N 1266.73 1.55688 -0.24474 0
M  V30 13435 C 1267.96 2.0329 0.384808 0
M  V30 13436 C 1268.37 1.12405 1.51692 0
M  V30 13437 O 1267.73 0.138056 1.81977 0
M  V30 13438 C 1267.78 3.50255 0.894635 0
M  V30 13439 O 1267.5 4.37677 -0.192365 0
M  V30 13440 C 1269 4.13608 1.59509 0
M  V30 13441 H 1266.22 0.664706 0.0916908 0
M  V30 13442 H 1268.77 2.01162 -0.367973 0
M  V30 13443 H 1266.92 3.52924 1.5976 0
M  V30 13444 H 1267.34 5.2414 0.194424 0
M  V30 13445 H 1268.81 5.1814 1.90356 0
M  V30 13446 H 1269.29 3.5997 2.51631 0
M  V30 13447 H 1269.89 4.14856 0.936749 0
M  V30 13448 N 1268.21 -0.0283989 1.57574 0
M  V30 13449 C 1269.16 -1.03669 2.03069 0
M  V30 13450 C 1270.14 -1.31994 0.920129 0
M  V30 13451 O 1271.34 -1.31568 1.18402 0
M  V30 13452 C 1268.46 -2.3376 2.51418 0
M  V30 13453 C 1267.55 -2.08522 3.69296 0
M  V30 13454 N 1267.94 -1.53345 4.81995 0
M  V30 13455 C 1266.24 -2.38803 3.76682 0
M  V30 13456 C 1266.94 -1.43926 5.63613 0
M  V30 13457 N 1265.92 -1.91507 5.0875 0
M  V30 13458 H 1269.72 -0.604097 2.87625 0
M  V30 13459 H 1267.23 -0.234689 1.60695 0
M  V30 13460 H 1269.23 -3.06804 2.82271 0
M  V30 13461 H 1267.89 -2.77698 1.68268 0
M  V30 13462 H 1268.9 -1.21607 5.0342 0
M  V30 13463 H 1265.58 -2.8581 3.04333 0
M  V30 13464 H 1266.97 -1.0175 6.64151 0
M  V30 13465 N 1269.69 -1.54705 -0.300681 0
M  V30 13466 C 1270.6 -1.88736 -1.39341 0
M  V30 13467 C 1271.61 -0.78155 -1.5546 0
M  V30 13468 O 1272.79 -1.07804 -1.70118 0
M  V30 13469 C 1269.85 -2.12795 -2.73713 0
M  V30 13470 C 1268.92 -3.36504 -2.66577 0
M  V30 13471 C 1268.15 -3.59407 -3.94541 0
M  V30 13472 O 1268.37 -2.85315 -4.93914 0
M  V30 13473 O 1267.31 -4.52923 -3.96415 0
M  V30 13474 H 1271.13 -2.817 -1.13484 0
M  V30 13475 H 1268.72 -1.40899 -0.496771 0
M  V30 13476 H 1270.6 -2.29819 -3.53215 0
M  V30 13477 H 1269.27 -1.23017 -2.99414 0
M  V30 13478 H 1268.18 -3.24844 -1.85546 0
M  V30 13479 H 1269.51 -4.26414 -2.45829 0
M  V30 13480 N 1271.17 0.563888 -1.47167 0
M  V30 13481 C 1272.42 1.31766 -1.5271 0
M  V30 13482 C 1272.73 1.94664 -0.191164 0
M  V30 13483 O 1273.93 2.71214 -0.124543 0
M  V30 13484 C 1272.39 2.38907 -2.69168 0
M  V30 13485 C 1272 1.8223 -4.09263 0
M  V30 13486 C 1273.74 3.15508 -2.83999 0
M  V30 13487 C 1271.65 2.87111 -5.17031 0
M  V30 13488 H 1270.58 0.495421 -0.568396 0
M  V30 13489 H 1273.23 0.599665 -1.73425 0
M  V30 13490 H 1271.61 3.13591 -2.4182 0
M  V30 13491 H 1272.79 1.13963 -4.46485 0
M  V30 13492 H 1271.1 1.18235 -3.99261 0
M  V30 13493 H 1273.7 3.93816 -3.61681 0
M  V30 13494 H 1274.04 3.69277 -1.92197 0
M  V30 13495 H 1274.57 2.47934 -3.11085 0
M  V30 13496 H 1271.31 2.38204 -6.10687 0
M  V30 13497 H 1270.83 3.53809 -4.84334 0
M  V30 13498 H 1272.51 3.50724 -5.43692 0
M  V30 13499 N 1272.64 1.35187 0.810078 0
M  V30 13500 C 1273.89 1.28264 1.56699 0
M  V30 13501 C 1274.22 -0.143906 1.93967 0
M  V30 13502 O 1273.47 -1.10832 1.61291 0
M  V30 13503 C 1273.77 2.13135 2.86894 0
M  V30 13504 C 1273.44 3.61974 2.6886 0
M  V30 13505 C 1272.1 4.02545 2.63649 0
M  V30 13506 C 1274.45 4.5643 2.51636 0
M  V30 13507 C 1271.78 5.35745 2.39154 0
M  V30 13508 C 1274.13 5.89824 2.2867 0
M  V30 13509 C 1272.8 6.29544 2.2188 0
M  V30 13510 H 1272.07 0.469353 0.573401 0
M  V30 13511 H 1274.71 1.67051 0.936282 0
M  V30 13512 H 1273.02 1.67218 3.54324 0
M  V30 13513 H 1274.72 2.05117 3.44569 0
M  V30 13514 H 1271.31 3.29777 2.73761 0
M  V30 13515 H 1275.49 4.25974 2.54677 0
M  V30 13516 H 1270.75 5.65524 2.32363 0
M  V30 13517 H 1274.92 6.62597 2.14333 0
M  V30 13518 H 1272.55 7.32689 2.0266 0
M  V30 13519 N 1274.12 -1.03182 1.19127 0
M  V30 13520 C 1275.03 -2.14875 0.94159 0
M  V30 13521 C 1276.05 -1.73727 -0.0973872 0
M  V30 13522 O 1277.22 -2.01214 0.0865775 0
M  V30 13523 C 1274.29 -3.43356 0.480366 0
M  V30 13524 C 1273.35 -3.98835 1.58838 0
M  V30 13525 C 1272.58 -5.21183 1.14907 0
M  V30 13526 O 1272.81 -5.70399 0.0114141 0
M  V30 13527 O 1271.74 -5.69423 1.95042 0
M  V30 13528 H 1275.57 -2.38799 1.8764 0
M  V30 13529 H 1273.15 -1.13299 0.973841 0
M  V30 13530 H 1275.03 -4.20763 0.231658 0
M  V30 13531 H 1273.71 -3.20884 -0.426041 0
M  V30 13532 H 1272.62 -3.22776 1.8912 0
M  V30 13533 H 1273.95 -4.25665 2.47123 0
M  V30 13534 N 1275.6 -0.99472 -1.22242 0
M  V30 13535 C 1276.55 -0.53946 -2.26258 0
M  V30 13536 C 1277.54 0.410796 -1.64344 0
M  V30 13537 O 1278.75 0.283116 -1.7776 0
M  V30 13538 H 1275.12 -0.156069 -0.735627 0
M  V30 13539 H 1277.09 -1.42814 -2.62005 0
M  V30 13540 C 1275.84 0.12842 -3.47463 0
M  V30 13541 H 1275.17 -0.593727 -3.95367 0
M  V30 13542 H 1276.61 0.410393 -4.22009 0
M  V30 13543 C 1275.07 1.36433 -3.08038 0
M  V30 13544 O 1275.6 2.45953 -3.176 0
M  V30 13545 N 1273.8 1.24026 -2.62804 0
M  V30 13546 H 1273.35 0.349111 -2.55223 0
M  V30 13547 H 1273.31 2.06824 -2.36794 0
M  V30 13548 N 1277.08 1.37613 -0.768148 0
M  V30 13549 C 1278.03 2.3218 -0.13974 0
M  V30 13550 C 1279.02 1.54754 0.689023 0
M  V30 13551 O 1280.23 1.70177 0.586489 0
M  V30 13552 H 1276.6 0.751536 -0.0264001 0
M  V30 13553 H 1278.57 2.82768 -0.953139 0
M  V30 13554 C 1277.32 3.39997 0.727829 0
M  V30 13555 H 1276.64 3.99676 0.0994851 0
M  V30 13556 H 1278.08 4.08538 1.13456 0
M  V30 13557 C 1276.54 2.79778 1.87686 0
M  V30 13558 O 1277.07 2.70241 2.97208 0
M  V30 13559 N 1275.28 2.37373 1.67637 0
M  V30 13560 H 1274.83 2.4533 0.785552 0
M  V30 13561 H 1274.78 1.97426 2.44684 0
M  V30 13562 N 1278.56 0.518393 1.4883 0
M  V30 13563 C 1279.8 -0.0199348 2.0279 0
M  V30 13564 C 1280.14 -1.35026 1.39576 0
M  V30 13565 O 1279.41 -1.86927 0.537449 0
M  V30 13566 C 1279.69 -0.154184 3.5977 0
M  V30 13567 C 1279.55 1.2005 4.33484 0
M  V30 13568 C 1280.87 -0.886547 4.31078 0
M  V30 13569 H 1277.98 -0.00577061 0.736977 0
M  V30 13570 H 1280.63 0.673178 1.77675 0
M  V30 13571 H 1278.78 -0.74451 3.81299 0
M  V30 13572 H 1280.45 1.83104 4.23404 0
M  V30 13573 H 1278.69 1.78537 3.95357 0
M  V30 13574 H 1279.36 1.05968 5.41733 0
M  V30 13575 H 1281.84 -0.385711 4.14308 0
M  V30 13576 H 1280.71 -0.949355 5.40628 0
M  V30 13577 H 1280.98 -1.93424 3.97542 0
M  V30 13578 N 1280.03 -1.55556 0.252993 0
M  V30 13579 C 1281.28 -1.99385 -0.370599 0
M  V30 13580 C 1281.61 -1.14101 -1.57145 0
M  V30 13581 O 1280.89 -0.205828 -1.93408 0
M  V30 13582 C 1281.17 -3.51672 -0.774503 0
M  V30 13583 C 1281.02 -4.47719 0.432159 0
M  V30 13584 C 1282.34 -4.0923 -1.61923 0
M  V30 13585 H 1279.46 -0.724858 -0.133231 0
M  V30 13586 H 1282.1 -1.86644 0.355522 0
M  V30 13587 H 1280.25 -3.62661 -1.39318 0
M  V30 13588 H 1281.93 -4.48704 1.07063 0
M  V30 13589 H 1280.17 -4.2029 1.07419 0
M  V30 13590 H 1280.84 -5.51898 0.106123 0
M  V30 13591 H 1283.32 -4.01381 -1.09693 0
M  V30 13592 H 1282.19 -5.16039 -1.87068 0
M  V30 13593 H 1282.45 -3.58067 -2.59307 0
M  V30 13594 N 1281.51 0.0200419 -1.57587 0
M  V30 13595 C 1282.46 1.0259 -2.03615 0
M  V30 13596 C 1283.45 1.31504 -0.927116 0
M  V30 13597 O 1284.64 1.30938 -1.19098 0
M  V30 13598 C 1281.77 2.32424 -2.52654 0
M  V30 13599 C 1280.85 2.06561 -3.70396 0
M  V30 13600 N 1281.24 1.50787 -4.82801 0
M  V30 13601 C 1279.54 2.36802 -3.77943 0
M  V30 13602 C 1280.24 1.40935 -5.64369 0
M  V30 13603 N 1279.22 1.88806 -5.09758 0
M  V30 13604 H 1283.02 0.588835 -2.87941 0
M  V30 13605 H 1280.54 0.226163 -1.60817 0
M  V30 13606 H 1282.53 3.05303 -2.83894 0
M  V30 13607 H 1281.19 2.76801 -1.69738 0
M  V30 13608 H 1282.2 1.18935 -5.04058 0
M  V30 13609 H 1278.88 2.84192 -3.05845 0
M  V30 13610 H 1280.27 0.982261 -6.64681 0
M  V30 13611 N 1282.99 1.54862 0.292472 0
M  V30 13612 C 1283.92 1.89406 1.36556 0
M  V30 13613 C 1284.9 0.753838 1.52484 0
M  V30 13614 O 1286.09 1.01031 1.6585 0
M  V30 13615 C 1283.22 2.14888 2.72838 0
M  V30 13616 C 1282.17 3.3073 2.71665 0
M  V30 13617 C 1281.5 3.41648 4.11316 0
M  V30 13618 C 1282.8 4.67622 2.32651 0
M  V30 13619 H 1284.49 2.79284 1.07894 0
M  V30 13620 H 1282.04 1.34377 0.517585 0
M  V30 13621 H 1283.99 2.3764 3.48002 0
M  V30 13622 H 1282.71 1.2179 3.03042 0
M  V30 13623 H 1281.37 3.07915 1.98958 0
M  V30 13624 H 1281.02 2.46051 4.38711 0
M  V30 13625 H 1280.72 4.19522 4.11431 0
M  V30 13626 H 1282.24 3.6667 4.88248 0
M  V30 13627 H 1283.66 4.90048 2.97533 0
M  V30 13628 H 1282.06 5.48272 2.43963 0
M  V30 13629 H 1283.13 4.67762 1.27777 0
M  V30 13630 N 1284.47 -0.556076 1.47464 0
M  V30 13631 C 1285.4 -1.67872 1.54578 0
M  V30 13632 C 1286.38 -1.57658 0.397853 0
M  V30 13633 O 1287.56 -1.785 0.605811 0
M  V30 13634 C 1284.69 -3.06122 1.44937 0
M  V30 13635 C 1283.74 -3.34778 2.64246 0
M  V30 13636 S 1284.57 -3.23909 4.26431 0
M  V30 13637 C 1285.73 -4.64651 4.19345 0
M  V30 13638 H 1285.96 -1.61583 2.49556 0
M  V30 13639 H 1283.49 -0.736985 1.35676 0
M  V30 13640 H 1285.45 -3.85866 1.40062 0
M  V30 13641 H 1284.11 -3.09876 0.513412 0
M  V30 13642 H 1283.3 -4.35569 2.53567 0
M  V30 13643 H 1282.91 -2.62655 2.66248 0
M  V30 13644 H 1285.2 -5.55625 3.87669 0
M  V30 13645 H 1286.14 -4.80386 5.20225 0
M  V30 13646 H 1286.55 -4.42751 3.50189 0
M  V30 13647 N 1285.95 -1.35615 -0.802897 0
M  V30 13648 C 1287.19 -1.30293 -1.5619 0
M  V30 13649 C 1287.55 0.120656 -1.92021 0
M  V30 13650 O 1286.84 1.07195 -1.58807 0
M  V30 13651 C 1287.04 -2.14653 -2.8576 0
M  V30 13652 C 1286.86 -3.65072 -2.62589 0
M  V30 13653 C 1285.63 -4.34294 -2.58295 0
M  V30 13654 C 1287.83 -4.58639 -2.32712 0
M  V30 13655 N 1285.81 -5.70437 -2.2688 0
M  V30 13656 C 1287.19 -5.82931 -2.11168 0
M  V30 13657 C 1289.24 -4.47343 -2.18606 0
M  V30 13658 C 1287.94 -6.97196 -1.76946 0
M  V30 13659 C 1289.97 -5.61462 -1.85781 0
M  V30 13660 C 1289.33 -6.84784 -1.65075 0
M  V30 13661 H 1285.43 -0.532038 -0.573114 0
M  V30 13662 H 1288.01 -1.70533 -0.939498 0
M  V30 13663 H 1286.19 -1.76679 -3.45889 0
M  V30 13664 H 1287.92 -2.00823 -3.51358 0
M  V30 13665 H 1284.67 -3.86947 -2.73073 0
M  V30 13666 H 1285.1 -6.42302 -2.13956 0
M  V30 13667 H 1289.74 -3.52599 -2.33311 0
M  V30 13668 H 1287.46 -7.91904 -1.60979 0
M  V30 13669 H 1291.04 -5.54677 -1.7557 0
M  V30 13670 H 1289.92 -7.71594 -1.40046 0
M  V30 13671 N 1287.43 1.02549 -1.19673 0
M  V30 13672 C 1288.36 2.10991 -0.8953 0
M  V30 13673 C 1289.37 1.62405 0.113373 0
M  V30 13674 O 1290.56 1.7812 -0.116485 0
M  V30 13675 C 1287.66 3.37394 -0.319124 0
M  V30 13676 C 1286.83 4.15154 -1.37718 0
M  V30 13677 C 1285.89 5.19867 -0.81393 0
M  V30 13678 O 1284.92 5.49285 -1.49246 0
M  V30 13679 N 1286.12 5.79248 0.381089 0
M  V30 13680 H 1288.88 2.37438 -1.82875 0
M  V30 13681 H 1286.45 1.18867 -1.09919 0
M  V30 13682 H 1288.44 4.04637 0.0716106 0
M  V30 13683 H 1287.01 3.08267 0.518681 0
M  V30 13684 H 1286.23 3.4301 -1.94262 0
M  V30 13685 H 1287.52 4.63892 -2.09003 0
M  V30 13686 H 1286.91 5.5767 0.949791 0
M  V30 13687 H 1285.47 6.47882 0.713563 0
M  V30 13688 N 1288.9 1.00119 1.21713 0
M  V30 13689 C 1289.81 0.567582 2.27631 0
M  V30 13690 C 1290.83 -0.387593 1.69628 0
M  V30 13691 O 1292.01 -0.252372 1.99813 0
M  V30 13692 C 1289.07 -0.102745 3.46548 0
M  V30 13693 C 1288.13 0.896433 4.19836 0
M  V30 13694 C 1287.36 0.258 5.33076 0
M  V30 13695 O 1287.59 -0.946118 5.62499 0
M  V30 13696 O 1286.52 0.967021 5.94081 0
M  V30 13697 H 1290.35 1.44898 2.66905 0
M  V30 13698 H 1287.93 0.769862 1.28037 0
M  V30 13699 H 1289.81 -0.477846 4.18682 0
M  V30 13700 H 1288.49 -0.958576 3.09181 0
M  V30 13701 H 1287.4 1.32262 3.49939 0
M  V30 13702 H 1288.73 1.72173 4.61104 0
M  V30 13703 N 1290.38 -1.37203 0.775435 0
M  V30 13704 C 1291.79 -1.82224 0.406372 0
M  V30 13705 C 1292.14 -1.64587 -1.06796 0
M  V30 13706 O 1291.27 -1.15903 -1.82744 0
M  V30 13707 C 1291.86 -3.30824 0.730819 0
M  V30 13708 C 1290.42 -3.74108 0.414766 0
M  V30 13709 C 1289.57 -2.59679 0.972747 0
M  V30 13710 H 1292.52 -1.25623 0.969775 0
M  V30 13711 H 1292.54 -3.80496 0.0168066 0
M  V30 13712 H 1292.05 -3.43628 1.80392 0
M  V30 13713 H 1290.15 -3.66871 -0.650866 0
M  V30 13714 H 1290.27 -4.70074 0.925595 0
M  V30 13715 H 1288.63 -2.51591 0.396772 0
M  V30 13716 H 1289.41 -2.75274 2.05132 0
M  V30 13717 N 1291.86 -0.526279 -1.48553 0
M  V30 13718 C 1292.81 0.238513 -2.29564 0
M  V30 13719 C 1293.78 0.937222 -1.37133 0
M  V30 13720 O 1294.96 0.93897 -1.66096 0
M  V30 13721 C 1292.1 1.28173 -3.20415 0
M  V30 13722 C 1291.21 0.592244 -4.27921 0
M  V30 13723 C 1290.35 1.61808 -5.05956 0
M  V30 13724 C 1289.39 0.911846 -6.0527 0
M  V30 13725 N 1288.53 1.88305 -6.76377 0
M  V30 13726 H 1293.37 -0.458502 -2.94452 0
M  V30 13727 H 1290.9 -0.237948 -1.45163 0
M  V30 13728 H 1292.86 1.89883 -3.71484 0
M  V30 13729 H 1291.49 1.94718 -2.57458 0
M  V30 13730 H 1290.54 -0.138714 -3.80147 0
M  V30 13731 H 1291.85 0.0375427 -4.98786 0
M  V30 13732 H 1291.01 2.30956 -5.61021 0
M  V30 13733 H 1289.75 2.20667 -4.34922 0
M  V30 13734 H 1288.75 0.206273 -5.49413 0
M  V30 13735 H 1289.98 0.329415 -6.78301 0
M  V30 13736 H 1287.92 2.46079 -6.08096 0
M  V30 13737 H 1287.84 1.37969 -7.43304 0
M  V30 13738 H 1289.11 2.56663 -7.36033 0
M  V30 13739 N 1293.34 1.5542 -0.261239 0
M  V30 13740 C 1294.25 2.25627 0.642625 0
M  V30 13741 C 1295.26 1.27732 1.18155 0
M  V30 13742 O 1296.44 1.60639 1.21479 0
M  V30 13743 C 1293.5 2.95303 1.8165 0
M  V30 13744 C 1292.57 4.08644 1.31563 0
M  V30 13745 C 1291.8 4.74988 2.43355 0
M  V30 13746 O 1292.02 4.40474 3.62407 0
M  V30 13747 O 1290.96 5.63217 2.12299 0
M  V30 13748 H 1294.78 3.03609 0.0743091 0
M  V30 13749 H 1292.37 1.49372 -0.0291754 0
M  V30 13750 H 1294.25 3.3914 2.50125 0
M  V30 13751 H 1292.92 2.2025 2.37217 0
M  V30 13752 H 1291.83 3.69294 0.597746 0
M  V30 13753 H 1293.16 4.85558 0.805878 0
M  V30 13754 N 1294.82 -0.0116844 1.57596 0
M  V30 13755 C 1296.23 -0.55604 1.78228 0
M  V30 13756 C 1296.58 -1.74624 0.894474 0
M  V30 13757 O 1295.7 -2.16196 0.0938498 0
M  V30 13758 C 1296.3 -1.0155 3.23223 0
M  V30 13759 C 1294.86 -1.50525 3.44992 0
M  V30 13760 C 1294 -0.451133 2.73606 0
M  V30 13761 H 1296.95 0.214516 1.57243 0
M  V30 13762 H 1296.98 -1.88208 3.30693 0
M  V30 13763 H 1296.49 -0.149048 3.87814 0
M  V30 13764 H 1294.59 -2.39298 2.856 0
M  V30 13765 H 1294.7 -1.54076 4.53649 0
M  V30 13766 H 1293.07 -0.910135 2.37884 0
M  V30 13767 H 1293.85 0.406152 3.40889 0
M  V30 13768 N 1296.29 -1.55015 -0.284256 0
M  V30 13769 C 1297.24 -1.87898 -1.37102 0
M  V30 13770 C 1298.24 -0.754231 -1.51683 0
M  V30 13771 O 1299.44 -0.93844 -1.53601 0
M  V30 13772 H 1295.82 -0.596208 -0.458301 0
M  V30 13773 H 1297.79 -2.78704 -1.06613 0
M  V30 13774 C 1296.54 -2.15764 -2.72656 0
M  V30 13775 H 1295.86 -3.01792 -2.62224 0
M  V30 13776 H 1297.3 -2.42701 -3.47667 0
M  V30 13777 C 1295.76 -0.961561 -3.22886 0
M  V30 13778 O 1296.29 -0.190489 -4.01248 0
M  V30 13779 N 1294.49 -0.762338 -2.80422 0
M  V30 13780 H 1294.04 -1.39104 -2.16813 0
M  V30 13781 H 1294 0.0363482 -3.14379 0
M  V30 13782 N 1297.77 0.548248 -1.47757 0
M  V30 13783 C 1299.02 1.30243 -1.54535 0
M  V30 13784 C 1299.34 1.93832 -0.213089 0
M  V30 13785 O 1298.61 1.80397 0.763782 0
M  V30 13786 H 1297.19 0.483684 -0.569262 0
M  V30 13787 H 1299.85 0.639485 -1.8411 0
M  V30 13788 H 1298.95 2.09128 -2.31672 0
M  V30 13789 N 1299.25 1.36039 0.795694 0
M  V30 13790 C 1300.18 1.32528 1.92246 0
M  V30 13791 C 1301.16 0.197805 1.68946 0
M  V30 13792 O 1302.35 0.394474 1.90151 0
M  V30 13793 C 1299.48 1.10748 3.29169 0
M  V30 13794 C 1298.43 2.20253 3.66978 0
M  V30 13795 C 1297.76 1.83624 5.02181 0
M  V30 13796 C 1299.06 3.62296 3.76216 0
M  V30 13797 H 1300.75 2.2681 1.95442 0
M  V30 13798 H 1298.3 1.09181 0.938908 0
M  V30 13799 H 1300.25 1.06929 4.07608 0
M  V30 13800 H 1298.97 0.129141 3.26345 0
M  V30 13801 H 1297.63 2.23187 2.90832 0
M  V30 13802 H 1297.28 0.843804 4.95872 0
M  V30 13803 H 1296.98 2.56935 5.28449 0
M  V30 13804 H 1298.5 1.81349 5.83048 0
M  V30 13805 H 1299.92 3.61623 4.44861 0
M  V30 13806 H 1298.31 4.34459 4.13963 0
M  V30 13807 H 1299.38 3.97657 2.77483 0
M  V30 13808 N 1300.73 -1.01913 1.20215 0
M  V30 13809 C 1301.98 -1.74878 1.00502 0
M  V30 13810 C 1302.29 -1.90022 -0.463792 0
M  V30 13811 O 1303.5 -2.60055 -0.779982 0
M  V30 13812 C 1301.95 -3.1452 1.74943 0
M  V30 13813 C 1301.56 -3.07397 3.259 0
M  V30 13814 C 1303.3 -3.91713 1.63589 0
M  V30 13815 C 1301.21 -4.42032 3.92889 0
M  V30 13816 H 1300.14 -0.655603 0.372426 0
M  V30 13817 H 1302.79 -1.13978 1.4381 0
M  V30 13818 H 1301.17 -3.75946 1.24421 0
M  V30 13819 H 1302.35 -2.55294 3.83617 0
M  V30 13820 H 1300.66 -2.43698 3.37639 0
M  V30 13821 H 1303.26 -4.91316 2.1098 0
M  V30 13822 H 1303.6 -4.12074 0.591665 0
M  V30 13823 H 1304.14 -3.3691 2.11511 0
M  V30 13824 H 1300.88 -4.26874 4.97453 0
M  V30 13825 H 1300.4 -4.94151 3.39962 0
M  V30 13826 H 1302.07 -5.10884 3.96997 0
M  V30 13827 N 1302.21 -1.00763 -1.2118 0
M  V30 13828 C 1303.45 -0.692851 -1.90598 0
M  V30 13829 C 1303.79 0.774698 -1.78079 0
M  V30 13830 O 1303.06 1.56186 -1.15914 0
M  V30 13831 C 1303.34 -1.11792 -3.42308 0
M  V30 13832 C 1303.2 -2.64511 -3.63805 0
M  V30 13833 C 1304.52 -0.682314 -4.34779 0
M  V30 13834 H 1301.63 -0.253175 -0.69215 0
M  V30 13835 H 1304.28 -1.25378 -1.4276 0
M  V30 13836 H 1302.43 -0.640665 -3.83181 0
M  V30 13837 H 1304.1 -3.20021 -3.32242 0
M  V30 13838 H 1302.34 -3.05903 -3.0758 0
M  V30 13839 H 1303.01 -2.89306 -4.70113 0
M  V30 13840 H 1305.49 -1.09247 -4.01503 0
M  V30 13841 H 1304.36 -1.00787 -5.39568 0
M  V30 13842 H 1304.63 0.416441 -4.40134 0
M  V30 13843 N 1303.68 1.3679 -0.7827 0
M  V30 13844 C 1304.61 2.32721 -0.190604 0
M  V30 13845 C 1305.6 1.56321 0.670663 0
M  V30 13846 O 1306.78 1.84507 0.605871 0
M  V30 13847 C 1303.91 3.40564 0.680717 0
M  V30 13848 C 1302.86 4.27925 -0.080118 0
M  V30 13849 C 1302.19 5.26876 0.911361 0
M  V30 13850 C 1303.49 5.06738 -1.26545 0
M  V30 13851 H 1305.18 2.82488 -0.992023 0
M  V30 13852 H 1302.73 1.35818 -0.478484 0
M  V30 13853 H 1304.68 4.06659 1.10482 0
M  V30 13854 H 1303.41 2.89348 1.51477 0
M  V30 13855 H 1302.07 3.63376 -0.485125 0
M  V30 13856 H 1301.71 4.71936 1.74026 0
M  V30 13857 H 1301.41 5.8619 0.406762 0
M  V30 13858 H 1302.94 5.95846 1.33418 0
M  V30 13859 H 1304.35 5.65911 -0.917448 0
M  V30 13860 H 1302.75 5.75432 -1.70289 0
M  V30 13861 H 1303.82 4.38772 -2.06415 0
M  V30 13862 N 1305.16 0.53415 1.48272 0
M  V30 13863 C 1306.39 0.00573642 2.06599 0
M  V30 13864 C 1306.8 -1.28303 1.3905 0
M  V30 13865 O 1306.14 -1.77499 0.473274 0
M  V30 13866 C 1306.21 -0.28451 3.58372 0
M  V30 13867 C 1305.87 0.911397 4.4782 0
M  V30 13868 C 1306.87 1.81091 4.87342 0
M  V30 13869 C 1304.55 1.11957 4.89664 0
M  V30 13870 C 1306.55 2.90246 5.67482 0
M  V30 13871 C 1304.23 2.21426 5.69573 0
M  V30 13872 C 1305.23 3.10403 6.08391 0
M  V30 13873 O 1304.92 4.17977 6.86695 0
M  V30 13874 H 1304.65 0.0322847 0.675229 0
M  V30 13875 H 1307.2 0.740415 1.91591 0
M  V30 13876 H 1305.43 -1.07321 3.71509 0
M  V30 13877 H 1307.12 -0.755508 3.98807 0
M  V30 13878 H 1307.89 1.66204 4.55633 0
M  V30 13879 H 1303.77 0.436266 4.58931 0
M  V30 13880 H 1307.31 3.59724 5.97699 0
M  V30 13881 H 1303.21 2.36295 6.00695 0
M  V30 13882 H 1303.98 4.15738 7.05056 0
M  V30 13883 N 1306.64 -1.55279 0.269478 0
M  V30 13884 C 1307.55 -2.25965 -0.63065 0
M  V30 13885 C 1308.57 -1.28357 -1.17476 0
M  V30 13886 O 1309.74 -1.61281 -1.20625 0
M  V30 13887 C 1306.81 -2.96263 -1.80081 0
M  V30 13888 C 1305.87 -4.09336 -1.29394 0
M  V30 13889 C 1305.1 -4.76272 -2.40833 0
M  V30 13890 O 1305.32 -4.42389 -3.60066 0
M  V30 13891 O 1304.26 -5.64334 -2.09309 0
M  V30 13892 H 1308.08 -3.03644 -0.0582069 0
M  V30 13893 H 1305.67 -1.49354 0.0370966 0
M  V30 13894 H 1307.55 -3.40461 -2.48322 0
M  V30 13895 H 1306.23 -2.21505 -2.36045 0
M  V30 13896 H 1305.13 -3.69605 -0.578154 0
M  V30 13897 H 1306.47 -4.85978 -0.780117 0
M  V30 13898 N 1308.12 0.00332656 -1.576 0
M  V30 13899 C 1309.36 0.68989 -1.90705 0
M  V30 13900 C 1309.7 1.73608 -0.870291 0
M  V30 13901 O 1308.97 1.94181 0.111416 0
M  V30 13902 C 1309.26 1.33605 -3.34397 0
M  V30 13903 C 1309.11 0.301638 -4.48787 0
M  V30 13904 C 1310.43 2.26313 -3.77453 0
M  V30 13905 H 1307.55 0.249328 -0.693545 0
M  V30 13906 H 1310.19 -0.0472847 -1.89941 0
M  V30 13907 H 1308.34 1.96437 -3.35179 0
M  V30 13908 H 1310.01 -0.326738 -4.60141 0
M  V30 13909 H 1308.25 -0.376451 -4.32163 0
M  V30 13910 H 1308.92 0.792741 -5.46278 0
M  V30 13911 H 1311.4 1.73502 -3.78201 0
M  V30 13912 H 1310.28 2.68492 -4.78752 0
M  V30 13913 H 1310.54 3.14082 -3.11135 0
M  V30 13914 N 1309.6 1.55164 0.276031 0
M  V30 13915 C 1310.82 1.7998 1.03063 0
M  V30 13916 C 1311.25 0.569769 1.79263 0
M  V30 13917 O 1310.6 -0.48054 1.74816 0
M  V30 13918 C 1310.65 3.02209 1.96728 0
M  V30 13919 O 1309.76 2.77083 3.05449 0
M  V30 13920 H 1309.1 0.594963 0.294814 0
M  V30 13921 H 1311.63 2.02301 0.305861 0
M  V30 13922 H 1311.64 3.3086 2.38738 0
M  V30 13923 H 1310.31 3.91386 1.40677 0
M  V30 13924 H 1308.89 2.5952 2.67776 0
M  V30 13925 N 1311.07 -0.540404 1.48045 0
M  V30 13926 C 1312.3 -1.31986 1.58944 0
M  V30 13927 C 1312.71 -1.87608 0.244889 0
M  V30 13928 O 1312.06 -1.66576 -0.774467 0
M  V30 13929 C 1312.12 -2.51547 2.56835 0
M  V30 13930 C 1311.78 -2.17089 4.02146 0
M  V30 13931 C 1312.78 -1.73379 4.90138 0
M  V30 13932 C 1310.46 -2.27932 4.47607 0
M  V30 13933 C 1312.46 -1.40964 6.21617 0
M  V30 13934 C 1310.14 -1.95129 5.7911 0
M  V30 13935 C 1311.14 -1.51715 6.65937 0
M  V30 13936 O 1310.83 -1.19337 7.94993 0
M  V30 13937 H 1310.56 -0.408028 0.538971 0
M  V30 13938 H 1313.12 -0.659748 1.94516 0
M  V30 13939 H 1311.35 -3.20505 2.16364 0
M  V30 13940 H 1313.04 -3.13617 2.57681 0
M  V30 13941 H 1313.8 -1.64481 4.56258 0
M  V30 13942 H 1309.68 -2.6068 3.8022 0
M  V30 13943 H 1313.22 -1.07005 6.89344 0
M  V30 13944 H 1309.12 -2.03664 6.12528 0
M  V30 13945 H 1309.89 -1.32824 8.07651 0
M  V30 13946 N 1312.55 -1.36459 -0.788468 0
M  V30 13947 C 1313.97 -1.16893 -1.08666 0
M  V30 13948 C 1314.17 0.00633808 -2.01499 0
M  V30 13949 O 1313.22 0.671417 -2.4341 0
M  V30 13950 C 1314.54 -2.48018 -1.70022 0
M  V30 13951 C 1316.09 -2.5439 -1.82358 0
M  V30 13952 C 1316.56 -3.85605 -2.47129 0
M  V30 13953 N 1318.05 -3.86956 -2.54597 0
M  V30 13954 C 1318.79 -4.85224 -3.05525 0
M  V30 13955 N 1318.28 -5.93885 -3.56753 0
M  V30 13956 N 1320.08 -4.72643 -3.04246 0
M  V30 13957 H 1312.23 -2.11705 -0.171733 0
M  V30 13958 H 1314.49 -0.937784 -0.1388 0
M  V30 13959 H 1314.2 -3.34292 -1.09277 0
M  V30 13960 H 1314.07 -2.63894 -2.69518 0
M  V30 13961 H 1316.46 -1.68534 -2.4224 0
M  V30 13962 H 1316.54 -2.42414 -0.816651 0
M  V30 13963 H 1316.18 -4.71868 -1.87891 0
M  V30 13964 H 1316.11 -3.94878 -3.48395 0
M  V30 13965 H 1318.6 -3.08453 -2.18323 0
M  V30 13966 H 1318.92 -6.64839 -3.93966 0
M  V30 13967 H 1317.26 -5.97553 -3.54902 0
M  V30 13968 H 1320.45 -3.86883 -2.63513 0
M  V30 13969 H 1320.62 -5.49385 -3.43627 0
M  V30 13970 N 1314.03 1.01274 -1.20754 0
M  V30 13971 C 1315.45 1.27256 -0.963221 0
M  V30 13972 C 1315.65 1.98349 0.354972 0
M  V30 13973 O 1314.7 2.28116 1.08255 0
M  V30 13974 C 1316.02 2.1038 -2.14851 0
M  V30 13975 C 1317.56 2.23633 -2.18991 0
M  V30 13976 C 1318.04 3.10136 -3.37016 0
M  V30 13977 N 1319.53 3.17724 -3.37054 0
M  V30 13978 C 1320.26 3.84891 -4.25025 0
M  V30 13979 N 1319.76 4.54152 -5.23181 0
M  V30 13980 N 1321.55 3.81454 -4.12855 0
M  V30 13981 H 1313.7 0.535534 -2.05538 0
M  V30 13982 H 1315.97 0.299006 -0.899611 0
M  V30 13983 H 1315.67 1.65484 -3.10335 0
M  V30 13984 H 1315.55 3.11122 -2.13267 0
M  V30 13985 H 1317.93 2.67753 -1.24067 0
M  V30 13986 H 1318.02 1.22387 -2.24622 0
M  V30 13987 H 1317.66 2.66721 -4.32229 0
M  V30 13988 H 1317.59 4.11478 -3.28623 0
M  V30 13989 H 1320.08 2.68412 -2.66014 0
M  V30 13990 H 1320.39 5.03084 -5.86623 0
M  V30 13991 H 1318.74 4.52964 -5.27113 0
M  V30 13992 H 1321.93 3.26494 -3.35439 0
M  V30 13993 H 1322.1 4.33523 -4.81624 0
M  V30 13994 N 1315.51 1.01404 1.20644 0
M  V30 13995 C 1316.74 0.719995 1.93648 0
M  V30 13996 C 1317.15 -0.722872 1.74846 0
M  V30 13997 O 1316.49 -1.50172 1.05802 0
M  V30 13998 C 1316.55 0.972637 3.46092 0
M  V30 13999 C 1316.22 2.40412 3.88653 0
M  V30 14000 C 1317.21 3.38481 3.94622 0
M  V30 14001 C 1314.9 2.74418 4.20714 0
M  V30 14002 C 1316.89 4.68619 4.32059 0
M  V30 14003 C 1314.58 4.04769 4.57826 0
M  V30 14004 C 1315.58 5.01681 4.63471 0
M  V30 14005 O 1315.27 6.297 4.99733 0
M  V30 14006 H 1315 0.263849 0.622382 0
M  V30 14007 H 1317.55 1.35741 1.54154 0
M  V30 14008 H 1315.78 0.278057 3.85699 0
M  V30 14009 H 1317.47 0.670572 4.00323 0
M  V30 14010 H 1318.24 3.13545 3.7002 0
M  V30 14011 H 1314.12 1.99675 4.15513 0
M  V30 14012 H 1317.66 5.4426 4.3638 0
M  V30 14013 H 1313.56 4.29486 4.81884 0
M  V30 14014 H 1314.32 6.3395 5.17735 0
M  V30 14015 N 1316.99 -1.36373 0.789944 0
M  V30 14016 C 1318.24 -1.98834 0.361866 0
M  V30 14017 C 1318.56 -1.63006 -1.07024 0
M  V30 14018 O 1317.83 -0.904312 -1.73779 0
M  V30 14019 H 1316.41 -0.735457 0.130812 0
M  V30 14020 H 1319.07 -1.66561 1.0121 0
M  V30 14021 H 1318.16 -3.08778 0.454122 0
M  V30 14022 N 1318.47 -0.542005 -1.47987 0
M  V30 14023 C 1319.74 0.0526494 -1.95529 0
M  V30 14024 C 1320.12 1.50092 -1.48444 0
M  V30 14025 O 1319.47 2.16981 -0.716347 0
M  V30 14026 C 1319.68 -0.0770524 -3.48915 0
M  V30 14027 C 1321.03 0.0760849 -4.24532 0
M  V30 14028 O 1322.05 -0.00384644 -3.562 0
M  V30 14029 O 1320.91 0.245406 -5.45949 0
M  V30 14030 H 1318.01 0.0726163 -0.823806 0
M  V30 14031 H 1320.55 -0.607454 -1.58455 0
M  V30 14032 H 1319.32 -1.08544 -3.75944 0
M  V30 14033 H 1318.95 0.621357 -3.92715 0
M  V30 14034 N 1319.94 1.55134 -0.277709 0
M  V30 14035 C 1320.85 2.26296 0.618658 0
M  V30 14036 C 1321.87 1.28978 1.16794 0
M  V30 14037 O 1323.05 1.61918 1.19768 0
M  V30 14038 C 1320.11 2.97214 1.78508 0
M  V30 14039 C 1319.17 4.10016 1.27221 0
M  V30 14040 C 1318.4 4.77543 2.38304 0
M  V30 14041 O 1318.63 4.44293 3.57715 0
M  V30 14042 O 1317.56 5.65437 2.06313 0
M  V30 14043 H 1321.39 3.03671 0.0421031 0
M  V30 14044 H 1318.97 1.49332 -0.0450166 0
M  V30 14045 H 1320.85 3.41773 2.46513 0
M  V30 14046 H 1319.53 2.22753 2.34867 0
M  V30 14047 H 1318.44 3.69907 0.558544 0
M  V30 14048 H 1319.77 4.86385 0.754333 0
M  V30 14049 N 1321.42 0.00503138 1.57599 0
M  V30 14050 C 1322.33 -1.00097 2.12174 0
M  V30 14051 C 1323.35 -1.37353 1.06818 0
M  V30 14052 O 1324.52 -1.45984 1.38747 0
M  V30 14053 C 1321.59 -2.27252 2.61835 0
M  V30 14054 C 1320.65 -1.96262 3.81811 0
M  V30 14055 C 1319.88 -3.17355 4.29094 0
M  V30 14056 O 1320.11 -4.2921 3.75679 0
M  V30 14057 O 1319.04 -3.01059 5.21198 0
M  V30 14058 H 1322.87 -0.567024 2.9836 0
M  V30 14059 H 1320.45 -0.214109 1.47858 0
M  V30 14060 H 1322.33 -3.01944 2.93952 0
M  V30 14061 H 1321.01 -2.69875 1.78744 0
M  V30 14062 H 1319.91 -1.19031 3.54658 0
M  V30 14063 H 1321.25 -1.58473 4.65991 0
M  V30 14064 N 1322.9 -1.55308 -0.267798 0
M  V30 14065 C 1323.83 -1.91555 -1.33525 0
M  V30 14066 C 1324.81 -0.778001 -1.51265 0
M  V30 14067 O 1326 -1.03657 -1.64222 0
M  V30 14068 C 1323.13 -2.19201 -2.69385 0
M  V30 14069 C 1322.08 -3.3501 -2.66369 0
M  V30 14070 C 1321.41 -3.48148 -4.05829 0
M  V30 14071 C 1322.71 -4.71265 -2.25182 0
M  V30 14072 H 1324.4 -2.80965 -1.03437 0
M  V30 14073 H 1321.95 -1.35183 -0.496141 0
M  V30 14074 H 1323.9 -2.43146 -3.44177 0
M  V30 14075 H 1322.62 -1.26596 -3.01067 0
M  V30 14076 H 1321.28 -3.11041 -1.94034 0
M  V30 14077 H 1320.93 -2.53 -4.34741 0
M  V30 14078 H 1320.63 -4.26014 -4.04704 0
M  V30 14079 H 1322.15 -3.74391 -4.82352 0
M  V30 14080 H 1323.57 -4.94719 -2.89699 0
M  V30 14081 H 1321.96 -5.52084 -2.3521 0
M  V30 14082 H 1323.03 -4.69735 -1.20319 0
M  V30 14083 N 1324.38 0.532545 -1.4833 0
M  V30 14084 C 1325.33 1.6335 -1.59062 0
M  V30 14085 C 1326.31 1.5454 -0.447905 0
M  V30 14086 O 1327.5 1.62604 -0.699205 0
M  V30 14087 C 1324.63 3.02077 -1.63109 0
M  V30 14088 C 1323.72 3.16 -2.82851 0
M  V30 14089 N 1324.11 2.99905 -4.07297 0
M  V30 14090 C 1322.41 3.47049 -2.8013 0
M  V30 14091 C 1323.11 3.17176 -4.87621 0
M  V30 14092 N 1322.08 3.44634 -4.20391 0
M  V30 14093 H 1325.89 1.49512 -2.53028 0
M  V30 14094 H 1323.4 0.73794 -1.44666 0
M  V30 14095 H 1325.4 3.81158 -1.68891 0
M  V30 14096 H 1324.06 3.17008 -0.702574 0
M  V30 14097 H 1325.07 2.76721 -4.37774 0
M  V30 14098 H 1321.75 3.68354 -1.96524 0
M  V30 14099 H 1323.14 3.09491 -5.96376 0
M  V30 14100 N 1325.86 1.36875 0.78122 0
M  V30 14101 C 1326.79 1.34559 1.9083 0
M  V30 14102 C 1327.77 0.215713 1.68727 0
M  V30 14103 O 1328.95 0.41462 1.89722 0
M  V30 14104 C 1326.08 1.14233 3.27976 0
M  V30 14105 C 1325.04 2.24132 3.64621 0
M  V30 14106 C 1324.36 1.8894 5.00206 0
M  V30 14107 C 1325.66 3.66266 3.72353 0
M  V30 14108 H 1327.36 2.28871 1.93025 0
M  V30 14109 H 1324.9 1.10171 0.927275 0
M  V30 14110 H 1326.85 1.11246 4.06451 0
M  V30 14111 H 1325.58 0.163747 3.26189 0
M  V30 14112 H 1324.24 2.26259 2.88448 0
M  V30 14113 H 1323.89 0.896351 4.94949 0
M  V30 14114 H 1323.59 2.62525 5.25694 0
M  V30 14115 H 1325.11 1.87523 5.81092 0
M  V30 14116 H 1326.52 3.66321 4.41001 0
M  V30 14117 H 1324.92 4.38825 4.09332 0
M  V30 14118 H 1325.99 4.00578 2.7325 0
M  V30 14119 N 1327.33 -1.00632 1.21289 0
M  V30 14120 C 1328.57 -1.75921 1.04073 0
M  V30 14121 C 1328.94 -1.87381 -0.4186 0
M  V30 14122 O 1330.14 -2.5922 -0.711236 0
M  V30 14123 C 1328.41 -3.1344 1.71727 0
M  V30 14124 S 1329.97 -4.04636 1.6975 0
M  V30 14125 H 1326.79 -0.605321 0.372972 0
M  V30 14126 H 1329.39 -1.20417 1.54013 0
M  V30 14127 H 1328.09 -3.02731 2.77096 0
M  V30 14128 H 1327.62 -3.74017 1.21962 0
M  V30 14129 H 1329.64 -4.90686 0.737656 0
M  V30 14130 N 1328.81 -1.02043 -1.20104 0
M  V30 14131 C 1330.06 -0.713027 -1.89852 0
M  V30 14132 C 1330.39 0.755767 -1.7889 0
M  V30 14133 O 1329.67 1.54948 -1.17564 0
M  V30 14134 C 1329.95 -1.15417 -3.41103 0
M  V30 14135 C 1329.8 -2.68355 -3.60979 0
M  V30 14136 C 1331.12 -0.728389 -4.34031 0
M  V30 14137 H 1328.24 -0.260502 -0.689426 0
M  V30 14138 H 1330.88 -1.26885 -1.41422 0
M  V30 14139 H 1329.03 -0.68127 -3.8248 0
M  V30 14140 H 1330.7 -3.23526 -3.28829 0
M  V30 14141 H 1328.95 -3.09148 -3.04319 0
M  V30 14142 H 1329.62 -2.94276 -4.67018 0
M  V30 14143 H 1332.09 -1.13499 -4.00321 0
M  V30 14144 H 1330.97 -1.06504 -5.38468 0
M  V30 14145 H 1331.23 0.369736 -4.40551 0
M  V30 14146 N 1330.29 1.35952 -0.797165 0
M  V30 14147 C 1331.52 2.0381 -0.38421 0
M  V30 14148 C 1331.94 1.597 0.993854 0
M  V30 14149 O 1331.3 0.769148 1.64176 0
M  V30 14150 C 1331.35 3.57589 -0.465054 0
M  V30 14151 O 1330.45 4.09043 0.525095 0
M  V30 14152 H 1329.79 0.643957 -0.161912 0
M  V30 14153 H 1332.32 1.73746 -1.08043 0
M  V30 14154 H 1332.33 4.06651 -0.331448 0
M  V30 14155 H 1331.01 3.89045 -1.47027 0
M  V30 14156 H 1329.58 3.7123 0.352509 0
M  V30 14157 N 1331.77 0.549846 1.47697 0
M  V30 14158 C 1333.18 0.209085 1.58225 0
M  V30 14159 C 1333.38 -1.28823 1.54941 0
M  V30 14160 O 1332.44 -2.0679 1.44893 0
M  V30 14161 C 1333.75 0.829219 2.89041 0
M  V30 14162 C 1335.3 0.79977 3.0261 0
M  V30 14163 C 1335.78 1.39884 4.36115 0
M  V30 14164 N 1337.27 1.36169 4.42733 0
M  V30 14165 C 1338 1.79492 5.44583 0
M  V30 14166 N 1337.5 2.30637 6.53283 0
M  V30 14167 N 1339.29 1.70608 5.35583 0
M  V30 14168 H 1331.44 1.52275 1.48074 0
M  V30 14169 H 1333.71 0.634579 0.704283 0
M  V30 14170 H 1333.41 1.88122 2.97158 0
M  V30 14171 H 1333.29 0.317916 3.75858 0
M  V30 14172 H 1335.67 -0.243525 2.94093 0
M  V30 14173 H 1335.75 1.34875 2.17353 0
M  V30 14174 H 1335.4 2.44116 4.45387 0
M  V30 14175 H 1335.33 0.825362 5.20092 0
M  V30 14176 H 1337.82 0.987505 3.64769 0
M  V30 14177 H 1338.13 2.61637 7.27163 0
M  V30 14178 H 1336.48 2.34643 6.54192 0
M  V30 14179 H 1339.67 1.30434 4.4956 0
M  V30 14180 H 1339.84 2.0469 6.14822 0
M  V30 14181 N 1333.25 -1.54984 0.285932 0
M  V30 14182 C 1334.19 -2.2295 -0.596822 0
M  V30 14183 C 1335.16 -1.20674 -1.14136 0
M  V30 14184 O 1336.35 -1.49249 -1.18867 0
M  V30 14185 C 1333.49 -2.9625 -1.77002 0
M  V30 14186 C 1332.6 -4.13268 -1.25831 0
M  V30 14187 C 1331.74 -4.74187 -2.39417 0
M  V30 14188 C 1330.78 -5.83377 -1.85304 0
M  V30 14189 N 1329.91 -6.38313 -2.92405 0
M  V30 14190 H 1334.75 -2.97998 -0.0106104 0
M  V30 14191 H 1332.29 -1.47099 0.00653041 0
M  V30 14192 H 1334.25 -3.36971 -2.4598 0
M  V30 14193 H 1332.88 -2.23606 -2.3281 0
M  V30 14194 H 1331.93 -3.77593 -0.461278 0
M  V30 14195 H 1333.24 -4.91979 -0.822049 0
M  V30 14196 H 1332.4 -5.17683 -3.16369 0
M  V30 14197 H 1331.13 -3.94775 -2.86364 0
M  V30 14198 H 1330.14 -5.3932 -1.06835 0
M  V30 14199 H 1331.36 -6.64664 -1.3928 0
M  V30 14200 H 1329.31 -5.61791 -3.38713 0
M  V30 14201 H 1329.23 -7.12328 -2.53228 0
M  V30 14202 H 1330.5 -6.86468 -3.69299 0
M  V30 14203 N 1334.72 -0.0133892 -1.57594 0
M  V30 14204 C 1335.67 0.982482 -2.05746 0
M  V30 14205 C 1336.66 1.29508 -0.954801 0
M  V30 14206 O 1337.85 1.28382 -1.21848 0
M  V30 14207 C 1334.98 2.27012 -2.57527 0
M  V30 14208 C 1334.07 1.98658 -3.74694 0
M  V30 14209 N 1334.46 1.40512 -4.85891 0
M  V30 14210 C 1332.75 2.28732 -3.82881 0
M  V30 14211 C 1333.46 1.28933 -5.67231 0
M  V30 14212 N 1332.43 1.77951 -5.13648 0
M  V30 14213 H 1336.23 0.527626 -2.89125 0
M  V30 14214 H 1333.75 0.192001 -1.61261 0
M  V30 14215 H 1335.74 2.99212 -2.90306 0
M  V30 14216 H 1334.4 2.73139 -1.75572 0
M  V30 14217 H 1335.42 1.08217 -5.06468 0
M  V30 14218 H 1332.09 2.77641 -3.11804 0
M  V30 14219 H 1333.48 0.841051 -6.66615 0
M  V30 14220 N 1336.2 1.55448 0.259558 0
M  V30 14221 C 1337.45 1.76686 0.98935 0
M  V30 14222 C 1337.78 0.575434 1.85793 0
M  V30 14223 O 1337.03 -0.441676 1.90651 0
M  V30 14224 C 1337.33 3.03292 1.89073 0
M  V30 14225 C 1337 4.35225 1.17855 0
M  V30 14226 C 1335.66 4.7108 0.981675 0
M  V30 14227 C 1338.01 5.16839 0.6728 0
M  V30 14228 C 1335.34 5.86094 0.266551 0
M  V30 14229 C 1337.69 6.32593 -0.0287965 0
M  V30 14230 C 1336.36 6.67078 -0.23726 0
M  V30 14231 H 1335.63 0.646542 0.362029 0
M  V30 14232 H 1338.27 1.8972 0.260488 0
M  V30 14233 H 1336.58 2.85217 2.68624 0
M  V30 14234 H 1338.27 3.16923 2.45685 0
M  V30 14235 H 1334.86 4.07051 1.34192 0
M  V30 14236 H 1339.05 4.89604 0.812481 0
M  V30 14237 H 1334.3 6.11327 0.0944447 0
M  V30 14238 H 1338.48 6.95081 -0.428378 0
M  V30 14239 H 1336.11 7.56049 -0.793358 0
M  V30 14240 N 1337.68 -0.524672 1.4861 0
M  V30 14241 C 1338.64 -1.61092 1.63039 0
M  V30 14242 C 1339.64 -1.52718 0.503387 0
M  V30 14243 O 1340.83 -1.56293 0.769304 0
M  V30 14244 C 1337.97 -3.00722 1.60558 0
M  V30 14245 H 1339.16 -1.49636 2.59902 0
M  V30 14246 H 1336.71 -0.747135 1.37287 0
M  V30 14247 H 1337.45 -3.1768 0.651926 0
M  V30 14248 H 1337.23 -3.0821 2.42382 0
M  V30 14249 H 1338.72 -3.79688 1.73859 0
M  V30 14250 N 1339.16 -1.37287 -0.77395 0
M  V30 14251 C 1340.09 -1.35569 -1.90114 0
M  V30 14252 C 1341.07 -0.224658 -1.6861 0
M  V30 14253 O 1342.25 -0.424676 -1.895 0
M  V30 14254 C 1339.38 -1.15971 -3.27365 0
M  V30 14255 C 1338.34 -2.26063 -3.63427 0
M  V30 14256 C 1337.66 -1.9159 -4.99197 0
M  V30 14257 C 1338.96 -3.68236 -3.70405 0
M  V30 14258 H 1340.66 -2.29891 -1.91808 0
M  V30 14259 H 1338.2 -1.10661 -0.92142 0
M  V30 14260 H 1340.16 -1.134 -4.05855 0
M  V30 14261 H 1338.88 -0.181043 -3.26098 0
M  V30 14262 H 1337.54 -2.27786 -2.87244 0
M  V30 14263 H 1337.19 -0.922586 -4.94467 0
M  V30 14264 H 1336.89 -2.65309 -5.24294 0
M  V30 14265 H 1338.41 -1.90602 -5.80089 0
M  V30 14266 H 1339.83 -3.68655 -4.39052 0
M  V30 14267 H 1338.22 -4.4099 -4.06999 0
M  V30 14268 H 1339.29 -4.02021 -2.71122 0
M  V30 14269 N 1340.64 0.999871 -1.21821 0
M  V30 14270 C 1341.55 2.12303 -0.99823 0
M  V30 14271 C 1342.56 1.73924 0.0512923 0
M  V30 14272 O 1343.74 2.00914 -0.139895 0
M  V30 14273 C 1340.8 3.41962 -0.571232 0
M  V30 14274 C 1339.86 3.94483 -1.69356 0
M  V30 14275 C 1339.1 5.17954 -1.28685 0
M  V30 14276 O 1339.32 5.70168 -0.162641 0
M  V30 14277 O 1338.25 5.64051 -2.10071 0
M  V30 14278 H 1342.08 2.3374 -1.93905 0
M  V30 14279 H 1339.67 1.10677 -1.00354 0
M  V30 14280 H 1341.55 4.20001 -0.343134 0
M  V30 14281 H 1340.22 3.21901 0.340814 0
M  V30 14282 H 1339.13 3.17648 -1.97612 0
M  V30 14283 H 1340.46 4.18964 -2.58322 0
M  V30 14284 N 1342.11 1.02678 1.19562 0
M  V30 14285 C 1343.53 0.743467 1.41226 0
M  V30 14286 C 1343.73 -0.672786 1.89936 0
M  V30 14287 O 1342.79 -1.43908 2.07477 0
M  V30 14288 C 1344.1 1.77781 2.42517 0
M  V30 14289 C 1345.65 1.79711 2.56267 0
M  V30 14290 C 1346.12 2.82099 3.60811 0
M  V30 14291 N 1347.61 2.80902 3.68304 0
M  V30 14292 C 1348.35 3.5678 4.48882 0
M  V30 14293 N 1347.84 4.42367 5.33182 0
M  V30 14294 N 1349.64 3.45331 4.43512 0
M  V30 14295 H 1341.79 1.94094 0.862635 0
M  V30 14296 H 1344.05 0.839015 0.441313 0
M  V30 14297 H 1343.76 2.79295 2.13745 0
M  V30 14298 H 1343.63 1.59836 3.41661 0
M  V30 14299 H 1346.02 0.788756 2.84364 0
M  V30 14300 H 1346.1 2.01731 1.57284 0
M  V30 14301 H 1345.74 3.83104 3.33457 0
M  V30 14302 H 1345.67 2.57338 4.5944 0
M  V30 14303 H 1348.16 2.18826 3.08097 0
M  V30 14304 H 1348.48 4.97008 5.9178 0
M  V30 14305 H 1346.82 4.4644 5.3265 0
M  V30 14306 H 1350.01 2.77883 3.76695 0
M  V30 14307 H 1350.19 4.04718 5.06071 0
M  V30 14308 N 1343.59 -1.35528 0.804364 0
M  V30 14309 C 1344.84 -1.98439 0.382934 0
M  V30 14310 C 1345.16 -1.64132 -1.05289 0
M  V30 14311 O 1344.43 -0.922693 -1.7281 0
M  V30 14312 H 1343.01 -0.734028 0.138605 0
M  V30 14313 H 1345.67 -1.65478 1.02971 0
M  V30 14314 H 1344.77 -3.08279 0.486846 0
M  V30 14315 N 1345.07 -0.557671 -1.47404 0
M  V30 14316 C 1346.31 -0.0361491 -2.04368 0
M  V30 14317 C 1346.68 1.2894 -1.42262 0
M  V30 14318 O 1347.88 1.89864 -1.90276 0
M  V30 14319 C 1346.15 0.0547287 -3.57358 0
M  V30 14320 S 1347.71 0.522307 -4.3568 0
M  V30 14321 H 1344.52 -0.0253676 -0.710547 0
M  V30 14322 H 1347.13 -0.744509 -1.80769 0
M  V30 14323 H 1345.83 -0.914374 -4.00084 0
M  V30 14324 H 1345.36 0.786629 -3.85455 0
M  V30 14325 H 1347.38 1.7819 -4.63101 0
M  V30 14326 N 1346.55 1.54831 -0.294147 0
M  V30 14327 C 1347.97 1.59489 0.0594489 0
M  V30 14328 C 1348.17 1.31121 1.53002 0
M  V30 14329 O 1347.22 1.08129 2.28176 0
M  V30 14330 C 1348.53 2.98858 -0.332323 0
M  V30 14331 C 1350.08 3.1174 -0.280518 0
M  V30 14332 C 1350.56 4.53407 -0.64701 0
M  V30 14333 N 1352.05 4.59307 -0.599284 0
M  V30 14334 C 1352.78 5.66983 -0.85542 0
M  V30 14335 N 1352.28 6.82726 -1.17717 0
M  V30 14336 N 1354.07 5.56621 -0.78294 0
M  V30 14337 H 1346.22 1.71532 -1.25262 0
M  V30 14338 H 1348.49 0.800801 -0.507368 0
M  V30 14339 H 1348.19 3.24517 -1.35578 0
M  V30 14340 H 1348.07 3.75862 0.317443 0
M  V30 14341 H 1350.45 2.85834 0.733683 0
M  V30 14342 H 1350.53 2.36907 -0.96481 0
M  V30 14343 H 1350.18 4.80042 -1.65899 0
M  V30 14344 H 1350.11 5.26567 0.0592796 0
M  V30 14345 H 1352.6 3.76169 -0.361259 0
M  V30 14346 H 1352.91 7.60761 -1.35877 0
M  V30 14347 H 1351.26 6.84295 -1.21513 0
M  V30 14348 H 1354.45 4.65075 -0.531282 0
M  V30 14349 H 1354.62 6.40456 -0.985929 0
M  V30 14350 N 1348.03 0.0217466 1.57585 0
M  V30 14351 C 1348.96 -0.961069 2.12804 0
M  V30 14352 C 1349.94 -1.3442 1.04237 0
M  V30 14353 O 1351.12 -1.42412 1.32032 0
M  V30 14354 C 1348.25 -2.24586 2.64912 0
M  V30 14355 C 1347.21 -2.0037 3.78201 0
M  V30 14356 C 1346.53 -3.35051 4.16708 0
M  V30 14357 C 1347.83 -1.34879 5.04584 0
M  V30 14358 H 1349.53 -0.501222 2.95175 0
M  V30 14359 H 1347.07 -0.239649 1.41992 0
M  V30 14360 H 1349.03 -2.93715 3.02175 0
M  V30 14361 H 1347.75 -2.72723 1.79693 0
M  V30 14362 H 1346.41 -1.33662 3.41365 0
M  V30 14363 H 1346.06 -3.80932 3.28481 0
M  V30 14364 H 1345.76 -3.19656 4.93045 0
M  V30 14365 H 1347.28 -4.05459 4.56547 0
M  V30 14366 H 1348.7 -1.93997 5.3948 0
M  V30 14367 H 1347.09 -1.29906 5.85871 0
M  V30 14368 H 1348.16 -0.320774 4.83838 0
M  V30 14369 N 1349.51 -1.55583 -0.251311 0
M  V30 14370 C 1350.92 -1.47908 -0.599606 0
M  V30 14371 C 1351.12 -0.711061 -1.88537 0
M  V30 14372 O 1350.18 -0.238639 -2.5137 0
M  V30 14373 C 1351.49 -2.92284 -0.706429 0
M  V30 14374 C 1353.04 -3.02629 -0.799049 0
M  V30 14375 C 1353.51 -4.48303 -0.93747 0
M  V30 14376 N 1355 -4.52222 -1.00245 0
M  V30 14377 C 1355.74 -5.62181 -1.12874 0
M  V30 14378 N 1355.24 -6.81958 -1.22085 0
M  V30 14379 N 1357.03 -5.49968 -1.16155 0
M  V30 14380 H 1349.18 -2.0396 0.592806 0
M  V30 14381 H 1351.44 -0.925797 0.203971 0
M  V30 14382 H 1351.15 -3.51297 0.168243 0
M  V30 14383 H 1351.02 -3.42524 -1.57979 0
M  V30 14384 H 1353.41 -2.43699 -1.66418 0
M  V30 14385 H 1353.49 -2.55607 0.099367 0
M  V30 14386 H 1353.13 -5.07842 -0.0769166 0
M  V30 14387 H 1353.06 -4.93002 -1.85086 0
M  V30 14388 H 1355.56 -3.65951 -0.94279 0
M  V30 14389 H 1355.87 -7.6151 -1.31616 0
M  V30 14390 H 1354.21 -6.84728 -1.1905 0
M  V30 14391 H 1357.4 -4.55327 -1.08604 0
M  V30 14392 H 1357.58 -6.35701 -1.25653 0
M  V30 14393 N 1350.98 0.516783 -1.48886 0
M  V30 14394 C 1352.23 1.26936 -1.57263 0
M  V30 14395 C 1352.55 1.93337 -0.254156 0
M  V30 14396 O 1351.82 1.81977 0.725345 0
M  V30 14397 H 1350.4 0.4715 -0.579393 0
M  V30 14398 H 1353.06 0.600289 -1.85425 0
M  V30 14399 H 1352.16 2.04167 -2.36055 0
M  V30 14400 N 1352.46 1.37696 0.766659 0
M  V30 14401 C 1353.39 1.36576 1.89392 0
M  V30 14402 C 1354.37 0.233597 1.68488 0
M  V30 14403 O 1355.56 0.434719 1.89272 0
M  V30 14404 C 1352.69 1.17705 3.26746 0
M  V30 14405 C 1351.64 2.27987 3.62224 0
M  V30 14406 C 1350.97 1.94235 4.98174 0
M  V30 14407 C 1352.27 3.70195 3.68447 0
M  V30 14408 H 1353.96 2.30905 1.90587 0
M  V30 14409 H 1351.51 1.11148 0.915538 0
M  V30 14410 H 1353.46 1.15551 4.05248 0
M  V30 14411 H 1352.18 0.198334 3.25997 0
M  V30 14412 H 1350.84 2.29306 2.86032 0
M  V30 14413 H 1350.49 0.948796 4.93971 0
M  V30 14414 H 1350.19 2.68086 5.2288 0
M  V30 14415 H 1351.72 1.93676 5.7907 0
M  V30 14416 H 1353.13 3.70978 4.37091 0
M  V30 14417 H 1351.53 4.43142 4.04654 0
M  V30 14418 H 1352.6 4.03453 2.68986 0
M  V30 14419 N 1353.94 -0.993397 1.22349 0
M  V30 14420 C 1355.16 -1.77373 1.07488 0
M  V30 14421 C 1355.59 -1.84418 -0.37034 0
M  V30 14422 O 1354.95 -1.29629 -1.26752 0
M  V30 14423 C 1355 -3.18538 1.69014 0
M  V30 14424 O 1354.1 -4.01463 0.943474 0
M  V30 14425 H 1353.44 -0.546209 0.37756 0
M  V30 14426 H 1355.97 -1.24792 1.62136 0
M  V30 14427 H 1355.98 -3.6917 1.73717 0
M  V30 14428 H 1354.66 -3.12725 2.74182 0
M  V30 14429 H 1353.23 -3.59998 0.972415 0
M  V30 14430 N 1355.42 -1.03311 -1.19015 0
M  V30 14431 C 1356.83 -0.761079 -1.70483 0
M  V30 14432 C 1357.18 0.718851 -1.82557 0
M  V30 14433 O 1356.3 1.56006 -1.4997 0
M  V30 14434 C 1356.9 -1.37492 -3.09647 0
M  V30 14435 C 1355.46 -1.15138 -3.58358 0
M  V30 14436 C 1354.61 -1.47034 -2.35109 0
M  V30 14437 H 1357.56 -1.2005 -1.03797 0
M  V30 14438 H 1357.58 -0.774115 -3.72542 0
M  V30 14439 H 1357.09 -2.45203 -3.00828 0
M  V30 14440 H 1355.19 -0.0926822 -3.72485 0
M  V30 14441 H 1355.3 -1.84307 -4.4223 0
M  V30 14442 H 1353.67 -0.889794 -2.38652 0
M  V30 14443 H 1354.45 -2.55837 -2.28916 0
M  V30 14444 N 1356.9 1.35099 -0.81154 0
M  V30 14445 C 1358.14 1.98233 -0.393453 0
M  V30 14446 C 1358.46 1.64688 1.04417 0
M  V30 14447 O 1357.73 0.931845 1.72318 0
M  V30 14448 H 1356.31 0.733283 -0.142496 0
M  V30 14449 H 1358.98 1.6493 -1.03847 0
M  V30 14450 H 1358.07 3.08017 -0.503188 0
M  V30 14451 N 1358.37 0.56548 1.47106 0
M  V30 14452 C 1359.32 -0.190542 2.31818 0
M  V30 14453 C 1360.32 -0.901279 1.43434 0
M  V30 14454 O 1361.52 -0.821625 1.60154 0
M  V30 14455 H 1357.9 -0.0803183 0.747698 0
M  V30 14456 H 1359.87 0.542999 2.93418 0
M  V30 14457 C 1358.62 -1.20208 3.2626 0
M  V30 14458 H 1357.94 -0.664608 3.94237 0
M  V30 14459 H 1359.38 -1.7018 3.88349 0
M  V30 14460 C 1357.84 -2.25423 2.50372 0
M  V30 14461 O 1358.37 -3.3249 2.25418 0
M  V30 14462 N 1356.57 -1.9957 2.11235 0
M  V30 14463 H 1356.12 -1.12513 2.31729 0
M  V30 14464 H 1356.08 -2.70182 1.60777 0
M  V30 14465 N 1359.85 -1.54672 0.302354 0
M  V30 14466 C 1361.08 -2.04282 -0.308645 0
M  V30 14467 C 1361.49 -1.17912 -1.47965 0
M  V30 14468 O 1360.83 -0.197723 -1.82633 0
M  V30 14469 C 1360.9 -3.49872 -0.826417 0
M  V30 14470 C 1360.56 -4.56473 0.219486 0
M  V30 14471 C 1361.56 -5.0922 1.0484 0
M  V30 14472 C 1359.24 -5.00997 0.361574 0
M  V30 14473 C 1361.24 -6.05033 2.00533 0
M  V30 14474 C 1358.92 -5.9663 1.32195 0
M  V30 14475 C 1359.92 -6.48532 2.1423 0
M  V30 14476 O 1359.61 -7.42292 3.08639 0
M  V30 14477 H 1359.34 -0.67228 -0.0708187 0
M  V30 14478 H 1361.89 -2.00625 0.440314 0
M  V30 14479 H 1360.12 -3.50857 -1.62593 0
M  V30 14480 H 1361.81 -3.8267 -1.35345 0
M  V30 14481 H 1362.58 -4.75615 0.949501 0
M  V30 14482 H 1358.46 -4.60226 -0.267018 0
M  V30 14483 H 1362 -6.45469 2.64604 0
M  V30 14484 H 1357.9 -6.29652 1.42156 0
M  V30 14485 H 1358.67 -7.60098 3.03633 0
M  V30 14486 N 1361.33 -0.0301034 -1.57571 0
M  V30 14487 C 1362.56 0.662045 -1.9655 0
M  V30 14488 C 1362.98 1.64811 -0.906581 0
M  V30 14489 O 1362.34 1.80816 0.132415 0
M  V30 14490 C 1362.39 1.34389 -3.34622 0
M  V30 14491 O 1361.49 2.45919 -3.31056 0
M  V30 14492 H 1360.83 0.173842 -0.640839 0
M  V30 14493 H 1363.36 -0.092248 -2.04392 0
M  V30 14494 H 1363.37 1.70045 -3.70875 0
M  V30 14495 H 1362.05 0.621092 -4.11236 0
M  V30 14496 H 1360.62 2.12367 -3.06521 0
M  V30 14497 N 1362.81 1.55714 0.243056 0
M  V30 14498 C 1364.05 1.77989 0.971993 0
M  V30 14499 C 1364.39 0.596038 1.84827 0
M  V30 14500 O 1363.66 -0.40554 1.90225 0
M  V30 14501 C 1363.95 3.10178 1.82925 0
M  V30 14502 C 1363.8 4.38974 0.9809 0
M  V30 14503 C 1365.12 3.38628 2.81103 0
M  V30 14504 H 1362.24 0.64754 0.35194 0
M  V30 14505 H 1364.88 1.88449 0.242237 0
M  V30 14506 H 1363.03 3.01392 2.45143 0
M  V30 14507 H 1364.7 4.59756 0.377113 0
M  V30 14508 H 1362.94 4.3286 0.285414 0
M  V30 14509 H 1363.61 5.27858 1.61461 0
M  V30 14510 H 1366.09 3.47403 2.29021 0
M  V30 14511 H 1364.97 4.32331 3.38203 0
M  V30 14512 H 1365.23 2.5973 3.57761 0
M  V30 14513 N 1364.29 -0.50888 1.49158 0
M  V30 14514 C 1365.7 -0.839353 1.35746 0
M  V30 14515 C 1365.9 -1.97797 0.38453 0
M  V30 14516 O 1364.96 -2.51809 -0.186651 0
M  V30 14517 C 1366.27 -1.18698 2.76281 0
M  V30 14518 C 1367.82 -1.29565 2.84924 0
M  V30 14519 C 1368.29 -1.67661 4.26209 0
M  V30 14520 N 1369.79 -1.74725 4.28982 0
M  V30 14521 C 1370.52 -2.05631 5.3526 0
M  V30 14522 N 1370.02 -2.34814 6.51793 0
M  V30 14523 N 1371.81 -2.06815 5.2267 0
M  V30 14524 H 1363.96 0.242065 2.11016 0
M  V30 14525 H 1366.22 0.0456901 0.946898 0
M  V30 14526 H 1365.93 -0.423769 3.49138 0
M  V30 14527 H 1365.8 -2.13227 3.11149 0
M  V30 14528 H 1368.19 -2.0496 2.1231 0
M  V30 14529 H 1368.27 -0.331059 2.53649 0
M  V30 14530 H 1367.92 -0.928198 4.99346 0
M  V30 14531 H 1367.85 -2.65207 4.54943 0
M  V30 14532 H 1370.34 -1.54364 3.44935 0
M  V30 14533 H 1370.65 -2.57562 7.28616 0
M  V30 14534 H 1368.99 -2.32288 6.55032 0
M  V30 14535 H 1372.19 -1.83487 4.30639 0
M  V30 14536 H 1372.36 -2.30568 6.05593 0
M  V30 14537 N 1365.76 -1.381 -0.759346 0
M  V30 14538 C 1367.01 -1.33311 -1.51364 0
M  V30 14539 C 1367.33 0.0761325 -1.95452 0
M  V30 14540 O 1368.53 0.246541 -2.70378 0
M  V30 14541 C 1366.99 -2.34067 -2.73387 0
M  V30 14542 C 1366.6 -3.80583 -2.36348 0
M  V30 14543 C 1368.34 -2.38311 -3.51295 0
M  V30 14544 C 1366.25 -4.73039 -3.54948 0
M  V30 14545 H 1365.18 -0.495512 -0.568317 0
M  V30 14546 H 1367.83 -1.63625 -0.830602 0
M  V30 14547 H 1366.21 -1.96788 -3.43643 0
M  V30 14548 H 1367.38 -4.26769 -1.73796 0
M  V30 14549 H 1365.7 -3.79403 -1.71587 0
M  V30 14550 H 1368.3 -3.04586 -4.39467 0
M  V30 14551 H 1368.64 -1.40034 -3.92041 0
M  V30 14552 H 1369.17 -2.74361 -2.88047 0
M  V30 14553 H 1365.91 -5.7249 -3.19273 0
M  V30 14554 H 1365.43 -4.3155 -4.16563 0
M  V30 14555 H 1367.11 -4.90775 -4.21603 0
M  V30 14556 N 1367.24 0.986894 -1.22875 0
M  V30 14557 C 1368.66 1.25185 -0.989997 0
M  V30 14558 C 1368.86 1.99057 0.31282 0
M  V30 14559 O 1367.91 2.30361 1.03392 0
M  V30 14560 C 1369.23 2.05775 -2.19265 0
M  V30 14561 C 1370.78 2.18938 -2.23686 0
M  V30 14562 C 1371.25 3.02917 -3.43519 0
M  V30 14563 N 1372.74 3.10503 -3.43718 0
M  V30 14564 C 1373.48 3.75789 -4.33094 0
M  V30 14565 N 1372.97 4.42952 -5.32696 0
M  V30 14566 N 1374.77 3.72611 -4.20854 0
M  V30 14567 H 1366.92 0.491816 -2.06628 0
M  V30 14568 H 1369.18 0.279856 -0.905751 0
M  V30 14569 H 1368.89 1.58864 -3.13776 0
M  V30 14570 H 1368.76 3.06529 -2.19818 0
M  V30 14571 H 1371.15 2.65061 -1.29718 0
M  V30 14572 H 1371.23 1.17595 -2.27168 0
M  V30 14573 H 1370.87 2.57493 -4.3779 0
M  V30 14574 H 1370.8 4.04415 -3.37277 0
M  V30 14575 H 1373.29 2.62709 -2.71647 0
M  V30 14576 H 1373.61 4.90527 -5.97162 0
M  V30 14577 H 1371.95 4.41681 -5.36603 0
M  V30 14578 H 1375.14 3.19305 -3.42289 0
M  V30 14579 H 1375.31 4.2321 -4.90711 0
M  V30 14580 N 1368.72 1.0394 1.18466 0
M  V30 14581 C 1369.68 0.633804 2.20262 0
M  V30 14582 C 1370.68 -0.308136 1.5782 0
M  V30 14583 O 1371.87 -0.0937087 1.73948 0
M  V30 14584 C 1369.01 -0.0709693 3.40826 0
M  V30 14585 H 1370.2 1.53463 2.57661 0
M  V30 14586 H 1367.75 0.831806 1.32328 0
M  V30 14587 H 1368.49 -0.985659 3.08958 0
M  V30 14588 H 1368.27 0.606023 3.87388 0
M  V30 14589 H 1369.76 -0.341298 4.16203 0
M  V30 14590 N 1370.2 -1.34667 0.818693 0
M  V30 14591 C 1371.43 -2.02642 0.417608 0
M  V30 14592 C 1371.84 -1.61667 -0.97516 0
M  V30 14593 O 1371.2 -0.820056 -1.63038 0
M  V30 14594 C 1371.25 -3.57951 0.505295 0
M  V30 14595 O 1370.97 -3.97441 1.84317 0
M  V30 14596 C 1372.47 -4.4319 0.0985667 0
M  V30 14597 H 1369.69 -0.6496 0.168111 0
M  V30 14598 H 1372.24 -1.72032 1.10568 0
M  V30 14599 H 1370.39 -3.87166 -0.134646 0
M  V30 14600 H 1370.8 -4.92116 1.81444 0
M  V30 14601 H 1372.28 -5.51597 0.211015 0
M  V30 14602 H 1372.76 -4.28637 -0.95745 0
M  V30 14603 H 1373.36 -4.19295 0.71214 0
M  V30 14604 N 1371.68 -0.573274 -1.46804 0
M  V30 14605 C 1372.9 -0.0586717 -2.07317 0
M  V30 14606 C 1373.33 1.2328 -1.42069 0
M  V30 14607 O 1372.68 1.74235 -0.501188 0
M  V30 14608 C 1372.73 0.103503 -3.60451 0
M  V30 14609 O 1371.84 1.16229 -3.95682 0
M  V30 14610 H 1371.18 -0.0585504 -0.661414 0
M  V30 14611 H 1373.71 -0.793532 -1.88585 0
M  V30 14612 H 1373.72 0.312658 -4.068 0
M  V30 14613 H 1372.39 -0.839684 -4.07335 0
M  V30 14614 H 1370.97 0.932347 -3.61056 0
M  V30 14615 N 1373.15 1.5451 -0.310553 0
M  V30 14616 C 1374.08 2.26827 0.554243 0
M  V30 14617 C 1375.07 1.27133 1.13009 0
M  V30 14618 O 1376.25 1.55923 1.15765 0
M  V30 14619 C 1373.38 3.01626 1.7216 0
M  V30 14620 C 1372.33 4.08547 1.27566 0
M  V30 14621 C 1371.66 4.71115 2.52893 0
M  V30 14622 C 1372.96 5.20766 0.399955 0
M  V30 14623 H 1374.65 2.9936 -0.0489475 0
M  V30 14624 H 1372.2 1.43978 -0.0249817 0
M  V30 14625 H 1374.15 3.50942 2.33276 0
M  V30 14626 H 1372.88 2.26688 2.35118 0
M  V30 14627 H 1371.54 3.60096 0.687499 0
M  V30 14628 H 1371.18 3.92805 3.14186 0
M  V30 14629 H 1370.88 5.43331 2.23752 0
M  V30 14630 H 1372.41 5.23198 3.14796 0
M  V30 14631 H 1373.82 5.65918 0.917054 0
M  V30 14632 H 1372.22 5.9976 0.2019 0
M  V30 14633 H 1373.29 4.81508 -0.572537 0
M  V30 14634 N 1374.63 0.0384594 1.57553 0
M  V30 14635 C 1375.6 -0.925358 2.0969 0
M  V30 14636 C 1376.6 -1.24811 1.01385 0
M  V30 14637 O 1377.79 -1.1869 1.27508 0
M  V30 14638 C 1374.92 -2.2391 2.57055 0
M  V30 14639 H 1376.11 -0.473633 2.96136 0
M  V30 14640 H 1373.66 -0.209736 1.54886 0
M  V30 14641 H 1374.4 -2.73691 1.73964 0
M  V30 14642 H 1374.18 -2.01793 3.36188 0
M  V30 14643 H 1375.67 -2.92974 2.97583 0
M  V30 14644 N 1376.11 -1.55841 -0.234795 0
M  V30 14645 C 1377.36 -1.77886 -0.959217 0
M  V30 14646 C 1377.68 -0.604621 -1.8539 0
M  V30 14647 O 1376.95 0.379092 -1.92197 0
M  V30 14648 H 1375.53 -0.656077 -0.357172 0
M  V30 14649 H 1378.19 -1.93292 -0.249831 0
M  V30 14650 H 1377.29 -2.69512 -1.57383 0
M  V30 14651 N 1377.59 0.500963 -1.49426 0
M  V30 14652 C 1378.54 1.62335 -1.66584 0
M  V30 14653 C 1379.53 1.60837 -0.531773 0
M  V30 14654 O 1380.74 1.65345 -0.711408 0
M  V30 14655 H 1377.11 0.538131 -0.52528 0
M  V30 14656 H 1379.08 1.45016 -2.60793 0
M  V30 14657 C 1377.83 3.00469 -1.74968 0
M  V30 14658 H 1377.16 3.02328 -2.61607 0
M  V30 14659 H 1378.6 3.78539 -1.91008 0
M  V30 14660 C 1377.05 3.33251 -0.49451 0
M  V30 14661 O 1377.58 3.99901 0.379783 0
M  V30 14662 N 1375.79 2.88393 -0.357445 0
M  V30 14663 H 1375.34 2.3433 -1.06991 0
M  V30 14664 H 1375.3 3.10694 0.481287 0
M  V30 14665 N 1379.07 1.38501 0.752011 0
M  V30 14666 C 1380.32 1.34529 1.50819 0
M  V30 14667 C 1380.64 -0.0636155 1.94896 0
M  V30 14668 O 1379.91 -1.01161 1.6776 0
M  V30 14669 H 1378.49 0.49501 0.559441 0
M  V30 14670 H 1381.15 1.73196 0.893822 0
M  V30 14671 H 1380.24 1.99713 2.39835 0
M  V30 14672 N 1380.55 -0.980364 1.23396 0
M  V30 14673 C 1381.77 -1.76223 1.09363 0
M  V30 14674 C 1382.2 -1.84801 -0.350759 0
M  V30 14675 O 1381.55 -1.30966 -1.2537 0
M  V30 14676 C 1381.6 -3.16728 1.72383 0
M  V30 14677 O 1380.71 -4.00439 0.986002 0
M  V30 14678 H 1380.05 -0.542174 0.383332 0
M  V30 14679 H 1382.58 -1.23066 1.6345 0
M  V30 14680 H 1382.59 -3.67307 1.77623 0
M  V30 14681 H 1381.26 -3.098 2.77483 0
M  V30 14682 H 1379.84 -3.58946 1.01054 0
M  V30 14683 N 1382.02 -1.04567 -1.17913 0
M  V30 14684 C 1383.27 -0.762914 -1.8855 0
M  V30 14685 C 1383.62 0.702052 -1.79134 0
M  V30 14686 O 1382.92 1.50622 -1.18421 0
M  V30 14687 C 1383.11 -1.1699 -3.3771 0
M  V30 14688 C 1382.94 -2.67289 -3.61645 0
M  V30 14689 C 1381.71 -3.34508 -3.78724 0
M  V30 14690 C 1383.91 -3.6551 -3.61811 0
M  V30 14691 N 1381.89 -4.73736 -3.90445 0
M  V30 14692 C 1383.26 -4.90436 -3.79306 0
M  V30 14693 C 1385.32 -3.59068 -3.44927 0
M  V30 14694 C 1384.02 -6.09693 -3.81663 0
M  V30 14695 C 1386.05 -4.77758 -3.4857 0
M  V30 14696 C 1385.41 -6.01505 -3.66566 0
M  V30 14697 H 1381.51 -0.331303 -0.708352 0
M  V30 14698 H 1384.09 -1.33636 -1.41596 0
M  V30 14699 H 1382.26 -0.62448 -3.83347 0
M  V30 14700 H 1383.99 -0.837634 -3.95937 0
M  V30 14701 H 1380.75 -2.84911 -3.78316 0
M  V30 14702 H 1381.17 -5.46111 -4.00115 0
M  V30 14703 H 1385.81 -2.64366 -3.29955 0
M  V30 14704 H 1383.53 -7.04746 -3.95422 0
M  V30 14705 H 1387.12 -4.74421 -3.36773 0
M  V30 14706 H 1386 -6.9181 -3.69281 0
M  V30 14707 N 1383.5 1.34231 -0.825823 0
M  V30 14708 C 1384.73 2.02417 -0.428348 0
M  V30 14709 C 1385.14 1.62181 0.966573 0
M  V30 14710 O 1384.5 0.828691 1.62601 0
M  V30 14711 C 1384.55 3.57678 -0.524271 0
M  V30 14712 O 1384.27 3.96458 -1.86422 0
M  V30 14713 C 1385.77 4.43132 -0.122069 0
M  V30 14714 H 1382.99 0.648699 -0.171554 0
M  V30 14715 H 1385.54 1.71443 -1.11478 0
M  V30 14716 H 1383.69 3.87232 0.114112 0
M  V30 14717 H 1384.11 4.91147 -1.84051 0
M  V30 14718 H 1385.58 5.51477 -0.240264 0
M  V30 14719 H 1386.06 4.29139 0.934705 0
M  V30 14720 H 1386.66 4.18912 -0.734366 0
M  V30 14721 N 1384.98 0.581051 1.46498 0
M  V30 14722 C 1385.89 -0.155669 2.34083 0
M  V30 14723 C 1386.91 -0.887728 1.49651 0
M  V30 14724 O 1388.08 -0.851284 1.82524 0
M  V30 14725 C 1385.15 -1.15752 3.26806 0
M  V30 14726 C 1384.21 -0.43031 4.27138 0
M  V30 14727 C 1383.44 -1.38443 5.15431 0
M  V30 14728 O 1383.66 -2.62084 5.06624 0
M  V30 14729 O 1382.6 -0.89592 5.95195 0
M  V30 14730 H 1386.42 0.56341 2.98428 0
M  V30 14731 H 1384.01 0.341466 1.45445 0
M  V30 14732 H 1385.89 -1.73523 3.84015 0
M  V30 14733 H 1384.57 -1.85809 2.65059 0
M  V30 14734 H 1383.47 0.1892 3.73621 0
M  V30 14735 H 1384.81 0.229263 4.91666 0
M  V30 14736 N 1386.46 -1.54343 0.318742 0
M  V30 14737 C 1387.87 -1.85922 -0.170309 0
M  V30 14738 C 1388.22 -1.24047 -1.52009 0
M  V30 14739 O 1387.34 -0.544705 -2.09432 0
M  V30 14740 C 1387.94 -3.37325 -0.315802 0
M  V30 14741 C 1386.5 -3.68871 -0.749073 0
M  V30 14742 C 1385.65 -2.76985 0.13209 0
M  V30 14743 H 1388.6 -1.4926 0.539185 0
M  V30 14744 H 1388.62 -3.62784 -1.14751 0
M  V30 14745 H 1388.13 -3.8233 0.66674 0
M  V30 14746 H 1386.23 -3.29396 -1.74153 0
M  V30 14747 H 1386.34 -4.75861 -0.556164 0
M  V30 14748 H 1384.71 -2.51672 -0.391564 0
M  V30 14749 H 1385.49 -3.24815 1.11131 0
M  V30 14750 N 1387.94 -0.0468143 -1.5753 0
M  V30 14751 C 1389.16 0.637648 -1.96829 0
M  V30 14752 C 1389.58 1.64635 -0.924158 0
M  V30 14753 O 1388.94 1.82267 0.0921139 0
M  V30 14754 C 1388.99 1.32842 -3.36207 0
M  V30 14755 O 1388.71 0.360111 -4.36617 0
M  V30 14756 C 1390.21 2.10305 -3.90239 0
M  V30 14757 H 1387.43 0.174634 -0.647876 0
M  V30 14758 H 1389.97 -0.111824 -2.04194 0
M  V30 14759 H 1388.13 2.02915 -3.30006 0
M  V30 14760 H 1388.54 0.852661 -5.17523 0
M  V30 14761 H 1390.02 2.54065 -4.90056 0
M  V30 14762 H 1390.49 2.94942 -3.25432 0
M  V30 14763 H 1391.1 1.45152 -3.99764 0
M  V30 14764 N 1389.41 1.55964 0.226527 0
M  V30 14765 C 1390.64 1.82558 0.967269 0
M  V30 14766 C 1391.05 0.623034 1.78647 0
M  V30 14767 O 1390.4 -0.41779 1.78886 0
M  V30 14768 C 1390.46 3.02812 1.93766 0
M  V30 14769 C 1390.12 4.38017 1.30345 0
M  V30 14770 C 1391.12 5.15223 0.695793 0
M  V30 14771 C 1388.8 4.84735 1.31671 0
M  V30 14772 C 1390.8 6.37305 0.109849 0
M  V30 14773 C 1388.48 6.06761 0.726919 0
M  V30 14774 C 1389.48 6.82886 0.124537 0
M  V30 14775 O 1389.17 8.02605 -0.45609 0
M  V30 14776 H 1388.9 0.610967 0.289301 0
M  V30 14777 H 1391.46 2.03892 0.248407 0
M  V30 14778 H 1389.69 2.77283 2.69538 0
M  V30 14779 H 1391.38 3.16321 2.54353 0
M  V30 14780 H 1392.14 4.80239 0.677912 0
M  V30 14781 H 1388.02 4.2546 1.77496 0
M  V30 14782 H 1391.56 6.96666 -0.360953 0
M  V30 14783 H 1387.46 6.41219 0.742196 0
M  V30 14784 H 1388.23 8.17752 -0.349926 0
M  V30 14785 N 1390.89 -0.493031 1.4969 0
M  V30 14786 C 1392.14 -1.24664 1.59578 0
M  V30 14787 C 1392.47 -1.92385 0.286075 0
M  V30 14788 O 1391.72 -1.81712 -0.726586 0
M  V30 14789 C 1392.02 -2.33014 2.70997 0
M  V30 14790 C 1391.69 -1.82697 4.12229 0
M  V30 14791 C 1390.35 -1.68694 4.50662 0
M  V30 14792 C 1392.7 -1.45127 5.00587 0
M  V30 14793 C 1390.03 -1.15512 5.75216 0
M  V30 14794 C 1392.38 -0.933951 6.25668 0
M  V30 14795 C 1391.05 -0.780378 6.62923 0
M  V30 14796 H 1390.32 -0.456178 0.583937 0
M  V30 14797 H 1392.96 -0.546091 1.83549 0
M  V30 14798 H 1391.27 -3.08889 2.41029 0
M  V30 14799 H 1392.96 -2.91041 2.75855 0
M  V30 14800 H 1389.55 -1.94557 3.81897 0
M  V30 14801 H 1393.74 -1.5479 4.71544 0
M  V30 14802 H 1388.99 -1.0234 6.02774 0
M  V30 14803 H 1393.17 -0.634088 6.93507 0
M  V30 14804 H 1390.8 -0.366111 7.59318 0
M  V30 14805 N 1392.37 -1.38898 -0.744656 0
M  V30 14806 C 1393.6 -1.38647 -1.53169 0
M  V30 14807 C 1394.01 0.0233199 -1.89186 0
M  V30 14808 O 1393.35 1.00261 -1.53927 0
M  V30 14809 C 1393.41 -2.18615 -2.85391 0
M  V30 14810 C 1393.08 -3.67342 -2.71862 0
M  V30 14811 C 1394.07 -4.60638 -2.41057 0
M  V30 14812 C 1391.76 -4.10809 -2.89035 0
M  V30 14813 C 1393.75 -5.95383 -2.27592 0
M  V30 14814 C 1391.44 -5.45632 -2.7519 0
M  V30 14815 C 1392.44 -6.37733 -2.44512 0
M  V30 14816 O 1392.13 -7.70074 -2.30741 0
M  V30 14817 H 1391.86 -0.475741 -0.480257 0
M  V30 14818 H 1394.41 -1.8321 -0.928621 0
M  V30 14819 H 1392.64 -1.68784 -3.47921 0
M  V30 14820 H 1394.33 -2.1066 -3.46954 0
M  V30 14821 H 1395.1 -4.28359 -2.2745 0
M  V30 14822 H 1390.98 -3.39462 -3.11908 0
M  V30 14823 H 1394.52 -6.67237 -2.03569 0
M  V30 14824 H 1390.42 -5.77504 -2.88373 0
M  V30 14825 H 1391.19 -7.80694 -2.45885 0
M  V30 14826 N 1393.85 0.973806 -1.23914 0
M  V30 14827 C 1395.09 1.71852 -1.07678 0
M  V30 14828 C 1395.43 1.90357 0.384425 0
M  V30 14829 O 1394.7 1.46063 1.28436 0
M  V30 14830 C 1394.99 3.1129 -1.81026 0
M  V30 14831 C 1394.84 3.00315 -3.3486 0
M  V30 14832 C 1396.16 4.10835 -1.57805 0
M  V30 14833 H 1393.28 0.623749 -0.392564 0
M  V30 14834 H 1395.92 1.13325 -1.52504 0
M  V30 14835 H 1394.07 3.61255 -1.42922 0
M  V30 14836 H 1395.74 2.57823 -3.82524 0
M  V30 14837 H 1393.98 2.36667 -3.63553 0
M  V30 14838 H 1394.65 3.9907 -3.81376 0
M  V30 14839 H 1397.13 3.69705 -1.90939 0
M  V30 14840 H 1396.01 5.06478 -2.11591 0
M  V30 14841 H 1396.27 4.39091 -0.514894 0
M  V30 14842 N 1395.33 1.05191 1.17357 0
M  V30 14843 C 1396.55 0.782373 1.91537 0
M  V30 14844 C 1396.97 -0.661935 1.76816 0
M  V30 14845 O 1396.33 -1.45221 1.10531 0
M  V30 14846 C 1396.38 1.15357 3.426 0
M  V30 14847 O 1396.1 2.54119 3.56869 0
M  V30 14848 C 1397.6 0.910167 4.33856 0
M  V30 14849 H 1394.82 0.284461 0.607719 0
M  V30 14850 H 1397.36 1.40259 1.48821 0
M  V30 14851 H 1395.52 0.578107 3.83062 0
M  V30 14852 H 1395.93 2.68668 4.50464 0
M  V30 14853 H 1397.41 1.21964 5.38358 0
M  V30 14854 H 1397.88 -0.154624 4.38928 0
M  V30 14855 H 1398.49 1.46947 3.99107 0
M  V30 14856 N 1396.8 -1.33791 0.83293 0
M  V30 14857 C 1398.08 -1.9248 0.347955 0
M  V30 14858 C 1398.46 -1.75978 -1.16597 0
M  V30 14859 O 1397.81 -1.14456 -1.97768 0
M  V30 14860 C 1398.02 -3.3998 0.78831 0
M  V30 14861 C 1399.37 -4.17131 0.7929 0
M  V30 14862 O 1400.39 -3.48607 0.731533 0
M  V30 14863 O 1399.25 -5.39446 0.875223 0
M  V30 14864 H 1396.34 -0.821264 0.0972309 0
M  V30 14865 H 1398.89 -1.42702 0.918387 0
M  V30 14866 H 1397.66 -3.45836 1.83065 0
M  V30 14867 H 1397.29 -3.97126 0.194123 0
M  V30 14868 N 1398.28 -0.588812 -1.46187 0
M  V30 14869 C 1399.51 -0.0824104 -2.06436 0
M  V30 14870 C 1399.92 1.23054 -1.43716 0
M  V30 14871 O 1399.26 1.7562 -0.538825 0
M  V30 14872 C 1399.33 0.151307 -3.59181 0
M  V30 14873 C 1398.99 -1.07697 -4.44129 0
M  V30 14874 C 1399.99 -1.99053 -4.80285 0
M  V30 14875 C 1397.67 -1.30053 -4.85172 0
M  V30 14876 C 1399.67 -3.11108 -5.56319 0
M  V30 14877 C 1397.35 -2.42412 -5.60963 0
M  V30 14878 C 1398.35 -3.32769 -5.96451 0
M  V30 14879 O 1398.04 -4.43175 -6.70709 0
M  V30 14880 H 1397.77 -0.0573231 -0.673565 0
M  V30 14881 H 1400.32 -0.811012 -1.88711 0
M  V30 14882 H 1398.55 0.934591 -3.75236 0
M  V30 14883 H 1400.24 0.606973 -4.01336 0
M  V30 14884 H 1401.01 -1.83 -4.4915 0
M  V30 14885 H 1396.89 -0.606295 -4.56996 0
M  V30 14886 H 1400.43 -3.81659 -5.83937 0
M  V30 14887 H 1396.33 -2.58426 -5.91512 0
M  V30 14888 H 1397.1 -4.4162 -6.8914 0
M  V30 14889 N 1399.76 1.54172 -0.326923 0
M  V30 14890 C 1400.69 2.27402 0.530154 0
M  V30 14891 C 1401.67 1.28325 1.11655 0
M  V30 14892 O 1402.86 1.57142 1.14105 0
M  V30 14893 C 1399.99 3.03435 1.68951 0
M  V30 14894 C 1398.94 4.09877 1.23226 0
M  V30 14895 C 1398.27 4.7377 2.47882 0
M  V30 14896 C 1399.57 5.21161 0.344698 0
M  V30 14897 H 1401.26 2.99291 -0.0806959 0
M  V30 14898 H 1398.81 1.43944 -0.0402511 0
M  V30 14899 H 1400.76 3.53396 2.29541 0
M  V30 14900 H 1399.48 2.29169 2.327 0
M  V30 14901 H 1398.14 3.60805 0.649267 0
M  V30 14902 H 1397.79 3.96116 3.10002 0
M  V30 14903 H 1397.49 5.45674 2.17977 0
M  V30 14904 H 1399.01 5.26507 3.09229 0
M  V30 14905 H 1400.43 5.66859 0.856979 0
M  V30 14906 H 1398.83 5.99941 0.138276 0
M  V30 14907 H 1399.9 4.80874 -0.623575 0
M  V30 14908 N 1401.24 0.0551678 1.57503 0
M  V30 14909 C 1402.52 -0.657808 1.84207 0
M  V30 14910 C 1402.9 -1.88798 0.944372 0
M  V30 14911 O 1402.24 -2.28499 0.00641728 0
M  V30 14912 C 1402.45 -1.0113 3.34026 0
M  V30 14913 C 1403.8 -1.39189 4.01138 0
M  V30 14914 O 1404.83 -1.10353 3.38675 0
M  V30 14915 O 1403.68 -1.93023 5.11277 0
M  V30 14916 H 1400.78 -0.325084 0.760427 0
M  V30 14917 H 1403.32 0.0848352 1.69488 0
M  V30 14918 H 1402.1 -0.13688 3.91061 0
M  V30 14919 H 1401.72 -1.81126 3.53948 0
M  V30 14920 N 1402.72 -1.56081 -0.218252 0
M  V30 14921 C 1403.96 -1.79513 -0.943553 0
M  V30 14922 C 1404.3 -0.625367 -1.83855 0
M  V30 14923 O 1403.57 0.375226 -1.90846 0
M  V30 14924 C 1403.85 -3.13049 -1.77967 0
M  V30 14925 C 1403.71 -4.40479 -0.910939 0
M  V30 14926 C 1405.03 -3.43057 -2.7568 0
M  V30 14927 H 1402.14 -0.653057 -0.341593 0
M  V30 14928 H 1404.79 -1.88811 -0.212226 0
M  V30 14929 H 1402.94 -3.05254 -2.40318 0
M  V30 14930 H 1404.61 -4.60298 -0.303922 0
M  V30 14931 H 1402.85 -4.33259 -0.216513 0
M  V30 14932 H 1403.52 -5.3036 -1.53042 0
M  V30 14933 H 1406 -3.51002 -2.23465 0
M  V30 14934 H 1404.87 -4.37657 -3.31282 0
M  V30 14935 H 1405.14 -2.65389 -3.53584 0
M  V30 14936 N 1404.2 0.485086 -1.49949 0
M  V30 14937 C 1405.61 1.06629 -1.53255 0
M  V30 14938 C 1405.96 1.9344 -0.327915 0
M  V30 14939 O 1405.08 2.09011 0.560669 0
M  V30 14940 C 1405.68 1.94053 -2.77721 0
M  V30 14941 C 1404.24 2.47307 -2.83754 0
M  V30 14942 C 1403.38 1.25307 -2.47373 0
M  V30 14943 H 1406.33 0.268297 -1.56416 0
M  V30 14944 H 1406.36 2.78946 -2.58784 0
M  V30 14945 H 1405.87 1.30843 -3.65379 0
M  V30 14946 H 1403.97 3.1411 -2.00414 0
M  V30 14947 H 1404.08 2.83371 -3.86313 0
M  V30 14948 H 1402.45 1.5834 -1.99501 0
M  V30 14949 H 1403.23 0.637815 -3.37323 0
M  V30 14950 N 1405.67 1.39291 0.737279 0
M  V30 14951 C 1406.9 1.39844 1.53162 0
M  V30 14952 C 1407.32 -0.00568546 1.88099 0
M  V30 14953 O 1406.68 -0.992085 1.51748 0
M  V30 14954 C 1406.73 2.27577 2.79716 0
M  V30 14955 O 1405.83 1.70408 3.75546 0
M  V30 14956 H 1405.17 0.476314 0.462624 0
M  V30 14957 H 1407.7 1.83258 0.909819 0
M  V30 14958 H 1407.71 2.42009 3.28475 0
M  V30 14959 H 1406.39 3.29621 2.53619 0
M  V30 14960 H 1404.97 1.65206 3.34307 0
M  V30 14961 N 1407.15 -0.967221 1.24429 0
M  V30 14962 C 1408.1 -2.08315 1.03478 0
M  V30 14963 C 1409.09 -1.69373 -0.0304332 0
M  V30 14964 O 1410.3 -1.79571 0.124162 0
M  V30 14965 H 1406.67 -0.681638 0.317605 0
M  V30 14966 H 1408.65 -2.23148 1.9811 0
M  V30 14967 C 1407.39 -3.41441 0.656778 0
M  V30 14968 H 1406.72 -3.71865 1.4682 0
M  V30 14969 H 1408.16 -4.2042 0.549791 0
M  V30 14970 C 1406.62 -3.30839 -0.636154 0
M  V30 14971 O 1407.15 -3.64802 -1.68175 0
M  V30 14972 N 1405.35 -2.83973 -0.617052 0
M  V30 14973 H 1404.9 -2.56533 0.234179 0
M  V30 14974 H 1404.86 -2.77262 -1.48233 0
M  V30 14975 N 1408.63 -1.05812 -1.16797 0
M  V30 14976 C 1409.88 -0.767008 -1.86547 0
M  V30 14977 C 1410.19 0.708979 -1.82299 0
M  V30 14978 O 1411.4 1.11428 -2.4758 0
M  V30 14979 C 1409.85 -1.32186 -3.34746 0
M  V30 14980 C 1409.46 -2.82774 -3.4748 0
M  V30 14981 C 1411.21 -1.10808 -4.09783 0
M  V30 14982 C 1409.11 -3.31529 -4.89737 0
M  V30 14983 H 1408.04 -0.283235 -0.698781 0
M  V30 14984 H 1410.69 -1.27621 -1.31853 0
M  V30 14985 H 1409.08 -0.740453 -3.89016 0
M  V30 14986 H 1410.25 -3.46825 -3.03396 0
M  V30 14987 H 1408.56 -3.02765 -2.85871 0
M  V30 14988 H 1411.16 -1.44728 -5.14741 0
M  V30 14989 H 1411.5 -0.046167 -4.16274 0
M  V30 14990 H 1412.04 -1.65502 -3.61737 0
M  V30 14991 H 1408.78 -4.37177 -4.88422 0
M  V30 14992 H 1408.3 -2.72224 -5.34466 0
M  V30 14993 H 1409.98 -3.26572 -5.58534 0
M  V30 14994 N 1410.11 1.33347 -0.840014 0
M  V30 14995 C 1411.07 2.27492 -0.279264 0
M  V30 14996 C 1412.07 1.51004 0.552669 0
M  V30 14997 O 1413.26 1.70305 0.366295 0
M  V30 14998 C 1410.39 3.35462 0.606466 0
M  V30 14999 H 1411.59 2.78601 -1.11001 0
M  V30 15000 H 1409.14 1.4377 -0.613187 0
M  V30 15001 H 1409.87 2.89596 1.45961 0
M  V30 15002 H 1409.66 3.92098 0.0111889 0
M  V30 15003 H 1411.15 4.05645 0.992052 0
M  V30 15004 N 1411.59 0.596556 1.45873 0
M  V30 15005 C 1412.53 -0.128713 2.30441 0
M  V30 15006 C 1413.5 -0.870727 1.41448 0
M  V30 15007 O 1414.69 -0.858654 1.70387 0
M  V30 15008 C 1411.83 -1.1274 3.26165 0
M  V30 15009 C 1410.94 -0.387403 4.30259 0
M  V30 15010 C 1410.08 -1.37484 5.131 0
M  V30 15011 C 1409.11 -0.622025 6.08931 0
M  V30 15012 N 1408.25 -1.5582 6.84591 0
M  V30 15013 H 1413.09 0.598466 2.91929 0
M  V30 15014 H 1410.63 0.306936 1.43862 0
M  V30 15015 H 1412.59 -1.71943 3.8012 0
M  V30 15016 H 1411.22 -1.82213 2.66455 0
M  V30 15017 H 1410.27 0.319929 3.79052 0
M  V30 15018 H 1411.58 0.200477 4.98397 0
M  V30 15019 H 1410.73 -2.03926 5.71401 0
M  V30 15020 H 1409.47 -1.99665 4.44955 0
M  V30 15021 H 1408.48 0.0560936 5.49771 0
M  V30 15022 H 1409.7 -0.00541426 6.791 0
M  V30 15023 H 1407.65 -2.16786 6.19145 0
M  V30 15024 H 1407.57 -1.02347 7.4904 0
M  V30 15025 H 1408.83 -2.21254 7.4744 0
M  V30 15026 N 1413.06 -1.53996 0.335095 0
M  V30 15027 C 1414.31 -1.99952 -0.264954 0
M  V30 15028 C 1414.63 -1.22696 -1.52332 0
M  V30 15029 O 1415.83 -1.59086 -2.20009 0
M  V30 15030 C 1414.29 -3.56085 -0.522667 0
M  V30 15031 C 1413.9 -4.42188 0.719314 0
M  V30 15032 C 1415.64 -4.10478 -1.08204 0
M  V30 15033 C 1413.55 -5.89814 0.432867 0
M  V30 15034 H 1412.48 -0.746962 -0.102782 0
M  V30 15035 H 1415.13 -1.77919 0.449111 0
M  V30 15036 H 1413.51 -3.7415 -1.29722 0
M  V30 15037 H 1414.68 -4.35898 1.49432 0
M  V30 15038 H 1413 -3.98743 1.19972 0
M  V30 15039 H 1415.6 -5.18375 -1.31116 0
M  V30 15040 H 1415.94 -3.63173 -2.03497 0
M  V30 15041 H 1416.47 -3.96091 -0.368395 0
M  V30 15042 H 1413.21 -6.41336 1.35529 0
M  V30 15043 H 1412.73 -5.99028 -0.304214 0
M  V30 15044 H 1414.41 -6.46983 0.0469657 0
M  V30 15045 N 1414.54 -0.0635198 -1.57472 0
M  V30 15046 C 1415.79 0.607008 -1.92349 0
M  V30 15047 C 1416.1 1.71268 -0.944806 0
M  V30 15048 O 1417.31 2.44221 -1.18609 0
M  V30 15049 C 1415.77 1.13105 -3.41666 0
M  V30 15050 C 1415.37 0.0568256 -4.47964 0
M  V30 15051 C 1417.12 1.77611 -3.85557 0
M  V30 15052 C 1415.02 0.594443 -5.88405 0
M  V30 15053 H 1413.95 0.230506 -0.717902 0
M  V30 15054 H 1416.61 -0.134413 -1.83007 0
M  V30 15055 H 1414.99 1.92517 -3.46054 0
M  V30 15056 H 1416.16 -0.717371 -4.55182 0
M  V30 15057 H 1414.48 -0.491517 -4.13489 0
M  V30 15058 H 1417.07 2.18852 -4.87861 0
M  V30 15059 H 1417.42 2.6328 -3.22474 0
M  V30 15060 H 1417.95 1.04834 -3.83738 0
M  V30 15061 H 1414.69 -0.224893 -6.55114 0
M  V30 15062 H 1414.21 1.33635 -5.84724 0
M  V30 15063 H 1415.89 1.07346 -6.38033 0
M  V30 15064 N 1416.02 1.56195 0.209972 0
M  V30 15065 C 1417.27 1.78941 0.930744 0
M  V30 15066 C 1417.58 0.634139 1.85035 0
M  V30 15067 O 1418.79 0.745524 2.61064 0
M  V30 15068 C 1417.24 3.16935 1.70529 0
M  V30 15069 C 1416.85 4.40221 0.83125 0
M  V30 15070 C 1418.6 3.49 2.41659 0
M  V30 15071 C 1416.5 5.69238 1.60381 0
M  V30 15072 H 1415.43 0.667176 0.351273 0
M  V30 15073 H 1418.08 1.82572 0.184341 0
M  V30 15074 H 1416.47 3.07513 2.49503 0
M  V30 15075 H 1417.64 4.60728 0.081227 0
M  V30 15076 H 1415.95 4.15756 0.231517 0
M  V30 15077 H 1418.55 4.42623 2.99982 0
M  V30 15078 H 1418.89 2.72042 3.15117 0
M  V30 15079 H 1419.43 3.59804 1.69665 0
M  V30 15080 H 1416.17 6.49121 0.912292 0
M  V30 15081 H 1415.69 5.52772 2.32815 0
M  V30 15082 H 1417.37 6.09827 2.16149 0
M  V30 15083 N 1417.5 -0.477127 1.50204 0
M  V30 15084 C 1418.75 -1.22722 1.60573 0
M  V30 15085 C 1419.07 -1.92595 0.305326 0
M  V30 15086 O 1418.34 -1.83836 -0.676842 0
M  V30 15087 H 1416.92 -0.455973 0.591691 0
M  V30 15088 H 1419.58 -0.550915 1.86952 0
M  V30 15089 H 1418.67 -1.97837 2.41385 0
M  V30 15090 N 1418.98 -1.3968 -0.729882 0
M  V30 15091 C 1420.39 -1.33184 -1.30839 0
M  V30 15092 C 1420.74 0.00141129 -1.962 0
M  V30 15093 O 1419.86 0.903523 -1.96635 0
M  V30 15094 C 1420.46 -2.41211 -2.37913 0
M  V30 15095 C 1419.02 -2.3822 -2.91424 0
M  V30 15096 C 1418.16 -2.22832 -1.65049 0
M  V30 15097 H 1421.12 -1.49694 -0.527023 0
M  V30 15098 H 1421.14 -2.08294 -3.18424 0
M  V30 15099 H 1420.65 -3.38234 -1.90313 0
M  V30 15100 H 1418.75 -1.4485 -3.43292 0
M  V30 15101 H 1418.86 -3.33271 -3.44191 0
M  V30 15102 H 1417.23 -1.70095 -1.89578 0
M  V30 15103 H 1418.01 -3.21832 -1.19494 0
M  V30 15104 N 1420.45 0.960609 -1.2494 0
M  V30 15105 C 1421.38 2.074 -1.07274 0
M  V30 15106 C 1422.37 1.70092 0.0164365 0
M  V30 15107 O 1423.55 1.93604 -0.151975 0
M  V30 15108 C 1420.68 3.40491 -0.684317 0
M  V30 15109 C 1419.63 3.91784 -1.72306 0
M  V30 15110 C 1418.96 5.21301 -1.18949 0
M  V30 15111 C 1420.26 4.18829 -3.12056 0
M  V30 15112 H 1421.95 2.22438 -2.00404 0
M  V30 15113 H 1419.5 1.06888 -0.964937 0
M  V30 15114 H 1421.45 4.17826 -0.547686 0
M  V30 15115 H 1420.18 3.25374 0.282687 0
M  V30 15116 H 1418.84 3.16613 -1.84802 0
M  V30 15117 H 1418.48 5.02549 -0.212892 0
M  V30 15118 H 1418.18 5.56588 -1.8837 0
M  V30 15119 H 1419.71 6.01238 -1.06513 0
M  V30 15120 H 1421.12 4.86844 -3.02748 0
M  V30 15121 H 1419.52 4.6536 -3.78894 0
M  V30 15122 H 1420.59 3.25333 -3.59564 0
M  V30 15123 N 1421.93 1.0643 1.16234 0
M  V30 15124 C 1423.18 0.77689 1.86138 0
M  V30 15125 C 1423.49 -0.699301 1.82672 0
M  V30 15126 O 1424.7 -1.10113 2.48168 0
M  V30 15127 C 1423.16 1.3396 3.3404 0
M  V30 15128 C 1422.76 2.84613 3.45976 0
M  V30 15129 C 1424.51 1.12979 4.09189 0
M  V30 15130 C 1422.42 3.34122 4.87972 0
M  V30 15131 H 1421.35 0.286936 0.697269 0
M  V30 15132 H 1424 1.28318 1.31174 0
M  V30 15133 H 1422.38 0.761073 3.88618 0
M  V30 15134 H 1423.55 3.48429 3.01552 0
M  V30 15135 H 1421.87 3.04277 2.84262 0
M  V30 15136 H 1424.46 1.47456 5.13966 0
M  V30 15137 H 1424.81 0.0682424 4.16244 0
M  V30 15138 H 1425.34 1.67418 3.60855 0
M  V30 15139 H 1422.08 4.39761 4.86097 0
M  V30 15140 H 1421.6 2.75055 5.33015 0
M  V30 15141 H 1423.28 3.29529 5.56794 0
M  V30 15142 N 1423.41 -1.329 0.847073 0
M  V30 15143 C 1424.66 -1.9751 0.446755 0
M  V30 15144 C 1424.99 -1.67069 -0.995905 0
M  V30 15145 O 1424.24 -0.947232 -1.71248 0
M  V30 15146 C 1424.54 -3.51913 0.623845 0
M  V30 15147 C 1424.21 -4.02324 2.03583 0
M  V30 15148 C 1422.87 -4.15802 2.42203 0
M  V30 15149 C 1425.22 -4.29147 2.95774 0
M  V30 15150 C 1422.55 -4.53441 3.72301 0
M  V30 15151 C 1424.9 -4.68242 4.25362 0
M  V30 15152 C 1423.56 -4.79925 4.63927 0
M  V30 15153 H 1422.83 -0.722742 0.163479 0
M  V30 15154 H 1425.48 -1.58435 1.07567 0
M  V30 15155 H 1423.79 -3.917 -0.0883447 0
M  V30 15156 H 1425.48 -3.99919 0.294268 0
M  V30 15157 H 1422.07 -3.92314 1.72591 0
M  V30 15158 H 1426.26 -4.1825 2.67171 0
M  V30 15159 H 1421.51 -4.60681 4.01974 0
M  V30 15160 H 1425.69 -4.87952 4.96866 0
M  V30 15161 H 1423.31 -5.08847 5.64782 0
M  V30 15162 N 1424.89 -0.604284 -1.45555 0
M  V30 15163 C 1426.13 -0.0983316 -2.02561 0
M  V30 15164 C 1426.47 1.26659 -1.47211 0
M  V30 15165 O 1425.74 1.83476 -0.645519 0
M  V30 15166 C 1426.03 -0.0558349 -3.60057 0
M  V30 15167 C 1425.88 -1.45119 -4.25747 0
M  V30 15168 C 1427.2 0.633708 -4.35514 0
M  V30 15169 H 1424.32 -0.0372071 -0.73606 0
M  V30 15170 H 1426.96 -0.775623 -1.73448 0
M  V30 15171 H 1425.11 0.520935 -3.84992 0
M  V30 15172 H 1426.78 -2.07478 -4.12008 0
M  V30 15173 H 1425.02 -2.01283 -3.84275 0
M  V30 15174 H 1425.69 -1.37372 -5.34633 0
M  V30 15175 H 1428.17 0.143501 -4.15852 0
M  V30 15176 H 1427.05 0.632538 -5.45243 0
M  V30 15177 H 1427.31 1.69917 -4.08143 0
M  V30 15178 N 1426.37 1.53816 -0.343257 0
M  V30 15179 C 1427.61 2.00909 0.253346 0
M  V30 15180 C 1427.94 1.23109 1.5058 0
M  V30 15181 O 1427.2 0.306682 1.93282 0
M  V30 15182 C 1427.5 3.521 0.613243 0
M  V30 15183 C 1427.16 4.47627 -0.5423 0
M  V30 15184 C 1425.82 4.73463 -0.859418 0
M  V30 15185 C 1428.18 5.04272 -1.31754 0
M  V30 15186 C 1425.5 5.532 -1.95415 0
M  V30 15187 C 1427.86 5.85203 -2.40251 0
M  V30 15188 C 1426.52 6.09334 -2.72523 0
M  V30 15189 H 1425.79 0.735178 0.0927058 0
M  V30 15190 H 1428.44 1.85615 -0.471111 0
M  V30 15191 H 1426.74 3.65224 1.41841 0
M  V30 15192 H 1428.44 3.85994 1.08673 0
M  V30 15193 H 1425.03 4.27651 -0.285076 0
M  V30 15194 H 1429.21 4.84277 -1.0858 0
M  V30 15195 H 1424.47 5.70122 -2.20842 0
M  V30 15196 H 1428.64 6.28109 -3.00753 0
M  V30 15197 H 1426.27 6.70906 -3.57476 0
M  V30 15198 N 1427.84 0.0718701 1.57436 0
M  V30 15199 C 1428.77 -0.89288 2.15754 0
M  V30 15200 C 1429.76 -1.31036 1.0846 0
M  V30 15201 O 1430.94 -1.38139 1.36496 0
M  V30 15202 C 1428.07 -2.16044 2.71923 0
M  V30 15203 C 1427.02 -1.88236 3.84384 0
M  V30 15204 C 1426.35 -3.21624 4.27156 0
M  V30 15205 C 1427.65 -1.18758 5.0862 0
M  V30 15206 H 1429.34 -0.407061 2.9662 0
M  V30 15207 H 1426.89 -0.194354 1.42682 0
M  V30 15208 H 1428.84 -2.83952 3.11366 0
M  V30 15209 H 1427.57 -2.66868 1.88279 0
M  V30 15210 H 1426.23 -1.22734 3.45445 0
M  V30 15211 H 1425.87 -3.70289 3.40433 0
M  V30 15212 H 1425.57 -3.03809 5.02965 0
M  V30 15213 H 1427.1 -3.90729 4.69215 0
M  V30 15214 H 1428.51 -1.76735 5.45378 0
M  V30 15215 H 1426.91 -1.11201 5.89707 0
M  V30 15216 H 1427.98 -0.166682 4.84613 0
M  V30 15217 N 1429.32 -1.56304 -0.201686 0
M  V30 15218 C 1430.57 -1.80237 -0.923093 0
M  V30 15219 C 1430.9 -0.643994 -1.83529 0
M  V30 15220 O 1430.15 0.370613 -1.92159 0
M  V30 15221 C 1430.45 -3.10101 -1.77686 0
M  V30 15222 C 1430.12 -4.393 -1.0162 0
M  V30 15223 C 1428.78 -4.74399 -0.806161 0
M  V30 15224 C 1431.13 -5.1898 -0.480515 0
M  V30 15225 C 1428.46 -5.8668 -0.0488423 0
M  V30 15226 C 1430.81 -6.32051 0.26356 0
M  V30 15227 C 1429.48 -6.65738 0.484679 0
M  V30 15228 H 1428.75 -0.659533 -0.337784 0
M  V30 15229 H 1431.39 -1.90556 -0.189895 0
M  V30 15230 H 1429.7 -2.9499 -2.57853 0
M  V30 15231 H 1431.39 -3.25823 -2.33753 0
M  V30 15232 H 1427.98 -4.11751 -1.18992 0
M  V30 15233 H 1432.17 -4.92283 -0.630208 0
M  V30 15234 H 1427.42 -6.11256 0.13251 0
M  V30 15235 H 1431.6 -6.93012 0.686058 0
M  V30 15236 H 1429.23 -7.52583 1.07341 0
M  V30 15237 N 1430.8 0.469154 -1.50455 0
M  V30 15238 C 1432.03 1.24899 -1.65575 0
M  V30 15239 C 1432.45 1.85009 -0.339581 0
M  V30 15240 O 1431.81 1.67376 0.696774 0
M  V30 15241 C 1431.86 2.33205 -2.75041 0
M  V30 15242 O 1430.96 3.37898 -2.36429 0
M  V30 15243 H 1430.3 0.367362 -0.553119 0
M  V30 15244 H 1432.83 0.558083 -1.96842 0
M  V30 15245 H 1432.84 2.78487 -2.98176 0
M  V30 15246 H 1431.52 1.88826 -3.70564 0
M  V30 15247 H 1430.09 2.98314 -2.23748 0
M  V30 15248 N 1432.28 1.40065 0.722464 0
M  V30 15249 C 1433.52 1.38175 1.48444 0
M  V30 15250 C 1433.86 -0.0182857 1.94191 0
M  V30 15251 O 1433.13 -0.985638 1.67677 0
M  V30 15252 C 1433.42 2.36518 2.71535 0
M  V30 15253 C 1433.27 3.85517 2.31726 0
M  V30 15254 C 1434.59 2.325 3.73673 0
M  V30 15255 H 1431.71 0.503221 0.538458 0
M  V30 15256 H 1434.35 1.7115 0.825087 0
M  V30 15257 H 1432.5 2.08529 3.27793 0
M  V30 15258 H 1434.17 4.24306 1.81003 0
M  V30 15259 H 1432.41 4.01684 1.63807 0
M  V30 15260 H 1433.08 4.49834 3.19928 0
M  V30 15261 H 1435.56 2.57277 3.27029 0
M  V30 15262 H 1434.44 3.03369 4.57447 0
M  V30 15263 H 1434.7 1.33427 4.21485 0
M  V30 15264 N 1433.76 -0.95397 1.25448 0
M  V30 15265 C 1435 -1.70118 1.10399 0
M  V30 15266 C 1435.34 -1.90945 -0.354093 0
M  V30 15267 O 1434.61 -1.48088 -1.26096 0
M  V30 15268 C 1434.89 -3.08371 1.85955 0
M  V30 15269 C 1434.75 -2.9495 3.39595 0
M  V30 15270 C 1436.07 -4.08273 1.64321 0
M  V30 15271 H 1433.19 -0.617424 0.402438 0
M  V30 15272 H 1435.83 -1.10884 1.54288 0
M  V30 15273 H 1433.98 -3.58936 1.48651 0
M  V30 15274 H 1435.65 -2.51705 3.86578 0
M  V30 15275 H 1433.89 -2.30853 3.67273 0
M  V30 15276 H 1434.56 -3.92952 3.87676 0
M  V30 15277 H 1437.04 -3.6662 1.96796 0
M  V30 15278 H 1435.92 -5.03048 2.19622 0
M  V30 15279 H 1436.18 -4.38217 0.584685 0
M  V30 15280 N 1435.24 -1.07045 -1.15668 0
M  V30 15281 C 1436.48 -0.786751 -1.85723 0
M  V30 15282 C 1436.8 0.689604 -1.83041 0
M  V30 15283 O 1438 1.08796 -2.48748 0
M  V30 15284 C 1436.46 -1.35729 -3.33325 0
M  V30 15285 C 1436.07 -2.86444 -3.44462 0
M  V30 15286 C 1437.81 -1.15148 -4.08584 0
M  V30 15287 C 1435.72 -3.36705 -4.86193 0
M  V30 15288 H 1434.65 -0.29063 -0.695737 0
M  V30 15289 H 1437.3 -1.29012 -1.30492 0
M  V30 15290 H 1435.68 -0.781671 -3.88209 0
M  V30 15291 H 1436.86 -3.50023 -2.997 0
M  V30 15292 H 1435.17 -3.0578 -2.82644 0
M  V30 15293 H 1437.77 -1.50179 -5.13177 0
M  V30 15294 H 1438.11 -0.0903159 -4.16202 0
M  V30 15295 H 1438.64 -1.6933 -3.59962 0
M  V30 15296 H 1435.38 -4.42333 -4.83758 0
M  V30 15297 H 1434.9 -2.77877 -5.31549 0
M  V30 15298 H 1436.58 -3.32478 -5.55038 0
M  V30 15299 N 1436.71 1.32449 -0.85411 0
M  V30 15300 C 1437.96 1.96881 -0.45632 0
M  V30 15301 C 1438.28 1.67926 0.991248 0
M  V30 15302 O 1437.55 0.986195 1.69266 0
M  V30 15303 H 1436.13 0.728378 -0.165752 0
M  V30 15304 H 1438.79 1.61542 -1.09042 0
M  V30 15305 H 1437.89 3.0626 -0.600927 0
M  V30 15306 N 1438.19 0.611994 1.45232 0
M  V30 15307 C 1439.42 0.113618 2.07089 0
M  V30 15308 C 1439.84 -1.1947 1.45288 0
M  V30 15309 O 1439.2 -1.72845 0.547207 0
M  V30 15310 C 1439.25 -0.00789978 3.60599 0
M  V30 15311 O 1438.35 -1.05697 3.98625 0
M  V30 15312 H 1437.69 0.076066 0.659629 0
M  V30 15313 H 1440.22 0.843253 1.86415 0
M  V30 15314 H 1440.23 -0.204692 4.07486 0
M  V30 15315 H 1438.91 0.947386 4.04966 0
M  V30 15316 H 1437.48 -0.836291 3.63401 0
M  V30 15317 N 1439.67 -1.53632 0.351409 0
M  V30 15318 C 1440.92 -2.00222 -0.243731 0
M  V30 15319 C 1441.23 -1.24305 -1.51022 0
M  V30 15320 O 1442.44 -1.61411 -2.18309 0
M  V30 15321 C 1440.89 -3.56619 -0.48487 0
M  V30 15322 C 1440.5 -4.414 0.766173 0
M  V30 15323 C 1442.25 -4.11603 -1.03844 0
M  V30 15324 C 1440.15 -5.89321 0.4954 0
M  V30 15325 H 1439.08 -0.74801 -0.0948534 0
M  V30 15326 H 1441.73 -1.77433 0.467957 0
M  V30 15327 H 1440.12 -3.75505 -1.25746 0
M  V30 15328 H 1441.29 -4.34288 1.54047 0
M  V30 15329 H 1439.6 -3.97448 1.24194 0
M  V30 15330 H 1442.2 -5.19736 -1.25611 0
M  V30 15331 H 1442.54 -3.65311 -1.99634 0
M  V30 15332 H 1443.08 -3.96459 -0.326363 0
M  V30 15333 H 1439.82 -6.39863 1.42324 0
M  V30 15334 H 1439.34 -5.99317 -0.240662 0
M  V30 15335 H 1441.02 -6.46897 0.115584 0
M  V30 15336 N 1441.15 -0.0802183 -1.57396 0
M  V30 15337 C 1442.38 0.59489 -1.9785 0
M  V30 15338 C 1442.79 1.63174 -0.957641 0
M  V30 15339 O 1442.13 1.83592 0.0629632 0
M  V30 15340 C 1442.19 1.31367 -3.34639 0
M  V30 15341 C 1441.85 0.429303 -4.54979 0
M  V30 15342 C 1442.85 -0.316537 -5.18935 0
M  V30 15343 C 1440.54 0.351714 -5.01067 0
M  V30 15344 C 1442.53 -1.1281 -6.27338 0
M  V30 15345 C 1440.22 -0.463513 -6.0934 0
M  V30 15346 C 1441.22 -1.20208 -6.72338 0
M  V30 15347 O 1440.9 -2.00385 -7.78525 0
M  V30 15348 H 1440.64 0.165331 -0.655471 0
M  V30 15349 H 1443.19 -0.151697 -2.04839 0
M  V30 15350 H 1441.42 2.10651 -3.24289 0
M  V30 15351 H 1443.11 1.88184 -3.59641 0
M  V30 15352 H 1443.87 -0.266237 -4.84269 0
M  V30 15353 H 1439.75 0.916218 -4.51804 0
M  V30 15354 H 1443.3 -1.70508 -6.76441 0
M  V30 15355 H 1439.19 -0.515347 -6.4344 0
M  V30 15356 H 1439.96 -1.92907 -7.95443 0
M  V30 15357 N 1442.63 1.56409 0.193394 0
M  V30 15358 C 1443.56 1.97707 1.24234 0
M  V30 15359 C 1444.54 0.849286 1.47381 0
M  V30 15360 O 1445.72 1.11374 1.59089 0
M  V30 15361 C 1442.85 2.31804 2.5862 0
M  V30 15362 C 1441.81 3.47337 2.50082 0
M  V30 15363 C 1441.13 3.67114 3.88756 0
M  V30 15364 C 1442.43 4.81472 2.02441 0
M  V30 15365 H 1444.13 2.8558 0.89914 0
M  V30 15366 H 1441.67 1.37396 0.431078 0
M  V30 15367 H 1443.62 2.5929 3.32185 0
M  V30 15368 H 1442.35 1.40816 2.94684 0
M  V30 15369 H 1441.01 3.19944 1.78973 0
M  V30 15370 H 1440.66 2.73454 4.22175 0
M  V30 15371 H 1440.36 4.44838 3.83918 0
M  V30 15372 H 1441.88 3.96978 4.6394 0
M  V30 15373 H 1443.29 5.07978 2.65766 0
M  V30 15374 H 1441.69 5.62677 2.08601 0
M  V30 15375 H 1442.76 4.74941 0.977704 0
M  V30 15376 N 1444.1 -0.461169 1.50702 0
M  V30 15377 C 1445.35 -1.21251 1.62186 0
M  V30 15378 C 1445.68 -1.91735 0.326818 0
M  V30 15379 O 1444.93 -1.83212 -0.687879 0
M  V30 15380 C 1445.23 -2.27213 2.75879 0
M  V30 15381 C 1444.9 -1.73912 4.16011 0
M  V30 15382 C 1443.56 -1.59097 4.54138 0
M  V30 15383 C 1445.91 -1.34477 5.03553 0
M  V30 15384 C 1443.24 -1.03285 5.77537 0
M  V30 15385 C 1445.59 -0.801027 6.27508 0
M  V30 15386 C 1444.26 -0.639586 6.64429 0
M  V30 15387 H 1443.53 -0.443689 0.593482 0
M  V30 15388 H 1446.17 -0.507035 1.84666 0
M  V30 15389 H 1444.48 -3.03707 2.47526 0
M  V30 15390 H 1446.18 -2.85124 2.81967 0
M  V30 15391 H 1442.77 -1.86413 3.85938 0
M  V30 15392 H 1446.95 -1.44753 4.74721 0
M  V30 15393 H 1442.21 -0.895316 6.04809 0
M  V30 15394 H 1446.38 -0.486842 6.94696 0
M  V30 15395 H 1444.01 -0.204966 7.59924 0
M  V30 15396 N 1445.58 -1.40446 -0.715026 0
M  V30 15397 C 1446.51 -1.43511 -1.84193 0
M  V30 15398 C 1447.49 -0.295969 -1.67505 0
M  V30 15399 O 1448.68 -0.504667 -1.87528 0
M  V30 15400 C 1445.81 -1.29751 -3.22152 0
M  V30 15401 C 1444.76 -2.41274 -3.53512 0
M  V30 15402 C 1444.09 -2.12591 -4.90621 0
M  V30 15403 C 1445.39 -3.83614 -3.54454 0
M  V30 15404 H 1447.08 -2.37819 -1.81885 0
M  V30 15405 H 1444.63 -1.14469 -0.873655 0
M  V30 15406 H 1446.58 -1.30511 -4.0068 0
M  V30 15407 H 1445.3 -0.319189 -3.25037 0
M  V30 15408 H 1443.96 -2.39764 -2.77324 0
M  V30 15409 H 1443.61 -1.13148 -4.90109 0
M  V30 15410 H 1443.31 -2.87308 -5.1257 0
M  V30 15411 H 1444.84 -2.15034 -5.71483 0
M  V30 15412 H 1446.25 -3.86945 -4.23021 0
M  V30 15413 H 1444.65 -4.57855 -3.87929 0
M  V30 15414 H 1445.72 -4.13159 -2.53827 0
M  V30 15415 N 1447.06 0.947303 -1.25952 0
M  V30 15416 C 1448.48 1.21972 -1.02932 0
M  V30 15417 C 1448.68 1.99951 0.249333 0
M  V30 15418 O 1447.73 2.33534 0.960108 0
M  V30 15419 C 1449.04 1.98695 -2.257 0
M  V30 15420 C 1450.59 2.11711 -2.30538 0
M  V30 15421 C 1451.07 2.91835 -3.52982 0
M  V30 15422 N 1452.56 2.99411 -3.53422 0
M  V30 15423 C 1453.29 3.6182 -4.4483 0
M  V30 15424 N 1452.79 4.25781 -5.46519 0
M  V30 15425 N 1454.58 3.59033 -4.32495 0
M  V30 15426 H 1446.73 0.42583 -2.08088 0
M  V30 15427 H 1449 0.250899 -0.914196 0
M  V30 15428 H 1448.7 1.48801 -3.18671 0
M  V30 15429 H 1448.58 2.9938 -2.29459 0
M  V30 15430 H 1450.96 2.608 -1.38085 0
M  V30 15431 H 1451.04 1.10308 -2.30794 0
M  V30 15432 H 1450.69 2.43435 -4.4576 0
M  V30 15433 H 1450.62 3.9348 -3.49973 0
M  V30 15434 H 1453.11 2.53934 -2.79868 0
M  V30 15435 H 1453.42 4.71281 -6.12466 0
M  V30 15436 H 1451.77 4.24386 -5.50383 0
M  V30 15437 H 1454.96 3.08254 -3.52274 0
M  V30 15438 H 1455.13 4.07384 -5.03927 0
M  V30 15439 N 1448.54 1.07657 1.15099 0
M  V30 15440 C 1449.49 0.699678 2.19939 0
M  V30 15441 C 1450.46 -0.310432 1.63173 0
M  V30 15442 O 1451.64 -0.196177 1.89789 0
M  V30 15443 C 1448.78 0.106963 3.44934 0
M  V30 15444 C 1447.89 1.16892 4.15885 0
M  V30 15445 C 1447.03 0.540884 5.28439 0
M  V30 15446 C 1446.07 1.58542 5.91211 0
M  V30 15447 N 1445.2 0.979731 6.95231 0
M  V30 15448 H 1450.04 1.59805 2.51528 0
M  V30 15449 H 1447.58 0.798746 1.23525 0
M  V30 15450 H 1449.54 -0.254335 4.16424 0
M  V30 15451 H 1448.17 -0.754756 3.13852 0
M  V30 15452 H 1447.22 1.64775 3.4286 0
M  V30 15453 H 1448.53 1.96078 4.58645 0
M  V30 15454 H 1447.69 0.127397 6.06566 0
M  V30 15455 H 1446.43 -0.282708 4.8688 0
M  V30 15456 H 1445.43 2.00865 5.11794 0
M  V30 15457 H 1446.66 2.41135 6.34847 0
M  V30 15458 H 1444.6 0.177098 6.55761 0
M  V30 15459 H 1444.52 1.70878 7.36435 0
M  V30 15460 H 1445.79 0.591849 7.7725 0
M  V30 15461 N 1450.02 -1.31994 0.861122 0
M  V30 15462 C 1451.43 -1.49756 0.551844 0
M  V30 15463 C 1451.63 -1.79473 -0.916056 0
M  V30 15464 O 1450.69 -1.86813 -1.69874 0
M  V30 15465 C 1452 -2.63737 1.44442 0
M  V30 15466 C 1453.55 -2.77621 1.44552 0
M  V30 15467 C 1454.02 -3.94689 2.32346 0
M  V30 15468 N 1455.52 -4.01961 2.30177 0
M  V30 15469 C 1456.25 -4.91794 2.94833 0
M  V30 15470 N 1455.75 -5.86589 3.68626 0
M  V30 15471 N 1457.54 -4.84968 2.84188 0
M  V30 15472 H 1449.69 -1.10972 1.81105 0
M  V30 15473 H 1451.95 -0.54753 0.773896 0
M  V30 15474 H 1451.66 -2.48526 2.48853 0
M  V30 15475 H 1451.53 -3.59671 1.13651 0
M  V30 15476 H 1453.92 -2.92251 0.409034 0
M  V30 15477 H 1454 -1.8238 1.79363 0
M  V30 15478 H 1453.65 -3.80817 3.36067 0
M  V30 15479 H 1453.58 -4.89219 1.94865 0
M  V30 15480 H 1456.07 -3.34132 1.76533 0
M  V30 15481 H 1456.38 -6.51846 4.15111 0
M  V30 15482 H 1454.72 -5.86596 3.72734 0
M  V30 15483 H 1457.92 -4.09883 2.26084 0
M  V30 15484 H 1458.09 -5.54774 3.34857 0
M  V30 15485 N 1451.49 -0.619688 -1.44906 0
M  V30 15486 C 1452.43 0.130316 -2.28829 0
M  V30 15487 C 1453.44 0.820039 -1.40639 0
M  V30 15488 O 1454.63 0.683401 -1.649 0
M  V30 15489 C 1451.73 1.20618 -3.16709 0
M  V30 15490 C 1450.9 0.60121 -4.33248 0
M  V30 15491 C 1449.96 1.56954 -5.02247 0
M  V30 15492 O 1448.99 1.09112 -5.58644 0
M  V30 15493 N 1450.19 2.90395 -5.02644 0
M  V30 15494 H 1452.95 -0.589867 -2.93838 0
M  V30 15495 H 1450.51 -0.460028 -1.55227 0
M  V30 15496 H 1452.51 1.85404 -3.59732 0
M  V30 15497 H 1451.08 1.82873 -2.53528 0
M  V30 15498 H 1450.3 -0.225015 -3.93557 0
M  V30 15499 H 1451.58 0.177471 -5.0849 0
M  V30 15500 H 1450.98 3.31855 -4.58136 0
M  V30 15501 H 1449.54 3.50572 -5.49493 0
M  V30 15502 N 1452.97 1.53444 -0.359552 0
M  V30 15503 C 1454.38 1.86308 0.120955 0
M  V30 15504 C 1454.73 1.28033 1.48667 0
M  V30 15505 O 1453.86 0.600041 2.07915 0
M  V30 15506 C 1454.45 3.38044 0.226255 0
M  V30 15507 C 1453.01 3.70727 0.65101 0
M  V30 15508 C 1452.16 2.76538 -0.205482 0
M  V30 15509 H 1455.11 1.47778 -0.578569 0
M  V30 15510 H 1455.13 3.65699 1.05092 0
M  V30 15511 H 1454.64 3.80428 -0.767874 0
M  V30 15512 H 1452.75 3.33897 1.65359 0
M  V30 15513 H 1452.86 4.77168 0.429802 0
M  V30 15514 H 1451.22 2.52622 0.3247 0
M  V30 15515 H 1452.01 3.21754 -1.19704 0
M  V30 15516 N 1454.45 0.0885642 1.57351 0
M  V30 15517 C 1455.73 -0.618587 1.85561 0
M  V30 15518 C 1456.11 -1.86753 0.984206 0
M  V30 15519 O 1455.46 -2.28434 0.0548839 0
M  V30 15520 C 1455.67 -0.940222 3.36096 0
M  V30 15521 C 1457.01 -1.30649 4.04 0
M  V30 15522 O 1458.04 -1.03144 3.4094 0
M  V30 15523 O 1456.9 -1.82135 5.15256 0
M  V30 15524 H 1453.99 -0.308881 0.767152 0
M  V30 15525 H 1456.54 0.120767 1.6927 0
M  V30 15526 H 1455.31 -0.0538991 3.91263 0
M  V30 15527 H 1454.93 -1.73577 3.5771 0
M  V30 15528 N 1455.93 -1.56509 -0.185096 0
M  V30 15529 C 1457.18 -1.80848 -0.902139 0
M  V30 15530 C 1457.5 -0.663295 -1.83372 0
M  V30 15531 O 1456.77 0.317754 -1.93306 0
M  V30 15532 H 1455.35 -0.667108 -0.336119 0
M  V30 15533 H 1458.01 -1.93989 -0.188211 0
M  V30 15534 H 1457.11 -2.74383 -1.48729 0
M  V30 15535 N 1457.41 0.45317 -1.50944 0
M  V30 15536 C 1458.82 1.03354 -1.55482 0
M  V30 15537 C 1459.17 1.92701 -0.368873 0
M  V30 15538 O 1458.29 2.10153 0.516208 0
M  V30 15539 C 1458.89 1.88118 -2.81775 0
M  V30 15540 C 1457.45 2.41232 -2.88936 0
M  V30 15541 C 1456.59 1.20032 -2.49975 0
M  V30 15542 H 1459.55 0.235059 -1.5695 0
M  V30 15543 H 1459.57 2.73394 -2.64643 0
M  V30 15544 H 1459.08 1.23064 -3.68072 0
M  V30 15545 H 1457.18 3.09788 -2.07032 0
M  V30 15546 H 1457.29 2.75113 -3.92237 0
M  V30 15547 H 1455.66 1.54072 -2.02815 0
M  V30 15548 H 1456.44 0.56612 -3.386 0
M  V30 15549 N 1458.88 1.40823 0.707568 0
M  V30 15550 C 1459.81 1.44485 1.83429 0
M  V30 15551 C 1460.8 0.304848 1.67346 0
M  V30 15552 O 1461.98 0.514605 1.87258 0
M  V30 15553 C 1459.11 1.31458 3.21459 0
M  V30 15554 C 1458.06 2.43145 3.52228 0
M  V30 15555 C 1457.39 2.15189 4.89487 0
M  V30 15556 C 1458.69 3.85489 3.52414 0
M  V30 15557 H 1460.38 2.38781 1.80622 0
M  V30 15558 H 1457.93 1.14931 0.867572 0
M  V30 15559 H 1459.88 1.32635 3.99983 0
M  V30 15560 H 1458.61 0.336422 3.24863 0
M  V30 15561 H 1457.27 2.41231 2.76049 0
M  V30 15562 H 1456.91 1.15745 4.89502 0
M  V30 15563 H 1456.61 2.90022 5.11039 0
M  V30 15564 H 1458.14 2.18062 5.70334 0
M  V30 15565 H 1459.55 3.89183 4.20963 0
M  V30 15566 H 1457.95 4.59906 3.85495 0
M  V30 15567 H 1459.02 4.14499 2.51632 0
M  V30 15568 N 1460.36 -0.94061 1.26453 0
M  V30 15569 C 1461.61 -1.68354 1.11809 0
M  V30 15570 C 1461.93 -1.9203 -0.339037 0
M  V30 15571 O 1461.2 -1.51739 -1.23903 0
M  V30 15572 H 1459.78 -0.623916 0.410777 0
M  V30 15573 H 1462.44 -1.13014 1.58789 0
M  V30 15574 H 1461.54 -2.65706 1.63728 0
M  V30 15575 N 1461.84 -1.08266 -1.14527 0
M  V30 15576 C 1463.25 -0.832702 -1.67102 0
M  V30 15577 C 1463.6 0.640776 -1.85441 0
M  V30 15578 O 1462.73 1.49505 -1.56452 0
M  V30 15579 C 1463.32 -1.50502 -3.03537 0
M  V30 15580 C 1461.88 -1.30234 -3.53152 0
M  V30 15581 C 1461.03 -1.56873 -2.28661 0
M  V30 15582 H 1463.98 -1.24344 -0.986118 0
M  V30 15583 H 1464 -0.931426 -3.68924 0
M  V30 15584 H 1463.51 -2.57741 -2.90157 0
M  V30 15585 H 1461.61 -0.250582 -3.71756 0
M  V30 15586 H 1461.73 -2.02898 -4.34015 0
M  V30 15587 H 1460.09 -0.990214 -2.34663 0
M  V30 15588 H 1460.87 -2.65316 -2.17859 0
M  V30 15589 N 1463.32 1.31536 -0.86811 0
M  V30 15590 C 1464.25 2.31037 -0.33822 0
M  V30 15591 C 1465.23 1.60269 0.569892 0
M  V30 15592 O 1466.42 1.87987 0.487305 0
M  V30 15593 C 1463.55 3.44203 0.462753 0
M  V30 15594 C 1462.5 4.26549 -0.3521 0
M  V30 15595 C 1461.83 5.31605 0.574443 0
M  V30 15596 C 1463.13 4.97665 -1.58516 0
M  V30 15597 H 1464.82 2.75607 -1.16967 0
M  V30 15598 H 1462.37 1.325 -0.56389 0
M  V30 15599 H 1464.32 4.12862 0.843967 0
M  V30 15600 H 1463.04 2.98396 1.32769 0
M  V30 15601 H 1461.7 3.59555 -0.715237 0
M  V30 15602 H 1461.35 4.82048 1.43661 0
M  V30 15603 H 1461.05 5.87591 0.0331436 0
M  V30 15604 H 1462.57 6.03124 0.952541 0
M  V30 15605 H 1463.99 5.58931 -1.27549 0
M  V30 15606 H 1462.38 5.63437 -2.06539 0
M  V30 15607 H 1463.45 4.24756 -2.33902 0
M  V30 15608 N 1464.8 0.627364 1.44575 0
M  V30 15609 C 1466.03 0.137114 2.06145 0
M  V30 15610 C 1466.44 -1.19201 1.46928 0
M  V30 15611 O 1465.78 -1.7413 0.585199 0
M  V30 15612 C 1465.84 -0.0560229 3.59456 0
M  V30 15613 C 1465.5 1.19435 4.41117 0
M  V30 15614 C 1466.5 2.11717 4.74839 0
M  V30 15615 C 1464.19 1.42871 4.81553 0
M  V30 15616 C 1466.18 3.25749 5.47875 0
M  V30 15617 C 1463.87 2.572 5.54339 0
M  V30 15618 C 1464.87 3.48466 5.87419 0
M  V30 15619 O 1464.55 4.60802 6.58723 0
M  V30 15620 H 1464.29 0.0751614 0.671809 0
M  V30 15621 H 1466.84 0.86076 1.86494 0
M  V30 15622 H 1465.07 -0.834775 3.77582 0
M  V30 15623 H 1466.76 -0.500352 4.02804 0
M  V30 15624 H 1467.52 1.94844 4.44141 0
M  V30 15625 H 1463.4 0.727246 4.55228 0
M  V30 15626 H 1466.95 3.97007 5.73612 0
M  V30 15627 H 1462.84 2.74018 5.84452 0
M  V30 15628 H 1463.61 4.59736 6.77189 0
M  V30 15629 N 1466.28 -1.53251 0.367684 0
M  V30 15630 C 1467.24 -2.24423 -0.465516 0
M  V30 15631 C 1468.24 -1.25283 -1.00801 0
M  V30 15632 O 1469.43 -1.49545 -0.893424 0
M  V30 15633 C 1466.56 -2.9826 -1.65087 0
M  V30 15634 H 1467.75 -2.99487 0.157292 0
M  V30 15635 H 1465.31 -1.55843 0.119409 0
M  V30 15636 H 1466.04 -2.27443 -2.31171 0
M  V30 15637 H 1465.83 -3.71003 -1.26882 0
M  V30 15638 H 1467.32 -3.52358 -2.24128 0
M  V30 15639 N 1467.75 -0.0969077 -1.57302 0
M  V30 15640 C 1468.98 0.578086 -1.99181 0
M  V30 15641 C 1469.4 1.60818 -0.975667 0
M  V30 15642 O 1468.76 1.81215 0.0556054 0
M  V30 15643 C 1468.81 1.20076 -3.40021 0
M  V30 15644 O 1467.91 2.31656 -3.41188 0
M  V30 15645 H 1467.25 0.146506 -0.647636 0
M  V30 15646 H 1469.78 -0.178855 -2.03817 0
M  V30 15647 H 1469.79 1.54162 -3.77754 0
M  V30 15648 H 1468.47 0.446114 -4.135 0
M  V30 15649 H 1467.05 1.99175 -3.15252 0
M  V30 15650 N 1469.23 1.56605 0.176793 0
M  V30 15651 C 1470.46 1.8617 0.91408 0
M  V30 15652 C 1470.88 0.68262 1.75277 0
M  V30 15653 O 1470.24 -0.368391 1.77518 0
M  V30 15654 C 1470.29 3.14109 1.7711 0
M  V30 15655 O 1469.39 2.95947 2.87209 0
M  V30 15656 H 1468.73 0.612507 0.25638 0
M  V30 15657 H 1471.26 2.03837 0.176586 0
M  V30 15658 H 1471.27 3.45373 2.17213 0
M  V30 15659 H 1469.95 3.9954 1.15502 0
M  V30 15660 H 1468.52 2.76024 2.50729 0
M  V30 15661 N 1470.71 -0.445159 1.51182 0
M  V30 15662 C 1471.66 -1.5604 1.72494 0
M  V30 15663 C 1472.65 -1.58753 0.591101 0
M  V30 15664 O 1473.86 -1.62591 0.772285 0
M  V30 15665 H 1470.23 -0.518265 0.544891 0
M  V30 15666 H 1472.2 -1.35237 2.65995 0
M  V30 15667 C 1470.95 -2.93768 1.85999 0
M  V30 15668 H 1470.28 -2.9241 2.72647 0
M  V30 15669 H 1471.72 -3.71189 2.04926 0
M  V30 15670 C 1470.17 -3.31186 0.617853 0
M  V30 15671 O 1470.7 -4.01035 -0.231101 0
M  V30 15672 N 1468.91 -2.86868 0.464234 0
M  V30 15673 H 1468.46 -2.30198 1.15614 0
M  V30 15674 H 1468.42 -3.12267 -0.365643 0
M  V30 15675 N 1472.19 -1.41197 -0.700089 0
M  V30 15676 C 1473.6 -1.3593 -1.27985 0
M  V30 15677 C 1473.95 -0.0402059 -1.96159 0
M  V30 15678 O 1473.07 0.861611 -1.98508 0
M  V30 15679 C 1473.67 -2.46203 -2.32743 0
M  V30 15680 C 1472.23 -2.44348 -2.86306 0
M  V30 15681 C 1471.38 -2.26283 -1.60285 0
M  V30 15682 H 1474.33 -1.50778 -0.495152 0
M  V30 15683 H 1474.35 -2.15001 -3.13934 0
M  V30 15684 H 1473.86 -3.42195 -1.83096 0
M  V30 15685 H 1471.96 -1.521 -3.40142 0
M  V30 15686 H 1472.07 -3.40497 -3.37044 0
M  V30 15687 H 1470.44 -1.74078 -1.85928 0
M  V30 15688 H 1471.22 -3.24295 -1.1264 0
M  V30 15689 N 1473.67 0.933891 -1.2695 0
M  V30 15690 C 1474.58 2.06713 -1.10936 0
M  V30 15691 C 1475.59 1.73952 -0.0409734 0
M  V30 15692 O 1476.77 1.9989 -0.246199 0
M  V30 15693 C 1473.83 3.38453 -0.751696 0
M  V30 15694 C 1472.89 3.84951 -1.90029 0
M  V30 15695 C 1472.13 5.10404 -1.55959 0
M  V30 15696 O 1472.35 5.68504 -0.464646 0
M  V30 15697 O 1471.28 5.52123 -2.39675 0
M  V30 15698 H 1475.11 2.23133 -2.06023 0
M  V30 15699 H 1472.69 1.05202 -1.06079 0
M  V30 15700 H 1474.58 4.17591 -0.565285 0
M  V30 15701 H 1473.25 3.23255 0.169703 0
M  V30 15702 H 1472.16 3.06727 -2.14172 0
M  V30 15703 H 1473.49 4.04681 -2.80167 0
M  V30 15704 N 1475.14 1.08871 1.13951 0
M  V30 15705 C 1476.37 0.841691 1.88677 0
M  V30 15706 C 1476.78 -0.610213 1.79089 0
M  V30 15707 O 1476.12 -1.4314 1.15138 0
M  V30 15708 C 1476.19 1.19077 3.39206 0
M  V30 15709 C 1475.85 2.64642 3.72577 0
M  V30 15710 C 1476.85 3.62892 3.72297 0
M  V30 15711 C 1474.53 3.00618 4.0241 0
M  V30 15712 C 1476.53 4.95148 4.01382 0
M  V30 15713 C 1474.21 4.33066 4.31158 0
M  V30 15714 C 1475.21 5.3014 4.30628 0
M  V30 15715 O 1474.9 6.60207 4.58675 0
M  V30 15716 H 1474.63 0.302896 0.604343 0
M  V30 15717 H 1477.19 1.4527 1.45209 0
M  V30 15718 H 1475.42 0.522784 3.8315 0
M  V30 15719 H 1477.1 0.923805 3.95248 0
M  V30 15720 H 1477.87 3.36442 3.4933 0
M  V30 15721 H 1473.75 2.25696 4.01973 0
M  V30 15722 H 1477.29 5.7091 4.00884 0
M  V30 15723 H 1473.19 4.59262 4.53595 0
M  V30 15724 H 1473.96 6.65593 4.7637 0
M  V30 15725 N 1476.62 -1.31073 0.875073 0
M  V30 15726 C 1477.55 -2.30855 0.350468 0
M  V30 15727 C 1478.53 -1.60569 -0.561384 0
M  V30 15728 O 1479.72 -1.88242 -0.477329 0
M  V30 15729 C 1476.85 -3.44444 -0.444493 0
M  V30 15730 C 1475.8 -4.26357 0.374716 0
M  V30 15731 C 1475.13 -5.31903 -0.546243 0
M  V30 15732 C 1476.43 -4.96817 1.61153 0
M  V30 15733 H 1478.12 -2.74983 1.18427 0
M  V30 15734 H 1475.67 -1.32199 0.570909 0
M  V30 15735 H 1477.62 -4.13304 -0.82206 0
M  V30 15736 H 1476.34 -2.99096 -1.31185 0
M  V30 15737 H 1475 -3.59171 0.734295 0
M  V30 15738 H 1474.65 -4.82803 -1.41102 0
M  V30 15739 H 1474.35 -5.876 -0.00198173 0
M  V30 15740 H 1475.88 -6.03621 -0.920542 0
M  V30 15741 H 1477.29 -5.58247 1.30511 0
M  V30 15742 H 1475.69 -5.62334 2.09524 0
M  V30 15743 H 1476.76 -4.2351 2.36151 0
M  V30 15744 N 1478.1 -0.635022 -1.4424 0
M  V30 15745 C 1479.33 -0.146549 -2.06882 0
M  V30 15746 C 1479.75 1.17143 -1.4717 0
M  V30 15747 O 1479.11 1.71952 -0.574636 0
M  V30 15748 C 1479.16 -0.0494694 -3.60566 0
M  V30 15749 O 1478.26 0.993423 -4.00256 0
M  V30 15750 H 1477.6 -0.0865505 -0.658335 0
M  V30 15751 H 1480.13 -0.872803 -1.85049 0
M  V30 15752 H 1480.14 0.139839 -4.0776 0
M  V30 15753 H 1478.82 -1.01169 -4.03407 0
M  V30 15754 H 1477.39 0.778372 -3.64686 0
M  V30 15755 N 1479.58 1.53054 -0.375806 0
M  V30 15756 C 1480.54 2.24666 0.453608 0
M  V30 15757 C 1481.54 1.25816 1.00135 0
M  V30 15758 O 1482.73 1.50016 0.885481 0
M  V30 15759 C 1479.86 2.99131 1.63503 0
M  V30 15760 H 1481.06 2.994 -0.173172 0
M  V30 15761 H 1478.61 1.55778 -0.127673 0
M  V30 15762 H 1479.34 2.28666 2.29962 0
M  V30 15763 H 1479.13 3.71671 1.24913 0
M  V30 15764 H 1480.62 3.53542 2.22256 0
M  V30 15765 N 1481.06 0.105248 1.57248 0
M  V30 15766 C 1482.28 -0.567515 1.99484 0
M  V30 15767 C 1482.71 -1.60298 0.984182 0
M  V30 15768 O 1482.06 -1.81242 -0.0459944 0
M  V30 15769 C 1482.11 -1.18271 3.40653 0
M  V30 15770 O 1481.22 -2.29843 3.42412 0
M  V30 15771 H 1480.56 -0.143069 0.648404 0
M  V30 15772 H 1483.09 0.189661 2.03719 0
M  V30 15773 H 1483.1 -1.52157 3.78566 0
M  V30 15774 H 1481.77 -0.424179 4.13731 0
M  V30 15775 H 1480.35 -1.975 3.16304 0
M  V30 15776 N 1482.53 -1.56697 -0.168486 0
M  V30 15777 C 1483.81 -1.73032 -0.912097 0
M  V30 15778 C 1484.19 -0.667424 -2.00271 0
M  V30 15779 O 1483.54 0.317307 -2.26286 0
M  V30 15780 C 1483.75 -3.16334 -1.47424 0
M  V30 15781 C 1485.1 -3.77378 -1.94606 0
M  V30 15782 O 1486.12 -3.19629 -1.57212 0
M  V30 15783 O 1484.98 -4.78781 -2.63497 0
M  V30 15784 H 1482.07 -0.706713 -0.429518 0
M  V30 15785 H 1484.62 -1.68981 -0.156093 0
M  V30 15786 H 1483.39 -3.85179 -0.689421 0
M  V30 15787 H 1483.02 -3.24723 -2.29435 0
M  V30 15788 N 1484.01 0.437135 -1.51416 0
M  V30 15789 C 1485.26 1.18831 -1.64338 0
M  V30 15790 C 1485.59 1.9086 -0.358638 0
M  V30 15791 O 1484.87 1.83607 0.641769 0
M  V30 15792 C 1485.15 2.20515 -2.84685 0
M  V30 15793 C 1485 1.52568 -4.23135 0
M  V30 15794 C 1486.32 3.21494 -3.00549 0
M  V30 15795 H 1483.44 0.430652 -0.598087 0
M  V30 15796 H 1486.08 0.47753 -1.83901 0
M  V30 15797 H 1484.23 2.81132 -2.68136 0
M  V30 15798 H 1485.9 0.952851 -4.51352 0
M  V30 15799 H 1484.15 0.828025 -4.25824 0
M  V30 15800 H 1484.82 2.26623 -5.03335 0
M  V30 15801 H 1487.29 2.7093 -3.1581 0
M  V30 15802 H 1486.17 3.89934 -3.86319 0
M  V30 15803 H 1486.43 3.8761 -2.12629 0
M  V30 15804 N 1485.49 1.41566 0.692592 0
M  V30 15805 C 1486.74 1.41083 1.45265 0
M  V30 15806 C 1487.07 0.0209998 1.94489 0
M  V30 15807 O 1486.32 -0.96764 1.70104 0
M  V30 15808 C 1486.62 2.36683 2.67799 0
M  V30 15809 C 1486.29 3.83458 2.37215 0
M  V30 15810 C 1484.95 4.23441 2.28585 0
M  V30 15811 C 1487.3 4.76114 2.12048 0
M  V30 15812 C 1484.63 5.54086 1.92888 0
M  V30 15813 C 1486.98 6.07082 1.7786 0
M  V30 15814 C 1485.64 6.46083 1.67727 0
M  V30 15815 H 1484.91 0.51626 0.531561 0
M  V30 15816 H 1487.56 1.74385 0.791337 0
M  V30 15817 H 1485.87 1.96645 3.38877 0
M  V30 15818 H 1487.56 2.33581 3.25946 0
M  V30 15819 H 1484.15 3.51792 2.44828 0
M  V30 15820 H 1488.34 4.46025 2.17659 0
M  V30 15821 H 1483.59 5.83182 1.83599 0
M  V30 15822 H 1487.77 6.78378 1.57407 0
M  V30 15823 H 1485.39 7.47228 1.39836 0
M  V30 15824 N 1486.97 -0.927146 1.27443 0
M  V30 15825 C 1488.38 -1.48984 1.1252 0
M  V30 15826 C 1488.73 -1.94051 -0.289602 0
M  V30 15827 O 1487.86 -1.8123 -1.18257 0
M  V30 15828 C 1488.45 -2.70765 2.03646 0
M  V30 15829 C 1487.01 -3.23256 1.92827 0
M  V30 15830 C 1486.16 -1.95991 1.9617 0
M  V30 15831 H 1489.11 -0.741196 1.40328 0
M  V30 15832 H 1489.13 -3.45567 1.5926 0
M  V30 15833 H 1488.64 -2.37933 3.0661 0
M  V30 15834 H 1486.74 -3.60845 0.928516 0
M  V30 15835 H 1486.85 -3.89413 2.79096 0
M  V30 15836 H 1485.22 -2.12508 1.40402 0
M  V30 15837 H 1486 -1.65473 3.00788 0
M  V30 15838 N 1488.45 -1.09474 -1.13372 0
M  V30 15839 C 1489.69 -0.840753 -1.86308 0
M  V30 15840 C 1490.05 0.622327 -1.81635 0
M  V30 15841 O 1491.25 0.992265 -2.49815 0
M  V30 15842 C 1489.52 -1.3618 -3.30439 0
M  V30 15843 S 1491.08 -1.24176 -4.20863 0
M  V30 15844 H 1487.9 -0.304071 -0.642699 0
M  V30 15845 H 1490.5 -1.39822 -1.36639 0
M  V30 15846 H 1489.21 -2.42087 -3.31394 0
M  V30 15847 H 1488.74 -0.800485 -3.8517 0
M  V30 15848 H 1490.75 -0.193021 -4.95824 0
M  V30 15849 N 1489.92 1.30607 -0.882012 0
M  V30 15850 C 1491.15 2.00954 -0.513048 0
M  V30 15851 C 1491.57 1.65697 0.890279 0
M  V30 15852 O 1490.93 0.872001 1.58952 0
M  V30 15853 C 1490.98 3.53907 -0.691525 0
M  V30 15854 O 1490.08 4.11555 0.263896 0
M  V30 15855 H 1489.43 0.632356 -0.202537 0
M  V30 15856 H 1491.96 1.66524 -1.18874 0
M  V30 15857 H 1491.97 4.0372 -0.589392 0
M  V30 15858 H 1490.64 3.78907 -1.71471 0
M  V30 15859 H 1489.22 3.7272 0.115707 0
M  V30 15860 N 1491.4 0.642663 1.43901 0
M  V30 15861 C 1492.65 0.152003 2.0223 0
M  V30 15862 C 1492.98 -1.22711 1.50518 0
M  V30 15863 O 1492.26 -1.817 0.693937 0
M  V30 15864 C 1492.54 0.151278 3.59782 0
M  V30 15865 C 1492.39 1.56356 4.2175 0
M  V30 15866 C 1493.71 -0.518016 4.37041 0
M  V30 15867 H 1490.83 0.0567094 0.734815 0
M  V30 15868 H 1493.47 0.821337 1.7133 0
M  V30 15869 H 1491.62 -0.418679 3.86237 0
M  V30 15870 H 1493.29 2.18329 4.06362 0
M  V30 15871 H 1491.54 2.11401 3.78803 0
M  V30 15872 H 1492.21 1.51499 5.30803 0
M  V30 15873 H 1494.68 -0.0331947 4.16087 0
M  V30 15874 H 1493.56 -0.487754 5.46729 0
M  V30 15875 H 1493.82 -1.59036 4.12504 0
M  V30 15876 N 1492.88 -1.52852 0.383918 0
M  V30 15877 C 1494.11 -2.0563 -0.199926 0
M  V30 15878 C 1494.52 -1.25589 -1.41506 0
M  V30 15879 O 1493.86 -0.294254 -1.81328 0
M  V30 15880 C 1493.92 -3.53761 -0.639796 0
M  V30 15881 C 1493.59 -4.54667 0.461143 0
M  V30 15882 C 1494.59 -5.02946 1.31685 0
M  V30 15883 C 1492.27 -4.98376 0.626633 0
M  V30 15884 C 1494.26 -5.93553 2.32322 0
M  V30 15885 C 1491.95 -5.88784 1.63635 0
M  V30 15886 C 1492.95 -6.36265 2.48306 0
M  V30 15887 O 1492.64 -7.24888 3.47553 0
M  V30 15888 H 1492.37 -0.675089 -0.0350831 0
M  V30 15889 H 1494.92 -1.98009 0.546042 0
M  V30 15890 H 1493.15 -3.58982 -1.43766 0
M  V30 15891 H 1494.84 -3.89307 -1.1487 0
M  V30 15892 H 1495.61 -4.69913 1.20028 0
M  V30 15893 H 1491.49 -4.60994 -0.0226873 0
M  V30 15894 H 1495.03 -6.30536 2.98447 0
M  V30 15895 H 1490.93 -6.21232 1.75332 0
M  V30 15896 H 1491.7 -7.42934 3.43498 0
M  V30 15897 N 1494.36 -0.113586 -1.5719 0
M  V30 15898 C 1495.61 0.546529 -1.95297 0
M  V30 15899 C 1495.94 1.66674 -0.996671 0
M  V30 15900 O 1495.21 1.94472 -0.0329298 0
M  V30 15901 C 1495.5 1.08433 -3.43387 0
M  V30 15902 C 1495.35 -0.0320929 -4.49789 0
M  V30 15903 C 1496.67 1.97691 -3.932 0
M  V30 15904 H 1493.79 0.197195 -0.710129 0
M  V30 15905 H 1496.43 -0.188048 -1.89067 0
M  V30 15906 H 1494.58 1.71033 -3.48827 0
M  V30 15907 H 1496.25 -0.66716 -4.5645 0
M  V30 15908 H 1494.49 -0.695983 -4.2818 0
M  V30 15909 H 1495.17 0.385341 -5.50653 0
M  V30 15910 H 1497.64 1.4497 -3.90029 0
M  V30 15911 H 1496.52 2.3224 -4.97349 0
M  V30 15912 H 1496.78 2.90137 -3.33576 0
M  V30 15913 N 1495.84 1.56784 0.160173 0
M  V30 15914 C 1497.25 1.72193 0.721552 0
M  V30 15915 C 1497.6 0.725901 1.82278 0
M  V30 15916 O 1496.72 -0.110343 2.16118 0
M  V30 15917 C 1497.32 3.12212 1.31563 0
M  V30 15918 C 1495.88 3.29268 1.82371 0
M  V30 15919 C 1495.03 2.68136 0.70701 0
M  V30 15920 H 1497.98 1.58565 -0.0653521 0
M  V30 15921 H 1498 3.11481 2.1854 0
M  V30 15922 H 1497.51 3.84682 0.513917 0
M  V30 15923 H 1495.61 2.61774 2.65152 0
M  V30 15924 H 1495.72 4.37107 1.96149 0
M  V30 15925 H 1494.09 2.28246 1.1303 0
M  V30 15926 H 1494.87 3.432 -0.0830407 0
M  V30 15927 N 1497.32 -0.429099 1.51646 0
M  V30 15928 C 1498.59 -1.18958 1.55269 0
M  V30 15929 C 1498.97 -2.08633 0.321816 0
M  V30 15930 O 1498.32 -2.1775 -0.69261 0
M  V30 15931 C 1498.53 -1.98427 2.87102 0
M  V30 15932 C 1499.88 -2.55185 3.39361 0
M  V30 15933 O 1500.9 -2.08629 2.88708 0
M  V30 15934 O 1499.76 -3.40119 4.27763 0
M  V30 15935 H 1496.86 -0.542041 0.624596 0
M  V30 15936 H 1499.4 -0.437499 1.63964 0
M  V30 15937 H 1498.17 -1.32613 3.68143 0
M  V30 15938 H 1497.8 -2.80683 2.81608 0
M  V30 15939 N 1498.79 -1.41931 -0.685074 0
M  V30 15940 C 1499.7 -1.46985 -1.82846 0
M  V30 15941 C 1500.72 -0.359487 -1.70246 0
M  V30 15942 O 1501.9 -0.608824 -1.91977 0
M  V30 15943 C 1498.96 -1.36001 -3.18912 0
M  V30 15944 C 1498.02 -2.57442 -3.43543 0
M  V30 15945 C 1497.25 -2.46972 -4.73118 0
M  V30 15946 O 1497.48 -1.49999 -5.50324 0
M  V30 15947 O 1496.41 -3.36922 -4.98766 0
M  V30 15948 H 1500.24 -2.4347 -1.81538 0
M  V30 15949 H 1497.82 -1.23583 -0.839497 0
M  V30 15950 H 1499.7 -1.32198 -4.00127 0
M  V30 15951 H 1498.38 -0.426366 -3.2088 0
M  V30 15952 H 1497.29 -2.66821 -2.62217 0
M  V30 15953 H 1498.62 -3.49671 -3.46398 0
M  V30 15954 N 1500.27 0.920374 -1.27933 0
M  V30 15955 C 1501.52 1.67163 -1.1588 0
M  V30 15956 C 1501.87 1.90186 0.291025 0
M  V30 15957 O 1501.17 1.4864 1.209 0
M  V30 15958 C 1501.36 3.03725 -1.88377 0
M  V30 15959 C 1501.19 2.94029 -3.4026 0
M  V30 15960 C 1499.96 2.95912 -4.0959 0
M  V30 15961 C 1502.16 2.72596 -4.36115 0
M  V30 15962 N 1500.14 2.76734 -5.47988 0
M  V30 15963 C 1501.51 2.62196 -5.6183 0
M  V30 15964 C 1503.56 2.57541 -4.26119 0
M  V30 15965 C 1502.27 2.38276 -6.78688 0
M  V30 15966 C 1504.29 2.35 -5.42705 0
M  V30 15967 C 1503.66 2.25348 -6.67381 0
M  V30 15968 H 1499.75 0.618178 -0.478936 0
M  V30 15969 H 1502.34 1.0875 -1.61498 0
M  V30 15970 H 1500.51 3.60237 -1.45203 0
M  V30 15971 H 1502.24 3.67832 -1.68765 0
M  V30 15972 H 1499 3.06418 -3.61116 0
M  V30 15973 H 1499.42 2.70256 -6.20718 0
M  V30 15974 H 1504.06 2.63757 -3.30442 0
M  V30 15975 H 1501.78 2.30799 -7.7444 0
M  V30 15976 H 1505.37 2.24225 -5.36856 0
M  V30 15977 H 1504.25 2.08143 -7.56073 0
M  V30 15978 N 1501.75 1.10074 1.1279 0
M  V30 15979 C 1502.66 0.758458 2.22001 0
M  V30 15980 C 1503.68 -0.242438 1.72303 0
M  V30 15981 O 1504.85 -0.0821223 2.01233 0
M  V30 15982 C 1501.92 0.191326 3.46172 0
M  V30 15983 C 1500.98 1.24902 4.10729 0
M  V30 15984 C 1500.21 0.708857 5.28972 0
M  V30 15985 O 1500.43 -0.465993 5.68493 0
M  V30 15986 O 1499.37 1.46703 5.83748 0
M  V30 15987 H 1503.19 1.66997 2.53665 0
M  V30 15988 H 1500.78 0.875604 1.21052 0
M  V30 15989 H 1502.66 -0.121292 4.21225 0
M  V30 15990 H 1501.34 -0.693094 3.16193 0
M  V30 15991 H 1500.24 1.61444 3.37471 0
M  V30 15992 H 1501.58 2.10632 4.44854 0
M  V30 15993 N 1503.23 -1.30138 0.888926 0
M  V30 15994 C 1504.47 -1.96279 0.51012 0
M  V30 15995 C 1504.81 -1.69984 -0.939096 0
M  V30 15996 O 1504.08 -1.00677 -1.66416 0
M  V30 15997 C 1504.36 -3.51321 0.790305 0
M  V30 15998 C 1504.22 -3.87116 2.29044 0
M  V30 15999 C 1505.54 -4.39274 0.269477 0
M  V30 16000 H 1502.66 -0.712931 0.18681 0
M  V30 16001 H 1505.3 -1.53942 1.11364 0
M  V30 16002 H 1503.45 -3.87514 0.276647 0
M  V30 16003 H 1505.12 -3.60926 2.87281 0
M  V30 16004 H 1503.36 -3.35044 2.7555 0
M  V30 16005 H 1504.03 -4.95288 2.43708 0
M  V30 16006 H 1506.51 -4.10012 0.709173 0
M  V30 16007 H 1505.39 -5.46665 0.494815 0
M  V30 16008 H 1505.65 -4.3425 -0.829434 0
M  V30 16009 N 1504.71 -0.650285 -1.43559 0
M  V30 16010 C 1505.93 -0.168483 -2.06715 0
M  V30 16011 C 1506.36 1.15576 -1.48404 0
M  V30 16012 O 1505.71 1.71333 -0.592842 0
M  V30 16013 C 1505.76 -0.0877095 -3.60493 0
M  V30 16014 O 1504.87 0.950915 -4.01287 0
M  V30 16015 H 1504.21 -0.0935281 -0.65738 0
M  V30 16016 H 1506.74 -0.892381 -1.84113 0
M  V30 16017 H 1506.75 0.0965825 -4.07886 0
M  V30 16018 H 1505.42 -1.05442 -4.02312 0
M  V30 16019 H 1504 0.739648 -3.65491 0
M  V30 16020 N 1506.18 1.52647 -0.392018 0
M  V30 16021 C 1507.6 1.59544 -0.0421007 0
M  V30 16022 C 1507.8 1.40586 1.44353 0
M  V30 16023 O 1506.86 1.22422 2.20837 0
M  V30 16024 C 1508.17 2.9614 -0.521713 0
M  V30 16025 C 1509.72 3.09325 -0.478205 0
M  V30 16026 C 1510.19 4.48374 -0.93405 0
M  V30 16027 N 1511.68 4.54566 -0.890173 0
M  V30 16028 C 1512.42 5.60395 -1.21427 0
M  V30 16029 N 1511.91 6.73858 -1.60897 0
M  V30 16030 N 1513.71 5.50515 -1.13534 0
M  V30 16031 H 1505.86 1.63219 -1.35917 0
M  V30 16032 H 1508.12 0.766913 -0.557269 0
M  V30 16033 H 1507.83 3.15238 -1.55942 0
M  V30 16034 H 1507.7 3.7712 0.0777658 0
M  V30 16035 H 1510.09 2.89921 0.550418 0
M  V30 16036 H 1510.17 2.30292 -1.11352 0
M  V30 16037 H 1509.81 4.68519 -1.96092 0
M  V30 16038 H 1509.74 5.25878 -0.275717 0
M  V30 16039 H 1512.23 3.7311 -0.599758 0
M  V30 16040 H 1512.55 7.5058 -1.83983 0
M  V30 16041 H 1510.89 6.75182 -1.64786 0
M  V30 16042 H 1514.08 4.60755 -0.825977 0
M  V30 16043 H 1514.26 6.32889 -1.39124 0
M  V30 16044 N 1507.66 0.121921 1.57128 0
M  V30 16045 C 1508.57 -0.840825 2.19014 0
M  V30 16046 C 1509.59 -1.29051 1.16712 0
M  V30 16047 O 1510.76 -1.35289 1.49194 0
M  V30 16048 C 1507.83 -2.07204 2.7797 0
M  V30 16049 C 1506.89 -1.67399 3.95318 0
M  V30 16050 C 1506.12 -2.84652 4.51452 0
M  V30 16051 O 1506.35 -4.00161 4.06482 0
M  V30 16052 O 1505.28 -2.61568 5.42094 0
M  V30 16053 H 1509.11 -0.344146 3.01744 0
M  V30 16054 H 1506.69 -0.103841 1.49039 0
M  V30 16055 H 1508.57 -2.79307 3.1554 0
M  V30 16056 H 1507.25 -2.55872 1.9827 0
M  V30 16057 H 1506.16 -0.92395 3.62511 0
M  V30 16058 H 1507.49 -1.2347 4.76462 0
M  V30 16059 N 1509.14 -1.56867 -0.151857 0
M  V30 16060 C 1510.09 -1.97899 -1.18763 0
M  V30 16061 C 1511.06 -0.845833 -1.42951 0
M  V30 16062 O 1512.24 -1.10751 -1.55367 0
M  V30 16063 C 1509.38 -2.36063 -2.5173 0
M  V30 16064 C 1508.5 -3.62647 -2.34757 0
M  V30 16065 C 1507.63 -3.89936 -3.60726 0
M  V30 16066 C 1506.67 -5.09806 -3.38769 0
M  V30 16067 N 1505.81 -5.33129 -4.56856 0
M  V30 16068 H 1510.65 -2.86187 -0.830713 0
M  V30 16069 H 1508.18 -1.41592 -0.398745 0
M  V30 16070 H 1510.14 -2.56218 -3.29254 0
M  V30 16071 H 1508.77 -1.50861 -2.85379 0
M  V30 16072 H 1507.82 -3.50297 -1.48312 0
M  V30 16073 H 1509.14 -4.50328 -2.1449 0
M  V30 16074 H 1508.29 -4.10563 -4.4668 0
M  V30 16075 H 1507.03 -3.00668 -3.83993 0
M  V30 16076 H 1506.03 -4.89057 -2.51203 0
M  V30 16077 H 1507.26 -6.00623 -3.16906 0
M  V30 16078 H 1505.2 -4.46815 -4.80305 0
M  V30 16079 H 1505.12 -6.1507 -4.39574 0
M  V30 16080 H 1506.39 -5.5825 -5.44038 0
M  V30 16081 N 1510.62 0.421051 -1.51871 0
M  V30 16082 C 1511.87 1.16611 -1.64574 0
M  V30 16083 C 1512.18 1.91955 -0.375835 0
M  V30 16084 O 1513.39 2.68792 -0.382481 0
M  V30 16085 C 1511.84 2.12164 -2.90714 0
M  V30 16086 C 1511.45 1.42392 -4.24769 0
M  V30 16087 C 1513.19 2.87002 -3.12778 0
M  V30 16088 C 1511.1 2.36523 -5.42043 0
M  V30 16089 H 1510.03 0.438989 -0.613029 0
M  V30 16090 H 1512.68 0.431636 -1.78351 0
M  V30 16091 H 1511.06 2.89114 -2.70608 0
M  V30 16092 H 1512.24 0.708875 -4.55315 0
M  V30 16093 H 1510.55 0.796421 -4.08713 0
M  V30 16094 H 1513.15 3.5755 -3.9757 0
M  V30 16095 H 1513.49 3.49277 -2.2652 0
M  V30 16096 H 1514.03 2.17154 -3.333 0
M  V30 16097 H 1510.77 1.78913 -6.30611 0
M  V30 16098 H 1510.29 3.06034 -5.15852 0
M  V30 16099 H 1511.96 2.97306 -5.74646 0
M  V30 16100 N 1512.1 1.42293 0.677538 0
M  V30 16101 C 1513.32 1.46008 1.46592 0
M  V30 16102 C 1513.74 0.0706015 1.88668 0
M  V30 16103 O 1513.1 -0.914076 1.57959 0
M  V30 16104 C 1513.15 2.38477 2.71682 0
M  V30 16105 O 1512.87 3.72019 2.31372 0
M  V30 16106 C 1514.37 2.51185 3.65269 0
M  V30 16107 H 1511.59 0.49669 0.451154 0
M  V30 16108 H 1514.13 1.86777 0.832736 0
M  V30 16109 H 1512.29 2.00969 3.31195 0
M  V30 16110 H 1512.7 4.21514 3.12131 0
M  V30 16111 H 1514.18 3.20014 4.49772 0
M  V30 16112 H 1514.65 1.54885 4.10983 0
M  V30 16113 H 1515.26 2.89404 3.1165 0
M  V30 16114 N 1513.57 -0.913576 1.28419 0
M  V30 16115 C 1514.5 -2.03275 1.14897 0
M  V30 16116 C 1515.49 -1.70036 0.0467034 0
M  V30 16117 O 1516.67 -1.92907 0.223725 0
M  V30 16118 C 1513.8 -3.37717 0.810217 0
M  V30 16119 C 1512.75 -3.85119 1.86728 0
M  V30 16120 C 1512.08 -5.16527 1.38215 0
M  V30 16121 C 1513.38 -4.06959 3.27386 0
M  V30 16122 H 1515.07 -2.14847 2.08522 0
M  V30 16123 H 1512.62 -1.03233 1.00394 0
M  V30 16124 H 1514.57 -4.15505 0.702382 0
M  V30 16125 H 1513.3 -3.26199 -0.161732 0
M  V30 16126 H 1511.96 -3.09536 1.96426 0
M  V30 16127 H 1511.6 -5.01413 0.399263 0
M  V30 16128 H 1511.3 -5.49213 2.08898 0
M  V30 16129 H 1512.83 -5.96871 1.28754 0
M  V30 16130 H 1514.24 -4.75272 3.20608 0
M  V30 16131 H 1512.64 -4.50977 3.95904 0
M  V30 16132 H 1513.71 -3.11764 3.71391 0
M  V30 16133 N 1515.05 -1.1067 -1.12204 0
M  V30 16134 C 1515.98 -0.779829 -2.20093 0
M  V30 16135 C 1516.96 0.248279 -1.68278 0
M  V30 16136 O 1518.15 0.113511 -1.93868 0
M  V30 16137 C 1515.28 -0.213511 -3.46643 0
M  V30 16138 C 1514.23 -1.17258 -4.11624 0
M  V30 16139 C 1513.56 -0.467352 -5.32654 0
M  V30 16140 C 1514.86 -2.52014 -4.57478 0
M  V30 16141 H 1516.55 -1.68192 -2.47693 0
M  V30 16142 H 1514.1 -0.810131 -1.1905 0
M  V30 16143 H 1516.05 0.0273225 -4.21391 0
M  V30 16144 H 1514.78 0.723837 -3.18478 0
M  V30 16145 H 1513.43 -1.39891 -3.3886 0
M  V30 16146 H 1513.08 0.474547 -5.00756 0
M  V30 16147 H 1512.78 -1.10694 -5.77079 0
M  V30 16148 H 1514.31 -0.235122 -6.10147 0
M  V30 16149 H 1515.72 -2.33516 -5.23587 0
M  V30 16150 H 1514.12 -3.1188 -5.1269 0
M  V30 16151 H 1515.19 -3.11831 -3.71335 0
M  V30 16152 N 1516.53 1.29665 -0.895815 0
M  V30 16153 C 1517.95 1.4824 -0.591355 0
M  V30 16154 C 1518.15 1.81839 0.86815 0
M  V30 16155 O 1517.2 1.91251 1.64861 0
M  V30 16156 C 1518.52 2.59814 -1.51384 0
M  V30 16157 C 1520.06 2.73691 -1.51862 0
M  V30 16158 C 1520.54 3.8839 -2.42729 0
M  V30 16159 N 1522.03 3.95717 -2.40754 0
M  V30 16160 C 1522.76 4.83804 -3.07769 0
M  V30 16161 N 1522.26 5.7661 -3.84048 0
M  V30 16162 N 1524.05 4.77263 -2.96946 0
M  V30 16163 H 1516.2 1.06131 -1.83984 0
M  V30 16164 H 1518.47 0.526819 -0.788141 0
M  V30 16165 H 1518.17 2.4184 -2.55355 0
M  V30 16166 H 1518.05 3.56532 -1.23147 0
M  V30 16167 H 1520.43 2.91064 -0.486375 0
M  V30 16168 H 1520.52 1.77561 -1.84135 0
M  V30 16169 H 1520.16 3.71773 -3.46045 0
M  V30 16170 H 1520.09 4.8388 -2.07767 0
M  V30 16171 H 1522.58 3.29334 -1.8533 0
M  V30 16172 H 1522.89 6.40611 -4.32247 0
M  V30 16173 H 1521.24 5.76507 -3.88155 0
M  V30 16174 H 1524.43 4.03744 -2.36871 0
M  V30 16175 H 1524.6 5.45701 -3.49448 0
M  V30 16176 N 1518.01 0.657889 1.43212 0
M  V30 16177 C 1518.92 -0.0313677 2.34579 0
M  V30 16178 C 1519.93 -0.807153 1.54146 0
M  V30 16179 O 1521.11 -0.753335 1.8678 0
M  V30 16180 C 1518.18 -0.982659 3.32483 0
M  V30 16181 C 1517.24 -0.203288 4.28818 0
M  V30 16182 C 1516.47 -1.10927 5.22045 0
M  V30 16183 O 1516.69 -2.34861 5.19804 0
M  V30 16184 O 1515.63 -0.57916 5.99107 0
M  V30 16185 H 1519.45 0.720808 2.95022 0
M  V30 16186 H 1517.04 0.418083 1.43431 0
M  V30 16187 H 1518.92 -1.52923 3.92673 0
M  V30 16188 H 1517.59 -1.71498 2.74536 0
M  V30 16189 H 1516.5 0.386982 3.72093 0
M  V30 16190 H 1517.83 0.489562 4.89759 0
M  V30 16191 N 1519.49 -1.52437 0.400108 0
M  V30 16192 C 1520.42 -2.29672 -0.421054 0
M  V30 16193 C 1521.4 -1.33506 -1.05405 0
M  V30 16194 O 1522.58 -1.62408 -1.06477 0
M  V30 16195 C 1519.71 -3.1115 -1.54281 0
M  V30 16196 C 1518.67 -4.1529 -1.0353 0
M  V30 16197 C 1517.99 -4.85058 -2.24996 0
M  V30 16198 C 1519.29 -5.22212 -0.0956529 0
M  V30 16199 H 1520.99 -2.98565 0.2234 0
M  V30 16200 H 1518.53 -1.43588 0.108883 0
M  V30 16201 H 1520.49 -3.63945 -2.12419 0
M  V30 16202 H 1519.21 -2.4001 -2.21501 0
M  V30 16203 H 1517.87 -3.63492 -0.476383 0
M  V30 16204 H 1517.52 -4.10455 -2.9075 0
M  V30 16205 H 1517.22 -5.55452 -1.91694 0
M  V30 16206 H 1518.74 -5.40661 -2.83756 0
M  V30 16207 H 1520.15 -5.70302 -0.585548 0
M  V30 16208 H 1518.55 -5.99917 0.148121 0
M  V30 16209 H 1519.62 -4.77351 0.852296 0
M  V30 16210 N 1520.96 -0.130252 -1.57061 0
M  V30 16211 C 1522.21 0.523969 -1.9519 0
M  V30 16212 C 1522.53 1.66493 -1.01514 0
M  V30 16213 O 1521.8 1.95762 -0.0735194 0
M  V30 16214 H 1520.38 0.196553 -0.720677 0
M  V30 16215 H 1523.05 -0.20183 -1.93852 0
M  V30 16216 H 1522.14 0.911156 -2.98504 0
M  V30 16217 N 1522.44 1.56945 0.143535 0
M  V30 16218 C 1523.38 1.95134 1.2023 0
M  V30 16219 C 1524.39 0.847593 1.38995 0
M  V30 16220 O 1525.58 1.12599 1.38505 0
M  V30 16221 C 1522.68 2.21316 2.56656 0
M  V30 16222 C 1521.85 3.52604 2.58822 0
M  V30 16223 C 1520.91 3.67285 3.76813 0
M  V30 16224 O 1519.94 4.39644 3.61527 0
M  V30 16225 N 1521.14 3.04208 4.94406 0
M  V30 16226 H 1523.9 2.86561 0.87766 0
M  V30 16227 H 1521.46 1.58437 0.333065 0
M  V30 16228 H 1523.46 2.28375 3.34106 0
M  V30 16229 H 1522.03 1.36137 2.81399 0
M  V30 16230 H 1521.25 3.56954 1.67264 0
M  V30 16231 H 1522.53 4.38944 2.57304 0
M  V30 16232 H 1521.93 2.45344 5.09728 0
M  V30 16233 H 1520.49 3.16824 5.69619 0
M  V30 16234 N 1523.92 -0.412991 1.52093 0
M  V30 16235 C 1525.17 -1.15801 1.65634 0
M  V30 16236 C 1525.49 -1.91127 0.386737 0
M  V30 16237 O 1524.76 -1.86541 -0.598262 0
M  V30 16238 H 1523.34 -0.430467 0.610498 0
M  V30 16239 H 1526 -0.471127 1.8912 0
M  V30 16240 H 1525.1 -1.87421 2.49559 0
M  V30 16241 N 1525.4 -1.4265 -0.669982 0
M  V30 16242 C 1526.62 -1.46992 -1.46315 0
M  V30 16243 C 1527.05 -0.0840655 -1.87912 0
M  V30 16244 O 1526.41 0.918554 -1.56308 0
M  V30 16245 C 1526.46 -2.40663 -2.6854 0
M  V30 16246 O 1525.56 -1.88132 -3.66988 0
M  V30 16247 H 1524.9 -0.497844 -0.439372 0
M  V30 16248 H 1527.43 -1.8739 -0.821348 0
M  V30 16249 H 1527.44 -2.57405 -3.16554 0
M  V30 16250 H 1526.12 -3.41346 -2.37604 0
M  V30 16251 H 1524.69 -1.80969 -3.26044 0
M  V30 16252 N 1526.88 0.906753 -1.28902 0
M  V30 16253 C 1528.12 1.65658 -1.16464 0
M  V30 16254 C 1528.45 1.92396 0.285342 0
M  V30 16255 O 1527.71 1.52755 1.22329 0
M  V30 16256 C 1528.01 3.0171 -1.91588 0
M  V30 16257 C 1527.67 2.94606 -3.41347 0
M  V30 16258 C 1526.33 2.92376 -3.8219 0
M  V30 16259 C 1528.69 2.84335 -4.3681 0
M  V30 16260 C 1526.01 2.77685 -5.16825 0
M  V30 16261 C 1528.37 2.71184 -5.71526 0
M  V30 16262 C 1527.03 2.67316 -6.11636 0
M  V30 16263 H 1526.3 0.606184 -0.426171 0
M  V30 16264 H 1528.95 1.05592 -1.59758 0
M  V30 16265 H 1527.25 3.65602 -1.40863 0
M  V30 16266 H 1528.95 3.58645 -1.79374 0
M  V30 16267 H 1525.54 2.97141 -3.08878 0
M  V30 16268 H 1529.72 2.85141 -4.06212 0
M  V30 16269 H 1524.98 2.7309 -5.47021 0
M  V30 16270 H 1529.15 2.62206 -6.45152 0
M  V30 16271 H 1526.78 2.5569 -7.1591 0
M  V30 16272 N 1528.36 1.11264 1.11616 0
M  V30 16273 C 1529.6 0.858664 1.82952 0
M  V30 16274 C 1529.92 -0.617439 1.84967 0
M  V30 16275 O 1529.19 -1.44849 1.31893 0
M  V30 16276 H 1527.77 0.314671 0.677489 0
M  V30 16277 H 1530.44 1.40466 1.35113 0
M  V30 16278 H 1529.53 1.22921 2.86874 0
M  V30 16279 N 1529.83 -1.29188 0.902679 0
M  V30 16280 C 1530.77 -2.25842 0.327193 0
M  V30 16281 C 1531.74 -1.52567 -0.562321 0
M  V30 16282 O 1532.93 -1.81513 -0.508462 0
M  V30 16283 C 1530.06 -3.34475 -0.533338 0
M  V30 16284 C 1529.1 -4.25518 0.289268 0
M  V30 16285 S 1529.93 -5.08168 1.68896 0
M  V30 16286 C 1531.09 -6.20299 0.835428 0
M  V30 16287 H 1531.32 -2.74307 1.14644 0
M  V30 16288 H 1528.86 -1.37456 0.703212 0
M  V30 16289 H 1530.81 -3.97522 -1.02404 0
M  V30 16290 H 1529.48 -2.84699 -1.32685 0
M  V30 16291 H 1528.67 -5.02653 -0.368218 0
M  V30 16292 H 1528.27 -3.67136 0.71322 0
M  V30 16293 H 1530.56 -6.77473 0.0601329 0
M  V30 16294 H 1531.51 -6.90271 1.57896 0
M  V30 16295 H 1531.91 -5.63162 0.388497 0
M  V30 16296 N 1531.31 -0.665475 -1.42861 0
M  V30 16297 C 1532.56 -0.184156 -2.01962 0
M  V30 16298 C 1532.89 1.20301 -1.52451 0
M  V30 16299 O 1532.17 1.80573 -0.722756 0
M  V30 16300 C 1532.45 -0.208497 -3.59496 0
M  V30 16301 C 1532.3 -1.63045 -4.19209 0
M  V30 16302 C 1533.62 0.448421 -4.3781 0
M  V30 16303 H 1530.74 -0.0683924 -0.73382 0
M  V30 16304 H 1533.38 -0.84849 -1.70002 0
M  V30 16305 H 1531.53 0.357179 -3.86855 0
M  V30 16306 H 1533.2 -2.24766 -4.02837 0
M  V30 16307 H 1531.45 -2.17401 -3.75392 0
M  V30 16308 H 1532.12 -1.59924 -5.28326 0
M  V30 16309 H 1534.59 -0.0330053 -4.16087 0
M  V30 16310 H 1533.47 0.400713 -5.47435 0
M  V30 16311 H 1533.73 1.52454 -4.14982 0
M  V30 16312 N 1532.79 1.52222 -0.408187 0
M  V30 16313 C 1534.02 2.05922 0.167187 0
M  V30 16314 C 1534.43 1.27824 1.3949 0
M  V30 16315 O 1533.77 0.323065 1.80837 0
M  V30 16316 C 1533.83 3.54734 0.583435 0
M  V30 16317 C 1533.5 4.53876 -0.533419 0
M  V30 16318 C 1534.49 5.00788 -1.3967 0
M  V30 16319 C 1532.18 4.97316 -0.705841 0
M  V30 16320 C 1534.17 5.89782 -2.41736 0
M  V30 16321 C 1531.86 5.86106 -1.72981 0
M  V30 16322 C 1532.86 6.32234 -2.58397 0
M  V30 16323 O 1532.55 7.19267 -3.59041 0
M  V30 16324 H 1532.28 0.675562 0.0243385 0
M  V30 16325 H 1534.83 1.97115 -0.577475 0
M  V30 16326 H 1533.06 3.61224 1.38036 0
M  V30 16327 H 1534.75 3.91085 1.08662 0
M  V30 16328 H 1535.52 4.67944 -1.27489 0
M  V30 16329 H 1531.4 4.60972 -0.0506558 0
M  V30 16330 H 1534.94 6.25708 -3.0844 0
M  V30 16331 H 1530.84 6.18364 -1.85193 0
M  V30 16332 H 1531.6 7.37376 -3.55274 0
M  V30 16333 N 1534.27 0.138579 1.5699 0
M  V30 16334 C 1535.18 -0.817548 2.19894 0
M  V30 16335 C 1536.19 -1.27806 1.18075 0
M  V30 16336 O 1537.37 -1.33699 1.5062 0
M  V30 16337 C 1534.43 -2.04244 2.80152 0
M  V30 16338 C 1533.5 -1.63197 3.97071 0
M  V30 16339 C 1532.73 -2.79847 4.54446 0
M  V30 16340 O 1532.95 -3.95827 4.10703 0
M  V30 16341 O 1531.89 -2.55804 5.44838 0
M  V30 16342 H 1535.71 -0.312123 3.02092 0
M  V30 16343 H 1533.3 -0.0880281 1.4914 0
M  V30 16344 H 1535.18 -2.75945 3.18485 0
M  V30 16345 H 1533.85 -2.53755 2.00973 0
M  V30 16346 H 1532.76 -0.885448 3.6347 0
M  V30 16347 H 1534.09 -1.1841 4.77745 0
M  V30 16348 N 1535.75 -1.57019 -0.13521 0
M  V30 16349 C 1536.99 -1.83626 -0.844147 0
M  V30 16350 C 1537.31 -0.721298 -1.81169 0
M  V30 16351 O 1536.58 0.256095 -1.94219 0
M  V30 16352 H 1535.16 -0.677464 -0.314725 0
M  V30 16353 H 1537.83 -1.9449 -0.126399 0
M  V30 16354 H 1536.92 -2.78976 -1.39925 0
M  V30 16355 N 1537.22 0.404919 -1.52309 0
M  V30 16356 C 1538.17 1.51412 -1.7657 0
M  V30 16357 C 1539.17 1.5713 -0.632983 0
M  V30 16358 O 1540.37 1.60486 -0.815121 0
M  V30 16359 H 1536.75 0.503636 -0.55844 0
M  V30 16360 H 1538.72 1.28137 -2.69488 0
M  V30 16361 C 1537.47 2.88733 -1.93722 0
M  V30 16362 H 1536.79 2.85078 -2.80304 0
M  V30 16363 H 1538.23 3.65626 -2.14695 0
M  V30 16364 C 1536.69 3.29431 -0.705444 0
M  V30 16365 O 1537.22 4.01506 0.124693 0
M  V30 16366 N 1535.43 2.85536 -0.540128 0
M  V30 16367 H 1534.97 2.27052 -1.21677 0
M  V30 16368 H 1534.93 3.13126 0.282723 0
M  V30 16369 N 1538.7 1.43003 0.662408 0
M  V30 16370 C 1539.67 1.4713 1.75743 0
M  V30 16371 C 1540.67 0.357203 1.56782 0
M  V30 16372 O 1541.86 0.618566 1.62848 0
M  V30 16373 C 1538.99 1.31499 3.14517 0
M  V30 16374 H 1540.18 2.44641 1.73467 0
M  V30 16375 H 1537.73 1.29633 0.873208 0
M  V30 16376 H 1538.47 0.349596 3.2241 0
M  V30 16377 H 1538.25 2.12253 3.29683 0
M  V30 16378 H 1539.74 1.37298 3.94384 0
M  V30 16379 N 1540.18 -0.899904 1.29381 0
M  V30 16380 C 1541.6 -1.18067 1.07388 0
M  V30 16381 C 1541.8 -2.00739 -0.174951 0
M  V30 16382 O 1540.85 -2.36937 -0.872771 0
M  V30 16383 C 1542.17 -1.90182 2.32919 0
M  V30 16384 C 1543.71 -2.03009 2.38236 0
M  V30 16385 C 1544.19 -2.78533 3.6357 0
M  V30 16386 N 1545.68 -2.86088 3.64291 0
M  V30 16387 C 1546.41 -3.45062 4.57952 0
M  V30 16388 N 1545.91 -4.05204 5.61945 0
M  V30 16389 N 1547.7 -3.42734 4.45522 0
M  V30 16390 H 1539.85 -0.348306 2.09525 0
M  V30 16391 H 1542.12 -0.216796 0.922878 0
M  V30 16392 H 1541.82 -1.36871 3.23974 0
M  V30 16393 H 1541.7 -2.90658 2.40412 0
M  V30 16394 H 1544.08 -2.55495 1.47669 0
M  V30 16395 H 1544.17 -1.01666 2.34729 0
M  V30 16396 H 1543.81 -2.26723 4.54488 0
M  V30 16397 H 1543.74 -3.8022 3.64335 0
M  V30 16398 H 1546.23 -2.43372 2.891 0
M  V30 16399 H 1546.54 -4.48225 6.29535 0
M  V30 16400 H 1544.89 -4.03667 5.65755 0
M  V30 16401 H 1548.08 -2.94967 3.63472 0
M  V30 16402 H 1548.25 -3.884 5.187 0
M  V30 16403 N 1541.66 -1.11854 -1.11024 0
M  V30 16404 C 1542.94 -0.781693 -1.79301 0
M  V30 16405 C 1543.32 0.72956 -1.98092 0
M  V30 16406 O 1542.66 1.66109 -1.56908 0
M  V30 16407 C 1542.87 -1.54976 -3.12703 0
M  V30 16408 C 1544.22 -1.73183 -3.87676 0
M  V30 16409 O 1545.25 -1.51437 -3.22406 0
M  V30 16410 O 1544.1 -2.0935 -5.04812 0
M  V30 16411 H 1541.2 -0.283672 -0.776826 0
M  V30 16412 H 1543.74 -1.22222 -1.17728 0
M  V30 16413 H 1542.52 -2.57759 -2.94408 0
M  V30 16414 H 1542.14 -1.10308 -3.81992 0
M  V30 16415 N 1543.14 1.28707 -0.909517 0
M  V30 16416 C 1544.39 1.94437 -0.536401 0
M  V30 16417 C 1544.7 1.72416 0.923685 0
M  V30 16418 O 1545.9 2.32333 1.40477 0
M  V30 16419 C 1544.36 3.48246 -0.908455 0
M  V30 16420 C 1543.97 3.79051 -2.38798 0
M  V30 16421 C 1545.71 4.20156 -0.605721 0
M  V30 16422 C 1543.62 5.2615 -2.70038 0
M  V30 16423 H 1542.55 0.727842 -0.196882 0
M  V30 16424 H 1545.2 1.46283 -1.10786 0
M  V30 16425 H 1543.58 3.95107 -0.265829 0
M  V30 16426 H 1544.76 3.43014 -3.07698 0
M  V30 16427 H 1543.07 3.20303 -2.66074 0
M  V30 16428 H 1545.67 5.28439 -0.815849 0
M  V30 16429 H 1546.01 4.13792 0.456266 0
M  V30 16430 H 1546.54 3.79059 -1.20662 0
M  V30 16431 H 1543.28 5.37587 -3.75073 0
M  V30 16432 H 1542.8 5.63399 -2.05771 0
M  V30 16433 H 1544.48 5.93846 -2.56819 0
M  V30 16434 N 1544.61 0.673042 1.42506 0
M  V30 16435 C 1545.86 0.1918 2.00786 0
M  V30 16436 C 1546.18 -1.20814 1.53829 0
M  V30 16437 O 1547.38 -1.78566 2.04515 0
M  V30 16438 C 1545.84 0.292045 3.58713 0
M  V30 16439 C 1545.45 1.69593 4.14659 0
M  V30 16440 C 1547.19 -0.130575 4.24299 0
M  V30 16441 C 1545.1 1.74904 5.64945 0
M  V30 16442 H 1544.03 0.0679452 0.750932 0
M  V30 16443 H 1546.68 0.837968 1.63249 0
M  V30 16444 H 1545.06 -0.421985 3.93745 0
M  V30 16445 H 1546.23 2.4369 3.9109 0
M  V30 16446 H 1544.55 2.06625 3.61518 0
M  V30 16447 H 1547.15 -0.11102 5.34585 0
M  V30 16448 H 1547.49 -1.16552 3.99651 0
M  V30 16449 H 1548.02 0.532386 3.94221 0
M  V30 16450 H 1544.76 2.76374 5.94388 0
M  V30 16451 H 1544.28 1.0516 5.9051 0
M  V30 16452 H 1545.96 1.50168 6.29332 0
M  V30 16453 N 1546.09 -1.52004 0.416254 0
M  V30 16454 C 1547.04 -2.27206 -0.405723 0
M  V30 16455 C 1548.01 -1.29913 -1.03498 0
M  V30 16456 O 1549.19 -1.58786 -1.0579 0
M  V30 16457 C 1546.33 -3.10186 -1.51258 0
M  V30 16458 C 1545.45 -4.22445 -0.903539 0
M  V30 16459 C 1544.58 -4.92771 -1.98368 0
M  V30 16460 C 1543.62 -5.96983 -1.35196 0
M  V30 16461 N 1542.76 -6.60798 -2.37255 0
M  V30 16462 H 1547.6 -2.97016 0.241983 0
M  V30 16463 H 1545.14 -1.46514 0.131174 0
M  V30 16464 H 1547.09 -3.56606 -2.16537 0
M  V30 16465 H 1545.72 -2.42532 -2.13021 0
M  V30 16466 H 1544.78 -3.80144 -0.139607 0
M  V30 16467 H 1546.09 -4.97176 -0.402136 0
M  V30 16468 H 1545.24 -5.42633 -2.71357 0
M  V30 16469 H 1543.98 -4.17624 -2.51876 0
M  V30 16470 H 1542.99 -5.46434 -0.607431 0
M  V30 16471 H 1544.21 -6.74076 -0.824482 0
M  V30 16472 H 1542.16 -5.88476 -2.89882 0
M  V30 16473 H 1542.07 -7.31227 -1.91947 0
M  V30 16474 H 1543.34 -7.15296 -3.09792 0
M  V30 16475 N 1547.57 -0.146903 -1.56914 0
M  V30 16476 C 1548.82 0.503237 -1.95734 0
M  V30 16477 C 1549.14 1.65407 -1.03275 0
M  V30 16478 O 1548.41 1.95673 -0.0942784 0
M  V30 16479 H 1546.99 0.188899 -0.722721 0
M  V30 16480 H 1549.65 -0.222379 -1.93627 0
M  V30 16481 H 1548.75 0.879445 -2.99453 0
M  V30 16482 N 1549.05 1.57088 0.126881 0
M  V30 16483 C 1549.96 2.03053 1.17502 0
M  V30 16484 C 1550.97 0.949484 1.45811 0
M  V30 16485 O 1552.15 1.26043 1.57083 0
M  V30 16486 C 1549.22 2.41897 2.48368 0
M  V30 16487 C 1548.28 3.64047 2.27527 0
M  V30 16488 C 1547.51 4.01029 3.52153 0
M  V30 16489 O 1547.73 3.38441 4.59145 0
M  V30 16490 O 1546.67 4.94174 3.43622 0
M  V30 16491 H 1550.49 2.92568 0.814733 0
M  V30 16492 H 1548.08 1.45547 0.3371 0
M  V30 16493 H 1549.96 2.67652 3.25485 0
M  V30 16494 H 1548.63 1.55531 2.83887 0
M  V30 16495 H 1547.54 3.43452 1.48294 0
M  V30 16496 H 1548.87 4.51093 1.96916 0
M  V30 16497 N 1550.53 -0.396836 1.52522 0
M  V30 16498 C 1551.49 -1.46695 1.76106 0
M  V30 16499 C 1552.49 -1.47902 0.631005 0
M  V30 16500 O 1553.68 -1.4921 0.898995 0
M  V30 16501 C 1550.81 -2.86033 1.85467 0
M  V30 16502 H 1552 -1.27071 2.71649 0
M  V30 16503 H 1549.56 -0.628096 1.43125 0
M  V30 16504 H 1550.29 -3.11012 0.918816 0
M  V30 16505 H 1550.08 -2.86559 2.67631 0
M  V30 16506 H 1551.57 -3.63587 2.05412 0
M  V30 16507 N 1552.01 -1.43353 -0.654814 0
M  V30 16508 C 1552.92 -1.50831 -1.79687 0
M  V30 16509 C 1553.93 -0.395518 -1.69445 0
M  V30 16510 O 1555.11 -0.649408 -1.90643 0
M  V30 16511 C 1552.17 -1.42735 -3.15955 0
M  V30 16512 C 1551.23 -2.64671 -3.38005 0
M  V30 16513 C 1550.47 -2.56952 -4.67773 0
M  V30 16514 O 1550.69 -1.61638 -5.47019 0
M  V30 16515 O 1549.62 -3.47425 -4.91507 0
M  V30 16516 H 1553.45 -2.47266 -1.76333 0
M  V30 16517 H 1551.03 -1.25336 -0.813095 0
M  V30 16518 H 1552.92 -1.40656 -3.97233 0
M  V30 16519 H 1551.59 -0.494334 -3.19903 0
M  V30 16520 H 1550.5 -2.72323 -2.56498 0
M  V30 16521 H 1551.83 -3.5694 -3.38903 0
M  V30 16522 N 1553.48 0.89303 -1.29857 0
M  V30 16523 C 1554.71 1.67744 -1.21119 0
M  V30 16524 C 1555.13 1.87428 0.227198 0
M  V30 16525 O 1554.48 1.41605 1.15128 0
M  V30 16526 C 1554.53 3.05827 -1.92749 0
M  V30 16527 O 1554.26 2.87036 -3.30971 0
M  V30 16528 C 1555.76 4.00248 -1.9057 0
M  V30 16529 H 1552.98 0.523699 -0.4195 0
M  V30 16530 H 1555.52 1.1163 -1.71344 0
M  V30 16531 H 1553.68 3.58696 -1.46342 0
M  V30 16532 H 1554.09 3.74578 -3.6714 0
M  V30 16533 H 1555.56 4.9453 -2.45242 0
M  V30 16534 H 1556.04 4.30237 -0.882753 0
M  V30 16535 H 1556.65 3.53312 -2.36751 0
M  V30 16536 N 1554.96 1.12442 1.10429 0
M  V30 16537 C 1556.38 0.860481 1.34417 0
M  V30 16538 C 1556.58 -0.509394 1.94955 0
M  V30 16539 O 1555.63 -1.25807 2.18927 0
M  V30 16540 C 1556.95 1.97694 2.26578 0
M  V30 16541 C 1558.49 2.00783 2.40115 0
M  V30 16542 C 1558.97 3.11663 3.35604 0
M  V30 16543 N 1560.46 3.11106 3.43173 0
M  V30 16544 C 1561.2 3.9354 4.1703 0
M  V30 16545 N 1560.69 4.85963 4.93773 0
M  V30 16546 N 1562.48 3.81677 4.12649 0
M  V30 16547 H 1554.64 2.00706 0.695036 0
M  V30 16548 H 1556.9 0.873398 0.368619 0
M  V30 16549 H 1556.6 2.96405 1.89306 0
M  V30 16550 H 1556.48 1.88217 3.26886 0
M  V30 16551 H 1558.87 1.02692 2.76656 0
M  V30 16552 H 1558.95 2.14335 1.39621 0
M  V30 16553 H 1558.59 4.09987 2.99789 0
M  V30 16554 H 1558.52 2.9535 4.35977 0
M  V30 16555 H 1561.01 2.4415 2.88442 0
M  V30 16556 H 1561.32 5.45373 5.47529 0
M  V30 16557 H 1559.67 4.89976 4.92898 0
M  V30 16558 H 1562.86 3.08808 3.51789 0
M  V30 16559 H 1563.03 4.46151 4.6995 0
M  V30 16560 N 1556.44 -1.28223 0.91633 0
M  V30 16561 C 1557.69 -1.95153 0.551639 0
M  V30 16562 C 1558.02 -1.71938 -0.902829 0
M  V30 16563 O 1557.29 -1.04184 -1.64243 0
M  V30 16564 C 1557.58 -3.49565 0.864647 0
M  V30 16565 C 1557.43 -3.82171 2.37203 0
M  V30 16566 C 1558.75 -4.38604 0.362593 0
M  V30 16567 H 1555.87 -0.708808 0.20189 0
M  V30 16568 H 1558.51 -1.51545 1.14604 0
M  V30 16569 H 1556.66 -3.8684 0.358782 0
M  V30 16570 H 1558.33 -3.54751 2.94872 0
M  V30 16571 H 1556.57 -3.29124 2.82595 0
M  V30 16572 H 1557.25 -4.90007 2.54159 0
M  V30 16573 H 1559.72 -4.08416 0.795983 0
M  V30 16574 H 1558.6 -5.45493 0.61066 0
M  V30 16575 H 1558.86 -4.35911 -0.737137 0
M  V30 16576 N 1557.92 -0.68059 -1.42147 0
M  V30 16577 C 1558.88 -0.0149865 -2.29195 0
M  V30 16578 C 1559.88 0.723163 -1.43621 0
M  V30 16579 O 1561.07 0.560297 -1.64943 0
M  V30 16580 C 1558.2 0.989375 -3.26227 0
M  V30 16581 H 1559.4 -0.781236 -2.89546 0
M  V30 16582 H 1556.95 -0.443256 -1.49883 0
M  V30 16583 H 1557.68 1.78391 -2.70827 0
M  V30 16584 H 1557.47 0.463401 -3.89352 0
M  V30 16585 H 1558.96 1.45334 -3.91494 0
M  V30 16586 N 1559.4 1.51781 -0.424309 0
M  V30 16587 C 1560.64 2.02269 0.146709 0
M  V30 16588 C 1560.97 1.30859 1.4349 0
M  V30 16589 O 1560.25 0.419504 1.89922 0
M  V30 16590 C 1560.53 3.58101 0.378861 0
M  V30 16591 C 1560.39 4.40143 -0.92707 0
M  V30 16592 C 1561.7 4.2469 1.15438 0
M  V30 16593 H 1558.82 0.735174 0.0518456 0
M  V30 16594 H 1561.47 1.81537 -0.560753 0
M  V30 16595 H 1559.62 3.75897 0.981496 0
M  V30 16596 H 1561.29 4.34025 -1.56268 0
M  V30 16597 H 1559.53 4.05748 -1.53464 0
M  V30 16598 H 1560.2 5.47299 -0.718837 0
M  V30 16599 H 1562.68 4.11086 0.644041 0
M  V30 16600 H 1561.55 5.33633 1.28557 0
M  V30 16601 H 1561.81 3.84668 2.17905 0
M  V30 16602 N 1560.87 0.155222 1.56834 0
M  V30 16603 C 1561.82 -0.781315 2.17173 0
M  V30 16604 C 1562.79 -1.23835 1.10699 0
M  V30 16605 O 1563.98 -1.3094 1.38778 0
M  V30 16606 C 1561.12 -2.01174 2.80398 0
M  V30 16607 C 1560.23 -1.59976 4.01287 0
M  V30 16608 C 1559.36 -2.78262 4.52486 0
M  V30 16609 C 1558.4 -2.33477 5.65822 0
M  V30 16610 N 1557.54 -3.44799 6.11603 0
M  V30 16611 H 1562.38 -0.259968 2.96864 0
M  V30 16612 H 1559.92 -0.116599 1.46637 0
M  V30 16613 H 1561.87 -2.73318 3.15203 0
M  V30 16614 H 1560.5 -2.50706 2.03338 0
M  V30 16615 H 1559.56 -0.775668 3.72408 0
M  V30 16616 H 1560.87 -1.2309 4.83374 0
M  V30 16617 H 1560.02 -3.58585 4.89389 0
M  V30 16618 H 1558.76 -3.18398 3.69424 0
M  V30 16619 H 1557.77 -1.51596 5.28487 0
M  V30 16620 H 1558.99 -1.94417 6.50676 0
M  V30 16621 H 1556.94 -3.84541 5.31474 0
M  V30 16622 H 1556.85 -3.11955 6.88637 0
M  V30 16623 H 1558.12 -4.25454 6.53153 0
M  V30 16624 N 1562.35 -1.57153 -0.118549 0
M  V30 16625 C 1563.58 -1.89062 -0.840429 0
M  V30 16626 C 1563.99 -0.746516 -1.73414 0
M  V30 16627 O 1563.35 0.282638 -1.80298 0
M  V30 16628 C 1563.4 -3.20433 -1.67347 0
M  V30 16629 O 1563.12 -4.30439 -0.815739 0
M  V30 16630 C 1564.62 -3.66048 -2.50047 0
M  V30 16631 H 1561.84 -0.626005 -0.241575 0
M  V30 16632 H 1564.39 -2.04241 -0.102804 0
M  V30 16633 H 1562.54 -3.06922 -2.36385 0
M  V30 16634 H 1562.96 -5.05736 -1.39037 0
M  V30 16635 H 1564.43 -4.60729 -3.04028 0
M  V30 16636 H 1564.91 -2.92727 -3.27426 0
M  V30 16637 H 1565.51 -3.82349 -1.86251 0
M  V30 16638 N 1563.83 0.388742 -1.5273 0
M  V30 16639 C 1565.08 1.13543 -1.68035 0
M  V30 16640 C 1565.41 1.89622 -0.419177 0
M  V30 16641 O 1564.68 1.85556 0.583031 0
M  V30 16642 C 1564.97 2.11346 -2.91556 0
M  V30 16643 C 1564.82 1.39029 -4.27775 0
M  V30 16644 C 1566.14 3.11769 -3.10625 0
M  V30 16645 H 1563.26 0.411406 -0.611485 0
M  V30 16646 H 1565.9 0.418781 -1.85327 0
M  V30 16647 H 1564.05 2.7246 -2.76944 0
M  V30 16648 H 1565.72 0.808775 -4.54155 0
M  V30 16649 H 1563.96 0.692133 -4.28243 0
M  V30 16650 H 1564.64 2.10495 -5.1029 0
M  V30 16651 H 1567.11 2.60745 -3.2427 0
M  V30 16652 H 1565.99 3.77447 -3.98529 0
M  V30 16653 H 1566.25 3.80649 -2.24853 0
M  V30 16654 N 1565.31 1.43698 0.647203 0
M  V30 16655 C 1566.26 1.49599 1.78109 0
M  V30 16656 C 1567.25 0.369047 1.65331 0
M  V30 16657 O 1568.46 0.543303 1.71605 0
M  V30 16658 H 1564.83 0.46911 0.587741 0
M  V30 16659 H 1566.8 2.45064 1.70253 0
M  V30 16660 C 1565.55 1.44192 3.16392 0
M  V30 16661 H 1564.87 2.30216 3.26865 0
M  V30 16662 H 1566.31 1.52382 3.95671 0
M  V30 16663 C 1564.77 0.16036 3.36518 0
M  V30 16664 O 1565.3 -0.77593 3.94135 0
M  V30 16665 N 1563.51 0.0686236 2.90519 0
M  V30 16666 H 1563.06 0.831363 2.43816 0
M  V30 16667 H 1563.01 -0.78814 3.04361 0
M  V30 16668 N 1566.79 -0.886131 1.30328 0
M  V30 16669 C 1567.7 -2.02453 1.18532 0
M  V30 16670 C 1568.71 -1.7368 0.105506 0
M  V30 16671 O 1569.89 -1.98838 0.320217 0
M  V30 16672 C 1566.95 -3.3543 0.876792 0
M  V30 16673 C 1566.01 -3.77633 2.04185 0
M  V30 16674 C 1565.25 -5.04264 1.74795 0
M  V30 16675 O 1565.47 -5.66388 0.675323 0
M  V30 16676 O 1564.4 -5.42847 2.60001 0
M  V30 16677 H 1568.23 -2.15333 2.14162 0
M  V30 16678 H 1565.82 -1.01193 1.09911 0
M  V30 16679 H 1567.7 -4.15206 0.719882 0
M  V30 16680 H 1566.37 -3.23662 -0.0496117 0
M  V30 16681 H 1565.28 -2.98567 2.25408 0
M  V30 16682 H 1566.61 -3.94004 2.94994 0
M  V30 16683 N 1568.26 -1.13026 -1.09832 0
M  V30 16684 C 1569.49 -0.912803 -1.86233 0
M  V30 16685 C 1569.91 0.532955 -1.80392 0
M  V30 16686 O 1569.27 1.37783 -1.17837 0
M  V30 16687 C 1569.32 -1.40002 -3.32313 0
M  V30 16688 O 1568.42 -0.582537 -4.08265 0
M  V30 16689 H 1567.77 -0.327464 -0.577636 0
M  V30 16690 H 1570.3 -1.5039 -1.38723 0
M  V30 16691 H 1570.31 -1.40182 -3.83162 0
M  V30 16692 H 1568.98 -2.4527 -3.3588 0
M  V30 16693 H 1567.56 -0.648255 -3.67222 0
M  V30 16694 N 1569.74 1.27735 -0.923117 0
M  V30 16695 C 1570.71 2.25256 -0.423375 0
M  V30 16696 C 1571.71 1.54213 0.455517 0
M  V30 16697 O 1572.9 1.7229 0.257245 0
M  V30 16698 C 1570.03 3.3864 0.391897 0
M  V30 16699 H 1571.22 2.70978 -1.28495 0
M  V30 16700 H 1568.77 1.39579 -0.703378 0
M  V30 16701 H 1569.51 2.98293 1.27248 0
M  V30 16702 H 1569.29 3.91376 -0.238194 0
M  V30 16703 H 1570.78 4.11133 0.732069 0
M  V30 16704 N 1571.22 0.688118 1.41784 0
M  V30 16705 C 1572.45 0.223231 2.06195 0
M  V30 16706 C 1572.87 -1.11601 1.51416 0
M  V30 16707 O 1572.23 -1.69701 0.638059 0
M  V30 16708 C 1572.28 0.183257 3.60134 0
M  V30 16709 O 1571.38 -0.844186 4.03667 0
M  V30 16710 H 1570.72 0.110925 0.654669 0
M  V30 16711 H 1573.25 0.940882 1.81683 0
M  V30 16712 H 1573.26 0.0115951 4.07998 0
M  V30 16713 H 1571.94 1.16072 3.99375 0
M  V30 16714 H 1570.51 -0.642484 3.67323 0
M  V30 16715 N 1572.7 -1.51554 0.432352 0
M  V30 16716 C 1573.63 -2.30514 -0.372243 0
M  V30 16717 C 1574.61 -1.35712 -1.02549 0
M  V30 16718 O 1575.79 -1.6463 -1.03009 0
M  V30 16719 C 1572.92 -3.14353 -1.47646 0
M  V30 16720 C 1571.88 -4.17392 -0.946974 0
M  V30 16721 C 1571.2 -4.89721 -2.14656 0
M  V30 16722 C 1572.5 -5.22298 0.0151377 0
M  V30 16723 H 1574.2 -2.98024 0.28668 0
M  V30 16724 H 1571.74 -1.43325 0.139315 0
M  V30 16725 H 1573.7 -3.68369 -2.04651 0
M  V30 16726 H 1572.42 -2.44654 -2.1636 0
M  V30 16727 H 1571.08 -3.6442 -0.399174 0
M  V30 16728 H 1570.73 -4.1653 -2.81978 0
M  V30 16729 H 1570.43 -5.59393 -1.79869 0
M  V30 16730 H 1571.95 -5.46559 -2.72224 0
M  V30 16731 H 1573.37 -5.71416 -0.464447 0
M  V30 16732 H 1571.76 -5.99468 0.275339 0
M  V30 16733 H 1572.83 -4.75436 0.953357 0
M  V30 16734 N 1574.18 -0.163538 -1.56749 0
M  V30 16735 C 1575.59 0.192717 -1.58432 0
M  V30 16736 C 1575.79 1.63438 -1.17856 0
M  V30 16737 O 1574.85 2.36425 -0.88654 0
M  V30 16738 C 1576.16 -0.0810427 -3.00591 0
M  V30 16739 C 1577.71 -0.0186378 -3.12994 0
M  V30 16740 C 1578.18 -0.265283 -4.57231 0
M  V30 16741 N 1579.68 -0.212787 -4.62711 0
M  V30 16742 C 1580.41 -0.37791 -5.72153 0
M  V30 16743 N 1579.91 -0.601663 -6.90182 0
M  V30 16744 N 1581.7 -0.314357 -5.6122 0
M  V30 16745 H 1573.85 -1.10467 -1.81413 0
M  V30 16746 H 1576.11 -0.438569 -0.840453 0
M  V30 16747 H 1575.82 -1.07944 -3.34725 0
M  V30 16748 H 1575.69 0.630888 -3.71887 0
M  V30 16749 H 1578.08 0.970324 -2.78691 0
M  V30 16750 H 1578.16 -0.763158 -2.44151 0
M  V30 16751 H 1577.81 -1.25142 -4.92242 0
M  V30 16752 H 1577.74 0.499756 -5.24223 0
M  V30 16753 H 1580.23 -0.0451754 -3.77873 0
M  V30 16754 H 1580.54 -0.717319 -7.69464 0
M  V30 16755 H 1578.88 -0.638184 -6.92064 0
M  V30 16756 H 1582.08 -0.140197 -4.6789 0
M  V30 16757 H 1582.25 -0.446472 -6.4646 0
M  V30 16758 N 1575.65 1.57214 0.110213 0
M  V30 16759 C 1576.56 2.04287 1.15342 0
M  V30 16760 C 1577.58 0.964895 1.44796 0
M  V30 16761 O 1578.76 1.27702 1.55737 0
M  V30 16762 C 1575.82 2.44518 2.45788 0
M  V30 16763 C 1574.88 3.66439 2.23653 0
M  V30 16764 C 1574.12 4.04742 3.47879 0
M  V30 16765 O 1574.34 3.43291 4.5553 0
M  V30 16766 O 1573.27 4.97791 3.38361 0
M  V30 16767 H 1577.1 2.93415 0.783656 0
M  V30 16768 H 1574.68 1.45897 0.321644 0
M  V30 16769 H 1576.57 2.71089 3.22628 0
M  V30 16770 H 1575.24 1.58533 2.82221 0
M  V30 16771 H 1574.15 3.45006 1.44643 0
M  V30 16772 H 1575.48 4.53156 1.9212 0
M  V30 16773 N 1577.13 -0.380637 1.52934 0
M  V30 16774 C 1578.55 -0.721287 1.42371 0
M  V30 16775 C 1578.75 -1.93826 0.55078 0
M  V30 16776 O 1577.8 -2.52485 0.02743 0
M  V30 16777 C 1579.12 -0.948564 2.85347 0
M  V30 16778 C 1580.67 -1.04952 2.9488 0
M  V30 16779 C 1581.14 -1.30937 4.38885 0
M  V30 16780 N 1582.63 -1.3774 4.42246 0
M  V30 16781 C 1583.37 -1.59527 5.50762 0
M  V30 16782 N 1582.86 -1.7873 6.69349 0
M  V30 16783 N 1584.66 -1.61774 5.38317 0
M  V30 16784 H 1576.81 0.420032 2.08205 0
M  V30 16785 H 1579.07 0.125776 0.939619 0
M  V30 16786 H 1578.78 -0.126348 3.51473 0
M  V30 16787 H 1578.65 -1.8609 3.28101 0
M  V30 16788 H 1581.04 -1.86229 2.28917 0
M  V30 16789 H 1581.12 -0.114899 2.55542 0
M  V30 16790 H 1580.76 -0.50166 5.05416 0
M  V30 16791 H 1580.69 -2.25696 4.75782 0
M  V30 16792 H 1583.18 -1.24575 3.56777 0
M  V30 16793 H 1583.5 -1.94885 7.47823 0
M  V30 16794 H 1581.84 -1.75938 6.72362 0
M  V30 16795 H 1585.03 -1.4633 4.44641 0
M  V30 16796 H 1585.2 -1.78414 6.22955 0
M  V30 16797 N 1578.61 -1.44039 -0.639573 0
M  V30 16798 C 1579.86 -1.4566 -1.39521 0
M  V30 16799 C 1580.17 -0.0897878 -1.95394 0
M  V30 16800 O 1581.38 0.0165074 -2.71495 0
M  V30 16801 C 1579.83 -2.56395 -2.52566 0
M  V30 16802 C 1579.44 -3.99245 -2.03243 0
M  V30 16803 C 1581.19 -2.67226 -3.29834 0
M  V30 16804 C 1579.09 -5.01419 -3.1358 0
M  V30 16805 H 1578.02 -0.541894 -0.524277 0
M  V30 16806 H 1580.67 -1.70076 -0.688941 0
M  V30 16807 H 1579.06 -2.25204 -3.25729 0
M  V30 16808 H 1580.23 -4.39963 -1.37002 0
M  V30 16809 H 1578.55 -3.9258 -1.38816 0
M  V30 16810 H 1581.14 -3.40736 -4.12072 0
M  V30 16811 H 1581.49 -1.72756 -3.78763 0
M  V30 16812 H 1582.02 -2.97786 -2.63758 0
M  V30 16813 H 1578.76 -5.97489 -2.69605 0
M  V30 16814 H 1578.28 -4.65301 -3.7849 0
M  V30 16815 H 1579.96 -5.2474 -3.78493 0
M  V30 16816 N 1580.09 0.879207 -1.30796 0
M  V30 16817 C 1581 2.01822 -1.19604 0
M  V30 16818 C 1582.01 1.73621 -0.114715 0
M  V30 16819 O 1583.19 1.98665 -0.330757 0
M  V30 16820 C 1580.26 3.3496 -0.894569 0
M  V30 16821 C 1579.32 3.76545 -2.06185 0
M  V30 16822 C 1578.55 5.0333 -1.77467 0
M  V30 16823 O 1578.77 5.66022 -0.70535 0
M  V30 16824 O 1577.71 5.41461 -2.62876 0
M  V30 16825 H 1581.53 2.14194 -2.15301 0
M  V30 16826 H 1579.12 1.00608 -1.10446 0
M  V30 16827 H 1581 4.14818 -0.741891 0
M  V30 16828 H 1579.67 3.23684 0.0324464 0
M  V30 16829 H 1578.58 2.97367 -2.26988 0
M  V30 16830 H 1579.91 3.92434 -2.97079 0
M  V30 16831 N 1581.57 1.13606 1.09231 0
M  V30 16832 C 1582.81 0.899054 1.81448 0
M  V30 16833 C 1583.14 -0.574726 1.85815 0
M  V30 16834 O 1582.4 -1.44144 1.32366 0
M  V30 16835 C 1582.7 1.43456 3.27345 0
M  V30 16836 C 1582.36 2.92553 3.43109 0
M  V30 16837 C 1581.02 3.3326 3.47118 0
M  V30 16838 C 1583.38 3.88467 3.47481 0
M  V30 16839 C 1580.7 4.68562 3.53081 0
M  V30 16840 C 1583.06 5.23616 3.54978 0
M  V30 16841 C 1581.72 5.63847 3.57257 0
M  V30 16842 H 1580.99 0.328987 0.663964 0
M  V30 16843 H 1583.64 1.41834 1.28668 0
M  V30 16844 H 1581.94 0.83602 3.82777 0
M  V30 16845 H 1583.64 1.22723 3.81759 0
M  V30 16846 H 1580.23 2.60076 3.40674 0
M  V30 16847 H 1584.41 3.58103 3.43622 0
M  V30 16848 H 1579.67 4.99106 3.53134 0
M  V30 16849 H 1583.84 5.9775 3.57306 0
M  V30 16850 H 1581.47 6.68676 3.6163 0
M  V30 16851 N 1583.05 -1.27244 0.929878 0
M  V30 16852 C 1583.98 -2.29161 0.448066 0
M  V30 16853 C 1584.96 -1.62806 -0.492776 0
M  V30 16854 O 1586.14 -1.90098 -0.39706 0
M  V30 16855 C 1583.27 -3.46019 -0.298002 0
M  V30 16856 C 1582.23 -4.24384 0.555211 0
M  V30 16857 C 1581.55 -5.33741 -0.320153 0
M  V30 16858 C 1582.85 -4.89535 1.8208 0
M  V30 16859 H 1584.55 -2.69712 1.29983 0
M  V30 16860 H 1582.09 -1.29659 0.626466 0
M  V30 16861 H 1584.04 -4.16419 -0.646024 0
M  V30 16862 H 1582.77 -3.0439 -1.18381 0
M  V30 16863 H 1581.43 -3.55733 0.885971 0
M  V30 16864 H 1581.08 -4.88354 -1.20498 0
M  V30 16865 H 1580.78 -5.8708 0.247241 0
M  V30 16866 H 1582.3 -6.06982 -0.663697 0
M  V30 16867 H 1583.71 -5.52209 1.54071 0
M  V30 16868 H 1582.11 -5.52941 2.33186 0
M  V30 16869 H 1583.18 -4.13113 2.53901 0
M  V30 16870 N 1584.52 -0.695628 -1.41417 0
M  V30 16871 C 1585.47 -0.0189456 -2.32592 0
M  V30 16872 C 1586.47 0.76848 -1.50966 0
M  V30 16873 O 1587.67 0.674096 -1.66901 0
M  V30 16874 H 1584.05 0.0126742 -0.751893 0
M  V30 16875 H 1586.02 -0.804968 -2.87337 0
M  V30 16876 C 1584.77 0.903458 -3.35757 0
M  V30 16877 H 1584.09 0.306963 -3.9862 0
M  V30 16878 H 1585.53 1.34525 -4.02093 0
M  V30 16879 C 1583.99 2.01966 -2.69651 0
M  V30 16880 O 1584.52 3.10845 -2.54438 0
M  V30 16881 N 1582.72 1.79741 -2.28345 0
M  V30 16882 H 1582.27 0.911929 -2.40918 0
M  V30 16883 H 1582.23 2.54609 -1.84449 0
M  V30 16884 N 1586 1.51322 -0.440383 0
M  V30 16885 C 1586.91 2.31574 0.37561 0
M  V30 16886 C 1587.93 1.40617 1.02483 0
M  V30 16887 O 1589.1 1.73688 1.01953 0
M  V30 16888 C 1586.17 3.14441 1.4604 0
M  V30 16889 C 1585.23 4.21181 0.830991 0
M  V30 16890 C 1584.46 5.00087 1.86409 0
M  V30 16891 O 1584.69 4.79666 3.08669 0
M  V30 16892 O 1583.62 5.84101 1.45293 0
M  V30 16893 H 1587.45 3.0241 -0.27962 0
M  V30 16894 H 1585.03 1.48016 -0.202857 0
M  V30 16895 H 1586.91 3.6595 2.08946 0
M  V30 16896 H 1585.59 2.46366 2.09965 0
M  V30 16897 H 1584.49 3.73741 0.163798 0
M  V30 16898 H 1585.83 4.91638 0.235174 0
M  V30 16899 N 1587.48 0.171848 1.5666 0
M  V30 16900 C 1588.44 -0.744316 2.16778 0
M  V30 16901 C 1589.44 -1.15769 1.11598 0
M  V30 16902 O 1590.63 -1.07456 1.37109 0
M  V30 16903 C 1587.76 -2.01319 2.75106 0
M  V30 16904 H 1588.96 -0.220952 2.99085 0
M  V30 16905 H 1586.51 -0.0777149 1.56107 0
M  V30 16906 H 1587.25 -2.57963 1.96534 0
M  V30 16907 H 1587.03 -1.72575 3.5208 0
M  V30 16908 H 1588.52 -2.667 3.21342 0
M  V30 16909 N 1588.96 -1.5727 -0.101874 0
M  V30 16910 C 1590.18 -1.90319 -0.824215 0
M  V30 16911 C 1590.61 -0.765469 -1.7182 0
M  V30 16912 O 1589.97 0.283275 -1.79073 0
M  V30 16913 C 1590.01 -3.22201 -1.61922 0
M  V30 16914 O 1589.12 -3.09313 -2.72762 0
M  V30 16915 H 1588.46 -0.624042 -0.226864 0
M  V30 16916 H 1590.99 -2.04447 -0.0791314 0
M  V30 16917 H 1591 -3.55343 -2.00487 0
M  V30 16918 H 1589.67 -4.04596 -0.963078 0
M  V30 16919 H 1588.25 -2.87672 -2.37274 0
M  V30 16920 N 1590.44 0.372521 -1.53134 0
M  V30 16921 C 1591.68 1.11754 -1.6923 0
M  V30 16922 C 1592.01 1.89167 -0.439265 0
M  V30 16923 O 1591.29 1.86164 0.563317 0
M  V30 16924 C 1591.57 2.08242 -2.93781 0
M  V30 16925 C 1591.43 1.34484 -4.29225 0
M  V30 16926 C 1592.74 3.08457 -3.13914 0
M  V30 16927 H 1589.86 0.404898 -0.615814 0
M  V30 16928 H 1592.51 0.399101 -1.85761 0
M  V30 16929 H 1590.66 2.69507 -2.79818 0
M  V30 16930 H 1592.33 0.76056 -4.54987 0
M  V30 16931 H 1590.57 0.646673 -4.28953 0
M  V30 16932 H 1591.24 2.05071 -5.12494 0
M  V30 16933 H 1593.72 2.57292 -3.27017 0
M  V30 16934 H 1592.59 3.73198 -4.0251 0
M  V30 16935 H 1592.85 3.78243 -2.28878 0
M  V30 16936 N 1591.91 1.44376 0.631925 0
M  V30 16937 C 1592.85 1.45649 1.75675 0
M  V30 16938 C 1593.82 0.31542 1.59511 0
M  V30 16939 O 1595.01 0.512271 1.81406 0
M  V30 16940 C 1592.14 1.2884 3.13238 0
M  V30 16941 C 1591.18 2.46499 3.48053 0
M  V30 16942 S 1592.01 4.0903 3.45622 0
M  V30 16943 C 1593.17 3.94643 4.85807 0
M  V30 16944 H 1593.4 2.40825 1.74328 0
M  V30 16945 H 1590.94 1.31664 0.806467 0
M  V30 16946 H 1592.89 1.19829 3.92621 0
M  V30 16947 H 1591.56 0.351754 3.12124 0
M  V30 16948 H 1590.75 2.30599 4.48152 0
M  V30 16949 H 1590.35 2.52245 2.76131 0
M  V30 16950 H 1592.64 3.58283 5.75012 0
M  V30 16951 H 1593.59 4.94569 5.06761 0
M  V30 16952 H 1593.99 3.26717 4.60343 0
M  V30 16953 N 1593.39 -0.872258 1.31261 0
M  V30 16954 C 1594.34 -1.97926 1.18718 0
M  V30 16955 C 1595.31 -1.65937 0.0735242 0
M  V30 16956 O 1596.49 -1.89208 0.245979 0
M  V30 16957 C 1593.63 -3.33208 0.898117 0
M  V30 16958 C 1592.75 -3.77808 2.09488 0
M  V30 16959 C 1591.88 -5.01796 1.74281 0
M  V30 16960 C 1590.92 -5.38838 2.90379 0
M  V30 16961 N 1590.06 -6.54007 2.55382 0
M  V30 16962 H 1594.9 -2.07986 2.13415 0
M  V30 16963 H 1592.43 -1.01821 1.06165 0
M  V30 16964 H 1594.39 -4.11095 0.711089 0
M  V30 16965 H 1593.02 -3.22798 -0.0120097 0
M  V30 16966 H 1592.07 -2.95722 2.39276 0
M  V30 16967 H 1593.39 -4.01191 2.96391 0
M  V30 16968 H 1592.54 -5.87344 1.52027 0
M  V30 16969 H 1591.28 -4.80312 0.845665 0
M  V30 16970 H 1590.28 -4.51811 3.13284 0
M  V30 16971 H 1591.51 -5.62289 3.80799 0
M  V30 16972 H 1589.46 -6.34073 1.68188 0
M  V30 16973 H 1589.37 -6.77322 3.35814 0
M  V30 16974 H 1590.64 -7.42752 2.36516 0
M  V30 16975 N 1594.87 -1.14184 -1.08627 0
M  V30 16976 C 1596.12 -0.906869 -1.80611 0
M  V30 16977 C 1596.44 0.568182 -1.86539 0
M  V30 16978 O 1595.71 1.41301 -1.35687 0
M  V30 16979 H 1594.29 -0.332523 -0.668908 0
M  V30 16980 H 1596.95 -1.43998 -1.31341 0
M  V30 16981 H 1596.05 -1.30484 -2.83514 0
M  V30 16982 N 1596.35 1.26749 -0.936613 0
M  V30 16983 C 1597.6 1.93964 -0.581754 0
M  V30 16984 C 1597.92 1.73532 0.878449 0
M  V30 16985 O 1597.18 1.06295 1.64316 0
M  V30 16986 C 1597.48 3.4678 -0.864789 0
M  V30 16987 C 1597.14 3.87344 -2.30815 0
M  V30 16988 C 1595.81 3.98129 -2.70271 0
M  V30 16989 C 1598.16 4.07752 -3.24634 0
M  V30 16990 C 1595.49 4.26717 -4.02653 0
M  V30 16991 C 1597.84 4.37827 -4.56607 0
M  V30 16992 C 1596.5 4.46826 -4.95886 0
M  V30 16993 H 1595.77 0.709763 -0.212879 0
M  V30 16994 H 1598.42 1.50648 -1.18226 0
M  V30 16995 H 1596.72 3.91378 -0.181699 0
M  V30 16996 H 1598.42 3.96942 -0.569065 0
M  V30 16997 H 1595.01 3.79492 -1.99207 0
M  V30 16998 H 1599.19 3.98852 -2.95349 0
M  V30 16999 H 1594.45 4.31895 -4.32755 0
M  V30 17000 H 1598.62 4.52565 -5.293 0
M  V30 17001 H 1596.25 4.68732 -5.98494 0
M  V30 17002 N 1597.83 0.703118 1.41046 0
M  V30 17003 C 1599.05 0.246552 2.05426 0
M  V30 17004 C 1599.47 -1.10704 1.52938 0
M  V30 17005 O 1598.83 -1.69329 0.680733 0
M  V30 17006 C 1598.88 0.203953 3.60924 0
M  V30 17007 O 1598.6 1.50408 4.11472 0
M  V30 17008 C 1600.1 -0.272686 4.42461 0
M  V30 17009 H 1597.32 0.113157 0.66139 0
M  V30 17010 H 1599.86 0.957823 1.80682 0
M  V30 17011 H 1598.02 -0.458194 3.84681 0
M  V30 17012 H 1598.43 1.39622 5.05575 0
M  V30 17013 H 1599.91 -0.251357 5.51427 0
M  V30 17014 H 1600.38 -1.31282 4.1912 0
M  V30 17015 H 1600.99 0.358733 4.23784 0
M  V30 17016 N 1599.3 -1.51086 0.448402 0
M  V30 17017 C 1600.54 -2.04085 -0.113374 0
M  V30 17018 C 1600.91 -1.32454 -1.38996 0
M  V30 17019 O 1602.11 -1.75885 -2.03268 0
M  V30 17020 C 1600.38 -3.56001 -0.315869 0
M  V30 17021 S 1601.94 -4.30695 -0.839462 0
M  V30 17022 H 1598.76 -0.7105 -0.0266528 0
M  V30 17023 H 1601.36 -1.85728 0.610345 0
M  V30 17024 H 1600.06 -4.05699 0.6194 0
M  V30 17025 H 1599.59 -3.78672 -1.06635 0
M  V30 17026 H 1601.61 -4.48833 -2.11573 0
M  V30 17027 N 1600.78 -0.180154 -1.56567 0
M  V30 17028 C 1601.73 0.759144 -2.14991 0
M  V30 17029 C 1602.72 1.18672 -1.08654 0
M  V30 17030 O 1603.91 1.14761 -1.34755 0
M  V30 17031 C 1601.04 1.98473 -2.80113 0
M  V30 17032 C 1600.12 1.57874 -3.9362 0
M  V30 17033 N 1600.51 0.882825 -4.98036 0
M  V30 17034 C 1598.81 1.86913 -4.04944 0
M  V30 17035 C 1599.51 0.681573 -5.77693 0
M  V30 17036 N 1598.49 1.22573 -5.29601 0
M  V30 17037 H 1602.29 0.218574 -2.93086 0
M  V30 17038 H 1599.81 0.0202002 -1.62387 0
M  V30 17039 H 1601.8 2.66797 -3.20351 0
M  V30 17040 H 1600.46 2.53017 -2.03501 0
M  V30 17041 H 1601.47 0.539906 -5.15078 0
M  V30 17042 H 1598.15 2.43071 -3.39445 0
M  V30 17043 H 1599.54 0.130602 -6.71773 0
M  V30 17044 N 1602.26 1.57322 0.0935319 0
M  V30 17045 C 1603.21 1.98608 1.11977 0
M  V30 17046 C 1604.19 0.864762 1.35686 0
M  V30 17047 O 1605.39 1.1286 1.36351 0
M  V30 17048 C 1602.52 2.41537 2.43957 0
M  V30 17049 C 1601.6 3.60357 2.23615 0
M  V30 17050 N 1601.99 4.75242 1.73144 0
M  V30 17051 C 1600.29 3.66485 2.54175 0
M  V30 17052 C 1600.99 5.5718 1.67109 0
M  V30 17053 N 1599.97 5.00396 2.1238 0
M  V30 17054 H 1603.77 2.84881 0.722513 0
M  V30 17055 H 1601.28 1.59587 0.300936 0
M  V30 17056 H 1603.28 2.69343 3.18213 0
M  V30 17057 H 1601.94 1.56641 2.84418 0
M  V30 17058 H 1602.95 4.97961 1.42319 0
M  V30 17059 H 1599.63 2.92255 2.9815 0
M  V30 17060 H 1601.02 6.59376 1.29125 0
M  V30 17061 N 1603.74 -0.364395 1.53329 0
M  V30 17062 C 1604.98 -1.10855 1.6982 0
M  V30 17063 C 1605.32 -1.88931 0.449291 0
M  V30 17064 O 1604.59 -1.8646 -0.553437 0
M  V30 17065 C 1604.88 -2.06681 2.94881 0
M  V30 17066 C 1604.73 -1.32206 4.29932 0
M  V30 17067 C 1606.05 -3.06788 3.15546 0
M  V30 17068 H 1603.17 -0.401626 0.617953 0
M  V30 17069 H 1605.81 -0.389244 1.8597 0
M  V30 17070 H 1603.96 -2.68019 2.81244 0
M  V30 17071 H 1605.63 -0.73642 4.55384 0
M  V30 17072 H 1603.87 -0.623916 4.2929 0
M  V30 17073 H 1604.54 -2.0235 5.13574 0
M  V30 17074 H 1607.02 -2.55554 3.28377 0
M  V30 17075 H 1605.9 -3.71059 4.04483 0
M  V30 17076 H 1606.16 -3.77023 2.3088 0
M  V30 17077 N 1605.22 -1.44709 -0.62426 0
M  V30 17078 C 1606.46 -1.48072 -1.38573 0
M  V30 17079 C 1606.8 -0.115532 -1.93856 0
M  V30 17080 O 1606.07 0.867787 -1.74068 0
M  V30 17081 C 1606.35 -2.54662 -2.54596 0
M  V30 17082 C 1606.21 -4.00564 -2.04618 0
M  V30 17083 C 1607.53 -2.57689 -3.56769 0
M  V30 17084 H 1604.64 -0.539119 -0.502513 0
M  V30 17085 H 1607.29 -1.76427 -0.705225 0
M  V30 17086 H 1605.44 -2.30614 -3.12649 0
M  V30 17087 H 1607.11 -4.35767 -1.51343 0
M  V30 17088 H 1605.35 -4.12014 -1.35746 0
M  V30 17089 H 1606.02 -4.70804 -2.8818 0
M  V30 17090 H 1608.5 -2.79194 -3.08529 0
M  V30 17091 H 1607.37 -3.34161 -4.35462 0
M  V30 17092 H 1607.64 -1.62146 -4.11292 0
M  V30 17093 N 1606.69 0.865285 -1.31722 0
M  V30 17094 C 1608.11 1.15179 -1.10481 0
M  V30 17095 C 1608.31 2.01132 0.121667 0
M  V30 17096 O 1607.37 2.39167 0.809645 0
M  V30 17097 C 1608.68 1.8394 -2.3788 0
M  V30 17098 C 1610.23 1.96621 -2.43535 0
M  V30 17099 C 1610.7 2.68796 -3.70827 0
M  V30 17100 N 1612.19 2.76329 -3.71748 0
M  V30 17101 C 1612.93 3.32798 -4.6694 0
M  V30 17102 N 1612.42 3.90162 -5.7249 0
M  V30 17103 N 1614.22 3.30801 -4.54453 0
M  V30 17104 H 1606.37 0.292632 -2.10374 0
M  V30 17105 H 1608.63 0.192252 -0.928301 0
M  V30 17106 H 1608.34 1.28233 -3.27489 0
M  V30 17107 H 1608.21 2.84182 -2.48034 0
M  V30 17108 H 1610.6 2.5149 -1.54392 0
M  V30 17109 H 1610.68 0.954071 -2.37342 0
M  V30 17110 H 1610.32 2.14593 -4.60339 0
M  V30 17111 H 1610.25 3.70427 -3.74288 0
M  V30 17112 H 1612.74 2.35621 -2.95451 0
M  V30 17113 H 1613.06 4.31376 -6.41198 0
M  V30 17114 H 1611.4 3.88525 -5.76258 0
M  V30 17115 H 1614.59 2.85227 -3.71165 0
M  V30 17116 H 1614.77 3.74511 -5.28815 0
M  V30 17117 N 1608.17 1.14759 1.0802 0
M  V30 17118 C 1609.1 0.860977 2.17047 0
M  V30 17119 C 1610.08 -0.185652 1.69084 0
M  V30 17120 O 1611.27 -0.0414797 1.94156 0
M  V30 17121 C 1608.4 0.342018 3.45612 0
M  V30 17122 C 1607.35 1.32455 4.06989 0
M  V30 17123 C 1606.68 0.664721 5.30552 0
M  V30 17124 C 1607.98 2.68819 4.4781 0
M  V30 17125 H 1609.67 1.77269 2.4128 0
M  V30 17126 H 1607.22 0.853757 1.15961 0
M  V30 17127 H 1609.17 0.129093 4.21202 0
M  V30 17128 H 1607.9 -0.605138 3.20945 0
M  V30 17129 H 1606.55 1.52371 3.33435 0
M  V30 17130 H 1606.2 -0.288367 5.02173 0
M  V30 17131 H 1605.9 1.32036 5.72573 0
M  V30 17132 H 1607.43 0.461412 6.08854 0
M  V30 17133 H 1608.84 2.52787 5.14559 0
M  V30 17134 H 1607.24 3.30694 5.00761 0
M  V30 17135 H 1608.31 3.25398 3.59506 0
M  V30 17136 N 1609.65 -1.26251 0.943322 0
M  V30 17137 C 1610.58 -2.28673 0.472347 0
M  V30 17138 C 1611.56 -1.63319 -0.475481 0
M  V30 17139 O 1612.75 -1.90508 -0.376875 0
M  V30 17140 C 1609.88 -3.46316 -0.261286 0
M  V30 17141 C 1608.83 -4.23771 0.600192 0
M  V30 17142 C 1608.16 -5.3405 -0.263525 0
M  V30 17143 C 1609.46 -4.87576 1.87262 0
M  V30 17144 H 1611.15 -2.68319 1.32836 0
M  V30 17145 H 1608.7 -1.28987 0.640182 0
M  V30 17146 H 1610.65 -4.1708 -0.601821 0
M  V30 17147 H 1609.37 -3.05629 -1.15146 0
M  V30 17148 H 1608.03 -3.54774 0.923651 0
M  V30 17149 H 1607.68 -4.89604 -1.15312 0
M  V30 17150 H 1607.38 -5.86784 0.309495 0
M  V30 17151 H 1608.9 -6.07652 -0.599281 0
M  V30 17152 H 1610.32 -5.50544 1.59919 0
M  V30 17153 H 1608.72 -5.50437 2.39038 0
M  V30 17154 H 1609.79 -4.10397 2.58268 0
M  V30 17155 N 1611.13 -0.710588 -1.40671 0
M  V30 17156 C 1612.38 -0.247459 -2.00579 0
M  V30 17157 C 1612.7 1.16179 -1.56612 0
M  V30 17158 O 1611.97 1.7867 -0.803358 0
M  V30 17159 H 1610.55 -0.0884992 -0.741739 0
M  V30 17160 H 1613.21 -0.915103 -1.72081 0
M  V30 17161 H 1612.31 -0.276631 -3.10872 0
M  V30 17162 N 1612.61 1.50847 -0.456408 0
M  V30 17163 C 1613.85 2.02534 0.103772 0
M  V30 17164 C 1614.19 1.33874 1.40682 0
M  V30 17165 O 1613.46 0.459695 1.8899 0
M  V30 17166 C 1613.74 3.58825 0.302817 0
M  V30 17167 C 1613.6 4.38077 -1.02022 0
M  V30 17168 C 1614.92 4.27044 1.06404 0
M  V30 17169 H 1612.04 0.736108 0.0362398 0
M  V30 17170 H 1614.68 1.80306 -0.599134 0
M  V30 17171 H 1612.83 3.77895 0.901542 0
M  V30 17172 H 1614.5 4.30613 -1.6544 0
M  V30 17173 H 1612.74 4.02401 -1.62036 0
M  V30 17174 H 1613.41 5.45652 -0.834766 0
M  V30 17175 H 1615.89 4.12359 0.556698 0
M  V30 17176 H 1614.77 5.3624 1.17209 0
M  V30 17177 H 1615.03 3.89204 2.09697 0
M  V30 17178 N 1614.09 0.188454 1.56469 0
M  V30 17179 C 1615.33 -0.452728 1.97682 0
M  V30 17180 C 1615.66 -1.61729 1.07506 0
M  V30 17181 O 1614.94 -1.94094 0.125677 0
M  V30 17182 C 1615.22 -0.919257 3.48169 0
M  V30 17183 C 1615.08 0.246656 4.49123 0
M  V30 17184 C 1616.39 -1.78706 4.02184 0
M  V30 17185 H 1613.51 -0.16309 0.718729 0
M  V30 17186 H 1616.16 0.27804 1.87955 0
M  V30 17187 H 1614.31 -1.54195 3.5659 0
M  V30 17188 H 1615.98 0.884178 4.52747 0
M  V30 17189 H 1614.22 0.89948 4.24372 0
M  V30 17190 H 1614.89 -0.122179 5.51865 0
M  V30 17191 H 1617.37 -1.26196 3.96502 0
M  V30 17192 H 1616.24 -2.08247 5.07863 0
M  V30 17193 H 1616.5 -2.73891 3.47039 0
M  V30 17194 N 1615.56 -1.5737 -0.0851874 0
M  V30 17195 C 1616.79 -1.91183 -0.803983 0
M  V30 17196 C 1617.21 -0.78365 -1.70999 0
M  V30 17197 O 1616.57 0.264266 -1.79364 0
M  V30 17198 C 1616.62 -3.239 -1.58496 0
M  V30 17199 O 1615.72 -3.12189 -2.69466 0
M  V30 17200 H 1615.06 -0.626413 -0.220233 0
M  V30 17201 H 1617.59 -2.04519 -0.0574426 0
M  V30 17202 H 1617.6 -3.5745 -1.96707 0
M  V30 17203 H 1616.28 -4.05594 -0.920111 0
M  V30 17204 H 1614.86 -2.90173 -2.3421 0
M  V30 17205 N 1617.04 0.356258 -1.53521 0
M  V30 17206 C 1617.99 1.43689 -1.80616 0
M  V30 17207 C 1618.96 1.52808 -0.651064 0
M  V30 17208 O 1620.14 1.68549 -0.894203 0
M  V30 17209 C 1617.28 2.80513 -2.01013 0
M  V30 17210 C 1616.4 2.80287 -3.2873 0
M  V30 17211 C 1615.53 4.08747 -3.39263 0
M  V30 17212 C 1614.57 4.02699 -4.60977 0
M  V30 17213 N 1613.71 5.22825 -4.68614 0
M  V30 17214 H 1618.55 1.19884 -2.72822 0
M  V30 17215 H 1616.08 0.580984 -1.35141 0
M  V30 17216 H 1618.04 3.60011 -2.10827 0
M  V30 17217 H 1616.67 3.02698 -1.12134 0
M  V30 17218 H 1615.72 1.92968 -3.27822 0
M  V30 17219 H 1617.04 2.71693 -4.18311 0
M  V30 17220 H 1616.19 4.96663 -3.4844 0
M  V30 17221 H 1614.93 4.20106 -2.47715 0
M  V30 17222 H 1613.93 3.13168 -4.51892 0
M  V30 17223 H 1615.16 3.92934 -5.53877 0
M  V30 17224 H 1613.11 5.34752 -3.79969 0
M  V30 17225 H 1613.02 5.16437 -5.52113 0
M  V30 17226 H 1614.29 6.12548 -4.82085 0
M  V30 17227 N 1618.52 1.45038 0.616577 0
M  V30 17228 C 1619.77 1.48292 1.3731 0
M  V30 17229 C 1620.09 0.122437 1.94615 0
M  V30 17230 O 1619.36 -0.847103 1.76638 0
M  V30 17231 H 1617.94 0.546079 0.509712 0
M  V30 17232 H 1620.6 1.80927 0.724673 0
M  V30 17233 H 1619.7 2.21664 2.19708 0
M  V30 17234 N 1620 -0.858287 1.32179 0
M  V30 17235 C 1620.93 -1.97304 1.16636 0
M  V30 17236 C 1621.94 -1.62478 0.102311 0
M  V30 17237 O 1623.13 -1.75016 0.350926 0
M  V30 17238 C 1620.23 -3.30215 0.762337 0
M  V30 17239 C 1619.4 -3.93305 1.9139 0
M  V30 17240 C 1618.46 -5.04545 1.49402 0
M  V30 17241 O 1617.49 -5.24735 2.20548 0
M  V30 17242 N 1618.69 -5.79202 0.387984 0
M  V30 17243 H 1621.46 -2.11179 2.12658 0
M  V30 17244 H 1619.02 -1.03294 1.24668 0
M  V30 17245 H 1621.01 -4.02032 0.463922 0
M  V30 17246 H 1619.58 -3.12418 -0.10662 0
M  V30 17247 H 1618.8 -3.1432 2.37901 0
M  V30 17248 H 1620.09 -4.32192 2.68492 0
M  V30 17249 H 1619.49 -5.65331 -0.204252 0
M  V30 17250 H 1618.04 -6.51629 0.149158 0
M  V30 17251 N 1621.48 -1.1533 -1.07409 0
M  V30 17252 C 1622.89 -0.937287 -1.61468 0
M  V30 17253 C 1623.24 0.521545 -1.89141 0
M  V30 17254 O 1622.36 1.39253 -1.65643 0
M  V30 17255 C 1622.96 -1.69501 -2.93351 0
M  V30 17256 C 1621.52 -1.52429 -3.44154 0
M  V30 17257 C 1620.66 -1.71098 -2.18222 0
M  V30 17258 H 1623.61 -1.30364 -0.905044 0
M  V30 17259 H 1623.64 -1.16416 -3.62253 0
M  V30 17260 H 1623.15 -2.75672 -2.73178 0
M  V30 17261 H 1621.25 -0.486498 -3.6941 0
M  V30 17262 H 1621.36 -2.30089 -4.20233 0
M  V30 17263 H 1619.73 -1.13745 -2.27891 0
M  V30 17264 H 1620.51 -2.78634 -2.00545 0
M  V30 17265 N 1622.95 1.25748 -0.950004 0
M  V30 17266 C 1624.18 1.97413 -0.61933 0
M  V30 17267 C 1624.6 1.70656 0.807591 0
M  V30 17268 O 1623.95 0.979899 1.53962 0
M  V30 17269 C 1624 3.51053 -0.862801 0
M  V30 17270 O 1623.73 3.76884 -2.23361 0
M  V30 17271 C 1625.23 4.39951 -0.543879 0
M  V30 17272 H 1622.45 0.629394 -0.232603 0
M  V30 17273 H 1624.99 1.60037 -1.27312 0
M  V30 17274 H 1623.15 3.86557 -0.255493 0
M  V30 17275 H 1623.56 4.71368 -2.30026 0
M  V30 17276 H 1625.03 5.46676 -0.764804 0
M  V30 17277 H 1625.51 4.36094 0.521421 0
M  V30 17278 H 1626.12 4.10005 -1.1303 0
M  V30 17279 N 1624.43 0.718038 1.40292 0
M  V30 17280 C 1625.36 0.0818367 2.33357 0
M  V30 17281 C 1626.34 -0.742854 1.53022 0
M  V30 17282 O 1627.53 -0.691281 1.8148 0
M  V30 17283 C 1624.66 -0.838843 3.37017 0
M  V30 17284 C 1623.61 -0.119589 4.27833 0
M  V30 17285 C 1622.94 -1.15615 5.22051 0
M  V30 17286 C 1624.24 1.02769 5.1209 0
M  V30 17287 H 1625.93 0.859167 2.86808 0
M  V30 17288 H 1623.48 0.414606 1.37902 0
M  V30 17289 H 1625.43 -1.29332 4.01063 0
M  V30 17290 H 1624.15 -1.6481 2.81967 0
M  V30 17291 H 1622.81 0.315088 3.65243 0
M  V30 17292 H 1622.46 -1.95852 4.63304 0
M  V30 17293 H 1622.16 -0.679767 5.83655 0
M  V30 17294 H 1623.69 -1.61068 5.88973 0
M  V30 17295 H 1625.1 0.652461 5.69575 0
M  V30 17296 H 1623.5 1.4326 5.82749 0
M  V30 17297 H 1624.57 1.85723 4.47923 0
M  V30 17298 N 1625.91 -1.50602 0.464402 0
M  V30 17299 C 1627.16 -2.02587 -0.0930295 0
M  V30 17300 C 1627.49 -1.34618 -1.3997 0
M  V30 17301 O 1626.76 -0.469711 -1.88743 0
M  V30 17302 C 1627.05 -3.5898 -0.283783 0
M  V30 17303 C 1626.9 -4.3753 1.04344 0
M  V30 17304 C 1628.22 -4.27602 -1.04138 0
M  V30 17305 H 1625.34 -0.73629 -0.0323356 0
M  V30 17306 H 1627.98 -1.79986 0.608687 0
M  V30 17307 H 1626.13 -3.78368 -0.881488 0
M  V30 17308 H 1627.8 -4.29729 1.67721 0
M  V30 17309 H 1626.05 -4.01536 1.64168 0
M  V30 17310 H 1626.72 -5.45201 0.863691 0
M  V30 17311 H 1629.19 -4.12649 -0.534822 0
M  V30 17312 H 1628.07 -5.36854 -1.14364 0
M  V30 17313 H 1628.33 -3.9031 -2.0763 0
M  V30 17314 N 1627.39 -0.19675 -1.56367 0
M  V30 17315 C 1628.63 0.442238 -1.97919 0
M  V30 17316 C 1628.97 1.61156 -1.08362 0
M  V30 17317 O 1628.24 1.94024 -0.135969 0
M  V30 17318 C 1628.53 0.90078 -3.48652 0
M  V30 17319 C 1628.38 -0.270471 -4.48986 0
M  V30 17320 C 1629.7 1.7657 -4.03126 0
M  V30 17321 H 1626.82 0.159276 -0.719583 0
M  V30 17322 H 1629.46 -0.288004 -1.87805 0
M  V30 17323 H 1627.61 1.52302 -3.57402 0
M  V30 17324 H 1629.28 -0.908176 -4.52272 0
M  V30 17325 H 1627.52 -0.921973 -4.23889 0
M  V30 17326 H 1628.19 0.0929101 -5.51922 0
M  V30 17327 H 1630.67 1.24091 -3.97166 0
M  V30 17328 H 1629.55 2.0555 -5.0896 0
M  V30 17329 H 1629.81 2.72047 -3.48486 0
M  V30 17330 N 1628.87 1.57413 0.0768405 0
M  V30 17331 C 1629.8 1.98626 1.12352 0
M  V30 17332 C 1630.78 0.862359 1.37848 0
M  V30 17333 O 1631.96 1.12423 1.51305 0
M  V30 17334 C 1629.09 2.31866 2.46893 0
M  V30 17335 C 1628.13 3.54212 2.37563 0
M  V30 17336 S 1628.97 5.05241 1.77459 0
M  V30 17337 C 1630.12 5.41677 3.13588 0
M  V30 17338 H 1630.36 2.87094 0.772273 0
M  V30 17339 H 1627.89 1.51743 0.285191 0
M  V30 17340 H 1629.85 2.51691 3.24287 0
M  V30 17341 H 1628.51 1.43935 2.7918 0
M  V30 17342 H 1627.7 3.7497 3.36769 0
M  V30 17343 H 1627.3 3.33991 1.68304 0
M  V30 17344 H 1629.6 5.39439 4.09893 0
M  V30 17345 H 1630.54 6.42519 2.97614 0
M  V30 17346 H 1630.95 4.69136 3.13961 0
M  V30 17347 N 1630.34 -0.348112 1.53707 0
M  V30 17348 C 1631.25 -1.45079 1.84361 0
M  V30 17349 C 1632.27 -1.5779 0.733375 0
M  V30 17350 O 1633.45 -1.73353 1.02522 0
M  V30 17351 C 1630.51 -2.80127 2.04278 0
M  V30 17352 C 1629.57 -2.76799 3.28148 0
M  V30 17353 C 1628.81 -4.05406 3.47105 0
M  V30 17354 O 1629.03 -5.02454 2.69992 0
M  V30 17355 O 1627.96 -4.10155 4.40519 0
M  V30 17356 H 1631.79 -1.22093 2.78077 0
M  V30 17357 H 1629.37 -0.539863 1.39305 0
M  V30 17358 H 1631.26 -3.60115 2.18849 0
M  V30 17359 H 1629.93 -3.03055 1.13751 0
M  V30 17360 H 1628.84 -1.95448 3.18984 0
M  V30 17361 H 1630.17 -2.58826 4.18653 0
M  V30 17362 N 1631.82 -1.45363 -0.608876 0
M  V30 17363 C 1632.75 -1.56778 -1.7304 0
M  V30 17364 C 1633.73 -0.419405 -1.64848 0
M  V30 17365 O 1634.92 -0.64238 -1.83268 0
M  V30 17366 C 1632.05 -1.5329 -3.1164 0
M  V30 17367 C 1631 -2.66832 -3.34641 0
M  V30 17368 C 1630.33 -2.48398 -4.735 0
M  V30 17369 C 1631.63 -4.0885 -3.25021 0
M  V30 17370 H 1633.32 -2.50656 -1.63743 0
M  V30 17371 H 1630.87 -1.20635 -0.786338 0
M  V30 17372 H 1632.82 -1.59873 -3.89895 0
M  V30 17373 H 1631.55 -0.559414 -3.21773 0
M  V30 17374 H 1630.2 -2.59675 -2.58775 0
M  V30 17375 H 1629.85 -1.49191 -4.80366 0
M  V30 17376 H 1629.55 -3.24537 -4.89846 0
M  V30 17377 H 1631.08 -2.56833 -5.53958 0
M  V30 17378 H 1632.49 -4.17257 -3.93153 0
M  V30 17379 H 1630.89 -4.85369 -3.52897 0
M  V30 17380 H 1631.96 -4.30849 -2.2248 0
M  V30 17381 N 1633.3 0.851265 -1.32632 0
M  V30 17382 C 1634.23 1.96408 -1.16187 0
M  V30 17383 C 1635.21 1.62488 -0.0604559 0
M  V30 17384 O 1636.4 1.87207 -0.220397 0
M  V30 17385 C 1633.52 3.29611 -0.779378 0
M  V30 17386 C 1632.57 3.82509 -1.88652 0
M  V30 17387 S 1633.4 4.05687 -3.4954 0
M  V30 17388 C 1634.56 5.4186 -3.1327 0
M  V30 17389 H 1634.79 2.10056 -2.10389 0
M  V30 17390 H 1632.32 1.00363 -1.17332 0
M  V30 17391 H 1634.28 4.06587 -0.565463 0
M  V30 17392 H 1632.94 3.1377 0.143841 0
M  V30 17393 H 1632.14 4.78858 -1.57196 0
M  V30 17394 H 1631.74 3.12388 -2.05645 0
M  V30 17395 H 1634.03 6.24233 -2.63325 0
M  V30 17396 H 1634.97 5.7828 -4.08654 0
M  V30 17397 H 1635.38 5.06025 -2.50199 0
M  V30 17398 N 1634.78 1.15898 1.06796 0
M  V30 17399 C 1635.74 0.863427 2.12315 0
M  V30 17400 C 1636.74 -0.139326 1.60195 0
M  V30 17401 O 1637.93 0.0909705 1.73962 0
M  V30 17402 C 1635.06 0.290251 3.39662 0
M  V30 17403 H 1636.26 1.79879 2.39966 0
M  V30 17404 H 1633.81 0.967223 1.22778 0
M  V30 17405 H 1634.54 -0.653037 3.17657 0
M  V30 17406 H 1634.33 1.01273 3.78796 0
M  V30 17407 H 1635.82 0.10124 4.17477 0
M  V30 17408 N 1636.26 -1.25243 0.956659 0
M  V30 17409 C 1637.21 -2.23532 0.449171 0
M  V30 17410 C 1638.19 -1.54103 -0.462715 0
M  V30 17411 O 1639.38 -1.74517 -0.295436 0
M  V30 17412 C 1636.51 -3.42237 -0.269892 0
M  V30 17413 C 1635.6 -4.1893 0.660181 0
M  V30 17414 N 1635.99 -4.72965 1.7927 0
M  V30 17415 C 1634.29 -4.4353 0.468779 0
M  V30 17416 C 1634.99 -5.31072 2.37355 0
M  V30 17417 N 1633.96 -5.17638 1.65986 0
M  V30 17418 H 1637.77 -2.62918 1.31345 0
M  V30 17419 H 1635.28 -1.40504 0.814394 0
M  V30 17420 H 1637.28 -4.11792 -0.650604 0
M  V30 17421 H 1635.94 -3.04375 -1.13075 0
M  V30 17422 H 1636.95 -4.70038 2.17451 0
M  V30 17423 H 1633.62 -4.16038 -0.349031 0
M  V30 17424 H 1635.01 -5.83654 3.32863 0
M  V30 17425 N 1637.73 -0.725468 -1.3991 0
M  V30 17426 C 1638.98 -0.268719 -2.00306 0
M  V30 17427 C 1639.3 1.14511 -1.57836 0
M  V30 17428 O 1638.57 1.77808 -0.822263 0
M  V30 17429 H 1637.15 -0.0963614 -0.740759 0
M  V30 17430 H 1639.82 -0.933303 -1.71101 0
M  V30 17431 H 1638.91 -0.309587 -3.10561 0
M  V30 17432 N 1639.21 1.50354 -0.472382 0
M  V30 17433 C 1640.49 1.95071 0.143803 0
M  V30 17434 C 1640.87 1.41281 1.56853 0
M  V30 17435 O 1640.22 0.614349 2.20086 0
M  V30 17436 C 1640.43 3.48895 0.0857944 0
M  V30 17437 C 1641.78 4.23715 0.274039 0
M  V30 17438 O 1642.8 3.5583 0.162319 0
M  V30 17439 O 1641.66 5.4421 0.499815 0
M  V30 17440 H 1638.75 0.819521 0.110966 0
M  V30 17441 H 1641.3 1.61116 -0.532876 0
M  V30 17442 H 1640.07 3.80598 -0.908887 0
M  V30 17443 H 1639.69 3.89389 0.803875 0
M  V30 17444 N 1640.69 0.205039 1.56261 0
M  V30 17445 C 1641.62 -0.706815 2.22545 0
M  V30 17446 C 1642.6 -1.21372 1.19176 0
M  V30 17447 O 1643.79 -1.26074 1.47712 0
M  V30 17448 C 1640.92 -1.92221 2.89255 0
M  V30 17449 C 1639.87 -1.54982 3.98954 0
M  V30 17450 C 1639.2 -2.84265 4.52877 0
M  V30 17451 C 1640.5 -0.75225 5.16854 0
M  V30 17452 H 1642.19 -0.15421 2.99003 0
M  V30 17453 H 1639.74 -0.0727309 1.43816 0
M  V30 17454 H 1641.69 -2.56542 3.34311 0
M  V30 17455 H 1640.41 -2.49952 2.10218 0
M  V30 17456 H 1639.07 -0.930155 3.54604 0
M  V30 17457 H 1638.72 -3.40105 3.70591 0
M  V30 17458 H 1638.42 -2.60089 5.26904 0
M  V30 17459 H 1639.95 -3.49557 5.00642 0
M  V30 17460 H 1641.36 -1.29878 5.58395 0
M  V30 17461 H 1639.76 -0.60823 5.9701 0
M  V30 17462 H 1640.83 0.24463 4.84283 0
M  V30 17463 N 1642.17 -1.57451 -0.0684915 0
M  V30 17464 C 1643.12 -2.03916 -1.08105 0
M  V30 17465 C 1644.09 -0.920418 -1.38266 0
M  V30 17466 O 1645.27 -1.18831 -1.49277 0
M  V30 17467 C 1642.41 -2.49075 -2.38863 0
M  V30 17468 C 1641.52 -3.74581 -2.15204 0
M  V30 17469 C 1640.66 -4.08509 -3.39549 0
M  V30 17470 C 1639.7 -5.27046 -3.11269 0
M  V30 17471 N 1638.84 -5.56597 -4.27954 0
M  V30 17472 H 1643.68 -2.90188 -0.677843 0
M  V30 17473 H 1641.21 -1.43507 -0.32313 0
M  V30 17474 H 1643.17 -2.7331 -3.1521 0
M  V30 17475 H 1641.8 -1.65776 -2.76981 0
M  V30 17476 H 1640.85 -3.57666 -1.29535 0
M  V30 17477 H 1642.16 -4.61065 -1.90317 0
M  V30 17478 H 1641.32 -4.33663 -4.24289 0
M  V30 17479 H 1640.06 -3.20599 -3.67515 0
M  V30 17480 H 1639.06 -5.01686 -2.24926 0
M  V30 17481 H 1640.29 -6.16577 -2.84622 0
M  V30 17482 H 1638.23 -4.71646 -4.55945 0
M  V30 17483 H 1638.15 -6.37506 -4.06352 0
M  V30 17484 H 1639.42 -5.86303 -5.13681 0
M  V30 17485 N 1643.65 0.339955 -1.5389 0
M  V30 17486 C 1644.87 1.10417 -1.75564 0
M  V30 17487 C 1645.3 1.81466 -0.495156 0
M  V30 17488 O 1644.66 1.72679 0.552415 0
M  V30 17489 C 1644.7 2.09056 -2.93816 0
M  V30 17490 O 1643.81 3.16645 -2.64215 0
M  V30 17491 H 1643.15 0.319164 -0.582263 0
M  V30 17492 H 1645.68 0.389251 -2.00863 0
M  V30 17493 H 1645.69 2.52215 -3.20705 0
M  V30 17494 H 1644.36 1.56741 -3.85234 0
M  V30 17495 H 1642.94 2.78278 -2.48225 0
M  V30 17496 N 1645.13 1.45684 0.601159 0
M  V30 17497 C 1646.36 1.53351 1.38445 0
M  V30 17498 C 1646.76 0.167103 1.88461 0
M  V30 17499 O 1646.11 -0.842684 1.63231 0
M  V30 17500 C 1646.17 2.46214 2.61952 0
M  V30 17501 C 1645.83 3.92826 2.33532 0
M  V30 17502 C 1646.83 4.8255 1.93498 0
M  V30 17503 C 1644.51 4.378 2.46245 0
M  V30 17504 C 1646.51 6.15257 1.66547 0
M  V30 17505 C 1644.2 5.70546 2.18908 0
M  V30 17506 C 1645.19 6.59094 1.79121 0
M  V30 17507 O 1644.88 7.89378 1.52108 0
M  V30 17508 H 1644.61 0.521638 0.429965 0
M  V30 17509 H 1647.17 1.91622 0.739617 0
M  V30 17510 H 1645.4 2.02926 3.29178 0
M  V30 17511 H 1647.09 2.44492 3.24004 0
M  V30 17512 H 1647.85 4.49066 1.83207 0
M  V30 17513 H 1643.73 3.69115 2.76179 0
M  V30 17514 H 1647.28 6.8433 1.35418 0
M  V30 17515 H 1643.17 6.03583 2.28818 0
M  V30 17516 H 1643.94 8.01468 1.66107 0
M  V30 17517 N 1646.6 -0.84422 1.33082 0
M  V30 17518 C 1647.53 -1.96899 1.25511 0
M  V30 17519 C 1648.51 -1.69549 0.13677 0
M  V30 17520 O 1649.7 -1.9145 0.325667 0
M  V30 17521 C 1646.83 -3.32947 0.988094 0
M  V30 17522 C 1645.78 -3.7468 2.06879 0
M  V30 17523 C 1645.11 -5.08475 1.65401 0
M  V30 17524 C 1646.41 -3.89033 3.48498 0
M  V30 17525 H 1648.1 -2.03491 2.19617 0
M  V30 17526 H 1645.65 -0.977659 1.05725 0
M  V30 17527 H 1647.6 -4.11198 0.921645 0
M  V30 17528 H 1646.33 -3.26598 0.0114067 0
M  V30 17529 H 1644.99 -2.98689 2.12557 0
M  V30 17530 H 1644.63 -4.98592 0.66449 0
M  V30 17531 H 1644.33 -5.37368 2.37717 0
M  V30 17532 H 1645.86 -5.89207 1.60212 0
M  V30 17533 H 1647.27 -4.57609 3.4535 0
M  V30 17534 H 1645.67 -4.29357 4.19253 0
M  V30 17535 H 1646.74 -2.91639 3.87395 0
M  V30 17536 N 1648.08 -1.16463 -1.0618 0
M  V30 17537 C 1649.5 -0.909776 -1.31131 0
M  V30 17538 C 1649.7 0.436686 -1.96711 0
M  V30 17539 O 1648.75 1.17595 -2.23445 0
M  V30 17540 C 1650.07 -2.05967 -2.19084 0
M  V30 17541 C 1651.61 -2.09557 -2.32497 0
M  V30 17542 C 1652.09 -3.23904 -3.23806 0
M  V30 17543 N 1653.58 -3.23628 -3.3139 0
M  V30 17544 C 1654.32 -4.08746 -4.02137 0
M  V30 17545 N 1653.81 -5.03954 -4.75397 0
M  V30 17546 N 1655.6 -3.96729 -3.98199 0
M  V30 17547 H 1647.76 -2.03148 -0.620066 0
M  V30 17548 H 1650.02 -0.886477 -0.335949 0
M  V30 17549 H 1649.72 -3.03227 -1.78174 0
M  V30 17550 H 1649.6 -2.00219 -3.19675 0
M  V30 17551 H 1651.99 -1.12889 -2.72654 0
M  V30 17552 H 1652.07 -2.19369 -1.3157 0
M  V30 17553 H 1651.71 -4.20831 -2.84366 0
M  V30 17554 H 1651.64 -3.11327 -4.24715 0
M  V30 17555 H 1654.13 -2.54687 -2.79182 0
M  V30 17556 H 1654.44 -5.65319 -5.2691 0
M  V30 17557 H 1652.79 -5.07932 -4.74373 0
M  V30 17558 H 1655.98 -3.21652 -3.40085 0
M  V30 17559 H 1656.15 -4.63286 -4.53067 0
M  V30 17560 N 1649.56 1.24734 -0.963288 0
M  V30 17561 C 1650.78 1.97285 -0.639808 0
M  V30 17562 C 1651.21 1.71024 0.783099 0
M  V30 17563 O 1650.57 0.971324 1.53085 0
M  V30 17564 C 1650.62 3.48793 -0.915197 0
M  V30 17565 O 1649.72 4.124 0.00162805 0
M  V30 17566 H 1649.06 0.618196 -0.242343 0
M  V30 17567 H 1651.59 1.58627 -1.29224 0
M  V30 17568 H 1651.6 3.99155 -0.84495 0
M  V30 17569 H 1650.28 3.67235 -1.95221 0
M  V30 17570 H 1648.85 3.72702 -0.121563 0
M  V30 17571 N 1651.04 0.732878 1.39523 0
M  V30 17572 C 1651.97 0.106583 2.33257 0
M  V30 17573 C 1652.95 -0.726582 1.53801 0
M  V30 17574 O 1654.13 -0.671994 1.82203 0
M  V30 17575 C 1651.26 -0.803051 3.37888 0
M  V30 17576 C 1650.22 -0.0742048 4.27936 0
M  V30 17577 C 1649.54 -1.10071 5.23248 0
M  V30 17578 C 1650.84 1.08195 5.10971 0
M  V30 17579 H 1652.54 0.889539 2.8588 0
M  V30 17580 H 1650.08 0.429209 1.37455 0
M  V30 17581 H 1652.04 -1.25071 4.02412 0
M  V30 17582 H 1650.76 -1.6181 2.83699 0
M  V30 17583 H 1649.42 0.35381 3.64889 0
M  V30 17584 H 1649.07 -1.90927 4.65356 0
M  V30 17585 H 1648.77 -0.617825 5.84343 0
M  V30 17586 H 1650.29 -1.54812 5.90649 0
M  V30 17587 H 1651.71 0.712835 5.68851 0
M  V30 17588 H 1650.1 1.49433 5.81197 0
M  V30 17589 H 1651.17 1.90463 4.45928 0
M  V30 17590 N 1652.52 -1.50101 0.480349 0
M  V30 17591 C 1653.93 -1.59028 0.135048 0
M  V30 17592 C 1654.13 -1.48763 -1.35911 0
M  V30 17593 O 1653.19 -1.35089 -2.13324 0
M  V30 17594 C 1654.5 -2.92594 0.693483 0
M  V30 17595 C 1656.05 -3.06011 0.657737 0
M  V30 17596 C 1656.52 -4.42166 1.19388 0
M  V30 17597 N 1658.01 -4.48603 1.15368 0
M  V30 17598 C 1658.75 -5.52363 1.53893 0
M  V30 17599 N 1658.25 -6.6333 1.99911 0
M  V30 17600 N 1660.04 -5.42959 1.45438 0
M  V30 17601 H 1652.19 -1.55017 1.45202 0
M  V30 17602 H 1654.45 -0.733118 0.601034 0
M  V30 17603 H 1654.16 -3.0561 1.74056 0
M  V30 17604 H 1654.03 -3.76932 0.142238 0
M  V30 17605 H 1656.42 -2.92637 -0.38045 0
M  V30 17606 H 1656.5 -2.23408 1.24589 0
M  V30 17607 H 1656.14 -4.5629 2.23074 0
M  V30 17608 H 1656.07 -5.23376 0.58185 0
M  V30 17609 H 1658.57 -3.68979 0.816271 0
M  V30 17610 H 1658.88 -7.38576 2.27431 0
M  V30 17611 H 1657.22 -6.64426 2.03871 0
M  V30 17612 H 1660.41 -4.55156 1.09321 0
M  V30 17613 H 1660.59 -6.23701 1.75786 0
M  V30 17614 N 1653.99 -0.213323 -1.5615 0
M  V30 17615 C 1655.4 0.29602 -1.84338 0
M  V30 17616 C 1655.76 1.60073 -1.13451 0
M  V30 17617 O 1654.88 2.12645 -0.4014 0
M  V30 17618 C 1655.48 0.54387 -3.34406 0
M  V30 17619 C 1654.03 0.997539 -3.62941 0
M  V30 17620 C 1653.18 0.0560823 -2.77243 0
M  V30 17621 H 1656.13 -0.436707 -1.52573 0
M  V30 17622 H 1656.15 1.39093 -3.54166 0
M  V30 17623 H 1655.67 -0.405885 -3.85972 0
M  V30 17624 H 1653.77 1.96094 -3.16825 0
M  V30 17625 H 1653.88 0.877642 -4.70993 0
M  V30 17626 H 1652.24 0.561362 -2.48437 0
M  V30 17627 H 1653.03 -0.888442 -3.31605 0
M  V30 17628 N 1655.47 1.57485 0.0601405 0
M  V30 17629 C 1656.38 2.07853 1.08785 0
M  V30 17630 C 1657.4 1.01047 1.41653 0
M  V30 17631 O 1658.57 1.32592 1.51596 0
M  V30 17632 C 1655.64 2.52214 2.37885 0
M  V30 17633 C 1654.7 3.73369 2.11882 0
M  V30 17634 C 1653.93 4.15604 3.34827 0
M  V30 17635 O 1654.16 3.5761 4.44377 0
M  V30 17636 O 1653.09 5.08303 3.22353 0
M  V30 17637 H 1656.92 2.9576 0.689912 0
M  V30 17638 H 1654.5 1.46846 0.275065 0
M  V30 17639 H 1656.38 2.81216 3.1384 0
M  V30 17640 H 1655.06 1.67432 2.77035 0
M  V30 17641 H 1653.97 3.49433 1.33594 0
M  V30 17642 H 1655.3 4.59039 1.77606 0
M  V30 17643 N 1656.95 -0.331789 1.54068 0
M  V30 17644 C 1657.91 -1.39094 1.82169 0
M  V30 17645 C 1658.91 -1.45092 0.693168 0
M  V30 17646 O 1660.1 -1.45263 0.961471 0
M  V30 17647 C 1657.24 -2.77909 1.97432 0
M  V30 17648 H 1658.43 -1.15435 2.76794 0
M  V30 17649 H 1655.98 -0.566827 1.4566 0
M  V30 17650 H 1656.72 -3.06835 1.0499 0
M  V30 17651 H 1656.5 -2.7495 2.79544 0
M  V30 17652 H 1657.99 -3.54548 2.20649 0
M  V30 17653 N 1658.43 -1.46001 -0.593424 0
M  V30 17654 C 1659.34 -1.58316 -1.73128 0
M  V30 17655 C 1660.35 -0.467029 -1.67615 0
M  V30 17656 O 1661.53 -0.729682 -1.87717 0
M  V30 17657 C 1658.6 -1.56007 -3.09617 0
M  V30 17658 C 1657.66 -2.78769 -3.26475 0
M  V30 17659 C 1656.89 -2.76561 -4.56453 0
M  V30 17660 O 1657.11 -1.84694 -5.39671 0
M  V30 17661 O 1656.05 -3.67959 -4.76329 0
M  V30 17662 H 1659.87 -2.54522 -1.65686 0
M  V30 17663 H 1657.46 -1.28672 -0.759204 0
M  V30 17664 H 1659.34 -1.57377 -3.9091 0
M  V30 17665 H 1658.01 -0.629571 -3.17519 0
M  V30 17666 H 1656.92 -2.82956 -2.44717 0
M  V30 17667 H 1658.25 -3.70992 -3.23459 0
M  V30 17668 N 1659.91 0.83715 -1.33527 0
M  V30 17669 C 1660.85 1.96849 -1.23908 0
M  V30 17670 C 1661.85 1.6882 -0.140096 0
M  V30 17671 O 1663.05 1.77411 -0.304166 0
M  V30 17672 H 1659.43 0.646232 -0.384562 0
M  V30 17673 H 1661.4 2.02087 -2.19552 0
M  V30 17674 C 1660.15 3.33102 -0.996907 0
M  V30 17675 H 1659.47 3.5521 -1.83482 0
M  V30 17676 H 1660.91 4.12757 -0.96991 0
M  V30 17677 C 1659.37 3.3556 0.30013 0
M  V30 17678 O 1659.9 3.79868 1.30626 0
M  V30 17679 N 1658.11 2.8874 0.328269 0
M  V30 17680 H 1657.65 2.52877 -0.491043 0
M  V30 17681 H 1657.61 2.90767 1.19591 0
M  V30 17682 N 1661.38 1.17024 1.05561 0
M  V30 17683 C 1662.33 0.879696 2.15323 0
M  V30 17684 C 1663.33 -0.154191 1.68697 0
M  V30 17685 O 1664.53 -0.00746608 1.79998 0
M  V30 17686 H 1660.91 0.266916 0.703036 0
M  V30 17687 H 1662.88 1.81264 2.37035 0
M  V30 17688 C 1661.63 0.405371 3.45329 0
M  V30 17689 H 1660.95 1.19238 3.81605 0
M  V30 17690 H 1662.39 0.240923 4.23315 0
M  V30 17691 C 1660.85 -0.876349 3.25303 0
M  V30 17692 O 1661.38 -1.94397 3.51529 0
M  V30 17693 N 1659.59 -0.823031 2.78702 0
M  V30 17694 H 1659.13 0.0459847 2.57559 0
M  V30 17695 H 1659.09 -1.68108 2.65682 0
M  V30 17696 N 1662.86 -1.24221 0.969889 0
M  V30 17697 C 1664.27 -1.74206 0.671494 0
M  V30 17698 C 1664.62 -1.78576 -0.81271 0
M  V30 17699 O 1663.75 -1.41664 -1.63586 0
M  V30 17700 C 1664.34 -3.16371 1.21222 0
M  V30 17701 C 1662.9 -3.63855 0.96368 0
M  V30 17702 C 1662.05 -2.42429 1.34623 0
M  V30 17703 H 1665 -1.09893 1.14496 0
M  V30 17704 H 1665.02 -3.7606 0.579552 0
M  V30 17705 H 1664.53 -3.13159 2.29245 0
M  V30 17706 H 1662.64 -3.72463 -0.100931 0
M  V30 17707 H 1662.75 -4.51207 1.61087 0
M  V30 17708 H 1661.11 -2.42952 0.764624 0
M  V30 17709 H 1661.9 -2.41896 2.436 0
M  V30 17710 N 1664.34 -0.740267 -1.39132 0
M  V30 17711 C 1665.59 -0.289949 -2.00009 0
M  V30 17712 C 1665.91 1.12831 -1.59042 0
M  V30 17713 O 1665.18 1.76926 -0.841076 0
M  V30 17714 H 1663.76 -0.104213 -0.739695 0
M  V30 17715 H 1666.42 -0.951398 -1.70101 0
M  V30 17716 H 1665.52 -0.342509 -3.10215 0
M  V30 17717 N 1665.82 1.49844 -0.488302 0
M  V30 17718 C 1667.23 1.58954 -0.14348 0
M  V30 17719 C 1667.43 1.49482 1.3512 0
M  V30 17720 O 1666.49 1.36218 2.12605 0
M  V30 17721 C 1667.8 2.92222 -0.708991 0
M  V30 17722 C 1669.35 3.05658 -0.673957 0
M  V30 17723 C 1669.83 4.41526 -1.21731 0
M  V30 17724 N 1671.32 4.47985 -1.17746 0
M  V30 17725 C 1672.05 5.51539 -1.5682 0
M  V30 17726 N 1671.55 6.62261 -2.03426 0
M  V30 17727 N 1673.34 5.4218 -1.48315 0
M  V30 17728 H 1665.49 1.54244 -1.46022 0
M  V30 17729 H 1667.76 0.72992 -0.604914 0
M  V30 17730 H 1667.46 3.04683 -1.75674 0
M  V30 17731 H 1667.34 3.76851 -0.162226 0
M  V30 17732 H 1669.72 2.92835 0.364925 0
M  V30 17733 H 1669.8 2.22744 -1.25772 0
M  V30 17734 H 1669.45 4.551 -2.25491 0
M  V30 17735 H 1669.38 5.2306 -0.609598 0
M  V30 17736 H 1671.87 3.68541 -0.835828 0
M  V30 17737 H 1672.18 7.3736 -2.31345 0
M  V30 17738 H 1670.53 6.63335 -2.07392 0
M  V30 17739 H 1673.72 4.54569 -1.11733 0
M  V30 17740 H 1673.89 6.2276 -1.79092 0
M  V30 17741 N 1667.3 0.221601 1.56034 0
M  V30 17742 C 1668.71 -0.28624 1.84493 0
M  V30 17743 C 1669.06 -1.59469 1.14298 0
M  V30 17744 O 1668.18 -2.12429 0.412672 0
M  V30 17745 C 1668.78 -0.526128 3.3469 0
M  V30 17746 C 1667.34 -0.978278 3.63465 0
M  V30 17747 C 1666.48 -0.0413786 2.77269 0
M  V30 17748 H 1669.44 0.444792 1.52339 0
M  V30 17749 H 1669.46 -1.37212 3.54899 0
M  V30 17750 H 1668.97 0.426348 3.85751 0
M  V30 17751 H 1667.07 -1.94411 3.1786 0
M  V30 17752 H 1667.18 -0.852651 4.71452 0
M  V30 17753 H 1665.55 -0.548179 2.48731 0
M  V30 17754 H 1666.33 0.906016 3.31129 0
M  V30 17755 N 1668.77 -1.57515 -0.0517878 0
M  V30 17756 C 1670.19 -1.76755 -0.601218 0
M  V30 17757 C 1670.54 -0.849744 -1.76844 0
M  V30 17758 O 1669.66 -0.0387987 -2.16365 0
M  V30 17759 C 1670.26 -3.20534 -1.09743 0
M  V30 17760 C 1668.82 -3.41049 -1.59256 0
M  V30 17761 C 1667.96 -2.72369 -0.520618 0
M  V30 17762 H 1670.91 -1.57739 0.174429 0
M  V30 17763 H 1670.93 -3.25796 -1.96563 0
M  V30 17764 H 1670.45 -3.87309 -0.247696 0
M  V30 17765 H 1668.55 -2.79417 -2.46489 0
M  V30 17766 H 1668.66 -4.49581 -1.65572 0
M  V30 17767 H 1667.02 -2.3549 -0.97038 0
M  V30 17768 H 1667.81 -3.41812 0.319266 0
M  V30 17769 N 1670.25 0.323614 -1.54242 0
M  V30 17770 C 1671.66 0.898051 -1.63682 0
M  V30 17771 C 1672.02 1.88882 -0.530861 0
M  V30 17772 O 1671.14 2.13772 0.336245 0
M  V30 17773 C 1671.74 1.63561 -2.96704 0
M  V30 17774 C 1670.29 2.15877 -3.08341 0
M  V30 17775 C 1669.44 0.984145 -2.59249 0
M  V30 17776 H 1672.39 0.101198 -1.58377 0
M  V30 17777 H 1672.41 2.49982 -2.86861 0
M  V30 17778 H 1671.93 0.914265 -3.77177 0
M  V30 17779 H 1670.03 2.91127 -2.32542 0
M  V30 17780 H 1670.14 2.40881 -4.14141 0
M  V30 17781 H 1668.5 1.3633 -2.15143 0
M  V30 17782 H 1669.29 0.277118 -3.4218 0
M  V30 17783 N 1671.73 1.46313 0.585673 0
M  V30 17784 C 1672.96 1.55035 1.3701 0
M  V30 17785 C 1673.37 0.190444 1.87837 0
M  V30 17786 O 1672.73 -0.81177 1.63452 0
M  V30 17787 C 1672.78 2.55272 2.55965 0
M  V30 17788 O 1672.5 3.85981 2.07245 0
M  V30 17789 C 1674 2.73906 3.48555 0
M  V30 17790 H 1671.22 0.524377 0.418653 0
M  V30 17791 H 1673.77 1.91695 0.712267 0
M  V30 17792 H 1671.92 2.21625 3.17744 0
M  V30 17793 H 1672.34 4.40512 2.84692 0
M  V30 17794 H 1673.81 3.4797 4.2851 0
M  V30 17795 H 1674.29 1.80708 4.00301 0
M  V30 17796 H 1674.89 3.08638 2.92614 0
M  V30 17797 N 1673.21 -0.830057 1.33969 0
M  V30 17798 C 1674.14 -1.95557 1.27592 0
M  V30 17799 C 1675.12 -1.69395 0.154745 0
M  V30 17800 O 1676.31 -1.91094 0.345954 0
M  V30 17801 C 1673.44 -3.31881 1.02335 0
M  V30 17802 C 1672.39 -3.72464 2.10842 0
M  V30 17803 C 1671.72 -5.06692 1.70785 0
M  V30 17804 C 1673.02 -3.85315 3.52604 0
M  V30 17805 H 1674.71 -2.0115 2.21763 0
M  V30 17806 H 1672.26 -0.96639 1.06756 0
M  V30 17807 H 1674.21 -4.10197 0.965206 0
M  V30 17808 H 1672.93 -3.26568 0.0460462 0
M  V30 17809 H 1671.59 -2.96417 2.15714 0
M  V30 17810 H 1671.24 -4.97859 0.717334 0
M  V30 17811 H 1670.94 -5.34817 2.43403 0
M  V30 17812 H 1672.46 -5.87474 1.66452 0
M  V30 17813 H 1673.88 -4.5392 3.50185 0
M  V30 17814 H 1672.27 -4.24886 4.23783 0
M  V30 17815 H 1673.34 -2.87514 3.90466 0
M  V30 17816 N 1674.69 -1.17582 -1.04939 0
M  V30 17817 C 1675.62 -0.852608 -2.12752 0
M  V30 17818 C 1676.63 0.14607 -1.62143 0
M  V30 17819 O 1677.82 -0.0805751 -1.78318 0
M  V30 17820 C 1674.92 -0.251083 -3.37969 0
M  V30 17821 C 1674.09 -1.29325 -4.17844 0
M  V30 17822 C 1673.15 -0.709025 -5.21401 0
M  V30 17823 O 1672.18 -1.38149 -5.52181 0
M  V30 17824 N 1673.38 0.497716 -5.78362 0
M  V30 17825 H 1676.15 -1.78054 -2.41074 0
M  V30 17826 H 1673.71 -1.07502 -1.21058 0
M  V30 17827 H 1675.7 0.15312 -4.0441 0
M  V30 17828 H 1674.27 0.580684 -3.07159 0
M  V30 17829 H 1673.49 -1.87311 -3.46855 0
M  V30 17830 H 1674.78 -1.99614 -4.68008 0
M  V30 17831 H 1674.18 1.06196 -5.55643 0
M  V30 17832 H 1672.73 0.843951 -6.46313 0
M  V30 17833 N 1676.17 1.23705 -0.976463 0
M  V30 17834 C 1677.08 2.28728 -0.521605 0
M  V30 17835 C 1678.09 1.68813 0.421691 0
M  V30 17836 O 1679.27 1.99263 0.292579 0
M  V30 17837 C 1676.33 3.4627 0.172545 0
M  V30 17838 C 1675.39 4.21557 -0.811664 0
M  V30 17839 C 1674.63 5.33488 -0.150546 0
M  V30 17840 O 1674.85 5.60478 1.05926 0
M  V30 17841 O 1673.78 5.95909 -0.847132 0
M  V30 17842 H 1677.61 2.6977 -1.39491 0
M  V30 17843 H 1675.19 1.29562 -0.743909 0
M  V30 17844 H 1677.08 4.17634 0.562103 0
M  V30 17845 H 1675.75 3.07187 1.02067 0
M  V30 17846 H 1674.66 3.52533 -1.25185 0
M  V30 17847 H 1675.99 4.6448 -1.62848 0
M  V30 17848 N 1677.64 0.747635 1.38738 0
M  V30 17849 C 1678.58 0.0644992 2.28109 0
M  V30 17850 C 1679.55 -0.734554 1.45062 0
M  V30 17851 O 1680.74 -0.714444 1.74436 0
M  V30 17852 C 1677.87 -0.915595 3.2609 0
M  V30 17853 C 1676.91 -0.203499 4.26014 0
M  V30 17854 S 1677.74 1.09151 5.24258 0
M  V30 17855 C 1678.9 0.114334 6.25796 0
M  V30 17856 H 1679.13 0.822371 2.857 0
M  V30 17857 H 1676.67 0.539962 1.44651 0
M  V30 17858 H 1678.62 -1.47575 3.83056 0
M  V30 17859 H 1677.29 -1.6464 2.67493 0
M  V30 17860 H 1676.48 -0.945572 4.9505 0
M  V30 17861 H 1676.08 0.284966 3.72913 0
M  V30 17862 H 1678.37 -0.721737 6.73645 0
M  V30 17863 H 1679.32 0.772189 7.03877 0
M  V30 17864 H 1679.72 -0.263706 5.63884 0
M  V30 17865 N 1679.12 -1.49583 0.496242 0
M  V30 17866 C 1680.37 -2.01634 -0.051782 0
M  V30 17867 C 1680.68 -1.38133 -1.38487 0
M  V30 17868 O 1681.89 -1.81484 -2.0193 0
M  V30 17869 C 1680.35 -3.59617 -0.142755 0
M  V30 17870 C 1679.95 -4.32088 1.1834 0
M  V30 17871 C 1681.7 -4.19626 -0.641397 0
M  V30 17872 C 1679.6 -5.81917 1.05485 0
M  V30 17873 H 1678.53 -0.753645 -0.0231258 0
M  V30 17874 H 1681.19 -1.72165 0.634944 0
M  V30 17875 H 1679.57 -3.85781 -0.893826 0
M  V30 17876 H 1680.74 -4.17628 1.94739 0
M  V30 17877 H 1679.06 -3.83801 1.61511 0
M  V30 17878 H 1681.65 -5.29343 -0.755008 0
M  V30 17879 H 1682 -3.82676 -1.63906 0
M  V30 17880 H 1682.53 -3.97765 0.053003 0
M  V30 17881 H 1679.27 -6.23384 2.02664 0
M  V30 17882 H 1678.79 -5.98882 0.331667 0
M  V30 17883 H 1680.47 -6.4285 0.731641 0
M  V30 17884 N 1680.6 -0.229873 -1.55915 0
M  V30 17885 C 1681.53 0.70927 -2.1795 0
M  V30 17886 C 1682.54 1.15142 -1.15092 0
M  V30 17887 O 1683.73 1.08114 -1.42034 0
M  V30 17888 C 1680.83 1.97359 -2.75504 0
M  V30 17889 C 1680.01 1.68565 -4.03614 0
M  V30 17890 C 1679.07 2.79786 -4.45652 0
M  V30 17891 O 1678.09 2.479 -5.12381 0
M  V30 17892 N 1679.29 4.08921 -4.12024 0
M  V30 17893 H 1682.06 0.178573 -2.99168 0
M  V30 17894 H 1679.62 -0.0491789 -1.61825 0
M  V30 17895 H 1681.61 2.70972 -3.00593 0
M  V30 17896 H 1680.18 2.41454 -1.98542 0
M  V30 17897 H 1679.4 0.785547 -3.86294 0
M  V30 17898 H 1680.69 1.46769 -4.87172 0
M  V30 17899 H 1680.09 4.37667 -3.58419 0
M  V30 17900 H 1678.64 4.79052 -4.41987 0
M  V30 17901 N 1682.08 1.5754 0.0434337 0
M  V30 17902 C 1683.01 2.00964 1.08114 0
M  V30 17903 C 1683.99 0.891404 1.35988 0
M  V30 17904 O 1685.17 1.15607 1.48887 0
M  V30 17905 C 1682.3 2.3705 2.41919 0
M  V30 17906 C 1681.35 3.59171 2.29996 0
M  V30 17907 S 1682.18 5.08892 1.66702 0
M  V30 17908 C 1683.33 5.48206 3.02028 0
M  V30 17909 H 1683.57 2.88668 0.711202 0
M  V30 17910 H 1681.1 1.52314 0.25294 0
M  V30 17911 H 1683.06 2.58513 3.18875 0
M  V30 17912 H 1681.72 1.49824 2.76064 0
M  V30 17913 H 1680.91 3.82029 3.28739 0
M  V30 17914 H 1680.51 3.37486 1.61181 0
M  V30 17915 H 1682.81 5.48012 3.98358 0
M  V30 17916 H 1683.75 6.48688 2.83919 0
M  V30 17917 H 1684.16 4.7569 3.03939 0
M  V30 17918 N 1683.56 -0.31543 1.54411 0
M  V30 17919 C 1684.52 -1.37154 1.83634 0
M  V30 17920 C 1685.52 -1.44349 0.708518 0
M  V30 17921 O 1686.71 -1.44235 0.976824 0
M  V30 17922 C 1683.84 -2.758 2.00368 0
M  V30 17923 H 1685.03 -1.12493 2.78002 0
M  V30 17924 H 1682.59 -0.551346 1.46253 0
M  V30 17925 H 1683.32 -3.05704 1.08238 0
M  V30 17926 H 1683.11 -2.7197 2.82445 0
M  V30 17927 H 1684.6 -3.52187 2.24397 0
M  V30 17928 N 1685.03 -1.46622 -0.577906 0
M  V30 17929 C 1686 -1.57126 -1.66865 0
M  V30 17930 C 1687 -0.448004 -1.54433 0
M  V30 17931 O 1688.19 -0.712459 -1.58964 0
M  V30 17932 C 1685.32 -1.49612 -3.06315 0
M  V30 17933 H 1686.51 -2.54338 -1.58909 0
M  V30 17934 H 1684.07 -1.34504 -0.796142 0
M  V30 17935 H 1684.8 -0.536976 -3.19823 0
M  V30 17936 H 1684.59 -2.31113 -3.16748 0
M  V30 17937 H 1686.08 -1.60058 -3.85709 0
M  V30 17938 N 1686.51 0.822941 -1.34408 0
M  V30 17939 C 1687.42 1.96567 -1.28056 0
M  V30 17940 C 1688.44 1.72979 -0.188251 0
M  V30 17941 O 1689.61 1.97084 -0.41472 0
M  V30 17942 C 1686.68 3.30865 -1.03583 0
M  V30 17943 C 1685.74 3.67461 -2.2197 0
M  V30 17944 C 1684.97 4.9535 -1.98655 0
M  V30 17945 O 1685.2 5.62521 -0.944785 0
M  V30 17946 O 1684.13 5.29824 -2.85605 0
M  V30 17947 H 1687.96 2.0487 -2.24192 0
M  V30 17948 H 1685.54 0.958334 -1.14614 0
M  V30 17949 H 1687.42 4.11298 -0.917162 0
M  V30 17950 H 1686.1 3.2353 -0.104868 0
M  V30 17951 H 1685.01 2.87472 -2.39396 0
M  V30 17952 H 1686.34 3.79481 -3.13456 0
M  V30 17953 N 1687.99 1.18137 1.04314 0
M  V30 17954 C 1689.24 0.969582 1.76867 0
M  V30 17955 C 1689.55 -0.501982 1.89049 0
M  V30 17956 O 1690.76 -0.832218 2.58431 0
M  V30 17957 C 1689.21 1.68571 3.17981 0
M  V30 17958 C 1688.82 3.19641 3.13901 0
M  V30 17959 C 1690.57 1.55664 3.94929 0
M  V30 17960 C 1688.47 3.83904 4.49858 0
M  V30 17961 H 1687.4 0.359141 0.662973 0
M  V30 17962 H 1690.05 1.41484 1.16852 0
M  V30 17963 H 1688.44 1.16821 3.78377 0
M  V30 17964 H 1689.61 3.78395 2.62971 0
M  V30 17965 H 1687.93 3.32661 2.50451 0
M  V30 17966 H 1690.52 2.01039 4.95467 0
M  V30 17967 H 1690.87 0.508522 4.13182 0
M  V30 17968 H 1691.4 2.0468 3.41103 0
M  V30 17969 H 1688.14 4.88751 4.36809 0
M  V30 17970 H 1687.66 3.29937 5.00901 0
M  V30 17971 H 1689.34 3.86623 5.18779 0
M  V30 17972 N 1689.47 -1.23186 0.98301 0
M  V30 17973 C 1690.43 -2.22979 0.530366 0
M  V30 17974 C 1691.43 -1.56211 -0.381421 0
M  V30 17975 O 1692.62 -1.73321 -0.17475 0
M  V30 17976 C 1689.75 -3.40124 -0.229882 0
M  V30 17977 H 1690.95 -2.64539 1.41277 0
M  V30 17978 H 1688.5 -1.36064 0.769172 0
M  V30 17979 H 1689.23 -3.04024 -1.12871 0
M  V30 17980 H 1689.02 -3.89794 0.424653 0
M  V30 17981 H 1690.51 -4.14158 -0.535078 0
M  V30 17982 N 1690.95 -0.754982 -1.38339 0
M  V30 17983 C 1692.22 -0.237208 -1.94156 0
M  V30 17984 C 1692.6 1.26479 -1.69016 0
M  V30 17985 O 1691.95 2.03995 -1.02948 0
M  V30 17986 C 1692.16 -0.592412 -3.43935 0
M  V30 17987 C 1693.51 -0.552832 -4.20986 0
M  V30 17988 O 1694.53 -0.530789 -3.52223 0
M  V30 17989 O 1693.39 -0.565006 -5.43571 0
M  V30 17990 H 1690.49 -0.0500619 -0.825483 0
M  V30 17991 H 1693.03 -0.835199 -1.47724 0
M  V30 17992 H 1691.8 -1.62969 -3.55748 0
M  V30 17993 H 1691.43 0.0335119 -3.97586 0
M  V30 17994 N 1692.42 1.49318 -0.504168 0
M  V30 17995 C 1693.67 2.02062 0.039149 0
M  V30 17996 C 1693.99 1.38577 1.37191 0
M  V30 17997 O 1693.26 0.542179 1.88248 0
M  V30 17998 H 1691.84 0.746796 0.0174575 0
M  V30 17999 H 1694.51 1.83308 -0.66213 0
M  V30 18000 H 1693.6 3.11656 0.166496 0
M  V30 18001 N 1693.9 0.238138 1.5579 0
M  V30 18002 C 1694.84 -0.705517 2.1702 0
M  V30 18003 C 1695.81 -1.17917 1.11957 0
M  V30 18004 O 1697 -1.2589 1.403 0
M  V30 18005 C 1694.12 -1.9578 2.76384 0
M  V30 18006 C 1693.17 -1.62275 3.94422 0
M  V30 18007 S 1694 -0.733018 5.30459 0
M  V30 18008 C 1695.16 -1.9945 5.93271 0
M  V30 18009 H 1695.39 -0.185146 2.96723 0
M  V30 18010 H 1692.93 0.0226713 1.54383 0
M  V30 18011 H 1694.88 -2.67676 3.11223 0
M  V30 18012 H 1693.54 -2.44929 1.96643 0
M  V30 18013 H 1692.74 -2.55361 4.34519 0
M  V30 18014 H 1692.34 -0.98429 3.60815 0
M  V30 18015 H 1694.63 -2.94272 6.10254 0
M  V30 18016 H 1695.57 -1.63716 6.88914 0
M  V30 18017 H 1695.98 -2.14259 5.22258 0
M  V30 18018 N 1695.38 -1.57561 -0.0350783 0
M  V30 18019 C 1696.34 -2.05145 -1.02217 0
M  V30 18020 C 1697.34 -0.954524 -1.29404 0
M  V30 18021 O 1698.53 -1.21833 -1.24509 0
M  V30 18022 C 1695.67 -2.4633 -2.35658 0
M  V30 18023 H 1696.86 -2.93605 -0.61126 0
M  V30 18024 H 1694.41 -1.53739 -0.28176 0
M  V30 18025 H 1695.15 -1.61008 -2.81508 0
M  V30 18026 H 1694.93 -3.26408 -2.17256 0
M  V30 18027 H 1696.42 -2.83592 -3.06537 0
M  V30 18028 N 1696.86 0.307236 -1.54576 0
M  V30 18029 C 1698.09 1.06079 -1.77287 0
M  V30 18030 C 1698.5 1.81643 -0.529395 0
M  V30 18031 O 1697.84 1.76474 0.510149 0
M  V30 18032 C 1697.9 2.09234 -2.92338 0
M  V30 18033 C 1697.57 1.52922 -4.30655 0
M  V30 18034 C 1698.56 0.962487 -5.10913 0
M  V30 18035 C 1696.25 1.56673 -4.77241 0
M  V30 18036 C 1698.24 0.44075 -6.35874 0
M  V30 18037 C 1695.93 1.04112 -6.02166 0
M  V30 18038 C 1696.93 0.479095 -6.81318 0
M  V30 18039 O 1696.61 -0.0385602 -8.03891 0
M  V30 18040 H 1696.35 0.320647 -0.595114 0
M  V30 18041 H 1698.9 0.353984 -2.02327 0
M  V30 18042 H 1697.13 2.83578 -2.62908 0
M  V30 18043 H 1698.82 2.70441 -3.02682 0
M  V30 18044 H 1699.59 0.926457 -4.76069 0
M  V30 18045 H 1695.46 1.99357 -4.15665 0
M  V30 18046 H 1699.01 0.00141848 -6.976 0
M  V30 18047 H 1694.91 1.07428 -6.36498 0
M  V30 18048 H 1695.67 0.0753282 -8.18465 0
M  V30 18049 N 1698.34 1.46926 0.570122 0
M  V30 18050 C 1699.27 1.61311 1.68822 0
M  V30 18051 C 1700.25 0.462964 1.63678 0
M  V30 18052 O 1701.43 0.690745 1.815 0
M  V30 18053 C 1698.56 1.61499 3.07466 0
M  V30 18054 C 1697.52 2.7561 3.27449 0
M  V30 18055 C 1696.84 2.60865 4.66748 0
M  V30 18056 C 1698.14 4.17324 3.14067 0
M  V30 18057 H 1699.84 2.54909 1.5704 0
M  V30 18058 H 1697.38 1.22677 0.754077 0
M  V30 18059 H 1699.34 1.70155 3.8552 0
M  V30 18060 H 1698.06 0.64453 3.20177 0
M  V30 18061 H 1696.72 2.66444 2.51799 0
M  V30 18062 H 1696.37 1.61875 4.76241 0
M  V30 18063 H 1696.07 3.37411 4.81069 0
M  V30 18064 H 1697.59 2.7143 5.46954 0
M  V30 18065 H 1699 4.27534 3.81952 0
M  V30 18066 H 1697.4 4.94555 3.39905 0
M  V30 18067 H 1698.47 4.36596 2.10979 0
M  V30 18068 N 1699.82 -0.815801 1.34842 0
M  V30 18069 C 1700.76 -1.94853 1.27024 0
M  V30 18070 C 1701.76 -1.68575 0.166936 0
M  V30 18071 O 1702.96 -1.76905 0.332352 0
M  V30 18072 H 1699.34 -0.640033 0.394794 0
M  V30 18073 H 1701.31 -1.98569 2.2274 0
M  V30 18074 C 1700.06 -3.31474 1.04977 0
M  V30 18075 H 1699.38 -3.52246 1.8911 0
M  V30 18076 H 1700.82 -4.11162 1.03545 0
M  V30 18077 C 1699.28 -3.35995 -0.246708 0
M  V30 18078 O 1699.81 -3.81898 -1.24566 0
M  V30 18079 N 1698.02 -2.89226 -0.282292 0
M  V30 18080 H 1697.56 -2.52063 0.531211 0
M  V30 18081 H 1697.52 -2.92633 -1.1495 0
M  V30 18082 N 1701.29 -1.18689 -1.03686 0
M  V30 18083 C 1702.26 -0.919415 -2.09951 0
M  V30 18084 C 1703.26 0.0968042 -1.60508 0
M  V30 18085 O 1704.45 -0.137062 -1.7366 0
M  V30 18086 C 1701.58 -0.380204 -3.38773 0
M  V30 18087 H 1702.77 -1.86178 -2.35112 0
M  V30 18088 H 1700.32 -0.999435 -1.20171 0
M  V30 18089 H 1701.06 0.568586 -3.19277 0
M  V30 18090 H 1700.84 -1.11281 -3.75977 0
M  V30 18091 H 1702.33 -0.211891 -4.17062 0
M  V30 18092 N 1702.77 1.22662 -0.989529 0
M  V30 18093 C 1703.72 2.24466 -0.536994 0
M  V30 18094 C 1704.69 1.60467 0.428907 0
M  V30 18095 O 1705.87 1.87846 0.334418 0
M  V30 18096 C 1703.01 3.44793 0.145526 0
M  V30 18097 C 1702.13 4.23318 -0.861716 0
M  V30 18098 C 1701.26 5.30979 -0.153062 0
M  V30 18099 C 1700.3 6.01221 -1.1489 0
M  V30 18100 N 1699.44 7.00533 -0.468782 0
M  V30 18101 H 1704.28 2.62539 -1.40987 0
M  V30 18102 H 1701.81 1.29035 -0.706291 0
M  V30 18103 H 1703.77 4.1345 0.558128 0
M  V30 18104 H 1702.4 3.07494 0.982213 0
M  V30 18105 H 1701.45 3.5399 -1.39266 0
M  V30 18106 H 1702.77 4.71753 -1.62019 0
M  V30 18107 H 1701.92 6.05874 0.316443 0
M  V30 18108 H 1700.66 4.8351 0.63794 0
M  V30 18109 H 1699.66 5.25111 -1.62907 0
M  V30 18110 H 1700.89 6.50779 -1.94072 0
M  V30 18111 H 1698.84 6.55301 0.302844 0
M  V30 18112 H 1698.75 7.46958 -1.16576 0
M  V30 18113 H 1700.02 7.79497 -0.0219686 0
M  V30 18114 N 1704.25 0.762308 1.37937 0
M  V30 18115 C 1705.2 0.140412 2.30372 0
M  V30 18116 C 1706.17 -0.700152 1.50622 0
M  V30 18117 O 1707.35 -0.654474 1.79224 0
M  V30 18118 C 1704.49 -0.740056 3.37071 0
M  V30 18119 C 1703.6 0.116084 4.31844 0
M  V30 18120 C 1702.74 -0.768203 5.25616 0
M  V30 18121 C 1701.78 0.0910442 6.12032 0
M  V30 18122 N 1700.92 -0.75069 6.98075 0
M  V30 18123 H 1705.76 0.934224 2.82977 0
M  V30 18124 H 1703.29 0.472316 1.39311 0
M  V30 18125 H 1705.25 -1.26525 3.97551 0
M  V30 18126 H 1703.88 -1.49956 2.85855 0
M  V30 18127 H 1702.93 0.758999 3.72751 0
M  V30 18128 H 1704.24 0.779285 4.92675 0
M  V30 18129 H 1703.4 -1.36024 5.91255 0
M  V30 18130 H 1702.14 -1.46511 4.65173 0
M  V30 18131 H 1701.14 0.695687 5.45381 0
M  V30 18132 H 1702.37 0.785145 6.74546 0
M  V30 18133 H 1700.31 -1.43239 6.40171 0
M  V30 18134 H 1700.23 -0.144579 7.55862 0
M  V30 18135 H 1701.5 -1.32742 7.68114 0
M  V30 18136 N 1705.73 -1.49049 0.51208 0
M  V30 18137 C 1706.97 -2.0248 -0.0284889 0
M  V30 18138 C 1707.3 -1.39082 -1.35965 0
M  V30 18139 O 1706.56 -0.519593 -1.88676 0
M  V30 18140 C 1706.86 -3.56734 -0.218125 0
M  V30 18141 C 1706.52 -4.38827 1.03643 0
M  V30 18142 C 1705.18 -4.60979 1.38029 0
M  V30 18143 C 1707.54 -4.86505 1.86982 0
M  V30 18144 C 1704.86 -5.28055 2.55686 0
M  V30 18145 C 1707.22 -5.54876 3.03801 0
M  V30 18146 C 1705.88 -5.75271 3.38555 0
M  V30 18147 H 1705.15 -0.740927 -0.0104248 0
M  V30 18148 H 1707.8 -1.79229 0.674481 0
M  V30 18149 H 1706.1 -3.78725 -1.00372 0
M  V30 18150 H 1707.8 -3.9568 -0.651013 0
M  V30 18151 H 1704.39 -4.21833 0.758594 0
M  V30 18152 H 1708.57 -4.69209 1.61729 0
M  V30 18153 H 1703.83 -5.42046 2.82837 0
M  V30 18154 H 1708 -5.90793 3.68696 0
M  V30 18155 H 1705.63 -6.2702 4.29825 0
M  V30 18156 N 1707.21 -0.246397 -1.55662 0
M  V30 18157 C 1708.45 0.379047 -1.99226 0
M  V30 18158 C 1708.78 1.57627 -1.13434 0
M  V30 18159 O 1708.06 1.93493 -0.197627 0
M  V30 18160 C 1708.34 0.789403 -3.51341 0
M  V30 18161 C 1708.2 -0.413176 -4.47898 0
M  V30 18162 C 1709.51 1.63656 -4.0854 0
M  V30 18163 H 1706.63 0.136302 -0.724286 0
M  V30 18164 H 1709.28 -0.347607 -1.86793 0
M  V30 18165 H 1707.43 1.40854 -3.62067 0
M  V30 18166 H 1709.1 -1.0516 -4.49154 0
M  V30 18167 H 1707.34 -1.05636 -4.20741 0
M  V30 18168 H 1708.01 -0.0827267 -5.51938 0
M  V30 18169 H 1710.49 1.11393 -4.00912 0
M  V30 18170 H 1709.36 1.89254 -5.15242 0
M  V30 18171 H 1709.62 2.60823 -3.56965 0
M  V30 18172 N 1708.68 1.57577 0.026722 0
M  V30 18173 C 1709.63 2.03179 1.03452 0
M  V30 18174 C 1710.62 0.921533 1.31896 0
M  V30 18175 O 1711.81 1.18542 1.31442 0
M  V30 18176 C 1708.94 2.51666 2.33493 0
M  V30 18177 C 1708.02 3.69517 2.08129 0
M  V30 18178 N 1708.42 4.82158 1.52832 0
M  V30 18179 C 1706.71 3.76936 2.38402 0
M  V30 18180 C 1707.41 5.63766 1.43327 0
M  V30 18181 N 1706.39 5.08953 1.90965 0
M  V30 18182 H 1710.19 2.87689 0.601036 0
M  V30 18183 H 1707.71 1.6072 0.232979 0
M  V30 18184 H 1709.7 2.82597 3.06503 0
M  V30 18185 H 1708.36 1.68564 2.77518 0
M  V30 18186 H 1709.37 5.0355 1.21071 0
M  V30 18187 H 1706.05 3.04637 2.85486 0
M  V30 18188 H 1707.44 6.64259 1.01043 0
M  V30 18189 N 1710.16 -0.299034 1.54737 0
M  V30 18190 C 1711.58 -0.644805 1.45995 0
M  V30 18191 C 1711.78 -1.90634 0.652749 0
M  V30 18192 O 1710.83 -2.51985 0.161228 0
M  V30 18193 C 1712.15 -0.795974 2.89974 0
M  V30 18194 C 1713.69 -0.891731 3.00029 0
M  V30 18195 C 1714.17 -1.07488 4.45208 0
M  V30 18196 N 1715.66 -1.14104 4.48926 0
M  V30 18197 C 1716.4 -1.30108 5.58444 0
M  V30 18198 N 1715.89 -1.42998 6.77882 0
M  V30 18199 N 1717.68 -1.33012 5.46136 0
M  V30 18200 H 1709.84 0.529806 2.05686 0
M  V30 18201 H 1712.1 0.175406 0.931631 0
M  V30 18202 H 1711.8 0.0601375 3.51649 0
M  V30 18203 H 1711.68 -1.68437 3.37504 0
M  V30 18204 H 1714.07 -1.73833 2.38466 0
M  V30 18205 H 1714.15 0.0207194 2.55792 0
M  V30 18206 H 1713.79 -0.233045 5.07365 0
M  V30 18207 H 1713.72 -2.00159 4.87077 0
M  V30 18208 H 1716.21 -1.05488 3.62878 0
M  V30 18209 H 1716.52 -1.5497 7.57102 0
M  V30 18210 H 1714.87 -1.4005 6.80743 0
M  V30 18211 H 1718.06 -1.22555 4.51772 0
M  V30 18212 H 1718.23 -1.45141 6.31536 0
M  V30 18213 N 1711.64 -1.47227 -0.562322 0
M  V30 18214 C 1712.92 -1.44069 -1.32301 0
M  V30 18215 C 1713.3 -0.134912 -2.10668 0
M  V30 18216 O 1712.64 0.883603 -2.10724 0
M  V30 18217 C 1712.85 -2.68309 -2.23184 0
M  V30 18218 C 1714.2 -3.1531 -2.84367 0
M  V30 18219 O 1715.23 -2.69001 -2.33489 0
M  V30 18220 O 1714.09 -3.95805 -3.7683 0
M  V30 18221 H 1711.18 -0.573892 -0.595464 0
M  V30 18222 H 1713.73 -1.59421 -0.581648 0
M  V30 18223 H 1712.5 -3.54884 -1.64842 0
M  V30 18224 H 1712.12 -2.55518 -3.04625 0
M  V30 18225 N 1713.12 0.808639 -1.35273 0
M  V30 18226 C 1714.05 1.93502 -1.30687 0
M  V30 18227 C 1715.03 1.69127 -0.181675 0
M  V30 18228 O 1716.21 1.90519 -0.376312 0
M  V30 18229 C 1713.34 3.30211 -1.07602 0
M  V30 18230 C 1712.3 3.69063 -2.16741 0
M  V30 18231 C 1711.62 5.03911 -1.78824 0
M  V30 18232 C 1712.92 3.79656 -3.5869 0
M  V30 18233 H 1714.62 1.97597 -2.24935 0
M  V30 18234 H 1712.16 0.949284 -1.0828 0
M  V30 18235 H 1714.12 4.0861 -1.03034 0
M  V30 18236 H 1712.84 3.26453 -0.0979944 0
M  V30 18237 H 1711.5 2.92948 -2.20402 0
M  V30 18238 H 1711.15 4.96655 -0.796449 0
M  V30 18239 H 1710.85 5.30877 -2.51881 0
M  V30 18240 H 1712.37 5.84752 -1.75777 0
M  V30 18241 H 1713.79 4.48292 -3.57362 0
M  V30 18242 H 1712.18 4.1809 -4.30489 0
M  V30 18243 H 1713.25 2.81265 -3.94991 0
M  V30 18244 N 1714.6 1.19237 1.03055 0
M  V30 18245 C 1715.56 0.930536 2.0946 0
M  V30 18246 C 1716.56 -0.0882907 1.60557 0
M  V30 18247 O 1717.75 0.146269 1.73585 0
M  V30 18248 C 1714.88 0.398165 3.38567 0
M  V30 18249 H 1716.07 1.87422 2.34122 0
M  V30 18250 H 1713.63 1.00579 1.19639 0
M  V30 18251 H 1714.36 -0.551646 3.19574 0
M  V30 18252 H 1714.15 1.13273 3.75382 0
M  V30 18253 H 1715.64 0.234006 4.16944 0
M  V30 18254 N 1716.07 -1.22136 0.99602 0
M  V30 18255 C 1717.04 -2.22404 0.553986 0
M  V30 18256 C 1718.04 -1.56607 -0.364832 0
M  V30 18257 O 1719.23 -1.73497 -0.156358 0
M  V30 18258 C 1716.36 -3.40349 -0.193794 0
M  V30 18259 H 1717.55 -2.63026 1.44075 0
M  V30 18260 H 1715.11 -1.35241 0.78356 0
M  V30 18261 H 1715.84 -3.05204 -1.0964 0
M  V30 18262 H 1715.63 -3.89321 0.465972 0
M  V30 18263 H 1717.12 -4.14702 -0.491121 0
M  V30 18264 N 1717.55 -0.769612 -1.37531 0
M  V30 18265 C 1718.97 -0.449 -1.53154 0
M  V30 18266 C 1719.17 1.03568 -1.72847 0
M  V30 18267 O 1718.22 1.82154 -1.74861 0
M  V30 18268 C 1719.54 -1.26221 -2.72926 0
M  V30 18269 C 1721.09 -1.2539 -2.86786 0
M  V30 18270 C 1721.56 -2.05041 -4.09539 0
M  V30 18271 N 1723.05 -2.02384 -4.16647 0
M  V30 18272 C 1723.79 -2.60798 -5.10658 0
M  V30 18273 N 1723.28 -3.27991 -6.10241 0
M  V30 18274 N 1725.08 -2.5064 -5.03126 0
M  V30 18275 H 1717.23 -1.73161 -1.23 0
M  V30 18276 H 1719.49 -0.734977 -0.598759 0
M  V30 18277 H 1719.2 -2.31423 -2.64832 0
M  V30 18278 H 1719.07 -0.889937 -3.66551 0
M  V30 18279 H 1721.46 -0.209869 -2.94353 0
M  V30 18280 H 1721.54 -1.6658 -1.94126 0
M  V30 18281 H 1721.18 -3.09464 -4.02734 0
M  V30 18282 H 1721.11 -1.61234 -5.01309 0
M  V30 18283 H 1723.6 -1.53464 -3.45337 0
M  V30 18284 H 1723.92 -3.69942 -6.785 0
M  V30 18285 H 1722.26 -3.32089 -6.10526 0
M  V30 18286 H 1725.45 -1.97762 -4.24273 0
M  V30 18287 H 1725.62 -2.96458 -5.76209 0
M  V30 18288 N 1719.03 1.48775 -0.519977 0
M  V30 18289 C 1719.98 2.31123 0.261738 0
M  V30 18290 C 1720.97 1.40595 0.94496 0
M  V30 18291 O 1722.18 1.57552 0.870484 0
M  V30 18292 H 1718.55 0.744875 0.103272 0
M  V30 18293 H 1720.52 2.94949 -0.452514 0
M  V30 18294 C 1719.27 3.22409 1.30184 0
M  V30 18295 H 1718.6 3.92007 0.785524 0
M  V30 18296 H 1720.04 3.82932 1.82042 0
M  V30 18297 C 1718.5 2.43321 2.33016 0
M  V30 18298 O 1719.03 2.15087 3.39265 0
M  V30 18299 N 1717.23 2.04998 2.05971 0
M  V30 18300 H 1716.78 2.2816 1.19586 0
M  V30 18301 H 1716.74 1.52393 2.74998 0
M  V30 18302 N 1720.51 0.254649 1.55529 0
M  V30 18303 C 1721.75 -0.369374 2.01035 0
M  V30 18304 C 1722.11 -1.54564 1.13904 0
M  V30 18305 O 1723.31 -2.23792 1.48899 0
M  V30 18306 C 1721.58 -0.761489 3.49194 0
M  V30 18307 S 1723.14 -1.37494 4.16702 0
M  V30 18308 H 1719.96 -0.115878 0.701494 0
M  V30 18309 H 1722.56 0.371696 1.91934 0
M  V30 18310 H 1721.27 0.103781 4.10269 0
M  V30 18311 H 1720.8 -1.53454 3.62237 0
M  V30 18312 H 1722.81 -2.66389 4.1863 0
M  V30 18313 N 1721.99 -1.57589 -0.0183649 0
M  V30 18314 C 1722.92 -2.02659 -1.04903 0
M  V30 18315 C 1723.9 -0.912926 -1.34553 0
M  V30 18316 O 1725.08 -1.17961 -1.47029 0
M  V30 18317 C 1722.21 -2.40869 -2.38117 0
M  V30 18318 C 1721.25 -3.62785 -2.24253 0
M  V30 18319 S 1722.09 -5.11479 -1.58585 0
M  V30 18320 C 1723.24 -5.52942 -2.93268 0
M  V30 18321 H 1723.48 -2.89763 -0.665188 0
M  V30 18322 H 1721.01 -1.52697 -0.228676 0
M  V30 18323 H 1722.97 -2.63553 -3.14722 0
M  V30 18324 H 1721.63 -1.54197 -2.73646 0
M  V30 18325 H 1720.82 -3.87211 -3.2262 0
M  V30 18326 H 1720.42 -3.40007 -1.55792 0
M  V30 18327 H 1722.72 -5.5428 -3.8959 0
M  V30 18328 H 1723.66 -6.53123 -2.73563 0
M  V30 18329 H 1724.07 -4.80466 -2.96333 0
M  V30 18330 N 1723.46 0.290824 -1.54893 0
M  V30 18331 C 1724.71 1.02627 -1.74916 0
M  V30 18332 C 1725.04 1.86572 -0.538921 0
M  V30 18333 O 1724.32 1.88888 0.463844 0
M  V30 18334 C 1724.6 1.92376 -3.04407 0
M  V30 18335 C 1724.45 1.11542 -4.3575 0
M  V30 18336 C 1725.77 2.91383 -3.29824 0
M  V30 18337 H 1722.89 0.371685 -0.636411 0
M  V30 18338 H 1725.53 0.300072 -1.87615 0
M  V30 18339 H 1723.68 2.54295 -2.93711 0
M  V30 18340 H 1725.36 0.518312 -4.58379 0
M  V30 18341 H 1723.6 0.418386 -4.31778 0
M  V30 18342 H 1724.27 1.77616 -5.22644 0
M  V30 18343 H 1726.75 2.39595 -3.40196 0
M  V30 18344 H 1725.62 3.51338 -4.21726 0
M  V30 18345 H 1725.88 3.65579 -2.48606 0
M  V30 18346 N 1724.94 1.47523 0.554506 0
M  V30 18347 C 1725.91 1.59761 1.64345 0
M  V30 18348 C 1726.91 0.472516 1.53701 0
M  V30 18349 O 1728.1 0.737659 1.57811 0
M  V30 18350 C 1725.23 1.54467 3.03896 0
M  V30 18351 H 1726.42 2.56834 1.54842 0
M  V30 18352 H 1723.97 1.35753 0.774643 0
M  V30 18353 H 1724.71 0.587789 3.18929 0
M  V30 18354 H 1724.49 2.36123 3.13031 0
M  V30 18355 H 1725.98 1.66174 3.83113 0
M  V30 18356 N 1726.42 -0.801453 1.357 0
M  V30 18357 C 1727.37 -1.90299 1.2558 0
M  V30 18358 C 1728.35 -1.602 0.149922 0
M  V30 18359 O 1729.55 -1.72837 0.381622 0
M  V30 18360 C 1726.68 -3.2732 1.0352 0
M  V30 18361 C 1725.76 -3.63468 2.18522 0
M  V30 18362 N 1726.15 -3.71014 3.43777 0
M  V30 18363 C 1724.45 -3.93455 2.10022 0
M  V30 18364 C 1725.15 -4.03052 4.19433 0
M  V30 18365 N 1724.13 -4.17405 3.48244 0
M  V30 18366 H 1727.93 -1.94341 2.20474 0
M  V30 18367 H 1725.44 -0.996323 1.28247 0
M  V30 18368 H 1727.44 -4.06081 0.943586 0
M  V30 18369 H 1726.1 -3.24561 0.095163 0
M  V30 18370 H 1727.11 -3.53961 3.78064 0
M  V30 18371 H 1723.79 -3.98691 1.23903 0
M  V30 18372 H 1725.18 -4.15914 5.27698 0
M  V30 18373 N 1727.9 -1.19782 -1.02421 0
M  V30 18374 C 1729.18 -0.912541 -1.73009 0
M  V30 18375 C 1729.56 0.58061 -2.02958 0
M  V30 18376 O 1728.9 1.54013 -1.68797 0
M  V30 18377 C 1729.11 -1.77745 -3.00346 0
M  V30 18378 C 1730.46 -2.01462 -3.73762 0
M  V30 18379 O 1731.49 -1.74935 -3.10284 0
M  V30 18380 O 1730.34 -2.46219 -4.87892 0
M  V30 18381 H 1727.44 -0.340513 -0.753644 0
M  V30 18382 H 1729.98 -1.30618 -1.08338 0
M  V30 18383 H 1728.76 -2.78887 -2.74477 0
M  V30 18384 H 1728.38 -1.38339 -3.72757 0
M  V30 18385 N 1729.38 1.21606 -1.00248 0
M  V30 18386 C 1730.62 1.90607 -0.683752 0
M  V30 18387 C 1730.95 1.77945 0.785228 0
M  V30 18388 O 1730.21 1.14856 1.58451 0
M  V30 18389 C 1730.51 3.41708 -1.04739 0
M  V30 18390 C 1730.17 3.74565 -2.51022 0
M  V30 18391 C 1728.83 3.83243 -2.90995 0
M  V30 18392 C 1731.19 3.89971 -3.45792 0
M  V30 18393 C 1728.51 4.04773 -4.24707 0
M  V30 18394 C 1730.87 4.13008 -4.79174 0
M  V30 18395 C 1729.53 4.19912 -5.18874 0
M  V30 18396 H 1728.8 0.697481 -0.250203 0
M  V30 18397 H 1731.45 1.4417 -1.26045 0
M  V30 18398 H 1729.75 3.89865 -0.388905 0
M  V30 18399 H 1731.45 3.93367 -0.778675 0
M  V30 18400 H 1728.04 3.68399 -2.19043 0
M  V30 18401 H 1732.22 3.82635 -3.16076 0
M  V30 18402 H 1727.48 4.08349 -4.5504 0
M  V30 18403 H 1731.65 4.23871 -5.52545 0
M  V30 18404 H 1729.28 4.36348 -6.22499 0
M  V30 18405 N 1730.86 0.776895 1.37121 0
M  V30 18406 C 1732.08 0.355097 2.0383 0
M  V30 18407 C 1732.5 -1.02441 1.58591 0
M  V30 18408 O 1731.86 -1.65482 0.769533 0
M  V30 18409 C 1731.91 0.394984 3.59336 0
M  V30 18410 O 1731.63 1.72008 4.0292 0
M  V30 18411 C 1733.13 -0.0377636 4.43284 0
M  V30 18412 H 1730.35 0.148056 0.654462 0
M  V30 18413 H 1732.89 1.05225 1.75351 0
M  V30 18414 H 1731.05 -0.253638 3.86569 0
M  V30 18415 H 1731.46 1.66225 4.97463 0
M  V30 18416 H 1732.94 0.0412956 5.51985 0
M  V30 18417 H 1733.41 -1.08881 4.2549 0
M  V30 18418 H 1734.02 0.582867 4.21287 0
M  V30 18419 N 1732.33 -1.48497 0.527859 0
M  V30 18420 C 1733.58 -2.02799 -0.00702196 0
M  V30 18421 C 1733.91 -1.40433 -1.34135 0
M  V30 18422 O 1733.19 -0.54934 -1.86581 0
M  V30 18423 C 1733.47 -3.59861 -0.131272 0
M  V30 18424 C 1733.32 -4.32711 1.22807 0
M  V30 18425 C 1734.64 -4.31634 -0.85908 0
M  V30 18426 H 1731.76 -0.736999 -0.00107787 0
M  V30 18427 H 1734.4 -1.77242 0.684478 0
M  V30 18428 H 1732.55 -3.81766 -0.720216 0
M  V30 18429 H 1734.23 -4.22229 1.85796 0
M  V30 18430 H 1732.47 -3.94212 1.8105 0
M  V30 18431 H 1733.14 -5.41047 1.09415 0
M  V30 18432 H 1735.62 -4.14546 -0.359322 0
M  V30 18433 H 1734.49 -5.41221 -0.914911 0
M  V30 18434 H 1734.75 -3.98765 -1.90889 0
M  V30 18435 N 1733.81 -0.262893 -1.55392 0
M  V30 18436 C 1734.76 0.629853 -2.22039 0
M  V30 18437 C 1735.73 1.15915 -1.18966 0
M  V30 18438 O 1736.91 1.21069 -1.47468 0
M  V30 18439 C 1734.05 1.8138 -2.9359 0
M  V30 18440 C 1733.17 1.31952 -4.11355 0
M  V30 18441 C 1732.3 2.4643 -4.7058 0
M  V30 18442 C 1731.34 1.93944 -5.80562 0
M  V30 18443 N 1730.48 3.01848 -6.33902 0
M  V30 18444 H 1735.32 0.0548473 -2.9795 0
M  V30 18445 H 1732.85 0.0153072 -1.47092 0
M  V30 18446 H 1734.81 2.50955 -3.33283 0
M  V30 18447 H 1733.44 2.36103 -2.20125 0
M  V30 18448 H 1732.49 0.517281 -3.76866 0
M  V30 18449 H 1733.81 0.894993 -4.90705 0
M  V30 18450 H 1732.96 3.2402 -5.12929 0
M  V30 18451 H 1731.7 2.92193 -3.9048 0
M  V30 18452 H 1730.7 1.1483 -5.37675 0
M  V30 18453 H 1731.93 1.49132 -6.62523 0
M  V30 18454 H 1729.88 3.47015 -5.56701 0
M  V30 18455 H 1729.79 2.63775 -7.08491 0
M  V30 18456 H 1731.06 3.79449 -6.8091 0
M  V30 18457 N 1735.29 1.57597 0.0100073 0
M  V30 18458 C 1736.54 1.89308 0.696075 0
M  V30 18459 C 1736.85 0.863884 1.75489 0
M  V30 18460 O 1738.06 1.07087 2.49489 0
M  V30 18461 C 1736.51 3.36017 1.2892 0
M  V30 18462 C 1736.12 4.47211 0.265731 0
M  V30 18463 C 1737.87 3.76852 1.95404 0
M  V30 18464 C 1735.77 5.84991 0.868277 0
M  V30 18465 H 1734.7 0.706368 0.263744 0
M  V30 18466 H 1737.35 1.83435 -0.0488972 0
M  V30 18467 H 1735.74 3.36696 2.08451 0
M  V30 18468 H 1736.91 4.58033 -0.504256 0
M  V30 18469 H 1735.22 4.15332 -0.298096 0
M  V30 18470 H 1737.82 4.77121 2.41371 0
M  V30 18471 H 1738.16 3.09841 2.78036 0
M  V30 18472 H 1738.7 3.7843 1.22621 0
M  V30 18473 H 1735.44 6.5545 0.0809513 0
M  V30 18474 H 1734.96 5.77853 1.60766 0
M  V30 18475 H 1736.64 6.32331 1.36993 0
M  V30 18476 N 1736.77 -0.282606 1.55045 0
M  V30 18477 C 1738.02 -1.01346 1.74852 0
M  V30 18478 C 1738.34 -1.87161 0.547327 0
M  V30 18479 O 1737.61 -1.9094 -0.438015 0
M  V30 18480 H 1736.19 -0.377178 0.644784 0
M  V30 18481 H 1738.85 -0.309152 1.92432 0
M  V30 18482 H 1737.94 -1.65596 2.64545 0
M  V30 18483 N 1738.25 -1.47815 -0.546675 0
M  V30 18484 C 1739.52 -1.45464 -1.30765 0
M  V30 18485 C 1739.9 -0.157249 -2.10514 0
M  V30 18486 O 1739.25 0.861203 -2.1165 0
M  V30 18487 C 1739.46 -2.70661 -2.20326 0
M  V30 18488 C 1740.81 -3.18309 -2.81007 0
M  V30 18489 O 1741.83 -2.71462 -2.30623 0
M  V30 18490 O 1740.69 -3.9978 -3.7261 0
M  V30 18491 H 1737.79 -0.580175 -0.589343 0
M  V30 18492 H 1740.33 -1.60029 -0.564707 0
M  V30 18493 H 1739.1 -3.56612 -1.61069 0
M  V30 18494 H 1738.73 -2.58734 -3.01898 0
M  V30 18495 N 1739.72 0.794246 -1.36123 0
M  V30 18496 C 1740.97 1.55191 -1.30084 0
M  V30 18497 C 1741.3 1.94122 0.121259 0
M  V30 18498 O 1740.55 1.62573 1.08942 0
M  V30 18499 C 1740.85 2.84387 -2.16469 0
M  V30 18500 C 1740.52 2.64617 -3.65087 0
M  V30 18501 C 1739.18 2.58934 -4.05594 0
M  V30 18502 C 1741.53 2.46293 -4.59336 0
M  V30 18503 C 1738.86 2.32885 -5.38499 0
M  V30 18504 C 1741.21 2.21771 -5.92453 0
M  V30 18505 C 1739.88 2.14518 -6.32091 0
M  V30 18506 H 1739.15 0.567885 -0.476013 0
M  V30 18507 H 1741.79 0.916723 -1.68132 0
M  V30 18508 H 1740.1 3.52348 -1.71342 0
M  V30 18509 H 1741.8 3.42152 -2.09124 0
M  V30 18510 H 1738.39 2.69894 -3.32949 0
M  V30 18511 H 1742.57 2.49688 -4.28917 0
M  V30 18512 H 1737.83 2.25748 -5.68197 0
M  V30 18513 H 1742 2.06586 -6.65053 0
M  V30 18514 H 1739.63 1.94096 -7.35004 0
M  V30 18515 N 1741.2 1.20323 1.01785 0
M  V30 18516 C 1742.45 1.01063 1.75016 0
M  V30 18517 C 1742.77 -0.458458 1.89534 0
M  V30 18518 O 1742.04 -1.3315 1.43694 0
M  V30 18519 H 1740.62 0.370957 0.648383 0
M  V30 18520 H 1743.28 1.51411 1.22722 0
M  V30 18521 H 1742.38 1.46792 2.75424 0
M  V30 18522 N 1742.68 -1.21073 1.00892 0
M  V30 18523 C 1743.61 -2.22257 0.517418 0
M  V30 18524 C 1744.59 -1.56784 -0.430997 0
M  V30 18525 O 1745.77 -1.85169 -0.3528 0
M  V30 18526 C 1742.9 -3.37791 -0.24795 0
M  V30 18527 C 1741.95 -4.21535 0.648856 0
M  V30 18528 S 1742.78 -4.92026 2.11355 0
M  V30 18529 C 1743.94 -6.10987 1.35813 0
M  V30 18530 H 1744.17 -2.63604 1.37479 0
M  V30 18531 H 1741.7 -1.31002 0.817177 0
M  V30 18532 H 1743.66 -4.04771 -0.683454 0
M  V30 18533 H 1742.32 -2.9492 -1.08079 0
M  V30 18534 H 1741.51 -5.03965 0.0591083 0
M  V30 18535 H 1741.12 -3.59771 1.0218 0
M  V30 18536 H 1743.41 -6.74526 0.634079 0
M  V30 18537 H 1744.35 -6.74406 2.15829 0
M  V30 18538 H 1744.76 -5.57843 0.864381 0
M  V30 18539 N 1744.16 -0.784156 -1.36707 0
M  V30 18540 C 1745.39 -0.365901 -2.03639 0
M  V30 18541 C 1745.8 1.01599 -1.59132 0
M  V30 18542 O 1745.16 1.65072 -0.778298 0
M  V30 18543 C 1745.21 -0.414035 -3.59121 0
M  V30 18544 O 1744.93 -1.74142 -4.02003 0
M  V30 18545 C 1746.43 0.0142546 -4.43298 0
M  V30 18546 H 1743.65 -0.151525 -0.653667 0
M  V30 18547 H 1746.2 -1.06154 -1.7479 0
M  V30 18548 H 1744.35 0.233134 -3.86698 0
M  V30 18549 H 1744.76 -1.68861 -4.96575 0
M  V30 18550 H 1746.24 -0.0705681 -5.51955 0
M  V30 18551 H 1746.72 1.06623 -4.26061 0
M  V30 18552 H 1747.32 -0.605201 -4.20972 0
M  V30 18553 N 1745.64 1.48215 -0.535727 0
M  V30 18554 C 1747.05 1.58417 -0.193977 0
M  V30 18555 C 1747.25 1.53705 1.30296 0
M  V30 18556 O 1746.31 1.42913 2.08164 0
M  V30 18557 C 1747.62 2.89819 -0.8016 0
M  V30 18558 C 1749.17 3.03359 -0.770858 0
M  V30 18559 C 1749.64 4.3743 -1.35716 0
M  V30 18560 N 1751.14 4.44012 -1.31938 0
M  V30 18561 C 1751.87 5.4627 -1.74287 0
M  V30 18562 N 1751.37 6.55454 -2.24393 0
M  V30 18563 N 1753.16 5.37187 -1.65489 0
M  V30 18564 H 1745.31 1.49521 -1.50855 0
M  V30 18565 H 1747.57 0.710306 -0.627829 0
M  V30 18566 H 1747.28 2.98939 -1.85278 0
M  V30 18567 H 1747.15 3.76144 -0.282036 0
M  V30 18568 H 1749.54 2.93848 0.271577 0
M  V30 18569 H 1749.62 2.1863 -1.32795 0
M  V30 18570 H 1749.27 4.47696 -2.39855 0
M  V30 18571 H 1749.2 5.20856 -0.775696 0
M  V30 18572 H 1751.69 3.65695 -0.952653 0
M  V30 18573 H 1752 7.29626 -2.54686 0
M  V30 18574 H 1750.34 6.56402 -2.2839 0
M  V30 18575 H 1753.54 4.50785 -1.26138 0
M  V30 18576 H 1753.71 6.16747 -1.98814 0
M  V30 18577 N 1747.11 0.27113 1.5525 0
M  V30 18578 C 1748.39 -0.398374 1.915 0
M  V30 18579 C 1748.77 -1.74026 1.19491 0
M  V30 18580 O 1748.12 -2.26242 0.320425 0
M  V30 18581 C 1748.33 -0.542589 3.44756 0
M  V30 18582 C 1749.68 -0.827326 4.16462 0
M  V30 18583 O 1750.7 -0.627548 3.50628 0
M  V30 18584 O 1749.56 -1.20917 5.32955 0
M  V30 18585 H 1746.65 -0.217479 0.797892 0
M  V30 18586 H 1749.2 0.316988 1.66713 0
M  V30 18587 H 1747.97 0.401926 3.8923 0
M  V30 18588 H 1747.6 -1.30757 3.75484 0
M  V30 18589 N 1748.59 -1.576 -0.00164943 0
M  V30 18590 C 1749.84 -1.89675 -0.686026 0
M  V30 18591 C 1750.15 -0.873179 -1.75028 0
M  V30 18592 O 1751.36 -1.08409 -2.48917 0
M  V30 18593 C 1749.82 -3.36696 -1.27136 0
M  V30 18594 C 1749.42 -4.47346 -0.242011 0
M  V30 18595 C 1751.17 -3.77883 -1.93402 0
M  V30 18596 C 1749.08 -5.85444 -0.837241 0
M  V30 18597 H 1748.01 -0.707756 -0.259994 0
M  V30 18598 H 1750.66 -1.83406 0.0586245 0
M  V30 18599 H 1749.04 -3.37797 -2.06662 0
M  V30 18600 H 1750.21 -4.57759 0.528539 0
M  V30 18601 H 1748.53 -4.15168 0.320118 0
M  V30 18602 H 1751.12 -4.78394 -2.38838 0
M  V30 18603 H 1751.47 -3.11311 -2.76389 0
M  V30 18604 H 1752 -3.79075 -1.20612 0
M  V30 18605 H 1748.74 -6.55484 -0.04619 0
M  V30 18606 H 1748.26 -5.78698 -1.57699 0
M  V30 18607 H 1749.94 -6.33048 -1.33637 0
M  V30 18608 N 1750.07 0.274379 -1.55193 0
M  V30 18609 C 1751.3 1.02295 -1.79497 0
M  V30 18610 C 1751.71 1.80479 -0.567805 0
M  V30 18611 O 1751.05 1.77517 0.472601 0
M  V30 18612 C 1751.11 2.02986 -2.9671 0
M  V30 18613 C 1750.78 1.43753 -4.33802 0
M  V30 18614 C 1751.77 0.853898 -5.1284 0
M  V30 18615 C 1749.46 1.46514 -4.80457 0
M  V30 18616 C 1751.45 0.305773 -6.36666 0
M  V30 18617 C 1749.14 0.913158 -6.04239 0
M  V30 18618 C 1750.14 0.33447 -6.82181 0
M  V30 18619 O 1749.83 -0.209069 -8.03628 0
M  V30 18620 H 1749.56 0.307952 -0.601782 0
M  V30 18621 H 1752.11 0.310987 -2.03032 0
M  V30 18622 H 1750.34 2.77937 -2.68864 0
M  V30 18623 H 1752.03 2.6396 -3.0835 0
M  V30 18624 H 1752.8 0.825268 -4.77927 0
M  V30 18625 H 1748.68 1.90496 -4.198 0
M  V30 18626 H 1752.22 -0.146553 -6.97446 0
M  V30 18627 H 1748.12 0.939023 -6.38633 0
M  V30 18628 H 1748.89 -0.0982973 -8.18441 0
M  V30 18629 N 1751.55 1.48103 0.538828 0
M  V30 18630 C 1752.46 1.64632 1.67133 0
M  V30 18631 C 1753.47 0.528917 1.65766 0
M  V30 18632 O 1754.65 0.798849 1.84879 0
M  V30 18633 C 1751.72 1.67391 3.03614 0
M  V30 18634 C 1750.78 2.90694 3.15904 0
M  V30 18635 C 1750.01 2.93311 4.45875 0
M  V30 18636 O 1750.23 2.04596 5.32444 0
M  V30 18637 O 1749.17 3.85384 4.62345 0
M  V30 18638 H 1752.99 2.60496 1.56126 0
M  V30 18639 H 1750.58 1.31401 0.710925 0
M  V30 18640 H 1752.46 1.71777 3.84799 0
M  V30 18641 H 1751.13 0.746982 3.14963 0
M  V30 18642 H 1750.04 2.91844 2.34047 0
M  V30 18643 H 1751.37 3.82742 3.09467 0
M  V30 18644 N 1753.03 -0.787016 1.36542 0
M  V30 18645 C 1754.25 -1.57588 1.34065 0
M  V30 18646 C 1754.67 -1.88641 -0.0775397 0
M  V30 18647 O 1754.03 -1.50306 -1.03511 0
M  V30 18648 C 1754.08 -2.89543 2.16442 0
M  V30 18649 O 1753.8 -2.59828 3.52734 0
M  V30 18650 C 1755.3 -3.83838 2.21773 0
M  V30 18651 H 1752.52 -0.488708 0.459789 0
M  V30 18652 H 1755.06 -0.976614 1.79673 0
M  V30 18653 H 1753.22 -3.45933 1.74383 0
M  V30 18654 H 1753.63 -3.44219 3.95744 0
M  V30 18655 H 1755.11 -4.73478 2.83765 0
M  V30 18656 H 1755.58 -4.21862 1.22185 0
M  V30 18657 H 1756.19 -3.33381 2.64078 0
M  V30 18658 N 1754.5 -1.20861 -1.01145 0
M  V30 18659 C 1755.78 -0.93084 -1.72031 0
M  V30 18660 C 1756.16 0.559051 -2.03563 0
M  V30 18661 O 1755.51 1.52214 -1.70421 0
M  V30 18662 C 1755.72 -1.8092 -2.98444 0
M  V30 18663 C 1757.07 -2.05415 -3.71604 0
M  V30 18664 O 1758.09 -1.78216 -3.08411 0
M  V30 18665 O 1756.95 -2.5138 -4.85253 0
M  V30 18666 H 1754.04 -0.348488 -0.74999 0
M  V30 18667 H 1756.59 -1.3176 -1.06946 0
M  V30 18668 H 1755.36 -2.81783 -2.71503 0
M  V30 18669 H 1754.99 -1.42285 -3.71269 0
M  V30 18670 N 1755.98 1.20536 -1.01532 0
M  V30 18671 C 1757.21 1.93571 -0.722055 0
M  V30 18672 C 1757.62 1.74923 0.721011 0
M  V30 18673 O 1756.96 1.05961 1.5006 0
M  V30 18674 C 1757.03 3.45989 -0.97632 0
M  V30 18675 C 1756.69 3.88397 -2.40825 0
M  V30 18676 C 1757.69 3.94262 -3.38901 0
M  V30 18677 C 1755.37 4.20422 -2.74865 0
M  V30 18678 C 1757.37 4.3156 -4.69078 0
M  V30 18679 C 1755.05 4.57395 -4.05256 0
M  V30 18680 C 1756.05 4.62937 -5.02174 0
M  V30 18681 O 1755.74 4.99063 -6.30232 0
M  V30 18682 H 1755.47 0.622101 -0.264511 0
M  V30 18683 H 1758.02 1.5401 -1.35905 0
M  V30 18684 H 1756.25 3.85669 -0.282161 0
M  V30 18685 H 1757.94 4.00251 -0.674832 0
M  V30 18686 H 1758.71 3.69686 -3.13938 0
M  V30 18687 H 1754.59 4.153 -2.00117 0
M  V30 18688 H 1758.13 4.358 -5.44724 0
M  V30 18689 H 1754.03 4.81427 -4.29998 0
M  V30 18690 H 1754.8 5.1706 -6.34501 0
M  V30 18691 N 1757.46 0.791395 1.36289 0
M  V30 18692 C 1758.69 0.376149 2.03147 0
M  V30 18693 C 1759.1 -1.01287 1.59805 0
M  V30 18694 O 1758.44 -1.66134 0.78392 0
M  V30 18695 C 1758.5 0.362792 3.57665 0
M  V30 18696 C 1758.17 1.69972 4.24215 0
M  V30 18697 C 1759.16 2.65553 4.46965 0
M  V30 18698 C 1756.85 1.97956 4.61648 0
M  V30 18699 C 1758.84 3.87311 5.0623 0
M  V30 18700 C 1756.53 3.19981 5.2063 0
M  V30 18701 C 1757.53 4.14477 5.42861 0
M  V30 18702 O 1757.22 5.3435 6.00604 0
M  V30 18703 H 1756.95 0.152854 0.658492 0
M  V30 18704 H 1759.5 1.072 1.75206 0
M  V30 18705 H 1757.73 -0.389566 3.84733 0
M  V30 18706 H 1759.42 -0.0280568 4.0589 0
M  V30 18707 H 1760.19 2.4522 4.1844 0
M  V30 18708 H 1756.07 1.25222 4.43667 0
M  V30 18709 H 1759.61 4.61081 5.23498 0
M  V30 18710 H 1755.51 3.4019 5.48581 0
M  V30 18711 H 1756.28 5.3544 6.19069 0
M  V30 18712 N 1758.94 -1.47929 0.54358 0
M  V30 18713 C 1760.36 -1.58312 0.202376 0
M  V30 18714 C 1760.56 -1.54394 -1.29479 0
M  V30 18715 O 1759.61 -1.44015 -2.07403 0
M  V30 18716 C 1760.92 -2.89389 0.816958 0
M  V30 18717 C 1762.47 -3.02946 0.786935 0
M  V30 18718 C 1762.95 -4.36704 1.38034 0
M  V30 18719 N 1764.44 -4.43306 1.34291 0
M  V30 18720 C 1765.17 -5.45339 1.77182 0
M  V30 18721 N 1764.67 -6.54255 2.27866 0
M  V30 18722 N 1766.46 -5.36302 1.68336 0
M  V30 18723 H 1758.61 -1.48719 1.51646 0
M  V30 18724 H 1760.88 -0.706966 0.631587 0
M  V30 18725 H 1760.58 -2.97953 1.86861 0
M  V30 18726 H 1760.46 -3.75989 0.30198 0
M  V30 18727 H 1762.84 -2.93988 -0.25599 0
M  V30 18728 H 1762.92 -2.17923 1.33953 0
M  V30 18729 H 1762.57 -4.46418 2.42226 0
M  V30 18730 H 1762.5 -5.20437 0.803308 0
M  V30 18731 H 1764.99 -3.65185 0.972033 0
M  V30 18732 H 1765.3 -7.28265 2.58552 0
M  V30 18733 H 1763.65 -6.55181 2.31868 0
M  V30 18734 H 1766.84 -4.50109 1.28527 0
M  V30 18735 H 1767.01 -6.15684 2.02082 0
M  V30 18736 N 1760.42 -0.27936 -1.55104 0
M  V30 18737 C 1761.36 0.606268 -2.22695 0
M  V30 18738 C 1762.33 1.14646 -1.20189 0
M  V30 18739 O 1763.52 1.19498 -1.48744 0
M  V30 18740 C 1760.66 1.78256 -2.95497 0
M  V30 18741 C 1759.77 1.27582 -4.12731 0
M  V30 18742 C 1758.91 2.41425 -4.73167 0
M  V30 18743 C 1757.95 1.87775 -5.82586 0
M  V30 18744 N 1757.08 2.95108 -6.37068 0
M  V30 18745 H 1761.92 0.0232427 -2.97991 0
M  V30 18746 H 1759.46 -0.000294714 -1.471 0
M  V30 18747 H 1761.42 2.47406 -3.35925 0
M  V30 18748 H 1760.05 2.33755 -2.22617 0
M  V30 18749 H 1759.1 0.477281 -3.77394 0
M  V30 18750 H 1760.41 0.842897 -4.91627 0
M  V30 18751 H 1759.57 3.18561 -5.16337 0
M  V30 18752 H 1758.31 2.88035 -3.93557 0
M  V30 18753 H 1757.31 1.0912 -5.38862 0
M  V30 18754 H 1758.54 1.42096 -6.64067 0
M  V30 18755 H 1756.48 3.41091 -5.60351 0
M  V30 18756 H 1756.4 2.56246 -7.11248 0
M  V30 18757 H 1757.67 3.72206 -6.84896 0
M  V30 18758 N 1761.9 1.57599 -0.0067085 0
M  V30 18759 C 1763.14 1.90481 0.675393 0
M  V30 18760 C 1763.46 0.881481 1.73939 0
M  V30 18761 O 1762.73 -0.0801928 1.95736 0
M  V30 18762 H 1761.31 0.703048 0.252452 0
M  V30 18763 H 1763.98 1.94838 -0.04922 0
M  V30 18764 H 1763.07 2.90441 1.14239 0
M  V30 18765 N 1763.37 -0.266145 1.55336 0
M  V30 18766 C 1764.62 -0.994862 1.75917 0
M  V30 18767 C 1764.94 -1.8657 0.567147 0
M  V30 18768 O 1764.21 -1.91394 -0.417738 0
M  V30 18769 H 1762.79 -0.370318 0.648748 0
M  V30 18770 H 1765.45 -0.288724 1.9275 0
M  V30 18771 H 1764.55 -1.62781 2.66287 0
M  V30 18772 N 1764.85 -1.48386 -0.530967 0
M  V30 18773 C 1765.8 -1.62835 -1.63564 0
M  V30 18774 C 1766.77 -0.470453 -1.59298 0
M  V30 18775 O 1767.95 -0.693813 -1.77738 0
M  V30 18776 C 1765.09 -1.67314 -3.01828 0
M  V30 18777 C 1764.21 -2.94204 -3.16335 0
M  V30 18778 C 1763.34 -2.8985 -4.45152 0
M  V30 18779 C 1762.38 -4.11449 -4.53185 0
M  V30 18780 N 1761.52 -4.05178 -5.7339 0
M  V30 18781 H 1766.36 -2.57172 -1.50554 0
M  V30 18782 H 1763.89 -1.27537 -0.732991 0
M  V30 18783 H 1765.85 -1.67892 -3.81927 0
M  V30 18784 H 1764.48 -0.764688 -3.13612 0
M  V30 18785 H 1763.53 -3.03375 -2.29495 0
M  V30 18786 H 1764.85 -3.84179 -3.18132 0
M  V30 18787 H 1764 -2.88824 -5.33541 0
M  V30 18788 H 1762.74 -1.97602 -4.45875 0
M  V30 18789 H 1761.74 -4.12751 -3.63203 0
M  V30 18790 H 1762.97 -5.04855 -4.54201 0
M  V30 18791 H 1760.92 -3.15749 -5.75012 0
M  V30 18792 H 1760.83 -4.88857 -5.76676 0
M  V30 18793 H 1762.1 -4.08209 -6.64067 0
M  V30 18794 N 1766.33 0.779763 -1.36958 0
M  V30 18795 C 1767.58 1.53499 -1.31463 0
M  V30 18796 C 1767.9 1.94728 0.102869 0
M  V30 18797 O 1767.17 1.65688 1.0452 0
M  V30 18798 H 1765.75 0.5693 -0.483638 0
M  V30 18799 H 1768.41 0.928536 -1.7136 0
M  V30 18800 H 1767.51 2.4381 -1.94841 0
M  V30 18801 N 1767.81 1.21396 1.00503 0
M  V30 18802 C 1768.74 0.997268 2.11132 0
M  V30 18803 C 1769.72 -0.0777455 1.69922 0
M  V30 18804 O 1770.9 0.08208 1.94026 0
M  V30 18805 C 1768.03 0.561122 3.42737 0
M  V30 18806 C 1766.99 1.58069 3.97741 0
M  V30 18807 C 1766.31 1.00079 5.25251 0
M  V30 18808 C 1767.61 2.96754 4.29807 0
M  V30 18809 H 1769.31 1.92255 2.29518 0
M  V30 18810 H 1766.85 0.925776 1.10297 0
M  V30 18811 H 1768.81 0.396701 4.19529 0
M  V30 18812 H 1767.53 -0.399804 3.24144 0
M  V30 18813 H 1766.19 1.73268 3.23069 0
M  V30 18814 H 1765.84 0.0315797 5.0299 0
M  V30 18815 H 1765.54 1.68182 5.63017 0
M  V30 18816 H 1767.06 0.847687 6.04687 0
M  V30 18817 H 1768.48 2.85 4.97441 0
M  V30 18818 H 1766.87 3.61871 4.78717 0
M  V30 18819 H 1767.94 3.47602 3.38084 0
M  V30 18820 N 1769.29 -1.19996 1.0217 0
M  V30 18821 C 1770.22 -2.25206 0.616818 0
M  V30 18822 C 1771.2 -1.66013 -0.370653 0
M  V30 18823 O 1772.38 -1.92519 -0.254956 0
M  V30 18824 C 1769.51 -3.47276 -0.0405129 0
M  V30 18825 C 1768.47 -4.19096 0.868479 0
M  V30 18826 C 1767.79 -5.34645 0.0766447 0
M  V30 18827 C 1769.09 -4.7468 2.1789 0
M  V30 18828 H 1770.79 -2.59328 1.49632 0
M  V30 18829 H 1768.33 -1.24655 0.720917 0
M  V30 18830 H 1770.28 -4.20063 -0.335355 0
M  V30 18831 H 1769.01 -3.12333 -0.954759 0
M  V30 18832 H 1767.67 -3.48181 1.1474 0
M  V30 18833 H 1767.32 -4.95946 -0.839411 0
M  V30 18834 H 1767.02 -5.83628 0.682041 0
M  V30 18835 H 1768.54 -6.10233 -0.211624 0
M  V30 18836 H 1769.95 -5.39259 1.94608 0
M  V30 18837 H 1768.35 -5.34121 2.7356 0
M  V30 18838 H 1769.42 -3.93141 2.83845 0
M  V30 18839 N 1770.76 -0.798611 -1.35867 0
M  V30 18840 C 1772.17 -0.437243 -1.81508 0
M  V30 18841 C 1772.53 1.03987 -1.66376 0
M  V30 18842 O 1771.65 1.80751 -1.18988 0
M  V30 18843 C 1772.25 -0.786865 -3.29536 0
M  V30 18844 C 1770.8 -0.478204 -3.7335 0
M  V30 18845 C 1769.95 -1.01668 -2.5799 0
M  V30 18846 H 1772.9 -0.990957 -1.23959 0
M  V30 18847 H 1772.92 -0.0813864 -3.80413 0
M  V30 18848 H 1772.44 -1.86198 -3.40517 0
M  V30 18849 H 1770.54 0.588503 -3.67923 0
M  V30 18850 H 1770.65 -1.00525 -4.68435 0
M  V30 18851 H 1769.01 -0.439417 -2.50881 0
M  V30 18852 H 1769.8 -2.09775 -2.71753 0
M  V30 18853 N 1772.24 1.47639 -0.551417 0
M  V30 18854 C 1773.49 2.02784 -0.0252425 0
M  V30 18855 C 1773.82 1.42549 1.31884 0
M  V30 18856 O 1773.1 0.578954 1.85684 0
M  V30 18857 C 1773.38 3.60024 0.0740051 0
M  V30 18858 C 1773.23 4.30702 -1.29676 0
M  V30 18859 C 1774.55 4.32946 0.790302 0
M  V30 18860 H 1771.67 0.736923 -0.0106473 0
M  V30 18861 H 1774.31 1.76131 -0.712589 0
M  V30 18862 H 1772.46 3.82863 0.65939 0
M  V30 18863 H 1774.13 4.1922 -1.9249 0
M  V30 18864 H 1772.38 3.91282 -1.87299 0
M  V30 18865 H 1773.05 5.39238 -1.18009 0
M  V30 18866 H 1775.52 4.15065 0.293326 0
M  V30 18867 H 1774.4 5.42608 0.828692 0
M  V30 18868 H 1774.66 4.01752 1.84521 0
M  V30 18869 N 1773.72 0.287581 1.54954 0
M  V30 18870 C 1775.14 -0.0662092 1.59463 0
M  V30 18871 C 1775.34 -1.53556 1.30471 0
M  V30 18872 O 1774.39 -2.28632 1.07161 0
M  V30 18873 C 1775.71 0.319651 2.98996 0
M  V30 18874 C 1777.25 0.2673 3.11857 0
M  V30 18875 C 1777.73 0.627784 4.53677 0
M  V30 18876 N 1779.22 0.579808 4.59557 0
M  V30 18877 C 1779.95 0.831377 5.67341 0
M  V30 18878 N 1779.45 1.14821 6.83219 0
M  V30 18879 N 1781.24 0.759337 5.56947 0
M  V30 18880 H 1773.39 1.24534 1.72062 0
M  V30 18881 H 1775.66 0.503969 0.802944 0
M  V30 18882 H 1775.36 1.34201 3.25089 0
M  V30 18883 H 1775.24 -0.333373 3.75724 0
M  V30 18884 H 1777.62 -0.745794 2.8552 0
M  V30 18885 H 1777.71 0.954759 2.37314 0
M  V30 18886 H 1777.35 1.63862 4.80741 0
M  V30 18887 H 1777.28 -0.0816007 5.26537 0
M  V30 18888 H 1779.77 0.34531 3.76319 0
M  V30 18889 H 1780.08 1.32651 7.6133 0
M  V30 18890 H 1778.43 1.18612 6.84804 0
M  V30 18891 H 1781.62 0.511563 4.65296 0
M  V30 18892 H 1781.79 0.95877 6.40868 0
M  V30 18893 N 1775.2 -1.57593 0.0150662 0
M  V30 18894 C 1776.44 -1.9233 -0.661874 0
M  V30 18895 C 1776.8 -0.890777 -1.70537 0
M  V30 18896 O 1776.09 0.0950783 -1.91364 0
M  V30 18897 C 1776.29 -3.3158 -1.33376 0
M  V30 18898 C 1776.12 -4.48282 -0.356866 0
M  V30 18899 C 1774.89 -5.05286 0.0382 0
M  V30 18900 C 1777.08 -5.12871 0.383107 0
M  V30 18901 N 1775.07 -6.05506 1.01174 0
M  V30 18902 C 1776.44 -6.08061 1.21084 0
M  V30 18903 C 1778.49 -4.95905 0.445323 0
M  V30 18904 C 1777.19 -6.88111 2.09515 0
M  V30 18905 C 1779.22 -5.76551 1.31691 0
M  V30 18906 C 1778.58 -6.71346 2.13246 0
M  V30 18907 H 1774.68 -0.751882 -0.214937 0
M  V30 18908 H 1777.27 -1.9454 0.0789486 0
M  V30 18909 H 1775.44 -3.30216 -2.0448 0
M  V30 18910 H 1777.17 -3.53704 -1.96661 0
M  V30 18911 H 1773.92 -4.72426 -0.333328 0
M  V30 18912 H 1774.35 -6.60302 1.49432 0
M  V30 18913 H 1778.99 -4.22454 -0.170934 0
M  V30 18914 H 1776.71 -7.60876 2.72201 0
M  V30 18915 H 1780.29 -5.6546 1.36916 0
M  V30 18916 H 1779.17 -7.32663 2.79597 0
M  V30 18917 N 1776.68 0.257904 -1.55475 0
M  V30 18918 C 1777.61 1.34514 -1.8434 0
M  V30 18919 C 1778.59 1.46875 -0.697594 0
M  V30 18920 O 1779.77 1.63263 -0.942196 0
M  V30 18921 C 1776.9 2.71991 -2.01839 0
M  V30 18922 C 1775.94 2.76836 -3.24445 0
M  V30 18923 S 1776.78 2.34554 -4.81399 0
M  V30 18924 C 1777.93 3.73977 -5.01888 0
M  V30 18925 H 1778.17 1.09828 -2.7627 0
M  V30 18926 H 1775.7 0.458324 -1.47441 0
M  V30 18927 H 1777.66 3.51155 -2.12604 0
M  V30 18928 H 1776.32 2.9392 -1.10771 0
M  V30 18929 H 1775.51 3.77774 -3.33621 0
M  V30 18930 H 1775.11 2.05706 -3.12348 0
M  V30 18931 H 1777.41 4.69381 -4.88556 0
M  V30 18932 H 1778.35 3.69743 -6.03901 0
M  V30 18933 H 1778.76 3.6598 -4.29789 0
M  V30 18934 N 1778.15 1.48666 0.52309 0
M  V30 18935 C 1779.12 1.63211 1.60919 0
M  V30 18936 C 1780.12 0.505012 1.52664 0
M  V30 18937 O 1781.31 0.770967 1.56211 0
M  V30 18938 C 1778.44 1.60878 3.00551 0
M  V30 18939 H 1779.63 2.60061 1.4936 0
M  V30 18940 H 1777.19 1.37366 0.745674 0
M  V30 18941 H 1777.92 0.655306 3.1761 0
M  V30 18942 H 1777.71 2.4271 3.07952 0
M  V30 18943 H 1779.2 1.74263 3.79502 0
M  V30 18944 N 1779.63 -0.772489 1.37369 0
M  V30 18945 C 1781.04 -1.34873 1.29098 0
M  V30 18946 C 1781.39 -1.96103 -0.0617433 0
M  V30 18947 O 1780.52 -1.93764 -0.963562 0
M  V30 18948 C 1781.11 -2.45218 2.33781 0
M  V30 18949 C 1779.67 -2.98612 2.29146 0
M  V30 18950 C 1778.82 -1.71823 2.17651 0
M  V30 18951 H 1781.77 -0.572805 1.48002 0
M  V30 18952 H 1781.79 -3.24679 1.98404 0
M  V30 18953 H 1781.3 -2.00624 3.32222 0
M  V30 18954 H 1779.41 -3.47583 1.34225 0
M  V30 18955 H 1779.52 -3.54276 3.22529 0
M  V30 18956 H 1777.88 -1.94719 1.64185 0
M  V30 18957 H 1778.67 -1.29334 3.18006 0
M  V30 18958 N 1781.11 -1.21927 -0.998575 0
M  V30 18959 C 1782.02 -1.00049 -2.12197 0
M  V30 18960 C 1783.04 0.0494414 -1.7393 0
M  V30 18961 O 1784.21 -0.142033 -2.00899 0
M  V30 18962 C 1781.28 -0.574871 -3.41901 0
M  V30 18963 C 1780.34 -1.69776 -3.94303 0
M  V30 18964 C 1779.57 -1.29236 -5.17816 0
M  V30 18965 O 1779.79 -0.168709 -5.7015 0
M  V30 18966 O 1778.73 -2.10671 -5.63827 0
M  V30 18967 H 1782.55 -1.94154 -2.33534 0
M  V30 18968 H 1780.14 -1.00472 -1.10571 0
M  V30 18969 H 1782.02 -0.347603 -4.19964 0
M  V30 18970 H 1780.7 0.337389 -3.21937 0
M  V30 18971 H 1779.6 -1.9795 -3.17438 0
M  V30 18972 H 1780.94 -2.58768 -4.18688 0
M  V30 18973 N 1782.59 1.19452 -1.02805 0
M  V30 18974 C 1783.81 1.93616 -0.743485 0
M  V30 18975 C 1784.24 1.74934 0.691342 0
M  V30 18976 O 1783.6 1.05111 1.47721 0
M  V30 18977 C 1783.64 3.43451 -1.0988 0
M  V30 18978 O 1782.75 4.11829 -0.216978 0
M  V30 18979 H 1782.09 0.60448 -0.274771 0
M  V30 18980 H 1784.62 1.51554 -1.37451 0
M  V30 18981 H 1784.63 3.94115 -1.05535 0
M  V30 18982 H 1783.3 3.5637 -2.14413 0
M  V30 18983 H 1781.88 3.71533 -0.318954 0
M  V30 18984 N 1784.07 0.805805 1.35442 0
M  V30 18985 C 1785 0.230077 2.32364 0
M  V30 18986 C 1785.98 -0.644034 1.57436 0
M  V30 18987 O 1787.16 -0.574467 1.85509 0
M  V30 18988 C 1784.29 -0.622814 3.4167 0
M  V30 18989 C 1783.25 0.152739 4.27727 0
M  V30 18990 C 1782.57 -0.821803 5.28347 0
M  V30 18991 C 1783.87 1.35128 5.04517 0
M  V30 18992 H 1785.57 1.03983 2.80763 0
M  V30 18993 H 1783.11 0.501467 1.34986 0
M  V30 18994 H 1785.07 -1.03564 4.08476 0
M  V30 18995 H 1783.79 -1.46544 2.91877 0
M  V30 18996 H 1782.45 0.546732 3.625 0
M  V30 18997 H 1782.1 -1.65991 4.74822 0
M  V30 18998 H 1781.8 -0.307209 5.86796 0
M  V30 18999 H 1783.32 -1.23285 5.98024 0
M  V30 19000 H 1784.73 1.01337 5.64273 0
M  V30 19001 H 1783.13 1.80031 5.72459 0
M  V30 19002 H 1784.2 2.13833 4.35205 0
M  V30 19003 N 1785.54 -1.47344 0.559239 0
M  V30 19004 C 1786.49 -2.30039 -0.187317 0
M  V30 19005 C 1787.46 -1.39186 -0.906443 0
M  V30 19006 O 1788.65 -1.68147 -0.901739 0
M  V30 19007 C 1785.79 -3.2319 -1.21004 0
M  V30 19008 C 1784.9 -4.29134 -0.496776 0
M  V30 19009 C 1784.03 -5.09435 -1.50497 0
M  V30 19010 C 1783.07 -6.07151 -0.776794 0
M  V30 19011 N 1782.21 -6.80404 -1.73192 0
M  V30 19012 H 1787.05 -2.93357 0.523978 0
M  V30 19013 H 1784.59 -1.44597 0.270225 0
M  V30 19014 H 1786.55 -3.75621 -1.81561 0
M  V30 19015 H 1785.18 -2.61732 -1.88935 0
M  V30 19016 H 1784.23 -3.79744 0.223359 0
M  V30 19017 H 1785.54 -4.98746 0.0735731 0
M  V30 19018 H 1784.69 -5.66026 -2.18402 0
M  V30 19019 H 1783.43 -4.3973 -2.10924 0
M  V30 19020 H 1782.44 -5.49736 -0.0838382 0
M  V30 19021 H 1783.66 -6.78866 -0.178239 0
M  V30 19022 H 1781.61 -6.13427 -2.32472 0
M  V30 19023 H 1781.53 -7.46193 -1.21377 0
M  V30 19024 H 1782.79 -7.41567 -2.40204 0
M  V30 19025 N 1787.02 -0.295795 -1.54799 0
M  V30 19026 C 1788.3 0.367858 -1.9211 0
M  V30 19027 C 1788.68 1.72103 -1.22244 0
M  V30 19028 O 1788.03 2.25704 -0.356377 0
M  V30 19029 C 1788.24 0.487673 -3.45576 0
M  V30 19030 C 1789.59 0.760966 -4.17725 0
M  V30 19031 O 1790.61 0.571687 -3.51582 0
M  V30 19032 O 1789.47 1.12423 -5.34812 0
M  V30 19033 H 1786.56 0.204758 -0.801251 0
M  V30 19034 H 1789.11 -0.343471 -1.66188 0
M  V30 19035 H 1787.88 -0.463798 -3.88542 0
M  V30 19036 H 1787.5 1.24767 -3.77517 0
M  V30 19037 N 1788.5 1.57583 -0.0234236 0
M  V30 19038 C 1789.75 1.91186 0.655152 0
M  V30 19039 C 1790.07 0.89988 1.72995 0
M  V30 19040 O 1789.34 -0.0594278 1.9581 0
M  V30 19041 H 1787.92 0.705686 0.244982 0
M  V30 19042 H 1790.58 1.94775 -0.0698824 0
M  V30 19043 H 1789.68 2.91636 1.11152 0
M  V30 19044 N 1789.98 -0.249655 1.5561 0
M  V30 19045 C 1791.23 -0.979529 1.77576 0
M  V30 19046 C 1791.56 -1.85078 0.588198 0
M  V30 19047 O 1790.83 -1.90052 -0.4136 0
M  V30 19048 C 1791.12 -1.84238 3.094 0
M  V30 19049 C 1790.97 -0.9995 4.38554 0
M  V30 19050 C 1792.29 -2.82536 3.37433 0
M  V30 19051 H 1789.41 -0.354681 0.646042 0
M  V30 19052 H 1792.05 -0.250224 1.88345 0
M  V30 19053 H 1790.2 -2.46419 3.0035 0
M  V30 19054 H 1791.87 -0.396599 4.59592 0
M  V30 19055 H 1790.11 -0.30376 4.32735 0
M  V30 19056 H 1790.79 -1.63697 5.27169 0
M  V30 19057 H 1793.26 -2.30491 3.46429 0
M  V30 19058 H 1792.14 -3.40033 4.30893 0
M  V30 19059 H 1792.4 -3.58859 2.58211 0
M  V30 19060 N 1791.46 -1.48941 -0.515198 0
M  V30 19061 C 1792.7 -1.5771 -1.27019 0
M  V30 19062 C 1793.03 -0.257484 -1.92788 0
M  V30 19063 O 1792.29 0.753481 -1.80613 0
M  V30 19064 C 1792.59 -2.67508 -2.37011 0
M  V30 19065 C 1792.25 -4.09471 -1.88796 0
M  V30 19066 C 1790.91 -4.48108 -1.75365 0
M  V30 19067 C 1793.27 -4.98378 -1.52543 0
M  V30 19068 C 1790.59 -5.73438 -1.24038 0
M  V30 19069 C 1792.95 -6.24212 -1.02673 0
M  V30 19070 C 1791.61 -6.61691 -0.878703 0
M  V30 19071 H 1790.88 -0.577101 -0.464796 0
M  V30 19072 H 1793.53 -1.82718 -0.573279 0
M  V30 19073 H 1791.83 -2.36417 -3.12433 0
M  V30 19074 H 1793.53 -2.71505 -2.95104 0
M  V30 19075 H 1790.12 -3.78967 -2.00205 0
M  V30 19076 H 1794.3 -4.69194 -1.61773 0
M  V30 19077 H 1789.56 -6.01188 -1.11277 0
M  V30 19078 H 1793.73 -6.9249 -0.73697 0
M  V30 19079 H 1791.36 -7.58691 -0.478792 0
M  V30 19080 N 1792.94 0.765193 -1.37777 0
M  V30 19081 C 1794.16 1.55436 -1.36556 0
M  V30 19082 C 1794.58 1.8874 0.0475187 0
M  V30 19083 O 1793.94 1.51933 1.01107 0
M  V30 19084 C 1793.99 2.86063 -2.21021 0
M  V30 19085 O 1793.71 2.54183 -3.56823 0
M  V30 19086 C 1795.21 3.80261 -2.27851 0
M  V30 19087 H 1792.43 0.481331 -0.467506 0
M  V30 19088 H 1794.97 0.947906 -1.81204 0
M  V30 19089 H 1793.13 3.43114 -1.79864 0
M  V30 19090 H 1793.54 3.37879 -4.01171 0
M  V30 19091 H 1795.02 4.68904 -2.91261 0
M  V30 19092 H 1795.49 4.19865 -1.28881 0
M  V30 19093 H 1796.1 3.29137 -2.69349 0
M  V30 19094 N 1794.41 1.22455 0.992094 0
M  V30 19095 C 1795.64 1.07594 1.76723 0
M  V30 19096 C 1796.06 -0.37345 1.8507 0
M  V30 19097 O 1795.41 -1.25876 1.32142 0
M  V30 19098 C 1795.46 1.68178 3.19998 0
M  V30 19099 O 1795.19 3.07447 3.12102 0
M  V30 19100 C 1796.69 1.58602 4.13957 0
M  V30 19101 H 1793.91 0.377148 0.554978 0
M  V30 19102 H 1796.45 1.62065 1.24721 0
M  V30 19103 H 1794.61 1.17768 3.69066 0
M  V30 19104 H 1795.02 3.36641 4.0221 0
M  V30 19105 H 1796.49 2.05714 5.12236 0
M  V30 19106 H 1796.97 0.542712 4.35834 0
M  V30 19107 H 1797.58 2.08321 3.70786 0
M  V30 19108 N 1795.89 -1.18905 1.03437 0
M  V30 19109 C 1797.12 -1.93219 0.753743 0
M  V30 19110 C 1797.54 -1.75299 -0.682055 0
M  V30 19111 O 1796.9 -1.05892 -1.47161 0
M  V30 19112 C 1796.95 -3.42864 1.117 0
M  V30 19113 O 1796.05 -4.11708 0.238816 0
M  V30 19114 H 1795.39 -0.603015 0.277973 0
M  V30 19115 H 1797.92 -1.50823 1.38252 0
M  V30 19116 H 1797.93 -3.9355 1.07623 0
M  V30 19117 H 1796.61 -3.55228 2.163 0
M  V30 19118 H 1795.18 -3.71359 0.338652 0
M  V30 19119 N 1797.37 -0.812977 -1.35013 0
M  V30 19120 C 1798.59 -0.407969 -2.03348 0
M  V30 19121 C 1799.02 0.975148 -1.60849 0
M  V30 19122 O 1798.38 1.63267 -0.788256 0
M  V30 19123 C 1798.43 -0.506754 -3.57022 0
M  V30 19124 O 1797.53 0.477322 -4.09628 0
M  V30 19125 H 1796.87 -0.169416 -0.642023 0
M  V30 19126 H 1799.4 -1.10064 -1.72474 0
M  V30 19127 H 1799.41 -0.378883 -4.06237 0
M  V30 19128 H 1798.09 -1.51557 -3.87302 0
M  V30 19129 H 1796.66 0.309161 -3.71616 0
M  V30 19130 N 1798.85 1.47045 -0.567045 0
M  V30 19131 C 1800.12 1.9559 0.0194544 0
M  V30 19132 C 1800.5 1.5097 1.47551 0
M  V30 19133 O 1799.85 0.753072 2.15734 0
M  V30 19134 C 1800.06 3.48734 -0.136263 0
M  V30 19135 C 1801.41 4.246 0.00401745 0
M  V30 19136 O 1802.43 3.56142 -0.0643042 0
M  V30 19137 O 1801.29 5.46287 0.152706 0
M  V30 19138 H 1798.39 0.82492 0.0586233 0
M  V30 19139 H 1800.93 1.57401 -0.634262 0
M  V30 19140 H 1799.71 3.74048 -1.14909 0
M  V30 19141 H 1799.33 3.93713 0.554612 0
M  V30 19142 N 1800.33 0.304 1.5464 0
M  V30 19143 C 1801.26 -0.612836 2.19817 0
M  V30 19144 C 1802.24 -1.13062 1.16858 0
M  V30 19145 O 1803.42 -1.19826 1.45513 0
M  V30 19146 C 1800.55 -1.83881 2.84439 0
M  V30 19147 C 1799.59 -1.454 4.0095 0
M  V30 19148 S 1800.43 -0.507373 5.33091 0
M  V30 19149 C 1801.58 -1.74107 6.01197 0
M  V30 19150 H 1801.82 -0.0591286 2.97241 0
M  V30 19151 H 1799.35 0.0881302 1.54148 0
M  V30 19152 H 1801.31 -2.54235 3.22296 0
M  V30 19153 H 1799.97 -2.36369 2.06854 0
M  V30 19154 H 1799.16 -2.36702 4.44959 0
M  V30 19155 H 1798.76 -0.83037 3.64665 0
M  V30 19156 H 1801.05 -2.68124 6.22186 0
M  V30 19157 H 1802 -1.3435 6.95238 0
M  V30 19158 H 1802.41 -1.91916 5.30875 0
M  V30 19159 N 1801.8 -1.57568 0.0317802 0
M  V30 19160 C 1803.05 -1.93021 -0.641437 0
M  V30 19161 C 1803.4 -0.908815 -1.69583 0
M  V30 19162 O 1802.7 0.0747763 -1.91454 0
M  V30 19163 C 1802.89 -3.32976 -1.29852 0
M  V30 19164 C 1802.72 -4.48635 -0.3093 0
M  V30 19165 C 1801.49 -5.05217 0.0917902 0
M  V30 19166 C 1803.69 -5.12436 0.437482 0
M  V30 19167 N 1801.67 -6.04399 1.0759 0
M  V30 19168 C 1803.04 -6.06743 1.27526 0
M  V30 19169 C 1805.1 -4.95404 0.497895 0
M  V30 19170 C 1803.8 -6.8585 2.16801 0
M  V30 19171 C 1805.83 -5.75122 1.37799 0
M  V30 19172 C 1805.19 -6.69047 2.20354 0
M  V30 19173 H 1801.29 -0.754119 -0.206951 0
M  V30 19174 H 1803.87 -1.94445 0.0995777 0
M  V30 19175 H 1802.04 -3.32366 -2.00966 0
M  V30 19176 H 1803.77 -3.5577 -1.92898 0
M  V30 19177 H 1800.53 -4.72752 -0.283202 0
M  V30 19178 H 1800.95 -6.5868 1.56427 0
M  V30 19179 H 1805.59 -4.22612 -0.126117 0
M  V30 19180 H 1803.31 -7.57946 2.80256 0
M  V30 19181 H 1806.9 -5.63976 1.42906 0
M  V30 19182 H 1805.78 -7.29656 2.87352 0
M  V30 19183 N 1803.28 0.241399 -1.5574 0
M  V30 19184 C 1804.51 0.99028 -1.82231 0
M  V30 19185 C 1804.93 1.77949 -0.609559 0
M  V30 19186 O 1804.29 1.75843 0.44148 0
M  V30 19187 C 1804.34 1.89947 -3.06516 0
M  V30 19188 O 1803.44 2.99201 -2.83818 0
M  V30 19189 H 1802.78 0.281488 -0.601382 0
M  V30 19190 H 1805.31 0.260721 -2.02932 0
M  V30 19191 H 1805.32 2.31308 -3.36096 0
M  V30 19192 H 1804 1.31924 -3.94422 0
M  V30 19193 H 1802.58 2.61929 -2.6542 0
M  V30 19194 N 1804.76 1.49212 0.507292 0
M  V30 19195 C 1806.01 1.58381 1.26181 0
M  V30 19196 C 1806.34 0.267704 1.92649 0
M  V30 19197 O 1805.59 -0.743892 1.8101 0
M  V30 19198 C 1805.89 2.68761 2.35589 0
M  V30 19199 C 1805.56 4.10467 1.86622 0
M  V30 19200 C 1804.22 4.49031 1.72986 0
M  V30 19201 C 1806.57 4.99179 1.49898 0
M  V30 19202 C 1803.9 5.74088 1.20995 0
M  V30 19203 C 1806.25 6.24748 0.993611 0
M  V30 19204 C 1804.91 6.62148 0.8436 0
M  V30 19205 H 1804.18 0.579558 0.461729 0
M  V30 19206 H 1806.83 1.83019 0.563581 0
M  V30 19207 H 1805.14 2.3807 3.11175 0
M  V30 19208 H 1806.83 2.73066 2.9366 0
M  V30 19209 H 1803.42 3.80023 1.98193 0
M  V30 19210 H 1807.61 4.70046 1.59282 0
M  V30 19211 H 1802.86 6.0177 1.08087 0
M  V30 19212 H 1807.04 6.92871 0.700235 0
M  V30 19213 H 1804.66 7.58934 0.43855 0
M  V30 19214 N 1806.24 -0.757876 1.38181 0
M  V30 19215 C 1807.49 -1.51388 1.33888 0
M  V30 19216 C 1807.81 -1.94867 -0.0718767 0
M  V30 19217 O 1807.08 -1.67329 -1.01871 0
M  V30 19218 H 1805.66 -0.561534 0.492634 0
M  V30 19219 H 1808.32 -0.901156 1.72815 0
M  V30 19220 H 1807.42 -2.4068 1.98695 0
M  V30 19221 N 1807.72 -1.22979 -0.985586 0
M  V30 19222 C 1808.96 -1.06033 -1.72872 0
M  V30 19223 C 1809.3 0.402572 -1.89982 0
M  V30 19224 O 1808.57 1.29824 -1.44831 0
M  V30 19225 C 1808.85 -1.78047 -3.13004 0
M  V30 19226 C 1808.71 -3.31979 -3.03497 0
M  V30 19227 C 1810.03 -1.53877 -4.12323 0
M  V30 19228 H 1807.14 -0.386594 -0.627466 0
M  V30 19229 H 1809.79 -1.51416 -1.14775 0
M  V30 19230 H 1807.94 -1.39469 -3.62603 0
M  V30 19231 H 1809.61 -3.80047 -2.61462 0
M  V30 19232 H 1807.85 -3.61279 -2.40125 0
M  V30 19233 H 1808.52 -3.7755 -4.02691 0
M  V30 19234 H 1811 -1.87402 -3.7151 0
M  V30 19235 H 1809.87 -2.06749 -5.08474 0
M  V30 19236 H 1810.14 -0.472972 -4.39563 0
M  V30 19237 N 1809.19 1.18355 -1.04066 0
M  V30 19238 C 1810.44 1.88614 -0.745148 0
M  V30 19239 C 1810.77 1.80147 0.725294 0
M  V30 19240 O 1810.05 1.20177 1.5293 0
M  V30 19241 C 1810.33 3.39095 -1.2119 0
M  V30 19242 C 1810.18 3.56372 -2.74444 0
M  V30 19243 C 1811.5 4.32732 -0.801953 0
M  V30 19244 H 1808.62 0.684905 -0.272166 0
M  V30 19245 H 1811.26 1.39248 -1.29267 0
M  V30 19246 H 1809.41 3.81269 -0.746091 0
M  V30 19247 H 1811.09 3.2329 -3.29061 0
M  V30 19248 H 1809.33 2.99028 -3.14269 0
M  V30 19249 H 1810 4.61956 -3.0216 0
M  V30 19250 H 1812.48 3.98337 -1.20278 0
M  V30 19251 H 1811.35 5.36583 -1.15628 0
M  V30 19252 H 1811.61 4.41115 0.294907 0
M  V30 19253 N 1810.67 0.820125 1.3458 0
M  V30 19254 C 1811.6 0.254709 2.32107 0
M  V30 19255 C 1812.58 -0.6273 1.58111 0
M  V30 19256 O 1813.77 -0.554759 1.86108 0
M  V30 19257 C 1810.9 -0.586541 3.42311 0
M  V30 19258 C 1809.85 0.198096 4.27541 0
M  V30 19259 C 1809.18 -0.765718 5.29189 0
M  V30 19260 C 1810.48 1.40472 5.03056 0
M  V30 19261 H 1812.17 1.06955 2.79644 0
M  V30 19262 H 1809.72 0.515756 1.34447 0
M  V30 19263 H 1811.67 -0.992259 4.09551 0
M  V30 19264 H 1810.4 -1.4344 2.93415 0
M  V30 19265 H 1809.05 0.585149 3.619 0
M  V30 19266 H 1808.7 -1.60946 4.76556 0
M  V30 19267 H 1808.4 -0.244954 5.87089 0
M  V30 19268 H 1809.93 -1.16935 5.99298 0
M  V30 19269 H 1811.34 1.07316 5.63166 0
M  V30 19270 H 1809.74 1.86092 5.70517 0
M  V30 19271 H 1810.81 2.18437 4.32913 0
M  V30 19272 N 1812.15 -1.46743 0.574835 0
M  V30 19273 C 1813.4 -2.03294 0.0658028 0
M  V30 19274 C 1813.75 -1.43929 -1.2768 0
M  V30 19275 O 1813.04 -0.592066 -1.82223 0
M  V30 19276 C 1813.24 -3.57338 -0.0666259 0
M  V30 19277 C 1813.07 -4.31641 1.26159 0
M  V30 19278 C 1811.84 -4.70857 1.83363 0
M  V30 19279 C 1814.04 -4.65673 2.18296 0
M  V30 19280 N 1812.02 -5.29877 3.10006 0
M  V30 19281 C 1813.39 -5.25181 3.29523 0
M  V30 19282 C 1815.44 -4.47603 2.18073 0
M  V30 19283 C 1814.15 -5.68525 4.4065 0
M  V30 19284 C 1816.17 -4.91958 3.28224 0
M  V30 19285 C 1815.53 -5.5153 4.38171 0
M  V30 19286 H 1811.63 -0.779153 0.0666682 0
M  V30 19287 H 1814.22 -1.78999 0.766004 0
M  V30 19288 H 1812.39 -3.81363 -0.73598 0
M  V30 19289 H 1814.12 -4.00532 -0.579326 0
M  V30 19290 H 1810.88 -4.53367 1.3695 0
M  V30 19291 H 1811.3 -5.63915 3.74605 0
M  V30 19292 H 1815.94 -4.00888 1.34345 0
M  V30 19293 H 1813.66 -6.14222 5.25125 0
M  V30 19294 H 1817.25 -4.79734 3.2916 0
M  V30 19295 H 1816.13 -5.85224 5.21998 0
M  V30 19296 N 1813.63 -0.312197 -1.54477 0
M  V30 19297 C 1814.54 0.568096 -2.27618 0
M  V30 19298 C 1815.55 1.13892 -1.31547 0
M  V30 19299 O 1816.73 1.16131 -1.64546 0
M  V30 19300 C 1813.8 1.71843 -3.01116 0
M  V30 19301 C 1812.86 1.18056 -4.12748 0
M  V30 19302 C 1812.09 2.27607 -4.82733 0
M  V30 19303 O 1812.31 3.4773 -4.52151 0
M  V30 19304 O 1811.25 1.93667 -5.69892 0
M  V30 19305 H 1815.07 -0.0255513 -3.03689 0
M  V30 19306 H 1812.66 -0.0782698 -1.49195 0
M  V30 19307 H 1814.54 2.38839 -3.4718 0
M  V30 19308 H 1813.21 2.29847 -2.2793 0
M  V30 19309 H 1812.12 0.476007 -3.71059 0
M  V30 19310 H 1813.45 0.645802 -4.87945 0
M  V30 19311 N 1815.11 1.57549 -0.040136 0
M  V30 19312 C 1816.36 1.91427 0.635496 0
M  V30 19313 C 1816.67 0.919277 1.72652 0
M  V30 19314 O 1817.87 1.14971 2.45955 0
M  V30 19315 C 1816.33 3.39949 1.18164 0
M  V30 19316 C 1815.94 4.4783 0.12332 0
M  V30 19317 C 1817.68 3.82878 1.83315 0
M  V30 19318 C 1815.59 5.87458 0.681727 0
M  V30 19319 H 1814.52 0.714401 0.241138 0
M  V30 19320 H 1817.17 1.83186 -0.107231 0
M  V30 19321 H 1815.55 3.43157 1.97633 0
M  V30 19322 H 1816.73 4.56197 -0.64972 0
M  V30 19323 H 1815.04 4.14173 -0.43008 0
M  V30 19324 H 1817.64 4.84558 2.2607 0
M  V30 19325 H 1817.98 3.1853 2.68038 0
M  V30 19326 H 1818.51 3.82139 1.10519 0
M  V30 19327 H 1815.25 6.55376 -0.127616 0
M  V30 19328 H 1814.77 5.82675 1.423 0
M  V30 19329 H 1816.45 6.36369 1.16806 0
M  V30 19330 N 1816.58 -0.233136 1.55866 0
M  V30 19331 C 1817.81 -0.976415 1.82411 0
M  V30 19332 C 1818.23 -1.78409 0.617724 0
M  V30 19333 O 1817.58 -1.77749 -0.413709 0
M  V30 19334 C 1817.64 -1.90328 3.07339 0
M  V30 19335 O 1817.36 -1.12828 4.23322 0
M  V30 19336 C 1818.86 -2.76142 3.46786 0
M  V30 19337 H 1816.08 -0.2867 0.606666 0
M  V30 19338 H 1818.62 -0.251863 2.02943 0
M  V30 19339 H 1816.78 -2.58193 2.88816 0
M  V30 19340 H 1817.19 -1.75643 4.94216 0
M  V30 19341 H 1818.66 -3.36901 4.37266 0
M  V30 19342 H 1819.14 -3.47953 2.68003 0
M  V30 19343 H 1819.75 -2.13708 3.67708 0
M  V30 19344 N 1818.06 -1.49479 -0.499372 0
M  V30 19345 C 1819.29 -1.63025 -1.28209 0
M  V30 19346 C 1819.71 -0.302238 -1.85656 0
M  V30 19347 O 1819.07 0.730355 -1.65938 0
M  V30 19348 C 1819.12 -2.70287 -2.38699 0
M  V30 19349 O 1818.22 -2.29573 -3.42593 0
M  V30 19350 H 1817.56 -0.545605 -0.378432 0
M  V30 19351 H 1820.09 -1.95677 -0.597628 0
M  V30 19352 H 1820.1 -2.92505 -2.84438 0
M  V30 19353 H 1818.78 -3.66684 -1.96253 0
M  V30 19354 H 1817.36 -2.17692 -3.02761 0
M  V30 19355 N 1819.54 0.750537 -1.38581 0
M  V30 19356 C 1820.47 1.87785 -1.38777 0
M  V30 19357 C 1821.45 1.68204 -0.253244 0
M  V30 19358 O 1822.64 1.88752 -0.456779 0
M  V30 19359 C 1819.77 3.2535 -1.21511 0
M  V30 19360 C 1818.72 3.59538 -2.32199 0
M  V30 19361 C 1818.05 4.95873 -2.00036 0
M  V30 19362 C 1819.35 3.64102 -3.74469 0
M  V30 19363 H 1821.04 1.87879 -2.33113 0
M  V30 19364 H 1818.59 0.902504 -1.12209 0
M  V30 19365 H 1820.54 4.03872 -1.20272 0
M  V30 19366 H 1819.26 3.25744 -0.236366 0
M  V30 19367 H 1817.92 2.83336 -2.32629 0
M  V30 19368 H 1817.57 4.9283 -1.00638 0
M  V30 19369 H 1817.27 5.19716 -2.7417 0
M  V30 19370 H 1818.8 5.7677 -2.00421 0
M  V30 19371 H 1820.21 4.32731 -3.76054 0
M  V30 19372 H 1818.61 3.99455 -4.47834 0
M  V30 19373 H 1819.68 2.64259 -4.06565 0
M  V30 19374 N 1821.02 1.235 0.979051 0
M  V30 19375 C 1821.98 1.01854 2.05325 0
M  V30 19376 C 1822.98 -0.0201133 1.60787 0
M  V30 19377 O 1824.17 0.219761 1.72808 0
M  V30 19378 C 1821.3 0.541404 3.36573 0
M  V30 19379 H 1822.5 1.97183 2.25962 0
M  V30 19380 H 1820.05 1.05563 1.15265 0
M  V30 19381 H 1820.79 -0.415607 3.21626 0
M  V30 19382 H 1820.57 1.29092 3.7024 0
M  V30 19383 H 1822.06 0.410635 4.15576 0
M  V30 19384 N 1822.5 -1.17802 1.04693 0
M  V30 19385 C 1823.41 -2.25298 0.654072 0
M  V30 19386 C 1824.42 -1.70984 -0.32255 0
M  V30 19387 O 1825.6 -2.0063 -0.175904 0
M  V30 19388 C 1822.66 -3.46687 0.0296345 0
M  V30 19389 C 1821.73 -4.16108 1.05606 0
M  V30 19390 C 1820.96 -5.31702 0.461329 0
M  V30 19391 O 1821.18 -5.65701 -0.730679 0
M  V30 19392 O 1820.12 -5.89956 1.19312 0
M  V30 19393 H 1823.94 -2.61179 1.54982 0
M  V30 19394 H 1821.53 -1.25005 0.818182 0
M  V30 19395 H 1823.41 -4.20201 -0.317654 0
M  V30 19396 H 1822.08 -3.12615 -0.839839 0
M  V30 19397 H 1820.99 -3.44635 1.45526 0
M  V30 19398 H 1822.32 -4.54195 1.89651 0
M  V30 19399 N 1823.98 -0.827251 -1.34143 0
M  V30 19400 C 1824.91 -0.209663 -2.28239 0
M  V30 19401 C 1825.92 0.602945 -1.51223 0
M  V30 19402 O 1827.11 0.431917 -1.73196 0
M  V30 19403 C 1824.21 0.724345 -3.31069 0
M  V30 19404 C 1823.38 -0.0463812 -4.37375 0
M  V30 19405 C 1822.44 0.809208 -5.19941 0
M  V30 19406 O 1821.47 0.252619 -5.68639 0
M  V30 19407 N 1822.67 2.12835 -5.40075 0
M  V30 19408 H 1825.43 -1.0181 -2.81877 0
M  V30 19409 H 1823 -0.684618 -1.46713 0
M  V30 19410 H 1824.99 1.30143 -3.83204 0
M  V30 19411 H 1823.56 1.43352 -2.77793 0
M  V30 19412 H 1822.78 -0.804793 -3.85897 0
M  V30 19413 H 1824.07 -0.576775 -5.0552 0
M  V30 19414 H 1823.46 2.60423 -5.02191 0
M  V30 19415 H 1822.02 2.65419 -5.95312 0
M  V30 19416 N 1825.45 1.46436 -0.582609 0
M  V30 19417 C 1826.86 1.86047 -0.156012 0
M  V30 19418 C 1827.22 1.48619 1.28089 0
M  V30 19419 O 1826.34 0.90104 1.96749 0
M  V30 19420 C 1826.94 3.37671 -0.276358 0
M  V30 19421 C 1825.49 3.76279 0.0953682 0
M  V30 19422 C 1824.64 2.70454 -0.612348 0
M  V30 19423 H 1827.59 1.37592 -0.790834 0
M  V30 19424 H 1827.61 3.77223 0.498312 0
M  V30 19425 H 1827.13 3.64881 -1.32225 0
M  V30 19426 H 1825.23 3.54687 1.1414 0
M  V30 19427 H 1825.34 4.78276 -0.280881 0
M  V30 19428 H 1823.7 2.54646 -0.0526182 0
M  V30 19429 H 1824.49 3.00504 -1.65989 0
M  V30 19430 N 1826.93 0.320385 1.54309 0
M  V30 19431 C 1828.16 -0.284784 2.04628 0
M  V30 19432 C 1828.57 -1.46578 1.1963 0
M  V30 19433 O 1827.91 -1.8239 0.219023 0
M  V30 19434 C 1827.97 -0.785529 3.50813 0
M  V30 19435 C 1827.64 0.272743 4.56185 0
M  V30 19436 C 1828.64 1.10775 5.07961 0
M  V30 19437 C 1826.32 0.420018 5.00541 0
M  V30 19438 C 1828.31 2.0758 6.02652 0
M  V30 19439 C 1826 1.39148 5.95047 0
M  V30 19440 C 1827 2.21784 6.45988 0
M  V30 19441 O 1826.69 3.17281 7.38639 0
M  V30 19442 H 1826.42 -0.0629681 0.673061 0
M  V30 19443 H 1828.97 0.463698 2.00097 0
M  V30 19444 H 1827.2 -1.58487 3.52731 0
M  V30 19445 H 1828.89 -1.3087 3.84224 0
M  V30 19446 H 1829.66 1.00494 4.74474 0
M  V30 19447 H 1825.54 -0.21329 4.60506 0
M  V30 19448 H 1829.08 2.72119 6.42337 0
M  V30 19449 H 1824.98 1.49494 6.2795 0
M  V30 19450 H 1825.75 3.12483 7.56503 0
M  V30 19451 N 1828.41 -1.57525 0.0484906 0
M  V30 19452 C 1829.34 -2.08313 -0.955941 0
M  V30 19453 C 1830.35 -1.01042 -1.2765 0
M  V30 19454 O 1831.54 -1.28615 -1.23776 0
M  V30 19455 C 1828.64 -2.509 -2.27821 0
M  V30 19456 C 1827.82 -3.81476 -2.13997 0
M  V30 19457 C 1826.88 -4.10404 -3.29325 0
M  V30 19458 O 1825.9 -4.80366 -3.05348 0
M  V30 19459 N 1827.1 -3.62104 -4.53719 0
M  V30 19460 H 1829.87 -2.95111 -0.522472 0
M  V30 19461 H 1827.43 -1.61312 -0.137816 0
M  V30 19462 H 1829.42 -2.6733 -3.03837 0
M  V30 19463 H 1827.99 -1.69365 -2.62744 0
M  V30 19464 H 1827.21 -3.74654 -1.22589 0
M  V30 19465 H 1828.5 -4.6699 -2.01985 0
M  V30 19466 H 1827.9 -3.05541 -4.7609 0
M  V30 19467 H 1826.45 -3.83778 -5.26838 0
M  V30 19468 N 1829.89 0.224867 -1.55988 0
M  V30 19469 C 1831.14 0.947871 -1.78493 0
M  V30 19470 C 1831.46 1.85001 -0.616413 0
M  V30 19471 O 1830.73 1.92435 0.366847 0
M  V30 19472 H 1829.31 0.352987 -0.658338 0
M  V30 19473 H 1831.97 0.237519 -1.93447 0
M  V30 19474 H 1831.06 1.55664 -2.70509 0
M  V30 19475 N 1831.37 1.49742 0.491438 0
M  V30 19476 C 1832.3 1.70033 1.60034 0
M  V30 19477 C 1833.28 0.549076 1.60994 0
M  V30 19478 O 1834.46 0.785983 1.77584 0
M  V30 19479 C 1831.59 1.7757 2.98473 0
M  V30 19480 C 1830.55 2.9258 3.12379 0
M  V30 19481 C 1829.87 2.85239 4.52264 0
M  V30 19482 C 1831.17 4.33385 2.91504 0
M  V30 19483 H 1832.87 2.62875 1.43307 0
M  V30 19484 H 1830.41 1.26502 0.687989 0
M  V30 19485 H 1832.36 1.90351 3.75958 0
M  V30 19486 H 1831.09 0.813343 3.1631 0
M  V30 19487 H 1829.75 2.79417 2.37322 0
M  V30 19488 H 1829.4 1.86892 4.66991 0
M  V30 19489 H 1829.1 3.62437 4.62508 0
M  V30 19490 H 1830.62 3.00041 5.31797 0
M  V30 19491 H 1832.03 4.4718 3.58752 0
M  V30 19492 H 1830.43 5.11878 3.13211 0
M  V30 19493 H 1831.5 4.47166 1.87539 0
M  V30 19494 N 1832.84 -0.743177 1.38977 0
M  V30 19495 C 1834.07 -1.53753 1.39193 0
M  V30 19496 C 1834.49 -1.88095 -0.0136591 0
M  V30 19497 O 1833.85 -1.51326 -0.998508 0
M  V30 19498 C 1833.9 -2.80679 2.26389 0
M  V30 19499 O 1833 -3.76265 1.68815 0
M  V30 19500 H 1832.35 -0.464639 0.474349 0
M  V30 19501 H 1834.88 -0.917579 1.82871 0
M  V30 19502 H 1834.89 -3.29498 2.40614 0
M  V30 19503 H 1833.56 -2.55014 3.28543 0
M  V30 19504 H 1832.14 -3.35004 1.63788 0
M  V30 19505 N 1834.32 -1.24018 -0.972487 0
M  V30 19506 C 1835.27 -1.02594 -2.08752 0
M  V30 19507 C 1836.26 0.0376128 -1.69358 0
M  V30 19508 O 1837.47 -0.116549 -1.79622 0
M  V30 19509 H 1833.85 -0.314713 -0.682979 0
M  V30 19510 H 1835.82 -1.97163 -2.23985 0
M  V30 19511 C 1834.57 -0.642298 -3.41716 0
M  V30 19512 H 1833.89 -1.45243 -3.72484 0
M  V30 19513 H 1835.33 -0.531964 -4.2065 0
M  V30 19514 C 1833.79 0.650173 -3.30567 0
M  V30 19515 O 1834.32 1.6972 -3.64085 0
M  V30 19516 N 1832.52 0.629085 -2.83709 0
M  V30 19517 H 1832.07 -0.223302 -2.5663 0
M  V30 19518 H 1832.03 1.49407 -2.76631 0
M  V30 19519 N 1835.8 1.17245 -1.05316 0
M  V30 19520 C 1836.71 2.24948 -0.666011 0
M  V30 19521 C 1837.73 1.71153 0.313478 0
M  V30 19522 O 1838.9 2.00721 0.165262 0
M  V30 19523 C 1835.97 3.46667 -0.0480198 0
M  V30 19524 C 1835.03 4.15542 -1.07812 0
M  V30 19525 C 1834.26 5.3145 -0.48952 0
M  V30 19526 O 1834.48 5.6608 0.700668 0
M  V30 19527 O 1833.42 5.89315 -1.22439 0
M  V30 19528 H 1837.24 2.60353 -1.56365 0
M  V30 19529 H 1834.83 1.24569 -0.8248 0
M  V30 19530 H 1836.71 4.20364 0.295366 0
M  V30 19531 H 1835.39 3.13056 0.823248 0
M  V30 19532 H 1834.29 3.43858 -1.47351 0
M  V30 19533 H 1835.63 4.53183 -1.92057 0
M  V30 19534 N 1837.28 0.834353 1.33702 0
M  V30 19535 C 1838.21 0.221764 2.28125 0
M  V30 19536 C 1839.22 -0.594917 1.51541 0
M  V30 19537 O 1840.41 -0.422726 1.73422 0
M  V30 19538 C 1837.51 -0.706778 3.31448 0
M  V30 19539 C 1836.69 0.0695756 4.37345 0
M  V30 19540 C 1835.74 -0.781623 5.20362 0
M  V30 19541 O 1834.77 -0.222459 5.68765 0
M  V30 19542 N 1835.97 -2.09968 5.41197 0
M  V30 19543 H 1838.74 1.03303 2.81333 0
M  V30 19544 H 1836.3 0.692389 1.46348 0
M  V30 19545 H 1838.29 -1.28109 3.83888 0
M  V30 19546 H 1836.86 -1.41877 2.78549 0
M  V30 19547 H 1836.08 0.825247 3.85465 0
M  V30 19548 H 1837.37 0.603576 5.05207 0
M  V30 19549 H 1836.77 -2.57756 5.03565 0
M  V30 19550 H 1835.32 -2.62258 5.96711 0
M  V30 19551 N 1838.76 -1.46125 0.590367 0
M  V30 19552 C 1840 -2.02646 0.0789983 0
M  V30 19553 C 1840.34 -1.45996 -1.28058 0
M  V30 19554 O 1839.61 -0.627981 -1.84083 0
M  V30 19555 C 1839.89 -3.60094 0.0214749 0
M  V30 19556 C 1839.75 -4.27112 1.41049 0
M  V30 19557 C 1841.07 -4.34889 -0.675236 0
M  V30 19558 H 1838.18 -0.736382 0.0301818 0
M  V30 19559 H 1840.83 -1.7418 0.759037 0
M  V30 19560 H 1838.98 -3.84477 -0.557648 0
M  V30 19561 H 1840.65 -4.13969 2.03537 0
M  V30 19562 H 1838.89 -3.86178 1.97607 0
M  V30 19563 H 1839.56 -5.3592 1.32264 0
M  V30 19564 H 1842.04 -4.15697 -0.183176 0
M  V30 19565 H 1840.91 -5.44615 -0.684538 0
M  V30 19566 H 1841.18 -4.06503 -1.73804 0
M  V30 19567 N 1840.23 -0.328564 -1.54137 0
M  V30 19568 C 1841.16 0.527734 -2.27458 0
M  V30 19569 C 1842.15 1.11518 -1.28444 0
M  V30 19570 O 1843.33 1.13938 -1.57264 0
M  V30 19571 C 1840.46 1.68628 -3.03615 0
M  V30 19572 C 1839.41 1.22789 -4.10008 0
M  V30 19573 C 1838.74 2.47378 -4.74034 0
M  V30 19574 C 1840.04 0.339152 -5.21198 0
M  V30 19575 H 1841.73 -0.0838808 -2.99282 0
M  V30 19576 H 1839.28 -0.0417829 -1.43939 0
M  V30 19577 H 1841.23 2.29165 -3.5364 0
M  V30 19578 H 1839.96 2.32456 -2.29416 0
M  V30 19579 H 1838.62 0.645427 -3.60874 0
M  V30 19580 H 1838.26 3.09581 -3.96445 0
M  V30 19581 H 1837.96 2.17396 -5.45905 0
M  V30 19582 H 1839.49 3.08668 -5.26836 0
M  V30 19583 H 1840.9 0.850947 -5.6695 0
M  V30 19584 H 1839.3 0.131892 -5.99955 0
M  V30 19585 H 1840.37 -0.628692 -4.80807 0
M  V30 19586 N 1841.71 1.57497 -0.0568439 0
M  V30 19587 C 1842.66 2.11862 0.915593 0
M  V30 19588 C 1843.63 1.02738 1.30515 0
M  V30 19589 O 1844.81 1.30318 1.39362 0
M  V30 19590 C 1841.95 2.67269 2.18315 0
M  V30 19591 C 1841.07 3.90498 1.84757 0
M  V30 19592 C 1840.2 4.342 3.06013 0
M  V30 19593 C 1839.24 5.50115 2.68403 0
M  V30 19594 N 1838.38 5.88844 3.8237 0
M  V30 19595 H 1843.22 2.94657 0.445101 0
M  V30 19596 H 1840.76 1.45621 0.20807 0
M  V30 19597 H 1842.71 2.97494 2.92494 0
M  V30 19598 H 1841.34 1.87262 2.62931 0
M  V30 19599 H 1840.4 3.66828 1.00703 0
M  V30 19600 H 1841.71 4.7473 1.53077 0
M  V30 19601 H 1840.86 4.66008 3.88486 0
M  V30 19602 H 1839.6 3.4879 3.40876 0
M  V30 19603 H 1838.61 5.17973 1.84348 0
M  V30 19604 H 1839.83 6.37244 2.34726 0
M  V30 19605 H 1837.78 5.06387 4.17024 0
M  V30 19606 H 1837.69 6.67781 3.54407 0
M  V30 19607 H 1838.96 6.25269 4.65466 0
M  V30 19608 N 1843.19 -0.216591 1.56105 0
M  V30 19609 C 1844.44 -0.940249 1.79348 0
M  V30 19610 C 1844.77 -1.84135 0.626451 0
M  V30 19611 O 1844.02 -1.91796 -0.388932 0
M  V30 19612 C 1844.32 -1.80637 3.08391 0
M  V30 19613 C 1843.99 -1.05808 4.3831 0
M  V30 19614 C 1842.65 -0.851392 4.73608 0
M  V30 19615 C 1845 -0.530015 5.18498 0
M  V30 19616 C 1842.33 -0.104822 5.86606 0
M  V30 19617 C 1844.68 0.203236 6.32273 0
M  V30 19618 C 1843.34 0.42113 6.6617 0
M  V30 19619 H 1842.61 -0.344062 0.656279 0
M  V30 19620 H 1845.26 -0.208069 1.90366 0
M  V30 19621 H 1843.57 -2.60656 2.92516 0
M  V30 19622 H 1845.26 -2.36852 3.23577 0
M  V30 19623 H 1841.85 -1.22915 4.10597 0
M  V30 19624 H 1846.04 -0.677154 4.91659 0
M  V30 19625 H 1841.29 0.074177 6.11355 0
M  V30 19626 H 1845.47 0.619898 6.93636 0
M  V30 19627 H 1843.09 1.00155 7.53573 0
M  V30 19628 N 1844.67 -1.5 -0.48349 0
M  V30 19629 C 1845.91 -1.60606 -1.23829 0
M  V30 19630 C 1846.25 -0.299778 -1.91872 0
M  V30 19631 O 1845.52 0.697925 -1.81547 0
M  V30 19632 C 1845.81 -2.77769 -2.29165 0
M  V30 19633 C 1845.66 -4.18243 -1.65507 0
M  V30 19634 C 1846.98 -2.90521 -3.30584 0
M  V30 19635 H 1844.1 -0.584561 -0.44884 0
M  V30 19636 H 1846.74 -1.82346 -0.533855 0
M  V30 19637 H 1844.89 -2.59364 -2.89245 0
M  V30 19638 H 1846.56 -4.48208 -1.09119 0
M  V30 19639 H 1844.8 -4.23077 -0.958577 0
M  V30 19640 H 1845.47 -4.96128 -2.41994 0
M  V30 19641 H 1847.95 -3.0733 -2.80513 0
M  V30 19642 H 1846.83 -3.74146 -4.0163 0
M  V30 19643 H 1847.09 -2.00609 -3.93965 0
M  V30 19644 N 1846.15 0.735796 -1.39369 0
M  V30 19645 C 1847.08 1.85854 -1.32414 0
M  V30 19646 C 1848.06 1.61391 -0.197947 0
M  V30 19647 O 1849.24 1.84666 -0.378263 0
M  V30 19648 C 1846.37 3.2182 -1.05592 0
M  V30 19649 C 1845.41 3.65144 -2.20391 0
M  V30 19650 S 1846.25 3.74604 -3.82664 0
M  V30 19651 C 1847.4 5.13361 -3.58066 0
M  V30 19652 H 1847.64 1.9147 -2.27435 0
M  V30 19653 H 1845.17 0.900577 -1.25415 0
M  V30 19654 H 1847.13 4.00332 -0.908013 0
M  V30 19655 H 1845.79 3.13861 -0.122598 0
M  V30 19656 H 1844.98 4.63813 -1.97214 0
M  V30 19657 H 1844.58 2.93835 -2.3138 0
M  V30 19658 H 1846.88 5.9967 -3.15282 0
M  V30 19659 H 1847.82 5.41566 -4.56193 0
M  V30 19660 H 1848.23 4.83 -2.92184 0
M  V30 19661 N 1847.63 1.24532 0.965897 0
M  V30 19662 C 1848.9 0.994047 1.68458 0
M  V30 19663 C 1849.28 -0.483115 2.05497 0
M  V30 19664 O 1848.63 -1.45784 1.75953 0
M  V30 19665 C 1848.84 1.91872 2.91524 0
M  V30 19666 C 1850.19 2.19066 3.63724 0
M  V30 19667 O 1851.21 1.8954 3.01584 0
M  V30 19668 O 1850.07 2.69217 4.75589 0
M  V30 19669 H 1847.17 0.376083 0.73654 0
M  V30 19670 H 1849.71 1.35638 1.01982 0
M  V30 19671 H 1848.48 2.91665 2.60858 0
M  V30 19672 H 1848.11 1.55966 3.65732 0
M  V30 19673 N 1849.1 -1.16685 1.05936 0
M  V30 19674 C 1850.35 -1.86758 0.772386 0
M  V30 19675 C 1850.67 -1.81885 -0.703051 0
M  V30 19676 O 1849.94 -1.24992 -1.50844 0
M  V30 19677 H 1848.52 -0.69143 0.282725 0
M  V30 19678 H 1851.18 -1.41518 1.3401 0
M  V30 19679 H 1850.28 -2.92296 1.09405 0
M  V30 19680 N 1850.58 -0.841432 -1.33258 0
M  V30 19681 C 1851.83 -0.437512 -1.97307 0
M  V30 19682 C 1852.15 1.00723 -1.66973 0
M  V30 19683 O 1851.42 1.70199 -0.969998 0
M  V30 19684 H 1850 -0.158794 -0.729927 0
M  V30 19685 H 1852.66 -1.07495 -1.62575 0
M  V30 19686 H 1851.76 -0.571675 -3.0682 0
M  V30 19687 N 1852.06 1.4581 -0.598108 0
M  V30 19688 C 1853.29 2.06379 -0.0955533 0
M  V30 19689 C 1853.7 1.44497 1.22137 0
M  V30 19690 O 1853.04 0.549997 1.75273 0
M  V30 19691 C 1853.1 3.59271 0.128433 0
M  V30 19692 C 1852.77 4.43434 -1.10523 0
M  V30 19693 C 1853.76 4.79008 -2.02107 0
M  V30 19694 C 1851.45 4.84334 -1.3314 0
M  V30 19695 C 1853.44 5.54326 -3.14644 0
M  V30 19696 C 1851.13 5.59408 -2.45979 0
M  V30 19697 C 1852.13 5.9432 -3.3656 0
M  V30 19698 O 1851.82 6.67874 -4.47437 0
M  V30 19699 H 1851.55 0.673187 -0.0616108 0
M  V30 19700 H 1854.1 1.88191 -0.823012 0
M  V30 19701 H 1852.33 3.75824 0.910679 0
M  V30 19702 H 1854.02 4.01714 0.581406 0
M  V30 19703 H 1854.79 4.47976 -1.85856 0
M  V30 19704 H 1850.67 4.566 -0.635381 0
M  V30 19705 H 1854.21 5.81495 -3.8537 0
M  V30 19706 H 1850.11 5.89854 -2.62187 0
M  V30 19707 H 1850.87 6.86314 -4.45999 0
M  V30 19708 N 1853.54 0.336733 1.53961 0
M  V30 19709 C 1854.47 -0.515664 2.27735 0
M  V30 19710 C 1855.45 -1.10835 1.29033 0
M  V30 19711 O 1856.63 -1.13102 1.57866 0
M  V30 19712 C 1853.76 -1.67015 3.04505 0
M  V30 19713 C 1852.72 -1.20613 4.10654 0
M  V30 19714 C 1852.04 -2.44861 4.75339 0
M  V30 19715 C 1853.34 -0.311507 5.2137 0
M  V30 19716 H 1855.04 0.0997513 2.99234 0
M  V30 19717 H 1852.58 0.0494157 1.43915 0
M  V30 19718 H 1854.54 -2.27286 3.54851 0
M  V30 19719 H 1853.26 -2.31236 2.30646 0
M  V30 19720 H 1851.92 -0.62628 3.61211 0
M  V30 19721 H 1851.57 -3.07474 3.98081 0
M  V30 19722 H 1851.27 -2.14498 5.47051 0
M  V30 19723 H 1852.79 -3.0587 5.28466 0
M  V30 19724 H 1854.21 -0.820868 5.67393 0
M  V30 19725 H 1852.6 -0.100073 6.00017 0
M  V30 19726 H 1853.67 0.654181 4.80467 0
M  V30 19727 N 1855.02 -1.57465 0.0651956 0
M  V30 19728 C 1856.29 -1.84622 -0.646065 0
M  V30 19729 C 1856.67 -0.956374 -1.88193 0
M  V30 19730 O 1856.02 -0.0209666 -2.2849 0
M  V30 19731 C 1856.23 -3.34664 -0.990013 0
M  V30 19732 C 1857.58 -4.02016 -1.36632 0
M  V30 19733 O 1858.6 -3.39371 -1.08194 0
M  V30 19734 O 1857.46 -5.12496 -1.89764 0
M  V30 19735 H 1854.56 -0.762482 -0.320236 0
M  V30 19736 H 1857.1 -1.6943 0.0956254 0
M  V30 19737 H 1855.87 -3.9114 -0.111977 0
M  V30 19738 H 1855.5 -3.55094 -1.78869 0
M  V30 19739 N 1856.49 0.20831 -1.56217 0
M  V30 19740 C 1857.43 1.28196 -1.89996 0
M  V30 19741 C 1858.44 1.42381 -0.789394 0
M  V30 19742 O 1859.63 1.43043 -1.06776 0
M  V30 19743 C 1856.73 2.65588 -2.10514 0
M  V30 19744 C 1855.9 2.73181 -3.416 0
M  V30 19745 C 1854.96 3.91678 -3.5139 0
M  V30 19746 O 1853.99 3.79397 -4.24319 0
M  V30 19747 N 1855.19 5.06562 -2.83505 0
M  V30 19748 H 1857.95 0.995403 -2.82687 0
M  V30 19749 H 1855.51 0.398294 -1.56924 0
M  V30 19750 H 1857.51 3.43264 -2.14365 0
M  V30 19751 H 1856.08 2.86788 -1.24385 0
M  V30 19752 H 1855.3 1.81881 -3.49733 0
M  V30 19753 H 1856.58 2.75234 -4.27929 0
M  V30 19754 H 1855.98 5.19437 -2.24056 0
M  V30 19755 H 1854.54 5.82232 -2.93 0
M  V30 19756 N 1857.97 1.50255 0.475528 0
M  V30 19757 C 1859.38 1.53931 1.05651 0
M  V30 19758 C 1859.73 0.340226 1.93228 0
M  V30 19759 O 1858.86 -0.547349 2.09363 0
M  V30 19760 C 1859.45 2.78951 1.92281 0
M  V30 19761 C 1858.01 2.85323 2.45495 0
M  V30 19762 C 1857.16 2.48166 1.2373 0
M  V30 19763 H 1860.11 1.56583 0.258332 0
M  V30 19764 H 1860.13 2.60555 2.77293 0
M  V30 19765 H 1859.64 3.66205 1.28514 0
M  V30 19766 H 1857.74 2.0241 3.12827 0
M  V30 19767 H 1857.86 3.88109 2.80906 0
M  V30 19768 H 1856.22 2.00505 1.57066 0
M  V30 19769 H 1857 3.37722 0.616324 0
M  V30 19770 N 1859.45 -0.728395 1.39758 0
M  V30 19771 C 1860.73 -1.48036 1.27846 0
M  V30 19772 C 1861.11 -2.10818 -0.108996 0
M  V30 19773 O 1860.45 -1.99125 -1.12078 0
M  V30 19774 C 1860.66 -2.52644 2.40774 0
M  V30 19775 C 1862.01 -3.1884 2.80404 0
M  V30 19776 O 1863.04 -2.6296 2.40272 0
M  V30 19777 O 1861.9 -4.19971 3.49696 0
M  V30 19778 H 1858.99 -0.657688 0.501374 0
M  V30 19779 H 1861.54 -0.761658 1.51647 0
M  V30 19780 H 1860.31 -2.04678 3.335 0
M  V30 19781 H 1859.93 -3.32066 2.18674 0
M  V30 19782 N 1860.93 -1.25042 -0.959279 0
M  V30 19783 C 1861.88 -1.04802 -2.07652 0
M  V30 19784 C 1862.87 0.019648 -1.69389 0
M  V30 19785 O 1864.08 -0.135594 -1.79489 0
M  V30 19786 H 1860.45 -0.321939 -0.679602 0
M  V30 19787 H 1862.42 -1.99527 -2.21882 0
M  V30 19788 C 1861.17 -0.678505 -3.41016 0
M  V30 19789 H 1860.49 -1.49185 -3.70923 0
M  V30 19790 H 1861.93 -0.576549 -4.20062 0
M  V30 19791 C 1860.39 0.615075 -3.31238 0
M  V30 19792 O 1860.92 1.65848 -3.65865 0
M  V30 19793 N 1859.13 0.598958 -2.8436 0
M  V30 19794 H 1858.68 -0.250509 -2.56379 0
M  V30 19795 H 1858.63 1.46464 -2.78201 0
M  V30 19796 N 1862.41 1.16121 -1.06553 0
M  V30 19797 C 1863.65 1.88387 -0.793066 0
M  V30 19798 C 1864.01 1.79992 0.66835 0
M  V30 19799 O 1865.21 2.47209 1.05552 0
M  V30 19800 C 1863.48 3.33797 -1.27726 0
M  V30 19801 S 1865.04 4.23887 -1.13425 0
M  V30 19802 H 1861.86 0.650229 -0.287616 0
M  V30 19803 H 1864.46 1.40153 -1.36299 0
M  V30 19804 H 1863.17 3.37448 -2.33574 0
M  V30 19805 H 1862.7 3.87082 -0.702203 0
M  V30 19806 H 1864.71 4.96155 -0.0667742 0
M  V30 19807 N 1863.88 0.848487 1.3281 0
M  V30 19808 C 1865.3 0.504307 1.7976 0
M  V30 19809 C 1865.65 -0.977408 1.70121 0
M  V30 19810 O 1864.77 -1.7621 1.25614 0
M  V30 19811 C 1865.37 0.908628 3.26388 0
M  V30 19812 C 1863.93 0.616441 3.71318 0
M  V30 19813 C 1863.07 1.11173 2.54039 0
M  V30 19814 H 1866.02 1.03628 1.20195 0
M  V30 19815 H 1866.04 0.222518 3.79849 0
M  V30 19816 H 1865.56 1.98708 3.33372 0
M  V30 19817 H 1863.66 -0.451545 3.69854 0
M  V30 19818 H 1863.77 1.17841 4.64382 0
M  V30 19819 H 1862.13 0.532227 2.49077 0
M  V30 19820 H 1862.92 2.19716 2.6378 0
M  V30 19821 N 1865.36 -1.4549 0.605832 0
M  V30 19822 C 1866.27 -2.34313 -0.115915 0
M  V30 19823 C 1867.29 -1.51136 -0.862199 0
M  V30 19824 O 1868.46 -1.83943 -0.820181 0
M  V30 19825 C 1865.53 -3.28724 -1.10188 0
M  V30 19826 C 1864.59 -4.27807 -0.357749 0
M  V30 19827 C 1863.82 -5.17707 -1.29675 0
M  V30 19828 O 1864.05 -5.10999 -2.53448 0
M  V30 19829 O 1862.98 -5.9663 -0.794767 0
M  V30 19830 H 1866.81 -2.97429 0.613981 0
M  V30 19831 H 1864.39 -1.44845 0.366103 0
M  V30 19832 H 1866.27 -3.86905 -1.6698 0
M  V30 19833 H 1864.95 -2.68175 -1.81284 0
M  V30 19834 H 1863.86 -3.73246 0.252588 0
M  V30 19835 H 1865.19 -4.91206 0.312682 0
M  V30 19836 N 1866.84 -0.344893 -1.5378 0
M  V30 19837 C 1868.26 0.00698009 -1.59598 0
M  V30 19838 C 1868.46 1.48608 -1.36081 0
M  V30 19839 O 1867.51 2.24498 -1.15573 0
M  V30 19840 C 1868.83 -0.430402 -2.97604 0
M  V30 19841 C 1870.37 -0.38286 -3.1065 0
M  V30 19842 C 1870.85 -0.795731 -4.51035 0
M  V30 19843 N 1872.34 -0.74997 -4.57088 0
M  V30 19844 C 1873.07 -1.04137 -5.63864 0
M  V30 19845 N 1872.57 -1.401 -6.78487 0
M  V30 19846 N 1874.36 -0.965521 -5.53746 0
M  V30 19847 H 1866.51 -1.30834 -1.67321 0
M  V30 19848 H 1868.78 -0.533422 -0.783686 0
M  V30 19849 H 1868.48 -1.46174 -3.19884 0
M  V30 19850 H 1868.36 0.193696 -3.76702 0
M  V30 19851 H 1870.74 0.639311 -2.88092 0
M  V30 19852 H 1870.83 -1.04218 -2.33607 0
M  V30 19853 H 1870.47 -1.81592 -4.74328 0
M  V30 19854 H 1870.4 -0.113876 -5.26477 0
M  V30 19855 H 1872.89 -0.48474 -3.74778 0
M  V30 19856 H 1873.2 -1.60815 -7.55882 0
M  V30 19857 H 1871.55 -1.43946 -6.7993 0
M  V30 19858 H 1874.74 -0.683902 -4.63077 0
M  V30 19859 H 1874.91 -1.19596 -6.36868 0
M  V30 19860 N 1868.32 1.57428 -0.0735454 0
M  V30 19861 C 1869.56 1.93843 0.596054 0
M  V30 19862 C 1869.9 0.953931 1.69156 0
M  V30 19863 O 1869.17 -0.0165729 1.94493 0
M  V30 19864 C 1869.46 3.40516 1.17137 0
M  V30 19865 C 1869.31 4.49725 0.0823861 0
M  V30 19866 C 1870.63 3.88042 2.07634 0
M  V30 19867 H 1867.75 0.70488 0.215204 0
M  V30 19868 H 1870.39 1.89484 -0.139871 0
M  V30 19869 H 1868.54 3.44361 1.79855 0
M  V30 19870 H 1870.21 4.58 -0.55078 0
M  V30 19871 H 1868.45 4.29813 -0.586788 0
M  V30 19872 H 1869.12 5.49494 0.525354 0
M  V30 19873 H 1871.6 3.86214 1.54849 0
M  V30 19874 H 1870.48 4.91277 2.44822 0
M  V30 19875 H 1870.74 3.26084 2.98532 0
M  V30 19876 N 1869.8 -0.200022 1.56326 0
M  V30 19877 C 1871.02 -0.937503 1.84441 0
M  V30 19878 C 1871.44 -1.77058 0.655428 0
M  V30 19879 O 1870.8 -1.78587 -0.375913 0
M  V30 19880 C 1870.85 -1.83766 3.11307 0
M  V30 19881 O 1870.57 -1.03823 4.2562 0
M  V30 19882 C 1872.07 -2.68724 3.52565 0
M  V30 19883 H 1869.29 -0.273767 0.612611 0
M  V30 19884 H 1871.83 -0.208759 2.03432 0
M  V30 19885 H 1869.99 -2.52009 2.94228 0
M  V30 19886 H 1870.4 -1.6512 4.97831 0
M  V30 19887 H 1871.88 -3.2755 4.44314 0
M  V30 19888 H 1872.35 -3.4219 2.75323 0
M  V30 19889 H 1872.96 -2.0586 3.72158 0
M  V30 19890 N 1871.27 -1.50505 -0.467553 0
M  V30 19891 C 1872.55 -1.52191 -1.22871 0
M  V30 19892 C 1872.93 -0.268616 -2.09384 0
M  V30 19893 O 1872.28 0.747802 -2.15917 0
M  V30 19894 C 1872.49 -2.8196 -2.05669 0
M  V30 19895 C 1873.84 -3.32757 -2.63739 0
M  V30 19896 O 1874.86 -2.83305 -2.15909 0
M  V30 19897 O 1873.72 -4.18969 -3.50895 0
M  V30 19898 H 1870.81 -0.610599 -0.557761 0
M  V30 19899 H 1873.36 -1.62797 -0.479085 0
M  V30 19900 H 1872.13 -3.64649 -1.41939 0
M  V30 19901 H 1871.76 -2.74374 -2.87758 0
M  V30 19902 N 1872.75 0.720973 -1.40142 0
M  V30 19903 C 1873.68 1.84799 -1.42729 0
M  V30 19904 C 1874.66 1.67629 -0.288866 0
M  V30 19905 O 1875.85 1.8774 -0.496713 0
M  V30 19906 C 1872.98 3.22699 -1.28385 0
M  V30 19907 C 1871.93 3.54532 -2.39773 0
M  V30 19908 C 1871.26 4.91518 -2.10509 0
M  V30 19909 C 1872.56 3.56077 -3.82108 0
M  V30 19910 H 1874.25 1.82892 -2.37046 0
M  V30 19911 H 1871.8 0.8785 -1.14098 0
M  V30 19912 H 1873.75 4.0123 -1.28812 0
M  V30 19913 H 1872.48 3.25169 -0.305408 0
M  V30 19914 H 1871.13 2.78338 -2.38586 0
M  V30 19915 H 1870.78 4.90584 -1.11069 0
M  V30 19916 H 1870.48 5.13783 -2.85132 0
M  V30 19917 H 1872.01 5.72389 -2.1261 0
M  V30 19918 H 1873.42 4.24657 -3.85148 0
M  V30 19919 H 1871.82 3.89866 -4.56207 0
M  V30 19920 H 1872.89 2.55576 -4.12079 0
M  V30 19921 N 1874.23 1.25549 0.952634 0
M  V30 19922 C 1875.16 1.0043 2.04912 0
M  V30 19923 C 1876.14 -0.0671275 1.62461 0
M  V30 19924 O 1877.33 0.0729397 1.88359 0
M  V30 19925 C 1874.45 0.51855 3.34707 0
M  V30 19926 C 1873.5 1.58081 3.96122 0
M  V30 19927 S 1874.33 3.16656 4.31844 0
M  V30 19928 C 1875.49 2.69821 5.64754 0
M  V30 19929 H 1875.72 1.93272 2.25905 0
M  V30 19930 H 1873.25 1.09102 1.09253 0
M  V30 19931 H 1875.21 0.244941 4.09769 0
M  V30 19932 H 1873.87 -0.389408 3.11677 0
M  V30 19933 H 1873.07 1.19168 4.89709 0
M  V30 19934 H 1872.67 1.8052 3.27549 0
M  V30 19935 H 1874.96 2.13572 6.42957 0
M  V30 19936 H 1875.9 3.62056 6.0854 0
M  V30 19937 H 1876.31 2.09754 5.24084 0
M  V30 19938 N 1875.71 -1.15554 1.07168 0
M  V30 19939 C 1877.12 -1.38284 0.796841 0
M  V30 19940 C 1877.32 -1.92366 -0.599782 0
M  V30 19941 O 1876.38 -2.1282 -1.35883 0
M  V30 19942 C 1877.69 -2.35553 1.8691 0
M  V30 19943 C 1879.24 -2.4922 1.89364 0
M  V30 19944 C 1879.72 -3.49778 2.95668 0
M  V30 19945 N 1881.21 -3.57312 2.94759 0
M  V30 19946 C 1881.94 -4.34934 3.73657 0
M  V30 19947 N 1881.44 -5.15905 4.624 0
M  V30 19948 N 1883.23 -4.30004 3.62012 0
M  V30 19949 H 1875.38 -0.787905 1.97246 0
M  V30 19950 H 1877.65 -0.40896 0.855252 0
M  V30 19951 H 1877.35 -2.02927 2.87252 0
M  V30 19952 H 1877.23 -3.3531 1.72763 0
M  V30 19953 H 1879.61 -2.81145 0.896745 0
M  V30 19954 H 1879.69 -1.49468 2.07589 0
M  V30 19955 H 1879.34 -3.18588 3.95556 0
M  V30 19956 H 1879.27 -4.4928 2.74691 0
M  V30 19957 H 1881.76 -2.99518 2.30429 0
M  V30 19958 H 1882.07 -5.72373 5.19238 0
M  V30 19959 H 1880.42 -5.15218 4.6645 0
M  V30 19960 H 1883.61 -3.65811 2.92061 0
M  V30 19961 H 1883.78 -4.90251 4.23743 0
M  V30 19962 N 1877.19 -0.855519 -1.32358 0
M  V30 19963 C 1878.12 -0.245562 -2.26875 0
M  V30 19964 C 1879.1 0.616957 -1.50441 0
M  V30 19965 O 1880.28 0.573569 -1.79562 0
M  V30 19966 C 1877.41 0.653572 -3.32334 0
M  V30 19967 C 1876.46 -0.135677 -4.26284 0
M  V30 19968 S 1877.29 -1.50466 -5.13926 0
M  V30 19969 C 1878.44 -0.611261 -6.22908 0
M  V30 19970 H 1878.68 -1.0468 -2.78261 0
M  V30 19971 H 1876.21 -0.653201 -1.39902 0
M  V30 19972 H 1878.17 1.16668 -3.93572 0
M  V30 19973 H 1876.83 1.42863 -2.7973 0
M  V30 19974 H 1876.02 0.549189 -5.00999 0
M  V30 19975 H 1875.62 -0.580401 -3.69469 0
M  V30 19976 H 1877.92 0.184141 -6.7725 0
M  V30 19977 H 1878.86 -1.32908 -6.95515 0
M  V30 19978 H 1879.27 -0.185219 -5.64196 0
M  V30 19979 N 1878.67 1.45167 -0.61354 0
M  V30 19980 C 1879.91 2.04081 -0.114146 0
M  V30 19981 C 1880.27 1.47081 1.23414 0
M  V30 19982 O 1881.47 1.97386 1.82461 0
M  V30 19983 C 1879.74 3.57307 -0.0817425 0
M  V30 19984 S 1881.3 4.37357 0.355593 0
M  V30 19985 H 1878.12 0.709061 -0.0524763 0
M  V30 19986 H 1880.72 1.77795 -0.81298 0
M  V30 19987 H 1879.42 3.96302 -1.06645 0
M  V30 19988 H 1878.96 3.88177 0.638898 0
M  V30 19989 H 1880.97 4.69566 1.6038 0
M  V30 19990 N 1880.14 0.353044 1.53595 0
M  V30 19991 C 1881.39 -0.233537 2.02055 0
M  V30 19992 C 1881.74 -1.47437 1.23613 0
M  V30 19993 O 1881.04 -1.88943 0.317969 0
M  V30 19994 C 1881.23 -0.590811 3.52483 0
M  V30 19995 C 1881.06 0.613851 4.45491 0
M  V30 19996 C 1879.83 1.12208 4.92684 0
M  V30 19997 C 1882.03 1.47523 4.92688 0
M  V30 19998 N 1880.01 2.28808 5.69667 0
M  V30 19999 C 1881.38 2.48803 5.67888 0
M  V30 20000 C 1883.44 1.49957 4.74781 0
M  V30 20001 C 1882.14 3.52357 6.27086 0
M  V30 20002 C 1884.17 2.52398 5.34836 0
M  V30 20003 C 1883.53 3.52402 6.09912 0
M  V30 20004 H 1879.63 -0.0485078 0.780494 0
M  V30 20005 H 1882.21 0.494757 1.88309 0
M  V30 20006 H 1880.38 -1.2882 3.66415 0
M  V30 20007 H 1882.11 -1.1614 3.87677 0
M  V30 20008 H 1878.87 0.688673 4.68566 0
M  V30 20009 H 1879.29 2.87705 6.12825 0
M  V30 20010 H 1883.93 0.74 4.16274 0
M  V30 20011 H 1881.65 4.29203 6.84697 0
M  V30 20012 H 1885.24 2.5512 5.22882 0
M  V30 20013 H 1884.12 4.3037 6.55554 0
M  V30 20014 N 1881.62 -1.57387 0.0818932 0
M  V30 20015 C 1882.55 -2.10294 -0.911539 0
M  V30 20016 C 1883.57 -1.03726 -1.25478 0
M  V30 20017 O 1884.76 -1.31212 -1.2102 0
M  V30 20018 C 1881.86 -2.55676 -2.22448 0
M  V30 20019 C 1881.03 -3.8593 -2.05857 0
M  V30 20020 C 1880.09 -4.17297 -3.20545 0
M  V30 20021 O 1879.11 -4.86734 -2.9509 0
M  V30 20022 N 1880.32 -3.71647 -4.45936 0
M  V30 20023 H 1883.08 -2.96153 -0.459757 0
M  V30 20024 H 1880.64 -1.61568 -0.103568 0
M  V30 20025 H 1882.63 -2.73715 -2.98098 0
M  V30 20026 H 1881.2 -1.749 -2.59092 0
M  V30 20027 H 1880.42 -3.7717 -1.14615 0
M  V30 20028 H 1881.71 -4.71169 -1.92034 0
M  V30 20029 H 1881.11 -3.15571 -4.69501 0
M  V30 20030 H 1879.67 -3.94866 -5.18579 0
M  V30 20031 N 1883.1 0.191729 -1.56429 0
M  V30 20032 C 1884.35 0.911598 -1.80821 0
M  V30 20033 C 1884.67 1.83115 -0.655667 0
M  V30 20034 O 1883.93 1.92391 0.35837 0
M  V30 20035 C 1884.23 1.75708 -3.11226 0
M  V30 20036 C 1883.89 0.988211 -4.39938 0
M  V30 20037 C 1882.56 0.775937 -4.74903 0
M  V30 20038 C 1884.91 0.447459 -5.19276 0
M  V30 20039 C 1882.24 0.0114851 -5.86699 0
M  V30 20040 C 1884.59 -0.303799 -6.3187 0
M  V30 20041 C 1883.25 -0.527059 -6.65416 0
M  V30 20042 H 1882.52 0.333577 -0.66167 0
M  V30 20043 H 1885.17 0.177758 -1.90673 0
M  V30 20044 H 1883.47 2.5597 -2.96626 0
M  V30 20045 H 1885.17 2.31674 -3.27304 0
M  V30 20046 H 1881.76 1.16368 -4.125 0
M  V30 20047 H 1885.95 0.59885 -4.92674 0
M  V30 20048 H 1881.2 -0.171429 -6.1116 0
M  V30 20049 H 1885.38 -0.730171 -6.92562 0
M  V30 20050 H 1883 -1.12131 -7.51885 0
M  V30 20051 N 1884.58 1.50751 0.459565 0
M  V30 20052 C 1885.53 1.70997 1.57679 0
M  V30 20053 C 1886.52 0.575925 1.59309 0
M  V30 20054 O 1887.73 0.756735 1.6332 0
M  V30 20055 H 1884.1 0.539921 0.52344 0
M  V30 20056 H 1886.07 2.64693 1.37769 0
M  V30 20057 C 1884.82 1.83187 2.9553 0
M  V30 20058 H 1884.14 2.69844 2.94998 0
M  V30 20059 H 1885.58 2.01374 3.73128 0
M  V30 20060 C 1884.04 0.586222 3.31761 0
M  V30 20061 O 1884.57 -0.269358 4.00796 0
M  V30 20062 N 1882.78 0.436839 2.87298 0
M  V30 20063 H 1882.33 1.13413 2.31291 0
M  V30 20064 H 1882.28 -0.395424 3.11903 0
M  V30 20065 N 1886.06 -0.713531 1.40522 0
M  V30 20066 C 1887.47 -1.29276 1.34702 0
M  V30 20067 C 1887.82 -1.96188 0.0214862 0
M  V30 20068 O 1886.94 -1.97676 -0.880513 0
M  V30 20069 C 1887.54 -2.35082 2.43971 0
M  V30 20070 C 1886.1 -2.88624 2.41605 0
M  V30 20071 C 1885.24 -1.62437 2.24743 0
M  V30 20072 H 1888.19 -0.509517 1.50298 0
M  V30 20073 H 1888.22 -3.15971 2.11996 0
M  V30 20074 H 1887.73 -1.86353 3.40432 0
M  V30 20075 H 1885.83 -3.41578 1.48847 0
M  V30 20076 H 1885.94 -3.40278 3.37265 0
M  V30 20077 H 1884.31 -1.8758 1.72296 0
M  V30 20078 H 1885.09 -1.1573 3.23205 0
M  V30 20079 N 1887.53 -1.26053 -0.945962 0
M  V30 20080 C 1888.48 -1.07194 -2.04397 0
M  V30 20081 C 1889.45 0.0215796 -1.66086 0
M  V30 20082 O 1890.64 -0.137272 -1.90306 0
M  V30 20083 C 1887.78 -0.705915 -3.37803 0
M  V30 20084 C 1886.89 -1.87519 -3.89179 0
M  V30 20085 C 1886.02 -1.45272 -5.1095 0
M  V30 20086 C 1885.06 -2.59059 -5.54576 0
M  V30 20087 N 1884.2 -2.17527 -6.67552 0
M  V30 20088 H 1889.04 -2.01159 -2.19861 0
M  V30 20089 H 1886.58 -1.00162 -1.07731 0
M  V30 20090 H 1888.53 -0.474611 -4.14492 0
M  V30 20091 H 1887.16 0.196761 -3.222 0
M  V30 20092 H 1886.22 -2.21956 -3.08933 0
M  V30 20093 H 1887.53 -2.7294 -4.17499 0
M  V30 20094 H 1886.68 -1.18158 -5.95083 0
M  V30 20095 H 1885.42 -0.569345 -4.84365 0
M  V30 20096 H 1884.43 -2.86908 -4.69003 0
M  V30 20097 H 1885.65 -3.47989 -5.83164 0
M  V30 20098 H 1883.6 -1.31618 -6.42661 0
M  V30 20099 H 1883.51 -2.96493 -6.95433 0
M  V30 20100 H 1884.78 -1.93612 -7.55073 0
M  V30 20101 N 1889.01 1.14984 -1.07779 0
M  V30 20102 C 1889.94 2.18862 -0.64612 0
M  V30 20103 C 1890.92 1.5903 0.338854 0
M  V30 20104 O 1892.11 1.86911 0.244241 0
M  V30 20105 C 1889.23 3.38662 0.0505862 0
M  V30 20106 C 1888.28 4.17035 -0.893519 0
M  V30 20107 S 1889.11 4.78866 -2.39682 0
M  V30 20108 C 1890.27 6.0203 -1.71204 0
M  V30 20109 H 1890.5 2.5514 -1.52614 0
M  V30 20110 H 1888.03 1.26015 -0.892165 0
M  V30 20111 H 1889.99 4.08067 0.446298 0
M  V30 20112 H 1888.65 3.00719 0.907009 0
M  V30 20113 H 1887.85 5.02763 -0.352834 0
M  V30 20114 H 1887.45 3.53202 -1.22982 0
M  V30 20115 H 1889.74 6.69682 -1.02627 0
M  V30 20116 H 1890.68 6.60675 -2.54781 0
M  V30 20117 H 1891.09 5.51854 -1.18815 0
M  V30 20118 N 1890.49 0.862526 1.31902 0
M  V30 20119 C 1891.91 0.553438 1.49697 0
M  V30 20120 C 1892.11 -0.914146 1.79571 0
M  V30 20121 O 1891.16 -1.69675 1.86994 0
M  V30 20122 C 1892.47 1.44722 2.63583 0
M  V30 20123 C 1894.02 1.44848 2.77467 0
M  V30 20124 C 1894.5 2.32766 3.94441 0
M  V30 20125 N 1895.99 2.30605 4.01716 0
M  V30 20126 C 1896.72 2.95356 4.9148 0
M  V30 20127 N 1896.22 3.6925 5.86197 0
M  V30 20128 N 1898.01 2.84703 4.84665 0
M  V30 20129 H 1890.16 1.81223 1.10779 0
M  V30 20130 H 1892.43 0.774478 0.546706 0
M  V30 20131 H 1892.13 2.49117 2.48261 0
M  V30 20132 H 1892.01 1.14033 3.5955 0
M  V30 20133 H 1894.39 0.412143 2.92208 0
M  V30 20134 H 1894.47 1.79557 1.8219 0
M  V30 20135 H 1894.12 3.36472 3.80459 0
M  V30 20136 H 1894.05 1.95386 4.89011 0
M  V30 20137 H 1896.54 1.76889 3.33944 0
M  V30 20138 H 1896.85 4.15804 6.51404 0
M  V30 20139 H 1895.2 3.73358 5.86199 0
M  V30 20140 H 1898.39 2.2652 4.09642 0
M  V30 20141 H 1898.56 3.35447 5.54418 0
M  V30 20142 N 1891.97 -1.4484 0.62123 0
M  V30 20143 C 1893.38 -1.85568 0.205284 0
M  V30 20144 C 1893.73 -1.51963 -1.24104 0
M  V30 20145 O 1892.86 -0.952887 -1.94291 0
M  V30 20146 C 1893.45 -3.3682 0.365788 0
M  V30 20147 C 1892.01 -3.764 0.00442911 0
M  V30 20148 C 1891.16 -2.68736 0.683839 0
M  V30 20149 H 1894.11 -1.35447 0.827036 0
M  V30 20150 H 1894.13 -3.78411 -0.398123 0
M  V30 20151 H 1893.64 -3.61247 1.41853 0
M  V30 20152 H 1891.74 -3.57588 -1.04696 0
M  V30 20153 H 1891.85 -4.77363 0.407588 0
M  V30 20154 H 1890.22 -2.54417 0.120114 0
M  V30 20155 H 1891 -2.95997 1.73898 0
M  V30 20156 N 1893.45 -0.361184 -1.53405 0
M  V30 20157 C 1894.67 0.230765 -2.05609 0
M  V30 20158 C 1895.09 1.42805 -1.23499 0
M  V30 20159 O 1894.45 1.80423 -0.274582 0
M  V30 20160 C 1894.5 0.628571 -3.55993 0
M  V30 20161 O 1894.22 -0.521123 -4.3499 0
M  V30 20162 C 1895.72 1.27938 -4.24437 0
M  V30 20163 H 1892.94 0.0414193 -0.66972 0
M  V30 20164 H 1895.48 -0.518281 -1.97823 0
M  V30 20165 H 1893.64 1.32754 -3.63944 0
M  V30 20166 H 1894.05 -0.200483 -5.24117 0
M  V30 20167 H 1895.53 1.50832 -5.30993 0
M  V30 20168 H 1896 2.23834 -3.77882 0
M  V30 20169 H 1896.61 0.621961 -4.20728 0
M  V30 20170 N 1894.92 1.57341 -0.0902386 0
M  V30 20171 C 1896.17 1.94176 0.574609 0
M  V30 20172 C 1896.5 0.971636 1.68492 0
M  V30 20173 O 1895.75 -0.00961728 1.95698 0
M  V30 20174 C 1896.05 3.37566 1.17404 0
M  V30 20175 C 1895.72 4.50508 0.188019 0
M  V30 20176 C 1894.38 4.81128 -0.0831922 0
M  V30 20177 C 1896.73 5.18934 -0.485519 0
M  V30 20178 C 1894.06 5.77504 -1.03472 0
M  V30 20179 C 1896.41 6.1633 -1.42548 0
M  V30 20180 C 1895.08 6.45358 -1.70498 0
M  V30 20181 H 1894.35 0.710542 0.210264 0
M  V30 20182 H 1896.99 1.90788 -0.165039 0
M  V30 20183 H 1895.3 3.3751 1.98984 0
M  V30 20184 H 1897 3.63365 1.69607 0
M  V30 20185 H 1893.59 4.26638 0.40959 0
M  V30 20186 H 1897.77 4.95457 -0.289126 0
M  V30 20187 H 1893.03 5.98311 -1.25831 0
M  V30 20188 H 1897.2 6.68447 -1.95323 0
M  V30 20189 H 1894.83 7.19846 -2.44387 0
M  V30 20190 N 1896.4 -0.183431 1.56529 0
M  V30 20191 C 1897.33 -1.22973 1.98494 0
M  V30 20192 C 1898.31 -1.46837 0.858653 0
M  V30 20193 O 1899.5 -1.58377 1.12385 0
M  V30 20194 C 1896.63 -2.57138 2.33446 0
M  V30 20195 C 1895.58 -2.47865 3.48922 0
M  V30 20196 C 1894.91 -3.8641 3.69582 0
M  V30 20197 C 1896.21 -1.99371 4.82751 0
M  V30 20198 H 1897.9 -0.880938 2.86147 0
M  V30 20199 H 1895.45 -0.422321 1.37668 0
M  V30 20200 H 1897.4 -3.30527 2.614 0
M  V30 20201 H 1896.13 -2.93781 1.42689 0
M  V30 20202 H 1894.78 -1.76932 3.21077 0
M  V30 20203 H 1894.43 -4.20426 2.76136 0
M  V30 20204 H 1894.13 -3.81077 4.47274 0
M  V30 20205 H 1895.66 -4.61403 3.99924 0
M  V30 20206 H 1897.07 -2.62526 5.0966 0
M  V30 20207 H 1895.47 -2.05014 5.63994 0
M  V30 20208 H 1896.54 -0.947442 4.75554 0
M  V30 20209 N 1897.88 -1.50992 -0.451564 0
M  V30 20210 C 1898.79 -1.74097 -1.5725 0
M  V30 20211 C 1899.81 -0.624663 -1.62401 0
M  V30 20212 O 1900.98 -0.90528 -1.79907 0
M  V30 20213 C 1898.05 -1.84808 -2.93338 0
M  V30 20214 C 1897.11 -3.08618 -2.98418 0
M  V30 20215 C 1896.34 -3.18808 -4.28015 0
M  V30 20216 O 1896.56 -2.35291 -5.1961 0
M  V30 20217 O 1895.5 -4.11685 -4.39089 0
M  V30 20218 H 1899.32 -2.69156 -1.40673 0
M  V30 20219 H 1896.91 -1.35322 -0.633105 0
M  V30 20220 H 1898.79 -1.9392 -3.7413 0
M  V30 20221 H 1897.47 -0.929344 -3.10072 0
M  V30 20222 H 1896.37 -3.04993 -2.16633 0
M  V30 20223 H 1897.71 -4.00133 -2.86625 0
M  V30 20224 N 1899.36 0.706069 -1.40899 0
M  V30 20225 C 1900.61 1.46164 -1.38993 0
M  V30 20226 C 1900.92 1.956 0.00145788 0
M  V30 20227 O 1902.13 2.71122 0.143137 0
M  V30 20228 C 1900.58 2.64252 -2.44334 0
M  V30 20229 C 1900.19 2.21646 -3.89329 0
M  V30 20230 C 1901.93 3.41941 -2.51549 0
M  V30 20231 C 1899.84 3.36629 -4.86245 0
M  V30 20232 H 1898.77 0.548985 -0.516847 0
M  V30 20233 H 1901.42 0.767528 -1.66677 0
M  V30 20234 H 1899.8 3.3588 -2.09764 0
M  V30 20235 H 1900.98 1.57376 -4.33093 0
M  V30 20236 H 1899.29 1.56978 -3.85677 0
M  V30 20237 H 1901.89 4.27518 -3.21142 0
M  V30 20238 H 1902.23 3.86409 -1.54899 0
M  V30 20239 H 1902.77 2.77363 -2.85158 0
M  V30 20240 H 1899.51 2.97183 -5.84262 0
M  V30 20241 H 1899.03 3.99784 -4.47139 0
M  V30 20242 H 1900.7 4.02559 -5.06513 0
M  V30 20243 N 1900.84 1.26553 0.939264 0
M  V30 20244 C 1902.08 1.12376 1.68818 0
M  V30 20245 C 1902.42 -0.331784 1.91345 0
M  V30 20246 O 1901.69 -1.24359 1.4955 0
M  V30 20247 C 1901.97 1.89541 3.0618 0
M  V30 20248 C 1901.83 3.43014 2.90966 0
M  V30 20249 C 1903.15 1.69074 4.06327 0
M  V30 20250 H 1900.26 0.409616 0.612686 0
M  V30 20251 H 1902.91 1.55571 1.09076 0
M  V30 20252 H 1901.06 1.5283 3.57177 0
M  V30 20253 H 1902.73 3.89489 2.47176 0
M  V30 20254 H 1900.97 3.69942 2.26551 0
M  V30 20255 H 1901.64 3.92236 3.88401 0
M  V30 20256 H 1904.12 2.01061 3.64299 0
M  V30 20257 H 1902.99 2.25478 5.00451 0
M  V30 20258 H 1903.26 0.635787 4.37504 0
M  V30 20259 N 1902.31 -1.14411 1.08387 0
M  V30 20260 C 1903.26 -2.21558 0.708165 0
M  V30 20261 C 1904.26 -1.66969 -0.285982 0
M  V30 20262 O 1905.46 -1.79386 -0.14857 0
M  V30 20263 H 1901.84 -0.721799 0.210974 0
M  V30 20264 H 1903.81 -2.50518 1.62122 0
M  V30 20265 C 1902.56 -3.47444 0.13337 0
M  V30 20266 H 1901.88 -3.89779 0.889513 0
M  V30 20267 H 1903.32 -4.23901 -0.0917154 0
M  V30 20268 C 1901.78 -3.1743 -1.1287 0
M  V30 20269 O 1902.31 -3.35205 -2.2136 0
M  V30 20270 N 1900.52 -2.71391 -1.03901 0
M  V30 20271 H 1900.06 -2.57127 -0.156094 0
M  V30 20272 H 1900.02 -2.51684 -1.88422 0
M  V30 20273 N 1903.79 -0.869509 -1.31443 0
M  V30 20274 C 1904.72 -0.340679 -2.31001 0
M  V30 20275 C 1905.7 0.568186 -1.6033 0
M  V30 20276 O 1906.89 0.485305 -1.88038 0
M  V30 20277 C 1904.02 0.45909 -3.44252 0
M  V30 20278 C 1902.97 -0.356639 -4.26512 0
M  V30 20279 C 1902.3 0.568786 -5.31666 0
M  V30 20280 C 1903.6 -1.59045 -4.97496 0
M  V30 20281 H 1905.29 -1.1726 -2.75482 0
M  V30 20282 H 1902.84 -0.5653 -1.3244 0
M  V30 20283 H 1904.79 0.839573 -4.12952 0
M  V30 20284 H 1903.52 1.32451 -2.98537 0
M  V30 20285 H 1902.17 -0.719063 -3.59479 0
M  V30 20286 H 1901.82 1.43148 -4.82201 0
M  V30 20287 H 1901.52 0.0268906 -5.87594 0
M  V30 20288 H 1903.05 0.946122 -6.03225 0
M  V30 20289 H 1904.46 -1.28144 -5.58795 0
M  V30 20290 H 1902.86 -2.07139 -5.63217 0
M  V30 20291 H 1903.93 -2.34354 -4.24507 0
M  V30 20292 N 1905.27 1.44508 -0.628902 0
M  V30 20293 C 1906.2 2.33412 0.0642512 0
M  V30 20294 C 1907.18 1.48077 0.837091 0
M  V30 20295 O 1908.37 1.76802 0.803415 0
M  V30 20296 C 1905.5 3.31112 1.04795 0
M  V30 20297 C 1904.45 4.26248 0.386897 0
M  V30 20298 C 1903.78 5.13799 1.48035 0
M  V30 20299 C 1905.08 5.17514 -0.705449 0
M  V30 20300 H 1906.77 2.91619 -0.678133 0
M  V30 20301 H 1904.32 1.40225 -0.327558 0
M  V30 20302 H 1906.27 3.9219 1.54159 0
M  V30 20303 H 1904.99 2.71109 1.8212 0
M  V30 20304 H 1903.65 3.66499 -0.0860697 0
M  V30 20305 H 1903.3 4.5015 2.24441 0
M  V30 20306 H 1903 5.78262 1.04342 0
M  V30 20307 H 1904.52 5.77748 1.97583 0
M  V30 20308 H 1905.94 5.7254 -0.295004 0
M  V30 20309 H 1904.34 5.90567 -1.06538 0
M  V30 20310 H 1905.41 4.5866 -1.57349 0
M  V30 20311 N 1906.75 0.369315 1.53212 0
M  V30 20312 C 1907.7 -0.475399 2.25851 0
M  V30 20313 C 1908.67 -1.07444 1.26669 0
M  V30 20314 O 1909.85 -1.10623 1.55458 0
M  V30 20315 C 1906.99 -1.60725 3.05388 0
M  V30 20316 C 1906.1 -1.03302 4.19467 0
M  V30 20317 C 1905.24 -2.13427 4.86438 0
M  V30 20318 C 1904.28 -1.53489 5.92543 0
M  V30 20319 N 1903.42 -2.57463 6.5319 0
M  V30 20320 H 1908.26 0.150534 2.9762 0
M  V30 20321 H 1905.79 0.0860577 1.46848 0
M  V30 20322 H 1907.75 -2.274 3.49779 0
M  V30 20323 H 1906.38 -2.20378 2.35867 0
M  V30 20324 H 1905.43 -0.256437 3.79535 0
M  V30 20325 H 1906.74 -0.55483 4.95705 0
M  V30 20326 H 1905.9 -2.87915 5.34032 0
M  V30 20327 H 1904.64 -2.64599 4.09681 0
M  V30 20328 H 1903.64 -0.775176 5.44308 0
M  V30 20329 H 1904.87 -1.03137 6.71222 0
M  V30 20330 H 1902.81 -3.07841 5.79284 0
M  V30 20331 H 1902.73 -2.14342 7.24978 0
M  V30 20332 H 1904 -3.31642 7.05432 0
M  V30 20333 N 1908.23 -1.57291 0.0985816 0
M  V30 20334 C 1909.5 -1.85951 -0.606759 0
M  V30 20335 C 1909.88 -0.996077 -1.86122 0
M  V30 20336 O 1909.23 -0.0694281 -2.28394 0
M  V30 20337 C 1909.44 -3.36688 -0.918803 0
M  V30 20338 C 1910.79 -4.04824 -1.28074 0
M  V30 20339 O 1911.81 -3.41589 -1.00971 0
M  V30 20340 O 1910.67 -5.16406 -1.7885 0
M  V30 20341 H 1907.77 -0.769103 -0.30399 0
M  V30 20342 H 1910.31 -1.69189 0.131543 0
M  V30 20343 H 1909.09 -3.91289 -0.0289848 0
M  V30 20344 H 1908.71 -3.58808 -1.71296 0
M  V30 20345 N 1909.71 0.175127 -1.56624 0
M  V30 20346 C 1910.98 0.919424 -1.72644 0
M  V30 20347 C 1911.36 2.00553 -0.658929 0
M  V30 20348 O 1910.71 2.2615 0.326897 0
M  V30 20349 C 1910.92 1.48764 -3.15706 0
M  V30 20350 C 1912.27 1.96204 -3.76549 0
M  V30 20351 O 1913.29 1.58565 -3.1896 0
M  V30 20352 O 1912.15 2.65525 -4.7766 0
M  V30 20353 H 1909.25 0.43251 -0.704886 0
M  V30 20354 H 1911.79 0.163255 -1.68913 0
M  V30 20355 H 1910.56 0.705743 -3.84883 0
M  V30 20356 H 1910.19 2.3081 -3.23748 0
M  V30 20357 N 1911.18 1.5123 0.44355 0
M  V30 20358 C 1912.11 1.75038 1.54544 0
M  V30 20359 C 1913.09 0.600017 1.59166 0
M  V30 20360 O 1914.28 0.842082 1.74993 0
M  V30 20361 C 1911.41 1.86976 2.92673 0
M  V30 20362 C 1910.36 3.0237 3.02913 0
M  V30 20363 C 1909.69 2.99483 4.4296 0
M  V30 20364 C 1910.99 4.4244 2.77569 0
M  V30 20365 H 1912.68 2.67301 1.34872 0
M  V30 20366 H 1910.23 1.28627 0.647395 0
M  V30 20367 H 1912.18 2.02215 3.69712 0
M  V30 20368 H 1910.91 0.913563 3.13563 0
M  V30 20369 H 1909.57 2.86826 2.28312 0
M  V30 20370 H 1909.21 2.01654 4.60809 0
M  V30 20371 H 1908.91 3.76968 4.50743 0
M  V30 20372 H 1910.44 3.16808 5.21982 0
M  V30 20373 H 1911.85 4.58367 3.44344 0
M  V30 20374 H 1910.25 5.21583 2.96768 0
M  V30 20375 H 1911.32 4.52906 1.73218 0
M  V30 20376 N 1912.66 -0.698586 1.41271 0
M  V30 20377 C 1913.61 -1.80459 1.3935 0
M  V30 20378 C 1914.6 -1.58647 0.268341 0
M  V30 20379 O 1915.79 -1.6953 0.508777 0
M  V30 20380 C 1912.92 -3.18739 1.27515 0
M  V30 20381 C 1912 -3.46257 2.44881 0
M  V30 20382 N 1912.39 -3.44491 3.70351 0
M  V30 20383 C 1910.69 -3.76792 2.38629 0
M  V30 20384 C 1911.39 -3.70829 4.48175 0
M  V30 20385 N 1910.37 -3.90423 3.78247 0
M  V30 20386 H 1914.17 -1.77452 2.34282 0
M  V30 20387 H 1911.68 -0.898448 1.35284 0
M  V30 20388 H 1913.68 -3.97963 1.24221 0
M  V30 20389 H 1912.34 -3.2296 0.335652 0
M  V30 20390 H 1913.35 -3.24942 4.03278 0
M  V30 20391 H 1910.03 -3.88402 1.53136 0
M  V30 20392 H 1911.42 -3.75625 5.57096 0
M  V30 20393 N 1914.14 -1.27049 -0.93254 0
M  V30 20394 C 1915.55 -1.11887 -1.49459 0
M  V30 20395 C 1915.9 0.297825 -1.93926 0
M  V30 20396 O 1915.03 1.19024 -1.80727 0
M  V30 20397 C 1915.62 -2.02497 -2.71626 0
M  V30 20398 C 1914.18 -1.91455 -3.24071 0
M  V30 20399 C 1913.33 -1.95337 -1.96821 0
M  V30 20400 H 1916.28 -1.40013 -0.747138 0
M  V30 20401 H 1916.3 -1.57794 -3.46239 0
M  V30 20402 H 1915.81 -3.05598 -2.39231 0
M  V30 20403 H 1913.91 -0.913212 -3.61236 0
M  V30 20404 H 1914.03 -2.77443 -3.90592 0
M  V30 20405 H 1912.39 -1.395 -2.13101 0
M  V30 20406 H 1913.17 -3.00084 -1.66746 0
M  V30 20407 N 1915.62 1.13835 -1.08993 0
M  V30 20408 C 1916.84 1.89402 -0.845071 0
M  V30 20409 C 1917.27 1.78353 0.597641 0
M  V30 20410 O 1916.63 1.12793 1.41942 0
M  V30 20411 C 1916.67 3.37144 -1.27931 0
M  V30 20412 O 1915.78 4.101 -0.434975 0
M  V30 20413 H 1915.12 0.589066 -0.306427 0
M  V30 20414 H 1917.65 1.44055 -1.45291 0
M  V30 20415 H 1917.66 3.87967 -1.26277 0
M  V30 20416 H 1916.33 3.44504 -2.33002 0
M  V30 20417 H 1914.91 3.6932 -0.515447 0
M  V30 20418 N 1917.1 0.876467 1.3098 0
M  V30 20419 C 1918.34 0.49064 1.96466 0
M  V30 20420 C 1918.67 -0.958443 1.69246 0
M  V30 20421 O 1917.93 -1.69096 0.985144 0
M  V30 20422 C 1918.22 0.70208 3.50436 0
M  V30 20423 C 1917.89 2.12494 3.9769 0
M  V30 20424 C 1916.55 2.51405 4.10303 0
M  V30 20425 C 1918.9 3.0526 4.22452 0
M  V30 20426 C 1916.23 3.82309 4.45035 0
M  V30 20427 C 1918.58 4.35686 4.5865 0
M  V30 20428 C 1917.25 4.74502 4.69472 0
M  V30 20429 H 1916.52 0.179538 0.718921 0
M  V30 20430 H 1919.17 1.1107 1.55999 0
M  V30 20431 H 1917.47 -0.00106996 3.918 0
M  V30 20432 H 1919.17 0.383279 3.99164 0
M  V30 20433 H 1915.76 1.81287 3.88372 0
M  V30 20434 H 1919.94 2.76422 4.12195 0
M  V30 20435 H 1915.2 4.12136 4.51612 0
M  V30 20436 H 1919.37 5.07612 4.76763 0
M  V30 20437 H 1917 5.75976 4.9614 0
M  V30 20438 N 1918.57 -1.44173 0.636557 0
M  V30 20439 C 1919.98 -1.8534 0.224954 0
M  V30 20440 C 1920.34 -1.53271 -1.22485 0
M  V30 20441 O 1919.46 -0.973441 -1.93269 0
M  V30 20442 C 1920.06 -3.36413 0.401492 0
M  V30 20443 C 1918.61 -3.76374 0.0443511 0
M  V30 20444 C 1917.76 -2.67995 0.712303 0
M  V30 20445 H 1920.71 -1.34562 0.841356 0
M  V30 20446 H 1920.73 -3.78812 -0.357965 0
M  V30 20447 H 1920.25 -3.59722 1.45677 0
M  V30 20448 H 1918.35 -3.58679 -1.00897 0
M  V30 20449 H 1918.46 -4.76904 0.458196 0
M  V30 20450 H 1916.82 -2.54275 0.147092 0
M  V30 20451 H 1917.61 -2.94136 1.77028 0
M  V30 20452 N 1920.05 -0.377435 -1.53014 0
M  V30 20453 C 1920.96 0.471045 -2.29822 0
M  V30 20454 C 1921.98 1.0821 -1.36259 0
M  V30 20455 O 1923.15 1.09048 -1.69324 0
M  V30 20456 C 1920.22 1.58917 -3.08134 0
M  V30 20457 C 1919.28 1.00444 -4.17384 0
M  V30 20458 C 1918.51 2.06928 -4.91952 0
M  V30 20459 O 1918.74 3.2824 -4.66492 0
M  V30 20460 O 1917.67 1.69321 -5.77593 0
M  V30 20461 H 1921.5 -0.154333 -3.03308 0
M  V30 20462 H 1919.08 -0.141478 -1.48729 0
M  V30 20463 H 1920.96 2.23899 -3.56997 0
M  V30 20464 H 1919.64 2.19973 -2.37473 0
M  V30 20465 H 1918.54 0.3182 -3.72744 0
M  V30 20466 H 1919.88 0.438266 -4.90245 0
M  V30 20467 N 1921.53 1.57237 -0.106922 0
M  V30 20468 C 1922.78 1.95064 0.554803 0
M  V30 20469 C 1923.11 0.989597 1.67095 0
M  V30 20470 O 1922.38 0.0246857 1.94484 0
M  V30 20471 C 1922.67 3.42924 1.09887 0
M  V30 20472 C 1922.52 4.49798 -0.0130257 0
M  V30 20473 C 1923.84 3.92358 1.99356 0
M  V30 20474 H 1920.96 0.709287 0.200204 0
M  V30 20475 H 1923.6 1.89145 -0.180032 0
M  V30 20476 H 1921.75 3.48098 1.7251 0
M  V30 20477 H 1923.42 4.56729 -0.647804 0
M  V30 20478 H 1921.67 4.28472 -0.677825 0
M  V30 20479 H 1922.34 5.50485 0.40868 0
M  V30 20480 H 1924.81 3.89411 1.46622 0
M  V30 20481 H 1923.69 4.9636 2.34346 0
M  V30 20482 H 1923.95 3.32343 2.91549 0
M  V30 20483 N 1923.01 -0.166818 1.56715 0
M  V30 20484 C 1924.23 -0.902208 1.86748 0
M  V30 20485 C 1924.66 -1.74838 0.693767 0
M  V30 20486 O 1924.02 -1.77749 -0.35708 0
M  V30 20487 C 1924.06 -1.75107 3.1523 0
M  V30 20488 O 1923.17 -2.85319 2.9777 0
M  V30 20489 H 1922.51 -0.252474 0.614128 0
M  V30 20490 H 1925.04 -0.163603 2.03945 0
M  V30 20491 H 1925.05 -2.15009 3.46749 0
M  V30 20492 H 1923.72 -1.12955 4.00267 0
M  V30 20493 H 1922.3 -2.48967 2.77615 0
M  V30 20494 N 1924.49 -1.51463 -0.435524 0
M  V30 20495 C 1925.73 -1.64221 -1.18481 0
M  V30 20496 C 1926.06 -0.359315 -1.91152 0
M  V30 20497 O 1925.32 0.656683 -1.84353 0
M  V30 20498 C 1925.62 -2.79695 -2.22498 0
M  V30 20499 C 1925.28 -4.18903 -1.66826 0
M  V30 20500 C 1923.94 -4.56773 -1.51366 0
M  V30 20501 C 1926.3 -5.05763 -1.2591 0
M  V30 20502 C 1923.62 -5.79207 -0.93467 0
M  V30 20503 C 1925.98 -6.28777 -0.694404 0
M  V30 20504 C 1924.64 -6.65419 -0.52672 0
M  V30 20505 H 1923.91 -0.600927 -0.433552 0
M  V30 20506 H 1926.56 -1.855 -0.475618 0
M  V30 20507 H 1924.86 -2.52646 -2.99462 0
M  V30 20508 H 1926.56 -2.86766 -2.80297 0
M  V30 20509 H 1923.15 -3.89046 -1.79835 0
M  V30 20510 H 1927.33 -4.7711 -1.36674 0
M  V30 20511 H 1922.59 -6.06242 -0.792531 0
M  V30 20512 H 1926.76 -6.95422 -0.36886 0
M  V30 20513 H 1924.39 -7.60162 -0.0759538 0
M  V30 20514 N 1925.96 0.691085 -1.4164 0
M  V30 20515 C 1927.21 1.45114 -1.41238 0
M  V30 20516 C 1927.54 1.94486 -0.0230695 0
M  V30 20517 O 1926.79 1.70206 0.96583 0
M  V30 20518 C 1927.09 2.67547 -2.36967 0
M  V30 20519 C 1926.76 2.36807 -3.8371 0
M  V30 20520 C 1925.42 2.28134 -4.23684 0
M  V30 20521 C 1927.77 2.11542 -4.7634 0
M  V30 20522 C 1925.1 1.92299 -5.54291 0
M  V30 20523 C 1927.45 1.77214 -6.07271 0
M  V30 20524 C 1926.12 1.6704 -6.46262 0
M  V30 20525 H 1925.39 0.531011 -0.516825 0
M  V30 20526 H 1928.03 0.789481 -1.74469 0
M  V30 20527 H 1926.34 3.38668 -1.97006 0
M  V30 20528 H 1928.04 3.25697 -2.33928 0
M  V30 20529 H 1924.63 2.44453 -3.52052 0
M  V30 20530 H 1928.81 2.17184 -4.46256 0
M  V30 20531 H 1924.07 1.82978 -5.83377 0
M  V30 20532 H 1928.24 1.56685 -6.78545 0
M  V30 20533 H 1925.87 1.3904 -7.47377 0
M  V30 20534 N 1927.44 1.27542 0.925789 0
M  V30 20535 C 1928.39 1.07085 2.01288 0
M  V30 20536 C 1929.38 -0.0017417 1.609 0
M  V30 20537 O 1930.57 0.217017 1.75665 0
M  V30 20538 C 1927.7 0.72208 3.3562 0
M  V30 20539 C 1926.78 1.83291 3.82446 0
M  V30 20540 N 1927.17 3.07277 4.01764 0
M  V30 20541 C 1925.47 1.72002 4.11499 0
M  V30 20542 C 1926.17 3.79576 4.40791 0
M  V30 20543 N 1925.15 3.07351 4.48371 0
M  V30 20544 H 1928.95 2.01175 2.14257 0
M  V30 20545 H 1926.47 1.18285 1.11277 0
M  V30 20546 H 1928.46 0.556635 4.13167 0
M  V30 20547 H 1927.12 -0.211174 3.24013 0
M  V30 20548 H 1928.13 3.43018 3.88019 0
M  V30 20549 H 1924.81 0.857729 4.08594 0
M  V30 20550 H 1926.2 4.86147 4.63801 0
M  V30 20551 N 1928.92 -1.13255 1.09595 0
M  V30 20552 C 1930.15 -1.88952 0.855104 0
M  V30 20553 C 1930.57 -1.78668 -0.588174 0
M  V30 20554 O 1929.93 -1.13544 -1.41341 0
M  V30 20555 C 1929.98 -3.36461 1.29717 0
M  V30 20556 O 1929.08 -4.09863 0.456717 0
M  V30 20557 H 1928.42 -0.587432 0.309547 0
M  V30 20558 H 1930.95 -1.43282 1.46053 0
M  V30 20559 H 1930.96 -3.87291 1.28333 0
M  V30 20560 H 1929.64 -3.43263 2.34826 0
M  V30 20561 H 1928.21 -3.69042 0.535026 0
M  V30 20562 N 1930.4 -0.883401 -1.30514 0
M  V30 20563 C 1931.31 -0.352971 -2.31929 0
M  V30 20564 C 1932.32 0.543992 -1.65278 0
M  V30 20565 O 1933.5 0.437489 -1.96591 0
M  V30 20566 C 1930.57 0.425263 -3.44082 0
M  V30 20567 C 1929.63 -0.501265 -4.26363 0
M  V30 20568 C 1928.86 0.239923 -5.3316 0
M  V30 20569 O 1929.08 1.46622 -5.51233 0
M  V30 20570 O 1928.02 -0.409158 -6.00508 0
M  V30 20571 H 1931.84 -1.19393 -2.79247 0
M  V30 20572 H 1929.43 -0.647187 -1.34655 0
M  V30 20573 H 1931.31 0.865957 -4.12407 0
M  V30 20574 H 1929.98 1.24255 -2.98902 0
M  V30 20575 H 1928.89 -0.990738 -3.60743 0
M  V30 20576 H 1930.22 -1.28451 -4.75143 0
M  V30 20577 N 1931.88 1.43833 -0.644194 0
M  V30 20578 C 1932.79 2.34538 0.0537504 0
M  V30 20579 C 1933.8 1.53369 0.821825 0
M  V30 20580 O 1934.98 1.86053 0.771123 0
M  V30 20581 C 1932.04 3.3153 1.01434 0
M  V30 20582 C 1931.1 4.28605 0.244198 0
M  V30 20583 C 1930.34 5.20963 1.15903 0
M  V30 20584 O 1930.56 5.1754 2.3981 0
M  V30 20585 O 1929.49 5.98527 0.636302 0
M  V30 20586 H 1933.32 2.95696 -0.692624 0
M  V30 20587 H 1930.91 1.43823 -0.404377 0
M  V30 20588 H 1932.79 3.91196 1.56663 0
M  V30 20589 H 1931.46 2.72887 1.7411 0
M  V30 20590 H 1930.37 3.72445 -0.351459 0
M  V30 20591 H 1931.7 4.90204 -0.442806 0
M  V30 20592 N 1933.35 0.385544 1.52811 0
M  V30 20593 C 1934.3 -0.466338 2.27877 0
M  V30 20594 C 1935.3 -1.0663 1.31629 0
M  V30 20595 O 1936.5 -1.00721 1.49182 0
M  V30 20596 H 1932.88 -0.169137 0.732732 0
M  V30 20597 H 1934.85 0.188293 2.97805 0
M  V30 20598 C 1933.6 -1.58354 3.09547 0
M  V30 20599 H 1932.92 -1.13119 3.83463 0
M  V30 20600 H 1934.36 -2.1539 3.65216 0
M  V30 20601 C 1932.82 -2.53741 2.21624 0
M  V30 20602 O 1933.35 -3.57056 1.84048 0
M  V30 20603 N 1931.56 -2.23394 1.85859 0
M  V30 20604 H 1931.1 -1.39412 2.16615 0
M  V30 20605 H 1931.06 -2.87466 1.27321 0
M  V30 20606 N 1934.83 -1.57178 0.115259 0
M  V30 20607 C 1935.78 -2.15114 -0.836331 0
M  V30 20608 C 1936.75 -1.07511 -1.26612 0
M  V30 20609 O 1937.93 -1.354 -1.3443 0
M  V30 20610 C 1935.07 -2.75187 -2.08245 0
M  V30 20611 C 1934.19 -3.97086 -1.70137 0
M  V30 20612 C 1933.32 -4.45258 -2.89687 0
M  V30 20613 C 1932.36 -5.59697 -2.47801 0
M  V30 20614 N 1931.5 -6.0263 -3.60252 0
M  V30 20615 H 1936.34 -2.96106 -0.335434 0
M  V30 20616 H 1933.88 -1.46293 -0.15388 0
M  V30 20617 H 1935.83 -3.08145 -2.81252 0
M  V30 20618 H 1934.46 -1.96891 -2.558 0
M  V30 20619 H 1933.52 -3.70313 -0.870192 0
M  V30 20620 H 1934.83 -4.80085 -1.35352 0
M  V30 20621 H 1933.98 -4.80105 -3.70923 0
M  V30 20622 H 1932.72 -3.61201 -3.27696 0
M  V30 20623 H 1931.73 -5.24458 -1.64997 0
M  V30 20624 H 1932.95 -6.45517 -2.10913 0
M  V30 20625 H 1930.9 -5.21515 -3.97942 0
M  V30 20626 H 1930.81 -6.80474 -3.29379 0
M  V30 20627 H 1932.08 -6.42114 -4.41939 0
M  V30 20628 N 1936.31 0.158505 -1.56801 0
M  V30 20629 C 1937.27 1.17986 -1.96499 0
M  V30 20630 C 1938.27 1.3649 -0.850127 0
M  V30 20631 O 1939.46 1.33678 -1.11696 0
M  V30 20632 C 1936.6 2.54245 -2.27095 0
M  V30 20633 H 1937.79 0.839577 -2.87908 0
M  V30 20634 H 1935.34 0.401431 -1.51057 0
M  V30 20635 H 1936.08 2.93266 -1.38441 0
M  V30 20636 H 1935.86 2.42179 -3.0837 0
M  V30 20637 H 1937.35 3.27829 -2.58686 0
M  V30 20638 N 1937.79 1.51692 0.427485 0
M  V30 20639 C 1939.2 1.57214 1.007 0
M  V30 20640 C 1939.55 0.401527 1.92047 0
M  V30 20641 O 1938.68 -0.480464 2.10999 0
M  V30 20642 C 1939.27 2.84927 1.83309 0
M  V30 20643 C 1937.83 2.92989 2.36294 0
M  V30 20644 C 1936.98 2.51977 1.15772 0
M  V30 20645 H 1939.93 1.57326 0.208386 0
M  V30 20646 H 1939.95 2.69245 2.68863 0
M  V30 20647 H 1939.46 3.70108 1.16799 0
M  V30 20648 H 1937.56 2.1226 3.06229 0
M  V30 20649 H 1937.68 3.9685 2.68416 0
M  V30 20650 H 1936.04 2.054 1.50608 0
M  V30 20651 H 1936.82 3.39512 0.508568 0
M  V30 20652 N 1939.27 -0.683564 1.42004 0
M  V30 20653 C 1940.18 -1.82689 1.4718 0
M  V30 20654 C 1941.19 -1.70208 0.361298 0
M  V30 20655 O 1942.37 -1.91912 0.610867 0
M  V30 20656 C 1939.43 -3.18767 1.3634 0
M  V30 20657 C 1938.5 -3.43269 2.57808 0
M  V30 20658 C 1937.73 -4.72855 2.47476 0
M  V30 20659 O 1937.95 -5.50164 1.50584 0
M  V30 20660 O 1936.89 -4.98407 3.37452 0
M  V30 20661 H 1940.71 -1.81279 2.43663 0
M  V30 20662 H 1938.3 -0.838182 1.23672 0
M  V30 20663 H 1940.18 -3.99986 1.32624 0
M  V30 20664 H 1938.85 -3.20834 0.429781 0
M  V30 20665 H 1937.76 -2.61933 2.67099 0
M  V30 20666 H 1939.09 -3.46025 3.50039 0
M  V30 20667 N 1940.75 -1.28031 -0.919012 0
M  V30 20668 C 1941.97 -1.17828 -1.70679 0
M  V30 20669 C 1942.4 0.260207 -1.86292 0
M  V30 20670 O 1941.75 1.18833 -1.36925 0
M  V30 20671 C 1941.8 -1.87626 -3.07943 0
M  V30 20672 O 1940.91 -1.18014 -3.95154 0
M  V30 20673 H 1940.25 -0.40932 -0.522832 0
M  V30 20674 H 1942.78 -1.69258 -1.14947 0
M  V30 20675 H 1942.79 -1.95327 -3.58206 0
M  V30 20676 H 1941.46 -2.92263 -2.95897 0
M  V30 20677 H 1940.04 -1.18441 -3.5359 0
M  V30 20678 N 1942.22 1.12672 -1.10194 0
M  V30 20679 C 1943.13 2.2192 -0.76082 0
M  V30 20680 C 1944.15 1.72328 0.240604 0
M  V30 20681 O 1945.33 2.01241 0.0799808 0
M  V30 20682 C 1942.39 3.46151 -0.19501 0
M  V30 20683 C 1941.45 4.10595 -1.25339 0
M  V30 20684 C 1940.68 5.28896 -0.714485 0
M  V30 20685 O 1940.91 5.68543 0.459943 0
M  V30 20686 O 1939.84 5.83592 -1.47324 0
M  V30 20687 H 1943.67 2.53487 -1.67266 0
M  V30 20688 H 1941.25 1.20959 -0.876892 0
M  V30 20689 H 1943.13 4.21238 0.116809 0
M  V30 20690 H 1941.81 3.16266 0.689729 0
M  V30 20691 H 1940.72 3.37299 -1.61803 0
M  V30 20692 H 1942.05 4.44629 -2.11106 0
M  V30 20693 N 1943.7 0.89031 1.30043 0
M  V30 20694 C 1944.61 0.365266 2.31739 0
M  V30 20695 C 1945.63 -0.535219 1.65564 0
M  V30 20696 O 1946.8 -0.427058 1.9682 0
M  V30 20697 C 1943.87 -0.407009 3.44303 0
M  V30 20698 C 1942.93 0.523869 4.26092 0
M  V30 20699 C 1942.16 -0.211645 5.3328 0
M  V30 20700 O 1942.39 -1.43697 5.52003 0
M  V30 20701 O 1941.32 0.440999 6.00282 0
M  V30 20702 H 1945.15 1.20872 2.7861 0
M  V30 20703 H 1942.73 0.654319 1.34309 0
M  V30 20704 H 1944.61 -0.844074 4.1286 0
M  V30 20705 H 1943.29 -1.22668 2.99557 0
M  V30 20706 H 1942.19 1.00986 3.60212 0
M  V30 20707 H 1943.53 1.30969 4.74455 0
M  V30 20708 N 1945.18 -1.43489 0.651812 0
M  V30 20709 C 1946.11 -2.33484 -0.0271093 0
M  V30 20710 C 1947.09 -1.4939 -0.813427 0
M  V30 20711 O 1948.28 -1.78058 -0.775186 0
M  V30 20712 C 1945.41 -3.32737 -0.995143 0
M  V30 20713 C 1944.36 -4.26809 -0.319036 0
M  V30 20714 C 1943.69 -5.1609 -1.39842 0
M  V30 20715 C 1944.99 -5.16326 0.787692 0
M  V30 20716 H 1946.68 -2.90503 0.724441 0
M  V30 20717 H 1944.23 -1.39686 0.349826 0
M  V30 20718 H 1946.18 -3.94593 -1.479 0
M  V30 20719 H 1944.9 -2.73972 -1.77784 0
M  V30 20720 H 1943.56 -3.66316 0.144366 0
M  V30 20721 H 1943.21 -4.53664 -2.17251 0
M  V30 20722 H 1942.91 -5.79848 -0.951292 0
M  V30 20723 H 1944.43 -5.80819 -1.88367 0
M  V30 20724 H 1945.85 -5.71999 0.386053 0
M  V30 20725 H 1944.24 -5.88798 1.1592 0
M  V30 20726 H 1945.31 -4.56099 1.64626 0
M  V30 20727 N 1946.66 -0.393643 -1.52605 0
M  V30 20728 C 1947.57 0.446642 -2.30309 0
M  V30 20729 C 1948.58 1.06758 -1.374 0
M  V30 20730 O 1949.76 1.07246 -1.70471 0
M  V30 20731 C 1946.82 1.5564 -3.09802 0
M  V30 20732 C 1945.89 0.960113 -4.18426 0
M  V30 20733 C 1945.12 2.01698 -4.94119 0
M  V30 20734 O 1945.34 3.23273 -4.69947 0
M  V30 20735 O 1944.28 1.63186 -5.79357 0
M  V30 20736 H 1948.1 -0.186494 -3.03127 0
M  V30 20737 H 1945.69 -0.157245 -1.4857 0
M  V30 20738 H 1947.57 2.201 -3.59352 0
M  V30 20739 H 1946.24 2.17442 -2.39793 0
M  V30 20740 H 1945.15 0.278648 -3.73061 0
M  V30 20741 H 1946.48 0.386245 -4.90682 0
M  V30 20742 N 1948.14 1.57115 -0.123593 0
M  V30 20743 C 1949.07 2.11281 0.862306 0
M  V30 20744 C 1950.05 1.03036 1.25787 0
M  V30 20745 O 1951.23 1.3072 1.35811 0
M  V30 20746 C 1948.36 2.61329 2.15464 0
M  V30 20747 C 1947.4 3.81502 1.90679 0
M  V30 20748 S 1948.24 5.2368 1.11891 0
M  V30 20749 C 1949.39 5.771 2.42294 0
M  V30 20750 H 1949.63 2.94575 0.401603 0
M  V30 20751 H 1947.16 1.54136 0.0902687 0
M  V30 20752 H 1949.12 2.90818 2.89715 0
M  V30 20753 H 1947.78 1.78208 2.58651 0
M  V30 20754 H 1946.97 4.14685 2.86448 0
M  V30 20755 H 1946.57 3.52653 1.24547 0
M  V30 20756 H 1948.86 5.87105 3.38104 0
M  V30 20757 H 1949.81 6.751 2.13649 0
M  V30 20758 H 1950.22 5.05194 2.51871 0
M  V30 20759 N 1949.61 -0.150187 1.56883 0
M  V30 20760 C 1950.52 -1.20504 2.01286 0
M  V30 20761 C 1951.54 -1.47204 0.927733 0
M  V30 20762 O 1952.72 -1.58937 1.23697 0
M  V30 20763 C 1949.78 -2.51932 2.38184 0
M  V30 20764 C 1948.84 -2.32906 3.60629 0
M  V30 20765 C 1948.07 -3.58067 3.95757 0
M  V30 20766 O 1948.3 -4.64119 3.31587 0
M  V30 20767 O 1947.23 -3.5092 4.89018 0
M  V30 20768 H 1951.06 -0.858075 2.91326 0
M  V30 20769 H 1948.64 -0.358669 1.45031 0
M  V30 20770 H 1950.52 -3.29423 2.6279 0
M  V30 20771 H 1949.2 -2.86165 1.513 0
M  V30 20772 H 1948.11 -1.53377 3.41213 0
M  V30 20773 H 1949.44 -2.0359 4.4812 0
M  V30 20774 N 1951.09 -1.51916 -0.419434 0
M  V30 20775 C 1952.34 -1.65468 -1.16732 0
M  V30 20776 C 1952.67 -0.379569 -1.9076 0
M  V30 20777 O 1951.92 0.637093 -1.8504 0
M  V30 20778 C 1952.22 -2.82039 -2.19519 0
M  V30 20779 C 1951.89 -4.20649 -1.62373 0
M  V30 20780 C 1950.55 -4.58353 -1.46512 0
M  V30 20781 C 1952.9 -5.0707 -1.20539 0
M  V30 20782 C 1950.23 -5.80166 -0.873185 0
M  V30 20783 C 1952.58 -6.29478 -0.627675 0
M  V30 20784 C 1951.25 -6.6594 -0.456114 0
M  V30 20785 H 1950.52 -0.605492 -0.427154 0
M  V30 20786 H 1953.16 -1.85994 -0.455916 0
M  V30 20787 H 1951.47 -2.55808 -2.96765 0
M  V30 20788 H 1953.16 -2.89722 -2.7724 0
M  V30 20789 H 1949.75 -3.90932 -1.75699 0
M  V30 20790 H 1953.94 -4.78533 -1.31606 0
M  V30 20791 H 1949.19 -6.07048 -0.728187 0
M  V30 20792 H 1953.37 -6.95775 -0.29508 0
M  V30 20793 H 1951 -7.602 0.00467585 0
M  V30 20794 N 1952.57 0.676023 -1.42365 0
M  V30 20795 C 1953.48 1.81906 -1.48147 0
M  V30 20796 C 1954.5 1.70014 -0.37032 0
M  V30 20797 O 1955.67 1.91586 -0.621036 0
M  V30 20798 C 1952.74 3.18039 -1.38029 0
M  V30 20799 C 1951.8 3.41897 -2.59625 0
M  V30 20800 C 1951.03 4.71536 -2.4998 0
M  V30 20801 O 1951.25 5.49358 -1.535 0
M  V30 20802 O 1950.19 4.9661 -3.40091 0
M  V30 20803 H 1954.01 1.79984 -2.44621 0
M  V30 20804 H 1951.6 0.831611 -1.24115 0
M  V30 20805 H 1953.48 3.99277 -1.34743 0
M  V30 20806 H 1952.16 3.20602 -0.446789 0
M  V30 20807 H 1951.06 2.60512 -2.68485 0
M  V30 20808 H 1952.4 3.44164 -3.51869 0
M  V30 20809 N 1954.05 1.28517 0.912209 0
M  V30 20810 C 1955.33 1.0646 1.6409 0
M  V30 20811 C 1955.71 -0.395521 2.07362 0
M  V30 20812 O 1955.05 -1.3819 1.81978 0
M  V30 20813 C 1955.26 2.04064 2.83123 0
M  V30 20814 C 1956.61 2.34295 3.54106 0
M  V30 20815 O 1957.64 2.0216 2.93274 0
M  V30 20816 O 1956.49 2.89146 4.63742 0
M  V30 20817 H 1953.59 0.406984 0.719926 0
M  V30 20818 H 1956.13 1.39841 0.961378 0
M  V30 20819 H 1954.91 3.02467 2.48253 0
M  V30 20820 H 1954.53 1.71338 3.58788 0
M  V30 20821 N 1955.53 -1.12086 1.1079 0
M  V30 20822 C 1956.46 -2.17072 0.70392 0
M  V30 20823 C 1957.44 -1.59873 -0.296571 0
M  V30 20824 O 1958.62 -1.87493 -0.194599 0
M  V30 20825 C 1955.75 -3.38677 0.0392219 0
M  V30 20826 C 1954.79 -4.1452 1.00377 0
M  V30 20827 S 1955.63 -4.72343 2.52294 0
M  V30 20828 C 1956.78 -5.97279 1.87106 0
M  V30 20829 H 1957.02 -2.51004 1.59325 0
M  V30 20830 H 1954.55 -1.23605 0.925262 0
M  V30 20831 H 1956.51 -4.09107 -0.33795 0
M  V30 20832 H 1955.17 -3.03018 -0.82696 0
M  V30 20833 H 1954.36 -5.01651 0.486009 0
M  V30 20834 H 1953.96 -3.49817 1.32304 0
M  V30 20835 H 1956.26 -6.66726 1.20346 0
M  V30 20836 H 1957.2 -6.53688 2.72208 0
M  V30 20837 H 1957.61 -5.4851 1.33405 0
M  V30 20838 N 1957 -0.897194 -1.29569 0
M  V30 20839 C 1957.91 -0.377551 -2.31542 0
M  V30 20840 C 1958.93 0.526431 -1.65845 0
M  V30 20841 O 1960.11 0.416614 -1.97044 0
M  V30 20842 C 1957.17 0.388744 -3.44514 0
M  V30 20843 C 1956.23 -0.546458 -4.25808 0
M  V30 20844 C 1955.47 0.183361 -5.33385 0
M  V30 20845 O 1955.69 1.40767 -5.52757 0
M  V30 20846 O 1954.62 -0.472827 -6.0004 0
M  V30 20847 H 1958.45 -1.22348 -2.77965 0
M  V30 20848 H 1956.03 -0.661433 -1.33961 0
M  V30 20849 H 1957.92 0.822167 -4.13302 0
M  V30 20850 H 1956.59 1.21077 -3.00203 0
M  V30 20851 H 1955.5 -1.02894 -3.59671 0
M  V30 20852 H 1956.83 -1.33483 -4.73754 0
M  V30 20853 N 1958.48 1.43142 -0.659413 0
M  V30 20854 C 1959.43 2.32565 0.040254 0
M  V30 20855 C 1960.42 1.48961 0.806651 0
M  V30 20856 O 1961.63 1.65131 0.716353 0
M  V30 20857 H 1958.01 0.751327 0.0318053 0
M  V30 20858 H 1959.98 2.89293 -0.731581 0
M  V30 20859 C 1958.73 3.33349 0.988614 0
M  V30 20860 H 1958.05 3.9771 0.40831 0
M  V30 20861 H 1959.49 3.9854 1.44714 0
M  V30 20862 C 1957.95 2.64423 2.08763 0
M  V30 20863 O 1958.48 2.46444 3.17219 0
M  V30 20864 N 1956.68 2.23697 1.85494 0
M  V30 20865 H 1956.23 2.38519 0.972945 0
M  V30 20866 H 1956.19 1.7791 2.59221 0
M  V30 20867 N 1959.96 0.40173 1.52394 0
M  V30 20868 C 1961.21 -0.17672 2.02029 0
M  V30 20869 C 1961.54 -1.45417 1.28715 0
M  V30 20870 O 1960.81 -1.90524 0.391263 0
M  V30 20871 C 1961.1 -0.43198 3.575 0
M  V30 20872 C 1960.95 0.861628 4.4147 0
M  V30 20873 C 1962.27 -1.2173 4.2293 0
M  V30 20874 H 1959.39 -0.0627536 0.734323 0
M  V30 20875 H 1962.03 0.533742 1.82349 0
M  V30 20876 H 1960.18 -1.03719 3.74399 0
M  V30 20877 H 1961.85 1.49808 4.36297 0
M  V30 20878 H 1960.1 1.47424 4.07981 0
M  V30 20879 H 1960.77 0.637511 5.48306 0
M  V30 20880 H 1963.24 -0.704996 4.10084 0
M  V30 20881 H 1962.12 -1.36465 5.31666 0
M  V30 20882 H 1962.38 -2.23592 3.81391 0
M  V30 20883 N 1961.44 -1.57047 0.131923 0
M  V30 20884 C 1962.85 -1.82552 -0.391375 0
M  V30 20885 C 1963.2 -1.04983 -1.6575 0
M  V30 20886 O 1962.33 -0.2904 -2.14443 0
M  V30 20887 C 1962.92 -3.3113 -0.716843 0
M  V30 20888 C 1961.48 -3.57269 -1.18472 0
M  V30 20889 C 1960.63 -2.76578 -0.200021 0
M  V30 20890 H 1963.58 -1.54636 0.356863 0
M  V30 20891 H 1963.6 -3.46463 -1.57302 0
M  V30 20892 H 1963.11 -3.87559 0.204844 0
M  V30 20893 H 1961.21 -3.06211 -2.12287 0
M  V30 20894 H 1961.32 -4.65798 -1.12111 0
M  V30 20895 H 1959.69 -2.45185 -0.689655 0
M  V30 20896 H 1960.47 -3.35772 0.71499 0
M  V30 20897 N 1962.92 0.141865 -1.5696 0
M  V30 20898 C 1963.85 1.17667 -2.01685 0
M  V30 20899 C 1964.83 1.44509 -0.897282 0
M  V30 20900 O 1966.01 1.55342 -1.16544 0
M  V30 20901 C 1963.14 2.50859 -2.40182 0
M  V30 20902 C 1962.1 2.38527 -3.55371 0
M  V30 20903 C 1961.42 3.76476 -3.79697 0
M  V30 20904 C 1962.72 1.86502 -4.87867 0
M  V30 20905 H 1964.42 0.804761 -2.88382 0
M  V30 20906 H 1961.96 0.385672 -1.38739 0
M  V30 20907 H 1963.92 3.2348 -2.70071 0
M  V30 20908 H 1962.64 2.89895 -1.50428 0
M  V30 20909 H 1961.3 1.68357 -3.25656 0
M  V30 20910 H 1960.95 4.12957 -2.87186 0
M  V30 20911 H 1960.65 3.69085 -4.5722 0
M  V30 20912 H 1962.17 4.50638 -4.12017 0
M  V30 20913 H 1963.58 2.48921 -5.16441 0
M  V30 20914 H 1961.98 1.89989 -5.69231 0
M  V30 20915 H 1963.05 0.821025 -4.77899 0
M  V30 20916 N 1964.39 1.52136 0.411372 0
M  V30 20917 C 1965.67 1.56646 1.17138 0
M  V30 20918 C 1966.05 0.346143 2.08243 0
M  V30 20919 O 1965.4 -0.66715 2.18544 0
M  V30 20920 C 1965.61 2.89399 1.95063 0
M  V30 20921 C 1966.96 3.42316 2.51207 0
M  V30 20922 O 1967.98 2.91123 2.05245 0
M  V30 20923 O 1966.84 4.31703 3.35104 0
M  V30 20924 H 1963.93 0.63088 0.534715 0
M  V30 20925 H 1966.48 1.64463 0.418334 0
M  V30 20926 H 1965.25 3.69666 1.28308 0
M  V30 20927 H 1964.88 2.84864 2.77377 0
M  V30 20928 N 1965.87 -0.668464 1.42721 0
M  V30 20929 C 1967.29 -0.982344 1.25786 0
M  V30 20930 C 1967.49 -2.0081 0.166593 0
M  V30 20931 O 1966.55 -2.48273 -0.460069 0
M  V30 20932 C 1967.86 -1.48112 2.61693 0
M  V30 20933 C 1969.41 -1.59856 2.691 0
M  V30 20934 C 1969.88 -2.13128 4.05389 0
M  V30 20935 N 1971.37 -2.20452 4.07376 0
M  V30 20936 C 1972.11 -2.62761 5.09651 0
M  V30 20937 N 1971.6 -3.04475 6.22308 0
M  V30 20938 N 1973.4 -2.62565 4.97007 0
M  V30 20939 H 1965.55 0.0105662 2.12397 0
M  V30 20940 H 1967.81 -0.0578161 0.946235 0
M  V30 20941 H 1967.52 -0.801884 3.42436 0
M  V30 20942 H 1967.39 -2.45879 2.86048 0
M  V30 20943 H 1969.78 -2.26885 1.88699 0
M  V30 20944 H 1969.86 -0.605621 2.48527 0
M  V30 20945 H 1969.5 -1.46707 4.8625 0
M  V30 20946 H 1969.43 -3.13225 4.23317 0
M  V30 20947 H 1971.92 -1.91049 3.2605 0
M  V30 20948 H 1972.24 -3.35463 6.96193 0
M  V30 20949 H 1970.58 -3.02317 6.25803 0
M  V30 20950 H 1973.77 -2.29343 4.08068 0
M  V30 20951 H 1973.95 -2.95217 5.76846 0
M  V30 20952 N 1967.35 -1.28999 -0.905381 0
M  V30 20953 C 1968.58 -1.19632 -1.69419 0
M  V30 20954 C 1969 0.240433 -1.86557 0
M  V30 20955 O 1968.36 1.17374 -1.38177 0
M  V30 20956 C 1968.41 -1.90881 -3.05936 0
M  V30 20957 O 1967.51 -1.22198 -3.9388 0
M  V30 20958 H 1966.85 -0.414842 -0.518461 0
M  V30 20959 H 1969.38 -1.70468 -1.13145 0
M  V30 20960 H 1969.39 -1.99115 -3.56114 0
M  V30 20961 H 1968.07 -2.95385 -2.9278 0
M  V30 20962 H 1966.64 -1.22185 -3.52314 0
M  V30 20963 N 1968.83 1.11497 -1.11383 0
M  V30 20964 C 1970.05 1.87567 -0.885056 0
M  V30 20965 C 1970.48 1.79581 0.559675 0
M  V30 20966 O 1969.84 1.15779 1.39517 0
M  V30 20967 C 1969.89 3.34354 -1.35053 0
M  V30 20968 O 1968.99 4.09085 -0.521865 0
M  V30 20969 H 1968.33 0.582433 -0.318853 0
M  V30 20970 H 1970.86 1.4094 -1.48314 0
M  V30 20971 H 1970.87 3.85201 -1.34478 0
M  V30 20972 H 1969.55 3.39484 -2.40257 0
M  V30 20973 H 1968.12 3.68144 -0.593669 0
M  V30 20974 N 1970.31 0.904053 1.29092 0
M  V30 20975 C 1971.26 0.356356 2.25198 0
M  V30 20976 C 1972.24 -0.526041 1.52058 0
M  V30 20977 O 1973.43 -0.367347 1.73146 0
M  V30 20978 C 1970.56 -0.411177 3.40829 0
M  V30 20979 C 1969.65 0.486388 4.21302 0
M  V30 20980 N 1970.04 1.59559 4.79974 0
M  V30 20981 C 1968.34 0.284978 4.45089 0
M  V30 20982 C 1969.04 2.15192 5.40433 0
M  V30 20983 N 1968.01 1.4444 5.24059 0
M  V30 20984 H 1971.82 1.20361 2.68124 0
M  V30 20985 H 1969.33 0.755599 1.43751 0
M  V30 20986 H 1971.33 -0.820324 4.0875 0
M  V30 20987 H 1969.99 -1.25564 2.99439 0
M  V30 20988 H 1971 1.97828 4.78628 0
M  V30 20989 H 1967.68 -0.520766 4.14239 0
M  V30 20990 H 1969.07 3.08444 5.96919 0
M  V30 20991 N 1971.79 -1.4279 0.666995 0
M  V30 20992 C 1973.03 -2.03517 0.189811 0
M  V30 20993 C 1973.39 -1.5156 -1.17871 0
M  V30 20994 O 1974.59 -2.04022 -1.7501 0
M  V30 20995 C 1972.86 -3.56757 0.214298 0
M  V30 20996 S 1974.42 -4.38375 -0.193026 0
M  V30 20997 H 1971.24 -0.706625 0.0787564 0
M  V30 20998 H 1973.84 -1.74655 0.878407 0
M  V30 20999 H 1972.54 -3.92071 1.2128 0
M  V30 21000 H 1972.08 -3.90281 -0.494388 0
M  V30 21001 H 1974.09 -4.75195 -1.42842 0
M  V30 21002 N 1973.26 -0.409806 -1.52179 0
M  V30 21003 C 1974.2 0.450738 -2.24724 0
M  V30 21004 C 1975.21 1.00962 -1.27713 0
M  V30 21005 O 1976.4 0.908449 -1.53654 0
M  V30 21006 C 1973.5 1.63947 -2.96605 0
M  V30 21007 C 1972.67 1.20435 -4.20493 0
M  V30 21008 C 1971.73 2.26007 -4.75192 0
M  V30 21009 O 1970.76 1.86569 -5.37755 0
M  V30 21010 N 1971.96 3.58179 -4.56824 0
M  V30 21011 H 1974.72 -0.170894 -2.99212 0
M  V30 21012 H 1972.28 -0.237221 -1.60153 0
M  V30 21013 H 1974.28 2.34138 -3.30093 0
M  V30 21014 H 1972.85 2.16701 -2.25299 0
M  V30 21015 H 1972.07 0.330532 -3.92812 0
M  V30 21016 H 1973.35 0.890608 -5.00945 0
M  V30 21017 H 1972.75 3.92969 -4.0693 0
M  V30 21018 H 1971.31 4.24345 -4.94747 0
M  V30 21019 N 1974.74 1.56975 -0.14025 0
M  V30 21020 C 1976.16 1.58129 0.216215 0
M  V30 21021 C 1976.36 1.15417 1.6517 0
M  V30 21022 O 1975.41 0.851345 2.37715 0
M  V30 21023 C 1976.73 3.00678 -0.0364108 0
M  V30 21024 C 1978.27 3.12988 0.0278286 0
M  V30 21025 C 1978.75 4.57574 -0.197378 0
M  V30 21026 N 1980.24 4.62976 -0.144073 0
M  V30 21027 C 1980.98 5.72651 -0.292931 0
M  V30 21028 N 1980.47 6.91 -0.499138 0
M  V30 21029 N 1982.26 5.61625 -0.231008 0
M  V30 21030 H 1974.42 1.83033 -1.07762 0
M  V30 21031 H 1976.68 0.846871 -0.426044 0
M  V30 21032 H 1976.38 3.36291 -1.02963 0
M  V30 21033 H 1976.26 3.70909 0.686026 0
M  V30 21034 H 1978.65 2.7722 1.01159 0
M  V30 21035 H 1978.73 2.45257 -0.726829 0
M  V30 21036 H 1978.37 4.94045 -1.17821 0
M  V30 21037 H 1978.3 5.23424 0.577522 0
M  V30 21038 H 1980.79 3.77898 0.0109252 0
M  V30 21039 H 1981.1 7.70444 -0.603012 0
M  V30 21040 H 1979.45 6.92935 -0.535376 0
M  V30 21041 H 1982.64 4.68047 -0.0707224 0
M  V30 21042 H 1982.81 6.47052 -0.350455 0
M  V30 21043 N 1976.22 -0.133539 1.57033 0
M  V30 21044 C 1977.13 -1.18362 2.02553 0
M  V30 21045 C 1978.15 -1.46212 0.943294 0
M  V30 21046 O 1979.32 -1.57616 1.25376 0
M  V30 21047 C 1976.39 -2.49391 2.40842 0
M  V30 21048 C 1975.45 -2.29068 3.63079 0
M  V30 21049 C 1974.68 -3.53849 3.99533 0
M  V30 21050 O 1974.9 -4.60576 3.36491 0
M  V30 21051 O 1973.84 -3.45713 4.92713 0
M  V30 21052 H 1977.66 -0.827128 2.9222 0
M  V30 21053 H 1975.25 -0.343267 1.45403 0
M  V30 21054 H 1977.13 -3.26617 2.66269 0
M  V30 21055 H 1975.81 -2.84544 1.54326 0
M  V30 21056 H 1974.71 -1.49749 3.42821 0
M  V30 21057 H 1976.05 -1.98826 4.50254 0
M  V30 21058 N 1977.7 -1.52352 -0.403298 0
M  V30 21059 C 1978.61 -1.79011 -1.51631 0
M  V30 21060 C 1979.62 -0.676014 -1.60331 0
M  V30 21061 O 1980.8 -0.962058 -1.76936 0
M  V30 21062 C 1977.86 -1.94046 -2.8731 0
M  V30 21063 C 1976.93 -3.17955 -2.88449 0
M  V30 21064 C 1976.16 -3.32264 -4.17656 0
M  V30 21065 O 1976.38 -2.51703 -5.11861 0
M  V30 21066 O 1975.32 -4.25446 -4.25769 0
M  V30 21067 H 1979.14 -2.73495 -1.32038 0
M  V30 21068 H 1976.73 -1.37268 -0.589733 0
M  V30 21069 H 1978.61 -2.05724 -3.67771 0
M  V30 21070 H 1977.28 -1.02752 -3.06959 0
M  V30 21071 H 1976.19 -3.11731 -2.0682 0
M  V30 21072 H 1977.52 -4.0905 -2.7375 0
M  V30 21073 N 1979.18 0.660885 -1.43074 0
M  V30 21074 C 1980.14 1.75586 -1.47317 0
M  V30 21075 C 1981.14 1.56744 -0.358871 0
M  V30 21076 O 1982.33 1.62782 -0.620299 0
M  V30 21077 C 1979.46 3.14377 -1.31833 0
M  V30 21078 H 1980.65 1.73207 -2.44825 0
M  V30 21079 H 1978.21 0.871828 -1.29726 0
M  V30 21080 H 1978.94 3.22373 -0.353027 0
M  V30 21081 H 1978.73 3.29457 -2.12604 0
M  V30 21082 H 1980.22 3.94238 -1.37718 0
M  V30 21083 N 1980.65 1.29477 0.898527 0
M  V30 21084 C 1981.9 1.17284 1.64587 0
M  V30 21085 C 1982.22 -0.275718 1.93041 0
M  V30 21086 O 1981.49 -1.18847 1.55731 0
M  V30 21087 H 1980.07 0.431068 0.610073 0
M  V30 21088 H 1982.74 1.62419 1.07732 0
M  V30 21089 H 1981.83 1.72375 2.60179 0
M  V30 21090 N 1982.13 -1.10905 1.11972 0
M  V30 21091 C 1983.38 -1.82401 0.870296 0
M  V30 21092 C 1983.7 -1.85356 -0.605649 0
M  V30 21093 O 1982.97 -1.32812 -1.44006 0
M  V30 21094 H 1981.55 -0.675471 0.318979 0
M  V30 21095 H 1984.21 -1.34216 1.41323 0
M  V30 21096 H 1983.31 -2.86086 1.24746 0
M  V30 21097 N 1983.61 -0.910886 -1.2861 0
M  V30 21098 C 1985.03 -0.608615 -1.4754 0
M  V30 21099 C 1985.23 0.846869 -1.8284 0
M  V30 21100 O 1984.28 1.62618 -1.93162 0
M  V30 21101 C 1985.6 -1.54405 -2.5803 0
M  V30 21102 C 1987.14 -1.55046 -2.719 0
M  V30 21103 C 1987.62 -2.47245 -3.85531 0
M  V30 21104 N 1989.11 -2.45356 -3.9288 0
M  V30 21105 C 1989.84 -3.13394 -4.80179 0
M  V30 21106 N 1989.34 -3.90751 -5.72088 0
M  V30 21107 N 1991.13 -3.02495 -4.73765 0
M  V30 21108 H 1983.28 -1.8521 -1.03977 0
M  V30 21109 H 1985.55 -0.794235 -0.517585 0
M  V30 21110 H 1985.25 -2.5816 -2.38844 0
M  V30 21111 H 1985.13 -1.27299 -3.5507 0
M  V30 21112 H 1987.51 -0.520311 -2.90477 0
M  V30 21113 H 1987.6 -1.86195 -1.754 0
M  V30 21114 H 1987.24 -3.50361 -3.67709 0
M  V30 21115 H 1987.17 -2.134 -4.81423 0
M  V30 21116 H 1989.66 -1.89161 -3.27149 0
M  V30 21117 H 1989.97 -4.39694 -6.35523 0
M  V30 21118 H 1988.32 -3.94857 -5.71938 0
M  V30 21119 H 1991.51 -2.41567 -4.00953 0
M  V30 21120 H 1991.68 -3.55793 -5.41586 0
M  V30 21121 N 1985.09 1.42434 -0.674558 0
M  V30 21122 C 1986.37 1.95196 -0.125683 0
M  V30 21123 C 1986.75 1.61499 1.35946 0
M  V30 21124 O 1986.09 0.911023 2.09553 0
M  V30 21125 C 1986.3 3.46762 -0.39457 0
M  V30 21126 C 1987.65 4.2346 -0.310951 0
M  V30 21127 O 1988.68 3.54684 -0.328304 0
M  V30 21128 O 1987.53 5.45914 -0.252937 0
M  V30 21129 H 1984.63 0.826995 -0.00272875 0
M  V30 21130 H 1987.17 1.52263 -0.749271 0
M  V30 21131 H 1985.95 3.64493 -1.42339 0
M  V30 21132 H 1985.57 3.96742 0.261037 0
M  V30 21133 N 1986.57 0.417871 1.51959 0
M  V30 21134 C 1987.81 -0.154746 2.01507 0
M  V30 21135 C 1988.14 -1.44898 1.30497 0
M  V30 21136 O 1987.41 -1.91043 0.433536 0
M  V30 21137 H 1985.99 -0.0601759 0.744572 0
M  V30 21138 H 1988.65 0.556118 1.86798 0
M  V30 21139 H 1987.74 -0.344616 3.10192 0
M  V30 21140 N 1988.04 -1.56898 0.148573 0
M  V30 21141 C 1989.29 -1.95788 -0.501154 0
M  V30 21142 C 1989.61 -1.03451 -1.65297 0
M  V30 21143 O 1988.88 -0.0963607 -1.95663 0
M  V30 21144 H 1987.46 -0.722922 -0.188129 0
M  V30 21145 H 1990.13 -1.93603 0.224439 0
M  V30 21146 H 1989.22 -2.99547 -0.876258 0
M  V30 21147 N 1989.52 0.125209 -1.57102 0
M  V30 21148 C 1990.75 0.852378 -1.89075 0
M  V30 21149 C 1991.17 1.72938 -0.739878 0
M  V30 21150 O 1990.53 1.78633 0.309828 0
M  V30 21151 C 1990.58 1.66688 -3.19762 0
M  V30 21152 O 1989.68 2.77324 -3.0523 0
M  V30 21153 H 1989.02 0.236103 -0.620606 0
M  V30 21154 H 1991.55 0.109473 -2.04307 0
M  V30 21155 H 1991.56 2.0574 -3.52328 0
M  V30 21156 H 1990.24 1.02303 -4.03121 0
M  V30 21157 H 1988.82 2.41519 -2.84118 0
M  V30 21158 N 1991 1.52564 0.395213 0
M  V30 21159 C 1992.23 1.7147 1.16674 0
M  V30 21160 C 1992.65 0.429414 1.83133 0
M  V30 21161 O 1992.01 -0.614309 1.70575 0
M  V30 21162 C 1992.06 2.86088 2.19513 0
M  V30 21163 O 1991.16 2.52628 3.25964 0
M  V30 21164 H 1990.5 0.570379 0.339947 0
M  V30 21165 H 1993.03 1.99329 0.461411 0
M  V30 21166 H 1993.04 3.11404 2.63612 0
M  V30 21167 H 1991.72 3.79333 1.70527 0
M  V30 21168 H 1990.29 2.38032 2.87046 0
M  V30 21169 N 1992.48 -0.653289 1.43422 0
M  V30 21170 C 1993.41 -1.77779 1.51383 0
M  V30 21171 C 1994.39 -1.6606 0.368515 0
M  V30 21172 O 1995.57 -1.85157 0.585721 0
M  V30 21173 C 1992.7 -3.16206 1.43635 0
M  V30 21174 C 1991.66 -3.42688 2.56415 0
M  V30 21175 C 1990.98 -4.80915 2.3372 0
M  V30 21176 C 1992.28 -3.3744 3.98662 0
M  V30 21177 H 1993.98 -1.71374 2.45502 0
M  V30 21178 H 1991.52 -0.823062 1.1816 0
M  V30 21179 H 1993.48 -3.94627 1.47808 0
M  V30 21180 H 1992.2 -3.23341 0.460202 0
M  V30 21181 H 1990.86 -2.66638 2.51594 0
M  V30 21182 H 1990.51 -4.84726 1.34349 0
M  V30 21183 H 1990.21 -4.99594 3.09321 0
M  V30 21184 H 1991.73 -5.61594 2.39677 0
M  V30 21185 H 1993.15 -4.05798 4.0497 0
M  V30 21186 H 1991.54 -3.67656 4.74288 0
M  V30 21187 H 1992.61 -2.35624 4.23803 0
M  V30 21188 N 1993.96 -1.29952 -0.891648 0
M  V30 21189 C 1995.2 -1.18155 -1.63963 0
M  V30 21190 C 1995.53 0.265477 -1.93184 0
M  V30 21191 O 1994.8 1.1802 -1.56359 0
M  V30 21192 H 1993.38 -0.434297 -0.607779 0
M  V30 21193 H 1996.04 -1.62988 -1.06869 0
M  V30 21194 H 1995.13 -1.73753 -2.59261 0
M  V30 21195 N 1995.44 1.1031 -1.12559 0
M  V30 21196 C 1996.68 1.82297 -0.881699 0
M  V30 21197 C 1997.01 1.85258 0.592431 0
M  V30 21198 O 1996.27 1.30985 1.45401 0
M  V30 21199 C 1996.56 3.28699 -1.40326 0
M  V30 21200 C 1996.23 3.45885 -2.89266 0
M  V30 21201 C 1994.89 3.50283 -3.29933 0
M  V30 21202 C 1997.24 3.51172 -3.85134 0
M  V30 21203 C 1994.57 3.57536 -4.65172 0
M  V30 21204 C 1996.92 3.59958 -5.20205 0
M  V30 21205 C 1995.59 3.62621 -5.60413 0
M  V30 21206 H 1994.86 0.667073 -0.322636 0
M  V30 21207 H 1997.51 1.30015 -1.406 0
M  V30 21208 H 1995.81 3.83557 -0.799456 0
M  V30 21209 H 1997.51 3.82913 -1.19074 0
M  V30 21210 H 1994.1 3.4314 -2.56813 0
M  V30 21211 H 1998.28 3.47023 -3.54808 0
M  V30 21212 H 1993.54 3.5788 -4.95713 0
M  V30 21213 H 1997.71 3.62993 -5.94314 0
M  V30 21214 H 1995.34 3.67994 -6.65195 0
M  V30 21215 N 1996.91 0.917694 1.28125 0
M  V30 21216 C 1997.86 0.407628 2.27172 0
M  V30 21217 C 1998.83 -0.520056 1.57749 0
M  V30 21218 O 2000.02 -0.441394 1.85624 0
M  V30 21219 C 1997.16 -0.342648 3.43395 0
M  V30 21220 C 1996.27 0.617993 4.27557 0
M  V30 21221 C 1995.4 -0.151124 5.30985 0
M  V30 21222 C 1994.44 0.802876 6.06812 0
M  V30 21223 N 1993.58 0.0670251 7.02068 0
M  V30 21224 H 1998.42 1.25728 2.70179 0
M  V30 21225 H 1995.96 0.631273 1.32866 0
M  V30 21226 H 1997.91 -0.793873 4.09577 0
M  V30 21227 H 1996.54 -1.15661 3.01367 0
M  V30 21228 H 1995.6 1.18775 3.61382 0
M  V30 21229 H 1996.91 1.3475 4.80254 0
M  V30 21230 H 1996.06 -0.662729 6.03069 0
M  V30 21231 H 1994.8 -0.913657 4.79065 0
M  V30 21232 H 1993.81 1.32582 5.33575 0
M  V30 21233 H 1995.03 1.56503 6.6082 0
M  V30 21234 H 1992.98 -0.677445 6.52493 0
M  V30 21235 H 1992.89 0.736283 7.52406 0
M  V30 21236 H 1994.16 -0.424255 7.78345 0
M  V30 21237 N 1998.39 -1.42074 0.682102 0
M  V30 21238 C 1999.81 -1.55662 0.352347 0
M  V30 21239 C 2000.01 -1.66032 -1.14174 0
M  V30 21240 O 1999.06 -1.63128 -1.92732 0
M  V30 21241 C 2000.38 -2.80285 1.08907 0
M  V30 21242 C 2001.92 -2.94066 1.0721 0
M  V30 21243 C 2002.4 -4.2156 1.7903 0
M  V30 21244 N 2003.89 -4.28488 1.75933 0
M  V30 21245 C 2004.63 -5.25968 2.28354 0
M  V30 21246 N 2004.12 -6.29557 2.89188 0
M  V30 21247 N 2005.91 -5.17815 2.18686 0
M  V30 21248 H 1998.07 -1.33588 1.65131 0
M  V30 21249 H 2000.33 -0.643549 0.696096 0
M  V30 21250 H 2000.03 -2.78786 2.14409 0
M  V30 21251 H 1999.91 -3.71399 0.658975 0
M  V30 21252 H 2002.3 -2.95089 0.0253867 0
M  V30 21253 H 2002.38 -2.04163 1.54114 0
M  V30 21254 H 2002.02 -4.21298 2.83673 0
M  V30 21255 H 2001.95 -5.10411 1.2957 0
M  V30 21256 H 2004.44 -3.54257 1.31568 0
M  V30 21257 H 2004.75 -7.00306 3.26789 0
M  V30 21258 H 2003.1 -6.30098 2.9326 0
M  V30 21259 H 2006.29 -4.3581 1.70843 0
M  V30 21260 H 2006.46 -5.9362 2.59845 0
M  V30 21261 N 1999.87 -0.425924 -1.51735 0
M  V30 21262 C 2001.09 0.145767 -2.06887 0
M  V30 21263 C 2001.52 1.36671 -1.29239 0
M  V30 21264 O 2000.88 1.78323 -0.327176 0
M  V30 21265 C 2000.93 0.457951 -3.5768 0
M  V30 21266 O 2000.03 1.54629 -3.82314 0
M  V30 21267 H 1999.37 0.00686619 -0.663964 0
M  V30 21268 H 2001.9 -0.603968 -1.95482 0
M  V30 21269 H 2001.91 0.71173 -4.01744 0
M  V30 21270 H 2000.59 -0.434483 -4.13624 0
M  V30 21271 H 1999.16 1.28336 -3.5012 0
M  V30 21272 N 2001.35 1.56817 -0.156891 0
M  V30 21273 C 2002.58 2.00516 0.497682 0
M  V30 21274 C 2002.99 1.03609 1.58309 0
M  V30 21275 O 2002.33 0.0266573 1.83681 0
M  V30 21276 C 2002.39 3.40648 1.14888 0
M  V30 21277 C 2002.05 4.56531 0.206879 0
M  V30 21278 C 2003.05 5.16774 -0.569267 0
M  V30 21279 C 2000.74 5.02186 0.106904 0
M  V30 21280 C 2002.73 6.21089 -1.43274 0
M  V30 21281 C 2000.42 6.06354 -0.760162 0
M  V30 21282 C 2001.42 6.65675 -1.52858 0
M  V30 21283 O 2001.1 7.67825 -2.38118 0
M  V30 21284 H 2000.84 0.662754 0.133164 0
M  V30 21285 H 2003.39 2.03855 -0.251425 0
M  V30 21286 H 2001.62 3.34177 1.94583 0
M  V30 21287 H 2003.31 3.68391 1.70419 0
M  V30 21288 H 2004.07 4.82394 -0.502119 0
M  V30 21289 H 1999.95 4.55735 0.694764 0
M  V30 21290 H 2003.5 6.6732 -2.03298 0
M  V30 21291 H 1999.39 6.4016 -0.828566 0
M  V30 21292 H 2000.16 7.85087 -2.31475 0
M  V30 21293 N 2002.83 -0.116876 1.57166 0
M  V30 21294 C 2003.74 -1.16207 2.03797 0
M  V30 21295 C 2004.75 -1.45203 0.958749 0
M  V30 21296 O 2005.93 -1.56277 1.27041 0
M  V30 21297 C 2002.99 -2.46823 2.43474 0
M  V30 21298 C 2002.05 -2.25205 3.65488 0
M  V30 21299 C 2001.29 -3.49592 4.03263 0
M  V30 21300 O 2001.51 -4.56981 3.41357 0
M  V30 21301 O 2000.44 -3.40468 4.96352 0
M  V30 21302 H 2004.27 -0.796087 2.9308 0
M  V30 21303 H 2001.85 -0.327825 1.45759 0
M  V30 21304 H 2003.74 -3.23774 2.69719 0
M  V30 21305 H 2002.41 -2.82891 1.57335 0
M  V30 21306 H 2001.32 -1.46104 3.4439 0
M  V30 21307 H 2002.65 -1.94039 4.52338 0
M  V30 21308 N 2004.3 -1.52772 -0.387116 0
M  V30 21309 C 2005.21 -1.8061 -1.49724 0
M  V30 21310 C 2006.23 -0.692981 -1.59605 0
M  V30 21311 O 2007.41 -0.98077 -1.75906 0
M  V30 21312 C 2004.47 -1.97083 -2.85236 0
M  V30 21313 C 2003.53 -3.20997 -2.8506 0
M  V30 21314 C 2002.76 -3.36675 -4.14108 0
M  V30 21315 O 2002.99 -2.57118 -5.09163 0
M  V30 21316 O 2001.92 -4.29938 -4.21233 0
M  V30 21317 H 2005.75 -2.7488 -1.2913 0
M  V30 21318 H 2003.33 -1.37886 -0.57514 0
M  V30 21319 H 2005.21 -2.09614 -3.65568 0
M  V30 21320 H 2003.89 -1.06002 -3.05852 0
M  V30 21321 H 2002.8 -3.13907 -2.03503 0
M  V30 21322 H 2004.13 -4.1193 -2.69396 0
M  V30 21323 N 2005.78 0.645673 -1.43767 0
M  V30 21324 C 2006.73 1.75163 -1.45952 0
M  V30 21325 C 2007.72 1.57541 -0.327037 0
M  V30 21326 O 2008.91 1.67525 -0.571347 0
M  V30 21327 C 2006.04 3.13787 -1.39257 0
M  V30 21328 C 2005.12 3.3693 -2.57564 0
M  V30 21329 N 2005.51 3.30508 -3.82881 0
M  V30 21330 C 2003.81 3.67676 -2.52449 0
M  V30 21331 C 2004.51 3.5394 -4.61629 0
M  V30 21332 N 2003.49 3.76116 -3.92476 0
M  V30 21333 H 2007.29 1.68634 -2.40707 0
M  V30 21334 H 2004.8 0.847619 -1.38525 0
M  V30 21335 H 2006.8 3.93079 -1.38905 0
M  V30 21336 H 2005.46 3.21492 -0.455285 0
M  V30 21337 H 2006.47 3.09751 -4.1506 0
M  V30 21338 H 2003.15 3.8245 -1.67445 0
M  V30 21339 H 2004.54 3.5469 -5.70653 0
M  V30 21340 N 2007.26 1.30423 0.884744 0
M  V30 21341 C 2008.51 1.18625 1.63129 0
M  V30 21342 C 2008.82 -0.257953 1.93892 0
M  V30 21343 O 2010.03 -0.497448 2.66904 0
M  V30 21344 C 2008.48 2.0757 2.94011 0
M  V30 21345 C 2008.09 3.569 2.70788 0
M  V30 21346 C 2009.84 2.04535 3.71975 0
M  V30 21347 C 2007.74 4.37901 3.97488 0
M  V30 21348 H 2006.67 0.440391 0.612023 0
M  V30 21349 H 2009.32 1.55172 0.979478 0
M  V30 21350 H 2007.71 1.63905 3.60487 0
M  V30 21351 H 2008.88 4.08715 2.12812 0
M  V30 21352 H 2007.19 3.61761 2.06199 0
M  V30 21353 H 2009.79 2.62305 4.6594 0
M  V30 21354 H 2010.13 1.02888 4.03385 0
M  V30 21355 H 2010.67 2.46322 3.12362 0
M  V30 21356 H 2007.41 5.40244 3.71236 0
M  V30 21357 H 2006.93 3.9085 4.54968 0
M  V30 21358 H 2008.61 4.49347 4.65506 0
M  V30 21359 N 2008.74 -1.09711 1.13142 0
M  V30 21360 C 2010.15 -1.63323 0.904565 0
M  V30 21361 C 2010.5 -1.88052 -0.559546 0
M  V30 21362 O 2009.62 -1.62804 -1.42562 0
M  V30 21363 C 2010.22 -2.96707 1.63556 0
M  V30 21364 C 2008.78 -3.47156 1.45465 0
M  V30 21365 C 2007.93 -2.21625 1.66667 0
M  V30 21366 H 2010.88 -0.931125 1.28514 0
M  V30 21367 H 2010.9 -3.64525 1.09094 0
M  V30 21368 H 2010.41 -2.78677 2.70113 0
M  V30 21369 H 2008.51 -3.70315 0.411972 0
M  V30 21370 H 2008.62 -4.24784 2.21576 0
M  V30 21371 H 2006.99 -2.30136 1.0913 0
M  V30 21372 H 2007.77 -2.06118 2.74537 0
M  V30 21373 N 2010.22 -0.924476 -1.27637 0
M  V30 21374 C 2011.45 -0.57859 -1.98333 0
M  V30 21375 C 2011.85 0.846979 -1.69183 0
M  V30 21376 O 2011.2 1.57405 -0.94706 0
M  V30 21377 C 2011.26 -0.720732 -3.52201 0
M  V30 21378 C 2010.92 -2.11783 -4.04966 0
M  V30 21379 C 2011.92 -3.09167 -4.17986 0
M  V30 21380 C 2009.61 -2.4339 -4.39393 0
M  V30 21381 C 2011.6 -4.36269 -4.64702 0
M  V30 21382 C 2009.29 -3.70729 -4.85802 0
M  V30 21383 C 2010.28 -4.66982 -4.98415 0
M  V30 21384 O 2009.97 -5.92055 -5.43807 0
M  V30 21385 H 2009.7 -0.218317 -0.639776 0
M  V30 21386 H 2012.26 -1.24281 -1.63534 0
M  V30 21387 H 2010.49 0.000580874 -3.867 0
M  V30 21388 H 2012.18 -0.380377 -4.04114 0
M  V30 21389 H 2012.94 -2.86068 -3.9165 0
M  V30 21390 H 2008.82 -1.69216 -4.2882 0
M  V30 21391 H 2012.37 -5.11402 -4.74462 0
M  V30 21392 H 2008.26 -3.93647 -5.11578 0
M  V30 21393 H 2009.03 -5.94997 -5.62068 0
M  V30 21394 N 2011.69 1.41711 -0.689627 0
M  V30 21395 C 2012.92 2.05652 -0.226938 0
M  V30 21396 C 2013.34 1.51875 1.12158 0
M  V30 21397 O 2012.69 0.664544 1.69971 0
M  V30 21398 C 2012.75 3.61102 -0.169503 0
M  V30 21399 O 2012.47 4.12888 -1.46475 0
M  V30 21400 C 2013.97 4.4218 0.314894 0
M  V30 21401 H 2011.19 0.66244 -0.10684 0
M  V30 21402 H 2013.73 1.81588 -0.940538 0
M  V30 21403 H 2011.89 3.84226 0.49488 0
M  V30 21404 H 2012.3 5.06884 -1.34791 0
M  V30 21405 H 2013.77 5.51162 0.303964 0
M  V30 21406 H 2014.25 4.17848 1.35275 0
M  V30 21407 H 2014.86 4.24107 -0.318278 0
M  V30 21408 N 2013.17 0.433965 1.51507 0
M  V30 21409 C 2014.12 -0.397051 2.24516 0
M  V30 21410 C 2015.11 -0.992896 1.26611 0
M  V30 21411 O 2016.3 -0.911595 1.5172 0
M  V30 21412 C 2013.43 -1.49953 3.08819 0
M  V30 21413 C 2012.51 -0.913247 4.1415 0
M  V30 21414 N 2012.9 -0.0558268 5.05769 0
M  V30 21415 C 2011.2 -1.18118 4.30074 0
M  V30 21416 C 2011.9 0.27308 5.81059 0
M  V30 21417 N 2010.88 -0.342445 5.4252 0
M  V30 21418 H 2014.68 0.264043 2.92712 0
M  V30 21419 H 2012.2 0.245838 1.60528 0
M  V30 21420 H 2014.19 -2.1077 3.59696 0
M  V30 21421 H 2012.85 -2.163 2.42166 0
M  V30 21422 H 2013.86 0.310359 5.16969 0
M  V30 21423 H 2010.54 -1.84239 3.74649 0
M  V30 21424 H 2011.93 0.970595 6.64853 0
M  V30 21425 N 2014.65 -1.56732 0.165206 0
M  V30 21426 C 2015.58 -2.13493 -0.805985 0
M  V30 21427 C 2016.56 -1.06335 -1.23011 0
M  V30 21428 O 2017.75 -1.34275 -1.32297 0
M  V30 21429 C 2014.87 -2.6695 -2.08459 0
M  V30 21430 C 2013.92 -3.86423 -1.80497 0
M  V30 21431 S 2014.75 -5.26462 -0.979671 0
M  V30 21432 C 2015.91 -5.83321 -2.26908 0
M  V30 21433 H 2016.14 -2.95536 -0.32336 0
M  V30 21434 H 2013.67 -1.54321 -0.0493706 0
M  V30 21435 H 2015.63 -2.98398 -2.81903 0
M  V30 21436 H 2014.29 -1.85003 -2.53836 0
M  V30 21437 H 2013.49 -4.22134 -2.75352 0
M  V30 21438 H 2013.09 -3.55831 -1.15153 0
M  V30 21439 H 2015.38 -5.95863 -3.22419 0
M  V30 21440 H 2016.32 -6.80527 -1.95675 0
M  V30 21441 H 2016.73 -5.11694 -2.38388 0
M  V30 21442 N 2016.13 0.10854 -1.57226 0
M  V30 21443 C 2017.08 1.15155 -2.02094 0
M  V30 21444 C 2018.07 1.42263 -0.919651 0
M  V30 21445 O 2019.28 1.42102 -1.10485 0
M  V30 21446 H 2015.65 0.388515 -0.643863 0
M  V30 21447 H 2017.62 0.746707 -2.88906 0
M  V30 21448 C 2016.37 2.46727 -2.44992 0
M  V30 21449 H 2015.69 2.26708 -3.29307 0
M  V30 21450 H 2017.13 3.18242 -2.80175 0
M  V30 21451 C 2015.59 3.10059 -1.31776 0
M  V30 21452 O 2016.12 3.96577 -0.639471 0
M  V30 21453 N 2014.33 2.70099 -1.07215 0
M  V30 21454 H 2013.88 1.99837 -1.62552 0
M  V30 21455 H 2013.83 3.12802 -0.316602 0
M  V30 21456 N 2017.61 1.52975 0.379009 0
M  V30 21457 C 2018.85 1.68172 1.12082 0
M  V30 21458 C 2019.18 0.429215 1.90218 0
M  V30 21459 O 2018.45 -0.556561 1.87828 0
M  V30 21460 H 2017.03 0.619935 0.416761 0
M  V30 21461 H 2019.69 1.90123 0.428883 0
M  V30 21462 H 2018.78 2.53672 1.81815 0
M  V30 21463 N 2019.08 -0.63804 1.44107 0
M  V30 21464 C 2020.33 -1.39496 1.46237 0
M  V30 21465 C 2020.65 -1.94776 0.093533 0
M  V30 21466 O 2019.92 -1.75361 -0.873231 0
M  V30 21467 H 2018.5 -0.517763 0.538452 0
M  V30 21468 H 2021.17 -0.751452 1.79831 0
M  V30 21469 H 2020.26 -2.22974 2.18378 0
M  V30 21470 N 2020.56 -1.3089 -0.877815 0
M  V30 21471 C 2021.51 -1.17878 -1.98427 0
M  V30 21472 C 2022.48 -0.0664893 -1.65967 0
M  V30 21473 O 2023.66 -0.237956 -1.8931 0
M  V30 21474 C 2020.8 -0.883984 -3.33586 0
M  V30 21475 C 2019.92 -2.07885 -3.78692 0
M  V30 21476 C 2019.05 -1.72152 -5.02531 0
M  V30 21477 C 2018.09 -2.88092 -5.40064 0
M  V30 21478 N 2017.23 -2.52607 -6.55083 0
M  V30 21479 H 2022.07 -2.12531 -2.08889 0
M  V30 21480 H 2019.61 -1.05732 -1.0227 0
M  V30 21481 H 2021.56 -0.693656 -4.11393 0
M  V30 21482 H 2020.19 0.0256933 -3.2279 0
M  V30 21483 H 2019.25 -2.3802 -2.96733 0
M  V30 21484 H 2020.56 -2.94687 -4.02444 0
M  V30 21485 H 2019.71 -1.49536 -5.87983 0
M  V30 21486 H 2018.45 -0.825297 -4.80666 0
M  V30 21487 H 2017.46 -3.11366 -4.53135 0
M  V30 21488 H 2018.68 -3.78412 -5.63898 0
M  V30 21489 H 2016.63 -1.65499 -6.3478 0
M  V30 21490 H 2016.54 -3.3294 -6.78739 0
M  V30 21491 H 2017.81 -2.33365 -7.43748 0
M  V30 21492 N 2022.04 1.0911 -1.13723 0
M  V30 21493 C 2022.99 2.15834 -0.817576 0
M  V30 21494 C 2023.96 1.64613 0.221749 0
M  V30 21495 O 2025.14 1.90572 0.0932703 0
M  V30 21496 C 2022.28 3.43851 -0.293315 0
M  V30 21497 C 2021.4 4.08956 -1.39208 0
M  V30 21498 C 2020.53 5.24741 -0.825823 0
M  V30 21499 C 2019.57 5.81774 -1.90277 0
M  V30 21500 N 2018.71 6.88916 -1.35421 0
M  V30 21501 H 2023.55 2.42519 -1.73172 0
M  V30 21502 H 2021.08 1.19026 -0.864368 0
M  V30 21503 H 2023.04 4.1719 0.0288002 0
M  V30 21504 H 2021.67 3.17474 0.583951 0
M  V30 21505 H 2020.72 3.33449 -1.83073 0
M  V30 21506 H 2022.04 4.47372 -2.2059 0
M  V30 21507 H 2021.19 6.0499 -0.455184 0
M  V30 21508 H 2019.93 4.87696 0.0190362 0
M  V30 21509 H 2018.93 5.00185 -2.28244 0
M  V30 21510 H 2020.16 6.2088 -2.75109 0
M  V30 21511 H 2018.1 6.53844 -0.531412 0
M  V30 21512 H 2018.02 7.26118 -2.10448 0
M  V30 21513 H 2019.29 7.72913 -1.01125 0
M  V30 21514 N 2023.52 0.931232 1.27145 0
M  V30 21515 C 2024.47 0.423636 2.2871 0
M  V30 21516 C 2025.46 -0.493886 1.62041 0
M  V30 21517 O 2026.67 -0.373198 1.76089 0
M  V30 21518 H 2023.04 0.118436 0.742615 0
M  V30 21519 H 2025.01 1.29297 2.68933 0
M  V30 21520 C 2023.76 -0.305051 3.46359 0
M  V30 21521 H 2023.08 0.391786 3.97876 0
M  V30 21522 H 2024.52 -0.62459 4.19374 0
M  V30 21523 C 2022.98 -1.5193 3.00697 0
M  V30 21524 O 2023.51 -2.61795 3.04674 0
M  V30 21525 N 2021.72 -1.37237 2.56153 0
M  V30 21526 H 2021.27 -0.478522 2.53116 0
M  V30 21527 H 2021.22 -2.18605 2.25963 0
M  V30 21528 N 2025 -1.41343 0.697132 0
M  V30 21529 C 2026.25 -2.00806 0.228308 0
M  V30 21530 C 2026.57 -1.55497 -1.17668 0
M  V30 21531 O 2025.84 -0.786272 -1.79428 0
M  V30 21532 H 2024.42 -0.74255 0.0814173 0
M  V30 21533 H 2027.08 -1.72946 0.898641 0
M  V30 21534 H 2026.17 -3.11121 0.246954 0
M  V30 21535 N 2026.48 -0.441993 -1.51275 0
M  V30 21536 C 2027.89 -0.0945327 -1.5932 0
M  V30 21537 C 2028.09 1.39653 -1.45256 0
M  V30 21538 O 2027.15 2.16693 -1.29616 0
M  V30 21539 C 2028.46 -0.618795 -2.94264 0
M  V30 21540 C 2030.01 -0.579646 -3.07586 0
M  V30 21541 C 2030.48 -1.08096 -4.45061 0
M  V30 21542 N 2031.97 -1.03914 -4.51393 0
M  V30 21543 C 2032.71 -1.39786 -5.561 0
M  V30 21544 N 2032.21 -1.82965 -6.68203 0
M  V30 21545 N 2034 -1.31573 -5.46484 0
M  V30 21546 H 2026.15 -1.4121 -1.58662 0
M  V30 21547 H 2028.41 -0.582182 -0.748176 0
M  V30 21548 H 2028.12 -1.66222 -3.09941 0
M  V30 21549 H 2027.99 -0.0462651 -3.77172 0
M  V30 21550 H 2030.38 0.454801 -2.91574 0
M  V30 21551 H 2030.46 -1.18863 -2.26506 0
M  V30 21552 H 2030.1 -2.1139 -4.61819 0
M  V30 21553 H 2030.03 -0.448465 -5.24687 0
M  V30 21554 H 2032.53 -0.722104 -3.70937 0
M  V30 21555 H 2032.84 -2.08561 -7.44125 0
M  V30 21556 H 2031.18 -1.86895 -6.69399 0
M  V30 21557 H 2034.37 -0.977017 -4.5779 0
M  V30 21558 H 2034.55 -1.59857 -6.27973 0
M  V30 21559 N 2027.95 1.56642 -0.173515 0
M  V30 21560 C 2029.2 1.96124 0.470974 0
M  V30 21561 C 2029.52 1.06229 1.6424 0
M  V30 21562 O 2030.72 1.35402 2.35327 0
M  V30 21563 C 2029.18 3.4874 0.889284 0
M  V30 21564 C 2028.79 4.47264 -0.256662 0
M  V30 21565 C 2030.53 3.97037 1.50207 0
M  V30 21566 C 2028.44 5.91122 0.181401 0
M  V30 21567 H 2027.37 0.732267 0.179724 0
M  V30 21568 H 2030.02 1.81619 -0.262096 0
M  V30 21569 H 2028.4 3.58672 1.6784 0
M  V30 21570 H 2029.57 4.49049 -1.03401 0
M  V30 21571 H 2027.89 4.09038 -0.779546 0
M  V30 21572 H 2030.49 5.01974 1.8419 0
M  V30 21573 H 2030.83 3.401 2.40078 0
M  V30 21574 H 2031.36 3.90131 0.777351 0
M  V30 21575 H 2028.1 6.51936 -0.682591 0
M  V30 21576 H 2027.62 5.92639 0.924063 0
M  V30 21577 H 2029.3 6.43979 0.624532 0
M  V30 21578 N 2029.43 -0.1002 1.57281 0
M  V30 21579 C 2030.36 -1.12278 2.04734 0
M  V30 21580 C 2031.34 -1.42079 0.935281 0
M  V30 21581 O 2032.53 -1.52197 1.20622 0
M  V30 21582 C 2029.66 -2.44402 2.46748 0
M  V30 21583 C 2028.61 -2.29021 3.61571 0
M  V30 21584 C 2027.94 -3.66276 3.89545 0
M  V30 21585 C 2029.24 -1.73501 4.9264 0
M  V30 21586 H 2030.93 -0.728019 2.90414 0
M  V30 21587 H 2028.48 -0.348753 1.39713 0
M  V30 21588 H 2030.43 -3.16206 2.78553 0
M  V30 21589 H 2029.15 -2.85804 1.58061 0
M  V30 21590 H 2027.81 -1.59664 3.30005 0
M  V30 21591 H 2027.46 -4.05197 2.98034 0
M  V30 21592 H 2027.16 -3.56833 4.66845 0
M  V30 21593 H 2028.69 -4.39555 4.2382 0
M  V30 21594 H 2030.1 -2.35141 5.22859 0
M  V30 21595 H 2028.5 -1.7483 5.74068 0
M  V30 21596 H 2029.57 -0.69403 4.79908 0
M  V30 21597 N 2030.91 -1.53174 -0.370891 0
M  V30 21598 C 2032.14 -1.73 -1.13484 0
M  V30 21599 C 2032.55 -0.456538 -1.83197 0
M  V30 21600 O 2031.91 0.570218 -1.73363 0
M  V30 21601 C 2031.96 -2.89186 -2.16919 0
M  V30 21602 O 2031.68 -4.11604 -1.50045 0
M  V30 21603 C 2033.18 -3.20841 -3.05901 0
M  V30 21604 H 2030.4 -0.578752 -0.33954 0
M  V30 21605 H 2032.95 -1.99897 -0.43143 0
M  V30 21606 H 2031.1 -2.64699 -2.82866 0
M  V30 21607 H 2031.52 -4.76629 -2.18918 0
M  V30 21608 H 2032.99 -4.05557 -3.7447 0
M  V30 21609 H 2033.47 -2.35982 -3.70418 0
M  V30 21610 H 2034.07 -3.47235 -2.45577 0
M  V30 21611 N 2032.39 0.630389 -1.44443 0
M  V30 21612 C 2033.32 1.75348 -1.54192 0
M  V30 21613 C 2034.3 1.65453 -0.394887 0
M  V30 21614 O 2035.48 1.84201 -0.615103 0
M  V30 21615 C 2032.61 3.13881 -1.48647 0
M  V30 21616 C 2031.57 3.38566 -2.61835 0
M  V30 21617 C 2030.89 4.77136 -2.41341 0
M  V30 21618 C 2032.19 3.31055 -4.0398 0
M  V30 21619 H 2033.89 1.67446 -2.48198 0
M  V30 21620 H 2031.43 0.804159 -1.19454 0
M  V30 21621 H 2033.39 3.92226 -1.54068 0
M  V30 21622 H 2032.11 3.22568 -0.511585 0
M  V30 21623 H 2030.77 2.62602 -2.55805 0
M  V30 21624 H 2030.42 4.82527 -1.42043 0
M  V30 21625 H 2030.12 4.9461 -3.1723 0
M  V30 21626 H 2031.64 5.57709 -2.48581 0
M  V30 21627 H 2033.06 3.99304 -4.11375 0
M  V30 21628 H 2031.45 3.60064 -4.80077 0
M  V30 21629 H 2032.52 2.28852 -4.27498 0
M  V30 21630 N 2033.87 1.31354 0.870861 0
M  V30 21631 C 2035.28 1.18891 1.43951 0
M  V30 21632 C 2035.63 -0.204961 1.95126 0
M  V30 21633 O 2034.75 -1.10266 1.862 0
M  V30 21634 C 2035.35 2.15226 2.61655 0
M  V30 21635 C 2033.91 2.06699 3.14567 0
M  V30 21636 C 2033.05 2.04505 1.87277 0
M  V30 21637 H 2036 1.43418 0.679486 0
M  V30 21638 H 2036.03 1.74134 3.38316 0
M  V30 21639 H 2035.54 3.16664 2.24378 0
M  V30 21640 H 2033.64 1.08452 3.56467 0
M  V30 21641 H 2033.75 2.95763 3.7691 0
M  V30 21642 H 2032.12 1.49508 2.06202 0
M  V30 21643 H 2032.9 3.07698 1.52239 0
M  V30 21644 N 2035.34 -1.08505 1.143 0
M  V30 21645 C 2036.76 -1.32937 0.883172 0
M  V30 21646 C 2036.96 -1.95791 -0.47623 0
M  V30 21647 O 2036.02 -2.2103 -1.22073 0
M  V30 21648 C 2037.33 -2.23189 2.01512 0
M  V30 21649 C 2038.88 -2.36672 2.0483 0
M  V30 21650 C 2039.35 -3.30266 3.17314 0
M  V30 21651 N 2040.84 -3.37843 3.16886 0
M  V30 21652 C 2041.58 -4.1029 4.00561 0
M  V30 21653 N 2041.07 -4.85454 4.94274 0
M  V30 21654 N 2042.87 -4.06111 3.88626 0
M  V30 21655 H 2035.02 -0.660869 2.01857 0
M  V30 21656 H 2037.28 -0.353741 0.879529 0
M  V30 21657 H 2036.99 -1.84248 2.99576 0
M  V30 21658 H 2036.86 -3.23644 1.93738 0
M  V30 21659 H 2039.25 -2.74873 1.07373 0
M  V30 21660 H 2039.33 -1.35963 2.16674 0
M  V30 21661 H 2038.97 -2.92787 4.15016 0
M  V30 21662 H 2038.9 -4.30901 3.02707 0
M  V30 21663 H 2041.39 -2.84257 2.49011 0
M  V30 21664 H 2041.71 -5.38193 5.54588 0
M  V30 21665 H 2040.05 -4.8451 4.98272 0
M  V30 21666 H 2043.24 -3.46497 3.14734 0
M  V30 21667 H 2043.42 -4.6231 4.54064 0
M  V30 21668 N 2036.82 -0.937962 -1.26649 0
M  V30 21669 C 2038.05 -0.59993 -1.98534 0
M  V30 21670 C 2038.47 0.817397 -1.69411 0
M  V30 21671 O 2037.83 1.55011 -0.940284 0
M  V30 21672 C 2037.88 -0.844738 -3.50566 0
M  V30 21673 O 2036.98 0.0847162 -4.12313 0
M  V30 21674 H 2036.32 -0.229839 -0.622953 0
M  V30 21675 H 2038.85 -1.26002 -1.61198 0
M  V30 21676 H 2038.86 -0.764359 -4.00776 0
M  V30 21677 H 2037.54 -1.87783 -3.71094 0
M  V30 21678 H 2036.11 -0.0464484 -3.72871 0
M  V30 21679 N 2038.3 1.40971 -0.704618 0
M  V30 21680 C 2039.25 2.32576 -0.0337552 0
M  V30 21681 C 2040.24 1.51452 0.758852 0
M  V30 21682 O 2041.45 1.67327 0.663455 0
M  V30 21683 H 2037.82 0.751959 0.00788634 0
M  V30 21684 H 2039.79 2.86819 -0.823248 0
M  V30 21685 C 2038.54 3.36326 0.882061 0
M  V30 21686 H 2037.87 3.98807 0.281575 0
M  V30 21687 H 2039.31 4.02942 1.31962 0
M  V30 21688 C 2037.76 2.70931 2.00245 0
M  V30 21689 O 2038.29 2.56412 3.09218 0
M  V30 21690 N 2036.5 2.29485 1.78284 0
M  V30 21691 H 2036.05 2.41494 0.89657 0
M  V30 21692 H 2036.01 1.86067 2.5343 0
M  V30 21693 N 2039.78 0.45001 1.51039 0
M  V30 21694 C 2041.19 -0.0101397 1.86697 0
M  V30 21695 C 2041.54 -1.40804 1.36633 0
M  V30 21696 O 2040.67 -2.03986 0.722411 0
M  V30 21697 C 2041.26 -0.0251761 3.38791 0
M  V30 21698 C 2039.82 -0.429779 3.73938 0
M  V30 21699 C 2038.97 0.369286 2.7483 0
M  V30 21700 H 2041.92 0.665278 1.44082 0
M  V30 21701 H 2041.94 -0.831964 3.71293 0
M  V30 21702 H 2041.45 0.992361 3.75198 0
M  V30 21703 H 2039.55 -1.45245 3.43125 0
M  V30 21704 H 2039.66 -0.145773 4.78878 0
M  V30 21705 H 2038.03 -0.174158 2.54104 0
M  V30 21706 H 2038.81 1.38594 3.14081 0
M  V30 21707 N 2041.26 -1.56548 0.18182 0
M  V30 21708 C 2042.48 -2.02015 -0.469543 0
M  V30 21709 C 2042.91 -1.06119 -1.55307 0
M  V30 21710 O 2042.26 -0.0424595 -1.8125 0
M  V30 21711 C 2042.31 -3.46016 -1.01515 0
M  V30 21712 O 2041.42 -3.53215 -2.12869 0
M  V30 21713 H 2040.76 -0.65461 -0.111273 0
M  V30 21714 H 2043.29 -2.02552 0.288798 0
M  V30 21715 H 2043.3 -3.85537 -1.33511 0
M  V30 21716 H 2041.97 -4.15308 -0.22188 0
M  V30 21717 H 2040.55 -3.2556 -1.81838 0
M  V30 21718 O 2042.77 -0.0442804 -1.61439 0
M  V30 21719 H 2043.46 0.566088 -1.85243 0
M  V30 END ATOM
M  V30 BEGIN BOND
M  V30 END BOND
M  V30 END CTAB
M  END
$$$$
